# Generated by pormake.
# Topology pto, (3,4)-cn, num edge types: 1
# Building blocks:
#     Node 0, Type 0, BuildingBlock: OLANEW_clean_sbu_2, # of connection points: 3
#     Node 1, Type 0, BuildingBlock: OLANEW_clean_sbu_2, # of connection points: 3
#     Node 2, Type 0, BuildingBlock: OLANEW_clean_sbu_2, # of connection points: 3
#     Node 3, Type 0, BuildingBlock: OLANEW_clean_sbu_2, # of connection points: 3
#     Node 4, Type 0, BuildingBlock: OLANEW_clean_sbu_2, # of connection points: 3
#     Node 5, Type 0, BuildingBlock: OLANEW_clean_sbu_2, # of connection points: 3
#     Node 6, Type 0, BuildingBlock: OLANEW_clean_sbu_2, # of connection points: 3
#     Node 7, Type 0, BuildingBlock: OLANEW_clean_sbu_2, # of connection points: 3
#     Node 8, Type 1, BuildingBlock: MUDLON_clean_linker_0, # of connection points: 4
#     Node 9, Type 1, BuildingBlock: MUDLON_clean_linker_0, # of connection points: 4
#     Node 10, Type 1, BuildingBlock: MUDLON_clean_linker_0, # of connection points: 4
#     Node 11, Type 1, BuildingBlock: MUDLON_clean_linker_0, # of connection points: 4
#     Node 12, Type 1, BuildingBlock: MUDLON_clean_linker_0, # of connection points: 4
#     Node 13, Type 1, BuildingBlock: MUDLON_clean_linker_0, # of connection points: 4
#     Edge 14, Type (0, 1), BuildingBlock: AJUNOK_clean_linker_0, # of connection points: 2
#     Edge 15, Type (0, 1), BuildingBlock: AJUNOK_clean_linker_0, # of connection points: 2
#     Edge 16, Type (0, 1), BuildingBlock: AJUNOK_clean_linker_0, # of connection points: 2
#     Edge 17, Type (0, 1), BuildingBlock: AJUNOK_clean_linker_0, # of connection points: 2
#     Edge 18, Type (0, 1), BuildingBlock: AJUNOK_clean_linker_0, # of connection points: 2
#     Edge 19, Type (0, 1), BuildingBlock: AJUNOK_clean_linker_0, # of connection points: 2
#     Edge 20, Type (0, 1), BuildingBlock: AJUNOK_clean_linker_0, # of connection points: 2
#     Edge 21, Type (0, 1), BuildingBlock: AJUNOK_clean_linker_0, # of connection points: 2
#     Edge 22, Type (0, 1), BuildingBlock: AJUNOK_clean_linker_0, # of connection points: 2
#     Edge 23, Type (0, 1), BuildingBlock: AJUNOK_clean_linker_0, # of connection points: 2
#     Edge 24, Type (0, 1), BuildingBlock: AJUNOK_clean_linker_0, # of connection points: 2
#     Edge 25, Type (0, 1), BuildingBlock: AJUNOK_clean_linker_0, # of connection points: 2
#     Edge 26, Type (0, 1), BuildingBlock: AJUNOK_clean_linker_0, # of connection points: 2
#     Edge 27, Type (0, 1), BuildingBlock: AJUNOK_clean_linker_0, # of connection points: 2
#     Edge 28, Type (0, 1), BuildingBlock: AJUNOK_clean_linker_0, # of connection points: 2
#     Edge 29, Type (0, 1), BuildingBlock: AJUNOK_clean_linker_0, # of connection points: 2
#     Edge 30, Type (0, 1), BuildingBlock: AJUNOK_clean_linker_0, # of connection points: 2
#     Edge 31, Type (0, 1), BuildingBlock: AJUNOK_clean_linker_0, # of connection points: 2
#     Edge 32, Type (0, 1), BuildingBlock: AJUNOK_clean_linker_0, # of connection points: 2
#     Edge 33, Type (0, 1), BuildingBlock: AJUNOK_clean_linker_0, # of connection points: 2
#     Edge 34, Type (0, 1), BuildingBlock: AJUNOK_clean_linker_0, # of connection points: 2
#     Edge 35, Type (0, 1), BuildingBlock: AJUNOK_clean_linker_0, # of connection points: 2
#     Edge 36, Type (0, 1), BuildingBlock: AJUNOK_clean_linker_0, # of connection points: 2
#     Edge 37, Type (0, 1), BuildingBlock: AJUNOK_clean_linker_0, # of connection points: 2
# Relax obj value: 0.012
# Max RMSD: 0.126
# Mean RMSD: 0.065
data_MOF--net-pto--node1-OLANEW_clean_sbu_2--node2-MUDLON_clean_linker_0--edge1-AJUNOK_clean_linker_0
_symmetry_space_group_name_H-M    P1
_symmetry_Int_Tables_number       1
_symmetry_cell_setting            triclinic
loop_
_symmetry_equiv_pos_as_xyz
'x, y, z'
_cell_length_a     32.170476
_cell_length_b     57.651851
_cell_length_c     45.020305
_cell_angle_alpha  92.802537
_cell_angle_beta   88.640831
_cell_angle_gamma 106.9822
loop_
_atom_site_label
_atom_site_type_symbol
_atom_site_fract_x
_atom_site_fract_y
_atom_site_fract_z
_atom_type_partial_charge
O0 O 0.29988 0.31213 0.30401 0.0
Cd1 Cd 0.27373 0.32096 0.35315 0.0
O2 O 0.34686 0.34809 0.29884 0.0
Cd3 Cd 0.32227 0.36382 0.33806 0.0
O4 O 0.28742 0.38474 0.36494 0.0
C5 C 0.29504 0.40711 0.35992 0.0
O6 O 0.3251 0.41667 0.34017 0.0
C7 C 0.33019 0.32629 0.28929 0.0
C8 C 0.29836 0.29092 0.39157 0.0
O9 O 0.26169 0.28387 0.37831 0.0
O10 O 0.32267 0.31249 0.3873 0.0
O11 O 0.28108 0.86117 0.78187 0.0
Cd12 Cd 0.21865 0.85867 0.75058 0.0
O13 O 0.31316 0.84326 0.74808 0.0
Cd14 Cd 0.25689 0.83013 0.71929 0.0
O15 O 0.20919 0.80178 0.69398 0.0
C16 C 0.21722 0.7815 0.69026 0.0
O17 O 0.25327 0.77928 0.70127 0.0
C18 C 0.31379 0.85441 0.77321 0.0
C19 C 0.24079 0.89606 0.71062 0.0
O20 O 0.22704 0.89956 0.73691 0.0
O21 O 0.24325 0.87477 0.70308 0.0
O22 O 0.82893 0.80326 0.34431 0.0
Cd23 Cd 0.79969 0.76819 0.31022 0.0
O24 O 0.86892 0.82636 0.31055 0.0
Cd25 Cd 0.83938 0.80193 0.27341 0.0
O26 O 0.79455 0.80343 0.23854 0.0
C27 C 0.76568 0.8132 0.24767 0.0
O28 O 0.76447 0.81927 0.27614 0.0
C29 C 0.85647 0.82308 0.33742 0.0
C30 C 0.83387 0.73085 0.32436 0.0
O31 O 0.85241 0.74637 0.30517 0.0
O32 O 0.79851 0.73275 0.33652 0.0
O33 O 0.79798 0.29851 0.66049 0.0
Cd34 Cd 0.7526 0.26003 0.67906 0.0
O35 O 0.76394 0.3211 0.68587 0.0
Cd36 Cd 0.71935 0.2925 0.71063 0.0
O37 O 0.67644 0.29028 0.74925 0.0
C38 C 0.68041 0.31089 0.7622 0.0
O39 O 0.70898 0.32998 0.75149 0.0
C40 C 0.79326 0.31925 0.66729 0.0
C41 C 0.76936 0.22174 0.64525 0.0
O42 O 0.74034 0.2314 0.63751 0.0
O43 O 0.78983 0.22984 0.66944 0.0
O44 O 0.75692 0.79606 0.65106 0.0
Cd45 Cd 0.73561 0.76009 0.6813 0.0
O46 O 0.8193 0.81159 0.67393 0.0
Cd47 Cd 0.79667 0.78925 0.71211 0.0
O48 O 0.76005 0.78901 0.75361 0.0
C49 C 0.72158 0.79036 0.75104 0.0
O50 O 0.70622 0.79001 0.72419 0.0
C51 C 0.79363 0.81213 0.65309 0.0
C52 C 0.78133 0.7268 0.6648 0.0
O53 O 0.74491 0.72543 0.6528 0.0
O54 O 0.79593 0.74387 0.68453 0.0
O55 O 0.86314 0.29237 0.33057 0.0
Cd56 Cd 0.82516 0.25278 0.30723 0.0
O57 O 0.83103 0.31328 0.30436 0.0
Cd58 Cd 0.79191 0.28267 0.2771 0.0
O59 O 0.74329 0.268 0.24272 0.0
C60 C 0.74453 0.28162 0.22114 0.0
O61 O 0.77585 0.30218 0.22039 0.0
C62 C 0.85773 0.31259 0.32443 0.0
C63 C 0.83454 0.21534 0.34139 0.0
O64 O 0.86212 0.22429 0.32093 0.0
O65 O 0.80219 0.22392 0.3454 0.0
O66 O 0.27255 0.34529 0.74427 0.0
Cd67 Cd 0.25533 0.34201 0.69108 0.0
O68 O 0.32897 0.37747 0.73933 0.0
Cd69 Cd 0.32972 0.36912 0.69169 0.0
O70 O 0.33975 0.34136 0.65987 0.0
C71 C 0.3381 0.32108 0.67055 0.0
O72 O 0.32964 0.31829 0.69908 0.0
C73 C 0.30296 0.36246 0.7559 0.0
C74 C 0.20973 0.37336 0.67291 0.0
O75 O 0.1899 0.35169 0.68029 0.0
O76 O 0.25126 0.38049 0.6748 0.0
O77 O 0.36988 0.84857 0.31707 0.0
Cd78 Cd 0.32873 0.84137 0.36378 0.0
O79 O 0.31608 0.85084 0.28933 0.0
Cd80 Cd 0.27037 0.83636 0.32509 0.0
O81 O 0.23116 0.80512 0.34878 0.0
C82 C 0.24285 0.7859 0.34534 0.0
O83 O 0.27775 0.78666 0.32919 0.0
C84 C 0.35602 0.85233 0.29207 0.0
C85 C 0.3437 0.88398 0.3994 0.0
O86 O 0.37022 0.87116 0.39892 0.0
O87 O 0.30978 0.87662 0.38316 0.0
H88 H 0.00706 0.42878 0.44702 0.0
N89 N 0.04526 0.46859 0.41806 0.0
H90 H 0.95751 0.39083 0.42661 0.0
H91 H 0.0061 0.46229 0.36365 0.0
H92 H 0.95801 0.42419 0.34271 0.0
H93 H 0.08167 0.46322 0.36336 0.0
H94 H 0.14894 0.45298 0.35366 0.0
H95 H 0.1034 0.46555 0.45779 0.0
H96 H 0.17118 0.45467 0.44797 0.0
H97 H 0.99232 0.48787 0.45011 0.0
H98 H 0.08493 0.50338 0.37745 0.0
H99 H 0.98059 0.5276 0.44588 0.0
H100 H 0.07537 0.54303 0.37432 0.0
H101 H 0.96697 0.65971 0.43405 0.0
H102 H 0.91579 0.67865 0.41332 0.0
H103 H 0.92712 0.64381 0.32772 0.0
H104 H 0.97865 0.6255 0.34818 0.0
H105 H 0.05613 0.64565 0.34997 0.0
H106 H 0.11699 0.68074 0.33893 0.0
H107 H 0.12386 0.70439 0.4316 0.0
H108 H 0.06263 0.66874 0.44272 0.0
H109 H 0.00709 0.61037 0.45192 0.0
H110 H 0.01312 0.56929 0.45533 0.0
H111 H 0.02933 0.56462 0.35979 0.0
N112 N 0.01494 0.63615 0.40395 0.0
H113 H 0.02636 0.60584 0.35698 0.0
C114 C 0.0105 0.44825 0.4069 0.0
C115 C 0.99562 0.428 0.42445 0.0
C116 C 0.96787 0.4063 0.41264 0.0
C117 C 0.95487 0.40437 0.38282 0.0
C118 C 0.96768 0.42511 0.36572 0.0
C119 C 0.9952 0.44689 0.37765 0.0
C120 C 0.08767 0.46563 0.41147 0.0
C121 C 0.10132 0.4621 0.38207 0.0
C122 C 0.13993 0.45628 0.37648 0.0
C123 C 0.16539 0.45336 0.40007 0.0
C124 C 0.15221 0.45708 0.42943 0.0
C125 C 0.11377 0.46336 0.43503 0.0
C126 C 0.03958 0.49232 0.41443 0.0
C127 C 0.01031 0.49983 0.4334 0.0
C128 C 0.00392 0.52265 0.43107 0.0
C129 C 0.0271 0.53872 0.40978 0.0
C130 C 0.05625 0.5311 0.39064 0.0
C131 C 0.06212 0.50817 0.39268 0.0
C132 C 0.97699 0.64125 0.39288 0.0
C133 C 0.95731 0.65555 0.41106 0.0
C134 C 0.9282 0.66639 0.39917 0.0
C135 C 0.91829 0.6631 0.36876 0.0
C136 C 0.93501 0.64708 0.3511 0.0
C137 C 0.96431 0.63635 0.36297 0.0
C138 C 0.05517 0.65427 0.39741 0.0
C139 C 0.07148 0.65773 0.36819 0.0
C140 C 0.10632 0.67794 0.36183 0.0
C141 C 0.12528 0.69516 0.38446 0.0
C142 C 0.10985 0.69132 0.41379 0.0
C143 C 0.07522 0.67096 0.42018 0.0
C144 C 0.0157 0.61128 0.40432 0.0
C145 C 0.01173 0.60034 0.43175 0.0
C146 C 0.01489 0.57677 0.43359 0.0
C147 C 0.02172 0.56346 0.40782 0.0
C148 C 0.02481 0.57435 0.38022 0.0
C149 C 0.02238 0.59805 0.3785 0.0
H150 H 0.98924 0.45621 0.65803 0.0
N151 N 0.02028 0.46758 0.60184 0.0
H152 H 0.9299 0.42092 0.67122 0.0
H153 H 0.96428 0.43743 0.56495 0.0
H154 H 0.90451 0.40173 0.57815 0.0
H155 H 0.0594 0.4417 0.56744 0.0
H156 H 0.11079 0.42078 0.58338 0.0
H157 H 0.06747 0.47863 0.65368 0.0
H158 H 0.11885 0.45791 0.66948 0.0
H159 H 0.01449 0.49683 0.65122 0.0
H160 H 0.02251 0.4944 0.5555 0.0
H161 H 0.00949 0.53801 0.65132 0.0
H162 H 0.01484 0.53529 0.55516 0.0
H163 H 0.96354 0.64102 0.65895 0.0
H164 H 0.90606 0.65877 0.67447 0.0
H165 H 0.87659 0.66417 0.58245 0.0
H166 H 0.93348 0.64555 0.56702 0.0
H167 H 0.0309 0.67687 0.57357 0.0
H168 H 0.08838 0.71225 0.59265 0.0
H169 H 0.09542 0.67437 0.67192 0.0
H170 H 0.03856 0.63897 0.65249 0.0
H171 H 0.95332 0.60071 0.641 0.0
H172 H 0.96166 0.56031 0.64094 0.0
H173 H 0.04885 0.57656 0.56521 0.0
N174 N 0.99228 0.63662 0.60165 0.0
H175 H 0.03853 0.6168 0.56448 0.0
C176 C 0.98093 0.44963 0.61036 0.0
C177 C 0.97021 0.44498 0.64039 0.0
C178 C 0.93641 0.42466 0.64795 0.0
C179 C 0.91308 0.4085 0.62569 0.0
C180 C 0.92246 0.41376 0.59571 0.0
C181 C 0.95613 0.4342 0.58816 0.0
C182 C 0.05933 0.46172 0.60918 0.0
C183 C 0.07351 0.44603 0.58936 0.0
C184 C 0.10247 0.43395 0.59854 0.0
C185 C 0.11811 0.43756 0.62774 0.0
C186 C 0.10711 0.45487 0.64684 0.0
C187 C 0.07772 0.4668 0.63772 0.0
C188 C 0.01978 0.49254 0.60322 0.0
C189 C 0.01566 0.50513 0.63016 0.0
C190 C 0.01203 0.52874 0.63015 0.0
C191 C 0.0116 0.54015 0.60325 0.0
C192 C 0.01586 0.52743 0.57638 0.0
C193 C 0.02008 0.50398 0.57647 0.0
C194 C 0.95257 0.64159 0.61163 0.0
C195 C 0.94371 0.64508 0.64204 0.0
C196 C 0.91107 0.65551 0.65094 0.0
C197 C 0.88683 0.66293 0.62971 0.0
C198 C 0.89408 0.65824 0.59938 0.0
C199 C 0.92657 0.64761 0.5905 0.0
C200 C 0.03046 0.65538 0.61154 0.0
C201 C 0.04552 0.6761 0.59478 0.0
C202 C 0.0779 0.69631 0.60583 0.0
C203 C 0.09566 0.69616 0.63399 0.0
C204 C 0.08216 0.67495 0.65017 0.0
C205 C 0.04972 0.65473 0.63909 0.0
C206 C 0.99514 0.61206 0.60244 0.0
C207 C 0.97405 0.59579 0.62419 0.0
C208 C 0.97922 0.57251 0.62434 0.0
C209 C 0.00606 0.565 0.60312 0.0
C210 C 0.02728 0.58139 0.58159 0.0
C211 C 0.02163 0.6045 0.58122 0.0
H212 H 0.32765 0.18388 0.57512 0.0
N213 N 0.39447 0.19087 0.53461 0.0
H214 H 0.31507 0.21525 0.6101 0.0
H215 H 0.45201 0.23243 0.55109 0.0
H216 H 0.44003 0.26367 0.58629 0.0
H217 H 0.4404 0.20942 0.48708 0.0
H218 H 0.41755 0.23163 0.44851 0.0
H219 H 0.31041 0.18971 0.52374 0.0
H220 H 0.28774 0.2121 0.48581 0.0
H221 H 0.32468 0.15147 0.51784 0.0
H222 H 0.44847 0.17236 0.56205 0.0
H223 H 0.31904 0.10897 0.52325 0.0
H224 H 0.44193 0.12977 0.56906 0.0
H225 H 0.29012 0.98844 0.5574 0.0
H226 H 0.25254 0.9614 0.59616 0.0
H227 H 0.36533 0.98735 0.65203 0.0
H228 H 0.4031 0.01413 0.61294 0.0
H229 H 0.42317 0.98579 0.54887 0.0
H230 H 0.41773 0.95569 0.50802 0.0
H231 H 0.32173 0.9821 0.46634 0.0
H232 H 0.32564 0.01128 0.50834 0.0
H233 H 0.30544 0.03428 0.55986 0.0
H234 H 0.30811 0.07675 0.55573 0.0
H235 H 0.44721 0.09528 0.54156 0.0
N236 N 0.3754 0.0159 0.55819 0.0
H237 H 0.44431 0.05299 0.54741 0.0
C238 C 0.39075 0.20598 0.56039 0.0
C239 C 0.35275 0.20101 0.57803 0.0
C240 C 0.34556 0.21894 0.59789 0.0
C241 C 0.37616 0.24202 0.60025 0.0
C242 C 0.41552 0.2462 0.58434 0.0
C243 C 0.42266 0.22833 0.56459 0.0
C244 C 0.37734 0.19788 0.50826 0.0
C245 C 0.40669 0.20923 0.48623 0.0
C246 C 0.39375 0.22216 0.46454 0.0
C247 C 0.35114 0.22401 0.46468 0.0
C248 C 0.3208 0.21101 0.48525 0.0
C249 C 0.33376 0.19812 0.50692 0.0
C250 C 0.38756 0.16538 0.53925 0.0
C251 C 0.35054 0.1471 0.52905 0.0
C252 C 0.34713 0.12257 0.53236 0.0
C253 C 0.38025 0.11575 0.54629 0.0
C254 C 0.41629 0.13417 0.55747 0.0
C255 C 0.41994 0.15858 0.55379 0.0
C256 C 0.34968 0.00318 0.58229 0.0
C257 C 0.3065 0.98867 0.57818 0.0
C258 C 0.28507 0.97321 0.60027 0.0
C259 C 0.30611 0.97234 0.62699 0.0
C260 C 0.34824 0.98791 0.63175 0.0
C261 C 0.36983 0.00315 0.60952 0.0
C262 C 0.37541 1.00098 0.53152 0.0
C263 C 0.40162 0.98537 0.5306 0.0
C264 C 0.39865 0.9683 0.50709 0.0
C265 C 0.36985 0.96675 0.48355 0.0
C266 C 0.34426 0.98285 0.4841 0.0
C267 C 0.34677 0.99972 0.50796 0.0
C268 C 0.37499 0.04054 0.55447 0.0
C269 C 0.33653 0.0475 0.55612 0.0
C270 C 0.33808 0.07186 0.55346 0.0
C271 C 0.37797 0.08966 0.54865 0.0
C272 C 0.41605 0.08234 0.5461 0.0
C273 C 0.41449 0.05812 0.54914 0.0
H274 H 0.58439 0.83355 0.11421 0.0
N275 N 0.57221 0.87836 0.12518 0.0
H276 H 0.63233 0.81641 0.14179 0.0
H277 H 0.63141 0.90133 0.16477 0.0
H278 H 0.68006 0.88446 0.19206 0.0
H279 H 0.53867 0.91203 0.14932 0.0
H280 H 0.48156 0.90623 0.18792 0.0
H281 H 0.51762 0.83459 0.14154 0.0
H282 H 0.46132 0.82887 0.18001 0.0
H283 H 0.51534 0.84293 0.09037 0.0
H284 H 0.62207 0.90865 0.08782 0.0
H285 H 0.51281 0.84056 0.03626 0.0
H286 H 0.62126 0.90584 0.03358 0.0
H287 H 0.53985 0.82019 0.88702 0.0
H288 H 0.57642 0.79686 0.85464 0.0
H289 H 0.68923 0.85955 0.85036 0.0
H290 H 0.65268 0.88271 0.88334 0.0
H291 H 0.56776 0.898 0.85944 0.0
H292 H 0.50511 0.89683 0.82874 0.0
H293 H 0.42439 0.8393 0.88057 0.0
H294 H 0.48707 0.84054 0.9112 0.0
H295 H 0.5517 0.83001 0.93907 0.0
H296 H 0.5509 0.83221 0.99321 0.0
H297 H 0.58103 0.91037 0.99239 0.0
N298 N 0.57082 0.86875 0.90244 0.0
H299 H 0.58396 0.90799 0.93811 0.0
C300 C 0.60444 0.86881 0.13752 0.0
C301 C 0.60574 0.84492 0.13075 0.0
C302 C 0.63323 0.83516 0.14645 0.0
C303 C 0.65981 0.84912 0.16906 0.0
C304 C 0.65966 0.87326 0.17487 0.0
C305 C 0.63223 0.88297 0.15923 0.0
C306 C 0.53267 0.87388 0.14262 0.0
C307 C 0.5209 0.8938 0.15527 0.0
C308 C 0.48848 0.89049 0.17727 0.0
C309 C 0.46771 0.86715 0.18702 0.0
C310 C 0.47729 0.84705 0.17293 0.0
C311 C 0.50939 0.85034 0.15084 0.0
C312 C 0.56865 0.87629 0.09325 0.0
C313 C 0.53822 0.85692 0.07826 0.0
C314 C 0.53711 0.85543 0.04716 0.0
C315 C 0.56671 0.87306 0.03042 0.0
C316 C 0.5973 0.89223 0.04561 0.0
C317 C 0.59805 0.89382 0.07662 0.0
C318 C 0.59363 0.85333 0.88752 0.0
C319 C 0.57279 0.82879 0.87973 0.0
C320 C 0.59358 0.8155 0.86103 0.0
C321 C 0.63535 0.82653 0.84962 0.0
C322 C 0.65707 0.85057 0.85889 0.0
C323 C 0.63629 0.86383 0.87765 0.0
C324 C 0.53212 0.86946 0.88753 0.0
C325 C 0.53636 0.88543 0.86443 0.0
C326 C 0.50077 0.88464 0.84688 0.0
C327 C 0.46022 0.86779 0.85218 0.0
C328 C 0.45538 0.85247 0.87614 0.0
C329 C 0.49114 0.85318 0.89362 0.0
C330 C 0.56878 0.869 0.93446 0.0
C331 C 0.55854 0.84764 0.95043 0.0
C332 C 0.55758 0.84891 0.98154 0.0
C333 C 0.56621 0.87149 0.9973 0.0
C334 C 0.57523 0.8927 0.98112 0.0
C335 C 0.57666 0.89141 0.9501 0.0
H336 H 0.79174 0.10707 0.51472 0.0
N337 N 0.87816 0.113 0.50355 0.0
H338 H 0.76158 0.1301 0.55189 0.0
H339 H 0.92073 0.14241 0.54715 0.0
H340 H 0.89097 0.16632 0.58376 0.0
H341 H 0.93461 0.15098 0.48014 0.0
H342 H 0.92427 0.17271 0.43685 0.0
H343 H 0.81073 0.09786 0.46461 0.0
H344 H 0.7998 0.11969 0.42121 0.0
H345 H 0.81789 0.07389 0.52861 0.0
H346 H 0.93684 0.09472 0.47712 0.0
H347 H 0.82306 0.03282 0.52993 0.0
H348 H 0.94082 0.05316 0.47681 0.0
H349 H 0.82354 0.91015 0.50657 0.0
H350 H 0.79469 0.87886 0.5422 0.0
H351 H 0.90304 0.9123 0.60016 0.0
H352 H 0.93345 0.94257 0.56308 0.0
H353 H 0.95622 0.917 0.49471 0.0
H354 H 0.95173 0.88902 0.45117 0.0
H355 H 0.84861 0.91323 0.41619 0.0
H356 H 0.85229 0.94057 0.45963 0.0
H357 H 0.8266 0.95517 0.507 0.0
H358 H 0.81807 0.99574 0.5039 0.0
H359 H 0.9577 0.02658 0.50841 0.0
N360 N 0.9037 0.9439 0.50882 0.0
H361 H 0.96566 0.98584 0.50976 0.0
C362 C 0.85864 0.12295 0.52831 0.0
C363 C 0.81354 0.1195 0.53015 0.0
C364 C 0.79637 0.1329 0.5512 0.0
C365 C 0.82401 0.15041 0.57031 0.0
C366 C 0.86883 0.15293 0.56939 0.0
C367 C 0.88589 0.1393 0.54857 0.0
C368 C 0.87351 0.12296 0.47554 0.0
C369 C 0.90562 0.14376 0.46691 0.0
C370 C 0.89969 0.15607 0.44218 0.0
C371 C 0.86133 0.14779 0.4256 0.0
C372 C 0.82964 0.12644 0.43366 0.0
C373 C 0.83582 0.11398 0.45836 0.0
C374 C 0.87739 0.08777 0.50289 0.0
C375 C 0.84488 0.06974 0.51716 0.0
C376 C 0.84769 0.04596 0.51775 0.0
C377 C 0.88264 0.03955 0.50377 0.0
C378 C 0.91405 0.05743 0.48855 0.0
C379 C 0.91159 0.0812 0.48839 0.0
C380 C 0.88116 0.92853 0.53202 0.0
C381 C 0.84082 0.91098 0.5271 0.0
C382 C 0.82407 0.89317 0.54772 0.0
C383 C 0.84655 0.89299 0.57411 0.0
C384 C 0.88526 0.91166 0.57986 0.0
C385 C 0.90245 0.92913 0.55892 0.0
C386 C 0.90508 0.93112 0.48054 0.0
C387 C 0.9334 0.91668 0.47728 0.0
C388 C 0.93067 0.90068 0.4526 0.0
C389 C 0.9 0.89917 0.43042 0.0
C390 C 0.87294 0.91437 0.43287 0.0
C391 C 0.87516 0.93008 0.4578 0.0
C392 C 0.89698 0.96753 0.50827 0.0
C393 C 0.85531 0.97069 0.50716 0.0
C394 C 0.85051 0.99398 0.5056 0.0
C395 C 0.8872 0.0146 0.50562 0.0
C396 C 0.92868 0.01123 0.50751 0.0
C397 C 0.9334 0.98797 0.50859 0.0
H398 H 0.48343 0.24683 0.16433 0.0
N399 N 0.47038 0.26504 0.11247 0.0
H400 H 0.55222 0.24769 0.18608 0.0
H401 H 0.55035 0.27306 0.08262 0.0
H402 H 0.61875 0.27325 0.10433 0.0
H403 H 0.50358 0.30561 0.1486 0.0
H404 H 0.46582 0.32048 0.18942 0.0
H405 H 0.38655 0.24832 0.12734 0.0
H406 H 0.34791 0.2637 0.16776 0.0
H407 H 0.42188 0.24657 0.06524 0.0
H408 H 0.51921 0.3107 0.09791 0.0
H409 H 0.41749 0.26646 0.01916 0.0
H410 H 0.5171 0.33022 0.05159 0.0
H411 H 0.45992 0.31275 0.87631 0.0
H412 H 0.50951 0.30208 0.83998 0.0
H413 H 0.61824 0.35352 0.88405 0.0
H414 H 0.56801 0.36474 0.91993 0.0
H415 H 0.48738 0.38632 0.88974 0.0
H416 H 0.43436 0.39178 0.85541 0.0
H417 H 0.34075 0.32686 0.88607 0.0
H418 H 0.39559 0.32039 0.91849 0.0
H419 H 0.45791 0.29871 0.92835 0.0
H420 H 0.45409 0.27884 0.97503 0.0
H421 H 0.47737 0.34834 0.02283 0.0
N422 N 0.48167 0.34795 0.92112 0.0
H423 H 0.48435 0.36827 0.97552 0.0
C424 C 0.51132 0.2622 0.12275 0.0
C425 C 0.51274 0.25293 0.15101 0.0
C426 C 0.55215 0.2531 0.16338 0.0
C427 C 0.59118 0.2616 0.14738 0.0
C428 C 0.5894 0.26783 0.11775 0.0
C429 C 0.54992 0.2679 0.10541 0.0
C430 C 0.44788 0.27556 0.13512 0.0
C431 C 0.46949 0.29649 0.15235 0.0
C432 C 0.44786 0.305 0.1757 0.0
C433 C 0.40414 0.29299 0.18211 0.0
C434 C 0.38196 0.2729 0.16386 0.0
C435 C 0.40378 0.26421 0.14067 0.0
C436 C 0.47127 0.27687 0.08478 0.0
C437 C 0.44282 0.2648 0.0622 0.0
C438 C 0.44049 0.27622 0.03586 0.0
C439 C 0.46702 0.30001 0.03144 0.0
C440 C 0.49548 0.31212 0.05427 0.0
C441 C 0.49712 0.30085 0.08079 0.0
C442 C 0.51038 0.3398 0.90074 0.0
C443 C 0.49442 0.32164 0.87833 0.0
C444 C 0.52286 0.31534 0.85774 0.0
C445 C 0.56779 0.32683 0.85932 0.0
C446 C 0.58374 0.34444 0.88225 0.0
C447 C 0.55524 0.35082 0.90275 0.0
C448 C 0.44584 0.35306 0.90673 0.0
C449 C 0.45503 0.37363 0.88962 0.0
C450 C 0.42428 0.37686 0.87019 0.0
C451 C 0.38278 0.35992 0.86807 0.0
C452 C 0.37244 0.34019 0.88692 0.0
C453 C 0.40379 0.33657 0.90577 0.0
C454 C 0.47249 0.33518 0.94841 0.0
C455 C 0.46227 0.30973 0.9488 0.0
C456 C 0.4596 0.2983 0.97572 0.0
C457 C 0.46608 0.31195 0.0029 0.0
C458 C 0.47351 0.33725 0.0024 0.0
C459 C 0.47697 0.34869 0.97542 0.0
C460 C 0.23502 0.41062 0.39472 0.0
C461 C 0.26669 0.42116 0.37329 0.0
C462 C 0.20392 0.42197 0.40477 0.0
C463 C 0.20319 0.44417 0.39362 0.0
H464 H 0.23315 0.39303 0.40306 0.0
H465 H 0.17889 0.41267 0.42017 0.0
S466 S 0.28166 0.48095 0.34028 0.0
N467 N 0.29765 0.45646 0.34355 0.0
N468 N 0.23876 0.47748 0.36235 0.0
C469 C 0.23596 0.4556 0.37357 0.0
C470 C 0.26788 0.4442 0.36347 0.0
C471 C 0.19517 0.73781 0.67263 0.0
C472 C 0.18617 0.76035 0.6748 0.0
C473 C 0.16598 0.71722 0.65918 0.0
C474 C 0.12681 0.71837 0.64712 0.0
H475 H 0.22484 0.7359 0.68165 0.0
H476 H 0.17417 0.70025 0.65817 0.0
S477 S 0.08708 0.77266 0.6472 0.0
N478 N 0.13474 0.7824 0.66366 0.0
N479 N 0.07993 0.74361 0.63855 0.0
C480 C 0.1174 0.74074 0.64889 0.0
C481 C 0.14703 0.76173 0.66268 0.0
C482 C 0.8357 0.69731 0.35727 0.0
C483 C 0.85372 0.71204 0.33337 0.0
C484 C 0.85592 0.68092 0.36803 0.0
C485 C 0.89469 0.67844 0.35511 0.0
H486 H 0.80632 0.69886 0.36835 0.0
H487 H 0.84149 0.67039 0.38691 0.0
S488 S 0.9548 0.71216 0.29162 0.0
N489 N 0.91221 0.72242 0.29659 0.0
N490 N 0.95023 0.69185 0.31702 0.0
C491 C 0.91245 0.69253 0.33072 0.0
C492 C 0.89199 0.70926 0.31981 0.0
C493 C 0.81955 0.36451 0.66506 0.0
C494 C 0.82265 0.34159 0.65465 0.0
C495 C 0.84824 0.38603 0.65507 0.0
C496 C 0.88091 0.38554 0.63403 0.0
H497 H 0.79527 0.36595 0.68156 0.0
H498 H 0.8451 0.40322 0.66409 0.0
S499 S 0.90301 0.33066 0.59919 0.0
N500 N 0.86102 0.31993 0.62152 0.0
N501 N 0.91494 0.3605 0.60288 0.0
C502 C 0.88399 0.36289 0.62289 0.0
C503 C 0.85491 0.3409 0.63318 0.0
C504 C 0.28793 0.24973 0.41138 0.0
C505 C 0.3126 0.2743 0.41045 0.0
C506 C 0.3009 0.23346 0.42856 0.0
C507 C 0.33916 0.2411 0.44534 0.0
H508 H 0.25834 0.24289 0.39868 0.0
H509 H 0.28089 0.21474 0.42866 0.0
S510 S 0.41416 0.30366 0.45209 0.0
N511 N 0.37661 0.30555 0.42874 0.0
N512 N 0.40058 0.275 0.46116 0.0
C513 C 0.364 0.2656 0.44483 0.0
C514 C 0.35082 0.28219 0.42739 0.0
C515 C 0.34818 0.86375 0.82347 0.0
C516 C 0.35207 0.85877 0.79273 0.0
C517 C 0.38329 0.8667 0.84263 0.0
C518 C 0.42372 0.86521 0.83167 0.0
H519 H 0.31755 0.8649 0.83294 0.0
H520 H 0.37884 0.87024 0.86617 0.0
S521 S 0.45147 0.8529 0.75323 0.0
N522 N 0.40013 0.85276 0.75234 0.0
N523 N 0.4659 0.85843 0.78841 0.0
C524 C 0.42831 0.86057 0.80104 0.0
C525 C 0.39255 0.85731 0.78156 0.0
C526 C 0.87073 0.83727 0.3906 0.0
C527 C 0.87184 0.84283 0.36044 0.0
C528 C 0.88168 0.85568 0.41304 0.0
C529 C 0.89337 0.88028 0.40615 0.0
H530 H 0.86079 0.81855 0.39698 0.0
H531 H 0.87949 0.85063 0.43602 0.0
S532 S 0.90269 0.90467 0.3309 0.0
N533 N 0.88716 0.8749 0.32494 0.0
N534 N 0.9069 0.90939 0.36733 0.0
C535 C 0.89548 0.88615 0.37618 0.0
C536 C 0.88501 0.86745 0.35326 0.0
C537 C 0.65412 0.33757 0.79866 0.0
C538 C 0.65245 0.31397 0.78789 0.0
C539 C 0.62724 0.34145 0.82208 0.0
C540 C 0.59759 0.3219 0.83581 0.0
H541 H 0.67587 0.35334 0.78864 0.0
H542 H 0.62899 0.35997 0.829 0.0
S543 S 0.58251 0.2565 0.81779 0.0
N544 N 0.61993 0.27065 0.79384 0.0
N545 N 0.56972 0.27804 0.83823 0.0
C546 C 0.59617 0.29817 0.82584 0.0
C547 C 0.62354 0.29419 0.80185 0.0
C548 C 0.25839 0.91053 0.65909 0.0
C549 C 0.25451 0.91603 0.68966 0.0
C550 C 0.27359 0.92893 0.63888 0.0
C551 C 0.28607 0.95353 0.6485 0.0
H552 H 0.25002 0.89183 0.65068 0.0
H553 H 0.27691 0.92384 0.61566 0.0
S554 S 0.28085 0.97785 0.72577 0.0
N555 N 0.26309 0.94808 0.72833 0.0
N556 N 0.29226 0.9826 0.69022 0.0
C557 C 0.28169 0.95938 0.67882 0.0
C558 C 0.26567 0.94065 0.69942 0.0
C559 C 0.70684 0.83196 0.23811 0.0
C560 C 0.73682 0.82014 0.22674 0.0
C561 C 0.68179 0.84088 0.21923 0.0
C562 C 0.68546 0.83829 0.18817 0.0
H563 H 0.70312 0.83482 0.26186 0.0
H564 H 0.65947 0.85004 0.22907 0.0
S565 S 0.75753 0.808 0.14678 0.0
N566 N 0.76754 0.80559 0.18214 0.0
N567 N 0.72027 0.82253 0.14667 0.0
C568 C 0.71422 0.82591 0.17636 0.0
C569 C 0.73996 0.81682 0.19563 0.0
C570 C 0.80725 0.18958 0.63738 0.0
C571 C 0.78019 0.2024 0.62635 0.0
C572 C 0.82031 0.17233 0.61943 0.0
C573 C 0.80689 0.16724 0.5897 0.0
H574 H 0.81891 0.19304 0.66002 0.0
H575 H 0.84143 0.16306 0.62882 0.0
S576 S 0.73684 0.19615 0.54968 0.0
N577 N 0.74044 0.20873 0.58361 0.0
N578 N 0.76573 0.17675 0.54981 0.0
C579 C 0.77946 0.17972 0.57845 0.0
C580 C 0.76595 0.19718 0.59676 0.0
C581 C 0.36998 0.33374 0.24063 0.0
C582 C 0.34682 0.31724 0.26147 0.0
C583 C 0.38744 0.32571 0.21467 0.0
C584 C 0.38266 0.3009 0.20864 0.0
H585 H 0.37475 0.35304 0.24439 0.0
H586 H 0.40504 0.33907 0.19926 0.0
S587 S 0.32679 0.25038 0.25674 0.0
N588 N 0.32072 0.27491 0.27454 0.0
N589 N 0.35442 0.25995 0.22613 0.0
C590 C 0.35954 0.2842 0.22925 0.0
C591 C 0.34143 0.29233 0.25557 0.0
C592 C 0.84818 0.71327 0.66771 0.0
C593 C 0.80642 0.70955 0.65602 0.0
C594 C 0.87336 0.69784 0.65944 0.0
C595 C 0.85791 0.67796 0.63917 0.0
H596 H 0.86198 0.72846 0.68312 0.0
H597 H 0.90571 0.70189 0.66853 0.0
S598 S 0.74984 0.65916 0.60338 0.0
N599 N 0.75009 0.68379 0.62381 0.0
N600 N 0.79748 0.65466 0.60859 0.0
C601 C 0.81598 0.6737 0.62766 0.0
C602 C 0.79022 0.68947 0.63604 0.0
C603 C 0.87007 0.35682 0.33757 0.0
C604 C 0.88244 0.3355 0.34035 0.0
C605 C 0.89324 0.37889 0.35164 0.0
C606 C 0.92975 0.38058 0.36908 0.0
H607 H 0.84218 0.35654 0.32438 0.0
H608 H 0.88241 0.39476 0.34888 0.0
S609 S 0.9772 0.33058 0.38245 0.0
N610 N 0.93446 0.31775 0.36152 0.0
N611 N 0.97832 0.35931 0.38751 0.0
C612 C 0.94263 0.35948 0.37205 0.0
C613 C 0.91893 0.33695 0.35781 0.0
C614 C 0.20554 0.41478 0.66127 0.0
C615 C 0.18558 0.38953 0.66185 0.0
C616 C 0.18357 0.43038 0.65043 0.0
C617 C 0.14127 0.42118 0.63924 0.0
H618 H 0.23831 0.42262 0.66941 0.0
H619 H 0.19992 0.44968 0.65047 0.0
S620 S 0.07407 0.35681 0.63607 0.0
N621 N 0.12042 0.35628 0.65061 0.0
N622 N 0.07972 0.38557 0.62995 0.0
C623 C 0.12089 0.39608 0.63975 0.0
C624 C 0.14288 0.38026 0.65113 0.0
C625 C 0.17937 0.76234 0.37549 0.0
C626 C 0.21576 0.76266 0.3573 0.0
C627 C 0.15127 0.74048 0.38517 0.0
C628 C 0.15827 0.71808 0.37688 0.0
H629 H 0.17192 0.77906 0.38184 0.0
H630 H 0.12294 0.74105 0.39835 0.0
S631 S 0.25037 0.70875 0.33179 0.0
N632 N 0.25856 0.73842 0.33301 0.0
N633 N 0.20542 0.69746 0.3512 0.0
C634 C 0.19518 0.7181 0.35962 0.0
C635 C 0.22403 0.74035 0.34989 0.0
C636 C 0.84976 0.84261 0.62477 0.0
C637 C 0.80585 0.83214 0.63226 0.0
C638 C 0.86244 0.86221 0.60602 0.0
C639 C 0.8318 0.87246 0.59445 0.0
H640 H 0.87456 0.83545 0.63322 0.0
H641 H 0.89658 0.86919 0.60029 0.0
S642 S 0.71294 0.8529 0.60956 0.0
N643 N 0.73171 0.83389 0.62766 0.0
N644 N 0.75565 0.87138 0.5934 0.0
C645 C 0.78776 0.86237 0.60222 0.0
C646 C 0.77477 0.84209 0.62089 0.0
C647 C 0.67647 0.25315 0.1994 0.0
C648 C 0.70864 0.27577 0.19927 0.0
C649 C 0.63961 0.24822 0.18143 0.0
C650 C 0.63339 0.26569 0.16264 0.0
H651 H 0.67912 0.23933 0.21408 0.0
H652 H 0.61521 0.23078 0.18285 0.0
S653 S 0.70854 0.32745 0.15306 0.0
N654 N 0.73263 0.31544 0.17753 0.0
N655 N 0.66298 0.30631 0.14443 0.0
C656 C 0.66604 0.28803 0.16142 0.0
C657 C 0.70371 0.29303 0.17957 0.0
C658 C 0.34347 0.27862 0.66429 0.0
C659 C 0.34689 0.30107 0.65177 0.0
C660 C 0.35262 0.25952 0.64751 0.0
C661 C 0.36596 0.26222 0.61764 0.0
H662 H 0.3338 0.27571 0.68734 0.0
H663 H 0.34986 0.24265 0.65809 0.0
S664 S 0.3776 0.31649 0.57352 0.0
N665 N 0.36297 0.32434 0.60703 0.0
N666 N 0.38004 0.28842 0.57563 0.0
C667 C 0.36887 0.28433 0.60464 0.0
C668 C 0.35935 0.30375 0.62164 0.0
C669 C 0.3745 0.86712 0.24046 0.0
C670 C 0.38575 0.85704 0.2659 0.0
C671 C 0.40137 0.87073 0.21502 0.0
C672 C 0.43989 0.86392 0.214 0.0
H673 H 0.34471 0.87226 0.24017 0.0
H674 H 0.39163 0.87849 0.19587 0.0
S675 S 0.48493 0.83741 0.27445 0.0
N676 N 0.43906 0.84087 0.28837 0.0
N677 N 0.4889 0.84743 0.24048 0.0
C678 C 0.45179 0.85409 0.23923 0.0
C679 C 0.42491 0.85071 0.26521 0.0
C680 C 0.809 0.18662 0.38254 0.0
C681 C 0.8405 0.19635 0.36067 0.0
C682 C 0.81514 0.17007 0.40259 0.0
C683 C 0.85312 0.16269 0.40169 0.0
H684 H 0.77968 0.19221 0.3847 0.0
H685 H 0.7907 0.16375 0.41968 0.0
S686 S 0.94388 0.18082 0.3473 0.0
N687 N 0.90997 0.19593 0.33822 0.0
N688 N 0.92127 0.16487 0.376 0.0
C689 C 0.88414 0.17149 0.37933 0.0
C690 C 0.87788 0.18827 0.35878 0.0
C691 C 0.31293 0.33997 0.79949 0.0
C692 C 0.31371 0.36214 0.78752 0.0
C693 C 0.3328 0.33934 0.82665 0.0
C694 C 0.35346 0.36085 0.84322 0.0
H695 H 0.29994 0.32307 0.7867 0.0
H696 H 0.33453 0.32191 0.83354 0.0
S697 S 0.35505 0.42316 0.82449 0.0
N698 N 0.3312 0.40581 0.79582 0.0
N699 N 0.3661 0.40466 0.84795 0.0
C700 C 0.35035 0.38297 0.83282 0.0
C701 C 0.33112 0.38361 0.80472 0.0
C702 C 0.31597 0.91341 0.43072 0.0
C703 C 0.35137 0.90623 0.41889 0.0
C704 C 0.32229 0.93339 0.45096 0.0
C705 C 0.36431 0.94719 0.45981 0.0
H706 H 0.28301 0.90301 0.42513 0.0
H707 H 0.29391 0.93753 0.46049 0.0
S708 S 0.46805 0.93798 0.43171 0.0
N709 N 0.43 0.91562 0.41542 0.0
N710 N 0.44201 0.95373 0.45251 0.0
C711 C 0.40006 0.9409 0.44689 0.0
C712 C 0.39356 0.92031 0.42669 0.0
C713 C 0.71893 0.8048 0.80429 0.0
C714 C 0.69713 0.79607 0.7774 0.0
C715 C 0.69825 0.81376 0.82806 0.0
C716 C 0.65485 0.81404 0.82599 0.0
H717 H 0.75281 0.80572 0.80662 0.0
H718 H 0.71668 0.8211 0.84795 0.0
S719 S 0.58222 0.79156 0.76144 0.0
N720 N 0.62868 0.78683 0.75095 0.0
N721 N 0.59012 0.80384 0.7955 0.0
C722 C 0.63205 0.80431 0.79982 0.0
C723 C 0.65311 0.79529 0.77557 0.0
loop_
_geom_bond_atom_site_label_1
_geom_bond_atom_site_label_2
_geom_bond_distance
_geom_bond_site_symmetry_2
_ccdc_geom_bond_type
O0 Cd1 2.300 . S
O0 C7 1.275 . S
Cd1 O0 2.300 . S
Cd1 O9 2.381 . S
Cd1 O10 2.378 . S
O2 Cd3 2.385 . S
O2 C7 1.255 . S
Cd3 O2 2.385 . S
Cd3 O4 2.317 . S
O4 Cd3 2.317 . S
O4 C5 1.232 . S
C5 O4 1.232 . S
C5 O6 1.218 . S
O6 C5 1.218 . S
C7 O0 1.275 . S
C7 O2 1.255 . S
C8 O9 1.258 . S
C8 O10 1.256 . S
O9 Cd1 2.381 . S
O9 C8 1.258 . S
O10 Cd1 2.378 . S
O10 C8 1.256 . S
O11 Cd12 2.300 . S
O11 C18 1.275 . S
Cd12 O11 2.300 . S
Cd12 O20 2.381 . S
Cd12 O21 2.378 . S
O13 Cd14 2.385 . S
O13 C18 1.255 . S
Cd14 O13 2.385 . S
Cd14 O15 2.317 . S
O15 Cd14 2.317 . S
O15 C16 1.232 . S
C16 O15 1.232 . S
C16 O17 1.218 . S
O17 C16 1.218 . S
C18 O11 1.275 . S
C18 O13 1.255 . S
C19 O20 1.258 . S
C19 O21 1.256 . S
O20 Cd12 2.381 . S
O20 C19 1.258 . S
O21 Cd12 2.378 . S
O21 C19 1.256 . S
O22 Cd23 2.300 . S
O22 C29 1.275 . S
Cd23 O22 2.300 . S
Cd23 O31 2.381 . S
Cd23 O32 2.378 . S
O24 Cd25 2.385 . S
O24 C29 1.255 . S
Cd25 O24 2.385 . S
Cd25 O26 2.317 . S
O26 Cd25 2.317 . S
O26 C27 1.232 . S
C27 O26 1.232 . S
C27 O28 1.218 . S
O28 C27 1.218 . S
C29 O22 1.275 . S
C29 O24 1.255 . S
C30 O31 1.258 . S
C30 O32 1.256 . S
O31 Cd23 2.381 . S
O31 C30 1.258 . S
O32 Cd23 2.378 . S
O32 C30 1.256 . S
O33 Cd34 2.300 . S
O33 C40 1.275 . S
Cd34 O33 2.300 . S
Cd34 O42 2.381 . S
Cd34 O43 2.378 . S
O35 Cd36 2.385 . S
O35 C40 1.255 . S
Cd36 O35 2.385 . S
Cd36 O37 2.317 . S
O37 Cd36 2.317 . S
O37 C38 1.232 . S
C38 O37 1.232 . S
C38 O39 1.218 . S
O39 C38 1.218 . S
C40 O33 1.275 . S
C40 O35 1.255 . S
C41 O42 1.258 . S
C41 O43 1.256 . S
O42 Cd34 2.381 . S
O42 C41 1.258 . S
O43 Cd34 2.378 . S
O43 C41 1.256 . S
O44 Cd45 2.300 . S
O44 C51 1.275 . S
Cd45 O44 2.300 . S
Cd45 O53 2.381 . S
Cd45 O54 2.378 . S
O46 Cd47 2.385 . S
O46 C51 1.255 . S
Cd47 O46 2.385 . S
Cd47 O48 2.317 . S
O48 Cd47 2.317 . S
O48 C49 1.232 . S
C49 O48 1.232 . S
C49 O50 1.218 . S
O50 C49 1.218 . S
C51 O44 1.275 . S
C51 O46 1.255 . S
C52 O53 1.258 . S
C52 O54 1.256 . S
O53 Cd45 2.381 . S
O53 C52 1.258 . S
O54 Cd45 2.378 . S
O54 C52 1.256 . S
O55 Cd56 2.300 . S
O55 C62 1.275 . S
Cd56 O55 2.300 . S
Cd56 O64 2.381 . S
Cd56 O65 2.378 . S
O57 Cd58 2.385 . S
O57 C62 1.255 . S
Cd58 O57 2.385 . S
Cd58 O59 2.317 . S
O59 Cd58 2.317 . S
O59 C60 1.232 . S
C60 O59 1.232 . S
C60 O61 1.218 . S
O61 C60 1.218 . S
C62 O55 1.275 . S
C62 O57 1.255 . S
C63 O64 1.258 . S
C63 O65 1.256 . S
O64 Cd56 2.381 . S
O64 C63 1.258 . S
O65 Cd56 2.378 . S
O65 C63 1.256 . S
O66 Cd67 2.300 . S
O66 C73 1.275 . S
Cd67 O66 2.300 . S
Cd67 O75 2.381 . S
Cd67 O76 2.378 . S
O68 Cd69 2.385 . S
O68 C73 1.255 . S
Cd69 O68 2.385 . S
Cd69 O70 2.317 . S
O70 Cd69 2.317 . S
O70 C71 1.232 . S
C71 O70 1.232 . S
C71 O72 1.218 . S
O72 C71 1.218 . S
C73 O66 1.275 . S
C73 O68 1.255 . S
C74 O75 1.258 . S
C74 O76 1.256 . S
O75 Cd67 2.381 . S
O75 C74 1.258 . S
O76 Cd67 2.378 . S
O76 C74 1.256 . S
O77 Cd78 2.300 . S
O77 C84 1.275 . S
Cd78 O77 2.300 . S
Cd78 O86 2.381 . S
Cd78 O87 2.378 . S
O79 Cd80 2.385 . S
O79 C84 1.255 . S
Cd80 O79 2.385 . S
Cd80 O81 2.317 . S
O81 Cd80 2.317 . S
O81 C82 1.232 . S
C82 O81 1.232 . S
C82 O83 1.218 . S
O83 C82 1.218 . S
C84 O77 1.275 . S
C84 O79 1.255 . S
C85 O86 1.258 . S
C85 O87 1.256 . S
O86 Cd78 2.381 . S
O86 C85 1.258 . S
O87 Cd78 2.378 . S
O87 C85 1.256 . S
H88 C115 0.929 1_455 S
N89 C114 1.433 . S
N89 C120 1.435 . S
N89 C126 1.423 . S
H90 C116 0.930 . S
H91 C119 0.931 . S
H92 C118 0.929 . S
H93 C121 0.930 . S
H94 C122 0.932 . S
H95 C125 0.929 . S
H96 C124 0.931 . S
H97 C127 0.929 . S
H98 C131 0.932 . S
H99 C128 0.931 . S
H100 C130 0.929 . S
H101 C133 0.929 . S
H102 C134 0.930 . S
H103 C136 0.929 . S
H104 C137 0.930 . S
H105 C139 0.930 . S
H106 C140 0.932 . S
H107 C142 0.931 . S
H108 C143 0.929 . S
H109 C145 0.929 . S
H110 C146 0.931 . S
H111 C148 0.929 . S
N112 C132 1.433 . S
N112 C138 1.435 . S
N112 C144 1.423 . S
H113 C149 0.932 . S
C114 N89 1.433 . S
C114 C115 1.363 1_455 S
C114 C119 1.370 1_455 S
C115 H88 0.929 1_655 S
C115 C114 1.363 1_655 S
C115 C116 1.385 . S
C116 H90 0.930 . S
C116 C115 1.385 . S
C116 C117 1.357 . S
C117 C116 1.357 . S
C117 C118 1.406 . S
C118 H92 0.929 . S
C118 C117 1.406 . S
C118 C119 1.391 . S
C119 H91 0.931 . S
C119 C114 1.370 1_655 S
C119 C118 1.391 . S
C120 N89 1.435 . S
C120 C121 1.358 . S
C120 C125 1.371 . S
C121 H93 0.930 . S
C121 C120 1.358 . S
C121 C122 1.405 . S
C122 H94 0.932 . S
C122 C121 1.405 . S
C122 C123 1.383 . S
C123 C122 1.383 . S
C123 C124 1.393 . S
C124 H96 0.931 . S
C124 C123 1.393 . S
C124 C125 1.382 . S
C125 H95 0.929 . S
C125 C120 1.371 . S
C125 C124 1.382 . S
C126 N89 1.423 . S
C126 C127 1.362 . S
C126 C131 1.388 . S
C127 H97 0.929 . S
C127 C126 1.362 . S
C127 C128 1.376 . S
C128 H99 0.931 . S
C128 C127 1.376 . S
C128 C129 1.396 . S
C129 C128 1.396 . S
C129 C130 1.348 . S
C129 C147 1.472 . S
C130 H100 0.929 . S
C130 C129 1.348 . S
C130 C131 1.443 . S
C131 H98 0.932 . S
C131 C126 1.388 . S
C131 C130 1.443 . S
C132 N112 1.433 . S
C132 C133 1.363 . S
C132 C137 1.370 1_455 S
C133 H101 0.929 . S
C133 C132 1.363 . S
C133 C134 1.385 1_455 S
C134 H102 0.930 . S
C134 C133 1.385 1_655 S
C134 C135 1.357 . S
C135 C134 1.357 . S
C135 C136 1.406 . S
C136 H103 0.929 . S
C136 C135 1.406 . S
C136 C137 1.391 . S
C137 H104 0.930 . S
C137 C132 1.370 1_655 S
C137 C136 1.391 . S
C138 N112 1.435 . S
C138 C139 1.358 . S
C138 C143 1.371 . S
C139 H105 0.930 . S
C139 C138 1.358 . S
C139 C140 1.405 . S
C140 H106 0.932 . S
C140 C139 1.405 . S
C140 C141 1.383 . S
C141 C140 1.383 . S
C141 C142 1.393 . S
C142 H107 0.931 . S
C142 C141 1.393 . S
C142 C143 1.382 . S
C143 H108 0.929 . S
C143 C138 1.371 . S
C143 C142 1.382 . S
C144 N112 1.423 . S
C144 C145 1.362 . S
C144 C149 1.388 . S
C145 H109 0.929 . S
C145 C144 1.362 . S
C145 C146 1.376 . S
C146 H110 0.931 . S
C146 C145 1.376 . S
C146 C147 1.396 . S
C147 C129 1.472 . S
C147 C146 1.396 . S
C147 C148 1.348 . S
C148 H111 0.929 . S
C148 C147 1.348 . S
C148 C149 1.443 . S
C149 H113 0.932 . S
C149 C144 1.388 . S
C149 C148 1.443 . S
H150 C177 0.929 . S
N151 C176 1.433 1_455 S
N151 C182 1.435 . S
N151 C188 1.423 . S
H152 C178 0.930 . S
H153 C181 0.931 . S
H154 C180 0.929 . S
H155 C183 0.930 . S
H156 C184 0.932 . S
H157 C187 0.929 . S
H158 C186 0.931 . S
H159 C189 0.929 . S
H160 C193 0.932 . S
H161 C190 0.931 . S
H162 C192 0.929 . S
H163 C195 0.929 . S
H164 C196 0.930 . S
H165 C198 0.929 . S
H166 C199 0.931 . S
H167 C201 0.930 . S
H168 C202 0.932 . S
H169 C204 0.931 . S
H170 C205 0.929 . S
H171 C207 0.929 . S
H172 C208 0.931 . S
H173 C210 0.929 . S
N174 C194 1.433 1_455 S
N174 C200 1.435 . S
N174 C206 1.423 . S
H175 C211 0.932 . S
C176 N151 1.433 1_655 S
C176 C177 1.363 . S
C176 C181 1.370 . S
C177 H150 0.929 . S
C177 C176 1.363 . S
C177 C178 1.385 . S
C178 H152 0.930 . S
C178 C177 1.385 . S
C178 C179 1.357 . S
C179 C178 1.357 . S
C179 C180 1.406 . S
C180 H154 0.929 . S
C180 C179 1.406 . S
C180 C181 1.391 . S
C181 H153 0.931 . S
C181 C176 1.370 . S
C181 C180 1.391 . S
C182 N151 1.435 . S
C182 C183 1.358 . S
C182 C187 1.371 . S
C183 H155 0.930 . S
C183 C182 1.358 . S
C183 C184 1.405 . S
C184 H156 0.932 . S
C184 C183 1.405 . S
C184 C185 1.383 . S
C185 C184 1.383 . S
C185 C186 1.393 . S
C186 H158 0.931 . S
C186 C185 1.393 . S
C186 C187 1.382 . S
C187 H157 0.929 . S
C187 C182 1.371 . S
C187 C186 1.382 . S
C188 N151 1.423 . S
C188 C189 1.362 1_455 S
C188 C193 1.388 . S
C189 H159 0.929 . S
C189 C188 1.362 1_655 S
C189 C190 1.376 . S
C190 H161 0.931 . S
C190 C189 1.376 . S
C190 C191 1.396 1_655 S
C191 C190 1.396 1_455 S
C191 C192 1.348 . S
C191 C209 1.472 . S
C192 H162 0.929 . S
C192 C191 1.348 . S
C192 C193 1.443 . S
C193 H160 0.932 . S
C193 C188 1.388 . S
C193 C192 1.443 . S
C194 N174 1.433 1_655 S
C194 C195 1.363 . S
C194 C199 1.370 . S
C195 H163 0.929 . S
C195 C194 1.363 . S
C195 C196 1.385 . S
C196 H164 0.930 . S
C196 C195 1.385 . S
C196 C197 1.357 . S
C197 C196 1.357 . S
C197 C198 1.406 . S
C198 H165 0.929 . S
C198 C197 1.406 . S
C198 C199 1.391 . S
C199 H166 0.931 . S
C199 C194 1.370 . S
C199 C198 1.391 . S
C200 N174 1.435 . S
C200 C201 1.358 . S
C200 C205 1.371 . S
C201 H167 0.930 . S
C201 C200 1.358 . S
C201 C202 1.405 . S
C202 H168 0.932 . S
C202 C201 1.405 . S
C202 C203 1.383 . S
C203 C202 1.383 . S
C203 C204 1.393 . S
C204 H169 0.931 . S
C204 C203 1.393 . S
C204 C205 1.382 . S
C205 H170 0.929 . S
C205 C200 1.371 . S
C205 C204 1.382 . S
C206 N174 1.423 . S
C206 C207 1.362 1_455 S
C206 C211 1.388 . S
C207 H171 0.929 . S
C207 C206 1.362 1_655 S
C207 C208 1.376 . S
C208 H172 0.931 . S
C208 C207 1.376 . S
C208 C209 1.396 1_655 S
C209 C191 1.472 . S
C209 C208 1.396 1_455 S
C209 C210 1.348 . S
C210 H173 0.929 . S
C210 C209 1.348 . S
C210 C211 1.443 . S
C211 H175 0.932 . S
C211 C206 1.388 . S
C211 C210 1.443 . S
H212 C239 0.929 . S
N213 C238 1.433 . S
N213 C244 1.435 . S
N213 C250 1.423 . S
H214 C240 0.930 . S
H215 C243 0.931 . S
H216 C242 0.929 . S
H217 C245 0.930 . S
H218 C246 0.932 . S
H219 C249 0.929 . S
H220 C248 0.931 . S
H221 C251 0.929 . S
H222 C255 0.932 . S
H223 C252 0.931 . S
H224 C254 0.929 . S
H225 C257 0.929 . S
H226 C258 0.930 . S
H227 C260 0.929 . S
H228 C261 0.931 . S
H229 C263 0.930 . S
H230 C264 0.932 . S
H231 C266 0.931 . S
H232 C267 0.929 . S
H233 C269 0.929 . S
H234 C270 0.931 . S
H235 C272 0.929 . S
N236 C256 1.433 . S
N236 C262 1.435 . S
N236 C268 1.423 . S
H237 C273 0.932 . S
C238 N213 1.433 . S
C238 C239 1.363 . S
C238 C243 1.370 . S
C239 H212 0.929 . S
C239 C238 1.363 . S
C239 C240 1.385 . S
C240 H214 0.930 . S
C240 C239 1.385 . S
C240 C241 1.357 . S
C241 C240 1.357 . S
C241 C242 1.406 . S
C242 H216 0.929 . S
C242 C241 1.406 . S
C242 C243 1.391 . S
C243 H215 0.931 . S
C243 C238 1.370 . S
C243 C242 1.391 . S
C244 N213 1.435 . S
C244 C245 1.358 . S
C244 C249 1.371 . S
C245 H217 0.930 . S
C245 C244 1.358 . S
C245 C246 1.405 . S
C246 H218 0.932 . S
C246 C245 1.405 . S
C246 C247 1.383 . S
C247 C246 1.383 . S
C247 C248 1.393 . S
C248 H220 0.931 . S
C248 C247 1.393 . S
C248 C249 1.382 . S
C249 H219 0.929 . S
C249 C244 1.371 . S
C249 C248 1.382 . S
C250 N213 1.423 . S
C250 C251 1.362 . S
C250 C255 1.388 . S
C251 H221 0.929 . S
C251 C250 1.362 . S
C251 C252 1.376 . S
C252 H223 0.931 . S
C252 C251 1.376 . S
C252 C253 1.396 . S
C253 C252 1.396 . S
C253 C254 1.348 . S
C253 C271 1.472 . S
C254 H224 0.929 . S
C254 C253 1.348 . S
C254 C255 1.443 . S
C255 H222 0.932 . S
C255 C250 1.388 . S
C255 C254 1.443 . S
C256 N236 1.433 . S
C256 C257 1.363 1_545 S
C256 C261 1.370 . S
C257 H225 0.929 . S
C257 C256 1.363 1_565 S
C257 C258 1.385 . S
C258 H226 0.930 . S
C258 C257 1.385 . S
C258 C259 1.357 1_565 S
C259 C258 1.357 1_545 S
C259 C260 1.406 . S
C260 H227 0.929 . S
C260 C259 1.406 . S
C260 C261 1.391 . S
C261 H228 0.931 . S
C261 C256 1.370 . S
C261 C260 1.391 . S
C262 N236 1.435 . S
C262 C263 1.369 . S
C262 C267 1.371 . S
C263 H229 0.930 . S
C263 C262 1.369 . S
C263 C264 1.395 1_545 S
C264 H230 0.932 . S
C264 C263 1.395 1_565 S
C264 C265 1.383 . S
C265 C264 1.383 . S
C265 C266 1.393 . S
C266 H231 0.931 . S
C266 C265 1.393 . S
C266 C267 1.382 1_565 S
C267 H232 0.929 . S
C267 C262 1.371 . S
C267 C266 1.382 1_545 S
C268 N236 1.423 . S
C268 C269 1.362 . S
C268 C273 1.388 . S
C269 H233 0.929 . S
C269 C268 1.362 . S
C269 C270 1.376 . S
C270 H234 0.931 . S
C270 C269 1.376 . S
C270 C271 1.396 . S
C271 C253 1.472 . S
C271 C270 1.396 . S
C271 C272 1.348 . S
C272 H235 0.929 . S
C272 C271 1.348 . S
C272 C273 1.443 . S
C273 H237 0.932 . S
C273 C268 1.388 . S
C273 C272 1.443 . S
H274 C301 0.929 . S
N275 C300 1.433 . S
N275 C306 1.435 . S
N275 C312 1.423 . S
H276 C302 0.930 . S
H277 C305 0.931 . S
H278 C304 0.929 . S
H279 C307 0.930 . S
H280 C308 0.932 . S
H281 C311 0.929 . S
H282 C310 0.931 . S
H283 C313 0.929 . S
H284 C317 0.932 . S
H285 C314 0.931 . S
H286 C316 0.929 . S
H287 C319 0.929 . S
H288 C320 0.930 . S
H289 C322 0.929 . S
H290 C323 0.931 . S
H291 C325 0.930 . S
H292 C326 0.932 . S
H293 C328 0.931 . S
H294 C329 0.929 . S
H295 C331 0.929 . S
H296 C332 0.931 . S
H297 C334 0.929 . S
N298 C318 1.433 . S
N298 C324 1.435 . S
N298 C330 1.423 . S
H299 C335 0.932 . S
C300 N275 1.433 . S
C300 C301 1.363 . S
C300 C305 1.370 . S
C301 H274 0.929 . S
C301 C300 1.363 . S
C301 C302 1.385 . S
C302 H276 0.930 . S
C302 C301 1.385 . S
C302 C303 1.357 . S
C303 C302 1.357 . S
C303 C304 1.406 . S
C304 H278 0.929 . S
C304 C303 1.406 . S
C304 C305 1.391 . S
C305 H277 0.931 . S
C305 C300 1.370 . S
C305 C304 1.391 . S
C306 N275 1.435 . S
C306 C307 1.358 . S
C306 C311 1.371 . S
C307 H279 0.930 . S
C307 C306 1.358 . S
C307 C308 1.405 . S
C308 H280 0.932 . S
C308 C307 1.405 . S
C308 C309 1.383 . S
C309 C308 1.383 . S
C309 C310 1.393 . S
C310 H282 0.931 . S
C310 C309 1.393 . S
C310 C311 1.382 . S
C311 H281 0.929 . S
C311 C306 1.371 . S
C311 C310 1.382 . S
C312 N275 1.423 . S
C312 C313 1.362 . S
C312 C317 1.388 . S
C313 H283 0.929 . S
C313 C312 1.362 . S
C313 C314 1.376 . S
C314 H285 0.931 . S
C314 C313 1.376 . S
C314 C315 1.396 . S
C315 C314 1.396 . S
C315 C316 1.348 . S
C315 C333 1.460 1_554 S
C316 H286 0.929 . S
C316 C315 1.348 . S
C316 C317 1.443 . S
C317 H284 0.932 . S
C317 C312 1.388 . S
C317 C316 1.443 . S
C318 N298 1.433 . S
C318 C319 1.363 . S
C318 C323 1.370 . S
C319 H287 0.929 . S
C319 C318 1.363 . S
C319 C320 1.385 . S
C320 H288 0.930 . S
C320 C319 1.385 . S
C320 C321 1.357 . S
C321 C320 1.357 . S
C321 C322 1.406 . S
C322 H289 0.929 . S
C322 C321 1.406 . S
C322 C323 1.391 . S
C323 H290 0.931 . S
C323 C318 1.370 . S
C323 C322 1.391 . S
C324 N298 1.435 . S
C324 C325 1.358 . S
C324 C329 1.371 . S
C325 H291 0.930 . S
C325 C324 1.358 . S
C325 C326 1.405 . S
C326 H292 0.932 . S
C326 C325 1.405 . S
C326 C327 1.383 . S
C327 C326 1.383 . S
C327 C328 1.393 . S
C328 H293 0.931 . S
C328 C327 1.393 . S
C328 C329 1.382 . S
C329 H294 0.929 . S
C329 C324 1.371 . S
C329 C328 1.382 . S
C330 N298 1.423 . S
C330 C331 1.362 . S
C330 C335 1.388 . S
C331 H295 0.929 . S
C331 C330 1.362 . S
C331 C332 1.376 . S
C332 H296 0.931 . S
C332 C331 1.376 . S
C332 C333 1.403 . S
C333 C315 1.460 1_556 S
C333 C332 1.403 . S
C333 C334 1.353 . S
C334 H297 0.929 . S
C334 C333 1.353 . S
C334 C335 1.443 . S
C335 H299 0.932 . S
C335 C330 1.388 . S
C335 C334 1.443 . S
H336 C363 0.929 . S
N337 C362 1.433 . S
N337 C368 1.435 . S
N337 C374 1.423 . S
H338 C364 0.930 . S
H339 C367 0.931 . S
H340 C366 0.929 . S
H341 C369 0.930 . S
H342 C370 0.932 . S
H343 C373 0.929 . S
H344 C372 0.931 . S
H345 C375 0.929 . S
H346 C379 0.932 . S
H347 C376 0.931 . S
H348 C378 0.929 . S
H349 C381 0.929 . S
H350 C382 0.930 . S
H351 C384 0.929 . S
H352 C385 0.931 . S
H353 C387 0.930 . S
H354 C388 0.932 . S
H355 C390 0.931 . S
H356 C391 0.929 . S
H357 C393 0.929 . S
H358 C394 0.931 . S
H359 C396 0.929 1_545 S
N360 C380 1.433 . S
N360 C386 1.435 . S
N360 C392 1.423 . S
H361 C397 0.932 . S
C362 N337 1.433 . S
C362 C363 1.363 . S
C362 C367 1.370 . S
C363 H336 0.929 . S
C363 C362 1.363 . S
C363 C364 1.385 . S
C364 H338 0.930 . S
C364 C363 1.385 . S
C364 C365 1.357 . S
C365 C364 1.357 . S
C365 C366 1.406 . S
C366 H340 0.929 . S
C366 C365 1.406 . S
C366 C367 1.391 . S
C367 H339 0.931 . S
C367 C362 1.370 . S
C367 C366 1.391 . S
C368 N337 1.435 . S
C368 C369 1.358 . S
C368 C373 1.371 . S
C369 H341 0.930 . S
C369 C368 1.358 . S
C369 C370 1.405 . S
C370 H342 0.932 . S
C370 C369 1.405 . S
C370 C371 1.383 . S
C371 C370 1.383 . S
C371 C372 1.393 . S
C372 H344 0.931 . S
C372 C371 1.393 . S
C372 C373 1.382 . S
C373 H343 0.929 . S
C373 C368 1.371 . S
C373 C372 1.382 . S
C374 N337 1.423 . S
C374 C375 1.362 . S
C374 C379 1.388 . S
C375 H345 0.929 . S
C375 C374 1.362 . S
C375 C376 1.376 . S
C376 H347 0.931 . S
C376 C375 1.376 . S
C376 C377 1.396 . S
C377 C376 1.396 . S
C377 C378 1.348 . S
C377 C395 1.472 . S
C378 H348 0.929 . S
C378 C377 1.348 . S
C378 C379 1.443 . S
C379 H346 0.932 . S
C379 C374 1.388 . S
C379 C378 1.443 . S
C380 N360 1.433 . S
C380 C381 1.363 . S
C380 C385 1.370 . S
C381 H349 0.929 . S
C381 C380 1.363 . S
C381 C382 1.385 . S
C382 H350 0.930 . S
C382 C381 1.385 . S
C382 C383 1.357 . S
C383 C382 1.357 . S
C383 C384 1.406 . S
C384 H351 0.929 . S
C384 C383 1.406 . S
C384 C385 1.391 . S
C385 H352 0.931 . S
C385 C380 1.370 . S
C385 C384 1.391 . S
C386 N360 1.435 . S
C386 C387 1.358 . S
C386 C391 1.371 . S
C387 H353 0.930 . S
C387 C386 1.358 . S
C387 C388 1.405 . S
C388 H354 0.932 . S
C388 C387 1.405 . S
C388 C389 1.383 . S
C389 C388 1.383 . S
C389 C390 1.393 . S
C390 H355 0.931 . S
C390 C389 1.393 . S
C390 C391 1.382 . S
C391 H356 0.929 . S
C391 C386 1.371 . S
C391 C390 1.382 . S
C392 N360 1.423 . S
C392 C393 1.362 . S
C392 C397 1.388 . S
C393 H357 0.929 . S
C393 C392 1.362 . S
C393 C394 1.376 . S
C394 H358 0.931 . S
C394 C393 1.376 . S
C394 C395 1.396 1_565 S
C395 C377 1.472 . S
C395 C394 1.396 1_545 S
C395 C396 1.348 1_545 S
C396 H359 0.929 1_565 S
C396 C395 1.348 1_565 S
C396 C397 1.443 . S
C397 H361 0.932 . S
C397 C392 1.388 . S
C397 C396 1.443 . S
H398 C425 0.929 . S
N399 C424 1.433 . S
N399 C430 1.435 . S
N399 C436 1.423 . S
H400 C426 0.930 . S
H401 C429 0.931 . S
H402 C428 0.929 . S
H403 C431 0.930 . S
H404 C432 0.932 . S
H405 C435 0.929 . S
H406 C434 0.931 . S
H407 C437 0.929 . S
H408 C441 0.932 . S
H409 C438 0.931 . S
H410 C440 0.929 . S
H411 C443 0.929 . S
H412 C444 0.930 . S
H413 C446 0.929 . S
H414 C447 0.931 . S
H415 C449 0.930 . S
H416 C450 0.932 . S
H417 C452 0.931 . S
H418 C453 0.929 . S
H419 C455 0.929 . S
H420 C456 0.931 . S
H421 C458 0.929 . S
N422 C442 1.433 . S
N422 C448 1.435 . S
N422 C454 1.423 . S
H423 C459 0.932 . S
C424 N399 1.433 . S
C424 C425 1.363 . S
C424 C429 1.370 . S
C425 H398 0.929 . S
C425 C424 1.363 . S
C425 C426 1.385 . S
C426 H400 0.930 . S
C426 C425 1.385 . S
C426 C427 1.357 . S
C427 C426 1.357 . S
C427 C428 1.406 . S
C428 H402 0.929 . S
C428 C427 1.406 . S
C428 C429 1.391 . S
C429 H401 0.931 . S
C429 C424 1.370 . S
C429 C428 1.391 . S
C430 N399 1.435 . S
C430 C431 1.358 . S
C430 C435 1.371 . S
C431 H403 0.930 . S
C431 C430 1.358 . S
C431 C432 1.405 . S
C432 H404 0.932 . S
C432 C431 1.405 . S
C432 C433 1.383 . S
C433 C432 1.383 . S
C433 C434 1.393 . S
C434 H406 0.931 . S
C434 C433 1.393 . S
C434 C435 1.382 . S
C435 H405 0.929 . S
C435 C430 1.371 . S
C435 C434 1.382 . S
C436 N399 1.423 . S
C436 C437 1.362 . S
C436 C441 1.388 . S
C437 H407 0.929 . S
C437 C436 1.362 . S
C437 C438 1.376 . S
C438 H409 0.931 . S
C438 C437 1.376 . S
C438 C439 1.396 . S
C439 C438 1.396 . S
C439 C440 1.348 . S
C439 C457 1.457 1_554 S
C440 H410 0.929 . S
C440 C439 1.348 . S
C440 C441 1.443 . S
C441 H408 0.932 . S
C441 C436 1.388 . S
C441 C440 1.443 . S
C442 N422 1.433 . S
C442 C443 1.363 . S
C442 C447 1.370 . S
C443 H411 0.929 . S
C443 C442 1.363 . S
C443 C444 1.385 . S
C444 H412 0.930 . S
C444 C443 1.385 . S
C444 C445 1.357 . S
C445 C444 1.357 . S
C445 C446 1.406 . S
C446 H413 0.929 . S
C446 C445 1.406 . S
C446 C447 1.391 . S
C447 H414 0.931 . S
C447 C442 1.370 . S
C447 C446 1.391 . S
C448 N422 1.435 . S
C448 C449 1.358 . S
C448 C453 1.371 . S
C449 H415 0.930 . S
C449 C448 1.358 . S
C449 C450 1.405 . S
C450 H416 0.932 . S
C450 C449 1.405 . S
C450 C451 1.383 . S
C451 C450 1.383 . S
C451 C452 1.393 . S
C452 H417 0.931 . S
C452 C451 1.393 . S
C452 C453 1.382 . S
C453 H418 0.929 . S
C453 C448 1.371 . S
C453 C452 1.382 . S
C454 N422 1.423 . S
C454 C455 1.362 . S
C454 C459 1.388 . S
C455 H419 0.929 . S
C455 C454 1.362 . S
C455 C456 1.376 . S
C456 H420 0.931 . S
C456 C455 1.376 . S
C456 C457 1.405 . S
C457 C439 1.457 1_556 S
C457 C456 1.405 . S
C457 C458 1.356 . S
C458 H421 0.929 . S
C458 C457 1.356 . S
C458 C459 1.443 . S
C459 H423 0.932 . S
C459 C454 1.388 . S
C459 C458 1.443 . S
C460 C461 1.369 . S
C460 C462 1.419 . S
C460 H464 0.930 . S
C461 C460 1.369 . S
C461 C470 1.429 . S
C462 C460 1.419 . S
C462 C463 1.363 . S
C462 H465 0.929 . S
C463 C462 1.363 . S
C463 C469 1.428 . S
H464 C460 0.930 . S
H465 C462 0.929 . S
S466 N467 1.613 . S
S466 N468 1.610 . S
N467 S466 1.613 . S
N467 C470 1.350 . S
N468 S466 1.610 . S
N468 C469 1.351 . S
C469 C463 1.428 . S
C469 N468 1.351 . S
C469 C470 1.434 . S
C470 C461 1.429 . S
C470 N467 1.350 . S
C470 C469 1.434 . S
C471 C472 1.369 . S
C471 C473 1.419 . S
C471 H475 0.930 . S
C472 C471 1.369 . S
C472 C481 1.429 . S
C473 C471 1.419 . S
C473 C474 1.363 . S
C473 H476 0.929 . S
C474 C473 1.363 . S
C474 C480 1.428 . S
H475 C471 0.930 . S
H476 C473 0.929 . S
S477 N478 1.613 . S
S477 N479 1.610 . S
N478 S477 1.613 . S
N478 C481 1.350 . S
N479 S477 1.610 . S
N479 C480 1.351 . S
C480 C474 1.428 . S
C480 N479 1.351 . S
C480 C481 1.434 . S
C481 C472 1.429 . S
C481 N478 1.350 . S
C481 C480 1.434 . S
C482 C483 1.369 . S
C482 C484 1.419 . S
C482 H486 0.930 . S
C483 C482 1.369 . S
C483 C492 1.429 . S
C484 C482 1.419 . S
C484 C485 1.363 . S
C484 H487 0.929 . S
C485 C484 1.363 . S
C485 C491 1.428 . S
H486 C482 0.930 . S
H487 C484 0.929 . S
S488 N489 1.613 . S
S488 N490 1.610 . S
N489 S488 1.613 . S
N489 C492 1.350 . S
N490 S488 1.610 . S
N490 C491 1.351 . S
C491 C485 1.428 . S
C491 N490 1.351 . S
C491 C492 1.434 . S
C492 C483 1.429 . S
C492 N489 1.350 . S
C492 C491 1.434 . S
C493 C494 1.369 . S
C493 C495 1.419 . S
C493 H497 0.930 . S
C494 C493 1.369 . S
C494 C503 1.429 . S
C495 C493 1.419 . S
C495 C496 1.363 . S
C495 H498 0.929 . S
C496 C495 1.363 . S
C496 C502 1.428 . S
H497 C493 0.930 . S
H498 C495 0.929 . S
S499 N500 1.613 . S
S499 N501 1.610 . S
N500 S499 1.613 . S
N500 C503 1.350 . S
N501 S499 1.610 . S
N501 C502 1.351 . S
C502 C496 1.428 . S
C502 N501 1.351 . S
C502 C503 1.434 . S
C503 C494 1.429 . S
C503 N500 1.350 . S
C503 C502 1.434 . S
C504 C505 1.369 . S
C504 C506 1.419 . S
C504 H508 0.930 . S
C505 C504 1.369 . S
C505 C514 1.429 . S
C506 C504 1.419 . S
C506 C507 1.363 . S
C506 H509 0.929 . S
C507 C506 1.363 . S
C507 C513 1.428 . S
H508 C504 0.930 . S
H509 C506 0.929 . S
S510 N511 1.613 . S
S510 N512 1.610 . S
N511 S510 1.613 . S
N511 C514 1.350 . S
N512 S510 1.610 . S
N512 C513 1.351 . S
C513 C507 1.428 . S
C513 N512 1.351 . S
C513 C514 1.434 . S
C514 C505 1.429 . S
C514 N511 1.350 . S
C514 C513 1.434 . S
C515 C516 1.369 . S
C515 C517 1.419 . S
C515 H519 0.930 . S
C516 C515 1.369 . S
C516 C525 1.429 . S
C517 C515 1.419 . S
C517 C518 1.363 . S
C517 H520 0.929 . S
C518 C517 1.363 . S
C518 C524 1.428 . S
H519 C515 0.930 . S
H520 C517 0.929 . S
S521 N522 1.613 . S
S521 N523 1.610 . S
N522 S521 1.613 . S
N522 C525 1.350 . S
N523 S521 1.610 . S
N523 C524 1.351 . S
C524 C518 1.428 . S
C524 N523 1.351 . S
C524 C525 1.434 . S
C525 C516 1.429 . S
C525 N522 1.350 . S
C525 C524 1.434 . S
C526 C527 1.369 . S
C526 C528 1.419 . S
C526 H530 0.930 . S
C527 C526 1.369 . S
C527 C536 1.429 . S
C528 C526 1.419 . S
C528 C529 1.363 . S
C528 H531 0.929 . S
C529 C528 1.363 . S
C529 C535 1.428 . S
H530 C526 0.930 . S
H531 C528 0.929 . S
S532 N533 1.613 . S
S532 N534 1.610 . S
N533 S532 1.613 . S
N533 C536 1.350 . S
N534 S532 1.610 . S
N534 C535 1.351 . S
C535 C529 1.428 . S
C535 N534 1.351 . S
C535 C536 1.434 . S
C536 C527 1.429 . S
C536 N533 1.350 . S
C536 C535 1.434 . S
C537 C538 1.369 . S
C537 C539 1.419 . S
C537 H541 0.930 . S
C538 C537 1.369 . S
C538 C547 1.429 . S
C539 C537 1.419 . S
C539 C540 1.363 . S
C539 H542 0.929 . S
C540 C539 1.363 . S
C540 C546 1.428 . S
H541 C537 0.930 . S
H542 C539 0.929 . S
S543 N544 1.613 . S
S543 N545 1.610 . S
N544 S543 1.613 . S
N544 C547 1.350 . S
N545 S543 1.610 . S
N545 C546 1.351 . S
C546 C540 1.428 . S
C546 N545 1.351 . S
C546 C547 1.434 . S
C547 C538 1.429 . S
C547 N544 1.350 . S
C547 C546 1.434 . S
C548 C549 1.369 . S
C548 C550 1.419 . S
C548 H552 0.930 . S
C549 C548 1.369 . S
C549 C558 1.429 . S
C550 C548 1.419 . S
C550 C551 1.363 . S
C550 H553 0.929 . S
C551 C550 1.363 . S
C551 C557 1.428 . S
H552 C548 0.930 . S
H553 C550 0.929 . S
S554 N555 1.613 . S
S554 N556 1.624 . S
N555 S554 1.613 . S
N555 C558 1.350 . S
N556 S554 1.624 . S
N556 C557 1.381 . S
C557 C551 1.428 . S
C557 N556 1.381 . S
C557 C558 1.434 . S
C558 C549 1.429 . S
C558 N555 1.350 . S
C558 C557 1.434 . S
C559 C560 1.369 . S
C559 C561 1.419 . S
C559 H563 0.930 . S
C560 C559 1.369 . S
C560 C569 1.429 . S
C561 C559 1.419 . S
C561 C562 1.363 . S
C561 H564 0.929 . S
C562 C561 1.363 . S
C562 C568 1.428 . S
H563 C559 0.930 . S
H564 C561 0.929 . S
S565 N566 1.613 . S
S565 N567 1.610 . S
N566 S565 1.613 . S
N566 C569 1.350 . S
N567 S565 1.610 . S
N567 C568 1.351 . S
C568 C562 1.428 . S
C568 N567 1.351 . S
C568 C569 1.434 . S
C569 C560 1.429 . S
C569 N566 1.350 . S
C569 C568 1.434 . S
C570 C571 1.369 . S
C570 C572 1.419 . S
C570 H574 0.930 . S
C571 C570 1.369 . S
C571 C580 1.429 . S
C572 C570 1.419 . S
C572 C573 1.363 . S
C572 H575 0.929 . S
C573 C572 1.363 . S
C573 C579 1.428 . S
H574 C570 0.930 . S
H575 C572 0.929 . S
S576 N577 1.613 . S
S576 N578 1.610 . S
N577 S576 1.613 . S
N577 C580 1.350 . S
N578 S576 1.610 . S
N578 C579 1.351 . S
C579 C573 1.428 . S
C579 N578 1.351 . S
C579 C580 1.434 . S
C580 C571 1.429 . S
C580 N577 1.350 . S
C580 C579 1.434 . S
C581 C582 1.369 . S
C581 C583 1.419 . S
C581 H585 0.930 . S
C582 C581 1.369 . S
C582 C591 1.429 . S
C583 C581 1.419 . S
C583 C584 1.363 . S
C583 H586 0.929 . S
C584 C583 1.363 . S
C584 C590 1.428 . S
H585 C581 0.930 . S
H586 C583 0.929 . S
S587 N588 1.613 . S
S587 N589 1.610 . S
N588 S587 1.613 . S
N588 C591 1.350 . S
N589 S587 1.610 . S
N589 C590 1.351 . S
C590 C584 1.428 . S
C590 N589 1.351 . S
C590 C591 1.434 . S
C591 C582 1.429 . S
C591 N588 1.350 . S
C591 C590 1.434 . S
C592 C593 1.369 . S
C592 C594 1.419 . S
C592 H596 0.930 . S
C593 C592 1.369 . S
C593 C602 1.429 . S
C594 C592 1.419 . S
C594 C595 1.363 . S
C594 H597 0.929 . S
C595 C594 1.363 . S
C595 C601 1.428 . S
H596 C592 0.930 . S
H597 C594 0.929 . S
S598 N599 1.613 . S
S598 N600 1.610 . S
N599 S598 1.613 . S
N599 C602 1.350 . S
N600 S598 1.610 . S
N600 C601 1.351 . S
C601 C595 1.428 . S
C601 N600 1.351 . S
C601 C602 1.434 . S
C602 C593 1.429 . S
C602 N599 1.350 . S
C602 C601 1.434 . S
C603 C604 1.369 . S
C603 C605 1.419 . S
C603 H607 0.930 . S
C604 C603 1.369 . S
C604 C613 1.429 . S
C605 C603 1.419 . S
C605 C606 1.363 . S
C605 H608 0.929 . S
C606 C605 1.363 . S
C606 C612 1.428 . S
H607 C603 0.930 . S
H608 C605 0.929 . S
S609 N610 1.613 . S
S609 N611 1.610 . S
N610 S609 1.613 . S
N610 C613 1.350 . S
N611 S609 1.610 . S
N611 C612 1.351 . S
C612 C606 1.428 . S
C612 N611 1.351 . S
C612 C613 1.434 . S
C613 C604 1.429 . S
C613 N610 1.350 . S
C613 C612 1.434 . S
C614 C615 1.369 . S
C614 C616 1.419 . S
C614 H618 0.930 . S
C615 C614 1.369 . S
C615 C624 1.429 . S
C616 C614 1.419 . S
C616 C617 1.363 . S
C616 H619 0.929 . S
C617 C616 1.363 . S
C617 C623 1.428 . S
H618 C614 0.930 . S
H619 C616 0.929 . S
S620 N621 1.613 . S
S620 N622 1.610 . S
N621 S620 1.613 . S
N621 C624 1.350 . S
N622 S620 1.610 . S
N622 C623 1.351 . S
C623 C617 1.428 . S
C623 N622 1.351 . S
C623 C624 1.434 . S
C624 C615 1.429 . S
C624 N621 1.350 . S
C624 C623 1.434 . S
C625 C626 1.369 . S
C625 C627 1.419 . S
C625 H629 0.930 . S
C626 C625 1.369 . S
C626 C635 1.429 . S
C627 C625 1.419 . S
C627 C628 1.363 . S
C627 H630 0.929 . S
C628 C627 1.363 . S
C628 C634 1.428 . S
H629 C625 0.930 . S
H630 C627 0.929 . S
S631 N632 1.613 . S
S631 N633 1.610 . S
N632 S631 1.613 . S
N632 C635 1.350 . S
N633 S631 1.610 . S
N633 C634 1.351 . S
C634 C628 1.428 . S
C634 N633 1.351 . S
C634 C635 1.434 . S
C635 C626 1.429 . S
C635 N632 1.350 . S
C635 C634 1.434 . S
C636 C637 1.369 . S
C636 C638 1.419 . S
C636 H640 0.930 . S
C637 C636 1.369 . S
C637 C646 1.429 . S
C638 C636 1.419 . S
C638 C639 1.363 . S
C638 H641 0.929 . S
C639 C638 1.363 . S
C639 C645 1.428 . S
H640 C636 0.930 . S
H641 C638 0.929 . S
S642 N643 1.613 . S
S642 N644 1.610 . S
N643 S642 1.613 . S
N643 C646 1.350 . S
N644 S642 1.610 . S
N644 C645 1.351 . S
C645 C639 1.428 . S
C645 N644 1.351 . S
C645 C646 1.434 . S
C646 C637 1.429 . S
C646 N643 1.350 . S
C646 C645 1.434 . S
C647 C648 1.369 . S
C647 C649 1.419 . S
C647 H651 0.930 . S
C648 C647 1.369 . S
C648 C657 1.429 . S
C649 C647 1.419 . S
C649 C650 1.363 . S
C649 H652 0.929 . S
C650 C649 1.363 . S
C650 C656 1.428 . S
H651 C647 0.930 . S
H652 C649 0.929 . S
S653 N654 1.613 . S
S653 N655 1.610 . S
N654 S653 1.613 . S
N654 C657 1.350 . S
N655 S653 1.610 . S
N655 C656 1.351 . S
C656 C650 1.428 . S
C656 N655 1.351 . S
C656 C657 1.434 . S
C657 C648 1.429 . S
C657 N654 1.350 . S
C657 C656 1.434 . S
C658 C659 1.369 . S
C658 C660 1.419 . S
C658 H662 0.930 . S
C659 C658 1.369 . S
C659 C668 1.429 . S
C660 C658 1.419 . S
C660 C661 1.363 . S
C660 H663 0.929 . S
C661 C660 1.363 . S
C661 C667 1.428 . S
H662 C658 0.930 . S
H663 C660 0.929 . S
S664 N665 1.613 . S
S664 N666 1.610 . S
N665 S664 1.613 . S
N665 C668 1.350 . S
N666 S664 1.610 . S
N666 C667 1.351 . S
C667 C661 1.428 . S
C667 N666 1.351 . S
C667 C668 1.434 . S
C668 C659 1.429 . S
C668 N665 1.350 . S
C668 C667 1.434 . S
C669 C670 1.369 . S
C669 C671 1.419 . S
C669 H673 0.930 . S
C670 C669 1.369 . S
C670 C679 1.429 . S
C671 C669 1.419 . S
C671 C672 1.363 . S
C671 H674 0.929 . S
C672 C671 1.363 . S
C672 C678 1.428 . S
H673 C669 0.930 . S
H674 C671 0.929 . S
S675 N676 1.613 . S
S675 N677 1.610 . S
N676 S675 1.613 . S
N676 C679 1.350 . S
N677 S675 1.610 . S
N677 C678 1.351 . S
C678 C672 1.428 . S
C678 N677 1.351 . S
C678 C679 1.434 . S
C679 C670 1.429 . S
C679 N676 1.350 . S
C679 C678 1.434 . S
C680 C681 1.369 . S
C680 C682 1.419 . S
C680 H684 0.930 . S
C681 C680 1.369 . S
C681 C690 1.429 . S
C682 C680 1.419 . S
C682 C683 1.363 . S
C682 H685 0.929 . S
C683 C682 1.363 . S
C683 C689 1.428 . S
H684 C680 0.930 . S
H685 C682 0.929 . S
S686 N687 1.613 . S
S686 N688 1.610 . S
N687 S686 1.613 . S
N687 C690 1.350 . S
N688 S686 1.610 . S
N688 C689 1.351 . S
C689 C683 1.428 . S
C689 N688 1.351 . S
C689 C690 1.434 . S
C690 C681 1.429 . S
C690 N687 1.350 . S
C690 C689 1.434 . S
C691 C692 1.369 . S
C691 C693 1.419 . S
C691 H695 0.930 . S
C692 C691 1.369 . S
C692 C701 1.429 . S
C693 C691 1.419 . S
C693 C694 1.363 . S
C693 H696 0.929 . S
C694 C693 1.363 . S
C694 C700 1.428 . S
H695 C691 0.930 . S
H696 C693 0.929 . S
S697 N698 1.613 . S
S697 N699 1.610 . S
N698 S697 1.613 . S
N698 C701 1.350 . S
N699 S697 1.610 . S
N699 C700 1.351 . S
C700 C694 1.428 . S
C700 N699 1.351 . S
C700 C701 1.434 . S
C701 C692 1.429 . S
C701 N698 1.350 . S
C701 C700 1.434 . S
C702 C703 1.369 . S
C702 C704 1.419 . S
C702 H706 0.930 . S
C703 C702 1.369 . S
C703 C712 1.429 . S
C704 C702 1.419 . S
C704 C705 1.363 . S
C704 H707 0.929 . S
C705 C704 1.363 . S
C705 C711 1.428 . S
H706 C702 0.930 . S
H707 C704 0.929 . S
S708 N709 1.613 . S
S708 N710 1.610 . S
N709 S708 1.613 . S
N709 C712 1.350 . S
N710 S708 1.610 . S
N710 C711 1.351 . S
C711 C705 1.428 . S
C711 N710 1.351 . S
C711 C712 1.434 . S
C712 C703 1.429 . S
C712 N709 1.350 . S
C712 C711 1.434 . S
C713 C714 1.369 . S
C713 C715 1.419 . S
C713 H717 0.930 . S
C714 C713 1.369 . S
C714 C723 1.429 . S
C715 C713 1.419 . S
C715 C716 1.363 . S
C715 H718 0.929 . S
C716 C715 1.363 . S
C716 C722 1.428 . S
H717 C713 0.930 . S
H718 C715 0.929 . S
S719 N720 1.613 . S
S719 N721 1.610 . S
N720 S719 1.613 . S
N720 C723 1.350 . S
N721 S719 1.610 . S
N721 C722 1.351 . S
C722 C716 1.428 . S
C722 N721 1.351 . S
C722 C723 1.434 . S
C723 C714 1.429 . S
C723 N720 1.350 . S
C723 C722 1.434 . S
C463 C123 1.498 . S
C461 C5 1.412 . S
C474 C203 1.680 . S
C472 C16 1.500 . S
C485 C135 1.609 . S
C483 C30 1.730 . S
C496 C179 1.829 . S
C494 C40 2.005 . S
C507 C247 1.338 . S
C505 C8 1.380 . S
C518 C327 1.455 . S
C516 C18 1.397 . S
C527 C29 1.844 . S
C529 C389 1.844 . S
C540 C445 1.550 . S
C538 C38 1.378 . S
C551 C259 1.386 1_565 S
C549 C19 1.534 . S
C560 C27 1.552 . S
C562 C303 1.528 . S
C573 C365 1.722 . S
C571 C41 1.912 . S
C584 C433 1.435 . S
C582 C7 1.476 . S
C593 C52 1.910 . S
C595 C197 1.730 . S
C606 C117 1.530 . S
C604 C62 1.583 . S
C615 C74 1.609 . S
C617 C185 1.537 . S
C626 C82 1.128 . S
C628 C141 1.360 . S
C639 C383 1.942 . S
C637 C51 2.007 . S
C650 C427 1.564 . S
C648 C60 1.458 . S
C661 C241 1.442 . S
C659 C71 1.226 . S
C670 C84 1.388 . S
C672 C309 1.392 . S
C683 C371 1.727 . S
C681 C63 1.772 . S
C694 C451 1.495 . S
C692 C73 1.444 . S
C705 C265 1.406 . S
C703 C85 1.495 . S
C714 C49 1.389 . S
C716 C321 1.566 . S
