# Generated by pormake.
# Topology ptr, (4,4)-cn, num edge types: 1
# Building blocks:
#     Node 0, Type 0, BuildingBlock: GALJAG_clean_sbu_0, # of connection points: 4
#     Node 1, Type 0, BuildingBlock: GALJAG_clean_sbu_0, # of connection points: 4
#     Node 2, Type 0, BuildingBlock: GALJAG_clean_sbu_0, # of connection points: 4
#     Node 3, Type 0, BuildingBlock: GALJAG_clean_sbu_0, # of connection points: 4
#     Node 4, Type 0, BuildingBlock: GALJAG_clean_sbu_0, # of connection points: 4
#     Node 5, Type 0, BuildingBlock: GALJAG_clean_sbu_0, # of connection points: 4
#     Node 6, Type 0, BuildingBlock: GALJAG_clean_sbu_0, # of connection points: 4
#     Node 7, Type 0, BuildingBlock: GALJAG_clean_sbu_0, # of connection points: 4
#     Node 8, Type 0, BuildingBlock: GALJAG_clean_sbu_0, # of connection points: 4
#     Node 9, Type 0, BuildingBlock: GALJAG_clean_sbu_0, # of connection points: 4
#     Node 10, Type 0, BuildingBlock: GALJAG_clean_sbu_0, # of connection points: 4
#     Node 11, Type 0, BuildingBlock: GALJAG_clean_sbu_0, # of connection points: 4
#     Node 12, Type 0, BuildingBlock: GALJAG_clean_sbu_0, # of connection points: 4
#     Node 13, Type 0, BuildingBlock: GALJAG_clean_sbu_0, # of connection points: 4
#     Node 14, Type 0, BuildingBlock: GALJAG_clean_sbu_0, # of connection points: 4
#     Node 15, Type 0, BuildingBlock: GALJAG_clean_sbu_0, # of connection points: 4
#     Node 16, Type 0, BuildingBlock: GALJAG_clean_sbu_0, # of connection points: 4
#     Node 17, Type 0, BuildingBlock: GALJAG_clean_sbu_0, # of connection points: 4
#     Node 18, Type 1, BuildingBlock: NAHDIM_clean_linker_0, # of connection points: 4
#     Node 19, Type 1, BuildingBlock: NAHDIM_clean_linker_0, # of connection points: 4
#     Node 20, Type 1, BuildingBlock: NAHDIM_clean_linker_0, # of connection points: 4
#     Node 21, Type 1, BuildingBlock: NAHDIM_clean_linker_0, # of connection points: 4
#     Node 22, Type 1, BuildingBlock: NAHDIM_clean_linker_0, # of connection points: 4
#     Node 23, Type 1, BuildingBlock: NAHDIM_clean_linker_0, # of connection points: 4
#     Node 24, Type 1, BuildingBlock: NAHDIM_clean_linker_0, # of connection points: 4
#     Node 25, Type 1, BuildingBlock: NAHDIM_clean_linker_0, # of connection points: 4
#     Node 26, Type 1, BuildingBlock: NAHDIM_clean_linker_0, # of connection points: 4
#     Node 27, Type 1, BuildingBlock: NAHDIM_clean_linker_0, # of connection points: 4
#     Node 28, Type 1, BuildingBlock: NAHDIM_clean_linker_0, # of connection points: 4
#     Node 29, Type 1, BuildingBlock: NAHDIM_clean_linker_0, # of connection points: 4
#     Node 30, Type 1, BuildingBlock: NAHDIM_clean_linker_0, # of connection points: 4
#     Node 31, Type 1, BuildingBlock: NAHDIM_clean_linker_0, # of connection points: 4
#     Node 32, Type 1, BuildingBlock: NAHDIM_clean_linker_0, # of connection points: 4
#     Node 33, Type 1, BuildingBlock: NAHDIM_clean_linker_0, # of connection points: 4
#     Node 34, Type 1, BuildingBlock: NAHDIM_clean_linker_0, # of connection points: 4
#     Node 35, Type 1, BuildingBlock: NAHDIM_clean_linker_0, # of connection points: 4
#     Edge 36, Type (0, 1), BuildingBlock: XUDNAN_clean_linker_2, # of connection points: 2
#     Edge 37, Type (0, 1), BuildingBlock: XUDNAN_clean_linker_2, # of connection points: 2
#     Edge 38, Type (0, 1), BuildingBlock: XUDNAN_clean_linker_2, # of connection points: 2
#     Edge 39, Type (0, 1), BuildingBlock: XUDNAN_clean_linker_2, # of connection points: 2
#     Edge 40, Type (0, 1), BuildingBlock: XUDNAN_clean_linker_2, # of connection points: 2
#     Edge 41, Type (0, 1), BuildingBlock: XUDNAN_clean_linker_2, # of connection points: 2
#     Edge 42, Type (0, 1), BuildingBlock: XUDNAN_clean_linker_2, # of connection points: 2
#     Edge 43, Type (0, 1), BuildingBlock: XUDNAN_clean_linker_2, # of connection points: 2
#     Edge 44, Type (0, 1), BuildingBlock: XUDNAN_clean_linker_2, # of connection points: 2
#     Edge 45, Type (0, 1), BuildingBlock: XUDNAN_clean_linker_2, # of connection points: 2
#     Edge 46, Type (0, 1), BuildingBlock: XUDNAN_clean_linker_2, # of connection points: 2
#     Edge 47, Type (0, 1), BuildingBlock: XUDNAN_clean_linker_2, # of connection points: 2
#     Edge 48, Type (0, 1), BuildingBlock: XUDNAN_clean_linker_2, # of connection points: 2
#     Edge 49, Type (0, 1), BuildingBlock: XUDNAN_clean_linker_2, # of connection points: 2
#     Edge 50, Type (0, 1), BuildingBlock: XUDNAN_clean_linker_2, # of connection points: 2
#     Edge 51, Type (0, 1), BuildingBlock: XUDNAN_clean_linker_2, # of connection points: 2
#     Edge 52, Type (0, 1), BuildingBlock: XUDNAN_clean_linker_2, # of connection points: 2
#     Edge 53, Type (0, 1), BuildingBlock: XUDNAN_clean_linker_2, # of connection points: 2
#     Edge 54, Type (0, 1), BuildingBlock: XUDNAN_clean_linker_2, # of connection points: 2
#     Edge 55, Type (0, 1), BuildingBlock: XUDNAN_clean_linker_2, # of connection points: 2
#     Edge 56, Type (0, 1), BuildingBlock: XUDNAN_clean_linker_2, # of connection points: 2
#     Edge 57, Type (0, 1), BuildingBlock: XUDNAN_clean_linker_2, # of connection points: 2
#     Edge 58, Type (0, 1), BuildingBlock: XUDNAN_clean_linker_2, # of connection points: 2
#     Edge 59, Type (0, 1), BuildingBlock: XUDNAN_clean_linker_2, # of connection points: 2
#     Edge 60, Type (0, 1), BuildingBlock: XUDNAN_clean_linker_2, # of connection points: 2
#     Edge 61, Type (0, 1), BuildingBlock: XUDNAN_clean_linker_2, # of connection points: 2
#     Edge 62, Type (0, 1), BuildingBlock: XUDNAN_clean_linker_2, # of connection points: 2
#     Edge 63, Type (0, 1), BuildingBlock: XUDNAN_clean_linker_2, # of connection points: 2
#     Edge 64, Type (0, 1), BuildingBlock: XUDNAN_clean_linker_2, # of connection points: 2
#     Edge 65, Type (0, 1), BuildingBlock: XUDNAN_clean_linker_2, # of connection points: 2
#     Edge 66, Type (0, 1), BuildingBlock: XUDNAN_clean_linker_2, # of connection points: 2
#     Edge 67, Type (0, 1), BuildingBlock: XUDNAN_clean_linker_2, # of connection points: 2
#     Edge 68, Type (0, 1), BuildingBlock: XUDNAN_clean_linker_2, # of connection points: 2
#     Edge 69, Type (0, 1), BuildingBlock: XUDNAN_clean_linker_2, # of connection points: 2
#     Edge 70, Type (0, 1), BuildingBlock: XUDNAN_clean_linker_2, # of connection points: 2
#     Edge 71, Type (0, 1), BuildingBlock: XUDNAN_clean_linker_2, # of connection points: 2
#     Edge 72, Type (0, 1), BuildingBlock: XUDNAN_clean_linker_2, # of connection points: 2
#     Edge 73, Type (0, 1), BuildingBlock: XUDNAN_clean_linker_2, # of connection points: 2
#     Edge 74, Type (0, 1), BuildingBlock: XUDNAN_clean_linker_2, # of connection points: 2
#     Edge 75, Type (0, 1), BuildingBlock: XUDNAN_clean_linker_2, # of connection points: 2
#     Edge 76, Type (0, 1), BuildingBlock: XUDNAN_clean_linker_2, # of connection points: 2
#     Edge 77, Type (0, 1), BuildingBlock: XUDNAN_clean_linker_2, # of connection points: 2
#     Edge 78, Type (0, 1), BuildingBlock: XUDNAN_clean_linker_2, # of connection points: 2
#     Edge 79, Type (0, 1), BuildingBlock: XUDNAN_clean_linker_2, # of connection points: 2
#     Edge 80, Type (0, 1), BuildingBlock: XUDNAN_clean_linker_2, # of connection points: 2
#     Edge 81, Type (0, 1), BuildingBlock: XUDNAN_clean_linker_2, # of connection points: 2
#     Edge 82, Type (0, 1), BuildingBlock: XUDNAN_clean_linker_2, # of connection points: 2
#     Edge 83, Type (0, 1), BuildingBlock: XUDNAN_clean_linker_2, # of connection points: 2
#     Edge 84, Type (0, 1), BuildingBlock: XUDNAN_clean_linker_2, # of connection points: 2
#     Edge 85, Type (0, 1), BuildingBlock: XUDNAN_clean_linker_2, # of connection points: 2
#     Edge 86, Type (0, 1), BuildingBlock: XUDNAN_clean_linker_2, # of connection points: 2
#     Edge 87, Type (0, 1), BuildingBlock: XUDNAN_clean_linker_2, # of connection points: 2
#     Edge 88, Type (0, 1), BuildingBlock: XUDNAN_clean_linker_2, # of connection points: 2
#     Edge 89, Type (0, 1), BuildingBlock: XUDNAN_clean_linker_2, # of connection points: 2
#     Edge 90, Type (0, 1), BuildingBlock: XUDNAN_clean_linker_2, # of connection points: 2
#     Edge 91, Type (0, 1), BuildingBlock: XUDNAN_clean_linker_2, # of connection points: 2
#     Edge 92, Type (0, 1), BuildingBlock: XUDNAN_clean_linker_2, # of connection points: 2
#     Edge 93, Type (0, 1), BuildingBlock: XUDNAN_clean_linker_2, # of connection points: 2
#     Edge 94, Type (0, 1), BuildingBlock: XUDNAN_clean_linker_2, # of connection points: 2
#     Edge 95, Type (0, 1), BuildingBlock: XUDNAN_clean_linker_2, # of connection points: 2
#     Edge 96, Type (0, 1), BuildingBlock: XUDNAN_clean_linker_2, # of connection points: 2
#     Edge 97, Type (0, 1), BuildingBlock: XUDNAN_clean_linker_2, # of connection points: 2
#     Edge 98, Type (0, 1), BuildingBlock: XUDNAN_clean_linker_2, # of connection points: 2
#     Edge 99, Type (0, 1), BuildingBlock: XUDNAN_clean_linker_2, # of connection points: 2
#     Edge 100, Type (0, 1), BuildingBlock: XUDNAN_clean_linker_2, # of connection points: 2
#     Edge 101, Type (0, 1), BuildingBlock: XUDNAN_clean_linker_2, # of connection points: 2
#     Edge 102, Type (0, 1), BuildingBlock: XUDNAN_clean_linker_2, # of connection points: 2
#     Edge 103, Type (0, 1), BuildingBlock: XUDNAN_clean_linker_2, # of connection points: 2
#     Edge 104, Type (0, 1), BuildingBlock: XUDNAN_clean_linker_2, # of connection points: 2
#     Edge 105, Type (0, 1), BuildingBlock: XUDNAN_clean_linker_2, # of connection points: 2
#     Edge 106, Type (0, 1), BuildingBlock: XUDNAN_clean_linker_2, # of connection points: 2
#     Edge 107, Type (0, 1), BuildingBlock: XUDNAN_clean_linker_2, # of connection points: 2
# Relax obj value: 0.026
# Max RMSD: 0.104
# Mean RMSD: 0.052
data_MOF--net-ptr--node1-GALJAG_clean_sbu_0--node2-NAHDIM_clean_linker_0--edge1-XUDNAN_clean_linker_2
_symmetry_space_group_name_H-M    P1
_symmetry_Int_Tables_number       1
_symmetry_cell_setting            triclinic
loop_
_symmetry_equiv_pos_as_xyz
'x, y, z'
_cell_length_a     92.892857
_cell_length_b     92.543948
_cell_length_c     84.376231
_cell_angle_alpha  90.80094
_cell_angle_beta   90.42413
_cell_angle_gamma 120.03822
loop_
_atom_site_label
_atom_site_type_symbol
_atom_site_fract_x
_atom_site_fract_y
_atom_site_fract_z
_atom_type_partial_charge
In0 In 0.99936 0.34771 0.00624 0.0
O1 O 0.98177 0.35198 0.02213 0.0
O2 O 0.00513 0.37283 0.01613 0.0
C3 C 0.982 0.31667 0.99374 0.0
C4 C 0.01579 0.34228 0.0296 0.0
C5 C 0.00955 0.36462 0.97919 0.0
O6 O 0.97504 0.32513 0.99687 0.0
O7 O 0.99736 0.32387 0.99691 0.0
O8 O 0.0196 0.36362 0.98873 0.0
O9 O 0.99453 0.35699 0.9833 0.0
C10 C 0.99183 0.3675 0.02371 0.0
O11 O 0.02325 0.35058 0.01752 0.0
O12 O 0.00035 0.33698 0.02971 0.0
In13 In 0.65101 0.64614 0.01437 0.0
O14 O 0.6567 0.63299 0.03405 0.0
O15 O 0.63188 0.62807 0.03174 0.0
C16 C 0.67959 0.6543 0.99945 0.0
C17 C 0.65421 0.67344 0.02985 0.0
C18 C 0.62995 0.63041 0.98959 0.0
O19 O 0.67282 0.64239 0.00896 0.0
O20 O 0.67201 0.66233 0.99752 0.0
O21 O 0.63349 0.64485 0.99426 0.0
O22 O 0.6368 0.624 0.99749 0.0
C23 C 0.64207 0.6253 0.03914 0.0
O24 O 0.64052 0.66217 0.02407 0.0
O25 O 0.66631 0.67115 0.02744 0.0
In26 In 0.3404 0.00111 0.00671 0.0
O27 O 0.33995 0.02501 0.01313 0.0
O28 O 0.33066 0.01372 0.99042 0.0
C29 C 0.35967 0.00019 0.0302 0.0
C30 C 0.35982 0.00291 0.98238 0.0
C31 C 0.30995 0.97653 0.0149 0.0
O32 O 0.35861 0.01306 0.02763 0.0
O33 O 0.35115 0.98799 0.02087 0.0
O34 O 0.31555 0.97723 0.00114 0.0
O35 O 0.31957 0.98822 0.02423 0.0
C36 C 0.33373 0.02557 0.99995 0.0
O37 O 0.34654 0.98956 0.98541 0.0
O38 O 0.36316 0.01506 0.9916 0.0
In39 In 0.99965 0.65724 0.01257 0.0
O40 O 0.019 0.65423 0.99828 0.0
O41 O 0.9933 0.63818 0.99283 0.0
C42 C 0.01727 0.68446 0.03129 0.0
C43 C 0.98433 0.66997 0.99517 0.0
C44 C 0.98831 0.63298 0.03417 0.0
O45 O 0.02401 0.68056 0.02033 0.0
O46 O 0.00191 0.67451 0.03284 0.0
O47 O 0.97859 0.63558 0.02568 0.0
O48 O 0.00359 0.64255 0.03168 0.0
C49 C 0.00813 0.64239 0.98972 0.0
O50 O 0.9766 0.65871 0.0052 0.0
O51 O 0.99953 0.67452 0.99392 0.0
In52 In 0.36013 0.36117 0.0034 0.0
O53 O 0.36346 0.38295 0.988 0.0
O54 O 0.37658 0.37042 0.98187 0.0
C55 C 0.3333 0.36144 0.0152 0.0
C56 C 0.34864 0.32929 0.99346 0.0
C57 C 0.3837 0.37 0.0265 0.0
O58 O 0.33226 0.34992 0.00627 0.0
O59 O 0.34793 0.37338 0.01762 0.0
O60 O 0.36835 0.36217 0.02919 0.0
O61 O 0.38724 0.37333 0.01214 0.0
C62 C 0.37331 0.38171 0.97857 0.0
O63 O 0.3557 0.33469 0.0068 0.0
O64 O 0.34767 0.33999 0.98516 0.0
In65 In 0.64658 0.9962 0.0169 0.0
O66 O 0.64202 0.01258 0.0346 0.0
O67 O 0.62821 0.98621 0.03687 0.0
C68 C 0.67069 0.01747 0.99777 0.0
C69 C 0.66258 0.98154 0.0298 0.0
C70 C 0.62196 0.98525 0.99506 0.0
O71 O 0.66885 0.02204 0.01145 0.0
O72 O 0.66066 0.00244 0.99403 0.0
O73 O 0.62653 0.97566 0.00097 0.0
O74 O 0.62941 1.00003 0.00058 0.0
C75 C 0.63117 0.00026 0.04215 0.0
O76 O 0.64971 0.97348 0.02114 0.0
O77 O 0.66726 0.99681 0.03179 0.0
In78 In 0.66316 0.68162 0.3417 0.0
O79 O 0.64051 0.67802 0.35525 0.0
O80 O 0.66365 0.69953 0.36102 0.0
C81 C 0.64586 0.65474 0.32229 0.0
C82 C 0.68031 0.67203 0.36059 0.0
C83 C 0.67807 0.70591 0.32011 0.0
O84 O 0.63931 0.66232 0.32887 0.0
O85 O 0.66117 0.6609 0.32527 0.0
O86 O 0.68576 0.70039 0.32803 0.0
O87 O 0.66283 0.69932 0.32316 0.0
C88 C 0.64829 0.69108 0.3637 0.0
O89 O 0.68705 0.68601 0.35395 0.0
O90 O 0.66488 0.66309 0.35798 0.0
In91 In 0.31419 0.98202 0.35002 0.0
O92 O 0.29667 0.95998 0.36522 0.0
O93 O 0.32193 0.97424 0.3727 0.0
C94 C 0.34169 0.98614 0.33506 0.0
C95 C 0.3214 0.01305 0.35932 0.0
C96 C 0.28783 0.96955 0.32972 0.0
O97 O 0.33009 0.97192 0.33887 0.0
O98 O 0.33938 0.998 0.33885 0.0
O99 O 0.28873 0.97768 0.34217 0.0
O100 O 0.30014 0.96754 0.32757 0.0
C101 C 0.30765 0.96208 0.37533 0.0
O102 O 0.31973 0.00836 0.34499 0.0
O103 O 0.31884 0.00187 0.36914 0.0
In104 In 0.02257 0.33699 0.33812 0.0
O105 O 0.02608 0.35698 0.32038 0.0
O106 O 0.0084 0.35127 0.33846 0.0
C107 C 0.0414 0.34869 0.36491 0.0
C108 C 0.0404 0.33012 0.31717 0.0
C109 C 0.99289 0.30998 0.34448 0.0
O110 O 0.03569 0.35666 0.35774 0.0
O111 O 0.03755 0.33474 0.35862 0.0
O112 O 0.99641 0.31636 0.33094 0.0
O113 O 0.00446 0.31698 0.35469 0.0
C114 C 0.01544 0.35989 0.32653 0.0
O115 O 0.0255 0.31968 0.32025 0.0
O116 O 0.0462 0.34384 0.32463 0.0
In117 In 0.66681 0.97654 0.34357 0.0
O118 O 0.68618 0.97272 0.32979 0.0
O119 O 0.6613 0.96092 0.32114 0.0
C120 C 0.6859 0.0046 0.36095 0.0
C121 C 0.64831 0.9875 0.3289 0.0
C122 C 0.65363 0.9512 0.36421 0.0
O123 O 0.69152 0.00046 0.34921 0.0
O124 O 0.67093 0.99442 0.36405 0.0
O125 O 0.64509 0.95354 0.354 0.0
O126 O 0.66903 0.96157 0.36399 0.0
C127 C 0.67583 0.96359 0.31914 0.0
O128 O 0.64241 0.97605 0.33895 0.0
O129 O 0.66365 0.99366 0.32646 0.0
In130 In 0.02443 0.68811 0.33764 0.0
O131 O 0.02525 0.70804 0.3212 0.0
O132 O 0.04309 0.70022 0.31809 0.0
C133 C 0.9967 0.67835 0.35483 0.0
C134 C 0.01562 0.65901 0.32235 0.0
C135 C 0.04838 0.70487 0.35984 0.0
O136 O 0.99974 0.68746 0.34287 0.0
O137 O 0.00752 0.67436 0.3579 0.0
O138 O 0.04585 0.69126 0.35365 0.0
O139 O 0.0391 0.71009 0.35456 0.0
C140 C 0.03746 0.70938 0.31345 0.0
O141 O 0.02521 0.6639 0.33436 0.0
O142 O 0.01056 0.66875 0.31813 0.0
In143 In 0.31009 0.32319 0.34582 0.0
O144 O 0.30514 0.29713 0.35156 0.0
O145 O 0.32528 0.31775 0.36362 0.0
C146 C 0.28839 0.31542 0.32138 0.0
C147 C 0.29685 0.33292 0.3692 0.0
C148 C 0.33863 0.34068 0.32984 0.0
O149 O 0.2902 0.30455 0.32857 0.0
O150 O 0.29736 0.33015 0.32666 0.0
O151 O 0.33343 0.3477 0.33931 0.0
O152 O 0.32947 0.32506 0.32854 0.0
C153 C 0.31706 0.30213 0.36142 0.0
O154 O 0.311 0.34267 0.36362 0.0
O155 O 0.28955 0.3185 0.36295 0.0
In156 In 0.33737 0.01839 0.67864 0.0
O157 O 0.36483 0.02866 0.68485 0.0
O158 O 0.34959 0.00244 0.68162 0.0
C159 C 0.34385 0.04129 0.65611 0.0
C160 C 0.32992 0.02889 0.7058 0.0
C161 C 0.31181 0.98848 0.66895 0.0
O162 O 0.34926 0.03123 0.6554 0.0
O163 O 0.33529 0.03982 0.66812 0.0
O164 O 0.3168 0.99173 0.6832 0.0
O165 O 0.31965 0.00034 0.65959 0.0
C166 C 0.36381 0.01455 0.68506 0.0
O167 O 0.31948 0.02192 0.69461 0.0
O168 O 0.34396 0.0304 0.70332 0.0
In169 In 0.97833 0.30499 0.6765 0.0
O170 O 0.96583 0.31896 0.68637 0.0
O171 O 0.99192 0.32987 0.69012 0.0
C172 C 0.95448 0.29397 0.65341 0.0
C173 C 0.9727 0.2826 0.69934 0.0
C174 C 0.00755 0.31243 0.66304 0.0
O175 O 0.96902 0.30592 0.65148 0.0
O176 O 0.95196 0.28767 0.66694 0.0
O177 O 0.99793 0.29842 0.66891 0.0
O178 O 0.00252 0.32279 0.66402 0.0
C179 C 0.97902 0.33086 0.69236 0.0
O180 O 0.97302 0.27937 0.68481 0.0
O181 O 0.97546 0.29715 0.70235 0.0
In182 In 0.68458 0.66964 0.67134 0.0
O183 O 0.6881 0.69578 0.67338 0.0
O184 O 0.67224 0.67987 0.65487 0.0
C185 C 0.70662 0.67294 0.69394 0.0
C186 C 0.70063 0.66479 0.64706 0.0
C187 C 0.65635 0.64826 0.68623 0.0
O188 O 0.70486 0.68503 0.68973 0.0
O189 O 0.69739 0.6593 0.68664 0.0
O190 O 0.65826 0.64639 0.67166 0.0
O191 O 0.66827 0.66093 0.69283 0.0
C192 C 0.67892 0.69408 0.66159 0.0
O193 O 0.68684 0.65318 0.65184 0.0
O194 O 0.70581 0.6786 0.65421 0.0
In195 In 0.32587 0.31342 0.67536 0.0
O196 O 0.34547 0.31035 0.66154 0.0
O197 O 0.31989 0.29251 0.65765 0.0
C198 C 0.34391 0.34084 0.69386 0.0
C199 C 0.31164 0.32624 0.65644 0.0
C200 C 0.3118 0.2897 0.69738 0.0
O201 O 0.35069 0.33581 0.68397 0.0
O202 O 0.32831 0.33192 0.69447 0.0
O203 O 0.30332 0.29251 0.6874 0.0
O204 O 0.32737 0.29878 0.69617 0.0
C205 C 0.33477 0.29733 0.65414 0.0
O206 O 0.30375 0.31612 0.66727 0.0
O207 O 0.3265 0.32962 0.65506 0.0
In208 In 0.69063 0.02762 0.66918 0.0
O209 O 0.69487 0.05199 0.65853 0.0
O210 O 0.70531 0.03902 0.64677 0.0
C211 C 0.66142 0.02177 0.68137 0.0
C212 C 0.67974 0.99597 0.65875 0.0
C213 C 0.71626 0.03985 0.69029 0.0
O214 O 0.66505 0.02551 0.66706 0.0
O215 O 0.6726 0.02129 0.6895 0.0
O216 O 0.71516 0.03062 0.67864 0.0
O217 O 0.70466 0.04314 0.69107 0.0
C218 C 0.70315 0.05144 0.64698 0.0
O219 O 0.68494 0.00083 0.67274 0.0
O220 O 0.68038 0.00714 0.64992 0.0
In221 In 0.9768 0.67225 0.67497 0.0
O222 O 0.97273 0.64647 0.68099 0.0
O223 O 0.99214 0.66777 0.69312 0.0
C224 C 0.95565 0.66587 0.65033 0.0
C225 C 0.96343 0.6809 0.69902 0.0
C226 C 0.00571 0.68874 0.65949 0.0
O227 O 0.9563 0.65438 0.65764 0.0
O228 O 0.96534 0.68041 0.65571 0.0
O229 O 0.00089 0.69621 0.66886 0.0
O230 O 0.99593 0.67322 0.65798 0.0
C231 C 0.98445 0.65211 0.69117 0.0
O232 O 0.97666 0.69149 0.69243 0.0
O233 O 0.9569 0.66633 0.69315 0.0
C234 C 0.23601 0.30597 0.08913 0.0
C235 C 0.23217 0.31624 0.0775 0.0
C236 C 0.21198 0.32081 0.09247 0.0
C237 C 0.2102 0.3327 0.10122 0.0
C238 C 0.19533 0.32853 0.1089 0.0
C239 C 0.18187 0.31193 0.10785 0.0
C240 C 0.18347 0.2998 0.09887 0.0
C241 C 0.1985 0.30435 0.09121 0.0
C242 C 0.19406 0.34189 0.11823 0.0
C243 C 0.16934 0.28201 0.09754 0.0
C244 C 0.06421 0.31427 0.08436 0.0
C245 C 0.07677 0.31182 0.09294 0.0
C246 C 0.10218 0.31171 0.08997 0.0
C247 C 0.09936 0.29586 0.09382 0.0
C248 C 0.11174 0.29397 0.10152 0.0
C249 C 0.12708 0.30834 0.10572 0.0
C250 C 0.13009 0.32434 0.10138 0.0
C251 C 0.11761 0.3258 0.09335 0.0
C252 C 0.10828 0.27669 0.1055 0.0
C253 C 0.14629 0.33994 0.1056 0.0
C254 C 0.10227 0.30915 0.21094 0.0
C255 C 0.09907 0.29288 0.20757 0.0
C256 C 0.10981 0.29019 0.19788 0.0
C257 C 0.12396 0.30404 0.1915 0.0
C258 C 0.12699 0.3204 0.19467 0.0
C259 C 0.11601 0.32269 0.20425 0.0
C260 C 0.10617 0.27261 0.19461 0.0
C261 C 0.14203 0.3355 0.18822 0.0
C262 C 0.23984 0.31555 0.21037 0.0
C263 C 0.22825 0.31327 0.22412 0.0
C264 C 0.2005 0.30085 0.21139 0.0
C265 C 0.18554 0.28595 0.20865 0.0
C266 C 0.1728 0.28547 0.19921 0.0
C267 C 0.17502 0.30037 0.19253 0.0
C268 C 0.19002 0.31557 0.19543 0.0
C269 C 0.2027 0.31562 0.20461 0.0
C270 C 0.15697 0.26905 0.19636 0.0
C271 C 0.1927 0.33182 0.18886 0.0
C272 C 0.16619 0.30746 0.11617 0.0
C273 C 0.15357 0.30812 0.10768 0.0
C274 C 0.13964 0.30672 0.11533 0.0
C275 C 0.13828 0.30478 0.13196 0.0
C276 C 0.12498 0.30439 0.1402 0.0
C277 C 0.12409 0.30309 0.15662 0.0
C278 C 0.13646 0.30211 0.16544 0.0
C279 C 0.13613 0.30162 0.18218 0.0
C280 C 0.14855 0.3005 0.19056 0.0
C281 C 0.16158 0.30017 0.18272 0.0
C282 C 0.16229 0.30093 0.16599 0.0
C283 C 0.1754 0.30095 0.15772 0.0
C284 C 0.17662 0.30291 0.14138 0.0
C285 C 0.16458 0.30453 0.13264 0.0
C286 C 0.15075 0.30356 0.14061 0.0
C287 C 0.14973 0.302 0.15734 0.0
C288 C 0.07781 0.30995 0.24447 0.0
C289 C 0.08033 0.30138 0.23065 0.0
O290 O 0.22692 0.32585 0.08562 0.0
O291 O 0.21231 0.30032 0.2206 0.0
O292 O 0.09272 0.31245 0.22077 0.0
O293 O 0.08979 0.31357 0.08371 0.0
H294 H 0.22233 0.30773 0.06888 0.0
H295 H 0.22472 0.29728 0.09569 0.0
H296 H 0.24576 0.31431 0.09788 0.0
H297 H 0.2404 0.29842 0.08262 0.0
H298 H 0.22062 0.34535 0.10208 0.0
H299 H 0.19959 0.29499 0.08436 0.0
H300 H 0.18279 0.34228 0.11445 0.0
H301 H 0.20512 0.35447 0.11676 0.0
H302 H 0.19284 0.33889 0.13101 0.0
H303 H 0.17274 0.27385 0.09069 0.0
H304 H 0.15847 0.28171 0.09164 0.0
H305 H 0.16544 0.27685 0.10956 0.0
H306 H 0.0717 0.30083 0.10087 0.0
H307 H 0.05236 0.30185 0.08486 0.0
H308 H 0.06608 0.31304 0.07132 0.0
H309 H 0.06666 0.33654 0.09497 0.0
H310 H 0.08736 0.28504 0.09099 0.0
H311 H 0.11959 0.33797 0.09022 0.0
H312 H 0.10666 0.27495 0.11848 0.0
H313 H 0.11895 0.27511 0.10214 0.0
H314 H 0.09685 0.2668 0.09941 0.0
H315 H 0.14606 0.35149 0.10267 0.0
H316 H 0.15654 0.33985 0.099 0.0
H317 H 0.14912 0.34026 0.11845 0.0
H318 H 0.06888 0.29196 0.22416 0.0
H319 H 0.0883 0.28228 0.21251 0.0
H320 H 0.11831 0.33517 0.20689 0.0
H321 H 0.10621 0.27042 0.18164 0.0
H322 H 0.09399 0.26312 0.19937 0.0
H323 H 0.1161 0.27089 0.2001 0.0
H324 H 0.14303 0.3474 0.19244 0.0
H325 H 0.14135 0.33506 0.17507 0.0
H326 H 0.15353 0.33544 0.1918 0.0
H327 H 0.22806 0.32506 0.22623 0.0
H328 H 0.25264 0.32589 0.21316 0.0
H329 H 0.23542 0.31871 0.19941 0.0
H330 H 0.24022 0.30389 0.20807 0.0
H331 H 0.18393 0.27462 0.2139 0.0
H332 H 0.21419 0.32728 0.20639 0.0
H333 H 0.15414 0.26683 0.18345 0.0
H334 H 0.14646 0.26952 0.20202 0.0
H335 H 0.15775 0.25837 0.20123 0.0
H336 H 0.20396 0.3428 0.19403 0.0
H337 H 0.18175 0.3333 0.19119 0.0
H338 H 0.19416 0.33176 0.17582 0.0
H339 H 0.15488 0.31035 0.09504 0.0
H340 H 0.11521 0.30534 0.13409 0.0
H341 H 0.11365 0.303 0.16235 0.0
H342 H 0.14839 0.30047 0.20343 0.0
H343 H 0.18504 0.29979 0.16384 0.0
H344 H 0.18715 0.30319 0.13567 0.0
H345 H 0.06475 0.30761 0.24282 0.0
H346 H 0.08382 0.32361 0.24158 0.0
H347 H 0.08534 0.30121 0.26445 0.0
C348 C 0.71866 0.91186 0.05555 0.0
C349 C 0.70757 0.91201 0.06877 0.0
C350 C 0.71228 0.90401 0.09484 0.0
C351 C 0.69587 0.89371 0.09969 0.0
C352 C 0.69215 0.88157 0.11119 0.0
C353 C 0.70512 0.87967 0.11786 0.0
C354 C 0.72177 0.89055 0.11345 0.0
C355 C 0.72515 0.90281 0.10217 0.0
C356 C 0.67431 0.87048 0.1159 0.0
C357 C 0.73593 0.88883 0.12018 0.0
C358 C 0.67397 0.75517 0.07728 0.0
C359 C 0.68322 0.77088 0.08681 0.0
C360 C 0.6785 0.79149 0.10077 0.0
C361 C 0.69479 0.80102 0.10694 0.0
C362 C 0.69943 0.81534 0.11641 0.0
C363 C 0.68745 0.82 0.1201 0.0
C364 C 0.67093 0.81016 0.11427 0.0
C365 C 0.66673 0.7961 0.10458 0.0
C366 C 0.71723 0.82567 0.12221 0.0
C367 C 0.65778 0.81464 0.11807 0.0
C368 C 0.70132 0.80175 0.22246 0.0
C369 C 0.71469 0.81145 0.21246 0.0
C370 C 0.7153 0.82469 0.20402 0.0
C371 C 0.70203 0.82801 0.20516 0.0
C372 C 0.68855 0.81829 0.21518 0.0
C373 C 0.68847 0.80539 0.22382 0.0
C374 C 0.73017 0.83508 0.19382 0.0
C375 C 0.67417 0.82144 0.21664 0.0
C376 C 0.74152 0.96087 0.22362 0.0
C377 C 0.7265 0.94339 0.22562 0.0
C378 C 0.72622 0.91722 0.22064 0.0
C379 C 0.73737 0.91167 0.21734 0.0
C380 C 0.73225 0.89668 0.20883 0.0
C381 C 0.71538 0.88677 0.20394 0.0
C382 C 0.70387 0.89198 0.20788 0.0
C383 C 0.70944 0.90723 0.21606 0.0
C384 C 0.74489 0.89152 0.20494 0.0
C385 C 0.68567 0.88143 0.20347 0.0
C386 C 0.7011 0.86526 0.12812 0.0
C387 C 0.69592 0.84986 0.12057 0.0
C388 C 0.69242 0.83572 0.12918 0.0
C389 C 0.69417 0.83691 0.14589 0.0
C390 C 0.69075 0.82295 0.15494 0.0
C391 C 0.6932 0.8244 0.1713 0.0
C392 C 0.69904 0.83985 0.17925 0.0
C393 C 0.70234 0.84162 0.19576 0.0
C394 C 0.70738 0.85694 0.20342 0.0
C395 C 0.70975 0.87084 0.19496 0.0
C396 C 0.70726 0.86951 0.1783 0.0
C397 C 0.71023 0.88338 0.16926 0.0
C398 C 0.70801 0.88199 0.15285 0.0
C399 C 0.70288 0.86671 0.14483 0.0
C400 C 0.69955 0.8525 0.15372 0.0
C401 C 0.70183 0.85393 0.17045 0.0
C402 C 0.70582 0.77042 0.21538 0.0
C403 C 0.7105 0.78197 0.23003 0.0
O404 O 0.71608 0.91521 0.08315 0.0
O405 O 0.73201 0.9322 0.22827 0.0
O406 O 0.70025 0.78885 0.23096 0.0
O407 O 0.67367 0.77796 0.09101 0.0
H408 H 0.69613 0.89946 0.06862 0.0
H409 H 0.72187 0.90199 0.05775 0.0
H410 H 0.73037 0.92409 0.05508 0.0
H411 H 0.71206 0.90915 0.0439 0.0
H412 H 0.68597 0.89511 0.09443 0.0
H413 H 0.73781 0.91105 0.0985 0.0
H414 H 0.66966 0.85775 0.11081 0.0
H415 H 0.66611 0.87519 0.11159 0.0
H416 H 0.67342 0.86944 0.129 0.0
H417 H 0.74807 0.89779 0.11496 0.0
H418 H 0.73354 0.87595 0.11797 0.0
H419 H 0.73682 0.891 0.13321 0.0
H420 H 0.6957 0.77998 0.08219 0.0
H421 H 0.6804 0.75803 0.06551 0.0
H422 H 0.66247 0.75487 0.07243 0.0
H423 H 0.67293 0.73649 0.09254 0.0
H424 H 0.70403 0.79754 0.10423 0.0
H425 H 0.65417 0.78864 0.09985 0.0
H426 H 0.72237 0.83889 0.1188 0.0
H427 H 0.72531 0.82106 0.11736 0.0
H428 H 0.7177 0.8254 0.13534 0.0
H429 H 0.64513 0.8046 0.11438 0.0
H430 H 0.66057 0.82621 0.11181 0.0
H431 H 0.65787 0.81717 0.13098 0.0
H432 H 0.7237 0.79205 0.22927 0.0
H433 H 0.72476 0.80889 0.21111 0.0
H434 H 0.67822 0.79789 0.23155 0.0
H435 H 0.72648 0.83208 0.18114 0.0
H436 H 0.74057 0.83271 0.19623 0.0
H437 H 0.73472 0.84859 0.19581 0.0
H438 H 0.66396 0.81186 0.22383 0.0
H439 H 0.66915 0.82157 0.20469 0.0
H440 H 0.67858 0.83388 0.22231 0.0
H441 H 0.71947 0.94033 0.21413 0.0
H442 H 0.73739 0.97016 0.22212 0.0
H443 H 0.74844 0.96099 0.21288 0.0
H444 H 0.75019 0.96464 0.23397 0.0
H445 H 0.75026 0.91937 0.22109 0.0
H446 H 0.70063 0.9112 0.21903 0.0
H447 H 0.74419 0.88832 0.19211 0.0
H448 H 0.74209 0.88019 0.21164 0.0
H449 H 0.75779 0.90147 0.208 0.0
H450 H 0.67804 0.88628 0.20895 0.0
H451 H 0.68085 0.86837 0.20724 0.0
H452 H 0.6841 0.88118 0.1904 0.0
H453 H 0.69477 0.8489 0.10774 0.0
H454 H 0.68632 0.81077 0.14945 0.0
H455 H 0.69052 0.81326 0.17765 0.0
H456 H 0.70984 0.85817 0.21611 0.0
H457 H 0.71442 0.8955 0.17477 0.0
H458 H 0.71051 0.89307 0.14649 0.0
H459 H 0.69263 0.76026 0.2159 0.0
H460 H 0.71393 0.7648 0.21465 0.0
H461 H 0.70745 0.77756 0.20443 0.0
C462 C 0.21696 0.8743 0.07073 0.0
C463 C 0.21382 0.88906 0.07082 0.0
C464 C 0.20333 0.88871 0.0969 0.0
C465 C 0.19187 0.89422 0.09828 0.0
C466 C 0.17853 0.88653 0.10874 0.0
C467 C 0.17656 0.87288 0.11778 0.0
C468 C 0.18855 0.86771 0.11677 0.0
C469 C 0.202 0.87596 0.10654 0.0
C470 C 0.16624 0.89264 0.10973 0.0
C471 C 0.18678 0.85304 0.12595 0.0
C472 C 0.07505 0.80808 0.05254 0.0
C473 C 0.0811 0.80128 0.06586 0.0
C474 C 0.09153 0.81486 0.09178 0.0
C475 C 0.10258 0.80904 0.09495 0.0
C476 C 0.11526 0.81703 0.10649 0.0
C477 C 0.117 0.83121 0.11484 0.0
C478 C 0.10548 0.83671 0.112 0.0
C479 C 0.09268 0.82821 0.10071 0.0
C480 C 0.12704 0.81056 0.10947 0.0
C481 C 0.10705 0.85196 0.12041 0.0
C482 C 0.08435 0.80733 0.21648 0.0
C483 C 0.09594 0.80263 0.21183 0.0
C484 C 0.11062 0.81393 0.20419 0.0
C485 C 0.11372 0.83022 0.20107 0.0
C486 C 0.10232 0.83516 0.20623 0.0
C487 C 0.08786 0.82367 0.21405 0.0
C488 C 0.12278 0.80842 0.19937 0.0
C489 C 0.1053 0.85247 0.20325 0.0
C490 C 0.22208 0.94283 0.22501 0.0
C491 C 0.21118 0.93046 0.23758 0.0
C492 C 0.19589 0.90319 0.22364 0.0
C493 C 0.19435 0.88743 0.22192 0.0
C494 C 0.182 0.87503 0.212 0.0
C495 C 0.17085 0.8785 0.20366 0.0
C496 C 0.17237 0.89445 0.20523 0.0
C497 C 0.18495 0.90667 0.21507 0.0
C498 C 0.18082 0.85821 0.21048 0.0
C499 C 0.1606 0.89855 0.19661 0.0
C500 C 0.16103 0.86277 0.12672 0.0
C501 C 0.14678 0.85186 0.11792 0.0
C502 C 0.13177 0.84131 0.12528 0.0
C503 C 0.13098 0.84119 0.142 0.0
C504 C 0.11633 0.83011 0.14984 0.0
C505 C 0.11561 0.8303 0.16631 0.0
C506 C 0.12948 0.84163 0.17557 0.0
C507 C 0.12882 0.84204 0.19232 0.0
C508 C 0.14263 0.85393 0.20108 0.0
C509 C 0.15726 0.86537 0.19363 0.0
C510 C 0.15841 0.86471 0.17695 0.0
C511 C 0.17314 0.87562 0.16909 0.0
C512 C 0.17406 0.875 0.15265 0.0
C513 C 0.16027 0.86352 0.14343 0.0
C514 C 0.14523 0.85251 0.1511 0.0
C515 C 0.14439 0.85291 0.16789 0.0
C516 C 0.0426 0.77527 0.21519 0.0
C517 C 0.06029 0.77953 0.21982 0.0
O518 O 0.21555 0.89556 0.0861 0.0
O519 O 0.20802 0.91452 0.23363 0.0
O520 O 0.06975 0.79647 0.22335 0.0
O521 O 0.0797 0.808 0.08017 0.0
H522 H 0.20091 0.88457 0.06634 0.0
H523 H 0.20712 0.86375 0.07736 0.0
H524 H 0.22926 0.87804 0.07626 0.0
H525 H 0.21665 0.86974 0.05841 0.0
H526 H 0.19322 0.90431 0.09091 0.0
H527 H 0.21122 0.87209 0.10562 0.0
H528 H 0.1546 0.88368 0.10331 0.0
H529 H 0.17112 0.90511 0.10437 0.0
H530 H 0.16307 0.89337 0.12227 0.0
H531 H 0.19645 0.84981 0.12286 0.0
H532 H 0.17434 0.84193 0.12361 0.0
H533 H 0.1878 0.85599 0.13884 0.0
H534 H 0.09438 0.80537 0.0635 0.0
H535 H 0.07642 0.8033 0.04083 0.0
H536 H 0.08258 0.82193 0.05261 0.0
H537 H 0.06178 0.80436 0.05416 0.0
H538 H 0.10136 0.79832 0.0884 0.0
H539 H 0.08391 0.83242 0.09828 0.0
H540 H 0.13929 0.8192 0.10428 0.0
H541 H 0.12239 0.79793 0.10411 0.0
H542 H 0.12902 0.81006 0.12241 0.0
H543 H 0.098 0.85545 0.11578 0.0
H544 H 0.11981 0.86274 0.1191 0.0
H545 H 0.10489 0.84955 0.13326 0.0
H546 H 0.06511 0.77622 0.20913 0.0
H547 H 0.09362 0.7902 0.21423 0.0
H548 H 0.07897 0.82726 0.21791 0.0
H549 H 0.12327 0.80799 0.18624 0.0
H550 H 0.1193 0.79589 0.2039 0.0
H551 H 0.13546 0.81758 0.20384 0.0
H552 H 0.09475 0.85404 0.20713 0.0
H553 H 0.10732 0.8552 0.19043 0.0
H554 H 0.11673 0.8618 0.20973 0.0
H555 H 0.19929 0.93057 0.23829 0.0
H556 H 0.2248 0.95564 0.22828 0.0
H557 H 0.21557 0.93939 0.2133 0.0
H558 H 0.23399 0.94286 0.22383 0.0
H559 H 0.20286 0.88483 0.22846 0.0
H560 H 0.18603 0.91883 0.21595 0.0
H561 H 0.18088 0.85494 0.19777 0.0
H562 H 0.16888 0.84851 0.21545 0.0
H563 H 0.19119 0.85788 0.21677 0.0
H564 H 0.16266 0.9111 0.19997 0.0
H565 H 0.14752 0.88909 0.19918 0.0
H566 H 0.16227 0.89815 0.18363 0.0
H567 H 0.14735 0.85164 0.10508 0.0
H568 H 0.10528 0.82115 0.14331 0.0
H569 H 0.10398 0.82153 0.17169 0.0
H570 H 0.1419 0.85443 0.21389 0.0
H571 H 0.18414 0.88473 0.17559 0.0
H572 H 0.18569 0.88371 0.14721 0.0
H573 H 0.03455 0.76159 0.21318 0.0
H574 H 0.04288 0.78162 0.20402 0.0
H575 H 0.03707 0.77952 0.22448 0.0
C576 C 0.34563 0.1306 0.9477 0.0
C577 C 0.32731 0.11698 0.94877 0.0
C578 C 0.31521 0.11818 0.92385 0.0
C579 C 0.29858 0.11413 0.92421 0.0
C580 C 0.29268 0.12211 0.91421 0.0
C581 C 0.3038 0.13452 0.90383 0.0
C582 C 0.32062 0.13842 0.90333 0.0
C583 C 0.32603 0.12993 0.91318 0.0
C584 C 0.27464 0.11744 0.91491 0.0
C585 C 0.33296 0.15177 0.89267 0.0
C586 C 0.26724 0.21825 0.93741 0.0
C587 C 0.28355 0.21878 0.94183 0.0
C588 C 0.29181 0.20676 0.91997 0.0
C589 C 0.30507 0.21022 0.91005 0.0
C590 C 0.30561 0.19746 0.90139 0.0
C591 C 0.29215 0.18089 0.90221 0.0
C592 C 0.27847 0.17735 0.91195 0.0
C593 C 0.27852 0.19028 0.92087 0.0
C594 C 0.32066 0.2017 0.89151 0.0
C595 C 0.26382 0.15987 0.913 0.0
C596 C 0.27506 0.19268 0.7994 0.0
C597 C 0.29122 0.19594 0.80302 0.0
C598 C 0.29377 0.18464 0.81183 0.0
C599 C 0.27989 0.16968 0.81694 0.0
C600 C 0.26363 0.16605 0.81277 0.0
C601 C 0.26144 0.17758 0.80394 0.0
C602 C 0.3113 0.18869 0.81573 0.0
C603 C 0.24859 0.1501 0.81784 0.0
C604 C 0.28181 0.059 0.8057 0.0
C605 C 0.28832 0.07078 0.79161 0.0
C606 C 0.29576 0.09824 0.80354 0.0
C607 C 0.30915 0.11386 0.80787 0.0
C608 C 0.30665 0.12603 0.81536 0.0
C609 C 0.29029 0.12233 0.81879 0.0
C610 C 0.27661 0.10667 0.81415 0.0
C611 C 0.27947 0.09479 0.80647 0.0
C612 C 0.32153 0.14273 0.81983 0.0
C613 C 0.25901 0.10241 0.81759 0.0
C614 C 0.29813 0.14409 0.89416 0.0
C615 C 0.29704 0.15703 0.90172 0.0
C616 C 0.29262 0.16717 0.89333 0.0
C617 C 0.28929 0.16449 0.87684 0.0
C618 C 0.28486 0.17448 0.86799 0.0
C619 C 0.28248 0.17231 0.85164 0.0
C620 C 0.2842 0.15988 0.84353 0.0
C621 C 0.28246 0.158 0.82684 0.0
C622 C 0.28414 0.14544 0.81917 0.0
C623 C 0.28759 0.13467 0.82774 0.0
C624 C 0.2894 0.13638 0.84443 0.0
C625 C 0.29283 0.12573 0.85342 0.0
C626 C 0.29542 0.12804 0.86975 0.0
C627 C 0.2947 0.1411 0.87771 0.0
C628 C 0.29054 0.15153 0.86898 0.0
C629 C 0.28792 0.14918 0.85232 0.0
C630 C 0.27213 0.22659 0.80407 0.0
C631 C 0.28099 0.22079 0.79259 0.0
O632 O 0.32082 0.11066 0.93377 0.0
O633 O 0.29929 0.08696 0.7968 0.0
O634 O 0.27212 0.2035 0.79119 0.0
O635 O 0.29231 0.21969 0.9283 0.0
H636 H 0.32025 0.12256 0.95421 0.0
H637 H 0.34673 0.14145 0.9412 0.0
H638 H 0.35284 0.12572 0.94142 0.0
H639 H 0.35114 0.13513 0.95974 0.0
H640 H 0.2903 0.10483 0.93242 0.0
H641 H 0.33882 0.1327 0.91283 0.0
H642 H 0.27373 0.1278 0.92066 0.0
H643 H 0.26714 0.10593 0.92176 0.0
H644 H 0.26923 0.11552 0.90276 0.0
H645 H 0.34591 0.15462 0.89506 0.0
H646 H 0.33243 0.16344 0.89421 0.0
H647 H 0.32974 0.14758 0.88011 0.0
H648 H 0.28052 0.20729 0.94842 0.0
H649 H 0.26053 0.21811 0.94831 0.0
H650 H 0.25903 0.20682 0.93028 0.0
H651 H 0.26962 0.22922 0.9303 0.0
H652 H 0.31524 0.22298 0.90941 0.0
H653 H 0.26807 0.18741 0.92837 0.0
H654 H 0.3172 0.2005 0.87875 0.0
H655 H 0.3252 0.19287 0.89385 0.0
H656 H 0.33098 0.21463 0.89392 0.0
H657 H 0.2532 0.15958 0.91925 0.0
H658 H 0.26767 0.152 0.91954 0.0
H659 H 0.25957 0.15423 0.90095 0.0
H660 H 0.29365 0.22534 0.79763 0.0
H661 H 0.30189 0.20712 0.79879 0.0
H662 H 0.24903 0.17501 0.80081 0.0
H663 H 0.31318 0.18944 0.82879 0.0
H664 H 0.32078 0.20069 0.81063 0.0
H665 H 0.31332 0.17855 0.81114 0.0
H666 H 0.23676 0.14906 0.81355 0.0
H667 H 0.24841 0.14951 0.83098 0.0
H668 H 0.24934 0.1392 0.81322 0.0
H669 H 0.27767 0.07042 0.78511 0.0
H670 H 0.27336 0.04598 0.80142 0.0
H671 H 0.27471 0.06258 0.81378 0.0
H672 H 0.29227 0.05943 0.81257 0.0
H673 H 0.32166 0.11645 0.80546 0.0
H674 H 0.26893 0.08284 0.80302 0.0
H675 H 0.32287 0.14403 0.83294 0.0
H676 H 0.3197 0.15299 0.8155 0.0
H677 H 0.33325 0.14424 0.81491 0.0
H678 H 0.24972 0.08954 0.81357 0.0
H679 H 0.25624 0.11136 0.81157 0.0
H680 H 0.25765 0.10365 0.83052 0.0
H681 H 0.2999 0.15939 0.91431 0.0
H682 H 0.28342 0.18427 0.87359 0.0
H683 H 0.27937 0.18056 0.84542 0.0
H684 H 0.28308 0.14425 0.80634 0.0
H685 H 0.29373 0.11558 0.84791 0.0
H686 H 0.29816 0.11956 0.87604 0.0
H687 H 0.27893 0.24044 0.80512 0.0
H688 H 0.27174 0.22149 0.816 0.0
H689 H 0.25916 0.22217 0.79997 0.0
C690 C 0.7717 0.06329 0.92603 0.0
C691 C 0.77018 0.07758 0.93378 0.0
C692 C 0.78592 0.10118 0.91591 0.0
C693 C 0.78445 0.11201 0.90553 0.0
C694 C 0.79839 0.12467 0.89799 0.0
C695 C 0.81414 0.12606 0.9004 0.0
C696 C 0.81575 0.11515 0.91095 0.0
C697 C 0.80169 0.10307 0.91885 0.0
C698 C 0.7962 0.13652 0.88747 0.0
C699 C 0.8323 0.11617 0.91384 0.0
C700 C 0.92808 0.22812 0.95346 0.0
C701 C 0.91776 0.21401 0.9424 0.0
C702 C 0.89173 0.20151 0.92714 0.0
C703 C 0.89388 0.18885 0.92012 0.0
C704 C 0.88198 0.17714 0.90946 0.0
C705 C 0.8679 0.17845 0.90523 0.0
C706 C 0.86589 0.19141 0.91196 0.0
C707 C 0.87778 0.20268 0.92296 0.0
C708 C 0.88438 0.16321 0.90294 0.0
C709 C 0.85112 0.19327 0.90762 0.0
C710 C 0.90882 0.19933 0.80475 0.0
C711 C 0.90959 0.1868 0.81333 0.0
C712 C 0.89563 0.17465 0.82128 0.0
C713 C 0.88064 0.17513 0.82081 0.0
C714 C 0.87991 0.18788 0.81245 0.0
C715 C 0.89404 0.19984 0.80455 0.0
C716 C 0.89685 0.16125 0.83016 0.0
C717 C 0.86416 0.18882 0.81182 0.0
C718 C 0.77356 0.05163 0.79784 0.0
C719 C 0.78082 0.06849 0.78976 0.0
C720 C 0.80816 0.09089 0.799 0.0
C721 C 0.82268 0.0927 0.80594 0.0
C722 C 0.8334 0.107 0.81499 0.0
C723 C 0.8296 0.11993 0.81687 0.0
C724 C 0.81528 0.11851 0.80931 0.0
C725 C 0.80471 0.104 0.80039 0.0
C726 C 0.84869 0.1082 0.8227 0.0
C727 C 0.81114 0.13229 0.81074 0.0
C728 C 0.82898 0.13916 0.89222 0.0
C729 C 0.84063 0.15292 0.90124 0.0
C730 C 0.85496 0.16567 0.89442 0.0
C731 C 0.85741 0.16519 0.87795 0.0
C732 C 0.87119 0.17827 0.87054 0.0
C733 C 0.87384 0.1774 0.85443 0.0
C734 C 0.86284 0.16336 0.84513 0.0
C735 C 0.86569 0.1621 0.82885 0.0
C736 C 0.8545 0.14797 0.81995 0.0
C737 C 0.84054 0.13486 0.8269 0.0
C738 C 0.83751 0.13584 0.84317 0.0
C739 C 0.82371 0.12278 0.8506 0.0
C740 C 0.82089 0.12381 0.86664 0.0
C741 C 0.83174 0.13796 0.87589 0.0
C742 C 0.84588 0.15115 0.8687 0.0
C743 C 0.84869 0.15016 0.8523 0.0
C744 C 0.94953 0.22103 0.80667 0.0
C745 C 0.93677 0.21169 0.79331 0.0
O746 O 0.77177 0.08909 0.92258 0.0
O747 O 0.79803 0.07651 0.79082 0.0
O748 O 0.92192 0.21117 0.79659 0.0
O749 O 0.9027 0.21265 0.93804 0.0
H750 H 0.78002 0.08386 0.94313 0.0
H751 H 0.78417 0.06792 0.9209 0.0
H752 H 0.7623 0.0571 0.91634 0.0
H753 H 0.76984 0.05385 0.935 0.0
H754 H 0.77228 0.1106 0.90346 0.0
H755 H 0.80318 0.0951 0.92715 0.0
H756 H 0.80629 0.14958 0.88974 0.0
H757 H 0.78403 0.13582 0.88928 0.0
H758 H 0.79682 0.13332 0.87487 0.0
H759 H 0.83093 0.10506 0.92007 0.0
H760 H 0.84038 0.12742 0.92125 0.0
H761 H 0.8387 0.11733 0.90247 0.0
H762 H 0.91674 0.20192 0.94578 0.0
H763 H 0.92912 0.22215 0.96463 0.0
H764 H 0.91951 0.23216 0.95877 0.0
H765 H 0.94926 0.24427 0.93981 0.0
H766 H 0.90467 0.1878 0.92305 0.0
H767 H 0.87624 0.21251 0.92834 0.0
H768 H 0.87276 0.15099 0.90396 0.0
H769 H 0.8946 0.16253 0.90917 0.0
H770 H 0.88743 0.16525 0.89018 0.0
H771 H 0.8525 0.20522 0.91219 0.0
H772 H 0.83971 0.18282 0.91267 0.0
H773 H 0.84938 0.19262 0.89454 0.0
H774 H 0.93475 0.19881 0.79225 0.0
H775 H 0.921 0.18638 0.81396 0.0
H776 H 0.89356 0.2096 0.79803 0.0
H777 H 0.89448 0.16208 0.84293 0.0
H778 H 0.90924 0.16229 0.82903 0.0
H779 H 0.88719 0.14874 0.82565 0.0
H780 H 0.86579 0.19991 0.80535 0.0
H781 H 0.86006 0.18932 0.82405 0.0
H782 H 0.85411 0.1774 0.80586 0.0
H783 H 0.77594 0.07568 0.7962 0.0
H784 H 0.75975 0.04494 0.79716 0.0
H785 H 0.77745 0.05358 0.81054 0.0
H786 H 0.77804 0.04373 0.79215 0.0
H787 H 0.82538 0.08264 0.80453 0.0
H788 H 0.79392 0.10305 0.7944 0.0
H789 H 0.84853 0.11019 0.83569 0.0
H790 H 0.85998 0.11914 0.81806 0.0
H791 H 0.8496 0.09683 0.8205 0.0
H792 H 0.79997 0.12962 0.80357 0.0
H793 H 0.82185 0.14424 0.80685 0.0
H794 H 0.80887 0.13399 0.82335 0.0
H795 H 0.83875 0.1535 0.91386 0.0
H796 H 0.8801 0.18933 0.87715 0.0
H797 H 0.88469 0.18781 0.84937 0.0
H798 H 0.85684 0.14704 0.8075 0.0
H799 H 0.81493 0.11157 0.84409 0.0
H800 H 0.81014 0.11331 0.87172 0.0
H801 H 0.96155 0.22177 0.80388 0.0
H802 H 0.95162 0.23387 0.80837 0.0
H803 H 0.94503 0.21435 0.81798 0.0
C804 C 0.79805 0.70999 0.95309 0.0
C805 C 0.78421 0.70043 0.9406 0.0
C806 C 0.80024 0.69438 0.92104 0.0
C807 C 0.8103 0.7108 0.91585 0.0
C808 C 0.82411 0.71495 0.90629 0.0
C809 C 0.82771 0.70238 0.90159 0.0
C810 C 0.81705 0.68568 0.90604 0.0
C811 C 0.80344 0.68192 0.91572 0.0
C812 C 0.83514 0.73285 0.90158 0.0
C813 C 0.82032 0.6719 0.90098 0.0
C814 C 0.92155 0.73102 0.96978 0.0
C815 C 0.91908 0.71921 0.95584 0.0
C816 C 0.9107 0.72431 0.92998 0.0
C817 C 0.89953 0.70784 0.92505 0.0
C818 C 0.88745 0.70445 0.91325 0.0
C819 C 0.88651 0.71783 0.90636 0.0
C820 C 0.89822 0.73448 0.9109 0.0
C821 C 0.91037 0.7375 0.92249 0.0
C822 C 0.87543 0.68656 0.90843 0.0
C823 C 0.89753 0.74906 0.90392 0.0
C824 C 0.923 0.72862 0.80527 0.0
C825 C 0.91131 0.71213 0.80912 0.0
C826 C 0.89644 0.7084 0.81663 0.0
C827 C 0.89316 0.72142 0.82034 0.0
C828 C 0.90467 0.73797 0.81605 0.0
C829 C 0.91939 0.74132 0.80844 0.0
C830 C 0.88422 0.69053 0.82063 0.0
C831 C 0.90146 0.75211 0.81966 0.0
C832 C 0.77567 0.70523 0.79857 0.0
C833 C 0.78504 0.70407 0.78417 0.0
C834 C 0.80631 0.69918 0.79668 0.0
C835 C 0.81031 0.68685 0.79998 0.0
C836 C 0.82414 0.69034 0.80952 0.0
C837 C 0.83432 0.70668 0.81579 0.0
C838 C 0.83058 0.71935 0.81225 0.0
C839 C 0.81656 0.71548 0.80278 0.0
C840 C 0.82778 0.67653 0.81305 0.0
C841 C 0.84131 0.73694 0.81865 0.0
C842 C 0.84335 0.70688 0.89318 0.0
C843 C 0.85726 0.71027 0.90243 0.0
C844 C 0.87242 0.71435 0.89552 0.0
C845 C 0.87386 0.71515 0.87884 0.0
C846 C 0.88887 0.71907 0.87146 0.0
C847 C 0.89019 0.71999 0.85503 0.0
C848 C 0.87649 0.71688 0.84535 0.0
C849 C 0.87766 0.71767 0.82863 0.0
C850 C 0.86379 0.71449 0.81938 0.0
C851 C 0.84864 0.71037 0.82636 0.0
C852 C 0.84719 0.70945 0.84303 0.0
C853 C 0.83208 0.70518 0.85041 0.0
C854 C 0.83077 0.70431 0.86683 0.0
C855 C 0.84453 0.70768 0.87649 0.0
C856 C 0.85987 0.71189 0.86931 0.0
C857 C 0.8612 0.71277 0.85255 0.0
C858 C 0.96457 0.73676 0.80467 0.0
C859 C 0.9465 0.72431 0.7999 0.0
O860 O 0.78759 0.68999 0.93136 0.0
O861 O 0.79243 0.69466 0.7877 0.0
O862 O 0.93777 0.73276 0.79843 0.0
O863 O 0.92197 0.72792 0.94187 0.0
H864 H 0.78304 0.70944 0.93286 0.0
H865 H 0.81002 0.71858 0.94743 0.0
H866 H 0.7999 0.70118 0.96047 0.0
H867 H 0.7948 0.71765 0.96092 0.0
H868 H 0.80766 0.72049 0.91943 0.0
H869 H 0.79547 0.66924 0.91956 0.0
H870 H 0.84788 0.73761 0.90653 0.0
H871 H 0.83043 0.74111 0.90585 0.0
H872 H 0.8361 0.73357 0.88848 0.0
H873 H 0.81003 0.65937 0.90417 0.0
H874 H 0.83197 0.67393 0.90677 0.0
H875 H 0.82209 0.67216 0.88796 0.0
H876 H 0.90599 0.70874 0.95624 0.0
H877 H 0.91901 0.72432 0.98116 0.0
H878 H 0.91283 0.73587 0.96853 0.0
H879 H 0.93449 0.74177 0.97012 0.0
H880 H 0.90022 0.69763 0.93043 0.0
H881 H 0.91926 0.75018 0.92623 0.0
H882 H 0.87427 0.68521 0.89531 0.0
H883 H 0.86295 0.68291 0.91311 0.0
H884 H 0.87932 0.67784 0.91307 0.0
H885 H 0.90713 0.76121 0.9092 0.0
H886 H 0.88507 0.74764 0.90584 0.0
H887 H 0.89941 0.74928 0.89094 0.0
H888 H 0.94165 0.7154 0.80985 0.0
H889 H 0.91362 0.70208 0.8062 0.0
H890 H 0.92836 0.75398 0.80523 0.0
H891 H 0.88263 0.68944 0.83367 0.0
H892 H 0.8883 0.68174 0.81644 0.0
H893 H 0.87187 0.68674 0.8152 0.0
H894 H 0.91182 0.76436 0.8159 0.0
H895 H 0.89963 0.75277 0.83258 0.0
H896 H 0.88984 0.74974 0.8135 0.0
H897 H 0.7947 0.71682 0.78068 0.0
H898 H 0.76961 0.71264 0.7957 0.0
H899 H 0.78436 0.71147 0.80874 0.0
H900 H 0.76599 0.69256 0.80221 0.0
H901 H 0.80237 0.67435 0.79519 0.0
H902 H 0.81373 0.72522 0.80029 0.0
H903 H 0.82808 0.67508 0.82607 0.0
H904 H 0.84023 0.67985 0.80851 0.0
H905 H 0.81839 0.66438 0.80761 0.0
H906 H 0.8373 0.74561 0.8141 0.0
H907 H 0.85447 0.74168 0.8154 0.0
H908 H 0.84079 0.73698 0.83179 0.0
H909 H 0.85626 0.70969 0.91524 0.0
H910 H 0.89978 0.72151 0.87832 0.0
H911 H 0.90208 0.72315 0.85 0.0
H912 H 0.86475 0.71504 0.80657 0.0
H913 H 0.82107 0.70247 0.84358 0.0
H914 H 0.81884 0.70099 0.87187 0.0
H915 H 0.97209 0.73046 0.80485 0.0
H916 H 0.96498 0.7419 0.81675 0.0
H917 H 0.97024 0.74738 0.79644 0.0
C918 C 0.8748 0.62582 0.38791 0.0
C919 C 0.88607 0.63881 0.40042 0.0
C920 C 0.87131 0.6336 0.42528 0.0
C921 C 0.87409 0.64943 0.42979 0.0
C922 C 0.86315 0.65111 0.44004 0.0
C923 C 0.84905 0.63664 0.44569 0.0
C924 C 0.84644 0.62065 0.44135 0.0
C925 C 0.85785 0.61937 0.43144 0.0
C926 C 0.86654 0.66837 0.44463 0.0
C927 C 0.83139 0.6049 0.44681 0.0
C928 C 0.77692 0.65305 0.38604 0.0
C929 C 0.76477 0.64675 0.39984 0.0
C930 C 0.78154 0.65245 0.42405 0.0
C931 C 0.7768 0.63605 0.42831 0.0
C932 C 0.78679 0.63289 0.4386 0.0
C933 C 0.80165 0.6464 0.44496 0.0
C934 C 0.80602 0.66297 0.44133 0.0
C935 C 0.79581 0.66577 0.43098 0.0
C936 C 0.7816 0.61509 0.44252 0.0
C937 C 0.82165 0.67766 0.44814 0.0
C938 C 0.7736 0.64526 0.54798 0.0
C939 C 0.76994 0.62885 0.54458 0.0
C940 C 0.78104 0.6258 0.53588 0.0
C941 C 0.79615 0.63943 0.53067 0.0
C942 C 0.7999 0.65595 0.53426 0.0
C943 C 0.78846 0.65862 0.54269 0.0
C944 C 0.77662 0.60804 0.53218 0.0
C945 C 0.81602 0.67082 0.52921 0.0
C946 C 0.897 0.60972 0.54615 0.0
C947 C 0.89184 0.62253 0.55075 0.0
C948 C 0.86416 0.61884 0.5465 0.0
C949 C 0.84799 0.60629 0.54257 0.0
C950 C 0.83687 0.61003 0.5348 0.0
C951 C 0.84201 0.62681 0.53122 0.0
C952 C 0.85803 0.63968 0.53605 0.0
C953 C 0.86896 0.63555 0.5436 0.0
C954 C 0.8198 0.59603 0.53001 0.0
C955 C 0.86371 0.65775 0.53291 0.0
C956 C 0.83643 0.63823 0.45511 0.0
C957 C 0.82534 0.64154 0.44686 0.0
C958 C 0.81303 0.64314 0.45472 0.0
C959 C 0.8116 0.64139 0.47133 0.0
C960 C 0.79933 0.64292 0.4796 0.0
C961 C 0.79805 0.64121 0.49596 0.0
C962 C 0.80904 0.63796 0.50471 0.0
C963 C 0.80803 0.6365 0.5214 0.0
C964 C 0.81889 0.63284 0.52967 0.0
C965 C 0.83095 0.6308 0.52175 0.0
C966 C 0.83242 0.63263 0.50512 0.0
C967 C 0.84468 0.63107 0.49681 0.0
C968 C 0.84616 0.6331 0.48047 0.0
C969 C 0.83523 0.63641 0.47175 0.0
C970 C 0.82274 0.63799 0.47988 0.0
C971 C 0.82139 0.63617 0.49658 0.0
C972 C 0.74505 0.64653 0.57724 0.0
C973 C 0.74978 0.63783 0.56521 0.0
O974 O 0.88164 0.63175 0.41526 0.0
O975 O 0.8748 0.61437 0.55292 0.0
O976 O 0.76327 0.64881 0.55633 0.0
O977 O 0.7726 0.65592 0.41351 0.0
H978 H 0.88427 0.64981 0.39957 0.0
H979 H 0.86157 0.62166 0.39041 0.0
H980 H 0.87651 0.61477 0.38807 0.0
H981 H 0.87757 0.63121 0.37589 0.0
H982 H 0.88486 0.66044 0.42538 0.0
H983 H 0.85599 0.60722 0.428 0.0
H984 H 0.85737 0.67081 0.4385 0.0
H985 H 0.87923 0.67821 0.44133 0.0
H986 H 0.86506 0.66927 0.45759 0.0
H987 H 0.83035 0.59351 0.44112 0.0
H988 H 0.81988 0.60531 0.44412 0.0
H989 H 0.83217 0.60392 0.45984 0.0
H990 H 0.76091 0.63338 0.4011 0.0
H991 H 0.77047 0.64659 0.37479 0.0
H992 H 0.78716 0.65039 0.3883 0.0
H993 H 0.78254 0.66674 0.38469 0.0
H994 H 0.76527 0.62566 0.42381 0.0
H995 H 0.79918 0.6784 0.42788 0.0
H996 H 0.79128 0.61219 0.43857 0.0
H997 H 0.76954 0.60595 0.43681 0.0
H998 H 0.78051 0.6135 0.45556 0.0
H999 H 0.82284 0.68979 0.44485 0.0
H1000 H 0.83267 0.67722 0.44377 0.0
H1001 H 0.82174 0.67696 0.46126 0.0
H1002 H 0.73935 0.62785 0.558 0.0
H1003 H 0.75841 0.61841 0.54855 0.0
H1004 H 0.79117 0.67123 0.54541 0.0
H1005 H 0.7776 0.60635 0.51926 0.0
H1006 H 0.76385 0.59886 0.53596 0.0
H1007 H 0.78557 0.60532 0.53834 0.0
H1008 H 0.81786 0.68272 0.53444 0.0
H1009 H 0.81606 0.67169 0.5161 0.0
H1010 H 0.8267 0.66928 0.53276 0.0
H1011 H 0.89532 0.63105 0.54049 0.0
H1012 H 0.91073 0.61592 0.54505 0.0
H1013 H 0.89122 0.60378 0.53452 0.0
H1014 H 0.89285 0.59972 0.55503 0.0
H1015 H 0.84431 0.59346 0.5451 0.0
H1016 H 0.88125 0.6454 0.54717 0.0
H1017 H 0.81804 0.59598 0.51697 0.0
H1018 H 0.81018 0.59805 0.53566 0.0
H1019 H 0.81778 0.58361 0.53346 0.0
H1020 H 0.87584 0.66637 0.5388 0.0
H1021 H 0.85428 0.66089 0.53712 0.0
H1022 H 0.86498 0.65985 0.51995 0.0
H1023 H 0.82626 0.64281 0.43408 0.0
H1024 H 0.79057 0.64547 0.47349 0.0
H1025 H 0.78834 0.64247 0.50168 0.0
H1026 H 0.81805 0.63172 0.54246 0.0
H1027 H 0.85335 0.62836 0.50285 0.0
H1028 H 0.85594 0.63195 0.47475 0.0
H1029 H 0.73207 0.64339 0.57364 0.0
H1030 H 0.75089 0.65997 0.57361 0.0
H1031 H 0.75062 0.6394 0.59942 0.0
C1032 C 0.39218 0.2566 0.38909 0.0
C1033 C 0.37734 0.24788 0.40011 0.0
C1034 C 0.37931 0.24093 0.4272 0.0
C1035 C 0.36296 0.22822 0.42979 0.0
C1036 C 0.35962 0.21569 0.44074 0.0
C1037 C 0.37299 0.21569 0.44892 0.0
C1038 C 0.38949 0.22885 0.44663 0.0
C1039 C 0.39236 0.24155 0.43604 0.0
C1040 C 0.34185 0.20215 0.44313 0.0
C1041 C 0.40416 0.22911 0.45474 0.0
C1042 C 0.35187 0.10419 0.39266 0.0
C1043 C 0.3592 0.11962 0.40265 0.0
C1044 C 0.35451 0.13086 0.42698 0.0
C1045 C 0.37078 0.14444 0.42872 0.0
C1046 C 0.37438 0.15773 0.43926 0.0
C1047 C 0.36137 0.15765 0.44797 0.0
C1048 C 0.345 0.14387 0.44639 0.0
C1049 C 0.34187 0.13048 0.43615 0.0
C1050 C 0.39206 0.17199 0.44086 0.0
C1051 C 0.3307 0.1435 0.45514 0.0
C1052 C 0.36529 0.13199 0.55009 0.0
C1053 C 0.38093 0.14459 0.54504 0.0
C1054 C 0.38255 0.15852 0.53703 0.0
C1055 C 0.36826 0.15981 0.53391 0.0
C1056 C 0.35252 0.14717 0.53897 0.0
C1057 C 0.35126 0.13341 0.54698 0.0
C1058 C 0.3995 0.17177 0.53169 0.0
C1059 C 0.33703 0.14813 0.53574 0.0
C1060 C 0.38823 0.2853 0.55291 0.0
C1061 C 0.3759 0.26798 0.55912 0.0
C1062 C 0.38108 0.24504 0.55299 0.0
C1063 C 0.39448 0.24262 0.54986 0.0
C1064 C 0.39229 0.22873 0.54091 0.0
C1065 C 0.37619 0.21678 0.5353 0.0
C1066 C 0.36246 0.21878 0.53902 0.0
C1067 C 0.36505 0.23291 0.54778 0.0
C1068 C 0.4072 0.2269 0.53731 0.0
C1069 C 0.34504 0.20599 0.53368 0.0
C1070 C 0.36993 0.20102 0.45839 0.0
C1071 C 0.36678 0.18655 0.45003 0.0
C1072 C 0.36474 0.17247 0.45786 0.0
C1073 C 0.3661 0.17281 0.47457 0.0
C1074 C 0.36484 0.15914 0.48281 0.0
C1075 C 0.366 0.15953 0.49927 0.0
C1076 C 0.36855 0.17363 0.50813 0.0
C1077 C 0.3697 0.17411 0.52487 0.0
C1078 C 0.37221 0.1883 0.53333 0.0
C1079 C 0.37371 0.2022 0.52552 0.0
C1080 C 0.37269 0.20201 0.50875 0.0
C1081 C 0.37424 0.2158 0.50048 0.0
C1082 C 0.37317 0.21546 0.48399 0.0
C1083 C 0.37068 0.20138 0.47515 0.0
C1084 C 0.36891 0.18727 0.48325 0.0
C1085 C 0.37004 0.18763 0.50006 0.0
C1086 C 0.38005 0.10671 0.55072 0.0
C1087 C 0.37514 0.11508 0.56378 0.0
O1088 O 0.38282 0.25224 0.41569 0.0
O1089 O 0.38406 0.25903 0.56125 0.0
O1090 O 0.36304 0.11818 0.55775 0.0
O1091 O 0.35054 0.11815 0.41641 0.0
H1092 H 0.37216 0.23421 0.39805 0.0
H1093 H 0.40123 0.25238 0.39163 0.0
H1094 H 0.39861 0.27037 0.39085 0.0
H1095 H 0.388 0.25342 0.37651 0.0
H1096 H 0.35286 0.22801 0.42309 0.0
H1097 H 0.40493 0.25151 0.43393 0.0
H1098 H 0.3396 0.19056 0.43685 0.0
H1099 H 0.33285 0.20568 0.43842 0.0
H1100 H 0.33947 0.19935 0.45591 0.0
H1101 H 0.41623 0.2391 0.45022 0.0
H1102 H 0.40357 0.2169 0.45302 0.0
H1103 H 0.40383 0.23125 0.46767 0.0
H1104 H 0.36271 0.13136 0.3962 0.0
H1105 H 0.37047 0.09709 0.39303 0.0
H1106 H 0.34769 0.10752 0.38141 0.0
H1107 H 0.33883 0.09587 0.397 0.0
H1108 H 0.38072 0.14473 0.42188 0.0
H1109 H 0.32938 0.11992 0.43478 0.0
H1110 H 0.39553 0.17541 0.45355 0.0
H1111 H 0.39312 0.1831 0.4349 0.0
H1112 H 0.40107 0.1689 0.43541 0.0
H1113 H 0.31849 0.13283 0.45123 0.0
H1114 H 0.33055 0.15529 0.45332 0.0
H1115 H 0.33229 0.14244 0.46804 0.0
H1116 H 0.38637 0.12693 0.56763 0.0
H1117 H 0.39191 0.1436 0.54706 0.0
H1118 H 0.33925 0.12361 0.55084 0.0
H1119 H 0.39952 0.17247 0.51857 0.0
H1120 H 0.4095 0.16925 0.5355 0.0
H1121 H 0.40236 0.18415 0.53656 0.0
H1122 H 0.32573 0.13736 0.54061 0.0
H1123 H 0.33522 0.14848 0.52276 0.0
H1124 H 0.33846 0.15984 0.54104 0.0
H1125 H 0.3661 0.26215 0.54969 0.0
H1126 H 0.38245 0.2933 0.55253 0.0
H1127 H 0.39188 0.28402 0.54068 0.0
H1128 H 0.39973 0.2915 0.56037 0.0
H1129 H 0.40677 0.2519 0.55414 0.0
H1130 H 0.35448 0.23427 0.55068 0.0
H1131 H 0.40806 0.22553 0.52431 0.0
H1132 H 0.40569 0.21542 0.54285 0.0
H1133 H 0.41901 0.23775 0.54178 0.0
H1134 H 0.33553 0.20865 0.53863 0.0
H1135 H 0.34215 0.19334 0.53733 0.0
H1136 H 0.34413 0.20581 0.52055 0.0
H1137 H 0.36608 0.18632 0.43717 0.0
H1138 H 0.36294 0.14798 0.47662 0.0
H1139 H 0.36487 0.1486 0.50496 0.0
H1140 H 0.37299 0.18852 0.54618 0.0
H1141 H 0.37629 0.22702 0.50665 0.0
H1142 H 0.37436 0.22638 0.47824 0.0
H1143 H 0.36961 0.09395 0.54788 0.0
H1144 H 0.39123 0.10609 0.55442 0.0
H1145 H 0.38323 0.11409 0.53974 0.0
C1146 C 0.89121 0.20521 0.38986 0.0
C1147 C 0.8901 0.22115 0.3912 0.0
C1148 C 0.8784 0.21924 0.4169 0.0
C1149 C 0.8662 0.22385 0.41639 0.0
C1150 C 0.85223 0.21609 0.42611 0.0
C1151 C 0.85038 0.20324 0.43629 0.0
C1152 C 0.86292 0.19878 0.43695 0.0
C1153 C 0.87696 0.20711 0.42743 0.0
C1154 C 0.83932 0.22141 0.42529 0.0
C1155 C 0.86127 0.18488 0.44732 0.0
C1156 C 0.74701 0.1295 0.37571 0.0
C1157 C 0.75304 0.12314 0.38943 0.0
C1158 C 0.76468 0.13964 0.41387 0.0
C1159 C 0.77674 0.13523 0.41746 0.0
C1160 C 0.78995 0.14506 0.42804 0.0
C1161 C 0.79118 0.15967 0.435 0.0
C1162 C 0.77877 0.16387 0.43165 0.0
C1163 C 0.76549 0.15357 0.42136 0.0
C1164 C 0.8027 0.13996 0.43163 0.0
C1165 C 0.77974 0.17948 0.43856 0.0
C1166 C 0.76248 0.14197 0.53938 0.0
C1167 C 0.77507 0.13841 0.53547 0.0
C1168 C 0.78863 0.14947 0.52634 0.0
C1169 C 0.78969 0.16445 0.52116 0.0
C1170 C 0.77721 0.16822 0.52536 0.0
C1171 C 0.76383 0.15697 0.53454 0.0
C1172 C 0.80196 0.14528 0.52238 0.0
C1173 C 0.77804 0.18415 0.52017 0.0
C1174 C 0.89272 0.28082 0.54593 0.0
C1175 C 0.88418 0.26565 0.55671 0.0
C1176 C 0.87118 0.24003 0.54009 0.0
C1177 C 0.8713 0.22523 0.5369 0.0
C1178 C 0.85866 0.2123 0.52767 0.0
C1179 C 0.84569 0.21436 0.52131 0.0
C1180 C 0.84564 0.22943 0.5242 0.0
C1181 C 0.85839 0.24212 0.53354 0.0
C1182 C 0.85908 0.1964 0.52478 0.0
C1183 C 0.83206 0.23208 0.51744 0.0
C1184 C 0.83485 0.19361 0.44536 0.0
C1185 C 0.82071 0.18162 0.43707 0.0
C1186 C 0.80596 0.17117 0.44489 0.0
C1187 C 0.8054 0.17225 0.46159 0.0
C1188 C 0.79116 0.16119 0.46998 0.0
C1189 C 0.79072 0.16245 0.48641 0.0
C1190 C 0.80444 0.17493 0.49505 0.0
C1191 C 0.80412 0.17636 0.51174 0.0
C1192 C 0.81778 0.18923 0.51989 0.0
C1193 C 0.83197 0.20067 0.51187 0.0
C1194 C 0.83276 0.19914 0.49524 0.0
C1195 C 0.84701 0.21016 0.48684 0.0
C1196 C 0.84774 0.2084 0.4705 0.0
C1197 C 0.83416 0.19568 0.46193 0.0
C1198 C 0.81948 0.18474 0.4701 0.0
C1199 C 0.81889 0.18627 0.48681 0.0
C1200 C 0.72557 0.10753 0.53753 0.0
C1201 C 0.74095 0.1144 0.54838 0.0
O1202 O 0.89142 0.22615 0.40696 0.0
O1203 O 0.88366 0.25189 0.54939 0.0
O1204 O 0.74924 0.13171 0.54833 0.0
O1205 O 0.75205 0.13069 0.40337 0.0
H1206 H 0.87783 0.21846 0.38622 0.0
H1207 H 0.88062 0.19486 0.39602 0.0
H1208 H 0.90302 0.20722 0.39532 0.0
H1209 H 0.89062 0.20137 0.37723 0.0
H1210 H 0.86758 0.23341 0.40825 0.0
H1211 H 0.88659 0.20375 0.42771 0.0
H1212 H 0.82801 0.21153 0.41906 0.0
H1213 H 0.84384 0.23325 0.41883 0.0
H1214 H 0.83568 0.22303 0.43741 0.0
H1215 H 0.87111 0.18167 0.44504 0.0
H1216 H 0.84893 0.17351 0.44533 0.0
H1217 H 0.86215 0.18871 0.45997 0.0
H1218 H 0.76618 0.12674 0.38697 0.0
H1219 H 0.74809 0.12412 0.36423 0.0
H1220 H 0.75473 0.14331 0.3752 0.0
H1221 H 0.73382 0.1261 0.37736 0.0
H1222 H 0.77579 0.12408 0.41208 0.0
H1223 H 0.75597 0.1567 0.41863 0.0
H1224 H 0.81457 0.14869 0.42586 0.0
H1225 H 0.79866 0.12709 0.42726 0.0
H1226 H 0.80518 0.14071 0.4446 0.0
H1227 H 0.77011 0.18188 0.43341 0.0
H1228 H 0.79219 0.19047 0.43647 0.0
H1229 H 0.778 0.17824 0.45156 0.0
H1230 H 0.74884 0.10947 0.54376 0.0
H1231 H 0.77471 0.1273 0.53982 0.0
H1232 H 0.75422 0.15976 0.53785 0.0
H1233 H 0.80283 0.14447 0.50932 0.0
H1234 H 0.79949 0.13327 0.52751 0.0
H1235 H 0.81421 0.15538 0.52691 0.0
H1236 H 0.76692 0.18486 0.52374 0.0
H1237 H 0.77917 0.18514 0.50709 0.0
H1238 H 0.78929 0.19503 0.52548 0.0
H1239 H 0.87138 0.2633 0.55886 0.0
H1240 H 0.8946 0.29226 0.55227 0.0
H1241 H 0.88484 0.27884 0.53526 0.0
H1242 H 0.90487 0.2827 0.54185 0.0
H1243 H 0.88126 0.22375 0.54188 0.0
H1244 H 0.85825 0.25362 0.53554 0.0
H1245 H 0.85943 0.19425 0.51184 0.0
H1246 H 0.84757 0.18563 0.52933 0.0
H1247 H 0.87001 0.19672 0.53059 0.0
H1248 H 0.83402 0.24468 0.5204 0.0
H1249 H 0.81986 0.22256 0.52212 0.0
H1250 H 0.83144 0.23043 0.50435 0.0
H1251 H 0.82119 0.18039 0.4243 0.0
H1252 H 0.78024 0.15136 0.46392 0.0
H1253 H 0.77945 0.15358 0.49225 0.0
H1254 H 0.81735 0.19037 0.53268 0.0
H1255 H 0.85783 0.2202 0.49283 0.0
H1256 H 0.85905 0.21718 0.46465 0.0
H1257 H 0.7187 0.09366 0.53746 0.0
H1258 H 0.72941 0.1117 0.52522 0.0
H1259 H 0.71714 0.11208 0.54152 0.0
C1260 C 0.03223 0.47252 0.29324 0.0
C1261 C 0.01726 0.45899 0.28387 0.0
C1262 C 0.01458 0.46568 0.25677 0.0
C1263 C 0.99736 0.45891 0.25512 0.0
C1264 C 0.99076 0.46542 0.24417 0.0
C1265 C 0.00167 0.47917 0.23489 0.0
C1266 C 0.01907 0.48566 0.23623 0.0
C1267 C 0.02527 0.47858 0.24697 0.0
C1268 C 0.97214 0.45786 0.24285 0.0
C1269 C 0.03114 0.50042 0.22671 0.0
C1270 C 0.94659 0.55908 0.24967 0.0
C1271 C 0.96357 0.56031 0.25169 0.0
C1272 C 0.967 0.53597 0.24786 0.0
C1273 C 0.98309 0.54378 0.24165 0.0
C1274 C 0.98903 0.53436 0.23378 0.0
C1275 C 0.97855 0.51686 0.2319 0.0
C1276 C 0.96242 0.509 0.23837 0.0
C1277 C 0.95699 0.51866 0.24651 0.0
C1278 C 0.00647 0.54307 0.22747 0.0
C1279 C 0.95087 0.4904 0.23661 0.0
C1280 C 0.97055 0.53285 0.12878 0.0
C1281 C 0.98694 0.53816 0.13382 0.0
C1282 C 0.99069 0.52758 0.14246 0.0
C1283 C 0.97782 0.51132 0.14604 0.0
C1284 C 0.96145 0.50567 0.14039 0.0
C1285 C 0.95806 0.5165 0.1317 0.0
C1286 C 0.00839 0.53382 0.14791 0.0
C1287 C 0.9475 0.48834 0.14384 0.0
C1288 C 0.01253 0.4137 0.13083 0.0
C1289 C 0.00178 0.4208 0.12485 0.0
C1290 C 0.00497 0.44771 0.13428 0.0
C1291 C 0.01692 0.46385 0.13917 0.0
C1292 C 0.01237 0.47464 0.14648 0.0
C1293 C 0.99536 0.46903 0.14907 0.0
C1294 C 0.98312 0.4529 0.14368 0.0
C1295 C 0.98802 0.44244 0.13617 0.0
C1296 C 0.02575 0.49196 0.1516 0.0
C1297 C 0.96486 0.44668 0.146 0.0
C1298 C 0.99498 0.48746 0.22464 0.0
C1299 C 0.99036 0.49813 0.23199 0.0
C1300 C 0.98431 0.50669 0.22317 0.0
C1301 C 0.98323 0.50496 0.20645 0.0
C1302 C 0.97761 0.51372 0.19717 0.0
C1303 C 0.97701 0.51228 0.18071 0.0
C1304 C 0.98168 0.50177 0.17291 0.0
C1305 C 0.98148 0.50052 0.15617 0.0
C1306 C 0.98575 0.4896 0.14879 0.0
C1307 C 0.99045 0.47996 0.15769 0.0
C1308 C 0.9911 0.48132 0.17445 0.0
C1309 C 0.99602 0.472 0.18378 0.0
C1310 C 0.99721 0.4739 0.20022 0.0
C1311 C 0.99341 0.4851 0.20797 0.0
C1312 C 0.98781 0.49413 0.19884 0.0
C1313 C 0.9868 0.49235 0.18206 0.0
C1314 C 0.96324 0.56237 0.13737 0.0
C1315 C 0.97279 0.5599 0.12387 0.0
O1316 O 0.02114 0.46014 0.26792 0.0
O1317 O 0.01047 0.43791 0.12771 0.0
O1318 O 0.96639 0.54298 0.12087 0.0
O1319 O 0.96086 0.54464 0.25554 0.0
H1320 H 0.00677 0.46137 0.28585 0.0
H1321 H 0.03521 0.48504 0.28906 0.0
H1322 H 0.04333 0.47112 0.2916 0.0
H1323 H 0.02939 0.47183 0.30607 0.0
H1324 H 0.98911 0.4486 0.26248 0.0
H1325 H 0.03856 0.48357 0.24828 0.0
H1326 H 0.96853 0.46617 0.24907 0.0
H1327 H 0.96542 0.44537 0.24829 0.0
H1328 H 0.9681 0.45669 0.23024 0.0
H1329 H 0.04428 0.50494 0.23024 0.0
H1330 H 0.02856 0.51086 0.2282 0.0
H1331 H 0.02955 0.49687 0.21394 0.0
H1332 H 0.96999 0.56432 0.24013 0.0
H1333 H 0.94799 0.57109 0.24566 0.0
H1334 H 0.93979 0.55568 0.26104 0.0
H1335 H 0.93904 0.54932 0.24059 0.0
H1336 H 0.99107 0.55715 0.24317 0.0
H1337 H 0.94468 0.51277 0.25154 0.0
H1338 H 0.0133 0.53683 0.23172 0.0
H1339 H 0.01354 0.55647 0.23111 0.0
H1340 H 0.00597 0.54218 0.21432 0.0
H1341 H 0.9382 0.48646 0.24098 0.0
H1342 H 0.95602 0.48381 0.24343 0.0
H1343 H 0.94989 0.48643 0.22398 0.0
H1344 H 0.98602 0.56602 0.12776 0.0
H1345 H 0.99693 0.55043 0.13089 0.0
H1346 H 0.94552 0.51239 0.1275 0.0
H1347 H 0.00906 0.53433 0.16107 0.0
H1348 H 0.01714 0.54645 0.14344 0.0
H1349 H 0.01251 0.52504 0.14382 0.0
H1350 H 0.93545 0.48578 0.13852 0.0
H1351 H 0.94609 0.48673 0.15686 0.0
H1352 H 0.95058 0.47896 0.13914 0.0
H1353 H 0.99007 0.41462 0.13164 0.0
H1354 H 0.00584 0.39988 0.1294 0.0
H1355 H 0.01551 0.41684 0.14364 0.0
H1356 H 0.02438 0.41906 0.12425 0.0
H1357 H 0.02994 0.46792 0.13739 0.0
H1358 H 0.97856 0.43027 0.13179 0.0
H1359 H 0.02631 0.49298 0.16474 0.0
H1360 H 0.02277 0.50139 0.14711 0.0
H1361 H 0.03821 0.49498 0.1473 0.0
H1362 H 0.95689 0.43357 0.14175 0.0
H1363 H 0.96121 0.45473 0.13949 0.0
H1364 H 0.96246 0.44752 0.15876 0.0
H1365 H 0.99138 0.49972 0.24479 0.0
H1366 H 0.97381 0.52196 0.2025 0.0
H1367 H 0.9728 0.5195 0.17419 0.0
H1368 H 0.98569 0.4888 0.13594 0.0
H1369 H 0.99916 0.46324 0.17848 0.0
H1370 H 0.00119 0.46651 0.20679 0.0
H1371 H 0.96793 0.57589 0.13954 0.0
H1372 H 0.96505 0.55706 0.14843 0.0
H1373 H 0.94971 0.55601 0.13454 0.0
C1374 C 0.45777 0.42354 0.29174 0.0
C1375 C 0.44401 0.41949 0.27944 0.0
C1376 C 0.45776 0.42736 0.25408 0.0
C1377 C 0.45328 0.43878 0.24849 0.0
C1378 C 0.46333 0.45103 0.23769 0.0
C1379 C 0.47821 0.45191 0.23252 0.0
C1380 C 0.48248 0.44005 0.23783 0.0
C1381 C 0.47197 0.42771 0.24834 0.0
C1382 C 0.45824 0.46325 0.23206 0.0
C1383 C 0.49838 0.44075 0.23283 0.0
C1384 C 0.54752 0.54118 0.29162 0.0
C1385 C 0.55989 0.54682 0.278 0.0
C1386 C 0.54373 0.53651 0.2534 0.0
C1387 C 0.54903 0.52553 0.24803 0.0
C1388 C 0.53909 0.51225 0.23755 0.0
C1389 C 0.52371 0.51014 0.23207 0.0
C1390 C 0.51881 0.52178 0.23671 0.0
C1391 C 0.52898 0.53492 0.24727 0.0
C1392 C 0.54483 0.50022 0.23265 0.0
C1393 C 0.50264 0.52006 0.23084 0.0
C1394 C 0.56166 0.52883 0.13263 0.0
C1395 C 0.56444 0.51897 0.1434 0.0
C1396 C 0.55114 0.50562 0.15097 0.0
C1397 C 0.53472 0.50236 0.14816 0.0
C1398 C 0.53184 0.51213 0.13724 0.0
C1399 C 0.54535 0.52512 0.12948 0.0
C1400 C 0.55471 0.49511 0.16211 0.0
C1401 C 0.51452 0.50902 0.13396 0.0
C1402 C 0.44488 0.36781 0.12689 0.0
C1403 C 0.44853 0.38565 0.12431 0.0
C1404 C 0.47311 0.41181 0.13317 0.0
C1405 C 0.48917 0.41802 0.13932 0.0
C1406 C 0.4976 0.43361 0.14714 0.0
C1407 C 0.48987 0.44342 0.14847 0.0
C1408 C 0.47384 0.43749 0.14171 0.0
C1409 C 0.46556 0.42167 0.13419 0.0
C1410 C 0.51472 0.43952 0.1541 0.0
C1411 C 0.46547 0.44786 0.14252 0.0
C1412 C 0.48999 0.46607 0.22273 0.0
C1413 C 0.50035 0.48124 0.23061 0.0
C1414 C 0.51225 0.49507 0.22249 0.0
C1415 C 0.5138 0.4939 0.20594 0.0
C1416 C 0.52546 0.50766 0.19737 0.0
C1417 C 0.52744 0.50617 0.18122 0.0
C1418 C 0.51796 0.49081 0.17306 0.0
C1419 C 0.52068 0.48888 0.15688 0.0
C1420 C 0.5109 0.4735 0.14909 0.0
C1421 C 0.4986 0.45977 0.15708 0.0
C1422 C 0.49584 0.4614 0.17332 0.0
C1423 C 0.48375 0.44781 0.18182 0.0
C1424 C 0.48153 0.4494 0.19793 0.0
C1425 C 0.49153 0.46454 0.20621 0.0
C1426 C 0.50356 0.4785 0.19781 0.0
C1427 C 0.50566 0.47695 0.18134 0.0
C1428 C 0.5948 0.56092 0.14374 0.0
C1429 C 0.59107 0.54993 0.1288 0.0
O1430 O 0.44851 0.41584 0.26494 0.0
O1431 O 0.4655 0.39637 0.12622 0.0
O1432 O 0.5742 0.54197 0.12508 0.0
O1433 O 0.55253 0.54872 0.26442 0.0
H1434 H 0.44238 0.43059 0.27854 0.0
H1435 H 0.46956 0.43453 0.28798 0.0
H1436 H 0.45984 0.41278 0.29302 0.0
H1437 H 0.45442 0.42658 0.30344 0.0
H1438 H 0.44192 0.43809 0.25254 0.0
H1439 H 0.47515 0.41865 0.25262 0.0
H1440 H 0.46675 0.47577 0.2374 0.0
H1441 H 0.44531 0.45951 0.23539 0.0
H1442 H 0.4593 0.46438 0.21897 0.0
H1443 H 0.50046 0.43139 0.23895 0.0
H1444 H 0.50916 0.45338 0.23538 0.0
H1445 H 0.49795 0.4384 0.21986 0.0
H1446 H 0.56315 0.53689 0.27633 0.0
H1447 H 0.55356 0.54052 0.30279 0.0
H1448 H 0.53684 0.52855 0.28882 0.0
H1449 H 0.5426 0.54981 0.29344 0.0
H1450 H 0.56091 0.52726 0.25198 0.0
H1451 H 0.52517 0.54367 0.25123 0.0
H1452 H 0.53543 0.48735 0.23602 0.0
H1453 H 0.55697 0.50342 0.23821 0.0
H1454 H 0.54604 0.50023 0.21958 0.0
H1455 H 0.50138 0.53099 0.23429 0.0
H1456 H 0.49209 0.50866 0.23582 0.0
H1457 H 0.50171 0.51856 0.21772 0.0
H1458 H 0.59495 0.54053 0.13082 0.0
H1459 H 0.5769 0.52149 0.14599 0.0
H1460 H 0.54328 0.53271 0.12113 0.0
H1461 H 0.55336 0.49829 0.17453 0.0
H1462 H 0.56752 0.49725 0.16077 0.0
H1463 H 0.54573 0.48164 0.16002 0.0
H1464 H 0.51449 0.51853 0.12607 0.0
H1465 H 0.50849 0.50906 0.14527 0.0
H1466 H 0.50689 0.49651 0.12825 0.0
H1467 H 0.44165 0.38837 0.13355 0.0
H1468 H 0.43129 0.35886 0.126 0.0
H1469 H 0.4493 0.36687 0.13889 0.0
H1470 H 0.45134 0.36425 0.11794 0.0
H1471 H 0.49496 0.41038 0.13827 0.0
H1472 H 0.4533 0.41716 0.12901 0.0
H1473 H 0.51516 0.44312 0.16678 0.0
H1474 H 0.52398 0.45077 0.14779 0.0
H1475 H 0.51842 0.42984 0.15316 0.0
H1476 H 0.45359 0.4421 0.1356 0.0
H1477 H 0.47389 0.46052 0.13795 0.0
H1478 H 0.46284 0.44936 0.15506 0.0
H1479 H 0.49939 0.48219 0.24335 0.0
H1480 H 0.53326 0.51971 0.2031 0.0
H1481 H 0.53668 0.51716 0.17524 0.0
H1482 H 0.51329 0.47202 0.13677 0.0
H1483 H 0.47591 0.43575 0.17614 0.0
H1484 H 0.47205 0.43852 0.20387 0.0
H1485 H 0.59098 0.57041 0.14193 0.0
H1486 H 0.6083 0.56739 0.14674 0.0
H1487 H 0.58794 0.55317 0.15396 0.0
C1488 C 0.43805 0.97115 0.2937 0.0
C1489 C 0.43652 0.98466 0.28477 0.0
C1490 C 0.44529 0.98625 0.25759 0.0
C1491 C 0.45628 0.00343 0.25618 0.0
C1492 C 0.46955 0.00937 0.2456 0.0
C1493 C 0.47186 0.99785 0.23633 0.0
C1494 C 0.46016 0.98056 0.23706 0.0
C1495 C 0.44685 0.975 0.24756 0.0
C1496 C 0.48151 0.02789 0.24482 0.0
C1497 C 0.46222 0.9679 0.22737 0.0
C1498 C 0.58223 0.00372 0.28552 0.0
C1499 C 0.5661 0.99989 0.27816 0.0
C1500 C 0.55451 0.01201 0.26017 0.0
C1501 C 0.54109 0.99659 0.25492 0.0
C1502 C 0.52897 0.99588 0.24445 0.0
C1503 C 0.52993 0.01088 0.23949 0.0
C1504 C 0.54327 0.02643 0.24492 0.0
C1505 C 0.55556 0.02677 0.25497 0.0
C1506 C 0.515 0.97903 0.23886 0.0
C1507 C 0.54442 0.04268 0.24032 0.0
C1508 C 0.56922 0.0344 0.14107 0.0
C1509 C 0.55761 0.01748 0.14334 0.0
C1510 C 0.5421 0.01268 0.15005 0.0
C1511 C 0.53819 0.02506 0.15467 0.0
C1512 C 0.54959 0.04206 0.15175 0.0
C1513 C 0.56491 0.04648 0.1448 0.0
C1514 C 0.53 0.99439 0.15247 0.0
C1515 C 0.54575 0.05557 0.15635 0.0
C1516 C 0.42217 0.01422 0.13706 0.0
C1517 C 0.43198 0.01501 0.12226 0.0
C1518 C 0.4524 0.00778 0.1328 0.0
C1519 C 0.45589 0.99481 0.13407 0.0
C1520 C 0.46936 0.99668 0.1433 0.0
C1521 C 0.47971 0.01204 0.15132 0.0
C1522 C 0.4765 0.02538 0.14986 0.0
C1523 C 0.46281 0.0231 0.14069 0.0
C1524 C 0.47241 0.98218 0.14463 0.0
C1525 C 0.48746 0.042 0.1581 0.0
C1526 C 0.48762 0.00361 0.22768 0.0
C1527 C 0.50135 0.00574 0.23651 0.0
C1528 C 0.51644 0.01012 0.22933 0.0
C1529 C 0.51808 0.0127 0.21281 0.0
C1530 C 0.533 0.01684 0.20514 0.0
C1531 C 0.53453 0.0195 0.1889 0.0
C1532 C 0.52109 0.0178 0.17964 0.0
C1533 C 0.52248 0.02032 0.16309 0.0
C1534 C 0.50883 0.01841 0.15425 0.0
C1535 C 0.49373 0.01403 0.16148 0.0
C1536 C 0.49209 0.01148 0.17801 0.0
C1537 C 0.47704 0.00698 0.18566 0.0
C1538 C 0.47556 0.0045 0.20194 0.0
C1539 C 0.48903 0.00632 0.21118 0.0
C1540 C 0.50434 0.01088 0.20372 0.0
C1541 C 0.50585 0.01341 0.18712 0.0
C1542 C 0.61102 0.04568 0.14594 0.0
C1543 C 0.59428 0.03231 0.13884 0.0
O1544 O 0.43341 0.98024 0.26882 0.0
O1545 O 0.43888 0.00484 0.12393 0.0
O1546 O 0.58465 0.03948 0.13539 0.0
O1547 O 0.56658 0.01312 0.27019 0.0
H1548 H 0.44875 0.9963 0.28659 0.0
H1549 H 0.4495 0.97115 0.28997 0.0
H1550 H 0.4273 0.95855 0.291 0.0
H1551 H 0.43895 0.97367 0.30669 0.0
H1552 H 0.45465 0.01217 0.26355 0.0
H1553 H 0.43811 0.96178 0.2486 0.0
H1554 H 0.4935 0.03087 0.25056 0.0
H1555 H 0.47668 0.03529 0.2509 0.0
H1556 H 0.48405 0.03176 0.23227 0.0
H1557 H 0.45198 0.95493 0.22921 0.0
H1558 H 0.4742 0.96867 0.23059 0.0
H1559 H 0.46262 0.97071 0.21459 0.0
H1560 H 0.555 0.99327 0.28581 0.0
H1561 H 0.58897 0.98795 0.2727 0.0
H1562 H 0.57991 0.00267 0.29866 0.0
H1563 H 0.59027 0.01776 0.28596 0.0
H1564 H 0.53996 0.98501 0.25888 0.0
H1565 H 0.56591 0.0386 0.2591 0.0
H1566 H 0.51283 0.97897 0.22589 0.0
H1567 H 0.50337 0.97638 0.24489 0.0
H1568 H 0.51758 0.96881 0.24153 0.0
H1569 H 0.55441 0.05353 0.24705 0.0
H1570 H 0.53239 0.04218 0.24242 0.0
H1571 H 0.54705 0.04471 0.22749 0.0
H1572 H 0.58846 0.02285 0.14826 0.0
H1573 H 0.56064 0.00802 0.13987 0.0
H1574 H 0.57385 0.05948 0.14275 0.0
H1575 H 0.52852 0.99188 0.16536 0.0
H1576 H 0.53421 0.98623 0.14687 0.0
H1577 H 0.51759 0.99102 0.14746 0.0
H1578 H 0.55611 0.06825 0.15365 0.0
H1579 H 0.5432 0.05503 0.16923 0.0
H1580 H 0.53438 0.05348 0.14991 0.0
H1581 H 0.44198 0.02811 0.1204 0.0
H1582 H 0.41653 0.02227 0.1357 0.0
H1583 H 0.43049 0.01873 0.14768 0.0
H1584 H 0.41214 0.00118 0.13908 0.0
H1585 H 0.44784 0.98306 0.12791 0.0
H1586 H 0.46037 0.03332 0.13983 0.0
H1587 H 0.4725 0.97911 0.15729 0.0
H1588 H 0.48482 0.98571 0.13982 0.0
H1589 H 0.46285 0.97086 0.13812 0.0
H1590 H 0.48404 0.0515 0.15487 0.0
H1591 H 0.50067 0.04673 0.15504 0.0
H1592 H 0.48644 0.0404 0.17113 0.0
H1593 H 0.50014 0.00356 0.24917 0.0
H1594 H 0.54371 0.01815 0.21161 0.0
H1595 H 0.54638 0.02283 0.18369 0.0
H1596 H 0.50997 0.02034 0.14156 0.0
H1597 H 0.46621 0.00532 0.17914 0.0
H1598 H 0.46371 0.00111 0.20722 0.0
H1599 H 0.61925 0.04036 0.14808 0.0
H1600 H 0.60897 0.05027 0.15747 0.0
H1601 H 0.61736 0.05651 0.13802 0.0
C1602 C 0.55576 0.96106 0.74705 0.0
C1603 C 0.55842 0.97808 0.74201 0.0
C1604 C 0.55125 0.99072 0.76415 0.0
C1605 C 0.55745 0.00508 0.77377 0.0
C1606 C 0.54681 0.00829 0.783 0.0
C1607 C 0.52959 0.9965 0.78301 0.0
C1608 C 0.52329 0.98168 0.77367 0.0
C1609 C 0.53413 0.97903 0.76421 0.0
C1610 C 0.55394 0.02441 0.79252 0.0
C1611 C 0.50502 0.96874 0.77341 0.0
C1612 C 0.47941 0.03321 0.71813 0.0
C1613 C 0.46548 0.02081 0.72869 0.0
C1614 C 0.47296 0.02285 0.75656 0.0
C1615 C 0.46609 0.00595 0.76018 0.0
C1616 C 0.47303 0.00101 0.7723 0.0
C1617 C 0.48714 0.01326 0.78089 0.0
C1618 C 0.4933 0.03038 0.778 0.0
C1619 C 0.48597 0.03498 0.76594 0.0
C1620 C 0.46575 0.98266 0.77545 0.0
C1621 C 0.50816 0.04376 0.78711 0.0
C1622 C 0.4483 0.00079 0.882 0.0
C1623 C 0.44428 0.98578 0.87395 0.0
C1624 C 0.45646 0.98411 0.8657 0.0
C1625 C 0.47294 0.99772 0.86541 0.0
C1626 C 0.47704 0.01281 0.8735 0.0
C1627 C 0.46464 0.01411 0.88172 0.0
C1628 C 0.45174 0.9678 0.85728 0.0
C1629 C 0.49449 0.02755 0.87343 0.0
C1630 C 0.57022 0.9704 0.88129 0.0
C1631 C 0.56419 0.97743 0.89456 0.0
C1632 C 0.53773 0.97472 0.88563 0.0
C1633 C 0.52253 0.96251 0.87905 0.0
C1634 C 0.51254 0.96688 0.87007 0.0
C1635 C 0.51784 0.98393 0.86782 0.0
C1636 C 0.53292 0.99638 0.87493 0.0
C1637 C 0.54267 0.99166 0.88384 0.0
C1638 C 0.49643 0.9533 0.86282 0.0
C1639 C 0.53872 0.01468 0.87307 0.0
C1640 C 0.51796 0.99994 0.79209 0.0
C1641 C 0.50872 0.0055 0.78368 0.0
C1642 C 0.49679 0.00809 0.7911 0.0
C1643 C 0.49405 0.00527 0.80751 0.0
C1644 C 0.48209 0.00765 0.81536 0.0
C1645 C 0.4794 0.00467 0.83151 0.0
C1646 C 0.48862 0.99923 0.8404 0.0
C1647 C 0.48593 0.99607 0.85679 0.0
C1648 C 0.49556 0.99103 0.86533 0.0
C1649 C 0.50773 0.9888 0.85792 0.0
C1650 C 0.51031 0.99147 0.84147 0.0
C1651 C 0.5221 0.98884 0.83355 0.0
C1652 C 0.52451 0.99144 0.81736 0.0
C1653 C 0.51548 0.99709 0.80852 0.0
C1654 C 0.50349 0.99981 0.81625 0.0
C1655 C 0.50082 0.99685 0.83272 0.0
C1656 C 0.41084 0.99217 0.87631 0.0
C1657 C 0.42004 0.99209 0.89142 0.0
O1658 O 0.56216 0.98866 0.7551 0.0
O1659 O 0.54696 0.96965 0.89393 0.0
O1660 O 0.43697 0.00308 0.89011 0.0
O1661 O 0.46755 0.02771 0.74382 0.0
H1662 H 0.5468 0.97607 0.73605 0.0
H1663 H 0.54482 0.95474 0.7548 0.0
H1664 H 0.56675 0.96245 0.75373 0.0
H1665 H 0.55349 0.95288 0.73645 0.0
H1666 H 0.57067 0.014 0.7737 0.0
H1667 H 0.5291 0.96778 0.75696 0.0
H1668 H 0.54692 0.03092 0.78984 0.0
H1669 H 0.5673 0.03295 0.79006 0.0
H1670 H 0.55265 0.02167 0.80535 0.0
H1671 H 0.50259 0.95671 0.76795 0.0
H1672 H 0.49811 0.97345 0.76642 0.0
H1673 H 0.50002 0.96639 0.78561 0.0
H1674 H 0.46668 0.00941 0.72884 0.0
H1675 H 0.47772 0.02804 0.70586 0.0
H1676 H 0.49161 0.03555 0.72283 0.0
H1677 H 0.47964 0.04532 0.71784 0.0
H1678 H 0.45555 0.99661 0.75328 0.0
H1679 H 0.49096 0.04802 0.76321 0.0
H1680 H 0.46394 0.9804 0.78836 0.0
H1681 H 0.47455 0.9786 0.77147 0.0
H1682 H 0.45365 0.97488 0.76915 0.0
H1683 H 0.51055 0.05649 0.78443 0.0
H1684 H 0.51936 0.04298 0.78406 0.0
H1685 H 0.50623 0.04175 0.80004 0.0
H1686 H 0.41776 0.97926 0.89343 0.0
H1687 H 0.43172 0.97532 0.874 0.0
H1688 H 0.46765 0.02562 0.88795 0.0
H1689 H 0.45394 0.96991 0.84439 0.0
H1690 H 0.4385 0.95823 0.85899 0.0
H1691 H 0.45971 0.96287 0.86168 0.0
H1692 H 0.49553 0.03862 0.87982 0.0
H1693 H 0.49854 0.03099 0.86103 0.0
H1694 H 0.50315 0.0241 0.87911 0.0
H1695 H 0.57001 0.99103 0.89259 0.0
H1696 H 0.58397 0.97613 0.88199 0.0
H1697 H 0.56685 0.97332 0.86959 0.0
H1698 H 0.5644 0.95663 0.88206 0.0
H1699 H 0.51866 0.94948 0.88073 0.0
H1700 H 0.5539 0.00129 0.88959 0.0
H1701 H 0.4968 0.95444 0.84972 0.0
H1702 H 0.48594 0.95478 0.86704 0.0
H1703 H 0.49397 0.94061 0.86579 0.0
H1704 H 0.55069 0.02286 0.87943 0.0
H1705 H 0.52916 0.01743 0.87765 0.0
H1706 H 0.54031 0.01779 0.8603 0.0
H1707 H 0.51065 0.00756 0.77105 0.0
H1708 H 0.47465 0.01181 0.80908 0.0
H1709 H 0.47002 0.0067 0.83694 0.0
H1710 H 0.49355 0.9888 0.87793 0.0
H1711 H 0.52952 0.98462 0.83977 0.0
H1712 H 0.53364 0.98906 0.81187 0.0
H1713 H 0.39726 0.98344 0.87738 0.0
H1714 H 0.41524 0.98811 0.86589 0.0
H1715 H 0.413 0.00492 0.87414 0.0
C1716 C 0.0069 0.55826 0.72707 0.0
C1717 C 0.99827 0.56343 0.73944 0.0
C1718 C 0.00416 0.55338 0.76378 0.0
C1719 C 0.98839 0.54014 0.7675 0.0
C1720 C 0.98675 0.52719 0.77715 0.0
C1721 C 0.00119 0.52746 0.78306 0.0
C1722 C 0.0171 0.54107 0.77965 0.0
C1723 C 0.01834 0.55403 0.77027 0.0
C1724 C 0.96959 0.5131 0.78086 0.0
C1725 C 0.03279 0.54171 0.78557 0.0
C1726 C 0.98966 0.41022 0.73722 0.0
C1727 C 0.99735 0.42653 0.74584 0.0
C1728 C 0.98895 0.44454 0.75957 0.0
C1729 C 0.00486 0.45591 0.76573 0.0
C1730 C 0.0073 0.46916 0.77583 0.0
C1731 C 0.9935 0.47085 0.78013 0.0
C1732 C 0.97745 0.45928 0.77412 0.0
C1733 C 0.97544 0.44636 0.76379 0.0
C1734 C 0.02465 0.48146 0.78176 0.0
C1735 C 0.96245 0.46062 0.77853 0.0
C1736 C 0.01053 0.44802 0.87958 0.0
C1737 C 0.02348 0.46028 0.87059 0.0
C1738 C 0.02192 0.4731 0.8636 0.0
C1739 C 0.0069 0.47338 0.8651 0.0
C1740 C 0.99384 0.46109 0.87411 0.0
C1741 C 0.99594 0.4487 0.88141 0.0
C1742 C 0.03638 0.48636 0.85456 0.0
C1743 C 0.9776 0.46092 0.87583 0.0
C1744 C 0.0126 0.5885 0.8818 0.0
C1745 C 0.00867 0.57767 0.89647 0.0
C1746 C 0.01479 0.55593 0.88755 0.0
C1747 C 0.02825 0.55389 0.88356 0.0
C1748 C 0.02604 0.5403 0.87411 0.0
C1749 C 0.00985 0.52818 0.8689 0.0
C1750 C 0.99607 0.52979 0.87338 0.0
C1751 C 0.99868 0.54371 0.88252 0.0
C1752 C 0.04104 0.53899 0.86957 0.0
C1753 C 0.97856 0.51679 0.86851 0.0
C1754 C 0.99968 0.51303 0.79191 0.0
C1755 C 0.9971 0.49903 0.78308 0.0
C1756 C 0.99595 0.48507 0.79043 0.0
C1757 C 0.99751 0.48503 0.80711 0.0
C1758 C 0.99643 0.4712 0.8149 0.0
C1759 C 0.99866 0.47155 0.83125 0.0
C1760 C 0.0019 0.48568 0.84045 0.0
C1761 C 0.0049 0.48643 0.85698 0.0
C1762 C 0.00732 0.50035 0.86589 0.0
C1763 C 0.00729 0.51385 0.85868 0.0
C1764 C 0.00506 0.51364 0.84204 0.0
C1765 C 0.00563 0.52727 0.83428 0.0
C1766 C 0.00365 0.52703 0.81789 0.0
C1767 C 0.00118 0.51321 0.80862 0.0
C1768 C 0.00027 0.49921 0.81621 0.0
C1769 C 0.00231 0.49948 0.83293 0.0
C1770 C 0.01731 0.41864 0.8691 0.0
C1771 C 0.02283 0.43008 0.88385 0.0
O1772 O 0.00609 0.56578 0.75409 0.0
O1773 O 0.01791 0.56964 0.8964 0.0
O1774 O 0.01156 0.43547 0.88679 0.0
O1775 O 0.98612 0.43175 0.74951 0.0
H1776 H 0.98502 0.55342 0.74001 0.0
H1777 H 0.00605 0.54629 0.73042 0.0
H1778 H 0.02025 0.56794 0.72625 0.0
H1779 H 0.00082 0.55642 0.71524 0.0
H1780 H 0.97735 0.53995 0.76301 0.0
H1781 H 0.03043 0.56446 0.76747 0.0
H1782 H 0.96736 0.5016 0.77442 0.0
H1783 H 0.9597 0.51588 0.77731 0.0
H1784 H 0.96861 0.5105 0.79374 0.0
H1785 H 0.04417 0.5525 0.78084 0.0
H1786 H 0.03267 0.53003 0.78212 0.0
H1787 H 0.03341 0.54269 0.79871 0.0
H1788 H 0.00919 0.43649 0.7408 0.0
H1789 H 0.99586 0.41308 0.72533 0.0
H1790 H 0.97734 0.4079 0.7323 0.0
H1791 H 0.99167 0.3939 0.75361 0.0
H1792 H 0.01546 0.45466 0.76256 0.0
H1793 H 0.96322 0.43752 0.75901 0.0
H1794 H 0.02537 0.4805 0.79481 0.0
H1795 H 0.02762 0.49441 0.77925 0.0
H1796 H 0.03422 0.47925 0.77626 0.0
H1797 H 0.95063 0.4496 0.77434 0.0
H1798 H 0.96342 0.47196 0.77318 0.0
H1799 H 0.96202 0.46195 0.79159 0.0
H1800 H 0.0354 0.44088 0.88188 0.0
H1801 H 0.03495 0.46019 0.86901 0.0
H1802 H 0.98602 0.43926 0.88837 0.0
H1803 H 0.03331 0.48465 0.84169 0.0
H1804 H 0.04795 0.48583 0.85646 0.0
H1805 H 0.03881 0.49898 0.85817 0.0
H1806 H 0.96823 0.44983 0.88227 0.0
H1807 H 0.97244 0.46103 0.86394 0.0
H1808 H 0.9798 0.47235 0.88239 0.0
H1809 H 0.99518 0.56845 0.89625 0.0
H1810 H 0.00546 0.59519 0.88192 0.0
H1811 H 0.00904 0.58052 0.8709 0.0
H1812 H 0.0261 0.59779 0.88141 0.0
H1813 H 0.04061 0.56325 0.88762 0.0
H1814 H 0.98798 0.54466 0.88586 0.0
H1815 H 0.04118 0.53736 0.85651 0.0
H1816 H 0.0403 0.52783 0.87508 0.0
H1817 H 0.05289 0.55017 0.87343 0.0
H1818 H 0.96907 0.51885 0.87442 0.0
H1819 H 0.97622 0.50412 0.8714 0.0
H1820 H 0.97697 0.5171 0.85549 0.0
H1821 H 0.99609 0.49904 0.77026 0.0
H1822 H 0.99404 0.46001 0.80841 0.0
H1823 H 0.99785 0.4606 0.83658 0.0
H1824 H 0.00953 0.5008 0.87859 0.0
H1825 H 0.00772 0.53835 0.84078 0.0
H1826 H 0.00422 0.53788 0.81256 0.0
H1827 H 0.00466 0.40774 0.87067 0.0
H1828 H 0.02615 0.41411 0.86678 0.0
H1829 H 0.01703 0.42561 0.8586 0.0
C1830 C 0.54084 0.55248 0.72166 0.0
C1831 C 0.54936 0.56738 0.73337 0.0
C1832 C 0.53536 0.5539 0.75804 0.0
C1833 C 0.52302 0.55844 0.75838 0.0
C1834 C 0.50926 0.55026 0.76832 0.0
C1835 C 0.50764 0.53706 0.77785 0.0
C1836 C 0.52019 0.53262 0.77764 0.0
C1837 C 0.53406 0.5414 0.76799 0.0
C1838 C 0.49633 0.55558 0.76846 0.0
C1839 C 0.51876 0.51832 0.78722 0.0
C1840 C 0.40985 0.46505 0.71479 0.0
C1841 C 0.41339 0.45718 0.72903 0.0
C1842 C 0.4233 0.47324 0.75388 0.0
C1843 C 0.43492 0.46865 0.7587 0.0
C1844 C 0.44758 0.47855 0.76974 0.0
C1845 C 0.44866 0.49336 0.77596 0.0
C1846 C 0.4366 0.49768 0.7715 0.0
C1847 C 0.42388 0.48736 0.7607 0.0
C1848 C 0.45998 0.47335 0.77453 0.0
C1849 C 0.43745 0.51347 0.77771 0.0
C1850 C 0.41636 0.47455 0.87779 0.0
C1851 C 0.42792 0.4697 0.87343 0.0
C1852 C 0.44257 0.48074 0.86562 0.0
C1853 C 0.4457 0.49696 0.86206 0.0
C1854 C 0.43438 0.50208 0.86696 0.0
C1855 C 0.41991 0.49083 0.87492 0.0
C1856 C 0.45465 0.47505 0.86106 0.0
C1857 C 0.43742 0.51934 0.86352 0.0
C1858 C 0.56314 0.60008 0.88303 0.0
C1859 C 0.55376 0.58857 0.89673 0.0
C1860 C 0.53287 0.56264 0.88278 0.0
C1861 C 0.52911 0.54646 0.87859 0.0
C1862 C 0.51511 0.53598 0.86917 0.0
C1863 C 0.50453 0.54186 0.86385 0.0
C1864 C 0.50814 0.55819 0.86812 0.0
C1865 C 0.52232 0.56847 0.87753 0.0
C1866 C 0.51165 0.51863 0.86486 0.0
C1867 C 0.49703 0.56477 0.86269 0.0
C1868 C 0.49222 0.52701 0.78697 0.0
C1869 C 0.47803 0.51545 0.77846 0.0
C1870 C 0.46315 0.50501 0.78608 0.0
C1871 C 0.46236 0.50588 0.80277 0.0
C1872 C 0.44773 0.49526 0.81087 0.0
C1873 C 0.4471 0.49619 0.82731 0.0
C1874 C 0.46112 0.50768 0.8363 0.0
C1875 C 0.46072 0.50846 0.85305 0.0
C1876 C 0.47492 0.51998 0.8616 0.0
C1877 C 0.48964 0.5308 0.8539 0.0
C1878 C 0.49028 0.53027 0.83717 0.0
C1879 C 0.50486 0.54102 0.82904 0.0
C1880 C 0.50547 0.54016 0.81258 0.0
C1881 C 0.49158 0.52839 0.80364 0.0
C1882 C 0.47663 0.51765 0.81157 0.0
C1883 C 0.47599 0.51859 0.82835 0.0
C1884 C 0.37453 0.44192 0.87781 0.0
C1885 C 0.3925 0.44681 0.882 0.0
O1886 O 0.54876 0.56132 0.74847 0.0
O1887 O 0.54678 0.57201 0.89182 0.0
O1888 O 0.40174 0.46391 0.88475 0.0
O1889 O 0.41133 0.46429 0.74279 0.0
H1890 H 0.54283 0.57464 0.73292 0.0
H1891 H 0.52813 0.54351 0.72572 0.0
H1892 H 0.54805 0.54588 0.72082 0.0
H1893 H 0.5395 0.55653 0.7097 0.0
H1894 H 0.5241 0.56846 0.75113 0.0
H1895 H 0.54374 0.53811 0.76774 0.0
H1896 H 0.48493 0.54598 0.76212 0.0
H1897 H 0.50072 0.56772 0.76258 0.0
H1898 H 0.49288 0.55663 0.78082 0.0
H1899 H 0.52844 0.5151 0.78413 0.0
H1900 H 0.50632 0.50706 0.78532 0.0
H1901 H 0.52012 0.52173 0.80002 0.0
H1902 H 0.42647 0.45991 0.72803 0.0
H1903 H 0.41179 0.45994 0.70352 0.0
H1904 H 0.41845 0.47877 0.71513 0.0
H1905 H 0.39685 0.46259 0.71501 0.0
H1906 H 0.43408 0.45735 0.75386 0.0
H1907 H 0.41466 0.49061 0.75705 0.0
H1908 H 0.4616 0.4741 0.78763 0.0
H1909 H 0.47225 0.48204 0.76939 0.0
H1910 H 0.45615 0.46046 0.77036 0.0
H1911 H 0.42766 0.51551 0.77237 0.0
H1912 H 0.44982 0.52441 0.7752 0.0
H1913 H 0.43598 0.51285 0.79076 0.0
H1914 H 0.39707 0.44316 0.87135 0.0
H1915 H 0.42558 0.45733 0.87618 0.0
H1916 H 0.41105 0.49455 0.87855 0.0
H1917 H 0.45528 0.47455 0.84794 0.0
H1918 H 0.45102 0.46252 0.86569 0.0
H1919 H 0.46731 0.48415 0.86562 0.0
H1920 H 0.42717 0.52124 0.86769 0.0
H1921 H 0.43884 0.52148 0.85057 0.0
H1922 H 0.44921 0.52882 0.8694 0.0
H1923 H 0.54385 0.59107 0.90084 0.0
H1924 H 0.56874 0.61337 0.88689 0.0
H1925 H 0.55454 0.59786 0.87291 0.0
H1926 H 0.57316 0.59778 0.8789 0.0
H1927 H 0.53731 0.54207 0.88271 0.0
H1928 H 0.52501 0.58096 0.88067 0.0
H1929 H 0.51105 0.51698 0.85176 0.0
H1930 H 0.49937 0.50926 0.8695 0.0
H1931 H 0.52128 0.51607 0.86968 0.0
H1932 H 0.5014 0.57768 0.86714 0.0
H1933 H 0.48417 0.55649 0.86684 0.0
H1934 H 0.4965 0.56464 0.84953 0.0
H1935 H 0.47858 0.51451 0.76567 0.0
H1936 H 0.4366 0.48607 0.80458 0.0
H1937 H 0.43548 0.4877 0.83289 0.0
H1938 H 0.47459 0.52033 0.87445 0.0
H1939 H 0.51599 0.55022 0.83531 0.0
H1940 H 0.51701 0.54876 0.80695 0.0
H1941 H 0.36912 0.44629 0.88711 0.0
H1942 H 0.36672 0.42815 0.8763 0.0
H1943 H 0.37423 0.44774 0.86648 0.0
C1944 C 0.68632 0.77511 0.57965 0.0
C1945 C 0.67727 0.77785 0.59351 0.0
C1946 C 0.65679 0.78371 0.5809 0.0
C1947 C 0.63983 0.77771 0.57832 0.0
C1948 C 0.63423 0.78716 0.57019 0.0
C1949 C 0.64595 0.80293 0.56429 0.0
C1950 C 0.66314 0.8091 0.56678 0.0
C1951 C 0.66839 0.79949 0.57511 0.0
C1952 C 0.6158 0.7803 0.5679 0.0
C1953 C 0.67598 0.82585 0.56059 0.0
C1954 C 0.60616 0.8851 0.59782 0.0
C1955 C 0.62194 0.88596 0.60464 0.0
C1956 C 0.63248 0.87436 0.58434 0.0
C1957 C 0.64618 0.87818 0.57492 0.0
C1958 C 0.64713 0.86573 0.56609 0.0
C1959 C 0.63376 0.84908 0.56638 0.0
C1960 C 0.61979 0.8451 0.57583 0.0
C1961 C 0.61934 0.85775 0.58483 0.0
C1962 C 0.6624 0.8704 0.55642 0.0
C1963 C 0.60526 0.8275 0.57631 0.0
C1964 C 0.60664 0.86102 0.46849 0.0
C1965 C 0.62324 0.86462 0.46874 0.0
C1966 C 0.62757 0.85354 0.47556 0.0
C1967 C 0.61503 0.8385 0.48206 0.0
C1968 C 0.59821 0.83443 0.48101 0.0
C1969 C 0.59424 0.84575 0.47417 0.0
C1970 C 0.64559 0.85805 0.47617 0.0
C1971 C 0.5845 0.81834 0.48754 0.0
C1972 C 0.61792 0.72772 0.46865 0.0
C1973 C 0.6145 0.7353 0.45406 0.0
C1974 C 0.62475 0.76449 0.46255 0.0
C1975 C 0.63804 0.78082 0.4616 0.0
C1976 C 0.63833 0.79395 0.4704 0.0
C1977 C 0.6248 0.79065 0.48024 0.0
C1978 C 0.61112 0.77421 0.48105 0.0
C1979 C 0.61131 0.76127 0.47236 0.0
C1980 C 0.65315 0.81131 0.46929 0.0
C1981 C 0.5963 0.77029 0.49116 0.0
C1982 C 0.6403 0.8131 0.55562 0.0
C1983 C 0.63911 0.82551 0.56413 0.0
C1984 C 0.63433 0.83588 0.55666 0.0
C1985 C 0.63046 0.83376 0.54025 0.0
C1986 C 0.62543 0.84385 0.5324 0.0
C1987 C 0.62197 0.8419 0.51619 0.0
C1988 C 0.62315 0.82961 0.50724 0.0
C1989 C 0.61962 0.82752 0.49075 0.0
C1990 C 0.62042 0.81486 0.48229 0.0
C1991 C 0.62496 0.80432 0.4898 0.0
C1992 C 0.62905 0.80656 0.50618 0.0
C1993 C 0.63422 0.79657 0.51401 0.0
C1994 C 0.63796 0.7987 0.53018 0.0
C1995 C 0.63664 0.8109 0.53916 0.0
C1996 C 0.63167 0.82125 0.53147 0.0
C1997 C 0.62795 0.81914 0.51495 0.0
C1998 C 0.60261 0.89734 0.46846 0.0
C1999 C 0.61201 0.88902 0.46182 0.0
O2000 O 0.66133 0.77387 0.58888 0.0
O2001 O 0.62549 0.75237 0.45388 0.0
O2002 O 0.60204 0.87185 0.46295 0.0
O2003 O 0.63244 0.88711 0.59254 0.0
H2004 H 0.68448 0.7912 0.59738 0.0
H2005 H 0.68801 0.78365 0.56985 0.0
H2006 H 0.67914 0.7621 0.57489 0.0
H2007 H 0.69883 0.77765 0.5836 0.0
H2008 H 0.63095 0.76557 0.5828 0.0
H2009 H 0.68158 0.80444 0.57691 0.0
H2010 H 0.61235 0.78943 0.57255 0.0
H2011 H 0.60826 0.76824 0.57394 0.0
H2012 H 0.61259 0.77839 0.55505 0.0
H2013 H 0.68889 0.82845 0.56265 0.0
H2014 H 0.6746 0.83587 0.56653 0.0
H2015 H 0.67395 0.8264 0.54768 0.0
H2016 H 0.61823 0.87448 0.61153 0.0
H2017 H 0.59811 0.88491 0.60758 0.0
H2018 H 0.59894 0.87358 0.59048 0.0
H2019 H 0.60929 0.89596 0.59022 0.0
H2020 H 0.65625 0.89101 0.57461 0.0
H2021 H 0.60858 0.85453 0.59199 0.0
H2022 H 0.65908 0.8691 0.54362 0.0
H2023 H 0.66723 0.86183 0.55891 0.0
H2024 H 0.67246 0.88344 0.5589 0.0
H2025 H 0.5948 0.82664 0.58333 0.0
H2026 H 0.60937 0.81922 0.58162 0.0
H2027 H 0.60068 0.82274 0.56407 0.0
H2028 H 0.62346 0.89371 0.46931 0.0
H2029 H 0.63286 0.87606 0.46369 0.0
H2030 H 0.58143 0.84294 0.47364 0.0
H2031 H 0.64982 0.85931 0.48871 0.0
H2032 H 0.6538 0.86991 0.47008 0.0
H2033 H 0.64697 0.8479 0.47054 0.0
H2034 H 0.57197 0.81662 0.48507 0.0
H2035 H 0.58624 0.81826 0.50057 0.0
H2036 H 0.58511 0.80758 0.48234 0.0
H2037 H 0.6015 0.73281 0.45433 0.0
H2038 H 0.60922 0.71403 0.46876 0.0
H2039 H 0.61611 0.73326 0.47968 0.0
H2040 H 0.63091 0.73014 0.46864 0.0
H2041 H 0.64834 0.78322 0.45401 0.0
H2042 H 0.6009 0.74875 0.47338 0.0
H2043 H 0.65814 0.81644 0.48135 0.0
H2044 H 0.64922 0.81963 0.46378 0.0
H2045 H 0.66325 0.81156 0.46213 0.0
H2046 H 0.58582 0.75739 0.48898 0.0
H2047 H 0.59188 0.77922 0.48882 0.0
H2048 H 0.6 0.77166 0.50387 0.0
H2049 H 0.6421 0.82725 0.57672 0.0
H2050 H 0.62419 0.85344 0.53868 0.0
H2051 H 0.61827 0.85011 0.5108 0.0
H2052 H 0.6174 0.81315 0.46971 0.0
H2053 H 0.63545 0.78698 0.50771 0.0
H2054 H 0.64186 0.79064 0.53555 0.0
H2055 H 0.61034 0.91115 0.46776 0.0
H2056 H 0.59967 0.89407 0.4811 0.0
H2057 H 0.59075 0.89308 0.46178 0.0
C2058 C 0.12773 0.76699 0.62663 0.0
C2059 C 0.11506 0.76317 0.61323 0.0
C2060 C 0.13092 0.76991 0.58899 0.0
C2061 C 0.12799 0.782 0.58232 0.0
C2062 C 0.13939 0.79374 0.57187 0.0
C2063 C 0.15407 0.79341 0.56814 0.0
C2064 C 0.15675 0.78085 0.57446 0.0
C2065 C 0.14495 0.76905 0.58463 0.0
C2066 C 0.13594 0.80672 0.56506 0.0
C2067 C 0.17232 0.78022 0.5709 0.0
C2068 C 0.20419 0.89171 0.61852 0.0
C2069 C 0.21945 0.88984 0.61571 0.0
C2070 C 0.21658 0.87914 0.58906 0.0
C2071 C 0.22088 0.86667 0.58922 0.0
C2072 C 0.21298 0.85279 0.57885 0.0
C2073 C 0.20033 0.85133 0.56834 0.0
C2074 C 0.19629 0.8642 0.56794 0.0
C2075 C 0.20472 0.87813 0.57817 0.0
C2076 C 0.21779 0.83947 0.57943 0.0
C2077 C 0.18262 0.86292 0.55719 0.0
C2078 C 0.23637 0.87121 0.46733 0.0
C2079 C 0.24029 0.86057 0.47574 0.0
C2080 C 0.228 0.84689 0.48391 0.0
C2081 C 0.2115 0.84393 0.48392 0.0
C2082 C 0.20748 0.8545 0.47534 0.0
C2083 C 0.21996 0.86793 0.46705 0.0
C2084 C 0.23265 0.83564 0.49262 0.0
C2085 C 0.19002 0.85171 0.47505 0.0
C2086 C 0.10666 0.71678 0.46668 0.0
C2087 C 0.11238 0.73407 0.45988 0.0
C2088 C 0.14039 0.75714 0.4665 0.0
C2089 C 0.15622 0.75992 0.47046 0.0
C2090 C 0.16772 0.77437 0.47897 0.0
C2091 C 0.16334 0.78649 0.48326 0.0
C2092 C 0.14763 0.78413 0.47861 0.0
C2093 C 0.1363 0.76946 0.47036 0.0
C2094 C 0.18443 0.77656 0.48359 0.0
C2095 C 0.14273 0.79706 0.48246 0.0
C2096 C 0.16721 0.80705 0.55878 0.0
C2097 C 0.17771 0.82208 0.56679 0.0
C2098 C 0.19027 0.83568 0.55893 0.0
C2099 C 0.19262 0.83429 0.54256 0.0
C2100 C 0.20526 0.84765 0.53432 0.0
C2101 C 0.2072 0.84628 0.51812 0.0
C2102 C 0.1967 0.83142 0.50959 0.0
C2103 C 0.19851 0.82994 0.4931 0.0
C2104 C 0.18768 0.81507 0.48495 0.0
C2105 C 0.17502 0.80152 0.49282 0.0
C2106 C 0.17317 0.80267 0.50935 0.0
C2107 C 0.16069 0.78921 0.51768 0.0
C2108 C 0.15868 0.7906 0.53386 0.0
C2109 C 0.16919 0.80545 0.54236 0.0
C2110 C 0.18197 0.81913 0.53424 0.0
C2111 C 0.18399 0.81772 0.51772 0.0
C2112 C 0.2745 0.90481 0.44904 0.0
C2113 C 0.265 0.89099 0.46012 0.0
O2114 O 0.12034 0.75885 0.59954 0.0
O2115 O 0.12958 0.74262 0.45879 0.0
O2116 O 0.24796 0.88468 0.4594 0.0
O2117 O 0.22339 0.89192 0.59978 0.0
H2118 H 0.1141 0.77454 0.61136 0.0
H2119 H 0.14004 0.77756 0.62334 0.0
H2120 H 0.12909 0.75593 0.62892 0.0
H2121 H 0.12378 0.77059 0.63769 0.0
H2122 H 0.11677 0.78223 0.58524 0.0
H2123 H 0.14693 0.75948 0.5897 0.0
H2124 H 0.14478 0.81913 0.57039 0.0
H2125 H 0.12307 0.80397 0.56741 0.0
H2126 H 0.13788 0.80749 0.55206 0.0
H2127 H 0.17279 0.76998 0.57718 0.0
H2128 H 0.18346 0.79227 0.57442 0.0
H2129 H 0.173 0.77838 0.55796 0.0
H2130 H 0.21637 0.87708 0.61934 0.0
H2131 H 0.20091 0.89013 0.63126 0.0
H2132 H 0.19337 0.882 0.61158 0.0
H2133 H 0.20663 0.9042 0.61479 0.0
H2134 H 0.23025 0.86773 0.59763 0.0
H2135 H 0.20158 0.88795 0.57821 0.0
H2136 H 0.20764 0.82814 0.5849 0.0
H2137 H 0.22941 0.8436 0.58646 0.0
H2138 H 0.21952 0.83595 0.56725 0.0
H2139 H 0.18028 0.87347 0.55908 0.0
H2140 H 0.1709 0.85104 0.55923 0.0
H2141 H 0.18602 0.8628 0.54463 0.0
H2142 H 0.27011 0.89317 0.47248 0.0
H2143 H 0.25291 0.86284 0.47594 0.0
H2144 H 0.21702 0.87612 0.46048 0.0
H2145 H 0.23155 0.83701 0.50558 0.0
H2146 H 0.24556 0.83858 0.49015 0.0
H2147 H 0.22395 0.82238 0.48924 0.0
H2148 H 0.18914 0.86167 0.46869 0.0
H2149 H 0.18563 0.85118 0.48736 0.0
H2150 H 0.18151 0.83952 0.46912 0.0
H2151 H 0.10814 0.74023 0.46859 0.0
H2152 H 0.09287 0.70905 0.46625 0.0
H2153 H 0.11086 0.71816 0.47925 0.0
H2154 H 0.11211 0.71022 0.46012 0.0
H2155 H 0.1594 0.7505 0.46722 0.0
H2156 H 0.12437 0.76782 0.46687 0.0
H2157 H 0.18642 0.77863 0.49661 0.0
H2158 H 0.19442 0.78777 0.47782 0.0
H2159 H 0.1856 0.76557 0.48009 0.0
H2160 H 0.13097 0.79433 0.47636 0.0
H2161 H 0.15274 0.80964 0.47902 0.0
H2162 H 0.14105 0.79744 0.49544 0.0
H2163 H 0.17598 0.82326 0.57935 0.0
H2164 H 0.21373 0.85936 0.54029 0.0
H2165 H 0.21704 0.85705 0.51238 0.0
H2166 H 0.18898 0.81411 0.47227 0.0
H2167 H 0.15227 0.77744 0.51177 0.0
H2168 H 0.14878 0.7799 0.53963 0.0
H2169 H 0.28481 0.89469 0.43277 0.0
H2170 H 0.28246 0.91603 0.4569 0.0
H2171 H 0.2659 0.90948 0.44521 0.0
C2172 C 0.12931 0.36505 0.62437 0.0
C2173 C 0.1161 0.35896 0.61104 0.0
C2174 C 0.13158 0.35457 0.58964 0.0
C2175 C 0.14269 0.37149 0.58664 0.0
C2176 C 0.15629 0.37618 0.57664 0.0
C2177 C 0.15879 0.36371 0.56947 0.0
C2178 C 0.14731 0.34667 0.57203 0.0
C2179 C 0.13379 0.34235 0.582 0.0
C2180 C 0.16821 0.39445 0.57398 0.0
C2181 C 0.14958 0.33304 0.56457 0.0
C2182 C 0.26104 0.39799 0.63063 0.0
C2183 C 0.25481 0.38419 0.61788 0.0
C2184 C 0.2442 0.38711 0.59234 0.0
C2185 C 0.23206 0.37043 0.58922 0.0
C2186 C 0.21893 0.36643 0.57845 0.0
C2187 C 0.21786 0.37943 0.57086 0.0
C2188 C 0.23036 0.39625 0.57375 0.0
C2189 C 0.24359 0.39982 0.58422 0.0
C2190 C 0.20607 0.34835 0.5754 0.0
C2191 C 0.22951 0.4105 0.56619 0.0
C2192 C 0.24698 0.38388 0.46818 0.0
C2193 C 0.23539 0.36813 0.47392 0.0
C2194 C 0.22123 0.36575 0.48199 0.0
C2195 C 0.21869 0.37944 0.48457 0.0
C2196 C 0.23011 0.39523 0.47847 0.0
C2197 C 0.244 0.39717 0.47016 0.0
C2198 C 0.20899 0.34857 0.48778 0.0
C2199 C 0.22775 0.41009 0.48091 0.0
C2200 C 0.09927 0.36381 0.47479 0.0
C2201 C 0.11113 0.37306 0.4613 0.0
C2202 C 0.13418 0.36783 0.46627 0.0
C2203 C 0.13693 0.35433 0.4671 0.0
C2204 C 0.1504 0.35551 0.47586 0.0
C2205 C 0.16164 0.37075 0.48364 0.0
C2206 C 0.15933 0.38469 0.48233 0.0
C2207 C 0.14558 0.38307 0.47374 0.0
C2208 C 0.15252 0.34041 0.47697 0.0
C2209 C 0.17141 0.40132 0.49 0.0
C2210 C 0.17402 0.36845 0.56024 0.0
C2211 C 0.18838 0.37176 0.56867 0.0
C2212 C 0.20305 0.37553 0.56089 0.0
C2213 C 0.20342 0.37585 0.54413 0.0
C2214 C 0.21775 0.37899 0.53586 0.0
C2215 C 0.21805 0.37949 0.51938 0.0
C2216 C 0.204 0.37681 0.51053 0.0
C2217 C 0.20415 0.37721 0.49376 0.0
C2218 C 0.19014 0.37506 0.48538 0.0
C2219 C 0.17577 0.37217 0.49325 0.0
C2220 C 0.17517 0.37108 0.50997 0.0
C2221 C 0.16069 0.36753 0.51824 0.0
C2222 C 0.16026 0.36662 0.53469 0.0
C2223 C 0.17431 0.36931 0.54352 0.0
C2224 C 0.18905 0.37293 0.53544 0.0
C2225 C 0.1894 0.3736 0.51863 0.0
C2226 C 0.28741 0.39226 0.46994 0.0
C2227 C 0.27029 0.37909 0.46335 0.0
O2228 O 0.11878 0.34941 0.59991 0.0
O2229 O 0.12067 0.36573 0.45791 0.0
O2230 O 0.2609 0.38665 0.46041 0.0
O2231 O 0.25662 0.39133 0.60315 0.0
H2232 H 0.11657 0.36988 0.60518 0.0
H2233 H 0.14189 0.37339 0.6197 0.0
H2234 H 0.12932 0.3543 0.63006 0.0
H2235 H 0.12678 0.37223 0.63351 0.0
H2236 H 0.14098 0.38112 0.59219 0.0
H2237 H 0.12507 0.32933 0.58425 0.0
H2238 H 0.18051 0.398 0.57936 0.0
H2239 H 0.16378 0.40258 0.57924 0.0
H2240 H 0.17002 0.39682 0.56108 0.0
H2241 H 0.13957 0.32037 0.5678 0.0
H2242 H 0.16174 0.33458 0.56839 0.0
H2243 H 0.14971 0.33401 0.55147 0.0
H2244 H 0.24143 0.37538 0.62026 0.0
H2245 H 0.25942 0.39263 0.64263 0.0
H2246 H 0.2538 0.40456 0.62992 0.0
H2247 H 0.2744 0.40724 0.62896 0.0
H2248 H 0.23286 0.36055 0.59518 0.0
H2249 H 0.25317 0.41264 0.58662 0.0
H2250 H 0.20346 0.34581 0.56249 0.0
H2251 H 0.19428 0.3456 0.58116 0.0
H2252 H 0.21007 0.33976 0.58016 0.0
H2253 H 0.23922 0.42286 0.571 0.0
H2254 H 0.21711 0.40922 0.56808 0.0
H2255 H 0.23122 0.41019 0.55321 0.0
H2256 H 0.2648 0.36975 0.47287 0.0
H2257 H 0.23717 0.35758 0.47199 0.0
H2258 H 0.25285 0.40922 0.46547 0.0
H2259 H 0.20946 0.3486 0.50093 0.0
H2260 H 0.21168 0.33887 0.4832 0.0
H2261 H 0.19613 0.34511 0.48412 0.0
H2262 H 0.23837 0.42178 0.47643 0.0
H2263 H 0.22623 0.41185 0.49371 0.0
H2264 H 0.21622 0.40779 0.47463 0.0
H2265 H 0.11915 0.3863 0.46507 0.0
H2266 H 0.09143 0.36946 0.47747 0.0
H2267 H 0.1065 0.36473 0.48568 0.0
H2268 H 0.09108 0.3504 0.47156 0.0
H2269 H 0.12822 0.34269 0.46113 0.0
H2270 H 0.1441 0.39387 0.47269 0.0
H2271 H 0.15333 0.33764 0.48961 0.0
H2272 H 0.16433 0.34308 0.47132 0.0
H2273 H 0.14211 0.32918 0.47109 0.0
H2274 H 0.16883 0.41136 0.48656 0.0
H2275 H 0.18434 0.40504 0.48667 0.0
H2276 H 0.17066 0.40023 0.50309 0.0
H2277 H 0.18813 0.37134 0.58152 0.0
H2278 H 0.22891 0.38109 0.54206 0.0
H2279 H 0.22947 0.38207 0.51367 0.0
H2280 H 0.19042 0.37562 0.47254 0.0
H2281 H 0.1495 0.36536 0.51207 0.0
H2282 H 0.1488 0.36387 0.54043 0.0
H2283 H 0.29325 0.40334 0.46225 0.0
H2284 H 0.29573 0.38692 0.47109 0.0
H2285 H 0.28599 0.39656 0.48188 0.0
H2286 H 0.974 0.35843 0.05103 0.0
H2287 H 0.00609 0.40119 0.0228 0.0
H2288 H 0.00813 0.42009 0.04468 0.0
H2289 H 0.95336 0.37884 0.07416 0.0
H2290 H 0.95357 0.36845 0.09201 0.0
H2291 H 0.95126 0.3584 0.07294 0.0
H2292 H 0.97661 0.35492 0.07959 0.0
H2293 H 0.97915 0.36511 0.09852 0.0
H2294 H 0.99623 0.3731 0.08496 0.0
H2295 H 0.01168 0.43387 0.07082 0.0
H2296 H 0.01537 0.44178 0.0991 0.0
H2297 H 0.98052 0.39044 0.11095 0.0
C2298 C 0.98076 0.37177 0.04923 0.0
C2299 C 0.98969 0.3784 0.03519 0.0
C2300 C 0.99902 0.39591 0.03343 0.0
C2301 C 0.00023 0.40673 0.04579 0.0
C2302 C 0.99197 0.39985 0.05981 0.0
C2303 C 0.98222 0.38277 0.06156 0.0
C2304 C 0.97653 0.37858 0.07853 0.0
C2305 C 0.95755 0.3706 0.07946 0.0
C2306 C 0.98249 0.36727 0.08582 0.0
C2307 C 0.9853 0.39587 0.08616 0.0
C2308 C 0.99393 0.40797 0.0751 0.0
C2309 C 0.00455 0.4246 0.07954 0.0
C2310 C 0.00659 0.42898 0.0957 0.0
C2311 C 0.99793 0.41677 0.10729 0.0
C2312 C 0.98692 0.40009 0.10233 0.0
H2313 H 0.61225 0.6102 0.05443 0.0
H2314 H 0.66111 0.61481 0.05441 0.0
H2315 H 0.65317 0.59572 0.07697 0.0
H2316 H 0.60814 0.60964 0.09682 0.0
H2317 H 0.58617 0.59473 0.09628 0.0
H2318 H 0.59559 0.6085 0.07993 0.0
H2319 H 0.58421 0.58299 0.06062 0.0
H2320 H 0.5748 0.56913 0.07692 0.0
H2321 H 0.58904 0.56672 0.06427 0.0
H2322 H 0.63999 0.57617 0.09941 0.0
H2323 H 0.62259 0.5579 0.12076 0.0
H2324 H 0.5826 0.56663 0.1067 0.0
C2325 C 0.62126 0.60715 0.05916 0.0
C2326 C 0.63727 0.61392 0.05266 0.0
C2327 C 0.64876 0.60975 0.05922 0.0
C2328 C 0.64437 0.59891 0.07201 0.0
C2329 C 0.62847 0.59243 0.07814 0.0
C2330 C 0.61711 0.59645 0.072 0.0
C2331 C 0.60096 0.58801 0.08098 0.0
C2332 C 0.59752 0.601 0.08898 0.0
C2333 C 0.58639 0.576 0.07004 0.0
C2334 C 0.60501 0.5786 0.0931 0.0
C2335 C 0.62091 0.58127 0.0912 0.0
C2336 C 0.62748 0.57392 0.10097 0.0
C2337 C 0.61751 0.56354 0.11301 0.0
C2338 C 0.60114 0.56054 0.11516 0.0
C2339 C 0.59493 0.56838 0.10515 0.0
H2340 H 0.38198 0.02564 0.04982 0.0
H2341 H 0.35995 0.97247 0.04023 0.0
H2342 H 0.37614 0.97043 0.06253 0.0
H2343 H 0.42304 0.03311 0.06015 0.0
H2344 H 0.42652 0.04829 0.07552 0.0
H2345 H 0.41317 0.04559 0.0588 0.0
H2346 H 0.38925 0.04006 0.07785 0.0
H2347 H 0.40252 0.04274 0.09462 0.0
H2348 H 0.38276 0.02379 0.09219 0.0
H2349 H 0.39372 0.9739 0.0865 0.0
H2350 H 0.41284 0.98297 0.10968 0.0
H2351 H 0.4244 0.03408 0.10307 0.0
C2352 C 0.3806 0.01359 0.05241 0.0
C2353 C 0.3697 0.9992 0.04333 0.0
C2354 C 0.36826 0.98365 0.04703 0.0
C2355 C 0.37737 0.98236 0.05968 0.0
C2356 C 0.38796 0.99675 0.06844 0.0
C2357 C 0.38972 0.0121 0.06492 0.0
C2358 C 0.40206 0.02565 0.07614 0.0
C2359 C 0.41709 0.03894 0.06711 0.0
C2360 C 0.39364 0.03352 0.08577 0.0
C2361 C 0.4069 0.0155 0.08654 0.0
C2362 C 0.39855 0.99885 0.08195 0.0
C2363 C 0.40054 0.98695 0.09007 0.0
C2364 C 0.41147 0.99223 0.10317 0.0
C2365 C 0.42051 0.00933 0.10785 0.0
C2366 C 0.41798 0.02102 0.09949 0.0
H2367 H 0.35856 0.97785 0.96338 0.0
H2368 H 0.38563 0.03157 0.97127 0.0
H2369 H 0.40397 0.03466 0.94904 0.0
H2370 H 0.3944 0.97419 0.95377 0.0
H2371 H 0.38362 0.9581 0.93881 0.0
H2372 H 0.37234 0.96002 0.95521 0.0
H2373 H 0.35212 0.96251 0.93561 0.0
H2374 H 0.36331 0.96056 0.91915 0.0
H2375 H 0.36036 0.97835 0.92073 0.0
H2376 H 0.41887 0.03212 0.92559 0.0
H2377 H 0.4302 0.02392 0.90305 0.0
H2378 H 0.39434 0.97181 0.91086 0.0
C2379 C 0.36832 0.99025 0.96039 0.0
C2380 C 0.37066 0.00448 0.96901 0.0
C2381 C 0.38364 0.02049 0.96483 0.0
C2382 C 0.39411 0.02239 0.95221 0.0
C2383 C 0.39152 0.00814 0.94395 0.0
C2384 C 0.37902 0.99237 0.94789 0.0
C2385 C 0.37912 0.97912 0.93721 0.0
C2386 C 0.38258 0.96715 0.94683 0.0
C2387 C 0.36275 0.96957 0.92761 0.0
C2388 C 0.39358 0.98993 0.92664 0.0
C2389 C 0.40049 0.00663 0.9307 0.0
C2390 C 0.41371 0.01906 0.92242 0.0
C2391 C 0.42011 0.01428 0.90968 0.0
C2392 C 0.41347 0.99719 0.90551 0.0
C2393 C 0.3999 0.98492 0.91404 0.0
H2394 H 0.98992 0.36889 0.95771 0.0
H2395 H 0.04119 0.38282 0.96789 0.0
H2396 H 0.05005 0.4004 0.94412 0.0
H2397 H 0.99222 0.36723 0.91469 0.0
H2398 H 0.97871 0.37571 0.91156 0.0
H2399 H 0.97641 0.36362 0.92888 0.0
H2400 H 0.97976 0.38811 0.94681 0.0
H2401 H 0.98215 0.40031 0.92956 0.0
H2402 H 0.99795 0.40846 0.94497 0.0
H2403 H 0.05335 0.41714 0.91981 0.0
H2404 H 0.05094 0.43195 0.8967 0.0
H2405 H 0.99749 0.40714 0.90255 0.0
C2406 C 0.00301 0.37551 0.95487 0.0
C2407 C 0.01489 0.37449 0.96461 0.0
C2408 C 0.03189 0.38341 0.96055 0.0
C2409 C 0.03703 0.39341 0.94708 0.0
C2410 C 0.02499 0.39428 0.93783 0.0
C2411 C 0.00833 0.38553 0.94151 0.0
C2412 C 0.99794 0.38895 0.92988 0.0
C2413 C 0.98559 0.37292 0.92071 0.0
C2414 C 0.98893 0.39694 0.93832 0.0
C2415 C 0.0114 0.40122 0.9192 0.0
C2416 C 0.0269 0.40405 0.92393 0.0
C2417 C 0.04129 0.41504 0.91601 0.0
C2418 C 0.0398 0.42343 0.90295 0.0
C2419 C 0.02408 0.42094 0.89805 0.0
C2420 C 0.00969 0.40948 0.90619 0.0
H2421 H 0.60926 0.63859 0.97336 0.0
H2422 H 0.62622 0.6026 0.97443 0.0
H2423 H 0.60873 0.5881 0.95091 0.0
H2424 H 0.56672 0.60896 0.96189 0.0
H2425 H 0.56448 0.62327 0.94925 0.0
H2426 H 0.57856 0.6311 0.96607 0.0
H2427 H 0.60269 0.65011 0.94766 0.0
H2428 H 0.58869 0.64233 0.93078 0.0
H2429 H 0.60737 0.64096 0.93089 0.0
H2430 H 0.59055 0.57824 0.92673 0.0
H2431 H 0.57105 0.57224 0.90439 0.0
H2432 H 0.56427 0.61343 0.91961 0.0
C2433 C 0.60926 0.62766 0.96862 0.0
C2434 C 0.61912 0.62173 0.97568 0.0
C2435 C 0.61874 0.60733 0.96922 0.0
C2436 C 0.60889 0.59903 0.95584 0.0
C2437 C 0.59935 0.60518 0.94913 0.0
C2438 C 0.59931 0.61907 0.95534 0.0
C2439 C 0.58761 0.62283 0.94597 0.0
C2440 C 0.57351 0.62145 0.95642 0.0
C2441 C 0.59716 0.64008 0.93837 0.0
C2442 C 0.58115 0.60891 0.93353 0.0
C2443 C 0.58821 0.59899 0.93551 0.0
C2444 C 0.58471 0.58573 0.92519 0.0
C2445 C 0.57354 0.58238 0.91256 0.0
C2446 C 0.56568 0.59204 0.91054 0.0
C2447 C 0.56976 0.6056 0.92111 0.0
H2448 H 0.98629 0.61814 0.96937 0.0
H2449 H 0.03897 0.64811 0.98071 0.0
H2450 H 0.04515 0.63432 0.95849 0.0
H2451 H 0.98601 0.58027 0.95847 0.0
H2452 H 0.97093 0.57504 0.94268 0.0
H2453 H 0.97088 0.58699 0.95969 0.0
H2454 H 0.97337 0.61031 0.94128 0.0
H2455 H 0.97342 0.59845 0.92422 0.0
H2456 H 0.99022 0.61953 0.92748 0.0
H2457 H 0.04527 0.61738 0.93432 0.0
H2458 H 0.03934 0.59906 0.91053 0.0
H2459 H 0.98661 0.5808 0.91556 0.0
C2460 C 0.99915 0.62177 0.96727 0.0
C2461 C 0.01217 0.63415 0.97677 0.0
C2462 C 0.02881 0.63861 0.97357 0.0
C2463 C 0.03242 0.63084 0.96099 0.0
C2464 C 0.01923 0.61869 0.9518 0.0
C2465 C 0.00294 0.61422 0.95483 0.0
C2466 C 0.99098 0.60114 0.9431 0.0
C2467 C 0.979 0.5849 0.95149 0.0
C2468 C 0.98144 0.60776 0.93345 0.0
C2469 C 0.00305 0.59892 0.9329 0.0
C2470 C 0.0193 0.60908 0.93808 0.0
C2471 C 0.03258 0.60929 0.93025 0.0
C2472 C 0.02911 0.59885 0.91681 0.0
C2473 C 0.0125 0.58832 0.9114 0.0
C2474 C 0.9994 0.5885 0.91957 0.0
H2475 H 0.36772 0.40658 0.96809 0.0
H2476 H 0.39346 0.37959 0.95653 0.0
H2477 H 0.40284 0.39483 0.93155 0.0
H2478 H 0.35301 0.40638 0.92954 0.0
H2479 H 0.35585 0.4271 0.93086 0.0
H2480 H 0.35222 0.41513 0.94852 0.0
H2481 H 0.37939 0.43899 0.96125 0.0
H2482 H 0.38308 0.45109 0.94364 0.0
H2483 H 0.39872 0.44666 0.95094 0.0
H2484 H 0.40722 0.41083 0.9068 0.0
H2485 H 0.40705 0.42738 0.88419 0.0
H2486 H 0.37991 0.44532 0.91213 0.0
C2487 C 0.37555 0.40409 0.96041 0.0
C2488 C 0.37988 0.39192 0.96426 0.0
C2489 C 0.39002 0.38889 0.95385 0.0
C2490 C 0.39543 0.39749 0.93962 0.0
C2491 C 0.39075 0.40921 0.93604 0.0
C2492 C 0.38117 0.41266 0.94617 0.0
C2493 C 0.37736 0.42539 0.93913 0.0
C2494 C 0.3585 0.41805 0.93688 0.0
C2495 C 0.3851 0.44149 0.94935 0.0
C2496 C 0.38595 0.42822 0.92333 0.0
C2497 C 0.39362 0.41878 0.92182 0.0
C2498 C 0.40145 0.41846 0.90791 0.0
C2499 C 0.40129 0.42789 0.89513 0.0
C2500 C 0.39338 0.43755 0.89633 0.0
C2501 C 0.38597 0.43799 0.9108 0.0
H2502 H 0.61836 0.0058 0.97475 0.0
H2503 H 0.59945 0.95351 0.98453 0.0
H2504 H 0.58116 0.94557 0.96063 0.0
H2505 H 0.58016 0.00216 0.95864 0.0
H2506 H 0.59094 0.01744 0.94368 0.0
H2507 H 0.60121 0.01878 0.96229 0.0
H2508 H 0.62536 0.01858 0.94727 0.0
H2509 H 0.61516 0.01719 0.92864 0.0
H2510 H 0.62082 0.00175 0.93344 0.0
H2511 H 0.56559 0.94359 0.93506 0.0
H2512 H 0.55519 0.94769 0.90936 0.0
H2513 H 0.58576 0.00134 0.91598 0.0
C2514 C 0.61013 0.99266 0.97205 0.0
C2515 C 0.6101 0.98023 0.98157 0.0
C2516 C 0.59952 0.96319 0.97742 0.0
C2517 C 0.5891 0.95859 0.96391 0.0
C2518 C 0.58958 0.9712 0.95464 0.0
C2519 C 0.59991 0.98789 0.95852 0.0
C2520 C 0.59907 0.99907 0.94608 0.0
C2521 C 0.59244 0.01 0.9531 0.0
C2522 C 0.61611 0.00977 0.93841 0.0
C2523 C 0.58668 0.98609 0.93452 0.0
C2524 C 0.5812 0.97008 0.93972 0.0
C2525 C 0.56981 0.95607 0.93089 0.0
C2526 C 0.564 0.9585 0.91632 0.0
C2527 C 0.56977 0.97482 0.91064 0.0
C2528 C 0.58115 0.98872 0.91999 0.0
H2529 H 0.634 0.02891 0.05563 0.0
H2530 H 0.60946 0.97516 0.06079 0.0
H2531 H 0.59613 0.9774 0.08509 0.0
H2532 H 0.64261 0.03956 0.09646 0.0
H2533 H 0.63862 0.05671 0.09598 0.0
H2534 H 0.64561 0.05091 0.07843 0.0
H2535 H 0.6199 0.04735 0.06275 0.0
H2536 H 0.61284 0.05318 0.08026 0.0
H2537 H 0.59935 0.03364 0.07007 0.0
H2538 H 0.58698 0.98546 0.10971 0.0
H2539 H 0.58219 0.99894 0.13294 0.0
H2540 H 0.61134 0.04731 0.11139 0.0
C2541 C 0.6257 0.01762 0.06181 0.0
C2542 C 0.62277 0.00186 0.05632 0.0
C2543 C 0.61188 0.98737 0.06475 0.0
C2544 C 0.60422 0.9885 0.07857 0.0
C2545 C 0.60745 0.0042 0.08375 0.0
C2546 C 0.61782 0.0185 0.07561 0.0
C2547 C 0.61948 0.03386 0.08402 0.0
C2548 C 0.63766 0.04597 0.08902 0.0
C2549 C 0.61247 0.04252 0.07366 0.0
C2550 C 0.60869 0.02595 0.0983 0.0
C2551 C 0.60186 0.00883 0.09788 0.0
C2552 C 0.59213 0.99885 0.11012 0.0
C2553 C 0.58949 0.00661 0.12326 0.0
C2554 C 0.59653 0.02417 0.12407 0.0
C2555 C 0.60592 0.03388 0.11121 0.0
H2556 H 0.00696 0.62921 0.05707 0.0
H2557 H 0.95646 0.60743 0.03866 0.0
H2558 H 0.94692 0.58566 0.05906 0.0
H2559 H 0.00567 0.59083 0.06683 0.0
H2560 H 0.018 0.59936 0.08472 0.0
H2561 H 0.02079 0.61279 0.06837 0.0
H2562 H 0.01519 0.63199 0.08684 0.0
H2563 H 0.01241 0.61866 0.10325 0.0
H2564 H 0.99625 0.62315 0.09796 0.0
H2565 H 0.94309 0.56619 0.08159 0.0
H2566 H 0.94505 0.55158 0.10519 0.0
H2567 H 0.99793 0.58702 0.10909 0.0
C2568 C 0.9939 0.61981 0.05726 0.0
C2569 C 0.98244 0.61992 0.04625 0.0
C2570 C 0.96543 0.60753 0.047 0.0
C2571 C 0.95992 0.59511 0.0585 0.0
C2572 C 0.97158 0.59537 0.0692 0.0
C2573 C 0.98819 0.60748 0.06872 0.0
C2574 C 0.99814 0.60538 0.08184 0.0
C2575 C 0.01143 0.60188 0.07503 0.0
C2576 C 0.00595 0.62071 0.09314 0.0
C2577 C 0.98454 0.5902 0.08982 0.0
C2578 C 0.96932 0.5845 0.08231 0.0
C2579 C 0.95494 0.57058 0.08758 0.0
C2580 C 0.95616 0.56237 0.10096 0.0
C2581 C 0.97161 0.56821 0.10898 0.0
C2582 C 0.98595 0.58226 0.10322 0.0
H2583 H 0.37866 0.36582 0.05839 0.0
H2584 H 0.41745 0.38501 0.02324 0.0
H2585 H 0.43865 0.39253 0.04451 0.0
H2586 H 0.4018 0.3972 0.08894 0.0
H2587 H 0.39329 0.3826 0.10485 0.0
H2588 H 0.38128 0.37917 0.0869 0.0
H2589 H 0.37802 0.34979 0.08342 0.0
H2590 H 0.38996 0.35311 0.10137 0.0
H2591 H 0.39632 0.34775 0.08313 0.0
H2592 H 0.45537 0.39632 0.06954 0.0
H2593 H 0.46637 0.39675 0.09639 0.0
H2594 H 0.41673 0.37623 0.1152 0.0
C2595 C 0.39162 0.37168 0.05517 0.0
C2596 C 0.39644 0.37482 0.03918 0.0
C2597 C 0.41351 0.3825 0.03543 0.0
C2598 C 0.42562 0.38683 0.04742 0.0
C2599 C 0.42045 0.3835 0.06308 0.0
C2600 C 0.40386 0.37617 0.06697 0.0
C2601 C 0.40151 0.37362 0.08465 0.0
C2602 C 0.39403 0.38376 0.09175 0.0
C2603 C 0.39082 0.35496 0.08835 0.0
C2604 C 0.41936 0.38055 0.0901 0.0
C2605 C 0.43011 0.38615 0.0775 0.0
C2606 C 0.44711 0.39223 0.07954 0.0
C2607 C 0.45325 0.39249 0.09485 0.0
C2608 C 0.44244 0.38693 0.10796 0.0
C2609 C 0.42531 0.38095 0.10546 0.0
H2610 H 0.66292 0.71703 0.38537 0.0
H2611 H 0.61511 0.67576 0.36973 0.0
H2612 H 0.60125 0.68313 0.39057 0.0
H2613 H 0.65474 0.71246 0.42681 0.0
H2614 H 0.66572 0.73456 0.43125 0.0
H2615 H 0.67184 0.72648 0.41469 0.0
H2616 H 0.66816 0.74638 0.39593 0.0
H2617 H 0.66201 0.75452 0.41244 0.0
H2618 H 0.64855 0.74597 0.39523 0.0
H2619 H 0.59267 0.69443 0.41345 0.0
H2620 H 0.58992 0.70893 0.43706 0.0
H2621 H 0.6433 0.74263 0.43808 0.0
C2622 C 0.64952 0.70963 0.38626 0.0
C2623 C 0.64007 0.69586 0.37592 0.0
C2624 C 0.62259 0.68638 0.37753 0.0
C2625 C 0.6146 0.69048 0.38931 0.0
C2626 C 0.62428 0.70407 0.39937 0.0
C2627 C 0.64136 0.71351 0.398 0.0
C2628 C 0.64888 0.72722 0.41062 0.0
C2629 C 0.66101 0.72504 0.42148 0.0
C2630 C 0.6574 0.74455 0.4031 0.0
C2631 C 0.63338 0.72395 0.41935 0.0
C2632 C 0.61932 0.71059 0.41262 0.0
C2633 C 0.60356 0.70501 0.41874 0.0
C2634 C 0.60211 0.71333 0.4321 0.0
C2635 C 0.61633 0.72712 0.43915 0.0
C2636 C 0.63217 0.73236 0.43272 0.0
H2637 H 0.27889 0.93321 0.38136 0.0
H2638 H 0.32857 0.96623 0.40005 0.0
H2639 H 0.32299 0.94768 0.42272 0.0
H2640 H 0.25693 0.92113 0.41794 0.0
H2641 H 0.24286 0.90023 0.41065 0.0
H2642 H 0.25185 0.9173 0.39708 0.0
H2643 H 0.26333 0.90184 0.38042 0.0
H2644 H 0.25454 0.88468 0.39386 0.0
H2645 H 0.27647 0.89516 0.38976 0.0
H2646 H 0.31621 0.92388 0.44546 0.0
H2647 H 0.29889 0.89446 0.46476 0.0
H2648 H 0.24797 0.87487 0.42714 0.0
C2649 C 0.28847 0.93648 0.39035 0.0
C2650 C 0.30412 0.95111 0.38906 0.0
C2651 C 0.31649 0.95507 0.40085 0.0
C2652 C 0.31343 0.94463 0.41377 0.0
C2653 C 0.29795 0.93024 0.41478 0.0
C2654 C 0.28535 0.9259 0.4032 0.0
C2655 C 0.26903 0.90923 0.40549 0.0
C2656 C 0.2543 0.91215 0.40793 0.0
C2657 C 0.26565 0.89702 0.39156 0.0
C2658 C 0.27264 0.90288 0.42031 0.0
C2659 C 0.29264 0.9177 0.4267 0.0
C2660 C 0.30344 0.9146 0.44273 0.0
C2661 C 0.29319 0.89591 0.45412 0.0
C2662 C 0.27037 0.88284 0.44973 0.0
C2663 C 0.26078 0.88361 0.43039 0.0
H2664 H 0.0544 0.33333 0.38289 0.0
H2665 H 0.05205 0.37888 0.37965 0.0
H2666 H 0.06978 0.39011 0.40373 0.0
H2667 H 0.05274 0.33099 0.4255 0.0
H2668 H 0.067 0.32317 0.42695 0.0
H2669 H 0.05417 0.31874 0.40942 0.0
H2670 H 0.08047 0.33156 0.39208 0.0
H2671 H 0.09338 0.33608 0.40956 0.0
H2672 H 0.09699 0.35259 0.39626 0.0
H2673 H 0.08767 0.39637 0.4281 0.0
H2674 H 0.10445 0.39719 0.45132 0.0
H2675 H 0.09505 0.34753 0.43887 0.0
C2676 C 0.05761 0.34567 0.38726 0.0
C2677 C 0.05187 0.35526 0.37941 0.0
C2678 C 0.05632 0.37133 0.38549 0.0
C2679 C 0.06639 0.37781 0.39914 0.0
C2680 C 0.07187 0.36806 0.40658 0.0
C2681 C 0.06763 0.35232 0.4009 0.0
C2682 C 0.07511 0.34439 0.41119 0.0
C2683 C 0.06144 0.32838 0.41871 0.0
C2684 C 0.08721 0.34096 0.40171 0.0
C2685 C 0.08426 0.35815 0.42352 0.0
C2686 C 0.08224 0.37169 0.42063 0.0
C2687 C 0.08942 0.38588 0.43044 0.0
C2688 C 0.09896 0.38626 0.44356 0.0
C2689 C 0.10134 0.37259 0.44669 0.0
C2690 C 0.09371 0.35829 0.43659 0.0
H2691 H 0.03088 0.30148 0.29968 0.0
H2692 H 0.07239 0.35128 0.30891 0.0
H2693 H 0.0893 0.34615 0.28978 0.0
H2694 H 0.05336 0.28 0.29628 0.0
H2695 H 0.03957 0.26568 0.28117 0.0
H2696 H 0.03186 0.27468 0.29547 0.0
H2697 H 0.02155 0.2859 0.27292 0.0
H2698 H 0.02919 0.27706 0.25837 0.0
H2699 H 0.03592 0.29903 0.25818 0.0
H2700 H 0.10737 0.33808 0.26945 0.0
H2701 H 0.11603 0.32104 0.24552 0.0
H2702 H 0.05607 0.27113 0.24946 0.0
C2703 C 0.04354 0.31121 0.29757 0.0
C2704 C 0.05037 0.32676 0.3057 0.0
C2705 C 0.06693 0.33928 0.30279 0.0
C2706 C 0.07663 0.33649 0.29195 0.0
C2707 C 0.06967 0.32113 0.28406 0.0
C2708 C 0.05323 0.30832 0.28667 0.0
C2709 C 0.04727 0.29186 0.2771 0.0
C2710 C 0.04275 0.2772 0.28816 0.0
C2711 C 0.03262 0.28826 0.26599 0.0
C2712 C 0.06229 0.29555 0.2677 0.0
C2713 C 0.07757 0.31593 0.27258 0.0
C2714 C 0.09827 0.32567 0.2653 0.0
C2715 C 0.10403 0.31489 0.25112 0.0
C2716 C 0.08597 0.29523 0.24281 0.0
C2717 C 0.06602 0.28311 0.2537 0.0
H2718 H 0.66355 0.7182 0.30009 0.0
H2719 H 0.7109 0.72226 0.31245 0.0
H2720 H 0.72445 0.74285 0.29141 0.0
H2721 H 0.66904 0.72039 0.25834 0.0
H2722 H 0.65905 0.73254 0.2551 0.0
H2723 H 0.6532 0.71873 0.27164 0.0
H2724 H 0.65967 0.74339 0.29089 0.0
H2725 H 0.66554 0.75729 0.2744 0.0
H2726 H 0.67991 0.76192 0.29073 0.0
H2727 H 0.73265 0.76212 0.26851 0.0
H2728 H 0.73501 0.77901 0.2452 0.0
H2729 H 0.68232 0.76225 0.24751 0.0
C2730 C 0.67679 0.72354 0.29845 0.0
C2731 C 0.6862 0.71869 0.30792 0.0
C2732 C 0.70347 0.72583 0.30535 0.0
C2733 C 0.71128 0.73754 0.29344 0.0
C2734 C 0.70163 0.74197 0.28423 0.0
C2735 C 0.68478 0.73521 0.28659 0.0
C2736 C 0.67721 0.74178 0.27475 0.0
C2737 C 0.66384 0.72751 0.26434 0.0
C2738 C 0.67017 0.75168 0.2832 0.0
C2739 C 0.69241 0.75313 0.26527 0.0
C2740 C 0.70638 0.75313 0.271 0.0
C2741 C 0.72184 0.76238 0.26401 0.0
C2742 C 0.72307 0.77195 0.25083 0.0
C2743 C 0.70896 0.77226 0.24481 0.0
C2744 C 0.6934 0.76257 0.25208 0.0
H2745 H 0.28332 0.95188 0.30198 0.0
H2746 H 0.26067 0.97353 0.3316 0.0
H2747 H 0.23782 0.96455 0.31191 0.0
H2748 H 0.2745 0.96377 0.2652 0.0
H2749 H 0.27016 0.9449 0.25467 0.0
H2750 H 0.28417 0.95206 0.27153 0.0
H2751 H 0.26631 0.92357 0.28492 0.0
H2752 H 0.25224 0.91629 0.26807 0.0
H2753 H 0.24442 0.91575 0.28767 0.0
H2754 H 0.2185 0.95487 0.28834 0.0
H2755 H 0.20362 0.94464 0.26263 0.0
H2756 H 0.2385 0.92884 0.24846 0.0
C2757 C 0.27346 0.95457 0.3044 0.0
C2758 C 0.27374 0.96337 0.31832 0.0
C2759 C 0.26067 0.96676 0.32102 0.0
C2760 C 0.24764 0.9617 0.30992 0.0
C2761 C 0.24782 0.95319 0.29623 0.0
C2762 C 0.26033 0.94957 0.29346 0.0
C2763 C 0.25784 0.94073 0.27756 0.0
C2764 C 0.27254 0.95098 0.2666 0.0
C2765 C 0.25503 0.92303 0.27969 0.0
C2766 C 0.24214 0.94023 0.27171 0.0
C2767 C 0.23653 0.94742 0.2827 0.0
C2768 C 0.22264 0.94902 0.27972 0.0
C2769 C 0.21427 0.94316 0.26511 0.0
C2770 C 0.21976 0.93572 0.25366 0.0
C2771 C 0.23388 0.93423 0.25709 0.0
H2772 H 0.706 0.96621 0.31167 0.0
H2773 H 0.65545 0.94688 0.29411 0.0
H2774 H 0.66251 0.93799 0.26918 0.0
H2775 H 0.72611 0.98242 0.27564 0.0
H2776 H 0.7418 0.97658 0.27818 0.0
H2777 H 0.73264 0.98044 0.29528 0.0
H2778 H 0.72406 0.95105 0.30568 0.0
H2779 H 0.73326 0.94711 0.28862 0.0
H2780 H 0.71179 0.93294 0.29312 0.0
H2781 H 0.67541 0.9338 0.24529 0.0
H2782 H 0.69325 0.93314 0.22415 0.0
H2783 H 0.73509 0.9531 0.25729 0.0
C2784 C 0.69639 0.95989 0.30266 0.0
C2785 C 0.68018 0.95725 0.30484 0.0
C2786 C 0.66795 0.94902 0.29274 0.0
C2787 C 0.67182 0.94389 0.27851 0.0
C2788 C 0.68793 0.94688 0.27661 0.0
C2789 C 0.7 0.95449 0.28837 0.0
C2790 C 0.71647 0.95656 0.28297 0.0
C2791 C 0.73005 0.9751 0.28302 0.0
C2792 C 0.7217 0.9463 0.29321 0.0
C2793 C 0.71183 0.94939 0.26621 0.0
C2794 C 0.69529 0.94388 0.26283 0.0
C2795 C 0.68832 0.93781 0.24784 0.0
C2796 C 0.69855 0.93748 0.23591 0.0
C2797 C 0.71556 0.94306 0.23903 0.0
C2798 C 0.72215 0.94877 0.25452 0.0
H2799 H 0.03112 0.73384 0.30329 0.0
H2800 H 0.05896 0.70895 0.29198 0.0
H2801 H 0.06917 0.72543 0.26774 0.0
H2802 H 0.01833 0.73568 0.26431 0.0
H2803 H 0.02074 0.75618 0.26655 0.0
H2804 H 0.01631 0.74316 0.28355 0.0
H2805 H 0.04256 0.76651 0.29803 0.0
H2806 H 0.04704 0.77964 0.28107 0.0
H2807 H 0.06249 0.77508 0.28867 0.0
H2808 H 0.07438 0.74263 0.24366 0.0
H2809 H 0.0752 0.76043 0.22178 0.0
H2810 H 0.04577 0.77585 0.24938 0.0
C2811 C 0.0395 0.73201 0.29578 0.0
C2812 C 0.04424 0.72011 0.2995 0.0
C2813 C 0.05522 0.71804 0.2894 0.0
C2814 C 0.06109 0.72734 0.27559 0.0
C2815 C 0.05607 0.73885 0.27216 0.0
C2816 C 0.0457 0.74139 0.28204 0.0
C2817 C 0.042 0.75435 0.27539 0.0
C2818 C 0.02323 0.74689 0.27226 0.0
C2819 C 0.04894 0.76981 0.28645 0.0
C2820 C 0.05151 0.7583 0.26004 0.0
C2821 C 0.05955 0.74923 0.25844 0.0
C2822 C 0.06831 0.74997 0.24486 0.0
C2823 C 0.06871 0.76011 0.23249 0.0
C2824 C 0.06044 0.76942 0.23377 0.0
C2825 C 0.05209 0.76878 0.24794 0.0
H2826 H 0.28361 0.33707 0.30344 0.0
H2827 H 0.26802 0.2846 0.30784 0.0
H2828 H 0.25017 0.27802 0.28386 0.0
H2829 H 0.24398 0.33127 0.28961 0.0
H2830 H 0.25336 0.34839 0.27612 0.0
H2831 H 0.26438 0.3488 0.29393 0.0
H2832 H 0.28938 0.35289 0.27717 0.0
H2833 H 0.27844 0.35247 0.25931 0.0
H2834 H 0.28607 0.33811 0.26143 0.0
H2835 H 0.23508 0.27744 0.25862 0.0
H2836 H 0.22334 0.28286 0.23449 0.0
H2837 H 0.24868 0.33563 0.24698 0.0
C2838 C 0.27633 0.32418 0.29944 0.0
C2839 C 0.27715 0.31133 0.3075 0.0
C2840 C 0.26753 0.29463 0.30185 0.0
C2841 C 0.25737 0.29077 0.28825 0.0
C2842 C 0.25697 0.30376 0.2805 0.0
C2843 C 0.26615 0.32012 0.28592 0.0
C2844 C 0.26384 0.33183 0.27526 0.0
C2845 C 0.25591 0.34059 0.28427 0.0
C2846 C 0.28042 0.34457 0.26785 0.0
C2847 C 0.25197 0.31953 0.26294 0.0
C2848 C 0.24814 0.3034 0.26614 0.0
C2849 C 0.23781 0.28999 0.25611 0.0
C2850 C 0.23117 0.29317 0.24248 0.0
C2851 C 0.23475 0.3096 0.23913 0.0
C2852 C 0.24541 0.3229 0.24946 0.0
H2853 H 0.31004 0.36319 0.38513 0.0
H2854 H 0.26705 0.31321 0.38304 0.0
H2855 H 0.25504 0.32022 0.40579 0.0
H2856 H 0.31339 0.36722 0.42694 0.0
H2857 H 0.31931 0.38898 0.42769 0.0
H2858 H 0.32416 0.38048 0.41057 0.0
H2859 H 0.30866 0.39081 0.39244 0.0
H2860 H 0.30381 0.3994 0.40952 0.0
H2861 H 0.28735 0.38472 0.39646 0.0
H2862 H 0.24862 0.33178 0.42981 0.0
H2863 H 0.24789 0.34741 0.45333 0.0
H2864 H 0.29427 0.39047 0.43919 0.0
C2865 C 0.29802 0.3538 0.38936 0.0
C2866 C 0.28947 0.33765 0.38232 0.0
C2867 C 0.27381 0.32566 0.38824 0.0
C2868 C 0.26687 0.32953 0.40115 0.0
C2869 C 0.27567 0.34548 0.40794 0.0
C2870 C 0.29084 0.35748 0.40222 0.0
C2871 C 0.29791 0.3735 0.41205 0.0
C2872 C 0.31468 0.37779 0.41977 0.0
C2873 C 0.29952 0.38796 0.40202 0.0
C2874 C 0.28448 0.36848 0.42434 0.0
C2875 C 0.27179 0.35228 0.42172 0.0
C2876 C 0.25843 0.34454 0.43192 0.0
C2877 C 0.25812 0.35354 0.44527 0.0
C2878 C 0.27108 0.37012 0.44841 0.0
C2879 C 0.28422 0.37778 0.43746 0.0
H2880 H 0.66656 0.94954 0.39299 0.0
H2881 H 0.62295 0.92344 0.36233 0.0
H2882 H 0.60863 0.90269 0.38308 0.0
H2883 H 0.66279 0.91227 0.41303 0.0
H2884 H 0.66933 0.92305 0.43195 0.0
H2885 H 0.67704 0.93447 0.41391 0.0
H2886 H 0.66641 0.95442 0.42258 0.0
H2887 H 0.65865 0.94307 0.44059 0.0
H2888 H 0.64483 0.94584 0.4275 0.0
H2889 H 0.59807 0.88652 0.40785 0.0
H2890 H 0.59176 0.87638 0.43527 0.0
H2891 H 0.64188 0.91326 0.45019 0.0
C2892 C 0.65417 0.93919 0.39052 0.0
C2893 C 0.6459 0.93795 0.37602 0.0
C2894 C 0.62951 0.92454 0.37334 0.0
C2895 C 0.62131 0.91266 0.38503 0.0
C2896 C 0.62965 0.91442 0.39934 0.0
C2897 C 0.64572 0.92734 0.40215 0.0
C2898 C 0.65126 0.92727 0.41907 0.0
C2899 C 0.66598 0.92407 0.41951 0.0
C2900 C 0.65553 0.94362 0.42795 0.0
C2901 C 0.63567 0.91257 0.42543 0.0
C2902 C 0.62344 0.90519 0.41378 0.0
C2903 C 0.60763 0.892 0.417 0.0
C2904 C 0.60416 0.88631 0.43258 0.0
C2905 C 0.61645 0.89382 0.44474 0.0
C2906 C 0.63241 0.90705 0.44104 0.0
H2907 H 0.06617 0.69367 0.37666 0.0
H2908 H 0.05705 0.73517 0.37321 0.0
H2909 H 0.07444 0.74822 0.39716 0.0
H2910 H 0.06323 0.69052 0.41779 0.0
H2911 H 0.07939 0.68538 0.42056 0.0
H2912 H 0.06789 0.68014 0.4021 0.0
H2913 H 0.09533 0.69659 0.38675 0.0
H2914 H 0.10696 0.70176 0.40517 0.0
H2915 H 0.10957 0.71812 0.3921 0.0
H2916 H 0.08979 0.75504 0.42299 0.0
H2917 H 0.10319 0.75586 0.44851 0.0
H2918 H 0.10388 0.71082 0.43464 0.0
C2919 C 0.06816 0.70569 0.38075 0.0
C2920 C 0.06032 0.71345 0.37306 0.0
C2921 C 0.06297 0.72903 0.37891 0.0
C2922 C 0.07285 0.73656 0.39249 0.0
C2923 C 0.08007 0.72839 0.40003 0.0
C2924 C 0.07801 0.71339 0.39431 0.0
C2925 C 0.08627 0.70674 0.40524 0.0
C2926 C 0.07343 0.68969 0.41181 0.0
C2927 C 0.10037 0.70576 0.39681 0.0
C2928 C 0.093 0.72019 0.41814 0.0
C2929 C 0.08927 0.73254 0.41488 0.0
C2930 C 0.09303 0.74559 0.42557 0.0
C2931 C 0.10066 0.74594 0.44006 0.0
C2932 C 0.10452 0.73337 0.4438 0.0
C2933 C 0.101 0.72058 0.4324 0.0
H2934 H 0.30126 0.02905 0.71306 0.0
H2935 H 0.3505 0.04342 0.73146 0.0
H2936 H 0.345 0.05515 0.75559 0.0
H2937 H 0.30057 0.06523 0.72696 0.0
H2938 H 0.27884 0.05417 0.73188 0.0
H2939 H 0.28633 0.04626 0.71632 0.0
H2940 H 0.27423 0.01794 0.73045 0.0
H2941 H 0.26665 0.02574 0.74605 0.0
H2942 H 0.28011 0.01754 0.75079 0.0
H2943 H 0.33447 0.06577 0.77739 0.0
H2944 H 0.31956 0.07482 0.79549 0.0
H2945 H 0.27725 0.05379 0.76291 0.0
C2946 C 0.31082 0.03455 0.72223 0.0
C2947 C 0.32629 0.0353 0.72044 0.0
C2948 C 0.33855 0.04269 0.73262 0.0
C2949 C 0.33554 0.04938 0.74637 0.0
C2950 C 0.32022 0.04855 0.74773 0.0
C2951 C 0.30804 0.04131 0.73602 0.0
C2952 C 0.29278 0.04237 0.74031 0.0
C2953 C 0.28944 0.05262 0.72814 0.0
C2954 C 0.27754 0.02485 0.742 0.0
C2955 C 0.29836 0.05147 0.75618 0.0
C2956 C 0.31419 0.05485 0.76026 0.0
C2957 C 0.32207 0.06323 0.77433 0.0
C2958 C 0.31354 0.06835 0.78449 0.0
C2959 C 0.29737 0.06522 0.78047 0.0
C2960 C 0.28966 0.05651 0.76619 0.0
H2961 H 0.96381 0.28408 0.72985 0.0
H2962 H 0.97243 0.25299 0.69677 0.0
H2963 H 0.96497 0.23178 0.71743 0.0
H2964 H 0.97923 0.27431 0.76529 0.0
H2965 H 0.96341 0.27406 0.77772 0.0
H2966 H 0.97027 0.28711 0.76059 0.0
H2967 H 0.93986 0.2731 0.75004 0.0
H2968 H 0.93291 0.25999 0.76711 0.0
H2969 H 0.92805 0.25072 0.74746 0.0
H2970 H 0.9563 0.2139 0.74163 0.0
H2971 H 0.94609 0.20017 0.76731 0.0
H2972 H 0.94202 0.24247 0.78413 0.0
C2973 C 0.9643 0.27288 0.72701 0.0
C2974 C 0.9688 0.27018 0.71177 0.0
C2975 C 0.96904 0.25528 0.7084 0.0
C2976 C 0.96486 0.2432 0.72006 0.0
C2977 C 0.96034 0.24618 0.73494 0.0
C2978 C 0.95996 0.26062 0.73842 0.0
C2979 C 0.95398 0.26049 0.7551 0.0
C2980 C 0.96753 0.27484 0.76527 0.0
C2981 C 0.93774 0.26111 0.75491 0.0
C2982 C 0.95107 0.24371 0.76047 0.0
C2983 C 0.95491 0.2357 0.74871 0.0
C2984 C 0.95322 0.22004 0.75091 0.0
C2985 C 0.9474 0.21233 0.76551 0.0
C2986 C 0.9432 0.22023 0.77767 0.0
C2987 C 0.94512 0.23615 0.77505 0.0
H2988 H 0.72997 0.70143 0.70951 0.0
H2989 H 0.70892 0.64766 0.70769 0.0
H2990 H 0.72705 0.64975 0.73019 0.0
H2991 H 0.77227 0.71164 0.71925 0.0
H2992 H 0.77612 0.7289 0.73222 0.0
H2993 H 0.7617 0.7232 0.71575 0.0
H2994 H 0.73871 0.72011 0.73494 0.0
H2995 H 0.75303 0.72576 0.75146 0.0
H2996 H 0.73351 0.70638 0.75152 0.0
H2997 H 0.74612 0.65746 0.75382 0.0
H2998 H 0.76624 0.67047 0.77603 0.0
H2999 H 0.77584 0.71937 0.76184 0.0
C3000 C 0.72926 0.69012 0.71379 0.0
C3001 C 0.71805 0.67438 0.70689 0.0
C3002 C 0.71746 0.65985 0.7128 0.0
C3003 C 0.72768 0.6609 0.72558 0.0
C3004 C 0.73851 0.67659 0.73221 0.0
C3005 C 0.73948 0.69096 0.72645 0.0
C3006 C 0.75214 0.70626 0.73577 0.0
C3007 C 0.7664 0.7182 0.72511 0.0
C3008 C 0.74385 0.71514 0.7439 0.0
C3009 C 0.75801 0.69822 0.74775 0.0
C3010 C 0.74994 0.6811 0.74552 0.0
C3011 C 0.75276 0.67089 0.75552 0.0
C3012 C 0.76425 0.6784 0.76806 0.0
C3013 C 0.77301 0.696 0.77033 0.0
C3014 C 0.76966 0.70595 0.7601 0.0
H3015 H 0.69276 0.63655 0.62926 0.0
H3016 H 0.73161 0.68781 0.63796 0.0
H3017 H 0.75 0.68392 0.61981 0.0
H3018 H 0.71708 0.61778 0.6282 0.0
H3019 H 0.70486 0.60269 0.61288 0.0
H3020 H 0.69531 0.61102 0.62579 0.0
H3021 H 0.68539 0.62078 0.60171 0.0
H3022 H 0.69465 0.61232 0.58855 0.0
H3023 H 0.70025 0.63394 0.58731 0.0
H3024 H 0.77087 0.67649 0.60346 0.0
H3025 H 0.78331 0.65945 0.58353 0.0
H3026 H 0.72416 0.60771 0.58395 0.0
C3027 C 0.70509 0.64691 0.62709 0.0
C3028 C 0.7108 0.66245 0.63499 0.0
C3029 C 0.72696 0.6758 0.63202 0.0
C3030 C 0.73752 0.67373 0.62174 0.0
C3031 C 0.73179 0.6583 0.6143 0.0
C3032 C 0.71564 0.64479 0.61663 0.0
C3033 C 0.71121 0.62831 0.60771 0.0
C3034 C 0.70686 0.61412 0.61934 0.0
C3035 C 0.69704 0.62356 0.5956 0.0
C3036 C 0.72705 0.63272 0.59939 0.0
C3037 C 0.74108 0.65357 0.60409 0.0
C3038 C 0.76261 0.66386 0.59922 0.0
C3039 C 0.77066 0.6531 0.5877 0.0
C3040 C 0.75417 0.63264 0.57901 0.0
C3041 C 0.73309 0.62027 0.5879 0.0
H3042 H 0.36034 0.04561 0.62816 0.0
H3043 H 0.33451 0.06495 0.65628 0.0
H3044 H 0.33959 0.08563 0.63573 0.0
H3045 H 0.39199 0.08512 0.6135 0.0
H3046 H 0.39226 0.07685 0.59411 0.0
H3047 H 0.38663 0.0636 0.61107 0.0
H3048 H 0.35875 0.04256 0.59716 0.0
H3049 H 0.36427 0.05577 0.58018 0.0
H3050 H 0.34503 0.04969 0.59015 0.0
H3051 H 0.34785 0.10447 0.6124 0.0
H3052 H 0.35817 0.11982 0.58757 0.0
H3053 H 0.37825 0.08781 0.57459 0.0
C3054 C 0.35578 0.05422 0.63 0.0
C3055 C 0.34706 0.05371 0.64381 0.0
C3056 C 0.34124 0.06514 0.64578 0.0
C3057 C 0.34406 0.07693 0.63418 0.0
C3058 C 0.35268 0.07709 0.62068 0.0
C3059 C 0.35844 0.06604 0.61852 0.0
C3060 C 0.36728 0.06883 0.60289 0.0
C3061 C 0.38563 0.07391 0.60556 0.0
C3062 C 0.35829 0.05329 0.59195 0.0
C3063 C 0.36561 0.08318 0.59663 0.0
C3064 C 0.35716 0.08776 0.60708 0.0
C3065 C 0.35431 0.10087 0.60402 0.0
C3066 C 0.36017 0.10946 0.58984 0.0
C3067 C 0.36858 0.10482 0.57869 0.0
C3068 C 0.37152 0.0916 0.58241 0.0
H3069 H 0.95764 0.30438 0.62273 0.0
H3070 H 0.92204 0.26936 0.6557 0.0
H3071 H 0.9003 0.25862 0.63466 0.0
H3072 H 0.92913 0.31368 0.60212 0.0
H3073 H 0.93818 0.31494 0.58301 0.0
H3074 H 0.95086 0.32005 0.60074 0.0
H3075 H 0.95929 0.29818 0.59275 0.0
H3076 H 0.94666 0.29303 0.575 0.0
H3077 H 0.94333 0.27688 0.58867 0.0
H3078 H 0.88252 0.25164 0.61004 0.0
H3079 H 0.86992 0.24877 0.58344 0.0
H3080 H 0.91748 0.28785 0.56651 0.0
C3081 C 0.94525 0.29448 0.62553 0.0
C3082 C 0.94149 0.28772 0.64084 0.0
C3083 C 0.92517 0.27473 0.64404 0.0
C3084 C 0.91275 0.26856 0.63218 0.0
C3085 C 0.91687 0.27548 0.61719 0.0
C3086 C 0.93273 0.28813 0.61381 0.0
C3087 C 0.93394 0.29325 0.59669 0.0
C3088 C 0.93828 0.31156 0.59558 0.0
C3089 C 0.94655 0.29014 0.58775 0.0
C3090 C 0.91631 0.28144 0.59094 0.0
C3091 C 0.90665 0.27137 0.60297 0.0
C3092 C 0.88994 0.25953 0.60055 0.0
C3093 C 0.88289 0.25803 0.58543 0.0
C3094 C 0.89247 0.26832 0.57291 0.0
C3095 C 0.90954 0.27999 0.57574 0.0
H3096 H 0.36507 0.30799 0.64013 0.0
H3097 H 0.31374 0.26766 0.63947 0.0
H3098 H 0.31951 0.25458 0.61662 0.0
H3099 H 0.36913 0.31196 0.59914 0.0
H3100 H 0.3903 0.31623 0.59853 0.0
H3101 H 0.38286 0.32153 0.61604 0.0
H3102 H 0.39139 0.30383 0.63302 0.0
H3103 H 0.39899 0.29857 0.61555 0.0
H3104 H 0.38372 0.28225 0.62762 0.0
H3105 H 0.32972 0.24756 0.59223 0.0
H3106 H 0.34407 0.24659 0.56816 0.0
H3107 H 0.38925 0.29062 0.58504 0.0
C3108 C 0.35517 0.29621 0.63539 0.0
C3109 C 0.33897 0.28881 0.6416 0.0
C3110 C 0.32625 0.27355 0.63491 0.0
C3111 C 0.32941 0.26599 0.62195 0.0
C3112 C 0.34538 0.27378 0.61585 0.0
C3113 C 0.35811 0.28847 0.62241 0.0
C3114 C 0.37386 0.29476 0.61289 0.0
C3115 C 0.37935 0.31215 0.60626 0.0
C3116 C 0.38781 0.29485 0.62287 0.0
C3117 C 0.36781 0.28156 0.59976 0.0
C3118 C 0.35137 0.26956 0.60176 0.0
C3119 C 0.34268 0.25676 0.59063 0.0
C3120 C 0.35094 0.25633 0.57696 0.0
C3121 C 0.36773 0.26862 0.57446 0.0
C3122 C 0.37637 0.28112 0.58633 0.0
H3123 H 0.71901 0.0512 0.61987 0.0
H3124 H 0.70067 0.07962 0.64536 0.0
H3125 H 0.70949 0.09965 0.62347 0.0
H3126 H 0.75512 0.08662 0.60277 0.0
H3127 H 0.753 0.07576 0.58423 0.0
H3128 H 0.74606 0.06424 0.60229 0.0
H3129 H 0.71672 0.04572 0.58972 0.0
H3130 H 0.72355 0.05718 0.57165 0.0
H3131 H 0.7057 0.05544 0.58167 0.0
H3132 H 0.71893 0.11567 0.59813 0.0
H3133 H 0.72866 0.12669 0.57138 0.0
H3134 H 0.74086 0.0878 0.56261 0.0
C3135 C 0.71702 0.06174 0.62094 0.0
C3136 C 0.70922 0.06391 0.63433 0.0
C3137 C 0.70667 0.07776 0.63521 0.0
C3138 C 0.71165 0.0892 0.62285 0.0
C3139 C 0.71916 0.0866 0.60973 0.0
C3140 C 0.72187 0.07324 0.60871 0.0
C3141 C 0.72964 0.07292 0.59309 0.0
C3142 C 0.74698 0.07502 0.59576 0.0
C3143 C 0.71822 0.05687 0.58347 0.0
C3144 C 0.73074 0.08811 0.58541 0.0
C3145 C 0.72469 0.09587 0.59521 0.0
C3146 C 0.72391 0.10983 0.59044 0.0
C3147 C 0.72949 0.11602 0.57527 0.0
C3148 C 0.73587 0.10833 0.56509 0.0
C3149 C 0.73639 0.09414 0.57027 0.0
H3150 H 0.93108 0.63574 0.63819 0.0
H3151 H 0.95738 0.68897 0.62961 0.0
H3152 H 0.9424 0.68382 0.60403 0.0
H3153 H 0.93159 0.62233 0.59945 0.0
H3154 H 0.91096 0.60435 0.59954 0.0
H3155 H 0.92263 0.61222 0.61782 0.0
H3156 H 0.89865 0.61517 0.62994 0.0
H3157 H 0.88684 0.60718 0.6117 0.0
H3158 H 0.89106 0.62709 0.61976 0.0
H3159 H 0.92717 0.67275 0.5782 0.0
H3160 H 0.91118 0.65655 0.55451 0.0
H3161 H 0.89306 0.61066 0.58048 0.0
C3162 C 0.93346 0.64632 0.63104 0.0
C3163 C 0.94538 0.66276 0.63586 0.0
C3164 C 0.94824 0.67628 0.62617 0.0
C3165 C 0.9398 0.67349 0.61162 0.0
C3166 C 0.92835 0.65712 0.60705 0.0
C3167 C 0.92496 0.64377 0.61656 0.0
C3168 C 0.91245 0.62737 0.60862 0.0
C3169 C 0.91986 0.6159 0.60622 0.0
C3170 C 0.89629 0.6187 0.61807 0.0
C3171 C 0.90978 0.63357 0.59296 0.0
C3172 C 0.91906 0.65077 0.59231 0.0
C3173 C 0.91961 0.6593 0.57865 0.0
C3174 C 0.91051 0.64999 0.56525 0.0
C3175 C 0.90092 0.63235 0.56562 0.0
C3176 C 0.90031 0.62412 0.57981 0.0
H3177 H 0.9726 0.71167 0.71255 0.0
H3178 H 0.93952 0.65847 0.71817 0.0
H3179 H 0.93021 0.66397 0.74364 0.0
H3180 H 0.98551 0.72165 0.75215 0.0
H3181 H 0.98569 0.74122 0.75281 0.0
H3182 H 0.98887 0.73337 0.73432 0.0
H3183 H 0.96429 0.73496 0.72147 0.0
H3184 H 0.9611 0.74294 0.73991 0.0
H3185 H 0.94419 0.72454 0.73062 0.0
H3186 H 0.92712 0.67477 0.76982 0.0
H3187 H 0.9287 0.69048 0.79422 0.0
H3188 H 0.96158 0.73694 0.77093 0.0
C3189 C 0.96319 0.70123 0.71903 0.0
C3190 C 0.95679 0.68464 0.71339 0.0
C3191 C 0.94455 0.67129 0.72222 0.0
C3192 C 0.93918 0.67427 0.73672 0.0
C3193 C 0.94594 0.69071 0.74212 0.0
C3194 C 0.95746 0.70401 0.73345 0.0
C3195 C 0.96302 0.72043 0.74221 0.0
C3196 C 0.98189 0.72971 0.74557 0.0
C3197 C 0.95784 0.73136 0.733 0.0
C3198 C 0.95328 0.71421 0.75736 0.0
C3199 C 0.94353 0.69702 0.75704 0.0
C3200 C 0.93444 0.68827 0.77011 0.0
C3201 C 0.93541 0.6973 0.78392 0.0
C3202 C 0.94529 0.71494 0.78457 0.0
C3203 C 0.95401 0.72347 0.77092 0.0
H3204 H 0.32711 0.28546 0.72326 0.0
H3205 H 0.27909 0.26558 0.69957 0.0
H3206 H 0.26609 0.24489 0.72071 0.0
H3207 H 0.32143 0.24617 0.73761 0.0
H3208 H 0.33199 0.25516 0.75624 0.0
H3209 H 0.3376 0.26777 0.73882 0.0
H3210 H 0.33211 0.28925 0.7536 0.0
H3211 H 0.32649 0.27671 0.77105 0.0
H3212 H 0.31217 0.28231 0.76249 0.0
H3213 H 0.25828 0.2268 0.74479 0.0
H3214 H 0.2561 0.21329 0.77048 0.0
H3215 H 0.3091 0.2456 0.77866 0.0
C3216 C 0.31389 0.27664 0.72244 0.0
C3217 C 0.3041 0.27703 0.70975 0.0
C3218 C 0.2868 0.26546 0.70919 0.0
C3219 C 0.27933 0.25365 0.72111 0.0
C3220 C 0.28932 0.25365 0.73352 0.0
C3221 C 0.30621 0.26489 0.7343 0.0
C3222 C 0.31404 0.26276 0.74923 0.0
C3223 C 0.32703 0.25766 0.74523 0.0
C3224 C 0.32165 0.2787 0.75971 0.0
C3225 C 0.29891 0.24862 0.75679 0.0
C3226 C 0.28479 0.24345 0.7475 0.0
C3227 C 0.26926 0.2307 0.75213 0.0
C3228 C 0.26814 0.2231 0.7667 0.0
C3229 C 0.28244 0.22833 0.77648 0.0
C3230 C 0.29799 0.24125 0.77137 0.0
H3231 H 0.7178 0.055 0.71876 0.0
H3232 H 0.74413 0.03686 0.68989 0.0
H3233 H 0.765 0.04438 0.71148 0.0
H3234 H 0.75436 0.08983 0.73841 0.0
H3235 H 0.74401 0.08658 0.7571 0.0
H3236 H 0.73215 0.08128 0.73881 0.0
H3237 H 0.71326 0.05112 0.74847 0.0
H3238 H 0.72505 0.0563 0.76675 0.0
H3239 H 0.72256 0.039 0.7546 0.0
H3240 H 0.78174 0.05195 0.73698 0.0
H3241 H 0.79287 0.05869 0.76449 0.0
H3242 H 0.75532 0.07153 0.77665 0.0
C3243 C 0.72813 0.05289 0.71686 0.0
C3244 C 0.72945 0.04547 0.70262 0.0
C3245 C 0.74296 0.04261 0.70069 0.0
C3246 C 0.75487 0.04687 0.71287 0.0
C3247 C 0.75307 0.05395 0.72687 0.0
C3248 C 0.74003 0.05695 0.72891 0.0
C3249 C 0.74027 0.06365 0.74544 0.0
C3250 C 0.74286 0.08139 0.7449 0.0
C3251 C 0.72434 0.05181 0.75434 0.0
C3252 C 0.75533 0.06372 0.75249 0.0
C3253 C 0.76264 0.05823 0.74155 0.0
C3254 C 0.77628 0.0565 0.74556 0.0
C3255 C 0.78254 0.06039 0.76118 0.0
C3256 C 0.77517 0.06597 0.77258 0.0
C3257 C 0.76142 0.06766 0.76809 0.0
H3258 H 0.04898 0.35241 0.03301 0.0
H3259 H 0.00123 0.32387 0.05552 0.0
H3260 H 0.01445 0.31724 0.07737 0.0
H3261 H 0.06583 0.32626 0.04229 0.0
H3262 H 0.08671 0.34359 0.04483 0.0
H3263 H 0.07232 0.34517 0.03152 0.0
H3264 H 0.07696 0.37171 0.04642 0.0
H3265 H 0.0914 0.37042 0.05987 0.0
H3266 H 0.07368 0.37113 0.06748 0.0
H3267 H 0.03101 0.31261 0.10207 0.0
H3268 H 0.05676 0.31177 0.12099 0.0
H3269 H 0.0985 0.34706 0.0779 0.0
C3270 C 0.04145 0.34477 0.0426 0.0
C3271 C 0.02414 0.33863 0.04262 0.0
C3272 C 0.01453 0.32871 0.05527 0.0
C3273 C 0.0219 0.32485 0.06773 0.0
C3274 C 0.03892 0.33096 0.06748 0.0
C3275 C 0.04895 0.34096 0.05514 0.0
C3276 C 0.06775 0.34706 0.05669 0.0
C3277 C 0.07349 0.34011 0.04302 0.0
C3278 C 0.07805 0.36621 0.05767 0.0
C3279 C 0.06882 0.33975 0.07207 0.0
C3280 C 0.04868 0.32848 0.0792 0.0
C3281 C 0.04369 0.31868 0.09803 0.0
C3282 C 0.05972 0.31896 0.11029 0.0
C3283 C 0.08005 0.32687 0.10012 0.0
C3284 C 0.08619 0.34125 0.08287 0.0
H3285 H 0.68279 0.70073 0.04043 0.0
H3286 H 0.62915 0.67747 0.04175 0.0
H3287 H 0.63174 0.69941 0.06048 0.0
H3288 H 0.6921 0.7117 0.07985 0.0
H3289 H 0.71109 0.73095 0.07628 0.0
H3290 H 0.70368 0.7139 0.06213 0.0
H3291 H 0.7038 0.73276 0.03986 0.0
H3292 H 0.71152 0.75012 0.05375 0.0
H3293 H 0.69274 0.74399 0.0424 0.0
H3294 H 0.63668 0.72166 0.08532 0.0
H3295 H 0.65259 0.74932 0.1081 0.0
H3296 H 0.70918 0.75984 0.08717 0.0
C3297 C 0.67167 0.70049 0.04459 0.0
C3298 C 0.65579 0.68749 0.03973 0.0
C3299 C 0.64144 0.6874 0.04529 0.0
C3300 C 0.64279 0.69978 0.05595 0.0
C3301 C 0.65856 0.7123 0.06083 0.0
C3302 C 0.67313 0.71298 0.05517 0.0
C3303 C 0.6898 0.72731 0.06184 0.0
C3304 C 0.69974 0.72056 0.07053 0.0
C3305 C 0.70007 0.73925 0.04868 0.0
C3306 C 0.68423 0.73589 0.0733 0.0
C3307 C 0.66255 0.72544 0.07236 0.0
C3308 C 0.65007 0.72937 0.08585 0.0
C3309 C 0.65981 0.74581 0.10063 0.0
C3310 C 0.68277 0.75967 0.09799 0.0
C3311 C 0.69575 0.75256 0.08731 0.0
H3312 H 0.30008 0.96763 0.04521 0.0
H3313 H 0.28337 0.95456 0.99626 0.0
H3314 H 0.25622 0.93172 0.00532 0.0
H3315 H 0.28168 0.92578 0.05846 0.0
H3316 H 0.27655 0.9305 0.07769 0.0
H3317 H 0.29407 0.94634 0.06727 0.0
H3318 H 0.28171 0.96593 0.06944 0.0
H3319 H 0.26408 0.95011 0.07979 0.0
H3320 H 0.26093 0.95883 0.06202 0.0
H3321 H 0.23099 0.91021 0.01995 0.0
H3322 H 0.21048 0.89045 0.03875 0.0
H3323 H 0.24469 0.91688 0.07787 0.0
C3324 C 0.29065 0.96006 0.03639 0.0
C3325 C 0.2937 0.96291 0.02004 0.0
C3326 C 0.2812 0.95257 0.00885 0.0
C3327 C 0.26576 0.93964 0.01389 0.0
C3328 C 0.26316 0.93715 0.03013 0.0
C3329 C 0.27534 0.94698 0.04119 0.0
C3330 C 0.26985 0.94119 0.05789 0.0
C3331 C 0.28121 0.93562 0.06578 0.0
C3332 C 0.2691 0.95483 0.06787 0.0
C3333 C 0.25264 0.92653 0.05454 0.0
C3334 C 0.24892 0.92452 0.03848 0.0
C3335 C 0.23376 0.91173 0.03254 0.0
C3336 C 0.22218 0.90062 0.04329 0.0
C3337 C 0.22583 0.90231 0.05978 0.0
C3338 C 0.24134 0.91544 0.0654 0.0
H3339 H 0.32993 0.03433 0.97019 0.0
H3340 H 0.33198 0.04831 0.01979 0.0
H3341 H 0.32855 0.07217 0.01213 0.0
H3342 H 0.35417 0.07553 0.95655 0.0
H3343 H 0.34274 0.07161 0.93813 0.0
H3344 H 0.34381 0.05488 0.94764 0.0
H3345 H 0.31161 0.03741 0.94768 0.0
H3346 H 0.31044 0.05413 0.93819 0.0
H3347 H 0.29997 0.0461 0.95662 0.0
H3348 H 0.32574 0.09495 0.99887 0.0
H3349 H 0.32546 0.11586 0.98109 0.0
H3350 H 0.32693 0.08765 0.94026 0.0
C3351 C 0.3294 0.04227 0.97945 0.0
C3352 C 0.33103 0.03942 0.99559 0.0
C3353 C 0.33067 0.05027 0.00736 0.0
C3354 C 0.32868 0.06379 0.00312 0.0
C3355 C 0.32723 0.06633 0.98706 0.0
C3356 C 0.3277 0.05593 0.97542 0.0
C3357 C 0.32705 0.062 0.95901 0.0
C3358 C 0.34289 0.06626 0.9498 0.0
C3359 C 0.31133 0.04914 0.94984 0.0
C3360 C 0.32626 0.07753 0.96321 0.0
C3361 C 0.32614 0.07969 0.97945 0.0
C3362 C 0.3257 0.09331 0.98614 0.0
C3363 C 0.3255 0.10507 0.97598 0.0
C3364 C 0.32582 0.10321 0.95931 0.0
C3365 C 0.32628 0.08925 0.95292 0.0
H3366 H 0.95616 0.30364 0.97221 0.0
H3367 H 0.98902 0.29216 0.9989 0.0
H3368 H 0.97702 0.26478 0.98522 0.0
H3369 H 0.91967 0.26164 0.96895 0.0
H3370 H 0.91475 0.26535 0.94925 0.0
H3371 H 0.92508 0.28246 0.96334 0.0
H3372 H 0.94864 0.29825 0.94351 0.0
H3373 H 0.93875 0.28119 0.92937 0.0
H3374 H 0.95988 0.28855 0.93584 0.0
H3375 H 0.96639 0.23724 0.96616 0.0
H3376 H 0.94915 0.21191 0.94159 0.0
H3377 H 0.92045 0.24494 0.92444 0.0
C3378 C 0.96041 0.29506 0.97529 0.0
C3379 C 0.97329 0.29974 0.98665 0.0
C3380 C 0.97907 0.28865 0.99027 0.0
C3381 C 0.97233 0.2731 0.98259 0.0
C3382 C 0.95995 0.26885 0.97115 0.0
C3383 C 0.95387 0.2796 0.96721 0.0
C3384 C 0.94109 0.2737 0.95332 0.0
C3385 C 0.92415 0.2706 0.95906 0.0
C3386 C 0.94748 0.28616 0.93972 0.0
C3387 C 0.93994 0.25758 0.94821 0.0
C3388 C 0.95276 0.25428 0.96102 0.0
C3389 C 0.95744 0.23789 0.95838 0.0
C3390 C 0.94768 0.22277 0.94256 0.0
C3391 C 0.93051 0.22399 0.93213 0.0
C3392 C 0.92929 0.24363 0.93181 0.0
H3393 H 0.6985 0.68118 0.98068 0.0
H3394 H 0.69559 0.63639 0.9995 0.0
H3395 H 0.72134 0.64272 0.98566 0.0
H3396 H 0.71442 0.67912 0.94222 0.0
H3397 H 0.7281 0.70137 0.94121 0.0
H3398 H 0.70917 0.69315 0.95227 0.0
H3399 H 0.72603 0.70957 0.97735 0.0
H3400 H 0.74499 0.71789 0.96636 0.0
H3401 H 0.74286 0.70682 0.98439 0.0
H3402 H 0.7476 0.65409 0.97035 0.0
H3403 H 0.77312 0.67018 0.95491 0.0
H3404 H 0.75924 0.70771 0.94608 0.0
C3405 C 0.70326 0.67268 0.98183 0.0
C3406 C 0.69504 0.65827 0.99113 0.0
C3407 C 0.7017 0.64751 0.99244 0.0
C3408 C 0.71629 0.65097 0.9846 0.0
C3409 C 0.7241 0.66527 0.97553 0.0
C3410 C 0.71788 0.676 0.97414 0.0
C3411 C 0.72898 0.69075 0.96399 0.0
C3412 C 0.71961 0.69111 0.94904 0.0
C3413 C 0.73614 0.70723 0.9736 0.0
C3414 C 0.7424 0.68663 0.95991 0.0
C3415 C 0.73929 0.67184 0.96665 0.0
C3416 C 0.75009 0.66561 0.96488 0.0
C3417 C 0.7645 0.67478 0.95605 0.0
C3418 C 0.76794 0.68998 0.949 0.0
C3419 C 0.75673 0.69596 0.95104 0.0
H3420 H 0.95202 0.66338 0.99625 0.0
H3421 H 0.99926 0.69459 0.97359 0.0
H3422 H 0.98713 0.7092 0.95943 0.0
H3423 H 0.92547 0.66013 0.96214 0.0
H3424 H 0.91015 0.66102 0.97445 0.0
H3425 H 0.92216 0.65211 0.98194 0.0
H3426 H 0.93186 0.67272 0.00601 0.0
H3427 H 0.91989 0.68167 0.99861 0.0
H3428 H 0.94184 0.69484 0.00265 0.0
H3429 H 0.97079 0.72212 0.94964 0.0
H3430 H 0.95098 0.73196 0.94432 0.0
H3431 H 0.91402 0.69194 0.97255 0.0
C3432 C 0.95972 0.67313 0.98813 0.0
C3433 C 0.97656 0.67783 0.98599 0.0
C3434 C 0.9863 0.69075 0.97539 0.0
C3435 C 0.97953 0.69911 0.96726 0.0
C3436 C 0.96295 0.69433 0.96977 0.0
C3437 C 0.95312 0.68158 0.97986 0.0
C3438 C 0.93588 0.67941 0.98096 0.0
C3439 C 0.92264 0.66214 0.97448 0.0
C3440 C 0.93216 0.68234 0.99807 0.0
C3441 C 0.93769 0.69317 0.97019 0.0
C3442 C 0.95337 0.70157 0.9638 0.0
C3443 C 0.95834 0.71543 0.95429 0.0
C3444 C 0.94699 0.72089 0.95129 0.0
C3445 C 0.93078 0.71238 0.95762 0.0
C3446 C 0.92615 0.69835 0.96718 0.0
H3447 H 0.33604 0.31608 0.96413 0.0
H3448 H 0.34374 0.30268 0.01122 0.0
H3449 H 0.32867 0.27283 0.00301 0.0
H3450 H 0.29536 0.28274 0.95789 0.0
H3451 H 0.29791 0.27979 0.93715 0.0
H3452 H 0.31017 0.30007 0.94644 0.0
H3453 H 0.33724 0.30099 0.93747 0.0
H3454 H 0.32506 0.28075 0.92802 0.0
H3455 H 0.34082 0.28418 0.94257 0.0
H3456 H 0.31088 0.24432 0.99007 0.0
H3457 H 0.29323 0.21955 0.97299 0.0
H3458 H 0.29821 0.25198 0.93425 0.0
C3459 C 0.33474 0.30688 0.97267 0.0
C3460 C 0.34103 0.31164 0.98831 0.0
C3461 C 0.33906 0.29926 0.99915 0.0
C3462 C 0.3305 0.2823 0.99461 0.0
C3463 C 0.32418 0.27801 0.97914 0.0
C3464 C 0.32638 0.28998 0.9683 0.0
C3465 C 0.31813 0.28214 0.95251 0.0
C3466 C 0.30459 0.28644 0.94826 0.0
C3467 C 0.33109 0.28732 0.93937 0.0
C3468 C 0.31066 0.26386 0.95624 0.0
C3469 C 0.31426 0.2617 0.97165 0.0
C3470 C 0.30813 0.24587 0.97793 0.0
C3471 C 0.29809 0.23189 0.96818 0.0
C3472 C 0.29435 0.23387 0.95232 0.0
C3473 C 0.30084 0.2501 0.94633 0.0
H3474 H 0.7039 0.03912 0.00351 0.0
H3475 H 0.66572 0.01989 0.96666 0.0
H3476 H 0.6869 0.03581 0.94667 0.0
H3477 H 0.73161 0.08091 0.98633 0.0
H3478 H 0.75024 0.08065 0.99196 0.0
H3479 H 0.73186 0.07002 0.00379 0.0
H3480 H 0.73276 0.04259 0.00074 0.0
H3481 H 0.75106 0.05309 0.98886 0.0
H3482 H 0.73294 0.03462 0.98117 0.0
H3483 H 0.71201 0.05162 0.93049 0.0
H3484 H 0.73991 0.06544 0.91872 0.0
H3485 H 0.76236 0.07315 0.96561 0.0
C3486 C 0.70004 0.03875 0.9913 0.0
C3487 C 0.68324 0.02862 0.98656 0.0
C3488 C 0.67857 0.02779 0.97044 0.0
C3489 C 0.69048 0.0368 0.95905 0.0
C3490 C 0.70703 0.04641 0.96397 0.0
C3491 C 0.71188 0.0474 0.97968 0.0
C3492 C 0.73068 0.05711 0.98145 0.0
C3493 C 0.73643 0.07313 0.99148 0.0
C3494 C 0.73724 0.0462 0.98847 0.0
C3495 C 0.73559 0.06109 0.96428 0.0
C3496 C 0.72172 0.05505 0.95445 0.0
C3497 C 0.72298 0.05659 0.93806 0.0
C3498 C 0.73885 0.06443 0.93149 0.0
C3499 C 0.75327 0.07051 0.94127 0.0
C3500 C 0.75156 0.06885 0.95789 0.0
H3501 H 0.65389 0.94843 0.02939 0.0
H3502 H 0.69152 0.99741 0.04702 0.0
H3503 H 0.70666 0.98493 0.05963 0.0
H3504 H 0.65374 0.92567 0.06396 0.0
H3505 H 0.65095 0.90773 0.05267 0.0
H3506 H 0.64292 0.92046 0.04508 0.0
H3507 H 0.6595 0.92494 0.01928 0.0
H3508 H 0.66751 0.91218 0.02676 0.0
H3509 H 0.68165 0.93313 0.02054 0.0
H3510 H 0.71821 0.96736 0.06961 0.0
H3511 H 0.72521 0.9457 0.07649 0.0
H3512 H 0.67983 0.90807 0.053 0.0
C3513 C 0.66531 0.95651 0.03591 0.0
C3514 C 0.67154 0.97388 0.03722 0.0
C3515 C 0.68651 0.98405 0.04587 0.0
C3516 C 0.6952 0.97709 0.05309 0.0
C3517 C 0.68872 0.95993 0.05161 0.0
C3518 C 0.67412 0.94975 0.04326 0.0
C3519 C 0.66995 0.93169 0.0434 0.0
C3520 C 0.65341 0.92075 0.05178 0.0
C3521 C 0.66964 0.9251 0.02649 0.0
C3522 C 0.68455 0.93335 0.05303 0.0
C3523 C 0.69522 0.94974 0.05766 0.0
C3524 C 0.70984 0.95445 0.06624 0.0
C3525 C 0.71368 0.94207 0.07016 0.0
C3526 C 0.70282 0.92515 0.06566 0.0
C3527 C 0.68813 0.92083 0.05692 0.0
H3528 H 0.04853 0.71117 0.02671 0.0
H3529 H 0.00574 0.69312 0.05719 0.0
H3530 H 0.01891 0.72027 0.07147 0.0
H3531 H 0.08047 0.73803 0.0572 0.0
H3532 H 0.09225 0.75402 0.04311 0.0
H3533 H 0.08051 0.73246 0.03665 0.0
H3534 H 0.06502 0.74015 0.01573 0.0
H3535 H 0.07663 0.76167 0.02215 0.0
H3536 H 0.05422 0.75084 0.02203 0.0
H3537 H 0.03478 0.7502 0.08004 0.0
H3538 H 0.05282 0.78073 0.08289 0.0
H3539 H 0.08575 0.77947 0.04742 0.0
C3540 C 0.04215 0.71281 0.03665 0.0
C3541 C 0.02617 0.70003 0.0409 0.0
C3542 C 0.01803 0.70274 0.05377 0.0
C3543 C 0.02542 0.7181 0.06199 0.0
C3544 C 0.04101 0.7306 0.05726 0.0
C3545 C 0.04936 0.72811 0.04498 0.0
C3546 C 0.06537 0.74403 0.04147 0.0
C3547 C 0.08055 0.74201 0.04481 0.0
C3548 C 0.06529 0.74949 0.02433 0.0
C3549 C 0.06444 0.75594 0.05336 0.0
C3550 C 0.05036 0.74791 0.06244 0.0
C3551 C 0.04608 0.75656 0.07331 0.0
C3552 C 0.05642 0.77391 0.07486 0.0
C3553 C 0.07097 0.7824 0.06571 0.0
C3554 C 0.075 0.77321 0.05491 0.0
H3555 H 0.30115 0.33599 0.01256 0.0
H3556 H 0.33282 0.38276 0.03779 0.0
H3557 H 0.3094 0.37756 0.05509 0.0
H3558 H 0.26176 0.33723 0.01547 0.0
H3559 H 0.24962 0.315 0.01819 0.0
H3560 H 0.26815 0.3236 0.00647 0.0
H3561 H 0.27974 0.30898 0.02419 0.0
H3562 H 0.26138 0.3005 0.03604 0.0
H3563 H 0.28159 0.3129 0.04531 0.0
H3564 H 0.28387 0.36535 0.07187 0.0
H3565 H 0.25761 0.34797 0.08585 0.0
H3566 H 0.24241 0.30938 0.04936 0.0
C3567 C 0.30304 0.34537 0.02143 0.0
C3568 C 0.31877 0.35984 0.02378 0.0
C3569 C 0.32083 0.37167 0.0357 0.0
C3570 C 0.3076 0.3688 0.04559 0.0
C3571 C 0.29239 0.35413 0.04329 0.0
C3572 C 0.28999 0.34271 0.03137 0.0
C3573 C 0.27285 0.32737 0.03208 0.0
C3574 C 0.26248 0.32571 0.01717 0.0
C3575 C 0.27397 0.31151 0.03456 0.0
C3576 C 0.26615 0.3317 0.04657 0.0
C3577 C 0.27756 0.34724 0.05281 0.0
C3578 C 0.27466 0.35338 0.06686 0.0
C3579 C 0.2597 0.34342 0.0747 0.0
C3580 C 0.24772 0.32755 0.06839 0.0
C3581 C 0.2511 0.32168 0.05417 0.0
H3582 H 0.71361 0.68921 0.36801 0.0
H3583 H 0.66878 0.64114 0.37297 0.0
H3584 H 0.6853 0.63003 0.38539 0.0
H3585 H 0.73981 0.67408 0.35733 0.0
H3586 H 0.75785 0.68967 0.36819 0.0
H3587 H 0.74237 0.69444 0.36123 0.0
H3588 H 0.73876 0.70258 0.38983 0.0
H3589 H 0.75436 0.69797 0.39687 0.0
H3590 H 0.73402 0.68791 0.40552 0.0
H3591 H 0.70692 0.62335 0.39463 0.0
H3592 H 0.73211 0.62187 0.40112 0.0
H3593 H 0.76279 0.67456 0.39119 0.0
C3594 C 0.70723 0.67644 0.372 0.0
C3595 C 0.68992 0.66603 0.36957 0.0
C3596 C 0.68203 0.64935 0.3748 0.0
C3597 C 0.6913 0.64293 0.38186 0.0
C3598 C 0.70841 0.65341 0.38376 0.0
C3599 C 0.71629 0.66987 0.37917 0.0
C3600 C 0.73492 0.67825 0.38188 0.0
C3601 C 0.74428 0.68447 0.36623 0.0
C3602 C 0.74086 0.69252 0.39427 0.0
C3603 C 0.73633 0.66378 0.38824 0.0
C3604 C 0.72088 0.6496 0.38931 0.0
C3605 C 0.71907 0.63442 0.39402 0.0
C3606 C 0.73344 0.63368 0.39761 0.0
C3607 C 0.74942 0.64801 0.39641 0.0
C3608 C 0.75078 0.66333 0.39201 0.0
H3609 H 0.3238 0.02612 0.38919 0.0
H3610 H 0.33377 0.03966 0.33989 0.0
H3611 H 0.34778 0.06943 0.34757 0.0
H3612 H 0.31581 0.05952 0.40193 0.0
H3613 H 0.3248 0.06083 0.42129 0.0
H3614 H 0.31473 0.04123 0.4104 0.0
H3615 H 0.34138 0.03928 0.41308 0.0
H3616 H 0.3518 0.059 0.42367 0.0
H3617 H 0.36075 0.05598 0.40592 0.0
H3618 H 0.36889 0.1015 0.35822 0.0
H3619 H 0.38644 0.13093 0.37866 0.0
H3620 H 0.35841 0.09279 0.42629 0.0
C3621 C 0.32872 0.03547 0.38011 0.0
C3622 C 0.32777 0.03069 0.36399 0.0
C3623 C 0.3343 0.04307 0.35231 0.0
C3624 C 0.34231 0.06001 0.35655 0.0
C3625 C 0.3435 0.06448 0.3725 0.0
C3626 C 0.3366 0.05248 0.38444 0.0
C3627 C 0.3393 0.05933 0.40168 0.0
C3628 C 0.32268 0.05497 0.40927 0.0
C3629 C 0.34887 0.05302 0.41166 0.0
C3630 C 0.34965 0.07778 0.39954 0.0
C3631 C 0.35237 0.08107 0.37922 0.0
C3632 C 0.36689 0.10063 0.37086 0.0
C3633 C 0.37869 0.11869 0.38351 0.0
C3634 C 0.37173 0.11562 0.40456 0.0
C3635 C 0.36049 0.09452 0.41369 0.0
H3636 H 0.98249 0.29467 0.37303 0.0
H3637 H 0.96572 0.29386 0.3247 0.0
H3638 H 0.93754 0.2714 0.33151 0.0
H3639 H 0.95838 0.2502 0.37899 0.0
H3640 H 0.95407 0.25243 0.39939 0.0
H3641 H 0.97291 0.26827 0.39059 0.0
H3642 H 0.96513 0.29066 0.3984 0.0
H3643 H 0.94619 0.27486 0.4071 0.0
H3644 H 0.94538 0.288 0.39197 0.0
H3645 H 0.91111 0.2494 0.3437 0.0
H3646 H 0.88852 0.22863 0.36021 0.0
H3647 H 0.92268 0.2436 0.40043 0.0
C3648 C 0.97292 0.2897 0.36385 0.0
C3649 C 0.97627 0.29598 0.34833 0.0
C3650 C 0.96341 0.28919 0.33666 0.0
C3651 C 0.94737 0.27648 0.34042 0.0
C3652 C 0.94443 0.27069 0.35588 0.0
C3653 C 0.95686 0.277 0.36739 0.0
C3654 C 0.95044 0.2686 0.38311 0.0
C3655 C 0.95949 0.25932 0.38832 0.0
C3656 C 0.95187 0.28129 0.39589 0.0
C3657 C 0.93245 0.25655 0.37864 0.0
C3658 C 0.92922 0.25801 0.36291 0.0
C3659 C 0.91348 0.24819 0.35605 0.0
C3660 C 0.90072 0.23651 0.36551 0.0
C3661 C 0.90375 0.23478 0.38166 0.0
C3662 C 0.9199 0.24489 0.38822 0.0
H3663 H 0.03248 0.38341 0.30417 0.0
H3664 H 0.9904 0.36538 0.33557 0.0
H3665 H 0.98496 0.38747 0.32644 0.0
H3666 H 0.04698 0.4263 0.31083 0.0
H3667 H 0.05344 0.43227 0.29074 0.0
H3668 H 0.05315 0.41419 0.2987 0.0
H3669 H 0.03392 0.39597 0.27547 0.0
H3670 H 0.03413 0.41402 0.26743 0.0
H3671 H 0.01462 0.39563 0.2717 0.0
H3672 H 0.98513 0.41245 0.31518 0.0
H3673 H 0.99127 0.43902 0.30299 0.0
H3674 H 0.03336 0.44101 0.27906 0.0
C3675 C 0.02198 0.38398 0.30896 0.0
C3676 C 0.01179 0.37265 0.32052 0.0
C3677 C 0.99833 0.37393 0.32668 0.0
C3678 C 0.99512 0.38639 0.32153 0.0
C3679 C 0.00549 0.39747 0.31023 0.0
C3680 C 0.01866 0.39641 0.30402 0.0
C3681 C 0.0285 0.41046 0.2927 0.0
C3682 C 0.04659 0.42145 0.2986 0.0
C3683 C 0.02774 0.40361 0.27582 0.0
C3684 C 0.01894 0.41974 0.2937 0.0
C3685 C 0.00563 0.41195 0.30376 0.0
C3686 C 0.99539 0.41855 0.30712 0.0
C3687 C 0.99895 0.43362 0.30013 0.0
C3688 C 0.01261 0.4419 0.28989 0.0
C3689 C 0.02265 0.43476 0.2866 0.0
H3690 H 0.61311 0.63998 0.3131 0.0
H3691 H 0.6566 0.63419 0.31057 0.0
H3692 H 0.63974 0.60679 0.29707 0.0
H3693 H 0.58448 0.59874 0.3219 0.0
H3694 H 0.56764 0.59744 0.31003 0.0
H3695 H 0.5834 0.6173 0.31806 0.0
H3696 H 0.58954 0.62957 0.28988 0.0
H3697 H 0.57368 0.60975 0.28175 0.0
H3698 H 0.59458 0.61929 0.2744 0.0
H3699 H 0.61766 0.57895 0.28639 0.0
H3700 H 0.59205 0.55299 0.27835 0.0
H3701 H 0.56313 0.57731 0.28674 0.0
C3702 C 0.61914 0.63307 0.30944 0.0
C3703 C 0.63615 0.63919 0.31284 0.0
C3704 C 0.64359 0.62976 0.308 0.0
C3705 C 0.63412 0.61419 0.30033 0.0
C3706 C 0.61729 0.60835 0.29742 0.0
C3707 C 0.6099 0.61758 0.30166 0.0
C3708 C 0.59143 0.60814 0.29779 0.0
C3709 C 0.58114 0.60523 0.31284 0.0
C3710 C 0.58705 0.61723 0.2852 0.0
C3711 C 0.58951 0.59196 0.2912 0.0
C3712 C 0.60459 0.59237 0.29101 0.0
C3713 C 0.60581 0.57855 0.2863 0.0
C3714 C 0.59121 0.56385 0.2818 0.0
C3715 C 0.57559 0.56307 0.28209 0.0
C3716 C 0.57486 0.57748 0.28652 0.0
H3717 H 0.35012 0.96275 0.32565 0.0
H3718 H 0.36741 0.01589 0.32578 0.0
H3719 H 0.39287 0.02103 0.31215 0.0
H3720 H 0.38993 0.96666 0.33316 0.0
H3721 H 0.38619 0.94929 0.32042 0.0
H3722 H 0.36902 0.94964 0.32981 0.0
H3723 H 0.35475 0.94607 0.30238 0.0
H3724 H 0.37188 0.9457 0.2929 0.0
H3725 H 0.36591 0.96063 0.28698 0.0
H3726 H 0.41675 0.02062 0.2992 0.0
H3727 H 0.43775 0.01462 0.28803 0.0
H3728 H 0.40468 0.96172 0.29549 0.0
C3729 C 0.35924 0.97545 0.32274 0.0
C3730 C 0.35679 0.98892 0.32677 0.0
C3731 C 0.36903 0.00537 0.32281 0.0
C3732 C 0.38353 0.00842 0.31505 0.0
C3733 C 0.3856 0.9949 0.31127 0.0
C3734 C 0.37382 0.97873 0.31495 0.0
C3735 C 0.37931 0.96651 0.3098 0.0
C3736 C 0.38123 0.9575 0.32415 0.0
C3737 C 0.36724 0.95399 0.29727 0.0
C3738 C 0.39603 0.97835 0.30273 0.0
C3739 C 0.39941 0.99467 0.30372 0.0
C3740 C 0.41426 0.00789 0.29838 0.0
C3741 C 0.42612 0.00437 0.29208 0.0
C3742 C 0.42313 0.98779 0.29126 0.0
C3743 C 0.40762 0.97459 0.29627 0.0
H3744 H 0.61459 0.97182 0.32816 0.0
H3745 H 0.65847 0.01343 0.30856 0.0
H3746 H 0.64078 0.01939 0.29099 0.0
H3747 H 0.59256 0.95537 0.29413 0.0
H3748 H 0.57244 0.9487 0.30253 0.0
H3749 H 0.58918 0.95057 0.31488 0.0
H3750 H 0.58619 0.97083 0.33405 0.0
H3751 H 0.56903 0.96875 0.32215 0.0
H3752 H 0.58664 0.98914 0.32644 0.0
H3753 H 0.61988 0.02064 0.26825 0.0
H3754 H 0.59038 0.01262 0.24936 0.0
H3755 H 0.55665 0.96483 0.28808 0.0
C3756 C 0.62034 0.98236 0.32034 0.0
C3757 C 0.63779 0.99223 0.31969 0.0
C3758 C 0.64507 0.00578 0.30926 0.0
C3759 C 0.63513 0.00926 0.29927 0.0
C3760 C 0.61793 0.99909 0.2998 0.0
C3761 C 0.61032 0.98558 0.3102 0.0
C3762 C 0.59126 0.97449 0.30868 0.0
C3763 C 0.58608 0.95621 0.30483 0.0
C3764 C 0.58278 0.97589 0.32372 0.0
C3765 C 0.58729 0.98201 0.29502 0.0
C3766 C 0.60578 0.99944 0.28937 0.0
C3767 C 0.60778 0.01078 0.27174 0.0
C3768 C 0.58981 0.00523 0.25941 0.0
C3769 C 0.56968 0.98973 0.26853 0.0
C3770 C 0.56836 0.97491 0.284 0.0
H3771 H 0.00545 0.65123 0.29153 0.0
H3772 H 0.01381 0.63082 0.33427 0.0
H3773 H 0.0029 0.60338 0.32052 0.0
H3774 H 0.96799 0.61626 0.27917 0.0
H3775 H 0.9726 0.61849 0.25834 0.0
H3776 H 0.98182 0.63658 0.27133 0.0
H3777 H 0.01121 0.64361 0.26232 0.0
H3778 H 0.00207 0.62554 0.24925 0.0
H3779 H 0.01743 0.62808 0.26389 0.0
H3780 H 0.98822 0.57752 0.30278 0.0
H3781 H 0.97312 0.55594 0.28204 0.0
H3782 H 0.97678 0.59405 0.2502 0.0
C3783 C 0.00513 0.64101 0.29793 0.0
C3784 C 0.01037 0.64303 0.31395 0.0
C3785 C 0.00989 0.62947 0.32196 0.0
C3786 C 0.0037 0.61387 0.31426 0.0
C3787 C 0.99842 0.61222 0.29848 0.0
C3788 C 0.99936 0.62552 0.29034 0.0
C3789 C 0.99282 0.62052 0.2735 0.0
C3790 C 0.97792 0.62311 0.27042 0.0
C3791 C 0.00671 0.63 0.26154 0.0
C3792 C 0.98753 0.60218 0.27357 0.0
C3793 C 0.99082 0.5976 0.28807 0.0
C3794 C 0.98589 0.58103 0.29127 0.0
C3795 C 0.9773 0.56884 0.27938 0.0
C3796 C 0.9739 0.57332 0.26436 0.0
C3797 C 0.97936 0.59028 0.26147 0.0
H3798 H 0.35961 0.37465 0.32854 0.0
H3799 H 0.35274 0.32728 0.31091 0.0
H3800 H 0.37865 0.34216 0.29584 0.0
H3801 H 0.37582 0.39723 0.29246 0.0
H3802 H 0.3906 0.41641 0.30247 0.0
H3803 H 0.37154 0.40207 0.31203 0.0
H3804 H 0.38836 0.40093 0.33615 0.0
H3805 H 0.40747 0.4153 0.32668 0.0
H3806 H 0.40418 0.39538 0.33305 0.0
H3807 H 0.40565 0.36202 0.28333 0.0
H3808 H 0.43159 0.38573 0.27348 0.0
H3809 H 0.42055 0.42028 0.29841 0.0
C3810 C 0.36357 0.36743 0.32152 0.0
C3811 C 0.35418 0.34981 0.32091 0.0
C3812 C 0.35975 0.34079 0.31154 0.0
C3813 C 0.37445 0.34912 0.30295 0.0
C3814 C 0.38341 0.36648 0.30378 0.0
C3815 C 0.3782 0.37556 0.31277 0.0
C3816 C 0.39015 0.39414 0.31155 0.0
C3817 C 0.38151 0.40298 0.30419 0.0
C3818 C 0.39801 0.40189 0.32783 0.0
C3819 C 0.40286 0.39406 0.30046 0.0
C3820 C 0.39878 0.37797 0.29618 0.0
C3821 C 0.40888 0.37469 0.28641 0.0
C3822 C 0.42354 0.38823 0.28082 0.0
C3823 C 0.42781 0.40486 0.28479 0.0
C3824 C 0.41736 0.40771 0.29487 0.0
H3825 H 0.34449 0.31048 0.38002 0.0
H3826 H 0.30053 0.26807 0.35916 0.0
H3827 H 0.30985 0.24915 0.36933 0.0
H3828 H 0.37215 0.29705 0.37016 0.0
H3829 H 0.38461 0.30463 0.38808 0.0
H3830 H 0.37351 0.31462 0.38101 0.0
H3831 H 0.35878 0.3098 0.40799 0.0
H3832 H 0.36992 0.29985 0.41519 0.0
H3833 H 0.34753 0.289 0.41568 0.0
H3834 H 0.32534 0.2353 0.3791 0.0
H3835 H 0.34585 0.22745 0.38801 0.0
H3836 H 0.37956 0.27873 0.40293 0.0
C3837 C 0.33664 0.29717 0.37791 0.0
C3838 C 0.32175 0.29071 0.36888 0.0
C3839 C 0.31195 0.27326 0.36612 0.0
C3840 C 0.31712 0.26242 0.37187 0.0
C3841 C 0.33205 0.26923 0.38045 0.0
C3842 C 0.34163 0.28619 0.38356 0.0
C3843 C 0.35775 0.29043 0.39203 0.0
C3844 C 0.37289 0.30238 0.38223 0.0
C3845 C 0.35853 0.2977 0.40872 0.0
C3846 C 0.35597 0.27328 0.39278 0.0
C3847 C 0.34098 0.2612 0.38617 0.0
C3848 C 0.337 0.2446 0.38454 0.0
C3849 C 0.34872 0.24026 0.3896 0.0
C3850 C 0.36423 0.25248 0.3962 0.0
C3851 C 0.36773 0.26913 0.39805 0.0
H3852 H 0.71663 0.03092 0.35387 0.0
H3853 H 0.67645 0.01487 0.38733 0.0
H3854 H 0.69071 0.04282 0.40014 0.0
H3855 H 0.75081 0.05916 0.38172 0.0
H3856 H 0.76151 0.0743 0.36663 0.0
H3857 H 0.74917 0.05246 0.36129 0.0
H3858 H 0.73222 0.05926 0.34125 0.0
H3859 H 0.74444 0.08107 0.34656 0.0
H3860 H 0.72211 0.07047 0.34804 0.0
H3861 H 0.70734 0.07326 0.40708 0.0
H3862 H 0.72585 0.10381 0.40837 0.0
H3863 H 0.75581 0.10012 0.37106 0.0
C3864 C 0.71105 0.03318 0.36413 0.0
C3865 C 0.69548 0.02071 0.36966 0.0
C3866 C 0.68841 0.02423 0.38294 0.0
C3867 C 0.69642 0.04006 0.39031 0.0
C3868 C 0.71156 0.05221 0.38434 0.0
C3869 C 0.7189 0.04894 0.37165 0.0
C3870 C 0.73464 0.06453 0.36686 0.0
C3871 C 0.74994 0.06248 0.36928 0.0
C3872 C 0.73326 0.06909 0.34966 0.0
C3873 C 0.73476 0.07714 0.37858 0.0
C3874 C 0.72139 0.06977 0.38862 0.0
C3875 C 0.71811 0.07912 0.39957 0.0
C3876 C 0.72872 0.09648 0.40024 0.0
C3877 C 0.74258 0.1043 0.39012 0.0
C3878 C 0.74561 0.0944 0.37925 0.0
H3879 H 0.96932 0.68196 0.34937 0.0
H3880 H 0.99001 0.66114 0.38219 0.0
H3881 H 0.96467 0.64995 0.3981 0.0
H3882 H 0.94803 0.69351 0.37886 0.0
H3883 H 0.93019 0.68772 0.36617 0.0
H3884 H 0.95032 0.69486 0.35765 0.0
H3885 H 0.93823 0.66769 0.34053 0.0
H3886 H 0.91808 0.66047 0.34902 0.0
H3887 H 0.92774 0.64777 0.35006 0.0
H3888 H 0.93654 0.63932 0.40946 0.0
H3889 H 0.90763 0.63076 0.41611 0.0
H3890 H 0.90515 0.65918 0.37671 0.0
C3891 C 0.96856 0.6752 0.35999 0.0
C3892 C 0.98164 0.67243 0.36454 0.0
C3893 C 0.98014 0.6634 0.37845 0.0
C3894 C 0.9658 0.657 0.38759 0.0
C3895 C 0.95305 0.65976 0.38272 0.0
C3896 C 0.95428 0.66869 0.3693 0.0
C3897 C 0.93848 0.66936 0.36648 0.0
C3898 C 0.94197 0.68744 0.36735 0.0
C3899 C 0.93014 0.66081 0.35058 0.0
C3900 C 0.92823 0.65938 0.38038 0.0
C3901 C 0.93687 0.65391 0.38955 0.0
C3902 C 0.92971 0.64373 0.40252 0.0
C3903 C 0.91326 0.63896 0.40623 0.0
C3904 C 0.90417 0.64457 0.39711 0.0
C3905 C 0.91188 0.65496 0.38405 0.0
H3906 H 0.39392 0.03818 0.6976 0.0
H3907 H 0.36513 0.98571 0.68407 0.0
H3908 H 0.3879 0.98152 0.69387 0.0
H3909 H 0.43437 0.04417 0.68745 0.0
H3910 H 0.44479 0.05803 0.70412 0.0
H3911 H 0.42648 0.05696 0.69548 0.0
H3912 H 0.4125 0.05012 0.72294 0.0
H3913 H 0.43072 0.05105 0.73165 0.0
H3914 H 0.41067 0.03253 0.7336 0.0
H3915 H 0.41366 0.98302 0.70541 0.0
H3916 H 0.44077 0.99018 0.71762 0.0
H3917 H 0.45224 0.04142 0.72449 0.0
C3918 C 0.39248 0.02585 0.69655 0.0
C3919 C 0.37782 0.01227 0.69 0.0
C3920 C 0.37631 0.99628 0.689 0.0
C3921 C 0.38915 0.99378 0.69455 0.0
C3922 C 0.40336 0.00738 0.70112 0.0
C3923 C 0.40511 0.02311 0.70213 0.0
C3924 C 0.42149 0.03555 0.71002 0.0
C3925 C 0.43243 0.0495 0.69858 0.0
C3926 C 0.41867 0.04273 0.72547 0.0
C3927 C 0.42867 0.02436 0.71331 0.0
C3928 C 0.41805 0.00818 0.70804 0.0
C3929 C 0.42208 0.99565 0.70959 0.0
C3930 C 0.43747 0.99981 0.71656 0.0
C3931 C 0.44859 0.01635 0.72195 0.0
C3932 C 0.44399 0.0287 0.72044 0.0
H3933 H 0.00598 0.36005 0.70248 0.0
H3934 H 0.95225 0.33141 0.70467 0.0
H3935 H 0.95242 0.35245 0.72307 0.0
H3936 H 0.01527 0.37294 0.74179 0.0
H3937 H 0.03266 0.39318 0.73744 0.0
H3938 H 0.02684 0.37584 0.72392 0.0
H3939 H 0.02387 0.39238 0.70102 0.0
H3940 H 0.0299 0.41 0.71427 0.0
H3941 H 0.01056 0.40123 0.70322 0.0
H3942 H 0.95505 0.3746 0.74703 0.0
H3943 H 0.96843 0.40363 0.76824 0.0
H3944 H 0.02668 0.42035 0.74688 0.0
C3945 C 0.99432 0.35842 0.7068 0.0
C3946 C 0.97912 0.34419 0.70227 0.0
C3947 C 0.96402 0.34229 0.70798 0.0
C3948 C 0.964 0.35414 0.71846 0.0
C3949 C 0.97913 0.36794 0.72298 0.0
C3950 C 0.99438 0.37043 0.71716 0.0
C3951 C 0.01022 0.38626 0.72325 0.0
C3952 C 0.02193 0.38178 0.73212 0.0
C3953 C 0.01916 0.39817 0.70963 0.0
C3954 C 0.00333 0.39382 0.73445 0.0
C3955 C 0.98178 0.38102 0.73405 0.0
C3956 C 0.96821 0.38361 0.74723 0.0
C3957 C 0.97648 0.401 0.76106 0.0
C3958 C 0.99882 0.4169 0.75767 0.0
C3959 C 0.01347 0.41165 0.74749 0.0
H3960 H 0.62379 0.62803 0.67617 0.0
H3961 H 0.65681 0.64143 0.71716 0.0
H3962 H 0.63341 0.6216 0.73334 0.0
H3963 H 0.58937 0.62538 0.69799 0.0
H3964 H 0.57367 0.60813 0.68631 0.0
H3965 H 0.59319 0.6226 0.67756 0.0
H3966 H 0.59781 0.59808 0.66966 0.0
H3967 H 0.57831 0.58354 0.67844 0.0
H3968 H 0.5972 0.58413 0.68469 0.0
H3969 H 0.60679 0.6005 0.7451 0.0
H3970 H 0.57812 0.58054 0.75234 0.0
H3971 H 0.56147 0.58224 0.70441 0.0
C3972 C 0.62604 0.62662 0.68851 0.0
C3973 C 0.64207 0.63613 0.69544 0.0
C3974 C 0.64458 0.63425 0.71168 0.0
C3975 C 0.6314 0.62298 0.72094 0.0
C3976 C 0.61572 0.61386 0.71386 0.0
C3977 C 0.61289 0.61566 0.69808 0.0
C3978 C 0.59458 0.60501 0.69375 0.0
C3979 C 0.58727 0.61593 0.6886 0.0
C3980 C 0.59182 0.59191 0.68087 0.0
C3981 C 0.58767 0.5969 0.70952 0.0
C3982 C 0.60012 0.60206 0.72087 0.0
C3983 C 0.5969 0.59628 0.7363 0.0
C3984 C 0.58047 0.58485 0.74027 0.0
C3985 C 0.56734 0.57926 0.72885 0.0
C3986 C 0.57113 0.58572 0.71334 0.0
H3987 H 0.66244 0.6944 0.6346 0.0
H3988 H 0.69229 0.72552 0.67435 0.0
H3989 H 0.69251 0.74986 0.66253 0.0
H3990 H 0.68302 0.72314 0.6054 0.0
H3991 H 0.66489 0.71795 0.59338 0.0
H3992 H 0.66506 0.70247 0.60591 0.0
H3993 H 0.63836 0.69816 0.61961 0.0
H3994 H 0.63803 0.71359 0.60703 0.0
H3995 H 0.63796 0.71587 0.62828 0.0
H3996 H 0.69255 0.77134 0.64496 0.0
H3997 H 0.69174 0.78841 0.62312 0.0
H3998 H 0.66113 0.74339 0.59503 0.0
C3999 C 0.66867 0.70625 0.641 0.0
C4000 C 0.6773 0.70807 0.65542 0.0
C4001 C 0.68555 0.72383 0.66332 0.0
C4002 C 0.68571 0.73773 0.65671 0.0
C4003 C 0.67745 0.73562 0.64228 0.0
C4004 C 0.66893 0.72025 0.63457 0.0
C4005 C 0.66208 0.72162 0.61866 0.0
C4006 C 0.66919 0.71596 0.60504 0.0
C4007 C 0.64297 0.71172 0.61839 0.0
C4008 C 0.6686 0.74025 0.61837 0.0
C4009 C 0.6773 0.74806 0.63218 0.0
C4010 C 0.68552 0.76535 0.63421 0.0
C4011 C 0.68503 0.77494 0.62173 0.0
C4012 C 0.67636 0.76723 0.60739 0.0
C4013 C 0.66777 0.74961 0.60589 0.0
H4014 H 0.2964 0.97984 0.63977 0.0
H4015 H 0.29614 0.96003 0.68615 0.0
H4016 H 0.27326 0.93239 0.67722 0.0
H4017 H 0.25221 0.95751 0.63368 0.0
H4018 H 0.25327 0.95413 0.61274 0.0
H4019 H 0.26999 0.97216 0.62264 0.0
H4020 H 0.29095 0.96351 0.61255 0.0
H4021 H 0.27426 0.9454 0.60268 0.0
H4022 H 0.28755 0.943 0.61678 0.0
H4023 H 0.25029 0.90705 0.66335 0.0
H4024 H 0.22804 0.88597 0.64576 0.0
H4025 H 0.24278 0.92255 0.60872 0.0
C4026 C 0.29156 0.96967 0.64802 0.0
C4027 C 0.29805 0.97203 0.66363 0.0
C4028 C 0.29133 0.95847 0.67413 0.0
C4029 C 0.27837 0.94273 0.66916 0.0
C4030 C 0.27226 0.94081 0.65368 0.0
C4031 C 0.27855 0.95392 0.64329 0.0
C4032 C 0.26943 0.94866 0.62745 0.0
C4033 C 0.26071 0.95871 0.62393 0.0
C4034 C 0.28125 0.95023 0.61408 0.0
C4035 C 0.25697 0.93056 0.63058 0.0
C4036 C 0.2589 0.92625 0.64574 0.0
C4037 C 0.24873 0.91025 0.65142 0.0
C4038 C 0.23619 0.89837 0.64135 0.0
C4039 C 0.23395 0.90252 0.62578 0.0
C4040 C 0.24444 0.91889 0.62042 0.0
H4041 H 0.03136 0.34237 0.65126 0.0
H4042 H 0.0193 0.29107 0.65762 0.0
H4043 H 0.04543 0.29718 0.6446 0.0
H4044 H 0.04973 0.3478 0.61294 0.0
H4045 H 0.06584 0.36905 0.61693 0.0
H4046 H 0.0462 0.36069 0.62677 0.0
H4047 H 0.06143 0.36844 0.65408 0.0
H4048 H 0.08112 0.3769 0.64433 0.0
H4049 H 0.07546 0.36094 0.65889 0.0
H4050 H 0.07297 0.30892 0.63123 0.0
H4051 H 0.10014 0.32554 0.61843 0.0
H4052 H 0.09422 0.36914 0.62054 0.0
C4053 C 0.03422 0.33243 0.6499 0.0
C4054 C 0.02331 0.31623 0.65542 0.0
C4055 C 0.0275 0.30357 0.65349 0.0
C4056 C 0.0423 0.30691 0.64609 0.0
C4057 C 0.05277 0.32299 0.64075 0.0
C4058 C 0.04896 0.33556 0.64259 0.0
C4059 C 0.06247 0.35182 0.63595 0.0
C4060 C 0.05565 0.35768 0.62234 0.0
C4061 C 0.0706 0.36532 0.6491 0.0
C4062 C 0.07438 0.34638 0.62994 0.0
C4063 C 0.06857 0.32972 0.63287 0.0
C4064 C 0.07758 0.32194 0.62873 0.0
C4065 C 0.09294 0.33144 0.62139 0.0
C4066 C 0.09906 0.34851 0.61809 0.0
C4067 C 0.08966 0.35604 0.62257 0.0
H4068 H 0.2812 0.32394 0.65949 0.0
H4069 H 0.32616 0.3472 0.63178 0.0
H4070 H 0.31536 0.36272 0.61701 0.0
H4071 H 0.25226 0.32065 0.62749 0.0
H4072 H 0.24006 0.32549 0.64076 0.0
H4073 H 0.25057 0.31492 0.64801 0.0
H4074 H 0.26547 0.33798 0.66971 0.0
H4075 H 0.25505 0.34862 0.66252 0.0
H4076 H 0.27743 0.3595 0.66399 0.0
H4077 H 0.30107 0.37787 0.60725 0.0
H4078 H 0.28398 0.3911 0.60287 0.0
H4079 H 0.24808 0.35764 0.63649 0.0
C4080 C 0.28861 0.33205 0.6501 0.0
C4081 C 0.30447 0.33432 0.64672 0.0
C4082 C 0.31394 0.34524 0.63452 0.0
C4083 C 0.3079 0.35408 0.62604 0.0
C4084 C 0.29234 0.3518 0.62985 0.0
C4085 C 0.28278 0.34098 0.64153 0.0
C4086 C 0.26696 0.3416 0.64401 0.0
C4087 C 0.25155 0.32465 0.63981 0.0
C4088 C 0.2662 0.34727 0.66107 0.0
C4089 C 0.26931 0.3547 0.63215 0.0
C4090 C 0.28397 0.36036 0.62403 0.0
C4091 C 0.28937 0.37328 0.61327 0.0
C4092 C 0.27957 0.38069 0.61082 0.0
C4093 C 0.26445 0.37503 0.61898 0.0
C4094 C 0.25931 0.36184 0.62973 0.0
H4095 H 0.66983 0.98319 0.62865 0.0
H4096 H 0.67313 0.9691 0.6768 0.0
H4097 H 0.65927 0.93944 0.66817 0.0
H4098 H 0.6299 0.949 0.61924 0.0
H4099 H 0.63469 0.94663 0.59904 0.0
H4100 H 0.64551 0.96679 0.60884 0.0
H4101 H 0.67379 0.96881 0.60287 0.0
H4102 H 0.66305 0.9487 0.59295 0.0
H4103 H 0.67744 0.95233 0.60902 0.0
H4104 H 0.64355 0.91122 0.65456 0.0
H4105 H 0.62841 0.88659 0.63666 0.0
H4106 H 0.63639 0.91929 0.59728 0.0
C4107 C 0.66778 0.97388 0.63734 0.0
C4108 C 0.67255 0.97841 0.65339 0.0
C4109 C 0.66963 0.96588 0.66443 0.0
C4110 C 0.66174 0.94902 0.65965 0.0
C4111 C 0.657 0.94494 0.64378 0.0
C4112 C 0.66005 0.95702 0.63276 0.0
C4113 C 0.65353 0.94933 0.61646 0.0
C4114 C 0.64011 0.95317 0.61056 0.0
C4115 C 0.66781 0.95514 0.60463 0.0
C4116 C 0.64616 0.93102 0.62008 0.0
C4117 C 0.64823 0.92873 0.6359 0.0
C4118 C 0.64196 0.91286 0.64212 0.0
C4119 C 0.63336 0.89896 0.63189 0.0
C4120 C 0.63117 0.90103 0.61561 0.0
C4121 C 0.6378 0.91732 0.60968 0.0
H4122 H 0.02795 0.72248 0.65803 0.0
H4123 H 0.01947 0.67404 0.64188 0.0
H4124 H 0.04616 0.6877 0.62794 0.0
H4125 H 0.04682 0.74429 0.62199 0.0
H4126 H 0.0617 0.76329 0.63219 0.0
H4127 H 0.04188 0.74975 0.64097 0.0
H4128 H 0.05683 0.74801 0.66631 0.0
H4129 H 0.07669 0.76156 0.65761 0.0
H4130 H 0.07202 0.74138 0.66464 0.0
H4131 H 0.0742 0.70638 0.61667 0.0
H4132 H 0.10132 0.7291 0.60782 0.0
H4133 H 0.09126 0.76554 0.63024 0.0
C4134 C 0.03172 0.71477 0.65154 0.0
C4135 C 0.02165 0.6972 0.65105 0.0
C4136 C 0.02697 0.68753 0.6424 0.0
C4137 C 0.04212 0.69516 0.63445 0.0
C4138 C 0.05177 0.71249 0.63516 0.0
C4139 C 0.04678 0.7222 0.64341 0.0
C4140 C 0.05951 0.74059 0.64222 0.0
C4141 C 0.05202 0.75003 0.63384 0.0
C4142 C 0.06669 0.74834 0.65868 0.0
C4143 C 0.07242 0.73965 0.63208 0.0
C4144 C 0.06774 0.72332 0.6282 0.0
C4145 C 0.0779 0.71925 0.61941 0.0
C4146 C 0.09325 0.73224 0.61437 0.0
C4147 C 0.09816 0.74912 0.61792 0.0
C4148 C 0.08761 0.75278 0.62701 0.0
H4149 H 0.96825 0.61786 0.69128 0.0
H4150 H 0.01113 0.66216 0.71113 0.0
H4151 H 0.01925 0.64443 0.72588 0.0
H4152 H 0.95859 0.59322 0.72648 0.0
H4153 H 0.95245 0.57397 0.71576 0.0
H4154 H 0.95004 0.59014 0.70666 0.0
H4155 H 0.96757 0.5902 0.68287 0.0
H4156 H 0.97002 0.57402 0.69189 0.0
H4157 H 0.98809 0.5933 0.68645 0.0
H4158 H 0.02327 0.62198 0.73769 0.0
H4159 H 0.02223 0.59621 0.74672 0.0
H4160 H 0.97618 0.56649 0.72006 0.0
C4161 C 0.97933 0.62381 0.69874 0.0
C4162 C 0.98908 0.64137 0.70006 0.0
C4163 C 0.00348 0.64872 0.70996 0.0
C4164 C 0.0082 0.63877 0.71837 0.0
C4165 C 0.99834 0.62149 0.71681 0.0
C4166 C 0.98417 0.61406 0.70731 0.0
C4167 C 0.97573 0.59521 0.70778 0.0
C4168 C 0.95816 0.5877 0.71458 0.0
C4169 C 0.97534 0.58775 0.69127 0.0
C4170 C 0.98737 0.59322 0.71903 0.0
C4171 C 0.00038 0.60854 0.72403 0.0
C4172 C 0.01302 0.6099 0.73405 0.0
C4173 C 0.01228 0.5952 0.73917 0.0
C4174 C 0.99883 0.57935 0.73449 0.0
C4175 C 0.98635 0.57844 0.72415 0.0
H4176 H 0.3764 0.36585 0.69075 0.0
H4177 H 0.33192 0.35137 0.71799 0.0
H4178 H 0.34591 0.37865 0.73201 0.0
H4179 H 0.40693 0.39117 0.72272 0.0
H4180 H 0.42069 0.40664 0.70906 0.0
H4181 H 0.40795 0.38521 0.7025 0.0
H4182 H 0.3956 0.39459 0.6799 0.0
H4183 H 0.40824 0.416 0.68641 0.0
H4184 H 0.38599 0.40684 0.68469 0.0
H4185 H 0.36321 0.40844 0.74065 0.0
H4186 H 0.38315 0.43855 0.74399 0.0
H4187 H 0.41685 0.43385 0.71181 0.0
C4188 C 0.36977 0.36829 0.69994 0.0
C4189 C 0.35311 0.35647 0.70334 0.0
C4190 C 0.34471 0.36023 0.71522 0.0
C4191 C 0.35256 0.37568 0.72328 0.0
C4192 C 0.36885 0.38723 0.71941 0.0
C4193 C 0.37743 0.38371 0.70811 0.0
C4194 C 0.39441 0.39879 0.70539 0.0
C4195 C 0.40832 0.39524 0.71021 0.0
C4196 C 0.39615 0.40438 0.68807 0.0
C4197 C 0.39382 0.4114 0.71661 0.0
C4198 C 0.37901 0.40444 0.72466 0.0
C4199 C 0.37504 0.41395 0.73473 0.0
C4200 C 0.38647 0.43106 0.73658 0.0
C4201 C 0.4018 0.43845 0.72853 0.0
C4202 C 0.40546 0.42841 0.71848 0.0
H4203 H 0.65113 0.0129 0.7117 0.0
H4204 H 0.63477 0.02046 0.66584 0.0
H4205 H 0.60683 0.01122 0.67658 0.0
H4206 H 0.61404 0.97598 0.72072 0.0
H4207 H 0.61489 0.98084 0.74158 0.0
H4208 H 0.63381 0.98903 0.73056 0.0
H4209 H 0.64191 0.01912 0.73945 0.0
H4210 H 0.62304 0.01102 0.75059 0.0
H4211 H 0.62762 0.02658 0.73583 0.0
H4212 H 0.58018 0.99934 0.69198 0.0
H4213 H 0.55719 0.98664 0.71104 0.0
H4214 H 0.59145 0.98777 0.74691 0.0
C4215 C 0.64174 0.01281 0.70396 0.0
C4216 C 0.64509 0.01741 0.68795 0.0
C4217 C 0.63245 0.01702 0.67816 0.0
C4218 C 0.61656 0.01179 0.68415 0.0
C4219 C 0.6136 0.00709 0.69995 0.0
C4220 C 0.62588 0.00768 0.70974 0.0
C4221 C 0.6194 0.00149 0.72612 0.0
C4222 C 0.62061 0.98591 0.72996 0.0
C4223 C 0.62854 0.01539 0.73874 0.0
C4224 C 0.60151 0.99719 0.724 0.0
C4225 C 0.59837 0.00047 0.70883 0.0
C4226 C 0.58253 0.99684 0.70393 0.0
C4227 C 0.56955 0.98961 0.71481 0.0
C4228 C 0.57252 0.98613 0.73041 0.0
C4229 C 0.58879 0.9902 0.73505 0.0
loop_
_geom_bond_atom_site_label_1
_geom_bond_atom_site_label_2
_geom_bond_distance
_geom_bond_site_symmetry_2
_ccdc_geom_bond_type
In0 O1 2.294 1_455 S
In0 O2 2.326 . S
In0 O6 2.255 1_454 S
In0 O7 2.326 1_454 S
In0 O8 2.266 1_554 S
In0 O9 2.326 1_454 S
In0 O11 2.294 . S
In0 O12 2.326 . S
O1 In0 2.294 1_655 S
O1 C10 1.237 . S
O2 In0 2.326 . S
O2 C10 1.259 1_455 S
C3 O6 1.291 . S
C3 O7 1.260 . S
C4 O11 1.240 . S
C4 O12 1.252 . S
C5 O8 1.252 . S
C5 O9 1.260 1_455 S
O6 In0 2.255 1_656 S
O6 C3 1.291 . S
O7 In0 2.326 1_656 S
O7 C3 1.260 . S
O8 In0 2.266 1_556 S
O8 C5 1.252 . S
O9 In0 2.326 1_656 S
O9 C5 1.260 1_655 S
C10 O1 1.237 . S
C10 O2 1.259 1_655 S
O11 In0 2.294 . S
O11 C4 1.240 . S
O12 In0 2.326 . S
O12 C4 1.252 . S
In13 O14 2.294 . S
In13 O15 2.326 . S
In13 O19 2.266 . S
In13 O20 2.326 1_554 S
In13 O21 2.266 1_554 S
In13 O22 2.326 1_554 S
In13 O24 2.294 . S
In13 O25 2.326 . S
O14 In13 2.294 . S
O14 C23 1.240 . S
O15 In13 2.326 . S
O15 C23 1.252 . S
C16 O19 1.252 1_556 S
C16 O20 1.260 . S
C17 O24 1.240 . S
C17 O25 1.252 . S
C18 O21 1.252 . S
C18 O22 1.260 . S
O19 In13 2.266 . S
O19 C16 1.252 1_554 S
O20 In13 2.326 1_556 S
O20 C16 1.260 . S
O21 In13 2.266 1_556 S
O21 C18 1.252 . S
O22 In13 2.326 1_556 S
O22 C18 1.260 . S
C23 O14 1.240 . S
C23 O15 1.252 . S
O24 In13 2.294 . S
O24 C17 1.240 . S
O25 In13 2.326 . S
O25 C17 1.252 . S
In26 O27 2.292 . S
In26 O28 2.326 1_554 S
In26 O32 2.266 . S
In26 O33 2.326 1_545 S
In26 O34 2.266 1_545 S
In26 O35 2.326 1_545 S
In26 O37 2.294 1_544 S
In26 O38 2.326 1_554 S
O27 In26 2.292 . S
O27 C36 1.246 1_554 S
O28 In26 2.326 1_556 S
O28 C36 1.252 . S
C29 O32 1.252 . S
C29 O33 1.260 1_545 S
C30 O37 1.262 . S
C30 O38 1.211 1_565 S
C31 O34 1.252 . S
C31 O35 1.260 . S
O32 In26 2.266 . S
O32 C29 1.252 . S
O33 In26 2.326 1_565 S
O33 C29 1.260 1_565 S
O34 In26 2.266 1_565 S
O34 C31 1.252 . S
O35 In26 2.326 1_565 S
O35 C31 1.260 . S
C36 O27 1.246 1_556 S
C36 O28 1.252 . S
O37 In26 2.294 1_566 S
O37 C30 1.262 . S
O38 In26 2.326 1_556 S
O38 C30 1.211 1_545 S
In39 O40 2.293 1_554 S
In39 O41 2.326 1_454 S
In39 O45 2.265 . S
In39 O46 2.326 . S
In39 O47 2.267 1_455 S
In39 O48 2.324 . S
In39 O50 2.296 1_455 S
In39 O51 2.327 1_454 S
O40 In39 2.293 1_556 S
O40 C49 1.240 . S
O41 In39 2.326 1_656 S
O41 C49 1.252 1_655 S
C42 O45 1.252 . S
C42 O46 1.260 . S
C43 O50 1.240 1_556 S
C43 O51 1.252 . S
C44 O47 1.252 . S
C44 O48 1.260 1_655 S
O45 In39 2.265 . S
O45 C42 1.252 . S
O46 In39 2.326 . S
O46 C42 1.260 . S
O47 In39 2.267 1_655 S
O47 C44 1.252 . S
O48 In39 2.324 . S
O48 C44 1.260 1_455 S
C49 O40 1.240 . S
C49 O41 1.252 1_455 S
O50 In39 2.296 1_655 S
O50 C43 1.240 1_554 S
O51 In39 2.327 1_656 S
O51 C43 1.252 . S
In52 O53 2.294 1_554 S
In52 O54 2.326 1_554 S
In52 O58 2.266 . S
In52 O59 2.326 . S
In52 O60 2.266 . S
In52 O61 2.326 . S
In52 O63 2.294 1_554 S
In52 O64 2.326 1_554 S
O53 In52 2.294 1_556 S
O53 C62 1.240 . S
O54 In52 2.326 1_556 S
O54 C62 1.252 . S
C55 O58 1.252 . S
C55 O59 1.260 . S
C56 O63 1.240 . S
C56 O64 1.252 . S
C57 O60 1.252 . S
C57 O61 1.260 . S
O58 In52 2.266 . S
O58 C55 1.252 . S
O59 In52 2.326 . S
O59 C55 1.260 . S
O60 In52 2.266 . S
O60 C57 1.252 . S
O61 In52 2.326 . S
O61 C57 1.260 . S
C62 O53 1.240 . S
C62 O54 1.252 . S
O63 In52 2.294 1_556 S
O63 C56 1.240 . S
O64 In52 2.326 1_556 S
O64 C56 1.252 . S
In65 O66 2.293 . S
In65 O67 2.326 1_545 S
In65 O71 2.265 . S
In65 O72 2.326 1_554 S
In65 O73 2.267 1_544 S
In65 O74 2.324 1_554 S
In65 O76 2.296 1_545 S
In65 O77 2.327 1_545 S
O66 In65 2.293 . S
O66 C75 1.240 . S
O67 In65 2.326 1_565 S
O67 C75 1.252 1_565 S
C68 O71 1.252 1_556 S
C68 O72 1.260 . S
C69 O76 1.240 . S
C69 O77 1.252 . S
C70 O73 1.252 . S
C70 O74 1.260 1_565 S
O71 In65 2.265 . S
O71 C68 1.252 1_554 S
O72 In65 2.326 1_556 S
O72 C68 1.260 . S
O73 In65 2.267 1_566 S
O73 C70 1.252 . S
O74 In65 2.324 1_556 S
O74 C70 1.260 1_545 S
C75 O66 1.240 . S
C75 O67 1.252 1_545 S
O76 In65 2.296 1_565 S
O76 C69 1.240 . S
O77 In65 2.327 1_565 S
O77 C69 1.252 . S
In78 O79 2.294 . S
In78 O80 2.326 . S
In78 O84 2.266 . S
In78 O85 2.326 . S
In78 O86 2.266 . S
In78 O87 2.326 . S
In78 O89 2.294 . S
In78 O90 2.326 . S
O79 In78 2.294 . S
O79 C88 1.240 . S
O80 In78 2.326 . S
O80 C88 1.252 . S
C81 O84 1.252 . S
C81 O85 1.260 . S
C82 O89 1.240 . S
C82 O90 1.252 . S
C83 O86 1.252 . S
C83 O87 1.260 . S
O84 In78 2.266 . S
O84 C81 1.252 . S
O85 In78 2.326 . S
O85 C81 1.260 . S
O86 In78 2.266 . S
O86 C83 1.252 . S
O87 In78 2.326 . S
O87 C83 1.260 . S
C88 O79 1.240 . S
C88 O80 1.252 . S
O89 In78 2.294 . S
O89 C82 1.240 . S
O90 In78 2.326 . S
O90 C82 1.252 . S
In91 O92 2.294 . S
In91 O93 2.326 . S
In91 O97 2.266 . S
In91 O98 2.326 . S
In91 O99 2.266 . S
In91 O100 2.326 . S
In91 O102 2.294 1_565 S
In91 O103 2.326 . S
O92 In91 2.294 . S
O92 C101 1.240 . S
O93 In91 2.326 . S
O93 C101 1.252 . S
C94 O97 1.252 . S
C94 O98 1.260 . S
C95 O102 1.240 . S
C95 O103 1.252 1_545 S
C96 O99 1.252 . S
C96 O100 1.260 . S
O97 In91 2.266 . S
O97 C94 1.252 . S
O98 In91 2.326 . S
O98 C94 1.260 . S
O99 In91 2.266 . S
O99 C96 1.252 . S
O100 In91 2.326 . S
O100 C96 1.260 . S
C101 O92 1.240 . S
C101 O93 1.252 . S
O102 In91 2.294 1_545 S
O102 C95 1.240 . S
O103 In91 2.326 . S
O103 C95 1.252 1_565 S
In104 O105 2.294 . S
In104 O106 2.326 . S
In104 O110 2.266 . S
In104 O111 2.326 . S
In104 O112 2.273 . S
In104 O113 2.326 . S
In104 O115 2.294 . S
In104 O116 2.326 . S
O105 In104 2.294 . S
O105 C114 1.240 . S
O106 In104 2.326 . S
O106 C114 1.252 . S
C107 O110 1.252 . S
C107 O111 1.260 . S
C108 O115 1.240 . S
C108 O116 1.252 . S
C109 O112 1.242 1_655 S
C109 O113 1.260 1_655 S
O110 In104 2.266 . S
O110 C107 1.252 . S
O111 In104 2.326 . S
O111 C107 1.260 . S
O112 In104 2.273 . S
O112 C109 1.242 1_455 S
O113 In104 2.326 . S
O113 C109 1.260 1_455 S
C114 O105 1.240 . S
C114 O106 1.252 . S
O115 In104 2.294 . S
O115 C108 1.240 . S
O116 In104 2.326 . S
O116 C108 1.252 . S
In117 O118 2.294 . S
In117 O119 2.326 . S
In117 O123 2.266 1_565 S
In117 O124 2.343 . S
In117 O125 2.266 . S
In117 O126 2.326 . S
In117 O128 2.294 . S
In117 O129 2.326 . S
O118 In117 2.294 . S
O118 C127 1.240 . S
O119 In117 2.326 . S
O119 C127 1.252 . S
C120 O123 1.252 . S
C120 O124 1.259 1_545 S
C121 O128 1.240 . S
C121 O129 1.252 . S
C122 O125 1.252 . S
C122 O126 1.260 . S
O123 In117 2.266 1_545 S
O123 C120 1.252 . S
O124 In117 2.343 . S
O124 C120 1.259 1_565 S
O125 In117 2.266 . S
O125 C122 1.252 . S
O126 In117 2.326 . S
O126 C122 1.260 . S
C127 O118 1.240 . S
C127 O119 1.252 . S
O128 In117 2.294 . S
O128 C121 1.240 . S
O129 In117 2.326 . S
O129 C121 1.252 . S
In130 O131 2.294 . S
In130 O132 2.326 . S
In130 O136 2.266 1_455 S
In130 O137 2.326 . S
In130 O138 2.266 . S
In130 O139 2.326 . S
In130 O141 2.294 . S
In130 O142 2.326 . S
O131 In130 2.294 . S
O131 C140 1.240 . S
O132 In130 2.326 . S
O132 C140 1.252 . S
C133 O136 1.252 . S
C133 O137 1.260 1_655 S
C134 O141 1.240 . S
C134 O142 1.252 . S
C135 O138 1.252 . S
C135 O139 1.260 . S
O136 In130 2.266 1_655 S
O136 C133 1.252 . S
O137 In130 2.326 . S
O137 C133 1.260 1_455 S
O138 In130 2.266 . S
O138 C135 1.252 . S
O139 In130 2.326 . S
O139 C135 1.260 . S
C140 O131 1.240 . S
C140 O132 1.252 . S
O141 In130 2.294 . S
O141 C134 1.240 . S
O142 In130 2.326 . S
O142 C134 1.252 . S
In143 O144 2.294 . S
In143 O145 2.326 . S
In143 O149 2.266 . S
In143 O150 2.326 . S
In143 O151 2.266 . S
In143 O152 2.326 . S
In143 O154 2.294 . S
In143 O155 2.326 . S
O144 In143 2.294 . S
O144 C153 1.240 . S
O145 In143 2.326 . S
O145 C153 1.252 . S
C146 O149 1.252 . S
C146 O150 1.260 . S
C147 O154 1.240 . S
C147 O155 1.252 . S
C148 O151 1.252 . S
C148 O152 1.260 . S
O149 In143 2.266 . S
O149 C146 1.252 . S
O150 In143 2.326 . S
O150 C146 1.260 . S
O151 In143 2.266 . S
O151 C148 1.252 . S
O152 In143 2.326 . S
O152 C148 1.260 . S
C153 O144 1.240 . S
C153 O145 1.252 . S
O154 In143 2.294 . S
O154 C147 1.240 . S
O155 In143 2.326 . S
O155 C147 1.252 . S
In156 O157 2.294 . S
In156 O158 2.326 . S
In156 O162 2.266 . S
In156 O163 2.326 . S
In156 O164 2.266 1_545 S
In156 O165 2.326 . S
In156 O167 2.294 . S
In156 O168 2.326 . S
O157 In156 2.294 . S
O157 C166 1.240 . S
O158 In156 2.326 . S
O158 C166 1.252 . S
C159 O162 1.252 . S
C159 O163 1.260 . S
C160 O167 1.240 . S
C160 O168 1.252 . S
C161 O164 1.252 . S
C161 O165 1.260 1_565 S
O162 In156 2.266 . S
O162 C159 1.252 . S
O163 In156 2.326 . S
O163 C159 1.260 . S
O164 In156 2.266 1_565 S
O164 C161 1.252 . S
O165 In156 2.326 . S
O165 C161 1.260 1_545 S
C166 O157 1.240 . S
C166 O158 1.252 . S
O167 In156 2.294 . S
O167 C160 1.240 . S
O168 In156 2.326 . S
O168 C160 1.252 . S
In169 O170 2.294 . S
In169 O171 2.326 . S
In169 O175 2.266 . S
In169 O176 2.326 . S
In169 O177 2.266 1_655 S
In169 O178 2.354 . S
In169 O180 2.294 . S
In169 O181 2.326 . S
O170 In169 2.294 . S
O170 C179 1.240 . S
O171 In169 2.326 . S
O171 C179 1.252 . S
C172 O175 1.252 . S
C172 O176 1.260 . S
C173 O180 1.240 . S
C173 O181 1.252 . S
C174 O177 1.252 . S
C174 O178 1.199 1_455 S
O175 In169 2.266 . S
O175 C172 1.252 . S
O176 In169 2.326 . S
O176 C172 1.260 . S
O177 In169 2.266 1_455 S
O177 C174 1.252 . S
O178 In169 2.354 . S
O178 C174 1.199 1_655 S
C179 O170 1.240 . S
C179 O171 1.252 . S
O180 In169 2.294 . S
O180 C173 1.240 . S
O181 In169 2.326 . S
O181 C173 1.252 . S
In182 O183 2.294 . S
In182 O184 2.326 . S
In182 O188 2.266 . S
In182 O189 2.326 . S
In182 O190 2.266 . S
In182 O191 2.326 . S
In182 O193 2.294 . S
In182 O194 2.326 . S
O183 In182 2.294 . S
O183 C192 1.240 . S
O184 In182 2.326 . S
O184 C192 1.252 . S
C185 O188 1.252 . S
C185 O189 1.260 . S
C186 O193 1.240 . S
C186 O194 1.252 . S
C187 O190 1.252 . S
C187 O191 1.260 . S
O188 In182 2.266 . S
O188 C185 1.252 . S
O189 In182 2.326 . S
O189 C185 1.260 . S
O190 In182 2.266 . S
O190 C187 1.252 . S
O191 In182 2.326 . S
O191 C187 1.260 . S
C192 O183 1.240 . S
C192 O184 1.252 . S
O193 In182 2.294 . S
O193 C186 1.240 . S
O194 In182 2.326 . S
O194 C186 1.252 . S
In195 O196 2.294 . S
In195 O197 2.326 . S
In195 O201 2.266 . S
In195 O202 2.326 . S
In195 O203 2.266 . S
In195 O204 2.326 . S
In195 O206 2.294 . S
In195 O207 2.326 . S
O196 In195 2.294 . S
O196 C205 1.240 . S
O197 In195 2.326 . S
O197 C205 1.252 . S
C198 O201 1.252 . S
C198 O202 1.260 . S
C199 O206 1.240 . S
C199 O207 1.252 . S
C200 O203 1.252 . S
C200 O204 1.260 . S
O201 In195 2.266 . S
O201 C198 1.252 . S
O202 In195 2.326 . S
O202 C198 1.260 . S
O203 In195 2.266 . S
O203 C200 1.252 . S
O204 In195 2.326 . S
O204 C200 1.260 . S
C205 O196 1.240 . S
C205 O197 1.252 . S
O206 In195 2.294 . S
O206 C199 1.240 . S
O207 In195 2.326 . S
O207 C199 1.252 . S
In208 O209 2.294 . S
In208 O210 2.326 . S
In208 O214 2.266 . S
In208 O215 2.326 . S
In208 O216 2.266 . S
In208 O217 2.326 . S
In208 O219 2.294 1_545 S
In208 O220 2.326 . S
O209 In208 2.294 . S
O209 C218 1.240 . S
O210 In208 2.326 . S
O210 C218 1.252 . S
C211 O214 1.252 . S
C211 O215 1.260 . S
C212 O219 1.240 . S
C212 O220 1.252 1_565 S
C213 O216 1.252 . S
C213 O217 1.260 . S
O214 In208 2.266 . S
O214 C211 1.252 . S
O215 In208 2.326 . S
O215 C211 1.260 . S
O216 In208 2.266 . S
O216 C213 1.252 . S
O217 In208 2.326 . S
O217 C213 1.260 . S
C218 O209 1.240 . S
C218 O210 1.252 . S
O219 In208 2.294 1_565 S
O219 C212 1.240 . S
O220 In208 2.326 . S
O220 C212 1.252 1_545 S
In221 O222 2.294 . S
In221 O223 2.326 . S
In221 O227 2.266 . S
In221 O228 2.326 . S
In221 O229 2.266 1_655 S
In221 O230 2.326 . S
In221 O232 2.294 . S
In221 O233 2.326 . S
O222 In221 2.294 . S
O222 C231 1.240 . S
O223 In221 2.326 . S
O223 C231 1.252 . S
C224 O227 1.252 . S
C224 O228 1.260 . S
C225 O232 1.240 . S
C225 O233 1.252 . S
C226 O229 1.252 . S
C226 O230 1.260 1_455 S
O227 In221 2.266 . S
O227 C224 1.252 . S
O228 In221 2.326 . S
O228 C224 1.260 . S
O229 In221 2.266 1_455 S
O229 C226 1.252 . S
O230 In221 2.326 . S
O230 C226 1.260 1_655 S
C231 O222 1.240 . S
C231 O223 1.252 . S
O232 In221 2.294 . S
O232 C225 1.240 . S
O233 In221 2.326 . S
O233 C225 1.252 . S
C234 C235 1.560 . S
C234 H295 0.959 . S
C234 H296 0.959 . S
C234 H297 0.960 . S
C235 C234 1.560 . S
C235 O290 1.426 . S
C235 H294 0.980 . S
C236 C237 1.407 . S
C236 C241 1.418 . S
C236 O290 1.334 . S
C237 C236 1.407 . S
C237 C238 1.360 . S
C237 H298 0.929 . S
C238 C237 1.360 . S
C238 C239 1.401 . S
C238 C242 1.527 . S
C239 C238 1.401 . S
C239 C240 1.405 . S
C239 C272 1.587 . S
C240 C239 1.405 . S
C240 C241 1.332 . S
C240 C243 1.496 . S
C241 C236 1.418 . S
C241 C240 1.332 . S
C241 H299 0.929 . S
C242 C238 1.527 . S
C242 H300 0.959 . S
C242 H301 0.961 . S
C242 H302 0.961 . S
C243 C240 1.496 . S
C243 H303 0.960 . S
C243 H304 0.960 . S
C243 H305 0.961 . S
C244 C245 1.517 . S
C244 H307 0.961 . S
C244 H308 0.960 . S
C244 H309 0.959 . S
C245 C244 1.517 . S
C245 O293 1.468 . S
C245 H306 0.980 . S
C246 C247 1.349 . S
C246 C251 1.367 . S
C246 O293 1.408 . S
C247 C246 1.349 . S
C247 C248 1.407 . S
C247 H310 0.930 . S
C248 C247 1.407 . S
C248 C249 1.449 . S
C248 C252 1.535 . S
C249 C248 1.449 . S
C249 C250 1.384 . S
C249 C274 1.553 . S
C250 C249 1.384 . S
C250 C251 1.364 . S
C250 C253 1.450 . S
C251 C246 1.367 . S
C251 C250 1.364 . S
C251 H311 0.931 . S
C252 C248 1.535 . S
C252 H312 0.959 . S
C252 H313 0.961 . S
C252 H314 0.959 . S
C253 C250 1.450 . S
C253 H315 0.960 . S
C253 H316 0.960 . S
C253 H317 0.960 . S
C254 C255 1.309 . S
C254 C259 1.304 . S
C254 O292 1.435 . S
C255 C254 1.309 . S
C255 C256 1.476 . S
C255 H319 0.930 . S
C256 C255 1.476 . S
C256 C257 1.400 . S
C256 C260 1.567 . S
C257 C256 1.400 . S
C257 C258 1.373 . S
C257 C279 1.432 . S
C258 C257 1.373 . S
C258 C259 1.339 . S
C258 C261 1.530 . S
C259 C254 1.304 . S
C259 C258 1.339 . S
C259 H320 0.930 . S
C260 C256 1.567 . S
C260 H321 0.961 . S
C260 H322 0.960 . S
C260 H323 0.958 . S
C261 C258 1.530 . S
C261 H324 0.961 . S
C261 H325 0.960 . S
C261 H326 0.960 . S
C262 C263 1.530 . S
C262 H328 0.961 . S
C262 H329 0.961 . S
C262 H330 0.959 . S
C263 C262 1.530 . S
C263 O291 1.412 . S
C263 H327 0.980 . S
C264 C265 1.288 . S
C264 C269 1.377 . S
C264 O291 1.393 . S
C265 C264 1.288 . S
C265 C266 1.369 . S
C265 H331 0.932 . S
C266 C265 1.369 . S
C266 C267 1.398 . S
C266 C270 1.527 . S
C267 C266 1.398 . S
C267 C268 1.380 . S
C267 C281 1.497 . S
C268 C267 1.380 . S
C268 C269 1.383 . S
C268 C271 1.603 . S
C269 C264 1.377 . S
C269 C268 1.383 . S
C269 H332 0.929 . S
C270 C266 1.527 . S
C270 H333 0.961 . S
C270 H334 0.959 . S
C270 H335 0.959 . S
C271 C268 1.603 . S
C271 H336 0.960 . S
C271 H337 0.962 . S
C271 H338 0.961 . S
C272 C239 1.587 . S
C272 C273 1.360 . S
C272 C285 1.412 . S
C273 C272 1.360 . S
C273 C274 1.365 . S
C273 H339 0.929 . S
C274 C249 1.553 . S
C274 C273 1.365 . S
C274 C275 1.404 . S
C275 C274 1.404 . S
C275 C276 1.395 . S
C275 C286 1.451 . S
C276 C275 1.395 . S
C276 C277 1.322 . S
C276 H340 0.930 . S
C277 C276 1.322 . S
C277 C278 1.459 . S
C277 H341 0.929 . S
C278 C277 1.459 . S
C278 C279 1.445 . S
C278 C287 1.395 . S
C279 C257 1.432 . S
C279 C278 1.445 . S
C279 C280 1.370 . S
C280 C279 1.370 . S
C280 C281 1.438 . S
C280 H342 0.930 . S
C281 C267 1.497 . S
C281 C280 1.438 . S
C281 C282 1.360 . S
C282 C281 1.360 . S
C282 C283 1.401 . S
C282 C287 1.446 . S
C283 C282 1.401 . S
C283 C284 1.347 . S
C283 H343 0.929 . S
C284 C283 1.347 . S
C284 C285 1.455 . S
C284 H344 0.930 . S
C285 C272 1.412 . S
C285 C284 1.455 . S
C285 C286 1.331 . S
C286 C275 1.451 . S
C286 C285 1.331 . S
C286 C287 1.497 . S
C287 C278 1.395 . S
C287 C282 1.446 . S
C287 C286 1.497 . S
C288 C289 1.582 . S
C288 H345 0.962 . S
C288 H346 0.959 . S
C288 H347 0.958 . S
C289 C288 1.582 . S
C289 O292 1.458 . S
C289 H318 0.980 . S
O290 C235 1.426 . S
O290 C236 1.334 . S
O291 C263 1.412 . S
O291 C264 1.393 . S
O292 C254 1.435 . S
O292 C289 1.458 . S
O293 C245 1.468 . S
O293 C246 1.408 . S
H294 C235 0.980 . S
H295 C234 0.959 . S
H296 C234 0.959 . S
H297 C234 0.960 . S
H298 C237 0.929 . S
H299 C241 0.929 . S
H300 C242 0.959 . S
H301 C242 0.961 . S
H302 C242 0.961 . S
H303 C243 0.960 . S
H304 C243 0.960 . S
H305 C243 0.961 . S
H306 C245 0.980 . S
H307 C244 0.961 . S
H308 C244 0.960 . S
H309 C244 0.959 . S
H310 C247 0.930 . S
H311 C251 0.931 . S
H312 C252 0.959 . S
H313 C252 0.961 . S
H314 C252 0.959 . S
H315 C253 0.960 . S
H316 C253 0.960 . S
H317 C253 0.960 . S
H318 C289 0.980 . S
H319 C255 0.930 . S
H320 C259 0.930 . S
H321 C260 0.961 . S
H322 C260 0.960 . S
H323 C260 0.958 . S
H324 C261 0.961 . S
H325 C261 0.960 . S
H326 C261 0.960 . S
H327 C263 0.980 . S
H328 C262 0.961 . S
H329 C262 0.961 . S
H330 C262 0.959 . S
H331 C265 0.932 . S
H332 C269 0.929 . S
H333 C270 0.961 . S
H334 C270 0.959 . S
H335 C270 0.959 . S
H336 C271 0.960 . S
H337 C271 0.962 . S
H338 C271 0.961 . S
H339 C273 0.929 . S
H340 C276 0.930 . S
H341 C277 0.929 . S
H342 C280 0.930 . S
H343 C283 0.929 . S
H344 C284 0.930 . S
H345 C288 0.962 . S
H346 C288 0.959 . S
H347 C288 0.958 . S
C348 C349 1.560 . S
C348 H409 0.959 . S
C348 H410 0.959 . S
C348 H411 0.960 . S
C349 C348 1.560 . S
C349 O404 1.426 . S
C349 H408 0.980 . S
C350 C351 1.407 . S
C350 C355 1.418 . S
C350 O404 1.334 . S
C351 C350 1.407 . S
C351 C352 1.360 . S
C351 H412 0.929 . S
C352 C351 1.360 . S
C352 C353 1.401 . S
C352 C356 1.527 . S
C353 C352 1.401 . S
C353 C354 1.405 . S
C353 C386 1.587 . S
C354 C353 1.405 . S
C354 C355 1.332 . S
C354 C357 1.496 . S
C355 C350 1.418 . S
C355 C354 1.332 . S
C355 H413 0.929 . S
C356 C352 1.527 . S
C356 H414 0.959 . S
C356 H415 0.961 . S
C356 H416 0.961 . S
C357 C354 1.496 . S
C357 H417 0.960 . S
C357 H418 0.960 . S
C357 H419 0.961 . S
C358 C359 1.517 . S
C358 H421 0.961 . S
C358 H422 0.960 . S
C358 H423 0.959 . S
C359 C358 1.517 . S
C359 O407 1.468 . S
C359 H420 0.980 . S
C360 C361 1.349 . S
C360 C365 1.367 . S
C360 O407 1.408 . S
C361 C360 1.349 . S
C361 C362 1.407 . S
C361 H424 0.930 . S
C362 C361 1.407 . S
C362 C363 1.449 . S
C362 C366 1.535 . S
C363 C362 1.449 . S
C363 C364 1.384 . S
C363 C388 1.553 . S
C364 C363 1.384 . S
C364 C365 1.364 . S
C364 C367 1.450 . S
C365 C360 1.367 . S
C365 C364 1.364 . S
C365 H425 0.931 . S
C366 C362 1.535 . S
C366 H426 0.959 . S
C366 H427 0.961 . S
C366 H428 0.959 . S
C367 C364 1.450 . S
C367 H429 0.960 . S
C367 H430 0.960 . S
C367 H431 0.960 . S
C368 C369 1.309 . S
C368 C373 1.304 . S
C368 O406 1.435 . S
C369 C368 1.309 . S
C369 C370 1.476 . S
C369 H433 0.930 . S
C370 C369 1.476 . S
C370 C371 1.400 . S
C370 C374 1.567 . S
C371 C370 1.400 . S
C371 C372 1.373 . S
C371 C393 1.432 . S
C372 C371 1.373 . S
C372 C373 1.339 . S
C372 C375 1.530 . S
C373 C368 1.304 . S
C373 C372 1.339 . S
C373 H434 0.930 . S
C374 C370 1.567 . S
C374 H435 0.961 . S
C374 H436 0.960 . S
C374 H437 0.958 . S
C375 C372 1.530 . S
C375 H438 0.961 . S
C375 H439 0.960 . S
C375 H440 0.960 . S
C376 C377 1.530 . S
C376 H442 0.961 . S
C376 H443 0.961 . S
C376 H444 0.959 . S
C377 C376 1.530 . S
C377 O405 1.412 . S
C377 H441 0.980 . S
C378 C379 1.288 . S
C378 C383 1.377 . S
C378 O405 1.393 . S
C379 C378 1.288 . S
C379 C380 1.369 . S
C379 H445 0.932 . S
C380 C379 1.369 . S
C380 C381 1.398 . S
C380 C384 1.527 . S
C381 C380 1.398 . S
C381 C382 1.380 . S
C381 C395 1.497 . S
C382 C381 1.380 . S
C382 C383 1.383 . S
C382 C385 1.603 . S
C383 C378 1.377 . S
C383 C382 1.383 . S
C383 H446 0.929 . S
C384 C380 1.527 . S
C384 H447 0.961 . S
C384 H448 0.959 . S
C384 H449 0.959 . S
C385 C382 1.603 . S
C385 H450 0.960 . S
C385 H451 0.962 . S
C385 H452 0.961 . S
C386 C353 1.587 . S
C386 C387 1.360 . S
C386 C399 1.412 . S
C387 C386 1.360 . S
C387 C388 1.365 . S
C387 H453 0.929 . S
C388 C363 1.553 . S
C388 C387 1.365 . S
C388 C389 1.404 . S
C389 C388 1.404 . S
C389 C390 1.395 . S
C389 C400 1.451 . S
C390 C389 1.395 . S
C390 C391 1.322 . S
C390 H454 0.930 . S
C391 C390 1.322 . S
C391 C392 1.459 . S
C391 H455 0.929 . S
C392 C391 1.459 . S
C392 C393 1.445 . S
C392 C401 1.395 . S
C393 C371 1.432 . S
C393 C392 1.445 . S
C393 C394 1.370 . S
C394 C393 1.370 . S
C394 C395 1.438 . S
C394 H456 0.930 . S
C395 C381 1.497 . S
C395 C394 1.438 . S
C395 C396 1.360 . S
C396 C395 1.360 . S
C396 C397 1.401 . S
C396 C401 1.446 . S
C397 C396 1.401 . S
C397 C398 1.347 . S
C397 H457 0.929 . S
C398 C397 1.347 . S
C398 C399 1.455 . S
C398 H458 0.930 . S
C399 C386 1.412 . S
C399 C398 1.455 . S
C399 C400 1.331 . S
C400 C389 1.451 . S
C400 C399 1.331 . S
C400 C401 1.497 . S
C401 C392 1.395 . S
C401 C396 1.446 . S
C401 C400 1.497 . S
C402 C403 1.582 . S
C402 H459 0.962 . S
C402 H460 0.959 . S
C402 H461 0.958 . S
C403 C402 1.582 . S
C403 O406 1.458 . S
C403 H432 0.980 . S
O404 C349 1.426 . S
O404 C350 1.334 . S
O405 C377 1.412 . S
O405 C378 1.393 . S
O406 C368 1.435 . S
O406 C403 1.458 . S
O407 C359 1.468 . S
O407 C360 1.408 . S
H408 C349 0.980 . S
H409 C348 0.959 . S
H410 C348 0.959 . S
H411 C348 0.960 . S
H412 C351 0.929 . S
H413 C355 0.929 . S
H414 C356 0.959 . S
H415 C356 0.961 . S
H416 C356 0.961 . S
H417 C357 0.960 . S
H418 C357 0.960 . S
H419 C357 0.961 . S
H420 C359 0.980 . S
H421 C358 0.961 . S
H422 C358 0.960 . S
H423 C358 0.959 . S
H424 C361 0.930 . S
H425 C365 0.931 . S
H426 C366 0.959 . S
H427 C366 0.961 . S
H428 C366 0.959 . S
H429 C367 0.960 . S
H430 C367 0.960 . S
H431 C367 0.960 . S
H432 C403 0.980 . S
H433 C369 0.930 . S
H434 C373 0.930 . S
H435 C374 0.961 . S
H436 C374 0.960 . S
H437 C374 0.958 . S
H438 C375 0.961 . S
H439 C375 0.960 . S
H440 C375 0.960 . S
H441 C377 0.980 . S
H442 C376 0.961 . S
H443 C376 0.961 . S
H444 C376 0.959 . S
H445 C379 0.932 . S
H446 C383 0.929 . S
H447 C384 0.961 . S
H448 C384 0.959 . S
H449 C384 0.959 . S
H450 C385 0.960 . S
H451 C385 0.962 . S
H452 C385 0.961 . S
H453 C387 0.929 . S
H454 C390 0.930 . S
H455 C391 0.929 . S
H456 C394 0.930 . S
H457 C397 0.929 . S
H458 C398 0.930 . S
H459 C402 0.962 . S
H460 C402 0.959 . S
H461 C402 0.958 . S
C462 C463 1.560 . S
C462 H523 0.959 . S
C462 H524 0.959 . S
C462 H525 0.960 . S
C463 C462 1.560 . S
C463 O518 1.426 . S
C463 H522 0.980 . S
C464 C465 1.407 . S
C464 C469 1.418 . S
C464 O518 1.334 . S
C465 C464 1.407 . S
C465 C466 1.360 . S
C465 H526 0.929 . S
C466 C465 1.360 . S
C466 C467 1.401 . S
C466 C470 1.527 . S
C467 C466 1.401 . S
C467 C468 1.405 . S
C467 C500 1.587 . S
C468 C467 1.405 . S
C468 C469 1.332 . S
C468 C471 1.496 . S
C469 C464 1.418 . S
C469 C468 1.332 . S
C469 H527 0.929 . S
C470 C466 1.527 . S
C470 H528 0.959 . S
C470 H529 0.961 . S
C470 H530 0.961 . S
C471 C468 1.496 . S
C471 H531 0.960 . S
C471 H532 0.960 . S
C471 H533 0.961 . S
C472 C473 1.517 . S
C472 H535 0.961 . S
C472 H536 0.960 . S
C472 H537 0.959 . S
C473 C472 1.517 . S
C473 O521 1.468 . S
C473 H534 0.980 . S
C474 C475 1.349 . S
C474 C479 1.367 . S
C474 O521 1.408 . S
C475 C474 1.349 . S
C475 C476 1.407 . S
C475 H538 0.930 . S
C476 C475 1.407 . S
C476 C477 1.449 . S
C476 C480 1.535 . S
C477 C476 1.449 . S
C477 C478 1.384 . S
C477 C502 1.553 . S
C478 C477 1.384 . S
C478 C479 1.364 . S
C478 C481 1.450 . S
C479 C474 1.367 . S
C479 C478 1.364 . S
C479 H539 0.931 . S
C480 C476 1.535 . S
C480 H540 0.959 . S
C480 H541 0.961 . S
C480 H542 0.959 . S
C481 C478 1.450 . S
C481 H543 0.960 . S
C481 H544 0.960 . S
C481 H545 0.960 . S
C482 C483 1.309 . S
C482 C487 1.304 . S
C482 O520 1.435 . S
C483 C482 1.309 . S
C483 C484 1.476 . S
C483 H547 0.930 . S
C484 C483 1.476 . S
C484 C485 1.400 . S
C484 C488 1.567 . S
C485 C484 1.400 . S
C485 C486 1.373 . S
C485 C507 1.432 . S
C486 C485 1.373 . S
C486 C487 1.339 . S
C486 C489 1.530 . S
C487 C482 1.304 . S
C487 C486 1.339 . S
C487 H548 0.930 . S
C488 C484 1.567 . S
C488 H549 0.961 . S
C488 H550 0.960 . S
C488 H551 0.958 . S
C489 C486 1.530 . S
C489 H552 0.961 . S
C489 H553 0.960 . S
C489 H554 0.960 . S
C490 C491 1.530 . S
C490 H556 0.961 . S
C490 H557 0.961 . S
C490 H558 0.959 . S
C491 C490 1.530 . S
C491 O519 1.412 . S
C491 H555 0.980 . S
C492 C493 1.288 . S
C492 C497 1.377 . S
C492 O519 1.393 . S
C493 C492 1.288 . S
C493 C494 1.369 . S
C493 H559 0.932 . S
C494 C493 1.369 . S
C494 C495 1.398 . S
C494 C498 1.527 . S
C495 C494 1.398 . S
C495 C496 1.380 . S
C495 C509 1.497 . S
C496 C495 1.380 . S
C496 C497 1.383 . S
C496 C499 1.603 . S
C497 C492 1.377 . S
C497 C496 1.383 . S
C497 H560 0.929 . S
C498 C494 1.527 . S
C498 H561 0.961 . S
C498 H562 0.959 . S
C498 H563 0.959 . S
C499 C496 1.603 . S
C499 H564 0.960 . S
C499 H565 0.962 . S
C499 H566 0.961 . S
C500 C467 1.587 . S
C500 C501 1.360 . S
C500 C513 1.412 . S
C501 C500 1.360 . S
C501 C502 1.365 . S
C501 H567 0.929 . S
C502 C477 1.553 . S
C502 C501 1.365 . S
C502 C503 1.404 . S
C503 C502 1.404 . S
C503 C504 1.395 . S
C503 C514 1.451 . S
C504 C503 1.395 . S
C504 C505 1.322 . S
C504 H568 0.930 . S
C505 C504 1.322 . S
C505 C506 1.459 . S
C505 H569 0.929 . S
C506 C505 1.459 . S
C506 C507 1.445 . S
C506 C515 1.395 . S
C507 C485 1.432 . S
C507 C506 1.445 . S
C507 C508 1.370 . S
C508 C507 1.370 . S
C508 C509 1.438 . S
C508 H570 0.930 . S
C509 C495 1.497 . S
C509 C508 1.438 . S
C509 C510 1.360 . S
C510 C509 1.360 . S
C510 C511 1.401 . S
C510 C515 1.446 . S
C511 C510 1.401 . S
C511 C512 1.347 . S
C511 H571 0.929 . S
C512 C511 1.347 . S
C512 C513 1.455 . S
C512 H572 0.930 . S
C513 C500 1.412 . S
C513 C512 1.455 . S
C513 C514 1.331 . S
C514 C503 1.451 . S
C514 C513 1.331 . S
C514 C515 1.497 . S
C515 C506 1.395 . S
C515 C510 1.446 . S
C515 C514 1.497 . S
C516 C517 1.582 . S
C516 H573 0.962 . S
C516 H574 0.959 . S
C516 H575 0.958 . S
C517 C516 1.582 . S
C517 O520 1.458 . S
C517 H546 0.980 . S
O518 C463 1.426 . S
O518 C464 1.334 . S
O519 C491 1.412 . S
O519 C492 1.393 . S
O520 C482 1.435 . S
O520 C517 1.458 . S
O521 C473 1.468 . S
O521 C474 1.408 . S
H522 C463 0.980 . S
H523 C462 0.959 . S
H524 C462 0.959 . S
H525 C462 0.960 . S
H526 C465 0.929 . S
H527 C469 0.929 . S
H528 C470 0.959 . S
H529 C470 0.961 . S
H530 C470 0.961 . S
H531 C471 0.960 . S
H532 C471 0.960 . S
H533 C471 0.961 . S
H534 C473 0.980 . S
H535 C472 0.961 . S
H536 C472 0.960 . S
H537 C472 0.959 . S
H538 C475 0.930 . S
H539 C479 0.931 . S
H540 C480 0.959 . S
H541 C480 0.961 . S
H542 C480 0.959 . S
H543 C481 0.960 . S
H544 C481 0.960 . S
H545 C481 0.960 . S
H546 C517 0.980 . S
H547 C483 0.930 . S
H548 C487 0.930 . S
H549 C488 0.961 . S
H550 C488 0.960 . S
H551 C488 0.958 . S
H552 C489 0.961 . S
H553 C489 0.960 . S
H554 C489 0.960 . S
H555 C491 0.980 . S
H556 C490 0.961 . S
H557 C490 0.961 . S
H558 C490 0.959 . S
H559 C493 0.932 . S
H560 C497 0.929 . S
H561 C498 0.961 . S
H562 C498 0.959 . S
H563 C498 0.959 . S
H564 C499 0.960 . S
H565 C499 0.962 . S
H566 C499 0.961 . S
H567 C501 0.929 . S
H568 C504 0.930 . S
H569 C505 0.929 . S
H570 C508 0.930 . S
H571 C511 0.929 . S
H572 C512 0.930 . S
H573 C516 0.962 . S
H574 C516 0.959 . S
H575 C516 0.958 . S
C576 C577 1.560 . S
C576 H637 0.959 . S
C576 H638 0.959 . S
C576 H639 0.960 . S
C577 C576 1.560 . S
C577 O632 1.426 . S
C577 H636 0.980 . S
C578 C579 1.407 . S
C578 C583 1.418 . S
C578 O632 1.334 . S
C579 C578 1.407 . S
C579 C580 1.360 . S
C579 H640 0.929 . S
C580 C579 1.360 . S
C580 C581 1.401 . S
C580 C584 1.527 . S
C581 C580 1.401 . S
C581 C582 1.405 . S
C581 C614 1.587 . S
C582 C581 1.405 . S
C582 C583 1.332 . S
C582 C585 1.496 . S
C583 C578 1.418 . S
C583 C582 1.332 . S
C583 H641 0.929 . S
C584 C580 1.527 . S
C584 H642 0.959 . S
C584 H643 0.961 . S
C584 H644 0.961 . S
C585 C582 1.496 . S
C585 H645 0.960 . S
C585 H646 0.960 . S
C585 H647 0.961 . S
C586 C587 1.517 . S
C586 H649 0.961 . S
C586 H650 0.960 . S
C586 H651 0.959 . S
C587 C586 1.517 . S
C587 O635 1.468 . S
C587 H648 0.980 . S
C588 C589 1.349 . S
C588 C593 1.367 . S
C588 O635 1.408 . S
C589 C588 1.349 . S
C589 C590 1.407 . S
C589 H652 0.930 . S
C590 C589 1.407 . S
C590 C591 1.449 . S
C590 C594 1.535 . S
C591 C590 1.449 . S
C591 C592 1.384 . S
C591 C616 1.553 . S
C592 C591 1.384 . S
C592 C593 1.364 . S
C592 C595 1.450 . S
C593 C588 1.367 . S
C593 C592 1.364 . S
C593 H653 0.931 . S
C594 C590 1.535 . S
C594 H654 0.959 . S
C594 H655 0.961 . S
C594 H656 0.959 . S
C595 C592 1.450 . S
C595 H657 0.960 . S
C595 H658 0.960 . S
C595 H659 0.960 . S
C596 C597 1.309 . S
C596 C601 1.304 . S
C596 O634 1.435 . S
C597 C596 1.309 . S
C597 C598 1.476 . S
C597 H661 0.930 . S
C598 C597 1.476 . S
C598 C599 1.400 . S
C598 C602 1.567 . S
C599 C598 1.400 . S
C599 C600 1.373 . S
C599 C621 1.432 . S
C600 C599 1.373 . S
C600 C601 1.339 . S
C600 C603 1.530 . S
C601 C596 1.304 . S
C601 C600 1.339 . S
C601 H662 0.930 . S
C602 C598 1.567 . S
C602 H663 0.961 . S
C602 H664 0.960 . S
C602 H665 0.958 . S
C603 C600 1.530 . S
C603 H666 0.961 . S
C603 H667 0.960 . S
C603 H668 0.960 . S
C604 C605 1.530 . S
C604 H670 0.961 . S
C604 H671 0.961 . S
C604 H672 0.959 . S
C605 C604 1.530 . S
C605 O633 1.412 . S
C605 H669 0.980 . S
C606 C607 1.288 . S
C606 C611 1.377 . S
C606 O633 1.393 . S
C607 C606 1.288 . S
C607 C608 1.369 . S
C607 H673 0.932 . S
C608 C607 1.369 . S
C608 C609 1.398 . S
C608 C612 1.527 . S
C609 C608 1.398 . S
C609 C610 1.380 . S
C609 C623 1.497 . S
C610 C609 1.380 . S
C610 C611 1.383 . S
C610 C613 1.603 . S
C611 C606 1.377 . S
C611 C610 1.383 . S
C611 H674 0.929 . S
C612 C608 1.527 . S
C612 H675 0.961 . S
C612 H676 0.959 . S
C612 H677 0.959 . S
C613 C610 1.603 . S
C613 H678 0.960 . S
C613 H679 0.962 . S
C613 H680 0.961 . S
C614 C581 1.587 . S
C614 C615 1.360 . S
C614 C627 1.412 . S
C615 C614 1.360 . S
C615 C616 1.365 . S
C615 H681 0.929 . S
C616 C591 1.553 . S
C616 C615 1.365 . S
C616 C617 1.404 . S
C617 C616 1.404 . S
C617 C618 1.395 . S
C617 C628 1.451 . S
C618 C617 1.395 . S
C618 C619 1.322 . S
C618 H682 0.930 . S
C619 C618 1.322 . S
C619 C620 1.459 . S
C619 H683 0.929 . S
C620 C619 1.459 . S
C620 C621 1.445 . S
C620 C629 1.395 . S
C621 C599 1.432 . S
C621 C620 1.445 . S
C621 C622 1.370 . S
C622 C621 1.370 . S
C622 C623 1.438 . S
C622 H684 0.930 . S
C623 C609 1.497 . S
C623 C622 1.438 . S
C623 C624 1.360 . S
C624 C623 1.360 . S
C624 C625 1.401 . S
C624 C629 1.446 . S
C625 C624 1.401 . S
C625 C626 1.347 . S
C625 H685 0.929 . S
C626 C625 1.347 . S
C626 C627 1.455 . S
C626 H686 0.930 . S
C627 C614 1.412 . S
C627 C626 1.455 . S
C627 C628 1.331 . S
C628 C617 1.451 . S
C628 C627 1.331 . S
C628 C629 1.497 . S
C629 C620 1.395 . S
C629 C624 1.446 . S
C629 C628 1.497 . S
C630 C631 1.582 . S
C630 H687 0.962 . S
C630 H688 0.959 . S
C630 H689 0.958 . S
C631 C630 1.582 . S
C631 O634 1.458 . S
C631 H660 0.980 . S
O632 C577 1.426 . S
O632 C578 1.334 . S
O633 C605 1.412 . S
O633 C606 1.393 . S
O634 C596 1.435 . S
O634 C631 1.458 . S
O635 C587 1.468 . S
O635 C588 1.408 . S
H636 C577 0.980 . S
H637 C576 0.959 . S
H638 C576 0.959 . S
H639 C576 0.960 . S
H640 C579 0.929 . S
H641 C583 0.929 . S
H642 C584 0.959 . S
H643 C584 0.961 . S
H644 C584 0.961 . S
H645 C585 0.960 . S
H646 C585 0.960 . S
H647 C585 0.961 . S
H648 C587 0.980 . S
H649 C586 0.961 . S
H650 C586 0.960 . S
H651 C586 0.959 . S
H652 C589 0.930 . S
H653 C593 0.931 . S
H654 C594 0.959 . S
H655 C594 0.961 . S
H656 C594 0.959 . S
H657 C595 0.960 . S
H658 C595 0.960 . S
H659 C595 0.960 . S
H660 C631 0.980 . S
H661 C597 0.930 . S
H662 C601 0.930 . S
H663 C602 0.961 . S
H664 C602 0.960 . S
H665 C602 0.958 . S
H666 C603 0.961 . S
H667 C603 0.960 . S
H668 C603 0.960 . S
H669 C605 0.980 . S
H670 C604 0.961 . S
H671 C604 0.961 . S
H672 C604 0.959 . S
H673 C607 0.932 . S
H674 C611 0.929 . S
H675 C612 0.961 . S
H676 C612 0.959 . S
H677 C612 0.959 . S
H678 C613 0.960 . S
H679 C613 0.962 . S
H680 C613 0.961 . S
H681 C615 0.929 . S
H682 C618 0.930 . S
H683 C619 0.929 . S
H684 C622 0.930 . S
H685 C625 0.929 . S
H686 C626 0.930 . S
H687 C630 0.962 . S
H688 C630 0.959 . S
H689 C630 0.958 . S
C690 C691 1.560 . S
C690 H751 0.959 . S
C690 H752 0.959 . S
C690 H753 0.960 . S
C691 C690 1.560 . S
C691 O746 1.426 . S
C691 H750 0.980 . S
C692 C693 1.407 . S
C692 C697 1.418 . S
C692 O746 1.334 . S
C693 C692 1.407 . S
C693 C694 1.360 . S
C693 H754 0.929 . S
C694 C693 1.360 . S
C694 C695 1.401 . S
C694 C698 1.527 . S
C695 C694 1.401 . S
C695 C696 1.405 . S
C695 C728 1.587 . S
C696 C695 1.405 . S
C696 C697 1.332 . S
C696 C699 1.496 . S
C697 C692 1.418 . S
C697 C696 1.332 . S
C697 H755 0.929 . S
C698 C694 1.527 . S
C698 H756 0.959 . S
C698 H757 0.961 . S
C698 H758 0.961 . S
C699 C696 1.496 . S
C699 H759 0.960 . S
C699 H760 0.960 . S
C699 H761 0.961 . S
C700 C701 1.517 . S
C700 H763 0.961 . S
C700 H764 0.960 . S
C700 H765 0.959 . S
C701 C700 1.517 . S
C701 O749 1.468 . S
C701 H762 0.980 . S
C702 C703 1.349 . S
C702 C707 1.367 . S
C702 O749 1.408 . S
C703 C702 1.349 . S
C703 C704 1.407 . S
C703 H766 0.930 . S
C704 C703 1.407 . S
C704 C705 1.449 . S
C704 C708 1.535 . S
C705 C704 1.449 . S
C705 C706 1.384 . S
C705 C730 1.553 . S
C706 C705 1.384 . S
C706 C707 1.364 . S
C706 C709 1.450 . S
C707 C702 1.367 . S
C707 C706 1.364 . S
C707 H767 0.931 . S
C708 C704 1.535 . S
C708 H768 0.959 . S
C708 H769 0.961 . S
C708 H770 0.959 . S
C709 C706 1.450 . S
C709 H771 0.960 . S
C709 H772 0.960 . S
C709 H773 0.960 . S
C710 C711 1.309 . S
C710 C715 1.304 . S
C710 O748 1.435 . S
C711 C710 1.309 . S
C711 C712 1.476 . S
C711 H775 0.930 . S
C712 C711 1.476 . S
C712 C713 1.400 . S
C712 C716 1.567 . S
C713 C712 1.400 . S
C713 C714 1.373 . S
C713 C735 1.432 . S
C714 C713 1.373 . S
C714 C715 1.339 . S
C714 C717 1.530 . S
C715 C710 1.304 . S
C715 C714 1.339 . S
C715 H776 0.930 . S
C716 C712 1.567 . S
C716 H777 0.961 . S
C716 H778 0.960 . S
C716 H779 0.958 . S
C717 C714 1.530 . S
C717 H780 0.961 . S
C717 H781 0.960 . S
C717 H782 0.960 . S
C718 C719 1.530 . S
C718 H784 0.961 . S
C718 H785 0.961 . S
C718 H786 0.959 . S
C719 C718 1.530 . S
C719 O747 1.412 . S
C719 H783 0.980 . S
C720 C721 1.288 . S
C720 C725 1.377 . S
C720 O747 1.393 . S
C721 C720 1.288 . S
C721 C722 1.369 . S
C721 H787 0.932 . S
C722 C721 1.369 . S
C722 C723 1.398 . S
C722 C726 1.527 . S
C723 C722 1.398 . S
C723 C724 1.380 . S
C723 C737 1.497 . S
C724 C723 1.380 . S
C724 C725 1.383 . S
C724 C727 1.603 . S
C725 C720 1.377 . S
C725 C724 1.383 . S
C725 H788 0.929 . S
C726 C722 1.527 . S
C726 H789 0.961 . S
C726 H790 0.959 . S
C726 H791 0.959 . S
C727 C724 1.603 . S
C727 H792 0.960 . S
C727 H793 0.962 . S
C727 H794 0.961 . S
C728 C695 1.587 . S
C728 C729 1.360 . S
C728 C741 1.412 . S
C729 C728 1.360 . S
C729 C730 1.365 . S
C729 H795 0.929 . S
C730 C705 1.553 . S
C730 C729 1.365 . S
C730 C731 1.404 . S
C731 C730 1.404 . S
C731 C732 1.395 . S
C731 C742 1.451 . S
C732 C731 1.395 . S
C732 C733 1.322 . S
C732 H796 0.930 . S
C733 C732 1.322 . S
C733 C734 1.459 . S
C733 H797 0.929 . S
C734 C733 1.459 . S
C734 C735 1.445 . S
C734 C743 1.395 . S
C735 C713 1.432 . S
C735 C734 1.445 . S
C735 C736 1.370 . S
C736 C735 1.370 . S
C736 C737 1.438 . S
C736 H798 0.930 . S
C737 C723 1.497 . S
C737 C736 1.438 . S
C737 C738 1.360 . S
C738 C737 1.360 . S
C738 C739 1.401 . S
C738 C743 1.446 . S
C739 C738 1.401 . S
C739 C740 1.347 . S
C739 H799 0.929 . S
C740 C739 1.347 . S
C740 C741 1.455 . S
C740 H800 0.930 . S
C741 C728 1.412 . S
C741 C740 1.455 . S
C741 C742 1.331 . S
C742 C731 1.451 . S
C742 C741 1.331 . S
C742 C743 1.497 . S
C743 C734 1.395 . S
C743 C738 1.446 . S
C743 C742 1.497 . S
C744 C745 1.582 . S
C744 H801 0.962 . S
C744 H802 0.959 . S
C744 H803 0.958 . S
C745 C744 1.582 . S
C745 O748 1.458 . S
C745 H774 0.980 . S
O746 C691 1.426 . S
O746 C692 1.334 . S
O747 C719 1.412 . S
O747 C720 1.393 . S
O748 C710 1.435 . S
O748 C745 1.458 . S
O749 C701 1.468 . S
O749 C702 1.408 . S
H750 C691 0.980 . S
H751 C690 0.959 . S
H752 C690 0.959 . S
H753 C690 0.960 . S
H754 C693 0.929 . S
H755 C697 0.929 . S
H756 C698 0.959 . S
H757 C698 0.961 . S
H758 C698 0.961 . S
H759 C699 0.960 . S
H760 C699 0.960 . S
H761 C699 0.961 . S
H762 C701 0.980 . S
H763 C700 0.961 . S
H764 C700 0.960 . S
H765 C700 0.959 . S
H766 C703 0.930 . S
H767 C707 0.931 . S
H768 C708 0.959 . S
H769 C708 0.961 . S
H770 C708 0.959 . S
H771 C709 0.960 . S
H772 C709 0.960 . S
H773 C709 0.960 . S
H774 C745 0.980 . S
H775 C711 0.930 . S
H776 C715 0.930 . S
H777 C716 0.961 . S
H778 C716 0.960 . S
H779 C716 0.958 . S
H780 C717 0.961 . S
H781 C717 0.960 . S
H782 C717 0.960 . S
H783 C719 0.980 . S
H784 C718 0.961 . S
H785 C718 0.961 . S
H786 C718 0.959 . S
H787 C721 0.932 . S
H788 C725 0.929 . S
H789 C726 0.961 . S
H790 C726 0.959 . S
H791 C726 0.959 . S
H792 C727 0.960 . S
H793 C727 0.962 . S
H794 C727 0.961 . S
H795 C729 0.929 . S
H796 C732 0.930 . S
H797 C733 0.929 . S
H798 C736 0.930 . S
H799 C739 0.929 . S
H800 C740 0.930 . S
H801 C744 0.962 . S
H802 C744 0.959 . S
H803 C744 0.958 . S
C804 C805 1.560 . S
C804 H865 0.959 . S
C804 H866 0.959 . S
C804 H867 0.960 . S
C805 C804 1.560 . S
C805 O860 1.426 . S
C805 H864 0.980 . S
C806 C807 1.407 . S
C806 C811 1.418 . S
C806 O860 1.334 . S
C807 C806 1.407 . S
C807 C808 1.360 . S
C807 H868 0.929 . S
C808 C807 1.360 . S
C808 C809 1.401 . S
C808 C812 1.527 . S
C809 C808 1.401 . S
C809 C810 1.405 . S
C809 C842 1.587 . S
C810 C809 1.405 . S
C810 C811 1.332 . S
C810 C813 1.496 . S
C811 C806 1.418 . S
C811 C810 1.332 . S
C811 H869 0.929 . S
C812 C808 1.527 . S
C812 H870 0.959 . S
C812 H871 0.961 . S
C812 H872 0.961 . S
C813 C810 1.496 . S
C813 H873 0.960 . S
C813 H874 0.960 . S
C813 H875 0.961 . S
C814 C815 1.517 . S
C814 H877 0.961 . S
C814 H878 0.960 . S
C814 H879 0.959 . S
C815 C814 1.517 . S
C815 O863 1.468 . S
C815 H876 0.980 . S
C816 C817 1.349 . S
C816 C821 1.367 . S
C816 O863 1.408 . S
C817 C816 1.349 . S
C817 C818 1.407 . S
C817 H880 0.930 . S
C818 C817 1.407 . S
C818 C819 1.449 . S
C818 C822 1.535 . S
C819 C818 1.449 . S
C819 C820 1.384 . S
C819 C844 1.553 . S
C820 C819 1.384 . S
C820 C821 1.364 . S
C820 C823 1.450 . S
C821 C816 1.367 . S
C821 C820 1.364 . S
C821 H881 0.931 . S
C822 C818 1.535 . S
C822 H882 0.959 . S
C822 H883 0.961 . S
C822 H884 0.959 . S
C823 C820 1.450 . S
C823 H885 0.960 . S
C823 H886 0.960 . S
C823 H887 0.960 . S
C824 C825 1.309 . S
C824 C829 1.304 . S
C824 O862 1.435 . S
C825 C824 1.309 . S
C825 C826 1.476 . S
C825 H889 0.930 . S
C826 C825 1.476 . S
C826 C827 1.400 . S
C826 C830 1.567 . S
C827 C826 1.400 . S
C827 C828 1.373 . S
C827 C849 1.432 . S
C828 C827 1.373 . S
C828 C829 1.339 . S
C828 C831 1.530 . S
C829 C824 1.304 . S
C829 C828 1.339 . S
C829 H890 0.930 . S
C830 C826 1.567 . S
C830 H891 0.961 . S
C830 H892 0.960 . S
C830 H893 0.958 . S
C831 C828 1.530 . S
C831 H894 0.961 . S
C831 H895 0.960 . S
C831 H896 0.960 . S
C832 C833 1.530 . S
C832 H898 0.961 . S
C832 H899 0.961 . S
C832 H900 0.959 . S
C833 C832 1.530 . S
C833 O861 1.412 . S
C833 H897 0.980 . S
C834 C835 1.288 . S
C834 C839 1.377 . S
C834 O861 1.393 . S
C835 C834 1.288 . S
C835 C836 1.369 . S
C835 H901 0.932 . S
C836 C835 1.369 . S
C836 C837 1.398 . S
C836 C840 1.527 . S
C837 C836 1.398 . S
C837 C838 1.380 . S
C837 C851 1.497 . S
C838 C837 1.380 . S
C838 C839 1.383 . S
C838 C841 1.603 . S
C839 C834 1.377 . S
C839 C838 1.383 . S
C839 H902 0.929 . S
C840 C836 1.527 . S
C840 H903 0.961 . S
C840 H904 0.959 . S
C840 H905 0.959 . S
C841 C838 1.603 . S
C841 H906 0.960 . S
C841 H907 0.962 . S
C841 H908 0.961 . S
C842 C809 1.587 . S
C842 C843 1.360 . S
C842 C855 1.412 . S
C843 C842 1.360 . S
C843 C844 1.365 . S
C843 H909 0.929 . S
C844 C819 1.553 . S
C844 C843 1.365 . S
C844 C845 1.404 . S
C845 C844 1.404 . S
C845 C846 1.395 . S
C845 C856 1.451 . S
C846 C845 1.395 . S
C846 C847 1.322 . S
C846 H910 0.930 . S
C847 C846 1.322 . S
C847 C848 1.459 . S
C847 H911 0.929 . S
C848 C847 1.459 . S
C848 C849 1.445 . S
C848 C857 1.395 . S
C849 C827 1.432 . S
C849 C848 1.445 . S
C849 C850 1.370 . S
C850 C849 1.370 . S
C850 C851 1.438 . S
C850 H912 0.930 . S
C851 C837 1.497 . S
C851 C850 1.438 . S
C851 C852 1.360 . S
C852 C851 1.360 . S
C852 C853 1.401 . S
C852 C857 1.446 . S
C853 C852 1.401 . S
C853 C854 1.347 . S
C853 H913 0.929 . S
C854 C853 1.347 . S
C854 C855 1.455 . S
C854 H914 0.930 . S
C855 C842 1.412 . S
C855 C854 1.455 . S
C855 C856 1.331 . S
C856 C845 1.451 . S
C856 C855 1.331 . S
C856 C857 1.497 . S
C857 C848 1.395 . S
C857 C852 1.446 . S
C857 C856 1.497 . S
C858 C859 1.582 . S
C858 H915 0.962 . S
C858 H916 0.959 . S
C858 H917 0.958 . S
C859 C858 1.582 . S
C859 O862 1.458 . S
C859 H888 0.980 . S
O860 C805 1.426 . S
O860 C806 1.334 . S
O861 C833 1.412 . S
O861 C834 1.393 . S
O862 C824 1.435 . S
O862 C859 1.458 . S
O863 C815 1.468 . S
O863 C816 1.408 . S
H864 C805 0.980 . S
H865 C804 0.959 . S
H866 C804 0.959 . S
H867 C804 0.960 . S
H868 C807 0.929 . S
H869 C811 0.929 . S
H870 C812 0.959 . S
H871 C812 0.961 . S
H872 C812 0.961 . S
H873 C813 0.960 . S
H874 C813 0.960 . S
H875 C813 0.961 . S
H876 C815 0.980 . S
H877 C814 0.961 . S
H878 C814 0.960 . S
H879 C814 0.959 . S
H880 C817 0.930 . S
H881 C821 0.931 . S
H882 C822 0.959 . S
H883 C822 0.961 . S
H884 C822 0.959 . S
H885 C823 0.960 . S
H886 C823 0.960 . S
H887 C823 0.960 . S
H888 C859 0.980 . S
H889 C825 0.930 . S
H890 C829 0.930 . S
H891 C830 0.961 . S
H892 C830 0.960 . S
H893 C830 0.958 . S
H894 C831 0.961 . S
H895 C831 0.960 . S
H896 C831 0.960 . S
H897 C833 0.980 . S
H898 C832 0.961 . S
H899 C832 0.961 . S
H900 C832 0.959 . S
H901 C835 0.932 . S
H902 C839 0.929 . S
H903 C840 0.961 . S
H904 C840 0.959 . S
H905 C840 0.959 . S
H906 C841 0.960 . S
H907 C841 0.962 . S
H908 C841 0.961 . S
H909 C843 0.929 . S
H910 C846 0.930 . S
H911 C847 0.929 . S
H912 C850 0.930 . S
H913 C853 0.929 . S
H914 C854 0.930 . S
H915 C858 0.962 . S
H916 C858 0.959 . S
H917 C858 0.958 . S
C918 C919 1.560 . S
C918 H979 0.959 . S
C918 H980 0.959 . S
C918 H981 0.960 . S
C919 C918 1.560 . S
C919 O974 1.426 . S
C919 H978 0.980 . S
C920 C921 1.407 . S
C920 C925 1.418 . S
C920 O974 1.334 . S
C921 C920 1.407 . S
C921 C922 1.360 . S
C921 H982 0.929 . S
C922 C921 1.360 . S
C922 C923 1.401 . S
C922 C926 1.527 . S
C923 C922 1.401 . S
C923 C924 1.405 . S
C923 C956 1.587 . S
C924 C923 1.405 . S
C924 C925 1.332 . S
C924 C927 1.496 . S
C925 C920 1.418 . S
C925 C924 1.332 . S
C925 H983 0.929 . S
C926 C922 1.527 . S
C926 H984 0.959 . S
C926 H985 0.961 . S
C926 H986 0.961 . S
C927 C924 1.496 . S
C927 H987 0.960 . S
C927 H988 0.960 . S
C927 H989 0.961 . S
C928 C929 1.517 . S
C928 H991 0.961 . S
C928 H992 0.960 . S
C928 H993 0.959 . S
C929 C928 1.517 . S
C929 O977 1.468 . S
C929 H990 0.980 . S
C930 C931 1.349 . S
C930 C935 1.367 . S
C930 O977 1.408 . S
C931 C930 1.349 . S
C931 C932 1.407 . S
C931 H994 0.930 . S
C932 C931 1.407 . S
C932 C933 1.449 . S
C932 C936 1.535 . S
C933 C932 1.449 . S
C933 C934 1.384 . S
C933 C958 1.553 . S
C934 C933 1.384 . S
C934 C935 1.364 . S
C934 C937 1.450 . S
C935 C930 1.367 . S
C935 C934 1.364 . S
C935 H995 0.931 . S
C936 C932 1.535 . S
C936 H996 0.959 . S
C936 H997 0.961 . S
C936 H998 0.959 . S
C937 C934 1.450 . S
C937 H999 0.960 . S
C937 H1000 0.960 . S
C937 H1001 0.960 . S
C938 C939 1.309 . S
C938 C943 1.304 . S
C938 O976 1.435 . S
C939 C938 1.309 . S
C939 C940 1.476 . S
C939 H1003 0.930 . S
C940 C939 1.476 . S
C940 C941 1.400 . S
C940 C944 1.567 . S
C941 C940 1.400 . S
C941 C942 1.373 . S
C941 C963 1.432 . S
C942 C941 1.373 . S
C942 C943 1.339 . S
C942 C945 1.530 . S
C943 C938 1.304 . S
C943 C942 1.339 . S
C943 H1004 0.930 . S
C944 C940 1.567 . S
C944 H1005 0.961 . S
C944 H1006 0.960 . S
C944 H1007 0.958 . S
C945 C942 1.530 . S
C945 H1008 0.961 . S
C945 H1009 0.960 . S
C945 H1010 0.960 . S
C946 C947 1.530 . S
C946 H1012 0.961 . S
C946 H1013 0.961 . S
C946 H1014 0.959 . S
C947 C946 1.530 . S
C947 O975 1.412 . S
C947 H1011 0.980 . S
C948 C949 1.288 . S
C948 C953 1.377 . S
C948 O975 1.393 . S
C949 C948 1.288 . S
C949 C950 1.369 . S
C949 H1015 0.932 . S
C950 C949 1.369 . S
C950 C951 1.398 . S
C950 C954 1.527 . S
C951 C950 1.398 . S
C951 C952 1.380 . S
C951 C965 1.497 . S
C952 C951 1.380 . S
C952 C953 1.383 . S
C952 C955 1.603 . S
C953 C948 1.377 . S
C953 C952 1.383 . S
C953 H1016 0.929 . S
C954 C950 1.527 . S
C954 H1017 0.961 . S
C954 H1018 0.959 . S
C954 H1019 0.959 . S
C955 C952 1.603 . S
C955 H1020 0.960 . S
C955 H1021 0.962 . S
C955 H1022 0.961 . S
C956 C923 1.587 . S
C956 C957 1.360 . S
C956 C969 1.412 . S
C957 C956 1.360 . S
C957 C958 1.365 . S
C957 H1023 0.929 . S
C958 C933 1.553 . S
C958 C957 1.365 . S
C958 C959 1.404 . S
C959 C958 1.404 . S
C959 C960 1.395 . S
C959 C970 1.451 . S
C960 C959 1.395 . S
C960 C961 1.322 . S
C960 H1024 0.930 . S
C961 C960 1.322 . S
C961 C962 1.459 . S
C961 H1025 0.929 . S
C962 C961 1.459 . S
C962 C963 1.445 . S
C962 C971 1.395 . S
C963 C941 1.432 . S
C963 C962 1.445 . S
C963 C964 1.370 . S
C964 C963 1.370 . S
C964 C965 1.438 . S
C964 H1026 0.930 . S
C965 C951 1.497 . S
C965 C964 1.438 . S
C965 C966 1.360 . S
C966 C965 1.360 . S
C966 C967 1.401 . S
C966 C971 1.446 . S
C967 C966 1.401 . S
C967 C968 1.347 . S
C967 H1027 0.929 . S
C968 C967 1.347 . S
C968 C969 1.455 . S
C968 H1028 0.930 . S
C969 C956 1.412 . S
C969 C968 1.455 . S
C969 C970 1.331 . S
C970 C959 1.451 . S
C970 C969 1.331 . S
C970 C971 1.497 . S
C971 C962 1.395 . S
C971 C966 1.446 . S
C971 C970 1.497 . S
C972 C973 1.582 . S
C972 H1029 0.962 . S
C972 H1030 0.959 . S
C972 H1031 0.958 . S
C973 C972 1.582 . S
C973 O976 1.458 . S
C973 H1002 0.980 . S
O974 C919 1.426 . S
O974 C920 1.334 . S
O975 C947 1.412 . S
O975 C948 1.393 . S
O976 C938 1.435 . S
O976 C973 1.458 . S
O977 C929 1.468 . S
O977 C930 1.408 . S
H978 C919 0.980 . S
H979 C918 0.959 . S
H980 C918 0.959 . S
H981 C918 0.960 . S
H982 C921 0.929 . S
H983 C925 0.929 . S
H984 C926 0.959 . S
H985 C926 0.961 . S
H986 C926 0.961 . S
H987 C927 0.960 . S
H988 C927 0.960 . S
H989 C927 0.961 . S
H990 C929 0.980 . S
H991 C928 0.961 . S
H992 C928 0.960 . S
H993 C928 0.959 . S
H994 C931 0.930 . S
H995 C935 0.931 . S
H996 C936 0.959 . S
H997 C936 0.961 . S
H998 C936 0.959 . S
H999 C937 0.960 . S
H1000 C937 0.960 . S
H1001 C937 0.960 . S
H1002 C973 0.980 . S
H1003 C939 0.930 . S
H1004 C943 0.930 . S
H1005 C944 0.961 . S
H1006 C944 0.960 . S
H1007 C944 0.958 . S
H1008 C945 0.961 . S
H1009 C945 0.960 . S
H1010 C945 0.960 . S
H1011 C947 0.980 . S
H1012 C946 0.961 . S
H1013 C946 0.961 . S
H1014 C946 0.959 . S
H1015 C949 0.932 . S
H1016 C953 0.929 . S
H1017 C954 0.961 . S
H1018 C954 0.959 . S
H1019 C954 0.959 . S
H1020 C955 0.960 . S
H1021 C955 0.962 . S
H1022 C955 0.961 . S
H1023 C957 0.929 . S
H1024 C960 0.930 . S
H1025 C961 0.929 . S
H1026 C964 0.930 . S
H1027 C967 0.929 . S
H1028 C968 0.930 . S
H1029 C972 0.962 . S
H1030 C972 0.959 . S
H1031 C972 0.958 . S
C1032 C1033 1.560 . S
C1032 H1093 0.959 . S
C1032 H1094 0.959 . S
C1032 H1095 0.960 . S
C1033 C1032 1.560 . S
C1033 O1088 1.426 . S
C1033 H1092 0.980 . S
C1034 C1035 1.407 . S
C1034 C1039 1.418 . S
C1034 O1088 1.334 . S
C1035 C1034 1.407 . S
C1035 C1036 1.360 . S
C1035 H1096 0.929 . S
C1036 C1035 1.360 . S
C1036 C1037 1.401 . S
C1036 C1040 1.527 . S
C1037 C1036 1.401 . S
C1037 C1038 1.405 . S
C1037 C1070 1.587 . S
C1038 C1037 1.405 . S
C1038 C1039 1.332 . S
C1038 C1041 1.496 . S
C1039 C1034 1.418 . S
C1039 C1038 1.332 . S
C1039 H1097 0.929 . S
C1040 C1036 1.527 . S
C1040 H1098 0.959 . S
C1040 H1099 0.961 . S
C1040 H1100 0.961 . S
C1041 C1038 1.496 . S
C1041 H1101 0.960 . S
C1041 H1102 0.960 . S
C1041 H1103 0.961 . S
C1042 C1043 1.517 . S
C1042 H1105 0.961 . S
C1042 H1106 0.960 . S
C1042 H1107 0.959 . S
C1043 C1042 1.517 . S
C1043 O1091 1.468 . S
C1043 H1104 0.980 . S
C1044 C1045 1.349 . S
C1044 C1049 1.367 . S
C1044 O1091 1.408 . S
C1045 C1044 1.349 . S
C1045 C1046 1.407 . S
C1045 H1108 0.930 . S
C1046 C1045 1.407 . S
C1046 C1047 1.449 . S
C1046 C1050 1.535 . S
C1047 C1046 1.449 . S
C1047 C1048 1.384 . S
C1047 C1072 1.553 . S
C1048 C1047 1.384 . S
C1048 C1049 1.364 . S
C1048 C1051 1.450 . S
C1049 C1044 1.367 . S
C1049 C1048 1.364 . S
C1049 H1109 0.931 . S
C1050 C1046 1.535 . S
C1050 H1110 0.959 . S
C1050 H1111 0.961 . S
C1050 H1112 0.959 . S
C1051 C1048 1.450 . S
C1051 H1113 0.960 . S
C1051 H1114 0.960 . S
C1051 H1115 0.960 . S
C1052 C1053 1.309 . S
C1052 C1057 1.304 . S
C1052 O1090 1.435 . S
C1053 C1052 1.309 . S
C1053 C1054 1.476 . S
C1053 H1117 0.930 . S
C1054 C1053 1.476 . S
C1054 C1055 1.400 . S
C1054 C1058 1.567 . S
C1055 C1054 1.400 . S
C1055 C1056 1.373 . S
C1055 C1077 1.432 . S
C1056 C1055 1.373 . S
C1056 C1057 1.339 . S
C1056 C1059 1.530 . S
C1057 C1052 1.304 . S
C1057 C1056 1.339 . S
C1057 H1118 0.930 . S
C1058 C1054 1.567 . S
C1058 H1119 0.961 . S
C1058 H1120 0.960 . S
C1058 H1121 0.958 . S
C1059 C1056 1.530 . S
C1059 H1122 0.961 . S
C1059 H1123 0.960 . S
C1059 H1124 0.960 . S
C1060 C1061 1.530 . S
C1060 H1126 0.961 . S
C1060 H1127 0.961 . S
C1060 H1128 0.959 . S
C1061 C1060 1.530 . S
C1061 O1089 1.412 . S
C1061 H1125 0.980 . S
C1062 C1063 1.288 . S
C1062 C1067 1.377 . S
C1062 O1089 1.393 . S
C1063 C1062 1.288 . S
C1063 C1064 1.369 . S
C1063 H1129 0.932 . S
C1064 C1063 1.369 . S
C1064 C1065 1.398 . S
C1064 C1068 1.527 . S
C1065 C1064 1.398 . S
C1065 C1066 1.380 . S
C1065 C1079 1.497 . S
C1066 C1065 1.380 . S
C1066 C1067 1.383 . S
C1066 C1069 1.603 . S
C1067 C1062 1.377 . S
C1067 C1066 1.383 . S
C1067 H1130 0.929 . S
C1068 C1064 1.527 . S
C1068 H1131 0.961 . S
C1068 H1132 0.959 . S
C1068 H1133 0.959 . S
C1069 C1066 1.603 . S
C1069 H1134 0.960 . S
C1069 H1135 0.962 . S
C1069 H1136 0.961 . S
C1070 C1037 1.587 . S
C1070 C1071 1.360 . S
C1070 C1083 1.412 . S
C1071 C1070 1.360 . S
C1071 C1072 1.365 . S
C1071 H1137 0.929 . S
C1072 C1047 1.553 . S
C1072 C1071 1.365 . S
C1072 C1073 1.404 . S
C1073 C1072 1.404 . S
C1073 C1074 1.395 . S
C1073 C1084 1.451 . S
C1074 C1073 1.395 . S
C1074 C1075 1.322 . S
C1074 H1138 0.930 . S
C1075 C1074 1.322 . S
C1075 C1076 1.459 . S
C1075 H1139 0.929 . S
C1076 C1075 1.459 . S
C1076 C1077 1.445 . S
C1076 C1085 1.395 . S
C1077 C1055 1.432 . S
C1077 C1076 1.445 . S
C1077 C1078 1.370 . S
C1078 C1077 1.370 . S
C1078 C1079 1.438 . S
C1078 H1140 0.930 . S
C1079 C1065 1.497 . S
C1079 C1078 1.438 . S
C1079 C1080 1.360 . S
C1080 C1079 1.360 . S
C1080 C1081 1.401 . S
C1080 C1085 1.446 . S
C1081 C1080 1.401 . S
C1081 C1082 1.347 . S
C1081 H1141 0.929 . S
C1082 C1081 1.347 . S
C1082 C1083 1.455 . S
C1082 H1142 0.930 . S
C1083 C1070 1.412 . S
C1083 C1082 1.455 . S
C1083 C1084 1.331 . S
C1084 C1073 1.451 . S
C1084 C1083 1.331 . S
C1084 C1085 1.497 . S
C1085 C1076 1.395 . S
C1085 C1080 1.446 . S
C1085 C1084 1.497 . S
C1086 C1087 1.582 . S
C1086 H1143 0.962 . S
C1086 H1144 0.959 . S
C1086 H1145 0.958 . S
C1087 C1086 1.582 . S
C1087 O1090 1.458 . S
C1087 H1116 0.980 . S
O1088 C1033 1.426 . S
O1088 C1034 1.334 . S
O1089 C1061 1.412 . S
O1089 C1062 1.393 . S
O1090 C1052 1.435 . S
O1090 C1087 1.458 . S
O1091 C1043 1.468 . S
O1091 C1044 1.408 . S
H1092 C1033 0.980 . S
H1093 C1032 0.959 . S
H1094 C1032 0.959 . S
H1095 C1032 0.960 . S
H1096 C1035 0.929 . S
H1097 C1039 0.929 . S
H1098 C1040 0.959 . S
H1099 C1040 0.961 . S
H1100 C1040 0.961 . S
H1101 C1041 0.960 . S
H1102 C1041 0.960 . S
H1103 C1041 0.961 . S
H1104 C1043 0.980 . S
H1105 C1042 0.961 . S
H1106 C1042 0.960 . S
H1107 C1042 0.959 . S
H1108 C1045 0.930 . S
H1109 C1049 0.931 . S
H1110 C1050 0.959 . S
H1111 C1050 0.961 . S
H1112 C1050 0.959 . S
H1113 C1051 0.960 . S
H1114 C1051 0.960 . S
H1115 C1051 0.960 . S
H1116 C1087 0.980 . S
H1117 C1053 0.930 . S
H1118 C1057 0.930 . S
H1119 C1058 0.961 . S
H1120 C1058 0.960 . S
H1121 C1058 0.958 . S
H1122 C1059 0.961 . S
H1123 C1059 0.960 . S
H1124 C1059 0.960 . S
H1125 C1061 0.980 . S
H1126 C1060 0.961 . S
H1127 C1060 0.961 . S
H1128 C1060 0.959 . S
H1129 C1063 0.932 . S
H1130 C1067 0.929 . S
H1131 C1068 0.961 . S
H1132 C1068 0.959 . S
H1133 C1068 0.959 . S
H1134 C1069 0.960 . S
H1135 C1069 0.962 . S
H1136 C1069 0.961 . S
H1137 C1071 0.929 . S
H1138 C1074 0.930 . S
H1139 C1075 0.929 . S
H1140 C1078 0.930 . S
H1141 C1081 0.929 . S
H1142 C1082 0.930 . S
H1143 C1086 0.962 . S
H1144 C1086 0.959 . S
H1145 C1086 0.958 . S
C1146 C1147 1.560 . S
C1146 H1207 0.959 . S
C1146 H1208 0.959 . S
C1146 H1209 0.960 . S
C1147 C1146 1.560 . S
C1147 O1202 1.426 . S
C1147 H1206 0.980 . S
C1148 C1149 1.407 . S
C1148 C1153 1.418 . S
C1148 O1202 1.334 . S
C1149 C1148 1.407 . S
C1149 C1150 1.360 . S
C1149 H1210 0.929 . S
C1150 C1149 1.360 . S
C1150 C1151 1.401 . S
C1150 C1154 1.527 . S
C1151 C1150 1.401 . S
C1151 C1152 1.405 . S
C1151 C1184 1.587 . S
C1152 C1151 1.405 . S
C1152 C1153 1.332 . S
C1152 C1155 1.496 . S
C1153 C1148 1.418 . S
C1153 C1152 1.332 . S
C1153 H1211 0.929 . S
C1154 C1150 1.527 . S
C1154 H1212 0.959 . S
C1154 H1213 0.961 . S
C1154 H1214 0.961 . S
C1155 C1152 1.496 . S
C1155 H1215 0.960 . S
C1155 H1216 0.960 . S
C1155 H1217 0.961 . S
C1156 C1157 1.517 . S
C1156 H1219 0.961 . S
C1156 H1220 0.960 . S
C1156 H1221 0.959 . S
C1157 C1156 1.517 . S
C1157 O1205 1.468 . S
C1157 H1218 0.980 . S
C1158 C1159 1.349 . S
C1158 C1163 1.367 . S
C1158 O1205 1.408 . S
C1159 C1158 1.349 . S
C1159 C1160 1.407 . S
C1159 H1222 0.930 . S
C1160 C1159 1.407 . S
C1160 C1161 1.449 . S
C1160 C1164 1.535 . S
C1161 C1160 1.449 . S
C1161 C1162 1.384 . S
C1161 C1186 1.553 . S
C1162 C1161 1.384 . S
C1162 C1163 1.364 . S
C1162 C1165 1.450 . S
C1163 C1158 1.367 . S
C1163 C1162 1.364 . S
C1163 H1223 0.931 . S
C1164 C1160 1.535 . S
C1164 H1224 0.959 . S
C1164 H1225 0.961 . S
C1164 H1226 0.959 . S
C1165 C1162 1.450 . S
C1165 H1227 0.960 . S
C1165 H1228 0.960 . S
C1165 H1229 0.960 . S
C1166 C1167 1.309 . S
C1166 C1171 1.304 . S
C1166 O1204 1.435 . S
C1167 C1166 1.309 . S
C1167 C1168 1.476 . S
C1167 H1231 0.930 . S
C1168 C1167 1.476 . S
C1168 C1169 1.400 . S
C1168 C1172 1.567 . S
C1169 C1168 1.400 . S
C1169 C1170 1.373 . S
C1169 C1191 1.432 . S
C1170 C1169 1.373 . S
C1170 C1171 1.339 . S
C1170 C1173 1.530 . S
C1171 C1166 1.304 . S
C1171 C1170 1.339 . S
C1171 H1232 0.930 . S
C1172 C1168 1.567 . S
C1172 H1233 0.961 . S
C1172 H1234 0.960 . S
C1172 H1235 0.958 . S
C1173 C1170 1.530 . S
C1173 H1236 0.961 . S
C1173 H1237 0.960 . S
C1173 H1238 0.960 . S
C1174 C1175 1.530 . S
C1174 H1240 0.961 . S
C1174 H1241 0.961 . S
C1174 H1242 0.959 . S
C1175 C1174 1.530 . S
C1175 O1203 1.412 . S
C1175 H1239 0.980 . S
C1176 C1177 1.288 . S
C1176 C1181 1.377 . S
C1176 O1203 1.393 . S
C1177 C1176 1.288 . S
C1177 C1178 1.369 . S
C1177 H1243 0.932 . S
C1178 C1177 1.369 . S
C1178 C1179 1.398 . S
C1178 C1182 1.527 . S
C1179 C1178 1.398 . S
C1179 C1180 1.380 . S
C1179 C1193 1.497 . S
C1180 C1179 1.380 . S
C1180 C1181 1.383 . S
C1180 C1183 1.603 . S
C1181 C1176 1.377 . S
C1181 C1180 1.383 . S
C1181 H1244 0.929 . S
C1182 C1178 1.527 . S
C1182 H1245 0.961 . S
C1182 H1246 0.959 . S
C1182 H1247 0.959 . S
C1183 C1180 1.603 . S
C1183 H1248 0.960 . S
C1183 H1249 0.962 . S
C1183 H1250 0.961 . S
C1184 C1151 1.587 . S
C1184 C1185 1.360 . S
C1184 C1197 1.412 . S
C1185 C1184 1.360 . S
C1185 C1186 1.365 . S
C1185 H1251 0.929 . S
C1186 C1161 1.553 . S
C1186 C1185 1.365 . S
C1186 C1187 1.404 . S
C1187 C1186 1.404 . S
C1187 C1188 1.395 . S
C1187 C1198 1.451 . S
C1188 C1187 1.395 . S
C1188 C1189 1.322 . S
C1188 H1252 0.930 . S
C1189 C1188 1.322 . S
C1189 C1190 1.459 . S
C1189 H1253 0.929 . S
C1190 C1189 1.459 . S
C1190 C1191 1.445 . S
C1190 C1199 1.395 . S
C1191 C1169 1.432 . S
C1191 C1190 1.445 . S
C1191 C1192 1.370 . S
C1192 C1191 1.370 . S
C1192 C1193 1.438 . S
C1192 H1254 0.930 . S
C1193 C1179 1.497 . S
C1193 C1192 1.438 . S
C1193 C1194 1.360 . S
C1194 C1193 1.360 . S
C1194 C1195 1.401 . S
C1194 C1199 1.446 . S
C1195 C1194 1.401 . S
C1195 C1196 1.347 . S
C1195 H1255 0.929 . S
C1196 C1195 1.347 . S
C1196 C1197 1.455 . S
C1196 H1256 0.930 . S
C1197 C1184 1.412 . S
C1197 C1196 1.455 . S
C1197 C1198 1.331 . S
C1198 C1187 1.451 . S
C1198 C1197 1.331 . S
C1198 C1199 1.497 . S
C1199 C1190 1.395 . S
C1199 C1194 1.446 . S
C1199 C1198 1.497 . S
C1200 C1201 1.582 . S
C1200 H1257 0.962 . S
C1200 H1258 0.959 . S
C1200 H1259 0.958 . S
C1201 C1200 1.582 . S
C1201 O1204 1.458 . S
C1201 H1230 0.980 . S
O1202 C1147 1.426 . S
O1202 C1148 1.334 . S
O1203 C1175 1.412 . S
O1203 C1176 1.393 . S
O1204 C1166 1.435 . S
O1204 C1201 1.458 . S
O1205 C1157 1.468 . S
O1205 C1158 1.408 . S
H1206 C1147 0.980 . S
H1207 C1146 0.959 . S
H1208 C1146 0.959 . S
H1209 C1146 0.960 . S
H1210 C1149 0.929 . S
H1211 C1153 0.929 . S
H1212 C1154 0.959 . S
H1213 C1154 0.961 . S
H1214 C1154 0.961 . S
H1215 C1155 0.960 . S
H1216 C1155 0.960 . S
H1217 C1155 0.961 . S
H1218 C1157 0.980 . S
H1219 C1156 0.961 . S
H1220 C1156 0.960 . S
H1221 C1156 0.959 . S
H1222 C1159 0.930 . S
H1223 C1163 0.931 . S
H1224 C1164 0.959 . S
H1225 C1164 0.961 . S
H1226 C1164 0.959 . S
H1227 C1165 0.960 . S
H1228 C1165 0.960 . S
H1229 C1165 0.960 . S
H1230 C1201 0.980 . S
H1231 C1167 0.930 . S
H1232 C1171 0.930 . S
H1233 C1172 0.961 . S
H1234 C1172 0.960 . S
H1235 C1172 0.958 . S
H1236 C1173 0.961 . S
H1237 C1173 0.960 . S
H1238 C1173 0.960 . S
H1239 C1175 0.980 . S
H1240 C1174 0.961 . S
H1241 C1174 0.961 . S
H1242 C1174 0.959 . S
H1243 C1177 0.932 . S
H1244 C1181 0.929 . S
H1245 C1182 0.961 . S
H1246 C1182 0.959 . S
H1247 C1182 0.959 . S
H1248 C1183 0.960 . S
H1249 C1183 0.962 . S
H1250 C1183 0.961 . S
H1251 C1185 0.929 . S
H1252 C1188 0.930 . S
H1253 C1189 0.929 . S
H1254 C1192 0.930 . S
H1255 C1195 0.929 . S
H1256 C1196 0.930 . S
H1257 C1200 0.962 . S
H1258 C1200 0.959 . S
H1259 C1200 0.958 . S
C1260 C1261 1.560 . S
C1260 H1321 0.959 . S
C1260 H1322 0.959 . S
C1260 H1323 0.960 . S
C1261 C1260 1.560 . S
C1261 O1316 1.426 . S
C1261 H1320 0.980 . S
C1262 C1263 1.407 1_455 S
C1262 C1267 1.418 . S
C1262 O1316 1.334 . S
C1263 C1262 1.407 1_655 S
C1263 C1264 1.360 . S
C1263 H1324 0.929 . S
C1264 C1263 1.360 . S
C1264 C1265 1.401 1_655 S
C1264 C1268 1.527 . S
C1265 C1264 1.401 1_455 S
C1265 C1266 1.405 . S
C1265 C1298 1.587 1_455 S
C1266 C1265 1.405 . S
C1266 C1267 1.332 . S
C1266 C1269 1.496 . S
C1267 C1262 1.418 . S
C1267 C1266 1.332 . S
C1267 H1325 0.929 . S
C1268 C1264 1.527 . S
C1268 H1326 0.959 . S
C1268 H1327 0.961 . S
C1268 H1328 0.961 . S
C1269 C1266 1.496 . S
C1269 H1329 0.960 . S
C1269 H1330 0.960 . S
C1269 H1331 0.961 . S
C1270 C1271 1.517 . S
C1270 H1333 0.964 1_655 S
C1270 H1334 0.960 . S
C1270 H1335 0.959 . S
C1271 C1270 1.517 . S
C1271 O1319 1.468 . S
C1271 H1332 0.980 1_655 S
C1272 C1273 1.349 . S
C1272 C1277 1.367 . S
C1272 O1319 1.408 . S
C1273 C1272 1.349 . S
C1273 C1274 1.407 1_655 S
C1273 H1336 0.930 1_655 S
C1274 C1273 1.407 1_455 S
C1274 C1275 1.449 1_455 S
C1274 C1278 1.535 . S
C1275 C1274 1.449 1_655 S
C1275 C1276 1.384 . S
C1275 C1300 1.553 . S
C1276 C1275 1.384 . S
C1276 C1277 1.364 . S
C1276 C1279 1.450 . S
C1277 C1272 1.367 . S
C1277 C1276 1.364 . S
C1277 H1337 0.931 . S
C1278 C1274 1.535 . S
C1278 H1338 0.959 . S
C1278 H1339 0.961 . S
C1278 H1340 0.959 . S
C1279 C1276 1.450 . S
C1279 H1341 0.960 . S
C1279 H1342 0.960 . S
C1279 H1343 0.960 . S
C1280 C1281 1.309 . S
C1280 C1285 1.304 . S
C1280 O1318 1.435 . S
C1281 C1280 1.309 . S
C1281 C1282 1.464 1_655 S
C1281 H1345 0.930 1_655 S
C1282 C1281 1.464 1_455 S
C1282 C1283 1.393 1_455 S
C1282 C1286 1.585 . S
C1283 C1282 1.393 1_655 S
C1283 C1284 1.373 . S
C1283 C1305 1.432 . S
C1284 C1283 1.373 . S
C1284 C1285 1.339 . S
C1284 C1287 1.530 . S
C1285 C1280 1.304 . S
C1285 C1284 1.339 . S
C1285 H1346 0.930 . S
C1286 C1282 1.585 . S
C1286 H1347 0.961 . S
C1286 H1348 0.960 . S
C1286 H1349 0.958 . S
C1287 C1284 1.530 . S
C1287 H1350 0.961 . S
C1287 H1351 0.960 . S
C1287 H1352 0.960 . S
C1288 C1289 1.486 1_455 S
C1288 H1354 0.961 . S
C1288 H1355 0.961 . S
C1288 H1356 0.959 . S
C1289 C1288 1.486 1_655 S
C1289 O1317 1.403 1_655 S
C1289 H1353 0.994 . S
C1290 C1291 1.288 . S
C1290 C1295 1.377 1_455 S
C1290 O1317 1.393 . S
C1291 C1290 1.288 . S
C1291 C1292 1.369 . S
C1291 H1357 0.932 . S
C1292 C1291 1.369 . S
C1292 C1293 1.398 1_455 S
C1292 C1296 1.527 . S
C1293 C1292 1.398 1_655 S
C1293 C1294 1.380 . S
C1293 C1307 1.497 . S
C1294 C1293 1.380 . S
C1294 C1295 1.383 . S
C1294 C1297 1.603 . S
C1295 C1290 1.377 1_655 S
C1295 C1294 1.383 . S
C1295 H1358 0.929 . S
C1296 C1292 1.527 . S
C1296 H1359 0.961 . S
C1296 H1360 0.959 . S
C1296 H1361 0.959 . S
C1297 C1294 1.603 . S
C1297 H1362 0.960 . S
C1297 H1363 0.962 . S
C1297 H1364 0.961 . S
C1298 C1265 1.587 1_655 S
C1298 C1299 1.360 . S
C1298 C1311 1.412 . S
C1299 C1298 1.360 . S
C1299 C1300 1.365 . S
C1299 H1365 0.929 . S
C1300 C1275 1.553 . S
C1300 C1299 1.365 . S
C1300 C1301 1.404 . S
C1301 C1300 1.404 . S
C1301 C1302 1.395 . S
C1301 C1312 1.451 . S
C1302 C1301 1.395 . S
C1302 C1303 1.322 . S
C1302 H1366 0.930 . S
C1303 C1302 1.322 . S
C1303 C1304 1.459 . S
C1303 H1367 0.929 . S
C1304 C1303 1.459 . S
C1304 C1305 1.445 . S
C1304 C1313 1.395 . S
C1305 C1283 1.432 . S
C1305 C1304 1.445 . S
C1305 C1306 1.370 . S
C1306 C1305 1.370 . S
C1306 C1307 1.438 . S
C1306 H1368 0.930 . S
C1307 C1293 1.497 . S
C1307 C1306 1.438 . S
C1307 C1308 1.360 . S
C1308 C1307 1.360 . S
C1308 C1309 1.401 . S
C1308 C1313 1.446 . S
C1309 C1308 1.401 . S
C1309 C1310 1.347 . S
C1309 H1369 0.929 . S
C1310 C1309 1.347 . S
C1310 C1311 1.455 . S
C1310 H1370 0.930 . S
C1311 C1298 1.412 . S
C1311 C1310 1.455 . S
C1311 C1312 1.331 . S
C1312 C1301 1.451 . S
C1312 C1311 1.331 . S
C1312 C1313 1.497 . S
C1313 C1304 1.395 . S
C1313 C1308 1.446 . S
C1313 C1312 1.497 . S
C1314 C1315 1.582 . S
C1314 H1371 0.962 . S
C1314 H1372 0.959 . S
C1314 H1373 0.958 . S
C1315 C1314 1.582 . S
C1315 O1318 1.458 . S
C1315 H1344 0.980 . S
O1316 C1261 1.426 . S
O1316 C1262 1.334 . S
O1317 C1289 1.403 1_455 S
O1317 C1290 1.393 . S
O1318 C1280 1.435 . S
O1318 C1315 1.458 . S
O1319 C1271 1.468 . S
O1319 C1272 1.408 . S
H1320 C1261 0.980 . S
H1321 C1260 0.959 . S
H1322 C1260 0.959 . S
H1323 C1260 0.960 . S
H1324 C1263 0.929 . S
H1325 C1267 0.929 . S
H1326 C1268 0.959 . S
H1327 C1268 0.961 . S
H1328 C1268 0.961 . S
H1329 C1269 0.960 . S
H1330 C1269 0.960 . S
H1331 C1269 0.961 . S
H1332 C1271 0.980 1_455 S
H1333 C1270 0.964 1_455 S
H1334 C1270 0.960 . S
H1335 C1270 0.959 . S
H1336 C1273 0.930 1_455 S
H1337 C1277 0.931 . S
H1338 C1278 0.959 . S
H1339 C1278 0.961 . S
H1340 C1278 0.959 . S
H1341 C1279 0.960 . S
H1342 C1279 0.960 . S
H1343 C1279 0.960 . S
H1344 C1315 0.980 . S
H1345 C1281 0.930 1_455 S
H1346 C1285 0.930 . S
H1347 C1286 0.961 . S
H1348 C1286 0.960 . S
H1349 C1286 0.958 . S
H1350 C1287 0.961 . S
H1351 C1287 0.960 . S
H1352 C1287 0.960 . S
H1353 C1289 0.994 . S
H1354 C1288 0.961 . S
H1355 C1288 0.961 . S
H1356 C1288 0.959 . S
H1357 C1291 0.932 . S
H1358 C1295 0.929 . S
H1359 C1296 0.961 . S
H1360 C1296 0.959 . S
H1361 C1296 0.959 . S
H1362 C1297 0.960 . S
H1363 C1297 0.962 . S
H1364 C1297 0.961 . S
H1365 C1299 0.929 . S
H1366 C1302 0.930 . S
H1367 C1303 0.929 . S
H1368 C1306 0.930 . S
H1369 C1309 0.929 . S
H1370 C1310 0.930 . S
H1371 C1314 0.962 . S
H1372 C1314 0.959 . S
H1373 C1314 0.958 . S
C1374 C1375 1.560 . S
C1374 H1435 0.959 . S
C1374 H1436 0.959 . S
C1374 H1437 0.960 . S
C1375 C1374 1.560 . S
C1375 O1430 1.426 . S
C1375 H1434 0.980 . S
C1376 C1377 1.407 . S
C1376 C1381 1.418 . S
C1376 O1430 1.334 . S
C1377 C1376 1.407 . S
C1377 C1378 1.360 . S
C1377 H1438 0.929 . S
C1378 C1377 1.360 . S
C1378 C1379 1.401 . S
C1378 C1382 1.527 . S
C1379 C1378 1.401 . S
C1379 C1380 1.405 . S
C1379 C1412 1.587 . S
C1380 C1379 1.405 . S
C1380 C1381 1.332 . S
C1380 C1383 1.496 . S
C1381 C1376 1.418 . S
C1381 C1380 1.332 . S
C1381 H1439 0.929 . S
C1382 C1378 1.527 . S
C1382 H1440 0.959 . S
C1382 H1441 0.961 . S
C1382 H1442 0.961 . S
C1383 C1380 1.496 . S
C1383 H1443 0.960 . S
C1383 H1444 0.960 . S
C1383 H1445 0.961 . S
C1384 C1385 1.517 . S
C1384 H1447 0.961 . S
C1384 H1448 0.960 . S
C1384 H1449 0.959 . S
C1385 C1384 1.517 . S
C1385 O1433 1.468 . S
C1385 H1446 0.980 . S
C1386 C1387 1.349 . S
C1386 C1391 1.367 . S
C1386 O1433 1.408 . S
C1387 C1386 1.349 . S
C1387 C1388 1.407 . S
C1387 H1450 0.930 . S
C1388 C1387 1.407 . S
C1388 C1389 1.449 . S
C1388 C1392 1.535 . S
C1389 C1388 1.449 . S
C1389 C1390 1.384 . S
C1389 C1414 1.553 . S
C1390 C1389 1.384 . S
C1390 C1391 1.364 . S
C1390 C1393 1.450 . S
C1391 C1386 1.367 . S
C1391 C1390 1.364 . S
C1391 H1451 0.931 . S
C1392 C1388 1.535 . S
C1392 H1452 0.959 . S
C1392 H1453 0.961 . S
C1392 H1454 0.959 . S
C1393 C1390 1.450 . S
C1393 H1455 0.960 . S
C1393 H1456 0.960 . S
C1393 H1457 0.960 . S
C1394 C1395 1.309 . S
C1394 C1399 1.304 . S
C1394 O1432 1.435 . S
C1395 C1394 1.309 . S
C1395 C1396 1.476 . S
C1395 H1459 0.930 . S
C1396 C1395 1.476 . S
C1396 C1397 1.400 . S
C1396 C1400 1.567 . S
C1397 C1396 1.400 . S
C1397 C1398 1.373 . S
C1397 C1419 1.432 . S
C1398 C1397 1.373 . S
C1398 C1399 1.339 . S
C1398 C1401 1.530 . S
C1399 C1394 1.304 . S
C1399 C1398 1.339 . S
C1399 H1460 0.930 . S
C1400 C1396 1.567 . S
C1400 H1461 0.961 . S
C1400 H1462 0.960 . S
C1400 H1463 0.958 . S
C1401 C1398 1.530 . S
C1401 H1464 0.961 . S
C1401 H1465 0.960 . S
C1401 H1466 0.960 . S
C1402 C1403 1.530 . S
C1402 H1468 0.961 . S
C1402 H1469 0.961 . S
C1402 H1470 0.959 . S
C1403 C1402 1.530 . S
C1403 O1431 1.412 . S
C1403 H1467 0.980 . S
C1404 C1405 1.288 . S
C1404 C1409 1.377 . S
C1404 O1431 1.393 . S
C1405 C1404 1.288 . S
C1405 C1406 1.369 . S
C1405 H1471 0.932 . S
C1406 C1405 1.369 . S
C1406 C1407 1.398 . S
C1406 C1410 1.527 . S
C1407 C1406 1.398 . S
C1407 C1408 1.380 . S
C1407 C1421 1.497 . S
C1408 C1407 1.380 . S
C1408 C1409 1.383 . S
C1408 C1411 1.603 . S
C1409 C1404 1.377 . S
C1409 C1408 1.383 . S
C1409 H1472 0.929 . S
C1410 C1406 1.527 . S
C1410 H1473 0.961 . S
C1410 H1474 0.959 . S
C1410 H1475 0.959 . S
C1411 C1408 1.603 . S
C1411 H1476 0.960 . S
C1411 H1477 0.962 . S
C1411 H1478 0.961 . S
C1412 C1379 1.587 . S
C1412 C1413 1.360 . S
C1412 C1425 1.412 . S
C1413 C1412 1.360 . S
C1413 C1414 1.365 . S
C1413 H1479 0.929 . S
C1414 C1389 1.553 . S
C1414 C1413 1.365 . S
C1414 C1415 1.404 . S
C1415 C1414 1.404 . S
C1415 C1416 1.395 . S
C1415 C1426 1.451 . S
C1416 C1415 1.395 . S
C1416 C1417 1.322 . S
C1416 H1480 0.930 . S
C1417 C1416 1.322 . S
C1417 C1418 1.459 . S
C1417 H1481 0.929 . S
C1418 C1417 1.459 . S
C1418 C1419 1.445 . S
C1418 C1427 1.395 . S
C1419 C1397 1.432 . S
C1419 C1418 1.445 . S
C1419 C1420 1.370 . S
C1420 C1419 1.370 . S
C1420 C1421 1.438 . S
C1420 H1482 0.930 . S
C1421 C1407 1.497 . S
C1421 C1420 1.438 . S
C1421 C1422 1.360 . S
C1422 C1421 1.360 . S
C1422 C1423 1.401 . S
C1422 C1427 1.446 . S
C1423 C1422 1.401 . S
C1423 C1424 1.347 . S
C1423 H1483 0.929 . S
C1424 C1423 1.347 . S
C1424 C1425 1.455 . S
C1424 H1484 0.930 . S
C1425 C1412 1.412 . S
C1425 C1424 1.455 . S
C1425 C1426 1.331 . S
C1426 C1415 1.451 . S
C1426 C1425 1.331 . S
C1426 C1427 1.497 . S
C1427 C1418 1.395 . S
C1427 C1422 1.446 . S
C1427 C1426 1.497 . S
C1428 C1429 1.582 . S
C1428 H1485 0.962 . S
C1428 H1486 0.959 . S
C1428 H1487 0.958 . S
C1429 C1428 1.582 . S
C1429 O1432 1.458 . S
C1429 H1458 0.980 . S
O1430 C1375 1.426 . S
O1430 C1376 1.334 . S
O1431 C1403 1.412 . S
O1431 C1404 1.393 . S
O1432 C1394 1.435 . S
O1432 C1429 1.458 . S
O1433 C1385 1.468 . S
O1433 C1386 1.408 . S
H1434 C1375 0.980 . S
H1435 C1374 0.959 . S
H1436 C1374 0.959 . S
H1437 C1374 0.960 . S
H1438 C1377 0.929 . S
H1439 C1381 0.929 . S
H1440 C1382 0.959 . S
H1441 C1382 0.961 . S
H1442 C1382 0.961 . S
H1443 C1383 0.960 . S
H1444 C1383 0.960 . S
H1445 C1383 0.961 . S
H1446 C1385 0.980 . S
H1447 C1384 0.961 . S
H1448 C1384 0.960 . S
H1449 C1384 0.959 . S
H1450 C1387 0.930 . S
H1451 C1391 0.931 . S
H1452 C1392 0.959 . S
H1453 C1392 0.961 . S
H1454 C1392 0.959 . S
H1455 C1393 0.960 . S
H1456 C1393 0.960 . S
H1457 C1393 0.960 . S
H1458 C1429 0.980 . S
H1459 C1395 0.930 . S
H1460 C1399 0.930 . S
H1461 C1400 0.961 . S
H1462 C1400 0.960 . S
H1463 C1400 0.958 . S
H1464 C1401 0.961 . S
H1465 C1401 0.960 . S
H1466 C1401 0.960 . S
H1467 C1403 0.980 . S
H1468 C1402 0.961 . S
H1469 C1402 0.961 . S
H1470 C1402 0.959 . S
H1471 C1405 0.932 . S
H1472 C1409 0.929 . S
H1473 C1410 0.961 . S
H1474 C1410 0.959 . S
H1475 C1410 0.959 . S
H1476 C1411 0.960 . S
H1477 C1411 0.962 . S
H1478 C1411 0.961 . S
H1479 C1413 0.929 . S
H1480 C1416 0.930 . S
H1481 C1417 0.929 . S
H1482 C1420 0.930 . S
H1483 C1423 0.929 . S
H1484 C1424 0.930 . S
H1485 C1428 0.962 . S
H1486 C1428 0.959 . S
H1487 C1428 0.958 . S
C1488 C1489 1.560 . S
C1488 H1549 0.959 . S
C1488 H1550 0.959 . S
C1488 H1551 0.960 . S
C1489 C1488 1.560 . S
C1489 O1544 1.426 . S
C1489 H1548 0.980 . S
C1490 C1491 1.407 1_565 S
C1490 C1495 1.418 . S
C1490 O1544 1.334 . S
C1491 C1490 1.407 1_545 S
C1491 C1492 1.360 . S
C1491 H1552 0.929 . S
C1492 C1491 1.360 . S
C1492 C1493 1.401 1_545 S
C1492 C1496 1.527 . S
C1493 C1492 1.401 1_565 S
C1493 C1494 1.405 . S
C1493 C1526 1.587 1_565 S
C1494 C1493 1.405 . S
C1494 C1495 1.332 . S
C1494 C1497 1.496 . S
C1495 C1490 1.418 . S
C1495 C1494 1.332 . S
C1495 H1553 0.929 . S
C1496 C1492 1.527 . S
C1496 H1554 0.959 . S
C1496 H1555 0.961 . S
C1496 H1556 0.961 . S
C1497 C1494 1.496 . S
C1497 H1557 0.960 . S
C1497 H1558 0.960 . S
C1497 H1559 0.961 . S
C1498 C1499 1.517 . S
C1498 H1561 0.908 1_545 S
C1498 H1562 0.960 . S
C1498 H1563 0.959 . S
C1499 C1498 1.517 . S
C1499 O1547 1.468 . S
C1499 H1560 0.980 1_545 S
C1500 C1501 1.349 . S
C1500 C1505 1.367 . S
C1500 O1547 1.408 . S
C1501 C1500 1.349 . S
C1501 C1502 1.407 1_545 S
C1501 H1564 0.930 1_545 S
C1502 C1501 1.407 1_565 S
C1502 C1503 1.449 1_565 S
C1502 C1506 1.535 . S
C1503 C1502 1.449 1_545 S
C1503 C1504 1.384 . S
C1503 C1528 1.553 . S
C1504 C1503 1.384 . S
C1504 C1505 1.364 . S
C1504 C1507 1.450 . S
C1505 C1500 1.367 . S
C1505 C1504 1.364 . S
C1505 H1565 0.931 . S
C1506 C1502 1.535 . S
C1506 H1566 0.959 . S
C1506 H1567 0.961 . S
C1506 H1568 0.959 . S
C1507 C1504 1.450 . S
C1507 H1569 0.960 . S
C1507 H1570 0.960 . S
C1507 H1571 0.960 . S
C1508 C1509 1.309 . S
C1508 C1513 1.304 . S
C1508 O1546 1.435 . S
C1509 C1508 1.309 . S
C1509 C1510 1.491 1_545 S
C1509 H1573 0.930 1_545 S
C1510 C1509 1.491 1_565 S
C1510 C1511 1.352 1_565 S
C1510 C1514 1.600 . S
C1511 C1510 1.352 1_545 S
C1511 C1512 1.373 . S
C1511 C1533 1.432 . S
C1512 C1511 1.373 . S
C1512 C1513 1.339 . S
C1512 C1515 1.530 . S
C1513 C1508 1.304 . S
C1513 C1512 1.339 . S
C1513 H1574 0.930 . S
C1514 C1510 1.600 . S
C1514 H1575 0.961 . S
C1514 H1576 0.960 . S
C1514 H1577 0.958 . S
C1515 C1512 1.530 . S
C1515 H1578 0.961 . S
C1515 H1579 0.960 . S
C1515 H1580 0.960 . S
C1516 C1517 1.530 1_565 S
C1516 H1582 0.961 . S
C1516 H1583 0.961 . S
C1516 H1584 0.959 . S
C1517 C1516 1.530 1_545 S
C1517 O1545 1.412 1_545 S
C1517 H1581 0.980 . S
C1518 C1519 1.288 . S
C1518 C1523 1.377 1_565 S
C1518 O1545 1.393 . S
C1519 C1518 1.288 . S
C1519 C1520 1.369 . S
C1519 H1585 0.932 . S
C1520 C1519 1.369 . S
C1520 C1521 1.398 1_565 S
C1520 C1524 1.527 . S
C1521 C1520 1.398 1_545 S
C1521 C1522 1.380 . S
C1521 C1535 1.497 . S
C1522 C1521 1.380 . S
C1522 C1523 1.383 . S
C1522 C1525 1.603 . S
C1523 C1518 1.377 1_545 S
C1523 C1522 1.383 . S
C1523 H1586 0.929 . S
C1524 C1520 1.527 . S
C1524 H1587 0.961 . S
C1524 H1588 0.959 . S
C1524 H1589 0.959 . S
C1525 C1522 1.603 . S
C1525 H1590 0.960 . S
C1525 H1591 0.962 . S
C1525 H1592 0.961 . S
C1526 C1493 1.587 1_545 S
C1526 C1527 1.360 . S
C1526 C1539 1.412 . S
C1527 C1526 1.360 . S
C1527 C1528 1.365 . S
C1527 H1593 0.929 . S
C1528 C1503 1.553 . S
C1528 C1527 1.365 . S
C1528 C1529 1.404 . S
C1529 C1528 1.404 . S
C1529 C1530 1.395 . S
C1529 C1540 1.451 . S
C1530 C1529 1.395 . S
C1530 C1531 1.322 . S
C1530 H1594 0.930 . S
C1531 C1530 1.322 . S
C1531 C1532 1.459 . S
C1531 H1595 0.929 . S
C1532 C1531 1.459 . S
C1532 C1533 1.445 . S
C1532 C1541 1.395 . S
C1533 C1511 1.432 . S
C1533 C1532 1.445 . S
C1533 C1534 1.370 . S
C1534 C1533 1.370 . S
C1534 C1535 1.438 . S
C1534 H1596 0.930 . S
C1535 C1521 1.497 . S
C1535 C1534 1.438 . S
C1535 C1536 1.360 . S
C1536 C1535 1.360 . S
C1536 C1537 1.401 . S
C1536 C1541 1.446 . S
C1537 C1536 1.401 . S
C1537 C1538 1.347 . S
C1537 H1597 0.929 . S
C1538 C1537 1.347 . S
C1538 C1539 1.455 . S
C1538 H1598 0.930 . S
C1539 C1526 1.412 . S
C1539 C1538 1.455 . S
C1539 C1540 1.331 . S
C1540 C1529 1.451 . S
C1540 C1539 1.331 . S
C1540 C1541 1.497 . S
C1541 C1532 1.395 . S
C1541 C1536 1.446 . S
C1541 C1540 1.497 . S
C1542 C1543 1.582 . S
C1542 H1599 0.962 . S
C1542 H1600 0.959 . S
C1542 H1601 0.958 . S
C1543 C1542 1.582 . S
C1543 O1546 1.458 . S
C1543 H1572 0.980 . S
O1544 C1489 1.426 . S
O1544 C1490 1.334 . S
O1545 C1517 1.412 1_565 S
O1545 C1518 1.393 . S
O1546 C1508 1.435 . S
O1546 C1543 1.458 . S
O1547 C1499 1.468 . S
O1547 C1500 1.408 . S
H1548 C1489 0.980 . S
H1549 C1488 0.959 . S
H1550 C1488 0.959 . S
H1551 C1488 0.960 . S
H1552 C1491 0.929 . S
H1553 C1495 0.929 . S
H1554 C1496 0.959 . S
H1555 C1496 0.961 . S
H1556 C1496 0.961 . S
H1557 C1497 0.960 . S
H1558 C1497 0.960 . S
H1559 C1497 0.961 . S
H1560 C1499 0.980 1_565 S
H1561 C1498 0.908 1_565 S
H1562 C1498 0.960 . S
H1563 C1498 0.959 . S
H1564 C1501 0.930 1_565 S
H1565 C1505 0.931 . S
H1566 C1506 0.959 . S
H1567 C1506 0.961 . S
H1568 C1506 0.959 . S
H1569 C1507 0.960 . S
H1570 C1507 0.960 . S
H1571 C1507 0.960 . S
H1572 C1543 0.980 . S
H1573 C1509 0.930 1_565 S
H1574 C1513 0.930 . S
H1575 C1514 0.961 . S
H1576 C1514 0.960 . S
H1577 C1514 0.958 . S
H1578 C1515 0.961 . S
H1579 C1515 0.960 . S
H1580 C1515 0.960 . S
H1581 C1517 0.980 . S
H1582 C1516 0.961 . S
H1583 C1516 0.961 . S
H1584 C1516 0.959 . S
H1585 C1519 0.932 . S
H1586 C1523 0.929 . S
H1587 C1524 0.961 . S
H1588 C1524 0.959 . S
H1589 C1524 0.959 . S
H1590 C1525 0.960 . S
H1591 C1525 0.962 . S
H1592 C1525 0.961 . S
H1593 C1527 0.929 . S
H1594 C1530 0.930 . S
H1595 C1531 0.929 . S
H1596 C1534 0.930 . S
H1597 C1537 0.929 . S
H1598 C1538 0.930 . S
H1599 C1542 0.962 . S
H1600 C1542 0.959 . S
H1601 C1542 0.958 . S
C1602 C1603 1.560 . S
C1602 H1663 0.959 . S
C1602 H1664 0.959 . S
C1602 H1665 0.960 . S
C1603 C1602 1.560 . S
C1603 O1658 1.426 . S
C1603 H1662 0.980 1_565 S
C1604 C1605 1.407 1_565 S
C1604 C1609 1.418 . S
C1604 O1658 1.334 . S
C1605 C1604 1.407 1_545 S
C1605 C1606 1.360 . S
C1605 H1666 0.929 . S
C1606 C1605 1.360 . S
C1606 C1607 1.401 . S
C1606 C1610 1.527 . S
C1607 C1606 1.401 . S
C1607 C1608 1.405 1_545 S
C1607 C1640 1.587 . S
C1608 C1607 1.405 1_565 S
C1608 C1609 1.332 . S
C1608 C1611 1.496 . S
C1609 C1604 1.418 . S
C1609 C1608 1.332 . S
C1609 H1667 0.929 . S
C1610 C1606 1.527 . S
C1610 H1668 0.959 . S
C1610 H1669 0.961 . S
C1610 H1670 0.961 . S
C1611 C1608 1.496 . S
C1611 H1671 0.960 . S
C1611 H1672 0.960 . S
C1611 H1673 0.961 . S
C1612 C1613 1.517 . S
C1612 H1675 0.961 . S
C1612 H1676 0.960 . S
C1612 H1677 0.959 . S
C1613 C1612 1.517 . S
C1613 O1661 1.468 . S
C1613 H1674 0.980 . S
C1614 C1615 1.349 . S
C1614 C1619 1.367 . S
C1614 O1661 1.408 . S
C1615 C1614 1.349 . S
C1615 C1616 1.407 . S
C1615 H1678 0.928 1_545 S
C1616 C1615 1.407 . S
C1616 C1617 1.449 . S
C1616 C1620 1.535 1_545 S
C1617 C1616 1.449 . S
C1617 C1618 1.384 . S
C1617 C1642 1.553 . S
C1618 C1617 1.384 . S
C1618 C1619 1.364 . S
C1618 C1621 1.450 . S
C1619 C1614 1.367 . S
C1619 C1618 1.364 . S
C1619 H1679 0.931 . S
C1620 C1616 1.535 1_565 S
C1620 H1680 0.959 . S
C1620 H1681 0.961 . S
C1620 H1682 0.959 . S
C1621 C1618 1.450 . S
C1621 H1683 0.960 . S
C1621 H1684 0.960 . S
C1621 H1685 0.960 . S
C1622 C1623 1.309 1_545 S
C1622 C1627 1.304 . S
C1622 O1660 1.435 . S
C1623 C1622 1.309 1_565 S
C1623 C1624 1.476 . S
C1623 H1687 0.930 . S
C1624 C1623 1.476 . S
C1624 C1625 1.400 1_565 S
C1624 C1628 1.567 . S
C1625 C1624 1.400 1_545 S
C1625 C1626 1.373 . S
C1625 C1647 1.432 . S
C1626 C1625 1.373 . S
C1626 C1627 1.339 . S
C1626 C1629 1.530 . S
C1627 C1622 1.304 . S
C1627 C1626 1.339 . S
C1627 H1688 0.930 . S
C1628 C1624 1.567 . S
C1628 H1689 0.961 . S
C1628 H1690 0.960 . S
C1628 H1691 0.958 . S
C1629 C1626 1.530 . S
C1629 H1692 0.961 . S
C1629 H1693 0.960 . S
C1629 H1694 0.960 . S
C1630 C1631 1.530 . S
C1630 H1696 0.961 . S
C1630 H1697 0.961 . S
C1630 H1698 0.959 . S
C1631 C1630 1.530 . S
C1631 O1659 1.412 . S
C1631 H1695 0.994 . S
C1632 C1633 1.288 . S
C1632 C1637 1.377 1_565 S
C1632 O1659 1.393 . S
C1633 C1632 1.288 . S
C1633 C1634 1.369 . S
C1633 H1699 0.932 . S
C1634 C1633 1.369 . S
C1634 C1635 1.398 . S
C1634 C1638 1.527 . S
C1635 C1634 1.398 . S
C1635 C1636 1.380 1_565 S
C1635 C1649 1.497 1_565 S
C1636 C1635 1.380 1_545 S
C1636 C1637 1.383 . S
C1636 C1639 1.603 . S
C1637 C1632 1.377 1_545 S
C1637 C1636 1.383 . S
C1637 H1700 0.929 . S
C1638 C1634 1.527 . S
C1638 H1701 0.961 . S
C1638 H1702 0.959 . S
C1638 H1703 0.959 . S
C1639 C1636 1.603 . S
C1639 H1704 0.960 . S
C1639 H1705 0.962 . S
C1639 H1706 0.961 . S
C1640 C1607 1.587 . S
C1640 C1641 1.360 . S
C1640 C1653 1.412 . S
C1641 C1640 1.360 . S
C1641 C1642 1.365 . S
C1641 H1707 0.929 . S
C1642 C1617 1.553 . S
C1642 C1641 1.365 . S
C1642 C1643 1.404 . S
C1643 C1642 1.404 . S
C1643 C1644 1.395 . S
C1643 C1654 1.451 . S
C1644 C1643 1.395 . S
C1644 C1645 1.322 . S
C1644 H1708 0.930 . S
C1645 C1644 1.322 . S
C1645 C1646 1.459 . S
C1645 H1709 0.929 . S
C1646 C1645 1.459 . S
C1646 C1647 1.445 . S
C1646 C1655 1.395 . S
C1647 C1625 1.432 . S
C1647 C1646 1.445 . S
C1647 C1648 1.370 . S
C1648 C1647 1.370 . S
C1648 C1649 1.438 . S
C1648 H1710 0.930 . S
C1649 C1635 1.497 1_545 S
C1649 C1648 1.438 . S
C1649 C1650 1.360 . S
C1650 C1649 1.360 . S
C1650 C1651 1.401 . S
C1650 C1655 1.446 . S
C1651 C1650 1.401 . S
C1651 C1652 1.347 . S
C1651 H1711 0.969 . S
C1652 C1651 1.347 . S
C1652 C1653 1.455 . S
C1652 H1712 0.930 . S
C1653 C1640 1.412 . S
C1653 C1652 1.455 . S
C1653 C1654 1.331 . S
C1654 C1643 1.451 . S
C1654 C1653 1.331 . S
C1654 C1655 1.497 . S
C1655 C1646 1.395 . S
C1655 C1650 1.446 . S
C1655 C1654 1.497 . S
C1656 C1657 1.621 . S
C1656 H1713 0.962 . S
C1656 H1714 0.959 . S
C1656 H1715 0.958 . S
C1657 C1656 1.621 . S
C1657 O1660 1.474 . S
C1657 H1686 0.980 1_545 S
O1658 C1603 1.426 . S
O1658 C1604 1.334 . S
O1659 C1631 1.412 . S
O1659 C1632 1.393 . S
O1660 C1622 1.435 . S
O1660 C1657 1.474 . S
O1661 C1613 1.468 . S
O1661 C1614 1.408 . S
H1662 C1603 0.980 1_545 S
H1663 C1602 0.959 . S
H1664 C1602 0.959 . S
H1665 C1602 0.960 . S
H1666 C1605 0.929 . S
H1667 C1609 0.929 . S
H1668 C1610 0.959 . S
H1669 C1610 0.961 . S
H1670 C1610 0.961 . S
H1671 C1611 0.960 . S
H1672 C1611 0.960 . S
H1673 C1611 0.961 . S
H1674 C1613 0.980 . S
H1675 C1612 0.961 . S
H1676 C1612 0.960 . S
H1677 C1612 0.959 . S
H1678 C1615 0.928 1_565 S
H1679 C1619 0.931 . S
H1680 C1620 0.959 . S
H1681 C1620 0.961 . S
H1682 C1620 0.959 . S
H1683 C1621 0.960 . S
H1684 C1621 0.960 . S
H1685 C1621 0.960 . S
H1686 C1657 0.980 1_565 S
H1687 C1623 0.930 . S
H1688 C1627 0.930 . S
H1689 C1628 0.961 . S
H1690 C1628 0.960 . S
H1691 C1628 0.958 . S
H1692 C1629 0.961 . S
H1693 C1629 0.960 . S
H1694 C1629 0.960 . S
H1695 C1631 0.994 . S
H1696 C1630 0.961 . S
H1697 C1630 0.961 . S
H1698 C1630 0.959 . S
H1699 C1633 0.932 . S
H1700 C1637 0.929 . S
H1701 C1638 0.961 . S
H1702 C1638 0.959 . S
H1703 C1638 0.959 . S
H1704 C1639 0.960 . S
H1705 C1639 0.962 . S
H1706 C1639 0.961 . S
H1707 C1641 0.929 . S
H1708 C1644 0.930 . S
H1709 C1645 0.929 . S
H1710 C1648 0.930 . S
H1711 C1651 0.969 . S
H1712 C1652 0.930 . S
H1713 C1656 0.962 . S
H1714 C1656 0.959 . S
H1715 C1656 0.958 . S
C1716 C1717 1.560 . S
C1716 H1777 0.959 . S
C1716 H1778 0.959 . S
C1716 H1779 0.960 . S
C1717 C1716 1.560 . S
C1717 O1772 1.426 . S
C1717 H1776 0.980 1_455 S
C1718 C1719 1.407 1_455 S
C1718 C1723 1.418 . S
C1718 O1772 1.334 . S
C1719 C1718 1.407 1_655 S
C1719 C1720 1.360 . S
C1719 H1780 0.929 . S
C1720 C1719 1.360 . S
C1720 C1721 1.401 . S
C1720 C1724 1.527 . S
C1721 C1720 1.401 . S
C1721 C1722 1.405 1_655 S
C1721 C1754 1.587 . S
C1722 C1721 1.405 1_455 S
C1722 C1723 1.332 . S
C1722 C1725 1.496 . S
C1723 C1718 1.418 . S
C1723 C1722 1.332 . S
C1723 H1781 0.929 . S
C1724 C1720 1.527 . S
C1724 H1782 0.959 . S
C1724 H1783 0.961 . S
C1724 H1784 0.961 . S
C1725 C1722 1.496 . S
C1725 H1785 0.960 . S
C1725 H1786 0.960 . S
C1725 H1787 0.961 . S
C1726 C1727 1.517 . S
C1726 H1789 0.961 . S
C1726 H1790 0.960 . S
C1726 H1791 0.959 . S
C1727 C1726 1.517 . S
C1727 O1775 1.468 . S
C1727 H1788 0.980 . S
C1728 C1729 1.349 . S
C1728 C1733 1.367 . S
C1728 O1775 1.408 . S
C1729 C1728 1.349 . S
C1729 C1730 1.407 . S
C1729 H1792 0.922 1_655 S
C1730 C1729 1.407 . S
C1730 C1731 1.449 . S
C1730 C1734 1.535 1_655 S
C1731 C1730 1.449 . S
C1731 C1732 1.384 . S
C1731 C1756 1.553 . S
C1732 C1731 1.384 . S
C1732 C1733 1.364 . S
C1732 C1735 1.450 . S
C1733 C1728 1.367 . S
C1733 C1732 1.364 . S
C1733 H1793 0.931 . S
C1734 C1730 1.535 1_455 S
C1734 H1794 0.959 . S
C1734 H1795 0.961 . S
C1734 H1796 0.959 . S
C1735 C1732 1.450 . S
C1735 H1797 0.960 . S
C1735 H1798 0.960 . S
C1735 H1799 0.960 . S
C1736 C1737 1.309 1_655 S
C1736 C1741 1.304 . S
C1736 O1774 1.435 . S
C1737 C1736 1.309 1_455 S
C1737 C1738 1.476 . S
C1737 H1801 0.930 . S
C1738 C1737 1.476 . S
C1738 C1739 1.400 1_455 S
C1738 C1742 1.567 . S
C1739 C1738 1.400 1_655 S
C1739 C1740 1.373 . S
C1739 C1761 1.432 . S
C1740 C1739 1.373 . S
C1740 C1741 1.339 . S
C1740 C1743 1.530 . S
C1741 C1736 1.304 . S
C1741 C1740 1.339 . S
C1741 H1802 0.930 . S
C1742 C1738 1.567 . S
C1742 H1803 0.961 . S
C1742 H1804 0.960 . S
C1742 H1805 0.958 . S
C1743 C1740 1.530 . S
C1743 H1806 0.961 . S
C1743 H1807 0.960 . S
C1743 H1808 0.960 . S
C1744 C1745 1.530 . S
C1744 H1810 0.961 . S
C1744 H1811 0.961 . S
C1744 H1812 0.959 . S
C1745 C1744 1.530 . S
C1745 O1773 1.412 . S
C1745 H1809 0.987 . S
C1746 C1747 1.288 . S
C1746 C1751 1.377 1_455 S
C1746 O1773 1.393 . S
C1747 C1746 1.288 . S
C1747 C1748 1.369 . S
C1747 H1813 0.932 . S
C1748 C1747 1.369 . S
C1748 C1749 1.398 . S
C1748 C1752 1.527 . S
C1749 C1748 1.398 . S
C1749 C1750 1.380 1_455 S
C1749 C1763 1.497 1_455 S
C1750 C1749 1.380 1_655 S
C1750 C1751 1.383 . S
C1750 C1753 1.603 . S
C1751 C1746 1.377 1_655 S
C1751 C1750 1.383 . S
C1751 H1814 0.929 . S
C1752 C1748 1.527 . S
C1752 H1815 0.961 . S
C1752 H1816 0.959 . S
C1752 H1817 0.959 . S
C1753 C1750 1.603 . S
C1753 H1818 0.960 . S
C1753 H1819 0.962 . S
C1753 H1820 0.961 . S
C1754 C1721 1.587 . S
C1754 C1755 1.360 . S
C1754 C1767 1.412 . S
C1755 C1754 1.360 . S
C1755 C1756 1.365 . S
C1755 H1821 0.929 . S
C1756 C1731 1.553 . S
C1756 C1755 1.365 . S
C1756 C1757 1.404 . S
C1757 C1756 1.404 . S
C1757 C1758 1.395 . S
C1757 C1768 1.451 . S
C1758 C1757 1.395 . S
C1758 C1759 1.322 . S
C1758 H1822 0.930 . S
C1759 C1758 1.322 . S
C1759 C1760 1.459 . S
C1759 H1823 0.929 . S
C1760 C1759 1.459 . S
C1760 C1761 1.445 . S
C1760 C1769 1.395 . S
C1761 C1739 1.432 . S
C1761 C1760 1.445 . S
C1761 C1762 1.370 . S
C1762 C1761 1.370 . S
C1762 C1763 1.438 . S
C1762 H1824 0.930 . S
C1763 C1749 1.497 1_655 S
C1763 C1762 1.438 . S
C1763 C1764 1.360 . S
C1764 C1763 1.360 . S
C1764 C1765 1.401 . S
C1764 C1769 1.446 . S
C1765 C1764 1.401 . S
C1765 C1766 1.347 . S
C1765 H1825 0.929 . S
C1766 C1765 1.347 . S
C1766 C1767 1.455 . S
C1766 H1826 0.930 . S
C1767 C1754 1.412 . S
C1767 C1766 1.455 . S
C1767 C1768 1.331 . S
C1768 C1757 1.451 . S
C1768 C1767 1.331 . S
C1768 C1769 1.497 . S
C1769 C1760 1.395 . S
C1769 C1764 1.446 . S
C1769 C1768 1.497 . S
C1770 C1771 1.581 1_655 S
C1770 H1827 0.993 . S
C1770 H1828 0.959 . S
C1770 H1829 0.958 . S
C1771 C1770 1.581 1_455 S
C1771 O1774 1.435 1_455 S
C1771 H1800 0.989 . S
O1772 C1717 1.426 . S
O1772 C1718 1.334 . S
O1773 C1745 1.412 . S
O1773 C1746 1.393 . S
O1774 C1736 1.435 . S
O1774 C1771 1.435 1_655 S
O1775 C1727 1.468 . S
O1775 C1728 1.408 . S
H1776 C1717 0.980 1_655 S
H1777 C1716 0.959 . S
H1778 C1716 0.959 . S
H1779 C1716 0.960 . S
H1780 C1719 0.929 . S
H1781 C1723 0.929 . S
H1782 C1724 0.959 . S
H1783 C1724 0.961 . S
H1784 C1724 0.961 . S
H1785 C1725 0.960 . S
H1786 C1725 0.960 . S
H1787 C1725 0.961 . S
H1788 C1727 0.980 . S
H1789 C1726 0.961 . S
H1790 C1726 0.960 . S
H1791 C1726 0.959 . S
H1792 C1729 0.922 1_455 S
H1793 C1733 0.931 . S
H1794 C1734 0.959 . S
H1795 C1734 0.961 . S
H1796 C1734 0.959 . S
H1797 C1735 0.960 . S
H1798 C1735 0.960 . S
H1799 C1735 0.960 . S
H1800 C1771 0.989 . S
H1801 C1737 0.930 . S
H1802 C1741 0.930 . S
H1803 C1742 0.961 . S
H1804 C1742 0.960 . S
H1805 C1742 0.958 . S
H1806 C1743 0.961 . S
H1807 C1743 0.960 . S
H1808 C1743 0.960 . S
H1809 C1745 0.987 . S
H1810 C1744 0.961 . S
H1811 C1744 0.961 . S
H1812 C1744 0.959 . S
H1813 C1747 0.932 . S
H1814 C1751 0.929 . S
H1815 C1752 0.961 . S
H1816 C1752 0.959 . S
H1817 C1752 0.959 . S
H1818 C1753 0.960 . S
H1819 C1753 0.962 . S
H1820 C1753 0.961 . S
H1821 C1755 0.929 . S
H1822 C1758 0.930 . S
H1823 C1759 0.929 . S
H1824 C1762 0.930 . S
H1825 C1765 0.929 . S
H1826 C1766 0.930 . S
H1827 C1770 0.993 . S
H1828 C1770 0.959 . S
H1829 C1770 0.958 . S
C1830 C1831 1.560 . S
C1830 H1891 0.959 . S
C1830 H1892 0.959 . S
C1830 H1893 0.960 . S
C1831 C1830 1.560 . S
C1831 O1886 1.426 . S
C1831 H1890 0.980 . S
C1832 C1833 1.407 . S
C1832 C1837 1.418 . S
C1832 O1886 1.334 . S
C1833 C1832 1.407 . S
C1833 C1834 1.360 . S
C1833 H1894 0.929 . S
C1834 C1833 1.360 . S
C1834 C1835 1.401 . S
C1834 C1838 1.527 . S
C1835 C1834 1.401 . S
C1835 C1836 1.405 . S
C1835 C1868 1.587 . S
C1836 C1835 1.405 . S
C1836 C1837 1.332 . S
C1836 C1839 1.496 . S
C1837 C1832 1.418 . S
C1837 C1836 1.332 . S
C1837 H1895 0.929 . S
C1838 C1834 1.527 . S
C1838 H1896 0.959 . S
C1838 H1897 0.961 . S
C1838 H1898 0.961 . S
C1839 C1836 1.496 . S
C1839 H1899 0.960 . S
C1839 H1900 0.960 . S
C1839 H1901 0.961 . S
C1840 C1841 1.517 . S
C1840 H1903 0.961 . S
C1840 H1904 0.960 . S
C1840 H1905 0.959 . S
C1841 C1840 1.517 . S
C1841 O1889 1.468 . S
C1841 H1902 0.980 . S
C1842 C1843 1.349 . S
C1842 C1847 1.367 . S
C1842 O1889 1.408 . S
C1843 C1842 1.349 . S
C1843 C1844 1.407 . S
C1843 H1906 0.930 . S
C1844 C1843 1.407 . S
C1844 C1845 1.449 . S
C1844 C1848 1.535 . S
C1845 C1844 1.449 . S
C1845 C1846 1.384 . S
C1845 C1870 1.553 . S
C1846 C1845 1.384 . S
C1846 C1847 1.364 . S
C1846 C1849 1.450 . S
C1847 C1842 1.367 . S
C1847 C1846 1.364 . S
C1847 H1907 0.931 . S
C1848 C1844 1.535 . S
C1848 H1908 0.959 . S
C1848 H1909 0.961 . S
C1848 H1910 0.959 . S
C1849 C1846 1.450 . S
C1849 H1911 0.960 . S
C1849 H1912 0.960 . S
C1849 H1913 0.960 . S
C1850 C1851 1.309 . S
C1850 C1855 1.304 . S
C1850 O1888 1.435 . S
C1851 C1850 1.309 . S
C1851 C1852 1.476 . S
C1851 H1915 0.930 . S
C1852 C1851 1.476 . S
C1852 C1853 1.400 . S
C1852 C1856 1.567 . S
C1853 C1852 1.400 . S
C1853 C1854 1.373 . S
C1853 C1875 1.432 . S
C1854 C1853 1.373 . S
C1854 C1855 1.339 . S
C1854 C1857 1.530 . S
C1855 C1850 1.304 . S
C1855 C1854 1.339 . S
C1855 H1916 0.930 . S
C1856 C1852 1.567 . S
C1856 H1917 0.961 . S
C1856 H1918 0.960 . S
C1856 H1919 0.958 . S
C1857 C1854 1.530 . S
C1857 H1920 0.961 . S
C1857 H1921 0.960 . S
C1857 H1922 0.960 . S
C1858 C1859 1.530 . S
C1858 H1924 0.961 . S
C1858 H1925 0.961 . S
C1858 H1926 0.959 . S
C1859 C1858 1.530 . S
C1859 O1887 1.412 . S
C1859 H1923 0.980 . S
C1860 C1861 1.288 . S
C1860 C1865 1.377 . S
C1860 O1887 1.393 . S
C1861 C1860 1.288 . S
C1861 C1862 1.369 . S
C1861 H1927 0.932 . S
C1862 C1861 1.369 . S
C1862 C1863 1.398 . S
C1862 C1866 1.527 . S
C1863 C1862 1.398 . S
C1863 C1864 1.380 . S
C1863 C1877 1.497 . S
C1864 C1863 1.380 . S
C1864 C1865 1.383 . S
C1864 C1867 1.603 . S
C1865 C1860 1.377 . S
C1865 C1864 1.383 . S
C1865 H1928 0.929 . S
C1866 C1862 1.527 . S
C1866 H1929 0.961 . S
C1866 H1930 0.959 . S
C1866 H1931 0.959 . S
C1867 C1864 1.603 . S
C1867 H1932 0.960 . S
C1867 H1933 0.962 . S
C1867 H1934 0.961 . S
C1868 C1835 1.587 . S
C1868 C1869 1.360 . S
C1868 C1881 1.412 . S
C1869 C1868 1.360 . S
C1869 C1870 1.365 . S
C1869 H1935 0.929 . S
C1870 C1845 1.553 . S
C1870 C1869 1.365 . S
C1870 C1871 1.404 . S
C1871 C1870 1.404 . S
C1871 C1872 1.395 . S
C1871 C1882 1.451 . S
C1872 C1871 1.395 . S
C1872 C1873 1.322 . S
C1872 H1936 0.930 . S
C1873 C1872 1.322 . S
C1873 C1874 1.459 . S
C1873 H1937 0.929 . S
C1874 C1873 1.459 . S
C1874 C1875 1.445 . S
C1874 C1883 1.395 . S
C1875 C1853 1.432 . S
C1875 C1874 1.445 . S
C1875 C1876 1.370 . S
C1876 C1875 1.370 . S
C1876 C1877 1.438 . S
C1876 H1938 0.930 . S
C1877 C1863 1.497 . S
C1877 C1876 1.438 . S
C1877 C1878 1.360 . S
C1878 C1877 1.360 . S
C1878 C1879 1.401 . S
C1878 C1883 1.446 . S
C1879 C1878 1.401 . S
C1879 C1880 1.347 . S
C1879 H1939 0.929 . S
C1880 C1879 1.347 . S
C1880 C1881 1.455 . S
C1880 H1940 0.930 . S
C1881 C1868 1.412 . S
C1881 C1880 1.455 . S
C1881 C1882 1.331 . S
C1882 C1871 1.451 . S
C1882 C1881 1.331 . S
C1882 C1883 1.497 . S
C1883 C1874 1.395 . S
C1883 C1878 1.446 . S
C1883 C1882 1.497 . S
C1884 C1885 1.582 . S
C1884 H1941 0.962 . S
C1884 H1942 0.959 . S
C1884 H1943 0.958 . S
C1885 C1884 1.582 . S
C1885 O1888 1.458 . S
C1885 H1914 0.980 . S
O1886 C1831 1.426 . S
O1886 C1832 1.334 . S
O1887 C1859 1.412 . S
O1887 C1860 1.393 . S
O1888 C1850 1.435 . S
O1888 C1885 1.458 . S
O1889 C1841 1.468 . S
O1889 C1842 1.408 . S
H1890 C1831 0.980 . S
H1891 C1830 0.959 . S
H1892 C1830 0.959 . S
H1893 C1830 0.960 . S
H1894 C1833 0.929 . S
H1895 C1837 0.929 . S
H1896 C1838 0.959 . S
H1897 C1838 0.961 . S
H1898 C1838 0.961 . S
H1899 C1839 0.960 . S
H1900 C1839 0.960 . S
H1901 C1839 0.961 . S
H1902 C1841 0.980 . S
H1903 C1840 0.961 . S
H1904 C1840 0.960 . S
H1905 C1840 0.959 . S
H1906 C1843 0.930 . S
H1907 C1847 0.931 . S
H1908 C1848 0.959 . S
H1909 C1848 0.961 . S
H1910 C1848 0.959 . S
H1911 C1849 0.960 . S
H1912 C1849 0.960 . S
H1913 C1849 0.960 . S
H1914 C1885 0.980 . S
H1915 C1851 0.930 . S
H1916 C1855 0.930 . S
H1917 C1856 0.961 . S
H1918 C1856 0.960 . S
H1919 C1856 0.958 . S
H1920 C1857 0.961 . S
H1921 C1857 0.960 . S
H1922 C1857 0.960 . S
H1923 C1859 0.980 . S
H1924 C1858 0.961 . S
H1925 C1858 0.961 . S
H1926 C1858 0.959 . S
H1927 C1861 0.932 . S
H1928 C1865 0.929 . S
H1929 C1866 0.961 . S
H1930 C1866 0.959 . S
H1931 C1866 0.959 . S
H1932 C1867 0.960 . S
H1933 C1867 0.962 . S
H1934 C1867 0.961 . S
H1935 C1869 0.929 . S
H1936 C1872 0.930 . S
H1937 C1873 0.929 . S
H1938 C1876 0.930 . S
H1939 C1879 0.929 . S
H1940 C1880 0.930 . S
H1941 C1884 0.962 . S
H1942 C1884 0.959 . S
H1943 C1884 0.958 . S
C1944 C1945 1.560 . S
C1944 H2005 0.959 . S
C1944 H2006 0.959 . S
C1944 H2007 0.960 . S
C1945 C1944 1.560 . S
C1945 O2000 1.426 . S
C1945 H2004 0.980 . S
C1946 C1947 1.407 . S
C1946 C1951 1.418 . S
C1946 O2000 1.334 . S
C1947 C1946 1.407 . S
C1947 C1948 1.360 . S
C1947 H2008 0.929 . S
C1948 C1947 1.360 . S
C1948 C1949 1.401 . S
C1948 C1952 1.527 . S
C1949 C1948 1.401 . S
C1949 C1950 1.405 . S
C1949 C1982 1.587 . S
C1950 C1949 1.405 . S
C1950 C1951 1.332 . S
C1950 C1953 1.496 . S
C1951 C1946 1.418 . S
C1951 C1950 1.332 . S
C1951 H2009 0.929 . S
C1952 C1948 1.527 . S
C1952 H2010 0.959 . S
C1952 H2011 0.961 . S
C1952 H2012 0.961 . S
C1953 C1950 1.496 . S
C1953 H2013 0.960 . S
C1953 H2014 0.960 . S
C1953 H2015 0.961 . S
C1954 C1955 1.517 . S
C1954 H2017 0.961 . S
C1954 H2018 0.960 . S
C1954 H2019 0.959 . S
C1955 C1954 1.517 . S
C1955 O2003 1.468 . S
C1955 H2016 0.980 . S
C1956 C1957 1.349 . S
C1956 C1961 1.367 . S
C1956 O2003 1.408 . S
C1957 C1956 1.349 . S
C1957 C1958 1.407 . S
C1957 H2020 0.930 . S
C1958 C1957 1.407 . S
C1958 C1959 1.449 . S
C1958 C1962 1.535 . S
C1959 C1958 1.449 . S
C1959 C1960 1.384 . S
C1959 C1984 1.553 . S
C1960 C1959 1.384 . S
C1960 C1961 1.364 . S
C1960 C1963 1.450 . S
C1961 C1956 1.367 . S
C1961 C1960 1.364 . S
C1961 H2021 0.931 . S
C1962 C1958 1.535 . S
C1962 H2022 0.959 . S
C1962 H2023 0.961 . S
C1962 H2024 0.959 . S
C1963 C1960 1.450 . S
C1963 H2025 0.960 . S
C1963 H2026 0.960 . S
C1963 H2027 0.960 . S
C1964 C1965 1.309 . S
C1964 C1969 1.304 . S
C1964 O2002 1.435 . S
C1965 C1964 1.309 . S
C1965 C1966 1.476 . S
C1965 H2029 0.930 . S
C1966 C1965 1.476 . S
C1966 C1967 1.400 . S
C1966 C1970 1.567 . S
C1967 C1966 1.400 . S
C1967 C1968 1.373 . S
C1967 C1989 1.432 . S
C1968 C1967 1.373 . S
C1968 C1969 1.339 . S
C1968 C1971 1.530 . S
C1969 C1964 1.304 . S
C1969 C1968 1.339 . S
C1969 H2030 0.930 . S
C1970 C1966 1.567 . S
C1970 H2031 0.961 . S
C1970 H2032 0.960 . S
C1970 H2033 0.958 . S
C1971 C1968 1.530 . S
C1971 H2034 0.961 . S
C1971 H2035 0.960 . S
C1971 H2036 0.960 . S
C1972 C1973 1.530 . S
C1972 H2038 0.961 . S
C1972 H2039 0.961 . S
C1972 H2040 0.959 . S
C1973 C1972 1.530 . S
C1973 O2001 1.412 . S
C1973 H2037 0.980 . S
C1974 C1975 1.288 . S
C1974 C1979 1.377 . S
C1974 O2001 1.393 . S
C1975 C1974 1.288 . S
C1975 C1976 1.369 . S
C1975 H2041 0.932 . S
C1976 C1975 1.369 . S
C1976 C1977 1.398 . S
C1976 C1980 1.527 . S
C1977 C1976 1.398 . S
C1977 C1978 1.380 . S
C1977 C1991 1.497 . S
C1978 C1977 1.380 . S
C1978 C1979 1.383 . S
C1978 C1981 1.603 . S
C1979 C1974 1.377 . S
C1979 C1978 1.383 . S
C1979 H2042 0.929 . S
C1980 C1976 1.527 . S
C1980 H2043 0.961 . S
C1980 H2044 0.959 . S
C1980 H2045 0.959 . S
C1981 C1978 1.603 . S
C1981 H2046 0.960 . S
C1981 H2047 0.962 . S
C1981 H2048 0.961 . S
C1982 C1949 1.587 . S
C1982 C1983 1.360 . S
C1982 C1995 1.412 . S
C1983 C1982 1.360 . S
C1983 C1984 1.365 . S
C1983 H2049 0.929 . S
C1984 C1959 1.553 . S
C1984 C1983 1.365 . S
C1984 C1985 1.404 . S
C1985 C1984 1.404 . S
C1985 C1986 1.395 . S
C1985 C1996 1.451 . S
C1986 C1985 1.395 . S
C1986 C1987 1.322 . S
C1986 H2050 0.930 . S
C1987 C1986 1.322 . S
C1987 C1988 1.459 . S
C1987 H2051 0.929 . S
C1988 C1987 1.459 . S
C1988 C1989 1.445 . S
C1988 C1997 1.395 . S
C1989 C1967 1.432 . S
C1989 C1988 1.445 . S
C1989 C1990 1.370 . S
C1990 C1989 1.370 . S
C1990 C1991 1.438 . S
C1990 H2052 0.930 . S
C1991 C1977 1.497 . S
C1991 C1990 1.438 . S
C1991 C1992 1.360 . S
C1992 C1991 1.360 . S
C1992 C1993 1.401 . S
C1992 C1997 1.446 . S
C1993 C1992 1.401 . S
C1993 C1994 1.347 . S
C1993 H2053 0.929 . S
C1994 C1993 1.347 . S
C1994 C1995 1.455 . S
C1994 H2054 0.930 . S
C1995 C1982 1.412 . S
C1995 C1994 1.455 . S
C1995 C1996 1.331 . S
C1996 C1985 1.451 . S
C1996 C1995 1.331 . S
C1996 C1997 1.497 . S
C1997 C1988 1.395 . S
C1997 C1992 1.446 . S
C1997 C1996 1.497 . S
C1998 C1999 1.582 . S
C1998 H2055 0.962 . S
C1998 H2056 0.959 . S
C1998 H2057 0.958 . S
C1999 C1998 1.582 . S
C1999 O2002 1.458 . S
C1999 H2028 0.980 . S
O2000 C1945 1.426 . S
O2000 C1946 1.334 . S
O2001 C1973 1.412 . S
O2001 C1974 1.393 . S
O2002 C1964 1.435 . S
O2002 C1999 1.458 . S
O2003 C1955 1.468 . S
O2003 C1956 1.408 . S
H2004 C1945 0.980 . S
H2005 C1944 0.959 . S
H2006 C1944 0.959 . S
H2007 C1944 0.960 . S
H2008 C1947 0.929 . S
H2009 C1951 0.929 . S
H2010 C1952 0.959 . S
H2011 C1952 0.961 . S
H2012 C1952 0.961 . S
H2013 C1953 0.960 . S
H2014 C1953 0.960 . S
H2015 C1953 0.961 . S
H2016 C1955 0.980 . S
H2017 C1954 0.961 . S
H2018 C1954 0.960 . S
H2019 C1954 0.959 . S
H2020 C1957 0.930 . S
H2021 C1961 0.931 . S
H2022 C1962 0.959 . S
H2023 C1962 0.961 . S
H2024 C1962 0.959 . S
H2025 C1963 0.960 . S
H2026 C1963 0.960 . S
H2027 C1963 0.960 . S
H2028 C1999 0.980 . S
H2029 C1965 0.930 . S
H2030 C1969 0.930 . S
H2031 C1970 0.961 . S
H2032 C1970 0.960 . S
H2033 C1970 0.958 . S
H2034 C1971 0.961 . S
H2035 C1971 0.960 . S
H2036 C1971 0.960 . S
H2037 C1973 0.980 . S
H2038 C1972 0.961 . S
H2039 C1972 0.961 . S
H2040 C1972 0.959 . S
H2041 C1975 0.932 . S
H2042 C1979 0.929 . S
H2043 C1980 0.961 . S
H2044 C1980 0.959 . S
H2045 C1980 0.959 . S
H2046 C1981 0.960 . S
H2047 C1981 0.962 . S
H2048 C1981 0.961 . S
H2049 C1983 0.929 . S
H2050 C1986 0.930 . S
H2051 C1987 0.929 . S
H2052 C1990 0.930 . S
H2053 C1993 0.929 . S
H2054 C1994 0.930 . S
H2055 C1998 0.962 . S
H2056 C1998 0.959 . S
H2057 C1998 0.958 . S
C2058 C2059 1.560 . S
C2058 H2119 0.959 . S
C2058 H2120 0.959 . S
C2058 H2121 0.960 . S
C2059 C2058 1.560 . S
C2059 O2114 1.426 . S
C2059 H2118 0.980 . S
C2060 C2061 1.407 . S
C2060 C2065 1.418 . S
C2060 O2114 1.334 . S
C2061 C2060 1.407 . S
C2061 C2062 1.360 . S
C2061 H2122 0.929 . S
C2062 C2061 1.360 . S
C2062 C2063 1.401 . S
C2062 C2066 1.527 . S
C2063 C2062 1.401 . S
C2063 C2064 1.405 . S
C2063 C2096 1.587 . S
C2064 C2063 1.405 . S
C2064 C2065 1.332 . S
C2064 C2067 1.496 . S
C2065 C2060 1.418 . S
C2065 C2064 1.332 . S
C2065 H2123 0.929 . S
C2066 C2062 1.527 . S
C2066 H2124 0.959 . S
C2066 H2125 0.961 . S
C2066 H2126 0.961 . S
C2067 C2064 1.496 . S
C2067 H2127 0.960 . S
C2067 H2128 0.960 . S
C2067 H2129 0.961 . S
C2068 C2069 1.517 . S
C2068 H2131 0.961 . S
C2068 H2132 0.960 . S
C2068 H2133 0.959 . S
C2069 C2068 1.517 . S
C2069 O2117 1.468 . S
C2069 H2130 0.980 . S
C2070 C2071 1.349 . S
C2070 C2075 1.367 . S
C2070 O2117 1.408 . S
C2071 C2070 1.349 . S
C2071 C2072 1.407 . S
C2071 H2134 0.930 . S
C2072 C2071 1.407 . S
C2072 C2073 1.449 . S
C2072 C2076 1.535 . S
C2073 C2072 1.449 . S
C2073 C2074 1.384 . S
C2073 C2098 1.553 . S
C2074 C2073 1.384 . S
C2074 C2075 1.364 . S
C2074 C2077 1.450 . S
C2075 C2070 1.367 . S
C2075 C2074 1.364 . S
C2075 H2135 0.931 . S
C2076 C2072 1.535 . S
C2076 H2136 0.959 . S
C2076 H2137 0.961 . S
C2076 H2138 0.959 . S
C2077 C2074 1.450 . S
C2077 H2139 0.960 . S
C2077 H2140 0.960 . S
C2077 H2141 0.960 . S
C2078 C2079 1.309 . S
C2078 C2083 1.304 . S
C2078 O2116 1.435 . S
C2079 C2078 1.309 . S
C2079 C2080 1.476 . S
C2079 H2143 0.930 . S
C2080 C2079 1.476 . S
C2080 C2081 1.400 . S
C2080 C2084 1.567 . S
C2081 C2080 1.400 . S
C2081 C2082 1.373 . S
C2081 C2103 1.432 . S
C2082 C2081 1.373 . S
C2082 C2083 1.339 . S
C2082 C2085 1.530 . S
C2083 C2078 1.304 . S
C2083 C2082 1.339 . S
C2083 H2144 0.930 . S
C2084 C2080 1.567 . S
C2084 H2145 0.961 . S
C2084 H2146 0.960 . S
C2084 H2147 0.958 . S
C2085 C2082 1.530 . S
C2085 H2148 0.961 . S
C2085 H2149 0.960 . S
C2085 H2150 0.960 . S
C2086 C2087 1.530 . S
C2086 H2152 0.961 . S
C2086 H2153 0.961 . S
C2086 H2154 0.959 . S
C2087 C2086 1.530 . S
C2087 O2115 1.412 . S
C2087 H2151 0.980 . S
C2088 C2089 1.288 . S
C2088 C2093 1.377 . S
C2088 O2115 1.393 . S
C2089 C2088 1.288 . S
C2089 C2090 1.369 . S
C2089 H2155 0.932 . S
C2090 C2089 1.369 . S
C2090 C2091 1.398 . S
C2090 C2094 1.527 . S
C2091 C2090 1.398 . S
C2091 C2092 1.380 . S
C2091 C2105 1.497 . S
C2092 C2091 1.380 . S
C2092 C2093 1.383 . S
C2092 C2095 1.603 . S
C2093 C2088 1.377 . S
C2093 C2092 1.383 . S
C2093 H2156 0.929 . S
C2094 C2090 1.527 . S
C2094 H2157 0.961 . S
C2094 H2158 0.959 . S
C2094 H2159 0.959 . S
C2095 C2092 1.603 . S
C2095 H2160 0.960 . S
C2095 H2161 0.962 . S
C2095 H2162 0.961 . S
C2096 C2063 1.587 . S
C2096 C2097 1.360 . S
C2096 C2109 1.412 . S
C2097 C2096 1.360 . S
C2097 C2098 1.365 . S
C2097 H2163 0.929 . S
C2098 C2073 1.553 . S
C2098 C2097 1.365 . S
C2098 C2099 1.404 . S
C2099 C2098 1.404 . S
C2099 C2100 1.395 . S
C2099 C2110 1.451 . S
C2100 C2099 1.395 . S
C2100 C2101 1.322 . S
C2100 H2164 0.930 . S
C2101 C2100 1.322 . S
C2101 C2102 1.459 . S
C2101 H2165 0.929 . S
C2102 C2101 1.459 . S
C2102 C2103 1.445 . S
C2102 C2111 1.395 . S
C2103 C2081 1.432 . S
C2103 C2102 1.445 . S
C2103 C2104 1.370 . S
C2104 C2103 1.370 . S
C2104 C2105 1.438 . S
C2104 H2166 0.930 . S
C2105 C2091 1.497 . S
C2105 C2104 1.438 . S
C2105 C2106 1.360 . S
C2106 C2105 1.360 . S
C2106 C2107 1.401 . S
C2106 C2111 1.446 . S
C2107 C2106 1.401 . S
C2107 C2108 1.347 . S
C2107 H2167 0.929 . S
C2108 C2107 1.347 . S
C2108 C2109 1.455 . S
C2108 H2168 0.930 . S
C2109 C2096 1.412 . S
C2109 C2108 1.455 . S
C2109 C2110 1.331 . S
C2110 C2099 1.451 . S
C2110 C2109 1.331 . S
C2110 C2111 1.497 . S
C2111 C2102 1.395 . S
C2111 C2106 1.446 . S
C2111 C2110 1.497 . S
C2112 C2113 1.582 . S
C2112 H2169 0.962 . S
C2112 H2170 0.959 . S
C2112 H2171 0.958 . S
C2113 C2112 1.582 . S
C2113 O2116 1.458 . S
C2113 H2142 0.980 . S
O2114 C2059 1.426 . S
O2114 C2060 1.334 . S
O2115 C2087 1.412 . S
O2115 C2088 1.393 . S
O2116 C2078 1.435 . S
O2116 C2113 1.458 . S
O2117 C2069 1.468 . S
O2117 C2070 1.408 . S
H2118 C2059 0.980 . S
H2119 C2058 0.959 . S
H2120 C2058 0.959 . S
H2121 C2058 0.960 . S
H2122 C2061 0.929 . S
H2123 C2065 0.929 . S
H2124 C2066 0.959 . S
H2125 C2066 0.961 . S
H2126 C2066 0.961 . S
H2127 C2067 0.960 . S
H2128 C2067 0.960 . S
H2129 C2067 0.961 . S
H2130 C2069 0.980 . S
H2131 C2068 0.961 . S
H2132 C2068 0.960 . S
H2133 C2068 0.959 . S
H2134 C2071 0.930 . S
H2135 C2075 0.931 . S
H2136 C2076 0.959 . S
H2137 C2076 0.961 . S
H2138 C2076 0.959 . S
H2139 C2077 0.960 . S
H2140 C2077 0.960 . S
H2141 C2077 0.960 . S
H2142 C2113 0.980 . S
H2143 C2079 0.930 . S
H2144 C2083 0.930 . S
H2145 C2084 0.961 . S
H2146 C2084 0.960 . S
H2147 C2084 0.958 . S
H2148 C2085 0.961 . S
H2149 C2085 0.960 . S
H2150 C2085 0.960 . S
H2151 C2087 0.980 . S
H2152 C2086 0.961 . S
H2153 C2086 0.961 . S
H2154 C2086 0.959 . S
H2155 C2089 0.932 . S
H2156 C2093 0.929 . S
H2157 C2094 0.961 . S
H2158 C2094 0.959 . S
H2159 C2094 0.959 . S
H2160 C2095 0.960 . S
H2161 C2095 0.962 . S
H2162 C2095 0.961 . S
H2163 C2097 0.929 . S
H2164 C2100 0.930 . S
H2165 C2101 0.929 . S
H2166 C2104 0.930 . S
H2167 C2107 0.929 . S
H2168 C2108 0.930 . S
H2169 C2112 0.962 . S
H2170 C2112 0.959 . S
H2171 C2112 0.958 . S
C2172 C2173 1.560 . S
C2172 H2233 0.959 . S
C2172 H2234 0.959 . S
C2172 H2235 0.960 . S
C2173 C2172 1.560 . S
C2173 O2228 1.426 . S
C2173 H2232 0.980 . S
C2174 C2175 1.407 . S
C2174 C2179 1.418 . S
C2174 O2228 1.334 . S
C2175 C2174 1.407 . S
C2175 C2176 1.360 . S
C2175 H2236 0.929 . S
C2176 C2175 1.360 . S
C2176 C2177 1.401 . S
C2176 C2180 1.527 . S
C2177 C2176 1.401 . S
C2177 C2178 1.405 . S
C2177 C2210 1.587 . S
C2178 C2177 1.405 . S
C2178 C2179 1.332 . S
C2178 C2181 1.496 . S
C2179 C2174 1.418 . S
C2179 C2178 1.332 . S
C2179 H2237 0.929 . S
C2180 C2176 1.527 . S
C2180 H2238 0.959 . S
C2180 H2239 0.961 . S
C2180 H2240 0.961 . S
C2181 C2178 1.496 . S
C2181 H2241 0.960 . S
C2181 H2242 0.960 . S
C2181 H2243 0.961 . S
C2182 C2183 1.517 . S
C2182 H2245 0.961 . S
C2182 H2246 0.960 . S
C2182 H2247 0.959 . S
C2183 C2182 1.517 . S
C2183 O2231 1.468 . S
C2183 H2244 0.980 . S
C2184 C2185 1.349 . S
C2184 C2189 1.367 . S
C2184 O2231 1.408 . S
C2185 C2184 1.349 . S
C2185 C2186 1.407 . S
C2185 H2248 0.930 . S
C2186 C2185 1.407 . S
C2186 C2187 1.449 . S
C2186 C2190 1.535 . S
C2187 C2186 1.449 . S
C2187 C2188 1.384 . S
C2187 C2212 1.553 . S
C2188 C2187 1.384 . S
C2188 C2189 1.364 . S
C2188 C2191 1.450 . S
C2189 C2184 1.367 . S
C2189 C2188 1.364 . S
C2189 H2249 0.931 . S
C2190 C2186 1.535 . S
C2190 H2250 0.959 . S
C2190 H2251 0.961 . S
C2190 H2252 0.959 . S
C2191 C2188 1.450 . S
C2191 H2253 0.960 . S
C2191 H2254 0.960 . S
C2191 H2255 0.960 . S
C2192 C2193 1.309 . S
C2192 C2197 1.304 . S
C2192 O2230 1.435 . S
C2193 C2192 1.309 . S
C2193 C2194 1.476 . S
C2193 H2257 0.930 . S
C2194 C2193 1.476 . S
C2194 C2195 1.400 . S
C2194 C2198 1.567 . S
C2195 C2194 1.400 . S
C2195 C2196 1.373 . S
C2195 C2217 1.432 . S
C2196 C2195 1.373 . S
C2196 C2197 1.339 . S
C2196 C2199 1.530 . S
C2197 C2192 1.304 . S
C2197 C2196 1.339 . S
C2197 H2258 0.930 . S
C2198 C2194 1.567 . S
C2198 H2259 0.961 . S
C2198 H2260 0.960 . S
C2198 H2261 0.958 . S
C2199 C2196 1.530 . S
C2199 H2262 0.961 . S
C2199 H2263 0.960 . S
C2199 H2264 0.960 . S
C2200 C2201 1.530 . S
C2200 H2266 0.961 . S
C2200 H2267 0.961 . S
C2200 H2268 0.959 . S
C2201 C2200 1.530 . S
C2201 O2229 1.412 . S
C2201 H2265 0.980 . S
C2202 C2203 1.288 . S
C2202 C2207 1.377 . S
C2202 O2229 1.393 . S
C2203 C2202 1.288 . S
C2203 C2204 1.369 . S
C2203 H2269 0.932 . S
C2204 C2203 1.369 . S
C2204 C2205 1.398 . S
C2204 C2208 1.527 . S
C2205 C2204 1.398 . S
C2205 C2206 1.380 . S
C2205 C2219 1.497 . S
C2206 C2205 1.380 . S
C2206 C2207 1.383 . S
C2206 C2209 1.603 . S
C2207 C2202 1.377 . S
C2207 C2206 1.383 . S
C2207 H2270 0.929 . S
C2208 C2204 1.527 . S
C2208 H2271 0.961 . S
C2208 H2272 0.959 . S
C2208 H2273 0.959 . S
C2209 C2206 1.603 . S
C2209 H2274 0.960 . S
C2209 H2275 0.962 . S
C2209 H2276 0.961 . S
C2210 C2177 1.587 . S
C2210 C2211 1.360 . S
C2210 C2223 1.412 . S
C2211 C2210 1.360 . S
C2211 C2212 1.365 . S
C2211 H2277 0.929 . S
C2212 C2187 1.553 . S
C2212 C2211 1.365 . S
C2212 C2213 1.404 . S
C2213 C2212 1.404 . S
C2213 C2214 1.395 . S
C2213 C2224 1.451 . S
C2214 C2213 1.395 . S
C2214 C2215 1.322 . S
C2214 H2278 0.930 . S
C2215 C2214 1.322 . S
C2215 C2216 1.459 . S
C2215 H2279 0.929 . S
C2216 C2215 1.459 . S
C2216 C2217 1.445 . S
C2216 C2225 1.395 . S
C2217 C2195 1.432 . S
C2217 C2216 1.445 . S
C2217 C2218 1.370 . S
C2218 C2217 1.370 . S
C2218 C2219 1.438 . S
C2218 H2280 0.930 . S
C2219 C2205 1.497 . S
C2219 C2218 1.438 . S
C2219 C2220 1.360 . S
C2220 C2219 1.360 . S
C2220 C2221 1.401 . S
C2220 C2225 1.446 . S
C2221 C2220 1.401 . S
C2221 C2222 1.347 . S
C2221 H2281 0.929 . S
C2222 C2221 1.347 . S
C2222 C2223 1.455 . S
C2222 H2282 0.930 . S
C2223 C2210 1.412 . S
C2223 C2222 1.455 . S
C2223 C2224 1.331 . S
C2224 C2213 1.451 . S
C2224 C2223 1.331 . S
C2224 C2225 1.497 . S
C2225 C2216 1.395 . S
C2225 C2220 1.446 . S
C2225 C2224 1.497 . S
C2226 C2227 1.582 . S
C2226 H2283 0.962 . S
C2226 H2284 0.959 . S
C2226 H2285 0.958 . S
C2227 C2226 1.582 . S
C2227 O2230 1.458 . S
C2227 H2256 0.980 . S
O2228 C2173 1.426 . S
O2228 C2174 1.334 . S
O2229 C2201 1.412 . S
O2229 C2202 1.393 . S
O2230 C2192 1.435 . S
O2230 C2227 1.458 . S
O2231 C2183 1.468 . S
O2231 C2184 1.408 . S
H2232 C2173 0.980 . S
H2233 C2172 0.959 . S
H2234 C2172 0.959 . S
H2235 C2172 0.960 . S
H2236 C2175 0.929 . S
H2237 C2179 0.929 . S
H2238 C2180 0.959 . S
H2239 C2180 0.961 . S
H2240 C2180 0.961 . S
H2241 C2181 0.960 . S
H2242 C2181 0.960 . S
H2243 C2181 0.961 . S
H2244 C2183 0.980 . S
H2245 C2182 0.961 . S
H2246 C2182 0.960 . S
H2247 C2182 0.959 . S
H2248 C2185 0.930 . S
H2249 C2189 0.931 . S
H2250 C2190 0.959 . S
H2251 C2190 0.961 . S
H2252 C2190 0.959 . S
H2253 C2191 0.960 . S
H2254 C2191 0.960 . S
H2255 C2191 0.960 . S
H2256 C2227 0.980 . S
H2257 C2193 0.930 . S
H2258 C2197 0.930 . S
H2259 C2198 0.961 . S
H2260 C2198 0.960 . S
H2261 C2198 0.958 . S
H2262 C2199 0.961 . S
H2263 C2199 0.960 . S
H2264 C2199 0.960 . S
H2265 C2201 0.980 . S
H2266 C2200 0.961 . S
H2267 C2200 0.961 . S
H2268 C2200 0.959 . S
H2269 C2203 0.932 . S
H2270 C2207 0.929 . S
H2271 C2208 0.961 . S
H2272 C2208 0.959 . S
H2273 C2208 0.959 . S
H2274 C2209 0.960 . S
H2275 C2209 0.962 . S
H2276 C2209 0.961 . S
H2277 C2211 0.929 . S
H2278 C2214 0.930 . S
H2279 C2215 0.929 . S
H2280 C2218 0.930 . S
H2281 C2221 0.929 . S
H2282 C2222 0.930 . S
H2283 C2226 0.962 . S
H2284 C2226 0.959 . S
H2285 C2226 0.958 . S
H2286 C2298 0.930 . S
H2287 C2300 0.930 . S
H2288 C2301 0.930 . S
H2289 C2305 0.959 . S
H2290 C2305 0.959 . S
H2291 C2305 0.961 . S
H2292 C2306 0.960 . S
H2293 C2306 0.961 . S
H2294 C2306 0.959 1_455 S
H2295 C2309 0.929 . S
H2296 C2310 0.931 . S
H2297 C2312 0.930 . S
C2298 H2286 0.930 . S
C2298 C2299 1.400 1_655 S
C2298 C2303 1.399 . S
C2299 C2298 1.400 1_455 S
C2299 C2300 1.376 . S
C2300 H2287 0.930 . S
C2300 C2299 1.376 . S
C2300 C2301 1.388 . S
C2301 H2288 0.930 . S
C2301 C2300 1.388 . S
C2301 C2302 1.390 . S
C2302 C2301 1.390 . S
C2302 C2303 1.394 1_455 S
C2302 C2308 1.465 . S
C2303 C2298 1.399 . S
C2303 C2302 1.394 1_655 S
C2303 C2304 1.516 . S
C2304 C2303 1.516 . S
C2304 C2305 1.502 . S
C2304 C2306 1.561 . S
C2304 C2307 1.526 . S
C2305 H2289 0.959 . S
C2305 H2290 0.959 . S
C2305 H2291 0.961 . S
C2305 C2304 1.502 . S
C2306 H2292 0.960 . S
C2306 H2293 0.961 . S
C2306 H2294 0.959 1_655 S
C2306 C2304 1.561 . S
C2307 C2304 1.526 . S
C2307 C2308 1.396 1_655 S
C2307 C2312 1.390 . S
C2308 C2302 1.465 . S
C2308 C2307 1.396 1_455 S
C2308 C2309 1.399 . S
C2309 H2295 0.929 . S
C2309 C2308 1.399 . S
C2309 C2310 1.385 . S
C2310 H2296 0.931 . S
C2310 C2309 1.385 . S
C2310 C2311 1.389 1_455 S
C2311 C2310 1.389 1_655 S
C2311 C2312 1.387 . S
C2312 H2297 0.930 . S
C2312 C2307 1.390 . S
C2312 C2311 1.387 . S
H2313 C2325 0.930 . S
H2314 C2327 0.930 . S
H2315 C2328 0.930 . S
H2316 C2332 0.959 . S
H2317 C2332 0.959 . S
H2318 C2332 0.961 . S
H2319 C2333 0.960 . S
H2320 C2333 0.961 . S
H2321 C2333 0.959 . S
H2322 C2336 0.929 . S
H2323 C2337 0.931 . S
H2324 C2339 0.930 . S
C2325 H2313 0.930 . S
C2325 C2326 1.399 . S
C2325 C2330 1.399 . S
C2326 C2325 1.399 . S
C2326 C2327 1.376 . S
C2327 H2314 0.930 . S
C2327 C2326 1.376 . S
C2327 C2328 1.388 . S
C2328 H2315 0.930 . S
C2328 C2327 1.388 . S
C2328 C2329 1.390 . S
C2329 C2328 1.390 . S
C2329 C2330 1.394 . S
C2329 C2335 1.465 . S
C2330 C2325 1.399 . S
C2330 C2329 1.394 . S
C2330 C2331 1.516 . S
C2331 C2330 1.516 . S
C2331 C2332 1.502 . S
C2331 C2333 1.561 . S
C2331 C2334 1.526 . S
C2332 H2316 0.959 . S
C2332 H2317 0.959 . S
C2332 H2318 0.961 . S
C2332 C2331 1.502 . S
C2333 H2319 0.960 . S
C2333 H2320 0.961 . S
C2333 H2321 0.959 . S
C2333 C2331 1.561 . S
C2334 C2331 1.526 . S
C2334 C2335 1.396 . S
C2334 C2339 1.390 . S
C2335 C2329 1.465 . S
C2335 C2334 1.396 . S
C2335 C2336 1.399 . S
C2336 H2322 0.929 . S
C2336 C2335 1.399 . S
C2336 C2337 1.385 . S
C2337 H2323 0.931 . S
C2337 C2336 1.385 . S
C2337 C2338 1.389 . S
C2338 C2337 1.389 . S
C2338 C2339 1.387 . S
C2339 H2324 0.930 . S
C2339 C2334 1.390 . S
C2339 C2338 1.387 . S
H2340 C2352 0.930 . S
H2341 C2354 0.930 . S
H2342 C2355 0.930 . S
H2343 C2359 0.959 . S
H2344 C2359 0.959 . S
H2345 C2359 0.961 . S
H2346 C2360 0.960 . S
H2347 C2360 0.961 . S
H2348 C2360 0.959 . S
H2349 C2363 0.929 . S
H2350 C2364 0.931 . S
H2351 C2366 0.930 . S
C2352 H2340 0.930 . S
C2352 C2353 1.399 . S
C2352 C2357 1.399 . S
C2353 C2352 1.399 . S
C2353 C2354 1.376 1_545 S
C2354 H2341 0.930 . S
C2354 C2353 1.376 1_565 S
C2354 C2355 1.388 . S
C2355 H2342 0.930 . S
C2355 C2354 1.388 . S
C2355 C2356 1.390 . S
C2356 C2355 1.390 . S
C2356 C2357 1.394 1_565 S
C2356 C2362 1.465 . S
C2357 C2352 1.399 . S
C2357 C2356 1.394 1_545 S
C2357 C2358 1.516 . S
C2358 C2357 1.516 . S
C2358 C2359 1.502 . S
C2358 C2360 1.561 . S
C2358 C2361 1.526 . S
C2359 H2343 0.959 . S
C2359 H2344 0.959 . S
C2359 H2345 0.961 . S
C2359 C2358 1.502 . S
C2360 H2346 0.960 . S
C2360 H2347 0.961 . S
C2360 H2348 0.959 . S
C2360 C2358 1.561 . S
C2361 C2358 1.526 . S
C2361 C2362 1.396 1_545 S
C2361 C2366 1.390 . S
C2362 C2356 1.465 . S
C2362 C2361 1.396 1_565 S
C2362 C2363 1.399 . S
C2363 H2349 0.929 . S
C2363 C2362 1.399 . S
C2363 C2364 1.385 . S
C2364 H2350 0.931 . S
C2364 C2363 1.385 . S
C2364 C2365 1.389 1_565 S
C2365 C2364 1.389 1_545 S
C2365 C2366 1.387 . S
C2366 H2351 0.930 . S
C2366 C2361 1.390 . S
C2366 C2365 1.387 . S
H2367 C2379 0.930 . S
H2368 C2381 0.930 . S
H2369 C2382 0.930 . S
H2370 C2386 0.959 . S
H2371 C2386 0.959 . S
H2372 C2386 0.961 . S
H2373 C2387 0.960 . S
H2374 C2387 0.961 . S
H2375 C2387 0.959 . S
H2376 C2390 0.929 . S
H2377 C2391 0.931 . S
H2378 C2393 0.930 . S
C2379 H2367 0.930 . S
C2379 C2380 1.399 . S
C2379 C2384 1.399 . S
C2380 C2379 1.399 . S
C2380 C2381 1.376 1_565 S
C2381 H2368 0.930 . S
C2381 C2380 1.376 1_545 S
C2381 C2382 1.388 . S
C2382 H2369 0.930 . S
C2382 C2381 1.388 . S
C2382 C2383 1.390 . S
C2383 C2382 1.390 . S
C2383 C2384 1.394 1_545 S
C2383 C2389 1.465 . S
C2384 C2379 1.399 . S
C2384 C2383 1.394 1_565 S
C2384 C2385 1.516 . S
C2385 C2384 1.516 . S
C2385 C2386 1.502 . S
C2385 C2387 1.561 . S
C2385 C2388 1.526 . S
C2386 H2370 0.959 . S
C2386 H2371 0.959 . S
C2386 H2372 0.961 . S
C2386 C2385 1.502 . S
C2387 H2373 0.960 . S
C2387 H2374 0.961 . S
C2387 H2375 0.959 . S
C2387 C2385 1.561 . S
C2388 C2385 1.526 . S
C2388 C2389 1.396 1_565 S
C2388 C2393 1.390 . S
C2389 C2383 1.465 . S
C2389 C2388 1.396 1_545 S
C2389 C2390 1.399 . S
C2390 H2376 0.929 . S
C2390 C2389 1.399 . S
C2390 C2391 1.385 . S
C2391 H2377 0.931 . S
C2391 C2390 1.385 . S
C2391 C2392 1.389 1_545 S
C2392 C2391 1.389 1_565 S
C2392 C2393 1.387 . S
C2393 H2378 0.930 . S
C2393 C2388 1.390 . S
C2393 C2392 1.387 . S
H2394 C2406 0.946 1_655 S
H2395 C2408 0.930 . S
H2396 C2409 0.930 . S
H2397 C2413 0.959 . S
H2398 C2413 0.962 . S
H2399 C2413 0.961 . S
H2400 C2414 0.960 . S
H2401 C2414 0.961 . S
H2402 C2414 0.959 . S
H2403 C2417 0.929 . S
H2404 C2418 0.931 . S
H2405 C2420 0.930 1_655 S
C2406 H2394 0.946 1_455 S
C2406 C2407 1.416 . S
C2406 C2411 1.374 . S
C2407 C2406 1.416 . S
C2407 C2408 1.376 . S
C2408 H2395 0.930 . S
C2408 C2407 1.376 . S
C2408 C2409 1.388 . S
C2409 H2396 0.930 . S
C2409 C2408 1.388 . S
C2409 C2410 1.390 . S
C2410 C2409 1.390 . S
C2410 C2411 1.394 . S
C2410 C2416 1.465 . S
C2411 C2406 1.374 . S
C2411 C2410 1.394 . S
C2411 C2412 1.516 1_455 S
C2412 C2411 1.516 1_655 S
C2412 C2413 1.502 1_655 S
C2412 C2414 1.561 . S
C2412 C2415 1.526 1_655 S
C2413 H2397 0.959 . S
C2413 H2398 0.962 . S
C2413 H2399 0.961 . S
C2413 C2412 1.502 1_455 S
C2414 H2400 0.960 . S
C2414 H2401 0.961 . S
C2414 H2402 0.959 . S
C2414 C2412 1.561 . S
C2415 C2412 1.526 1_455 S
C2415 C2416 1.396 . S
C2415 C2420 1.390 . S
C2416 C2410 1.465 . S
C2416 C2415 1.396 . S
C2416 C2417 1.399 . S
C2417 H2403 0.929 . S
C2417 C2416 1.399 . S
C2417 C2418 1.385 . S
C2418 H2404 0.931 . S
C2418 C2417 1.385 . S
C2418 C2419 1.389 . S
C2419 C2418 1.389 . S
C2419 C2420 1.387 . S
C2420 H2405 0.930 1_455 S
C2420 C2415 1.390 . S
C2420 C2419 1.387 . S
H2421 C2433 0.930 . S
H2422 C2435 0.930 . S
H2423 C2436 0.930 . S
H2424 C2440 0.959 . S
H2425 C2440 0.959 . S
H2426 C2440 0.961 . S
H2427 C2441 0.960 . S
H2428 C2441 0.961 . S
H2429 C2441 0.959 . S
H2430 C2444 0.929 . S
H2431 C2445 0.931 . S
H2432 C2447 0.930 . S
C2433 H2421 0.930 . S
C2433 C2434 1.399 . S
C2433 C2438 1.399 . S
C2434 C2433 1.399 . S
C2434 C2435 1.376 . S
C2435 H2422 0.930 . S
C2435 C2434 1.376 . S
C2435 C2436 1.388 . S
C2436 H2423 0.930 . S
C2436 C2435 1.388 . S
C2436 C2437 1.390 . S
C2437 C2436 1.390 . S
C2437 C2438 1.394 . S
C2437 C2443 1.465 . S
C2438 C2433 1.399 . S
C2438 C2437 1.394 . S
C2438 C2439 1.516 . S
C2439 C2438 1.516 . S
C2439 C2440 1.502 . S
C2439 C2441 1.561 . S
C2439 C2442 1.526 . S
C2440 H2424 0.959 . S
C2440 H2425 0.959 . S
C2440 H2426 0.961 . S
C2440 C2439 1.502 . S
C2441 H2427 0.960 . S
C2441 H2428 0.961 . S
C2441 H2429 0.959 . S
C2441 C2439 1.561 . S
C2442 C2439 1.526 . S
C2442 C2443 1.396 . S
C2442 C2447 1.390 . S
C2443 C2437 1.465 . S
C2443 C2442 1.396 . S
C2443 C2444 1.399 . S
C2444 H2430 0.929 . S
C2444 C2443 1.399 . S
C2444 C2445 1.385 . S
C2445 H2431 0.931 . S
C2445 C2444 1.385 . S
C2445 C2446 1.389 . S
C2446 C2445 1.389 . S
C2446 C2447 1.387 . S
C2447 H2432 0.930 . S
C2447 C2442 1.390 . S
C2447 C2446 1.387 . S
H2448 C2460 0.930 . S
H2449 C2462 0.930 . S
H2450 C2463 0.930 . S
H2451 C2467 0.959 . S
H2452 C2467 0.959 . S
H2453 C2467 0.961 . S
H2454 C2468 0.960 . S
H2455 C2468 0.961 . S
H2456 C2468 0.959 . S
H2457 C2471 0.929 . S
H2458 C2472 0.931 . S
H2459 C2474 0.930 . S
C2460 H2448 0.930 . S
C2460 C2461 1.399 1_655 S
C2460 C2465 1.399 . S
C2461 C2460 1.399 1_455 S
C2461 C2462 1.376 . S
C2462 H2449 0.930 . S
C2462 C2461 1.376 . S
C2462 C2463 1.388 . S
C2463 H2450 0.930 . S
C2463 C2462 1.388 . S
C2463 C2464 1.390 . S
C2464 C2463 1.390 . S
C2464 C2465 1.394 1_455 S
C2464 C2470 1.465 . S
C2465 C2460 1.399 . S
C2465 C2464 1.394 1_655 S
C2465 C2466 1.516 . S
C2466 C2465 1.516 . S
C2466 C2467 1.502 . S
C2466 C2468 1.561 . S
C2466 C2469 1.526 . S
C2467 H2451 0.959 . S
C2467 H2452 0.959 . S
C2467 H2453 0.961 . S
C2467 C2466 1.502 . S
C2468 H2454 0.960 . S
C2468 H2455 0.961 . S
C2468 H2456 0.959 . S
C2468 C2466 1.561 . S
C2469 C2466 1.526 . S
C2469 C2470 1.396 1_655 S
C2469 C2474 1.390 . S
C2470 C2464 1.465 . S
C2470 C2469 1.396 1_455 S
C2470 C2471 1.399 . S
C2471 H2457 0.929 . S
C2471 C2470 1.399 . S
C2471 C2472 1.385 . S
C2472 H2458 0.931 . S
C2472 C2471 1.385 . S
C2472 C2473 1.389 . S
C2473 C2472 1.389 . S
C2473 C2474 1.387 1_455 S
C2474 H2459 0.930 . S
C2474 C2469 1.390 . S
C2474 C2473 1.387 1_655 S
H2475 C2487 0.930 . S
H2476 C2489 0.930 . S
H2477 C2490 0.930 . S
H2478 C2494 0.959 . S
H2479 C2494 0.959 . S
H2480 C2494 0.961 . S
H2481 C2495 0.960 . S
H2482 C2495 0.961 . S
H2483 C2495 0.959 . S
H2484 C2498 0.929 . S
H2485 C2499 0.931 . S
H2486 C2501 0.930 . S
C2487 H2475 0.930 . S
C2487 C2488 1.399 . S
C2487 C2492 1.399 . S
C2488 C2487 1.399 . S
C2488 C2489 1.376 . S
C2489 H2476 0.930 . S
C2489 C2488 1.376 . S
C2489 C2490 1.388 . S
C2490 H2477 0.930 . S
C2490 C2489 1.388 . S
C2490 C2491 1.390 . S
C2491 C2490 1.390 . S
C2491 C2492 1.394 . S
C2491 C2497 1.465 . S
C2492 C2487 1.399 . S
C2492 C2491 1.394 . S
C2492 C2493 1.516 . S
C2493 C2492 1.516 . S
C2493 C2494 1.502 . S
C2493 C2495 1.561 . S
C2493 C2496 1.526 . S
C2494 H2478 0.959 . S
C2494 H2479 0.959 . S
C2494 H2480 0.961 . S
C2494 C2493 1.502 . S
C2495 H2481 0.960 . S
C2495 H2482 0.961 . S
C2495 H2483 0.959 . S
C2495 C2493 1.561 . S
C2496 C2493 1.526 . S
C2496 C2497 1.396 . S
C2496 C2501 1.390 . S
C2497 C2491 1.465 . S
C2497 C2496 1.396 . S
C2497 C2498 1.399 . S
C2498 H2484 0.929 . S
C2498 C2497 1.399 . S
C2498 C2499 1.385 . S
C2499 H2485 0.931 . S
C2499 C2498 1.385 . S
C2499 C2500 1.389 . S
C2500 C2499 1.389 . S
C2500 C2501 1.387 . S
C2501 H2486 0.930 . S
C2501 C2496 1.390 . S
C2501 C2500 1.387 . S
H2502 C2514 0.930 . S
H2503 C2516 0.930 . S
H2504 C2517 0.930 . S
H2505 C2521 0.959 . S
H2506 C2521 0.959 . S
H2507 C2521 0.961 . S
H2508 C2522 0.960 . S
H2509 C2522 0.961 . S
H2510 C2522 0.959 1_565 S
H2511 C2525 0.929 . S
H2512 C2526 0.931 . S
H2513 C2528 0.930 . S
C2514 H2502 0.930 . S
C2514 C2515 1.399 1_545 S
C2514 C2519 1.399 . S
C2515 C2514 1.399 1_565 S
C2515 C2516 1.376 . S
C2516 H2503 0.930 . S
C2516 C2515 1.376 . S
C2516 C2517 1.388 . S
C2517 H2504 0.930 . S
C2517 C2516 1.388 . S
C2517 C2518 1.390 . S
C2518 C2517 1.390 . S
C2518 C2519 1.394 1_565 S
C2518 C2524 1.465 . S
C2519 C2514 1.399 . S
C2519 C2518 1.394 1_545 S
C2519 C2520 1.516 . S
C2520 C2519 1.516 . S
C2520 C2521 1.502 . S
C2520 C2522 1.561 . S
C2520 C2523 1.526 . S
C2521 H2505 0.959 . S
C2521 H2506 0.959 . S
C2521 H2507 0.961 . S
C2521 C2520 1.502 . S
C2522 H2508 0.960 . S
C2522 H2509 0.961 . S
C2522 H2510 0.959 1_545 S
C2522 C2520 1.561 . S
C2523 C2520 1.526 . S
C2523 C2524 1.396 1_545 S
C2523 C2528 1.390 . S
C2524 C2518 1.465 . S
C2524 C2523 1.396 1_565 S
C2524 C2525 1.399 . S
C2525 H2511 0.929 . S
C2525 C2524 1.399 . S
C2525 C2526 1.385 . S
C2526 H2512 0.931 . S
C2526 C2525 1.385 . S
C2526 C2527 1.389 . S
C2527 C2526 1.389 . S
C2527 C2528 1.387 1_565 S
C2528 H2513 0.930 . S
C2528 C2523 1.390 . S
C2528 C2527 1.387 1_545 S
H2529 C2541 0.930 . S
H2530 C2543 0.930 . S
H2531 C2544 0.930 . S
H2532 C2548 0.959 . S
H2533 C2548 0.959 . S
H2534 C2548 0.961 . S
H2535 C2549 0.960 . S
H2536 C2549 0.961 . S
H2537 C2549 0.959 . S
H2538 C2552 0.929 . S
H2539 C2553 0.931 . S
H2540 C2555 0.930 . S
C2541 H2529 0.930 . S
C2541 C2542 1.399 . S
C2541 C2546 1.399 . S
C2542 C2541 1.399 . S
C2542 C2543 1.376 1_545 S
C2543 H2530 0.930 . S
C2543 C2542 1.376 1_565 S
C2543 C2544 1.388 . S
C2544 H2531 0.930 . S
C2544 C2543 1.388 . S
C2544 C2545 1.390 . S
C2545 C2544 1.390 . S
C2545 C2546 1.394 1_565 S
C2545 C2551 1.465 . S
C2546 C2541 1.399 . S
C2546 C2545 1.394 1_545 S
C2546 C2547 1.516 . S
C2547 C2546 1.516 . S
C2547 C2548 1.502 . S
C2547 C2549 1.561 . S
C2547 C2550 1.526 . S
C2548 H2532 0.959 . S
C2548 H2533 0.959 . S
C2548 H2534 0.961 . S
C2548 C2547 1.502 . S
C2549 H2535 0.960 . S
C2549 H2536 0.961 . S
C2549 H2537 0.959 . S
C2549 C2547 1.561 . S
C2550 C2547 1.526 . S
C2550 C2551 1.396 1_545 S
C2550 C2555 1.390 . S
C2551 C2545 1.465 . S
C2551 C2550 1.396 1_565 S
C2551 C2552 1.399 . S
C2552 H2538 0.929 . S
C2552 C2551 1.399 . S
C2552 C2553 1.385 . S
C2553 H2539 0.931 . S
C2553 C2552 1.385 . S
C2553 C2554 1.396 . S
C2554 C2553 1.396 . S
C2554 C2555 1.383 1_565 S
C2555 H2540 0.930 . S
C2555 C2550 1.390 . S
C2555 C2554 1.383 1_545 S
H2556 C2568 0.930 . S
H2557 C2570 0.930 . S
H2558 C2571 0.930 . S
H2559 C2575 0.959 . S
H2560 C2575 0.959 . S
H2561 C2575 0.961 . S
H2562 C2576 0.960 . S
H2563 C2576 0.961 . S
H2564 C2576 0.959 1_655 S
H2565 C2579 0.929 . S
H2566 C2580 0.931 . S
H2567 C2582 0.930 . S
C2568 H2556 0.930 . S
C2568 C2569 1.399 1_455 S
C2568 C2573 1.399 . S
C2569 C2568 1.399 1_655 S
C2569 C2570 1.376 . S
C2570 H2557 0.930 . S
C2570 C2569 1.376 . S
C2570 C2571 1.388 . S
C2571 H2558 0.930 . S
C2571 C2570 1.388 . S
C2571 C2572 1.390 . S
C2572 C2571 1.390 . S
C2572 C2573 1.394 1_655 S
C2572 C2578 1.465 . S
C2573 C2568 1.399 . S
C2573 C2572 1.394 1_455 S
C2573 C2574 1.516 . S
C2574 C2573 1.516 . S
C2574 C2575 1.502 . S
C2574 C2576 1.561 . S
C2574 C2577 1.526 . S
C2575 H2559 0.959 . S
C2575 H2560 0.959 . S
C2575 H2561 0.961 . S
C2575 C2574 1.502 . S
C2576 H2562 0.960 . S
C2576 H2563 0.961 . S
C2576 H2564 0.959 1_455 S
C2576 C2574 1.561 . S
C2577 C2574 1.526 . S
C2577 C2578 1.396 1_455 S
C2577 C2582 1.390 . S
C2578 C2572 1.465 . S
C2578 C2577 1.396 1_655 S
C2578 C2579 1.399 . S
C2579 H2565 0.929 . S
C2579 C2578 1.399 . S
C2579 C2580 1.385 . S
C2580 H2566 0.931 . S
C2580 C2579 1.385 . S
C2580 C2581 1.389 . S
C2581 C2580 1.389 . S
C2581 C2582 1.387 1_655 S
C2582 H2567 0.930 . S
C2582 C2577 1.390 . S
C2582 C2581 1.387 1_455 S
H2583 C2595 0.930 . S
H2584 C2597 0.930 . S
H2585 C2598 0.930 . S
H2586 C2602 0.959 . S
H2587 C2602 0.959 . S
H2588 C2602 0.961 . S
H2589 C2603 0.960 . S
H2590 C2603 0.961 . S
H2591 C2603 0.959 . S
H2592 C2606 0.929 . S
H2593 C2607 0.931 . S
H2594 C2609 0.930 . S
C2595 H2583 0.930 . S
C2595 C2596 1.399 . S
C2595 C2600 1.399 . S
C2596 C2595 1.399 . S
C2596 C2597 1.376 . S
C2597 H2584 0.930 . S
C2597 C2596 1.376 . S
C2597 C2598 1.388 . S
C2598 H2585 0.930 . S
C2598 C2597 1.388 . S
C2598 C2599 1.390 . S
C2599 C2598 1.390 . S
C2599 C2600 1.394 . S
C2599 C2605 1.465 . S
C2600 C2595 1.399 . S
C2600 C2599 1.394 . S
C2600 C2601 1.516 . S
C2601 C2600 1.516 . S
C2601 C2602 1.502 . S
C2601 C2603 1.561 . S
C2601 C2604 1.526 . S
C2602 H2586 0.959 . S
C2602 H2587 0.959 . S
C2602 H2588 0.961 . S
C2602 C2601 1.502 . S
C2603 H2589 0.960 . S
C2603 H2590 0.961 . S
C2603 H2591 0.959 . S
C2603 C2601 1.561 . S
C2604 C2601 1.526 . S
C2604 C2605 1.396 . S
C2604 C2609 1.390 . S
C2605 C2599 1.465 . S
C2605 C2604 1.396 . S
C2605 C2606 1.399 . S
C2606 H2592 0.929 . S
C2606 C2605 1.399 . S
C2606 C2607 1.385 . S
C2607 H2593 0.931 . S
C2607 C2606 1.385 . S
C2607 C2608 1.389 . S
C2608 C2607 1.389 . S
C2608 C2609 1.387 . S
C2609 H2594 0.930 . S
C2609 C2604 1.390 . S
C2609 C2608 1.387 . S
H2610 C2622 0.930 . S
H2611 C2624 0.930 . S
H2612 C2625 0.930 . S
H2613 C2629 0.959 . S
H2614 C2629 0.959 . S
H2615 C2629 0.961 . S
H2616 C2630 0.960 . S
H2617 C2630 0.961 . S
H2618 C2630 0.959 . S
H2619 C2633 0.929 . S
H2620 C2634 0.931 . S
H2621 C2636 0.930 . S
C2622 H2610 0.930 . S
C2622 C2623 1.399 . S
C2622 C2627 1.399 . S
C2623 C2622 1.399 . S
C2623 C2624 1.376 . S
C2624 H2611 0.930 . S
C2624 C2623 1.376 . S
C2624 C2625 1.388 . S
C2625 H2612 0.930 . S
C2625 C2624 1.388 . S
C2625 C2626 1.390 . S
C2626 C2625 1.390 . S
C2626 C2627 1.394 . S
C2626 C2632 1.465 . S
C2627 C2622 1.399 . S
C2627 C2626 1.394 . S
C2627 C2628 1.516 . S
C2628 C2627 1.516 . S
C2628 C2629 1.502 . S
C2628 C2630 1.561 . S
C2628 C2631 1.526 . S
C2629 H2613 0.959 . S
C2629 H2614 0.959 . S
C2629 H2615 0.961 . S
C2629 C2628 1.502 . S
C2630 H2616 0.960 . S
C2630 H2617 0.961 . S
C2630 H2618 0.959 . S
C2630 C2628 1.561 . S
C2631 C2628 1.526 . S
C2631 C2632 1.396 . S
C2631 C2636 1.390 . S
C2632 C2626 1.465 . S
C2632 C2631 1.396 . S
C2632 C2633 1.399 . S
C2633 H2619 0.929 . S
C2633 C2632 1.399 . S
C2633 C2634 1.385 . S
C2634 H2620 0.931 . S
C2634 C2633 1.385 . S
C2634 C2635 1.389 . S
C2635 C2634 1.389 . S
C2635 C2636 1.387 . S
C2636 H2621 0.930 . S
C2636 C2631 1.390 . S
C2636 C2635 1.387 . S
H2637 C2649 0.930 . S
H2638 C2651 0.930 . S
H2639 C2652 0.930 . S
H2640 C2656 0.959 . S
H2641 C2656 0.959 . S
H2642 C2656 0.961 . S
H2643 C2657 0.960 . S
H2644 C2657 0.961 . S
H2645 C2657 0.959 . S
H2646 C2660 0.929 . S
H2647 C2661 0.931 . S
H2648 C2663 0.930 . S
C2649 H2637 0.930 . S
C2649 C2650 1.399 . S
C2649 C2654 1.399 . S
C2650 C2649 1.399 . S
C2650 C2651 1.376 . S
C2651 H2638 0.930 . S
C2651 C2650 1.376 . S
C2651 C2652 1.388 . S
C2652 H2639 0.930 . S
C2652 C2651 1.388 . S
C2652 C2653 1.390 . S
C2653 C2652 1.390 . S
C2653 C2654 1.394 . S
C2653 C2659 1.465 . S
C2654 C2649 1.399 . S
C2654 C2653 1.394 . S
C2654 C2655 1.516 . S
C2655 C2654 1.516 . S
C2655 C2656 1.502 . S
C2655 C2657 1.561 . S
C2655 C2658 1.526 . S
C2656 H2640 0.959 . S
C2656 H2641 0.959 . S
C2656 H2642 0.961 . S
C2656 C2655 1.502 . S
C2657 H2643 0.960 . S
C2657 H2644 0.961 . S
C2657 H2645 0.959 . S
C2657 C2655 1.561 . S
C2658 C2655 1.526 . S
C2658 C2659 1.396 . S
C2658 C2663 1.390 . S
C2659 C2653 1.465 . S
C2659 C2658 1.396 . S
C2659 C2660 1.399 . S
C2660 H2646 0.929 . S
C2660 C2659 1.399 . S
C2660 C2661 1.385 . S
C2661 H2647 0.931 . S
C2661 C2660 1.385 . S
C2661 C2662 1.389 . S
C2662 C2661 1.389 . S
C2662 C2663 1.387 . S
C2663 H2648 0.930 . S
C2663 C2658 1.390 . S
C2663 C2662 1.387 . S
H2664 C2676 0.930 . S
H2665 C2678 0.930 . S
H2666 C2679 0.930 . S
H2667 C2683 0.959 . S
H2668 C2683 0.959 . S
H2669 C2683 0.961 . S
H2670 C2684 0.960 . S
H2671 C2684 0.961 . S
H2672 C2684 0.959 . S
H2673 C2687 0.929 . S
H2674 C2688 0.931 . S
H2675 C2690 0.930 . S
C2676 H2664 0.930 . S
C2676 C2677 1.399 . S
C2676 C2681 1.399 . S
C2677 C2676 1.399 . S
C2677 C2678 1.376 . S
C2678 H2665 0.930 . S
C2678 C2677 1.376 . S
C2678 C2679 1.388 . S
C2679 H2666 0.930 . S
C2679 C2678 1.388 . S
C2679 C2680 1.390 . S
C2680 C2679 1.390 . S
C2680 C2681 1.394 . S
C2680 C2686 1.465 . S
C2681 C2676 1.399 . S
C2681 C2680 1.394 . S
C2681 C2682 1.516 . S
C2682 C2681 1.516 . S
C2682 C2683 1.502 . S
C2682 C2684 1.561 . S
C2682 C2685 1.526 . S
C2683 H2667 0.959 . S
C2683 H2668 0.959 . S
C2683 H2669 0.961 . S
C2683 C2682 1.502 . S
C2684 H2670 0.960 . S
C2684 H2671 0.961 . S
C2684 H2672 0.959 . S
C2684 C2682 1.561 . S
C2685 C2682 1.526 . S
C2685 C2686 1.396 . S
C2685 C2690 1.390 . S
C2686 C2680 1.465 . S
C2686 C2685 1.396 . S
C2686 C2687 1.399 . S
C2687 H2673 0.929 . S
C2687 C2686 1.399 . S
C2687 C2688 1.385 . S
C2688 H2674 0.931 . S
C2688 C2687 1.385 . S
C2688 C2689 1.389 . S
C2689 C2688 1.389 . S
C2689 C2690 1.387 . S
C2690 H2675 0.930 . S
C2690 C2685 1.390 . S
C2690 C2689 1.387 . S
H2691 C2703 0.930 . S
H2692 C2705 0.930 . S
H2693 C2706 0.930 . S
H2694 C2710 0.959 . S
H2695 C2710 0.959 . S
H2696 C2710 0.961 . S
H2697 C2711 0.960 . S
H2698 C2711 0.961 . S
H2699 C2711 0.959 . S
H2700 C2714 0.929 . S
H2701 C2715 0.931 . S
H2702 C2717 0.930 . S
C2703 H2691 0.930 . S
C2703 C2704 1.399 . S
C2703 C2708 1.399 . S
C2704 C2703 1.399 . S
C2704 C2705 1.376 . S
C2705 H2692 0.930 . S
C2705 C2704 1.376 . S
C2705 C2706 1.388 . S
C2706 H2693 0.930 . S
C2706 C2705 1.388 . S
C2706 C2707 1.390 . S
C2707 C2706 1.390 . S
C2707 C2708 1.394 . S
C2707 C2713 1.465 . S
C2708 C2703 1.399 . S
C2708 C2707 1.394 . S
C2708 C2709 1.516 . S
C2709 C2708 1.516 . S
C2709 C2710 1.502 . S
C2709 C2711 1.561 . S
C2709 C2712 1.526 . S
C2710 H2694 0.959 . S
C2710 H2695 0.959 . S
C2710 H2696 0.961 . S
C2710 C2709 1.502 . S
C2711 H2697 0.960 . S
C2711 H2698 0.961 . S
C2711 H2699 0.959 . S
C2711 C2709 1.561 . S
C2712 C2709 1.526 . S
C2712 C2713 1.396 . S
C2712 C2717 1.390 . S
C2713 C2707 1.465 . S
C2713 C2712 1.396 . S
C2713 C2714 1.399 . S
C2714 H2700 0.929 . S
C2714 C2713 1.399 . S
C2714 C2715 1.385 . S
C2715 H2701 0.931 . S
C2715 C2714 1.385 . S
C2715 C2716 1.389 . S
C2716 C2715 1.389 . S
C2716 C2717 1.387 . S
C2717 H2702 0.930 . S
C2717 C2712 1.390 . S
C2717 C2716 1.387 . S
H2718 C2730 0.930 . S
H2719 C2732 0.930 . S
H2720 C2733 0.930 . S
H2721 C2737 0.959 . S
H2722 C2737 0.959 . S
H2723 C2737 0.961 . S
H2724 C2738 0.960 . S
H2725 C2738 0.961 . S
H2726 C2738 0.959 . S
H2727 C2741 0.929 . S
H2728 C2742 0.931 . S
H2729 C2744 0.930 . S
C2730 H2718 0.930 . S
C2730 C2731 1.399 . S
C2730 C2735 1.399 . S
C2731 C2730 1.399 . S
C2731 C2732 1.376 . S
C2732 H2719 0.930 . S
C2732 C2731 1.376 . S
C2732 C2733 1.388 . S
C2733 H2720 0.930 . S
C2733 C2732 1.388 . S
C2733 C2734 1.390 . S
C2734 C2733 1.390 . S
C2734 C2735 1.394 . S
C2734 C2740 1.465 . S
C2735 C2730 1.399 . S
C2735 C2734 1.394 . S
C2735 C2736 1.516 . S
C2736 C2735 1.516 . S
C2736 C2737 1.502 . S
C2736 C2738 1.561 . S
C2736 C2739 1.526 . S
C2737 H2721 0.959 . S
C2737 H2722 0.959 . S
C2737 H2723 0.961 . S
C2737 C2736 1.502 . S
C2738 H2724 0.960 . S
C2738 H2725 0.961 . S
C2738 H2726 0.959 . S
C2738 C2736 1.561 . S
C2739 C2736 1.526 . S
C2739 C2740 1.396 . S
C2739 C2744 1.390 . S
C2740 C2734 1.465 . S
C2740 C2739 1.396 . S
C2740 C2741 1.399 . S
C2741 H2727 0.929 . S
C2741 C2740 1.399 . S
C2741 C2742 1.385 . S
C2742 H2728 0.931 . S
C2742 C2741 1.385 . S
C2742 C2743 1.389 . S
C2743 C2742 1.389 . S
C2743 C2744 1.387 . S
C2744 H2729 0.930 . S
C2744 C2739 1.390 . S
C2744 C2743 1.387 . S
H2745 C2757 0.930 . S
H2746 C2759 0.930 . S
H2747 C2760 0.930 . S
H2748 C2764 0.959 . S
H2749 C2764 0.959 . S
H2750 C2764 0.961 . S
H2751 C2765 0.960 . S
H2752 C2765 0.961 . S
H2753 C2765 0.959 . S
H2754 C2768 0.929 . S
H2755 C2769 0.931 . S
H2756 C2771 0.930 . S
C2757 H2745 0.930 . S
C2757 C2758 1.399 . S
C2757 C2762 1.399 . S
C2758 C2757 1.399 . S
C2758 C2759 1.376 . S
C2759 H2746 0.930 . S
C2759 C2758 1.376 . S
C2759 C2760 1.388 . S
C2760 H2747 0.930 . S
C2760 C2759 1.388 . S
C2760 C2761 1.390 . S
C2761 C2760 1.390 . S
C2761 C2762 1.394 . S
C2761 C2767 1.465 . S
C2762 C2757 1.399 . S
C2762 C2761 1.394 . S
C2762 C2763 1.516 . S
C2763 C2762 1.516 . S
C2763 C2764 1.502 . S
C2763 C2765 1.561 . S
C2763 C2766 1.526 . S
C2764 H2748 0.959 . S
C2764 H2749 0.959 . S
C2764 H2750 0.961 . S
C2764 C2763 1.502 . S
C2765 H2751 0.960 . S
C2765 H2752 0.961 . S
C2765 H2753 0.959 . S
C2765 C2763 1.561 . S
C2766 C2763 1.526 . S
C2766 C2767 1.396 . S
C2766 C2771 1.390 . S
C2767 C2761 1.465 . S
C2767 C2766 1.396 . S
C2767 C2768 1.399 . S
C2768 H2754 0.929 . S
C2768 C2767 1.399 . S
C2768 C2769 1.385 . S
C2769 H2755 0.931 . S
C2769 C2768 1.385 . S
C2769 C2770 1.389 . S
C2770 C2769 1.389 . S
C2770 C2771 1.387 . S
C2771 H2756 0.930 . S
C2771 C2766 1.390 . S
C2771 C2770 1.387 . S
H2772 C2784 0.930 . S
H2773 C2786 0.930 . S
H2774 C2787 0.930 . S
H2775 C2791 0.959 . S
H2776 C2791 0.959 . S
H2777 C2791 0.961 . S
H2778 C2792 0.960 . S
H2779 C2792 0.961 . S
H2780 C2792 0.959 . S
H2781 C2795 0.929 . S
H2782 C2796 0.931 . S
H2783 C2798 0.930 . S
C2784 H2772 0.930 . S
C2784 C2785 1.399 . S
C2784 C2789 1.399 . S
C2785 C2784 1.399 . S
C2785 C2786 1.376 . S
C2786 H2773 0.930 . S
C2786 C2785 1.376 . S
C2786 C2787 1.388 . S
C2787 H2774 0.930 . S
C2787 C2786 1.388 . S
C2787 C2788 1.390 . S
C2788 C2787 1.390 . S
C2788 C2789 1.394 . S
C2788 C2794 1.465 . S
C2789 C2784 1.399 . S
C2789 C2788 1.394 . S
C2789 C2790 1.516 . S
C2790 C2789 1.516 . S
C2790 C2791 1.502 . S
C2790 C2792 1.561 . S
C2790 C2793 1.526 . S
C2791 H2775 0.959 . S
C2791 H2776 0.959 . S
C2791 H2777 0.961 . S
C2791 C2790 1.502 . S
C2792 H2778 0.960 . S
C2792 H2779 0.961 . S
C2792 H2780 0.959 . S
C2792 C2790 1.561 . S
C2793 C2790 1.526 . S
C2793 C2794 1.396 . S
C2793 C2798 1.390 . S
C2794 C2788 1.465 . S
C2794 C2793 1.396 . S
C2794 C2795 1.399 . S
C2795 H2781 0.929 . S
C2795 C2794 1.399 . S
C2795 C2796 1.385 . S
C2796 H2782 0.931 . S
C2796 C2795 1.385 . S
C2796 C2797 1.389 . S
C2797 C2796 1.389 . S
C2797 C2798 1.387 . S
C2798 H2783 0.930 . S
C2798 C2793 1.390 . S
C2798 C2797 1.387 . S
H2799 C2811 0.930 . S
H2800 C2813 0.930 . S
H2801 C2814 0.930 . S
H2802 C2818 0.959 . S
H2803 C2818 0.959 . S
H2804 C2818 0.961 . S
H2805 C2819 0.960 . S
H2806 C2819 0.961 . S
H2807 C2819 0.959 . S
H2808 C2822 0.929 . S
H2809 C2823 0.931 . S
H2810 C2825 0.930 . S
C2811 H2799 0.930 . S
C2811 C2812 1.399 . S
C2811 C2816 1.399 . S
C2812 C2811 1.399 . S
C2812 C2813 1.376 . S
C2813 H2800 0.930 . S
C2813 C2812 1.376 . S
C2813 C2814 1.388 . S
C2814 H2801 0.930 . S
C2814 C2813 1.388 . S
C2814 C2815 1.390 . S
C2815 C2814 1.390 . S
C2815 C2816 1.394 . S
C2815 C2821 1.465 . S
C2816 C2811 1.399 . S
C2816 C2815 1.394 . S
C2816 C2817 1.516 . S
C2817 C2816 1.516 . S
C2817 C2818 1.502 . S
C2817 C2819 1.561 . S
C2817 C2820 1.526 . S
C2818 H2802 0.959 . S
C2818 H2803 0.959 . S
C2818 H2804 0.961 . S
C2818 C2817 1.502 . S
C2819 H2805 0.960 . S
C2819 H2806 0.961 . S
C2819 H2807 0.959 . S
C2819 C2817 1.561 . S
C2820 C2817 1.526 . S
C2820 C2821 1.396 . S
C2820 C2825 1.390 . S
C2821 C2815 1.465 . S
C2821 C2820 1.396 . S
C2821 C2822 1.399 . S
C2822 H2808 0.929 . S
C2822 C2821 1.399 . S
C2822 C2823 1.385 . S
C2823 H2809 0.931 . S
C2823 C2822 1.385 . S
C2823 C2824 1.389 . S
C2824 C2823 1.389 . S
C2824 C2825 1.387 . S
C2825 H2810 0.930 . S
C2825 C2820 1.390 . S
C2825 C2824 1.387 . S
H2826 C2838 0.930 . S
H2827 C2840 0.930 . S
H2828 C2841 0.930 . S
H2829 C2845 0.959 . S
H2830 C2845 0.959 . S
H2831 C2845 0.961 . S
H2832 C2846 0.960 . S
H2833 C2846 0.961 . S
H2834 C2846 0.959 . S
H2835 C2849 0.929 . S
H2836 C2850 0.931 . S
H2837 C2852 0.930 . S
C2838 H2826 0.930 . S
C2838 C2839 1.399 . S
C2838 C2843 1.399 . S
C2839 C2838 1.399 . S
C2839 C2840 1.376 . S
C2840 H2827 0.930 . S
C2840 C2839 1.376 . S
C2840 C2841 1.388 . S
C2841 H2828 0.930 . S
C2841 C2840 1.388 . S
C2841 C2842 1.390 . S
C2842 C2841 1.390 . S
C2842 C2843 1.394 . S
C2842 C2848 1.465 . S
C2843 C2838 1.399 . S
C2843 C2842 1.394 . S
C2843 C2844 1.516 . S
C2844 C2843 1.516 . S
C2844 C2845 1.502 . S
C2844 C2846 1.561 . S
C2844 C2847 1.526 . S
C2845 H2829 0.959 . S
C2845 H2830 0.959 . S
C2845 H2831 0.961 . S
C2845 C2844 1.502 . S
C2846 H2832 0.960 . S
C2846 H2833 0.961 . S
C2846 H2834 0.959 . S
C2846 C2844 1.561 . S
C2847 C2844 1.526 . S
C2847 C2848 1.396 . S
C2847 C2852 1.390 . S
C2848 C2842 1.465 . S
C2848 C2847 1.396 . S
C2848 C2849 1.399 . S
C2849 H2835 0.929 . S
C2849 C2848 1.399 . S
C2849 C2850 1.385 . S
C2850 H2836 0.931 . S
C2850 C2849 1.385 . S
C2850 C2851 1.389 . S
C2851 C2850 1.389 . S
C2851 C2852 1.387 . S
C2852 H2837 0.930 . S
C2852 C2847 1.390 . S
C2852 C2851 1.387 . S
H2853 C2865 0.930 . S
H2854 C2867 0.930 . S
H2855 C2868 0.930 . S
H2856 C2872 0.959 . S
H2857 C2872 0.959 . S
H2858 C2872 0.961 . S
H2859 C2873 0.960 . S
H2860 C2873 0.961 . S
H2861 C2873 0.959 . S
H2862 C2876 0.929 . S
H2863 C2877 0.931 . S
H2864 C2879 0.930 . S
C2865 H2853 0.930 . S
C2865 C2866 1.399 . S
C2865 C2870 1.399 . S
C2866 C2865 1.399 . S
C2866 C2867 1.376 . S
C2867 H2854 0.930 . S
C2867 C2866 1.376 . S
C2867 C2868 1.388 . S
C2868 H2855 0.930 . S
C2868 C2867 1.388 . S
C2868 C2869 1.390 . S
C2869 C2868 1.390 . S
C2869 C2870 1.394 . S
C2869 C2875 1.465 . S
C2870 C2865 1.399 . S
C2870 C2869 1.394 . S
C2870 C2871 1.516 . S
C2871 C2870 1.516 . S
C2871 C2872 1.502 . S
C2871 C2873 1.561 . S
C2871 C2874 1.526 . S
C2872 H2856 0.959 . S
C2872 H2857 0.959 . S
C2872 H2858 0.961 . S
C2872 C2871 1.502 . S
C2873 H2859 0.960 . S
C2873 H2860 0.961 . S
C2873 H2861 0.959 . S
C2873 C2871 1.561 . S
C2874 C2871 1.526 . S
C2874 C2875 1.396 . S
C2874 C2879 1.390 . S
C2875 C2869 1.465 . S
C2875 C2874 1.396 . S
C2875 C2876 1.399 . S
C2876 H2862 0.929 . S
C2876 C2875 1.399 . S
C2876 C2877 1.385 . S
C2877 H2863 0.931 . S
C2877 C2876 1.385 . S
C2877 C2878 1.389 . S
C2878 C2877 1.389 . S
C2878 C2879 1.387 . S
C2879 H2864 0.930 . S
C2879 C2874 1.390 . S
C2879 C2878 1.387 . S
H2880 C2892 0.930 . S
H2881 C2894 0.930 . S
H2882 C2895 0.930 . S
H2883 C2899 0.959 . S
H2884 C2899 0.959 . S
H2885 C2899 0.961 . S
H2886 C2900 0.960 . S
H2887 C2900 0.961 . S
H2888 C2900 0.959 . S
H2889 C2903 0.929 . S
H2890 C2904 0.931 . S
H2891 C2906 0.930 . S
C2892 H2880 0.930 . S
C2892 C2893 1.399 . S
C2892 C2897 1.399 . S
C2893 C2892 1.399 . S
C2893 C2894 1.376 . S
C2894 H2881 0.930 . S
C2894 C2893 1.376 . S
C2894 C2895 1.388 . S
C2895 H2882 0.930 . S
C2895 C2894 1.388 . S
C2895 C2896 1.390 . S
C2896 C2895 1.390 . S
C2896 C2897 1.394 . S
C2896 C2902 1.465 . S
C2897 C2892 1.399 . S
C2897 C2896 1.394 . S
C2897 C2898 1.516 . S
C2898 C2897 1.516 . S
C2898 C2899 1.502 . S
C2898 C2900 1.561 . S
C2898 C2901 1.526 . S
C2899 H2883 0.959 . S
C2899 H2884 0.959 . S
C2899 H2885 0.961 . S
C2899 C2898 1.502 . S
C2900 H2886 0.960 . S
C2900 H2887 0.961 . S
C2900 H2888 0.959 . S
C2900 C2898 1.561 . S
C2901 C2898 1.526 . S
C2901 C2902 1.396 . S
C2901 C2906 1.390 . S
C2902 C2896 1.465 . S
C2902 C2901 1.396 . S
C2902 C2903 1.399 . S
C2903 H2889 0.929 . S
C2903 C2902 1.399 . S
C2903 C2904 1.385 . S
C2904 H2890 0.931 . S
C2904 C2903 1.385 . S
C2904 C2905 1.389 . S
C2905 C2904 1.389 . S
C2905 C2906 1.387 . S
C2906 H2891 0.930 . S
C2906 C2901 1.390 . S
C2906 C2905 1.387 . S
H2907 C2919 0.930 . S
H2908 C2921 0.930 . S
H2909 C2922 0.930 . S
H2910 C2926 0.959 . S
H2911 C2926 0.959 . S
H2912 C2926 0.961 . S
H2913 C2927 0.960 . S
H2914 C2927 0.961 . S
H2915 C2927 0.959 . S
H2916 C2930 0.929 . S
H2917 C2931 0.931 . S
H2918 C2933 0.930 . S
C2919 H2907 0.930 . S
C2919 C2920 1.399 . S
C2919 C2924 1.399 . S
C2920 C2919 1.399 . S
C2920 C2921 1.376 . S
C2921 H2908 0.930 . S
C2921 C2920 1.376 . S
C2921 C2922 1.388 . S
C2922 H2909 0.930 . S
C2922 C2921 1.388 . S
C2922 C2923 1.390 . S
C2923 C2922 1.390 . S
C2923 C2924 1.394 . S
C2923 C2929 1.465 . S
C2924 C2919 1.399 . S
C2924 C2923 1.394 . S
C2924 C2925 1.516 . S
C2925 C2924 1.516 . S
C2925 C2926 1.502 . S
C2925 C2927 1.561 . S
C2925 C2928 1.526 . S
C2926 H2910 0.959 . S
C2926 H2911 0.959 . S
C2926 H2912 0.961 . S
C2926 C2925 1.502 . S
C2927 H2913 0.960 . S
C2927 H2914 0.961 . S
C2927 H2915 0.959 . S
C2927 C2925 1.561 . S
C2928 C2925 1.526 . S
C2928 C2929 1.396 . S
C2928 C2933 1.390 . S
C2929 C2923 1.465 . S
C2929 C2928 1.396 . S
C2929 C2930 1.399 . S
C2930 H2916 0.929 . S
C2930 C2929 1.399 . S
C2930 C2931 1.385 . S
C2931 H2917 0.931 . S
C2931 C2930 1.385 . S
C2931 C2932 1.389 . S
C2932 C2931 1.389 . S
C2932 C2933 1.387 . S
C2933 H2918 0.930 . S
C2933 C2928 1.390 . S
C2933 C2932 1.387 . S
H2934 C2946 0.930 . S
H2935 C2948 0.930 . S
H2936 C2949 0.930 . S
H2937 C2953 0.959 . S
H2938 C2953 0.959 . S
H2939 C2953 0.961 . S
H2940 C2954 0.960 . S
H2941 C2954 0.961 . S
H2942 C2954 0.959 . S
H2943 C2957 0.929 . S
H2944 C2958 0.931 . S
H2945 C2960 0.930 . S
C2946 H2934 0.930 . S
C2946 C2947 1.399 . S
C2946 C2951 1.399 . S
C2947 C2946 1.399 . S
C2947 C2948 1.376 . S
C2948 H2935 0.930 . S
C2948 C2947 1.376 . S
C2948 C2949 1.388 . S
C2949 H2936 0.930 . S
C2949 C2948 1.388 . S
C2949 C2950 1.390 . S
C2950 C2949 1.390 . S
C2950 C2951 1.394 . S
C2950 C2956 1.465 . S
C2951 C2946 1.399 . S
C2951 C2950 1.394 . S
C2951 C2952 1.516 . S
C2952 C2951 1.516 . S
C2952 C2953 1.502 . S
C2952 C2954 1.561 . S
C2952 C2955 1.526 . S
C2953 H2937 0.959 . S
C2953 H2938 0.959 . S
C2953 H2939 0.961 . S
C2953 C2952 1.502 . S
C2954 H2940 0.960 . S
C2954 H2941 0.961 . S
C2954 H2942 0.959 . S
C2954 C2952 1.561 . S
C2955 C2952 1.526 . S
C2955 C2956 1.396 . S
C2955 C2960 1.390 . S
C2956 C2950 1.465 . S
C2956 C2955 1.396 . S
C2956 C2957 1.399 . S
C2957 H2943 0.929 . S
C2957 C2956 1.399 . S
C2957 C2958 1.385 . S
C2958 H2944 0.931 . S
C2958 C2957 1.385 . S
C2958 C2959 1.389 . S
C2959 C2958 1.389 . S
C2959 C2960 1.387 . S
C2960 H2945 0.930 . S
C2960 C2955 1.390 . S
C2960 C2959 1.387 . S
H2961 C2973 0.930 . S
H2962 C2975 0.930 . S
H2963 C2976 0.930 . S
H2964 C2980 0.959 . S
H2965 C2980 0.959 . S
H2966 C2980 0.961 . S
H2967 C2981 0.960 . S
H2968 C2981 0.961 . S
H2969 C2981 0.959 . S
H2970 C2984 0.929 . S
H2971 C2985 0.931 . S
H2972 C2987 0.930 . S
C2973 H2961 0.930 . S
C2973 C2974 1.399 . S
C2973 C2978 1.399 . S
C2974 C2973 1.399 . S
C2974 C2975 1.376 . S
C2975 H2962 0.930 . S
C2975 C2974 1.376 . S
C2975 C2976 1.388 . S
C2976 H2963 0.930 . S
C2976 C2975 1.388 . S
C2976 C2977 1.390 . S
C2977 C2976 1.390 . S
C2977 C2978 1.394 . S
C2977 C2983 1.465 . S
C2978 C2973 1.399 . S
C2978 C2977 1.394 . S
C2978 C2979 1.516 . S
C2979 C2978 1.516 . S
C2979 C2980 1.502 . S
C2979 C2981 1.561 . S
C2979 C2982 1.526 . S
C2980 H2964 0.959 . S
C2980 H2965 0.959 . S
C2980 H2966 0.961 . S
C2980 C2979 1.502 . S
C2981 H2967 0.960 . S
C2981 H2968 0.961 . S
C2981 H2969 0.959 . S
C2981 C2979 1.561 . S
C2982 C2979 1.526 . S
C2982 C2983 1.396 . S
C2982 C2987 1.390 . S
C2983 C2977 1.465 . S
C2983 C2982 1.396 . S
C2983 C2984 1.399 . S
C2984 H2970 0.929 . S
C2984 C2983 1.399 . S
C2984 C2985 1.385 . S
C2985 H2971 0.931 . S
C2985 C2984 1.385 . S
C2985 C2986 1.389 . S
C2986 C2985 1.389 . S
C2986 C2987 1.387 . S
C2987 H2972 0.930 . S
C2987 C2982 1.390 . S
C2987 C2986 1.387 . S
H2988 C3000 0.930 . S
H2989 C3002 0.930 . S
H2990 C3003 0.930 . S
H2991 C3007 0.959 . S
H2992 C3007 0.959 . S
H2993 C3007 0.961 . S
H2994 C3008 0.960 . S
H2995 C3008 0.961 . S
H2996 C3008 0.959 . S
H2997 C3011 0.929 . S
H2998 C3012 0.931 . S
H2999 C3014 0.930 . S
C3000 H2988 0.930 . S
C3000 C3001 1.399 . S
C3000 C3005 1.399 . S
C3001 C3000 1.399 . S
C3001 C3002 1.376 . S
C3002 H2989 0.930 . S
C3002 C3001 1.376 . S
C3002 C3003 1.388 . S
C3003 H2990 0.930 . S
C3003 C3002 1.388 . S
C3003 C3004 1.390 . S
C3004 C3003 1.390 . S
C3004 C3005 1.394 . S
C3004 C3010 1.465 . S
C3005 C3000 1.399 . S
C3005 C3004 1.394 . S
C3005 C3006 1.516 . S
C3006 C3005 1.516 . S
C3006 C3007 1.502 . S
C3006 C3008 1.561 . S
C3006 C3009 1.526 . S
C3007 H2991 0.959 . S
C3007 H2992 0.959 . S
C3007 H2993 0.961 . S
C3007 C3006 1.502 . S
C3008 H2994 0.960 . S
C3008 H2995 0.961 . S
C3008 H2996 0.959 . S
C3008 C3006 1.561 . S
C3009 C3006 1.526 . S
C3009 C3010 1.396 . S
C3009 C3014 1.390 . S
C3010 C3004 1.465 . S
C3010 C3009 1.396 . S
C3010 C3011 1.399 . S
C3011 H2997 0.929 . S
C3011 C3010 1.399 . S
C3011 C3012 1.385 . S
C3012 H2998 0.931 . S
C3012 C3011 1.385 . S
C3012 C3013 1.389 . S
C3013 C3012 1.389 . S
C3013 C3014 1.387 . S
C3014 H2999 0.930 . S
C3014 C3009 1.390 . S
C3014 C3013 1.387 . S
H3015 C3027 0.930 . S
H3016 C3029 0.930 . S
H3017 C3030 0.930 . S
H3018 C3034 0.959 . S
H3019 C3034 0.959 . S
H3020 C3034 0.961 . S
H3021 C3035 0.960 . S
H3022 C3035 0.961 . S
H3023 C3035 0.959 . S
H3024 C3038 0.929 . S
H3025 C3039 0.931 . S
H3026 C3041 0.930 . S
C3027 H3015 0.930 . S
C3027 C3028 1.399 . S
C3027 C3032 1.399 . S
C3028 C3027 1.399 . S
C3028 C3029 1.376 . S
C3029 H3016 0.930 . S
C3029 C3028 1.376 . S
C3029 C3030 1.388 . S
C3030 H3017 0.930 . S
C3030 C3029 1.388 . S
C3030 C3031 1.390 . S
C3031 C3030 1.390 . S
C3031 C3032 1.394 . S
C3031 C3037 1.465 . S
C3032 C3027 1.399 . S
C3032 C3031 1.394 . S
C3032 C3033 1.516 . S
C3033 C3032 1.516 . S
C3033 C3034 1.502 . S
C3033 C3035 1.561 . S
C3033 C3036 1.526 . S
C3034 H3018 0.959 . S
C3034 H3019 0.959 . S
C3034 H3020 0.961 . S
C3034 C3033 1.502 . S
C3035 H3021 0.960 . S
C3035 H3022 0.961 . S
C3035 H3023 0.959 . S
C3035 C3033 1.561 . S
C3036 C3033 1.526 . S
C3036 C3037 1.396 . S
C3036 C3041 1.390 . S
C3037 C3031 1.465 . S
C3037 C3036 1.396 . S
C3037 C3038 1.399 . S
C3038 H3024 0.929 . S
C3038 C3037 1.399 . S
C3038 C3039 1.385 . S
C3039 H3025 0.931 . S
C3039 C3038 1.385 . S
C3039 C3040 1.389 . S
C3040 C3039 1.389 . S
C3040 C3041 1.387 . S
C3041 H3026 0.930 . S
C3041 C3036 1.390 . S
C3041 C3040 1.387 . S
H3042 C3054 0.930 . S
H3043 C3056 0.930 . S
H3044 C3057 0.930 . S
H3045 C3061 0.959 . S
H3046 C3061 0.959 . S
H3047 C3061 0.961 . S
H3048 C3062 0.960 . S
H3049 C3062 0.961 . S
H3050 C3062 0.959 . S
H3051 C3065 0.929 . S
H3052 C3066 0.931 . S
H3053 C3068 0.930 . S
C3054 H3042 0.930 . S
C3054 C3055 1.399 . S
C3054 C3059 1.399 . S
C3055 C3054 1.399 . S
C3055 C3056 1.376 . S
C3056 H3043 0.930 . S
C3056 C3055 1.376 . S
C3056 C3057 1.388 . S
C3057 H3044 0.930 . S
C3057 C3056 1.388 . S
C3057 C3058 1.390 . S
C3058 C3057 1.390 . S
C3058 C3059 1.394 . S
C3058 C3064 1.465 . S
C3059 C3054 1.399 . S
C3059 C3058 1.394 . S
C3059 C3060 1.516 . S
C3060 C3059 1.516 . S
C3060 C3061 1.502 . S
C3060 C3062 1.561 . S
C3060 C3063 1.526 . S
C3061 H3045 0.959 . S
C3061 H3046 0.959 . S
C3061 H3047 0.961 . S
C3061 C3060 1.502 . S
C3062 H3048 0.960 . S
C3062 H3049 0.961 . S
C3062 H3050 0.959 . S
C3062 C3060 1.561 . S
C3063 C3060 1.526 . S
C3063 C3064 1.396 . S
C3063 C3068 1.390 . S
C3064 C3058 1.465 . S
C3064 C3063 1.396 . S
C3064 C3065 1.399 . S
C3065 H3051 0.929 . S
C3065 C3064 1.399 . S
C3065 C3066 1.385 . S
C3066 H3052 0.931 . S
C3066 C3065 1.385 . S
C3066 C3067 1.389 . S
C3067 C3066 1.389 . S
C3067 C3068 1.387 . S
C3068 H3053 0.930 . S
C3068 C3063 1.390 . S
C3068 C3067 1.387 . S
H3069 C3081 0.930 . S
H3070 C3083 0.930 . S
H3071 C3084 0.930 . S
H3072 C3088 0.959 . S
H3073 C3088 0.959 . S
H3074 C3088 0.961 . S
H3075 C3089 0.960 . S
H3076 C3089 0.961 . S
H3077 C3089 0.959 . S
H3078 C3092 0.929 . S
H3079 C3093 0.931 . S
H3080 C3095 0.930 . S
C3081 H3069 0.930 . S
C3081 C3082 1.399 . S
C3081 C3086 1.399 . S
C3082 C3081 1.399 . S
C3082 C3083 1.376 . S
C3083 H3070 0.930 . S
C3083 C3082 1.376 . S
C3083 C3084 1.388 . S
C3084 H3071 0.930 . S
C3084 C3083 1.388 . S
C3084 C3085 1.390 . S
C3085 C3084 1.390 . S
C3085 C3086 1.394 . S
C3085 C3091 1.465 . S
C3086 C3081 1.399 . S
C3086 C3085 1.394 . S
C3086 C3087 1.516 . S
C3087 C3086 1.516 . S
C3087 C3088 1.502 . S
C3087 C3089 1.561 . S
C3087 C3090 1.526 . S
C3088 H3072 0.959 . S
C3088 H3073 0.959 . S
C3088 H3074 0.961 . S
C3088 C3087 1.502 . S
C3089 H3075 0.960 . S
C3089 H3076 0.961 . S
C3089 H3077 0.959 . S
C3089 C3087 1.561 . S
C3090 C3087 1.526 . S
C3090 C3091 1.396 . S
C3090 C3095 1.390 . S
C3091 C3085 1.465 . S
C3091 C3090 1.396 . S
C3091 C3092 1.399 . S
C3092 H3078 0.929 . S
C3092 C3091 1.399 . S
C3092 C3093 1.385 . S
C3093 H3079 0.931 . S
C3093 C3092 1.385 . S
C3093 C3094 1.389 . S
C3094 C3093 1.389 . S
C3094 C3095 1.387 . S
C3095 H3080 0.930 . S
C3095 C3090 1.390 . S
C3095 C3094 1.387 . S
H3096 C3108 0.930 . S
H3097 C3110 0.930 . S
H3098 C3111 0.930 . S
H3099 C3115 0.959 . S
H3100 C3115 0.959 . S
H3101 C3115 0.961 . S
H3102 C3116 0.960 . S
H3103 C3116 0.961 . S
H3104 C3116 0.959 . S
H3105 C3119 0.929 . S
H3106 C3120 0.931 . S
H3107 C3122 0.930 . S
C3108 H3096 0.930 . S
C3108 C3109 1.399 . S
C3108 C3113 1.399 . S
C3109 C3108 1.399 . S
C3109 C3110 1.376 . S
C3110 H3097 0.930 . S
C3110 C3109 1.376 . S
C3110 C3111 1.388 . S
C3111 H3098 0.930 . S
C3111 C3110 1.388 . S
C3111 C3112 1.390 . S
C3112 C3111 1.390 . S
C3112 C3113 1.394 . S
C3112 C3118 1.465 . S
C3113 C3108 1.399 . S
C3113 C3112 1.394 . S
C3113 C3114 1.516 . S
C3114 C3113 1.516 . S
C3114 C3115 1.502 . S
C3114 C3116 1.561 . S
C3114 C3117 1.526 . S
C3115 H3099 0.959 . S
C3115 H3100 0.959 . S
C3115 H3101 0.961 . S
C3115 C3114 1.502 . S
C3116 H3102 0.960 . S
C3116 H3103 0.961 . S
C3116 H3104 0.959 . S
C3116 C3114 1.561 . S
C3117 C3114 1.526 . S
C3117 C3118 1.396 . S
C3117 C3122 1.390 . S
C3118 C3112 1.465 . S
C3118 C3117 1.396 . S
C3118 C3119 1.399 . S
C3119 H3105 0.929 . S
C3119 C3118 1.399 . S
C3119 C3120 1.385 . S
C3120 H3106 0.931 . S
C3120 C3119 1.385 . S
C3120 C3121 1.389 . S
C3121 C3120 1.389 . S
C3121 C3122 1.387 . S
C3122 H3107 0.930 . S
C3122 C3117 1.390 . S
C3122 C3121 1.387 . S
H3123 C3135 0.930 . S
H3124 C3137 0.930 . S
H3125 C3138 0.930 . S
H3126 C3142 0.959 . S
H3127 C3142 0.959 . S
H3128 C3142 0.961 . S
H3129 C3143 0.960 . S
H3130 C3143 0.961 . S
H3131 C3143 0.959 . S
H3132 C3146 0.929 . S
H3133 C3147 0.931 . S
H3134 C3149 0.930 . S
C3135 H3123 0.930 . S
C3135 C3136 1.399 . S
C3135 C3140 1.399 . S
C3136 C3135 1.399 . S
C3136 C3137 1.376 . S
C3137 H3124 0.930 . S
C3137 C3136 1.376 . S
C3137 C3138 1.388 . S
C3138 H3125 0.930 . S
C3138 C3137 1.388 . S
C3138 C3139 1.390 . S
C3139 C3138 1.390 . S
C3139 C3140 1.394 . S
C3139 C3145 1.465 . S
C3140 C3135 1.399 . S
C3140 C3139 1.394 . S
C3140 C3141 1.516 . S
C3141 C3140 1.516 . S
C3141 C3142 1.502 . S
C3141 C3143 1.561 . S
C3141 C3144 1.526 . S
C3142 H3126 0.959 . S
C3142 H3127 0.959 . S
C3142 H3128 0.961 . S
C3142 C3141 1.502 . S
C3143 H3129 0.960 . S
C3143 H3130 0.961 . S
C3143 H3131 0.959 . S
C3143 C3141 1.561 . S
C3144 C3141 1.526 . S
C3144 C3145 1.396 . S
C3144 C3149 1.390 . S
C3145 C3139 1.465 . S
C3145 C3144 1.396 . S
C3145 C3146 1.399 . S
C3146 H3132 0.929 . S
C3146 C3145 1.399 . S
C3146 C3147 1.385 . S
C3147 H3133 0.931 . S
C3147 C3146 1.385 . S
C3147 C3148 1.389 . S
C3148 C3147 1.389 . S
C3148 C3149 1.387 . S
C3149 H3134 0.930 . S
C3149 C3144 1.390 . S
C3149 C3148 1.387 . S
H3150 C3162 0.930 . S
H3151 C3164 0.930 . S
H3152 C3165 0.930 . S
H3153 C3169 0.959 . S
H3154 C3169 0.959 . S
H3155 C3169 0.961 . S
H3156 C3170 0.960 . S
H3157 C3170 0.961 . S
H3158 C3170 0.959 . S
H3159 C3173 0.929 . S
H3160 C3174 0.931 . S
H3161 C3176 0.930 . S
C3162 H3150 0.930 . S
C3162 C3163 1.399 . S
C3162 C3167 1.399 . S
C3163 C3162 1.399 . S
C3163 C3164 1.376 . S
C3164 H3151 0.930 . S
C3164 C3163 1.376 . S
C3164 C3165 1.388 . S
C3165 H3152 0.930 . S
C3165 C3164 1.388 . S
C3165 C3166 1.390 . S
C3166 C3165 1.390 . S
C3166 C3167 1.394 . S
C3166 C3172 1.465 . S
C3167 C3162 1.399 . S
C3167 C3166 1.394 . S
C3167 C3168 1.516 . S
C3168 C3167 1.516 . S
C3168 C3169 1.502 . S
C3168 C3170 1.561 . S
C3168 C3171 1.526 . S
C3169 H3153 0.959 . S
C3169 H3154 0.959 . S
C3169 H3155 0.961 . S
C3169 C3168 1.502 . S
C3170 H3156 0.960 . S
C3170 H3157 0.961 . S
C3170 H3158 0.959 . S
C3170 C3168 1.561 . S
C3171 C3168 1.526 . S
C3171 C3172 1.396 . S
C3171 C3176 1.390 . S
C3172 C3166 1.465 . S
C3172 C3171 1.396 . S
C3172 C3173 1.399 . S
C3173 H3159 0.929 . S
C3173 C3172 1.399 . S
C3173 C3174 1.385 . S
C3174 H3160 0.931 . S
C3174 C3173 1.385 . S
C3174 C3175 1.389 . S
C3175 C3174 1.389 . S
C3175 C3176 1.387 . S
C3176 H3161 0.930 . S
C3176 C3171 1.390 . S
C3176 C3175 1.387 . S
H3177 C3189 0.930 . S
H3178 C3191 0.930 . S
H3179 C3192 0.930 . S
H3180 C3196 0.959 . S
H3181 C3196 0.959 . S
H3182 C3196 0.961 . S
H3183 C3197 0.960 . S
H3184 C3197 0.961 . S
H3185 C3197 0.959 . S
H3186 C3200 0.929 . S
H3187 C3201 0.931 . S
H3188 C3203 0.930 . S
C3189 H3177 0.930 . S
C3189 C3190 1.399 . S
C3189 C3194 1.399 . S
C3190 C3189 1.399 . S
C3190 C3191 1.376 . S
C3191 H3178 0.930 . S
C3191 C3190 1.376 . S
C3191 C3192 1.388 . S
C3192 H3179 0.930 . S
C3192 C3191 1.388 . S
C3192 C3193 1.390 . S
C3193 C3192 1.390 . S
C3193 C3194 1.394 . S
C3193 C3199 1.465 . S
C3194 C3189 1.399 . S
C3194 C3193 1.394 . S
C3194 C3195 1.516 . S
C3195 C3194 1.516 . S
C3195 C3196 1.502 . S
C3195 C3197 1.561 . S
C3195 C3198 1.526 . S
C3196 H3180 0.959 . S
C3196 H3181 0.959 . S
C3196 H3182 0.961 . S
C3196 C3195 1.502 . S
C3197 H3183 0.960 . S
C3197 H3184 0.961 . S
C3197 H3185 0.959 . S
C3197 C3195 1.561 . S
C3198 C3195 1.526 . S
C3198 C3199 1.396 . S
C3198 C3203 1.390 . S
C3199 C3193 1.465 . S
C3199 C3198 1.396 . S
C3199 C3200 1.399 . S
C3200 H3186 0.929 . S
C3200 C3199 1.399 . S
C3200 C3201 1.385 . S
C3201 H3187 0.931 . S
C3201 C3200 1.385 . S
C3201 C3202 1.389 . S
C3202 C3201 1.389 . S
C3202 C3203 1.387 . S
C3203 H3188 0.930 . S
C3203 C3198 1.390 . S
C3203 C3202 1.387 . S
H3204 C3216 0.930 . S
H3205 C3218 0.930 . S
H3206 C3219 0.930 . S
H3207 C3223 0.959 . S
H3208 C3223 0.959 . S
H3209 C3223 0.961 . S
H3210 C3224 0.960 . S
H3211 C3224 0.961 . S
H3212 C3224 0.959 . S
H3213 C3227 0.929 . S
H3214 C3228 0.931 . S
H3215 C3230 0.930 . S
C3216 H3204 0.930 . S
C3216 C3217 1.399 . S
C3216 C3221 1.399 . S
C3217 C3216 1.399 . S
C3217 C3218 1.376 . S
C3218 H3205 0.930 . S
C3218 C3217 1.376 . S
C3218 C3219 1.388 . S
C3219 H3206 0.930 . S
C3219 C3218 1.388 . S
C3219 C3220 1.390 . S
C3220 C3219 1.390 . S
C3220 C3221 1.394 . S
C3220 C3226 1.465 . S
C3221 C3216 1.399 . S
C3221 C3220 1.394 . S
C3221 C3222 1.516 . S
C3222 C3221 1.516 . S
C3222 C3223 1.502 . S
C3222 C3224 1.561 . S
C3222 C3225 1.526 . S
C3223 H3207 0.959 . S
C3223 H3208 0.959 . S
C3223 H3209 0.961 . S
C3223 C3222 1.502 . S
C3224 H3210 0.960 . S
C3224 H3211 0.961 . S
C3224 H3212 0.959 . S
C3224 C3222 1.561 . S
C3225 C3222 1.526 . S
C3225 C3226 1.396 . S
C3225 C3230 1.390 . S
C3226 C3220 1.465 . S
C3226 C3225 1.396 . S
C3226 C3227 1.399 . S
C3227 H3213 0.929 . S
C3227 C3226 1.399 . S
C3227 C3228 1.385 . S
C3228 H3214 0.931 . S
C3228 C3227 1.385 . S
C3228 C3229 1.389 . S
C3229 C3228 1.389 . S
C3229 C3230 1.387 . S
C3230 H3215 0.930 . S
C3230 C3225 1.390 . S
C3230 C3229 1.387 . S
H3231 C3243 0.930 . S
H3232 C3245 0.930 . S
H3233 C3246 0.930 . S
H3234 C3250 0.959 . S
H3235 C3250 0.959 . S
H3236 C3250 0.961 . S
H3237 C3251 0.960 . S
H3238 C3251 0.961 . S
H3239 C3251 0.959 . S
H3240 C3254 0.929 . S
H3241 C3255 0.931 . S
H3242 C3257 0.930 . S
C3243 H3231 0.930 . S
C3243 C3244 1.399 . S
C3243 C3248 1.399 . S
C3244 C3243 1.399 . S
C3244 C3245 1.376 . S
C3245 H3232 0.930 . S
C3245 C3244 1.376 . S
C3245 C3246 1.388 . S
C3246 H3233 0.930 . S
C3246 C3245 1.388 . S
C3246 C3247 1.390 . S
C3247 C3246 1.390 . S
C3247 C3248 1.394 . S
C3247 C3253 1.465 . S
C3248 C3243 1.399 . S
C3248 C3247 1.394 . S
C3248 C3249 1.516 . S
C3249 C3248 1.516 . S
C3249 C3250 1.502 . S
C3249 C3251 1.561 . S
C3249 C3252 1.526 . S
C3250 H3234 0.959 . S
C3250 H3235 0.959 . S
C3250 H3236 0.961 . S
C3250 C3249 1.502 . S
C3251 H3237 0.960 . S
C3251 H3238 0.961 . S
C3251 H3239 0.959 . S
C3251 C3249 1.561 . S
C3252 C3249 1.526 . S
C3252 C3253 1.396 . S
C3252 C3257 1.390 . S
C3253 C3247 1.465 . S
C3253 C3252 1.396 . S
C3253 C3254 1.399 . S
C3254 H3240 0.929 . S
C3254 C3253 1.399 . S
C3254 C3255 1.385 . S
C3255 H3241 0.931 . S
C3255 C3254 1.385 . S
C3255 C3256 1.389 . S
C3256 C3255 1.389 . S
C3256 C3257 1.387 . S
C3257 H3242 0.930 . S
C3257 C3252 1.390 . S
C3257 C3256 1.387 . S
H3258 C3270 0.930 . S
H3259 C3272 0.930 . S
H3260 C3273 0.930 . S
H3261 C3277 0.959 . S
H3262 C3277 0.959 . S
H3263 C3277 0.961 . S
H3264 C3278 0.960 . S
H3265 C3278 0.961 . S
H3266 C3278 0.959 . S
H3267 C3281 0.929 . S
H3268 C3282 0.931 . S
H3269 C3284 0.930 . S
C3270 H3258 0.930 . S
C3270 C3271 1.399 . S
C3270 C3275 1.399 . S
C3271 C3270 1.399 . S
C3271 C3272 1.376 . S
C3272 H3259 0.930 . S
C3272 C3271 1.376 . S
C3272 C3273 1.388 . S
C3273 H3260 0.930 . S
C3273 C3272 1.388 . S
C3273 C3274 1.390 . S
C3274 C3273 1.390 . S
C3274 C3275 1.394 . S
C3274 C3280 1.465 . S
C3275 C3270 1.399 . S
C3275 C3274 1.394 . S
C3275 C3276 1.516 . S
C3276 C3275 1.516 . S
C3276 C3277 1.502 . S
C3276 C3278 1.561 . S
C3276 C3279 1.526 . S
C3277 H3261 0.959 . S
C3277 H3262 0.959 . S
C3277 H3263 0.961 . S
C3277 C3276 1.502 . S
C3278 H3264 0.960 . S
C3278 H3265 0.961 . S
C3278 H3266 0.959 . S
C3278 C3276 1.561 . S
C3279 C3276 1.526 . S
C3279 C3280 1.396 . S
C3279 C3284 1.390 . S
C3280 C3274 1.465 . S
C3280 C3279 1.396 . S
C3280 C3281 1.399 . S
C3281 H3267 0.929 . S
C3281 C3280 1.399 . S
C3281 C3282 1.385 . S
C3282 H3268 0.931 . S
C3282 C3281 1.385 . S
C3282 C3283 1.389 . S
C3283 C3282 1.389 . S
C3283 C3284 1.387 . S
C3284 H3269 0.930 . S
C3284 C3279 1.390 . S
C3284 C3283 1.387 . S
H3285 C3297 0.930 . S
H3286 C3299 0.930 . S
H3287 C3300 0.930 . S
H3288 C3304 0.959 . S
H3289 C3304 0.959 . S
H3290 C3304 0.961 . S
H3291 C3305 0.960 . S
H3292 C3305 0.961 . S
H3293 C3305 0.959 . S
H3294 C3308 0.929 . S
H3295 C3309 0.931 . S
H3296 C3311 0.930 . S
C3297 H3285 0.930 . S
C3297 C3298 1.399 . S
C3297 C3302 1.399 . S
C3298 C3297 1.399 . S
C3298 C3299 1.376 . S
C3299 H3286 0.930 . S
C3299 C3298 1.376 . S
C3299 C3300 1.388 . S
C3300 H3287 0.930 . S
C3300 C3299 1.388 . S
C3300 C3301 1.390 . S
C3301 C3300 1.390 . S
C3301 C3302 1.394 . S
C3301 C3307 1.465 . S
C3302 C3297 1.399 . S
C3302 C3301 1.394 . S
C3302 C3303 1.516 . S
C3303 C3302 1.516 . S
C3303 C3304 1.502 . S
C3303 C3305 1.561 . S
C3303 C3306 1.526 . S
C3304 H3288 0.959 . S
C3304 H3289 0.959 . S
C3304 H3290 0.961 . S
C3304 C3303 1.502 . S
C3305 H3291 0.960 . S
C3305 H3292 0.961 . S
C3305 H3293 0.959 . S
C3305 C3303 1.561 . S
C3306 C3303 1.526 . S
C3306 C3307 1.396 . S
C3306 C3311 1.390 . S
C3307 C3301 1.465 . S
C3307 C3306 1.396 . S
C3307 C3308 1.399 . S
C3308 H3294 0.929 . S
C3308 C3307 1.399 . S
C3308 C3309 1.385 . S
C3309 H3295 0.931 . S
C3309 C3308 1.385 . S
C3309 C3310 1.389 . S
C3310 C3309 1.389 . S
C3310 C3311 1.387 . S
C3311 H3296 0.930 . S
C3311 C3306 1.390 . S
C3311 C3310 1.387 . S
H3312 C3324 0.930 . S
H3313 C3326 0.930 . S
H3314 C3327 0.930 . S
H3315 C3331 0.959 . S
H3316 C3331 0.959 . S
H3317 C3331 0.961 . S
H3318 C3332 0.960 . S
H3319 C3332 0.961 . S
H3320 C3332 0.959 . S
H3321 C3335 0.929 . S
H3322 C3336 0.931 . S
H3323 C3338 0.930 . S
C3324 H3312 0.930 . S
C3324 C3325 1.399 . S
C3324 C3329 1.399 . S
C3325 C3324 1.399 . S
C3325 C3326 1.376 . S
C3326 H3313 0.930 . S
C3326 C3325 1.376 . S
C3326 C3327 1.388 . S
C3327 H3314 0.930 . S
C3327 C3326 1.388 . S
C3327 C3328 1.390 . S
C3328 C3327 1.390 . S
C3328 C3329 1.394 . S
C3328 C3334 1.465 . S
C3329 C3324 1.399 . S
C3329 C3328 1.394 . S
C3329 C3330 1.516 . S
C3330 C3329 1.516 . S
C3330 C3331 1.502 . S
C3330 C3332 1.561 . S
C3330 C3333 1.526 . S
C3331 H3315 0.959 . S
C3331 H3316 0.959 . S
C3331 H3317 0.961 . S
C3331 C3330 1.502 . S
C3332 H3318 0.960 . S
C3332 H3319 0.961 . S
C3332 H3320 0.959 . S
C3332 C3330 1.561 . S
C3333 C3330 1.526 . S
C3333 C3334 1.396 . S
C3333 C3338 1.390 . S
C3334 C3328 1.465 . S
C3334 C3333 1.396 . S
C3334 C3335 1.399 . S
C3335 H3321 0.929 . S
C3335 C3334 1.399 . S
C3335 C3336 1.385 . S
C3336 H3322 0.931 . S
C3336 C3335 1.385 . S
C3336 C3337 1.389 . S
C3337 C3336 1.389 . S
C3337 C3338 1.387 . S
C3338 H3323 0.930 . S
C3338 C3333 1.390 . S
C3338 C3337 1.387 . S
H3339 C3351 0.930 . S
H3340 C3353 0.930 1_554 S
H3341 C3354 0.930 . S
H3342 C3358 0.959 . S
H3343 C3358 0.959 . S
H3344 C3358 0.961 . S
H3345 C3359 0.960 . S
H3346 C3359 0.961 . S
H3347 C3359 0.959 . S
H3348 C3362 0.929 . S
H3349 C3363 0.931 . S
H3350 C3365 0.930 . S
C3351 H3339 0.930 . S
C3351 C3352 1.399 . S
C3351 C3356 1.399 . S
C3352 C3351 1.399 . S
C3352 C3353 1.376 . S
C3353 H3340 0.930 1_556 S
C3353 C3352 1.376 . S
C3353 C3354 1.388 . S
C3354 H3341 0.930 . S
C3354 C3353 1.388 . S
C3354 C3355 1.390 . S
C3355 C3354 1.390 . S
C3355 C3356 1.394 . S
C3355 C3361 1.465 . S
C3356 C3351 1.399 . S
C3356 C3355 1.394 . S
C3356 C3357 1.516 . S
C3357 C3356 1.516 . S
C3357 C3358 1.502 . S
C3357 C3359 1.561 . S
C3357 C3360 1.526 . S
C3358 H3342 0.959 . S
C3358 H3343 0.959 . S
C3358 H3344 0.961 . S
C3358 C3357 1.502 . S
C3359 H3345 0.960 . S
C3359 H3346 0.961 . S
C3359 H3347 0.959 . S
C3359 C3357 1.561 . S
C3360 C3357 1.526 . S
C3360 C3361 1.396 . S
C3360 C3365 1.390 . S
C3361 C3355 1.465 . S
C3361 C3360 1.396 . S
C3361 C3362 1.399 . S
C3362 H3348 0.929 . S
C3362 C3361 1.399 . S
C3362 C3363 1.385 . S
C3363 H3349 0.931 . S
C3363 C3362 1.385 . S
C3363 C3364 1.389 . S
C3364 C3363 1.389 . S
C3364 C3365 1.387 . S
C3365 H3350 0.930 . S
C3365 C3360 1.390 . S
C3365 C3364 1.387 . S
H3366 C3378 0.930 . S
H3367 C3380 0.930 . S
H3368 C3381 0.930 . S
H3369 C3385 0.959 . S
H3370 C3385 0.959 . S
H3371 C3385 0.961 . S
H3372 C3386 0.960 . S
H3373 C3386 0.961 . S
H3374 C3386 0.959 . S
H3375 C3389 0.929 . S
H3376 C3390 0.931 . S
H3377 C3392 0.930 . S
C3378 H3366 0.930 . S
C3378 C3379 1.399 . S
C3378 C3383 1.399 . S
C3379 C3378 1.399 . S
C3379 C3380 1.376 . S
C3380 H3367 0.930 . S
C3380 C3379 1.376 . S
C3380 C3381 1.388 . S
C3381 H3368 0.930 . S
C3381 C3380 1.388 . S
C3381 C3382 1.390 . S
C3382 C3381 1.390 . S
C3382 C3383 1.394 . S
C3382 C3388 1.465 . S
C3383 C3378 1.399 . S
C3383 C3382 1.394 . S
C3383 C3384 1.516 . S
C3384 C3383 1.516 . S
C3384 C3385 1.502 . S
C3384 C3386 1.561 . S
C3384 C3387 1.526 . S
C3385 H3369 0.959 . S
C3385 H3370 0.959 . S
C3385 H3371 0.961 . S
C3385 C3384 1.502 . S
C3386 H3372 0.960 . S
C3386 H3373 0.961 . S
C3386 H3374 0.959 . S
C3386 C3384 1.561 . S
C3387 C3384 1.526 . S
C3387 C3388 1.396 . S
C3387 C3392 1.390 . S
C3388 C3382 1.465 . S
C3388 C3387 1.396 . S
C3388 C3389 1.399 . S
C3389 H3375 0.929 . S
C3389 C3388 1.399 . S
C3389 C3390 1.385 . S
C3390 H3376 0.931 . S
C3390 C3389 1.385 . S
C3390 C3391 1.389 . S
C3391 C3390 1.389 . S
C3391 C3392 1.387 . S
C3392 H3377 0.930 . S
C3392 C3387 1.390 . S
C3392 C3391 1.387 . S
H3393 C3405 0.930 . S
H3394 C3407 0.930 . S
H3395 C3408 0.930 . S
H3396 C3412 0.959 . S
H3397 C3412 0.959 . S
H3398 C3412 0.961 . S
H3399 C3413 0.960 . S
H3400 C3413 0.961 . S
H3401 C3413 0.959 . S
H3402 C3416 0.929 . S
H3403 C3417 0.931 . S
H3404 C3419 0.930 . S
C3405 H3393 0.930 . S
C3405 C3406 1.399 . S
C3405 C3410 1.399 . S
C3406 C3405 1.399 . S
C3406 C3407 1.376 . S
C3407 H3394 0.930 . S
C3407 C3406 1.376 . S
C3407 C3408 1.388 . S
C3408 H3395 0.930 . S
C3408 C3407 1.388 . S
C3408 C3409 1.390 . S
C3409 C3408 1.390 . S
C3409 C3410 1.394 . S
C3409 C3415 1.465 . S
C3410 C3405 1.399 . S
C3410 C3409 1.394 . S
C3410 C3411 1.516 . S
C3411 C3410 1.516 . S
C3411 C3412 1.502 . S
C3411 C3413 1.561 . S
C3411 C3414 1.526 . S
C3412 H3396 0.959 . S
C3412 H3397 0.959 . S
C3412 H3398 0.961 . S
C3412 C3411 1.502 . S
C3413 H3399 0.960 . S
C3413 H3400 0.961 . S
C3413 H3401 0.959 . S
C3413 C3411 1.561 . S
C3414 C3411 1.526 . S
C3414 C3415 1.396 . S
C3414 C3419 1.390 . S
C3415 C3409 1.465 . S
C3415 C3414 1.396 . S
C3415 C3416 1.399 . S
C3416 H3402 0.929 . S
C3416 C3415 1.399 . S
C3416 C3417 1.385 . S
C3417 H3403 0.931 . S
C3417 C3416 1.385 . S
C3417 C3418 1.389 . S
C3418 C3417 1.389 . S
C3418 C3419 1.387 . S
C3419 H3404 0.930 . S
C3419 C3414 1.390 . S
C3419 C3418 1.387 . S
H3420 C3432 0.930 . S
H3421 C3434 0.930 . S
H3422 C3435 0.930 . S
H3423 C3439 0.959 . S
H3424 C3439 0.959 . S
H3425 C3439 0.961 . S
H3426 C3440 0.960 . S
H3427 C3440 0.961 . S
H3428 C3440 0.959 . S
H3429 C3443 0.929 . S
H3430 C3444 0.931 . S
H3431 C3446 0.930 . S
C3432 H3420 0.930 . S
C3432 C3433 1.399 . S
C3432 C3437 1.399 . S
C3433 C3432 1.399 . S
C3433 C3434 1.376 . S
C3434 H3421 0.930 . S
C3434 C3433 1.376 . S
C3434 C3435 1.388 . S
C3435 H3422 0.930 . S
C3435 C3434 1.388 . S
C3435 C3436 1.390 . S
C3436 C3435 1.390 . S
C3436 C3437 1.394 . S
C3436 C3442 1.465 . S
C3437 C3432 1.399 . S
C3437 C3436 1.394 . S
C3437 C3438 1.516 . S
C3438 C3437 1.516 . S
C3438 C3439 1.502 . S
C3438 C3440 1.561 . S
C3438 C3441 1.526 . S
C3439 H3423 0.959 . S
C3439 H3424 0.959 . S
C3439 H3425 0.961 . S
C3439 C3438 1.502 . S
C3440 H3426 0.960 . S
C3440 H3427 0.961 . S
C3440 H3428 0.959 . S
C3440 C3438 1.561 . S
C3441 C3438 1.526 . S
C3441 C3442 1.396 . S
C3441 C3446 1.390 . S
C3442 C3436 1.465 . S
C3442 C3441 1.396 . S
C3442 C3443 1.399 . S
C3443 H3429 0.929 . S
C3443 C3442 1.399 . S
C3443 C3444 1.385 . S
C3444 H3430 0.931 . S
C3444 C3443 1.385 . S
C3444 C3445 1.389 . S
C3445 C3444 1.389 . S
C3445 C3446 1.387 . S
C3446 H3431 0.930 . S
C3446 C3441 1.390 . S
C3446 C3445 1.387 . S
H3447 C3459 0.930 . S
H3448 C3461 0.930 . S
H3449 C3462 0.930 . S
H3450 C3466 0.959 . S
H3451 C3466 0.959 . S
H3452 C3466 0.961 . S
H3453 C3467 0.960 . S
H3454 C3467 0.961 . S
H3455 C3467 0.959 . S
H3456 C3470 0.929 . S
H3457 C3471 0.931 . S
H3458 C3473 0.930 . S
C3459 H3447 0.930 . S
C3459 C3460 1.399 . S
C3459 C3464 1.399 . S
C3460 C3459 1.399 . S
C3460 C3461 1.376 . S
C3461 H3448 0.930 . S
C3461 C3460 1.376 . S
C3461 C3462 1.388 . S
C3462 H3449 0.930 . S
C3462 C3461 1.388 . S
C3462 C3463 1.390 . S
C3463 C3462 1.390 . S
C3463 C3464 1.394 . S
C3463 C3469 1.465 . S
C3464 C3459 1.399 . S
C3464 C3463 1.394 . S
C3464 C3465 1.516 . S
C3465 C3464 1.516 . S
C3465 C3466 1.502 . S
C3465 C3467 1.561 . S
C3465 C3468 1.526 . S
C3466 H3450 0.959 . S
C3466 H3451 0.959 . S
C3466 H3452 0.961 . S
C3466 C3465 1.502 . S
C3467 H3453 0.960 . S
C3467 H3454 0.961 . S
C3467 H3455 0.959 . S
C3467 C3465 1.561 . S
C3468 C3465 1.526 . S
C3468 C3469 1.396 . S
C3468 C3473 1.390 . S
C3469 C3463 1.465 . S
C3469 C3468 1.396 . S
C3469 C3470 1.399 . S
C3470 H3456 0.929 . S
C3470 C3469 1.399 . S
C3470 C3471 1.385 . S
C3471 H3457 0.931 . S
C3471 C3470 1.385 . S
C3471 C3472 1.389 . S
C3472 C3471 1.389 . S
C3472 C3473 1.387 . S
C3473 H3458 0.930 . S
C3473 C3468 1.390 . S
C3473 C3472 1.387 . S
H3474 C3486 0.930 . S
H3475 C3488 0.930 . S
H3476 C3489 0.930 . S
H3477 C3493 0.959 . S
H3478 C3493 0.959 . S
H3479 C3493 0.961 . S
H3480 C3494 0.960 . S
H3481 C3494 0.961 . S
H3482 C3494 0.959 . S
H3483 C3497 0.929 . S
H3484 C3498 0.931 . S
H3485 C3500 0.930 . S
C3486 H3474 0.930 . S
C3486 C3487 1.399 . S
C3486 C3491 1.399 . S
C3487 C3486 1.399 . S
C3487 C3488 1.376 . S
C3488 H3475 0.930 . S
C3488 C3487 1.376 . S
C3488 C3489 1.388 . S
C3489 H3476 0.930 . S
C3489 C3488 1.388 . S
C3489 C3490 1.390 . S
C3490 C3489 1.390 . S
C3490 C3491 1.394 . S
C3490 C3496 1.465 . S
C3491 C3486 1.399 . S
C3491 C3490 1.394 . S
C3491 C3492 1.516 . S
C3492 C3491 1.516 . S
C3492 C3493 1.502 . S
C3492 C3494 1.561 . S
C3492 C3495 1.526 . S
C3493 H3477 0.959 . S
C3493 H3478 0.959 . S
C3493 H3479 0.961 . S
C3493 C3492 1.502 . S
C3494 H3480 0.960 . S
C3494 H3481 0.961 . S
C3494 H3482 0.959 . S
C3494 C3492 1.561 . S
C3495 C3492 1.526 . S
C3495 C3496 1.396 . S
C3495 C3500 1.390 . S
C3496 C3490 1.465 . S
C3496 C3495 1.396 . S
C3496 C3497 1.399 . S
C3497 H3483 0.929 . S
C3497 C3496 1.399 . S
C3497 C3498 1.385 . S
C3498 H3484 0.931 . S
C3498 C3497 1.385 . S
C3498 C3499 1.389 . S
C3499 C3498 1.389 . S
C3499 C3500 1.387 . S
C3500 H3485 0.930 . S
C3500 C3495 1.390 . S
C3500 C3499 1.387 . S
H3501 C3513 0.930 . S
H3502 C3515 0.930 . S
H3503 C3516 0.930 . S
H3504 C3520 0.959 . S
H3505 C3520 0.959 . S
H3506 C3520 0.961 . S
H3507 C3521 0.960 . S
H3508 C3521 0.961 . S
H3509 C3521 0.959 . S
H3510 C3524 0.929 . S
H3511 C3525 0.931 . S
H3512 C3527 0.930 . S
C3513 H3501 0.930 . S
C3513 C3514 1.399 . S
C3513 C3518 1.399 . S
C3514 C3513 1.399 . S
C3514 C3515 1.376 . S
C3515 H3502 0.930 . S
C3515 C3514 1.376 . S
C3515 C3516 1.388 . S
C3516 H3503 0.930 . S
C3516 C3515 1.388 . S
C3516 C3517 1.390 . S
C3517 C3516 1.390 . S
C3517 C3518 1.394 . S
C3517 C3523 1.465 . S
C3518 C3513 1.399 . S
C3518 C3517 1.394 . S
C3518 C3519 1.516 . S
C3519 C3518 1.516 . S
C3519 C3520 1.502 . S
C3519 C3521 1.561 . S
C3519 C3522 1.526 . S
C3520 H3504 0.959 . S
C3520 H3505 0.959 . S
C3520 H3506 0.961 . S
C3520 C3519 1.502 . S
C3521 H3507 0.960 . S
C3521 H3508 0.961 . S
C3521 H3509 0.959 . S
C3521 C3519 1.561 . S
C3522 C3519 1.526 . S
C3522 C3523 1.396 . S
C3522 C3527 1.390 . S
C3523 C3517 1.465 . S
C3523 C3522 1.396 . S
C3523 C3524 1.399 . S
C3524 H3510 0.929 . S
C3524 C3523 1.399 . S
C3524 C3525 1.385 . S
C3525 H3511 0.931 . S
C3525 C3524 1.385 . S
C3525 C3526 1.389 . S
C3526 C3525 1.389 . S
C3526 C3527 1.387 . S
C3527 H3512 0.930 . S
C3527 C3522 1.390 . S
C3527 C3526 1.387 . S
H3528 C3540 0.930 . S
H3529 C3542 0.930 . S
H3530 C3543 0.930 . S
H3531 C3547 0.959 . S
H3532 C3547 0.959 . S
H3533 C3547 0.961 . S
H3534 C3548 0.960 . S
H3535 C3548 0.961 . S
H3536 C3548 0.959 . S
H3537 C3551 0.929 . S
H3538 C3552 0.931 . S
H3539 C3554 0.930 . S
C3540 H3528 0.930 . S
C3540 C3541 1.399 . S
C3540 C3545 1.399 . S
C3541 C3540 1.399 . S
C3541 C3542 1.376 . S
C3542 H3529 0.930 . S
C3542 C3541 1.376 . S
C3542 C3543 1.388 . S
C3543 H3530 0.930 . S
C3543 C3542 1.388 . S
C3543 C3544 1.390 . S
C3544 C3543 1.390 . S
C3544 C3545 1.394 . S
C3544 C3550 1.465 . S
C3545 C3540 1.399 . S
C3545 C3544 1.394 . S
C3545 C3546 1.516 . S
C3546 C3545 1.516 . S
C3546 C3547 1.502 . S
C3546 C3548 1.561 . S
C3546 C3549 1.526 . S
C3547 H3531 0.959 . S
C3547 H3532 0.959 . S
C3547 H3533 0.961 . S
C3547 C3546 1.502 . S
C3548 H3534 0.960 . S
C3548 H3535 0.961 . S
C3548 H3536 0.959 . S
C3548 C3546 1.561 . S
C3549 C3546 1.526 . S
C3549 C3550 1.396 . S
C3549 C3554 1.390 . S
C3550 C3544 1.465 . S
C3550 C3549 1.396 . S
C3550 C3551 1.399 . S
C3551 H3537 0.929 . S
C3551 C3550 1.399 . S
C3551 C3552 1.385 . S
C3552 H3538 0.931 . S
C3552 C3551 1.385 . S
C3552 C3553 1.389 . S
C3553 C3552 1.389 . S
C3553 C3554 1.387 . S
C3554 H3539 0.930 . S
C3554 C3549 1.390 . S
C3554 C3553 1.387 . S
H3555 C3567 0.930 . S
H3556 C3569 0.930 . S
H3557 C3570 0.930 . S
H3558 C3574 0.959 . S
H3559 C3574 0.959 . S
H3560 C3574 0.961 . S
H3561 C3575 0.960 . S
H3562 C3575 0.961 . S
H3563 C3575 0.959 . S
H3564 C3578 0.929 . S
H3565 C3579 0.931 . S
H3566 C3581 0.930 . S
C3567 H3555 0.930 . S
C3567 C3568 1.399 . S
C3567 C3572 1.399 . S
C3568 C3567 1.399 . S
C3568 C3569 1.376 . S
C3569 H3556 0.930 . S
C3569 C3568 1.376 . S
C3569 C3570 1.388 . S
C3570 H3557 0.930 . S
C3570 C3569 1.388 . S
C3570 C3571 1.390 . S
C3571 C3570 1.390 . S
C3571 C3572 1.394 . S
C3571 C3577 1.465 . S
C3572 C3567 1.399 . S
C3572 C3571 1.394 . S
C3572 C3573 1.516 . S
C3573 C3572 1.516 . S
C3573 C3574 1.502 . S
C3573 C3575 1.561 . S
C3573 C3576 1.526 . S
C3574 H3558 0.959 . S
C3574 H3559 0.959 . S
C3574 H3560 0.961 . S
C3574 C3573 1.502 . S
C3575 H3561 0.960 . S
C3575 H3562 0.961 . S
C3575 H3563 0.959 . S
C3575 C3573 1.561 . S
C3576 C3573 1.526 . S
C3576 C3577 1.396 . S
C3576 C3581 1.390 . S
C3577 C3571 1.465 . S
C3577 C3576 1.396 . S
C3577 C3578 1.399 . S
C3578 H3564 0.929 . S
C3578 C3577 1.399 . S
C3578 C3579 1.385 . S
C3579 H3565 0.931 . S
C3579 C3578 1.385 . S
C3579 C3580 1.389 . S
C3580 C3579 1.389 . S
C3580 C3581 1.387 . S
C3581 H3566 0.930 . S
C3581 C3576 1.390 . S
C3581 C3580 1.387 . S
H3582 C3594 0.930 . S
H3583 C3596 0.930 . S
H3584 C3597 0.930 . S
H3585 C3601 0.959 . S
H3586 C3601 0.959 . S
H3587 C3601 0.961 . S
H3588 C3602 0.960 . S
H3589 C3602 0.961 . S
H3590 C3602 0.959 . S
H3591 C3605 0.929 . S
H3592 C3606 0.931 . S
H3593 C3608 0.930 . S
C3594 H3582 0.930 . S
C3594 C3595 1.399 . S
C3594 C3599 1.399 . S
C3595 C3594 1.399 . S
C3595 C3596 1.376 . S
C3596 H3583 0.930 . S
C3596 C3595 1.376 . S
C3596 C3597 1.388 . S
C3597 H3584 0.930 . S
C3597 C3596 1.388 . S
C3597 C3598 1.390 . S
C3598 C3597 1.390 . S
C3598 C3599 1.394 . S
C3598 C3604 1.465 . S
C3599 C3594 1.399 . S
C3599 C3598 1.394 . S
C3599 C3600 1.516 . S
C3600 C3599 1.516 . S
C3600 C3601 1.502 . S
C3600 C3602 1.561 . S
C3600 C3603 1.526 . S
C3601 H3585 0.959 . S
C3601 H3586 0.959 . S
C3601 H3587 0.961 . S
C3601 C3600 1.502 . S
C3602 H3588 0.960 . S
C3602 H3589 0.961 . S
C3602 H3590 0.959 . S
C3602 C3600 1.561 . S
C3603 C3600 1.526 . S
C3603 C3604 1.396 . S
C3603 C3608 1.390 . S
C3604 C3598 1.465 . S
C3604 C3603 1.396 . S
C3604 C3605 1.399 . S
C3605 H3591 0.929 . S
C3605 C3604 1.399 . S
C3605 C3606 1.385 . S
C3606 H3592 0.931 . S
C3606 C3605 1.385 . S
C3606 C3607 1.389 . S
C3607 C3606 1.389 . S
C3607 C3608 1.387 . S
C3608 H3593 0.930 . S
C3608 C3603 1.390 . S
C3608 C3607 1.387 . S
H3609 C3621 0.930 . S
H3610 C3623 0.930 . S
H3611 C3624 0.930 . S
H3612 C3628 0.959 . S
H3613 C3628 0.959 . S
H3614 C3628 0.961 . S
H3615 C3629 0.960 . S
H3616 C3629 0.961 . S
H3617 C3629 0.959 . S
H3618 C3632 0.929 . S
H3619 C3633 0.931 . S
H3620 C3635 0.930 . S
C3621 H3609 0.930 . S
C3621 C3622 1.399 . S
C3621 C3626 1.399 . S
C3622 C3621 1.399 . S
C3622 C3623 1.376 . S
C3623 H3610 0.930 . S
C3623 C3622 1.376 . S
C3623 C3624 1.388 . S
C3624 H3611 0.930 . S
C3624 C3623 1.388 . S
C3624 C3625 1.390 . S
C3625 C3624 1.390 . S
C3625 C3626 1.394 . S
C3625 C3631 1.465 . S
C3626 C3621 1.399 . S
C3626 C3625 1.394 . S
C3626 C3627 1.516 . S
C3627 C3626 1.516 . S
C3627 C3628 1.502 . S
C3627 C3629 1.561 . S
C3627 C3630 1.526 . S
C3628 H3612 0.959 . S
C3628 H3613 0.959 . S
C3628 H3614 0.961 . S
C3628 C3627 1.502 . S
C3629 H3615 0.960 . S
C3629 H3616 0.961 . S
C3629 H3617 0.959 . S
C3629 C3627 1.561 . S
C3630 C3627 1.526 . S
C3630 C3631 1.396 . S
C3630 C3635 1.390 . S
C3631 C3625 1.465 . S
C3631 C3630 1.396 . S
C3631 C3632 1.399 . S
C3632 H3618 0.929 . S
C3632 C3631 1.399 . S
C3632 C3633 1.385 . S
C3633 H3619 0.931 . S
C3633 C3632 1.385 . S
C3633 C3634 1.389 . S
C3634 C3633 1.389 . S
C3634 C3635 1.387 . S
C3635 H3620 0.930 . S
C3635 C3630 1.390 . S
C3635 C3634 1.387 . S
H3636 C3648 0.930 . S
H3637 C3650 0.930 . S
H3638 C3651 0.930 . S
H3639 C3655 0.959 . S
H3640 C3655 0.959 . S
H3641 C3655 0.961 . S
H3642 C3656 0.960 . S
H3643 C3656 0.961 . S
H3644 C3656 0.959 . S
H3645 C3659 0.929 . S
H3646 C3660 0.931 . S
H3647 C3662 0.930 . S
C3648 H3636 0.930 . S
C3648 C3649 1.399 . S
C3648 C3653 1.399 . S
C3649 C3648 1.399 . S
C3649 C3650 1.376 . S
C3650 H3637 0.930 . S
C3650 C3649 1.376 . S
C3650 C3651 1.388 . S
C3651 H3638 0.930 . S
C3651 C3650 1.388 . S
C3651 C3652 1.390 . S
C3652 C3651 1.390 . S
C3652 C3653 1.394 . S
C3652 C3658 1.465 . S
C3653 C3648 1.399 . S
C3653 C3652 1.394 . S
C3653 C3654 1.516 . S
C3654 C3653 1.516 . S
C3654 C3655 1.502 . S
C3654 C3656 1.561 . S
C3654 C3657 1.526 . S
C3655 H3639 0.959 . S
C3655 H3640 0.959 . S
C3655 H3641 0.961 . S
C3655 C3654 1.502 . S
C3656 H3642 0.960 . S
C3656 H3643 0.961 . S
C3656 H3644 0.959 . S
C3656 C3654 1.561 . S
C3657 C3654 1.526 . S
C3657 C3658 1.396 . S
C3657 C3662 1.390 . S
C3658 C3652 1.465 . S
C3658 C3657 1.396 . S
C3658 C3659 1.399 . S
C3659 H3645 0.929 . S
C3659 C3658 1.399 . S
C3659 C3660 1.385 . S
C3660 H3646 0.931 . S
C3660 C3659 1.385 . S
C3660 C3661 1.389 . S
C3661 C3660 1.389 . S
C3661 C3662 1.387 . S
C3662 H3647 0.930 . S
C3662 C3657 1.390 . S
C3662 C3661 1.387 . S
H3663 C3675 0.930 . S
H3664 C3677 0.933 1_655 S
H3665 C3678 0.930 . S
H3666 C3682 0.959 . S
H3667 C3682 0.959 . S
H3668 C3682 0.961 . S
H3669 C3683 0.960 . S
H3670 C3683 0.961 . S
H3671 C3683 0.959 . S
H3672 C3686 0.929 . S
H3673 C3687 0.931 . S
H3674 C3689 0.930 . S
C3675 H3663 0.930 . S
C3675 C3676 1.399 . S
C3675 C3680 1.399 . S
C3676 C3675 1.399 . S
C3676 C3677 1.370 . S
C3677 H3664 0.933 1_455 S
C3677 C3676 1.370 . S
C3677 C3678 1.393 1_455 S
C3678 H3665 0.930 . S
C3678 C3677 1.393 1_655 S
C3678 C3679 1.390 1_655 S
C3679 C3678 1.390 1_455 S
C3679 C3680 1.394 . S
C3679 C3685 1.465 . S
C3680 C3675 1.399 . S
C3680 C3679 1.394 . S
C3680 C3681 1.516 . S
C3681 C3680 1.516 . S
C3681 C3682 1.502 . S
C3681 C3683 1.561 . S
C3681 C3684 1.526 . S
C3682 H3666 0.959 . S
C3682 H3667 0.959 . S
C3682 H3668 0.961 . S
C3682 C3681 1.502 . S
C3683 H3669 0.960 . S
C3683 H3670 0.961 . S
C3683 H3671 0.959 . S
C3683 C3681 1.561 . S
C3684 C3681 1.526 . S
C3684 C3685 1.396 . S
C3684 C3689 1.390 . S
C3685 C3679 1.465 . S
C3685 C3684 1.396 . S
C3685 C3686 1.399 1_455 S
C3686 H3672 0.929 . S
C3686 C3685 1.399 1_655 S
C3686 C3687 1.385 . S
C3687 H3673 0.931 . S
C3687 C3686 1.385 . S
C3687 C3688 1.389 1_655 S
C3688 C3687 1.389 1_455 S
C3688 C3689 1.387 . S
C3689 H3674 0.930 . S
C3689 C3684 1.390 . S
C3689 C3688 1.387 . S
H3690 C3702 0.930 . S
H3691 C3704 0.930 . S
H3692 C3705 0.930 . S
H3693 C3709 0.959 . S
H3694 C3709 0.959 . S
H3695 C3709 0.961 . S
H3696 C3710 0.960 . S
H3697 C3710 0.961 . S
H3698 C3710 0.959 . S
H3699 C3713 0.929 . S
H3700 C3714 0.931 . S
H3701 C3716 0.930 . S
C3702 H3690 0.930 . S
C3702 C3703 1.399 . S
C3702 C3707 1.399 . S
C3703 C3702 1.399 . S
C3703 C3704 1.376 . S
C3704 H3691 0.930 . S
C3704 C3703 1.376 . S
C3704 C3705 1.388 . S
C3705 H3692 0.930 . S
C3705 C3704 1.388 . S
C3705 C3706 1.390 . S
C3706 C3705 1.390 . S
C3706 C3707 1.394 . S
C3706 C3712 1.465 . S
C3707 C3702 1.399 . S
C3707 C3706 1.394 . S
C3707 C3708 1.516 . S
C3708 C3707 1.516 . S
C3708 C3709 1.502 . S
C3708 C3710 1.561 . S
C3708 C3711 1.526 . S
C3709 H3693 0.959 . S
C3709 H3694 0.959 . S
C3709 H3695 0.961 . S
C3709 C3708 1.502 . S
C3710 H3696 0.960 . S
C3710 H3697 0.961 . S
C3710 H3698 0.959 . S
C3710 C3708 1.561 . S
C3711 C3708 1.526 . S
C3711 C3712 1.396 . S
C3711 C3716 1.390 . S
C3712 C3706 1.465 . S
C3712 C3711 1.396 . S
C3712 C3713 1.399 . S
C3713 H3699 0.929 . S
C3713 C3712 1.399 . S
C3713 C3714 1.385 . S
C3714 H3700 0.931 . S
C3714 C3713 1.385 . S
C3714 C3715 1.389 . S
C3715 C3714 1.389 . S
C3715 C3716 1.387 . S
C3716 H3701 0.930 . S
C3716 C3711 1.390 . S
C3716 C3715 1.387 . S
H3717 C3729 0.930 . S
H3718 C3731 0.930 . S
H3719 C3732 0.930 . S
H3720 C3736 0.959 . S
H3721 C3736 0.959 . S
H3722 C3736 0.961 . S
H3723 C3737 0.960 . S
H3724 C3737 0.961 . S
H3725 C3737 0.959 . S
H3726 C3740 0.929 . S
H3727 C3741 0.931 . S
H3728 C3743 0.930 . S
C3729 H3717 0.930 . S
C3729 C3730 1.399 . S
C3729 C3734 1.399 . S
C3730 C3729 1.399 . S
C3730 C3731 1.376 1_565 S
C3731 H3718 0.930 . S
C3731 C3730 1.376 1_545 S
C3731 C3732 1.388 . S
C3732 H3719 0.930 . S
C3732 C3731 1.388 . S
C3732 C3733 1.390 1_545 S
C3733 C3732 1.390 1_565 S
C3733 C3734 1.394 . S
C3733 C3739 1.465 . S
C3734 C3729 1.399 . S
C3734 C3733 1.394 . S
C3734 C3735 1.516 . S
C3735 C3734 1.516 . S
C3735 C3736 1.502 . S
C3735 C3737 1.561 . S
C3735 C3738 1.526 . S
C3736 H3720 0.959 . S
C3736 H3721 0.959 . S
C3736 H3722 0.961 . S
C3736 C3735 1.502 . S
C3737 H3723 0.960 . S
C3737 H3724 0.961 . S
C3737 H3725 0.959 . S
C3737 C3735 1.561 . S
C3738 C3735 1.526 . S
C3738 C3739 1.396 . S
C3738 C3743 1.390 . S
C3739 C3733 1.465 . S
C3739 C3738 1.396 . S
C3739 C3740 1.399 1_565 S
C3740 H3726 0.929 . S
C3740 C3739 1.399 1_545 S
C3740 C3741 1.385 . S
C3741 H3727 0.931 . S
C3741 C3740 1.385 . S
C3741 C3742 1.389 1_545 S
C3742 C3741 1.389 1_565 S
C3742 C3743 1.387 . S
C3743 H3728 0.930 . S
C3743 C3738 1.390 . S
C3743 C3742 1.387 . S
H3744 C3756 0.930 1_545 S
H3745 C3758 0.930 . S
H3746 C3759 0.930 . S
H3747 C3763 0.959 1_565 S
H3748 C3763 0.959 . S
H3749 C3763 0.961 . S
H3750 C3764 0.960 . S
H3751 C3764 0.961 . S
H3752 C3764 0.959 . S
H3753 C3767 0.929 . S
H3754 C3768 0.931 . S
H3755 C3770 0.930 . S
C3756 H3744 0.930 1_565 S
C3756 C3757 1.399 . S
C3756 C3761 1.399 . S
C3757 C3756 1.399 . S
C3757 C3758 1.376 . S
C3758 H3745 0.930 . S
C3758 C3757 1.376 . S
C3758 C3759 1.388 . S
C3759 H3746 0.930 . S
C3759 C3758 1.388 . S
C3759 C3760 1.390 . S
C3760 C3759 1.390 . S
C3760 C3761 1.394 . S
C3760 C3766 1.465 . S
C3761 C3756 1.399 . S
C3761 C3760 1.394 . S
C3761 C3762 1.516 1_565 S
C3762 C3761 1.516 1_545 S
C3762 C3763 1.502 . S
C3762 C3764 1.561 . S
C3762 C3765 1.536 . S
C3763 H3747 0.959 1_545 S
C3763 H3748 0.959 . S
C3763 H3749 0.961 . S
C3763 C3762 1.502 . S
C3764 H3750 0.960 . S
C3764 H3751 0.961 . S
C3764 H3752 0.959 . S
C3764 C3762 1.561 . S
C3765 C3762 1.536 . S
C3765 C3766 1.330 1_545 S
C3765 C3770 1.438 . S
C3766 C3760 1.465 . S
C3766 C3765 1.330 1_565 S
C3766 C3767 1.399 . S
C3767 H3753 0.929 . S
C3767 C3766 1.399 . S
C3767 C3768 1.385 . S
C3768 H3754 0.931 . S
C3768 C3767 1.385 . S
C3768 C3769 1.389 . S
C3769 C3768 1.389 . S
C3769 C3770 1.387 1_565 S
C3770 H3755 0.930 . S
C3770 C3765 1.438 . S
C3770 C3769 1.387 1_545 S
H3771 C3783 0.930 . S
H3772 C3785 0.930 1_655 S
H3773 C3786 0.930 . S
H3774 C3790 0.959 . S
H3775 C3790 0.959 . S
H3776 C3790 0.961 . S
H3777 C3791 0.960 . S
H3778 C3791 0.961 . S
H3779 C3791 0.959 . S
H3780 C3794 0.929 . S
H3781 C3795 0.931 . S
H3782 C3797 0.930 . S
C3783 H3771 0.930 . S
C3783 C3784 1.399 . S
C3783 C3788 1.399 . S
C3784 C3783 1.399 . S
C3784 C3785 1.376 . S
C3785 H3772 0.930 1_455 S
C3785 C3784 1.376 . S
C3785 C3786 1.388 1_455 S
C3786 H3773 0.930 . S
C3786 C3785 1.388 1_655 S
C3786 C3787 1.390 1_655 S
C3787 C3786 1.390 1_455 S
C3787 C3788 1.394 . S
C3787 C3793 1.465 . S
C3788 C3783 1.399 . S
C3788 C3787 1.394 . S
C3788 C3789 1.516 . S
C3789 C3788 1.516 . S
C3789 C3790 1.502 . S
C3789 C3791 1.561 . S
C3789 C3792 1.526 . S
C3790 H3774 0.959 . S
C3790 H3775 0.959 . S
C3790 H3776 0.961 . S
C3790 C3789 1.502 . S
C3791 H3777 0.960 . S
C3791 H3778 0.961 . S
C3791 H3779 0.959 . S
C3791 C3789 1.561 . S
C3792 C3789 1.526 . S
C3792 C3793 1.396 . S
C3792 C3797 1.390 . S
C3793 C3787 1.465 . S
C3793 C3792 1.396 . S
C3793 C3794 1.399 1_455 S
C3794 H3780 0.929 . S
C3794 C3793 1.399 1_655 S
C3794 C3795 1.385 . S
C3795 H3781 0.931 . S
C3795 C3794 1.385 . S
C3795 C3796 1.370 1_655 S
C3796 C3795 1.370 1_455 S
C3796 C3797 1.392 . S
C3797 H3782 0.930 . S
C3797 C3792 1.390 . S
C3797 C3796 1.392 . S
H3798 C3810 0.930 . S
H3799 C3812 0.930 . S
H3800 C3813 0.930 . S
H3801 C3817 0.959 . S
H3802 C3817 0.959 . S
H3803 C3817 0.961 . S
H3804 C3818 0.960 . S
H3805 C3818 0.961 . S
H3806 C3818 0.959 . S
H3807 C3821 0.929 . S
H3808 C3822 0.931 . S
H3809 C3824 0.930 . S
C3810 H3798 0.930 . S
C3810 C3811 1.399 . S
C3810 C3815 1.399 . S
C3811 C3810 1.399 . S
C3811 C3812 1.376 . S
C3812 H3799 0.930 . S
C3812 C3811 1.376 . S
C3812 C3813 1.388 . S
C3813 H3800 0.930 . S
C3813 C3812 1.388 . S
C3813 C3814 1.390 . S
C3814 C3813 1.390 . S
C3814 C3815 1.394 . S
C3814 C3820 1.465 . S
C3815 C3810 1.399 . S
C3815 C3814 1.394 . S
C3815 C3816 1.516 . S
C3816 C3815 1.516 . S
C3816 C3817 1.502 . S
C3816 C3818 1.561 . S
C3816 C3819 1.526 . S
C3817 H3801 0.959 . S
C3817 H3802 0.959 . S
C3817 H3803 0.961 . S
C3817 C3816 1.502 . S
C3818 H3804 0.960 . S
C3818 H3805 0.961 . S
C3818 H3806 0.959 . S
C3818 C3816 1.561 . S
C3819 C3816 1.526 . S
C3819 C3820 1.396 . S
C3819 C3824 1.390 . S
C3820 C3814 1.465 . S
C3820 C3819 1.396 . S
C3820 C3821 1.399 . S
C3821 H3807 0.929 . S
C3821 C3820 1.399 . S
C3821 C3822 1.385 . S
C3822 H3808 0.931 . S
C3822 C3821 1.385 . S
C3822 C3823 1.389 . S
C3823 C3822 1.389 . S
C3823 C3824 1.387 . S
C3824 H3809 0.930 . S
C3824 C3819 1.390 . S
C3824 C3823 1.387 . S
H3825 C3837 0.930 . S
H3826 C3839 0.930 . S
H3827 C3840 0.930 . S
H3828 C3844 0.959 . S
H3829 C3844 0.959 . S
H3830 C3844 0.961 . S
H3831 C3845 0.960 . S
H3832 C3845 0.961 . S
H3833 C3845 0.959 . S
H3834 C3848 0.929 . S
H3835 C3849 0.931 . S
H3836 C3851 0.930 . S
C3837 H3825 0.930 . S
C3837 C3838 1.399 . S
C3837 C3842 1.399 . S
C3838 C3837 1.399 . S
C3838 C3839 1.376 . S
C3839 H3826 0.930 . S
C3839 C3838 1.376 . S
C3839 C3840 1.388 . S
C3840 H3827 0.930 . S
C3840 C3839 1.388 . S
C3840 C3841 1.390 . S
C3841 C3840 1.390 . S
C3841 C3842 1.394 . S
C3841 C3847 1.465 . S
C3842 C3837 1.399 . S
C3842 C3841 1.394 . S
C3842 C3843 1.516 . S
C3843 C3842 1.516 . S
C3843 C3844 1.502 . S
C3843 C3845 1.561 . S
C3843 C3846 1.526 . S
C3844 H3828 0.959 . S
C3844 H3829 0.959 . S
C3844 H3830 0.961 . S
C3844 C3843 1.502 . S
C3845 H3831 0.960 . S
C3845 H3832 0.961 . S
C3845 H3833 0.959 . S
C3845 C3843 1.561 . S
C3846 C3843 1.526 . S
C3846 C3847 1.396 . S
C3846 C3851 1.390 . S
C3847 C3841 1.465 . S
C3847 C3846 1.396 . S
C3847 C3848 1.399 . S
C3848 H3834 0.929 . S
C3848 C3847 1.399 . S
C3848 C3849 1.385 . S
C3849 H3835 0.931 . S
C3849 C3848 1.385 . S
C3849 C3850 1.389 . S
C3850 C3849 1.389 . S
C3850 C3851 1.387 . S
C3851 H3836 0.930 . S
C3851 C3846 1.390 . S
C3851 C3850 1.387 . S
H3852 C3864 0.930 . S
H3853 C3866 0.930 . S
H3854 C3867 0.930 . S
H3855 C3871 0.959 . S
H3856 C3871 0.959 . S
H3857 C3871 0.961 . S
H3858 C3872 0.960 . S
H3859 C3872 0.961 . S
H3860 C3872 0.959 . S
H3861 C3875 0.929 . S
H3862 C3876 0.931 . S
H3863 C3878 0.930 . S
C3864 H3852 0.930 . S
C3864 C3865 1.399 . S
C3864 C3869 1.399 . S
C3865 C3864 1.399 . S
C3865 C3866 1.376 . S
C3866 H3853 0.930 . S
C3866 C3865 1.376 . S
C3866 C3867 1.388 . S
C3867 H3854 0.930 . S
C3867 C3866 1.388 . S
C3867 C3868 1.390 . S
C3868 C3867 1.390 . S
C3868 C3869 1.394 . S
C3868 C3874 1.465 . S
C3869 C3864 1.399 . S
C3869 C3868 1.394 . S
C3869 C3870 1.516 . S
C3870 C3869 1.516 . S
C3870 C3871 1.502 . S
C3870 C3872 1.561 . S
C3870 C3873 1.526 . S
C3871 H3855 0.959 . S
C3871 H3856 0.959 . S
C3871 H3857 0.961 . S
C3871 C3870 1.502 . S
C3872 H3858 0.960 . S
C3872 H3859 0.961 . S
C3872 H3860 0.959 . S
C3872 C3870 1.561 . S
C3873 C3870 1.526 . S
C3873 C3874 1.396 . S
C3873 C3878 1.390 . S
C3874 C3868 1.465 . S
C3874 C3873 1.396 . S
C3874 C3875 1.399 . S
C3875 H3861 0.929 . S
C3875 C3874 1.399 . S
C3875 C3876 1.385 . S
C3876 H3862 0.931 . S
C3876 C3875 1.385 . S
C3876 C3877 1.389 . S
C3877 C3876 1.389 . S
C3877 C3878 1.387 . S
C3878 H3863 0.930 . S
C3878 C3873 1.390 . S
C3878 C3877 1.387 . S
H3879 C3891 0.930 . S
H3880 C3893 0.930 . S
H3881 C3894 0.930 . S
H3882 C3898 0.959 . S
H3883 C3898 0.959 . S
H3884 C3898 0.961 . S
H3885 C3899 0.960 . S
H3886 C3899 0.961 . S
H3887 C3899 0.959 . S
H3888 C3902 0.929 . S
H3889 C3903 0.931 . S
H3890 C3905 0.930 . S
C3891 H3879 0.930 . S
C3891 C3892 1.399 . S
C3891 C3896 1.399 . S
C3892 C3891 1.399 . S
C3892 C3893 1.376 . S
C3893 H3880 0.930 . S
C3893 C3892 1.376 . S
C3893 C3894 1.388 . S
C3894 H3881 0.930 . S
C3894 C3893 1.388 . S
C3894 C3895 1.390 . S
C3895 C3894 1.390 . S
C3895 C3896 1.394 . S
C3895 C3901 1.465 . S
C3896 C3891 1.399 . S
C3896 C3895 1.394 . S
C3896 C3897 1.516 . S
C3897 C3896 1.516 . S
C3897 C3898 1.502 . S
C3897 C3899 1.561 . S
C3897 C3900 1.526 . S
C3898 H3882 0.959 . S
C3898 H3883 0.959 . S
C3898 H3884 0.961 . S
C3898 C3897 1.502 . S
C3899 H3885 0.960 . S
C3899 H3886 0.961 . S
C3899 H3887 0.959 . S
C3899 C3897 1.561 . S
C3900 C3897 1.526 . S
C3900 C3901 1.396 . S
C3900 C3905 1.390 . S
C3901 C3895 1.465 . S
C3901 C3900 1.396 . S
C3901 C3902 1.399 . S
C3902 H3888 0.929 . S
C3902 C3901 1.399 . S
C3902 C3903 1.385 . S
C3903 H3889 0.931 . S
C3903 C3902 1.385 . S
C3903 C3904 1.389 . S
C3904 C3903 1.389 . S
C3904 C3905 1.387 . S
C3905 H3890 0.930 . S
C3905 C3900 1.390 . S
C3905 C3904 1.387 . S
H3906 C3918 0.930 . S
H3907 C3920 0.930 . S
H3908 C3921 0.930 . S
H3909 C3925 0.959 . S
H3910 C3925 0.959 . S
H3911 C3925 0.961 . S
H3912 C3926 0.960 . S
H3913 C3926 0.961 . S
H3914 C3926 0.959 . S
H3915 C3929 0.929 . S
H3916 C3930 0.931 . S
H3917 C3932 0.930 . S
C3918 H3906 0.930 . S
C3918 C3919 1.399 . S
C3918 C3923 1.399 . S
C3919 C3918 1.399 . S
C3919 C3920 1.376 1_545 S
C3920 H3907 0.930 . S
C3920 C3919 1.376 1_565 S
C3920 C3921 1.388 . S
C3921 H3908 0.930 . S
C3921 C3920 1.388 . S
C3921 C3922 1.390 1_565 S
C3922 C3921 1.390 1_545 S
C3922 C3923 1.394 . S
C3922 C3928 1.465 . S
C3923 C3918 1.399 . S
C3923 C3922 1.394 . S
C3923 C3924 1.516 . S
C3924 C3923 1.516 . S
C3924 C3925 1.502 . S
C3924 C3926 1.561 . S
C3924 C3927 1.526 . S
C3925 H3909 0.959 . S
C3925 H3910 0.959 . S
C3925 H3911 0.961 . S
C3925 C3924 1.502 . S
C3926 H3912 0.960 . S
C3926 H3913 0.961 . S
C3926 H3914 0.959 . S
C3926 C3924 1.561 . S
C3927 C3924 1.526 . S
C3927 C3928 1.396 . S
C3927 C3932 1.390 . S
C3928 C3922 1.465 . S
C3928 C3927 1.396 . S
C3928 C3929 1.399 1_545 S
C3929 H3915 0.929 . S
C3929 C3928 1.399 1_565 S
C3929 C3930 1.385 . S
C3930 H3916 0.931 . S
C3930 C3929 1.385 . S
C3930 C3931 1.389 1_565 S
C3931 C3930 1.389 1_545 S
C3931 C3932 1.387 . S
C3932 H3917 0.930 . S
C3932 C3927 1.390 . S
C3932 C3931 1.387 . S
H3933 C3945 0.970 . S
H3934 C3947 0.930 . S
H3935 C3948 0.930 . S
H3936 C3952 0.959 . S
H3937 C3952 0.959 . S
H3938 C3952 0.961 . S
H3939 C3953 0.960 . S
H3940 C3953 0.961 . S
H3941 C3953 0.959 . S
H3942 C3956 0.929 . S
H3943 C3957 0.931 . S
H3944 C3959 0.930 . S
C3945 H3933 0.970 . S
C3945 C3946 1.384 1_455 S
C3945 C3950 1.374 1_455 S
C3946 C3945 1.384 1_655 S
C3946 C3947 1.376 . S
C3947 H3934 0.930 . S
C3947 C3946 1.376 . S
C3947 C3948 1.388 . S
C3948 H3935 0.930 . S
C3948 C3947 1.388 . S
C3948 C3949 1.390 . S
C3949 C3948 1.390 . S
C3949 C3950 1.394 . S
C3949 C3955 1.465 . S
C3950 C3945 1.374 1_655 S
C3950 C3949 1.394 . S
C3950 C3951 1.516 1_655 S
C3951 C3950 1.516 1_455 S
C3951 C3952 1.502 . S
C3951 C3953 1.561 . S
C3951 C3954 1.526 1_455 S
C3952 H3936 0.959 . S
C3952 H3937 0.959 . S
C3952 H3938 0.961 . S
C3952 C3951 1.502 . S
C3953 H3939 0.960 . S
C3953 H3940 0.961 . S
C3953 H3941 0.959 . S
C3953 C3951 1.561 . S
C3954 C3951 1.526 1_655 S
C3954 C3955 1.396 . S
C3954 C3959 1.390 1_655 S
C3955 C3949 1.465 . S
C3955 C3954 1.396 . S
C3955 C3956 1.399 . S
C3956 H3942 0.929 . S
C3956 C3955 1.399 . S
C3956 C3957 1.385 . S
C3957 H3943 0.931 . S
C3957 C3956 1.385 . S
C3957 C3958 1.389 . S
C3958 C3957 1.389 . S
C3958 C3959 1.387 1_655 S
C3959 H3944 0.930 . S
C3959 C3954 1.390 1_455 S
C3959 C3958 1.387 1_455 S
H3960 C3972 0.930 . S
H3961 C3974 0.930 . S
H3962 C3975 0.930 . S
H3963 C3979 0.959 . S
H3964 C3979 0.959 . S
H3965 C3979 0.961 . S
H3966 C3980 0.960 . S
H3967 C3980 0.961 . S
H3968 C3980 0.959 . S
H3969 C3983 0.929 . S
H3970 C3984 0.931 . S
H3971 C3986 0.930 . S
C3972 H3960 0.930 . S
C3972 C3973 1.399 . S
C3972 C3977 1.399 . S
C3973 C3972 1.399 . S
C3973 C3974 1.376 . S
C3974 H3961 0.930 . S
C3974 C3973 1.376 . S
C3974 C3975 1.388 . S
C3975 H3962 0.930 . S
C3975 C3974 1.388 . S
C3975 C3976 1.390 . S
C3976 C3975 1.390 . S
C3976 C3977 1.394 . S
C3976 C3982 1.465 . S
C3977 C3972 1.399 . S
C3977 C3976 1.394 . S
C3977 C3978 1.516 . S
C3978 C3977 1.516 . S
C3978 C3979 1.502 . S
C3978 C3980 1.561 . S
C3978 C3981 1.526 . S
C3979 H3963 0.959 . S
C3979 H3964 0.959 . S
C3979 H3965 0.961 . S
C3979 C3978 1.502 . S
C3980 H3966 0.960 . S
C3980 H3967 0.961 . S
C3980 H3968 0.959 . S
C3980 C3978 1.561 . S
C3981 C3978 1.526 . S
C3981 C3982 1.396 . S
C3981 C3986 1.390 . S
C3982 C3976 1.465 . S
C3982 C3981 1.396 . S
C3982 C3983 1.399 . S
C3983 H3969 0.929 . S
C3983 C3982 1.399 . S
C3983 C3984 1.385 . S
C3984 H3970 0.931 . S
C3984 C3983 1.385 . S
C3984 C3985 1.389 . S
C3985 C3984 1.389 . S
C3985 C3986 1.387 . S
C3986 H3971 0.930 . S
C3986 C3981 1.390 . S
C3986 C3985 1.387 . S
H3987 C3999 0.930 . S
H3988 C4001 0.930 . S
H3989 C4002 0.930 . S
H3990 C4006 0.959 . S
H3991 C4006 0.959 . S
H3992 C4006 0.961 . S
H3993 C4007 0.960 . S
H3994 C4007 0.961 . S
H3995 C4007 0.959 . S
H3996 C4010 0.929 . S
H3997 C4011 0.931 . S
H3998 C4013 0.930 . S
C3999 H3987 0.930 . S
C3999 C4000 1.399 . S
C3999 C4004 1.399 . S
C4000 C3999 1.399 . S
C4000 C4001 1.376 . S
C4001 H3988 0.930 . S
C4001 C4000 1.376 . S
C4001 C4002 1.388 . S
C4002 H3989 0.930 . S
C4002 C4001 1.388 . S
C4002 C4003 1.390 . S
C4003 C4002 1.390 . S
C4003 C4004 1.394 . S
C4003 C4009 1.465 . S
C4004 C3999 1.399 . S
C4004 C4003 1.394 . S
C4004 C4005 1.516 . S
C4005 C4004 1.516 . S
C4005 C4006 1.502 . S
C4005 C4007 1.561 . S
C4005 C4008 1.526 . S
C4006 H3990 0.959 . S
C4006 H3991 0.959 . S
C4006 H3992 0.961 . S
C4006 C4005 1.502 . S
C4007 H3993 0.960 . S
C4007 H3994 0.961 . S
C4007 H3995 0.959 . S
C4007 C4005 1.561 . S
C4008 C4005 1.526 . S
C4008 C4009 1.396 . S
C4008 C4013 1.390 . S
C4009 C4003 1.465 . S
C4009 C4008 1.396 . S
C4009 C4010 1.399 . S
C4010 H3996 0.929 . S
C4010 C4009 1.399 . S
C4010 C4011 1.385 . S
C4011 H3997 0.931 . S
C4011 C4010 1.385 . S
C4011 C4012 1.389 . S
C4012 C4011 1.389 . S
C4012 C4013 1.387 . S
C4013 H3998 0.930 . S
C4013 C4008 1.390 . S
C4013 C4012 1.387 . S
H4014 C4026 0.930 . S
H4015 C4028 0.930 . S
H4016 C4029 0.930 . S
H4017 C4033 0.959 . S
H4018 C4033 0.959 . S
H4019 C4033 0.961 . S
H4020 C4034 0.960 . S
H4021 C4034 0.961 . S
H4022 C4034 0.959 . S
H4023 C4037 0.929 . S
H4024 C4038 0.931 . S
H4025 C4040 0.930 . S
C4026 H4014 0.930 . S
C4026 C4027 1.399 . S
C4026 C4031 1.399 . S
C4027 C4026 1.399 . S
C4027 C4028 1.376 . S
C4028 H4015 0.930 . S
C4028 C4027 1.376 . S
C4028 C4029 1.388 . S
C4029 H4016 0.930 . S
C4029 C4028 1.388 . S
C4029 C4030 1.390 . S
C4030 C4029 1.390 . S
C4030 C4031 1.394 . S
C4030 C4036 1.465 . S
C4031 C4026 1.399 . S
C4031 C4030 1.394 . S
C4031 C4032 1.516 . S
C4032 C4031 1.516 . S
C4032 C4033 1.502 . S
C4032 C4034 1.561 . S
C4032 C4035 1.526 . S
C4033 H4017 0.959 . S
C4033 H4018 0.959 . S
C4033 H4019 0.961 . S
C4033 C4032 1.502 . S
C4034 H4020 0.960 . S
C4034 H4021 0.961 . S
C4034 H4022 0.959 . S
C4034 C4032 1.561 . S
C4035 C4032 1.526 . S
C4035 C4036 1.396 . S
C4035 C4040 1.390 . S
C4036 C4030 1.465 . S
C4036 C4035 1.396 . S
C4036 C4037 1.399 . S
C4037 H4023 0.929 . S
C4037 C4036 1.399 . S
C4037 C4038 1.385 . S
C4038 H4024 0.931 . S
C4038 C4037 1.385 . S
C4038 C4039 1.389 . S
C4039 C4038 1.389 . S
C4039 C4040 1.387 . S
C4040 H4025 0.930 . S
C4040 C4035 1.390 . S
C4040 C4039 1.387 . S
H4041 C4053 0.930 . S
H4042 C4055 0.930 . S
H4043 C4056 0.930 . S
H4044 C4060 0.959 . S
H4045 C4060 0.959 . S
H4046 C4060 0.961 . S
H4047 C4061 0.960 . S
H4048 C4061 0.961 . S
H4049 C4061 0.959 . S
H4050 C4064 0.929 . S
H4051 C4065 0.931 . S
H4052 C4067 0.930 . S
C4053 H4041 0.930 . S
C4053 C4054 1.399 . S
C4053 C4058 1.399 . S
C4054 C4053 1.399 . S
C4054 C4055 1.376 . S
C4055 H4042 0.930 . S
C4055 C4054 1.376 . S
C4055 C4056 1.388 . S
C4056 H4043 0.930 . S
C4056 C4055 1.388 . S
C4056 C4057 1.390 . S
C4057 C4056 1.390 . S
C4057 C4058 1.394 . S
C4057 C4063 1.465 . S
C4058 C4053 1.399 . S
C4058 C4057 1.394 . S
C4058 C4059 1.516 . S
C4059 C4058 1.516 . S
C4059 C4060 1.502 . S
C4059 C4061 1.561 . S
C4059 C4062 1.526 . S
C4060 H4044 0.959 . S
C4060 H4045 0.959 . S
C4060 H4046 0.961 . S
C4060 C4059 1.502 . S
C4061 H4047 0.960 . S
C4061 H4048 0.961 . S
C4061 H4049 0.959 . S
C4061 C4059 1.561 . S
C4062 C4059 1.526 . S
C4062 C4063 1.396 . S
C4062 C4067 1.390 . S
C4063 C4057 1.465 . S
C4063 C4062 1.396 . S
C4063 C4064 1.399 . S
C4064 H4050 0.929 . S
C4064 C4063 1.399 . S
C4064 C4065 1.385 . S
C4065 H4051 0.931 . S
C4065 C4064 1.385 . S
C4065 C4066 1.389 . S
C4066 C4065 1.389 . S
C4066 C4067 1.387 . S
C4067 H4052 0.930 . S
C4067 C4062 1.390 . S
C4067 C4066 1.387 . S
H4068 C4080 0.930 . S
H4069 C4082 0.930 . S
H4070 C4083 0.930 . S
H4071 C4087 0.959 . S
H4072 C4087 0.959 . S
H4073 C4087 0.961 . S
H4074 C4088 0.960 . S
H4075 C4088 0.961 . S
H4076 C4088 0.959 . S
H4077 C4091 0.929 . S
H4078 C4092 0.931 . S
H4079 C4094 0.930 . S
C4080 H4068 0.930 . S
C4080 C4081 1.399 . S
C4080 C4085 1.399 . S
C4081 C4080 1.399 . S
C4081 C4082 1.376 . S
C4082 H4069 0.930 . S
C4082 C4081 1.376 . S
C4082 C4083 1.388 . S
C4083 H4070 0.930 . S
C4083 C4082 1.388 . S
C4083 C4084 1.390 . S
C4084 C4083 1.390 . S
C4084 C4085 1.394 . S
C4084 C4090 1.465 . S
C4085 C4080 1.399 . S
C4085 C4084 1.394 . S
C4085 C4086 1.516 . S
C4086 C4085 1.516 . S
C4086 C4087 1.502 . S
C4086 C4088 1.561 . S
C4086 C4089 1.526 . S
C4087 H4071 0.959 . S
C4087 H4072 0.959 . S
C4087 H4073 0.961 . S
C4087 C4086 1.502 . S
C4088 H4074 0.960 . S
C4088 H4075 0.961 . S
C4088 H4076 0.959 . S
C4088 C4086 1.561 . S
C4089 C4086 1.526 . S
C4089 C4090 1.396 . S
C4089 C4094 1.390 . S
C4090 C4084 1.465 . S
C4090 C4089 1.396 . S
C4090 C4091 1.399 . S
C4091 H4077 0.929 . S
C4091 C4090 1.399 . S
C4091 C4092 1.385 . S
C4092 H4078 0.931 . S
C4092 C4091 1.385 . S
C4092 C4093 1.389 . S
C4093 C4092 1.389 . S
C4093 C4094 1.387 . S
C4094 H4079 0.930 . S
C4094 C4089 1.390 . S
C4094 C4093 1.387 . S
H4095 C4107 0.930 . S
H4096 C4109 0.930 . S
H4097 C4110 0.930 . S
H4098 C4114 0.959 . S
H4099 C4114 0.959 . S
H4100 C4114 0.961 . S
H4101 C4115 0.960 . S
H4102 C4115 0.961 . S
H4103 C4115 0.959 . S
H4104 C4118 0.929 . S
H4105 C4119 0.931 . S
H4106 C4121 0.930 . S
C4107 H4095 0.930 . S
C4107 C4108 1.399 . S
C4107 C4112 1.399 . S
C4108 C4107 1.399 . S
C4108 C4109 1.376 . S
C4109 H4096 0.930 . S
C4109 C4108 1.376 . S
C4109 C4110 1.388 . S
C4110 H4097 0.930 . S
C4110 C4109 1.388 . S
C4110 C4111 1.390 . S
C4111 C4110 1.390 . S
C4111 C4112 1.394 . S
C4111 C4117 1.465 . S
C4112 C4107 1.399 . S
C4112 C4111 1.394 . S
C4112 C4113 1.516 . S
C4113 C4112 1.516 . S
C4113 C4114 1.502 . S
C4113 C4115 1.561 . S
C4113 C4116 1.526 . S
C4114 H4098 0.959 . S
C4114 H4099 0.959 . S
C4114 H4100 0.961 . S
C4114 C4113 1.502 . S
C4115 H4101 0.960 . S
C4115 H4102 0.961 . S
C4115 H4103 0.959 . S
C4115 C4113 1.561 . S
C4116 C4113 1.526 . S
C4116 C4117 1.396 . S
C4116 C4121 1.390 . S
C4117 C4111 1.465 . S
C4117 C4116 1.396 . S
C4117 C4118 1.399 . S
C4118 H4104 0.929 . S
C4118 C4117 1.399 . S
C4118 C4119 1.385 . S
C4119 H4105 0.931 . S
C4119 C4118 1.385 . S
C4119 C4120 1.389 . S
C4120 C4119 1.389 . S
C4120 C4121 1.387 . S
C4121 H4106 0.930 . S
C4121 C4116 1.390 . S
C4121 C4120 1.387 . S
H4122 C4134 0.930 . S
H4123 C4136 0.930 . S
H4124 C4137 0.930 . S
H4125 C4141 0.959 . S
H4126 C4141 0.959 . S
H4127 C4141 0.961 . S
H4128 C4142 0.960 . S
H4129 C4142 0.961 . S
H4130 C4142 0.959 . S
H4131 C4145 0.929 . S
H4132 C4146 0.931 . S
H4133 C4148 0.930 . S
C4134 H4122 0.930 . S
C4134 C4135 1.399 . S
C4134 C4139 1.399 . S
C4135 C4134 1.399 . S
C4135 C4136 1.376 . S
C4136 H4123 0.930 . S
C4136 C4135 1.376 . S
C4136 C4137 1.388 . S
C4137 H4124 0.930 . S
C4137 C4136 1.388 . S
C4137 C4138 1.390 . S
C4138 C4137 1.390 . S
C4138 C4139 1.394 . S
C4138 C4144 1.465 . S
C4139 C4134 1.399 . S
C4139 C4138 1.394 . S
C4139 C4140 1.516 . S
C4140 C4139 1.516 . S
C4140 C4141 1.502 . S
C4140 C4142 1.561 . S
C4140 C4143 1.526 . S
C4141 H4125 0.959 . S
C4141 H4126 0.959 . S
C4141 H4127 0.961 . S
C4141 C4140 1.502 . S
C4142 H4128 0.960 . S
C4142 H4129 0.961 . S
C4142 H4130 0.959 . S
C4142 C4140 1.561 . S
C4143 C4140 1.526 . S
C4143 C4144 1.396 . S
C4143 C4148 1.390 . S
C4144 C4138 1.465 . S
C4144 C4143 1.396 . S
C4144 C4145 1.399 . S
C4145 H4131 0.929 . S
C4145 C4144 1.399 . S
C4145 C4146 1.385 . S
C4146 H4132 0.931 . S
C4146 C4145 1.385 . S
C4146 C4147 1.389 . S
C4147 C4146 1.389 . S
C4147 C4148 1.387 . S
C4148 H4133 0.930 . S
C4148 C4143 1.390 . S
C4148 C4147 1.387 . S
H4149 C4161 0.930 . S
H4150 C4163 0.933 1_455 S
H4151 C4164 0.930 . S
H4152 C4168 0.959 . S
H4153 C4168 0.959 . S
H4154 C4168 0.961 . S
H4155 C4169 0.960 . S
H4156 C4169 0.961 . S
H4157 C4169 0.959 1_455 S
H4158 C4172 0.929 . S
H4159 C4173 0.931 . S
H4160 C4175 0.930 . S
C4161 H4149 0.930 . S
C4161 C4162 1.399 . S
C4161 C4166 1.399 . S
C4162 C4161 1.399 . S
C4162 C4163 1.386 . S
C4163 H4150 0.933 1_655 S
C4163 C4162 1.386 . S
C4163 C4164 1.376 1_655 S
C4164 H4151 0.930 . S
C4164 C4163 1.376 1_455 S
C4164 C4165 1.390 1_455 S
C4165 C4164 1.390 1_655 S
C4165 C4166 1.394 . S
C4165 C4171 1.494 . S
C4166 C4161 1.399 . S
C4166 C4165 1.394 . S
C4166 C4167 1.516 . S
C4167 C4166 1.516 . S
C4167 C4168 1.502 . S
C4167 C4169 1.561 . S
C4167 C4170 1.526 . S
C4168 H4152 0.959 . S
C4168 H4153 0.959 . S
C4168 H4154 0.961 . S
C4168 C4167 1.502 . S
C4169 H4155 0.960 . S
C4169 H4156 0.961 . S
C4169 H4157 0.959 1_655 S
C4169 C4167 1.561 . S
C4170 C4167 1.526 . S
C4170 C4171 1.402 . S
C4170 C4175 1.390 . S
C4171 C4165 1.494 . S
C4171 C4170 1.402 . S
C4171 C4172 1.370 1_655 S
C4172 H4158 0.929 . S
C4172 C4171 1.370 1_455 S
C4172 C4173 1.385 . S
C4173 H4159 0.931 . S
C4173 C4172 1.385 . S
C4173 C4174 1.389 1_455 S
C4174 C4173 1.389 1_655 S
C4174 C4175 1.387 . S
C4175 H4160 0.930 . S
C4175 C4170 1.390 . S
C4175 C4174 1.387 . S
H4176 C4188 0.930 . S
H4177 C4190 0.930 . S
H4178 C4191 0.930 . S
H4179 C4195 0.959 . S
H4180 C4195 0.959 . S
H4181 C4195 0.961 . S
H4182 C4196 0.960 . S
H4183 C4196 0.961 . S
H4184 C4196 0.959 . S
H4185 C4199 0.929 . S
H4186 C4200 0.931 . S
H4187 C4202 0.930 . S
C4188 H4176 0.930 . S
C4188 C4189 1.399 . S
C4188 C4193 1.399 . S
C4189 C4188 1.399 . S
C4189 C4190 1.376 . S
C4190 H4177 0.930 . S
C4190 C4189 1.376 . S
C4190 C4191 1.388 . S
C4191 H4178 0.930 . S
C4191 C4190 1.388 . S
C4191 C4192 1.390 . S
C4192 C4191 1.390 . S
C4192 C4193 1.394 . S
C4192 C4198 1.465 . S
C4193 C4188 1.399 . S
C4193 C4192 1.394 . S
C4193 C4194 1.516 . S
C4194 C4193 1.516 . S
C4194 C4195 1.502 . S
C4194 C4196 1.561 . S
C4194 C4197 1.526 . S
C4195 H4179 0.959 . S
C4195 H4180 0.959 . S
C4195 H4181 0.961 . S
C4195 C4194 1.502 . S
C4196 H4182 0.960 . S
C4196 H4183 0.961 . S
C4196 H4184 0.959 . S
C4196 C4194 1.561 . S
C4197 C4194 1.526 . S
C4197 C4198 1.396 . S
C4197 C4202 1.390 . S
C4198 C4192 1.465 . S
C4198 C4197 1.396 . S
C4198 C4199 1.399 . S
C4199 H4185 0.929 . S
C4199 C4198 1.399 . S
C4199 C4200 1.385 . S
C4200 H4186 0.931 . S
C4200 C4199 1.385 . S
C4200 C4201 1.389 . S
C4201 C4200 1.389 . S
C4201 C4202 1.387 . S
C4202 H4187 0.930 . S
C4202 C4197 1.390 . S
C4202 C4201 1.387 . S
H4203 C4215 0.930 1_565 S
H4204 C4217 0.930 . S
H4205 C4218 0.930 . S
H4206 C4222 0.959 . S
H4207 C4222 0.959 . S
H4208 C4222 0.961 . S
H4209 C4223 0.960 . S
H4210 C4223 0.961 . S
H4211 C4223 0.959 1_545 S
H4212 C4226 0.929 . S
H4213 C4227 0.931 . S
H4214 C4229 0.930 . S
C4215 H4203 0.930 1_545 S
C4215 C4216 1.399 . S
C4215 C4220 1.399 . S
C4216 C4215 1.399 . S
C4216 C4217 1.376 . S
C4217 H4204 0.930 . S
C4217 C4216 1.376 . S
C4217 C4218 1.388 . S
C4218 H4205 0.930 . S
C4218 C4217 1.388 . S
C4218 C4219 1.390 . S
C4219 C4218 1.390 . S
C4219 C4220 1.394 . S
C4219 C4225 1.465 . S
C4220 C4215 1.399 . S
C4220 C4219 1.394 . S
C4220 C4221 1.516 1_545 S
C4221 C4220 1.516 1_565 S
C4221 C4222 1.502 . S
C4221 C4223 1.561 . S
C4221 C4224 1.478 1_565 S
C4222 H4206 0.959 . S
C4222 H4207 0.959 . S
C4222 H4208 0.961 . S
C4222 C4221 1.502 . S
C4223 H4209 0.960 . S
C4223 H4210 0.961 . S
C4223 H4211 0.959 1_565 S
C4223 C4221 1.561 . S
C4224 C4221 1.478 1_545 S
C4224 C4225 1.445 . S
C4224 C4229 1.396 1_545 S
C4225 C4219 1.465 . S
C4225 C4224 1.445 . S
C4225 C4226 1.399 . S
C4226 H4212 0.929 . S
C4226 C4225 1.399 . S
C4226 C4227 1.385 . S
C4227 H4213 0.931 . S
C4227 C4226 1.385 . S
C4227 C4228 1.389 . S
C4228 C4227 1.389 . S
C4228 C4229 1.387 1_545 S
C4229 H4214 0.930 . S
C4229 C4224 1.396 1_565 S
C4229 C4228 1.387 1_565 S
C2299 C10 1.396 1_455 S
C2311 C1289 1.150 . S
C2326 C23 1.698 . S
C2338 C1429 1.130 . S
C2365 C1517 1.137 . S
C2353 C29 1.456 . S
C2380 C30 1.558 . S
C2392 C1657 1.055 1_565 S
C2407 C5 1.495 . S
C2419 C1771 1.216 . S
C2434 C18 1.715 . S
C2446 C1859 1.275 . S
C2461 C49 1.389 . S
C2473 C1745 1.068 . S
C2500 C1885 1.437 . S
C2488 C62 1.626 . S
C2527 C1631 1.220 . S
C2515 C70 1.463 . S
C2542 C75 1.512 . S
C2554 C1543 1.255 1_565 S
C2581 C1315 1.148 . S
C2569 C44 1.505 . S
C2596 C57 1.619 . S
C2608 C1403 1.510 . S
C2623 C88 1.718 . S
C2635 C1973 1.313 . S
C2650 C101 1.790 . S
C2662 C2113 1.149 . S
C2689 C2201 1.379 . S
C2677 C107 1.703 . S
C2704 C108 1.773 . S
C2716 C289 1.130 . S
C2731 C83 1.776 . S
C2743 C403 1.145 . S
C2758 C96 1.749 . S
C2770 C491 1.432 . S
C2785 C127 1.542 . S
C2797 C377 1.352 . S
C2812 C140 1.677 . S
C2824 C517 1.451 . S
C2851 C263 1.421 . S
C2839 C146 1.629 . S
C2878 C2227 1.594 . S
C2866 C147 1.795 . S
C2905 C1999 1.430 . S
C2893 C122 1.680 . S
C2932 C2087 1.608 . S
C2920 C135 1.706 . S
C2947 C160 1.638 . S
C2959 C605 1.164 . S
C2974 C173 1.759 . S
C2986 C745 1.274 . S
C3001 C185 1.722 . S
C3013 C833 1.248 . S
C3028 C186 1.870 . S
C3040 C973 1.215 . S
C3067 C1087 1.248 . S
C3055 C159 1.782 . S
C3094 C1175 1.387 . S
C3082 C172 1.803 . S
C3121 C1061 1.533 . S
C3109 C205 1.642 . S
C3148 C1201 1.404 . S
C3136 C218 1.698 . S
C3163 C224 1.632 . S
C3175 C947 1.456 . S
C3202 C859 1.473 . S
C3190 C225 1.692 . S
C3217 C200 1.688 . S
C3229 C631 1.415 . S
C3256 C719 1.497 . S
C3244 C213 1.663 . S
C3283 C245 1.064 . S
C3271 C4 1.703 . S
C3298 C17 1.553 . S
C3310 C359 0.798 . S
C3337 C463 1.146 . S
C3325 C31 1.603 . S
C3364 C577 1.097 . S
C3352 C36 1.546 . S
C3391 C701 0.993 . S
C3379 C3 1.655 . S
C3418 C805 1.070 . S
C3406 C16 1.568 . S
C3433 C43 1.786 . S
C3445 C815 1.295 . S
C3460 C56 1.627 . S
C3472 C587 1.104 . S
C3487 C68 1.685 . S
C3499 C691 1.516 . S
C3514 C69 1.635 . S
C3526 C349 1.368 . S
C3553 C473 1.348 . S
C3541 C42 1.730 . S
C3568 C55 1.640 . S
C3580 C235 1.474 . S
C3607 C929 0.957 . S
C3595 C82 1.672 . S
C3622 C95 1.670 . S
C3634 C1043 0.906 . S
C3649 C109 1.651 . S
C3661 C1147 1.185 . S
C3688 C1261 1.081 . S
C3676 C114 1.332 . S
C3703 C81 1.623 . S
C3715 C1385 0.906 . S
C3730 C94 1.424 . S
C3742 C1489 1.222 . S
C3757 C121 1.515 . S
C3769 C1499 1.080 1_565 S
C3784 C134 1.431 . S
C3796 C1271 0.831 1_455 S
C3823 C1375 1.469 . S
C3811 C148 1.651 . S
C3838 C153 1.616 . S
C3850 C1033 1.419 . S
C3865 C120 1.772 . S
C3877 C1157 1.370 . S
C3904 C919 1.562 . S
C3892 C133 1.751 . S
C3931 C1613 1.055 . S
C3919 C166 1.517 . S
C3946 C179 1.395 . S
C3958 C1727 0.854 . S
C3973 C187 1.585 . S
C3985 C1831 1.207 . S
C4012 C1945 1.067 . S
C4000 C192 1.513 . S
C4039 C2069 0.967 . S
C4027 C161 1.701 . S
C4054 C174 1.683 . S
C4066 C2173 1.253 . S
C4081 C199 1.754 . S
C4093 C2183 1.347 . S
C4108 C212 1.747 . S
C4120 C1955 1.203 . S
C4147 C2059 1.486 . S
C4135 C226 1.718 . S
C4174 C1717 1.132 1_655 S
C4162 C231 1.336 . S
C4201 C1841 1.313 . S
C4189 C198 1.702 . S
C4216 C211 1.439 . S
C4228 C1603 1.165 1_545 S
