# Generated by pormake.
# Topology apo, (3,6)-cn, num edge types: 1
# Building blocks:
#     Node 0, Type 0, BuildingBlock: QEWDON_clean_linker_0, # of connection points: 3
#     Node 1, Type 0, BuildingBlock: QEWDON_clean_linker_0, # of connection points: 3
#     Node 2, Type 0, BuildingBlock: QEWDON_clean_linker_0, # of connection points: 3
#     Node 3, Type 0, BuildingBlock: QEWDON_clean_linker_0, # of connection points: 3
#     Node 4, Type 0, BuildingBlock: QEWDON_clean_linker_0, # of connection points: 3
#     Node 5, Type 0, BuildingBlock: QEWDON_clean_linker_0, # of connection points: 3
#     Node 6, Type 0, BuildingBlock: QEWDON_clean_linker_0, # of connection points: 3
#     Node 7, Type 0, BuildingBlock: QEWDON_clean_linker_0, # of connection points: 3
#     Node 8, Type 1, BuildingBlock: KUMBOL_clean_sbu_1, # of connection points: 6
#     Node 9, Type 1, BuildingBlock: KUMBOL_clean_sbu_1, # of connection points: 6
#     Node 10, Type 1, BuildingBlock: KUMBOL_clean_sbu_1, # of connection points: 6
#     Node 11, Type 1, BuildingBlock: KUMBOL_clean_sbu_1, # of connection points: 6
#     Edge 12, Type (0, 1), BuildingBlock: KIFKEQ_clean_linker_1, # of connection points: 2
#     Edge 13, Type (0, 1), BuildingBlock: KIFKEQ_clean_linker_1, # of connection points: 2
#     Edge 14, Type (0, 1), BuildingBlock: KIFKEQ_clean_linker_1, # of connection points: 2
#     Edge 15, Type (0, 1), BuildingBlock: KIFKEQ_clean_linker_1, # of connection points: 2
#     Edge 16, Type (0, 1), BuildingBlock: KIFKEQ_clean_linker_1, # of connection points: 2
#     Edge 17, Type (0, 1), BuildingBlock: KIFKEQ_clean_linker_1, # of connection points: 2
#     Edge 18, Type (0, 1), BuildingBlock: KIFKEQ_clean_linker_1, # of connection points: 2
#     Edge 19, Type (0, 1), BuildingBlock: KIFKEQ_clean_linker_1, # of connection points: 2
#     Edge 20, Type (0, 1), BuildingBlock: KIFKEQ_clean_linker_1, # of connection points: 2
#     Edge 21, Type (0, 1), BuildingBlock: KIFKEQ_clean_linker_1, # of connection points: 2
#     Edge 22, Type (0, 1), BuildingBlock: KIFKEQ_clean_linker_1, # of connection points: 2
#     Edge 23, Type (0, 1), BuildingBlock: KIFKEQ_clean_linker_1, # of connection points: 2
#     Edge 24, Type (0, 1), BuildingBlock: KIFKEQ_clean_linker_1, # of connection points: 2
#     Edge 25, Type (0, 1), BuildingBlock: KIFKEQ_clean_linker_1, # of connection points: 2
#     Edge 26, Type (0, 1), BuildingBlock: KIFKEQ_clean_linker_1, # of connection points: 2
#     Edge 27, Type (0, 1), BuildingBlock: KIFKEQ_clean_linker_1, # of connection points: 2
#     Edge 28, Type (0, 1), BuildingBlock: KIFKEQ_clean_linker_1, # of connection points: 2
#     Edge 29, Type (0, 1), BuildingBlock: KIFKEQ_clean_linker_1, # of connection points: 2
#     Edge 30, Type (0, 1), BuildingBlock: KIFKEQ_clean_linker_1, # of connection points: 2
#     Edge 31, Type (0, 1), BuildingBlock: KIFKEQ_clean_linker_1, # of connection points: 2
#     Edge 32, Type (0, 1), BuildingBlock: KIFKEQ_clean_linker_1, # of connection points: 2
#     Edge 33, Type (0, 1), BuildingBlock: KIFKEQ_clean_linker_1, # of connection points: 2
#     Edge 34, Type (0, 1), BuildingBlock: KIFKEQ_clean_linker_1, # of connection points: 2
#     Edge 35, Type (0, 1), BuildingBlock: KIFKEQ_clean_linker_1, # of connection points: 2
# Relax obj value: 0.074
# Max RMSD: 0.259
# Mean RMSD: 0.207
data_MOF--net-apo--node1-KUMBOL_clean_sbu_1--node2-QEWDON_clean_linker_0--edge1-KIFKEQ_clean_linker_1
_symmetry_space_group_name_H-M    P1
_symmetry_Int_Tables_number       1
_symmetry_cell_setting            triclinic
loop_
_symmetry_equiv_pos_as_xyz
'x, y, z'
_cell_length_a     30.581434
_cell_length_b     43.938837
_cell_length_c     52.400835
_cell_angle_alpha  90.004774
_cell_angle_beta   89.968405
_cell_angle_gamma 90.391211
loop_
_atom_site_label
_atom_site_type_symbol
_atom_site_fract_x
_atom_site_fract_y
_atom_site_fract_z
_atom_type_partial_charge
H0 H 0.28347 0.4096 0.37936 0.0
C1 C 0.29762 0.40802 0.39828 0.0
C2 C 0.33555 0.42488 0.40419 0.0
C3 C 0.27549 0.39161 0.41744 0.0
H4 H 0.38209 0.43647 0.43337 0.0
C5 C 0.3524 0.42386 0.42911 0.0
C6 C 0.33087 0.40757 0.44859 0.0
C7 C 0.29235 0.39145 0.44245 0.0
C8 C 0.23076 0.37962 0.41273 0.0
H9 H 0.27401 0.37999 0.45737 0.0
C10 C 0.22235 0.35558 0.39546 0.0
C11 C 0.17896 0.34552 0.39118 0.0
C12 C 0.19569 0.39318 0.42565 0.0
H13 H 0.20142 0.41171 0.43892 0.0
C14 C 0.15293 0.38339 0.42134 0.0
H15 H 0.24921 0.34488 0.38547 0.0
C16 C 0.14454 0.35982 0.40421 0.0
H17 H 0.11103 0.35238 0.40143 0.0
H18 H 0.12615 0.39409 0.43135 0.0
H19 H 0.22365 0.10785 0.87933 0.0
C20 C 0.21039 0.11026 0.89841 0.0
C21 C 0.17233 0.09405 0.90533 0.0
C22 C 0.23377 0.12712 0.91675 0.0
H23 H 0.12776 0.08331 0.93601 0.0
C24 C 0.15671 0.09611 0.93054 0.0
C25 C 0.17937 0.11321 0.94903 0.0
C26 C 0.21804 0.12851 0.94194 0.0
C27 C 0.27853 0.13832 0.91105 0.0
H28 H 0.23666 0.14094 0.95618 0.0
C29 C 0.28663 0.16276 0.89415 0.0
C30 C 0.33006 0.17216 0.889 0.0
C31 C 0.31388 0.12366 0.92276 0.0
H32 H 0.30831 0.10485 0.93576 0.0
C33 C 0.35667 0.1328 0.9176 0.0
H34 H 0.25951 0.17429 0.88513 0.0
C35 C 0.36478 0.15678 0.90083 0.0
H36 H 0.39835 0.16369 0.89741 0.0
H37 H 0.38369 0.12128 0.92668 0.0
H38 H 0.75985 0.11671 0.6582 0.0
C39 C 0.77697 0.12099 0.64041 0.0
C40 C 0.81559 0.10512 0.63488 0.0
C41 C 0.75928 0.14132 0.62259 0.0
H42 H 0.866 0.09727 0.60679 0.0
C43 C 0.83666 0.1099 0.61132 0.0
C44 C 0.81924 0.13018 0.59328 0.0
C45 C 0.78064 0.14591 0.59915 0.0
C46 C 0.7154 0.15436 0.62686 0.0
H47 H 0.76619 0.16085 0.58506 0.0
C48 C 0.7077 0.1762 0.64604 0.0
C49 C 0.66508 0.18732 0.65011 0.0
C50 C 0.68048 0.14405 0.61173 0.0
H51 H 0.68579 0.12725 0.59692 0.0
C52 C 0.63832 0.15486 0.61584 0.0
H53 H 0.73457 0.18439 0.65771 0.0
C54 C 0.63057 0.17625 0.63495 0.0
H55 H 0.59761 0.18459 0.63761 0.0
H56 H 0.61154 0.14666 0.60416 0.0
H57 H 0.75048 0.40082 0.15877 0.0
C58 C 0.73383 0.397 0.14078 0.0
C59 C 0.69501 0.41267 0.13535 0.0
C60 C 0.75241 0.37755 0.12262 0.0
H61 H 0.64556 0.42138 0.10707 0.0
C62 C 0.67452 0.40836 0.11153 0.0
C63 C 0.69295 0.38909 0.09292 0.0
C64 C 0.73179 0.37356 0.09892 0.0
C65 C 0.79652 0.36487 0.12686 0.0
H66 H 0.74668 0.35858 0.08503 0.0
C67 C 0.80441 0.34254 0.1456 0.0
C68 C 0.84719 0.33167 0.14955 0.0
C69 C 0.83143 0.37593 0.11205 0.0
H70 H 0.82596 0.3931 0.09757 0.0
C71 C 0.87373 0.36537 0.11607 0.0
H72 H 0.77756 0.33377 0.15701 0.0
C73 C 0.88167 0.34349 0.13474 0.0
H74 H 0.91475 0.33537 0.13732 0.0
H75 H 0.90049 0.37415 0.10465 0.0
H76 H 0.67104 0.63945 0.66234 0.0
C77 C 0.67022 0.63396 0.64217 0.0
C78 C 0.65435 0.60537 0.63411 0.0
C79 C 0.68124 0.65643 0.62415 0.0
H80 H 0.63738 0.57761 0.6017 0.0
C81 C 0.65078 0.59931 0.6078 0.0
C82 C 0.66238 0.62133 0.58944 0.0
C83 C 0.67801 0.64976 0.59798 0.0
C84 C 0.68794 0.68852 0.63205 0.0
H85 H 0.68656 0.66732 0.5843 0.0
C86 C 0.72641 0.69867 0.64439 0.0
C87 C 0.73243 0.72999 0.64949 0.0
C88 C 0.65544 0.70965 0.62572 0.0
H89 H 0.62568 0.70229 0.61627 0.0
C90 C 0.66106 0.74043 0.63128 0.0
H91 H 0.75193 0.68263 0.64909 0.0
C92 C 0.6994 0.7506 0.64291 0.0
H93 H 0.7034 0.7747 0.64673 0.0
H94 H 0.63582 0.75651 0.62627 0.0
H95 H 0.84165 0.87702 0.16184 0.0
C96 C 0.84337 0.88288 0.14177 0.0
C97 C 0.86024 0.91147 0.1343 0.0
C98 C 0.83261 0.86081 0.12328 0.0
H99 H 0.87782 0.93991 0.10222 0.0
C100 C 0.86482 0.91799 0.10812 0.0
C101 C 0.85357 0.89639 0.08947 0.0
C102 C 0.83712 0.86797 0.09723 0.0
C103 C 0.82483 0.82863 0.13066 0.0
H104 H 0.83021 0.85067 0.083 0.0
C105 C 0.78679 0.819 0.14378 0.0
C106 C 0.77966 0.78768 0.14848 0.0
C107 C 0.85589 0.80693 0.12323 0.0
H108 H 0.88537 0.81386 0.11325 0.0
C109 C 0.84924 0.77617 0.12841 0.0
H110 H 0.76237 0.83546 0.14937 0.0
C111 C 0.81127 0.76655 0.14076 0.0
H112 H 0.80643 0.74245 0.14427 0.0
H113 H 0.87338 0.75967 0.12255 0.0
H114 H 0.18877 0.87013 0.36995 0.0
C115 C 0.18471 0.87326 0.39033 0.0
C116 C 0.17428 0.90219 0.40015 0.0
C117 C 0.18751 0.84793 0.40656 0.0
H118 H 0.15942 0.92755 0.43438 0.0
C119 C 0.16815 0.90553 0.42668 0.0
C120 C 0.17119 0.88039 0.44323 0.0
C121 C 0.18101 0.85174 0.43289 0.0
C122 C 0.19089 0.81676 0.39592 0.0
H123 H 0.18162 0.83189 0.44517 0.0
C124 C 0.22678 0.80773 0.38086 0.0
C125 C 0.22881 0.77778 0.37114 0.0
C126 C 0.15722 0.79574 0.40108 0.0
H127 H 0.12925 0.80225 0.4125 0.0
C128 C 0.159 0.76627 0.39139 0.0
H129 H 0.25292 0.82381 0.37686 0.0
C130 C 0.19446 0.7573 0.37656 0.0
H131 H 0.19537 0.73407 0.36966 0.0
H132 H 0.13288 0.75026 0.39549 0.0
H133 H 0.31737 0.64827 0.87127 0.0
C134 C 0.32548 0.64551 0.89122 0.0
C135 C 0.3393 0.61701 0.90076 0.0
C136 C 0.3244 0.67129 0.90704 0.0
H137 H 0.36121 0.59367 0.93492 0.0
C138 C 0.34955 0.61484 0.92703 0.0
C139 C 0.34632 0.64014 0.94337 0.0
C140 C 0.33396 0.66824 0.93307 0.0
C141 C 0.31993 0.70224 0.89604 0.0
H142 H 0.33371 0.6883 0.94512 0.0
C143 C 0.28369 0.7106 0.881 0.0
C144 C 0.28108 0.74028 0.87077 0.0
C145 C 0.35331 0.7237 0.90062 0.0
H146 H 0.38167 0.71773 0.91191 0.0
C147 C 0.35085 0.75291 0.89049 0.0
H148 H 0.25778 0.69422 0.87736 0.0
C149 C 0.31507 0.7612 0.8757 0.0
H150 H 0.31366 0.78424 0.86839 0.0
H151 H 0.37675 0.76924 0.89418 0.0
C152 C 0.87686 0.08803 0.28724 0.0
C153 C 0.88168 0.03314 0.29186 0.0
C154 C 0.90102 0.06231 0.29341 0.0
C155 C 0.83804 0.03015 0.28388 0.0
C156 C 0.83299 0.08508 0.27931 0.0
C157 C 0.81377 0.05603 0.27763 0.0
N158 N 0.89659 0.11585 0.28845 0.0
C159 C 0.87393 0.14166 0.28291 0.0
C160 C 0.80979 0.11144 0.27312 0.0
C161 C 0.83031 0.13984 0.27505 0.0
Gd162 Gd 0.06346 0.12268 0.24733 0.0
Gd163 Gd 0.96995 0.11619 0.30134 0.0
N164 N 0.94376 0.06579 0.30024 0.0
C165 C 0.90685 1.00781 0.29835 0.0
C166 C 0.96756 0.04136 0.30795 0.0
C167 C 0.9498 0.01199 0.30672 0.0
H168 H 0.99983 0.04435 0.31557 0.0
H169 H 0.96911 0.99263 0.31251 0.0
H170 H 0.03369 0.1952 0.23552 0.0
H171 H 0.88918 0.16375 0.28496 0.0
H172 H 0.06579 0.24651 0.23839 0.0
H173 H 0.8932 0.98501 0.2974 0.0
H174 H 0.82272 1.0079 0.28247 0.0
H175 H 0.14421 0.07407 0.26106 0.0
H176 H 0.77602 0.11011 0.26696 0.0
H177 H 0.81248 0.16036 0.27059 0.0
H178 H 0.2144 0.22913 0.26342 0.0
H179 H 0.78013 0.05332 0.27149 0.0
H180 H 0.26004 0.12615 0.27629 0.0
H181 H 0.22212 0.07637 0.27321 0.0
N182 N 0.13772 0.12209 0.25821 0.0
C183 C 0.15811 0.14966 0.25926 0.0
C184 C 0.16017 0.09594 0.26288 0.0
C185 C 0.22575 0.1253 0.27111 0.0
C186 C 0.20443 0.09715 0.26948 0.0
C187 C 0.20267 0.15201 0.26593 0.0
H188 H 0.25685 0.18306 0.27254 0.0
N189 N 0.09071 0.1728 0.24857 0.0
C190 C 0.13404 0.17573 0.25415 0.0
C191 C 0.12897 0.23039 0.25021 0.0
C192 C 0.15414 0.20468 0.2555 0.0
C193 C 0.06673 0.19766 0.24207 0.0
C194 C 0.08521 0.22682 0.2432 0.0
O195 O 0.95822 0.09409 0.26243 0.0
O196 O 0.02574 0.07851 0.24866 0.0
O197 O 0.05195 0.13323 0.20733 0.0
O198 O 0.1063 0.10485 0.21788 0.0
O199 O 0.0371 0.09647 0.30957 0.0
O200 O 0.06541 0.07981 0.27111 0.0
O201 O 0.07655 0.1446 0.28599 0.0
O202 O 0.00943 0.15992 0.30092 0.0
O203 O 0.97878 0.10629 0.34173 0.0
O204 O 0.92484 0.13408 0.32955 0.0
O205 O 0.99611 0.14276 0.23965 0.0
O206 O 0.96936 0.15945 0.2784 0.0
C207 C 0.98307 0.07528 0.24949 0.0
C208 C 0.06269 0.07841 0.2962 0.0
C209 C 0.07429 0.09609 0.17757 0.0
C210 C 0.07778 0.08469 0.13181 0.0
C211 C 0.04402 0.04874 0.16145 0.0
C212 C 0.05299 0.06825 0.18179 0.0
C213 C 0.05641 0.05676 0.13668 0.0
C214 C 0.08654 0.10433 0.15258 0.0
C215 C 0.0841 0.11652 0.19916 0.0
C216 C 0.19849 0.20707 0.26219 0.0
C217 C 0.22268 0.18082 0.26738 0.0
H218 H 0.14316 0.25303 0.25111 0.0
C219 C 0.05219 0.16302 0.29962 0.0
C220 C 0.97102 0.16084 0.25334 0.0
C221 C 0.95387 0.14398 0.37034 0.0
C222 C 0.94188 0.15866 0.41482 0.0
C223 C 0.98338 0.1917 0.38633 0.0
C224 C 0.97754 0.171 0.36641 0.0
C225 C 0.96542 0.18573 0.41034 0.0
C226 C 0.93651 0.13765 0.3947 0.0
C227 C 0.94589 0.12293 0.34893 0.0
H228 H 0.02774 0.02717 0.16492 0.0
H229 H 0.04368 0.06156 0.20086 0.0
H230 H 0.04989 0.04075 0.12142 0.0
H231 H 0.10256 0.12607 0.14939 0.0
H232 H 1.00162 0.21256 0.3831 0.0
H233 H 0.99108 0.17619 0.34788 0.0
H234 H 0.97019 0.20218 0.42551 0.0
H235 H 0.91796 0.11686 0.3978 0.0
C236 C 0.62786 0.43677 0.78728 0.0
C237 C 0.61764 0.49079 0.79477 0.0
C238 C 0.60134 0.46068 0.79501 0.0
C239 C 0.66028 0.49659 0.78597 0.0
C240 C 0.67081 0.44248 0.77867 0.0
C241 C 0.68678 0.47252 0.77794 0.0
N242 N 0.61107 0.40801 0.78744 0.0
C243 C 0.63593 0.38384 0.7802 0.0
C244 C 0.69627 0.41784 0.77077 0.0
C245 C 0.67882 0.38839 0.77167 0.0
Gd246 Gd 0.44699 0.3956 0.74646 0.0
Gd247 Gd 0.53857 0.40295 0.80144 0.0
N248 N 0.55972 0.45447 0.80281 0.0
C249 C 0.59077 0.51411 0.80377 0.0
C250 C 0.53507 0.4767 0.81368 0.0
C251 C 0.54963 0.50694 0.81372 0.0
H252 H 0.50498 0.47112 0.82321 0.0
H253 H 0.52944 0.52458 0.82189 0.0
H254 H 0.47626 0.3228 0.73541 0.0
H255 H 0.62297 0.36097 0.78129 0.0
H256 H 0.44331 0.27173 0.73819 0.0
H257 H 0.60206 0.53754 0.80392 0.0
H258 H 0.6732 0.51961 0.78548 0.0
H259 H 0.36703 0.44484 0.76044 0.0
H260 H 0.72944 0.42129 0.76403 0.0
H261 H 0.69841 0.36918 0.76584 0.0
H262 H 0.29444 0.29025 0.76219 0.0
H263 H 0.71963 0.47737 0.77125 0.0
H264 H 0.25022 0.39353 0.77507 0.0
H265 H 0.28897 0.44303 0.77235 0.0
N266 N 0.37273 0.39676 0.75728 0.0
C267 C 0.3519 0.36933 0.75818 0.0
C268 C 0.35068 0.42306 0.76204 0.0
C269 C 0.28455 0.39415 0.76996 0.0
C270 C 0.30634 0.42214 0.76853 0.0
C271 C 0.30725 0.36729 0.76473 0.0
H272 H 0.25255 0.33662 0.77114 0.0
N273 N 0.41913 0.34567 0.74781 0.0
C274 C 0.37566 0.34307 0.75315 0.0
C275 C 0.38007 0.28835 0.74944 0.0
C276 C 0.35515 0.31426 0.75449 0.0
C277 C 0.44296 0.32061 0.74163 0.0
C278 C 0.42404 0.29158 0.74274 0.0
O279 O 0.55226 0.42291 0.76193 0.0
O280 O 0.48567 0.43941 0.7477 0.0
O281 O 0.45926 0.38502 0.70653 0.0
O282 O 0.4044 0.4131 0.71679 0.0
O283 O 0.47051 0.42226 0.80866 0.0
O284 O 0.44614 0.43901 0.76937 0.0
O285 O 0.43263 0.37412 0.78515 0.0
O286 O 0.49917 0.35926 0.8012 0.0
O287 O 0.53175 0.41129 0.84219 0.0
O288 O 0.58508 0.38402 0.82835 0.0
O289 O 0.5139 0.37457 0.73962 0.0
O290 O 0.54105 0.35936 0.77883 0.0
C291 C 0.52838 0.44215 0.74887 0.0
C292 C 0.44633 0.44034 0.79445 0.0
C293 C 0.43723 0.42221 0.6768 0.0
C294 C 0.43418 0.43411 0.63114 0.0
C295 C 0.46778 0.4697 0.66114 0.0
C296 C 0.45856 0.44998 0.6813 0.0
C297 C 0.45558 0.46197 0.63629 0.0
C298 C 0.42515 0.41426 0.65172 0.0
C299 C 0.42711 0.40159 0.6982 0.0
C300 C 0.31067 0.3122 0.76098 0.0
C301 C 0.2868 0.33862 0.76608 0.0
H302 H 0.36555 0.26581 0.75034 0.0
C303 C 0.45658 0.35585 0.79914 0.0
C304 C 0.53915 0.35713 0.75378 0.0
C305 C 0.55822 0.37294 0.86956 0.0
C306 C 0.56733 0.35967 0.91472 0.0
C307 C 0.53223 0.32417 0.88521 0.0
C308 C 0.53786 0.34477 0.86522 0.0
C309 C 0.547 0.3314 0.9097 0.0
C310 C 0.57265 0.38042 0.89431 0.0
C311 C 0.56502 0.3945 0.84836 0.0
H312 H 0.48408 0.49121 0.66482 0.0
H313 H 0.46769 0.45647 0.70044 0.0
H314 H 0.46228 0.47814 0.62117 0.0
H315 H 0.40906 0.39259 0.64832 0.0
H316 H 0.51675 0.30235 0.88165 0.0
H317 H 0.5267 0.33864 0.84633 0.0
H318 H 0.54315 0.31451 0.92459 0.0
H319 H 0.58776 0.40245 0.89758 0.0
C320 C 0.85714 0.87064 0.76941 0.0
C321 C 0.85396 0.81594 0.77573 0.0
C322 C 0.87609 0.84404 0.77808 0.0
C323 C 0.81343 0.81476 0.76317 0.0
C324 C 0.81534 0.86977 0.75805 0.0
C325 C 0.79421 0.84161 0.75428 0.0
N326 N 0.87822 0.8975 0.77368 0.0
C327 C 0.85692 0.92437 0.76986 0.0
C328 C 0.7953 0.89729 0.75175 0.0
C329 C 0.81579 0.92471 0.7582 0.0
Gd330 Gd 0.0402 0.90546 0.73491 0.0
Gd331 Gd 0.9495 0.89379 0.79072 0.0
N332 N 0.91584 0.84579 0.78948 0.0
C333 C 0.87309 0.78997 0.78634 0.0
C334 C 0.93371 0.82095 0.80102 0.0
C335 C 0.91284 0.79258 0.79937 0.0
H336 H 0.96457 0.82305 0.81095 0.0
H337 H 0.9275 0.77275 0.80801 0.0
H338 H 0.99668 0.96053 0.69774 0.0
H339 H 0.8713 0.94571 0.77586 0.0
H340 H 1.00328 0.01615 0.69262 0.0
H341 H 0.85713 0.76795 0.78493 0.0
H342 H 0.79628 0.7933 0.76072 0.0
H343 H 0.13207 0.88239 0.76255 0.0
H344 H 0.76323 0.89761 0.74297 0.0
H345 H 0.79968 0.94612 0.75452 0.0
H346 H 0.12866 0.04286 0.74319 0.0
H347 H 0.76238 0.84047 0.74525 0.0
H348 H 0.21005 0.96106 0.78037 0.0
H349 H 0.19915 0.90517 0.78129 0.0
N350 N 0.10562 0.92502 0.75171 0.0
C351 C 0.11209 0.95552 0.74969 0.0
C352 C 0.13693 0.90676 0.76201 0.0
C353 C 0.18082 0.95117 0.77203 0.0
C354 C 0.17479 0.91959 0.7726 0.0
C355 C 0.14951 0.96954 0.76022 0.0
H356 H 0.18288 0.01254 0.76662 0.0
N357 N 0.04689 0.95783 0.72572 0.0
C358 C 0.08134 0.97252 0.73669 0.0
C359 C 0.058 0.02013 0.71832 0.0
C360 C 0.08751 1.00414 0.7336 0.0
C361 C 0.02072 0.9728 0.70884 0.0
C362 C 0.02503 1.00426 0.70543 0.0
O363 O 0.96272 0.8569 0.76136 0.0
O364 O 0.97543 0.88355 0.72473 0.0
O365 O 0.06654 0.91232 0.69668 0.0
O366 O 0.07508 0.86926 0.71564 0.0
O367 O 0.01525 0.87139 0.79799 0.0
O368 O 0.0487 0.86281 0.75854 0.0
O369 O 0.05196 0.91979 0.77612 0.0
O370 O 0.98612 0.9384 0.78869 0.0
O371 O 0.96942 0.89224 0.83057 0.0
O372 O 0.90237 0.90154 0.821 0.0
O373 O 0.97098 0.92128 0.72731 0.0
O374 O 0.94676 0.9371 0.76678 0.0
C375 C 0.95793 0.86021 0.73667 0.0
C376 C 0.04413 0.85747 0.78325 0.0
C377 C 0.06281 0.86835 0.67107 0.0
C378 C 0.06437 0.86166 0.62468 0.0
C379 C 0.01315 0.83247 0.65074 0.0
C380 C 0.02895 0.84666 0.67269 0.0
C381 C 0.03067 0.83983 0.62692 0.0
C382 C 0.0805 0.87575 0.64702 0.0
C383 C 0.07847 0.88415 0.69423 0.0
C384 C 0.12368 0.01852 0.74508 0.0
C385 C 0.15464 1.00125 0.75835 0.0
H386 H 0.06154 0.04445 0.71547 0.0
C387 C 0.02888 0.94008 0.78849 0.0
C388 C 0.94697 0.93917 0.74168 0.0
C389 C 0.93002 0.92413 0.85838 0.0
C390 C 0.91897 0.94032 0.90267 0.0
C391 C 0.93398 0.97766 0.86925 0.0
C392 C 0.93642 0.95452 0.8511 0.0
C393 C 0.92504 0.97074 0.89476 0.0
C394 C 0.92166 0.91707 0.88412 0.0
C395 C 0.93109 0.89971 0.83919 0.0
H396 H 0.98715 0.8157 0.65219 0.0
H397 H 0.01459 0.84069 0.69092 0.0
H398 H 0.01804 0.82817 0.61025 0.0
H399 H 0.10608 0.89287 0.64569 0.0
H400 H 0.93861 1.00112 0.86348 0.0
H401 H 0.94288 0.96034 0.83136 0.0
H402 H 0.92227 0.98936 0.90817 0.0
H403 H 0.9176 0.89345 0.88959 0.0
C404 C 0.65447 0.64731 0.27112 0.0
C405 C 0.65796 0.70188 0.27818 0.0
C406 C 0.63554 0.67383 0.28001 0.0
C407 C 0.6988 0.70312 0.26595 0.0
C408 C 0.69654 0.64822 0.26008 0.0
C409 C 0.71799 0.67635 0.25685 0.0
N410 N 0.63306 0.62044 0.27487 0.0
C411 C 0.65425 0.59357 0.27083 0.0
C412 C 0.71648 0.62075 0.25352 0.0
C413 C 0.69562 0.59329 0.25945 0.0
Gd414 Gd 0.47275 0.61369 0.23472 0.0
Gd415 Gd 0.56153 0.62417 0.29161 0.0
N416 N 0.59548 0.67207 0.29106 0.0
C417 C 0.63879 0.72775 0.28896 0.0
C418 C 0.5775 0.69679 0.30273 0.0
C419 C 0.59866 0.72509 0.30161 0.0
H420 H 0.54637 0.69466 0.31238 0.0
H421 H 0.58395 0.74484 0.31037 0.0
H422 H 0.51706 0.56009 0.19643 0.0
H423 H 0.63966 0.57217 0.27649 0.0
H424 H 0.51034 0.50471 0.18962 0.0
H425 H 0.65497 0.74973 0.28795 0.0
H426 H 0.7162 0.72455 0.26392 0.0
H427 H 0.37964 0.63597 0.26145 0.0
H428 H 0.74874 0.62046 0.24497 0.0
H429 H 0.71165 0.57189 0.2556 0.0
H430 H 0.38354 0.47624 0.23839 0.0
H431 H 0.75005 0.67753 0.24806 0.0
H432 H 0.30091 0.55682 0.27653 0.0
H433 H 0.31173 0.61268 0.27875 0.0
N434 N 0.4066 0.59366 0.25017 0.0
C435 C 0.40022 0.56325 0.24741 0.0
C436 C 0.3748 0.61163 0.26035 0.0
C437 C 0.33051 0.56695 0.26884 0.0
C438 C 0.33649 0.5985 0.27013 0.0
C439 C 0.36233 0.54893 0.2571 0.0
H440 H 0.3286 0.50578 0.26198 0.0
N441 N 0.46607 0.56173 0.22403 0.0
C442 C 0.43133 0.54668 0.23431 0.0
C443 C 0.45497 0.49979 0.21478 0.0
C444 C 0.42514 0.51522 0.23028 0.0
C445 C 0.49261 0.54741 0.20692 0.0
C446 C 0.48829 0.51612 0.20259 0.0
O447 O 0.54971 0.66143 0.26231 0.0
O448 O 0.53839 0.63483 0.22555 0.0
O449 O 0.44713 0.60817 0.1962 0.0
O450 O 0.44009 0.65104 0.21571 0.0
O451 O 0.49578 0.64668 0.29858 0.0
O452 O 0.46346 0.65584 0.25894 0.0
O453 O 0.45899 0.59888 0.27558 0.0
O454 O 0.52403 0.57989 0.28923 0.0
O455 O 0.54121 0.62563 0.33142 0.0
O456 O 0.60819 0.61585 0.32199 0.0
O457 O 0.54202 0.59732 0.22812 0.0
O458 O 0.56432 0.5808 0.26774 0.0
C459 C 0.55533 0.65822 0.23765 0.0
C460 C 0.46732 0.66081 0.28373 0.0
C461 C 0.45352 0.65253 0.17125 0.0
C462 C 0.45379 0.65958 0.12489 0.0
C463 C 0.50416 0.68843 0.15175 0.0
C464 C 0.4874 0.67413 0.17343 0.0
C465 C 0.48751 0.68132 0.12768 0.0
C466 C 0.43682 0.64533 0.14694 0.0
C467 C 0.43662 0.63665 0.19408 0.0
C468 C 0.38855 0.50047 0.24099 0.0
C469 C 0.35719 0.51731 0.25436 0.0
H470 H 0.45143 0.47561 0.21122 0.0
C471 C 0.48127 0.57836 0.28817 0.0
C472 C 0.56449 0.57869 0.24264 0.0
C473 C 0.58003 0.59351 0.35935 0.0
C474 C 0.59242 0.57728 0.40352 0.0
C475 C 0.57489 0.54008 0.37038 0.0
C476 C 0.57242 0.56321 0.35222 0.0
C477 C 0.58511 0.54693 0.39574 0.0
C478 C 0.58958 0.60051 0.38495 0.0
C479 C 0.57937 0.61789 0.34012 0.0
H480 H 0.53017 0.70512 0.15363 0.0
H481 H 0.50102 0.67996 0.19187 0.0
H482 H 0.50078 0.69314 0.11125 0.0
H483 H 0.41125 0.62825 0.14523 0.0
H484 H 0.56935 0.51667 0.36473 0.0
H485 H 0.56507 0.55743 0.33258 0.0
H486 H 0.58795 0.52829 0.40912 0.0
H487 H 0.59456 0.6241 0.39029 0.0
H488 H 0.19837 0.96211 0.40612 0.0
H489 H 0.12962 0.90155 0.35483 0.0
H490 H 0.17738 1.00545 0.37977 0.0
H491 H 0.10873 0.94475 0.32854 0.0
H492 H 0.10034 0.02692 0.2765 0.0
H493 H 0.13364 0.98503 0.30001 0.0
H494 H 0.11026 0.03248 0.37087 0.0
H495 H 0.07805 0.0745 0.34742 0.0
C496 C 0.17897 0.95801 0.38916 0.0
C497 C 0.1656 0.9283 0.38269 0.0
C498 C 0.16689 0.98286 0.37406 0.0
C499 C 0.14112 0.97866 0.35208 0.0
C500 C 0.12907 0.94884 0.34512 0.0
C501 C 0.14113 0.92401 0.36022 0.0
C502 C 0.10303 0.02865 0.29705 0.0
C503 C 0.08654 0.05412 0.31005 0.0
C504 C 0.12176 1.00449 0.31056 0.0
C505 C 0.12456 1.00529 0.33737 0.0
C506 C 0.10921 0.0312 0.35024 0.0
C507 C 0.09042 0.05525 0.33677 0.0
H508 H 0.35807 0.61707 0.84885 0.0
H509 H 0.3368 0.55528 0.91205 0.0
H510 H 0.37313 0.57476 0.82152 0.0
H511 H 0.35953 0.5136 0.88591 0.0
H512 H 0.38971 0.43622 0.83437 0.0
H513 H 0.35507 0.47766 0.85729 0.0
H514 H 0.42089 0.54222 0.80744 0.0
H515 H 0.45025 0.50035 0.78306 0.0
C516 C 0.35654 0.59459 0.85719 0.0
C517 C 0.34648 0.59032 0.88321 0.0
C518 C 0.36664 0.56994 0.84139 0.0
C519 C 0.36913 0.54008 0.85115 0.0
C520 C 0.35794 0.53575 0.87703 0.0
C521 C 0.34587 0.56023 0.89253 0.0
C522 C 0.39573 0.45941 0.8282 0.0
C523 C 0.42252 0.46523 0.80708 0.0
C524 C 0.37645 0.48344 0.84158 0.0
C525 C 0.38531 0.51408 0.83495 0.0
C526 C 0.41181 0.51946 0.81327 0.0
C527 C 0.42922 0.49536 0.7992 0.0
H528 H 0.69416 0.58401 0.67758 0.0
H529 H 0.57603 0.57566 0.63302 0.0
H530 H 0.66584 0.54558 0.70759 0.0
H531 H 0.54803 0.53753 0.66268 0.0
H532 H 0.49105 0.49538 0.73417 0.0
H533 H 0.523 0.53585 0.70828 0.0
H534 H 0.64602 0.48829 0.70692 0.0
H535 H 0.61351 0.44711 0.73233 0.0
C536 C 0.66216 0.57406 0.67428 0.0
C537 C 0.63743 0.5827 0.65288 0.0
C538 C 0.6461 0.55197 0.69132 0.0
C539 C 0.60466 0.53859 0.68753 0.0
C540 C 0.57986 0.54759 0.66629 0.0
C541 C 0.59608 0.56926 0.64917 0.0
C542 C 0.52491 0.49346 0.72834 0.0
C543 C 0.54955 0.46779 0.73503 0.0
C544 C 0.54323 0.51671 0.71355 0.0
C545 C 0.5869 0.51514 0.70533 0.0
C546 C 0.61231 0.4902 0.71303 0.0
C547 C 0.59372 0.46664 0.72761 0.0
H548 H 0.82004 0.93209 0.17798 0.0
H549 H 0.93867 0.94098 0.13387 0.0
H550 H 0.84791 0.9703 0.20831 0.0
H551 H 0.96615 0.97896 0.16375 0.0
H552 H 0.0222 0.02269 0.23448 0.0
H553 H 0.99122 0.98166 0.20881 0.0
H554 H 0.86652 0.02711 0.20826 0.0
H555 H 0.89788 0.0687 0.2336 0.0
C556 C 0.85208 0.94207 0.17486 0.0
C557 C 0.87703 0.93369 0.15346 0.0
C558 C 0.86789 0.96405 0.19208 0.0
C559 C 0.90928 0.97761 0.18845 0.0
C560 C 0.93437 0.96876 0.16727 0.0
C561 C 0.91843 0.94718 0.15 0.0
C562 C 0.98818 0.02403 0.22886 0.0
C563 C 0.96275 0.04927 0.23569 0.0
C564 C 0.97041 1.00045 0.21419 0.0
C565 C 0.92654 1.00127 0.20624 0.0
C566 C 0.90039 0.02576 0.21414 0.0
C567 C 0.91838 0.0496 0.22862 0.0
H568 H 0.77278 0.05476 0.65217 0.0
H569 H 0.89574 0.10297 0.65775 0.0
H570 H 0.80109 0.01467 0.68012 0.0
H571 H 0.92374 0.06323 0.68632 0.0
H572 H 0.93619 0.99802 0.75707 0.0
H573 H 0.90239 0.0395 0.7327 0.0
H574 H 0.86754 0.97594 0.67319 0.0
H575 H 0.90227 0.93482 0.69714 0.0
C576 C 0.80566 0.05691 0.65969 0.0
C577 C 0.83215 0.08186 0.65288 0.0
C578 C 0.82184 0.03401 0.67558 0.0
C579 C 0.86448 0.03598 0.68544 0.0
C580 C 0.89061 0.06134 0.67915 0.0
C581 C 0.87476 0.08391 0.66275 0.0
C582 C 0.92065 0.99294 0.73898 0.0
C583 C 0.92171 0.96333 0.72893 0.0
C584 C 0.9017 0.01663 0.72499 0.0
C585 C 0.88247 0.01086 0.70108 0.0
C586 C 0.88195 0.98096 0.69162 0.0
C587 C 0.9018 0.95749 0.70528 0.0
H588 H 0.73941 0.46024 0.15654 0.0
H589 H 0.61227 0.41707 0.15493 0.0
H590 H 0.71089 0.49993 0.18476 0.0
H591 H 0.58397 0.45651 0.18372 0.0
H592 H 0.56969 0.51904 0.2568 0.0
H593 H 0.60266 0.47724 0.23234 0.0
H594 H 0.64752 0.54158 0.17573 0.0
H595 H 0.61347 0.58304 0.19967 0.0
C596 C 0.70553 0.45903 0.16255 0.0
C597 C 0.67802 0.43559 0.15361 0.0
C598 C 0.68924 0.48175 0.17859 0.0
C599 C 0.64535 0.48113 0.18647 0.0
C600 C 0.61805 0.45729 0.17809 0.0
C601 C 0.63412 0.4349 0.16155 0.0
C602 C 0.58725 0.52418 0.23935 0.0
C603 C 0.58922 0.55414 0.23007 0.0
C604 C 0.60571 0.50033 0.22529 0.0
C605 C 0.62751 0.50626 0.20217 0.0
C606 C 0.63103 0.53644 0.19354 0.0
C607 C 0.61162 0.5601 0.2072 0.0
H608 H 0.3635 0.41354 0.3552 0.0
H609 H 0.351 0.48513 0.41104 0.0
H610 H 0.39757 0.44993 0.32533 0.0
H611 H 0.38421 0.52131 0.38132 0.0
H612 H 0.40194 0.58305 0.31147 0.0
H613 H 0.3644 0.54481 0.33758 0.0
H614 H 0.47085 0.48247 0.32537 0.0
H615 H 0.5085 0.52086 0.29921 0.0
C616 C 0.36782 0.43704 0.36098 0.0
C617 C 0.35494 0.44651 0.38546 0.0
C618 C 0.38742 0.45778 0.344 0.0
C619 C 0.39344 0.48845 0.35102 0.0
C620 C 0.3797 0.4979 0.37531 0.0
C621 C 0.36098 0.47716 0.39237 0.0
C622 C 0.41706 0.56107 0.31413 0.0
C623 C 0.45805 0.55488 0.30331 0.0
C624 C 0.39571 0.53925 0.32917 0.0
C625 C 0.41471 0.51066 0.33349 0.0
C626 C 0.45529 0.50422 0.32218 0.0
C627 C 0.47695 0.52624 0.30742 0.0
H628 H 0.15341 0.03431 0.91354 0.0
H629 H 0.14501 0.10449 0.85618 0.0
H630 H 0.12004 0.99781 0.8841 0.0
H631 H 0.11084 0.06784 0.82667 0.0
H632 H 1.00075 0.9974 0.7993 0.0
H633 H 0.03672 0.03574 0.82628 0.0
H634 H 0.14246 0.97346 0.84052 0.0
H635 H 0.1067 0.9353 0.81347 0.0
C636 C 0.14412 0.04196 0.89466 0.0
C637 C 0.15153 0.07229 0.88719 0.0
C638 C 0.12535 0.02101 0.87776 0.0
C639 C 0.11291 0.02999 0.85311 0.0
C640 C 0.11998 0.06038 0.84562 0.0
C641 C 0.13961 0.08127 0.86242 0.0
C642 C 0.03176 0.99201 0.80815 0.0
C643 C 0.05102 0.96343 0.8043 0.0
C644 C 0.05245 0.01399 0.82341 0.0
C645 C 0.09234 1.00755 0.8355 0.0
C646 C 0.11163 0.97898 0.83153 0.0
C647 C 0.09131 0.95722 0.81596 0.0
H648 H 0.09637 0.12134 0.96733 0.0
H649 H 0.22849 0.10404 0.99194 0.0
H650 H 0.07124 0.11813 1.01145 0.0
H651 H 0.20346 0.09988 0.03594 0.0
H652 H 0.15269 0.11431 0.1159 0.0
H653 H 0.17612 0.12498 0.07236 0.0
H654 H 0.05837 0.08213 0.0437 0.0
H655 H 0.03374 0.07332 0.08711 0.0
C656 C 0.12002 0.1168 0.9822 0.0
C657 C 0.16441 0.11297 0.97612 0.0
C658 C 0.10563 0.11481 1.00753 0.0
C659 C 0.13517 0.10855 0.02746 0.0
C660 C 0.17974 0.10524 0.02132 0.0
C661 C 0.19416 0.10754 0.99602 0.0
C662 C 0.13136 0.1077 0.10035 0.0
C663 C 0.09137 0.09274 0.10519 0.0
C664 C 0.14513 0.11344 0.07527 0.0
C665 C 0.11942 0.10425 0.0543 0.0
C666 C 0.079 0.0899 0.05921 0.0
C667 C 0.0651 0.08439 0.08424 0.0
H668 H 0.32985 0.36296 0.48573 0.0
H669 H 0.3672 0.45685 0.4731 0.0
H670 H 0.35515 0.36694 0.52994 0.0
H671 H 0.39369 0.46025 0.51668 0.0
H672 H 0.47891 0.44575 0.58675 0.0
H673 H 0.4544 0.43772 0.54306 0.0
H674 H 0.33536 0.39611 0.5708 0.0
H675 H 0.35916 0.40494 0.61475 0.0
C676 C 0.34336 0.38442 0.49228 0.0
C677 C 0.34681 0.40945 0.47557 0.0
C678 C 0.35795 0.38664 0.5176 0.0
C679 C 0.3768 0.41382 0.52672 0.0
C680 C 0.38012 0.4388 0.5101 0.0
C681 C 0.36509 0.43674 0.48498 0.0
C682 C 0.44733 0.43508 0.58366 0.0
C683 C 0.4208 0.42642 0.60444 0.0
C684 C 0.4334 0.43037 0.55856 0.0
C685 C 0.39278 0.41654 0.55347 0.0
C686 C 0.36695 0.40667 0.57412 0.0
C687 C 0.3807 0.41168 0.59932 0.0
H688 H 0.73547 0.3838 0.0469 0.0
H689 H 0.60578 0.38888 0.07935 0.0
H690 H 0.70418 0.37772 1.00476 0.0
H691 H 0.5744 0.38523 0.03677 0.0
H692 H 0.53076 0.34377 0.96089 0.0
H693 H 0.56047 0.35146 1.00334 0.0
H694 H 0.66907 0.40188 0.97111 0.0
H695 H 0.64115 0.39206 0.92849 0.0
C696 C 0.7002 0.38359 0.04514 0.0
C697 C 0.67329 0.38644 0.06682 0.0
C698 C 0.68215 0.3807 0.02073 0.0
C699 C 0.63657 0.38104 1.01707 0.0
C700 C 0.60961 0.3844 0.0387 0.0
C701 C 0.62769 0.38692 0.06321 0.0
C702 C 0.56129 0.35618 0.96275 0.0
C703 C 0.58369 0.3669 0.941 0.0
C704 C 0.57805 0.36107 0.98728 0.0
C705 C 0.61748 0.3772 0.99092 0.0
C706 C 0.63912 0.38881 0.96921 0.0
C707 C 0.62263 0.3836 0.94464 0.0
H708 H 0.84415 0.18272 0.56953 0.0
H709 H 0.8393 0.08545 0.55914 0.0
H710 H 0.87465 0.1888 0.52686 0.0
H711 H 0.86731 0.09129 0.5158 0.0
H712 H 0.95297 0.10918 0.44579 0.0
H713 H 0.92572 0.102 0.48923 0.0
H714 H 0.85798 0.18795 0.48421 0.0
H715 H 0.88756 0.19559 0.44156 0.0
C716 C 0.84945 0.16264 0.55796 0.0
C717 C 0.83952 0.13364 0.56764 0.0
C718 C 0.86654 0.16606 0.53333 0.0
C719 C 0.87322 0.14058 0.51744 0.0
C720 C 0.86345 0.11149 0.52737 0.0
C721 C 0.84719 0.10807 0.55223 0.0
C722 C 0.9321 0.12638 0.45408 0.0
C723 C 0.92254 0.15299 0.44041 0.0
C724 C 0.91624 0.12229 0.47898 0.0
C725 C 0.88972 0.14448 0.49064 0.0
C726 C 0.87924 0.17068 0.47643 0.0
C727 C 0.89581 0.175 0.4518 0.0
H728 H 0.79879 0.88836 0.04861 0.0
H729 H 0.92918 0.91786 0.06846 0.0
H730 H 0.81403 0.8989 1.00368 0.0
H731 H 0.94544 0.92705 0.02367 0.0
H732 H 0.95064 0.96927 0.94545 0.0
H733 H 0.93305 0.95942 0.98974 0.0
H734 H 0.85134 0.88345 0.96705 0.0
H735 H 0.86601 0.895 0.92248 0.0
C736 C 0.83084 0.8969 0.04328 0.0
C737 C 0.86262 0.90259 0.06205 0.0
C738 C 0.83978 0.90276 1.01749 0.0
C739 C 0.88104 0.91399 1.00978 0.0
C740 C 0.91295 0.91918 0.02871 0.0
C741 C 0.90374 0.91379 0.05446 0.0
C742 C 0.9283 0.95076 0.94975 0.0
C743 C 0.90963 0.93312 0.9301 0.0
C744 C 0.91875 0.94472 0.97537 0.0
C745 C 0.89081 0.92048 0.98228 0.0
C746 C 0.8725 0.90259 0.96264 0.0
C747 C 0.88157 0.90891 0.93695 0.0
H748 H 0.63577 0.66159 0.55225 0.0
H749 H 0.6717 0.56741 0.5631 0.0
H750 H 0.62133 0.65138 0.50733 0.0
H751 H 0.65482 0.55714 0.5184 0.0
H752 H 0.56299 0.54844 0.44703 0.0
H753 H 0.58292 0.55882 0.49117 0.0
H754 H 0.66468 0.63363 0.46669 0.0
H755 H 0.64687 0.62244 0.42226 0.0
C756 C 0.64121 0.6388 0.54514 0.0
C757 C 0.65509 0.61537 0.56159 0.0
C758 C 0.63257 0.63296 0.51935 0.0
C759 C 0.63675 0.60346 0.50941 0.0
C760 C 0.65084 0.58005 0.52564 0.0
C761 C 0.66029 0.58597 0.55132 0.0
C762 C 0.58586 0.56679 0.45082 0.0
C763 C 0.6034 0.58443 0.43076 0.0
C764 C 0.59707 0.5728 0.47623 0.0
C765 C 0.62543 0.59696 0.48235 0.0
C766 C 0.64248 0.61497 0.46251 0.0
C767 C 0.63194 0.60863 0.43703 0.0
H768 H 0.30584 0.66636 0.98442 0.0
H769 H 0.41555 0.60963 0.96458 0.0
H770 H 0.33057 0.66777 0.02856 0.0
H771 H 0.43903 0.60971 1.00899 0.0
H772 H 0.50021 0.65273 0.0806 0.0
H773 H 0.47223 0.64495 0.0377 0.0
H774 H 0.34056 0.64007 0.06746 0.0
H775 H 0.36853 0.64942 0.1104 0.0
C776 C 0.335 0.6539 0.98953 0.0
C777 C 0.35885 0.6381 0.97084 0.0
C778 C 0.34891 0.6544 1.01495 0.0
C779 C 0.387 0.639 0.02241 0.0
C780 C 0.40993 0.62223 1.0039 0.0
C781 C 0.39611 0.62184 0.97844 0.0
C782 C 0.46525 0.65016 0.07803 0.0
C783 C 0.43663 0.65209 0.09899 0.0
C784 C 0.4492 0.64524 0.0534 0.0
C785 C 0.40405 0.64193 0.049 0.0
C786 C 0.37547 0.64292 0.07006 0.0
C787 C 0.39156 0.64794 0.09475 0.0
H788 H 0.2116 0.85324 0.48399 0.0
H789 H 0.10527 0.91343 0.46518 0.0
H790 H 0.18767 0.85243 0.52836 0.0
H791 H 0.08263 0.91379 0.50973 0.0
H792 H 0.01882 0.87013 0.58043 0.0
H793 H 0.04751 0.87822 0.5377 0.0
H794 H 0.17899 0.88025 0.56783 0.0
H795 H 0.15015 0.87088 0.61068 0.0
C796 C 0.18345 0.86662 0.48937 0.0
C797 C 0.16018 0.88317 0.47089 0.0
C798 C 0.17 0.86644 0.51491 0.0
C799 C 0.13295 0.88284 0.52267 0.0
C800 C 0.11088 0.90048 0.5044 0.0
C801 C 0.12426 0.90061 0.47885 0.0
C802 C 0.05388 0.87223 0.57798 0.0
C803 C 0.08218 0.86949 0.59899 0.0
C804 C 0.07036 0.87729 0.55346 0.0
C805 C 0.11565 0.87987 0.54921 0.0
C806 C 0.14397 0.87804 0.57033 0.0
C807 C 0.12741 0.87298 0.59495 0.0
H808 H 0.21077 0.28744 0.39247 0.0
H809 H 0.12178 0.3453 0.3515 0.0
H810 H 0.18231 0.24311 0.36938 0.0
H811 H 0.09438 0.30152 0.32769 0.0
H812 H 0.0139 0.21574 0.3156 0.0
H813 H 0.04847 0.25949 0.33579 0.0
H814 H 0.17405 0.21532 0.33065 0.0
H815 H 0.13873 0.17066 0.31194 0.0
C816 C 0.186 0.29074 0.37798 0.0
C817 C 0.16832 0.31974 0.37385 0.0
C818 C 0.16957 0.26535 0.36473 0.0
C819 C 0.13534 0.2685 0.34691 0.0
C820 C 0.11975 0.29794 0.34175 0.0
C821 C 0.13579 0.32314 0.35518 0.0
C822 C 0.0488 0.21518 0.31905 0.0
C823 C 0.07346 0.18961 0.31217 0.0
C824 C 0.06887 0.24054 0.33029 0.0
C825 C 0.11433 0.24127 0.33471 0.0
C826 C 0.13899 0.21561 0.32782 0.0
C827 C 0.11877 0.19006 0.31683 0.0
H828 H 0.29879 0.23039 0.89154 0.0
H829 H 0.38606 0.17308 0.84869 0.0
H830 H 0.3269 0.27511 0.86876 0.0
H831 H 0.41324 0.21729 0.82536 0.0
H832 H 0.49462 0.30299 0.81474 0.0
H833 H 0.45987 0.25905 0.83455 0.0
H834 H 0.33441 0.30339 0.82972 0.0
H835 H 0.36989 0.34821 0.81124 0.0
C836 C 0.32311 0.2273 0.87674 0.0
C837 C 0.34047 0.19833 0.872 0.0
C838 C 0.33934 0.25291 0.86369 0.0
C839 C 0.37306 0.25 0.8455 0.0
C840 C 0.38826 0.22063 0.83972 0.0
C841 C 0.37238 0.1952 0.8529 0.0
C842 C 0.45972 0.30357 0.81821 0.0
C843 C 0.43512 0.32921 0.81148 0.0
C844 C 0.43956 0.2781 0.82922 0.0
C845 C 0.3941 0.27738 0.83358 0.0
C846 C 0.36948 0.30312 0.82688 0.0
C847 C 0.38978 0.32875 0.81605 0.0
H848 H 0.7018 0.24396 0.65409 0.0
H849 H 0.606 0.18459 0.68887 0.0
H850 H 0.67718 0.28598 0.68135 0.0
H851 H 0.58178 0.22628 0.71628 0.0
H852 H 0.56974 0.30399 0.77412 0.0
H853 H 0.60714 0.26268 0.75176 0.0
H854 H 0.60402 0.31477 0.68197 0.0
H855 H 0.5663 0.35587 0.70416 0.0
C856 C 0.67627 0.23975 0.66802 0.0
C857 C 0.65577 0.2111 0.66943 0.0
C858 C 0.66196 0.26379 0.68344 0.0
C859 C 0.62744 0.25943 0.70087 0.0
C860 C 0.60864 0.23029 0.7032 0.0
C861 C 0.62239 0.20646 0.68748 0.0
C862 C 0.57753 0.30676 0.75408 0.0
C863 C 0.56492 0.33313 0.74087 0.0
C864 C 0.59877 0.28308 0.74128 0.0
C865 C 0.60857 0.28552 0.71513 0.0
C866 C 0.59732 0.31236 0.70217 0.0
C867 C 0.57543 0.33579 0.71484 0.0
H868 H 0.90619 0.33383 0.18832 0.0
H869 H 0.81105 0.27475 0.15264 0.0
H870 H 0.93037 0.29181 0.21532 0.0
H871 H 0.8356 0.23237 0.17953 0.0
H872 H 0.94513 0.16194 0.20341 0.0
H873 H 0.90836 0.20317 0.1808 0.0
H874 H 0.90432 0.25561 0.25039 0.0
H875 H 0.94081 0.21432 0.2731 0.0
C876 C 0.88997 0.31192 0.18662 0.0
C877 C 0.85674 0.30749 0.16847 0.0
C878 C 0.90371 0.2879 0.20209 0.0
C879 C 0.88502 0.25876 0.19946 0.0
C880 C 0.85076 0.25455 0.18186 0.0
C881 C 0.83646 0.27879 0.16665 0.0
C882 C 0.936 0.18214 0.21394 0.0
C883 C 0.94593 0.18488 0.24004 0.0
C884 C 0.91466 0.20565 0.20103 0.0
C885 C 0.90343 0.23261 0.21383 0.0
C886 C 0.9127 0.23514 0.24002 0.0
C887 C 0.93342 0.21144 0.25303 0.0
H888 H 0.76187 0.72398 0.69845 0.0
H889 H 0.79297 0.76543 0.62612 0.0
H890 H 0.8204 0.75364 0.71885 0.0
H891 H 0.85238 0.79426 0.64599 0.0
H892 H 0.90656 0.87182 0.69551 0.0
H893 H 0.85669 0.83697 0.67377 0.0
H894 H 0.8976 0.76408 0.72354 0.0
H895 H 0.94716 0.79936 0.74546 0.0
C896 C 0.78226 0.7387 0.68682 0.0
C897 C 0.77325 0.74237 0.66076 0.0
C898 C 0.81574 0.75576 0.69844 0.0
C899 C 0.84089 0.77671 0.68415 0.0
C900 C 0.83317 0.77892 0.65774 0.0
C901 C 0.79955 0.76213 0.64625 0.0
C902 C 0.90521 0.84827 0.70159 0.0
C903 C 0.93029 0.83836 0.72235 0.0
C904 C 0.87672 0.82819 0.68909 0.0
C905 C 0.87297 0.79757 0.69685 0.0
C906 C 0.89911 0.78753 0.71724 0.0
C907 C 0.92754 0.8077 0.72978 0.0
H908 H 0.71654 0.7538 0.1259 0.0
H909 H 0.7532 0.79327 0.19812 0.0
H910 H 0.65766 0.72529 0.14662 0.0
H911 H 0.69505 0.76394 0.21932 0.0
H912 H 0.56772 0.71886 0.24727 0.0
H913 H 0.61723 0.75416 0.22524 0.0
H914 H 0.65521 0.68188 0.17404 0.0
H915 H 0.60573 0.64698 0.19598 0.0
C916 C 0.71128 0.75678 0.1462 0.0
C917 C 0.73904 0.77585 0.16042 0.0
C918 C 0.67795 0.74017 0.15816 0.0
C919 C 0.67195 0.74186 0.18475 0.0
C920 C 0.69844 0.76222 0.1988 0.0
C921 C 0.73168 0.77909 0.18672 0.0
C922 C 0.5868 0.71063 0.23132 0.0
C923 C 0.58332 0.68012 0.22354 0.0
C924 C 0.61515 0.73082 0.21869 0.0
C925 C 0.64031 0.72097 0.1978 0.0
C926 C 0.63591 0.69051 0.18975 0.0
C927 C 0.60764 0.6704 0.20238 0.0
H928 H 0.31623 0.78465 0.38162 0.0
H929 H 0.22688 0.74579 0.32666 0.0
H930 H 0.37762 0.76053 0.35951 0.0
H931 H 0.28755 0.72126 0.305 0.0
H932 H 0.40645 0.69646 0.25999 0.0
H933 H 0.35257 0.72953 0.2796 0.0
H934 H 0.40422 0.70817 0.35412 0.0
H935 H 0.45879 0.67537 0.3345 0.0
C936 C 0.30983 0.77141 0.36458 0.0
C937 C 0.26675 0.76697 0.35594 0.0
C938 C 0.34487 0.75731 0.35208 0.0
C939 C 0.33754 0.73877 0.33056 0.0
C940 C 0.29457 0.73556 0.32134 0.0
C941 C 0.25969 0.74945 0.33387 0.0
C942 C 0.4067 0.69894 0.28055 0.0
C943 C 0.43681 0.68289 0.29564 0.0
C944 C 0.37561 0.71788 0.29181 0.0
C945 C 0.37375 0.72135 0.31846 0.0
C946 C 0.40493 0.70626 0.33352 0.0
C947 C 0.43608 0.68726 0.32225 0.0
H948 H 0.28262 0.7704 0.82545 0.0
H949 H 0.19381 0.73381 0.88183 0.0
H950 H 0.22193 0.79468 0.8037 0.0
H951 H 0.13232 0.75765 0.85961 0.0
H952 H 0.10343 0.82064 0.75944 0.0
H953 H 0.15646 0.78692 0.779 0.0
H954 H 0.10661 0.80994 0.85363 0.0
H955 H 0.05279 0.8433 0.83405 0.0
C956 C 0.24988 0.76713 0.83292 0.0
C957 C 0.24299 0.7504 0.85544 0.0
C958 C 0.21498 0.78087 0.82035 0.0
C959 C 0.17217 0.77829 0.82995 0.0
C960 C 0.16496 0.76039 0.85188 0.0
C961 C 0.20003 0.74645 0.86444 0.0
C962 C 0.10339 0.81838 0.78002 0.0
C963 C 0.07403 0.83505 0.79515 0.0
C964 C 0.13398 0.79906 0.79125 0.0
C965 C 0.13613 0.79588 0.81792 0.0
C966 C 0.10564 0.81159 0.83302 0.0
C967 C 0.07493 0.83093 0.82177 0.0
loop_
_geom_bond_atom_site_label_1
_geom_bond_atom_site_label_2
_geom_bond_distance
_geom_bond_site_symmetry_2
_ccdc_geom_bond_type
H0 C1 0.949 . S
C1 H0 0.949 . S
C1 C2 1.395 . S
C1 C3 1.391 . S
C2 C1 1.395 . S
C2 C5 1.390 . S
C3 C1 1.391 . S
C3 C7 1.387 . S
C3 C8 1.491 . S
H4 C5 0.950 . S
C5 C2 1.390 . S
C5 H4 0.950 . S
C5 C6 1.378 . S
C6 C5 1.378 . S
C6 C7 1.409 . S
C7 C3 1.387 . S
C7 C6 1.409 . S
C7 H9 0.951 . S
C8 C3 1.491 . S
C8 C10 1.382 . S
C8 C12 1.404 . S
H9 C7 0.951 . S
C10 C8 1.382 . S
C10 C11 1.390 . S
C10 H15 0.949 . S
C11 C10 1.390 . S
C11 C16 1.399 . S
C12 C8 1.404 . S
C12 H13 0.950 . S
C12 C14 1.375 . S
H13 C12 0.950 . S
C14 C12 1.375 . S
C14 C16 1.382 . S
C14 H18 0.950 . S
H15 C10 0.949 . S
C16 C11 1.399 . S
C16 C14 1.382 . S
C16 H17 0.952 . S
H17 C16 0.952 . S
H18 C14 0.950 . S
H19 C20 0.949 . S
C20 H19 0.949 . S
C20 C21 1.395 . S
C20 C22 1.391 . S
C21 C20 1.395 . S
C21 C24 1.390 . S
C22 C20 1.391 . S
C22 C26 1.387 . S
C22 C27 1.491 . S
H23 C24 0.950 . S
C24 C21 1.390 . S
C24 H23 0.950 . S
C24 C25 1.378 . S
C25 C24 1.378 . S
C25 C26 1.409 . S
C26 C22 1.387 . S
C26 C25 1.409 . S
C26 H28 0.951 . S
C27 C22 1.491 . S
C27 C29 1.382 . S
C27 C31 1.404 . S
H28 C26 0.951 . S
C29 C27 1.382 . S
C29 C30 1.390 . S
C29 H34 0.949 . S
C30 C29 1.390 . S
C30 C35 1.399 . S
C31 C27 1.404 . S
C31 H32 0.950 . S
C31 C33 1.375 . S
H32 C31 0.950 . S
C33 C31 1.375 . S
C33 C35 1.382 . S
C33 H37 0.950 . S
H34 C29 0.949 . S
C35 C30 1.399 . S
C35 C33 1.382 . S
C35 H36 0.952 . S
H36 C35 0.952 . S
H37 C33 0.950 . S
H38 C39 0.949 . S
C39 H38 0.949 . S
C39 C40 1.395 . S
C39 C41 1.391 . S
C40 C39 1.395 . S
C40 C43 1.390 . S
C41 C39 1.391 . S
C41 C45 1.387 . S
C41 C46 1.491 . S
H42 C43 0.950 . S
C43 C40 1.390 . S
C43 H42 0.950 . S
C43 C44 1.378 . S
C44 C43 1.378 . S
C44 C45 1.409 . S
C45 C41 1.387 . S
C45 C44 1.409 . S
C45 H47 0.951 . S
C46 C41 1.491 . S
C46 C48 1.382 . S
C46 C50 1.404 . S
H47 C45 0.951 . S
C48 C46 1.382 . S
C48 C49 1.390 . S
C48 H53 0.949 . S
C49 C48 1.390 . S
C49 C54 1.399 . S
C50 C46 1.404 . S
C50 H51 0.950 . S
C50 C52 1.375 . S
H51 C50 0.950 . S
C52 C50 1.375 . S
C52 C54 1.382 . S
C52 H56 0.950 . S
H53 C48 0.949 . S
C54 C49 1.399 . S
C54 C52 1.382 . S
C54 H55 0.952 . S
H55 C54 0.952 . S
H56 C52 0.950 . S
H57 C58 0.949 . S
C58 H57 0.949 . S
C58 C59 1.395 . S
C58 C60 1.391 . S
C59 C58 1.395 . S
C59 C62 1.390 . S
C60 C58 1.391 . S
C60 C64 1.387 . S
C60 C65 1.491 . S
H61 C62 0.950 . S
C62 C59 1.390 . S
C62 H61 0.950 . S
C62 C63 1.378 . S
C63 C62 1.378 . S
C63 C64 1.409 . S
C64 C60 1.387 . S
C64 C63 1.409 . S
C64 H66 0.951 . S
C65 C60 1.491 . S
C65 C67 1.382 . S
C65 C69 1.404 . S
H66 C64 0.951 . S
C67 C65 1.382 . S
C67 C68 1.390 . S
C67 H72 0.949 . S
C68 C67 1.390 . S
C68 C73 1.399 . S
C69 C65 1.404 . S
C69 H70 0.950 . S
C69 C71 1.375 . S
H70 C69 0.950 . S
C71 C69 1.375 . S
C71 C73 1.382 . S
C71 H75 0.950 . S
H72 C67 0.949 . S
C73 C68 1.399 . S
C73 C71 1.382 . S
C73 H74 0.952 . S
H74 C73 0.952 . S
H75 C71 0.950 . S
H76 C77 0.949 . S
C77 H76 0.949 . S
C77 C78 1.395 . S
C77 C79 1.391 . S
C78 C77 1.395 . S
C78 C81 1.390 . S
C79 C77 1.391 . S
C79 C83 1.387 . S
C79 C84 1.491 . S
H80 C81 0.950 . S
C81 C78 1.390 . S
C81 H80 0.950 . S
C81 C82 1.378 . S
C82 C81 1.378 . S
C82 C83 1.409 . S
C83 C79 1.387 . S
C83 C82 1.409 . S
C83 H85 0.951 . S
C84 C79 1.491 . S
C84 C86 1.382 . S
C84 C88 1.404 . S
H85 C83 0.951 . S
C86 C84 1.382 . S
C86 C87 1.390 . S
C86 H91 0.949 . S
C87 C86 1.390 . S
C87 C92 1.399 . S
C88 C84 1.404 . S
C88 H89 0.950 . S
C88 C90 1.375 . S
H89 C88 0.950 . S
C90 C88 1.375 . S
C90 C92 1.382 . S
C90 H94 0.950 . S
H91 C86 0.949 . S
C92 C87 1.399 . S
C92 C90 1.382 . S
C92 H93 0.952 . S
H93 C92 0.952 . S
H94 C90 0.950 . S
H95 C96 0.949 . S
C96 H95 0.949 . S
C96 C97 1.395 . S
C96 C98 1.391 . S
C97 C96 1.395 . S
C97 C100 1.390 . S
C98 C96 1.391 . S
C98 C102 1.387 . S
C98 C103 1.491 . S
H99 C100 0.950 . S
C100 C97 1.390 . S
C100 H99 0.950 . S
C100 C101 1.378 . S
C101 C100 1.378 . S
C101 C102 1.409 . S
C102 C98 1.387 . S
C102 C101 1.409 . S
C102 H104 0.951 . S
C103 C98 1.491 . S
C103 C105 1.382 . S
C103 C107 1.404 . S
H104 C102 0.951 . S
C105 C103 1.382 . S
C105 C106 1.390 . S
C105 H110 0.949 . S
C106 C105 1.390 . S
C106 C111 1.399 . S
C107 C103 1.404 . S
C107 H108 0.950 . S
C107 C109 1.375 . S
H108 C107 0.950 . S
C109 C107 1.375 . S
C109 C111 1.382 . S
C109 H113 0.950 . S
H110 C105 0.949 . S
C111 C106 1.399 . S
C111 C109 1.382 . S
C111 H112 0.952 . S
H112 C111 0.952 . S
H113 C109 0.950 . S
H114 C115 0.949 . S
C115 H114 0.949 . S
C115 C116 1.395 . S
C115 C117 1.391 . S
C116 C115 1.395 . S
C116 C119 1.390 . S
C117 C115 1.391 . S
C117 C121 1.387 . S
C117 C122 1.491 . S
H118 C119 0.950 . S
C119 C116 1.390 . S
C119 H118 0.950 . S
C119 C120 1.378 . S
C120 C119 1.378 . S
C120 C121 1.409 . S
C121 C117 1.387 . S
C121 C120 1.409 . S
C121 H123 0.951 . S
C122 C117 1.491 . S
C122 C124 1.382 . S
C122 C126 1.404 . S
H123 C121 0.951 . S
C124 C122 1.382 . S
C124 C125 1.390 . S
C124 H129 0.949 . S
C125 C124 1.390 . S
C125 C130 1.399 . S
C126 C122 1.404 . S
C126 H127 0.950 . S
C126 C128 1.375 . S
H127 C126 0.950 . S
C128 C126 1.375 . S
C128 C130 1.382 . S
C128 H132 0.950 . S
H129 C124 0.949 . S
C130 C125 1.399 . S
C130 C128 1.382 . S
C130 H131 0.952 . S
H131 C130 0.952 . S
H132 C128 0.950 . S
H133 C134 0.949 . S
C134 H133 0.949 . S
C134 C135 1.395 . S
C134 C136 1.391 . S
C135 C134 1.395 . S
C135 C138 1.390 . S
C136 C134 1.391 . S
C136 C140 1.387 . S
C136 C141 1.491 . S
H137 C138 0.950 . S
C138 C135 1.390 . S
C138 H137 0.950 . S
C138 C139 1.378 . S
C139 C138 1.378 . S
C139 C140 1.409 . S
C140 C136 1.387 . S
C140 C139 1.409 . S
C140 H142 0.951 . S
C141 C136 1.491 . S
C141 C143 1.382 . S
C141 C145 1.404 . S
H142 C140 0.951 . S
C143 C141 1.382 . S
C143 C144 1.390 . S
C143 H148 0.949 . S
C144 C143 1.390 . S
C144 C149 1.399 . S
C145 C141 1.404 . S
C145 H146 0.950 . S
C145 C147 1.375 . S
H146 C145 0.950 . S
C147 C145 1.375 . S
C147 C149 1.382 . S
C147 H151 0.950 . S
H148 C143 0.949 . S
C149 C144 1.399 . S
C149 C147 1.382 . S
C149 H150 0.952 . S
H150 C149 0.952 . S
H151 C147 0.950 . S
C152 C154 1.422 . S
C152 C156 1.415 . S
C152 N158 1.369 . S
C153 C154 1.421 . S
C153 C155 1.417 . S
C153 C165 1.422 1_545 S
C154 C152 1.422 . S
C154 C153 1.421 . S
C154 N164 1.359 . S
C155 C153 1.417 . S
C155 C157 1.329 . S
C155 H174 0.930 1_545 S
C156 C152 1.415 . S
C156 C157 1.437 . S
C156 C160 1.413 . S
C157 C155 1.329 . S
C157 C156 1.437 . S
C157 H179 0.929 . S
N158 C152 1.369 . S
N158 C159 1.338 . S
N158 Gd163 2.622 . S
C159 N158 1.338 . S
C159 C161 1.378 . S
C159 H171 0.929 . S
C160 C156 1.413 . S
C160 C161 1.348 . S
C160 H176 0.931 . S
C161 C159 1.378 . S
C161 C160 1.348 . S
C161 H177 0.930 . S
Gd162 N182 2.622 . S
Gd162 N189 2.570 . S
Gd162 O196 2.333 1_455 S
Gd162 O197 2.468 . S
Gd162 O198 2.427 . S
Gd162 O200 2.388 . S
Gd162 O201 2.386 . S
Gd162 O205 2.307 1_455 S
Gd162 C215 2.805 . S
Gd163 N158 2.622 . S
Gd163 N164 2.570 . S
Gd163 O195 2.386 . S
Gd163 O199 2.307 1_655 S
Gd163 O202 2.353 1_655 S
Gd163 O203 2.468 . S
Gd163 O204 2.427 . S
Gd163 O206 2.388 . S
Gd163 C227 2.805 . S
N164 C154 1.359 . S
N164 Gd163 2.570 . S
N164 C166 1.343 . S
C165 C153 1.422 1_565 S
C165 C167 1.321 . S
C165 H173 0.931 . S
C166 N164 1.343 . S
C166 C167 1.390 1_545 S
C166 H168 0.931 . S
C167 C165 1.321 . S
C167 C166 1.390 1_565 S
C167 H169 0.930 . S
H168 C166 0.931 . S
H169 C167 0.930 . S
H170 C193 0.931 . S
H171 C159 0.929 . S
H172 C194 0.930 . S
H173 C165 0.931 . S
H174 C155 0.930 1_565 S
H175 C184 0.929 . S
H176 C160 0.931 . S
H177 C161 0.930 . S
H178 C216 0.930 . S
H179 C157 0.929 . S
H180 C185 0.931 . S
H181 C186 0.930 . S
N182 Gd162 2.622 . S
N182 C183 1.369 . S
N182 C184 1.338 . S
C183 N182 1.369 . S
C183 C187 1.415 . S
C183 C190 1.422 . S
C184 H175 0.929 . S
C184 N182 1.338 . S
C184 C186 1.378 . S
C185 H180 0.931 . S
C185 C186 1.348 . S
C185 C187 1.413 . S
C186 H181 0.930 . S
C186 C184 1.378 . S
C186 C185 1.348 . S
C187 C183 1.415 . S
C187 C185 1.413 . S
C187 C217 1.437 . S
H188 C217 0.929 . S
N189 Gd162 2.570 . S
N189 C190 1.359 . S
N189 C193 1.343 . S
C190 C183 1.422 . S
C190 N189 1.359 . S
C190 C192 1.421 . S
C191 C192 1.422 . S
C191 C194 1.321 . S
C191 H218 0.931 . S
C192 C190 1.421 . S
C192 C191 1.422 . S
C192 C216 1.417 . S
C193 H170 0.931 . S
C193 N189 1.343 . S
C193 C194 1.390 . S
C194 H172 0.930 . S
C194 C191 1.321 . S
C194 C193 1.390 . S
O195 Gd163 2.386 . S
O195 C207 1.265 . S
O196 Gd162 2.333 1_655 S
O196 C207 1.267 . S
O197 Gd162 2.468 . S
O197 C215 1.263 . S
O198 Gd162 2.427 . S
O198 C215 1.252 . S
O199 Gd163 2.307 1_455 S
O199 C208 1.261 . S
O200 Gd162 2.388 . S
O200 C208 1.252 . S
O201 Gd162 2.386 . S
O201 C219 1.265 . S
O202 Gd163 2.353 1_455 S
O202 C219 1.242 . S
O203 Gd163 2.468 . S
O203 C227 1.263 . S
O204 Gd163 2.427 . S
O204 C227 1.252 . S
O205 Gd162 2.307 1_655 S
O205 C220 1.261 . S
O206 Gd163 2.388 . S
O206 C220 1.252 . S
C207 O195 1.265 . S
C207 O196 1.267 . S
C208 O199 1.261 . S
C208 O200 1.252 . S
C209 C212 1.394 . S
C209 C214 1.370 . S
C209 C215 1.500 . S
C210 C213 1.383 . S
C210 C214 1.395 . S
C211 C212 1.396 . S
C211 C213 1.365 . S
C211 H228 0.929 . S
C212 C209 1.394 . S
C212 C211 1.396 . S
C212 H229 0.930 . S
C213 C210 1.383 . S
C213 C211 1.365 . S
C213 H230 0.931 . S
C214 C209 1.370 . S
C214 C210 1.395 . S
C214 H231 0.930 . S
C215 Gd162 2.805 . S
C215 O197 1.263 . S
C215 O198 1.252 . S
C215 C209 1.500 . S
C216 H178 0.930 . S
C216 C192 1.417 . S
C216 C217 1.329 . S
C217 C187 1.437 . S
C217 H188 0.929 . S
C217 C216 1.329 . S
H218 C191 0.931 . S
C219 O201 1.265 . S
C219 O202 1.242 . S
C220 O205 1.261 . S
C220 O206 1.252 . S
C221 C224 1.394 . S
C221 C226 1.370 . S
C221 C227 1.500 . S
C222 C225 1.383 . S
C222 C226 1.395 . S
C223 C224 1.396 . S
C223 C225 1.365 . S
C223 H232 0.929 . S
C224 C221 1.394 . S
C224 C223 1.396 . S
C224 H233 0.930 . S
C225 C222 1.383 . S
C225 C223 1.365 . S
C225 H234 0.931 . S
C226 C221 1.370 . S
C226 C222 1.395 . S
C226 H235 0.930 . S
C227 Gd163 2.805 . S
C227 O203 1.263 . S
C227 O204 1.252 . S
C227 C221 1.500 . S
H228 C211 0.929 . S
H229 C212 0.930 . S
H230 C213 0.931 . S
H231 C214 0.930 . S
H232 C223 0.929 . S
H233 C224 0.930 . S
H234 C225 0.931 . S
H235 C226 0.930 . S
C236 C238 1.422 . S
C236 C240 1.415 . S
C236 N242 1.369 . S
C237 C238 1.421 . S
C237 C239 1.417 . S
C237 C249 1.422 . S
C238 C236 1.422 . S
C238 C237 1.421 . S
C238 N248 1.359 . S
C239 C237 1.417 . S
C239 C241 1.329 . S
C239 H258 0.930 . S
C240 C236 1.415 . S
C240 C241 1.437 . S
C240 C244 1.413 . S
C241 C239 1.329 . S
C241 C240 1.437 . S
C241 H263 0.929 . S
N242 C236 1.369 . S
N242 C243 1.338 . S
N242 Gd247 2.622 . S
C243 N242 1.338 . S
C243 C245 1.378 . S
C243 H255 0.929 . S
C244 C240 1.413 . S
C244 C245 1.348 . S
C244 H260 0.931 . S
C245 C243 1.378 . S
C245 C244 1.348 . S
C245 H261 0.930 . S
Gd246 N266 2.622 . S
Gd246 N273 2.570 . S
Gd246 O280 2.353 . S
Gd246 O281 2.468 . S
Gd246 O282 2.427 . S
Gd246 O284 2.388 . S
Gd246 O285 2.386 . S
Gd246 O289 2.307 . S
Gd246 C299 2.805 . S
Gd247 N242 2.622 . S
Gd247 N248 2.570 . S
Gd247 O279 2.386 . S
Gd247 O283 2.307 . S
Gd247 O286 2.353 . S
Gd247 O287 2.468 . S
Gd247 O288 2.427 . S
Gd247 O290 2.388 . S
Gd247 C311 2.805 . S
N248 C238 1.359 . S
N248 Gd247 2.570 . S
N248 C250 1.343 . S
C249 C237 1.422 . S
C249 C251 1.321 . S
C249 H257 0.931 . S
C250 N248 1.343 . S
C250 C251 1.390 . S
C250 H252 0.931 . S
C251 C249 1.321 . S
C251 C250 1.390 . S
C251 H253 0.930 . S
H252 C250 0.931 . S
H253 C251 0.930 . S
H254 C277 0.931 . S
H255 C243 0.929 . S
H256 C278 0.930 . S
H257 C249 0.931 . S
H258 C239 0.930 . S
H259 C268 0.929 . S
H260 C244 0.931 . S
H261 C245 0.930 . S
H262 C300 0.930 . S
H263 C241 0.929 . S
H264 C269 0.931 . S
H265 C270 0.930 . S
N266 Gd246 2.622 . S
N266 C267 1.369 . S
N266 C268 1.338 . S
C267 N266 1.369 . S
C267 C271 1.415 . S
C267 C274 1.422 . S
C268 H259 0.929 . S
C268 N266 1.338 . S
C268 C270 1.378 . S
C269 H264 0.931 . S
C269 C270 1.348 . S
C269 C271 1.413 . S
C270 H265 0.930 . S
C270 C268 1.378 . S
C270 C269 1.348 . S
C271 C267 1.415 . S
C271 C269 1.413 . S
C271 C301 1.437 . S
H272 C301 0.929 . S
N273 Gd246 2.570 . S
N273 C274 1.359 . S
N273 C277 1.343 . S
C274 C267 1.422 . S
C274 N273 1.359 . S
C274 C276 1.421 . S
C275 C276 1.422 . S
C275 C278 1.321 . S
C275 H302 0.931 . S
C276 C274 1.421 . S
C276 C275 1.422 . S
C276 C300 1.417 . S
C277 H254 0.931 . S
C277 N273 1.343 . S
C277 C278 1.390 . S
C278 H256 0.930 . S
C278 C275 1.321 . S
C278 C277 1.390 . S
O279 Gd247 2.386 . S
O279 C291 1.265 . S
O280 Gd246 2.353 . S
O280 C291 1.242 . S
O281 Gd246 2.468 . S
O281 C299 1.263 . S
O282 Gd246 2.427 . S
O282 C299 1.252 . S
O283 Gd247 2.307 . S
O283 C292 1.261 . S
O284 Gd246 2.388 . S
O284 C292 1.252 . S
O285 Gd246 2.386 . S
O285 C303 1.265 . S
O286 Gd247 2.353 . S
O286 C303 1.242 . S
O287 Gd247 2.468 . S
O287 C311 1.263 . S
O288 Gd247 2.427 . S
O288 C311 1.252 . S
O289 Gd246 2.307 . S
O289 C304 1.261 . S
O290 Gd247 2.388 . S
O290 C304 1.252 . S
C291 O279 1.265 . S
C291 O280 1.242 . S
C292 O283 1.261 . S
C292 O284 1.252 . S
C293 C296 1.394 . S
C293 C298 1.370 . S
C293 C299 1.500 . S
C294 C297 1.383 . S
C294 C298 1.395 . S
C295 C296 1.396 . S
C295 C297 1.365 . S
C295 H312 0.929 . S
C296 C293 1.394 . S
C296 C295 1.396 . S
C296 H313 0.930 . S
C297 C294 1.383 . S
C297 C295 1.365 . S
C297 H314 0.931 . S
C298 C293 1.370 . S
C298 C294 1.395 . S
C298 H315 0.930 . S
C299 Gd246 2.805 . S
C299 O281 1.263 . S
C299 O282 1.252 . S
C299 C293 1.500 . S
C300 H262 0.930 . S
C300 C276 1.417 . S
C300 C301 1.329 . S
C301 C271 1.437 . S
C301 H272 0.929 . S
C301 C300 1.329 . S
H302 C275 0.931 . S
C303 O285 1.265 . S
C303 O286 1.242 . S
C304 O289 1.261 . S
C304 O290 1.252 . S
C305 C308 1.394 . S
C305 C310 1.370 . S
C305 C311 1.500 . S
C306 C309 1.383 . S
C306 C310 1.395 . S
C307 C308 1.396 . S
C307 C309 1.365 . S
C307 H316 0.929 . S
C308 C305 1.394 . S
C308 C307 1.396 . S
C308 H317 0.930 . S
C309 C306 1.383 . S
C309 C307 1.365 . S
C309 H318 0.931 . S
C310 C305 1.370 . S
C310 C306 1.395 . S
C310 H319 0.930 . S
C311 Gd247 2.805 . S
C311 O287 1.263 . S
C311 O288 1.252 . S
C311 C305 1.500 . S
H312 C295 0.929 . S
H313 C296 0.930 . S
H314 C297 0.931 . S
H315 C298 0.930 . S
H316 C307 0.929 . S
H317 C308 0.930 . S
H318 C309 0.931 . S
H319 C310 0.930 . S
C320 C322 1.422 . S
C320 C324 1.415 . S
C320 N326 1.369 . S
C321 C322 1.421 . S
C321 C323 1.417 . S
C321 C333 1.422 . S
C322 C320 1.422 . S
C322 C321 1.421 . S
C322 N332 1.359 . S
C323 C321 1.417 . S
C323 C325 1.329 . S
C323 H342 0.930 . S
C324 C320 1.415 . S
C324 C325 1.437 . S
C324 C328 1.413 . S
C325 C323 1.329 . S
C325 C324 1.437 . S
C325 H347 0.929 . S
N326 C320 1.369 . S
N326 C327 1.338 . S
N326 Gd331 2.622 . S
C327 N326 1.338 . S
C327 C329 1.378 . S
C327 H339 0.929 . S
C328 C324 1.413 . S
C328 C329 1.348 . S
C328 H344 0.931 . S
C329 C327 1.378 . S
C329 C328 1.348 . S
C329 H345 0.930 . S
Gd330 N350 2.622 . S
Gd330 N357 2.570 . S
Gd330 O364 2.353 . S
Gd330 O365 2.468 . S
Gd330 O366 2.427 . S
Gd330 O368 2.388 . S
Gd330 O369 2.386 . S
Gd330 O373 2.326 . S
Gd330 C383 2.805 . S
Gd331 N326 2.622 . S
Gd331 N332 2.570 . S
Gd331 O363 2.386 . S
Gd331 O367 2.307 1_655 S
Gd331 O370 2.353 1_655 S
Gd331 O371 2.468 . S
Gd331 O372 2.427 . S
Gd331 O374 2.388 . S
Gd331 C395 2.805 . S
N332 C322 1.359 . S
N332 Gd331 2.570 . S
N332 C334 1.343 . S
C333 C321 1.422 . S
C333 C335 1.321 . S
C333 H341 0.931 . S
C334 N332 1.343 . S
C334 C335 1.390 . S
C334 H336 0.931 . S
C335 C333 1.321 . S
C335 C334 1.390 . S
C335 H337 0.930 . S
H336 C334 0.931 . S
H337 C335 0.930 . S
H338 C361 0.931 . S
H339 C327 0.929 . S
H340 C362 0.930 . S
H341 C333 0.931 . S
H342 C323 0.930 . S
H343 C352 0.929 . S
H344 C328 0.931 . S
H345 C329 0.930 . S
H346 C384 0.930 1_545 S
H347 C325 0.929 . S
H348 C353 0.931 . S
H349 C354 0.930 . S
N350 Gd330 2.622 . S
N350 C351 1.369 . S
N350 C352 1.338 . S
C351 N350 1.369 . S
C351 C355 1.415 . S
C351 C358 1.422 . S
C352 H343 0.929 . S
C352 N350 1.338 . S
C352 C354 1.378 . S
C353 H348 0.931 . S
C353 C354 1.348 . S
C353 C355 1.413 . S
C354 H349 0.930 . S
C354 C352 1.378 . S
C354 C353 1.348 . S
C355 C351 1.415 . S
C355 C353 1.413 . S
C355 C385 1.437 . S
H356 C385 0.929 . S
N357 Gd330 2.570 . S
N357 C358 1.359 . S
N357 C361 1.343 . S
C358 C351 1.422 . S
C358 N357 1.359 . S
C358 C360 1.421 . S
C359 C360 1.422 1_545 S
C359 C362 1.321 . S
C359 H386 0.931 . S
C360 C358 1.421 . S
C360 C359 1.422 1_565 S
C360 C384 1.417 . S
C361 H338 0.931 . S
C361 N357 1.343 . S
C361 C362 1.390 1_565 S
C362 H340 0.930 . S
C362 C359 1.321 . S
C362 C361 1.390 1_545 S
O363 Gd331 2.386 . S
O363 C375 1.265 . S
O364 Gd330 2.353 . S
O364 C375 1.242 1_455 S
O365 Gd330 2.468 . S
O365 C383 1.263 . S
O366 Gd330 2.427 . S
O366 C383 1.252 . S
O367 Gd331 2.307 1_455 S
O367 C376 1.261 . S
O368 Gd330 2.388 . S
O368 C376 1.252 . S
O369 Gd330 2.386 . S
O369 C387 1.265 . S
O370 Gd331 2.353 1_455 S
O370 C387 1.242 . S
O371 Gd331 2.468 . S
O371 C395 1.263 . S
O372 Gd331 2.427 . S
O372 C395 1.252 . S
O373 Gd330 2.326 . S
O373 C388 1.239 1_455 S
O374 Gd331 2.388 . S
O374 C388 1.252 . S
C375 O363 1.265 . S
C375 O364 1.242 1_655 S
C376 O367 1.261 . S
C376 O368 1.252 . S
C377 C380 1.394 . S
C377 C382 1.370 . S
C377 C383 1.500 . S
C378 C381 1.383 . S
C378 C382 1.395 . S
C379 C380 1.396 . S
C379 C381 1.365 . S
C379 H396 0.929 . S
C380 C377 1.394 . S
C380 C379 1.396 . S
C380 H397 0.930 . S
C381 C378 1.383 . S
C381 C379 1.365 . S
C381 H398 0.931 . S
C382 C377 1.370 . S
C382 C378 1.395 . S
C382 H399 0.930 . S
C383 Gd330 2.805 . S
C383 O365 1.263 . S
C383 O366 1.252 . S
C383 C377 1.500 . S
C384 H346 0.930 1_565 S
C384 C360 1.417 . S
C384 C385 1.329 . S
C385 C355 1.437 . S
C385 H356 0.929 . S
C385 C384 1.329 . S
H386 C359 0.931 . S
C387 O369 1.265 . S
C387 O370 1.242 . S
C388 O373 1.239 1_655 S
C388 O374 1.252 . S
C389 C392 1.394 . S
C389 C394 1.370 . S
C389 C395 1.500 . S
C390 C393 1.383 . S
C390 C394 1.395 . S
C391 C392 1.396 . S
C391 C393 1.365 . S
C391 H400 0.929 . S
C392 C389 1.394 . S
C392 C391 1.396 . S
C392 H401 0.930 . S
C393 C390 1.383 . S
C393 C391 1.365 . S
C393 H402 0.931 . S
C394 C389 1.370 . S
C394 C390 1.395 . S
C394 H403 0.930 . S
C395 Gd331 2.805 . S
C395 O371 1.263 . S
C395 O372 1.252 . S
C395 C389 1.500 . S
H396 C379 0.929 . S
H397 C380 0.930 . S
H398 C381 0.931 . S
H399 C382 0.930 . S
H400 C391 0.929 . S
H401 C392 0.930 . S
H402 C393 0.931 . S
H403 C394 0.930 . S
C404 C406 1.422 . S
C404 C408 1.415 . S
C404 N410 1.369 . S
C405 C406 1.421 . S
C405 C407 1.417 . S
C405 C417 1.422 . S
C406 C404 1.422 . S
C406 C405 1.421 . S
C406 N416 1.359 . S
C407 C405 1.417 . S
C407 C409 1.329 . S
C407 H426 0.930 . S
C408 C404 1.415 . S
C408 C409 1.437 . S
C408 C412 1.413 . S
C409 C407 1.329 . S
C409 C408 1.437 . S
C409 H431 0.929 . S
N410 C404 1.369 . S
N410 C411 1.338 . S
N410 Gd415 2.622 . S
C411 N410 1.338 . S
C411 C413 1.378 . S
C411 H423 0.929 . S
C412 C408 1.413 . S
C412 C413 1.348 . S
C412 H428 0.931 . S
C413 C411 1.378 . S
C413 C412 1.348 . S
C413 H429 0.930 . S
Gd414 N434 2.622 . S
Gd414 N441 2.570 . S
Gd414 O448 2.353 . S
Gd414 O449 2.468 . S
Gd414 O450 2.427 . S
Gd414 O452 2.388 . S
Gd414 O453 2.386 . S
Gd414 O457 2.307 . S
Gd414 C467 2.805 . S
Gd415 N410 2.622 . S
Gd415 N416 2.570 . S
Gd415 O447 2.386 . S
Gd415 O451 2.307 . S
Gd415 O454 2.353 . S
Gd415 O455 2.468 . S
Gd415 O456 2.427 . S
Gd415 O458 2.388 . S
Gd415 C479 2.805 . S
N416 C406 1.359 . S
N416 Gd415 2.570 . S
N416 C418 1.343 . S
C417 C405 1.422 . S
C417 C419 1.321 . S
C417 H425 0.931 . S
C418 N416 1.343 . S
C418 C419 1.390 . S
C418 H420 0.931 . S
C419 C417 1.321 . S
C419 C418 1.390 . S
C419 H421 0.930 . S
H420 C418 0.931 . S
H421 C419 0.930 . S
H422 C445 0.931 . S
H423 C411 0.929 . S
H424 C446 0.930 . S
H425 C417 0.931 . S
H426 C407 0.930 . S
H427 C436 0.929 . S
H428 C412 0.931 . S
H429 C413 0.930 . S
H430 C468 0.930 . S
H431 C409 0.929 . S
H432 C437 0.931 . S
H433 C438 0.930 . S
N434 Gd414 2.622 . S
N434 C435 1.369 . S
N434 C436 1.338 . S
C435 N434 1.369 . S
C435 C439 1.415 . S
C435 C442 1.422 . S
C436 H427 0.929 . S
C436 N434 1.338 . S
C436 C438 1.378 . S
C437 H432 0.931 . S
C437 C438 1.348 . S
C437 C439 1.413 . S
C438 H433 0.930 . S
C438 C436 1.378 . S
C438 C437 1.348 . S
C439 C435 1.415 . S
C439 C437 1.413 . S
C439 C469 1.437 . S
H440 C469 0.929 . S
N441 Gd414 2.570 . S
N441 C442 1.359 . S
N441 C445 1.343 . S
C442 C435 1.422 . S
C442 N441 1.359 . S
C442 C444 1.421 . S
C443 C444 1.422 . S
C443 C446 1.321 . S
C443 H470 0.931 . S
C444 C442 1.421 . S
C444 C443 1.422 . S
C444 C468 1.417 . S
C445 H422 0.931 . S
C445 N441 1.343 . S
C445 C446 1.390 . S
C446 H424 0.930 . S
C446 C443 1.321 . S
C446 C445 1.390 . S
O447 Gd415 2.386 . S
O447 C459 1.265 . S
O448 Gd414 2.353 . S
O448 C459 1.242 . S
O449 Gd414 2.468 . S
O449 C467 1.263 . S
O450 Gd414 2.427 . S
O450 C467 1.252 . S
O451 Gd415 2.307 . S
O451 C460 1.261 . S
O452 Gd414 2.388 . S
O452 C460 1.252 . S
O453 Gd414 2.386 . S
O453 C471 1.265 . S
O454 Gd415 2.353 . S
O454 C471 1.242 . S
O455 Gd415 2.468 . S
O455 C479 1.263 . S
O456 Gd415 2.427 . S
O456 C479 1.252 . S
O457 Gd414 2.307 . S
O457 C472 1.261 . S
O458 Gd415 2.388 . S
O458 C472 1.252 . S
C459 O447 1.265 . S
C459 O448 1.242 . S
C460 O451 1.261 . S
C460 O452 1.252 . S
C461 C464 1.394 . S
C461 C466 1.370 . S
C461 C467 1.500 . S
C462 C465 1.383 . S
C462 C466 1.395 . S
C463 C464 1.396 . S
C463 C465 1.365 . S
C463 H480 0.929 . S
C464 C461 1.394 . S
C464 C463 1.396 . S
C464 H481 0.930 . S
C465 C462 1.383 . S
C465 C463 1.365 . S
C465 H482 0.931 . S
C466 C461 1.370 . S
C466 C462 1.395 . S
C466 H483 0.930 . S
C467 Gd414 2.805 . S
C467 O449 1.263 . S
C467 O450 1.252 . S
C467 C461 1.500 . S
C468 H430 0.930 . S
C468 C444 1.417 . S
C468 C469 1.329 . S
C469 C439 1.437 . S
C469 H440 0.929 . S
C469 C468 1.329 . S
H470 C443 0.931 . S
C471 O453 1.265 . S
C471 O454 1.242 . S
C472 O457 1.261 . S
C472 O458 1.252 . S
C473 C476 1.394 . S
C473 C478 1.370 . S
C473 C479 1.500 . S
C474 C477 1.383 . S
C474 C478 1.395 . S
C475 C476 1.396 . S
C475 C477 1.365 . S
C475 H484 0.929 . S
C476 C473 1.394 . S
C476 C475 1.396 . S
C476 H485 0.930 . S
C477 C474 1.383 . S
C477 C475 1.365 . S
C477 H486 0.931 . S
C478 C473 1.370 . S
C478 C474 1.395 . S
C478 H487 0.930 . S
C479 Gd415 2.805 . S
C479 O455 1.263 . S
C479 O456 1.252 . S
C479 C473 1.500 . S
H480 C463 0.929 . S
H481 C464 0.930 . S
H482 C465 0.931 . S
H483 C466 0.930 . S
H484 C475 0.929 . S
H485 C476 0.930 . S
H486 C477 0.931 . S
H487 C478 0.930 . S
H488 C496 0.950 . S
H489 C501 0.950 . S
H490 C498 0.950 . S
H491 C500 0.950 . S
H492 C502 0.950 . S
H493 C504 0.950 . S
H494 C506 0.953 . S
H495 C507 0.950 . S
C496 H488 0.950 . S
C496 C497 1.386 . S
C496 C498 1.391 . S
C497 C496 1.386 . S
C497 C501 1.393 . S
C498 H490 0.950 . S
C498 C496 1.391 . S
C498 C499 1.400 . S
C499 C498 1.400 . S
C499 C500 1.398 . S
C499 C505 1.491 . S
C500 H491 0.950 . S
C500 C499 1.398 . S
C500 C501 1.391 . S
C501 H489 0.950 . S
C501 C497 1.393 . S
C501 C500 1.391 . S
C502 H492 0.950 . S
C502 C503 1.386 1_565 S
C502 C504 1.391 . S
C503 C502 1.386 1_545 S
C503 C507 1.393 . S
C504 H493 0.950 . S
C504 C502 1.391 . S
C504 C505 1.400 . S
C505 C499 1.491 . S
C505 C504 1.400 . S
C505 C506 1.385 1_565 S
C506 H494 0.953 . S
C506 C505 1.385 1_545 S
C506 C507 1.401 . S
C507 H495 0.950 . S
C507 C503 1.393 . S
C507 C506 1.401 . S
H508 C516 0.950 . S
H509 C521 0.950 . S
H510 C518 0.950 . S
H511 C520 0.950 . S
H512 C522 0.950 . S
H513 C524 0.950 . S
H514 C526 0.950 . S
H515 C527 0.950 . S
C516 H508 0.950 . S
C516 C517 1.386 . S
C516 C518 1.391 . S
C517 C516 1.386 . S
C517 C521 1.393 . S
C518 H510 0.950 . S
C518 C516 1.391 . S
C518 C519 1.400 . S
C519 C518 1.400 . S
C519 C520 1.398 . S
C519 C525 1.491 . S
C520 H511 0.950 . S
C520 C519 1.398 . S
C520 C521 1.391 . S
C521 H509 0.950 . S
C521 C517 1.393 . S
C521 C520 1.391 . S
C522 H512 0.950 . S
C522 C523 1.386 . S
C522 C524 1.391 . S
C523 C522 1.386 . S
C523 C527 1.393 . S
C524 H513 0.950 . S
C524 C522 1.391 . S
C524 C525 1.400 . S
C525 C519 1.491 . S
C525 C524 1.400 . S
C525 C526 1.398 . S
C526 H514 0.950 . S
C526 C525 1.398 . S
C526 C527 1.391 . S
C527 H515 0.950 . S
C527 C523 1.393 . S
C527 C526 1.391 . S
H528 C536 0.950 . S
H529 C541 0.950 . S
H530 C538 0.950 . S
H531 C540 0.950 . S
H532 C542 0.950 . S
H533 C544 0.950 . S
H534 C546 0.950 . S
H535 C547 0.950 . S
C536 H528 0.950 . S
C536 C537 1.386 . S
C536 C538 1.391 . S
C537 C536 1.386 . S
C537 C541 1.393 . S
C538 H530 0.950 . S
C538 C536 1.391 . S
C538 C539 1.400 . S
C539 C538 1.400 . S
C539 C540 1.398 . S
C539 C545 1.491 . S
C540 H531 0.950 . S
C540 C539 1.398 . S
C540 C541 1.391 . S
C541 H529 0.950 . S
C541 C537 1.393 . S
C541 C540 1.391 . S
C542 H532 0.950 . S
C542 C543 1.386 . S
C542 C544 1.391 . S
C543 C542 1.386 . S
C543 C547 1.393 . S
C544 H533 0.950 . S
C544 C542 1.391 . S
C544 C545 1.400 . S
C545 C539 1.491 . S
C545 C544 1.400 . S
C545 C546 1.398 . S
C546 H534 0.950 . S
C546 C545 1.398 . S
C546 C547 1.391 . S
C547 H535 0.950 . S
C547 C543 1.393 . S
C547 C546 1.391 . S
H548 C556 0.950 . S
H549 C561 0.950 . S
H550 C558 0.950 . S
H551 C560 0.950 . S
H552 C562 0.950 . S
H553 C564 0.950 . S
H554 C566 0.950 . S
H555 C567 0.950 . S
C556 H548 0.950 . S
C556 C557 1.386 . S
C556 C558 1.391 . S
C557 C556 1.386 . S
C557 C561 1.393 . S
C558 H550 0.950 . S
C558 C556 1.391 . S
C558 C559 1.400 . S
C559 C558 1.400 . S
C559 C560 1.398 . S
C559 C565 1.491 . S
C560 H551 0.950 . S
C560 C559 1.398 . S
C560 C561 1.391 . S
C561 H549 0.950 . S
C561 C557 1.393 . S
C561 C560 1.391 . S
C562 H552 0.950 . S
C562 C563 1.386 . S
C562 C564 1.391 1_545 S
C563 C562 1.386 . S
C563 C567 1.393 . S
C564 H553 0.950 . S
C564 C562 1.391 1_565 S
C564 C565 1.400 . S
C565 C559 1.491 . S
C565 C564 1.400 . S
C565 C566 1.398 . S
C566 H554 0.950 . S
C566 C565 1.398 . S
C566 C567 1.391 1_565 S
C567 H555 0.950 . S
C567 C563 1.393 . S
C567 C566 1.391 1_545 S
H568 C576 0.950 . S
H569 C581 0.950 . S
H570 C578 0.950 . S
H571 C580 0.950 . S
H572 C582 0.950 . S
H573 C584 0.950 . S
H574 C586 0.950 . S
H575 C587 0.950 . S
C576 H568 0.950 . S
C576 C577 1.386 . S
C576 C578 1.391 . S
C577 C576 1.386 . S
C577 C581 1.393 . S
C578 H570 0.950 . S
C578 C576 1.391 . S
C578 C579 1.400 . S
C579 C578 1.400 . S
C579 C580 1.398 . S
C579 C585 1.491 . S
C580 H571 0.950 . S
C580 C579 1.398 . S
C580 C581 1.391 . S
C581 H569 0.950 . S
C581 C577 1.393 . S
C581 C580 1.391 . S
C582 H572 0.950 . S
C582 C583 1.386 1_545 S
C582 C584 1.391 . S
C583 C582 1.386 1_565 S
C583 C587 1.393 . S
C584 H573 0.950 . S
C584 C582 1.391 . S
C584 C585 1.400 . S
C585 C579 1.491 . S
C585 C584 1.400 . S
C585 C586 1.398 1_545 S
C586 H574 0.950 . S
C586 C585 1.398 1_565 S
C586 C587 1.391 . S
C587 H575 0.950 . S
C587 C583 1.393 . S
C587 C586 1.391 . S
H588 C596 0.950 . S
H589 C601 0.950 . S
H590 C598 0.950 . S
H591 C600 0.950 . S
H592 C602 0.950 . S
H593 C604 0.950 . S
H594 C606 0.950 . S
H595 C607 0.950 . S
C596 H588 0.950 . S
C596 C597 1.386 . S
C596 C598 1.391 . S
C597 C596 1.386 . S
C597 C601 1.393 . S
C598 H590 0.950 . S
C598 C596 1.391 . S
C598 C599 1.400 . S
C599 C598 1.400 . S
C599 C600 1.398 . S
C599 C605 1.491 . S
C600 H591 0.950 . S
C600 C599 1.398 . S
C600 C601 1.391 . S
C601 H589 0.950 . S
C601 C597 1.393 . S
C601 C600 1.391 . S
C602 H592 0.950 . S
C602 C603 1.386 . S
C602 C604 1.391 . S
C603 C602 1.386 . S
C603 C607 1.393 . S
C604 H593 0.950 . S
C604 C602 1.391 . S
C604 C605 1.400 . S
C605 C599 1.491 . S
C605 C604 1.400 . S
C605 C606 1.398 . S
C606 H594 0.950 . S
C606 C605 1.398 . S
C606 C607 1.391 . S
C607 H595 0.950 . S
C607 C603 1.393 . S
C607 C606 1.391 . S
H608 C616 0.950 . S
H609 C621 0.950 . S
H610 C618 0.950 . S
H611 C620 0.950 . S
H612 C622 0.950 . S
H613 C624 0.950 . S
H614 C626 0.950 . S
H615 C627 0.950 . S
C616 H608 0.950 . S
C616 C617 1.386 . S
C616 C618 1.391 . S
C617 C616 1.386 . S
C617 C621 1.393 . S
C618 H610 0.950 . S
C618 C616 1.391 . S
C618 C619 1.400 . S
C619 C618 1.400 . S
C619 C620 1.398 . S
C619 C625 1.491 . S
C620 H611 0.950 . S
C620 C619 1.398 . S
C620 C621 1.391 . S
C621 H609 0.950 . S
C621 C617 1.393 . S
C621 C620 1.391 . S
C622 H612 0.950 . S
C622 C623 1.386 . S
C622 C624 1.391 . S
C623 C622 1.386 . S
C623 C627 1.393 . S
C624 H613 0.950 . S
C624 C622 1.391 . S
C624 C625 1.400 . S
C625 C619 1.491 . S
C625 C624 1.400 . S
C625 C626 1.398 . S
C626 H614 0.950 . S
C626 C625 1.398 . S
C626 C627 1.391 . S
C627 H615 0.950 . S
C627 C623 1.393 . S
C627 C626 1.391 . S
H628 C636 0.950 . S
H629 C641 0.950 . S
H630 C638 0.950 . S
H631 C640 0.950 . S
H632 C642 0.950 . S
H633 C644 0.950 . S
H634 C646 0.950 . S
H635 C647 0.950 . S
C636 H628 0.950 . S
C636 C637 1.386 . S
C636 C638 1.391 . S
C637 C636 1.386 . S
C637 C641 1.393 . S
C638 H630 0.950 . S
C638 C636 1.391 . S
C638 C639 1.400 . S
C639 C638 1.400 . S
C639 C640 1.398 . S
C639 C645 1.491 . S
C640 H631 0.950 . S
C640 C639 1.398 . S
C640 C641 1.391 . S
C641 H629 0.950 . S
C641 C637 1.393 . S
C641 C640 1.391 . S
C642 H632 0.950 . S
C642 C643 1.386 1_545 S
C642 C644 1.391 . S
C643 C642 1.386 1_565 S
C643 C647 1.393 . S
C644 H633 0.950 . S
C644 C642 1.391 . S
C644 C645 1.400 . S
C645 C639 1.491 . S
C645 C644 1.400 . S
C645 C646 1.398 1_545 S
C646 H634 0.950 . S
C646 C645 1.398 1_565 S
C646 C647 1.391 . S
C647 H635 0.950 . S
C647 C643 1.393 . S
C647 C646 1.391 . S
H648 C656 0.950 . S
H649 C661 0.950 . S
H650 C658 0.950 . S
H651 C660 0.950 . S
H652 C662 0.950 . S
H653 C664 0.950 . S
H654 C666 0.950 . S
H655 C667 0.950 . S
C656 H648 0.950 . S
C656 C657 1.386 . S
C656 C658 1.391 . S
C657 C656 1.386 . S
C657 C661 1.393 . S
C658 H650 0.950 . S
C658 C656 1.391 . S
C658 C659 1.400 1_556 S
C659 C658 1.400 1_554 S
C659 C660 1.398 . S
C659 C665 1.491 . S
C660 H651 0.950 . S
C660 C659 1.398 . S
C660 C661 1.391 1_554 S
C661 H649 0.950 . S
C661 C657 1.393 . S
C661 C660 1.391 1_556 S
C662 H652 0.950 . S
C662 C663 1.386 . S
C662 C664 1.391 . S
C663 C662 1.386 . S
C663 C667 1.393 . S
C664 H653 0.950 . S
C664 C662 1.391 . S
C664 C665 1.400 . S
C665 C659 1.491 . S
C665 C664 1.400 . S
C665 C666 1.398 . S
C666 H654 0.950 . S
C666 C665 1.398 . S
C666 C667 1.391 . S
C667 H655 0.950 . S
C667 C663 1.393 . S
C667 C666 1.391 . S
H668 C676 0.950 . S
H669 C681 0.950 . S
H670 C678 0.950 . S
H671 C680 0.950 . S
H672 C682 0.950 . S
H673 C684 0.950 . S
H674 C686 0.950 . S
H675 C687 0.950 . S
C676 H668 0.950 . S
C676 C677 1.386 . S
C676 C678 1.391 . S
C677 C676 1.386 . S
C677 C681 1.393 . S
C678 H670 0.950 . S
C678 C676 1.391 . S
C678 C679 1.400 . S
C679 C678 1.400 . S
C679 C680 1.398 . S
C679 C685 1.491 . S
C680 H671 0.950 . S
C680 C679 1.398 . S
C680 C681 1.391 . S
C681 H669 0.950 . S
C681 C677 1.393 . S
C681 C680 1.391 . S
C682 H672 0.950 . S
C682 C683 1.386 . S
C682 C684 1.391 . S
C683 C682 1.386 . S
C683 C687 1.393 . S
C684 H673 0.950 . S
C684 C682 1.391 . S
C684 C685 1.400 . S
C685 C679 1.491 . S
C685 C684 1.400 . S
C685 C686 1.398 . S
C686 H674 0.950 . S
C686 C685 1.398 . S
C686 C687 1.391 . S
C687 H675 0.950 . S
C687 C683 1.393 . S
C687 C686 1.391 . S
H688 C696 0.950 . S
H689 C701 0.950 . S
H690 C698 0.950 . S
H691 C700 0.962 . S
H692 C702 0.950 . S
H693 C704 0.950 . S
H694 C706 0.950 . S
H695 C707 0.950 . S
C696 H688 0.950 . S
C696 C697 1.386 . S
C696 C698 1.391 1_554 S
C697 C696 1.386 . S
C697 C701 1.393 . S
C698 H690 0.950 . S
C698 C696 1.391 1_556 S
C698 C699 1.400 . S
C699 C698 1.400 . S
C699 C700 1.398 1_556 S
C699 C705 1.491 . S
C700 H691 0.962 . S
C700 C699 1.398 1_554 S
C700 C701 1.391 . S
C701 H689 0.950 . S
C701 C697 1.393 . S
C701 C700 1.391 . S
C702 H692 0.950 . S
C702 C703 1.386 . S
C702 C704 1.391 . S
C703 C702 1.386 . S
C703 C707 1.393 . S
C704 H693 0.950 . S
C704 C702 1.391 . S
C704 C705 1.400 . S
C705 C699 1.491 . S
C705 C704 1.400 . S
C705 C706 1.398 . S
C706 H694 0.950 . S
C706 C705 1.398 . S
C706 C707 1.391 . S
C707 H695 0.950 . S
C707 C703 1.393 . S
C707 C706 1.391 . S
H708 C716 0.950 . S
H709 C721 0.950 . S
H710 C718 0.950 . S
H711 C720 0.950 . S
H712 C722 0.950 . S
H713 C724 0.950 . S
H714 C726 0.950 . S
H715 C727 0.950 . S
C716 H708 0.950 . S
C716 C717 1.386 . S
C716 C718 1.391 . S
C717 C716 1.386 . S
C717 C721 1.393 . S
C718 H710 0.950 . S
C718 C716 1.391 . S
C718 C719 1.400 . S
C719 C718 1.400 . S
C719 C720 1.398 . S
C719 C725 1.491 . S
C720 H711 0.950 . S
C720 C719 1.398 . S
C720 C721 1.391 . S
C721 H709 0.950 . S
C721 C717 1.393 . S
C721 C720 1.391 . S
C722 H712 0.950 . S
C722 C723 1.386 . S
C722 C724 1.391 . S
C723 C722 1.386 . S
C723 C727 1.393 . S
C724 H713 0.950 . S
C724 C722 1.391 . S
C724 C725 1.400 . S
C725 C719 1.491 . S
C725 C724 1.400 . S
C725 C726 1.398 . S
C726 H714 0.950 . S
C726 C725 1.398 . S
C726 C727 1.391 . S
C727 H715 0.950 . S
C727 C723 1.393 . S
C727 C726 1.391 . S
H728 C736 0.950 . S
H729 C741 0.950 . S
H730 C738 0.950 . S
H731 C740 0.950 . S
H732 C742 0.950 . S
H733 C744 0.950 . S
H734 C746 0.950 . S
H735 C747 0.950 . S
C736 H728 0.950 . S
C736 C737 1.386 . S
C736 C738 1.391 1_554 S
C737 C736 1.386 . S
C737 C741 1.393 . S
C738 H730 0.950 . S
C738 C736 1.391 1_556 S
C738 C739 1.400 . S
C739 C738 1.400 . S
C739 C740 1.398 1_556 S
C739 C745 1.491 . S
C740 H731 0.950 . S
C740 C739 1.398 1_554 S
C740 C741 1.391 . S
C741 H729 0.950 . S
C741 C737 1.393 . S
C741 C740 1.391 . S
C742 H732 0.950 . S
C742 C743 1.386 . S
C742 C744 1.391 . S
C743 C742 1.386 . S
C743 C747 1.393 . S
C744 H733 0.950 . S
C744 C742 1.391 . S
C744 C745 1.400 . S
C745 C739 1.491 . S
C745 C744 1.400 . S
C745 C746 1.398 . S
C746 H734 0.950 . S
C746 C745 1.398 . S
C746 C747 1.391 . S
C747 H735 0.950 . S
C747 C743 1.393 . S
C747 C746 1.391 . S
H748 C756 0.950 . S
H749 C761 0.950 . S
H750 C758 0.950 . S
H751 C760 0.950 . S
H752 C762 0.950 . S
H753 C764 0.950 . S
H754 C766 0.950 . S
H755 C767 0.950 . S
C756 H748 0.950 . S
C756 C757 1.386 . S
C756 C758 1.391 . S
C757 C756 1.386 . S
C757 C761 1.393 . S
C758 H750 0.950 . S
C758 C756 1.391 . S
C758 C759 1.400 . S
C759 C758 1.400 . S
C759 C760 1.398 . S
C759 C765 1.491 . S
C760 H751 0.950 . S
C760 C759 1.398 . S
C760 C761 1.391 . S
C761 H749 0.950 . S
C761 C757 1.393 . S
C761 C760 1.391 . S
C762 H752 0.950 . S
C762 C763 1.386 . S
C762 C764 1.391 . S
C763 C762 1.386 . S
C763 C767 1.393 . S
C764 H753 0.950 . S
C764 C762 1.391 . S
C764 C765 1.400 . S
C765 C759 1.491 . S
C765 C764 1.400 . S
C765 C766 1.398 . S
C766 H754 0.950 . S
C766 C765 1.398 . S
C766 C767 1.391 . S
C767 H755 0.950 . S
C767 C763 1.393 . S
C767 C766 1.391 . S
H768 C776 0.950 . S
H769 C781 0.950 . S
H770 C778 0.950 . S
H771 C780 0.950 . S
H772 C782 0.950 . S
H773 C784 0.950 . S
H774 C786 0.950 . S
H775 C787 0.950 . S
C776 H768 0.950 . S
C776 C777 1.386 . S
C776 C778 1.391 1_556 S
C777 C776 1.386 . S
C777 C781 1.393 . S
C778 H770 0.950 . S
C778 C776 1.391 1_554 S
C778 C779 1.400 . S
C779 C778 1.400 . S
C779 C780 1.398 1_554 S
C779 C785 1.491 . S
C780 H771 0.950 . S
C780 C779 1.398 1_556 S
C780 C781 1.391 . S
C781 H769 0.950 . S
C781 C777 1.393 . S
C781 C780 1.391 . S
C782 H772 0.950 . S
C782 C783 1.386 . S
C782 C784 1.391 . S
C783 C782 1.386 . S
C783 C787 1.393 . S
C784 H773 0.950 . S
C784 C782 1.391 . S
C784 C785 1.400 . S
C785 C779 1.491 . S
C785 C784 1.400 . S
C785 C786 1.398 . S
C786 H774 0.950 . S
C786 C785 1.398 . S
C786 C787 1.391 . S
C787 H775 0.950 . S
C787 C783 1.393 . S
C787 C786 1.391 . S
H788 C796 0.950 . S
H789 C801 0.950 . S
H790 C798 0.950 . S
H791 C800 0.950 . S
H792 C802 0.950 . S
H793 C804 0.950 . S
H794 C806 0.950 . S
H795 C807 0.950 . S
C796 H788 0.950 . S
C796 C797 1.386 . S
C796 C798 1.391 . S
C797 C796 1.386 . S
C797 C801 1.393 . S
C798 H790 0.950 . S
C798 C796 1.391 . S
C798 C799 1.400 . S
C799 C798 1.400 . S
C799 C800 1.398 . S
C799 C805 1.491 . S
C800 H791 0.950 . S
C800 C799 1.398 . S
C800 C801 1.391 . S
C801 H789 0.950 . S
C801 C797 1.393 . S
C801 C800 1.391 . S
C802 H792 0.950 . S
C802 C803 1.386 . S
C802 C804 1.391 . S
C803 C802 1.386 . S
C803 C807 1.393 . S
C804 H793 0.950 . S
C804 C802 1.391 . S
C804 C805 1.400 . S
C805 C799 1.491 . S
C805 C804 1.400 . S
C805 C806 1.398 . S
C806 H794 0.950 . S
C806 C805 1.398 . S
C806 C807 1.391 . S
C807 H795 0.950 . S
C807 C803 1.393 . S
C807 C806 1.391 . S
H808 C816 0.950 . S
H809 C821 0.950 . S
H810 C818 0.950 . S
H811 C820 0.950 . S
H812 C822 0.950 . S
H813 C824 0.950 . S
H814 C826 0.950 . S
H815 C827 0.950 . S
C816 H808 0.950 . S
C816 C817 1.386 . S
C816 C818 1.391 . S
C817 C816 1.386 . S
C817 C821 1.393 . S
C818 H810 0.950 . S
C818 C816 1.391 . S
C818 C819 1.400 . S
C819 C818 1.400 . S
C819 C820 1.398 . S
C819 C825 1.491 . S
C820 H811 0.950 . S
C820 C819 1.398 . S
C820 C821 1.391 . S
C821 H809 0.950 . S
C821 C817 1.393 . S
C821 C820 1.391 . S
C822 H812 0.950 . S
C822 C823 1.386 . S
C822 C824 1.391 . S
C823 C822 1.386 . S
C823 C827 1.393 . S
C824 H813 0.950 . S
C824 C822 1.391 . S
C824 C825 1.400 . S
C825 C819 1.491 . S
C825 C824 1.400 . S
C825 C826 1.398 . S
C826 H814 0.950 . S
C826 C825 1.398 . S
C826 C827 1.391 . S
C827 H815 0.950 . S
C827 C823 1.393 . S
C827 C826 1.391 . S
H828 C836 0.950 . S
H829 C841 0.950 . S
H830 C838 0.950 . S
H831 C840 0.950 . S
H832 C842 0.950 . S
H833 C844 0.950 . S
H834 C846 0.950 . S
H835 C847 0.950 . S
C836 H828 0.950 . S
C836 C837 1.386 . S
C836 C838 1.391 . S
C837 C836 1.386 . S
C837 C841 1.393 . S
C838 H830 0.950 . S
C838 C836 1.391 . S
C838 C839 1.400 . S
C839 C838 1.400 . S
C839 C840 1.398 . S
C839 C845 1.491 . S
C840 H831 0.950 . S
C840 C839 1.398 . S
C840 C841 1.391 . S
C841 H829 0.950 . S
C841 C837 1.393 . S
C841 C840 1.391 . S
C842 H832 0.950 . S
C842 C843 1.386 . S
C842 C844 1.391 . S
C843 C842 1.386 . S
C843 C847 1.393 . S
C844 H833 0.950 . S
C844 C842 1.391 . S
C844 C845 1.400 . S
C845 C839 1.491 . S
C845 C844 1.400 . S
C845 C846 1.398 . S
C846 H834 0.950 . S
C846 C845 1.398 . S
C846 C847 1.391 . S
C847 H835 0.950 . S
C847 C843 1.393 . S
C847 C846 1.391 . S
H848 C856 0.950 . S
H849 C861 0.950 . S
H850 C858 0.950 . S
H851 C860 0.950 . S
H852 C862 0.950 . S
H853 C864 0.950 . S
H854 C866 0.950 . S
H855 C867 0.950 . S
C856 H848 0.950 . S
C856 C857 1.386 . S
C856 C858 1.391 . S
C857 C856 1.386 . S
C857 C861 1.393 . S
C858 H850 0.950 . S
C858 C856 1.391 . S
C858 C859 1.400 . S
C859 C858 1.400 . S
C859 C860 1.398 . S
C859 C865 1.491 . S
C860 H851 0.950 . S
C860 C859 1.398 . S
C860 C861 1.391 . S
C861 H849 0.950 . S
C861 C857 1.393 . S
C861 C860 1.391 . S
C862 H852 0.950 . S
C862 C863 1.386 . S
C862 C864 1.391 . S
C863 C862 1.386 . S
C863 C867 1.393 . S
C864 H853 0.950 . S
C864 C862 1.391 . S
C864 C865 1.400 . S
C865 C859 1.491 . S
C865 C864 1.400 . S
C865 C866 1.398 . S
C866 H854 0.950 . S
C866 C865 1.398 . S
C866 C867 1.391 . S
C867 H855 0.950 . S
C867 C863 1.393 . S
C867 C866 1.391 . S
H868 C876 0.950 . S
H869 C881 0.950 . S
H870 C878 0.950 . S
H871 C880 0.950 . S
H872 C882 0.950 . S
H873 C884 0.950 . S
H874 C886 0.950 . S
H875 C887 0.950 . S
C876 H868 0.950 . S
C876 C877 1.386 . S
C876 C878 1.391 . S
C877 C876 1.386 . S
C877 C881 1.393 . S
C878 H870 0.950 . S
C878 C876 1.391 . S
C878 C879 1.400 . S
C879 C878 1.400 . S
C879 C880 1.398 . S
C879 C885 1.491 . S
C880 H871 0.950 . S
C880 C879 1.398 . S
C880 C881 1.391 . S
C881 H869 0.950 . S
C881 C877 1.393 . S
C881 C880 1.391 . S
C882 H872 0.950 . S
C882 C883 1.386 . S
C882 C884 1.391 . S
C883 C882 1.386 . S
C883 C887 1.393 . S
C884 H873 0.950 . S
C884 C882 1.391 . S
C884 C885 1.400 . S
C885 C879 1.491 . S
C885 C884 1.400 . S
C885 C886 1.398 . S
C886 H874 0.950 . S
C886 C885 1.398 . S
C886 C887 1.391 . S
C887 H875 0.950 . S
C887 C883 1.393 . S
C887 C886 1.391 . S
H888 C896 0.950 . S
H889 C901 0.950 . S
H890 C898 0.950 . S
H891 C900 0.950 . S
H892 C902 0.950 . S
H893 C904 0.950 . S
H894 C906 0.950 . S
H895 C907 0.950 . S
C896 H888 0.950 . S
C896 C897 1.386 . S
C896 C898 1.391 . S
C897 C896 1.386 . S
C897 C901 1.393 . S
C898 H890 0.950 . S
C898 C896 1.391 . S
C898 C899 1.400 . S
C899 C898 1.400 . S
C899 C900 1.398 . S
C899 C905 1.491 . S
C900 H891 0.950 . S
C900 C899 1.398 . S
C900 C901 1.391 . S
C901 H889 0.950 . S
C901 C897 1.393 . S
C901 C900 1.391 . S
C902 H892 0.950 . S
C902 C903 1.386 . S
C902 C904 1.391 . S
C903 C902 1.386 . S
C903 C907 1.393 . S
C904 H893 0.950 . S
C904 C902 1.391 . S
C904 C905 1.400 . S
C905 C899 1.491 . S
C905 C904 1.400 . S
C905 C906 1.398 . S
C906 H894 0.950 . S
C906 C905 1.398 . S
C906 C907 1.391 . S
C907 H895 0.950 . S
C907 C903 1.393 . S
C907 C906 1.391 . S
H908 C916 0.950 . S
H909 C921 0.950 . S
H910 C918 0.950 . S
H911 C920 0.950 . S
H912 C922 0.950 . S
H913 C924 0.950 . S
H914 C926 0.950 . S
H915 C927 0.950 . S
C916 H908 0.950 . S
C916 C917 1.386 . S
C916 C918 1.391 . S
C917 C916 1.386 . S
C917 C921 1.393 . S
C918 H910 0.950 . S
C918 C916 1.391 . S
C918 C919 1.400 . S
C919 C918 1.400 . S
C919 C920 1.398 . S
C919 C925 1.491 . S
C920 H911 0.950 . S
C920 C919 1.398 . S
C920 C921 1.391 . S
C921 H909 0.950 . S
C921 C917 1.393 . S
C921 C920 1.391 . S
C922 H912 0.950 . S
C922 C923 1.386 . S
C922 C924 1.391 . S
C923 C922 1.386 . S
C923 C927 1.393 . S
C924 H913 0.950 . S
C924 C922 1.391 . S
C924 C925 1.400 . S
C925 C919 1.491 . S
C925 C924 1.400 . S
C925 C926 1.398 . S
C926 H914 0.950 . S
C926 C925 1.398 . S
C926 C927 1.391 . S
C927 H915 0.950 . S
C927 C923 1.393 . S
C927 C926 1.391 . S
H928 C936 0.950 . S
H929 C941 0.950 . S
H930 C938 0.950 . S
H931 C940 0.950 . S
H932 C942 0.950 . S
H933 C944 0.950 . S
H934 C946 0.950 . S
H935 C947 0.950 . S
C936 H928 0.950 . S
C936 C937 1.386 . S
C936 C938 1.391 . S
C937 C936 1.386 . S
C937 C941 1.393 . S
C938 H930 0.950 . S
C938 C936 1.391 . S
C938 C939 1.400 . S
C939 C938 1.400 . S
C939 C940 1.398 . S
C939 C945 1.491 . S
C940 H931 0.950 . S
C940 C939 1.398 . S
C940 C941 1.391 . S
C941 H929 0.950 . S
C941 C937 1.393 . S
C941 C940 1.391 . S
C942 H932 0.950 . S
C942 C943 1.386 . S
C942 C944 1.391 . S
C943 C942 1.386 . S
C943 C947 1.393 . S
C944 H933 0.950 . S
C944 C942 1.391 . S
C944 C945 1.400 . S
C945 C939 1.491 . S
C945 C944 1.400 . S
C945 C946 1.398 . S
C946 H934 0.950 . S
C946 C945 1.398 . S
C946 C947 1.391 . S
C947 H935 0.950 . S
C947 C943 1.393 . S
C947 C946 1.391 . S
H948 C956 0.950 . S
H949 C961 0.950 . S
H950 C958 0.950 . S
H951 C960 0.950 . S
H952 C962 0.950 . S
H953 C964 0.950 . S
H954 C966 0.950 . S
H955 C967 0.950 . S
C956 H948 0.950 . S
C956 C957 1.386 . S
C956 C958 1.391 . S
C957 C956 1.386 . S
C957 C961 1.393 . S
C958 H950 0.950 . S
C958 C956 1.391 . S
C958 C959 1.400 . S
C959 C958 1.400 . S
C959 C960 1.398 . S
C959 C965 1.491 . S
C960 H951 0.950 . S
C960 C959 1.398 . S
C960 C961 1.391 . S
C961 H949 0.950 . S
C961 C957 1.393 . S
C961 C960 1.391 . S
C962 H952 0.950 . S
C962 C963 1.386 . S
C962 C964 1.391 . S
C963 C962 1.386 . S
C963 C967 1.393 . S
C964 H953 0.950 . S
C964 C962 1.391 . S
C964 C965 1.400 . S
C965 C959 1.491 . S
C965 C964 1.400 . S
C965 C966 1.398 . S
C966 H954 0.950 . S
C966 C965 1.398 . S
C966 C967 1.391 . S
C967 H955 0.950 . S
C967 C963 1.393 . S
C967 C966 1.391 . S
C497 C116 1.819 . S
C503 C208 1.815 . S
C523 C292 1.803 . S
C517 C135 1.811 . S
C543 C291 1.811 . S
C537 C78 1.811 . S
C557 C97 1.811 . S
C563 C207 1.810 . S
C583 C388 1.806 . S
C577 C40 1.812 . S
C603 C472 1.806 . S
C597 C59 1.812 . S
C617 C2 1.818 . S
C623 C471 1.815 . S
C637 C21 1.808 . S
C643 C387 1.816 . S
C663 C210 1.578 . S
C657 C25 1.740 . S
C683 C294 1.549 . S
C677 C6 1.739 . S
C703 C306 1.495 . S
C697 C63 1.745 . S
C723 C222 1.468 . S
C717 C44 1.741 . S
C743 C390 1.577 . S
C737 C101 1.738 . S
C757 C82 1.743 . S
C763 C474 1.585 . S
C783 C462 1.459 . S
C777 C139 1.740 . S
C797 C120 1.738 . S
C803 C378 1.452 . S
C823 C219 1.523 . S
C817 C11 1.437 . S
C843 C303 1.522 . S
C837 C30 1.436 . S
C857 C49 1.427 . S
C863 C304 1.483 . S
C883 C220 1.496 . S
C877 C68 1.457 . S
C903 C375 1.521 . S
C897 C87 1.420 . S
C917 C106 1.392 . S
C923 C459 1.525 . S
C937 C125 1.382 . S
C943 C460 1.483 . S
C957 C144 1.409 . S
C963 C376 1.498 . S
