# Generated by pormake.
# Topology wbl, (4,4)-cn, num edge types: 1
# Building blocks:
#     Node 0, Type 0, BuildingBlock: MIFKUJ_clean_linker_1, # of connection points: 4
#     Node 1, Type 0, BuildingBlock: MIFKUJ_clean_linker_1, # of connection points: 4
#     Node 2, Type 0, BuildingBlock: MIFKUJ_clean_linker_1, # of connection points: 4
#     Node 3, Type 0, BuildingBlock: MIFKUJ_clean_linker_1, # of connection points: 4
#     Node 4, Type 0, BuildingBlock: MIFKUJ_clean_linker_1, # of connection points: 4
#     Node 5, Type 0, BuildingBlock: MIFKUJ_clean_linker_1, # of connection points: 4
#     Node 6, Type 0, BuildingBlock: MIFKUJ_clean_linker_1, # of connection points: 4
#     Node 7, Type 0, BuildingBlock: MIFKUJ_clean_linker_1, # of connection points: 4
#     Node 8, Type 1, BuildingBlock: GALJAG_clean_sbu_0, # of connection points: 4
#     Node 9, Type 1, BuildingBlock: GALJAG_clean_sbu_0, # of connection points: 4
#     Node 10, Type 1, BuildingBlock: GALJAG_clean_sbu_0, # of connection points: 4
#     Node 11, Type 1, BuildingBlock: GALJAG_clean_sbu_0, # of connection points: 4
#     Node 12, Type 1, BuildingBlock: GALJAG_clean_sbu_0, # of connection points: 4
#     Node 13, Type 1, BuildingBlock: GALJAG_clean_sbu_0, # of connection points: 4
#     Node 14, Type 1, BuildingBlock: GALJAG_clean_sbu_0, # of connection points: 4
#     Node 15, Type 1, BuildingBlock: GALJAG_clean_sbu_0, # of connection points: 4
#     Edge 16, Type (0, 1), BuildingBlock: TEMPAE_clean_linker_10, # of connection points: 2
#     Edge 17, Type (0, 1), BuildingBlock: TEMPAE_clean_linker_10, # of connection points: 2
#     Edge 18, Type (0, 1), BuildingBlock: TEMPAE_clean_linker_10, # of connection points: 2
#     Edge 19, Type (0, 1), BuildingBlock: TEMPAE_clean_linker_10, # of connection points: 2
#     Edge 20, Type (0, 1), BuildingBlock: TEMPAE_clean_linker_10, # of connection points: 2
#     Edge 21, Type (0, 1), BuildingBlock: TEMPAE_clean_linker_10, # of connection points: 2
#     Edge 22, Type (0, 1), BuildingBlock: TEMPAE_clean_linker_10, # of connection points: 2
#     Edge 23, Type (0, 1), BuildingBlock: TEMPAE_clean_linker_10, # of connection points: 2
#     Edge 24, Type (0, 1), BuildingBlock: TEMPAE_clean_linker_10, # of connection points: 2
#     Edge 25, Type (0, 1), BuildingBlock: TEMPAE_clean_linker_10, # of connection points: 2
#     Edge 26, Type (0, 1), BuildingBlock: TEMPAE_clean_linker_10, # of connection points: 2
#     Edge 27, Type (0, 1), BuildingBlock: TEMPAE_clean_linker_10, # of connection points: 2
#     Edge 28, Type (0, 1), BuildingBlock: TEMPAE_clean_linker_10, # of connection points: 2
#     Edge 29, Type (0, 1), BuildingBlock: TEMPAE_clean_linker_10, # of connection points: 2
#     Edge 30, Type (0, 1), BuildingBlock: TEMPAE_clean_linker_10, # of connection points: 2
#     Edge 31, Type (0, 1), BuildingBlock: TEMPAE_clean_linker_10, # of connection points: 2
#     Edge 32, Type (0, 1), BuildingBlock: TEMPAE_clean_linker_10, # of connection points: 2
#     Edge 33, Type (0, 1), BuildingBlock: TEMPAE_clean_linker_10, # of connection points: 2
#     Edge 34, Type (0, 1), BuildingBlock: TEMPAE_clean_linker_10, # of connection points: 2
#     Edge 35, Type (0, 1), BuildingBlock: TEMPAE_clean_linker_10, # of connection points: 2
#     Edge 36, Type (0, 1), BuildingBlock: TEMPAE_clean_linker_10, # of connection points: 2
#     Edge 37, Type (0, 1), BuildingBlock: TEMPAE_clean_linker_10, # of connection points: 2
#     Edge 38, Type (0, 1), BuildingBlock: TEMPAE_clean_linker_10, # of connection points: 2
#     Edge 39, Type (0, 1), BuildingBlock: TEMPAE_clean_linker_10, # of connection points: 2
#     Edge 40, Type (0, 1), BuildingBlock: TEMPAE_clean_linker_10, # of connection points: 2
#     Edge 41, Type (0, 1), BuildingBlock: TEMPAE_clean_linker_10, # of connection points: 2
#     Edge 42, Type (0, 1), BuildingBlock: TEMPAE_clean_linker_10, # of connection points: 2
#     Edge 43, Type (0, 1), BuildingBlock: TEMPAE_clean_linker_10, # of connection points: 2
#     Edge 44, Type (0, 1), BuildingBlock: TEMPAE_clean_linker_10, # of connection points: 2
#     Edge 45, Type (0, 1), BuildingBlock: TEMPAE_clean_linker_10, # of connection points: 2
#     Edge 46, Type (0, 1), BuildingBlock: TEMPAE_clean_linker_10, # of connection points: 2
#     Edge 47, Type (0, 1), BuildingBlock: TEMPAE_clean_linker_10, # of connection points: 2
# Relax obj value: 0.140
# Max RMSD: 0.144
# Mean RMSD: 0.131
data_MOF--net-wbl--node1-GALJAG_clean_sbu_0--node2-MIFKUJ_clean_linker_1--edge1-TEMPAE_clean_linker_10
_symmetry_space_group_name_H-M    P1
_symmetry_Int_Tables_number       1
_symmetry_cell_setting            triclinic
loop_
_symmetry_equiv_pos_as_xyz
'x, y, z'
_cell_length_a     45.243321
_cell_length_b     45.36481
_cell_length_c     82.938155
_cell_angle_alpha  90.060816
_cell_angle_beta   90.01997
_cell_angle_gamma 90.024195
loop_
_atom_site_label
_atom_site_type_symbol
_atom_site_fract_x
_atom_site_fract_y
_atom_site_fract_z
_atom_type_partial_charge
H0 H 0.00212 0.06369 0.37381 0.0
H1 H 0.97336 0.09585 0.39144 0.0
H2 H 0.89264 0.05734 0.37313 0.0
H3 H 0.92169 0.02456 0.35582 0.0
H4 H 0.00225 0.00366 0.37587 0.0
H5 H 0.9805 0.07682 0.33396 0.0
H6 H 0.94532 0.10748 0.31891 0.0
H7 H 0.8981 0.02918 0.3042 0.0
H8 H 0.93328 0.99868 0.3192 0.0
H9 H 0.00391 0.93523 0.31605 0.0
H10 H 0.03877 0.90403 0.30112 0.0
H11 H 0.11169 0.94902 0.32418 0.0
H12 H 0.07694 0.97964 0.33909 0.0
H13 H 0.9959 0.99432 0.31637 0.0
H14 H 0.0199 0.92052 0.35449 0.0
H15 H 0.04833 0.88779 0.37201 0.0
H16 H 0.08596 0.96366 0.39602 0.0
H17 H 0.05857 0.99617 0.37801 0.0
C18 C 0.96406 0.0418 0.36349 0.0
C19 C 0.97821 0.06241 0.37347 0.0
C20 C 0.96173 0.08095 0.38343 0.0
C21 C 0.93071 0.07914 0.38368 0.0
C22 C 0.91651 0.05908 0.37329 0.0
C23 C 0.93306 0.04053 0.3633 0.0
C24 C 0.98193 0.02024 0.35426 0.0
C25 C 0.00127 0.00192 0.36283 0.0
C26 C 0.97952 0.01702 0.33737 0.0
C27 C 0.95928 0.03556 0.32775 0.0
C28 C 0.96262 0.06632 0.32743 0.0
C29 C 0.94268 0.08375 0.31879 0.0
C30 C 0.919 0.07064 0.31049 0.0
C31 C 0.91604 0.0398 0.31063 0.0
C32 C 0.93615 0.0224 0.3191 0.0
C33 C 0.03785 0.95943 0.32884 0.0
C34 C 0.02743 0.93825 0.31787 0.0
C35 C 0.04734 0.92051 0.30934 0.0
C36 C 0.07797 0.92383 0.31161 0.0
C37 C 0.08824 0.94538 0.32245 0.0
C38 C 0.0684 0.963 0.33095 0.0
C39 C 0.01709 0.97837 0.33795 0.0
C40 C 0.99706 0.99607 0.3294 0.0
C41 C 0.01864 0.98077 0.35494 0.0
C42 C 0.03722 0.96083 0.36486 0.0
C43 C 0.03476 0.93009 0.3633 0.0
C44 C 0.05078 0.9114 0.37344 0.0
C45 C 0.06939 0.92309 0.38544 0.0
C46 C 0.0722 0.95389 0.38676 0.0
C47 C 0.0563 0.97253 0.37658 0.0
H48 H -0.00113 0.44204 0.56696 0.0
H49 H 0.96994 0.4054 0.55203 0.0
H50 H 0.88932 0.44853 0.56686 0.0
H51 H 0.91838 0.48515 0.58183 0.0
H52 H 0.00179 0.50413 0.56532 0.0
H53 H 0.97335 0.42765 0.60285 0.0
H54 H 0.94302 0.3957 0.61991 0.0
H55 H 0.89984 0.47251 0.63984 0.0
H56 H 0.92943 0.50414 0.62238 0.0
H57 H 0.99328 0.56389 0.6274 0.0
H58 H 0.02291 0.59042 0.64733 0.0
H59 H 0.10267 0.55652 0.62563 0.0
H60 H 0.07293 0.52919 0.60591 0.0
H61 H 0.98885 0.50777 0.62464 0.0
H62 H 0.02015 0.58465 0.59034 0.0
H63 H 0.05446 0.61773 0.57689 0.0
H64 H 0.09091 0.54403 0.55042 0.0
H65 H 0.05795 0.51066 0.56492 0.0
C66 C 0.96072 0.4661 0.57557 0.0
C67 C 0.97499 0.4438 0.56683 0.0
C68 C 0.95848 0.42284 0.5584 0.0
C69 C 0.92745 0.42413 0.55839 0.0
C70 C 0.91322 0.44717 0.56662 0.0
C71 C 0.92975 0.46795 0.57521 0.0
C72 C 0.97822 0.48651 0.58568 0.0
C73 C -0.00077 0.50487 0.57832 0.0
C74 C 0.97419 0.48791 0.60254 0.0
C75 C 0.95351 0.46827 0.61129 0.0
C76 C 0.95678 0.43753 0.61058 0.0
C77 C 0.93966 0.41932 0.62045 0.0
C78 C 0.91912 0.43157 0.63129 0.0
C79 C 0.91516 0.46231 0.6315 0.0
C80 C 0.93221 0.48046 0.62161 0.0
C81 C 0.03084 0.54454 0.61513 0.0
C82 C 0.01715 0.56226 0.62684 0.0
C83 C 0.03404 0.57739 0.63822 0.0
C84 C 0.06499 0.5753 0.63803 0.0
C85 C 0.07883 0.55857 0.62594 0.0
C86 C 0.06186 0.54307 0.61465 0.0
C87 C 0.01245 0.52582 0.60438 0.0
C88 C 0.99132 0.50751 0.61163 0.0
C89 C 0.01625 0.52481 0.58743 0.0
C90 C 0.03676 0.54504 0.57888 0.0
C91 C 0.03588 0.57549 0.58186 0.0
C92 C 0.05527 0.59449 0.57394 0.0
C93 C 0.07547 0.58363 0.56248 0.0
C94 C 0.07601 0.55315 0.55933 0.0
C95 C 0.05691 0.53406 0.56748 0.0
H96 H 0.51105 0.57487 0.86687 0.0
H97 H 0.48194 0.60672 0.88453 0.0
H98 H 0.40459 0.55331 0.87493 0.0
H99 H 0.43363 0.52286 0.85651 0.0
H100 H 0.51283 0.5089 0.87262 0.0
H101 H 0.48827 0.58336 0.8337 0.0
H102 H 0.45313 0.61466 0.8192 0.0
H103 H 0.41351 0.53726 0.79788 0.0
H104 H 0.44806 0.50597 0.81274 0.0
H105 H 0.51002 0.43798 0.81482 0.0
H106 H 0.54253 0.40342 0.80058 0.0
H107 H 0.61873 0.44944 0.81958 0.0
H108 H 0.58621 0.48299 0.83411 0.0
H109 H 0.50597 0.49983 0.81311 0.0
H110 H 0.52606 0.42541 0.85189 0.0
H111 H 0.5528 0.39174 0.86969 0.0
H112 H 0.59621 0.46612 0.89213 0.0
H113 H 0.57027 0.4995 0.87392 0.0
C114 C 0.4744 0.54664 0.86044 0.0
C115 C 0.48768 0.57046 0.86839 0.0
C116 C 0.47102 0.58845 0.87859 0.0
C117 C 0.44091 0.58244 0.88138 0.0
C118 C 0.42755 0.55896 0.87295 0.0
C119 C 0.44413 0.54135 0.86249 0.0
C120 C 0.49271 0.52586 0.85106 0.0
C121 C 0.51175 0.50721 0.85958 0.0
C122 C 0.49026 0.52306 0.83414 0.0
C123 C 0.47036 0.54227 0.82459 0.0
C124 C 0.47185 0.5731 0.82603 0.0
C125 C 0.45195 0.59097 0.81767 0.0
C126 C 0.43064 0.57833 0.80747 0.0
C127 C 0.42992 0.54756 0.80555 0.0
C128 C 0.44958 0.52969 0.81407 0.0
C129 C 0.54579 0.46276 0.82562 0.0
C130 C 0.53376 0.44049 0.81587 0.0
C131 C 0.55235 0.42086 0.80772 0.0
C132 C 0.58325 0.42345 0.80907 0.0
C133 C 0.59507 0.44628 0.8186 0.0
C134 C 0.57654 0.46563 0.82683 0.0
C135 C 0.52643 0.48309 0.83469 0.0
C136 C 0.50718 0.5016 0.82614 0.0
C137 C 0.52838 0.48558 0.85164 0.0
C138 C 0.54631 0.46498 0.8615 0.0
C139 C 0.54185 0.4344 0.86039 0.0
C140 C 0.55692 0.4152 0.87068 0.0
C141 C 0.57661 0.42624 0.88234 0.0
C142 C 0.58155 0.45683 0.88313 0.0
C143 C 0.56653 0.47599 0.87283 0.0
H144 H 0.5049 0.93119 0.06461 0.0
H145 H 0.47544 0.89363 0.05067 0.0
H146 H 0.39592 0.94258 0.06127 0.0
H147 H 0.42549 0.98007 0.07524 0.0
H148 H 0.51022 0.99313 0.0596 0.0
H149 H 0.47627 0.92453 0.10007 0.0
H150 H 0.44246 0.89645 0.11716 0.0
H151 H 0.40162 0.9777 0.13284 0.0
H152 H 0.4346 0.00547 0.11522 0.0
H153 H 0.4996 0.06798 0.11587 0.0
H154 H 0.52901 0.09749 0.13469 0.0
H155 H 0.60777 0.05124 0.11964 0.0
H156 H 0.57818 0.02149 0.10102 0.0
H157 H 0.49328 0.00866 0.11811 0.0
H158 H 0.5134 0.07475 0.07374 0.0
H159 H 0.54524 0.10836 0.05854 0.0
H160 H 0.60911 0.03867 0.05208 0.0
H161 H 0.57659 0.00467 0.06703 0.0
C162 C 0.46731 0.95821 0.07103 0.0
C163 C 0.48116 0.93394 0.06379 0.0
C164 C 0.46433 0.91247 0.05593 0.0
C165 C 0.43344 0.91521 0.05499 0.0
C166 C 0.41971 0.94006 0.06178 0.0
C167 C 0.43653 0.96135 0.0698 0.0
C168 C 0.48497 0.97967 0.08038 0.0
C169 C 0.50678 0.99619 0.07244 0.0
C170 C 0.47978 0.98446 0.097 0.0
C171 C 0.45784 0.96711 0.10629 0.0
C172 C 0.45955 0.93623 0.10688 0.0
C173 C 0.44041 0.92022 0.11679 0.0
C174 C 0.41939 0.93483 0.12641 0.0
C175 C 0.41723 0.9657 0.12543 0.0
C176 C 0.43627 0.98165 0.11548 0.0
C177 C 0.53672 0.04264 0.10701 0.0
C178 C 0.52328 0.06455 0.11645 0.0
C179 C 0.54012 0.08148 0.12712 0.0
C180 C 0.57067 0.07658 0.12867 0.0
C181 C 0.58424 0.05534 0.11878 0.0
C182 C 0.56741 0.03854 0.10803 0.0
C183 C 0.51839 0.02209 0.09735 0.0
C184 C 0.49662 0.00558 0.10526 0.0
C185 C 0.5232 0.01763 0.08071 0.0
C186 C 0.54276 0.03737 0.07147 0.0
C187 C 0.53416 0.06667 0.06896 0.0
C188 C 0.55224 0.08573 0.06024 0.0
C189 C 0.57942 0.07591 0.05409 0.0
C190 C 0.58817 0.04659 0.05669 0.0
C191 C 0.5697 0.02727 0.06516 0.0
H192 H 0.98762 0.57512 0.88461 0.0
H193 H 0.01766 0.60713 0.86759 0.0
H194 H 0.09694 0.57086 0.88885 0.0
H195 H 0.06665 0.53807 0.90548 0.0
H196 H 0.98739 0.51612 0.88339 0.0
H197 H 0.01116 0.59045 0.92228 0.0
H198 H 0.04637 0.62135 0.93711 0.0
H199 H 0.08056 0.54419 0.96106 0.0
H200 H 0.04663 0.51306 0.94561 0.0
H201 H 0.9889 0.44718 0.94254 0.0
H202 H 0.95688 0.41267 0.95717 0.0
H203 H 0.88056 0.44982 0.93336 0.0
H204 H 0.91241 0.48417 0.91896 0.0
H205 H 0.99099 0.50608 0.9429 0.0
H206 H 0.97817 0.43313 0.90018 0.0
H207 H 0.95288 0.40093 0.88094 0.0
H208 H 0.8989 0.47444 0.86558 0.0
H209 H 0.92536 0.50662 0.88427 0.0
C210 C 0.02488 0.55427 0.89632 0.0
C211 C 0.01147 0.57425 0.8857 0.0
C212 C 0.02868 0.59274 0.87609 0.0
C213 C 0.0597 0.59158 0.87688 0.0
C214 C 0.0731 0.5721 0.88787 0.0
C215 C 0.05583 0.55352 0.89747 0.0
C216 C 0.0064 0.53296 0.90536 0.0
C217 C 0.98792 0.51426 0.89643 0.0
C218 C 0.00772 0.52997 0.92235 0.0
C219 C 0.0267 0.54927 0.9325 0.0
C220 C 0.02636 0.58009 0.93061 0.0
C221 C 0.04624 0.59777 0.93917 0.0
C222 C 0.06602 0.58503 0.95016 0.0
C223 C 0.06529 0.55447 0.95271 0.0
C224 C 0.04592 0.53672 0.94389 0.0
C225 C 0.95309 0.46793 0.92947 0.0
C226 C 0.96526 0.44776 0.94046 0.0
C227 C 0.947 0.42811 0.9488 0.0
C228 C 0.91628 0.42833 0.94626 0.0
C229 C 0.90422 0.44863 0.93529 0.0
C230 C 0.9224 0.4683 0.92705 0.0
C231 C 0.97218 0.4893 0.92086 0.0
C232 C 0.99059 0.50805 0.92986 0.0
C233 C 0.97106 0.49235 0.90393 0.0
C234 C 0.95366 0.47222 0.89357 0.0
C235 C 0.96069 0.44215 0.89274 0.0
C236 C 0.94608 0.42376 0.88178 0.0
C237 C 0.92397 0.43509 0.87156 0.0
C238 C 0.91627 0.46506 0.87295 0.0
C239 C 0.93119 0.48348 0.88371 0.0
H240 H 0.48969 0.55636 0.20103 0.0
H241 H 0.45654 0.58993 0.2153 0.0
H242 H 0.38253 0.55587 0.18821 0.0
H243 H 0.4156 0.52138 0.17433 0.0
H244 H 0.49512 0.49901 0.19822 0.0
H245 H 0.46758 0.57862 0.16065 0.0
H246 H 0.43535 0.60771 0.14303 0.0
H247 H 0.40844 0.52783 0.11857 0.0
H248 H 0.43937 0.49904 0.13663 0.0
H249 H 0.50565 0.4432 0.13647 0.0
H250 H 0.54105 0.41645 0.11973 0.0
H251 H 0.61319 0.45893 0.14478 0.0
H252 H 0.57747 0.48582 0.16156 0.0
H253 H 0.49805 0.50231 0.13847 0.0
H254 H 0.52039 0.42303 0.17187 0.0
H255 H 0.55183 0.38799 0.18572 0.0
H256 H 0.58209 0.45718 0.21767 0.0
H257 H 0.55214 0.49285 0.20272 0.0
C258 C 0.45526 0.53677 0.18636 0.0
C259 C 0.46626 0.55567 0.19836 0.0
C260 C 0.44731 0.57479 0.20653 0.0
C261 C 0.41706 0.5755 0.20277 0.0
C262 C 0.40583 0.55585 0.1912 0.0
C263 C 0.42473 0.53633 0.18322 0.0
C264 C 0.47606 0.51837 0.17687 0.0
C265 C 0.49603 0.50008 0.18516 0.0
C266 C 0.47644 0.51871 0.1598 0.0
C267 C 0.45575 0.53664 0.15 0.0
C268 C 0.45424 0.56741 0.15169 0.0
C269 C 0.43601 0.58401 0.14152 0.0
C270 C 0.41924 0.57013 0.12938 0.0
C271 C 0.42053 0.53926 0.12796 0.0
C272 C 0.4385 0.52275 0.13817 0.0
C273 C 0.53896 0.46645 0.15024 0.0
C274 C 0.52908 0.44663 0.13842 0.0
C275 C 0.54932 0.43117 0.12898 0.0
C276 C 0.57985 0.4355 0.13104 0.0
C277 C 0.58977 0.45522 0.14296 0.0
C278 C 0.56945 0.47048 0.15255 0.0
C279 C 0.5172 0.48344 0.1598 0.0
C280 C 0.49719 0.50144 0.15154 0.0
C281 C 0.51619 0.48214 0.17682 0.0
C282 C 0.53441 0.46074 0.18598 0.0
C283 C 0.53418 0.43084 0.18166 0.0
C284 C 0.55184 0.41065 0.18983 0.0
C285 C 0.56949 0.41965 0.20291 0.0
C286 C 0.56915 0.44954 0.20751 0.0
C287 C 0.5518 0.46991 0.19909 0.0
H288 H 0.51033 0.92385 0.384 0.0
H289 H 0.47866 0.89461 0.36637 0.0
H290 H 0.40138 0.93286 0.38876 0.0
H291 H 0.43335 0.96293 0.40602 0.0
H292 H 0.51331 0.98243 0.38373 0.0
H293 H 0.48891 0.90796 0.42218 0.0
H294 H 0.45423 0.87694 0.4372 0.0
H295 H 0.41949 0.95422 0.46097 0.0
H296 H 0.45347 0.98529 0.44561 0.0
H297 H 0.51438 0.05226 0.4417 0.0
H298 H 0.54748 0.08635 0.45586 0.0
H299 H 0.62286 0.04118 0.43543 0.0
H300 H 0.58972 0.00789 0.42107 0.0
H301 H 0.51024 0.99098 0.44333 0.0
H302 H 0.52957 0.06489 0.40301 0.0
H303 H 0.55689 0.09677 0.38441 0.0
H304 H 0.59979 0.02021 0.36408 0.0
H305 H 0.57284 0.98857 0.38285 0.0
C306 C 0.47423 0.94554 0.39633 0.0
C307 C 0.48656 0.92571 0.38523 0.0
C308 C 0.4684 0.90879 0.37526 0.0
C309 C 0.43747 0.91139 0.37616 0.0
C310 C 0.42513 0.93055 0.38768 0.0
C311 C 0.44336 0.94755 0.39765 0.0
C312 C 0.49376 0.96571 0.40555 0.0
C313 C 0.51298 0.98389 0.39679 0.0
C314 C 0.49267 0.96824 0.42256 0.0
C315 C 0.47339 0.94905 0.43252 0.0
C316 C 0.47373 0.91827 0.43056 0.0
C317 C 0.45407 0.90054 0.43919 0.0
C318 C 0.43422 0.91323 0.4502 0.0
C319 C 0.43478 0.94387 0.45267 0.0
C320 C 0.45414 0.96162 0.44387 0.0
C321 C 0.54964 0.0278 0.43023 0.0
C322 C 0.53806 0.04982 0.4403 0.0
C323 C 0.557 0.0692 0.4484 0.0
C324 C 0.58783 0.06667 0.44668 0.0
C325 C 0.59924 0.04424 0.43674 0.0
C326 C 0.58035 0.02506 0.42858 0.0
C327 C 0.52977 0.00745 0.42145 0.0
C328 C 0.51059 0.98929 0.43028 0.0
C329 C 0.53085 0.0048 0.40449 0.0
C330 C 0.54929 0.02439 0.39434 0.0
C331 C 0.54528 0.05506 0.39475 0.0
C332 C 0.56071 0.07321 0.38405 0.0
C333 C 0.58042 0.06096 0.37278 0.0
C334 C 0.58501 0.03032 0.37275 0.0
C335 C 0.56949 0.0122 0.38338 0.0
H336 H 0.99794 0.05503 0.69582 0.0
H337 H 0.96777 0.08957 0.71143 0.0
H338 H 0.88857 0.04642 0.69437 0.0
H339 H 0.9189 0.01171 0.67886 0.0
H340 H 0.00292 0.99418 0.69593 0.0
H341 H 0.97101 0.07133 0.65951 0.0
H342 H 0.93917 0.10247 0.64282 0.0
H343 H 0.90091 0.02448 0.62126 0.0
H344 H 0.93187 0.99363 0.63838 0.0
H345 H 0.9973 0.93769 0.63282 0.0
H346 H 0.02811 0.91213 0.61307 0.0
H347 H 0.10652 0.94613 0.63617 0.0
H348 H 0.07562 0.97274 0.65566 0.0
H349 H 0.99105 0.993 0.63651 0.0
H350 H 0.02379 0.91562 0.6702 0.0
H351 H 0.05872 0.88299 0.68354 0.0
H352 H 0.09352 0.95691 0.71052 0.0
H353 H 0.05978 0.98985 0.69622 0.0
C354 C 0.96061 0.03107 0.68608 0.0
C355 C 0.9741 0.05279 0.69561 0.0
C356 C 0.95688 0.07256 0.70443 0.0
C357 C 0.92588 0.07072 0.70399 0.0
C358 C 0.91242 0.04819 0.69497 0.0
C359 C 0.92968 0.02854 0.68604 0.0
C360 C 0.97896 0.01189 0.67572 0.0
C361 C 0.00058 0.99402 0.68291 0.0
C362 C 0.97523 0.01115 0.65881 0.0
C363 C 0.95371 0.03015 0.65024 0.0
C364 C 0.95518 0.06098 0.6515 0.0
C365 C 0.93719 0.07874 0.64183 0.0
C366 C 0.91758 0.06597 0.63065 0.0
C367 C 0.91543 0.03507 0.62988 0.0
C368 C 0.93331 0.01738 0.63957 0.0
C369 C 0.03409 0.95713 0.64577 0.0
C370 C 0.02111 0.93965 0.6337 0.0
C371 C 0.03867 0.92504 0.62244 0.0
C372 C 0.06957 0.92734 0.62313 0.0
C373 C 0.0827 0.94394 0.6355 0.0
C374 C 0.06507 0.95901 0.64665 0.0
C375 C 0.01499 0.97488 0.65663 0.0
C376 C 0.99331 0.99274 0.64953 0.0
C377 C 0.01845 0.97521 0.67361 0.0
C378 C 0.03943 0.9553 0.682 0.0
C379 C 0.03927 0.92493 0.67878 0.0
C380 C 0.05901 0.90619 0.68662 0.0
C381 C 0.07891 0.91726 0.69819 0.0
C382 C 0.07883 0.94767 0.70153 0.0
C383 C 0.05931 0.9665 0.69349 0.0
In384 In 0.30687 0.68589 0.00386 0.0
O385 O 0.30009 0.73229 0.01399 0.0
O386 O 0.34018 0.72306 0.00159 0.0
C387 C 0.25047 0.67033 0.99729 0.0
C388 C 0.3266 0.6626 0.03185 0.0
C389 C 0.33131 0.66735 0.97606 0.0
O390 O 0.25914 0.69671 0.99634 0.0
O391 O 0.26986 0.65239 0.00196 0.0
O392 O 0.32992 0.65146 0.98853 0.0
O393 O 0.32044 0.69285 0.9776 0.0
C394 C 0.32497 0.74159 0.00933 0.0
O395 O 0.33944 0.6586 0.01854 0.0
O396 O 0.30353 0.6781 0.03106 0.0
In397 In 0.30768 0.8166 0.25048 0.0
O398 O 0.29917 0.76768 0.24537 0.0
O399 O 0.34364 0.78254 0.24678 0.0
C400 C 0.25174 0.83423 0.25626 0.0
C401 C 0.32102 0.84349 0.22241 0.0
C402 C 0.3347 0.82997 0.27864 0.0
O403 O 0.25914 0.80741 0.25648 0.0
O404 O 0.27233 0.8518 0.25274 0.0
O405 O 0.34393 0.83879 0.26515 0.0
O406 O 0.31193 0.81397 0.27798 0.0
C407 C 0.32627 0.76125 0.24441 0.0
O408 O 0.32893 0.85333 0.23597 0.0
O409 O 0.30569 0.82025 0.22297 0.0
In410 In 0.19723 0.80306 0.50455 0.0
O411 O 0.16038 0.8105 0.5227 0.0
O412 O 0.20082 0.83335 0.52652 0.0
C413 C 0.16531 0.8192 0.47851 0.0
C414 C 0.19198 0.74566 0.5124 0.0
C415 C 0.25193 0.82234 0.49689 0.0
O416 O 0.16124 0.82991 0.49236 0.0
O417 O 0.1851 0.79963 0.4778 0.0
O418 O 0.2469 0.79565 0.50022 0.0
O419 O 0.22968 0.8389 0.49775 0.0
C420 C 0.17492 0.82811 0.53141 0.0
O421 O 0.20587 0.76392 0.52103 0.0
O422 O 0.18214 0.75602 0.49934 0.0
In423 In 0.19557 0.69798 0.75671 0.0
O424 O 0.15661 0.67686 0.76965 0.0
O425 O 0.18731 0.70094 0.78386 0.0
C426 C 0.17124 0.67241 0.73047 0.0
C427 C 0.24942 0.6758 0.76349 0.0
C428 C 0.19363 0.75552 0.74868 0.0
O429 O 0.15829 0.69208 0.73857 0.0
O430 O 0.19645 0.66532 0.73569 0.0
O431 O 0.20591 0.73632 0.73995 0.0
O432 O 0.1838 0.74593 0.76191 0.0
C433 C 0.16418 0.6854 0.78352 0.0
O434 O 0.24586 0.70245 0.75954 0.0
O435 O 0.22608 0.66067 0.7637 0.0
In436 In 0.80892 0.19199 0.50705 0.0
O437 O 0.80008 0.23779 0.51759 0.0
O438 O 0.83888 0.23181 0.50361 0.0
C439 C 0.7536 0.17207 0.50146 0.0
C440 C 0.82755 0.1665 0.53467 0.0
C441 C 0.83567 0.1761 0.47936 0.0
O442 O 0.76081 0.1986 0.49912 0.0
O443 O 0.77396 0.15614 0.50704 0.0
O444 O 0.84647 0.17068 0.49308 0.0
O445 O 0.81158 0.19015 0.47959 0.0
C446 C 0.82342 0.24905 0.51201 0.0
O447 O 0.83534 0.1576 0.52091 0.0
O448 O 0.81012 0.18819 0.53454 0.0
In449 In 0.80685 0.30122 0.75297 0.0
O450 O 0.83249 0.33752 0.73998 0.0
O451 O 0.81333 0.30383 0.72567 0.0
C452 C 0.83239 0.31967 0.78059 0.0
C453 C 0.81837 0.24314 0.74953 0.0
C454 C 0.7503 0.31871 0.75651 0.0
O455 O 0.80507 0.31444 0.77945 0.0
O456 O 0.84701 0.31493 0.76788 0.0
O457 O 0.75891 0.29332 0.7606 0.0
O458 O 0.77001 0.33472 0.75029 0.0
C459 C 0.82836 0.3272 0.72605 0.0
O460 O 0.79779 0.2559 0.74204 0.0
O461 O 0.83244 0.25944 0.75915 0.0
In462 In 0.69036 0.31579 0.00792 0.0
O463 O 0.69693 0.26545 0.00727 0.0
O464 O 0.65966 0.28268 0.01959 0.0
C465 C 0.74568 0.33516 0.00184 0.0
C466 C 0.67639 0.34356 0.03555 0.0
C467 C 0.6615 0.32943 0.9803 0.0
O468 O 0.74038 0.30849 0.00508 0.0
O469 O 0.72335 0.35169 0.00205 0.0
O470 O 0.65883 0.34383 0.99318 0.0
O471 O 0.67837 0.30739 0.98132 0.0
C472 C 0.67409 0.26018 0.01551 0.0
O473 O 0.66079 0.34482 0.02296 0.0
O474 O 0.69963 0.32823 0.03427 0.0
In475 In 0.69479 0.19166 0.2518 0.0
O476 O 0.67128 0.15396 0.26462 0.0
O477 O 0.68121 0.19235 0.27829 0.0
C478 C 0.66972 0.17 0.22477 0.0
C479 C 0.7516 0.17704 0.25793 0.0
C480 C 0.68271 0.2491 0.2465 0.0
O481 O 0.65556 0.17345 0.23775 0.0
O482 O 0.6966 0.17742 0.22543 0.0
O483 O 0.70183 0.23517 0.2385 0.0
O484 O 0.6703 0.23433 0.25743 0.0
C485 C 0.67013 0.16683 0.2781 0.0
O486 O 0.74007 0.20049 0.26311 0.0
O487 O 0.73482 0.16158 0.24924 0.0
C488 C 0.12486 0.89483 0.31024 0.0
C489 C 0.09948 0.90554 0.30251 0.0
C490 C 0.14719 0.88056 0.30154 0.0
C491 C 0.14392 0.87656 0.28471 0.0
C492 C 0.11759 0.88573 0.27697 0.0
C493 C 0.09569 0.90025 0.28597 0.0
C494 C 0.17492 0.87109 0.31026 0.0
C495 C 0.11318 0.88149 0.25908 0.0
C496 C 0.21689 0.87505 0.26253 0.0
C497 C 0.22228 0.84471 0.26133 0.0
C498 C 0.19073 0.88569 0.26943 0.0
C499 C 0.16933 0.86547 0.27514 0.0
C500 C 0.17384 0.83481 0.27307 0.0
C501 C 0.2004 0.82476 0.26624 0.0
C502 C 0.18681 0.91856 0.27144 0.0
C503 C 0.15129 0.81264 0.27879 0.0
H504 H 0.12759 0.89825 0.3231 0.0
H505 H 0.07618 0.90856 0.2799 0.0
H506 H 0.17976 0.84757 0.30772 0.0
H507 H 0.194 0.88418 0.30584 0.0
H508 H 0.17319 0.8741 0.32352 0.0
H509 H 0.09006 0.88607 0.25533 0.0
H510 H 0.12808 0.89657 0.25239 0.0
H511 H 0.11897 0.85864 0.25549 0.0
H512 H 0.23367 0.89059 0.25868 0.0
H513 H 0.20442 0.80127 0.26525 0.0
H514 H 0.18714 0.92425 0.28446 0.0
H515 H 0.16509 0.92559 0.26658 0.0
H516 H 0.20446 0.93133 0.26529 0.0
H517 H 0.15106 0.81218 0.29216 0.0
H518 H 0.15619 0.79005 0.27434 0.0
H519 H 0.12881 0.819 0.27474 0.0
C520 C 0.08567 0.63231 0.54933 0.0
C521 C 0.09562 0.60419 0.5538 0.0
C522 C 0.10462 0.65261 0.54192 0.0
C523 C 0.13415 0.64441 0.53849 0.0
C524 C 0.14414 0.61576 0.54242 0.0
C525 C 0.12485 0.59607 0.55018 0.0
C526 C 0.09314 0.68307 0.53804 0.0
C527 C 0.17532 0.6061 0.53867 0.0
C528 C 0.16901 0.69617 0.50821 0.0
C529 C 0.18314 0.71635 0.51844 0.0
C530 C 0.15495 0.67108 0.51447 0.0
C531 C 0.15455 0.66652 0.53136 0.0
C532 C 0.17059 0.68573 0.5416 0.0
C533 C 0.18497 0.71028 0.53498 0.0
C534 C 0.13879 0.65063 0.50312 0.0
C535 C 0.17046 0.68187 0.55968 0.0
H536 H 0.06296 0.63858 0.55165 0.0
H537 H 0.1329 0.57453 0.5537 0.0
H538 H 0.10662 0.69993 0.54437 0.0
H539 H 0.0951 0.68735 0.52492 0.0
H540 H 0.06965 0.68599 0.54161 0.0
H541 H 0.17885 0.58231 0.54119 0.0
H542 H 0.18052 0.61038 0.52581 0.0
H543 H 0.19119 0.61906 0.546 0.0
H544 H 0.16775 0.70068 0.4954 0.0
H545 H 0.19586 0.72583 0.54295 0.0
H546 H 0.11465 0.65444 0.50416 0.0
H547 H 0.14304 0.62728 0.50633 0.0
H548 H 0.14537 0.65424 0.49037 0.0
H549 H 0.1481 0.68702 0.56442 0.0
H550 H 0.18669 0.69654 0.56575 0.0
H551 H 0.17547 0.65872 0.56296 0.0
C552 C 0.39185 0.61728 0.80871 0.0
C553 C 0.40801 0.5969 0.79957 0.0
C554 C 0.36793 0.63252 0.80195 0.0
C555 C 0.36026 0.62745 0.78563 0.0
C556 C 0.37756 0.60812 0.77611 0.0
C557 C 0.40113 0.59286 0.78325 0.0
C558 C 0.3498 0.65267 0.81255 0.0
C559 C 0.37033 0.60249 0.7586 0.0
C560 C 0.27924 0.63508 0.77515 0.0
C561 C 0.2782 0.6633 0.76831 0.0
C562 C 0.30589 0.62314 0.78066 0.0
C563 C 0.33227 0.63967 0.77912 0.0
C564 C 0.33154 0.66791 0.77187 0.0
C565 C 0.30439 0.67953 0.76664 0.0
C566 C 0.30568 0.59304 0.78847 0.0
C567 C 0.35934 0.68593 0.76984 0.0
H568 H 0.39701 0.62022 0.82138 0.0
H569 H 0.41387 0.57733 0.77614 0.0
H570 H 0.3466 0.67435 0.80663 0.0
H571 H 0.32757 0.64291 0.81444 0.0
H572 H 0.36022 0.65629 0.82452 0.0
H573 H 0.388 0.58983 0.7524 0.0
H574 H 0.34941 0.58982 0.75773 0.0
H575 H 0.36695 0.62363 0.75214 0.0
H576 H 0.25903 0.62247 0.77651 0.0
H577 H 0.30365 0.70132 0.76131 0.0
H578 H 0.31376 0.59475 0.80107 0.0
H579 H 0.32085 0.57799 0.78194 0.0
H580 H 0.28329 0.58299 0.78862 0.0
H581 H 0.3687 0.69141 0.78184 0.0
H582 H 0.35527 0.70677 0.76318 0.0
H583 H 0.37627 0.67295 0.76327 0.0
C584 C 0.39385 0.89833 0.03598 0.0
C585 C 0.41553 0.89159 0.04748 0.0
C586 C 0.37701 0.87592 0.02874 0.0
C587 C 0.38173 0.84624 0.03332 0.0
C588 C 0.40332 0.83944 0.04512 0.0
C589 C 0.42009 0.8622 0.05197 0.0
C590 C 0.35448 0.88392 0.01605 0.0
C591 C 0.40875 0.80809 0.05049 0.0
C592 C 0.32417 0.78666 0.02662 0.0
C593 C 0.33687 0.7707 0.01391 0.0
C594 C 0.33789 0.81214 0.03266 0.0
C595 C 0.36466 0.822 0.02566 0.0
C596 C 0.37656 0.80695 0.01218 0.0
C597 C 0.36263 0.78133 0.00655 0.0
C598 C 0.32467 0.82745 0.04713 0.0
C599 C 0.40481 0.81706 0.00422 0.0
H600 H 0.39046 0.92108 0.03246 0.0
H601 H 0.43657 0.85705 0.06103 0.0
H602 H 0.36017 0.87299 0.00448 0.0
H603 H 0.3323 0.87584 0.01965 0.0
H604 H 0.35322 0.90808 0.01401 0.0
H605 H 0.42571 0.80667 0.06015 0.0
H606 H 0.38791 0.79821 0.05501 0.0
H607 H 0.4162 0.79458 0.0401 0.0
H608 H 0.30429 0.77844 0.03236 0.0
H609 H 0.37238 0.76914 0.99664 0.0
H610 H 0.32288 0.8515 0.04493 0.0
H611 H 0.33939 0.82441 0.05771 0.0
H612 H 0.30243 0.81874 0.0502 0.0
H613 H 0.40376 0.841 0.00155 0.0
H614 H 0.40931 0.80496 0.99283 0.0
H615 H 0.42367 0.81354 0.01255 0.0
C616 C 0.09215 0.60284 0.97484 0.0
C617 C 0.08905 0.60304 0.95805 0.0
C618 C 0.11608 0.61709 0.98228 0.0
C619 C 0.13777 0.63101 0.97262 0.0
C620 C 0.13408 0.63215 0.95566 0.0
C621 C 0.10952 0.61839 0.9486 0.0
C622 C 0.11887 0.61605 0.00041 0.0
C623 C 0.15702 0.64616 0.9449 0.0
C624 C 0.19752 0.68046 0.99033 0.0
C625 C 0.22091 0.66047 0.99204 0.0
C626 C 0.16986 0.67106 0.98453 0.0
C627 C 0.16596 0.64122 0.97995 0.0
C628 C 0.18952 0.62098 0.98179 0.0
C629 C 0.21656 0.63079 0.98801 0.0
C630 C 0.14497 0.69304 0.98313 0.0
C631 C 0.18649 0.58909 0.97675 0.0
H632 H 0.07614 0.59102 0.98211 0.0
H633 H 0.10715 0.61825 0.93558 0.0
H634 H 0.13708 0.60092 0.00381 0.0
H635 H 0.12446 0.63819 0.00524 0.0
H636 H 0.09822 0.60823 0.00626 0.0
H637 H 0.14973 0.64721 0.93212 0.0
H638 H 0.1622 0.6688 0.94908 0.0
H639 H 0.1778 0.63321 0.94549 0.0
H640 H 0.20085 0.70341 0.99351 0.0
H641 H 0.23467 0.6153 0.98921 0.0
H642 H 0.12502 0.68461 0.98939 0.0
H643 H 0.13901 0.69611 0.97027 0.0
H644 H 0.15091 0.71484 0.98832 0.0
H645 H 0.16814 0.57849 0.98345 0.0
H646 H 0.20701 0.57626 0.97892 0.0
H647 H 0.18099 0.58781 0.96372 0.0
C648 C 0.39832 0.60347 0.22666 0.0
C649 C 0.398 0.59845 0.20999 0.0
C650 C 0.3835 0.62773 0.23335 0.0
C651 C 0.36859 0.64767 0.22304 0.0
C652 C 0.36707 0.64189 0.20628 0.0
C653 C 0.38164 0.61718 0.19996 0.0
C654 C 0.38511 0.63284 0.25131 0.0
C655 C 0.35177 0.66284 0.19487 0.0
C656 C 0.31787 0.70742 0.23945 0.0
C657 C 0.33705 0.73168 0.23988 0.0
C658 C 0.32796 0.67959 0.23441 0.0
C659 C 0.35771 0.67626 0.22945 0.0
C660 C 0.37719 0.70067 0.23005 0.0
C661 C 0.36667 0.728 0.23539 0.0
C662 C 0.30676 0.65389 0.2342 0.0
C663 C 0.40899 0.69813 0.22467 0.0
H664 H 0.41081 0.5888 0.2344 0.0
H665 H 0.38164 0.61343 0.18705 0.0
H666 H 0.39976 0.65192 0.25384 0.0
H667 H 0.36293 0.63825 0.25619 0.0
H668 H 0.3939 0.61334 0.25783 0.0
H669 H 0.35024 0.6538 0.18244 0.0
H670 H 0.32917 0.66794 0.19921 0.0
H671 H 0.36419 0.68393 0.19441 0.0
H672 H 0.29498 0.7102 0.24298 0.0
H673 H 0.38155 0.74673 0.23566 0.0
H674 H 0.31614 0.63515 0.2411 0.0
H675 H 0.30345 0.6462 0.22163 0.0
H676 H 0.2849 0.6597 0.2394 0.0
H677 H 0.42053 0.68099 0.23182 0.0
H678 H 0.42126 0.71922 0.22597 0.0
H679 H 0.40987 0.69121 0.21184 0.0
C680 C 0.39359 0.87614 0.44921 0.0
C681 C 0.41157 0.895 0.45832 0.0
C682 C 0.36951 0.86161 0.45628 0.0
C683 C 0.36357 0.8658 0.47288 0.0
C684 C 0.38273 0.88344 0.48233 0.0
C685 C 0.4064 0.89808 0.4749 0.0
C686 C 0.34937 0.8433 0.44574 0.0
C687 C 0.37739 0.88806 0.50012 0.0
C688 C 0.28321 0.86207 0.48534 0.0
C689 C 0.281 0.83345 0.49157 0.0
C690 C 0.31004 0.87285 0.47937 0.0
C691 C 0.33545 0.8547 0.47985 0.0
C692 C 0.3336 0.826 0.48648 0.0
C693 C 0.30626 0.81559 0.49217 0.0
C694 C 0.311 0.90348 0.47224 0.0
C695 C 0.36039 0.80626 0.48738 0.0
H696 H 0.39744 0.87396 0.43636 0.0
H697 H 0.42053 0.91244 0.48197 0.0
H698 H 0.34537 0.82142 0.45128 0.0
H699 H 0.32763 0.85444 0.44461 0.0
H700 H 0.35858 0.83999 0.43346 0.0
H701 H 0.39635 0.89912 0.50613 0.0
H702 H 0.35742 0.90189 0.50185 0.0
H703 H 0.37324 0.86666 0.50619 0.0
H704 H 0.26373 0.87594 0.4848 0.0
H705 H 0.30462 0.79348 0.49703 0.0
H706 H 0.31794 0.9023 0.45942 0.0
H707 H 0.32755 0.91713 0.4787 0.0
H708 H 0.28925 0.91479 0.47287 0.0
H709 H 0.36838 0.8012 0.47505 0.0
H710 H 0.35561 0.78518 0.49368 0.0
H711 H 0.37861 0.81771 0.4938 0.0
C712 C 0.08958 0.8688 0.71136 0.0
C713 C 0.09929 0.89696 0.70684 0.0
C714 C 0.10869 0.84875 0.71883 0.0
C715 C 0.13817 0.85722 0.72221 0.0
C716 C 0.14795 0.88591 0.71818 0.0
C717 C 0.12846 0.90538 0.71041 0.0
C718 C 0.09739 0.81827 0.72286 0.0
C719 C 0.17909 0.89583 0.72185 0.0
C720 C 0.17249 0.80578 0.75273 0.0
C721 C 0.18611 0.78514 0.74258 0.0
C722 C 0.15896 0.83105 0.74636 0.0
C723 C 0.15867 0.83536 0.72946 0.0
C724 C 0.17452 0.81585 0.71932 0.0
C725 C 0.18829 0.79106 0.72604 0.0
C726 C 0.14297 0.8518 0.75761 0.0
C727 C 0.17459 0.81952 0.70123 0.0
H728 H 0.06691 0.86232 0.70906 0.0
H729 H 0.13628 0.92699 0.70684 0.0
H730 H 0.11095 0.8014 0.71659 0.0
H731 H 0.09944 0.8142 0.73599 0.0
H732 H 0.07391 0.81513 0.71932 0.0
H733 H 0.18248 0.91959 0.71919 0.0
H734 H 0.18438 0.8918 0.73472 0.0
H735 H 0.19499 0.88283 0.71456 0.0
H736 H 0.17099 0.80142 0.76555 0.0
H737 H 0.19886 0.77519 0.71814 0.0
H738 H 0.11881 0.84794 0.75669 0.0
H739 H 0.14717 0.87508 0.75422 0.0
H740 H 0.1497 0.84851 0.77036 0.0
H741 H 0.15236 0.81403 0.69642 0.0
H742 H 0.19106 0.80495 0.69529 0.0
H743 H 0.17939 0.84268 0.69788 0.0
C744 C 0.62948 0.39334 0.80798 0.0
C745 C 0.60337 0.40285 0.8005 0.0
C746 C 0.65048 0.37675 0.79955 0.0
C747 C 0.64498 0.36886 0.78331 0.0
C748 C 0.61785 0.37669 0.77598 0.0
C749 C 0.59743 0.39384 0.78462 0.0
C750 C 0.6792 0.36893 0.80781 0.0
C751 C 0.61097 0.36809 0.7588 0.0
C752 C 0.71533 0.36065 0.75925 0.0
C753 C 0.72085 0.33038 0.76072 0.0
C754 C 0.68975 0.37324 0.76579 0.0
C755 C 0.66897 0.35501 0.77374 0.0
C756 C 0.67329 0.32412 0.77413 0.0
C757 C 0.6994 0.31214 0.76773 0.0
C758 C 0.6861 0.40633 0.76522 0.0
C759 C 0.65122 0.30392 0.78213 0.0
H760 H 0.63385 0.39947 0.82039 0.0
H761 H 0.57736 0.40113 0.77871 0.0
H762 H 0.68318 0.34485 0.80708 0.0
H763 H 0.69785 0.38003 0.80159 0.0
H764 H 0.67946 0.37561 0.8207 0.0
H765 H 0.58735 0.37181 0.75574 0.0
H766 H 0.62475 0.38134 0.75045 0.0
H767 H 0.61638 0.34455 0.75668 0.0
H768 H 0.7318 0.37483 0.75378 0.0
H769 H 0.70349 0.28868 0.76876 0.0
H770 H 0.68811 0.41549 0.77758 0.0
H771 H 0.66384 0.41222 0.76065 0.0
H772 H 0.70295 0.41707 0.75745 0.0
H773 H 0.65281 0.30636 0.79541 0.0
H774 H 0.6552 0.28043 0.77902 0.0
H775 H 0.62834 0.30987 0.77857 0.0
C776 C 0.62696 0.10334 0.05148 0.0
C777 C 0.59871 0.09696 0.04552 0.0
C778 C 0.64318 0.12726 0.04538 0.0
C779 C 0.63086 0.14479 0.03295 0.0
C780 C 0.60339 0.13678 0.02602 0.0
C781 C 0.58749 0.1131 0.03252 0.0
C782 C 0.67227 0.13519 0.05317 0.0
C783 C 0.58971 0.15456 0.01257 0.0
C784 C 0.64439 0.22704 0.0329 0.0
C785 C 0.66473 0.2303 0.0203 0.0
C786 C 0.6341 0.19918 0.03744 0.0
C787 C 0.644 0.17392 0.029 0.0
C788 C 0.66497 0.17695 0.01642 0.0
C789 C 0.67532 0.20521 0.01229 0.0
C790 C 0.61209 0.1969 0.0511 0.0
C791 C 0.67572 0.15053 0.00705 0.0
H792 H 0.63551 0.09085 0.06159 0.0
H793 H 0.5657 0.10789 0.02786 0.0
H794 H 0.68902 0.14087 0.04392 0.0
H795 H 0.66919 0.1549 0.06092 0.0
H796 H 0.68096 0.11698 0.06075 0.0
H797 H 0.5707 0.14295 0.00694 0.0
H798 H 0.58177 0.17594 0.01742 0.0
H799 H 0.60633 0.15944 0.00311 0.0
H800 H 0.6364 0.24638 0.03923 0.0
H801 H 0.69104 0.20773 0.00253 0.0
H802 H 0.6201 0.18107 0.0603 0.0
H803 H 0.59071 0.18843 0.04645 0.0
H804 H 0.60807 0.21847 0.05706 0.0
H805 H 0.68393 0.13327 0.01538 0.0
H806 H 0.69364 0.15633 0.99846 0.0
H807 H 0.65707 0.14083 0.00016 0.0
C808 C 0.86667 0.08421 0.30489 0.0
C809 C 0.89681 0.089 0.3021 0.0
C810 C 0.84518 0.10103 0.29697 0.0
C811 C 0.85406 0.12295 0.28584 0.0
C812 C 0.8845 0.12803 0.28302 0.0
C813 C 0.90559 0.11108 0.2913 0.0
C814 C 0.81293 0.09522 0.30049 0.0
C815 C 0.89473 0.15096 0.27108 0.0
C816 C 0.79347 0.14154 0.25611 0.0
C817 C 0.78082 0.16647 0.26331 0.0
C818 C 0.81867 0.12825 0.26273 0.0
C819 C 0.83119 0.13998 0.277 0.0
C820 C 0.81953 0.16617 0.28377 0.0
C821 C 0.79454 0.17924 0.27676 0.0
C822 C 0.83077 0.10062 0.255 0.0
C823 C 0.83215 0.17924 0.29905 0.0
H824 H 0.85992 0.06739 0.31341 0.0
H825 H 0.92893 0.11465 0.28909 0.0
H826 H 0.80202 0.1158 0.30459 0.0
H827 H 0.80152 0.08795 0.28932 0.0
H828 H 0.8098 0.07804 0.30987 0.0
H829 H 0.91921 0.15265 0.27055 0.0
H830 H 0.88634 0.1454 0.25888 0.0
H831 H 0.88557 0.17285 0.27432 0.0
H832 H 0.78303 0.13174 0.24562 0.0
H833 H 0.7848 0.19852 0.28237 0.0
H834 H 0.82583 0.08136 0.26279 0.0
H835 H 0.85514 0.10206 0.25378 0.0
H836 H 0.82103 0.09655 0.2429 0.0
H837 H 0.82711 0.16447 0.30935 0.0
H838 H 0.82285 0.20138 0.30169 0.0
H839 H 0.85654 0.18107 0.29821 0.0
C840 C 0.91642 0.371 0.55386 0.0
C841 C 0.91001 0.40056 0.55053 0.0
C842 C 0.90002 0.34821 0.54679 0.0
C843 C 0.87688 0.35519 0.53594 0.0
C844 C 0.87034 0.38503 0.53248 0.0
C845 C 0.88687 0.40744 0.53994 0.0
C846 C 0.90743 0.31666 0.55097 0.0
C847 C 0.84612 0.39324 0.5208 0.0
C848 C 0.85784 0.29141 0.50839 0.0
C849 C 0.83379 0.2788 0.51649 0.0
C850 C 0.87092 0.3175 0.51401 0.0
C851 C 0.85994 0.33095 0.52819 0.0
C852 C 0.83464 0.31918 0.53591 0.0
C853 C 0.82171 0.29329 0.52988 0.0
C854 C 0.89754 0.32969 0.50528 0.0
C855 C 0.82244 0.33275 0.55115 0.0
H856 H 0.93405 0.36571 0.56224 0.0
H857 H 0.88203 0.43035 0.53732 0.0
H858 H 0.88763 0.30542 0.55592 0.0
H859 H 0.91413 0.30453 0.53994 0.0
H860 H 0.9256 0.31506 0.55994 0.0
H861 H 0.84375 0.41748 0.51946 0.0
H862 H 0.85082 0.38353 0.50878 0.0
H863 H 0.82471 0.38401 0.52492 0.0
H864 H 0.86709 0.28036 0.49795 0.0
H865 H 0.80313 0.28355 0.53618 0.0
H866 H 0.91762 0.32617 0.51271 0.0
H867 H 0.89515 0.35378 0.50342 0.0
H868 H 0.90095 0.31894 0.49338 0.0
H869 H 0.83838 0.3294 0.56115 0.0
H870 H 0.80092 0.32288 0.55468 0.0
H871 H 0.81949 0.35685 0.54965 0.0
C872 C 0.63404 0.09696 0.4478 0.0
C873 C 0.60827 0.08683 0.45539 0.0
C874 C 0.65515 0.11342 0.45627 0.0
C875 C 0.65018 0.12037 0.47269 0.0
C876 C 0.62347 0.1117 0.48019 0.0
C877 C 0.60289 0.09483 0.47148 0.0
C878 C 0.6834 0.1222 0.44783 0.0
C879 C 0.61722 0.11911 0.4976 0.0
C880 C 0.72061 0.12904 0.49679 0.0
C881 C 0.72496 0.15961 0.49629 0.0
C882 C 0.69561 0.11611 0.48977 0.0
C883 C 0.67424 0.13425 0.48224 0.0
C884 C 0.67755 0.16528 0.4826 0.0
C885 C 0.70305 0.17763 0.48954 0.0
C886 C 0.693 0.0829 0.48957 0.0
C887 C 0.65491 0.18533 0.47498 0.0
H888 H 0.63801 0.09151 0.43526 0.0
H889 H 0.58311 0.087 0.47747 0.0
H890 H 0.68713 0.14627 0.44903 0.0
H891 H 0.70243 0.11092 0.45358 0.0
H892 H 0.68315 0.11644 0.43481 0.0
H893 H 0.59396 0.11427 0.50099 0.0
H894 H 0.63201 0.10606 0.50552 0.0
H895 H 0.6218 0.14274 0.49999 0.0
H896 H 0.73743 0.11499 0.50204 0.0
H897 H 0.70625 0.20131 0.48921 0.0
H898 H 0.6948 0.07479 0.47698 0.0
H899 H 0.67109 0.07598 0.49421 0.0
H900 H 0.71044 0.07209 0.4969 0.0
H901 H 0.656 0.1832 0.46167 0.0
H902 H 0.65861 0.20882 0.47821 0.0
H903 H 0.63227 0.17891 0.47874 0.0
C904 C 0.88367 0.08539 0.72188 0.0
C905 C 0.90772 0.09338 0.71215 0.0
C906 C 0.86628 0.10699 0.72946 0.0
C907 C 0.87294 0.13715 0.72701 0.0
C908 C 0.89711 0.14525 0.71712 0.0
C909 C 0.91427 0.12325 0.70988 0.0
C910 C 0.84089 0.0976 0.74008 0.0
C911 C 0.90473 0.17719 0.71405 0.0
C912 C 0.81747 0.19888 0.73171 0.0
C913 C 0.82808 0.21292 0.74562 0.0
C914 C 0.83066 0.1729 0.72603 0.0
C915 C 0.85475 0.1606 0.73459 0.0
C916 C 0.86388 0.17336 0.74936 0.0
C917 C 0.85053 0.19953 0.75465 0.0
C918 C 0.82036 0.16002 0.7102 0.0
C919 C 0.88915 0.1606 0.75897 0.0
H920 H 0.87871 0.06225 0.72369 0.0
H921 H 0.93258 0.12944 0.70216 0.0
H922 H 0.84389 0.10667 0.7524 0.0
H923 H 0.81984 0.10665 0.73533 0.0
H924 H 0.83888 0.07324 0.7409 0.0
H925 H 0.92408 0.17971 0.70592 0.0
H926 H 0.88556 0.18864 0.70854 0.0
H927 H 0.90972 0.18846 0.72561 0.0
H928 H 0.80006 0.20913 0.7247 0.0
H929 H 0.85861 0.2102 0.7655 0.0
H930 H 0.81765 0.1358 0.71116 0.0
H931 H 0.83729 0.16425 0.7008 0.0
H932 H 0.7991 0.16978 0.70614 0.0
H933 H 0.8868 0.13635 0.76009 0.0
H934 H 0.89056 0.17033 0.77125 0.0
H935 H 0.91028 0.16499 0.75262 0.0
C936 C 0.89957 0.40531 0.97217 0.0
C937 C 0.89641 0.40848 0.95543 0.0
C938 C 0.87833 0.39003 0.98125 0.0
C939 C 0.85342 0.37779 0.97337 0.0
C940 C 0.85119 0.37927 0.95637 0.0
C941 C 0.87274 0.39457 0.94761 0.0
C942 C 0.8816 0.38866 0.99934 0.0
C943 C 0.82504 0.36636 0.94749 0.0
C944 C 0.79821 0.32653 0.99349 0.0
C945 C 0.77496 0.34608 0.99674 0.0
C946 C 0.8247 0.33668 0.98659 0.0
C947 C 0.82779 0.36698 0.98287 0.0
C948 C 0.80495 0.38695 0.98694 0.0
C949 C 0.77884 0.37625 0.99383 0.0
C950 C 0.84872 0.31481 0.98255 0.0
C951 C 0.80739 0.41947 0.98324 0.0
H952 H 0.91779 0.4161 0.97828 0.0
H953 H 0.87057 0.39646 0.93463 0.0
H954 H 0.86558 0.40399 0.00502 0.0
H955 H 0.87659 0.36619 0.00384 0.0
H956 H 0.9042 0.39493 0.00332 0.0
H957 H 0.82811 0.3668 0.9342 0.0
H958 H 0.82119 0.34326 0.95131 0.0
H959 H 0.80485 0.37912 0.9505 0.0
H960 H 0.7953 0.30318 0.99576 0.0
H961 H 0.76102 0.39149 0.99644 0.0
H962 H 0.87056 0.32314 0.98659 0.0
H963 H 0.84986 0.31183 0.96929 0.0
H964 H 0.84468 0.29296 0.98818 0.0
H965 H 0.82823 0.42854 0.98826 0.0
H966 H 0.78856 0.4323 0.98821 0.0
H967 H 0.80802 0.42277 0.96999 0.0
C968 C 0.61656 0.40514 0.21706 0.0
C969 C 0.58814 0.39772 0.21155 0.0
C970 C 0.63487 0.38392 0.22429 0.0
C971 C 0.62478 0.35451 0.22568 0.0
C972 C 0.59593 0.34705 0.22048 0.0
C973 C 0.57785 0.36882 0.21374 0.0
C974 C 0.66523 0.39279 0.23009 0.0
C975 C 0.58439 0.31585 0.22161 0.0
C976 C 0.67657 0.28911 0.2263 0.0
C977 C 0.67269 0.27892 0.2421 0.0
C978 C 0.66236 0.31478 0.22099 0.0
C979 C 0.6445 0.33094 0.23188 0.0
C980 C 0.64258 0.32206 0.2482 0.0
C981 C 0.65637 0.29585 0.25307 0.0
C982 C 0.66455 0.32321 0.20342 0.0
C983 C 0.62451 0.33923 0.26029 0.0
H984 H 0.62485 0.42732 0.21535 0.0
H985 H 0.55565 0.36302 0.21 0.0
H986 H 0.66889 0.38489 0.24259 0.0
H987 H 0.68231 0.38239 0.22237 0.0
H988 H 0.66847 0.41706 0.2298 0.0
H989 H 0.56151 0.3137 0.21688 0.0
H990 H 0.59896 0.30077 0.21469 0.0
H991 H 0.5846 0.30837 0.23434 0.0
H992 H 0.68912 0.27598 0.21779 0.0
H993 H 0.6536 0.28811 0.26534 0.0
H994 H 0.66998 0.34693 0.20216 0.0
H995 H 0.64286 0.31955 0.19749 0.0
H996 H 0.68154 0.31011 0.19692 0.0
H997 H 0.62886 0.36321 0.25913 0.0
H998 H 0.62929 0.33236 0.27287 0.0
H999 H 0.60065 0.33564 0.25791 0.0
C1000 C 0.06956 0.87946 0.40399 0.0
C1001 C 0.08456 0.9035 0.39717 0.0
C1002 C 0.08249 0.86263 0.4163 0.0
C1003 C 0.11097 0.87019 0.42203 0.0
C1004 C 0.12672 0.89363 0.41474 0.0
C1005 C 0.11337 0.90991 0.40236 0.0
C1006 C 0.06511 0.83765 0.42369 0.0
C1007 C 0.15716 0.90236 0.42051 0.0
C1008 C 0.13036 0.85443 0.46562 0.0
C1009 C 0.14963 0.8304 0.46413 0.0
C1010 C 0.11719 0.86716 0.45201 0.0
C1011 C 0.12327 0.85543 0.43654 0.0
C1012 C 0.14195 0.83055 0.435 0.0
C1013 C 0.15503 0.81837 0.44884 0.0
C1014 C 0.09747 0.89374 0.45417 0.0
C1015 C 0.14865 0.81728 0.41871 0.0
H1016 H 0.04719 0.8745 0.40018 0.0
H1017 H 0.12531 0.92809 0.39693 0.0
H1018 H 0.07891 0.81748 0.42446 0.0
H1019 H 0.05857 0.84363 0.43616 0.0
H1020 H 0.0448 0.83247 0.41671 0.0
H1021 H 0.16725 0.91973 0.41284 0.0
H1022 H 0.15578 0.91075 0.43306 0.0
H1023 H 0.17202 0.88293 0.42063 0.0
H1024 H 0.12611 0.86382 0.47742 0.0
H1025 H 0.16989 0.79976 0.44764 0.0
H1026 H 0.07552 0.88957 0.44865 0.0
H1027 H 0.10726 0.91301 0.4479 0.0
H1028 H 0.09423 0.89955 0.46706 0.0
H1029 H 0.12781 0.81221 0.41222 0.0
H1030 H 0.16195 0.79678 0.41966 0.0
H1031 H 0.16104 0.8334 0.41127 0.0
C1032 C 0.10643 0.60771 0.64738 0.0
C1033 C 0.0825 0.58927 0.65101 0.0
C1034 C 0.12245 0.62168 0.65973 0.0
C1035 C 0.11459 0.61658 0.67602 0.0
C1036 C 0.09086 0.5974 0.67971 0.0
C1037 C 0.07497 0.58416 0.66715 0.0
C1038 C 0.14734 0.64233 0.65535 0.0
C1039 C 0.08209 0.59104 0.69693 0.0
C1040 C 0.16917 0.63252 0.70972 0.0
C1041 C 0.15775 0.65877 0.71609 0.0
C1042 C 0.15566 0.61875 0.69645 0.0
C1043 C 0.13049 0.63187 0.68929 0.0
C1044 C 0.11945 0.65885 0.69539 0.0
C1045 C 0.13307 0.67185 0.70882 0.0
C1046 C 0.16778 0.58977 0.69042 0.0
C1047 C 0.09291 0.67372 0.68793 0.0
H1048 H 0.11213 0.6117 0.63487 0.0
H1049 H 0.05669 0.56956 0.66994 0.0
H1050 H 0.14234 0.66483 0.65985 0.0
H1051 H 0.16814 0.63515 0.66124 0.0
H1052 H 0.15104 0.64346 0.64212 0.0
H1053 H 0.06395 0.5746 0.69774 0.0
H1054 H 0.1014 0.58262 0.70377 0.0
H1055 H 0.07476 0.61166 0.70292 0.0
H1056 H 0.18824 0.62236 0.71534 0.0
H1057 H 0.12435 0.6923 0.71364 0.0
H1058 H 0.17273 0.5912 0.67735 0.0
H1059 H 0.15094 0.57221 0.69199 0.0
H1060 H 0.18821 0.58311 0.69689 0.0
H1061 H 0.09635 0.67663 0.67478 0.0
H1062 H 0.08837 0.69562 0.6934 0.0
H1063 H 0.07307 0.65963 0.68949 0.0
C1064 C 0.39383 0.60484 0.89203 0.0
C1065 C 0.42414 0.59907 0.8939 0.0
C1066 C 0.37732 0.6178 0.9045 0.0
C1067 C 0.39156 0.6257 0.91907 0.0
C1068 C 0.42235 0.62126 0.92076 0.0
C1069 C 0.43816 0.60771 0.90826 0.0
C1070 C 0.34445 0.62193 0.90233 0.0
C1071 C 0.43844 0.62975 0.93604 0.0
C1072 C 0.35442 0.67689 0.94919 0.0
C1073 C 0.34509 0.65686 0.961 0.0
C1074 C 0.36915 0.66708 0.93528 0.0
C1075 C 0.3741 0.63653 0.93305 0.0
C1076 C 0.36377 0.61619 0.9447 0.0
C1077 C 0.34966 0.62664 0.95861 0.0
C1078 C 0.38031 0.68943 0.92326 0.0
C1079 C 0.36817 0.58339 0.94263 0.0
H1080 H 0.38284 0.59881 0.88089 0.0
H1081 H 0.46139 0.60295 0.91005 0.0
H1082 H 0.33239 0.60763 0.91096 0.0
H1083 H 0.33813 0.64504 0.90502 0.0
H1084 H 0.33705 0.6164 0.88991 0.0
H1085 H 0.46279 0.62758 0.93482 0.0
H1086 H 0.43319 0.65284 0.93941 0.0
H1087 H 0.43103 0.61545 0.9461 0.0
H1088 H 0.35097 0.7003 0.95105 0.0
H1089 H 0.34223 0.61109 0.96766 0.0
H1090 H 0.37227 0.68398 0.91098 0.0
H1091 H 0.40482 0.68878 0.92288 0.0
H1092 H 0.37326 0.71222 0.9263 0.0
H1093 H 0.35952 0.57615 0.93075 0.0
H1094 H 0.35699 0.57045 0.95222 0.0
H1095 H 0.39211 0.57815 0.9429 0.0
C1096 C 0.41458 0.89644 0.14789 0.0
C1097 C 0.4014 0.91837 0.13839 0.0
C1098 C 0.39903 0.883 0.16052 0.0
C1099 C 0.36961 0.89178 0.16378 0.0
C1100 C 0.35572 0.91294 0.15381 0.0
C1101 C 0.37178 0.92597 0.14121 0.0
C1102 C 0.4146 0.86044 0.17086 0.0
C1103 C 0.32434 0.92276 0.15688 0.0
C1104 C 0.32592 0.84292 0.19235 0.0
C1105 C 0.33078 0.85711 0.20714 0.0
C1106 C 0.33765 0.85439 0.17799 0.0
C1107 C 0.3545 0.88069 0.17849 0.0
C1108 C 0.35849 0.89566 0.19332 0.0
C1109 C 0.34663 0.88365 0.20746 0.0
C1110 C 0.33297 0.83784 0.1624 0.0
C1111 C 0.37617 0.92386 0.19434 0.0
H1112 H 0.43755 0.89069 0.14595 0.0
H1113 H 0.36132 0.94257 0.13375 0.0
H1114 H 0.41792 0.86949 0.18317 0.0
H1115 H 0.40089 0.84028 0.17204 0.0
H1116 H 0.4365 0.85415 0.16588 0.0
H1117 H 0.31583 0.93724 0.14714 0.0
H1118 H 0.30953 0.90338 0.15802 0.0
H1119 H 0.32329 0.93503 0.16845 0.0
H1120 H 0.31368 0.82237 0.19206 0.0
H1121 H 0.35033 0.89478 0.21886 0.0
H1122 H 0.35442 0.82909 0.15803 0.0
H1123 H 0.32436 0.85288 0.15296 0.0
H1124 H 0.31734 0.81912 0.16381 0.0
H1125 H 0.3995 0.91945 0.19101 0.0
H1126 H 0.37575 0.93365 0.20662 0.0
H1127 H 0.36745 0.94031 0.18567 0.0
C1128 C 0.10161 0.59572 0.85735 0.0
C1129 C 0.07777 0.60898 0.86536 0.0
C1130 C 0.11672 0.61055 0.84502 0.0
C1131 C 0.10769 0.63928 0.84055 0.0
C1132 C 0.08453 0.65331 0.84908 0.0
C1133 C 0.06985 0.63799 0.8614 0.0
C1134 C 0.14138 0.59486 0.83624 0.0
C1135 C 0.07441 0.68399 0.84471 0.0
C1136 C 0.15996 0.68234 0.81354 0.0
C1137 C 0.14837 0.67607 0.79823 0.0
C1138 C 0.1465 0.6712 0.82753 0.0
C1139 C 0.12087 0.65349 0.82611 0.0
C1140 C 0.10853 0.64797 0.81071 0.0
C1141 C 0.12247 0.65929 0.79695 0.0
C1142 C 0.16027 0.67752 0.84375 0.0
C1143 C 0.0811 0.62931 0.8087 0.0
H1144 H 0.10765 0.57321 0.86019 0.0
H1145 H 0.05173 0.64851 0.86772 0.0
H1146 H 0.13451 0.59027 0.82364 0.0
H1147 H 0.16134 0.60904 0.83571 0.0
H1148 H 0.14739 0.57366 0.84208 0.0
H1149 H 0.05802 0.69281 0.85345 0.0
H1150 H 0.09353 0.69926 0.84419 0.0
H1151 H 0.06415 0.68369 0.83256 0.0
H1152 H 0.18001 0.6953 0.81458 0.0
H1153 H 0.11337 0.65447 0.78515 0.0
H1154 H 0.16871 0.65673 0.84907 0.0
H1155 H 0.14346 0.68646 0.85217 0.0
H1156 H 0.17886 0.69346 0.8429 0.0
H1157 H 0.08561 0.6065 0.81284 0.0
H1158 H 0.07346 0.6284 0.79598 0.0
H1159 H 0.06292 0.63815 0.81626 0.0
C1160 C 0.37493 0.57695 0.11156 0.0
C1161 C 0.40204 0.58756 0.11743 0.0
C1162 C 0.36067 0.59063 0.09856 0.0
C1163 C 0.37355 0.61586 0.09142 0.0
C1164 C 0.39984 0.62787 0.09796 0.0
C1165 C 0.41388 0.61347 0.11082 0.0
C1166 C 0.33269 0.57711 0.09191 0.0
C1167 C 0.41401 0.65502 0.09082 0.0
C1168 C 0.36008 0.62876 0.04685 0.0
C1169 C 0.33807 0.65046 0.04713 0.0
C1170 C 0.37158 0.61719 0.06121 0.0
C1171 C 0.36114 0.62793 0.0762 0.0
C1172 C 0.33899 0.64995 0.07656 0.0
C1173 C 0.32752 0.66081 0.06198 0.0
C1174 C 0.3949 0.59342 0.06031 0.0
C1175 C 0.32767 0.66223 0.09231 0.0
H1176 H 0.36527 0.55733 0.11684 0.0
H1177 H 0.4349 0.62176 0.11516 0.0
H1178 H 0.31521 0.59408 0.09066 0.0
H1179 H 0.33706 0.56809 0.0797 0.0
H1180 H 0.3242 0.55902 0.09965 0.0
H1181 H 0.43222 0.66363 0.09848 0.0
H1182 H 0.42314 0.64967 0.07875 0.0
H1183 H 0.39734 0.67269 0.08916 0.0
H1184 H 0.36821 0.62065 0.03538 0.0
H1185 H 0.31062 0.67774 0.06222 0.0
H1186 H 0.38729 0.57351 0.06688 0.0
H1187 H 0.41549 0.6011 0.06625 0.0
H1188 H 0.40018 0.58707 0.0477 0.0
H1189 H 0.31825 0.64427 0.09978 0.0
H1190 H 0.31045 0.67937 0.09051 0.0
H1191 H 0.34622 0.67203 0.09925 0.0
C1192 C 0.42512 0.86716 0.35924 0.0
C1193 C 0.41853 0.89603 0.36415 0.0
C1194 C 0.41001 0.85396 0.34634 0.0
C1195 C 0.38773 0.87 0.33819 0.0
C1196 C 0.37985 0.8985 0.34366 0.0
C1197 C 0.39539 0.9112 0.35655 0.0
C1198 C 0.41893 0.82346 0.34091 0.0
C1199 C 0.35612 0.91627 0.33533 0.0
C1200 C 0.37503 0.85525 0.29374 0.0
C1201 C 0.34887 0.83872 0.29397 0.0
C1202 C 0.38814 0.86505 0.30808 0.0
C1203 C 0.37468 0.85827 0.32304 0.0
C1204 C 0.34851 0.84116 0.32338 0.0
C1205 C 0.33592 0.83152 0.30881 0.0
C1206 C 0.41616 0.88312 0.30721 0.0
C1207 C 0.33351 0.8336 0.3391 0.0
H1208 H 0.44265 0.85514 0.36524 0.0
H1209 H 0.39036 0.93363 0.36013 0.0
H1210 H 0.39918 0.80919 0.33954 0.0
H1211 H 0.42977 0.82482 0.32893 0.0
H1212 H 0.43449 0.81282 0.34948 0.0
H1213 H 0.35054 0.93671 0.34206 0.0
H1214 H 0.36376 0.92251 0.32309 0.0
H1215 H 0.33574 0.90292 0.33387 0.0
H1216 H 0.38518 0.86081 0.2823 0.0
H1217 H 0.31565 0.81877 0.30904 0.0
H1218 H 0.43377 0.87263 0.31453 0.0
H1219 H 0.41218 0.90537 0.31233 0.0
H1220 H 0.42432 0.88566 0.29466 0.0
H1221 H 0.34932 0.82251 0.34732 0.0
H1222 H 0.31404 0.81902 0.33734 0.0
H1223 H 0.32612 0.8541 0.34518 0.0
C1224 C 0.11059 0.89399 0.6144 0.0
C1225 C 0.08778 0.91353 0.61042 0.0
C1226 C 0.12682 0.87966 0.60227 0.0
C1227 C 0.12035 0.88556 0.58587 0.0
C1228 C 0.09792 0.90604 0.58187 0.0
C1229 C 0.08173 0.91957 0.59421 0.0
C1230 C 0.15025 0.8576 0.60698 0.0
C1231 C 0.0907 0.91331 0.56454 0.0
C1232 C 0.17526 0.86694 0.55279 0.0
C1233 C 0.16227 0.84178 0.54599 0.0
C1234 C 0.16225 0.88112 0.56606 0.0
C1235 C 0.13598 0.86948 0.57281 0.0
C1236 C 0.12344 0.84342 0.56635 0.0
C1237 C 0.1366 0.83005 0.55291 0.0
C1238 C 0.17598 0.90911 0.57248 0.0
C1239 C 0.0957 0.83008 0.57337 0.0
H1240 H 0.11511 0.8893 0.62698 0.0
H1241 H 0.06427 0.93499 0.59119 0.0
H1242 H 0.14403 0.83542 0.60246 0.0
H1243 H 0.17168 0.86345 0.60132 0.0
H1244 H 0.15336 0.85637 0.62025 0.0
H1245 H 0.07386 0.93102 0.56351 0.0
H1246 H 0.11097 0.92041 0.55809 0.0
H1247 H 0.08222 0.89337 0.55831 0.0
H1248 H 0.19511 0.87606 0.54743 0.0
H1249 H 0.12667 0.81041 0.54776 0.0
H1250 H 0.17984 0.90726 0.58564 0.0
H1251 H 0.16056 0.92782 0.57059 0.0
H1252 H 0.19729 0.91435 0.56648 0.0
H1253 H 0.09828 0.82692 0.58656 0.0
H1254 H 0.09017 0.8085 0.56778 0.0
H1255 H 0.07681 0.84529 0.57152 0.0
C1256 C 0.57347 0.38446 0.90201 0.0
C1257 C 0.59038 0.40639 0.89443 0.0
C1258 C 0.58497 0.36814 0.91493 0.0
C1259 C 0.61397 0.37402 0.92046 0.0
C1260 C 0.6317 0.39494 0.91229 0.0
C1261 C 0.61971 0.41083 0.89935 0.0
C1262 C 0.56544 0.34588 0.92327 0.0
C1263 C 0.66278 0.40179 0.91779 0.0
C1264 C 0.63054 0.36492 0.96492 0.0
C1265 C 0.64755 0.33911 0.96509 0.0
C1266 C 0.61903 0.37609 0.9505 0.0
C1267 C 0.62454 0.36102 0.93586 0.0
C1268 C 0.64094 0.33443 0.93598 0.0
C1269 C 0.65236 0.3238 0.95063 0.0
C1270 C 0.60166 0.40453 0.95089 0.0
C1271 C 0.64699 0.31766 0.92061 0.0
H1272 H 0.55071 0.38104 0.89838 0.0
H1273 H 0.63306 0.42735 0.89335 0.0
H1274 H 0.5776 0.32499 0.92531 0.0
H1275 H 0.55879 0.35453 0.93525 0.0
H1276 H 0.54511 0.34102 0.91623 0.0
H1277 H 0.67461 0.41645 0.90922 0.0
H1278 H 0.66205 0.41279 0.92974 0.0
H1279 H 0.67568 0.38117 0.91923 0.0
H1280 H 0.62671 0.37683 0.97606 0.0
H1281 H 0.66548 0.30382 0.95071 0.0
H1282 H 0.57957 0.40121 0.94538 0.0
H1283 H 0.61326 0.42159 0.9437 0.0
H1284 H 0.59861 0.41305 0.96335 0.0
H1285 H 0.62601 0.31326 0.9141 0.0
H1286 H 0.65832 0.29635 0.92289 0.0
H1287 H 0.66106 0.33115 0.91252 0.0
C1288 C 0.60642 0.07569 0.15163 0.0
C1289 C 0.58776 0.09188 0.14145 0.0
C1290 C 0.62081 0.08917 0.16468 0.0
C1291 C 0.61659 0.11964 0.16755 0.0
C1292 C 0.59852 0.13632 0.15703 0.0
C1293 C 0.58416 0.12219 0.14414 0.0
C1294 C 0.6397 0.07057 0.17571 0.0
C1295 C 0.59379 0.16893 0.1596 0.0
C1296 C 0.62719 0.14645 0.21054 0.0
C1297 C 0.65595 0.1579 0.21001 0.0
C1298 C 0.61404 0.13419 0.19676 0.0
C1299 C 0.62994 0.13363 0.18206 0.0
C1300 C 0.65881 0.14562 0.18138 0.0
C1301 C 0.67155 0.15749 0.19541 0.0
C1302 C 0.58329 0.12141 0.19799 0.0
C1303 C 0.67633 0.14564 0.16589 0.0
H1304 H 0.60894 0.05217 0.14973 0.0
H1305 H 0.56994 0.13481 0.13621 0.0
H1306 H 0.66215 0.08021 0.17677 0.0
H1307 H 0.62993 0.07029 0.18798 0.0
H1308 H 0.64178 0.04747 0.17139 0.0
H1309 H 0.58065 0.17908 0.14975 0.0
H1310 H 0.58208 0.17262 0.17117 0.0
H1311 H 0.61539 0.18044 0.16042 0.0
H1312 H 0.61505 0.1467 0.22181 0.0
H1313 H 0.69375 0.16644 0.19493 0.0
H1314 H 0.58379 0.09761 0.19492 0.0
H1315 H 0.5684 0.13234 0.18921 0.0
H1316 H 0.57376 0.12396 0.21026 0.0
H1317 H 0.68028 0.12265 0.16187 0.0
H1318 H 0.69802 0.15688 0.16723 0.0
H1319 H 0.6636 0.15679 0.15623 0.0
C1320 C 0.89132 0.08278 0.40474 0.0
C1321 C 0.91361 0.09645 0.39569 0.0
C1322 C 0.87733 0.09764 0.41746 0.0
C1323 C 0.88587 0.12688 0.42122 0.0
C1324 C 0.90741 0.14127 0.41168 0.0
C1325 C 0.92106 0.12586 0.39902 0.0
C1326 C 0.85444 0.08154 0.42735 0.0
C1327 C 0.91692 0.17251 0.41525 0.0
C1328 C 0.83559 0.16997 0.44937 0.0
C1329 C 0.84946 0.16545 0.46429 0.0
C1330 C 0.84753 0.15814 0.43514 0.0
C1331 C 0.87391 0.14143 0.4359 0.0
C1332 C 0.88837 0.13747 0.45088 0.0
C1333 C 0.87597 0.14953 0.46489 0.0
C1334 C 0.83154 0.16287 0.41937 0.0
C1335 C 0.91659 0.11983 0.45218 0.0
H1336 H 0.8857 0.05995 0.40237 0.0
H1337 H 0.938 0.13665 0.39192 0.0
H1338 H 0.86299 0.07799 0.43974 0.0
H1339 H 0.83403 0.09495 0.4284 0.0
H1340 H 0.8486 0.05978 0.42208 0.0
H1341 H 0.93195 0.1814 0.40585 0.0
H1342 H 0.89735 0.18712 0.4162 0.0
H1343 H 0.92853 0.17325 0.42703 0.0
H1344 H 0.81508 0.18228 0.44885 0.0
H1345 H 0.88681 0.14602 0.47639 0.0
H1346 H 0.8236 0.1414 0.41463 0.0
H1347 H 0.84685 0.1722 0.41026 0.0
H1348 H 0.8123 0.17788 0.42067 0.0
H1349 H 0.91242 0.09669 0.44846 0.0
H1350 H 0.92567 0.11977 0.46463 0.0
H1351 H 0.93357 0.12891 0.44392 0.0
C1352 C 0.87408 0.41826 0.64736 0.0
C1353 C 0.90369 0.41283 0.64332 0.0
C1354 C 0.86038 0.40306 0.66005 0.0
C1355 C 0.87668 0.38189 0.66887 0.0
C1356 C 0.90615 0.37538 0.6644 0.0
C1357 C 0.91932 0.39098 0.6517 0.0
C1358 C 0.82885 0.41048 0.66442 0.0
C1359 C 0.92423 0.35288 0.6735 0.0
C1360 C 0.85573 0.36799 0.71249 0.0
C1361 C 0.84025 0.34131 0.71137 0.0
C1362 C 0.86744 0.38153 0.69871 0.0
C1363 C 0.86366 0.36799 0.68346 0.0
C1364 C 0.84792 0.34111 0.68223 0.0
C1365 C 0.83635 0.32809 0.69623 0.0
C1366 C 0.88403 0.41026 0.7005 0.0
C1367 C 0.84355 0.32601 0.66618 0.0
H1368 H 0.86176 0.43484 0.64078 0.0
H1369 H 0.94232 0.38691 0.6488 0.0
H1370 H 0.81529 0.39013 0.66499 0.0
H1371 H 0.82824 0.42079 0.67656 0.0
H1372 H 0.81857 0.42589 0.65566 0.0
H1373 H 0.94595 0.34867 0.66769 0.0
H1374 H 0.92818 0.36078 0.68598 0.0
H1375 H 0.91201 0.33174 0.67436 0.0
H1376 H 0.85875 0.37831 0.72417 0.0
H1377 H 0.82441 0.30744 0.69531 0.0
H1378 H 0.87357 0.42751 0.69294 0.0
H1379 H 0.90708 0.40754 0.69619 0.0
H1380 H 0.88461 0.41812 0.71318 0.0
H1381 H 0.8322 0.34109 0.65766 0.0
H1382 H 0.83035 0.30546 0.66725 0.0
H1383 H 0.86532 0.32048 0.66082 0.0
C1384 C 0.57804 0.10041 0.35178 0.0
C1385 C 0.59475 0.07968 0.36038 0.0
C1386 C 0.59047 0.11626 0.33894 0.0
C1387 C 0.62034 0.11131 0.33466 0.0
C1388 C 0.63763 0.0912 0.34368 0.0
C1389 C 0.62459 0.07555 0.35641 0.0
C1390 C 0.5713 0.13743 0.32957 0.0
C1391 C 0.66964 0.08556 0.33957 0.0
C1392 C 0.64318 0.12543 0.29134 0.0
C1393 C 0.65713 0.15292 0.29255 0.0
C1394 C 0.631 0.11174 0.30496 0.0
C1395 C 0.633 0.12583 0.32016 0.0
C1396 C 0.64705 0.15361 0.32147 0.0
C1397 C 0.65889 0.16689 0.30761 0.0
C1398 C 0.61602 0.08217 0.30307 0.0
C1399 C 0.6497 0.16921 0.33749 0.0
H1400 H 0.55488 0.10343 0.35468 0.0
H1401 H 0.63765 0.05979 0.36316 0.0
H1402 H 0.5821 0.15934 0.32881 0.0
H1403 H 0.56846 0.12924 0.31705 0.0
H1404 H 0.5491 0.1402 0.33508 0.0
H1405 H 0.68054 0.07076 0.34842 0.0
H1406 H 0.6712 0.07533 0.32745 0.0
H1407 H 0.68202 0.10666 0.33912 0.0
H1408 H 0.64173 0.11457 0.27972 0.0
H1409 H 0.66972 0.18813 0.30861 0.0
H1410 H 0.5928 0.08358 0.30729 0.0
H1411 H 0.62733 0.0655 0.31066 0.0
H1412 H 0.61606 0.07433 0.29038 0.0
H1413 H 0.62741 0.1731 0.34264 0.0
H1414 H 0.66131 0.19071 0.33646 0.0
H1415 H 0.66193 0.15514 0.34616 0.0
C1416 C 0.9158 0.1078 0.611 0.0
C1417 C 0.90135 0.08445 0.61879 0.0
C1418 C 0.90225 0.12301 0.59827 0.0
C1419 C 0.87363 0.11454 0.59315 0.0
C1420 C 0.85836 0.09196 0.60145 0.0
C1421 C 0.87238 0.07723 0.61421 0.0
C1422 C 0.9192 0.1471 0.58977 0.0
C1423 C 0.82777 0.08238 0.59637 0.0
C1424 C 0.83192 0.16547 0.56475 0.0
C1425 C 0.83844 0.15286 0.54971 0.0
C1426 C 0.84301 0.15313 0.57905 0.0
C1427 C 0.86084 0.12754 0.57825 0.0
C1428 C 0.8671 0.11452 0.56311 0.0
C1429 C 0.8559 0.1274 0.54902 0.0
C1430 C 0.83602 0.16769 0.59498 0.0
C1431 C 0.8859 0.08711 0.56177 0.0
H1432 H 0.93831 0.11332 0.61431 0.0
H1433 H 0.8609 0.05953 0.62036 0.0
H1434 H 0.92502 0.13974 0.57741 0.0
H1435 H 0.90535 0.16716 0.58858 0.0
H1436 H 0.93989 0.15304 0.59622 0.0
H1437 H 0.8179 0.06635 0.60494 0.0
H1438 H 0.8129 0.10173 0.5954 0.0
H1439 H 0.82884 0.07196 0.58428 0.0
H1440 H 0.81847 0.1852 0.56533 0.0
H1441 H 0.86093 0.11753 0.53744 0.0
H1442 H 0.85678 0.17508 0.60085 0.0
H1443 H 0.82536 0.15165 0.60322 0.0
H1444 H 0.82119 0.18703 0.59356 0.0
H1445 H 0.90833 0.09154 0.56661 0.0
H1446 H 0.88807 0.07932 0.54912 0.0
H1447 H 0.87617 0.06911 0.5691 0.0
C1448 C 0.90343 0.42793 0.84374 0.0
C1449 C 0.90995 0.41619 0.85899 0.0
C1450 C 0.89053 0.41057 0.83165 0.0
C1451 C 0.88449 0.38049 0.83472 0.0
C1452 C 0.89119 0.36833 0.85 0.0
C1453 C 0.90363 0.38638 0.862 0.0
C1454 C 0.88345 0.42444 0.81556 0.0
C1455 C 0.88535 0.33625 0.85364 0.0
C1456 C 0.82772 0.34495 0.80719 0.0
C1457 C 0.84576 0.33244 0.79527 0.0
C1458 C 0.84005 0.35991 0.82039 0.0
C1459 C 0.87116 0.36195 0.82183 0.0
C1460 C 0.88948 0.34813 0.81022 0.0
C1461 C 0.87655 0.33377 0.79698 0.0
C1462 C 0.81976 0.37471 0.83238 0.0
C1463 C 0.92275 0.34938 0.8115 0.0
H1464 H 0.90882 0.45069 0.84112 0.0
H1465 H 0.90823 0.37715 0.87378 0.0
H1466 H 0.89622 0.41337 0.80588 0.0
H1467 H 0.85966 0.42148 0.81272 0.0
H1468 H 0.88864 0.44838 0.81529 0.0
H1469 H 0.89236 0.33005 0.86602 0.0
H1470 H 0.86144 0.33141 0.8523 0.0
H1471 H 0.89729 0.32213 0.84487 0.0
H1472 H 0.80389 0.34404 0.80588 0.0
H1473 H 0.89056 0.32395 0.78784 0.0
H1474 H 0.82266 0.39897 0.83168 0.0
H1475 H 0.82548 0.36794 0.84484 0.0
H1476 H 0.79613 0.36944 0.83013 0.0
H1477 H 0.93039 0.3724 0.80976 0.0
H1478 H 0.93376 0.33518 0.80238 0.0
H1479 H 0.92997 0.34236 0.82369 0.0
C1480 C 0.59738 0.39075 0.11631 0.0
C1481 C 0.60089 0.4207 0.12001 0.0
C1482 C 0.61384 0.37755 0.10395 0.0
C1483 C 0.63414 0.3948 0.09503 0.0
C1484 C 0.63926 0.42452 0.09946 0.0
C1485 C 0.62257 0.43713 0.11195 0.0
C1486 C 0.60794 0.34571 0.09971 0.0
C1487 C 0.6607 0.44362 0.09024 0.0
C1488 C 0.68359 0.3551 0.0649 0.0
C1489 C 0.66703 0.35797 0.05069 0.0
C1490 C 0.6736 0.36755 0.07945 0.0
C1491 C 0.64644 0.38305 0.07971 0.0
C1492 C 0.63003 0.3865 0.0653 0.0
C1493 C 0.64054 0.37396 0.051 0.0
C1494 C 0.69171 0.3636 0.09458 0.0
C1495 C 0.60094 0.40288 0.06505 0.0
H1496 H 0.58092 0.37792 0.12272 0.0
H1497 H 0.62524 0.46033 0.11475 0.0
H1498 H 0.59575 0.34459 0.08811 0.0
H1499 H 0.62899 0.33355 0.0981 0.0
H1500 H 0.59458 0.33438 0.10908 0.0
H1501 H 0.66546 0.46462 0.09665 0.0
H1502 H 0.68179 0.43178 0.08816 0.0
H1503 H 0.6512 0.44897 0.07826 0.0
H1504 H 0.70411 0.34278 0.0647 0.0
H1505 H 0.62766 0.37633 0.04005 0.0
H1506 H 0.67917 0.35013 0.10339 0.0
H1507 H 0.696 0.38529 0.10031 0.0
H1508 H 0.71319 0.35262 0.09215 0.0
H1509 H 0.58476 0.39156 0.07296 0.0
H1510 H 0.5914 0.40438 0.05273 0.0
H1511 H 0.60394 0.42554 0.06982 0.0
loop_
_geom_bond_atom_site_label_1
_geom_bond_atom_site_label_2
_geom_bond_distance
_geom_bond_site_symmetry_2
_ccdc_geom_bond_type
H0 C19 0.949 . S
H1 C20 0.950 . S
H2 C22 0.950 . S
H3 C23 0.950 . S
H4 C25 0.950 . S
H5 C28 0.950 . S
H6 C29 0.950 . S
H7 C31 0.951 . S
H8 C32 0.949 1_565 S
H9 C34 0.949 . S
H10 C35 0.950 . S
H11 C37 0.950 . S
H12 C38 0.950 . S
H13 C40 0.951 . S
H14 C43 0.950 . S
H15 C44 0.950 . S
H16 C46 0.951 . S
H17 C47 0.949 1_545 S
C18 C19 1.376 . S
C18 C23 1.386 . S
C18 C24 1.483 . S
C19 H0 0.949 . S
C19 C18 1.376 . S
C19 C20 1.397 . S
C20 H1 0.950 . S
C20 C19 1.397 . S
C20 C21 1.391 . S
C21 C20 1.391 . S
C21 C22 1.405 . S
C22 H2 0.950 . S
C22 C21 1.405 . S
C22 C23 1.367 . S
C23 H3 0.950 . S
C23 C18 1.386 . S
C23 C22 1.367 . S
C24 C18 1.483 . S
C24 C25 1.382 1_655 S
C24 C26 1.403 . S
C25 H4 0.950 . S
C25 C24 1.382 1_455 S
C25 C41 1.411 1_545 S
C26 C24 1.403 . S
C26 C27 1.489 . S
C26 C40 1.419 1_545 S
C27 C26 1.489 . S
C27 C28 1.383 . S
C27 C32 1.382 . S
C28 H5 0.950 . S
C28 C27 1.383 . S
C28 C29 1.395 . S
C29 H6 0.950 . S
C29 C28 1.395 . S
C29 C30 1.288 . S
C30 C29 1.288 . S
C30 C31 1.392 . S
C31 H7 0.951 . S
C31 C30 1.392 . S
C31 C32 1.392 . S
C32 H8 0.949 1_545 S
C32 C27 1.382 . S
C32 C31 1.392 . S
C33 C34 1.376 . S
C33 C38 1.386 . S
C33 C39 1.483 . S
C34 H9 0.949 . S
C34 C33 1.376 . S
C34 C35 1.397 . S
C35 H10 0.950 . S
C35 C34 1.397 . S
C35 C36 1.391 . S
C36 C35 1.391 . S
C36 C37 1.405 . S
C37 H11 0.950 . S
C37 C36 1.405 . S
C37 C38 1.367 . S
C38 H12 0.950 . S
C38 C33 1.386 . S
C38 C37 1.367 . S
C39 C33 1.483 . S
C39 C40 1.373 1_455 S
C39 C41 1.403 . S
C40 H13 0.951 . S
C40 C26 1.419 1_565 S
C40 C39 1.373 1_655 S
C41 C25 1.411 1_565 S
C41 C39 1.403 . S
C41 C42 1.489 . S
C42 C41 1.489 . S
C42 C43 1.383 . S
C42 C47 1.382 . S
C43 H14 0.950 . S
C43 C42 1.383 . S
C43 C44 1.395 . S
C44 H15 0.950 . S
C44 C43 1.395 . S
C44 C45 1.288 . S
C45 C44 1.288 . S
C45 C46 1.392 . S
C46 H16 0.951 . S
C46 C45 1.392 . S
C46 C47 1.392 . S
C47 H17 0.949 1_565 S
C47 C42 1.382 . S
C47 C46 1.392 . S
H48 C67 0.949 1_455 S
H49 C68 0.950 . S
H50 C70 0.950 . S
H51 C71 0.950 . S
H52 C73 0.950 . S
H53 C76 0.950 . S
H54 C77 0.950 . S
H55 C79 0.951 . S
H56 C80 0.949 . S
H57 C82 0.949 1_655 S
H58 C83 0.950 . S
H59 C85 0.950 . S
H60 C86 0.950 . S
H61 C88 0.950 . S
H62 C91 0.950 . S
H63 C92 0.950 . S
H64 C94 0.951 . S
H65 C95 0.949 . S
C66 C67 1.376 . S
C66 C71 1.386 . S
C66 C72 1.483 . S
C67 H48 0.949 1_655 S
C67 C66 1.376 . S
C67 C68 1.397 . S
C68 H49 0.950 . S
C68 C67 1.397 . S
C68 C69 1.391 . S
C69 C68 1.391 . S
C69 C70 1.405 . S
C70 H50 0.950 . S
C70 C69 1.405 . S
C70 C71 1.367 . S
C71 H51 0.950 . S
C71 C66 1.386 . S
C71 C70 1.367 . S
C72 C66 1.483 . S
C72 C73 1.382 1_655 S
C72 C74 1.403 . S
C73 H52 0.950 . S
C73 C72 1.382 1_455 S
C73 C89 1.411 . S
C74 C72 1.403 . S
C74 C75 1.489 . S
C74 C88 1.411 . S
C75 C74 1.489 . S
C75 C76 1.383 . S
C75 C80 1.382 . S
C76 H53 0.950 . S
C76 C75 1.383 . S
C76 C77 1.395 . S
C77 H54 0.950 . S
C77 C76 1.395 . S
C77 C78 1.288 . S
C78 C77 1.288 . S
C78 C79 1.392 . S
C79 H55 0.951 . S
C79 C78 1.392 . S
C79 C80 1.392 . S
C80 H56 0.949 . S
C80 C75 1.382 . S
C80 C79 1.392 . S
C81 C82 1.376 . S
C81 C86 1.386 . S
C81 C87 1.483 . S
C82 H57 0.949 1_455 S
C82 C81 1.376 . S
C82 C83 1.397 . S
C83 H58 0.950 . S
C83 C82 1.397 . S
C83 C84 1.391 . S
C84 C83 1.391 . S
C84 C85 1.405 . S
C85 H59 0.950 . S
C85 C84 1.405 . S
C85 C86 1.367 . S
C86 H60 0.950 . S
C86 C81 1.386 . S
C86 C85 1.367 . S
C87 C81 1.483 . S
C87 C88 1.382 1_455 S
C87 C89 1.403 . S
C88 H61 0.950 . S
C88 C74 1.411 . S
C88 C87 1.382 1_655 S
C89 C73 1.411 . S
C89 C87 1.403 . S
C89 C90 1.489 . S
C90 C89 1.489 . S
C90 C91 1.383 . S
C90 C95 1.382 . S
C91 H62 0.950 . S
C91 C90 1.383 . S
C91 C92 1.395 . S
C92 H63 0.950 . S
C92 C91 1.395 . S
C92 C93 1.288 . S
C93 C92 1.288 . S
C93 C94 1.392 . S
C94 H64 0.951 . S
C94 C93 1.392 . S
C94 C95 1.392 . S
C95 H65 0.949 . S
C95 C90 1.382 . S
C95 C94 1.392 . S
H96 C115 0.949 . S
H97 C116 0.950 . S
H98 C118 0.950 . S
H99 C119 0.950 . S
H100 C121 0.950 . S
H101 C124 0.950 . S
H102 C125 0.950 . S
H103 C127 0.951 . S
H104 C128 0.949 . S
H105 C130 0.949 . S
H106 C131 0.950 . S
H107 C133 0.950 . S
H108 C134 0.950 . S
H109 C136 0.950 . S
H110 C139 0.950 . S
H111 C140 0.950 . S
H112 C142 0.951 . S
H113 C143 0.949 . S
C114 C115 1.376 . S
C114 C119 1.386 . S
C114 C120 1.483 . S
C115 H96 0.949 . S
C115 C114 1.376 . S
C115 C116 1.397 . S
C116 H97 0.950 . S
C116 C115 1.397 . S
C116 C117 1.391 . S
C117 C116 1.391 . S
C117 C118 1.405 . S
C118 H98 0.950 . S
C118 C117 1.405 . S
C118 C119 1.367 . S
C119 H99 0.950 . S
C119 C114 1.386 . S
C119 C118 1.367 . S
C120 C114 1.483 . S
C120 C121 1.382 . S
C120 C122 1.403 . S
C121 H100 0.950 . S
C121 C120 1.382 . S
C121 C137 1.411 . S
C122 C120 1.403 . S
C122 C123 1.489 . S
C122 C136 1.411 . S
C123 C122 1.489 . S
C123 C124 1.383 . S
C123 C128 1.382 . S
C124 H101 0.950 . S
C124 C123 1.383 . S
C124 C125 1.395 . S
C125 H102 0.950 . S
C125 C124 1.395 . S
C125 C126 1.288 . S
C126 C125 1.288 . S
C126 C127 1.392 . S
C127 H103 0.951 . S
C127 C126 1.392 . S
C127 C128 1.392 . S
C128 H104 0.949 . S
C128 C123 1.382 . S
C128 C127 1.392 . S
C129 C130 1.376 . S
C129 C134 1.386 . S
C129 C135 1.483 . S
C130 H105 0.949 . S
C130 C129 1.376 . S
C130 C131 1.397 . S
C131 H106 0.950 . S
C131 C130 1.397 . S
C131 C132 1.391 . S
C132 C131 1.391 . S
C132 C133 1.405 . S
C133 H107 0.950 . S
C133 C132 1.405 . S
C133 C134 1.367 . S
C134 H108 0.950 . S
C134 C129 1.386 . S
C134 C133 1.367 . S
C135 C129 1.483 . S
C135 C136 1.382 . S
C135 C137 1.403 . S
C136 H109 0.950 . S
C136 C122 1.411 . S
C136 C135 1.382 . S
C137 C121 1.411 . S
C137 C135 1.403 . S
C137 C138 1.489 . S
C138 C137 1.489 . S
C138 C139 1.383 . S
C138 C143 1.382 . S
C139 H110 0.950 . S
C139 C138 1.383 . S
C139 C140 1.395 . S
C140 H111 0.950 . S
C140 C139 1.395 . S
C140 C141 1.288 . S
C141 C140 1.288 . S
C141 C142 1.392 . S
C142 H112 0.951 . S
C142 C141 1.392 . S
C142 C143 1.392 . S
C143 H113 0.949 . S
C143 C138 1.382 . S
C143 C142 1.392 . S
H144 C163 0.949 . S
H145 C164 0.950 . S
H146 C166 0.950 . S
H147 C167 0.950 . S
H148 C169 0.950 . S
H149 C172 0.950 . S
H150 C173 0.950 . S
H151 C175 0.951 . S
H152 C176 0.949 . S
H153 C178 0.949 . S
H154 C179 0.950 . S
H155 C181 0.950 . S
H156 C182 0.950 . S
H157 C184 0.950 . S
H158 C187 0.950 . S
H159 C188 0.950 . S
H160 C190 0.951 . S
H161 C191 0.949 . S
C162 C163 1.376 . S
C162 C167 1.386 . S
C162 C168 1.483 . S
C163 H144 0.949 . S
C163 C162 1.376 . S
C163 C164 1.397 . S
C164 H145 0.950 . S
C164 C163 1.397 . S
C164 C165 1.391 . S
C165 C164 1.391 . S
C165 C166 1.405 . S
C166 H146 0.950 . S
C166 C165 1.405 . S
C166 C167 1.367 . S
C167 H147 0.950 . S
C167 C162 1.386 . S
C167 C166 1.367 . S
C168 C162 1.483 . S
C168 C169 1.382 . S
C168 C170 1.403 . S
C169 H148 0.950 . S
C169 C168 1.382 . S
C169 C185 1.411 1_565 S
C170 C168 1.403 . S
C170 C171 1.489 . S
C170 C184 1.411 1_565 S
C171 C170 1.489 . S
C171 C172 1.383 . S
C171 C176 1.382 . S
C172 H149 0.950 . S
C172 C171 1.383 . S
C172 C173 1.395 . S
C173 H150 0.950 . S
C173 C172 1.395 . S
C173 C174 1.288 . S
C174 C173 1.288 . S
C174 C175 1.392 . S
C175 H151 0.951 . S
C175 C174 1.392 . S
C175 C176 1.392 . S
C176 H152 0.949 . S
C176 C171 1.382 . S
C176 C175 1.392 . S
C177 C178 1.376 . S
C177 C182 1.386 . S
C177 C183 1.483 . S
C178 H153 0.949 . S
C178 C177 1.376 . S
C178 C179 1.397 . S
C179 H154 0.950 . S
C179 C178 1.397 . S
C179 C180 1.391 . S
C180 C179 1.391 . S
C180 C181 1.405 . S
C181 H155 0.950 . S
C181 C180 1.405 . S
C181 C182 1.367 . S
C182 H156 0.950 . S
C182 C177 1.386 . S
C182 C181 1.367 . S
C183 C177 1.483 . S
C183 C184 1.382 . S
C183 C185 1.403 . S
C184 H157 0.950 . S
C184 C170 1.411 1_545 S
C184 C183 1.382 . S
C185 C169 1.411 1_545 S
C185 C183 1.403 . S
C185 C186 1.489 . S
C186 C185 1.489 . S
C186 C187 1.383 . S
C186 C191 1.382 . S
C187 H158 0.950 . S
C187 C186 1.383 . S
C187 C188 1.395 . S
C188 H159 0.950 . S
C188 C187 1.395 . S
C188 C189 1.288 . S
C189 C188 1.288 . S
C189 C190 1.392 . S
C190 H160 0.951 . S
C190 C189 1.392 . S
C190 C191 1.392 . S
C191 H161 0.949 . S
C191 C186 1.382 . S
C191 C190 1.392 . S
H192 C211 0.949 . S
H193 C212 0.950 . S
H194 C214 0.950 . S
H195 C215 0.950 . S
H196 C217 0.950 . S
H197 C220 0.950 . S
H198 C221 0.950 . S
H199 C223 0.951 . S
H200 C224 0.949 . S
H201 C226 0.949 . S
H202 C227 0.950 . S
H203 C229 0.950 . S
H204 C230 0.950 . S
H205 C232 0.950 . S
H206 C235 0.950 . S
H207 C236 0.950 . S
H208 C238 0.951 . S
H209 C239 0.949 . S
C210 C211 1.376 . S
C210 C215 1.386 . S
C210 C216 1.483 . S
C211 H192 0.949 . S
C211 C210 1.376 . S
C211 C212 1.397 . S
C212 H193 0.950 . S
C212 C211 1.397 . S
C212 C213 1.391 . S
C213 C212 1.391 . S
C213 C214 1.405 . S
C214 H194 0.950 . S
C214 C213 1.405 . S
C214 C215 1.367 . S
C215 H195 0.950 . S
C215 C210 1.386 . S
C215 C214 1.367 . S
C216 C210 1.483 . S
C216 C217 1.382 1_455 S
C216 C218 1.403 . S
C217 H196 0.950 . S
C217 C216 1.382 1_655 S
C217 C233 1.411 . S
C218 C216 1.403 . S
C218 C219 1.489 . S
C218 C232 1.411 . S
C219 C218 1.489 . S
C219 C220 1.383 . S
C219 C224 1.382 . S
C220 H197 0.950 . S
C220 C219 1.383 . S
C220 C221 1.395 . S
C221 H198 0.950 . S
C221 C220 1.395 . S
C221 C222 1.288 . S
C222 C221 1.288 . S
C222 C223 1.392 . S
C223 H199 0.951 . S
C223 C222 1.392 . S
C223 C224 1.392 . S
C224 H200 0.949 . S
C224 C219 1.382 . S
C224 C223 1.392 . S
C225 C226 1.376 . S
C225 C230 1.386 . S
C225 C231 1.483 . S
C226 H201 0.949 . S
C226 C225 1.376 . S
C226 C227 1.397 . S
C227 H202 0.950 . S
C227 C226 1.397 . S
C227 C228 1.391 . S
C228 C227 1.391 . S
C228 C229 1.405 . S
C229 H203 0.950 . S
C229 C228 1.405 . S
C229 C230 1.367 . S
C230 H204 0.950 . S
C230 C225 1.386 . S
C230 C229 1.367 . S
C231 C225 1.483 . S
C231 C232 1.382 1_655 S
C231 C233 1.403 . S
C232 H205 0.950 . S
C232 C218 1.411 . S
C232 C231 1.382 1_455 S
C233 C217 1.411 . S
C233 C231 1.403 . S
C233 C234 1.489 . S
C234 C233 1.489 . S
C234 C235 1.383 . S
C234 C239 1.382 . S
C235 H206 0.950 . S
C235 C234 1.383 . S
C235 C236 1.395 . S
C236 H207 0.950 . S
C236 C235 1.395 . S
C236 C237 1.288 . S
C237 C236 1.288 . S
C237 C238 1.392 . S
C238 H208 0.951 . S
C238 C237 1.392 . S
C238 C239 1.392 . S
C239 H209 0.949 . S
C239 C234 1.382 . S
C239 C238 1.392 . S
H240 C259 0.949 . S
H241 C260 0.950 . S
H242 C262 0.950 . S
H243 C263 0.950 . S
H244 C265 0.950 . S
H245 C268 0.950 . S
H246 C269 0.950 . S
H247 C271 0.951 . S
H248 C272 0.949 . S
H249 C274 0.949 . S
H250 C275 0.950 . S
H251 C277 0.950 . S
H252 C278 0.950 . S
H253 C280 0.950 . S
H254 C283 0.950 . S
H255 C284 0.950 . S
H256 C286 0.951 . S
H257 C287 0.949 . S
C258 C259 1.376 . S
C258 C263 1.386 . S
C258 C264 1.483 . S
C259 H240 0.949 . S
C259 C258 1.376 . S
C259 C260 1.397 . S
C260 H241 0.950 . S
C260 C259 1.397 . S
C260 C261 1.391 . S
C261 C260 1.391 . S
C261 C262 1.405 . S
C262 H242 0.950 . S
C262 C261 1.405 . S
C262 C263 1.367 . S
C263 H243 0.950 . S
C263 C258 1.386 . S
C263 C262 1.367 . S
C264 C258 1.483 . S
C264 C265 1.382 . S
C264 C266 1.403 . S
C265 H244 0.950 . S
C265 C264 1.382 . S
C265 C281 1.411 . S
C266 C264 1.403 . S
C266 C267 1.489 . S
C266 C280 1.411 . S
C267 C266 1.489 . S
C267 C268 1.383 . S
C267 C272 1.382 . S
C268 H245 0.950 . S
C268 C267 1.383 . S
C268 C269 1.395 . S
C269 H246 0.950 . S
C269 C268 1.395 . S
C269 C270 1.288 . S
C270 C269 1.288 . S
C270 C271 1.392 . S
C271 H247 0.951 . S
C271 C270 1.392 . S
C271 C272 1.392 . S
C272 H248 0.949 . S
C272 C267 1.382 . S
C272 C271 1.392 . S
C273 C274 1.376 . S
C273 C278 1.386 . S
C273 C279 1.483 . S
C274 H249 0.949 . S
C274 C273 1.376 . S
C274 C275 1.397 . S
C275 H250 0.950 . S
C275 C274 1.397 . S
C275 C276 1.391 . S
C276 C275 1.391 . S
C276 C277 1.405 . S
C277 H251 0.950 . S
C277 C276 1.405 . S
C277 C278 1.367 . S
C278 H252 0.950 . S
C278 C273 1.386 . S
C278 C277 1.367 . S
C279 C273 1.483 . S
C279 C280 1.382 . S
C279 C281 1.403 . S
C280 H253 0.950 . S
C280 C266 1.411 . S
C280 C279 1.382 . S
C281 C265 1.411 . S
C281 C279 1.403 . S
C281 C282 1.489 . S
C282 C281 1.489 . S
C282 C283 1.383 . S
C282 C287 1.382 . S
C283 H254 0.950 . S
C283 C282 1.383 . S
C283 C284 1.395 . S
C284 H255 0.950 . S
C284 C283 1.395 . S
C284 C285 1.288 . S
C285 C284 1.288 . S
C285 C286 1.392 . S
C286 H256 0.951 . S
C286 C285 1.392 . S
C286 C287 1.392 . S
C287 H257 0.949 . S
C287 C282 1.382 . S
C287 C286 1.392 . S
H288 C307 0.949 . S
H289 C308 0.950 . S
H290 C310 0.950 . S
H291 C311 0.950 . S
H292 C313 0.950 . S
H293 C316 0.950 . S
H294 C317 0.950 . S
H295 C319 0.951 . S
H296 C320 0.949 1_545 S
H297 C322 0.949 . S
H298 C323 0.950 . S
H299 C325 0.950 . S
H300 C326 0.950 . S
H301 C328 0.950 . S
H302 C331 0.950 . S
H303 C332 0.950 . S
H304 C334 0.951 . S
H305 C335 0.949 1_565 S
C306 C307 1.376 . S
C306 C311 1.386 . S
C306 C312 1.483 . S
C307 H288 0.949 . S
C307 C306 1.376 . S
C307 C308 1.397 . S
C308 H289 0.950 . S
C308 C307 1.397 . S
C308 C309 1.391 . S
C309 C308 1.391 . S
C309 C310 1.405 . S
C310 H290 0.950 . S
C310 C309 1.405 . S
C310 C311 1.367 . S
C311 H291 0.950 . S
C311 C306 1.386 . S
C311 C310 1.367 . S
C312 C306 1.483 . S
C312 C313 1.382 . S
C312 C314 1.403 . S
C313 H292 0.950 . S
C313 C312 1.382 . S
C313 C329 1.411 1_565 S
C314 C312 1.403 . S
C314 C315 1.489 . S
C314 C328 1.411 1_565 S
C315 C314 1.489 . S
C315 C316 1.383 . S
C315 C320 1.382 . S
C316 H293 0.950 . S
C316 C315 1.383 . S
C316 C317 1.395 . S
C317 H294 0.950 . S
C317 C316 1.395 . S
C317 C318 1.288 . S
C318 C317 1.288 . S
C318 C319 1.392 . S
C319 H295 0.951 . S
C319 C318 1.392 . S
C319 C320 1.392 . S
C320 H296 0.949 1_565 S
C320 C315 1.382 . S
C320 C319 1.392 . S
C321 C322 1.376 . S
C321 C326 1.386 . S
C321 C327 1.483 . S
C322 H297 0.949 . S
C322 C321 1.376 . S
C322 C323 1.397 . S
C323 H298 0.950 . S
C323 C322 1.397 . S
C323 C324 1.391 . S
C324 C323 1.391 . S
C324 C325 1.405 . S
C325 H299 0.950 . S
C325 C324 1.405 . S
C325 C326 1.367 . S
C326 H300 0.950 . S
C326 C321 1.386 . S
C326 C325 1.367 . S
C327 C321 1.483 . S
C327 C328 1.382 . S
C327 C329 1.403 . S
C328 H301 0.950 . S
C328 C314 1.411 1_545 S
C328 C327 1.382 . S
C329 C313 1.411 1_545 S
C329 C327 1.403 . S
C329 C330 1.489 . S
C330 C329 1.489 . S
C330 C331 1.383 . S
C330 C335 1.382 . S
C331 H302 0.950 . S
C331 C330 1.383 . S
C331 C332 1.395 . S
C332 H303 0.950 . S
C332 C331 1.395 . S
C332 C333 1.288 . S
C333 C332 1.288 . S
C333 C334 1.392 . S
C334 H304 0.951 . S
C334 C333 1.392 . S
C334 C335 1.392 . S
C335 H305 0.949 1_545 S
C335 C330 1.382 . S
C335 C334 1.392 . S
H336 C355 0.949 1_455 S
H337 C356 0.950 . S
H338 C358 0.950 . S
H339 C359 0.950 . S
H340 C361 0.950 . S
H341 C364 0.950 . S
H342 C365 0.950 . S
H343 C367 0.951 . S
H344 C368 0.949 . S
H345 C370 0.949 1_655 S
H346 C371 0.950 . S
H347 C373 0.950 . S
H348 C374 0.950 . S
H349 C376 0.950 . S
H350 C379 0.950 . S
H351 C380 0.950 . S
H352 C382 0.951 . S
H353 C383 0.949 . S
C354 C355 1.376 . S
C354 C359 1.386 . S
C354 C360 1.483 . S
C355 H336 0.949 1_655 S
C355 C354 1.376 . S
C355 C356 1.397 . S
C356 H337 0.950 . S
C356 C355 1.397 . S
C356 C357 1.391 . S
C357 C356 1.391 . S
C357 C358 1.405 . S
C358 H338 0.950 . S
C358 C357 1.405 . S
C358 C359 1.367 . S
C359 H339 0.950 . S
C359 C354 1.386 . S
C359 C358 1.367 . S
C360 C354 1.483 . S
C360 C361 1.382 1_655 S
C360 C362 1.403 . S
C361 H340 0.950 . S
C361 C360 1.382 1_455 S
C361 C377 1.411 1_545 S
C362 C360 1.403 . S
C362 C363 1.489 . S
C362 C376 1.411 1_545 S
C363 C362 1.489 . S
C363 C364 1.383 . S
C363 C368 1.382 . S
C364 H341 0.950 . S
C364 C363 1.383 . S
C364 C365 1.395 . S
C365 H342 0.950 . S
C365 C364 1.395 . S
C365 C366 1.288 . S
C366 C365 1.288 . S
C366 C367 1.392 . S
C367 H343 0.951 . S
C367 C366 1.392 . S
C367 C368 1.392 . S
C368 H344 0.949 . S
C368 C363 1.382 . S
C368 C367 1.392 . S
C369 C370 1.376 . S
C369 C374 1.386 . S
C369 C375 1.483 . S
C370 H345 0.949 1_455 S
C370 C369 1.376 . S
C370 C371 1.397 . S
C371 H346 0.950 . S
C371 C370 1.397 . S
C371 C372 1.391 . S
C372 C371 1.391 . S
C372 C373 1.405 . S
C373 H347 0.950 . S
C373 C372 1.405 . S
C373 C374 1.367 . S
C374 H348 0.950 . S
C374 C369 1.386 . S
C374 C373 1.367 . S
C375 C369 1.483 . S
C375 C376 1.382 1_455 S
C375 C377 1.403 . S
C376 H349 0.950 . S
C376 C362 1.411 1_565 S
C376 C375 1.382 1_655 S
C377 C361 1.411 1_565 S
C377 C375 1.403 . S
C377 C378 1.489 . S
C378 C377 1.489 . S
C378 C379 1.383 . S
C378 C383 1.382 . S
C379 H350 0.950 . S
C379 C378 1.383 . S
C379 C380 1.395 . S
C380 H351 0.950 . S
C380 C379 1.395 . S
C380 C381 1.288 . S
C381 C380 1.288 . S
C381 C382 1.392 . S
C382 H352 0.951 . S
C382 C381 1.392 . S
C382 C383 1.392 . S
C383 H353 0.949 . S
C383 C378 1.382 . S
C383 C382 1.392 . S
In384 O385 2.294 . S
In384 O386 2.326 . S
In384 O390 2.266 1_554 S
In384 O391 2.326 1_554 S
In384 O392 2.266 1_554 S
In384 O393 2.326 1_554 S
In384 O395 2.294 . S
In384 O396 2.326 . S
O385 In384 2.294 . S
O385 C394 1.240 . S
O386 In384 2.326 . S
O386 C394 1.252 . S
C387 O390 1.252 . S
C387 O391 1.260 . S
C388 O395 1.240 . S
C388 O396 1.252 . S
C389 O392 1.252 . S
C389 O393 1.260 . S
O390 In384 2.266 1_556 S
O390 C387 1.252 . S
O391 In384 2.326 1_556 S
O391 C387 1.260 . S
O392 In384 2.266 1_556 S
O392 C389 1.252 . S
O393 In384 2.326 1_556 S
O393 C389 1.260 . S
C394 O385 1.240 . S
C394 O386 1.252 . S
O395 In384 2.294 . S
O395 C388 1.240 . S
O396 In384 2.326 . S
O396 C388 1.252 . S
In397 O398 2.294 . S
In397 O399 2.326 . S
In397 O403 2.266 . S
In397 O404 2.326 . S
In397 O405 2.266 . S
In397 O406 2.326 . S
In397 O408 2.294 . S
In397 O409 2.326 . S
O398 In397 2.294 . S
O398 C407 1.240 . S
O399 In397 2.326 . S
O399 C407 1.252 . S
C400 O403 1.252 . S
C400 O404 1.260 . S
C401 O408 1.240 . S
C401 O409 1.252 . S
C402 O405 1.252 . S
C402 O406 1.260 . S
O403 In397 2.266 . S
O403 C400 1.252 . S
O404 In397 2.326 . S
O404 C400 1.260 . S
O405 In397 2.266 . S
O405 C402 1.252 . S
O406 In397 2.326 . S
O406 C402 1.260 . S
C407 O398 1.240 . S
C407 O399 1.252 . S
O408 In397 2.294 . S
O408 C401 1.240 . S
O409 In397 2.326 . S
O409 C401 1.252 . S
In410 O411 2.294 . S
In410 O412 2.326 . S
In410 O416 2.266 . S
In410 O417 2.326 . S
In410 O418 2.266 . S
In410 O419 2.326 . S
In410 O421 2.294 . S
In410 O422 2.326 . S
O411 In410 2.294 . S
O411 C420 1.240 . S
O412 In410 2.326 . S
O412 C420 1.252 . S
C413 O416 1.252 . S
C413 O417 1.260 . S
C414 O421 1.240 . S
C414 O422 1.252 . S
C415 O418 1.252 . S
C415 O419 1.260 . S
O416 In410 2.266 . S
O416 C413 1.252 . S
O417 In410 2.326 . S
O417 C413 1.260 . S
O418 In410 2.266 . S
O418 C415 1.252 . S
O419 In410 2.326 . S
O419 C415 1.260 . S
C420 O411 1.240 . S
C420 O412 1.252 . S
O421 In410 2.294 . S
O421 C414 1.240 . S
O422 In410 2.326 . S
O422 C414 1.252 . S
In423 O424 2.294 . S
In423 O425 2.326 . S
In423 O429 2.266 . S
In423 O430 2.326 . S
In423 O431 2.266 . S
In423 O432 2.326 . S
In423 O434 2.294 . S
In423 O435 2.326 . S
O424 In423 2.294 . S
O424 C433 1.240 . S
O425 In423 2.326 . S
O425 C433 1.252 . S
C426 O429 1.252 . S
C426 O430 1.260 . S
C427 O434 1.240 . S
C427 O435 1.252 . S
C428 O431 1.252 . S
C428 O432 1.260 . S
O429 In423 2.266 . S
O429 C426 1.252 . S
O430 In423 2.326 . S
O430 C426 1.260 . S
O431 In423 2.266 . S
O431 C428 1.252 . S
O432 In423 2.326 . S
O432 C428 1.260 . S
C433 O424 1.240 . S
C433 O425 1.252 . S
O434 In423 2.294 . S
O434 C427 1.240 . S
O435 In423 2.326 . S
O435 C427 1.252 . S
In436 O437 2.294 . S
In436 O438 2.326 . S
In436 O442 2.266 . S
In436 O443 2.326 . S
In436 O444 2.266 . S
In436 O445 2.326 . S
In436 O447 2.294 . S
In436 O448 2.326 . S
O437 In436 2.294 . S
O437 C446 1.240 . S
O438 In436 2.326 . S
O438 C446 1.252 . S
C439 O442 1.252 . S
C439 O443 1.260 . S
C440 O447 1.240 . S
C440 O448 1.252 . S
C441 O444 1.252 . S
C441 O445 1.260 . S
O442 In436 2.266 . S
O442 C439 1.252 . S
O443 In436 2.326 . S
O443 C439 1.260 . S
O444 In436 2.266 . S
O444 C441 1.252 . S
O445 In436 2.326 . S
O445 C441 1.260 . S
C446 O437 1.240 . S
C446 O438 1.252 . S
O447 In436 2.294 . S
O447 C440 1.240 . S
O448 In436 2.326 . S
O448 C440 1.252 . S
In449 O450 2.294 . S
In449 O451 2.326 . S
In449 O455 2.266 . S
In449 O456 2.326 . S
In449 O457 2.266 . S
In449 O458 2.326 . S
In449 O460 2.294 . S
In449 O461 2.326 . S
O450 In449 2.294 . S
O450 C459 1.240 . S
O451 In449 2.326 . S
O451 C459 1.252 . S
C452 O455 1.252 . S
C452 O456 1.260 . S
C453 O460 1.240 . S
C453 O461 1.252 . S
C454 O457 1.252 . S
C454 O458 1.260 . S
O455 In449 2.266 . S
O455 C452 1.252 . S
O456 In449 2.326 . S
O456 C452 1.260 . S
O457 In449 2.266 . S
O457 C454 1.252 . S
O458 In449 2.326 . S
O458 C454 1.260 . S
C459 O450 1.240 . S
C459 O451 1.252 . S
O460 In449 2.294 . S
O460 C453 1.240 . S
O461 In449 2.326 . S
O461 C453 1.252 . S
In462 O463 2.294 . S
In462 O464 2.326 . S
In462 O468 2.266 1_554 S
In462 O469 2.326 1_554 S
In462 O470 2.266 1_554 S
In462 O471 2.326 1_554 S
In462 O473 2.294 . S
In462 O474 2.326 . S
O463 In462 2.294 . S
O463 C472 1.240 . S
O464 In462 2.326 . S
O464 C472 1.252 . S
C465 O468 1.252 . S
C465 O469 1.260 . S
C466 O473 1.240 . S
C466 O474 1.252 . S
C467 O470 1.252 . S
C467 O471 1.260 . S
O468 In462 2.266 1_556 S
O468 C465 1.252 . S
O469 In462 2.326 1_556 S
O469 C465 1.260 . S
O470 In462 2.266 1_556 S
O470 C467 1.252 . S
O471 In462 2.326 1_556 S
O471 C467 1.260 . S
C472 O463 1.240 . S
C472 O464 1.252 . S
O473 In462 2.294 . S
O473 C466 1.240 . S
O474 In462 2.326 . S
O474 C466 1.252 . S
In475 O476 2.294 . S
In475 O477 2.326 . S
In475 O481 2.266 . S
In475 O482 2.326 . S
In475 O483 2.266 . S
In475 O484 2.326 . S
In475 O486 2.294 . S
In475 O487 2.326 . S
O476 In475 2.294 . S
O476 C485 1.240 . S
O477 In475 2.326 . S
O477 C485 1.252 . S
C478 O481 1.252 . S
C478 O482 1.260 . S
C479 O486 1.240 . S
C479 O487 1.252 . S
C480 O483 1.252 . S
C480 O484 1.260 . S
O481 In475 2.266 . S
O481 C478 1.252 . S
O482 In475 2.326 . S
O482 C478 1.260 . S
O483 In475 2.266 . S
O483 C480 1.252 . S
O484 In475 2.326 . S
O484 C480 1.260 . S
C485 O476 1.240 . S
C485 O477 1.252 . S
O486 In475 2.294 . S
O486 C479 1.240 . S
O487 In475 2.326 . S
O487 C479 1.252 . S
C488 C489 1.391 . S
C488 C490 1.394 . S
C488 H504 0.931 . S
C489 C488 1.391 . S
C489 C493 1.376 . S
C490 C488 1.394 . S
C490 C491 1.369 . S
C490 C494 1.531 . S
C491 C490 1.369 . S
C491 C492 1.410 . S
C491 C499 1.503 . S
C492 C491 1.410 . S
C492 C493 1.392 . S
C492 C495 1.511 . S
C493 C489 1.376 . S
C493 C492 1.392 . S
C493 H505 0.929 . S
C494 C490 1.531 . S
C494 H506 0.960 . S
C494 H507 0.962 . S
C494 H508 0.960 . S
C495 C492 1.511 . S
C495 H509 0.961 . S
C495 H510 0.961 . S
C495 H511 0.961 . S
C496 C497 1.370 . S
C496 C498 1.363 . S
C496 H512 0.931 . S
C497 C496 1.370 . S
C497 C501 1.408 . S
C498 C496 1.363 . S
C498 C499 1.370 . S
C498 C502 1.524 . S
C499 C491 1.503 . S
C499 C498 1.370 . S
C499 C500 1.403 . S
C500 C499 1.403 . S
C500 C501 1.404 . S
C500 C503 1.539 . S
C501 C497 1.408 . S
C501 C500 1.404 . S
C501 H513 0.930 . S
C502 C498 1.524 . S
C502 H514 0.956 . S
C502 H515 0.961 . S
C502 H516 0.961 . S
C503 C500 1.539 . S
C503 H517 0.958 . S
C503 H518 0.961 . S
C503 H519 0.960 . S
H504 C488 0.931 . S
H505 C493 0.929 . S
H506 C494 0.960 . S
H507 C494 0.962 . S
H508 C494 0.960 . S
H509 C495 0.961 . S
H510 C495 0.961 . S
H511 C495 0.961 . S
H512 C496 0.931 . S
H513 C501 0.930 . S
H514 C502 0.956 . S
H515 C502 0.961 . S
H516 C502 0.961 . S
H517 C503 0.958 . S
H518 C503 0.961 . S
H519 C503 0.960 . S
C520 C521 1.391 . S
C520 C522 1.394 . S
C520 H536 0.931 . S
C521 C520 1.391 . S
C521 C525 1.376 . S
C522 C520 1.394 . S
C522 C523 1.369 . S
C522 C526 1.531 . S
C523 C522 1.369 . S
C523 C524 1.410 . S
C523 C531 1.503 . S
C524 C523 1.410 . S
C524 C525 1.392 . S
C524 C527 1.511 . S
C525 C521 1.376 . S
C525 C524 1.392 . S
C525 H537 0.929 . S
C526 C522 1.531 . S
C526 H538 0.960 . S
C526 H539 0.962 . S
C526 H540 0.960 . S
C527 C524 1.511 . S
C527 H541 0.961 . S
C527 H542 0.961 . S
C527 H543 0.961 . S
C528 C529 1.370 . S
C528 C530 1.363 . S
C528 H544 0.931 . S
C529 C528 1.370 . S
C529 C533 1.408 . S
C530 C528 1.363 . S
C530 C531 1.370 . S
C530 C534 1.524 . S
C531 C523 1.503 . S
C531 C530 1.370 . S
C531 C532 1.403 . S
C532 C531 1.403 . S
C532 C533 1.404 . S
C532 C535 1.539 . S
C533 C529 1.408 . S
C533 C532 1.404 . S
C533 H545 0.930 . S
C534 C530 1.524 . S
C534 H546 0.956 . S
C534 H547 0.961 . S
C534 H548 0.961 . S
C535 C532 1.539 . S
C535 H549 0.958 . S
C535 H550 0.961 . S
C535 H551 0.960 . S
H536 C520 0.931 . S
H537 C525 0.929 . S
H538 C526 0.960 . S
H539 C526 0.962 . S
H540 C526 0.960 . S
H541 C527 0.961 . S
H542 C527 0.961 . S
H543 C527 0.961 . S
H544 C528 0.931 . S
H545 C533 0.930 . S
H546 C534 0.956 . S
H547 C534 0.961 . S
H548 C534 0.961 . S
H549 C535 0.958 . S
H550 C535 0.961 . S
H551 C535 0.960 . S
C552 C553 1.391 . S
C552 C554 1.394 . S
C552 H568 0.931 . S
C553 C552 1.391 . S
C553 C557 1.376 . S
C554 C552 1.394 . S
C554 C555 1.369 . S
C554 C558 1.531 . S
C555 C554 1.369 . S
C555 C556 1.410 . S
C555 C563 1.503 . S
C556 C555 1.410 . S
C556 C557 1.392 . S
C556 C559 1.511 . S
C557 C553 1.376 . S
C557 C556 1.392 . S
C557 H569 0.929 . S
C558 C554 1.531 . S
C558 H570 0.960 . S
C558 H571 0.962 . S
C558 H572 0.960 . S
C559 C556 1.511 . S
C559 H573 0.961 . S
C559 H574 0.961 . S
C559 H575 0.961 . S
C560 C561 1.370 . S
C560 C562 1.363 . S
C560 H576 0.931 . S
C561 C560 1.370 . S
C561 C565 1.408 . S
C562 C560 1.363 . S
C562 C563 1.370 . S
C562 C566 1.524 . S
C563 C555 1.503 . S
C563 C562 1.370 . S
C563 C564 1.403 . S
C564 C563 1.403 . S
C564 C565 1.404 . S
C564 C567 1.539 . S
C565 C561 1.408 . S
C565 C564 1.404 . S
C565 H577 0.930 . S
C566 C562 1.524 . S
C566 H578 0.956 . S
C566 H579 0.961 . S
C566 H580 0.961 . S
C567 C564 1.539 . S
C567 H581 0.958 . S
C567 H582 0.961 . S
C567 H583 0.960 . S
H568 C552 0.931 . S
H569 C557 0.929 . S
H570 C558 0.960 . S
H571 C558 0.962 . S
H572 C558 0.960 . S
H573 C559 0.961 . S
H574 C559 0.961 . S
H575 C559 0.961 . S
H576 C560 0.931 . S
H577 C565 0.930 . S
H578 C566 0.956 . S
H579 C566 0.961 . S
H580 C566 0.961 . S
H581 C567 0.958 . S
H582 C567 0.961 . S
H583 C567 0.960 . S
C584 C585 1.391 . S
C584 C586 1.394 . S
C584 H600 0.931 . S
C585 C584 1.391 . S
C585 C589 1.376 . S
C586 C584 1.394 . S
C586 C587 1.369 . S
C586 C590 1.531 . S
C587 C586 1.369 . S
C587 C588 1.410 . S
C587 C595 1.503 . S
C588 C587 1.410 . S
C588 C589 1.392 . S
C588 C591 1.511 . S
C589 C585 1.376 . S
C589 C588 1.392 . S
C589 H601 0.929 . S
C590 C586 1.531 . S
C590 H602 0.960 . S
C590 H603 0.962 . S
C590 H604 0.960 . S
C591 C588 1.511 . S
C591 H605 0.961 . S
C591 H606 0.961 . S
C591 H607 0.961 . S
C592 C593 1.370 . S
C592 C594 1.363 . S
C592 H608 0.931 . S
C593 C592 1.370 . S
C593 C597 1.408 . S
C594 C592 1.363 . S
C594 C595 1.370 . S
C594 C598 1.524 . S
C595 C587 1.503 . S
C595 C594 1.370 . S
C595 C596 1.403 . S
C596 C595 1.403 . S
C596 C597 1.404 . S
C596 C599 1.539 1_554 S
C597 C593 1.408 . S
C597 C596 1.404 . S
C597 H609 0.930 1_554 S
C598 C594 1.524 . S
C598 H610 0.956 . S
C598 H611 0.961 . S
C598 H612 0.961 . S
C599 C596 1.539 1_556 S
C599 H613 0.958 . S
C599 H614 0.961 . S
C599 H615 0.960 1_556 S
H600 C584 0.931 . S
H601 C589 0.929 . S
H602 C590 0.960 . S
H603 C590 0.962 . S
H604 C590 0.960 . S
H605 C591 0.961 . S
H606 C591 0.961 . S
H607 C591 0.961 . S
H608 C592 0.931 . S
H609 C597 0.930 1_556 S
H610 C598 0.956 . S
H611 C598 0.961 . S
H612 C598 0.961 . S
H613 C599 0.958 . S
H614 C599 0.961 . S
H615 C599 0.960 1_554 S
C616 C617 1.391 . S
C616 C618 1.394 . S
C616 H632 0.931 . S
C617 C616 1.391 . S
C617 C621 1.376 . S
C618 C616 1.394 . S
C618 C619 1.369 . S
C618 C622 1.531 . S
C619 C618 1.369 . S
C619 C620 1.410 . S
C619 C627 1.503 . S
C620 C619 1.410 . S
C620 C621 1.392 . S
C620 C623 1.511 . S
C621 C617 1.376 . S
C621 C620 1.392 . S
C621 H633 0.929 . S
C622 C618 1.531 . S
C622 H634 0.960 . S
C622 H635 0.962 1_556 S
C622 H636 0.960 . S
C623 C620 1.511 . S
C623 H637 0.961 . S
C623 H638 0.961 . S
C623 H639 0.961 . S
C624 C625 1.370 . S
C624 C626 1.363 . S
C624 H640 0.931 1_556 S
C625 C624 1.370 . S
C625 C629 1.408 . S
C626 C624 1.363 . S
C626 C627 1.370 . S
C626 C630 1.525 . S
C627 C619 1.503 . S
C627 C626 1.370 . S
C627 C628 1.403 . S
C628 C627 1.403 . S
C628 C629 1.404 . S
C628 C631 1.539 . S
C629 C625 1.408 . S
C629 C628 1.404 . S
C629 H641 0.930 . S
C630 C626 1.525 . S
C630 H642 0.955 1_556 S
C630 H643 0.962 . S
C630 H644 0.959 1_556 S
C631 C628 1.539 . S
C631 H645 0.958 . S
C631 H646 0.961 . S
C631 H647 0.960 . S
H632 C616 0.931 . S
H633 C621 0.929 . S
H634 C622 0.960 . S
H635 C622 0.962 1_554 S
H636 C622 0.960 . S
H637 C623 0.961 . S
H638 C623 0.961 . S
H639 C623 0.961 . S
H640 C624 0.931 1_554 S
H641 C629 0.930 . S
H642 C630 0.955 1_554 S
H643 C630 0.962 . S
H644 C630 0.959 1_554 S
H645 C631 0.958 . S
H646 C631 0.961 . S
H647 C631 0.960 . S
C648 C649 1.391 . S
C648 C650 1.394 . S
C648 H664 0.931 . S
C649 C648 1.391 . S
C649 C653 1.376 . S
C650 C648 1.394 . S
C650 C651 1.369 . S
C650 C654 1.531 . S
C651 C650 1.369 . S
C651 C652 1.410 . S
C651 C659 1.503 . S
C652 C651 1.410 . S
C652 C653 1.392 . S
C652 C655 1.511 . S
C653 C649 1.376 . S
C653 C652 1.392 . S
C653 H665 0.929 . S
C654 C650 1.531 . S
C654 H666 0.960 . S
C654 H667 0.962 . S
C654 H668 0.960 . S
C655 C652 1.511 . S
C655 H669 0.961 . S
C655 H670 0.961 . S
C655 H671 0.961 . S
C656 C657 1.370 . S
C656 C658 1.363 . S
C656 H672 0.931 . S
C657 C656 1.370 . S
C657 C661 1.408 . S
C658 C656 1.363 . S
C658 C659 1.370 . S
C658 C662 1.524 . S
C659 C651 1.503 . S
C659 C658 1.370 . S
C659 C660 1.403 . S
C660 C659 1.403 . S
C660 C661 1.404 . S
C660 C663 1.539 . S
C661 C657 1.408 . S
C661 C660 1.404 . S
C661 H673 0.930 . S
C662 C658 1.524 . S
C662 H674 0.956 . S
C662 H675 0.961 . S
C662 H676 0.961 . S
C663 C660 1.539 . S
C663 H677 0.958 . S
C663 H678 0.961 . S
C663 H679 0.960 . S
H664 C648 0.931 . S
H665 C653 0.929 . S
H666 C654 0.960 . S
H667 C654 0.962 . S
H668 C654 0.960 . S
H669 C655 0.961 . S
H670 C655 0.961 . S
H671 C655 0.961 . S
H672 C656 0.931 . S
H673 C661 0.930 . S
H674 C662 0.956 . S
H675 C662 0.961 . S
H676 C662 0.961 . S
H677 C663 0.958 . S
H678 C663 0.961 . S
H679 C663 0.960 . S
C680 C681 1.391 . S
C680 C682 1.394 . S
C680 H696 0.931 . S
C681 C680 1.391 . S
C681 C685 1.376 . S
C682 C680 1.394 . S
C682 C683 1.369 . S
C682 C686 1.531 . S
C683 C682 1.369 . S
C683 C684 1.410 . S
C683 C691 1.503 . S
C684 C683 1.410 . S
C684 C685 1.392 . S
C684 C687 1.511 . S
C685 C681 1.376 . S
C685 C684 1.392 . S
C685 H697 0.929 . S
C686 C682 1.531 . S
C686 H698 0.960 . S
C686 H699 0.962 . S
C686 H700 0.960 . S
C687 C684 1.511 . S
C687 H701 0.961 . S
C687 H702 0.961 . S
C687 H703 0.961 . S
C688 C689 1.370 . S
C688 C690 1.363 . S
C688 H704 0.931 . S
C689 C688 1.370 . S
C689 C693 1.408 . S
C690 C688 1.363 . S
C690 C691 1.370 . S
C690 C694 1.524 . S
C691 C683 1.503 . S
C691 C690 1.370 . S
C691 C692 1.403 . S
C692 C691 1.403 . S
C692 C693 1.404 . S
C692 C695 1.539 . S
C693 C689 1.408 . S
C693 C692 1.404 . S
C693 H705 0.930 . S
C694 C690 1.524 . S
C694 H706 0.956 . S
C694 H707 0.961 . S
C694 H708 0.961 . S
C695 C692 1.539 . S
C695 H709 0.958 . S
C695 H710 0.961 . S
C695 H711 0.960 . S
H696 C680 0.931 . S
H697 C685 0.929 . S
H698 C686 0.960 . S
H699 C686 0.962 . S
H700 C686 0.960 . S
H701 C687 0.961 . S
H702 C687 0.961 . S
H703 C687 0.961 . S
H704 C688 0.931 . S
H705 C693 0.930 . S
H706 C694 0.956 . S
H707 C694 0.961 . S
H708 C694 0.961 . S
H709 C695 0.958 . S
H710 C695 0.961 . S
H711 C695 0.960 . S
C712 C713 1.391 . S
C712 C714 1.394 . S
C712 H728 0.931 . S
C713 C712 1.391 . S
C713 C717 1.376 . S
C714 C712 1.394 . S
C714 C715 1.369 . S
C714 C718 1.531 . S
C715 C714 1.369 . S
C715 C716 1.410 . S
C715 C723 1.503 . S
C716 C715 1.410 . S
C716 C717 1.392 . S
C716 C719 1.511 . S
C717 C713 1.376 . S
C717 C716 1.392 . S
C717 H729 0.929 . S
C718 C714 1.531 . S
C718 H730 0.960 . S
C718 H731 0.962 . S
C718 H732 0.960 . S
C719 C716 1.511 . S
C719 H733 0.961 . S
C719 H734 0.961 . S
C719 H735 0.961 . S
C720 C721 1.370 . S
C720 C722 1.363 . S
C720 H736 0.931 . S
C721 C720 1.370 . S
C721 C725 1.408 . S
C722 C720 1.363 . S
C722 C723 1.370 . S
C722 C726 1.524 . S
C723 C715 1.503 . S
C723 C722 1.370 . S
C723 C724 1.403 . S
C724 C723 1.403 . S
C724 C725 1.404 . S
C724 C727 1.539 . S
C725 C721 1.408 . S
C725 C724 1.404 . S
C725 H737 0.930 . S
C726 C722 1.524 . S
C726 H738 0.956 . S
C726 H739 0.961 . S
C726 H740 0.961 . S
C727 C724 1.539 . S
C727 H741 0.958 . S
C727 H742 0.961 . S
C727 H743 0.960 . S
H728 C712 0.931 . S
H729 C717 0.929 . S
H730 C718 0.960 . S
H731 C718 0.962 . S
H732 C718 0.960 . S
H733 C719 0.961 . S
H734 C719 0.961 . S
H735 C719 0.961 . S
H736 C720 0.931 . S
H737 C725 0.930 . S
H738 C726 0.956 . S
H739 C726 0.961 . S
H740 C726 0.961 . S
H741 C727 0.958 . S
H742 C727 0.961 . S
H743 C727 0.960 . S
C744 C745 1.391 . S
C744 C746 1.394 . S
C744 H760 0.931 . S
C745 C744 1.391 . S
C745 C749 1.376 . S
C746 C744 1.394 . S
C746 C747 1.369 . S
C746 C750 1.531 . S
C747 C746 1.369 . S
C747 C748 1.410 . S
C747 C755 1.503 . S
C748 C747 1.410 . S
C748 C749 1.392 . S
C748 C751 1.511 . S
C749 C745 1.376 . S
C749 C748 1.392 . S
C749 H761 0.929 . S
C750 C746 1.531 . S
C750 H762 0.960 . S
C750 H763 0.962 . S
C750 H764 0.960 . S
C751 C748 1.511 . S
C751 H765 0.961 . S
C751 H766 0.961 . S
C751 H767 0.961 . S
C752 C753 1.370 . S
C752 C754 1.363 . S
C752 H768 0.931 . S
C753 C752 1.370 . S
C753 C757 1.408 . S
C754 C752 1.363 . S
C754 C755 1.370 . S
C754 C758 1.524 . S
C755 C747 1.503 . S
C755 C754 1.370 . S
C755 C756 1.403 . S
C756 C755 1.403 . S
C756 C757 1.404 . S
C756 C759 1.539 . S
C757 C753 1.408 . S
C757 C756 1.404 . S
C757 H769 0.930 . S
C758 C754 1.524 . S
C758 H770 0.956 . S
C758 H771 0.961 . S
C758 H772 0.961 . S
C759 C756 1.539 . S
C759 H773 0.958 . S
C759 H774 0.961 . S
C759 H775 0.960 . S
H760 C744 0.931 . S
H761 C749 0.929 . S
H762 C750 0.960 . S
H763 C750 0.962 . S
H764 C750 0.960 . S
H765 C751 0.961 . S
H766 C751 0.961 . S
H767 C751 0.961 . S
H768 C752 0.931 . S
H769 C757 0.930 . S
H770 C758 0.956 . S
H771 C758 0.961 . S
H772 C758 0.961 . S
H773 C759 0.958 . S
H774 C759 0.961 . S
H775 C759 0.960 . S
C776 C777 1.391 . S
C776 C778 1.394 . S
C776 H792 0.931 . S
C777 C776 1.391 . S
C777 C781 1.376 . S
C778 C776 1.394 . S
C778 C779 1.369 . S
C778 C782 1.531 . S
C779 C778 1.369 . S
C779 C780 1.410 . S
C779 C787 1.503 . S
C780 C779 1.410 . S
C780 C781 1.392 . S
C780 C783 1.511 . S
C781 C777 1.376 . S
C781 C780 1.392 . S
C781 H793 0.929 . S
C782 C778 1.531 . S
C782 H794 0.960 . S
C782 H795 0.962 . S
C782 H796 0.960 . S
C783 C780 1.511 . S
C783 H797 0.961 . S
C783 H798 0.961 . S
C783 H799 0.961 . S
C784 C785 1.370 . S
C784 C786 1.363 . S
C784 H800 0.931 . S
C785 C784 1.370 . S
C785 C789 1.408 . S
C786 C784 1.363 . S
C786 C787 1.370 . S
C786 C790 1.524 . S
C787 C779 1.503 . S
C787 C786 1.370 . S
C787 C788 1.403 . S
C788 C787 1.403 . S
C788 C789 1.404 . S
C788 C791 1.539 . S
C789 C785 1.408 . S
C789 C788 1.404 . S
C789 H801 0.934 1_554 S
C790 C786 1.524 . S
C790 H802 0.956 . S
C790 H803 0.961 . S
C790 H804 0.961 . S
C791 C788 1.539 . S
C791 H805 0.958 . S
C791 H806 0.961 1_554 S
C791 H807 0.960 . S
H792 C776 0.931 . S
H793 C781 0.929 . S
H794 C782 0.960 . S
H795 C782 0.962 . S
H796 C782 0.960 . S
H797 C783 0.961 . S
H798 C783 0.961 . S
H799 C783 0.961 . S
H800 C784 0.931 . S
H801 C789 0.934 1_556 S
H802 C790 0.956 . S
H803 C790 0.961 . S
H804 C790 0.961 . S
H805 C791 0.958 . S
H806 C791 0.961 1_556 S
H807 C791 0.960 . S
C808 C809 1.391 . S
C808 C810 1.394 . S
C808 H824 0.931 . S
C809 C808 1.391 . S
C809 C813 1.376 . S
C810 C808 1.394 . S
C810 C811 1.369 . S
C810 C814 1.531 . S
C811 C810 1.369 . S
C811 C812 1.410 . S
C811 C819 1.503 . S
C812 C811 1.410 . S
C812 C813 1.392 . S
C812 C815 1.511 . S
C813 C809 1.376 . S
C813 C812 1.392 . S
C813 H825 0.929 . S
C814 C810 1.531 . S
C814 H826 0.960 . S
C814 H827 0.962 . S
C814 H828 0.960 . S
C815 C812 1.511 . S
C815 H829 0.961 . S
C815 H830 0.961 . S
C815 H831 0.961 . S
C816 C817 1.370 . S
C816 C818 1.363 . S
C816 H832 0.931 . S
C817 C816 1.370 . S
C817 C821 1.408 . S
C818 C816 1.363 . S
C818 C819 1.370 . S
C818 C822 1.524 . S
C819 C811 1.503 . S
C819 C818 1.370 . S
C819 C820 1.403 . S
C820 C819 1.403 . S
C820 C821 1.404 . S
C820 C823 1.539 . S
C821 C817 1.408 . S
C821 C820 1.404 . S
C821 H833 0.930 . S
C822 C818 1.524 . S
C822 H834 0.956 . S
C822 H835 0.961 . S
C822 H836 0.961 . S
C823 C820 1.539 . S
C823 H837 0.958 . S
C823 H838 0.961 . S
C823 H839 0.960 . S
H824 C808 0.931 . S
H825 C813 0.929 . S
H826 C814 0.960 . S
H827 C814 0.962 . S
H828 C814 0.960 . S
H829 C815 0.961 . S
H830 C815 0.961 . S
H831 C815 0.961 . S
H832 C816 0.931 . S
H833 C821 0.930 . S
H834 C822 0.956 . S
H835 C822 0.961 . S
H836 C822 0.961 . S
H837 C823 0.958 . S
H838 C823 0.961 . S
H839 C823 0.960 . S
C840 C841 1.391 . S
C840 C842 1.394 . S
C840 H856 0.931 . S
C841 C840 1.391 . S
C841 C845 1.376 . S
C842 C840 1.394 . S
C842 C843 1.369 . S
C842 C846 1.531 . S
C843 C842 1.369 . S
C843 C844 1.410 . S
C843 C851 1.503 . S
C844 C843 1.410 . S
C844 C845 1.392 . S
C844 C847 1.511 . S
C845 C841 1.376 . S
C845 C844 1.392 . S
C845 H857 0.929 . S
C846 C842 1.531 . S
C846 H858 0.960 . S
C846 H859 0.962 . S
C846 H860 0.960 . S
C847 C844 1.511 . S
C847 H861 0.961 . S
C847 H862 0.961 . S
C847 H863 0.961 . S
C848 C849 1.370 . S
C848 C850 1.363 . S
C848 H864 0.931 . S
C849 C848 1.370 . S
C849 C853 1.408 . S
C850 C848 1.363 . S
C850 C851 1.370 . S
C850 C854 1.524 . S
C851 C843 1.503 . S
C851 C850 1.370 . S
C851 C852 1.403 . S
C852 C851 1.403 . S
C852 C853 1.404 . S
C852 C855 1.539 . S
C853 C849 1.408 . S
C853 C852 1.404 . S
C853 H865 0.930 . S
C854 C850 1.524 . S
C854 H866 0.956 . S
C854 H867 0.961 . S
C854 H868 0.961 . S
C855 C852 1.539 . S
C855 H869 0.958 . S
C855 H870 0.961 . S
C855 H871 0.960 . S
H856 C840 0.931 . S
H857 C845 0.929 . S
H858 C846 0.960 . S
H859 C846 0.962 . S
H860 C846 0.960 . S
H861 C847 0.961 . S
H862 C847 0.961 . S
H863 C847 0.961 . S
H864 C848 0.931 . S
H865 C853 0.930 . S
H866 C854 0.956 . S
H867 C854 0.961 . S
H868 C854 0.961 . S
H869 C855 0.958 . S
H870 C855 0.961 . S
H871 C855 0.960 . S
C872 C873 1.391 . S
C872 C874 1.394 . S
C872 H888 0.931 . S
C873 C872 1.391 . S
C873 C877 1.376 . S
C874 C872 1.394 . S
C874 C875 1.369 . S
C874 C878 1.531 . S
C875 C874 1.369 . S
C875 C876 1.410 . S
C875 C883 1.503 . S
C876 C875 1.410 . S
C876 C877 1.392 . S
C876 C879 1.511 . S
C877 C873 1.376 . S
C877 C876 1.392 . S
C877 H889 0.929 . S
C878 C874 1.531 . S
C878 H890 0.960 . S
C878 H891 0.962 . S
C878 H892 0.960 . S
C879 C876 1.511 . S
C879 H893 0.961 . S
C879 H894 0.961 . S
C879 H895 0.961 . S
C880 C881 1.370 . S
C880 C882 1.363 . S
C880 H896 0.931 . S
C881 C880 1.370 . S
C881 C885 1.408 . S
C882 C880 1.363 . S
C882 C883 1.370 . S
C882 C886 1.524 . S
C883 C875 1.503 . S
C883 C882 1.370 . S
C883 C884 1.403 . S
C884 C883 1.403 . S
C884 C885 1.404 . S
C884 C887 1.539 . S
C885 C881 1.408 . S
C885 C884 1.404 . S
C885 H897 0.930 . S
C886 C882 1.524 . S
C886 H898 0.956 . S
C886 H899 0.961 . S
C886 H900 0.961 . S
C887 C884 1.539 . S
C887 H901 0.958 . S
C887 H902 0.961 . S
C887 H903 0.960 . S
H888 C872 0.931 . S
H889 C877 0.929 . S
H890 C878 0.960 . S
H891 C878 0.962 . S
H892 C878 0.960 . S
H893 C879 0.961 . S
H894 C879 0.961 . S
H895 C879 0.961 . S
H896 C880 0.931 . S
H897 C885 0.930 . S
H898 C886 0.956 . S
H899 C886 0.961 . S
H900 C886 0.961 . S
H901 C887 0.958 . S
H902 C887 0.961 . S
H903 C887 0.960 . S
C904 C905 1.391 . S
C904 C906 1.394 . S
C904 H920 0.931 . S
C905 C904 1.391 . S
C905 C909 1.376 . S
C906 C904 1.394 . S
C906 C907 1.369 . S
C906 C910 1.531 . S
C907 C906 1.369 . S
C907 C908 1.410 . S
C907 C915 1.503 . S
C908 C907 1.410 . S
C908 C909 1.392 . S
C908 C911 1.511 . S
C909 C905 1.376 . S
C909 C908 1.392 . S
C909 H921 0.929 . S
C910 C906 1.531 . S
C910 H922 0.960 . S
C910 H923 0.962 . S
C910 H924 0.960 . S
C911 C908 1.511 . S
C911 H925 0.961 . S
C911 H926 0.961 . S
C911 H927 0.961 . S
C912 C913 1.370 . S
C912 C914 1.363 . S
C912 H928 0.931 . S
C913 C912 1.370 . S
C913 C917 1.408 . S
C914 C912 1.363 . S
C914 C915 1.370 . S
C914 C918 1.524 . S
C915 C907 1.503 . S
C915 C914 1.370 . S
C915 C916 1.403 . S
C916 C915 1.403 . S
C916 C917 1.404 . S
C916 C919 1.539 . S
C917 C913 1.408 . S
C917 C916 1.404 . S
C917 H929 0.930 . S
C918 C914 1.524 . S
C918 H930 0.956 . S
C918 H931 0.961 . S
C918 H932 0.961 . S
C919 C916 1.539 . S
C919 H933 0.958 . S
C919 H934 0.961 . S
C919 H935 0.960 . S
H920 C904 0.931 . S
H921 C909 0.929 . S
H922 C910 0.960 . S
H923 C910 0.962 . S
H924 C910 0.960 . S
H925 C911 0.961 . S
H926 C911 0.961 . S
H927 C911 0.961 . S
H928 C912 0.931 . S
H929 C917 0.930 . S
H930 C918 0.956 . S
H931 C918 0.961 . S
H932 C918 0.961 . S
H933 C919 0.958 . S
H934 C919 0.961 . S
H935 C919 0.960 . S
C936 C937 1.391 . S
C936 C938 1.394 . S
C936 H952 0.931 . S
C937 C936 1.391 . S
C937 C941 1.376 . S
C938 C936 1.394 . S
C938 C939 1.369 . S
C938 C942 1.531 1_556 S
C939 C938 1.369 . S
C939 C940 1.410 . S
C939 C947 1.503 . S
C940 C939 1.410 . S
C940 C941 1.392 . S
C940 C943 1.511 . S
C941 C937 1.376 . S
C941 C940 1.392 . S
C941 H953 0.929 . S
C942 C938 1.531 1_554 S
C942 H954 0.960 . S
C942 H955 0.962 . S
C942 H956 0.960 . S
C943 C940 1.511 . S
C943 H957 0.961 . S
C943 H958 0.961 . S
C943 H959 0.961 . S
C944 C945 1.370 . S
C944 C946 1.363 . S
C944 H960 0.931 . S
C945 C944 1.370 . S
C945 C949 1.408 . S
C946 C944 1.363 . S
C946 C947 1.370 . S
C946 C950 1.524 . S
C947 C939 1.503 . S
C947 C946 1.370 . S
C947 C948 1.403 . S
C948 C947 1.403 . S
C948 C949 1.404 . S
C948 C951 1.539 . S
C949 C945 1.408 . S
C949 C948 1.404 . S
C949 H961 0.930 . S
C950 C946 1.524 . S
C950 H962 0.956 . S
C950 H963 0.961 . S
C950 H964 0.961 . S
C951 C948 1.539 . S
C951 H965 0.994 . S
C951 H966 0.961 . S
C951 H967 0.960 . S
H952 C936 0.931 . S
H953 C941 0.929 . S
H954 C942 0.960 . S
H955 C942 0.962 . S
H956 C942 0.960 . S
H957 C943 0.961 . S
H958 C943 0.961 . S
H959 C943 0.961 . S
H960 C944 0.931 . S
H961 C949 0.930 . S
H962 C950 0.956 . S
H963 C950 0.961 . S
H964 C950 0.961 . S
H965 C951 0.994 . S
H966 C951 0.961 . S
H967 C951 0.960 . S
C968 C969 1.391 . S
C968 C970 1.394 . S
C968 H984 0.931 . S
C969 C968 1.391 . S
C969 C973 1.376 . S
C970 C968 1.394 . S
C970 C971 1.369 . S
C970 C974 1.531 . S
C971 C970 1.369 . S
C971 C972 1.410 . S
C971 C979 1.503 . S
C972 C971 1.410 . S
C972 C973 1.392 . S
C972 C975 1.511 . S
C973 C969 1.376 . S
C973 C972 1.392 . S
C973 H985 0.929 . S
C974 C970 1.531 . S
C974 H986 0.960 . S
C974 H987 0.962 . S
C974 H988 0.960 . S
C975 C972 1.511 . S
C975 H989 0.961 . S
C975 H990 0.961 . S
C975 H991 0.961 . S
C976 C977 1.370 . S
C976 C978 1.363 . S
C976 H992 0.931 . S
C977 C976 1.370 . S
C977 C981 1.408 . S
C978 C976 1.363 . S
C978 C979 1.370 . S
C978 C982 1.524 . S
C979 C971 1.503 . S
C979 C978 1.370 . S
C979 C980 1.403 . S
C980 C979 1.403 . S
C980 C981 1.404 . S
C980 C983 1.539 . S
C981 C977 1.408 . S
C981 C980 1.404 . S
C981 H993 0.930 . S
C982 C978 1.524 . S
C982 H994 0.956 . S
C982 H995 0.961 . S
C982 H996 0.961 . S
C983 C980 1.539 . S
C983 H997 0.958 . S
C983 H998 0.961 . S
C983 H999 0.960 . S
H984 C968 0.931 . S
H985 C973 0.929 . S
H986 C974 0.960 . S
H987 C974 0.962 . S
H988 C974 0.960 . S
H989 C975 0.961 . S
H990 C975 0.961 . S
H991 C975 0.961 . S
H992 C976 0.931 . S
H993 C981 0.930 . S
H994 C982 0.956 . S
H995 C982 0.961 . S
H996 C982 0.961 . S
H997 C983 0.958 . S
H998 C983 0.961 . S
H999 C983 0.960 . S
C1000 C1001 1.391 . S
C1000 C1002 1.394 . S
C1000 H1016 0.931 . S
C1001 C1000 1.391 . S
C1001 C1005 1.376 . S
C1002 C1000 1.394 . S
C1002 C1003 1.369 . S
C1002 C1006 1.531 . S
C1003 C1002 1.369 . S
C1003 C1004 1.410 . S
C1003 C1011 1.503 . S
C1004 C1003 1.410 . S
C1004 C1005 1.392 . S
C1004 C1007 1.511 . S
C1005 C1001 1.376 . S
C1005 C1004 1.392 . S
C1005 H1017 0.929 . S
C1006 C1002 1.531 . S
C1006 H1018 0.960 . S
C1006 H1019 0.962 . S
C1006 H1020 0.960 . S
C1007 C1004 1.511 . S
C1007 H1021 0.961 . S
C1007 H1022 0.961 . S
C1007 H1023 0.961 . S
C1008 C1009 1.370 . S
C1008 C1010 1.363 . S
C1008 H1024 0.931 . S
C1009 C1008 1.370 . S
C1009 C1013 1.408 . S
C1010 C1008 1.363 . S
C1010 C1011 1.370 . S
C1010 C1014 1.524 . S
C1011 C1003 1.503 . S
C1011 C1010 1.370 . S
C1011 C1012 1.403 . S
C1012 C1011 1.403 . S
C1012 C1013 1.404 . S
C1012 C1015 1.539 . S
C1013 C1009 1.408 . S
C1013 C1012 1.404 . S
C1013 H1025 0.930 . S
C1014 C1010 1.524 . S
C1014 H1026 0.956 . S
C1014 H1027 0.961 . S
C1014 H1028 0.961 . S
C1015 C1012 1.539 . S
C1015 H1029 0.958 . S
C1015 H1030 0.961 . S
C1015 H1031 0.960 . S
H1016 C1000 0.931 . S
H1017 C1005 0.929 . S
H1018 C1006 0.960 . S
H1019 C1006 0.962 . S
H1020 C1006 0.960 . S
H1021 C1007 0.961 . S
H1022 C1007 0.961 . S
H1023 C1007 0.961 . S
H1024 C1008 0.931 . S
H1025 C1013 0.930 . S
H1026 C1014 0.956 . S
H1027 C1014 0.961 . S
H1028 C1014 0.961 . S
H1029 C1015 0.958 . S
H1030 C1015 0.961 . S
H1031 C1015 0.960 . S
C1032 C1033 1.391 . S
C1032 C1034 1.394 . S
C1032 H1048 0.931 . S
C1033 C1032 1.391 . S
C1033 C1037 1.376 . S
C1034 C1032 1.394 . S
C1034 C1035 1.369 . S
C1034 C1038 1.531 . S
C1035 C1034 1.369 . S
C1035 C1036 1.410 . S
C1035 C1043 1.503 . S
C1036 C1035 1.410 . S
C1036 C1037 1.392 . S
C1036 C1039 1.511 . S
C1037 C1033 1.376 . S
C1037 C1036 1.392 . S
C1037 H1049 0.929 . S
C1038 C1034 1.531 . S
C1038 H1050 0.960 . S
C1038 H1051 0.962 . S
C1038 H1052 0.960 . S
C1039 C1036 1.511 . S
C1039 H1053 0.961 . S
C1039 H1054 0.961 . S
C1039 H1055 0.961 . S
C1040 C1041 1.370 . S
C1040 C1042 1.363 . S
C1040 H1056 0.931 . S
C1041 C1040 1.370 . S
C1041 C1045 1.408 . S
C1042 C1040 1.363 . S
C1042 C1043 1.370 . S
C1042 C1046 1.524 . S
C1043 C1035 1.503 . S
C1043 C1042 1.370 . S
C1043 C1044 1.403 . S
C1044 C1043 1.403 . S
C1044 C1045 1.404 . S
C1044 C1047 1.539 . S
C1045 C1041 1.408 . S
C1045 C1044 1.404 . S
C1045 H1057 0.930 . S
C1046 C1042 1.524 . S
C1046 H1058 0.956 . S
C1046 H1059 0.961 . S
C1046 H1060 0.961 . S
C1047 C1044 1.539 . S
C1047 H1061 0.958 . S
C1047 H1062 0.961 . S
C1047 H1063 0.960 . S
H1048 C1032 0.931 . S
H1049 C1037 0.929 . S
H1050 C1038 0.960 . S
H1051 C1038 0.962 . S
H1052 C1038 0.960 . S
H1053 C1039 0.961 . S
H1054 C1039 0.961 . S
H1055 C1039 0.961 . S
H1056 C1040 0.931 . S
H1057 C1045 0.930 . S
H1058 C1046 0.956 . S
H1059 C1046 0.961 . S
H1060 C1046 0.961 . S
H1061 C1047 0.958 . S
H1062 C1047 0.961 . S
H1063 C1047 0.960 . S
C1064 C1065 1.391 . S
C1064 C1066 1.394 . S
C1064 H1080 0.931 . S
C1065 C1064 1.391 . S
C1065 C1069 1.376 . S
C1066 C1064 1.394 . S
C1066 C1067 1.369 . S
C1066 C1070 1.531 . S
C1067 C1066 1.369 . S
C1067 C1068 1.410 . S
C1067 C1075 1.503 . S
C1068 C1067 1.410 . S
C1068 C1069 1.392 . S
C1068 C1071 1.511 . S
C1069 C1065 1.376 . S
C1069 C1068 1.392 . S
C1069 H1081 0.929 . S
C1070 C1066 1.531 . S
C1070 H1082 0.960 . S
C1070 H1083 0.962 . S
C1070 H1084 0.960 . S
C1071 C1068 1.511 . S
C1071 H1085 0.961 . S
C1071 H1086 0.961 . S
C1071 H1087 0.961 . S
C1072 C1073 1.370 . S
C1072 C1074 1.363 . S
C1072 H1088 0.931 . S
C1073 C1072 1.370 . S
C1073 C1077 1.408 . S
C1074 C1072 1.363 . S
C1074 C1075 1.370 . S
C1074 C1078 1.524 . S
C1075 C1067 1.503 . S
C1075 C1074 1.370 . S
C1075 C1076 1.403 . S
C1076 C1075 1.403 . S
C1076 C1077 1.404 . S
C1076 C1079 1.539 . S
C1077 C1073 1.408 . S
C1077 C1076 1.404 . S
C1077 H1089 0.930 . S
C1078 C1074 1.524 . S
C1078 H1090 0.956 . S
C1078 H1091 0.961 . S
C1078 H1092 0.961 . S
C1079 C1076 1.539 . S
C1079 H1093 0.958 . S
C1079 H1094 0.961 . S
C1079 H1095 0.960 . S
H1080 C1064 0.931 . S
H1081 C1069 0.929 . S
H1082 C1070 0.960 . S
H1083 C1070 0.962 . S
H1084 C1070 0.960 . S
H1085 C1071 0.961 . S
H1086 C1071 0.961 . S
H1087 C1071 0.961 . S
H1088 C1072 0.931 . S
H1089 C1077 0.930 . S
H1090 C1078 0.956 . S
H1091 C1078 0.961 . S
H1092 C1078 0.961 . S
H1093 C1079 0.958 . S
H1094 C1079 0.961 . S
H1095 C1079 0.960 . S
C1096 C1097 1.391 . S
C1096 C1098 1.394 . S
C1096 H1112 0.931 . S
C1097 C1096 1.391 . S
C1097 C1101 1.376 . S
C1098 C1096 1.394 . S
C1098 C1099 1.369 . S
C1098 C1102 1.531 . S
C1099 C1098 1.369 . S
C1099 C1100 1.410 . S
C1099 C1107 1.503 . S
C1100 C1099 1.410 . S
C1100 C1101 1.392 . S
C1100 C1103 1.511 . S
C1101 C1097 1.376 . S
C1101 C1100 1.392 . S
C1101 H1113 0.929 . S
C1102 C1098 1.531 . S
C1102 H1114 0.960 . S
C1102 H1115 0.962 . S
C1102 H1116 0.960 . S
C1103 C1100 1.511 . S
C1103 H1117 0.961 . S
C1103 H1118 0.961 . S
C1103 H1119 0.961 . S
C1104 C1105 1.370 . S
C1104 C1106 1.363 . S
C1104 H1120 0.931 . S
C1105 C1104 1.370 . S
C1105 C1109 1.408 . S
C1106 C1104 1.363 . S
C1106 C1107 1.370 . S
C1106 C1110 1.524 . S
C1107 C1099 1.503 . S
C1107 C1106 1.370 . S
C1107 C1108 1.403 . S
C1108 C1107 1.403 . S
C1108 C1109 1.404 . S
C1108 C1111 1.539 . S
C1109 C1105 1.408 . S
C1109 C1108 1.404 . S
C1109 H1121 0.930 . S
C1110 C1106 1.524 . S
C1110 H1122 0.956 . S
C1110 H1123 0.961 . S
C1110 H1124 0.961 . S
C1111 C1108 1.539 . S
C1111 H1125 0.958 . S
C1111 H1126 0.961 . S
C1111 H1127 0.960 . S
H1112 C1096 0.931 . S
H1113 C1101 0.929 . S
H1114 C1102 0.960 . S
H1115 C1102 0.962 . S
H1116 C1102 0.960 . S
H1117 C1103 0.961 . S
H1118 C1103 0.961 . S
H1119 C1103 0.961 . S
H1120 C1104 0.931 . S
H1121 C1109 0.930 . S
H1122 C1110 0.956 . S
H1123 C1110 0.961 . S
H1124 C1110 0.961 . S
H1125 C1111 0.958 . S
H1126 C1111 0.961 . S
H1127 C1111 0.960 . S
C1128 C1129 1.391 . S
C1128 C1130 1.394 . S
C1128 H1144 0.931 . S
C1129 C1128 1.391 . S
C1129 C1133 1.376 . S
C1130 C1128 1.394 . S
C1130 C1131 1.369 . S
C1130 C1134 1.531 . S
C1131 C1130 1.369 . S
C1131 C1132 1.410 . S
C1131 C1139 1.503 . S
C1132 C1131 1.410 . S
C1132 C1133 1.392 . S
C1132 C1135 1.511 . S
C1133 C1129 1.376 . S
C1133 C1132 1.392 . S
C1133 H1145 0.929 . S
C1134 C1130 1.531 . S
C1134 H1146 0.960 . S
C1134 H1147 0.962 . S
C1134 H1148 0.960 . S
C1135 C1132 1.511 . S
C1135 H1149 0.961 . S
C1135 H1150 0.961 . S
C1135 H1151 0.961 . S
C1136 C1137 1.370 . S
C1136 C1138 1.363 . S
C1136 H1152 0.931 . S
C1137 C1136 1.370 . S
C1137 C1141 1.408 . S
C1138 C1136 1.363 . S
C1138 C1139 1.370 . S
C1138 C1142 1.524 . S
C1139 C1131 1.503 . S
C1139 C1138 1.370 . S
C1139 C1140 1.403 . S
C1140 C1139 1.403 . S
C1140 C1141 1.404 . S
C1140 C1143 1.539 . S
C1141 C1137 1.408 . S
C1141 C1140 1.404 . S
C1141 H1153 0.930 . S
C1142 C1138 1.524 . S
C1142 H1154 0.956 . S
C1142 H1155 0.961 . S
C1142 H1156 0.961 . S
C1143 C1140 1.539 . S
C1143 H1157 0.958 . S
C1143 H1158 0.961 . S
C1143 H1159 0.960 . S
H1144 C1128 0.931 . S
H1145 C1133 0.929 . S
H1146 C1134 0.960 . S
H1147 C1134 0.962 . S
H1148 C1134 0.960 . S
H1149 C1135 0.961 . S
H1150 C1135 0.961 . S
H1151 C1135 0.961 . S
H1152 C1136 0.931 . S
H1153 C1141 0.930 . S
H1154 C1142 0.956 . S
H1155 C1142 0.961 . S
H1156 C1142 0.961 . S
H1157 C1143 0.958 . S
H1158 C1143 0.961 . S
H1159 C1143 0.960 . S
C1160 C1161 1.391 . S
C1160 C1162 1.394 . S
C1160 H1176 0.931 . S
C1161 C1160 1.391 . S
C1161 C1165 1.376 . S
C1162 C1160 1.394 . S
C1162 C1163 1.369 . S
C1162 C1166 1.531 . S
C1163 C1162 1.369 . S
C1163 C1164 1.410 . S
C1163 C1171 1.503 . S
C1164 C1163 1.410 . S
C1164 C1165 1.392 . S
C1164 C1167 1.511 . S
C1165 C1161 1.376 . S
C1165 C1164 1.392 . S
C1165 H1177 0.929 . S
C1166 C1162 1.531 . S
C1166 H1178 0.960 . S
C1166 H1179 0.962 . S
C1166 H1180 0.960 . S
C1167 C1164 1.511 . S
C1167 H1181 0.961 . S
C1167 H1182 0.961 . S
C1167 H1183 0.961 . S
C1168 C1169 1.370 . S
C1168 C1170 1.363 . S
C1168 H1184 0.931 . S
C1169 C1168 1.370 . S
C1169 C1173 1.408 . S
C1170 C1168 1.363 . S
C1170 C1171 1.370 . S
C1170 C1174 1.524 . S
C1171 C1163 1.503 . S
C1171 C1170 1.370 . S
C1171 C1172 1.403 . S
C1172 C1171 1.403 . S
C1172 C1173 1.404 . S
C1172 C1175 1.539 . S
C1173 C1169 1.408 . S
C1173 C1172 1.404 . S
C1173 H1185 0.930 . S
C1174 C1170 1.524 . S
C1174 H1186 0.956 . S
C1174 H1187 0.961 . S
C1174 H1188 0.961 . S
C1175 C1172 1.539 . S
C1175 H1189 0.958 . S
C1175 H1190 0.961 . S
C1175 H1191 0.960 . S
H1176 C1160 0.931 . S
H1177 C1165 0.929 . S
H1178 C1166 0.960 . S
H1179 C1166 0.962 . S
H1180 C1166 0.960 . S
H1181 C1167 0.961 . S
H1182 C1167 0.961 . S
H1183 C1167 0.961 . S
H1184 C1168 0.931 . S
H1185 C1173 0.930 . S
H1186 C1174 0.956 . S
H1187 C1174 0.961 . S
H1188 C1174 0.961 . S
H1189 C1175 0.958 . S
H1190 C1175 0.961 . S
H1191 C1175 0.960 . S
C1192 C1193 1.391 . S
C1192 C1194 1.394 . S
C1192 H1208 0.931 . S
C1193 C1192 1.391 . S
C1193 C1197 1.376 . S
C1194 C1192 1.394 . S
C1194 C1195 1.369 . S
C1194 C1198 1.531 . S
C1195 C1194 1.369 . S
C1195 C1196 1.410 . S
C1195 C1203 1.503 . S
C1196 C1195 1.410 . S
C1196 C1197 1.392 . S
C1196 C1199 1.511 . S
C1197 C1193 1.376 . S
C1197 C1196 1.392 . S
C1197 H1209 0.929 . S
C1198 C1194 1.531 . S
C1198 H1210 0.960 . S
C1198 H1211 0.962 . S
C1198 H1212 0.960 . S
C1199 C1196 1.511 . S
C1199 H1213 0.961 . S
C1199 H1214 0.961 . S
C1199 H1215 0.961 . S
C1200 C1201 1.370 . S
C1200 C1202 1.363 . S
C1200 H1216 0.931 . S
C1201 C1200 1.370 . S
C1201 C1205 1.408 . S
C1202 C1200 1.363 . S
C1202 C1203 1.370 . S
C1202 C1206 1.524 . S
C1203 C1195 1.503 . S
C1203 C1202 1.370 . S
C1203 C1204 1.403 . S
C1204 C1203 1.403 . S
C1204 C1205 1.404 . S
C1204 C1207 1.539 . S
C1205 C1201 1.408 . S
C1205 C1204 1.404 . S
C1205 H1217 0.930 . S
C1206 C1202 1.524 . S
C1206 H1218 0.956 . S
C1206 H1219 0.961 . S
C1206 H1220 0.961 . S
C1207 C1204 1.539 . S
C1207 H1221 0.958 . S
C1207 H1222 0.961 . S
C1207 H1223 0.960 . S
H1208 C1192 0.931 . S
H1209 C1197 0.929 . S
H1210 C1198 0.960 . S
H1211 C1198 0.962 . S
H1212 C1198 0.960 . S
H1213 C1199 0.961 . S
H1214 C1199 0.961 . S
H1215 C1199 0.961 . S
H1216 C1200 0.931 . S
H1217 C1205 0.930 . S
H1218 C1206 0.956 . S
H1219 C1206 0.961 . S
H1220 C1206 0.961 . S
H1221 C1207 0.958 . S
H1222 C1207 0.961 . S
H1223 C1207 0.960 . S
C1224 C1225 1.391 . S
C1224 C1226 1.394 . S
C1224 H1240 0.931 . S
C1225 C1224 1.391 . S
C1225 C1229 1.376 . S
C1226 C1224 1.394 . S
C1226 C1227 1.369 . S
C1226 C1230 1.531 . S
C1227 C1226 1.369 . S
C1227 C1228 1.410 . S
C1227 C1235 1.503 . S
C1228 C1227 1.410 . S
C1228 C1229 1.392 . S
C1228 C1231 1.511 . S
C1229 C1225 1.376 . S
C1229 C1228 1.392 . S
C1229 H1241 0.929 . S
C1230 C1226 1.531 . S
C1230 H1242 0.960 . S
C1230 H1243 0.962 . S
C1230 H1244 0.960 . S
C1231 C1228 1.511 . S
C1231 H1245 0.961 . S
C1231 H1246 0.961 . S
C1231 H1247 0.961 . S
C1232 C1233 1.370 . S
C1232 C1234 1.363 . S
C1232 H1248 0.931 . S
C1233 C1232 1.370 . S
C1233 C1237 1.408 . S
C1234 C1232 1.363 . S
C1234 C1235 1.370 . S
C1234 C1238 1.524 . S
C1235 C1227 1.503 . S
C1235 C1234 1.370 . S
C1235 C1236 1.403 . S
C1236 C1235 1.403 . S
C1236 C1237 1.404 . S
C1236 C1239 1.539 . S
C1237 C1233 1.408 . S
C1237 C1236 1.404 . S
C1237 H1249 0.930 . S
C1238 C1234 1.524 . S
C1238 H1250 0.956 . S
C1238 H1251 0.961 . S
C1238 H1252 0.961 . S
C1239 C1236 1.539 . S
C1239 H1253 0.958 . S
C1239 H1254 0.961 . S
C1239 H1255 0.960 . S
H1240 C1224 0.931 . S
H1241 C1229 0.929 . S
H1242 C1230 0.960 . S
H1243 C1230 0.962 . S
H1244 C1230 0.960 . S
H1245 C1231 0.961 . S
H1246 C1231 0.961 . S
H1247 C1231 0.961 . S
H1248 C1232 0.931 . S
H1249 C1237 0.930 . S
H1250 C1238 0.956 . S
H1251 C1238 0.961 . S
H1252 C1238 0.961 . S
H1253 C1239 0.958 . S
H1254 C1239 0.961 . S
H1255 C1239 0.960 . S
C1256 C1257 1.391 . S
C1256 C1258 1.394 . S
C1256 H1272 0.931 . S
C1257 C1256 1.391 . S
C1257 C1261 1.376 . S
C1258 C1256 1.394 . S
C1258 C1259 1.369 . S
C1258 C1262 1.531 . S
C1259 C1258 1.369 . S
C1259 C1260 1.410 . S
C1259 C1267 1.503 . S
C1260 C1259 1.410 . S
C1260 C1261 1.392 . S
C1260 C1263 1.511 . S
C1261 C1257 1.376 . S
C1261 C1260 1.392 . S
C1261 H1273 0.929 . S
C1262 C1258 1.531 . S
C1262 H1274 0.960 . S
C1262 H1275 0.962 . S
C1262 H1276 0.960 . S
C1263 C1260 1.511 . S
C1263 H1277 0.961 . S
C1263 H1278 0.961 . S
C1263 H1279 0.961 . S
C1264 C1265 1.370 . S
C1264 C1266 1.363 . S
C1264 H1280 0.931 . S
C1265 C1264 1.370 . S
C1265 C1269 1.408 . S
C1266 C1264 1.363 . S
C1266 C1267 1.370 . S
C1266 C1270 1.524 . S
C1267 C1259 1.503 . S
C1267 C1266 1.370 . S
C1267 C1268 1.403 . S
C1268 C1267 1.403 . S
C1268 C1269 1.404 . S
C1268 C1271 1.539 . S
C1269 C1265 1.408 . S
C1269 C1268 1.404 . S
C1269 H1281 0.930 . S
C1270 C1266 1.524 . S
C1270 H1282 0.956 . S
C1270 H1283 0.961 . S
C1270 H1284 0.961 . S
C1271 C1268 1.539 . S
C1271 H1285 0.958 . S
C1271 H1286 0.961 . S
C1271 H1287 0.960 . S
H1272 C1256 0.931 . S
H1273 C1261 0.929 . S
H1274 C1262 0.960 . S
H1275 C1262 0.962 . S
H1276 C1262 0.960 . S
H1277 C1263 0.961 . S
H1278 C1263 0.961 . S
H1279 C1263 0.961 . S
H1280 C1264 0.931 . S
H1281 C1269 0.930 . S
H1282 C1270 0.956 . S
H1283 C1270 0.961 . S
H1284 C1270 0.961 . S
H1285 C1271 0.958 . S
H1286 C1271 0.961 . S
H1287 C1271 0.960 . S
C1288 C1289 1.391 . S
C1288 C1290 1.394 . S
C1288 H1304 0.931 . S
C1289 C1288 1.391 . S
C1289 C1293 1.376 . S
C1290 C1288 1.394 . S
C1290 C1291 1.369 . S
C1290 C1294 1.531 . S
C1291 C1290 1.369 . S
C1291 C1292 1.410 . S
C1291 C1299 1.503 . S
C1292 C1291 1.410 . S
C1292 C1293 1.392 . S
C1292 C1295 1.511 . S
C1293 C1289 1.376 . S
C1293 C1292 1.392 . S
C1293 H1305 0.929 . S
C1294 C1290 1.531 . S
C1294 H1306 0.960 . S
C1294 H1307 0.962 . S
C1294 H1308 0.960 . S
C1295 C1292 1.511 . S
C1295 H1309 0.961 . S
C1295 H1310 0.961 . S
C1295 H1311 0.961 . S
C1296 C1297 1.370 . S
C1296 C1298 1.363 . S
C1296 H1312 0.931 . S
C1297 C1296 1.370 . S
C1297 C1301 1.408 . S
C1298 C1296 1.363 . S
C1298 C1299 1.370 . S
C1298 C1302 1.524 . S
C1299 C1291 1.503 . S
C1299 C1298 1.370 . S
C1299 C1300 1.403 . S
C1300 C1299 1.403 . S
C1300 C1301 1.404 . S
C1300 C1303 1.539 . S
C1301 C1297 1.408 . S
C1301 C1300 1.404 . S
C1301 H1313 0.930 . S
C1302 C1298 1.524 . S
C1302 H1314 0.956 . S
C1302 H1315 0.961 . S
C1302 H1316 0.961 . S
C1303 C1300 1.539 . S
C1303 H1317 0.958 . S
C1303 H1318 0.961 . S
C1303 H1319 0.960 . S
H1304 C1288 0.931 . S
H1305 C1293 0.929 . S
H1306 C1294 0.960 . S
H1307 C1294 0.962 . S
H1308 C1294 0.960 . S
H1309 C1295 0.961 . S
H1310 C1295 0.961 . S
H1311 C1295 0.961 . S
H1312 C1296 0.931 . S
H1313 C1301 0.930 . S
H1314 C1302 0.956 . S
H1315 C1302 0.961 . S
H1316 C1302 0.961 . S
H1317 C1303 0.958 . S
H1318 C1303 0.961 . S
H1319 C1303 0.960 . S
C1320 C1321 1.391 . S
C1320 C1322 1.394 . S
C1320 H1336 0.931 . S
C1321 C1320 1.391 . S
C1321 C1325 1.376 . S
C1322 C1320 1.394 . S
C1322 C1323 1.369 . S
C1322 C1326 1.531 . S
C1323 C1322 1.369 . S
C1323 C1324 1.410 . S
C1323 C1331 1.503 . S
C1324 C1323 1.410 . S
C1324 C1325 1.392 . S
C1324 C1327 1.511 . S
C1325 C1321 1.376 . S
C1325 C1324 1.392 . S
C1325 H1337 0.929 . S
C1326 C1322 1.531 . S
C1326 H1338 0.960 . S
C1326 H1339 0.962 . S
C1326 H1340 0.960 . S
C1327 C1324 1.511 . S
C1327 H1341 0.961 . S
C1327 H1342 0.961 . S
C1327 H1343 0.961 . S
C1328 C1329 1.370 . S
C1328 C1330 1.363 . S
C1328 H1344 0.931 . S
C1329 C1328 1.370 . S
C1329 C1333 1.408 . S
C1330 C1328 1.363 . S
C1330 C1331 1.370 . S
C1330 C1334 1.524 . S
C1331 C1323 1.503 . S
C1331 C1330 1.370 . S
C1331 C1332 1.403 . S
C1332 C1331 1.403 . S
C1332 C1333 1.404 . S
C1332 C1335 1.539 . S
C1333 C1329 1.408 . S
C1333 C1332 1.404 . S
C1333 H1345 0.930 . S
C1334 C1330 1.524 . S
C1334 H1346 0.956 . S
C1334 H1347 0.961 . S
C1334 H1348 0.961 . S
C1335 C1332 1.539 . S
C1335 H1349 0.958 . S
C1335 H1350 0.961 . S
C1335 H1351 0.960 . S
H1336 C1320 0.931 . S
H1337 C1325 0.929 . S
H1338 C1326 0.960 . S
H1339 C1326 0.962 . S
H1340 C1326 0.960 . S
H1341 C1327 0.961 . S
H1342 C1327 0.961 . S
H1343 C1327 0.961 . S
H1344 C1328 0.931 . S
H1345 C1333 0.930 . S
H1346 C1334 0.956 . S
H1347 C1334 0.961 . S
H1348 C1334 0.961 . S
H1349 C1335 0.958 . S
H1350 C1335 0.961 . S
H1351 C1335 0.960 . S
C1352 C1353 1.391 . S
C1352 C1354 1.394 . S
C1352 H1368 0.931 . S
C1353 C1352 1.391 . S
C1353 C1357 1.376 . S
C1354 C1352 1.394 . S
C1354 C1355 1.369 . S
C1354 C1358 1.531 . S
C1355 C1354 1.369 . S
C1355 C1356 1.410 . S
C1355 C1363 1.503 . S
C1356 C1355 1.410 . S
C1356 C1357 1.392 . S
C1356 C1359 1.511 . S
C1357 C1353 1.376 . S
C1357 C1356 1.392 . S
C1357 H1369 0.929 . S
C1358 C1354 1.531 . S
C1358 H1370 0.960 . S
C1358 H1371 0.962 . S
C1358 H1372 0.960 . S
C1359 C1356 1.511 . S
C1359 H1373 0.961 . S
C1359 H1374 0.961 . S
C1359 H1375 0.961 . S
C1360 C1361 1.370 . S
C1360 C1362 1.363 . S
C1360 H1376 0.931 . S
C1361 C1360 1.370 . S
C1361 C1365 1.408 . S
C1362 C1360 1.363 . S
C1362 C1363 1.370 . S
C1362 C1366 1.524 . S
C1363 C1355 1.503 . S
C1363 C1362 1.370 . S
C1363 C1364 1.403 . S
C1364 C1363 1.403 . S
C1364 C1365 1.404 . S
C1364 C1367 1.539 . S
C1365 C1361 1.408 . S
C1365 C1364 1.404 . S
C1365 H1377 0.930 . S
C1366 C1362 1.524 . S
C1366 H1378 0.956 . S
C1366 H1379 0.961 . S
C1366 H1380 0.961 . S
C1367 C1364 1.539 . S
C1367 H1381 0.958 . S
C1367 H1382 0.961 . S
C1367 H1383 0.960 . S
H1368 C1352 0.931 . S
H1369 C1357 0.929 . S
H1370 C1358 0.960 . S
H1371 C1358 0.962 . S
H1372 C1358 0.960 . S
H1373 C1359 0.961 . S
H1374 C1359 0.961 . S
H1375 C1359 0.961 . S
H1376 C1360 0.931 . S
H1377 C1365 0.930 . S
H1378 C1366 0.956 . S
H1379 C1366 0.961 . S
H1380 C1366 0.961 . S
H1381 C1367 0.958 . S
H1382 C1367 0.961 . S
H1383 C1367 0.960 . S
C1384 C1385 1.391 . S
C1384 C1386 1.394 . S
C1384 H1400 0.931 . S
C1385 C1384 1.391 . S
C1385 C1389 1.376 . S
C1386 C1384 1.394 . S
C1386 C1387 1.369 . S
C1386 C1390 1.531 . S
C1387 C1386 1.369 . S
C1387 C1388 1.410 . S
C1387 C1395 1.503 . S
C1388 C1387 1.410 . S
C1388 C1389 1.392 . S
C1388 C1391 1.511 . S
C1389 C1385 1.376 . S
C1389 C1388 1.392 . S
C1389 H1401 0.929 . S
C1390 C1386 1.531 . S
C1390 H1402 0.960 . S
C1390 H1403 0.962 . S
C1390 H1404 0.960 . S
C1391 C1388 1.511 . S
C1391 H1405 0.961 . S
C1391 H1406 0.961 . S
C1391 H1407 0.961 . S
C1392 C1393 1.370 . S
C1392 C1394 1.363 . S
C1392 H1408 0.931 . S
C1393 C1392 1.370 . S
C1393 C1397 1.408 . S
C1394 C1392 1.363 . S
C1394 C1395 1.370 . S
C1394 C1398 1.524 . S
C1395 C1387 1.503 . S
C1395 C1394 1.370 . S
C1395 C1396 1.403 . S
C1396 C1395 1.403 . S
C1396 C1397 1.404 . S
C1396 C1399 1.539 . S
C1397 C1393 1.408 . S
C1397 C1396 1.404 . S
C1397 H1409 0.930 . S
C1398 C1394 1.524 . S
C1398 H1410 0.956 . S
C1398 H1411 0.961 . S
C1398 H1412 0.961 . S
C1399 C1396 1.539 . S
C1399 H1413 0.958 . S
C1399 H1414 0.961 . S
C1399 H1415 0.960 . S
H1400 C1384 0.931 . S
H1401 C1389 0.929 . S
H1402 C1390 0.960 . S
H1403 C1390 0.962 . S
H1404 C1390 0.960 . S
H1405 C1391 0.961 . S
H1406 C1391 0.961 . S
H1407 C1391 0.961 . S
H1408 C1392 0.931 . S
H1409 C1397 0.930 . S
H1410 C1398 0.956 . S
H1411 C1398 0.961 . S
H1412 C1398 0.961 . S
H1413 C1399 0.958 . S
H1414 C1399 0.961 . S
H1415 C1399 0.960 . S
C1416 C1417 1.391 . S
C1416 C1418 1.394 . S
C1416 H1432 0.931 . S
C1417 C1416 1.391 . S
C1417 C1421 1.376 . S
C1418 C1416 1.394 . S
C1418 C1419 1.369 . S
C1418 C1422 1.531 . S
C1419 C1418 1.369 . S
C1419 C1420 1.410 . S
C1419 C1427 1.503 . S
C1420 C1419 1.410 . S
C1420 C1421 1.392 . S
C1420 C1423 1.511 . S
C1421 C1417 1.376 . S
C1421 C1420 1.392 . S
C1421 H1433 0.929 . S
C1422 C1418 1.531 . S
C1422 H1434 0.960 . S
C1422 H1435 0.962 . S
C1422 H1436 0.960 . S
C1423 C1420 1.511 . S
C1423 H1437 0.961 . S
C1423 H1438 0.961 . S
C1423 H1439 0.961 . S
C1424 C1425 1.370 . S
C1424 C1426 1.363 . S
C1424 H1440 0.931 . S
C1425 C1424 1.370 . S
C1425 C1429 1.408 . S
C1426 C1424 1.363 . S
C1426 C1427 1.370 . S
C1426 C1430 1.524 . S
C1427 C1419 1.503 . S
C1427 C1426 1.370 . S
C1427 C1428 1.403 . S
C1428 C1427 1.403 . S
C1428 C1429 1.404 . S
C1428 C1431 1.539 . S
C1429 C1425 1.408 . S
C1429 C1428 1.404 . S
C1429 H1441 0.930 . S
C1430 C1426 1.524 . S
C1430 H1442 0.956 . S
C1430 H1443 0.961 . S
C1430 H1444 0.961 . S
C1431 C1428 1.539 . S
C1431 H1445 0.958 . S
C1431 H1446 0.961 . S
C1431 H1447 0.960 . S
H1432 C1416 0.931 . S
H1433 C1421 0.929 . S
H1434 C1422 0.960 . S
H1435 C1422 0.962 . S
H1436 C1422 0.960 . S
H1437 C1423 0.961 . S
H1438 C1423 0.961 . S
H1439 C1423 0.961 . S
H1440 C1424 0.931 . S
H1441 C1429 0.930 . S
H1442 C1430 0.956 . S
H1443 C1430 0.961 . S
H1444 C1430 0.961 . S
H1445 C1431 0.958 . S
H1446 C1431 0.961 . S
H1447 C1431 0.960 . S
C1448 C1449 1.391 . S
C1448 C1450 1.394 . S
C1448 H1464 0.931 . S
C1449 C1448 1.391 . S
C1449 C1453 1.376 . S
C1450 C1448 1.394 . S
C1450 C1451 1.369 . S
C1450 C1454 1.531 . S
C1451 C1450 1.369 . S
C1451 C1452 1.410 . S
C1451 C1459 1.503 . S
C1452 C1451 1.410 . S
C1452 C1453 1.392 . S
C1452 C1455 1.511 . S
C1453 C1449 1.376 . S
C1453 C1452 1.392 . S
C1453 H1465 0.929 . S
C1454 C1450 1.531 . S
C1454 H1466 0.960 . S
C1454 H1467 0.962 . S
C1454 H1468 0.960 . S
C1455 C1452 1.511 . S
C1455 H1469 0.961 . S
C1455 H1470 0.961 . S
C1455 H1471 0.961 . S
C1456 C1457 1.370 . S
C1456 C1458 1.363 . S
C1456 H1472 0.931 . S
C1457 C1456 1.370 . S
C1457 C1461 1.408 . S
C1458 C1456 1.363 . S
C1458 C1459 1.370 . S
C1458 C1462 1.524 . S
C1459 C1451 1.503 . S
C1459 C1458 1.370 . S
C1459 C1460 1.403 . S
C1460 C1459 1.403 . S
C1460 C1461 1.404 . S
C1460 C1463 1.539 . S
C1461 C1457 1.408 . S
C1461 C1460 1.404 . S
C1461 H1473 0.930 . S
C1462 C1458 1.524 . S
C1462 H1474 0.956 . S
C1462 H1475 0.961 . S
C1462 H1476 0.961 . S
C1463 C1460 1.539 . S
C1463 H1477 0.958 . S
C1463 H1478 0.961 . S
C1463 H1479 0.960 . S
H1464 C1448 0.931 . S
H1465 C1453 0.929 . S
H1466 C1454 0.960 . S
H1467 C1454 0.962 . S
H1468 C1454 0.960 . S
H1469 C1455 0.961 . S
H1470 C1455 0.961 . S
H1471 C1455 0.961 . S
H1472 C1456 0.931 . S
H1473 C1461 0.930 . S
H1474 C1462 0.956 . S
H1475 C1462 0.961 . S
H1476 C1462 0.961 . S
H1477 C1463 0.958 . S
H1478 C1463 0.961 . S
H1479 C1463 0.960 . S
C1480 C1481 1.391 . S
C1480 C1482 1.394 . S
C1480 H1496 0.931 . S
C1481 C1480 1.391 . S
C1481 C1485 1.376 . S
C1482 C1480 1.394 . S
C1482 C1483 1.369 . S
C1482 C1486 1.531 . S
C1483 C1482 1.369 . S
C1483 C1484 1.410 . S
C1483 C1491 1.503 . S
C1484 C1483 1.410 . S
C1484 C1485 1.392 . S
C1484 C1487 1.511 . S
C1485 C1481 1.376 . S
C1485 C1484 1.392 . S
C1485 H1497 0.929 . S
C1486 C1482 1.531 . S
C1486 H1498 0.960 . S
C1486 H1499 0.962 . S
C1486 H1500 0.960 . S
C1487 C1484 1.511 . S
C1487 H1501 0.961 . S
C1487 H1502 0.961 . S
C1487 H1503 0.961 . S
C1488 C1489 1.370 . S
C1488 C1490 1.363 . S
C1488 H1504 0.931 . S
C1489 C1488 1.370 . S
C1489 C1493 1.408 . S
C1490 C1488 1.363 . S
C1490 C1491 1.370 . S
C1490 C1494 1.524 . S
C1491 C1483 1.503 . S
C1491 C1490 1.370 . S
C1491 C1492 1.403 . S
C1492 C1491 1.403 . S
C1492 C1493 1.404 . S
C1492 C1495 1.539 . S
C1493 C1489 1.408 . S
C1493 C1492 1.404 . S
C1493 H1505 0.930 . S
C1494 C1490 1.524 . S
C1494 H1506 0.956 . S
C1494 H1507 0.961 . S
C1494 H1508 0.961 . S
C1495 C1492 1.539 . S
C1495 H1509 0.958 . S
C1495 H1510 0.961 . S
C1495 H1511 0.960 . S
H1496 C1480 0.931 . S
H1497 C1485 0.929 . S
H1498 C1486 0.960 . S
H1499 C1486 0.962 . S
H1500 C1486 0.960 . S
H1501 C1487 0.961 . S
H1502 C1487 0.961 . S
H1503 C1487 0.961 . S
H1504 C1488 0.931 . S
H1505 C1493 0.930 . S
H1506 C1494 0.956 . S
H1507 C1494 0.961 . S
H1508 C1494 0.961 . S
H1509 C1495 0.958 . S
H1510 C1495 0.961 . S
H1511 C1495 0.960 . S
C497 C400 1.358 . S
C489 C36 1.341 . S
C529 C414 1.347 . S
C521 C93 1.324 . S
C561 C427 1.359 . S
C553 C126 1.351 . S
C585 C165 1.353 . S
C593 C394 1.354 . S
C617 C222 1.320 . S
C625 C387 1.358 . S
C649 C261 1.323 . S
C657 C407 1.352 . S
C689 C415 1.358 . S
C681 C318 1.348 . S
C721 C428 1.360 . S
C713 C381 1.333 . S
C745 C132 1.321 . S
C753 C454 1.356 . S
C785 C472 1.353 . S
C777 C189 1.350 . S
C809 C30 1.334 . S
C817 C479 1.355 . S
C849 C446 1.360 . S
C841 C69 1.329 . S
C873 C324 1.353 . S
C881 C439 1.367 . S
C905 C357 1.356 . S
C913 C453 1.357 . S
C945 C465 1.346 . S
C937 C228 1.341 . S
C969 C285 1.366 . S
C977 C480 1.357 . S
C1009 C413 1.796 . S
C1001 C45 1.809 . S
C1041 C426 1.790 . S
C1033 C84 1.810 . S
C1065 C117 1.785 . S
C1073 C389 1.783 . S
C1097 C174 1.739 . S
C1105 C401 1.782 . S
C1129 C213 1.766 . S
C1137 C433 1.777 . S
C1169 C388 1.773 . S
C1161 C270 1.780 . S
C1201 C402 1.786 . S
C1193 C309 1.805 . S
C1233 C420 1.772 . S
C1225 C372 1.798 . S
C1265 C467 1.799 . S
C1257 C141 1.808 . S
C1297 C478 1.803 . S
C1289 C180 1.807 . S
C1321 C21 1.776 . S
C1329 C441 1.793 . S
C1361 C459 1.775 . S
C1353 C78 1.782 . S
C1393 C485 1.776 . S
C1385 C333 1.795 . S
C1417 C366 1.736 . S
C1425 C440 1.776 . S
C1457 C452 1.795 . S
C1449 C237 1.791 . S
C1489 C466 1.773 . S
C1481 C276 1.802 . S
