# Generated by pormake.
# Topology eea, (3,6)-cn, num edge types: 1
# Building blocks:
#     Node 0, Type 0, BuildingBlock: KAKCAD_clean_linker_0, # of connection points: 3
#     Node 1, Type 0, BuildingBlock: KAKCAD_clean_linker_0, # of connection points: 3
#     Node 2, Type 0, BuildingBlock: KAKCAD_clean_linker_0, # of connection points: 3
#     Node 3, Type 0, BuildingBlock: KAKCAD_clean_linker_0, # of connection points: 3
#     Node 4, Type 0, BuildingBlock: KAKCAD_clean_linker_0, # of connection points: 3
#     Node 5, Type 0, BuildingBlock: KAKCAD_clean_linker_0, # of connection points: 3
#     Node 6, Type 0, BuildingBlock: KAKCAD_clean_linker_0, # of connection points: 3
#     Node 7, Type 0, BuildingBlock: KAKCAD_clean_linker_0, # of connection points: 3
#     Node 8, Type 0, BuildingBlock: KAKCAD_clean_linker_0, # of connection points: 3
#     Node 9, Type 0, BuildingBlock: KAKCAD_clean_linker_0, # of connection points: 3
#     Node 10, Type 0, BuildingBlock: KAKCAD_clean_linker_0, # of connection points: 3
#     Node 11, Type 0, BuildingBlock: KAKCAD_clean_linker_0, # of connection points: 3
#     Node 12, Type 0, BuildingBlock: KAKCAD_clean_linker_0, # of connection points: 3
#     Node 13, Type 0, BuildingBlock: KAKCAD_clean_linker_0, # of connection points: 3
#     Node 14, Type 0, BuildingBlock: KAKCAD_clean_linker_0, # of connection points: 3
#     Node 15, Type 0, BuildingBlock: KAKCAD_clean_linker_0, # of connection points: 3
#     Node 16, Type 0, BuildingBlock: KAKCAD_clean_linker_0, # of connection points: 3
#     Node 17, Type 0, BuildingBlock: KAKCAD_clean_linker_0, # of connection points: 3
#     Node 18, Type 1, BuildingBlock: CUKXOW_clean_sbu_0, # of connection points: 6
#     Node 19, Type 1, BuildingBlock: CUKXOW_clean_sbu_0, # of connection points: 6
#     Node 20, Type 1, BuildingBlock: CUKXOW_clean_sbu_0, # of connection points: 6
#     Node 21, Type 1, BuildingBlock: CUKXOW_clean_sbu_0, # of connection points: 6
#     Node 22, Type 1, BuildingBlock: CUKXOW_clean_sbu_0, # of connection points: 6
#     Node 23, Type 1, BuildingBlock: CUKXOW_clean_sbu_0, # of connection points: 6
#     Node 24, Type 1, BuildingBlock: CUKXOW_clean_sbu_0, # of connection points: 6
#     Node 25, Type 1, BuildingBlock: CUKXOW_clean_sbu_0, # of connection points: 6
#     Node 26, Type 1, BuildingBlock: CUKXOW_clean_sbu_0, # of connection points: 6
#     Edge 27, Type (0, 1), BuildingBlock: AJUNOK_clean_linker_0, # of connection points: 2
#     Edge 28, Type (0, 1), BuildingBlock: AJUNOK_clean_linker_0, # of connection points: 2
#     Edge 29, Type (0, 1), BuildingBlock: AJUNOK_clean_linker_0, # of connection points: 2
#     Edge 30, Type (0, 1), BuildingBlock: AJUNOK_clean_linker_0, # of connection points: 2
#     Edge 31, Type (0, 1), BuildingBlock: AJUNOK_clean_linker_0, # of connection points: 2
#     Edge 32, Type (0, 1), BuildingBlock: AJUNOK_clean_linker_0, # of connection points: 2
#     Edge 33, Type (0, 1), BuildingBlock: AJUNOK_clean_linker_0, # of connection points: 2
#     Edge 34, Type (0, 1), BuildingBlock: AJUNOK_clean_linker_0, # of connection points: 2
#     Edge 35, Type (0, 1), BuildingBlock: AJUNOK_clean_linker_0, # of connection points: 2
#     Edge 36, Type (0, 1), BuildingBlock: AJUNOK_clean_linker_0, # of connection points: 2
#     Edge 37, Type (0, 1), BuildingBlock: AJUNOK_clean_linker_0, # of connection points: 2
#     Edge 38, Type (0, 1), BuildingBlock: AJUNOK_clean_linker_0, # of connection points: 2
#     Edge 39, Type (0, 1), BuildingBlock: AJUNOK_clean_linker_0, # of connection points: 2
#     Edge 40, Type (0, 1), BuildingBlock: AJUNOK_clean_linker_0, # of connection points: 2
#     Edge 41, Type (0, 1), BuildingBlock: AJUNOK_clean_linker_0, # of connection points: 2
#     Edge 42, Type (0, 1), BuildingBlock: AJUNOK_clean_linker_0, # of connection points: 2
#     Edge 43, Type (0, 1), BuildingBlock: AJUNOK_clean_linker_0, # of connection points: 2
#     Edge 44, Type (0, 1), BuildingBlock: AJUNOK_clean_linker_0, # of connection points: 2
#     Edge 45, Type (0, 1), BuildingBlock: AJUNOK_clean_linker_0, # of connection points: 2
#     Edge 46, Type (0, 1), BuildingBlock: AJUNOK_clean_linker_0, # of connection points: 2
#     Edge 47, Type (0, 1), BuildingBlock: AJUNOK_clean_linker_0, # of connection points: 2
#     Edge 48, Type (0, 1), BuildingBlock: AJUNOK_clean_linker_0, # of connection points: 2
#     Edge 49, Type (0, 1), BuildingBlock: AJUNOK_clean_linker_0, # of connection points: 2
#     Edge 50, Type (0, 1), BuildingBlock: AJUNOK_clean_linker_0, # of connection points: 2
#     Edge 51, Type (0, 1), BuildingBlock: AJUNOK_clean_linker_0, # of connection points: 2
#     Edge 52, Type (0, 1), BuildingBlock: AJUNOK_clean_linker_0, # of connection points: 2
#     Edge 53, Type (0, 1), BuildingBlock: AJUNOK_clean_linker_0, # of connection points: 2
#     Edge 54, Type (0, 1), BuildingBlock: AJUNOK_clean_linker_0, # of connection points: 2
#     Edge 55, Type (0, 1), BuildingBlock: AJUNOK_clean_linker_0, # of connection points: 2
#     Edge 56, Type (0, 1), BuildingBlock: AJUNOK_clean_linker_0, # of connection points: 2
#     Edge 57, Type (0, 1), BuildingBlock: AJUNOK_clean_linker_0, # of connection points: 2
#     Edge 58, Type (0, 1), BuildingBlock: AJUNOK_clean_linker_0, # of connection points: 2
#     Edge 59, Type (0, 1), BuildingBlock: AJUNOK_clean_linker_0, # of connection points: 2
#     Edge 60, Type (0, 1), BuildingBlock: AJUNOK_clean_linker_0, # of connection points: 2
#     Edge 61, Type (0, 1), BuildingBlock: AJUNOK_clean_linker_0, # of connection points: 2
#     Edge 62, Type (0, 1), BuildingBlock: AJUNOK_clean_linker_0, # of connection points: 2
#     Edge 63, Type (0, 1), BuildingBlock: AJUNOK_clean_linker_0, # of connection points: 2
#     Edge 64, Type (0, 1), BuildingBlock: AJUNOK_clean_linker_0, # of connection points: 2
#     Edge 65, Type (0, 1), BuildingBlock: AJUNOK_clean_linker_0, # of connection points: 2
#     Edge 66, Type (0, 1), BuildingBlock: AJUNOK_clean_linker_0, # of connection points: 2
#     Edge 67, Type (0, 1), BuildingBlock: AJUNOK_clean_linker_0, # of connection points: 2
#     Edge 68, Type (0, 1), BuildingBlock: AJUNOK_clean_linker_0, # of connection points: 2
#     Edge 69, Type (0, 1), BuildingBlock: AJUNOK_clean_linker_0, # of connection points: 2
#     Edge 70, Type (0, 1), BuildingBlock: AJUNOK_clean_linker_0, # of connection points: 2
#     Edge 71, Type (0, 1), BuildingBlock: AJUNOK_clean_linker_0, # of connection points: 2
#     Edge 72, Type (0, 1), BuildingBlock: AJUNOK_clean_linker_0, # of connection points: 2
#     Edge 73, Type (0, 1), BuildingBlock: AJUNOK_clean_linker_0, # of connection points: 2
#     Edge 74, Type (0, 1), BuildingBlock: AJUNOK_clean_linker_0, # of connection points: 2
#     Edge 75, Type (0, 1), BuildingBlock: AJUNOK_clean_linker_0, # of connection points: 2
#     Edge 76, Type (0, 1), BuildingBlock: AJUNOK_clean_linker_0, # of connection points: 2
#     Edge 77, Type (0, 1), BuildingBlock: AJUNOK_clean_linker_0, # of connection points: 2
#     Edge 78, Type (0, 1), BuildingBlock: AJUNOK_clean_linker_0, # of connection points: 2
#     Edge 79, Type (0, 1), BuildingBlock: AJUNOK_clean_linker_0, # of connection points: 2
#     Edge 80, Type (0, 1), BuildingBlock: AJUNOK_clean_linker_0, # of connection points: 2
# Relax obj value: 0.017
# Max RMSD: 0.126
# Mean RMSD: 0.058
data_MOF--net-eea--node1-CUKXOW_clean_sbu_0--node2-KAKCAD_clean_linker_0--edge1-AJUNOK_clean_linker_0
_symmetry_space_group_name_H-M    P1
_symmetry_Int_Tables_number       1
_symmetry_cell_setting            triclinic
loop_
_symmetry_equiv_pos_as_xyz
'x, y, z'
_cell_length_a     53.658964
_cell_length_b     50.404428
_cell_length_c     57.036907
_cell_angle_alpha  93.498135
_cell_angle_beta   93.040489
_cell_angle_gamma 119.91027
loop_
_atom_site_label
_atom_site_type_symbol
_atom_site_fract_x
_atom_site_fract_y
_atom_site_fract_z
_atom_type_partial_charge
C0 C 0.29989 0.18564 0.5307 0.0
C1 C 0.319 0.17532 0.53729 0.0
C2 C 0.28763 0.18003 0.50739 0.0
C3 C 0.2945 0.16432 0.49001 0.0
C4 C 0.31512 0.15585 0.49634 0.0
C5 C 0.32715 0.16121 0.51971 0.0
C6 C 0.27876 0.15489 0.46588 0.0
C7 C 0.2707 0.17404 0.45473 0.0
C8 C 0.25422 0.1642 0.43263 0.0
C9 C 0.24604 0.13491 0.42161 0.0
C10 C 0.2541 0.11561 0.43233 0.0
C11 C 0.27038 0.12576 0.45441 0.0
C12 C 0.24486 0.08442 0.42083 0.0
C13 C 0.21625 0.06498 0.41092 0.0
C14 C 0.2645 0.07366 0.4201 0.0
C15 C 0.25566 0.04404 0.40984 0.0
C16 C 0.22695 0.02446 0.40032 0.0
C17 C 0.24487 0.18406 0.42123 0.0
C18 C 0.23507 0.20077 0.43467 0.0
C19 C 0.24494 0.18584 0.3967 0.0
C20 C 0.23504 0.20346 0.38586 0.0
C21 C 0.22477 0.21967 0.39925 0.0
C22 C 0.22521 0.21843 0.42382 0.0
C23 C 0.20737 0.03526 0.40082 0.0
H24 H 0.29369 0.19722 0.54375 0.0
H25 H 0.27183 0.18685 0.50328 0.0
H26 H 0.32147 0.14436 0.48334 0.0
H27 H 0.3419 0.1531 0.52419 0.0
H28 H 0.27751 0.19677 0.46314 0.0
H29 H 0.2755 0.11031 0.4631 0.0
H30 H 0.23312 0.12693 0.40473 0.0
H31 H 0.20057 0.07253 0.41137 0.0
H32 H 0.28674 0.08822 0.42741 0.0
H33 H 0.27116 0.03622 0.40968 0.0
H34 H 0.23451 0.19978 0.45357 0.0
H35 H 0.25274 0.17366 0.38585 0.0
H36 H 0.18519 0.02072 0.39334 0.0
H37 H 0.21804 0.23123 0.43469 0.0
H38 H 0.23506 0.20408 0.36691 0.0
C39 C 0.8623 0.19243 0.5227 0.0
C40 C 0.84756 0.16766 0.53621 0.0
C41 C 0.86884 0.18734 0.49989 0.0
C42 C 0.86059 0.15736 0.4902 0.0
C43 C 0.8452 0.13271 0.50372 0.0
C44 C 0.83857 0.13777 0.52623 0.0
C45 C 0.8683 0.15121 0.46646 0.0
C46 C 0.89562 0.1708 0.45876 0.0
C47 C 0.90375 0.16247 0.43769 0.0
C48 C 0.88424 0.13466 0.42418 0.0
C49 C 0.85692 0.1151 0.43138 0.0
C50 C 0.84895 0.12388 0.4522 0.0
C51 C 0.83748 0.08452 0.41806 0.0
C52 C 0.83372 0.08113 0.39325 0.0
C53 C 0.82327 0.05824 0.4302 0.0
C54 C 0.8057 0.02926 0.41785 0.0
C55 C 0.80184 0.02589 0.39309 0.0
C56 C 0.93306 0.18164 0.43 0.0
C57 C 0.94423 0.21305 0.42758 0.0
C58 C 0.94922 0.16787 0.42343 0.0
C59 C 0.9756 0.18487 0.41406 0.0
C60 C 0.98641 0.21603 0.41095 0.0
C61 C 0.97058 0.23004 0.41793 0.0
C62 C 0.81603 0.05209 0.38088 0.0
H63 H 0.86953 0.21572 0.53006 0.0
H64 H 0.88047 0.20683 0.48992 0.0
H65 H 0.83893 0.10937 0.49726 0.0
H66 H 0.82704 0.11823 0.53622 0.0
H67 H 0.91109 0.19161 0.46966 0.0
H68 H 0.82758 0.10901 0.45748 0.0
H69 H 0.89067 0.12788 0.40824 0.0
H70 H 0.84435 0.10096 0.3834 0.0
H71 H 0.8261 0.05998 0.44929 0.0
H72 H 0.79495 0.00945 0.4277 0.0
H73 H 0.93212 0.22415 0.43238 0.0
H74 H 0.9412 0.14373 0.42522 0.0
H75 H 0.81369 0.05006 0.36177 0.0
H76 H 0.97848 0.25406 0.41572 0.0
H77 H 0.98714 0.17338 0.40857 0.0
C78 C 0.88507 0.70596 0.54222 0.0
C79 C 0.85561 0.68571 0.5441 0.0
C80 C 0.89423 0.71993 0.52139 0.0
C81 C 0.87405 0.71382 0.50205 0.0
C82 C 0.84472 0.69256 0.50378 0.0
C83 C 0.83561 0.67888 0.52459 0.0
C84 C 0.88301 0.73052 0.48056 0.0
C85 C 0.90885 0.7367 0.47094 0.0
C86 C 0.9165 0.75179 0.45027 0.0
C87 C 0.89841 0.76122 0.43959 0.0
C88 C 0.8728 0.75551 0.44899 0.0
C89 C 0.86531 0.74026 0.46945 0.0
C90 C 0.85361 0.76497 0.43708 0.0
C91 C 0.86513 0.79429 0.42908 0.0
C92 C 0.82369 0.74446 0.43319 0.0
C93 C 0.80573 0.75294 0.42125 0.0
C94 C 0.81727 0.78214 0.41302 0.0
C95 C 0.94309 0.75766 0.43933 0.0
C96 C 0.96988 0.77086 0.45292 0.0
C97 C 0.94201 0.7518 0.41477 0.0
C98 C 0.96723 0.76006 0.4039 0.0
C99 C 0.99419 0.77456 0.4173 0.0
C100 C 0.99523 0.77926 0.44199 0.0
C101 C 0.84712 0.80285 0.41729 0.0
H102 H 0.90086 0.71187 0.55716 0.0
H103 H 0.91693 0.73634 0.52077 0.0
H104 H 0.82864 0.68669 0.48909 0.0
H105 H 0.8128 0.66315 0.52555 0.0
H106 H 0.9225 0.72894 0.47903 0.0
H107 H 0.84584 0.73653 0.477 0.0
H108 H 0.9042 0.77291 0.42371 0.0
H109 H 0.88805 0.81074 0.43216 0.0
H110 H 0.81425 0.72161 0.43894 0.0
H111 H 0.78281 0.73646 0.41814 0.0
H112 H 0.97137 0.77573 0.47187 0.0
H113 H 0.9216 0.74107 0.40388 0.0
H114 H 0.85654 0.8258 0.41173 0.0
H115 H 0.01573 0.79026 0.45276 0.0
H116 H 0.96565 0.75526 0.38494 0.0
C117 C 0.14011 0.26819 0.46742 0.0
C118 C 0.1384 0.29454 0.46355 0.0
C119 C 0.13248 0.25464 0.48846 0.0
C120 C 0.12278 0.26702 0.50606 0.0
C121 C 0.11965 0.29241 0.50179 0.0
C122 C 0.12759 0.3062 0.48079 0.0
C123 C 0.11881 0.25546 0.52963 0.0
C124 C 0.14081 0.25245 0.54131 0.0
C125 C 0.13853 0.24348 0.56422 0.0
C126 C 0.11389 0.23746 0.57546 0.0
C127 C 0.09092 0.23905 0.56381 0.0
C128 C 0.0938 0.24843 0.54082 0.0
C129 C 0.06418 0.23071 0.57579 0.0
C130 C 0.05532 0.20897 0.59246 0.0
C131 C 0.04758 0.24468 0.57119 0.0
C132 C 0.02301 0.23719 0.58295 0.0
C133 C 0.01478 0.21615 0.60009 0.0
C134 C 0.16156 0.23975 0.57636 0.0
C135 C 0.17327 0.22394 0.56438 0.0
C136 C 0.17112 0.2508 0.60023 0.0
C137 C 0.19166 0.24576 0.61197 0.0
C138 C 0.20311 0.22966 0.60006 0.0
C139 C 0.19377 0.21884 0.57614 0.0
C140 C 0.03151 0.20244 0.60484 0.0
H141 H 0.14804 0.25845 0.45438 0.0
H142 H 0.13485 0.23491 0.49124 0.0
H143 H 0.11253 0.30259 0.51521 0.0
H144 H 0.12659 0.32684 0.47863 0.0
H145 H 0.16022 0.25803 0.53282 0.0
H146 H 0.07651 0.24972 0.53128 0.0
H147 H 0.11266 0.23121 0.59335 0.0
H148 H 0.06676 0.19687 0.5962 0.0
H149 H 0.0537 0.26186 0.55882 0.0
H150 H 0.01058 0.24811 0.57867 0.0
H151 H 0.16597 0.21475 0.54608 0.0
H152 H 0.16271 0.26335 0.60984 0.0
H153 H 0.02664 0.18697 0.61844 0.0
H154 H 0.20179 0.20579 0.56667 0.0
H155 H 0.19865 0.25448 0.63038 0.0
C156 C 0.69106 0.82222 0.49488 0.0
C157 C 0.70297 0.84653 0.48056 0.0
C158 C 0.70212 0.82661 0.51854 0.0
C159 C 0.72497 0.8555 0.5283 0.0
C160 C 0.73646 0.8798 0.51391 0.0
C161 C 0.72554 0.87539 0.49039 0.0
C162 C 0.73722 0.86074 0.55329 0.0
C163 C 0.74357 0.83959 0.56311 0.0
C164 C 0.75788 0.8463 0.58596 0.0
C165 C 0.7652 0.87413 0.59916 0.0
C166 C 0.75876 0.89532 0.58971 0.0
C167 C 0.74453 0.88826 0.56691 0.0
C168 C 0.76823 0.92559 0.60303 0.0
C169 C 0.76456 0.9279 0.62716 0.0
C170 C 0.78126 0.95256 0.59154 0.0
C171 C 0.79018 0.98113 0.60379 0.0
C172 C 0.78619 0.98344 0.6278 0.0
C173 C 0.76678 0.82523 0.5956 0.0
C174 C 0.74732 0.7934 0.5943 0.0
C175 C 0.79501 0.837 0.60626 0.0
C176 C 0.8036 0.81742 0.61541 0.0
C177 C 0.78414 0.78565 0.61422 0.0
C178 C 0.75586 0.77382 0.60371 0.0
C179 C 0.77339 0.95658 0.63943 0.0
H180 H 0.6736 0.79976 0.48766 0.0
H181 H 0.69269 0.80752 0.52924 0.0
H182 H 0.75429 0.90224 0.52073 0.0
H183 H 0.73486 0.89462 0.4798 0.0
H184 H 0.73877 0.81869 0.55254 0.0
H185 H 0.73922 0.90441 0.55964 0.0
H186 H 0.77652 0.87961 0.61665 0.0
H187 H 0.75454 0.9075 0.63646 0.0
H188 H 0.78481 0.95162 0.57306 0.0
H189 H 0.79994 1.00148 0.5944 0.0
H190 H 0.7254 0.78374 0.58629 0.0
H191 H 0.81057 0.86138 0.60732 0.0
H192 H 0.77039 0.95779 0.65801 0.0
H193 H 0.74047 0.74938 0.60259 0.0
H194 H 0.82543 0.82715 0.62365 0.0
C195 C 0.131 0.85063 0.48137 0.0
C196 C 0.1599 0.85965 0.4785 0.0
C197 C 0.12278 0.85419 0.50374 0.0
C198 C 0.14334 0.8666 0.52358 0.0
C199 C 0.17197 0.87431 0.52068 0.0
C200 C 0.18015 0.87096 0.4984 0.0
C201 C 0.13556 0.87277 0.54714 0.0
C202 C 0.10936 0.85173 0.55557 0.0
C203 C 0.10263 0.85762 0.57812 0.0
C204 C 0.12235 0.88492 0.59214 0.0
C205 C 0.1485 0.90621 0.58398 0.0
C206 C 0.15477 0.90004 0.56141 0.0
C207 C 0.16932 0.93497 0.59892 0.0
C208 C 0.15962 0.95201 0.61204 0.0
C209 C 0.19915 0.94591 0.59979 0.0
C210 C 0.21885 0.97353 0.61307 0.0
C211 C 0.20917 0.99072 0.62596 0.0
C212 C 0.07513 0.83543 0.58726 0.0
C213 C 0.04891 0.82151 0.57277 0.0
C214 C 0.07481 0.82893 0.61091 0.0
C215 C 0.04884 0.80951 0.62001 0.0
C216 C 0.02263 0.79598 0.60563 0.0
C217 C 0.02288 0.802 0.58188 0.0
C218 C 0.17935 0.97961 0.62541 0.0
H219 H 0.115 0.84173 0.46623 0.0
H220 H 0.10058 0.84814 0.50535 0.0
H221 H 0.18819 0.88316 0.53565 0.0
H222 H 0.20244 0.8774 0.49668 0.0
H223 H 0.09459 0.83041 0.54489 0.0
H224 H 0.1745 0.91691 0.55472 0.0
H225 H 0.11733 0.88962 0.60952 0.0
H226 H 0.13681 0.94442 0.61155 0.0
H227 H 0.20732 0.93317 0.59009 0.0
H228 H 0.24173 0.98184 0.61274 0.0
H229 H 0.0484 0.82637 0.55456 0.0
H230 H 0.09469 0.83887 0.62244 0.0
H231 H 0.17131 0.99247 0.63513 0.0
H232 H 1.0029 0.79221 0.57052 0.0
H233 H 0.04924 0.805 0.63831 0.0
C234 C 0.94717 0.49429 0.86875 0.0
C235 C 0.96698 0.48455 0.87431 0.0
C236 C 0.93572 0.49082 0.84535 0.0
C237 C 0.944 0.47771 0.82703 0.0
C238 C 0.96461 0.46902 0.83262 0.0
C239 C 0.97593 0.47238 0.85594 0.0
C240 C 0.93063 0.47208 0.80229 0.0
C241 C 0.92508 0.49378 0.79243 0.0
C242 C 0.91228 0.48825 0.7691 0.0
C243 C 0.90511 0.46057 0.75568 0.0
C244 C 0.91053 0.43864 0.76514 0.0
C245 C 0.92315 0.44459 0.78848 0.0
C246 C 0.90264 0.40932 0.75078 0.0
C247 C 0.87657 0.39336 0.73607 0.0
C248 C 0.92094 0.39682 0.75193 0.0
C249 C 0.91319 0.3689 0.73895 0.0
C250 C 0.88705 0.35291 0.72437 0.0
C251 C 0.90589 0.51096 0.7587 0.0
C252 C 0.89555 0.52698 0.77234 0.0
C253 C 0.9091 0.51599 0.73476 0.0
C254 C 0.90114 0.53552 0.72452 0.0
C255 C 0.88995 0.55073 0.73797 0.0
C256 C 0.88785 0.54677 0.76213 0.0
C257 C 0.86888 0.3655 0.72304 0.0
H258 H 0.93996 0.50381 0.88259 0.0
H259 H 0.91977 0.49758 0.84172 0.0
H260 H 0.97203 0.45954 0.81893 0.0
H261 H 0.99171 0.4654 0.85965 0.0
H262 H 0.93134 0.51529 0.80276 0.0
H263 H 0.92642 0.42729 0.79616 0.0
H264 H 0.8951 0.45596 0.73778 0.0
H265 H 0.86174 0.40203 0.73498 0.0
H266 H 0.94131 0.4086 0.7629 0.0
H267 H 0.92737 0.35948 0.74076 0.0
H268 H 0.89268 0.52367 0.7908 0.0
H269 H 0.9176 0.50465 0.72379 0.0
H270 H 0.84855 0.35367 0.71201 0.0
H271 H 0.88005 0.55881 0.77315 0.0
H272 H 0.90315 0.53816 0.7059 0.0
C273 C 0.53529 0.52448 0.86239 0.0
C274 C 0.52502 0.50143 0.87791 0.0
C275 C 0.54039 0.5181 0.83943 0.0
C276 C 0.53485 0.48849 0.8316 0.0
C277 C 0.52469 0.4656 0.84723 0.0
C278 C 0.51996 0.47205 0.87013 0.0
C279 C 0.53906 0.4809 0.80712 0.0
C280 C 0.56518 0.49924 0.79744 0.0
C281 C 0.56978 0.49073 0.77477 0.0
C282 C 0.54746 0.46382 0.76179 0.0
C283 C 0.52145 0.445 0.77137 0.0
C284 C 0.51734 0.45399 0.79393 0.0
C285 C 0.49958 0.41484 0.75856 0.0
C286 C 0.49348 0.41155 0.7339 0.0
C287 C 0.48575 0.38866 0.77088 0.0
C288 C 0.46691 0.35982 0.75881 0.0
C289 C 0.46175 0.35637 0.73411 0.0
C290 C 0.59817 0.50887 0.76498 0.0
C291 C 0.6146 0.54111 0.76962 0.0
C292 C 0.60904 0.49395 0.75068 0.0
C293 C 0.63505 0.51074 0.74079 0.0
C294 C 0.65154 0.54288 0.74553 0.0
C295 C 0.64103 0.55787 0.76012 0.0
C296 C 0.47473 0.38259 0.7218 0.0
H297 H 0.5396 0.54739 0.8681 0.0
H298 H 0.54819 0.53612 0.82769 0.0
H299 H 0.52054 0.44268 0.84175 0.0
H300 H 0.51202 0.45389 0.88177 0.0
H301 H 0.58232 0.51929 0.80806 0.0
H302 H 0.49716 0.4399 0.80136 0.0
H303 H 0.5506 0.45697 0.74435 0.0
H304 H 0.50339 0.4313 0.7239 0.0
H305 H 0.49009 0.39022 0.78982 0.0
H306 H 0.45661 0.34011 0.76883 0.0
H307 H 0.6069 0.55353 0.7803 0.0
H308 H 0.59753 0.46916 0.74705 0.0
H309 H 0.47094 0.38058 0.70276 0.0
H310 H 0.65321 0.58263 0.76418 0.0
H311 H 0.64194 0.49843 0.72909 0.0
C312 C 0.5492 0.04187 0.87559 0.0
C313 C 0.52039 0.01957 0.87804 0.0
C314 C 0.55703 0.05449 0.85408 0.0
C315 C 0.53615 0.04525 0.8347 0.0
C316 C 0.50757 0.02235 0.83705 0.0
C317 C 0.49981 0.0097 0.85842 0.0
C318 C 0.54343 0.06057 0.81253 0.0
C319 C 0.56835 0.06598 0.80172 0.0
C320 C 0.57457 0.07999 0.78046 0.0
C321 C 0.55586 0.08924 0.77056 0.0
C322 C 0.53094 0.08395 0.78107 0.0
C323 C 0.52493 0.06963 0.80201 0.0
C324 C 0.5109 0.09286 0.76988 0.0
C325 C 0.52162 0.12158 0.76094 0.0
C326 C 0.4809 0.07243 0.76768 0.0
C327 C 0.46207 0.08036 0.75647 0.0
C328 C 0.47284 0.1089 0.74728 0.0
C329 C 0.60024 0.08486 0.76821 0.0
C330 C 0.62701 0.09451 0.78098 0.0
C331 C 0.59839 0.08107 0.74339 0.0
C332 C 0.62276 0.08784 0.73164 0.0
C333 C 0.64963 0.09803 0.74435 0.0
C334 C 0.6514 0.10101 0.76919 0.0
C335 C 0.50276 0.12957 0.74985 0.0
H336 H 0.56547 0.0503 0.8905 0.0
H337 H 0.57916 0.07229 0.85288 0.0
H338 H 0.49107 0.01439 0.82235 0.0
H339 H 0.47753 0.99231 0.85966 0.0
H340 H 0.58231 0.05838 0.80945 0.0
H341 H 0.50601 0.06609 0.81044 0.0
H342 H 0.56053 0.1004 0.75443 0.0
H343 H 0.54459 0.13794 0.7626 0.0
H344 H 0.472 0.05007 0.77426 0.0
H345 H 0.43905 0.0642 0.75504 0.0
H346 H 0.62935 0.0979 0.80008 0.0
H347 H 0.57807 0.07316 0.73292 0.0
H348 H 0.51159 0.15174 0.74295 0.0
H349 H 0.67177 0.10872 0.77952 0.0
H350 H 0.62066 0.08591 0.71254 0.0
C351 C 0.81111 0.60419 0.80173 0.0
C352 C 0.8115 0.63153 0.79738 0.0
C353 C 0.80304 0.59163 0.82308 0.0
C354 C 0.79471 0.60585 0.84044 0.0
C355 C 0.7932 0.63201 0.83553 0.0
C356 C 0.80159 0.6448 0.81419 0.0
C357 C 0.79017 0.59488 0.86425 0.0
C358 C 0.81113 0.59019 0.87599 0.0
C359 C 0.8079 0.58047 0.89869 0.0
C360 C 0.78327 0.57529 0.90962 0.0
C361 C 0.76152 0.57895 0.89801 0.0
C362 C 0.76542 0.58929 0.87534 0.0
C363 C 0.73466 0.5711 0.90957 0.0
C364 C 0.72322 0.5466 0.92382 0.0
C365 C 0.72059 0.58817 0.90705 0.0
C366 C 0.69597 0.58107 0.91871 0.0
C367 C 0.68497 0.5569 0.93328 0.0
C368 C 0.8298 0.57485 0.91085 0.0
C369 C 0.84144 0.5592 0.89852 0.0
C370 C 0.83844 0.58412 0.93506 0.0
C371 C 0.85772 0.57723 0.94679 0.0
C372 C 0.86871 0.56086 0.93459 0.0
C373 C 0.86075 0.55233 0.91027 0.0
C374 C 0.69911 0.53999 0.9358 0.0
H375 H 0.81776 0.59289 0.78885 0.0
H376 H 0.80392 0.57113 0.82627 0.0
H377 H 0.78689 0.64343 0.84864 0.0
H378 H 0.80154 0.66581 0.81128 0.0
H379 H 0.83039 0.59485 0.86761 0.0
H380 H 0.74889 0.59205 0.86596 0.0
H381 H 0.78091 0.56793 0.92721 0.0
H382 H 0.73292 0.5324 0.92587 0.0
H383 H 0.72886 0.60738 0.89645 0.0
H384 H 0.68557 0.59457 0.91637 0.0
H385 H 0.83502 0.55149 0.87991 0.0
H386 H 0.8303 0.59674 0.94496 0.0
H387 H 0.69188 0.52182 0.94738 0.0
H388 H 0.8689 0.53965 0.90046 0.0
H389 H 0.86406 0.58474 0.96543 0.0
C390 C 0.37588 0.16947 0.8222 0.0
C391 C 0.39072 0.19324 0.80783 0.0
C392 C 0.38634 0.17229 0.84575 0.0
C393 C 0.41169 0.19903 0.85541 0.0
C394 C 0.42716 0.2222 0.8408 0.0
C395 C 0.41694 0.2192 0.81719 0.0
C396 C 0.42149 0.2034 0.88085 0.0
C397 C 0.42435 0.18058 0.89156 0.0
C398 C 0.43482 0.18541 0.91547 0.0
C399 C 0.44134 0.21281 0.92885 0.0
C400 C 0.43817 0.23562 0.91847 0.0
C401 C 0.42846 0.23083 0.89441 0.0
C402 C 0.44593 0.26488 0.93256 0.0
C403 C 0.43644 0.26483 0.95509 0.0
C404 C 0.4632 0.29314 0.92358 0.0
C405 C 0.47113 0.32077 0.93695 0.0
C406 C 0.46182 0.32074 0.95951 0.0
C407 C 0.44081 0.16284 0.9261 0.0
C408 C 0.42007 0.13131 0.92357 0.0
C409 C 0.46783 0.17285 0.93848 0.0
C410 C 0.47416 0.15174 0.94787 0.0
C411 C 0.45351 0.12026 0.94527 0.0
C412 C 0.42629 0.11019 0.93331 0.0
C413 C 0.44413 0.29255 0.96838 0.0
H414 H 0.35561 0.14921 0.81548 0.0
H415 H 0.37404 0.15409 0.85667 0.0
H416 H 0.44708 0.24278 0.84771 0.0
H417 H 0.42936 0.23744 0.80636 0.0
H418 H 0.41968 0.15968 0.88104 0.0
H419 H 0.42588 0.24831 0.88627 0.0
H420 H 0.44947 0.21665 0.94729 0.0
H421 H 0.4229 0.24334 0.96234 0.0
H422 H 0.47098 0.29389 0.90635 0.0
H423 H 0.48449 0.34226 0.92962 0.0
H424 H 0.39905 0.12307 0.91417 0.0
H425 H 0.48429 0.19699 0.9405 0.0
H426 H 0.43663 0.29201 0.9857 0.0
H427 H 0.41008 0.08596 0.93113 0.0
H428 H 0.49524 0.15998 0.95717 0.0
C429 C 0.78954 0.18535 0.80989 0.0
C430 C 0.8178 0.19275 0.80595 0.0
C431 C 0.78257 0.18851 0.83282 0.0
C432 C 0.80374 0.1989 0.85212 0.0
C433 C 0.83168 0.20512 0.84809 0.0
C434 C 0.83864 0.20214 0.82527 0.0
C435 C 0.7973 0.20427 0.87638 0.0
C436 C 0.77122 0.18345 0.88502 0.0
C437 C 0.76599 0.18832 0.90832 0.0
C438 C 0.78687 0.21435 0.92292 0.0
C439 C 0.81274 0.23569 0.91439 0.0
C440 C 0.8177 0.23047 0.89111 0.0
C441 C 0.83439 0.26386 0.92944 0.0
C442 C 0.82562 0.28112 0.94341 0.0
C443 C 0.86406 0.27447 0.92909 0.0
C444 C 0.88454 0.30217 0.94187 0.0
C445 C 0.87576 0.31973 0.9554 0.0
C446 C 0.73873 0.16633 0.91758 0.0
C447 C 0.71199 0.1581 0.9055 0.0
C448 C 0.73936 0.15436 0.93907 0.0
C449 C 0.71367 0.1347 0.94844 0.0
C450 C 0.68698 0.12705 0.93663 0.0
C451 C 0.68628 0.13883 0.91509 0.0
C452 C 0.84612 0.30881 0.95622 0.0
H453 H 0.7731 0.17791 0.7952 0.0
H454 H 0.76088 0.18364 0.83535 0.0
H455 H 0.84828 0.2124 0.86262 0.0
H456 H 0.86039 0.20721 0.8227 0.0
H457 H 0.75535 0.16303 0.87392 0.0
H458 H 0.8373 0.2473 0.88422 0.0
H459 H 0.78283 0.21807 0.94091 0.0
H460 H 0.80294 0.27373 0.94385 0.0
H461 H 0.87149 0.26154 0.91868 0.0
H462 H 0.90725 0.31031 0.94058 0.0
H463 H 0.71103 0.16723 0.88898 0.0
H464 H 0.75975 0.16032 0.94864 0.0
H465 H 0.83881 0.32195 0.96651 0.0
H466 H 0.66585 0.13317 0.90576 0.0
H467 H 0.71463 0.12601 0.96517 0.0
C468 C 0.60529 0.82453 0.20465 0.0
C469 C 0.62661 0.81669 0.20955 0.0
C470 C 0.59293 0.82035 0.18147 0.0
C471 C 0.60184 0.80844 0.16281 0.0
C472 C 0.62396 0.80178 0.16775 0.0
C473 C 0.63619 0.80588 0.1908 0.0
C474 C 0.5879 0.80221 0.1383 0.0
C475 C 0.58167 0.82338 0.12844 0.0
C476 C 0.56942 0.81781 0.10496 0.0
C477 C 0.56318 0.79052 0.09144 0.0
C478 C 0.56922 0.76909 0.101 0.0
C479 C 0.58138 0.77508 0.12448 0.0
C480 C 0.56295 0.74044 0.08658 0.0
C481 C 0.53704 0.72325 0.07181 0.0
C482 C 0.58262 0.72969 0.08789 0.0
C483 C 0.57627 0.70212 0.07517 0.0
C484 C 0.55019 0.68472 0.06071 0.0
C485 C 0.56364 0.84067 0.09431 0.0
C486 C 0.55183 0.85572 0.10722 0.0
C487 C 0.56963 0.84738 0.07099 0.0
C488 C 0.56371 0.86835 0.06075 0.0
C489 C 0.55188 0.88333 0.07362 0.0
C490 C 0.54594 0.87677 0.09695 0.0
C491 C 0.53071 0.69565 0.05907 0.0
H492 H 0.59773 0.83315 0.2188 0.0
H493 H 0.57591 0.82568 0.17824 0.0
H494 H 0.63187 0.79335 0.15373 0.0
H495 H 0.65321 0.80053 0.19399 0.0
H496 H 0.58728 0.84469 0.1388 0.0
H497 H 0.58536 0.75825 0.13218 0.0
H498 H 0.55373 0.78601 0.07335 0.0
H499 H 0.5213 0.7307 0.07056 0.0
H500 H 0.60291 0.74254 0.09889 0.0
H501 H 0.59146 0.694 0.07717 0.0
H502 H 0.54667 0.85085 0.12513 0.0
H503 H 0.57904 0.8365 0.06063 0.0
H504 H 0.5104 0.68266 0.0481 0.0
H505 H 0.53678 0.88797 0.10727 0.0
H506 H 0.56799 0.87248 0.04259 0.0
C507 C 0.19967 0.85187 0.19583 0.0
C508 C 0.1875 0.82751 0.21007 0.0
C509 C 0.20533 0.84669 0.17275 0.0
C510 C 0.19856 0.81702 0.16361 0.0
C511 C 0.18611 0.79279 0.17798 0.0
C512 C 0.18055 0.79795 0.20085 0.0
C513 C 0.20407 0.81067 0.13921 0.0
C514 C 0.23059 0.82975 0.13027 0.0
C515 C 0.23648 0.82173 0.10794 0.0
C516 C 0.21519 0.79446 0.0946 0.0
C517 C 0.18889 0.77501 0.10348 0.0
C518 C 0.18329 0.78371 0.12548 0.0
C519 C 0.16805 0.74453 0.09068 0.0
C520 C 0.16174 0.74104 0.06607 0.0
C521 C 0.15485 0.7184 0.10315 0.0
C522 C 0.13564 0.68953 0.09135 0.0
C523 C 0.12918 0.68607 0.0668 0.0
C524 C 0.2652 0.84073 0.09889 0.0
C525 C 0.28034 0.87304 0.10303 0.0
C526 C 0.27757 0.82654 0.08564 0.0
C527 C 0.30378 0.84408 0.07622 0.0
C528 C 0.31892 0.87633 0.08033 0.0
C529 C 0.30692 0.89061 0.09393 0.0
C530 C 0.14249 0.71206 0.05424 0.0
H531 H 0.20535 0.87489 0.20272 0.0
H532 H 0.21481 0.86576 0.16204 0.0
H533 H 0.18105 0.76977 0.17167 0.0
H534 H 0.17114 0.77883 0.21153 0.0
H535 H 0.24708 0.84994 0.1412 0.0
H536 H 0.16269 0.7691 0.13213 0.0
H537 H 0.21933 0.78784 0.07748 0.0
H538 H 0.17153 0.76072 0.05598 0.0
H539 H 0.15967 0.72018 0.12206 0.0
H540 H 0.12564 0.66988 0.10146 0.0
H541 H 0.27145 0.88484 0.11295 0.0
H542 H 0.26702 0.80175 0.08244 0.0
H543 H 0.13822 0.70993 0.03524 0.0
H544 H 0.31805 0.91542 0.09746 0.0
H545 H 0.31187 0.83226 0.06531 0.0
C546 C 0.21211 0.35282 0.19627 0.0
C547 C 0.18369 0.33739 0.2027 0.0
C548 C 0.21773 0.36315 0.17391 0.0
C549 C 0.195 0.3578 0.15726 0.0
C550 C 0.16642 0.34031 0.16316 0.0
C551 C 0.16084 0.33033 0.18566 0.0
C552 C 0.20115 0.37215 0.13455 0.0
C553 C 0.22467 0.37553 0.1226 0.0
C554 C 0.23193 0.3913 0.10225 0.0
C555 C 0.21413 0.40215 0.09314 0.0
C556 C 0.19019 0.39867 0.10455 0.0
C557 C 0.18438 0.38419 0.12553 0.0
C558 C 0.17142 0.41038 0.09478 0.0
C559 C 0.18276 0.43639 0.08201 0.0
C560 C 0.14179 0.39544 0.09802 0.0
C561 C 0.12414 0.40612 0.08885 0.0
C562 C 0.13524 0.4313 0.07531 0.0
C563 C 0.25905 0.39829 0.09138 0.0
C564 C 0.28415 0.40514 0.10568 0.0
C565 C 0.26075 0.40013 0.06692 0.0
C566 C 0.28708 0.41019 0.05727 0.0
C567 C 0.31232 0.41822 0.07176 0.0
C568 C 0.31029 0.41455 0.09594 0.0
C569 C 0.16486 0.44645 0.07219 0.0
H570 H 0.23014 0.35799 0.20888 0.0
H571 H 0.24002 0.37657 0.17015 0.0
H572 H 0.14831 0.33504 0.15062 0.0
H573 H 0.1387 0.31837 0.19006 0.0
H574 H 0.23743 0.3659 0.1292 0.0
H575 H 0.16729 0.38319 0.13538 0.0
H576 H 0.21925 0.41381 0.0773 0.0
H577 H 0.20552 0.44924 0.07961 0.0
H578 H 0.13192 0.37516 0.10744 0.0
H579 H 0.10173 0.39456 0.0925 0.0
H580 H 0.28398 0.40427 0.12459 0.0
H581 H 0.24183 0.39427 0.05516 0.0
H582 H 0.17426 0.46599 0.06193 0.0
H583 H 0.32906 0.41943 0.10751 0.0
H584 H 0.2878 0.4125 0.03852 0.0
C585 C 0.48446 0.94566 0.13764 0.0
C586 C 0.48345 0.97227 0.13337 0.0
C587 C 0.47717 0.93306 0.15906 0.0
C588 C 0.46834 0.94654 0.17658 0.0
C589 C 0.46565 0.97209 0.17181 0.0
C590 C 0.4732 0.98489 0.15036 0.0
C591 C 0.46348 0.93473 0.20011 0.0
C592 C 0.48389 0.92895 0.21151 0.0
C593 C 0.47955 0.91676 0.23341 0.0
C594 C 0.45431 0.91051 0.2439 0.0
C595 C 0.4338 0.91656 0.23297 0.0
C596 C 0.43866 0.92892 0.2111 0.0
C597 C 0.40732 0.90967 0.24453 0.0
C598 C 0.39228 0.88227 0.25529 0.0
C599 C 0.39746 0.9308 0.24565 0.0
C600 C 0.37342 0.92491 0.25767 0.0
C601 C 0.35867 0.8977 0.26867 0.0
C602 C 0.50112 0.91021 0.24517 0.0
C603 C 0.51593 0.89913 0.23178 0.0
C604 C 0.50692 0.91467 0.2699 0.0
C605 C 0.52642 0.90753 0.28093 0.0
C606 C 0.54085 0.89606 0.26753 0.0
C607 C 0.53576 0.89247 0.2428 0.0
C608 C 0.36828 0.8764 0.26726 0.0
H609 H 0.49143 0.9349 0.12456 0.0
H610 H 0.47883 0.91295 0.16206 0.0
H611 H 0.45887 0.9829 0.18501 0.0
H612 H 0.4721 0.00533 0.14745 0.0
H613 H 0.50352 0.93453 0.2034 0.0
H614 H 0.42272 0.93309 0.20228 0.0
H615 H 0.45051 0.90081 0.26066 0.0
H616 H 0.39905 0.8653 0.25442 0.0
H617 H 0.40879 0.95227 0.23781 0.0
H618 H 0.36677 0.94198 0.25882 0.0
H619 H 0.51192 0.89511 0.21273 0.0
H620 H 0.49647 0.92379 0.28082 0.0
H621 H 0.35715 0.85511 0.27538 0.0
H622 H 0.54712 0.88451 0.2319 0.0
H623 H 0.52991 0.91062 0.30002 0.0
C624 C 0.03858 0.50152 0.15754 0.0
C625 C 0.05078 0.52498 0.14245 0.0
C626 C 0.05129 0.50575 0.1806 0.0
C627 C 0.07637 0.53359 0.18904 0.0
C628 C 0.08919 0.55648 0.17361 0.0
C629 C 0.07668 0.55214 0.15056 0.0
C630 C 0.08843 0.53956 0.21414 0.0
C631 C 0.09266 0.51768 0.22521 0.0
C632 C 0.10473 0.52399 0.24884 0.0
C633 C 0.11148 0.55191 0.26151 0.0
C634 C 0.10737 0.5739 0.25078 0.0
C635 C 0.09602 0.56765 0.22707 0.0
C636 C 0.1158 0.60372 0.26431 0.0
C637 C 0.10801 0.60461 0.28739 0.0
C638 C 0.13254 0.63153 0.25456 0.0
C639 C 0.14172 0.65966 0.26775 0.0
C640 C 0.13417 0.66052 0.29089 0.0
C641 C 0.11158 0.50234 0.26032 0.0
C642 C 0.09207 0.47045 0.25772 0.0
C643 C 0.13782 0.5138 0.27448 0.0
C644 C 0.14421 0.49404 0.28609 0.0
C645 C 0.1246 0.46225 0.28381 0.0
C646 C 0.09851 0.45059 0.26938 0.0
C647 C 0.11695 0.63275 0.30049 0.0
H648 H 0.01868 0.4803 0.15177 0.0
H649 H 0.04091 0.48772 0.1921 0.0
H650 H 0.10885 0.57792 0.17945 0.0
H651 H 0.08716 0.57024 0.13913 0.0
H652 H 0.08761 0.49636 0.21518 0.0
H653 H 0.09253 0.58448 0.2188 0.0
H654 H 0.12048 0.55685 0.27977 0.0
H655 H 0.09492 0.58351 0.29527 0.0
H656 H 0.13901 0.63153 0.23689 0.0
H657 H 0.1546 0.68079 0.25983 0.0
H658 H 0.07167 0.46092 0.24698 0.0
H659 H 0.15359 0.53816 0.27653 0.0
H660 H 0.11074 0.63285 0.31824 0.0
H661 H 0.08324 0.4261 0.26691 0.0
H662 H 0.1645 0.50369 0.29702 0.0
C663 C 0.46581 0.5033 0.15364 0.0
C664 C 0.49402 0.51089 0.14916 0.0
C665 C 0.4597 0.5088 0.1764 0.0
C666 C 0.48169 0.52205 0.1952 0.0
C667 C 0.50971 0.52886 0.19077 0.0
C668 C 0.51584 0.52358 0.16803 0.0
C669 C 0.47593 0.53034 0.21904 0.0
C670 C 0.44993 0.51108 0.22865 0.0
C671 C 0.44434 0.51953 0.25091 0.0
C672 C 0.46512 0.54759 0.26348 0.0
C673 C 0.49115 0.56705 0.25422 0.0
C674 C 0.49635 0.55826 0.23204 0.0
C675 C 0.51244 0.59715 0.26729 0.0
C676 C 0.50318 0.61633 0.27773 0.0
C677 C 0.54216 0.60729 0.26893 0.0
C678 C 0.56223 0.63625 0.28036 0.0
C679 C 0.55292 0.65568 0.29013 0.0
C680 C 0.41668 0.49963 0.26103 0.0
C681 C 0.39024 0.48505 0.24677 0.0
C682 C 0.41644 0.49614 0.28533 0.0
C683 C 0.3904 0.47932 0.29523 0.0
C684 C 0.364 0.46548 0.28108 0.0
C685 C 0.36417 0.46805 0.25669 0.0
C686 C 0.52322 0.64529 0.28902 0.0
H687 H 0.44852 0.4935 0.13946 0.0
H688 H 0.43794 0.50358 0.17908 0.0
H689 H 0.52712 0.53872 0.20485 0.0
H690 H 0.53793 0.53037 0.16514 0.0
H691 H 0.43426 0.48927 0.21901 0.0
H692 H 0.51597 0.57384 0.2245 0.0
H693 H 0.46091 0.55455 0.28047 0.0
H694 H 0.48046 0.60929 0.27662 0.0
H695 H 0.5499 0.59286 0.26127 0.0
H696 H 0.58504 0.64383 0.28098 0.0
H697 H 0.38961 0.48748 0.22804 0.0
H698 H 0.43642 0.50647 0.29675 0.0
H699 H 0.51553 0.65979 0.29663 0.0
H700 H 0.34407 0.45752 0.2454 0.0
H701 H 0.3909 0.47705 0.31399 0.0
Tb702 Tb 0.53432 0.02223 1.0022 0.0
C703 C 0.51996 0.96347 0.02706 0.0
Tb704 Tb 0.47102 0.97935 0.01252 0.0
O705 O 0.54937 0.0355 0.03974 0.0
O706 O 0.50698 0.02097 0.02804 0.0
O707 O 0.53741 0.98335 0.01304 0.0
C708 C 0.42289 0.94673 0.03345 0.0
O709 O 0.49472 0.96081 0.03128 0.0
C710 C 0.48204 0.97409 0.96848 0.0
C711 C 0.48566 0.0382 0.98765 0.0
O712 O 0.437 0.9356 0.02285 0.0
O713 O 0.43554 0.9761 0.03188 0.0
O714 O 0.45654 0.9666 0.97465 0.0
O715 O 0.49853 0.98032 0.987 0.0
O716 O 0.46814 0.01853 1.00178 0.0
O717 O 0.51068 0.04047 0.98335 0.0
C718 C 0.58279 0.05468 0.98182 0.0
O719 O 0.56948 0.06616 0.99324 0.0
O720 O 0.56893 0.02506 0.98207 0.0
C721 C 0.52389 0.02717 0.04633 0.0
Tb722 Tb 0.98332 0.51406 1.00372 0.0
C723 C 0.04628 0.56273 0.02351 0.0
Tb724 Tb 0.02617 0.49148 0.01518 0.0
O725 O 0.98575 0.52947 0.04094 0.0
O726 O 0.99258 0.49323 0.03154 0.0
O727 O 0.0232 0.55785 0.01 0.0
C728 C 0.06134 0.47448 0.03535 0.0
O729 O 0.05 0.53986 0.02989 0.0
C730 C 0.01606 0.49507 0.97026 0.0
C731 C 0.96242 0.44277 0.99633 0.0
O732 O 0.06943 0.49765 0.02288 0.0
O733 O 0.03372 0.46125 0.0366 0.0
O734 O 0.02478 0.47703 0.97783 0.0
O735 O 0.01704 0.51238 0.98755 0.0
O736 O 0.98599 0.44772 0.00911 0.0
O737 O 0.95841 0.46551 0.99034 0.0
C738 C 0.94668 0.52859 0.98275 0.0
O739 O 0.94244 0.51402 1.00148 0.0
O740 O 0.97159 0.53501 0.97592 0.0
C741 C 0.99384 0.51096 0.04871 0.0
Tb742 Tb 0.47389 0.49038 0.01413 0.0
C743 C 0.49442 0.44181 1.00354 0.0
Tb744 Tb 0.54109 0.51342 0.01027 0.0
O745 O 0.47115 0.50667 0.97942 0.0
O746 O 0.50203 0.49496 0.98851 0.0
O747 O 0.47417 0.44687 0.01176 0.0
C748 C 0.5893 0.53072 0.9894 0.0
O749 O 0.52028 0.46434 0.9993 0.0
C750 C 0.52666 0.50688 0.05399 0.0
C751 C 0.52016 0.56161 0.02184 0.0
O752 O 0.57745 0.50761 1.00201 0.0
O753 O 0.57441 0.54464 0.98901 0.0
O754 O 0.5529 0.51588 0.04871 0.0
O755 O 0.51172 0.50213 0.03498 0.0
O756 O 0.54037 0.55657 0.01353 0.0
O757 O 0.49381 0.53923 0.02512 0.0
C758 C 0.42278 0.46794 0.03154 0.0
O759 O 0.44764 0.48736 0.04279 0.0
O760 O 0.42658 0.46097 0.01017 0.0
C761 C 0.49424 0.50673 0.97315 0.0
Tb762 Tb 0.2042 0.36155 0.33858 0.0
C763 C 0.18641 0.29625 0.35495 0.0
Tb764 Tb 0.13904 0.31556 0.34265 0.0
O765 O 0.21383 0.36593 0.37682 0.0
O766 O 0.1731 0.35514 0.36226 0.0
O767 O 0.2069 0.32141 0.34686 0.0
C768 C 0.09023 0.28043 0.36241 0.0
O769 O 0.15922 0.2899 0.35519 0.0
C770 C 0.15467 0.31755 0.29955 0.0
C771 C 0.15687 0.38126 0.32868 0.0
O772 O 0.11579 0.28597 0.36972 0.0
O773 O 0.09201 0.29429 0.34357 0.0
O774 O 0.12788 0.30498 0.30418 0.0
O775 O 0.16993 0.32239 0.31863 0.0
O776 O 0.13833 0.35812 0.33994 0.0
O777 O 0.18273 0.38543 0.32484 0.0
C778 C 0.25553 0.39541 0.32227 0.0
O779 O 0.2447 0.40531 0.33811 0.0
O780 O 0.23741 0.36659 0.31568 0.0
C781 C 0.18747 0.35741 0.38123 0.0
Tb782 Tb 0.6562 0.85131 0.33818 0.0
C783 C 0.72192 0.9012 0.35108 0.0
Tb784 Tb 0.70271 0.82964 0.34504 0.0
O785 O 0.64581 0.84909 0.37572 0.0
O786 O 0.67428 0.83706 0.36385 0.0
O787 O 0.69636 0.8952 0.34124 0.0
C788 C 0.73942 0.81455 0.36472 0.0
O789 O 0.72822 0.87937 0.35537 0.0
C790 C 0.6861 0.83192 0.30164 0.0
C791 C 0.63712 0.78024 0.33014 0.0
O792 O 0.74433 0.83126 0.34713 0.0
O793 O 0.71388 0.80639 0.37109 0.0
O794 O 0.69699 0.81491 0.30736 0.0
O795 O 0.68845 0.84917 0.31959 0.0
O796 O 0.66239 0.78538 0.34004 0.0
O797 O 0.63106 0.80236 0.32694 0.0
C798 C 0.61994 0.86521 0.31589 0.0
O799 O 0.6231 0.84191 0.30986 0.0
O800 O 0.6372 0.88079 0.33472 0.0
C801 C 0.66397 0.84026 0.38221 0.0
Tb802 Tb 0.14821 0.82835 0.35101 0.0
C803 C 0.16798 0.78096 0.33761 0.0
Tb804 Tb 0.21333 0.85407 0.34421 0.0
O805 O 0.1355 0.81429 0.31293 0.0
O806 O 0.17672 0.84994 0.32515 0.0
O807 O 0.14714 0.78485 0.34567 0.0
C808 C 0.26094 0.87173 0.3221 0.0
O809 O 0.19429 0.80429 0.33543 0.0
C810 C 0.20061 0.8505 0.38778 0.0
C811 C 0.1935 0.9005 0.36104 0.0
O812 O 0.25582 0.8583 0.34149 0.0
O813 O 0.23946 0.87542 0.31553 0.0
O814 O 0.22617 0.86965 0.38175 0.0
O815 O 0.18514 0.83257 0.36994 0.0
O816 O 0.21354 0.89717 0.35072 0.0
O817 O 0.16788 0.87685 0.36438 0.0
C818 C 0.09903 0.81172 0.37064 0.0
O819 O 0.10714 0.82773 0.35265 0.0
O820 O 0.11847 0.80489 0.37726 0.0
C821 C 0.16138 0.83241 0.30715 0.0
Tb822 Tb 0.8675 0.68647 0.66775 0.0
C823 C 0.85205 0.62633 0.69097 0.0
Tb824 Tb 0.80393 0.64432 0.67775 0.0
O825 O 0.88192 0.69593 0.70548 0.0
O826 O 0.84032 0.68495 0.69386 0.0
O827 O 0.87009 0.64677 0.6775 0.0
C828 C 0.75564 0.61174 0.69846 0.0
O829 O 0.82695 0.62408 0.69521 0.0
C830 C 0.81482 0.64052 0.6337 0.0
C831 C 0.82006 0.70564 0.65584 0.0
O832 O 0.76894 0.60034 0.68691 0.0
O833 O 0.76922 0.64133 0.698 0.0
O834 O 0.78956 0.63394 0.63988 0.0
O835 O 0.83114 0.64535 0.65205 0.0
O836 O 0.80176 0.68443 0.66863 0.0
O837 O 0.8454 0.70849 0.65178 0.0
C838 C 0.91608 0.71987 0.64754 0.0
O839 O 0.9082 0.72929 0.66589 0.0
O840 O 0.89667 0.69148 0.6407 0.0
C841 C 0.85673 0.68912 0.71206 0.0
Tb842 Tb 0.31758 0.18575 0.67215 0.0
C843 C 0.38332 0.23354 0.6876 0.0
Tb844 Tb 0.36258 0.16202 0.67899 0.0
O845 O 0.32315 0.20043 0.70977 0.0
O846 O 0.33085 0.16535 0.6976 0.0
O847 O 0.35849 0.22909 0.67732 0.0
C848 C 0.3967 0.14418 0.69982 0.0
O849 O 0.38854 0.21083 0.69103 0.0
C850 C 0.35558 0.17409 0.63511 0.0
C851 C 0.29601 0.1138 0.66637 0.0
O852 O 0.39546 0.16849 0.70668 0.0
O853 O 0.37881 0.12998 0.68106 0.0
O854 O 0.37358 0.16504 0.64152 0.0
O855 O 0.34497 0.17669 0.65342 0.0
O856 O 0.32146 0.11883 0.6757 0.0
O857 O 0.29054 0.13626 0.66244 0.0
C858 C 0.28293 0.20217 0.65072 0.0
O859 O 0.27704 0.18636 0.66893 0.0
O860 O 0.30834 0.20888 0.6449 0.0
C861 C 0.33341 0.18282 0.71551 0.0
Tb862 Tb 0.80325 0.15863 0.67591 0.0
C863 C 0.82101 0.10764 0.66662 0.0
Tb864 Tb 0.86823 0.17929 0.67113 0.0
O865 O 0.7999 0.17461 0.6409 0.0
O866 O 0.82965 0.16149 0.64927 0.0
O867 O 0.80085 0.11393 0.67307 0.0
C868 C 0.91699 0.19288 0.6525 0.0
O869 O 0.84797 0.12936 0.66394 0.0
C870 C 0.85444 0.18106 0.71416 0.0
C871 C 0.8502 0.2291 0.68196 0.0
O872 O 0.90589 0.17369 0.66833 0.0
O873 O 0.90078 0.20448 0.64733 0.0
O874 O 0.88065 0.19748 0.7084 0.0
O875 O 0.83885 0.16246 0.69679 0.0
O876 O 0.86809 0.22263 0.67107 0.0
O877 O 0.82492 0.20738 0.68769 0.0
C878 C 0.75346 0.13911 0.69519 0.0
O879 O 0.77857 0.16112 0.7043 0.0
O880 O 0.75619 0.12826 0.67476 0.0
C881 C 0.82204 0.17326 0.63387 0.0
C882 C 0.35138 0.92128 0.05873 0.0
C883 C 0.34649 0.89494 0.06961 0.0
C884 C 0.37639 0.9382 0.04734 0.0
C885 C 0.39713 0.92906 0.046 0.0
H886 H 0.33547 0.92853 0.05853 0.0
H887 H 0.37916 0.95814 0.03902 0.0
S888 S 0.39674 0.86442 0.07394 0.0
N889 N 0.36632 0.86266 0.08035 0.0
N890 N 0.41254 0.89368 0.05794 0.0
C891 C 0.39298 0.90334 0.0572 0.0
C892 C 0.36786 0.88646 0.06924 0.0
C893 C 0.12602 0.47362 0.06452 0.0
C894 C 0.11611 0.4419 0.06461 0.0
C895 C 0.10837 0.48412 0.05468 0.0
C896 C 0.07996 0.46331 0.04514 0.0
H897 H 0.14746 0.49055 0.07239 0.0
H898 H 0.11678 0.50867 0.05503 0.0
S899 S 0.04419 0.37826 0.03877 0.0
N900 N 0.07657 0.38992 0.05205 0.0
N901 N 0.043 0.40985 0.03508 0.0
C902 C 0.06976 0.43169 0.04488 0.0
C903 C 0.08791 0.42093 0.05425 0.0
C904 C 0.51538 0.62845 0.05126 0.0
C905 C 0.54241 0.65417 0.04875 0.0
C906 C 0.50819 0.59892 0.04186 0.0
C907 C 0.52771 0.59376 0.02949 0.0
H908 H 0.49996 0.63099 0.06126 0.0
H909 H 0.48735 0.57992 0.04497 0.0
S910 S 0.60031 0.65418 0.01599 0.0
N911 N 0.588 0.67316 0.03152 0.0
N912 N 0.5747 0.61764 0.01389 0.0
C913 C 0.55449 0.61954 0.02611 0.0
C914 C 0.56179 0.6497 0.03575 0.0
C915 C 0.8944 0.37597 0.9636 0.0
C916 C 0.89743 0.35039 0.96728 0.0
C917 C 0.91526 0.40554 0.97342 0.0
C918 C 0.94003 0.41077 0.98742 0.0
H919 H 0.87607 0.37325 0.95252 0.0
H920 H 0.91201 0.42445 0.96962 0.0
S921 S 0.95719 0.35085 1.00342 0.0
N922 N 0.92625 0.33167 0.98663 0.0
N923 N 0.96574 0.38728 1.00508 0.0
C924 C 0.94302 0.38517 0.99163 0.0
C925 C 0.9217 0.35501 0.98154 0.0
C926 C 0.65695 0.57379 0.95809 0.0
C927 C 0.65943 0.54982 0.94646 0.0
C928 C 0.634 0.56753 0.97182 0.0
C929 C 0.61318 0.53714 0.97484 0.0
H930 H 0.67318 0.59757 0.95701 0.0
H931 H 0.63294 0.58658 0.98058 0.0
S932 S 0.60721 0.46619 0.94576 0.0
N933 N 0.63676 0.49442 0.93679 0.0
N934 N 0.59473 0.4829 0.96361 0.0
C935 C 0.61485 0.513 0.96291 0.0
C936 C 0.63771 0.51928 0.94847 0.0
C937 C 0.44504 0.07979 0.97221 0.0
C938 C 0.4608 0.0981 0.95483 0.0
C939 C 0.45302 0.06024 0.98259 0.0
C940 C 0.47696 0.05822 0.97584 0.0
H941 H 0.42686 0.08117 0.97822 0.0
H942 H 0.44057 0.04702 0.99625 0.0
S943 S 0.52314 0.09923 0.92889 0.0
N944 N 0.4999 0.11159 0.92999 0.0
N945 N 0.51491 0.07478 0.94908 0.0
C946 C 0.49222 0.07575 0.95776 0.0
C947 C 0.48415 0.09571 0.94736 0.0
C948 C 0.64224 0.11972 0.95339 0.0
C949 C 0.65998 0.10773 0.94731 0.0
C950 C 0.61732 0.10242 0.96473 0.0
C951 C 0.60913 0.07241 0.96997 0.0
H952 H 0.64799 0.14284 0.94976 0.0
H953 H 0.60433 0.11256 0.96932 0.0
S954 S 0.64788 0.0303 0.9569 0.0
N955 N 0.66758 0.06409 0.94693 0.0
N956 N 0.62042 0.03125 0.96786 0.0
C957 C 0.62643 0.05998 0.96358 0.0
C958 C 0.652 0.07777 0.95237 0.0
C959 C 0.91446 0.55888 0.93835 0.0
C960 C 0.88825 0.55242 0.94721 0.0
C961 C 0.93327 0.55115 0.95003 0.0
C962 C 0.92644 0.5365 0.9709 0.0
H963 H 0.92063 0.57029 0.9224 0.0
H964 H 0.95328 0.55666 0.94262 0.0
S965 S 0.85973 0.51313 1.00065 0.0
N966 N 0.85592 0.5295 0.97758 0.0
N967 N 0.8913 0.5151 0.9996 0.0
C968 C 0.90017 0.52961 0.9798 0.0
C969 C 0.88107 0.53757 0.96796 0.0
C970 C 0.4497 0.35682 0.98142 0.0
C971 C 0.47062 0.35028 0.97353 0.0
C972 C 0.45763 0.38607 0.99228 0.0
C973 C 0.4868 0.40975 0.9957 0.0
H974 H 0.42697 0.33964 0.97826 0.0
H975 H 0.44066 0.39044 0.99706 0.0
S976 S 0.54998 0.40223 0.98141 0.0
N977 N 0.52166 0.36835 0.9721 0.0
N978 N 0.53684 0.42312 0.99267 0.0
C979 C 0.50799 0.40267 0.98919 0.0
C980 C 0.49984 0.37301 0.97804 0.0
C981 C 0.11162 0.62985 0.05908 0.0
C982 C 0.10858 0.65524 0.05454 0.0
C983 C 0.09175 0.60024 0.04857 0.0
C984 C 0.06793 0.59475 0.03312 0.0
H985 H 0.12951 0.6329 0.07094 0.0
H986 H 0.09499 0.58148 0.05292 0.0
S987 S 0.05009 0.65378 0.01583 0.0
N988 N 0.07992 0.6732 0.03391 0.0
N989 N 0.04262 0.6177 0.01386 0.0
C990 C 0.06483 0.62014 0.02826 0.0
C991 C 0.08514 0.65031 0.03901 0.0
C992 C 0.34322 0.41821 0.04002 0.0
C993 C 0.34076 0.43119 0.06176 0.0
C994 C 0.36975 0.43033 0.03018 0.0
C995 C 0.39484 0.45573 0.04182 0.0
H996 H 0.32454 0.3983 0.03061 0.0
H997 H 0.37066 0.41952 0.0135 0.0
S998 S 0.39997 0.49947 0.09838 0.0
N999 N 0.3657 0.47217 0.09386 0.0
N1000 N 0.41556 0.4941 0.07584 0.0
C1001 C 0.39274 0.46906 0.06345 0.0
C1002 C 0.36573 0.45701 0.07332 0.0
C1003 C 0.51739 0.90174 0.06374 0.0
C1004 C 0.54482 0.90494 0.06242 0.0
C1005 C 0.50966 0.9208 0.05232 0.0
C1006 C 0.52905 0.94386 0.03909 0.0
H1007 H 0.50151 0.88393 0.07327 0.0
H1008 H 0.48812 0.9171 0.05374 0.0
S1009 S 0.60469 0.96349 0.03217 0.0
N1010 N 0.59219 0.93422 0.04836 0.0
N1011 N 0.57776 0.96993 0.02669 0.0
C1012 C 0.55689 0.9478 0.03817 0.0
C1013 C 0.56473 0.92837 0.04986 0.0
C1014 C 0.01361 0.24836 0.37939 0.0
C1015 C 0.01346 0.23328 0.3994 0.0
C1016 C 0.03842 0.26319 0.36731 0.0
C1017 C 0.06402 0.26365 0.37489 0.0
H1018 H 0.99424 0.24821 0.37277 0.0
H1019 H 0.03753 0.27446 0.35197 0.0
S1020 S 0.07529 0.22894 0.42706 0.0
N1021 N 0.04137 0.22068 0.42675 0.0
N1022 N 0.08793 0.24845 0.40411 0.0
C1023 C 0.06427 0.24902 0.39507 0.0
C1024 C 0.03901 0.23385 0.4073 0.0
C1025 C 0.77208 0.78517 0.40939 0.0
C1026 C 0.798 0.79094 0.40031 0.0
C1027 C 0.75332 0.79291 0.39769 0.0
C1028 C 0.75979 0.80677 0.37649 0.0
H1029 H 0.76633 0.77483 0.42581 0.0
H1030 H 0.73368 0.78814 0.40544 0.0
S1031 S 0.82429 0.82567 0.34476 0.0
N1032 N 0.82867 0.81045 0.36836 0.0
N1033 N 0.79361 0.82552 0.34661 0.0
C1034 C 0.78559 0.8127 0.36717 0.0
C1035 C 0.80465 0.80468 0.37903 0.0
C1036 C 0.23289 0.98772 0.37287 0.0
C1037 C 0.21748 0.99273 0.39008 0.0
C1038 C 0.22467 0.95789 0.36327 0.0
C1039 C 0.20073 0.93189 0.37056 0.0
H1040 H 0.25143 0.00705 0.36671 0.0
H1041 H 0.23729 0.95526 0.35009 0.0
S1042 S 0.15456 0.93276 0.41661 0.0
N1043 N 0.17809 0.96941 0.41489 0.0
N1044 N 0.16246 0.91335 0.39696 0.0
C1045 C 0.18522 0.93667 0.38791 0.0
C1046 C 0.19363 0.96707 0.39765 0.0
C1047 C 0.59565 0.69284 0.31832 0.0
C1048 C 0.57416 0.68741 0.30038 0.0
C1049 C 0.6158 0.72288 0.32814 0.0
C1050 C 0.6151 0.7485 0.32033 0.0
H1051 H 0.59675 0.67371 0.32493 0.0
H1052 H 0.63194 0.72602 0.34196 0.0
S1053 S 0.56489 0.74635 0.27167 0.0
N1054 N 0.55464 0.7099 0.27392 0.0
N1055 N 0.59211 0.76619 0.29217 0.0
C1056 C 0.59392 0.74321 0.302 0.0
C1057 C 0.57357 0.71273 0.29206 0.0
C1058 C 0.33255 0.88257 0.30502 0.0
C1059 C 0.33367 0.89166 0.28206 0.0
C1060 C 0.30908 0.87645 0.31799 0.0
C1061 C 0.28593 0.8793 0.30848 0.0
H1062 H 0.35006 0.88032 0.3131 0.0
H1063 H 0.30908 0.86942 0.33556 0.0
S1064 S 0.27751 0.9005 0.24857 0.0
N1065 N 0.30891 0.90178 0.24997 0.0
N1066 N 0.26509 0.8909 0.27444 0.0
C1067 C 0.28671 0.88828 0.28552 0.0
C1068 C 0.31051 0.89433 0.27228 0.0
C1069 C 0.15947 0.44465 0.29426 0.0
C1070 C 0.13212 0.44152 0.29594 0.0
C1071 C 0.16739 0.42561 0.30542 0.0
C1072 C 0.14831 0.40255 0.31882 0.0
H1073 H 0.17481 0.46168 0.28388 0.0
H1074 H 0.1886 0.42884 0.30313 0.0
S1075 S 0.07454 0.38621 0.32984 0.0
N1076 N 0.08629 0.41467 0.31285 0.0
N1077 N 0.10092 0.37853 0.33373 0.0
C1078 C 0.12096 0.39952 0.32099 0.0
C1079 C 0.11291 0.41901 0.30954 0.0
C1080 C 0.31603 0.41799 0.28257 0.0
C1081 C 0.33634 0.44828 0.29176 0.0
C1082 C 0.29003 0.40107 0.2927 0.0
C1083 C 0.28327 0.41394 0.31222 0.0
H1084 H 0.32044 0.40714 0.26765 0.0
H1085 H 0.27508 0.37776 0.28509 0.0
S1086 S 0.32855 0.49297 0.34207 0.0
N1087 N 0.34758 0.49085 0.32096 0.0
N1088 N 0.29863 0.45909 0.33993 0.0
C1089 C 0.30318 0.44436 0.32135 0.0
C1090 C 0.32976 0.4615 0.31115 0.0
C1091 C 0.58119 0.90762 0.29822 0.0
C1092 C 0.56108 0.88782 0.27941 0.0
C1093 C 0.60018 0.90016 0.30994 0.0
C1094 C 0.59986 0.8727 0.30322 0.0
H1095 H 0.58243 0.9292 0.30385 0.0
H1096 H 0.61528 0.91609 0.32431 0.0
S1097 S 0.55086 0.81241 0.25567 0.0
N1098 N 0.54139 0.83893 0.25523 0.0
N1099 N 0.57767 0.82544 0.27674 0.0
C1100 C 0.57999 0.85272 0.28442 0.0
C1101 C 0.56047 0.86015 0.27263 0.0
C1102 C 0.12335 0.69641 0.31447 0.0
C1103 C 0.14375 0.69039 0.30476 0.0
C1104 C 0.13161 0.72534 0.32603 0.0
C1105 C 0.16067 0.74936 0.32848 0.0
H1106 H 0.10066 0.67895 0.31236 0.0
H1107 H 0.11483 0.72908 0.33235 0.0
S1108 S 0.22291 0.74346 0.30895 0.0
N1109 N 0.19444 0.70945 0.30018 0.0
N1110 N 0.21027 0.76372 0.32221 0.0
C1111 C 0.18149 0.74294 0.31994 0.0
C1112 C 0.17297 0.71353 0.30797 0.0
C1113 C 0.78641 0.97013 0.38583 0.0
C1114 C 0.78288 0.99493 0.38028 0.0
C1115 C 0.76739 0.94017 0.37543 0.0
C1116 C 0.74385 0.93372 0.35922 0.0
H1117 H 0.80379 0.97385 0.39861 0.0
H1118 H 0.77069 0.92184 0.38084 0.0
S1119 S 0.72607 0.99115 0.33792 0.0
N1120 N 0.75488 0.01148 0.35695 0.0
N1121 N 0.71913 0.95529 0.33722 0.0
C1122 C 0.74069 0.9586 0.35292 0.0
C1123 C 0.7602 0.98915 0.36347 0.0
C1124 C 0.04178 0.77732 0.41344 0.0
C1125 C 0.02111 0.78494 0.40544 0.0
C1126 C 0.0669 0.78612 0.40204 0.0
C1127 C 0.07235 0.80296 0.38227 0.0
H1128 H 0.03829 0.76403 0.4284 0.0
H1129 H 0.08211 0.77955 0.40875 0.0
S1130 S 0.02613 0.83064 0.35542 0.0
N1131 N 0.00857 0.8118 0.37731 0.0
N1132 N 0.05563 0.82805 0.35579 0.0
C1133 C 0.05217 0.81124 0.37435 0.0
C1134 C 0.02658 0.80227 0.38594 0.0
C1135 C 0.23035 0.25864 0.37151 0.0
C1136 C 0.21394 0.2381 0.38758 0.0
C1137 C 0.22103 0.27688 0.36073 0.0
C1138 C 0.19474 0.27511 0.36538 0.0
H1139 H 0.2509 0.26112 0.36758 0.0
H1140 H 0.23469 0.29264 0.34877 0.0
S1141 S 0.14321 0.22398 0.40555 0.0
N1142 N 0.1697 0.21623 0.40706 0.0
N1143 N 0.15223 0.25062 0.3871 0.0
C1144 C 0.17788 0.25424 0.38117 0.0
C1145 C 0.18747 0.23578 0.39221 0.0
C1146 C 0.68514 0.58821 0.72483 0.0
C1147 C 0.67902 0.56076 0.73451 0.0
C1148 C 0.71019 0.60476 0.71342 0.0
C1149 C 0.7297 0.59414 0.71081 0.0
H1150 H 0.67021 0.59672 0.72564 0.0
H1151 H 0.71396 0.62566 0.70612 0.0
S1152 S 0.72577 0.52579 0.73509 0.0
N1153 N 0.69639 0.52556 0.74265 0.0
N1154 N 0.74259 0.55591 0.72008 0.0
C1155 C 0.72428 0.56717 0.72069 0.0
C1156 C 0.69915 0.55066 0.7328 0.0
C1157 C 0.45444 0.14527 0.74186 0.0
C1158 C 0.45296 0.11719 0.73502 0.0
C1159 C 0.43598 0.15367 0.73046 0.0
C1160 C 0.4156 0.13446 0.71163 0.0
H1161 H 0.46983 0.16074 0.75628 0.0
H1162 H 0.43781 0.17546 0.73639 0.0
S1163 S 0.40355 0.05883 0.68662 0.0
N1164 N 0.42978 0.07039 0.70805 0.0
N1165 N 0.39512 0.08618 0.68657 0.0
C1166 C 0.41395 0.10637 0.70456 0.0
C1167 C 0.4326 0.09772 0.71629 0.0
C1168 C 0.84989 0.29756 0.71348 0.0
C1169 C 0.87782 0.32223 0.71175 0.0
C1170 C 0.84097 0.26795 0.70304 0.0
C1171 C 0.85957 0.2616 0.69035 0.0
H1172 H 0.83499 0.30093 0.72361 0.0
H1173 H 0.81943 0.24977 0.70554 0.0
S1174 S 0.93437 0.31899 0.67906 0.0
N1175 N 0.92354 0.339 0.69517 0.0
N1176 N 0.90701 0.28326 0.67569 0.0
C1177 C 0.88736 0.28635 0.68786 0.0
C1178 C 0.89643 0.3166 0.69856 0.0
C1179 C 0.22718 0.04681 0.63484 0.0
C1180 C 0.23021 0.02123 0.63854 0.0
C1181 C 0.24802 0.07639 0.64468 0.0
C1182 C 0.27285 0.08168 0.65863 0.0
H1183 H 0.20905 0.04416 0.62352 0.0
H1184 H 0.24494 0.09533 0.6406 0.0
S1185 S 0.28918 0.0216 0.67584 0.0
N1186 N 0.25847 0.00244 0.65874 0.0
N1187 N 0.29796 0.05809 0.67714 0.0
C1188 C 0.27552 0.05601 0.66329 0.0
C1189 C 0.25417 0.02582 0.65325 0.0
C1190 C 0.9842 0.23328 0.62071 0.0
C1191 C 0.98948 0.2094 0.61354 0.0
C1192 C 0.96075 0.22775 0.63348 0.0
C1193 C 0.94231 0.19841 0.64026 0.0
H1194 H 0.99838 0.25656 0.61661 0.0
H1195 H 0.95723 0.24667 0.63832 0.0
S1196 S 0.94482 0.12744 0.62481 0.0
N1197 N 0.97232 0.15448 0.61273 0.0
N1198 N 0.92981 0.14495 0.63844 0.0
C1199 C 0.94725 0.17436 0.6335 0.0
C1200 C 0.97046 0.17964 0.61974 0.0
C1201 C 0.77765 0.74561 0.64109 0.0
C1202 C 0.79334 0.76503 0.62419 0.0
C1203 C 0.78655 0.7267 0.65132 0.0
C1204 C 0.81144 0.72636 0.64498 0.0
H1205 H 0.75857 0.74538 0.6467 0.0
H1206 H 0.77382 0.71236 0.6644 0.0
S1207 S 0.85858 0.77131 0.59986 0.0
N1208 N 0.83391 0.78172 0.60054 0.0
N1209 N 0.85073 0.74626 0.61953 0.0
C1210 C 0.82701 0.74537 0.62769 0.0
C1211 C 0.81795 0.76467 0.61738 0.0
C1212 C 0.98881 0.78674 0.63674 0.0
C1213 C 0.99509 0.77619 0.61571 0.0
C1214 C 0.9631 0.76839 0.6468 0.0
C1215 C 0.94285 0.73871 0.63632 0.0
H1216 H 0.0038 0.80949 0.6454 0.0
H1217 H 0.95916 0.77751 0.66297 0.0
S1218 S 0.94944 0.70013 0.58143 0.0
N1219 N 0.97926 0.73411 0.58491 0.0
N1220 N 0.93093 0.69957 0.60381 0.0
C1221 C 0.94889 0.72788 0.61531 0.0
C1222 C 0.97499 0.74664 0.60498 0.0
C1223 C 0.2181 0.21071 0.63455 0.0
C1224 C 0.22411 0.22338 0.61282 0.0
C1225 C 0.2373 0.20396 0.64676 0.0
C1226 C 0.26328 0.20992 0.63776 0.0
H1227 H 0.19818 0.20552 0.64199 0.0
H1228 H 0.23171 0.19398 0.66332 0.0
S1229 S 0.28943 0.2436 0.58186 0.0
N1230 N 0.25811 0.24216 0.58306 0.0
N1231 N 0.29417 0.2294 0.60592 0.0
C1232 C 0.26966 0.22279 0.61615 0.0
C1233 C 0.25006 0.22951 0.60368 0.0
C1234 C 0.8233 0.03875 0.63853 0.0
C1235 C 0.79543 0.01404 0.64036 0.0
C1236 C 0.83175 0.06859 0.6481 0.0
C1237 C 0.81257 0.07507 0.65975 0.0
H1238 H 0.83857 0.03509 0.62919 0.0
H1239 H 0.85323 0.08685 0.64552 0.0
S1240 S 0.73742 0.01775 0.67032 0.0
N1241 N 0.74895 0.99748 0.65547 0.0
N1242 N 0.7647 0.05352 0.67364 0.0
C1243 C 0.7849 0.05023 0.66249 0.0
C1244 C 0.77638 0.01975 0.65277 0.0
C1245 C 0.42072 0.31993 0.70435 0.0
C1246 C 0.44319 0.32534 0.72127 0.0
C1247 C 0.40203 0.29039 0.69298 0.0
C1248 C 0.40523 0.26514 0.69794 0.0
H1249 H 0.41705 0.33852 0.70035 0.0
H1250 H 0.38462 0.2873 0.68051 0.0
S1251 S 0.46216 0.26786 0.73993 0.0
N1252 N 0.46877 0.30362 0.74152 0.0
N1253 N 0.43363 0.2481 0.72057 0.0
C1254 C 0.42827 0.27055 0.71439 0.0
C1255 C 0.4472 0.30061 0.72596 0.0
C1256 C 0.70164 0.13499 0.73945 0.0
C1257 C 0.67601 0.10724 0.73176 0.0
C1258 C 0.72645 0.145 0.72743 0.0
C1259 C 0.72661 0.12785 0.70709 0.0
H1260 H 0.70245 0.14942 0.75468 0.0
H1261 H 0.74561 0.16654 0.73406 0.0
S1262 S 0.66606 0.05246 0.68061 0.0
N1263 N 0.65305 0.06177 0.70328 0.0
N1264 N 0.69952 0.08111 0.68037 0.0
C1265 C 0.70136 0.09991 0.69931 0.0
C1266 C 0.67612 0.08951 0.7117 0.0
C1267 C 0.8971 0.59111 0.711 0.0
C1268 C 0.88001 0.57012 0.72656 0.0
C1269 C 0.88782 0.60894 0.6995 0.0
C1270 C 0.86099 0.60651 0.70299 0.0
H1271 H 0.91798 0.59396 0.7078 0.0
H1272 H 0.90196 0.62483 0.68782 0.0
S1273 S 0.80773 0.55427 0.74168 0.0
N1274 N 0.83465 0.54733 0.74446 0.0
N1275 N 0.81735 0.58107 0.72333 0.0
C1276 C 0.84367 0.58556 0.71859 0.0
C1277 C 0.85315 0.56739 0.73026 0.0
C1278 C 0.47787 0.99576 0.09721 0.0
C1279 C 0.49449 0.98759 0.11174 0.0
C1280 C 0.48783 0.00935 0.07632 0.0
C1281 C 0.51479 0.01544 0.06938 0.0
H1282 H 0.45679 0.99104 0.10176 0.0
H1283 H 0.4743 0.01502 0.06549 0.0
S1284 S 0.56716 0.99982 0.10193 0.0
N1285 N 0.53975 0.98782 0.11825 0.0
N1286 N 0.55832 0.01307 0.07911 0.0
C1287 C 0.53192 0.00812 0.08411 0.0
C1288 C 0.52176 0.99418 0.10521 0.0
C1289 C 0.02582 0.49452 0.1033 0.0
C1290 C 0.03608 0.52162 0.11861 0.0
C1291 C 0.01204 0.49113 0.08074 0.0
C1292 C 0.00786 0.5146 0.07272 0.0
H1293 H 0.02873 0.47593 0.10868 0.0
H1294 H 0.00442 0.46988 0.06958 0.0
S1295 S 0.02993 0.5897 0.10614 0.0
N1296 N 0.04026 0.57197 0.12428 0.0
N1297 N 0.01488 0.56575 0.08192 0.0
C1298 C 0.01777 0.54166 0.08791 0.0
C1299 C 0.0318 0.54515 0.1108 0.0
C1300 C 0.49097 0.51813 0.10622 0.0
C1301 C 0.5011 0.50754 0.12466 0.0
C1302 C 0.499 0.5174 0.08331 0.0
C1303 C 0.51734 0.50596 0.07793 0.0
H1304 H 0.47749 0.52804 0.10967 0.0
H1305 H 0.49174 0.52705 0.06999 0.0
S1306 S 0.54831 0.47358 0.11914 0.0
N1307 N 0.52926 0.48362 0.13548 0.0
N1308 N 0.54474 0.48294 0.09242 0.0
C1309 C 0.52736 0.49496 0.09598 0.0
C1310 C 0.51906 0.49547 0.11931 0.0
C1311 C 0.99057 0.51454 0.91379 0.0
C1312 C 0.97814 0.4866 0.89918 0.0
C1313 C 1.00264 0.51715 0.9369 0.0
C1314 C 1.00263 0.49192 0.94616 0.0
H1315 H 0.99157 0.53469 0.90712 0.0
H1316 H 0.01261 0.53922 0.94739 0.0
S1317 S 0.96936 0.41275 0.91627 0.0
N1318 N 0.96421 0.43256 0.89648 0.0
N1319 N 0.98704 0.43754 0.9397 0.0
C1320 C 0.98946 0.46366 0.93202 0.0
C1321 C 0.97714 0.46097 0.90859 0.0
C1322 C 0.53235 0.50014 0.92119 0.0
C1323 C 0.5197 0.50747 0.90237 0.0
C1324 C 0.52484 0.50144 0.94414 0.0
C1325 C 0.50426 0.51 0.94924 0.0
H1326 H 0.5476 0.49245 0.91801 0.0
H1327 H 0.53444 0.4944 0.95779 0.0
S1328 S 0.4662 0.53329 0.90638 0.0
N1329 N 0.48673 0.52512 0.89037 0.0
N1330 N 0.47255 0.52761 0.93375 0.0
C1331 C 0.49236 0.5187 0.93078 0.0
C1332 C 0.50013 0.51748 0.90729 0.0
C1333 C 0.48646 0.00635 0.90956 0.0
C1334 C 0.51118 0.00754 0.90117 0.0
C1335 C 0.47686 0.9948 0.93107 0.0
C1336 C 0.49172 0.98421 0.94516 0.0
H1337 H 0.47461 0.01482 0.89957 0.0
H1338 H 0.45803 0.99489 0.93696 0.0
S1339 S 0.55612 0.97985 0.93045 0.0
N1340 N 0.54941 0.99553 0.90816 0.0
N1341 N 0.53122 0.97376 0.94863 0.0
C1342 C 0.51617 0.98479 0.93691 0.0
C1343 C 0.52598 0.99654 0.91494 0.0
C1344 C 0.1771 0.31607 0.43611 0.0
C1345 C 0.15022 0.31108 0.4425 0.0
C1346 C 0.18921 0.33174 0.41661 0.0
C1347 C 0.17488 0.34294 0.4026 0.0
H1348 H 0.1891 0.30799 0.44639 0.0
H1349 H 0.20974 0.33455 0.41224 0.0
S1350 S 0.10434 0.33668 0.41177 0.0
N1351 N 0.10967 0.31887 0.43316 0.0
N1352 N 0.13285 0.34892 0.39665 0.0
C1353 C 0.14823 0.33861 0.40886 0.0
C1354 C 0.1358 0.32256 0.42877 0.0
C1355 C 0.66349 0.83195 0.44806 0.0
C1356 C 0.69262 0.8421 0.45519 0.0
C1357 C 0.65427 0.83097 0.42428 0.0
C1358 C 0.67374 0.83948 0.40684 0.0
H1359 H 0.64797 0.82578 0.46104 0.0
H1360 H 0.63181 0.82376 0.41956 0.0
S1361 S 0.75229 0.86757 0.41664 0.0
N1362 N 0.74068 0.86023 0.44299 0.0
N1363 N 0.72355 0.85888 0.39869 0.0
C1364 C 0.70276 0.84908 0.4138 0.0
C1365 C 0.71214 0.85024 0.43789 0.0
C1366 C 0.15642 0.82985 0.44044 0.0
C1367 C 0.16938 0.85793 0.45483 0.0
C1368 C 0.1667 0.82754 0.41871 0.0
C1369 C 0.19003 0.85328 0.41063 0.0
H1370 H 0.13876 0.80939 0.44629 0.0
H1371 H 0.15672 0.80534 0.40841 0.0
S1372 S 0.22933 0.93267 0.44068 0.0
N1373 N 0.20532 0.91238 0.45878 0.0
N1374 N 0.22465 0.90806 0.41806 0.0
C1375 C 0.20267 0.88161 0.42462 0.0
C1376 C 0.19225 0.88396 0.44666 0.0
C1377 C 0.65087 0.84729 0.24868 0.0
C1378 C 0.63901 0.81942 0.23406 0.0
C1379 C 0.6656 0.85109 0.27088 0.0
C1380 C 0.66899 0.8272 0.27904 0.0
H1381 H 0.64963 0.86658 0.24259 0.0
H1382 H 0.67509 0.87311 0.2814 0.0
S1383 S 0.63755 0.74818 0.24926 0.0
N1384 N 0.62836 0.76642 0.23069 0.0
N1385 N 0.65649 0.77373 0.272 0.0
C1386 C 0.65594 0.7988 0.26511 0.0
C1387 C 0.64078 0.79485 0.24273 0.0
C1388 C 0.16381 0.84177 0.24147 0.0
C1389 C 0.18353 0.83255 0.23511 0.0
C1390 C 0.15712 0.84219 0.265 0.0
C1391 C 0.17028 0.8339 0.28286 0.0
H1392 H 0.15271 0.84751 0.22807 0.0
H1393 H 0.14126 0.84863 0.26919 0.0
S1394 S 0.22352 0.80819 0.27479 0.0
N1395 N 0.21649 0.8156 0.24829 0.0
N1396 N 0.20372 0.81586 0.29204 0.0
C1397 C 0.19042 0.82526 0.27658 0.0
C1398 C 0.19715 0.82479 0.2528 0.0
C1399 C 0.15586 0.30319 0.23351 0.0
C1400 C 0.1781 0.33163 0.2277 0.0
C1401 C 0.14904 0.29863 0.25696 0.0
C1402 C 0.16439 0.32218 0.27547 0.0
H1403 H 0.14341 0.28447 0.21981 0.0
H1404 H 0.13141 0.27658 0.26061 0.0
S1405 S 0.22212 0.40201 0.26899 0.0
N1406 N 0.21381 0.38434 0.24207 0.0
N1407 N 0.20131 0.37561 0.28576 0.0
C1408 C 0.18653 0.35067 0.26977 0.0
C1409 C 0.19332 0.35542 0.24598 0.0
C1410 C 0.8089 0.65777 0.76192 0.0
C1411 C 0.82368 0.647 0.776 0.0
C1412 C 0.82013 0.67219 0.7416 0.0
C1413 C 0.84656 0.67648 0.73468 0.0
H1414 H 0.78829 0.6546 0.76643 0.0
H1415 H 0.80802 0.67999 0.7312 0.0
S1416 S 0.89442 0.65385 0.7661 0.0
N1417 N 0.8668 0.64289 0.78209 0.0
N1418 N 0.88767 0.66965 0.74395 0.0
C1419 C 0.86188 0.66651 0.74892 0.0
C1420 C 0.85043 0.65173 0.76949 0.0
C1421 C 0.36634 0.16449 0.76816 0.0
C1422 C 0.37791 0.19165 0.78364 0.0
C1423 C 0.35246 0.16193 0.74587 0.0
C1424 C 0.34938 0.1863 0.73844 0.0
H1425 H 0.36791 0.14502 0.77337 0.0
H1426 H 0.34357 0.14053 0.73459 0.0
S1427 S 0.37722 0.26287 0.77157 0.0
N1428 N 0.38611 0.24375 0.78946 0.0
N1429 N 0.36037 0.23898 0.74757 0.0
C1430 C 0.36145 0.2138 0.75343 0.0
C1431 C 0.37568 0.21648 0.77601 0.0
C1432 C 0.81058 0.16329 0.76683 0.0
C1433 C 0.82592 0.19086 0.78179 0.0
C1434 C 0.8197 0.16036 0.74471 0.0
C1435 C 0.84436 0.18492 0.73692 0.0
H1436 H 0.79197 0.14361 0.77255 0.0
H1437 H 0.80777 0.13853 0.73388 0.0
S1438 S 0.88935 0.26321 0.76801 0.0
N1439 N 0.86508 0.24405 0.7863 0.0
N1440 N 0.88224 0.23848 0.74478 0.0
C1441 C 0.85912 0.21295 0.75128 0.0
C1442 C 0.84985 0.21595 0.77371 0.0
C1443 C 0.35754 0.18662 0.56999 0.0
C1444 C 0.3285 0.17686 0.5626 0.0
C1445 C 0.36625 0.18606 0.59358 0.0
C1446 C 0.34632 0.17599 0.61063 0.0
H1447 H 0.37359 0.19455 0.55742 0.0
H1448 H 0.38873 0.19351 0.59849 0.0
S1449 S 0.26731 0.14468 0.59981 0.0
N1450 N 0.27958 0.1547 0.57399 0.0
N1451 N 0.29597 0.15375 0.61798 0.0
C1452 C 0.31727 0.16591 0.60339 0.0
C1453 C 0.30836 0.16636 0.57947 0.0
C1454 C 0.82748 0.18616 0.56843 0.0
C1455 C 0.84359 0.17243 0.56142 0.0
C1456 C 0.82092 0.18705 0.59202 0.0
C1457 C 0.83049 0.17448 0.60932 0.0
H1458 H 0.81907 0.19525 0.55546 0.0
H1459 H 0.80788 0.19711 0.59664 0.0
S1460 S 0.87461 0.13726 0.59976 0.0
N1461 N 0.87015 0.14756 0.5737 0.0
N1462 N 0.85754 0.14845 0.61744 0.0
C1463 C 0.84736 0.16156 0.60244 0.0
C1464 C 0.854 0.16076 0.57866 0.0
C1465 C 0.82416 0.67787 0.57678 0.0
C1466 C 0.84527 0.67324 0.56676 0.0
C1467 C 0.81397 0.66658 0.59821 0.0
C1468 C 0.82484 0.65064 0.61056 0.0
H1469 H 0.8157 0.69067 0.5681 0.0
H1470 H 0.79797 0.67101 0.60542 0.0
S1471 S 0.87731 0.6289 0.59052 0.0
N1472 N 0.87459 0.64903 0.56973 0.0
N1473 N 0.85599 0.62858 0.61049 0.0
C1474 C 0.84546 0.64528 0.60059 0.0
C1475 C 0.8556 0.65644 0.57858 0.0
loop_
_geom_bond_atom_site_label_1
_geom_bond_atom_site_label_2
_geom_bond_distance
_geom_bond_site_symmetry_2
_ccdc_geom_bond_type
C0 C1 1.386 . S
C0 C2 1.397 . S
C0 H24 0.931 . S
C1 C0 1.386 . S
C1 C5 1.397 . S
C2 C0 1.397 . S
C2 C3 1.384 . S
C2 H25 0.930 . S
C3 C2 1.384 . S
C3 C4 1.377 . S
C3 C6 1.481 . S
C4 C3 1.377 . S
C4 C5 1.389 . S
C4 H26 0.929 . S
C5 C1 1.397 . S
C5 C4 1.389 . S
C5 H27 0.931 . S
C6 C3 1.481 . S
C6 C7 1.387 . S
C6 C11 1.390 . S
C7 C6 1.387 . S
C7 C8 1.401 . S
C7 H28 0.930 . S
C8 C7 1.401 . S
C8 C9 1.376 . S
C8 C17 1.511 . S
C9 C8 1.376 . S
C9 C10 1.392 . S
C9 H30 0.931 . S
C10 C9 1.392 . S
C10 C11 1.361 . S
C10 C12 1.500 . S
C11 C6 1.390 . S
C11 C10 1.361 . S
C11 H29 0.931 . S
C12 C10 1.500 . S
C12 C13 1.371 . S
C12 C14 1.365 . S
C13 C12 1.371 . S
C13 C23 1.386 . S
C13 H31 0.931 . S
C14 C12 1.365 . S
C14 C15 1.409 . S
C14 H32 0.929 . S
C15 C14 1.409 . S
C15 C16 1.380 . S
C15 H33 0.930 . S
C16 C15 1.380 . S
C16 C23 1.357 . S
C17 C8 1.511 . S
C17 C18 1.341 . S
C17 C19 1.371 . S
C18 C17 1.341 . S
C18 C22 1.394 . S
C18 H34 0.930 . S
C19 C17 1.371 . S
C19 C20 1.392 . S
C19 H35 0.931 . S
C20 C19 1.392 . S
C20 C21 1.331 . S
C20 H38 0.932 . S
C21 C20 1.331 . S
C21 C22 1.336 . S
C22 C18 1.394 . S
C22 C21 1.336 . S
C22 H37 0.929 . S
C23 C13 1.386 . S
C23 C16 1.357 . S
C23 H36 0.928 . S
H24 C0 0.931 . S
H25 C2 0.930 . S
H26 C4 0.929 . S
H27 C5 0.931 . S
H28 C7 0.930 . S
H29 C11 0.931 . S
H30 C9 0.931 . S
H31 C13 0.931 . S
H32 C14 0.929 . S
H33 C15 0.930 . S
H34 C18 0.930 . S
H35 C19 0.931 . S
H36 C23 0.928 . S
H37 C22 0.929 . S
H38 C20 0.932 . S
C39 C40 1.386 . S
C39 C41 1.397 . S
C39 H63 0.931 . S
C40 C39 1.386 . S
C40 C44 1.397 . S
C41 C39 1.397 . S
C41 C42 1.384 . S
C41 H64 0.930 . S
C42 C41 1.384 . S
C42 C43 1.377 . S
C42 C45 1.481 . S
C43 C42 1.377 . S
C43 C44 1.389 . S
C43 H65 0.929 . S
C44 C40 1.397 . S
C44 C43 1.389 . S
C44 H66 0.931 . S
C45 C42 1.481 . S
C45 C46 1.387 . S
C45 C50 1.390 . S
C46 C45 1.387 . S
C46 C47 1.401 . S
C46 H67 0.930 . S
C47 C46 1.401 . S
C47 C48 1.376 . S
C47 C56 1.511 . S
C48 C47 1.376 . S
C48 C49 1.392 . S
C48 H69 0.931 . S
C49 C48 1.392 . S
C49 C50 1.361 . S
C49 C51 1.500 . S
C50 C45 1.390 . S
C50 C49 1.361 . S
C50 H68 0.931 . S
C51 C49 1.500 . S
C51 C52 1.371 . S
C51 C53 1.365 . S
C52 C51 1.371 . S
C52 C62 1.386 . S
C52 H70 0.931 . S
C53 C51 1.365 . S
C53 C54 1.409 . S
C53 H71 0.929 . S
C54 C53 1.409 . S
C54 C55 1.380 . S
C54 H72 0.930 . S
C55 C54 1.380 . S
C55 C62 1.357 . S
C56 C47 1.511 . S
C56 C57 1.341 . S
C56 C58 1.371 . S
C57 C56 1.341 . S
C57 C61 1.394 . S
C57 H73 0.930 . S
C58 C56 1.371 . S
C58 C59 1.392 . S
C58 H74 0.931 . S
C59 C58 1.392 . S
C59 C60 1.331 . S
C59 H77 0.932 . S
C60 C59 1.331 . S
C60 C61 1.336 . S
C61 C57 1.394 . S
C61 C60 1.336 . S
C61 H76 0.929 . S
C62 C52 1.386 . S
C62 C55 1.357 . S
C62 H75 0.928 . S
H63 C39 0.931 . S
H64 C41 0.930 . S
H65 C43 0.929 . S
H66 C44 0.931 . S
H67 C46 0.930 . S
H68 C50 0.931 . S
H69 C48 0.931 . S
H70 C52 0.931 . S
H71 C53 0.929 . S
H72 C54 0.930 . S
H73 C57 0.930 . S
H74 C58 0.931 . S
H75 C62 0.928 . S
H76 C61 0.929 . S
H77 C59 0.932 . S
C78 C79 1.386 . S
C78 C80 1.397 . S
C78 H102 0.931 . S
C79 C78 1.386 . S
C79 C83 1.397 . S
C80 C78 1.397 . S
C80 C81 1.384 . S
C80 H103 0.930 . S
C81 C80 1.384 . S
C81 C82 1.377 . S
C81 C84 1.481 . S
C82 C81 1.377 . S
C82 C83 1.389 . S
C82 H104 0.929 . S
C83 C79 1.397 . S
C83 C82 1.389 . S
C83 H105 0.931 . S
C84 C81 1.481 . S
C84 C85 1.387 . S
C84 C89 1.390 . S
C85 C84 1.387 . S
C85 C86 1.401 . S
C85 H106 0.930 . S
C86 C85 1.401 . S
C86 C87 1.376 . S
C86 C95 1.511 . S
C87 C86 1.376 . S
C87 C88 1.392 . S
C87 H108 0.931 . S
C88 C87 1.392 . S
C88 C89 1.361 . S
C88 C90 1.500 . S
C89 C84 1.390 . S
C89 C88 1.361 . S
C89 H107 0.931 . S
C90 C88 1.500 . S
C90 C91 1.371 . S
C90 C92 1.365 . S
C91 C90 1.371 . S
C91 C101 1.386 . S
C91 H109 0.931 . S
C92 C90 1.365 . S
C92 C93 1.409 . S
C92 H110 0.929 . S
C93 C92 1.409 . S
C93 C94 1.380 . S
C93 H111 0.930 . S
C94 C93 1.380 . S
C94 C101 1.357 . S
C95 C86 1.511 . S
C95 C96 1.341 . S
C95 C97 1.371 . S
C96 C95 1.341 . S
C96 C100 1.394 . S
C96 H112 0.930 . S
C97 C95 1.371 . S
C97 C98 1.392 . S
C97 H113 0.931 . S
C98 C97 1.392 . S
C98 C99 1.331 . S
C98 H116 0.932 . S
C99 C98 1.331 . S
C99 C100 1.336 . S
C100 C96 1.394 . S
C100 C99 1.336 . S
C100 H115 0.929 . S
C101 C91 1.386 . S
C101 C94 1.357 . S
C101 H114 0.928 . S
H102 C78 0.931 . S
H103 C80 0.930 . S
H104 C82 0.929 . S
H105 C83 0.931 . S
H106 C85 0.930 . S
H107 C89 0.931 . S
H108 C87 0.931 . S
H109 C91 0.931 . S
H110 C92 0.929 . S
H111 C93 0.930 . S
H112 C96 0.930 . S
H113 C97 0.931 . S
H114 C101 0.928 . S
H115 C100 0.929 . S
H116 C98 0.932 . S
C117 C118 1.386 . S
C117 C119 1.397 . S
C117 H141 0.931 . S
C118 C117 1.386 . S
C118 C122 1.397 . S
C119 C117 1.397 . S
C119 C120 1.384 . S
C119 H142 0.930 . S
C120 C119 1.384 . S
C120 C121 1.377 . S
C120 C123 1.481 . S
C121 C120 1.377 . S
C121 C122 1.389 . S
C121 H143 0.929 . S
C122 C118 1.397 . S
C122 C121 1.389 . S
C122 H144 0.931 . S
C123 C120 1.481 . S
C123 C124 1.387 . S
C123 C128 1.390 . S
C124 C123 1.387 . S
C124 C125 1.401 . S
C124 H145 0.930 . S
C125 C124 1.401 . S
C125 C126 1.376 . S
C125 C134 1.511 . S
C126 C125 1.376 . S
C126 C127 1.392 . S
C126 H147 0.931 . S
C127 C126 1.392 . S
C127 C128 1.361 . S
C127 C129 1.500 . S
C128 C123 1.390 . S
C128 C127 1.361 . S
C128 H146 0.931 . S
C129 C127 1.500 . S
C129 C130 1.371 . S
C129 C131 1.365 . S
C130 C129 1.371 . S
C130 C140 1.386 . S
C130 H148 0.931 . S
C131 C129 1.365 . S
C131 C132 1.409 . S
C131 H149 0.929 . S
C132 C131 1.409 . S
C132 C133 1.380 . S
C132 H150 0.930 . S
C133 C132 1.380 . S
C133 C140 1.357 . S
C134 C125 1.511 . S
C134 C135 1.341 . S
C134 C136 1.371 . S
C135 C134 1.341 . S
C135 C139 1.394 . S
C135 H151 0.930 . S
C136 C134 1.371 . S
C136 C137 1.392 . S
C136 H152 0.931 . S
C137 C136 1.392 . S
C137 C138 1.331 . S
C137 H155 0.932 . S
C138 C137 1.331 . S
C138 C139 1.336 . S
C139 C135 1.394 . S
C139 C138 1.336 . S
C139 H154 0.929 . S
C140 C130 1.386 . S
C140 C133 1.357 . S
C140 H153 0.928 . S
H141 C117 0.931 . S
H142 C119 0.930 . S
H143 C121 0.929 . S
H144 C122 0.931 . S
H145 C124 0.930 . S
H146 C128 0.931 . S
H147 C126 0.931 . S
H148 C130 0.931 . S
H149 C131 0.929 . S
H150 C132 0.930 . S
H151 C135 0.930 . S
H152 C136 0.931 . S
H153 C140 0.928 . S
H154 C139 0.929 . S
H155 C137 0.932 . S
C156 C157 1.386 . S
C156 C158 1.397 . S
C156 H180 0.931 . S
C157 C156 1.386 . S
C157 C161 1.397 . S
C158 C156 1.397 . S
C158 C159 1.384 . S
C158 H181 0.930 . S
C159 C158 1.384 . S
C159 C160 1.377 . S
C159 C162 1.481 . S
C160 C159 1.377 . S
C160 C161 1.389 . S
C160 H182 0.929 . S
C161 C157 1.397 . S
C161 C160 1.389 . S
C161 H183 0.931 . S
C162 C159 1.481 . S
C162 C163 1.387 . S
C162 C167 1.390 . S
C163 C162 1.387 . S
C163 C164 1.401 . S
C163 H184 0.930 . S
C164 C163 1.401 . S
C164 C165 1.376 . S
C164 C173 1.511 . S
C165 C164 1.376 . S
C165 C166 1.392 . S
C165 H186 0.931 . S
C166 C165 1.392 . S
C166 C167 1.361 . S
C166 C168 1.500 . S
C167 C162 1.390 . S
C167 C166 1.361 . S
C167 H185 0.931 . S
C168 C166 1.500 . S
C168 C169 1.371 . S
C168 C170 1.365 . S
C169 C168 1.371 . S
C169 C179 1.386 . S
C169 H187 0.931 . S
C170 C168 1.365 . S
C170 C171 1.409 . S
C170 H188 0.929 . S
C171 C170 1.409 . S
C171 C172 1.380 . S
C171 H189 0.930 . S
C172 C171 1.380 . S
C172 C179 1.357 . S
C173 C164 1.511 . S
C173 C174 1.341 . S
C173 C175 1.371 . S
C174 C173 1.341 . S
C174 C178 1.394 . S
C174 H190 0.930 . S
C175 C173 1.371 . S
C175 C176 1.392 . S
C175 H191 0.931 . S
C176 C175 1.392 . S
C176 C177 1.331 . S
C176 H194 0.932 . S
C177 C176 1.331 . S
C177 C178 1.336 . S
C178 C174 1.394 . S
C178 C177 1.336 . S
C178 H193 0.929 . S
C179 C169 1.386 . S
C179 C172 1.357 . S
C179 H192 0.928 . S
H180 C156 0.931 . S
H181 C158 0.930 . S
H182 C160 0.929 . S
H183 C161 0.931 . S
H184 C163 0.930 . S
H185 C167 0.931 . S
H186 C165 0.931 . S
H187 C169 0.931 . S
H188 C170 0.929 . S
H189 C171 0.930 . S
H190 C174 0.930 . S
H191 C175 0.931 . S
H192 C179 0.928 . S
H193 C178 0.929 . S
H194 C176 0.932 . S
C195 C196 1.386 . S
C195 C197 1.397 . S
C195 H219 0.931 . S
C196 C195 1.386 . S
C196 C200 1.397 . S
C197 C195 1.397 . S
C197 C198 1.384 . S
C197 H220 0.930 . S
C198 C197 1.384 . S
C198 C199 1.377 . S
C198 C201 1.481 . S
C199 C198 1.377 . S
C199 C200 1.389 . S
C199 H221 0.929 . S
C200 C196 1.397 . S
C200 C199 1.389 . S
C200 H222 0.931 . S
C201 C198 1.481 . S
C201 C202 1.387 . S
C201 C206 1.390 . S
C202 C201 1.387 . S
C202 C203 1.401 . S
C202 H223 0.930 . S
C203 C202 1.401 . S
C203 C204 1.376 . S
C203 C212 1.511 . S
C204 C203 1.376 . S
C204 C205 1.392 . S
C204 H225 0.931 . S
C205 C204 1.392 . S
C205 C206 1.361 . S
C205 C207 1.500 . S
C206 C201 1.390 . S
C206 C205 1.361 . S
C206 H224 0.931 . S
C207 C205 1.500 . S
C207 C208 1.371 . S
C207 C209 1.365 . S
C208 C207 1.371 . S
C208 C218 1.386 . S
C208 H226 0.931 . S
C209 C207 1.365 . S
C209 C210 1.409 . S
C209 H227 0.929 . S
C210 C209 1.409 . S
C210 C211 1.380 . S
C210 H228 0.930 . S
C211 C210 1.380 . S
C211 C218 1.357 . S
C212 C203 1.511 . S
C212 C213 1.341 . S
C212 C214 1.371 . S
C213 C212 1.341 . S
C213 C217 1.394 . S
C213 H229 0.930 . S
C214 C212 1.371 . S
C214 C215 1.392 . S
C214 H230 0.931 . S
C215 C214 1.392 . S
C215 C216 1.331 . S
C215 H233 0.932 . S
C216 C215 1.331 . S
C216 C217 1.336 . S
C217 C213 1.394 . S
C217 C216 1.336 . S
C217 H232 0.929 . S
C218 C208 1.386 . S
C218 C211 1.357 . S
C218 H231 0.928 . S
H219 C195 0.931 . S
H220 C197 0.930 . S
H221 C199 0.929 . S
H222 C200 0.931 . S
H223 C202 0.930 . S
H224 C206 0.931 . S
H225 C204 0.931 . S
H226 C208 0.931 . S
H227 C209 0.929 . S
H228 C210 0.930 . S
H229 C213 0.930 . S
H230 C214 0.931 . S
H231 C218 0.928 . S
H232 C217 0.929 . S
H233 C215 0.932 . S
C234 C235 1.386 . S
C234 C236 1.397 . S
C234 H258 0.931 . S
C235 C234 1.386 . S
C235 C239 1.397 . S
C236 C234 1.397 . S
C236 C237 1.384 . S
C236 H259 0.930 . S
C237 C236 1.384 . S
C237 C238 1.377 . S
C237 C240 1.481 . S
C238 C237 1.377 . S
C238 C239 1.389 . S
C238 H260 0.929 . S
C239 C235 1.397 . S
C239 C238 1.389 . S
C239 H261 0.931 1_655 S
C240 C237 1.481 . S
C240 C241 1.387 . S
C240 C245 1.390 . S
C241 C240 1.387 . S
C241 C242 1.401 . S
C241 H262 0.930 . S
C242 C241 1.401 . S
C242 C243 1.376 . S
C242 C251 1.511 . S
C243 C242 1.376 . S
C243 C244 1.392 . S
C243 H264 0.931 . S
C244 C243 1.392 . S
C244 C245 1.361 . S
C244 C246 1.500 . S
C245 C240 1.390 . S
C245 C244 1.361 . S
C245 H263 0.931 . S
C246 C244 1.500 . S
C246 C247 1.371 . S
C246 C248 1.365 . S
C247 C246 1.371 . S
C247 C257 1.386 . S
C247 H265 0.931 . S
C248 C246 1.365 . S
C248 C249 1.409 . S
C248 H266 0.929 . S
C249 C248 1.409 . S
C249 C250 1.380 . S
C249 H267 0.930 . S
C250 C249 1.380 . S
C250 C257 1.357 . S
C251 C242 1.511 . S
C251 C252 1.341 . S
C251 C253 1.371 . S
C252 C251 1.341 . S
C252 C256 1.394 . S
C252 H268 0.930 . S
C253 C251 1.371 . S
C253 C254 1.392 . S
C253 H269 0.931 . S
C254 C253 1.392 . S
C254 C255 1.331 . S
C254 H272 0.932 . S
C255 C254 1.331 . S
C255 C256 1.336 . S
C256 C252 1.394 . S
C256 C255 1.336 . S
C256 H271 0.929 . S
C257 C247 1.386 . S
C257 C250 1.357 . S
C257 H270 0.928 . S
H258 C234 0.931 . S
H259 C236 0.930 . S
H260 C238 0.929 . S
H261 C239 0.931 1_455 S
H262 C241 0.930 . S
H263 C245 0.931 . S
H264 C243 0.931 . S
H265 C247 0.931 . S
H266 C248 0.929 . S
H267 C249 0.930 . S
H268 C252 0.930 . S
H269 C253 0.931 . S
H270 C257 0.928 . S
H271 C256 0.929 . S
H272 C254 0.932 . S
C273 C274 1.386 . S
C273 C275 1.397 . S
C273 H297 0.931 . S
C274 C273 1.386 . S
C274 C278 1.397 . S
C275 C273 1.397 . S
C275 C276 1.384 . S
C275 H298 0.930 . S
C276 C275 1.384 . S
C276 C277 1.377 . S
C276 C279 1.481 . S
C277 C276 1.377 . S
C277 C278 1.389 . S
C277 H299 0.929 . S
C278 C274 1.397 . S
C278 C277 1.389 . S
C278 H300 0.931 . S
C279 C276 1.481 . S
C279 C280 1.387 . S
C279 C284 1.390 . S
C280 C279 1.387 . S
C280 C281 1.401 . S
C280 H301 0.930 . S
C281 C280 1.401 . S
C281 C282 1.376 . S
C281 C290 1.511 . S
C282 C281 1.376 . S
C282 C283 1.392 . S
C282 H303 0.931 . S
C283 C282 1.392 . S
C283 C284 1.361 . S
C283 C285 1.500 . S
C284 C279 1.390 . S
C284 C283 1.361 . S
C284 H302 0.931 . S
C285 C283 1.500 . S
C285 C286 1.371 . S
C285 C287 1.365 . S
C286 C285 1.371 . S
C286 C296 1.386 . S
C286 H304 0.931 . S
C287 C285 1.365 . S
C287 C288 1.409 . S
C287 H305 0.929 . S
C288 C287 1.409 . S
C288 C289 1.380 . S
C288 H306 0.930 . S
C289 C288 1.380 . S
C289 C296 1.357 . S
C290 C281 1.511 . S
C290 C291 1.341 . S
C290 C292 1.371 . S
C291 C290 1.341 . S
C291 C295 1.394 . S
C291 H307 0.930 . S
C292 C290 1.371 . S
C292 C293 1.392 . S
C292 H308 0.931 . S
C293 C292 1.392 . S
C293 C294 1.331 . S
C293 H311 0.932 . S
C294 C293 1.331 . S
C294 C295 1.336 . S
C295 C291 1.394 . S
C295 C294 1.336 . S
C295 H310 0.929 . S
C296 C286 1.386 . S
C296 C289 1.357 . S
C296 H309 0.928 . S
H297 C273 0.931 . S
H298 C275 0.930 . S
H299 C277 0.929 . S
H300 C278 0.931 . S
H301 C280 0.930 . S
H302 C284 0.931 . S
H303 C282 0.931 . S
H304 C286 0.931 . S
H305 C287 0.929 . S
H306 C288 0.930 . S
H307 C291 0.930 . S
H308 C292 0.931 . S
H309 C296 0.928 . S
H310 C295 0.929 . S
H311 C293 0.932 . S
C312 C313 1.386 . S
C312 C314 1.397 . S
C312 H336 0.931 . S
C313 C312 1.386 . S
C313 C317 1.397 . S
C314 C312 1.397 . S
C314 C315 1.384 . S
C314 H337 0.930 . S
C315 C314 1.384 . S
C315 C316 1.377 . S
C315 C318 1.481 . S
C316 C315 1.377 . S
C316 C317 1.389 . S
C316 H338 0.929 . S
C317 C313 1.397 . S
C317 C316 1.389 . S
C317 H339 0.931 . S
C318 C315 1.481 . S
C318 C319 1.387 . S
C318 C323 1.390 . S
C319 C318 1.387 . S
C319 C320 1.401 . S
C319 H340 0.930 . S
C320 C319 1.401 . S
C320 C321 1.376 . S
C320 C329 1.511 . S
C321 C320 1.376 . S
C321 C322 1.392 . S
C321 H342 0.931 . S
C322 C321 1.392 . S
C322 C323 1.361 . S
C322 C324 1.500 . S
C323 C318 1.390 . S
C323 C322 1.361 . S
C323 H341 0.931 . S
C324 C322 1.500 . S
C324 C325 1.371 . S
C324 C326 1.365 . S
C325 C324 1.371 . S
C325 C335 1.386 . S
C325 H343 0.931 . S
C326 C324 1.365 . S
C326 C327 1.409 . S
C326 H344 0.929 . S
C327 C326 1.409 . S
C327 C328 1.380 . S
C327 H345 0.930 . S
C328 C327 1.380 . S
C328 C335 1.357 . S
C329 C320 1.511 . S
C329 C330 1.341 . S
C329 C331 1.371 . S
C330 C329 1.341 . S
C330 C334 1.394 . S
C330 H346 0.930 . S
C331 C329 1.371 . S
C331 C332 1.392 . S
C331 H347 0.931 . S
C332 C331 1.392 . S
C332 C333 1.331 . S
C332 H350 0.932 . S
C333 C332 1.331 . S
C333 C334 1.336 . S
C334 C330 1.394 . S
C334 C333 1.336 . S
C334 H349 0.929 . S
C335 C325 1.386 . S
C335 C328 1.357 . S
C335 H348 0.928 . S
H336 C312 0.931 . S
H337 C314 0.930 . S
H338 C316 0.929 . S
H339 C317 0.931 . S
H340 C319 0.930 . S
H341 C323 0.931 . S
H342 C321 0.931 . S
H343 C325 0.931 . S
H344 C326 0.929 . S
H345 C327 0.930 . S
H346 C330 0.930 . S
H347 C331 0.931 . S
H348 C335 0.928 . S
H349 C334 0.929 . S
H350 C332 0.932 . S
C351 C352 1.386 . S
C351 C353 1.397 . S
C351 H375 0.931 . S
C352 C351 1.386 . S
C352 C356 1.397 . S
C353 C351 1.397 . S
C353 C354 1.384 . S
C353 H376 0.930 . S
C354 C353 1.384 . S
C354 C355 1.377 . S
C354 C357 1.481 . S
C355 C354 1.377 . S
C355 C356 1.389 . S
C355 H377 0.929 . S
C356 C352 1.397 . S
C356 C355 1.389 . S
C356 H378 0.931 . S
C357 C354 1.481 . S
C357 C358 1.387 . S
C357 C362 1.390 . S
C358 C357 1.387 . S
C358 C359 1.401 . S
C358 H379 0.930 . S
C359 C358 1.401 . S
C359 C360 1.376 . S
C359 C368 1.511 . S
C360 C359 1.376 . S
C360 C361 1.392 . S
C360 H381 0.931 . S
C361 C360 1.392 . S
C361 C362 1.361 . S
C361 C363 1.500 . S
C362 C357 1.390 . S
C362 C361 1.361 . S
C362 H380 0.931 . S
C363 C361 1.500 . S
C363 C364 1.371 . S
C363 C365 1.365 . S
C364 C363 1.371 . S
C364 C374 1.386 . S
C364 H382 0.931 . S
C365 C363 1.365 . S
C365 C366 1.409 . S
C365 H383 0.929 . S
C366 C365 1.409 . S
C366 C367 1.380 . S
C366 H384 0.930 . S
C367 C366 1.380 . S
C367 C374 1.357 . S
C368 C359 1.511 . S
C368 C369 1.341 . S
C368 C370 1.371 . S
C369 C368 1.341 . S
C369 C373 1.394 . S
C369 H385 0.930 . S
C370 C368 1.371 . S
C370 C371 1.392 . S
C370 H386 0.931 . S
C371 C370 1.392 . S
C371 C372 1.331 . S
C371 H389 0.932 . S
C372 C371 1.331 . S
C372 C373 1.336 . S
C373 C369 1.394 . S
C373 C372 1.336 . S
C373 H388 0.929 . S
C374 C364 1.386 . S
C374 C367 1.357 . S
C374 H387 0.928 . S
H375 C351 0.931 . S
H376 C353 0.930 . S
H377 C355 0.929 . S
H378 C356 0.931 . S
H379 C358 0.930 . S
H380 C362 0.931 . S
H381 C360 0.931 . S
H382 C364 0.931 . S
H383 C365 0.929 . S
H384 C366 0.930 . S
H385 C369 0.930 . S
H386 C370 0.931 . S
H387 C374 0.928 . S
H388 C373 0.929 . S
H389 C371 0.932 . S
C390 C391 1.386 . S
C390 C392 1.397 . S
C390 H414 0.931 . S
C391 C390 1.386 . S
C391 C395 1.397 . S
C392 C390 1.397 . S
C392 C393 1.384 . S
C392 H415 0.930 . S
C393 C392 1.384 . S
C393 C394 1.377 . S
C393 C396 1.481 . S
C394 C393 1.377 . S
C394 C395 1.389 . S
C394 H416 0.929 . S
C395 C391 1.397 . S
C395 C394 1.389 . S
C395 H417 0.931 . S
C396 C393 1.481 . S
C396 C397 1.387 . S
C396 C401 1.390 . S
C397 C396 1.387 . S
C397 C398 1.401 . S
C397 H418 0.930 . S
C398 C397 1.401 . S
C398 C399 1.376 . S
C398 C407 1.511 . S
C399 C398 1.376 . S
C399 C400 1.392 . S
C399 H420 0.931 . S
C400 C399 1.392 . S
C400 C401 1.361 . S
C400 C402 1.500 . S
C401 C396 1.390 . S
C401 C400 1.361 . S
C401 H419 0.931 . S
C402 C400 1.500 . S
C402 C403 1.371 . S
C402 C404 1.365 . S
C403 C402 1.371 . S
C403 C413 1.386 . S
C403 H421 0.931 . S
C404 C402 1.365 . S
C404 C405 1.409 . S
C404 H422 0.929 . S
C405 C404 1.409 . S
C405 C406 1.380 . S
C405 H423 0.930 . S
C406 C405 1.380 . S
C406 C413 1.357 . S
C407 C398 1.511 . S
C407 C408 1.341 . S
C407 C409 1.371 . S
C408 C407 1.341 . S
C408 C412 1.394 . S
C408 H424 0.930 . S
C409 C407 1.371 . S
C409 C410 1.392 . S
C409 H425 0.931 . S
C410 C409 1.392 . S
C410 C411 1.331 . S
C410 H428 0.932 . S
C411 C410 1.331 . S
C411 C412 1.336 . S
C412 C408 1.394 . S
C412 C411 1.336 . S
C412 H427 0.929 . S
C413 C403 1.386 . S
C413 C406 1.357 . S
C413 H426 0.928 . S
H414 C390 0.931 . S
H415 C392 0.930 . S
H416 C394 0.929 . S
H417 C395 0.931 . S
H418 C397 0.930 . S
H419 C401 0.931 . S
H420 C399 0.931 . S
H421 C403 0.931 . S
H422 C404 0.929 . S
H423 C405 0.930 . S
H424 C408 0.930 . S
H425 C409 0.931 . S
H426 C413 0.928 . S
H427 C412 0.929 . S
H428 C410 0.932 . S
C429 C430 1.386 . S
C429 C431 1.397 . S
C429 H453 0.931 . S
C430 C429 1.386 . S
C430 C434 1.397 . S
C431 C429 1.397 . S
C431 C432 1.384 . S
C431 H454 0.930 . S
C432 C431 1.384 . S
C432 C433 1.377 . S
C432 C435 1.481 . S
C433 C432 1.377 . S
C433 C434 1.389 . S
C433 H455 0.929 . S
C434 C430 1.397 . S
C434 C433 1.389 . S
C434 H456 0.931 . S
C435 C432 1.481 . S
C435 C436 1.387 . S
C435 C440 1.390 . S
C436 C435 1.387 . S
C436 C437 1.401 . S
C436 H457 0.930 . S
C437 C436 1.401 . S
C437 C438 1.376 . S
C437 C446 1.511 . S
C438 C437 1.376 . S
C438 C439 1.392 . S
C438 H459 0.931 . S
C439 C438 1.392 . S
C439 C440 1.361 . S
C439 C441 1.500 . S
C440 C435 1.390 . S
C440 C439 1.361 . S
C440 H458 0.931 . S
C441 C439 1.500 . S
C441 C442 1.371 . S
C441 C443 1.365 . S
C442 C441 1.371 . S
C442 C452 1.386 . S
C442 H460 0.931 . S
C443 C441 1.365 . S
C443 C444 1.409 . S
C443 H461 0.929 . S
C444 C443 1.409 . S
C444 C445 1.380 . S
C444 H462 0.930 . S
C445 C444 1.380 . S
C445 C452 1.357 . S
C446 C437 1.511 . S
C446 C447 1.341 . S
C446 C448 1.371 . S
C447 C446 1.341 . S
C447 C451 1.394 . S
C447 H463 0.930 . S
C448 C446 1.371 . S
C448 C449 1.392 . S
C448 H464 0.931 . S
C449 C448 1.392 . S
C449 C450 1.331 . S
C449 H467 0.932 . S
C450 C449 1.331 . S
C450 C451 1.336 . S
C451 C447 1.394 . S
C451 C450 1.336 . S
C451 H466 0.929 . S
C452 C442 1.386 . S
C452 C445 1.357 . S
C452 H465 0.928 . S
H453 C429 0.931 . S
H454 C431 0.930 . S
H455 C433 0.929 . S
H456 C434 0.931 . S
H457 C436 0.930 . S
H458 C440 0.931 . S
H459 C438 0.931 . S
H460 C442 0.931 . S
H461 C443 0.929 . S
H462 C444 0.930 . S
H463 C447 0.930 . S
H464 C448 0.931 . S
H465 C452 0.928 . S
H466 C451 0.929 . S
H467 C449 0.932 . S
C468 C469 1.386 . S
C468 C470 1.397 . S
C468 H492 0.931 . S
C469 C468 1.386 . S
C469 C473 1.397 . S
C470 C468 1.397 . S
C470 C471 1.384 . S
C470 H493 0.930 . S
C471 C470 1.384 . S
C471 C472 1.377 . S
C471 C474 1.481 . S
C472 C471 1.377 . S
C472 C473 1.389 . S
C472 H494 0.929 . S
C473 C469 1.397 . S
C473 C472 1.389 . S
C473 H495 0.931 . S
C474 C471 1.481 . S
C474 C475 1.387 . S
C474 C479 1.390 . S
C475 C474 1.387 . S
C475 C476 1.401 . S
C475 H496 0.930 . S
C476 C475 1.401 . S
C476 C477 1.376 . S
C476 C485 1.511 . S
C477 C476 1.376 . S
C477 C478 1.392 . S
C477 H498 0.931 . S
C478 C477 1.392 . S
C478 C479 1.361 . S
C478 C480 1.500 . S
C479 C474 1.390 . S
C479 C478 1.361 . S
C479 H497 0.931 . S
C480 C478 1.500 . S
C480 C481 1.371 . S
C480 C482 1.365 . S
C481 C480 1.371 . S
C481 C491 1.386 . S
C481 H499 0.931 . S
C482 C480 1.365 . S
C482 C483 1.409 . S
C482 H500 0.929 . S
C483 C482 1.409 . S
C483 C484 1.380 . S
C483 H501 0.930 . S
C484 C483 1.380 . S
C484 C491 1.357 . S
C485 C476 1.511 . S
C485 C486 1.341 . S
C485 C487 1.371 . S
C486 C485 1.341 . S
C486 C490 1.394 . S
C486 H502 0.930 . S
C487 C485 1.371 . S
C487 C488 1.392 . S
C487 H503 0.931 . S
C488 C487 1.392 . S
C488 C489 1.331 . S
C488 H506 0.932 . S
C489 C488 1.331 . S
C489 C490 1.336 . S
C490 C486 1.394 . S
C490 C489 1.336 . S
C490 H505 0.929 . S
C491 C481 1.386 . S
C491 C484 1.357 . S
C491 H504 0.928 . S
H492 C468 0.931 . S
H493 C470 0.930 . S
H494 C472 0.929 . S
H495 C473 0.931 . S
H496 C475 0.930 . S
H497 C479 0.931 . S
H498 C477 0.931 . S
H499 C481 0.931 . S
H500 C482 0.929 . S
H501 C483 0.930 . S
H502 C486 0.930 . S
H503 C487 0.931 . S
H504 C491 0.928 . S
H505 C490 0.929 . S
H506 C488 0.932 . S
C507 C508 1.386 . S
C507 C509 1.397 . S
C507 H531 0.931 . S
C508 C507 1.386 . S
C508 C512 1.397 . S
C509 C507 1.397 . S
C509 C510 1.384 . S
C509 H532 0.930 . S
C510 C509 1.384 . S
C510 C511 1.377 . S
C510 C513 1.481 . S
C511 C510 1.377 . S
C511 C512 1.389 . S
C511 H533 0.929 . S
C512 C508 1.397 . S
C512 C511 1.389 . S
C512 H534 0.931 . S
C513 C510 1.481 . S
C513 C514 1.387 . S
C513 C518 1.390 . S
C514 C513 1.387 . S
C514 C515 1.401 . S
C514 H535 0.930 . S
C515 C514 1.401 . S
C515 C516 1.376 . S
C515 C524 1.511 . S
C516 C515 1.376 . S
C516 C517 1.392 . S
C516 H537 0.931 . S
C517 C516 1.392 . S
C517 C518 1.361 . S
C517 C519 1.500 . S
C518 C513 1.390 . S
C518 C517 1.361 . S
C518 H536 0.931 . S
C519 C517 1.500 . S
C519 C520 1.371 . S
C519 C521 1.365 . S
C520 C519 1.371 . S
C520 C530 1.386 . S
C520 H538 0.931 . S
C521 C519 1.365 . S
C521 C522 1.409 . S
C521 H539 0.929 . S
C522 C521 1.409 . S
C522 C523 1.380 . S
C522 H540 0.930 . S
C523 C522 1.380 . S
C523 C530 1.357 . S
C524 C515 1.511 . S
C524 C525 1.341 . S
C524 C526 1.371 . S
C525 C524 1.341 . S
C525 C529 1.394 . S
C525 H541 0.930 . S
C526 C524 1.371 . S
C526 C527 1.392 . S
C526 H542 0.931 . S
C527 C526 1.392 . S
C527 C528 1.331 . S
C527 H545 0.932 . S
C528 C527 1.331 . S
C528 C529 1.336 . S
C529 C525 1.394 . S
C529 C528 1.336 . S
C529 H544 0.929 . S
C530 C520 1.386 . S
C530 C523 1.357 . S
C530 H543 0.928 . S
H531 C507 0.931 . S
H532 C509 0.930 . S
H533 C511 0.929 . S
H534 C512 0.931 . S
H535 C514 0.930 . S
H536 C518 0.931 . S
H537 C516 0.931 . S
H538 C520 0.931 . S
H539 C521 0.929 . S
H540 C522 0.930 . S
H541 C525 0.930 . S
H542 C526 0.931 . S
H543 C530 0.928 . S
H544 C529 0.929 . S
H545 C527 0.932 . S
C546 C547 1.386 . S
C546 C548 1.397 . S
C546 H570 0.931 . S
C547 C546 1.386 . S
C547 C551 1.397 . S
C548 C546 1.397 . S
C548 C549 1.384 . S
C548 H571 0.930 . S
C549 C548 1.384 . S
C549 C550 1.377 . S
C549 C552 1.481 . S
C550 C549 1.377 . S
C550 C551 1.389 . S
C550 H572 0.929 . S
C551 C547 1.397 . S
C551 C550 1.389 . S
C551 H573 0.931 . S
C552 C549 1.481 . S
C552 C553 1.387 . S
C552 C557 1.390 . S
C553 C552 1.387 . S
C553 C554 1.401 . S
C553 H574 0.930 . S
C554 C553 1.401 . S
C554 C555 1.376 . S
C554 C563 1.511 . S
C555 C554 1.376 . S
C555 C556 1.392 . S
C555 H576 0.931 . S
C556 C555 1.392 . S
C556 C557 1.361 . S
C556 C558 1.500 . S
C557 C552 1.390 . S
C557 C556 1.361 . S
C557 H575 0.931 . S
C558 C556 1.500 . S
C558 C559 1.371 . S
C558 C560 1.365 . S
C559 C558 1.371 . S
C559 C569 1.386 . S
C559 H577 0.931 . S
C560 C558 1.365 . S
C560 C561 1.409 . S
C560 H578 0.929 . S
C561 C560 1.409 . S
C561 C562 1.380 . S
C561 H579 0.930 . S
C562 C561 1.380 . S
C562 C569 1.357 . S
C563 C554 1.511 . S
C563 C564 1.341 . S
C563 C565 1.371 . S
C564 C563 1.341 . S
C564 C568 1.394 . S
C564 H580 0.930 . S
C565 C563 1.371 . S
C565 C566 1.392 . S
C565 H581 0.931 . S
C566 C565 1.392 . S
C566 C567 1.331 . S
C566 H584 0.932 . S
C567 C566 1.331 . S
C567 C568 1.336 . S
C568 C564 1.394 . S
C568 C567 1.336 . S
C568 H583 0.929 . S
C569 C559 1.386 . S
C569 C562 1.357 . S
C569 H582 0.928 . S
H570 C546 0.931 . S
H571 C548 0.930 . S
H572 C550 0.929 . S
H573 C551 0.931 . S
H574 C553 0.930 . S
H575 C557 0.931 . S
H576 C555 0.931 . S
H577 C559 0.931 . S
H578 C560 0.929 . S
H579 C561 0.930 . S
H580 C564 0.930 . S
H581 C565 0.931 . S
H582 C569 0.928 . S
H583 C568 0.929 . S
H584 C566 0.932 . S
C585 C586 1.386 . S
C585 C587 1.397 . S
C585 H609 0.931 . S
C586 C585 1.386 . S
C586 C590 1.397 . S
C587 C585 1.397 . S
C587 C588 1.384 . S
C587 H610 0.930 . S
C588 C587 1.384 . S
C588 C589 1.377 . S
C588 C591 1.481 . S
C589 C588 1.377 . S
C589 C590 1.389 . S
C589 H611 0.929 . S
C590 C586 1.397 . S
C590 C589 1.389 . S
C590 H612 0.910 1_565 S
C591 C588 1.481 . S
C591 C592 1.387 . S
C591 C596 1.390 . S
C592 C591 1.387 . S
C592 C593 1.401 . S
C592 H613 0.930 . S
C593 C592 1.401 . S
C593 C594 1.376 . S
C593 C602 1.511 . S
C594 C593 1.376 . S
C594 C595 1.392 . S
C594 H615 0.931 . S
C595 C594 1.392 . S
C595 C596 1.361 . S
C595 C597 1.500 . S
C596 C591 1.390 . S
C596 C595 1.361 . S
C596 H614 0.931 . S
C597 C595 1.500 . S
C597 C598 1.371 . S
C597 C599 1.365 . S
C598 C597 1.371 . S
C598 C608 1.386 . S
C598 H616 0.931 . S
C599 C597 1.365 . S
C599 C600 1.409 . S
C599 H617 0.929 . S
C600 C599 1.409 . S
C600 C601 1.380 . S
C600 H618 0.930 . S
C601 C600 1.380 . S
C601 C608 1.357 . S
C602 C593 1.511 . S
C602 C603 1.341 . S
C602 C604 1.371 . S
C603 C602 1.341 . S
C603 C607 1.394 . S
C603 H619 0.930 . S
C604 C602 1.371 . S
C604 C605 1.392 . S
C604 H620 0.931 . S
C605 C604 1.392 . S
C605 C606 1.331 . S
C605 H623 0.932 . S
C606 C605 1.331 . S
C606 C607 1.336 . S
C607 C603 1.394 . S
C607 C606 1.336 . S
C607 H622 0.929 . S
C608 C598 1.386 . S
C608 C601 1.357 . S
C608 H621 0.928 . S
H609 C585 0.931 . S
H610 C587 0.930 . S
H611 C589 0.929 . S
H612 C590 0.910 1_545 S
H613 C592 0.930 . S
H614 C596 0.931 . S
H615 C594 0.931 . S
H616 C598 0.931 . S
H617 C599 0.929 . S
H618 C600 0.930 . S
H619 C603 0.930 . S
H620 C604 0.931 . S
H621 C608 0.928 . S
H622 C607 0.929 . S
H623 C605 0.932 . S
C624 C625 1.386 . S
C624 C626 1.397 . S
C624 H648 0.918 1_455 S
C625 C624 1.386 . S
C625 C629 1.397 . S
C626 C624 1.397 . S
C626 C627 1.384 . S
C626 H649 0.930 . S
C627 C626 1.384 . S
C627 C628 1.377 . S
C627 C630 1.481 . S
C628 C627 1.377 . S
C628 C629 1.389 . S
C628 H650 0.929 . S
C629 C625 1.397 . S
C629 C628 1.389 . S
C629 H651 0.931 . S
C630 C627 1.481 . S
C630 C631 1.387 . S
C630 C635 1.390 . S
C631 C630 1.387 . S
C631 C632 1.401 . S
C631 H652 0.930 . S
C632 C631 1.401 . S
C632 C633 1.376 . S
C632 C641 1.511 . S
C633 C632 1.376 . S
C633 C634 1.392 . S
C633 H654 0.931 . S
C634 C633 1.392 . S
C634 C635 1.361 . S
C634 C636 1.500 . S
C635 C630 1.390 . S
C635 C634 1.361 . S
C635 H653 0.931 . S
C636 C634 1.500 . S
C636 C637 1.371 . S
C636 C638 1.365 . S
C637 C636 1.371 . S
C637 C647 1.386 . S
C637 H655 0.931 . S
C638 C636 1.365 . S
C638 C639 1.409 . S
C638 H656 0.929 . S
C639 C638 1.409 . S
C639 C640 1.380 . S
C639 H657 0.930 . S
C640 C639 1.380 . S
C640 C647 1.357 . S
C641 C632 1.511 . S
C641 C642 1.341 . S
C641 C643 1.371 . S
C642 C641 1.341 . S
C642 C646 1.394 . S
C642 H658 0.930 . S
C643 C641 1.371 . S
C643 C644 1.392 . S
C643 H659 0.931 . S
C644 C643 1.392 . S
C644 C645 1.331 . S
C644 H662 0.932 . S
C645 C644 1.331 . S
C645 C646 1.336 . S
C646 C642 1.394 . S
C646 C645 1.336 . S
C646 H661 0.929 . S
C647 C637 1.386 . S
C647 C640 1.357 . S
C647 H660 0.928 . S
H648 C624 0.918 1_655 S
H649 C626 0.930 . S
H650 C628 0.929 . S
H651 C629 0.931 . S
H652 C631 0.930 . S
H653 C635 0.931 . S
H654 C633 0.931 . S
H655 C637 0.931 . S
H656 C638 0.929 . S
H657 C639 0.930 . S
H658 C642 0.930 . S
H659 C643 0.931 . S
H660 C647 0.928 . S
H661 C646 0.929 . S
H662 C644 0.932 . S
C663 C664 1.386 . S
C663 C665 1.397 . S
C663 H687 0.931 . S
C664 C663 1.386 . S
C664 C668 1.397 . S
C665 C663 1.397 . S
C665 C666 1.384 . S
C665 H688 0.930 . S
C666 C665 1.384 . S
C666 C667 1.377 . S
C666 C669 1.481 . S
C667 C666 1.377 . S
C667 C668 1.389 . S
C667 H689 0.929 . S
C668 C664 1.397 . S
C668 C667 1.389 . S
C668 H690 0.931 . S
C669 C666 1.481 . S
C669 C670 1.387 . S
C669 C674 1.390 . S
C670 C669 1.387 . S
C670 C671 1.401 . S
C670 H691 0.930 . S
C671 C670 1.401 . S
C671 C672 1.376 . S
C671 C680 1.511 . S
C672 C671 1.376 . S
C672 C673 1.392 . S
C672 H693 0.931 . S
C673 C672 1.392 . S
C673 C674 1.361 . S
C673 C675 1.500 . S
C674 C669 1.390 . S
C674 C673 1.361 . S
C674 H692 0.931 . S
C675 C673 1.500 . S
C675 C676 1.371 . S
C675 C677 1.365 . S
C676 C675 1.371 . S
C676 C686 1.386 . S
C676 H694 0.931 . S
C677 C675 1.365 . S
C677 C678 1.409 . S
C677 H695 0.929 . S
C678 C677 1.409 . S
C678 C679 1.380 . S
C678 H696 0.930 . S
C679 C678 1.380 . S
C679 C686 1.357 . S
C680 C671 1.511 . S
C680 C681 1.341 . S
C680 C682 1.371 . S
C681 C680 1.341 . S
C681 C685 1.394 . S
C681 H697 0.930 . S
C682 C680 1.371 . S
C682 C683 1.392 . S
C682 H698 0.931 . S
C683 C682 1.392 . S
C683 C684 1.331 . S
C683 H701 0.932 . S
C684 C683 1.331 . S
C684 C685 1.336 . S
C685 C681 1.394 . S
C685 C684 1.336 . S
C685 H700 0.929 . S
C686 C676 1.386 . S
C686 C679 1.357 . S
C686 H699 0.928 . S
H687 C663 0.931 . S
H688 C665 0.930 . S
H689 C667 0.929 . S
H690 C668 0.931 . S
H691 C670 0.930 . S
H692 C674 0.931 . S
H693 C672 0.931 . S
H694 C676 0.931 . S
H695 C677 0.929 . S
H696 C678 0.930 . S
H697 C681 0.930 . S
H698 C682 0.931 . S
H699 C686 0.928 . S
H700 C685 0.929 . S
H701 C683 0.932 . S
Tb702 O705 2.453 . S
Tb702 O706 2.596 1_545 S
Tb702 O707 2.374 1_545 S
Tb702 O715 2.343 1_554 S
Tb702 O717 2.353 . S
Tb702 O719 2.427 1_554 S
Tb702 O720 2.513 1_554 S
C703 O707 1.251 . S
C703 O709 1.261 1_554 S
Tb704 O706 2.343 1_556 S
Tb704 O709 2.354 . S
Tb704 O712 2.427 1_556 S
Tb704 O713 2.513 1_556 S
Tb704 O714 2.453 . S
Tb704 O715 2.596 1_565 S
Tb704 O716 2.374 1_565 S
O705 Tb702 2.453 . S
O705 C721 1.245 . S
O706 Tb702 2.596 1_565 S
O706 Tb704 2.343 1_554 S
O706 C721 1.259 1_565 S
O707 Tb702 2.374 1_565 S
O707 C703 1.251 . S
C708 O712 1.275 . S
C708 O713 1.246 . S
O709 C703 1.261 1_556 S
O709 Tb704 2.354 . S
C710 O714 1.245 . S
C710 O715 1.259 1_565 S
C711 O716 1.250 . S
C711 O717 1.263 1_556 S
O712 Tb704 2.427 1_554 S
O712 C708 1.275 . S
O713 Tb704 2.513 1_554 S
O713 C708 1.246 . S
O714 Tb704 2.453 . S
O714 C710 1.245 . S
O715 Tb702 2.343 1_556 S
O715 Tb704 2.596 1_545 S
O715 C710 1.259 1_545 S
O716 Tb704 2.374 1_545 S
O716 C711 1.250 . S
O717 Tb702 2.353 . S
O717 C711 1.263 1_554 S
C718 O719 1.275 . S
C718 O720 1.246 . S
O719 Tb702 2.427 1_556 S
O719 C718 1.275 . S
O720 Tb702 2.513 1_556 S
O720 C718 1.246 . S
C721 O705 1.245 . S
C721 O706 1.259 1_545 S
Tb722 O725 2.453 . S
Tb722 O726 2.596 1_655 S
Tb722 O727 2.374 1_655 S
Tb722 O735 2.343 1_554 S
Tb722 O737 2.353 . S
Tb722 O739 2.427 1_554 S
Tb722 O740 2.513 1_554 S
C723 O727 1.251 . S
C723 O729 1.263 . S
Tb724 O726 2.343 1_556 S
Tb724 O729 2.353 1_556 S
Tb724 O732 2.427 1_556 S
Tb724 O733 2.513 1_556 S
Tb724 O734 2.453 . S
Tb724 O735 2.596 1_455 S
Tb724 O736 2.374 1_455 S
O725 Tb722 2.453 . S
O725 C741 1.245 1_655 S
O726 Tb722 2.596 1_455 S
O726 Tb724 2.343 1_554 S
O726 C741 1.259 . S
O727 Tb722 2.374 1_455 S
O727 C723 1.251 . S
C728 O732 1.275 . S
C728 O733 1.246 . S
O729 C723 1.263 . S
O729 Tb724 2.353 1_554 S
C730 O734 1.237 1_655 S
C730 O735 1.262 . S
C731 O736 1.250 . S
C731 O737 1.263 1_556 S
O732 Tb724 2.427 1_554 S
O732 C728 1.275 . S
O733 Tb724 2.513 1_554 S
O733 C728 1.246 . S
O734 Tb724 2.453 . S
O734 C730 1.237 1_455 S
O735 Tb722 2.343 1_556 S
O735 Tb724 2.596 1_655 S
O735 C730 1.262 . S
O736 Tb724 2.374 1_655 S
O736 C731 1.250 . S
O737 Tb722 2.353 . S
O737 C731 1.263 1_554 S
C738 O739 1.275 . S
C738 O740 1.246 . S
O739 Tb722 2.427 1_556 S
O739 C738 1.275 . S
O740 Tb722 2.513 1_556 S
O740 C738 1.246 . S
C741 O725 1.245 1_455 S
C741 O726 1.259 . S
Tb742 O745 2.453 . S
Tb742 O746 2.596 . S
Tb742 O747 2.374 . S
Tb742 O755 2.343 1_556 S
Tb742 O757 2.353 1_556 S
Tb742 O759 2.427 1_556 S
Tb742 O760 2.513 1_556 S
C743 O747 1.251 . S
C743 O749 1.263 1_556 S
Tb744 O746 2.343 1_554 S
Tb744 O749 2.353 . S
Tb744 O752 2.427 1_554 S
Tb744 O753 2.513 1_554 S
Tb744 O754 2.453 . S
Tb744 O755 2.596 . S
Tb744 O756 2.374 . S
O745 Tb742 2.453 . S
O745 C761 1.245 . S
O746 Tb742 2.596 . S
O746 Tb744 2.343 1_556 S
O746 C761 1.259 . S
O747 Tb742 2.374 . S
O747 C743 1.251 . S
C748 O752 1.275 . S
C748 O753 1.246 . S
O749 C743 1.263 1_554 S
O749 Tb744 2.353 . S
C750 O754 1.245 . S
C750 O755 1.259 . S
C751 O756 1.250 . S
C751 O757 1.263 . S
O752 Tb744 2.427 1_556 S
O752 C748 1.275 . S
O753 Tb744 2.513 1_556 S
O753 C748 1.246 . S
O754 Tb744 2.453 . S
O754 C750 1.245 . S
O755 Tb742 2.343 1_554 S
O755 Tb744 2.596 . S
O755 C750 1.259 . S
O756 Tb744 2.374 . S
O756 C751 1.250 . S
O757 Tb742 2.353 1_554 S
O757 C751 1.263 . S
C758 O759 1.275 . S
C758 O760 1.246 . S
O759 Tb742 2.427 1_554 S
O759 C758 1.275 . S
O760 Tb742 2.513 1_554 S
O760 C758 1.246 . S
C761 O745 1.245 . S
C761 O746 1.259 . S
Tb762 O765 2.453 . S
Tb762 O766 2.596 . S
Tb762 O767 2.374 . S
Tb762 O775 2.343 . S
Tb762 O777 2.353 . S
Tb762 O779 2.427 . S
Tb762 O780 2.513 . S
C763 O767 1.251 . S
C763 O769 1.263 . S
Tb764 O766 2.343 . S
Tb764 O769 2.353 . S
Tb764 O772 2.427 . S
Tb764 O773 2.513 . S
Tb764 O774 2.453 . S
Tb764 O775 2.596 . S
Tb764 O776 2.374 . S
O765 Tb762 2.453 . S
O765 C781 1.245 . S
O766 Tb762 2.596 . S
O766 Tb764 2.343 . S
O766 C781 1.259 . S
O767 Tb762 2.374 . S
O767 C763 1.251 . S
C768 O772 1.275 . S
C768 O773 1.246 . S
O769 C763 1.263 . S
O769 Tb764 2.353 . S
C770 O774 1.245 . S
C770 O775 1.259 . S
C771 O776 1.250 . S
C771 O777 1.263 . S
O772 Tb764 2.427 . S
O772 C768 1.275 . S
O773 Tb764 2.513 . S
O773 C768 1.246 . S
O774 Tb764 2.453 . S
O774 C770 1.245 . S
O775 Tb762 2.343 . S
O775 Tb764 2.596 . S
O775 C770 1.259 . S
O776 Tb764 2.374 . S
O776 C771 1.250 . S
O777 Tb762 2.353 . S
O777 C771 1.263 . S
C778 O779 1.275 . S
C778 O780 1.246 . S
O779 Tb762 2.427 . S
O779 C778 1.275 . S
O780 Tb762 2.513 . S
O780 C778 1.246 . S
C781 O765 1.245 . S
C781 O766 1.259 . S
Tb782 O785 2.453 . S
Tb782 O786 2.596 . S
Tb782 O787 2.374 . S
Tb782 O795 2.343 . S
Tb782 O797 2.353 . S
Tb782 O799 2.427 . S
Tb782 O800 2.513 . S
C783 O787 1.251 . S
C783 O789 1.263 . S
Tb784 O786 2.343 . S
Tb784 O789 2.353 . S
Tb784 O792 2.427 . S
Tb784 O793 2.513 . S
Tb784 O794 2.453 . S
Tb784 O795 2.596 . S
Tb784 O796 2.374 . S
O785 Tb782 2.453 . S
O785 C801 1.245 . S
O786 Tb782 2.596 . S
O786 Tb784 2.343 . S
O786 C801 1.259 . S
O787 Tb782 2.374 . S
O787 C783 1.251 . S
C788 O792 1.275 . S
C788 O793 1.246 . S
O789 C783 1.263 . S
O789 Tb784 2.353 . S
C790 O794 1.245 . S
C790 O795 1.259 . S
C791 O796 1.250 . S
C791 O797 1.263 . S
O792 Tb784 2.427 . S
O792 C788 1.275 . S
O793 Tb784 2.513 . S
O793 C788 1.246 . S
O794 Tb784 2.453 . S
O794 C790 1.245 . S
O795 Tb782 2.343 . S
O795 Tb784 2.596 . S
O795 C790 1.259 . S
O796 Tb784 2.374 . S
O796 C791 1.250 . S
O797 Tb782 2.353 . S
O797 C791 1.263 . S
C798 O799 1.275 . S
C798 O800 1.246 . S
O799 Tb782 2.427 . S
O799 C798 1.275 . S
O800 Tb782 2.513 . S
O800 C798 1.246 . S
C801 O785 1.245 . S
C801 O786 1.259 . S
Tb802 O805 2.453 . S
Tb802 O806 2.596 . S
Tb802 O807 2.374 . S
Tb802 O815 2.343 . S
Tb802 O817 2.353 . S
Tb802 O819 2.427 . S
Tb802 O820 2.513 . S
C803 O807 1.251 . S
C803 O809 1.263 . S
Tb804 O806 2.343 . S
Tb804 O809 2.353 . S
Tb804 O812 2.427 . S
Tb804 O813 2.513 . S
Tb804 O814 2.453 . S
Tb804 O815 2.596 . S
Tb804 O816 2.374 . S
O805 Tb802 2.453 . S
O805 C821 1.245 . S
O806 Tb802 2.596 . S
O806 Tb804 2.343 . S
O806 C821 1.259 . S
O807 Tb802 2.374 . S
O807 C803 1.251 . S
C808 O812 1.275 . S
C808 O813 1.246 . S
O809 C803 1.263 . S
O809 Tb804 2.353 . S
C810 O814 1.245 . S
C810 O815 1.259 . S
C811 O816 1.250 . S
C811 O817 1.263 . S
O812 Tb804 2.427 . S
O812 C808 1.275 . S
O813 Tb804 2.513 . S
O813 C808 1.246 . S
O814 Tb804 2.453 . S
O814 C810 1.245 . S
O815 Tb802 2.343 . S
O815 Tb804 2.596 . S
O815 C810 1.259 . S
O816 Tb804 2.374 . S
O816 C811 1.250 . S
O817 Tb802 2.353 . S
O817 C811 1.263 . S
C818 O819 1.275 . S
C818 O820 1.246 . S
O819 Tb802 2.427 . S
O819 C818 1.275 . S
O820 Tb802 2.513 . S
O820 C818 1.246 . S
C821 O805 1.245 . S
C821 O806 1.259 . S
Tb822 O825 2.453 . S
Tb822 O826 2.596 . S
Tb822 O827 2.374 . S
Tb822 O835 2.343 . S
Tb822 O837 2.353 . S
Tb822 O839 2.427 . S
Tb822 O840 2.513 . S
C823 O827 1.251 . S
C823 O829 1.263 . S
Tb824 O826 2.343 . S
Tb824 O829 2.353 . S
Tb824 O832 2.427 . S
Tb824 O833 2.513 . S
Tb824 O834 2.453 . S
Tb824 O835 2.596 . S
Tb824 O836 2.374 . S
O825 Tb822 2.453 . S
O825 C841 1.245 . S
O826 Tb822 2.596 . S
O826 Tb824 2.343 . S
O826 C841 1.259 . S
O827 Tb822 2.374 . S
O827 C823 1.251 . S
C828 O832 1.275 . S
C828 O833 1.246 . S
O829 C823 1.263 . S
O829 Tb824 2.353 . S
C830 O834 1.245 . S
C830 O835 1.259 . S
C831 O836 1.250 . S
C831 O837 1.263 . S
O832 Tb824 2.427 . S
O832 C828 1.275 . S
O833 Tb824 2.513 . S
O833 C828 1.246 . S
O834 Tb824 2.453 . S
O834 C830 1.245 . S
O835 Tb822 2.343 . S
O835 Tb824 2.596 . S
O835 C830 1.259 . S
O836 Tb824 2.374 . S
O836 C831 1.250 . S
O837 Tb822 2.353 . S
O837 C831 1.263 . S
C838 O839 1.275 . S
C838 O840 1.246 . S
O839 Tb822 2.427 . S
O839 C838 1.275 . S
O840 Tb822 2.513 . S
O840 C838 1.246 . S
C841 O825 1.245 . S
C841 O826 1.259 . S
Tb842 O845 2.453 . S
Tb842 O846 2.596 . S
Tb842 O847 2.374 . S
Tb842 O855 2.343 . S
Tb842 O857 2.353 . S
Tb842 O859 2.427 . S
Tb842 O860 2.513 . S
C843 O847 1.251 . S
C843 O849 1.263 . S
Tb844 O846 2.343 . S
Tb844 O849 2.353 . S
Tb844 O852 2.427 . S
Tb844 O853 2.513 . S
Tb844 O854 2.453 . S
Tb844 O855 2.596 . S
Tb844 O856 2.374 . S
O845 Tb842 2.453 . S
O845 C861 1.245 . S
O846 Tb842 2.596 . S
O846 Tb844 2.343 . S
O846 C861 1.259 . S
O847 Tb842 2.374 . S
O847 C843 1.251 . S
C848 O852 1.275 . S
C848 O853 1.246 . S
O849 C843 1.263 . S
O849 Tb844 2.353 . S
C850 O854 1.245 . S
C850 O855 1.259 . S
C851 O856 1.250 . S
C851 O857 1.263 . S
O852 Tb844 2.427 . S
O852 C848 1.275 . S
O853 Tb844 2.513 . S
O853 C848 1.246 . S
O854 Tb844 2.453 . S
O854 C850 1.245 . S
O855 Tb842 2.343 . S
O855 Tb844 2.596 . S
O855 C850 1.259 . S
O856 Tb844 2.374 . S
O856 C851 1.250 . S
O857 Tb842 2.353 . S
O857 C851 1.263 . S
C858 O859 1.275 . S
C858 O860 1.246 . S
O859 Tb842 2.427 . S
O859 C858 1.275 . S
O860 Tb842 2.513 . S
O860 C858 1.246 . S
C861 O845 1.245 . S
C861 O846 1.259 . S
Tb862 O865 2.453 . S
Tb862 O866 2.596 . S
Tb862 O867 2.374 . S
Tb862 O875 2.343 . S
Tb862 O877 2.353 . S
Tb862 O879 2.427 . S
Tb862 O880 2.513 . S
C863 O867 1.251 . S
C863 O869 1.263 . S
Tb864 O866 2.343 . S
Tb864 O869 2.353 . S
Tb864 O872 2.427 . S
Tb864 O873 2.513 . S
Tb864 O874 2.453 . S
Tb864 O875 2.596 . S
Tb864 O876 2.374 . S
O865 Tb862 2.453 . S
O865 C881 1.245 . S
O866 Tb862 2.596 . S
O866 Tb864 2.343 . S
O866 C881 1.259 . S
O867 Tb862 2.374 . S
O867 C863 1.251 . S
C868 O872 1.275 . S
C868 O873 1.246 . S
O869 C863 1.263 . S
O869 Tb864 2.353 . S
C870 O874 1.245 . S
C870 O875 1.259 . S
C871 O876 1.250 . S
C871 O877 1.263 . S
O872 Tb864 2.427 . S
O872 C868 1.275 . S
O873 Tb864 2.513 . S
O873 C868 1.246 . S
O874 Tb864 2.453 . S
O874 C870 1.245 . S
O875 Tb862 2.343 . S
O875 Tb864 2.596 . S
O875 C870 1.259 . S
O876 Tb864 2.374 . S
O876 C871 1.250 . S
O877 Tb862 2.353 . S
O877 C871 1.263 . S
C878 O879 1.275 . S
C878 O880 1.246 . S
O879 Tb862 2.427 . S
O879 C878 1.275 . S
O880 Tb862 2.513 . S
O880 C878 1.246 . S
C881 O865 1.245 . S
C881 O866 1.259 . S
C882 C883 1.369 . S
C882 C884 1.419 . S
C882 H886 0.930 . S
C883 C882 1.369 . S
C883 C892 1.429 . S
C884 C882 1.419 . S
C884 C885 1.363 . S
C884 H887 0.929 . S
C885 C884 1.363 . S
C885 C891 1.428 . S
H886 C882 0.930 . S
H887 C884 0.929 . S
S888 N889 1.613 . S
S888 N890 1.610 . S
N889 S888 1.613 . S
N889 C892 1.350 . S
N890 S888 1.610 . S
N890 C891 1.351 . S
C891 C885 1.428 . S
C891 N890 1.351 . S
C891 C892 1.434 . S
C892 C883 1.429 . S
C892 N889 1.350 . S
C892 C891 1.434 . S
C893 C894 1.369 . S
C893 C895 1.419 . S
C893 H897 0.930 . S
C894 C893 1.369 . S
C894 C903 1.429 . S
C895 C893 1.419 . S
C895 C896 1.363 . S
C895 H898 0.929 . S
C896 C895 1.363 . S
C896 C902 1.428 . S
H897 C893 0.930 . S
H898 C895 0.929 . S
S899 N900 1.613 . S
S899 N901 1.610 . S
N900 S899 1.613 . S
N900 C903 1.350 . S
N901 S899 1.610 . S
N901 C902 1.351 . S
C902 C896 1.428 . S
C902 N901 1.351 . S
C902 C903 1.434 . S
C903 C894 1.429 . S
C903 N900 1.350 . S
C903 C902 1.434 . S
C904 C905 1.369 . S
C904 C906 1.419 . S
C904 H908 0.930 . S
C905 C904 1.369 . S
C905 C914 1.429 . S
C906 C904 1.419 . S
C906 C907 1.363 . S
C906 H909 0.929 . S
C907 C906 1.363 . S
C907 C913 1.428 . S
H908 C904 0.930 . S
H909 C906 0.929 . S
S910 N911 1.613 . S
S910 N912 1.610 . S
N911 S910 1.613 . S
N911 C914 1.350 . S
N912 S910 1.610 . S
N912 C913 1.351 . S
C913 C907 1.428 . S
C913 N912 1.351 . S
C913 C914 1.434 . S
C914 C905 1.429 . S
C914 N911 1.350 . S
C914 C913 1.434 . S
C915 C916 1.369 . S
C915 C917 1.419 . S
C915 H919 0.930 . S
C916 C915 1.369 . S
C916 C925 1.429 . S
C917 C915 1.419 . S
C917 C918 1.363 . S
C917 H920 0.929 . S
C918 C917 1.363 . S
C918 C924 1.428 . S
H919 C915 0.930 . S
H920 C917 0.929 . S
S921 N922 1.593 1_554 S
S921 N923 1.610 . S
N922 S921 1.593 1_556 S
N922 C925 1.372 . S
N923 S921 1.610 . S
N923 C924 1.351 1_554 S
C924 C918 1.428 . S
C924 N923 1.351 1_556 S
C924 C925 1.434 . S
C925 C916 1.429 . S
C925 N922 1.372 . S
C925 C924 1.434 . S
C926 C927 1.369 . S
C926 C928 1.419 . S
C926 H930 0.930 . S
C927 C926 1.369 . S
C927 C936 1.429 . S
C928 C926 1.419 . S
C928 C929 1.363 . S
C928 H931 0.929 . S
C929 C928 1.363 . S
C929 C935 1.428 . S
H930 C926 0.930 . S
H931 C928 0.929 . S
S932 N933 1.613 . S
S932 N934 1.610 . S
N933 S932 1.613 . S
N933 C936 1.350 . S
N934 S932 1.610 . S
N934 C935 1.351 . S
C935 C929 1.428 . S
C935 N934 1.351 . S
C935 C936 1.434 . S
C936 C927 1.429 . S
C936 N933 1.350 . S
C936 C935 1.434 . S
C937 C938 1.369 . S
C937 C939 1.419 . S
C937 H941 0.930 . S
C938 C937 1.369 . S
C938 C947 1.429 . S
C939 C937 1.419 . S
C939 C940 1.363 . S
C939 H942 0.929 1_556 S
C940 C939 1.363 . S
C940 C946 1.428 . S
H941 C937 0.930 . S
H942 C939 0.929 1_554 S
S943 N944 1.613 . S
S943 N945 1.610 . S
N944 S943 1.613 . S
N944 C947 1.350 . S
N945 S943 1.610 . S
N945 C946 1.351 . S
C946 C940 1.428 . S
C946 N945 1.351 . S
C946 C947 1.434 . S
C947 C938 1.429 . S
C947 N944 1.350 . S
C947 C946 1.434 . S
C948 C949 1.369 . S
C948 C950 1.419 . S
C948 H952 0.930 . S
C949 C948 1.369 . S
C949 C958 1.429 . S
C950 C948 1.419 . S
C950 C951 1.363 . S
C950 H953 0.929 . S
C951 C950 1.363 . S
C951 C957 1.428 . S
H952 C948 0.930 . S
H953 C950 0.929 . S
S954 N955 1.613 1_554 S
S954 N956 1.610 . S
N955 S954 1.613 1_556 S
N955 C958 1.350 . S
N956 S954 1.610 . S
N956 C957 1.351 1_554 S
C957 C951 1.428 . S
C957 N956 1.351 1_556 S
C957 C958 1.434 . S
C958 C949 1.429 . S
C958 N955 1.350 . S
C958 C957 1.434 . S
C959 C960 1.369 . S
C959 C961 1.419 . S
C959 H963 0.930 . S
C960 C959 1.369 . S
C960 C969 1.429 . S
C961 C959 1.419 . S
C961 C962 1.363 . S
C961 H964 0.929 . S
C962 C961 1.363 . S
C962 C968 1.428 . S
H963 C959 0.930 . S
H964 C961 0.929 . S
S965 N966 1.613 . S
S965 N967 1.610 . S
N966 S965 1.613 . S
N966 C969 1.350 . S
N967 S965 1.610 . S
N967 C968 1.351 . S
C968 C962 1.428 . S
C968 N967 1.351 . S
C968 C969 1.434 . S
C969 C960 1.429 . S
C969 N966 1.350 . S
C969 C968 1.434 . S
C970 C971 1.369 . S
C970 C972 1.419 . S
C970 H974 0.930 . S
C971 C970 1.369 . S
C971 C980 1.429 . S
C972 C970 1.419 . S
C972 C973 1.363 . S
C972 H975 0.929 . S
C973 C972 1.363 . S
C973 C979 1.428 . S
H974 C970 0.930 . S
H975 C972 0.929 . S
S976 N977 1.613 . S
S976 N978 1.610 . S
N977 S976 1.613 . S
N977 C980 1.350 1_554 S
N978 S976 1.610 . S
N978 C979 1.351 1_554 S
C979 C973 1.428 . S
C979 N978 1.351 1_556 S
C979 C980 1.434 . S
C980 C971 1.429 . S
C980 N977 1.350 1_556 S
C980 C979 1.434 . S
C981 C982 1.369 . S
C981 C983 1.419 . S
C981 H985 0.930 . S
C982 C981 1.369 . S
C982 C991 1.429 . S
C983 C981 1.419 . S
C983 C984 1.363 . S
C983 H986 0.929 . S
C984 C983 1.363 . S
C984 C990 1.428 . S
H985 C981 0.930 . S
H986 C983 0.929 . S
S987 N988 1.613 . S
S987 N989 1.610 . S
N988 S987 1.613 . S
N988 C991 1.350 . S
N989 S987 1.610 . S
N989 C990 1.351 . S
C990 C984 1.428 . S
C990 N989 1.351 . S
C990 C991 1.434 . S
C991 C982 1.429 . S
C991 N988 1.350 . S
C991 C990 1.434 . S
C992 C993 1.369 . S
C992 C994 1.419 . S
C992 H996 0.930 . S
C993 C992 1.369 . S
C993 C1002 1.429 . S
C994 C992 1.419 . S
C994 C995 1.363 . S
C994 H997 0.929 . S
C995 C994 1.363 . S
C995 C1001 1.428 . S
H996 C992 0.930 . S
H997 C994 0.929 . S
S998 N999 1.613 . S
S998 N1000 1.610 . S
N999 S998 1.613 . S
N999 C1002 1.350 . S
N1000 S998 1.610 . S
N1000 C1001 1.351 . S
C1001 C995 1.428 . S
C1001 N1000 1.351 . S
C1001 C1002 1.434 . S
C1002 C993 1.429 . S
C1002 N999 1.350 . S
C1002 C1001 1.434 . S
C1003 C1004 1.369 . S
C1003 C1005 1.419 . S
C1003 H1007 0.930 . S
C1004 C1003 1.369 . S
C1004 C1013 1.429 . S
C1005 C1003 1.419 . S
C1005 C1006 1.363 . S
C1005 H1008 0.929 . S
C1006 C1005 1.363 . S
C1006 C1012 1.428 . S
H1007 C1003 0.930 . S
H1008 C1005 0.929 . S
S1009 N1010 1.613 . S
S1009 N1011 1.610 . S
N1010 S1009 1.613 . S
N1010 C1013 1.350 . S
N1011 S1009 1.610 . S
N1011 C1012 1.351 . S
C1012 C1006 1.428 . S
C1012 N1011 1.351 . S
C1012 C1013 1.434 . S
C1013 C1004 1.429 . S
C1013 N1010 1.350 . S
C1013 C1012 1.434 . S
C1014 C1015 1.369 . S
C1014 C1016 1.419 . S
C1014 H1018 0.930 . S
C1015 C1014 1.369 . S
C1015 C1024 1.429 . S
C1016 C1014 1.419 . S
C1016 C1017 1.363 . S
C1016 H1019 0.929 . S
C1017 C1016 1.363 . S
C1017 C1023 1.428 . S
H1018 C1014 0.930 . S
H1019 C1016 0.929 . S
S1020 N1021 1.638 . S
S1020 N1022 1.610 . S
N1021 S1020 1.638 . S
N1021 C1024 1.349 . S
N1022 S1020 1.610 . S
N1022 C1023 1.351 . S
C1023 C1017 1.428 . S
C1023 N1022 1.351 . S
C1023 C1024 1.434 . S
C1024 C1015 1.429 . S
C1024 N1021 1.349 . S
C1024 C1023 1.434 . S
C1025 C1026 1.369 . S
C1025 C1027 1.419 . S
C1025 H1029 0.930 . S
C1026 C1025 1.369 . S
C1026 C1035 1.429 . S
C1027 C1025 1.419 . S
C1027 C1028 1.363 . S
C1027 H1030 0.929 . S
C1028 C1027 1.363 . S
C1028 C1034 1.428 . S
H1029 C1025 0.930 . S
H1030 C1027 0.929 . S
S1031 N1032 1.613 . S
S1031 N1033 1.610 . S
N1032 S1031 1.613 . S
N1032 C1035 1.350 . S
N1033 S1031 1.610 . S
N1033 C1034 1.351 . S
C1034 C1028 1.428 . S
C1034 N1033 1.351 . S
C1034 C1035 1.434 . S
C1035 C1026 1.429 . S
C1035 N1032 1.350 . S
C1035 C1034 1.434 . S
C1036 C1037 1.369 . S
C1036 C1038 1.419 . S
C1036 H1040 0.930 . S
C1037 C1036 1.369 . S
C1037 C1046 1.429 . S
C1038 C1036 1.419 . S
C1038 C1039 1.363 . S
C1038 H1041 0.929 . S
C1039 C1038 1.363 . S
C1039 C1045 1.428 . S
H1040 C1036 0.930 . S
H1041 C1038 0.929 . S
S1042 N1043 1.613 . S
S1042 N1044 1.610 . S
N1043 S1042 1.613 . S
N1043 C1046 1.350 . S
N1044 S1042 1.610 . S
N1044 C1045 1.351 . S
C1045 C1039 1.428 . S
C1045 N1044 1.351 . S
C1045 C1046 1.434 . S
C1046 C1037 1.429 . S
C1046 N1043 1.350 . S
C1046 C1045 1.434 . S
C1047 C1048 1.369 . S
C1047 C1049 1.419 . S
C1047 H1051 0.930 . S
C1048 C1047 1.369 . S
C1048 C1057 1.429 . S
C1049 C1047 1.419 . S
C1049 C1050 1.363 . S
C1049 H1052 0.929 . S
C1050 C1049 1.363 . S
C1050 C1056 1.428 . S
H1051 C1047 0.930 . S
H1052 C1049 0.929 . S
S1053 N1054 1.613 . S
S1053 N1055 1.610 . S
N1054 S1053 1.613 . S
N1054 C1057 1.350 . S
N1055 S1053 1.610 . S
N1055 C1056 1.351 . S
C1056 C1050 1.428 . S
C1056 N1055 1.351 . S
C1056 C1057 1.434 . S
C1057 C1048 1.429 . S
C1057 N1054 1.350 . S
C1057 C1056 1.434 . S
C1058 C1059 1.369 . S
C1058 C1060 1.419 . S
C1058 H1062 0.930 . S
C1059 C1058 1.369 . S
C1059 C1068 1.429 . S
C1060 C1058 1.419 . S
C1060 C1061 1.363 . S
C1060 H1063 0.929 . S
C1061 C1060 1.363 . S
C1061 C1067 1.428 . S
H1062 C1058 0.930 . S
H1063 C1060 0.929 . S
S1064 N1065 1.613 . S
S1064 N1066 1.610 . S
N1065 S1064 1.613 . S
N1065 C1068 1.350 . S
N1066 S1064 1.610 . S
N1066 C1067 1.351 . S
C1067 C1061 1.428 . S
C1067 N1066 1.351 . S
C1067 C1068 1.434 . S
C1068 C1059 1.429 . S
C1068 N1065 1.350 . S
C1068 C1067 1.434 . S
C1069 C1070 1.369 . S
C1069 C1071 1.419 . S
C1069 H1073 0.930 . S
C1070 C1069 1.369 . S
C1070 C1079 1.429 . S
C1071 C1069 1.419 . S
C1071 C1072 1.363 . S
C1071 H1074 0.929 . S
C1072 C1071 1.363 . S
C1072 C1078 1.428 . S
H1073 C1069 0.930 . S
H1074 C1071 0.929 . S
S1075 N1076 1.613 . S
S1075 N1077 1.610 . S
N1076 S1075 1.613 . S
N1076 C1079 1.350 . S
N1077 S1075 1.610 . S
N1077 C1078 1.351 . S
C1078 C1072 1.428 . S
C1078 N1077 1.351 . S
C1078 C1079 1.434 . S
C1079 C1070 1.429 . S
C1079 N1076 1.350 . S
C1079 C1078 1.434 . S
C1080 C1081 1.369 . S
C1080 C1082 1.419 . S
C1080 H1084 0.930 . S
C1081 C1080 1.369 . S
C1081 C1090 1.429 . S
C1082 C1080 1.419 . S
C1082 C1083 1.363 . S
C1082 H1085 0.929 . S
C1083 C1082 1.363 . S
C1083 C1089 1.428 . S
H1084 C1080 0.930 . S
H1085 C1082 0.929 . S
S1086 N1087 1.613 . S
S1086 N1088 1.610 . S
N1087 S1086 1.613 . S
N1087 C1090 1.350 . S
N1088 S1086 1.610 . S
N1088 C1089 1.351 . S
C1089 C1083 1.428 . S
C1089 N1088 1.351 . S
C1089 C1090 1.434 . S
C1090 C1081 1.429 . S
C1090 N1087 1.350 . S
C1090 C1089 1.434 . S
C1091 C1092 1.369 . S
C1091 C1093 1.419 . S
C1091 H1095 0.930 . S
C1092 C1091 1.369 . S
C1092 C1101 1.429 . S
C1093 C1091 1.419 . S
C1093 C1094 1.363 . S
C1093 H1096 0.929 . S
C1094 C1093 1.363 . S
C1094 C1100 1.428 . S
H1095 C1091 0.930 . S
H1096 C1093 0.929 . S
S1097 N1098 1.613 . S
S1097 N1099 1.610 . S
N1098 S1097 1.613 . S
N1098 C1101 1.350 . S
N1099 S1097 1.610 . S
N1099 C1100 1.351 . S
C1100 C1094 1.428 . S
C1100 N1099 1.351 . S
C1100 C1101 1.434 . S
C1101 C1092 1.429 . S
C1101 N1098 1.350 . S
C1101 C1100 1.434 . S
C1102 C1103 1.369 . S
C1102 C1104 1.419 . S
C1102 H1106 0.930 . S
C1103 C1102 1.369 . S
C1103 C1112 1.429 . S
C1104 C1102 1.419 . S
C1104 C1105 1.363 . S
C1104 H1107 0.929 . S
C1105 C1104 1.363 . S
C1105 C1111 1.428 . S
H1106 C1102 0.930 . S
H1107 C1104 0.929 . S
S1108 N1109 1.613 . S
S1108 N1110 1.610 . S
N1109 S1108 1.613 . S
N1109 C1112 1.350 . S
N1110 S1108 1.610 . S
N1110 C1111 1.351 . S
C1111 C1105 1.428 . S
C1111 N1110 1.351 . S
C1111 C1112 1.434 . S
C1112 C1103 1.429 . S
C1112 N1109 1.350 . S
C1112 C1111 1.434 . S
C1113 C1114 1.369 . S
C1113 C1115 1.419 . S
C1113 H1117 0.930 . S
C1114 C1113 1.369 . S
C1114 C1123 1.429 . S
C1115 C1113 1.419 . S
C1115 C1116 1.363 . S
C1115 H1118 0.929 . S
C1116 C1115 1.363 . S
C1116 C1122 1.428 . S
H1117 C1113 0.930 . S
H1118 C1115 0.929 . S
S1119 N1120 1.613 . S
S1119 N1121 1.610 . S
N1120 S1119 1.613 . S
N1120 C1123 1.350 . S
N1121 S1119 1.610 . S
N1121 C1122 1.351 . S
C1122 C1116 1.428 . S
C1122 N1121 1.351 . S
C1122 C1123 1.434 . S
C1123 C1114 1.429 . S
C1123 N1120 1.350 . S
C1123 C1122 1.434 . S
C1124 C1125 1.369 . S
C1124 C1126 1.419 . S
C1124 H1128 0.930 . S
C1125 C1124 1.369 . S
C1125 C1134 1.429 . S
C1126 C1124 1.419 . S
C1126 C1127 1.363 . S
C1126 H1129 0.929 . S
C1127 C1126 1.363 . S
C1127 C1133 1.428 . S
H1128 C1124 0.930 . S
H1129 C1126 0.929 . S
S1130 N1131 1.613 1_455 S
S1130 N1132 1.610 . S
N1131 S1130 1.613 1_655 S
N1131 C1134 1.350 1_655 S
N1132 S1130 1.610 . S
N1132 C1133 1.351 . S
C1133 C1127 1.428 . S
C1133 N1132 1.351 . S
C1133 C1134 1.434 . S
C1134 C1125 1.429 . S
C1134 N1131 1.350 1_455 S
C1134 C1133 1.434 . S
C1135 C1136 1.369 . S
C1135 C1137 1.419 . S
C1135 H1139 0.930 . S
C1136 C1135 1.369 . S
C1136 C1145 1.429 . S
C1137 C1135 1.419 . S
C1137 C1138 1.363 . S
C1137 H1140 0.929 . S
C1138 C1137 1.363 . S
C1138 C1144 1.428 . S
H1139 C1135 0.930 . S
H1140 C1137 0.929 . S
S1141 N1142 1.613 . S
S1141 N1143 1.610 . S
N1142 S1141 1.613 . S
N1142 C1145 1.350 . S
N1143 S1141 1.610 . S
N1143 C1144 1.351 . S
C1144 C1138 1.428 . S
C1144 N1143 1.351 . S
C1144 C1145 1.434 . S
C1145 C1136 1.429 . S
C1145 N1142 1.350 . S
C1145 C1144 1.434 . S
C1146 C1147 1.369 . S
C1146 C1148 1.419 . S
C1146 H1150 0.930 . S
C1147 C1146 1.369 . S
C1147 C1156 1.429 . S
C1148 C1146 1.419 . S
C1148 C1149 1.363 . S
C1148 H1151 0.929 . S
C1149 C1148 1.363 . S
C1149 C1155 1.428 . S
H1150 C1146 0.930 . S
H1151 C1148 0.929 . S
S1152 N1153 1.613 . S
S1152 N1154 1.610 . S
N1153 S1152 1.613 . S
N1153 C1156 1.350 . S
N1154 S1152 1.610 . S
N1154 C1155 1.351 . S
C1155 C1149 1.428 . S
C1155 N1154 1.351 . S
C1155 C1156 1.434 . S
C1156 C1147 1.429 . S
C1156 N1153 1.350 . S
C1156 C1155 1.434 . S
C1157 C1158 1.369 . S
C1157 C1159 1.419 . S
C1157 H1161 0.930 . S
C1158 C1157 1.369 . S
C1158 C1167 1.429 . S
C1159 C1157 1.419 . S
C1159 C1160 1.363 . S
C1159 H1162 0.929 . S
C1160 C1159 1.363 . S
C1160 C1166 1.428 . S
H1161 C1157 0.930 . S
H1162 C1159 0.929 . S
S1163 N1164 1.613 . S
S1163 N1165 1.610 . S
N1164 S1163 1.613 . S
N1164 C1167 1.350 . S
N1165 S1163 1.610 . S
N1165 C1166 1.351 . S
C1166 C1160 1.428 . S
C1166 N1165 1.351 . S
C1166 C1167 1.434 . S
C1167 C1158 1.429 . S
C1167 N1164 1.350 . S
C1167 C1166 1.434 . S
C1168 C1169 1.369 . S
C1168 C1170 1.419 . S
C1168 H1172 0.930 . S
C1169 C1168 1.369 . S
C1169 C1178 1.429 . S
C1170 C1168 1.419 . S
C1170 C1171 1.363 . S
C1170 H1173 0.929 . S
C1171 C1170 1.363 . S
C1171 C1177 1.428 . S
H1172 C1168 0.930 . S
H1173 C1170 0.929 . S
S1174 N1175 1.613 . S
S1174 N1176 1.610 . S
N1175 S1174 1.613 . S
N1175 C1178 1.350 . S
N1176 S1174 1.610 . S
N1176 C1177 1.351 . S
C1177 C1171 1.428 . S
C1177 N1176 1.351 . S
C1177 C1178 1.434 . S
C1178 C1169 1.429 . S
C1178 N1175 1.350 . S
C1178 C1177 1.434 . S
C1179 C1180 1.369 . S
C1179 C1181 1.419 . S
C1179 H1183 0.930 . S
C1180 C1179 1.369 . S
C1180 C1189 1.429 . S
C1181 C1179 1.419 . S
C1181 C1182 1.363 . S
C1181 H1184 0.929 . S
C1182 C1181 1.363 . S
C1182 C1188 1.428 . S
H1183 C1179 0.930 . S
H1184 C1181 0.929 . S
S1185 N1186 1.613 . S
S1185 N1187 1.610 . S
N1186 S1185 1.613 . S
N1186 C1189 1.350 . S
N1187 S1185 1.610 . S
N1187 C1188 1.351 . S
C1188 C1182 1.428 . S
C1188 N1187 1.351 . S
C1188 C1189 1.434 . S
C1189 C1180 1.429 . S
C1189 N1186 1.350 . S
C1189 C1188 1.434 . S
C1190 C1191 1.369 . S
C1190 C1192 1.419 . S
C1190 H1194 0.930 . S
C1191 C1190 1.369 . S
C1191 C1200 1.429 . S
C1192 C1190 1.419 . S
C1192 C1193 1.363 . S
C1192 H1195 0.929 . S
C1193 C1192 1.363 . S
C1193 C1199 1.428 . S
H1194 C1190 0.930 . S
H1195 C1192 0.929 . S
S1196 N1197 1.613 . S
S1196 N1198 1.610 . S
N1197 S1196 1.613 . S
N1197 C1200 1.350 . S
N1198 S1196 1.610 . S
N1198 C1199 1.351 . S
C1199 C1193 1.428 . S
C1199 N1198 1.351 . S
C1199 C1200 1.434 . S
C1200 C1191 1.429 . S
C1200 N1197 1.350 . S
C1200 C1199 1.434 . S
C1201 C1202 1.369 . S
C1201 C1203 1.419 . S
C1201 H1205 0.930 . S
C1202 C1201 1.369 . S
C1202 C1211 1.429 . S
C1203 C1201 1.419 . S
C1203 C1204 1.363 . S
C1203 H1206 0.929 . S
C1204 C1203 1.363 . S
C1204 C1210 1.428 . S
H1205 C1201 0.930 . S
H1206 C1203 0.929 . S
S1207 N1208 1.613 . S
S1207 N1209 1.610 . S
N1208 S1207 1.613 . S
N1208 C1211 1.350 . S
N1209 S1207 1.610 . S
N1209 C1210 1.351 . S
C1210 C1204 1.428 . S
C1210 N1209 1.351 . S
C1210 C1211 1.434 . S
C1211 C1202 1.429 . S
C1211 N1208 1.350 . S
C1211 C1210 1.434 . S
C1212 C1213 1.351 1_655 S
C1212 C1214 1.419 . S
C1212 H1216 0.930 1_655 S
C1213 C1212 1.351 1_455 S
C1213 C1222 1.422 1_455 S
C1214 C1212 1.419 . S
C1214 C1215 1.363 . S
C1214 H1217 0.929 . S
C1215 C1214 1.363 . S
C1215 C1221 1.428 . S
H1216 C1212 0.930 1_455 S
H1217 C1214 0.929 . S
S1218 N1219 1.613 . S
S1218 N1220 1.610 . S
N1219 S1218 1.613 . S
N1219 C1222 1.350 . S
N1220 S1218 1.610 . S
N1220 C1221 1.351 . S
C1221 C1215 1.428 . S
C1221 N1220 1.351 . S
C1221 C1222 1.434 . S
C1222 C1213 1.422 1_655 S
C1222 N1219 1.350 . S
C1222 C1221 1.434 . S
C1223 C1224 1.369 . S
C1223 C1225 1.419 . S
C1223 H1227 0.930 . S
C1224 C1223 1.369 . S
C1224 C1233 1.429 . S
C1225 C1223 1.419 . S
C1225 C1226 1.363 . S
C1225 H1228 0.929 . S
C1226 C1225 1.363 . S
C1226 C1232 1.428 . S
H1227 C1223 0.930 . S
H1228 C1225 0.929 . S
S1229 N1230 1.613 . S
S1229 N1231 1.610 . S
N1230 S1229 1.613 . S
N1230 C1233 1.350 . S
N1231 S1229 1.610 . S
N1231 C1232 1.351 . S
C1232 C1226 1.428 . S
C1232 N1231 1.351 . S
C1232 C1233 1.434 . S
C1233 C1224 1.429 . S
C1233 N1230 1.350 . S
C1233 C1232 1.434 . S
C1234 C1235 1.369 . S
C1234 C1236 1.419 . S
C1234 H1238 0.930 . S
C1235 C1234 1.369 . S
C1235 C1244 1.429 . S
C1236 C1234 1.419 . S
C1236 C1237 1.363 . S
C1236 H1239 0.929 . S
C1237 C1236 1.363 . S
C1237 C1243 1.428 . S
H1238 C1234 0.930 . S
H1239 C1236 0.929 . S
S1240 N1241 1.613 . S
S1240 N1242 1.610 . S
N1241 S1240 1.613 . S
N1241 C1244 1.350 . S
N1242 S1240 1.610 . S
N1242 C1243 1.351 . S
C1243 C1237 1.428 . S
C1243 N1242 1.351 . S
C1243 C1244 1.434 . S
C1244 C1235 1.429 . S
C1244 N1241 1.350 . S
C1244 C1243 1.434 . S
C1245 C1246 1.369 . S
C1245 C1247 1.419 . S
C1245 H1249 0.930 . S
C1246 C1245 1.369 . S
C1246 C1255 1.429 . S
C1247 C1245 1.419 . S
C1247 C1248 1.363 . S
C1247 H1250 0.929 . S
C1248 C1247 1.363 . S
C1248 C1254 1.428 . S
H1249 C1245 0.930 . S
H1250 C1247 0.929 . S
S1251 N1252 1.613 . S
S1251 N1253 1.610 . S
N1252 S1251 1.613 . S
N1252 C1255 1.350 . S
N1253 S1251 1.610 . S
N1253 C1254 1.351 . S
C1254 C1248 1.428 . S
C1254 N1253 1.351 . S
C1254 C1255 1.434 . S
C1255 C1246 1.429 . S
C1255 N1252 1.350 . S
C1255 C1254 1.434 . S
C1256 C1257 1.369 . S
C1256 C1258 1.419 . S
C1256 H1260 0.930 . S
C1257 C1256 1.369 . S
C1257 C1266 1.429 . S
C1258 C1256 1.419 . S
C1258 C1259 1.363 . S
C1258 H1261 0.929 . S
C1259 C1258 1.363 . S
C1259 C1265 1.428 . S
H1260 C1256 0.930 . S
H1261 C1258 0.929 . S
S1262 N1263 1.613 . S
S1262 N1264 1.610 . S
N1263 S1262 1.613 . S
N1263 C1266 1.350 . S
N1264 S1262 1.610 . S
N1264 C1265 1.351 . S
C1265 C1259 1.428 . S
C1265 N1264 1.351 . S
C1265 C1266 1.434 . S
C1266 C1257 1.429 . S
C1266 N1263 1.350 . S
C1266 C1265 1.434 . S
C1267 C1268 1.369 . S
C1267 C1269 1.419 . S
C1267 H1271 0.930 . S
C1268 C1267 1.369 . S
C1268 C1277 1.429 . S
C1269 C1267 1.419 . S
C1269 C1270 1.363 . S
C1269 H1272 0.929 . S
C1270 C1269 1.363 . S
C1270 C1276 1.428 . S
H1271 C1267 0.930 . S
H1272 C1269 0.929 . S
S1273 N1274 1.613 . S
S1273 N1275 1.610 . S
N1274 S1273 1.613 . S
N1274 C1277 1.350 . S
N1275 S1273 1.610 . S
N1275 C1276 1.351 . S
C1276 C1270 1.428 . S
C1276 N1275 1.351 . S
C1276 C1277 1.434 . S
C1277 C1268 1.429 . S
C1277 N1274 1.350 . S
C1277 C1276 1.434 . S
C1278 C1279 1.369 . S
C1278 C1280 1.419 . S
C1278 H1282 0.930 . S
C1279 C1278 1.369 . S
C1279 C1288 1.429 1_565 S
C1280 C1278 1.419 . S
C1280 C1281 1.363 . S
C1280 H1283 0.929 . S
C1281 C1280 1.363 . S
C1281 C1287 1.428 1_565 S
H1282 C1278 0.930 . S
H1283 C1280 0.929 . S
S1284 N1285 1.613 . S
S1284 N1286 1.610 . S
N1285 S1284 1.613 . S
N1285 C1288 1.350 . S
N1286 S1284 1.610 . S
N1286 C1287 1.351 . S
C1287 C1281 1.428 1_545 S
C1287 N1286 1.351 . S
C1287 C1288 1.434 . S
C1288 C1279 1.429 1_545 S
C1288 N1285 1.350 . S
C1288 C1287 1.434 . S
C1289 C1290 1.369 . S
C1289 C1291 1.419 . S
C1289 H1293 0.930 . S
C1290 C1289 1.369 . S
C1290 C1299 1.429 1_455 S
C1291 C1289 1.419 . S
C1291 C1292 1.363 . S
C1291 H1294 0.929 . S
C1292 C1291 1.363 . S
C1292 C1298 1.428 1_455 S
H1293 C1289 0.930 . S
H1294 C1291 0.929 . S
S1295 N1296 1.613 . S
S1295 N1297 1.610 . S
N1296 S1295 1.613 . S
N1296 C1299 1.350 . S
N1297 S1295 1.610 . S
N1297 C1298 1.351 . S
C1298 C1292 1.428 1_655 S
C1298 N1297 1.351 . S
C1298 C1299 1.434 . S
C1299 C1290 1.429 1_655 S
C1299 N1296 1.350 . S
C1299 C1298 1.434 . S
C1300 C1301 1.369 . S
C1300 C1302 1.419 . S
C1300 H1304 0.930 . S
C1301 C1300 1.369 . S
C1301 C1310 1.429 . S
C1302 C1300 1.419 . S
C1302 C1303 1.363 . S
C1302 H1305 0.929 . S
C1303 C1302 1.363 . S
C1303 C1309 1.428 . S
H1304 C1300 0.930 . S
H1305 C1302 0.929 . S
S1306 N1307 1.613 . S
S1306 N1308 1.610 . S
N1307 S1306 1.613 . S
N1307 C1310 1.350 . S
N1308 S1306 1.610 . S
N1308 C1309 1.351 . S
C1309 C1303 1.428 . S
C1309 N1308 1.351 . S
C1309 C1310 1.434 . S
C1310 C1301 1.429 . S
C1310 N1307 1.350 . S
C1310 C1309 1.434 . S
C1311 C1312 1.369 . S
C1311 C1313 1.419 . S
C1311 H1315 0.930 . S
C1312 C1311 1.369 . S
C1312 C1321 1.429 . S
C1313 C1311 1.419 . S
C1313 C1314 1.363 . S
C1313 H1316 0.929 . S
C1314 C1313 1.363 . S
C1314 C1320 1.428 . S
H1315 C1311 0.930 . S
H1316 C1313 0.929 . S
S1317 N1318 1.613 . S
S1317 N1319 1.610 . S
N1318 S1317 1.613 . S
N1318 C1321 1.350 . S
N1319 S1317 1.610 . S
N1319 C1320 1.351 . S
C1320 C1314 1.428 . S
C1320 N1319 1.351 . S
C1320 C1321 1.434 . S
C1321 C1312 1.429 . S
C1321 N1318 1.350 . S
C1321 C1320 1.434 . S
C1322 C1323 1.369 . S
C1322 C1324 1.419 . S
C1322 H1326 0.930 . S
C1323 C1322 1.369 . S
C1323 C1332 1.429 . S
C1324 C1322 1.419 . S
C1324 C1325 1.363 . S
C1324 H1327 0.929 . S
C1325 C1324 1.363 . S
C1325 C1331 1.428 . S
H1326 C1322 0.930 . S
H1327 C1324 0.929 . S
S1328 N1329 1.613 . S
S1328 N1330 1.610 . S
N1329 S1328 1.613 . S
N1329 C1332 1.350 . S
N1330 S1328 1.610 . S
N1330 C1331 1.351 . S
C1331 C1325 1.428 . S
C1331 N1330 1.351 . S
C1331 C1332 1.434 . S
C1332 C1323 1.429 . S
C1332 N1329 1.350 . S
C1332 C1331 1.434 . S
C1333 C1334 1.369 . S
C1333 C1335 1.419 . S
C1333 H1337 0.930 . S
C1334 C1333 1.369 . S
C1334 C1343 1.403 1_545 S
C1335 C1333 1.419 . S
C1335 C1336 1.363 . S
C1335 H1338 0.929 . S
C1336 C1335 1.363 . S
C1336 C1342 1.428 1_545 S
H1337 C1333 0.930 . S
H1338 C1335 0.929 . S
S1339 N1340 1.613 . S
S1339 N1341 1.610 . S
N1340 S1339 1.613 . S
N1340 C1343 1.373 . S
N1341 S1339 1.610 . S
N1341 C1342 1.351 . S
C1342 C1336 1.428 1_565 S
C1342 N1341 1.351 . S
C1342 C1343 1.438 . S
C1343 C1334 1.403 1_565 S
C1343 N1340 1.373 . S
C1343 C1342 1.438 . S
C1344 C1345 1.369 . S
C1344 C1346 1.419 . S
C1344 H1348 0.930 . S
C1345 C1344 1.369 . S
C1345 C1354 1.429 . S
C1346 C1344 1.419 . S
C1346 C1347 1.363 . S
C1346 H1349 0.929 . S
C1347 C1346 1.363 . S
C1347 C1353 1.428 . S
H1348 C1344 0.930 . S
H1349 C1346 0.929 . S
S1350 N1351 1.613 . S
S1350 N1352 1.610 . S
N1351 S1350 1.613 . S
N1351 C1354 1.350 . S
N1352 S1350 1.610 . S
N1352 C1353 1.351 . S
C1353 C1347 1.428 . S
C1353 N1352 1.351 . S
C1353 C1354 1.434 . S
C1354 C1345 1.429 . S
C1354 N1351 1.350 . S
C1354 C1353 1.434 . S
C1355 C1356 1.369 . S
C1355 C1357 1.419 . S
C1355 H1359 0.930 . S
C1356 C1355 1.369 . S
C1356 C1365 1.429 . S
C1357 C1355 1.419 . S
C1357 C1358 1.363 . S
C1357 H1360 0.929 . S
C1358 C1357 1.363 . S
C1358 C1364 1.428 . S
H1359 C1355 0.930 . S
H1360 C1357 0.929 . S
S1361 N1362 1.613 . S
S1361 N1363 1.610 . S
N1362 S1361 1.613 . S
N1362 C1365 1.350 . S
N1363 S1361 1.610 . S
N1363 C1364 1.351 . S
C1364 C1358 1.428 . S
C1364 N1363 1.351 . S
C1364 C1365 1.434 . S
C1365 C1356 1.429 . S
C1365 N1362 1.350 . S
C1365 C1364 1.434 . S
C1366 C1367 1.369 . S
C1366 C1368 1.419 . S
C1366 H1370 0.930 . S
C1367 C1366 1.369 . S
C1367 C1376 1.429 . S
C1368 C1366 1.419 . S
C1368 C1369 1.363 . S
C1368 H1371 0.929 . S
C1369 C1368 1.363 . S
C1369 C1375 1.428 . S
H1370 C1366 0.930 . S
H1371 C1368 0.929 . S
S1372 N1373 1.613 . S
S1372 N1374 1.610 . S
N1373 S1372 1.613 . S
N1373 C1376 1.350 . S
N1374 S1372 1.610 . S
N1374 C1375 1.351 . S
C1375 C1369 1.428 . S
C1375 N1374 1.351 . S
C1375 C1376 1.434 . S
C1376 C1367 1.429 . S
C1376 N1373 1.350 . S
C1376 C1375 1.434 . S
C1377 C1378 1.369 . S
C1377 C1379 1.419 . S
C1377 H1381 0.930 . S
C1378 C1377 1.369 . S
C1378 C1387 1.429 . S
C1379 C1377 1.419 . S
C1379 C1380 1.363 . S
C1379 H1382 0.929 . S
C1380 C1379 1.363 . S
C1380 C1386 1.428 . S
H1381 C1377 0.930 . S
H1382 C1379 0.929 . S
S1383 N1384 1.613 . S
S1383 N1385 1.610 . S
N1384 S1383 1.613 . S
N1384 C1387 1.350 . S
N1385 S1383 1.610 . S
N1385 C1386 1.351 . S
C1386 C1380 1.428 . S
C1386 N1385 1.351 . S
C1386 C1387 1.434 . S
C1387 C1378 1.429 . S
C1387 N1384 1.350 . S
C1387 C1386 1.434 . S
C1388 C1389 1.369 . S
C1388 C1390 1.419 . S
C1388 H1392 0.930 . S
C1389 C1388 1.369 . S
C1389 C1398 1.429 . S
C1390 C1388 1.419 . S
C1390 C1391 1.363 . S
C1390 H1393 0.929 . S
C1391 C1390 1.363 . S
C1391 C1397 1.428 . S
H1392 C1388 0.930 . S
H1393 C1390 0.929 . S
S1394 N1395 1.613 . S
S1394 N1396 1.610 . S
N1395 S1394 1.613 . S
N1395 C1398 1.350 . S
N1396 S1394 1.610 . S
N1396 C1397 1.351 . S
C1397 C1391 1.428 . S
C1397 N1396 1.351 . S
C1397 C1398 1.434 . S
C1398 C1389 1.429 . S
C1398 N1395 1.350 . S
C1398 C1397 1.434 . S
C1399 C1400 1.369 . S
C1399 C1401 1.419 . S
C1399 H1403 0.930 . S
C1400 C1399 1.369 . S
C1400 C1409 1.429 . S
C1401 C1399 1.419 . S
C1401 C1402 1.363 . S
C1401 H1404 0.929 . S
C1402 C1401 1.363 . S
C1402 C1408 1.428 . S
H1403 C1399 0.930 . S
H1404 C1401 0.929 . S
S1405 N1406 1.613 . S
S1405 N1407 1.610 . S
N1406 S1405 1.613 . S
N1406 C1409 1.350 . S
N1407 S1405 1.610 . S
N1407 C1408 1.351 . S
C1408 C1402 1.428 . S
C1408 N1407 1.351 . S
C1408 C1409 1.434 . S
C1409 C1400 1.429 . S
C1409 N1406 1.350 . S
C1409 C1408 1.434 . S
C1410 C1411 1.369 . S
C1410 C1412 1.419 . S
C1410 H1414 0.930 . S
C1411 C1410 1.369 . S
C1411 C1420 1.429 . S
C1412 C1410 1.419 . S
C1412 C1413 1.363 . S
C1412 H1415 0.929 . S
C1413 C1412 1.363 . S
C1413 C1419 1.428 . S
H1414 C1410 0.930 . S
H1415 C1412 0.929 . S
S1416 N1417 1.613 . S
S1416 N1418 1.610 . S
N1417 S1416 1.613 . S
N1417 C1420 1.350 . S
N1418 S1416 1.610 . S
N1418 C1419 1.351 . S
C1419 C1413 1.428 . S
C1419 N1418 1.351 . S
C1419 C1420 1.434 . S
C1420 C1411 1.429 . S
C1420 N1417 1.350 . S
C1420 C1419 1.434 . S
C1421 C1422 1.369 . S
C1421 C1423 1.419 . S
C1421 H1425 0.930 . S
C1422 C1421 1.369 . S
C1422 C1431 1.429 . S
C1423 C1421 1.419 . S
C1423 C1424 1.363 . S
C1423 H1426 0.929 . S
C1424 C1423 1.363 . S
C1424 C1430 1.428 . S
H1425 C1421 0.930 . S
H1426 C1423 0.929 . S
S1427 N1428 1.613 . S
S1427 N1429 1.610 . S
N1428 S1427 1.613 . S
N1428 C1431 1.350 . S
N1429 S1427 1.610 . S
N1429 C1430 1.351 . S
C1430 C1424 1.428 . S
C1430 N1429 1.351 . S
C1430 C1431 1.434 . S
C1431 C1422 1.429 . S
C1431 N1428 1.350 . S
C1431 C1430 1.434 . S
C1432 C1433 1.369 . S
C1432 C1434 1.419 . S
C1432 H1436 0.930 . S
C1433 C1432 1.369 . S
C1433 C1442 1.429 . S
C1434 C1432 1.419 . S
C1434 C1435 1.363 . S
C1434 H1437 0.929 . S
C1435 C1434 1.363 . S
C1435 C1441 1.428 . S
H1436 C1432 0.930 . S
H1437 C1434 0.929 . S
S1438 N1439 1.613 . S
S1438 N1440 1.610 . S
N1439 S1438 1.613 . S
N1439 C1442 1.350 . S
N1440 S1438 1.610 . S
N1440 C1441 1.351 . S
C1441 C1435 1.428 . S
C1441 N1440 1.351 . S
C1441 C1442 1.434 . S
C1442 C1433 1.429 . S
C1442 N1439 1.350 . S
C1442 C1441 1.434 . S
C1443 C1444 1.369 . S
C1443 C1445 1.419 . S
C1443 H1447 0.930 . S
C1444 C1443 1.369 . S
C1444 C1453 1.429 . S
C1445 C1443 1.419 . S
C1445 C1446 1.363 . S
C1445 H1448 0.929 . S
C1446 C1445 1.363 . S
C1446 C1452 1.428 . S
H1447 C1443 0.930 . S
H1448 C1445 0.929 . S
S1449 N1450 1.613 . S
S1449 N1451 1.610 . S
N1450 S1449 1.613 . S
N1450 C1453 1.350 . S
N1451 S1449 1.610 . S
N1451 C1452 1.351 . S
C1452 C1446 1.428 . S
C1452 N1451 1.351 . S
C1452 C1453 1.434 . S
C1453 C1444 1.429 . S
C1453 N1450 1.350 . S
C1453 C1452 1.434 . S
C1454 C1455 1.369 . S
C1454 C1456 1.419 . S
C1454 H1458 0.930 . S
C1455 C1454 1.369 . S
C1455 C1464 1.429 . S
C1456 C1454 1.419 . S
C1456 C1457 1.363 . S
C1456 H1459 0.929 . S
C1457 C1456 1.363 . S
C1457 C1463 1.428 . S
H1458 C1454 0.930 . S
H1459 C1456 0.929 . S
S1460 N1461 1.613 . S
S1460 N1462 1.610 . S
N1461 S1460 1.613 . S
N1461 C1464 1.350 . S
N1462 S1460 1.610 . S
N1462 C1463 1.351 . S
C1463 C1457 1.428 . S
C1463 N1462 1.351 . S
C1463 C1464 1.434 . S
C1464 C1455 1.429 . S
C1464 N1461 1.350 . S
C1464 C1463 1.434 . S
C1465 C1466 1.369 . S
C1465 C1467 1.419 . S
C1465 H1469 0.930 . S
C1466 C1465 1.369 . S
C1466 C1475 1.429 . S
C1467 C1465 1.419 . S
C1467 C1468 1.363 . S
C1467 H1470 0.929 . S
C1468 C1467 1.363 . S
C1468 C1474 1.428 . S
H1469 C1465 0.930 . S
H1470 C1467 0.929 . S
S1471 N1472 1.613 . S
S1471 N1473 1.610 . S
N1472 S1471 1.613 . S
N1472 C1475 1.350 . S
N1473 S1471 1.610 . S
N1473 C1474 1.351 . S
C1474 C1468 1.428 . S
C1474 N1473 1.351 . S
C1474 C1475 1.434 . S
C1475 C1466 1.429 . S
C1475 N1472 1.350 . S
C1475 C1474 1.434 . S
C883 C528 1.581 . S
C885 C708 1.561 . S
C894 C562 1.536 . S
C896 C728 1.499 . S
C905 C484 1.583 . S
C907 C751 1.571 . S
C916 C445 1.501 . S
C918 C731 1.489 . S
C929 C748 1.487 . S
C927 C367 1.496 . S
C938 C411 1.515 . S
C940 C711 1.508 . S
C951 C718 1.569 . S
C949 C450 1.589 . S
C962 C738 1.487 . S
C960 C372 1.515 . S
C971 C406 1.579 . S
C973 C743 1.571 . S
C982 C523 1.493 . S
C984 C723 1.492 . S
C993 C567 1.475 . S
C995 C758 1.472 . S
C1006 C703 1.519 . S
C1004 C489 1.523 . S
C1017 C768 1.561 . S
C1015 C60 1.580 1_455 S
C1026 C94 1.533 . S
C1028 C788 1.499 . S
C1037 C16 1.577 1_565 S
C1039 C811 1.576 . S
C1048 C679 1.496 . S
C1050 C791 1.494 . S
C1059 C601 1.499 . S
C1061 C808 1.486 . S
C1070 C645 1.520 . S
C1072 C771 1.503 . S
C1081 C684 1.586 . S
C1083 C778 1.571 . S
C1092 C606 1.515 . S
C1094 C798 1.487 . S
C1105 C803 1.571 . S
C1103 C640 1.580 . S
C1114 C55 1.497 1_565 S
C1116 C783 1.489 . S
C1127 C818 1.468 . S
C1125 C99 1.475 1_455 S
C1136 C21 1.517 . S
C1138 C763 1.524 . S
C1149 C828 1.561 . S
C1147 C294 1.580 . S
C1158 C328 1.535 . S
C1160 C848 1.496 . S
C1171 C871 1.571 . S
C1169 C250 1.583 . S
C1182 C851 1.489 . S
C1180 C211 1.502 1_545 S
C1193 C868 1.487 . S
C1191 C133 1.496 1_655 S
C1202 C177 1.515 . S
C1204 C831 1.508 . S
C1213 C216 1.608 . S
C1215 C838 1.573 . S
C1224 C138 1.517 . S
C1226 C858 1.488 . S
C1237 C863 1.570 . S
C1235 C172 1.581 1_545 S
C1246 C289 1.498 . S
C1248 C843 1.488 . S
C1257 C333 1.480 . S
C1259 C878 1.468 . S
C1268 C255 1.520 . S
C1270 C823 1.521 . S
C1279 C586 1.344 . S
C1281 C721 1.310 1_565 S
C1292 C741 1.581 . S
C1290 C625 1.654 . S
C1301 C664 1.520 . S
C1303 C750 1.470 . S
C1312 C235 1.660 . S
C1314 C730 1.598 . S
C1323 C274 1.510 . S
C1325 C761 1.455 . S
C1336 C710 1.304 1_545 S
C1334 C313 1.341 . S
C1345 C118 1.342 . S
C1347 C781 1.316 . S
C1356 C157 1.650 . S
C1358 C801 1.585 . S
C1367 C196 1.516 . S
C1369 C810 1.476 . S
C1378 C469 1.660 . S
C1380 C790 1.595 . S
C1391 C821 1.462 . S
C1389 C508 1.506 . S
C1400 C547 1.337 . S
C1402 C770 1.310 . S
C1411 C352 1.343 . S
C1413 C841 1.310 . S
C1422 C391 1.651 . S
C1424 C861 1.581 . S
C1435 C870 1.475 . S
C1433 C430 1.516 . S
C1444 C1 1.659 . S
C1446 C850 1.599 . S
C1455 C40 1.505 . S
C1457 C881 1.461 . S
C1466 C79 1.340 . S
C1468 C830 1.307 . S
