# Generated by pormake.
# Topology anh, (6,3)-cn, num edge types: 1
# Building blocks:
#     Node 0, Type 0, BuildingBlock: MIFKUJ_clean_sbu_0, # of connection points: 6
#     Node 1, Type 0, BuildingBlock: MIFKUJ_clean_sbu_0, # of connection points: 6
#     Node 2, Type 0, BuildingBlock: MIFKUJ_clean_sbu_0, # of connection points: 6
#     Node 3, Type 1, BuildingBlock: CUQRIR_clean_linker_1, # of connection points: 3
#     Node 4, Type 1, BuildingBlock: CUQRIR_clean_linker_1, # of connection points: 3
#     Node 5, Type 1, BuildingBlock: CUQRIR_clean_linker_1, # of connection points: 3
#     Node 6, Type 1, BuildingBlock: CUQRIR_clean_linker_1, # of connection points: 3
#     Node 7, Type 1, BuildingBlock: CUQRIR_clean_linker_1, # of connection points: 3
#     Node 8, Type 1, BuildingBlock: CUQRIR_clean_linker_1, # of connection points: 3
#     Edge 9, Type (0, 1), BuildingBlock: CIFDUS_clean_linker_0, # of connection points: 2
#     Edge 10, Type (0, 1), BuildingBlock: CIFDUS_clean_linker_0, # of connection points: 2
#     Edge 11, Type (0, 1), BuildingBlock: CIFDUS_clean_linker_0, # of connection points: 2
#     Edge 12, Type (0, 1), BuildingBlock: CIFDUS_clean_linker_0, # of connection points: 2
#     Edge 13, Type (0, 1), BuildingBlock: CIFDUS_clean_linker_0, # of connection points: 2
#     Edge 14, Type (0, 1), BuildingBlock: CIFDUS_clean_linker_0, # of connection points: 2
#     Edge 15, Type (0, 1), BuildingBlock: CIFDUS_clean_linker_0, # of connection points: 2
#     Edge 16, Type (0, 1), BuildingBlock: CIFDUS_clean_linker_0, # of connection points: 2
#     Edge 17, Type (0, 1), BuildingBlock: CIFDUS_clean_linker_0, # of connection points: 2
#     Edge 18, Type (0, 1), BuildingBlock: CIFDUS_clean_linker_0, # of connection points: 2
#     Edge 19, Type (0, 1), BuildingBlock: CIFDUS_clean_linker_0, # of connection points: 2
#     Edge 20, Type (0, 1), BuildingBlock: CIFDUS_clean_linker_0, # of connection points: 2
#     Edge 21, Type (0, 1), BuildingBlock: CIFDUS_clean_linker_0, # of connection points: 2
#     Edge 22, Type (0, 1), BuildingBlock: CIFDUS_clean_linker_0, # of connection points: 2
#     Edge 23, Type (0, 1), BuildingBlock: CIFDUS_clean_linker_0, # of connection points: 2
#     Edge 24, Type (0, 1), BuildingBlock: CIFDUS_clean_linker_0, # of connection points: 2
#     Edge 25, Type (0, 1), BuildingBlock: CIFDUS_clean_linker_0, # of connection points: 2
#     Edge 26, Type (0, 1), BuildingBlock: CIFDUS_clean_linker_0, # of connection points: 2
# Relax obj value: 0.117
# Max RMSD: 0.216
# Mean RMSD: 0.153
data_MOF--net-anh--node1-MIFKUJ_clean_sbu_0--node2-CUQRIR_clean_linker_1--edge1-CIFDUS_clean_linker_0
_symmetry_space_group_name_H-M    P1
_symmetry_Int_Tables_number       1
_symmetry_cell_setting            triclinic
loop_
_symmetry_equiv_pos_as_xyz
'x, y, z'
_cell_length_a     25.89636
_cell_length_b     26.215496
_cell_length_c     37.698734
_cell_angle_alpha  88.754782
_cell_angle_beta   90.887855
_cell_angle_gamma 120.39832
loop_
_atom_site_label
_atom_site_type_symbol
_atom_site_fract_x
_atom_site_fract_y
_atom_site_fract_z
_atom_type_partial_charge
Zn0 Zn 0.06054 0.53127 0.16082 0.0
Zn1 Zn 0.88734 0.42008 0.15978 0.0
C2 C 0.15472 0.51743 0.18152 0.0
O3 O 0.15154 0.55153 0.20539 0.0
C4 C 0.79193 0.43357 0.13156 0.0
O5 O 0.77487 0.37969 0.12133 0.0
O6 O 0.11637 0.61827 0.15602 0.0
O7 O -0.00118 0.51053 0.12298 0.0
O8 O 0.93359 0.41715 0.11742 0.0
C9 C 0.15563 0.63586 0.13179 0.0
O10 O 0.15523 0.59694 0.11025 0.0
O11 O 0.11491 0.49673 0.15716 0.0
C12 C 0.79022 0.32988 0.19667 0.0
O13 O 0.79914 0.37648 0.21421 0.0
O14 O 0.82428 0.33688 0.17087 0.0
O15 O 0.92931 0.44847 0.20738 0.0
O16 O 0.02732 0.51237 0.2098 0.0
O17 O 0.84227 0.46324 0.14719 0.0
C18 C 0.97965 0.46329 0.10591 0.0
C19 C 0.97721 0.48012 0.22481 0.0
Zn20 Zn 0.62936 0.10502 0.4954 0.0
Zn21 Zn 0.57938 0.93901 0.49932 0.0
C22 C 0.74147 0.20639 0.49307 0.0
O23 O 0.71511 0.21297 0.52067 0.0
C24 C 0.47305 0.84004 0.47718 0.0
O25 O 0.5133 0.84179 0.45561 0.0
O26 O 0.59531 0.15815 0.49721 0.0
O27 O 0.57052 0.04019 0.46482 0.0
O28 O 0.60419 0.98203 0.45142 0.0
C29 C 0.60205 0.19057 0.47013 0.0
O30 O 0.63056 0.1881 0.44233 0.0
O31 O 0.71399 0.15804 0.47615 0.0
C32 C 0.6183 0.8601 0.52858 0.0
O33 O 0.61406 0.87955 0.55958 0.0
O34 O 0.61064 0.88295 0.50042 0.0
O35 O 0.60257 0.9833 0.54604 0.0
O36 O 0.63408 0.0797 0.54481 0.0
O37 O 0.48904 0.88214 0.49881 0.0
C38 C 0.58849 0.01881 0.44167 0.0
C39 C 0.62247 0.03253 0.5615 0.0
Zn40 Zn 0.62624 0.54172 0.82973 0.0
Zn41 Zn 0.51181 0.61466 0.83572 0.0
C42 C 0.62126 0.43541 0.8489 0.0
O43 O 0.66418 0.47295 0.86985 0.0
C44 C 0.50815 0.71655 0.81834 0.0
O45 O 0.4552 0.67446 0.80783 0.0
O46 O 0.7126 0.58682 0.81395 0.0
O47 O 0.5711 0.56411 0.80734 0.0
O48 O 0.50967 0.58805 0.78456 0.0
C49 C 0.73439 0.56157 0.79604 0.0
O50 O 0.69804 0.50894 0.7832 0.0
O51 O 0.59536 0.4544 0.8281 0.0
C52 C 0.42035 0.60223 0.88178 0.0
O53 O 0.46789 0.64345 0.89823 0.0
O54 O 0.42762 0.57914 0.85437 0.0
O55 O 0.56159 0.59465 0.87102 0.0
O56 O 0.6236 0.56052 0.88029 0.0
O57 O 0.5445 0.70252 0.83209 0.0
C58 C 0.54425 0.56782 0.78009 0.0
C59 C 0.59281 0.58195 0.89207 0.0
C60 C 0.4736 0.97528 0.18419 0.0
N61 N 0.51747 0.00228 0.20877 0.0
N62 N 0.42407 0.93002 0.19931 0.0
C63 C 0.47742 -0.00432 0.14624 0.0
C64 C 0.43947 0.9301 0.23376 0.0
N65 N 0.49599 0.97428 0.2395 0.0
C66 C 0.40026 0.8856 0.26148 0.0
H67 H 0.43223 0.97962 0.13466 0.0
H68 H 0.50062 0.97799 0.13055 0.0
H69 H 0.50372 0.04468 0.14427 0.0
H70 H 0.37033 0.84191 0.24945 0.0
H71 H 0.37209 0.9012 0.27367 0.0
H72 H 0.42751 0.88051 0.28274 0.0
C73 C 0.6231 0.52962 0.52541 0.0
N74 N 0.61135 0.55587 0.55219 0.0
N75 N 0.60775 0.47363 0.53482 0.0
C76 C 0.64989 0.55865 0.49025 0.0
C77 C 0.58682 0.46678 0.56831 0.0
N78 N 0.58915 0.51686 0.57893 0.0
C79 C 0.56638 0.41204 0.59115 0.0
H80 H 0.61337 0.55258 0.47191 0.0
H81 H 0.67384 0.53868 0.47786 0.0
H82 H 0.6812 0.60677 0.49339 0.0
H83 H 0.60578 0.41508 0.60521 0.0
H84 H 0.54587 0.37139 0.57523 0.0
H85 H 0.53346 0.40788 0.61117 0.0
C86 C 0.06678 0.55414 0.84924 0.0
N87 N 0.0914 0.54649 0.87946 0.0
N88 N 0.0198 0.56105 0.85687 0.0
C89 C 0.09059 0.55856 0.81249 0.0
C90 C 0.01625 0.55676 0.89268 0.0
N91 N 0.06007 0.54858 0.90639 0.0
C92 C 0.96816 0.55777 0.91413 0.0
H93 H 0.07707 0.58377 0.7944 0.0
H94 H 0.07211 0.51338 0.80196 0.0
H95 H 0.14015 0.5803 0.81298 0.0
H96 H 0.92469 0.53548 0.89975 0.0
H97 H 0.98071 0.60442 0.91827 0.0
H98 H 0.96261 0.53608 0.94049 0.0
C99 C 0.08392 0.5502 0.47933 0.0
N100 N 0.04371 0.51017 0.45614 0.0
N101 N 0.13397 0.59102 0.4621 0.0
C102 C 0.07662 0.54708 0.51891 0.0
C103 C 0.12294 0.5746 0.42784 0.0
N104 N 0.06868 0.52544 0.42422 0.0
C105 C 0.16472 0.608 0.39762 0.0
H106 H 0.05373 0.57145 0.52619 0.0
H107 H 0.1208 0.56799 0.5325 0.0
H108 H 0.04902 0.50051 0.52827 0.0
H109 H 0.19355 0.58883 0.3928 0.0
H110 H 0.19391 0.65543 0.404 0.0
H111 H 0.13925 0.60433 0.37293 0.0
C112 C 0.52484 0.06369 0.81044 0.0
N113 N 0.53333 0.02809 0.78879 0.0
N114 N 0.54054 0.11569 0.7938 0.0
C115 C 0.50063 0.04749 0.84748 0.0
C116 C 0.5593 0.11078 0.76145 0.0
N117 N 0.55543 0.05757 0.75846 0.0
C118 C 0.57953 0.15727 0.73243 0.0
H119 H 0.451 0.02297 0.84616 0.0
H120 H 0.51543 0.08751 0.86359 0.0
H121 H 0.51502 0.01833 0.86054 0.0
H122 H 0.62917 0.18262 0.73186 0.0
H123 H 0.56385 0.18889 0.73674 0.0
H124 H 0.56307 0.13642 0.70622 0.0
C125 C 0.47231 0.47665 0.14482 0.0
N126 N 0.51789 0.48991 0.12225 0.0
N127 N 0.43455 0.49296 0.13051 0.0
C128 C 0.46288 0.44535 0.18004 0.0
C129 C 0.4586 0.51682 0.09855 0.0
N130 N 0.50954 0.51533 0.09348 0.0
C131 C 0.42941 0.537 0.07108 0.0
H132 H 0.43333 0.39711 0.17623 0.0
H133 H 0.44057 0.46005 0.19878 0.0
H134 H 0.50607 0.45352 0.19155 0.0
H135 H 0.45561 0.5859 0.0686 0.0
H136 H 0.38308 0.52441 0.07817 0.0
H137 H 0.42886 0.51831 0.04485 0.0
H138 H 0.17241 0.43972 0.14349 0.0
H139 H 0.2588 0.58276 0.21761 0.0
H140 H 0.35236 0.58322 0.21159 0.0
H141 H 0.41311 0.55055 0.18018 0.0
H142 H 0.32799 0.40695 0.10729 0.0
H143 H 0.23048 0.39805 0.11823 0.0
C144 C 0.21154 0.47042 0.15862 0.0
C145 C 0.20867 0.51161 0.18054 0.0
C146 C 0.26555 0.47031 0.15525 0.0
C147 C 0.25962 0.55068 0.20035 0.0
C148 C 0.3134 0.55115 0.19693 0.0
C149 C 0.37267 0.5164 0.16763 0.0
C150 C 0.3769 0.47952 0.14303 0.0
C151 C 0.3173 0.51219 0.17383 0.0
C152 C 0.3249 0.43544 0.12647 0.0
C153 C 0.26956 0.43083 0.13248 0.0
H154 H 0.78709 0.32136 0.50846 0.0
H155 H 0.8263 0.20497 0.45055 0.0
H156 H 0.92397 0.28946 0.43348 0.0
H157 H -0.00028 0.39656 0.43713 0.0
H158 H 0.9564 0.51175 0.49273 0.0
H159 H 0.85886 0.42744 0.50905 0.0
C160 C 0.81698 0.31426 0.49216 0.0
C161 C 0.79976 0.25678 0.48117 0.0
C162 C 0.8724 0.36288 0.48224 0.0
C163 C 0.83859 0.24871 0.45946 0.0
C164 C 0.89444 0.297 0.44978 0.0
C165 C 0.96847 0.40307 0.4524 0.0
C166 C 0.9853 0.46014 0.4641 0.0
C167 C 0.91201 0.35429 0.46123 0.0
C168 C 0.94474 0.46806 0.48412 0.0
C169 C 0.88897 0.41996 0.49325 0.0
H170 H 0.43214 0.75828 0.81701 0.0
H171 H 0.61961 0.81405 0.8108 0.0
H172 H 0.64432 0.91668 0.80075 0.0
H173 H 0.61156 0.99015 0.79224 0.0
H174 H 0.42502 0.93433 0.80182 0.0
H175 H 0.40036 0.83172 0.81213 0.0
C176 C 0.47842 0.79296 0.81349 0.0
C177 C 0.52401 0.77884 0.81431 0.0
C178 C 0.49219 0.85159 0.80835 0.0
C179 C 0.58385 0.8241 0.8103 0.0
C180 C 0.59792 0.88262 0.80444 0.0
C181 C 0.56577 0.95517 0.79679 0.0
C182 C 0.51992 0.96879 0.79636 0.0
C183 C 0.55239 0.89679 0.8032 0.0
C184 C 0.46061 0.92407 0.80237 0.0
C185 C 0.44669 0.86574 0.80808 0.0
H186 H 0.67171 0.36745 0.13225 0.0
H187 H 0.81634 0.54841 0.12643 0.0
H188 H 0.74378 0.58255 0.12277 0.0
H189 H 0.63789 0.55988 0.12091 0.0
H190 H 0.49545 0.37883 0.1306 0.0
H191 H 0.56816 0.34541 0.13333 0.0
C192 C 0.68743 0.41439 0.12996 0.0
C193 C 0.74922 0.45535 0.12912 0.0
C194 C 0.64569 0.43351 0.12887 0.0
C195 C 0.76893 0.51607 0.12696 0.0
C196 C 0.72747 0.53552 0.12488 0.0
C197 C 0.62332 0.5133 0.12388 0.0
C198 C 0.56175 0.47169 0.12589 0.0
C199 C 0.66565 0.49459 0.12583 0.0
C200 C 0.54275 0.41138 0.12966 0.0
C201 C 0.58423 0.39237 0.13091 0.0
H202 H 0.36645 0.82908 0.49855 0.0
H203 H 0.44447 0.73015 0.45857 0.0
H204 H 0.34625 0.64144 0.45594 0.0
H205 H 0.23746 0.59389 0.45909 0.0
H206 H 0.15588 0.69112 0.49457 0.0
H207 H 0.25546 0.778 0.50573 0.0
C208 C 0.36176 0.78792 0.48959 0.0
C209 C 0.41264 0.78653 0.47822 0.0
C210 C 0.30443 0.73671 0.48743 0.0
C211 C 0.40599 0.73283 0.46677 0.0
C212 C 0.34984 0.68186 0.46543 0.0
C213 C 0.24189 0.63386 0.47003 0.0
C214 C 0.19017 0.63663 0.47613 0.0
C215 C 0.29876 0.68361 0.47488 0.0
C216 C 0.19554 0.68828 0.4901 0.0
C217 C 0.25235 0.73793 0.49602 0.0
H218 H 0.52723 0.34334 0.81583 0.0
H219 H 0.68651 0.38933 0.87737 0.0
H220 H 0.67176 0.29088 0.86876 0.0
H221 H 0.61899 0.19481 0.83866 0.0
H222 H 0.46061 0.14871 0.77725 0.0
H223 H 0.46871 0.24364 0.79111 0.0
C224 C 0.55835 0.33159 0.82764 0.0
C225 C 0.60827 0.37381 0.84681 0.0
C226 C 0.54968 0.27489 0.82257 0.0
C227 C 0.64784 0.35775 0.86234 0.0
C228 C 0.63955 0.30148 0.85739 0.0
C229 C 0.58577 0.20549 0.82918 0.0
C230 C 0.53939 0.16583 0.80711 0.0
C231 C 0.59141 0.26018 0.83691 0.0
C232 C 0.4964 0.17923 0.79445 0.0
C233 C 0.50136 0.2334 0.80216 0.0
H234 H 0.6634 0.81376 0.57676 0.0
H235 H 0.57301 0.78072 0.47543 0.0
H236 H 0.56219 0.68301 0.47414 0.0
H237 H 0.57307 0.60461 0.50335 0.0
H238 H 0.67199 0.63954 0.6013 0.0
H239 H 0.68371 0.73833 0.60302 0.0
C240 C 0.64201 0.78532 0.55427 0.0
C241 C 0.61896 0.80435 0.52632 0.0
C242 C 0.63671 0.72932 0.55337 0.0
C243 C 0.59155 0.76732 0.49718 0.0
C244 C 0.58494 0.71123 0.49649 0.0
C245 C 0.59831 0.63445 0.52459 0.0
C246 C 0.62131 0.61509 0.55223 0.0
C247 C 0.60671 0.69155 0.52461 0.0
C248 C 0.65304 0.65348 0.58007 0.0
C249 C 0.66006 0.70993 0.5809 0.0
H250 H 0.79191 0.50671 0.77223 0.0
H251 H 0.82246 0.66334 0.82618 0.0
H252 H 0.92151 0.68312 0.84482 0.0
H253 H 0.99031 0.64515 0.85527 0.0
H254 H 0.95522 0.48429 0.80583 0.0
H255 H 0.86772 0.47726 0.77526 0.0
C256 C 0.82072 0.54601 0.78733 0.0
C257 C 0.79918 0.58266 0.79855 0.0
C258 C 0.8766 0.55584 0.79911 0.0
C259 C 0.83754 0.63388 0.81764 0.0
C260 C 0.8941 0.64506 0.82849 0.0
C261 C 0.96398 0.60944 0.83714 0.0
C262 C 0.97809 0.56483 0.83298 0.0
C263 C 0.91267 0.60467 0.82091 0.0
C264 C 0.94476 0.51898 0.80922 0.0
C265 C 0.8946 0.51477 0.79208 0.0
H266 H 0.1659 0.72848 0.16817 0.0
H267 H 0.2617 0.67903 0.09703 0.0
H268 H 0.35384 0.7723 0.10796 0.0
H269 H 0.4099 0.86008 0.14529 0.0
H270 H 0.31477 0.90781 0.21736 0.0
H271 H 0.21923 0.82332 0.19842 0.0
C272 C 0.2067 0.7386 0.15456 0.0
C273 C 0.20734 0.69652 0.13246 0.0
C274 C 0.25964 0.7917 0.16145 0.0
C275 C 0.26019 0.71053 0.11448 0.0
C276 C 0.313 0.76373 0.12083 0.0
C277 C 0.36789 0.85258 0.15591 0.0
C278 C 0.36855 0.88882 0.18286 0.0
C279 C 0.31368 0.80349 0.14534 0.0
C280 C 0.31451 0.87941 0.19684 0.0
C281 C 0.26025 0.83127 0.1861 0.0
H282 H 0.68559 0.3049 0.47239 0.0
H283 H 0.49531 0.18467 0.47769 0.0
H284 H 0.47947 0.26626 0.49297 0.0
H285 H 0.52147 0.3694 0.5116 0.0
H286 H 0.71239 0.48501 0.51544 0.0
H287 H 0.72722 0.40866 0.48902 0.0
C288 C 0.64071 0.29723 0.47614 0.0
C289 C 0.59147 0.2398 0.47368 0.0
C290 C 0.63252 0.3435 0.48672 0.0
C291 C 0.53348 0.22911 0.4793 0.0
C292 C 0.52459 0.27553 0.48813 0.0
C293 C 0.56606 0.37758 0.50613 0.0
C294 C 0.61585 0.43202 0.5152 0.0
C295 C 0.57394 0.33249 0.49295 0.0
C296 C 0.6737 0.44319 0.50823 0.0
C297 C 0.68204 0.39955 0.49345 0.0
H298 H 0.31248 0.51587 0.85676 0.0
H299 H 0.39302 0.6649 0.92692 0.0
H300 H 0.29619 0.65746 0.93488 0.0
H301 H 0.19114 0.61598 0.91634 0.0
H302 H 0.10956 0.46606 0.84761 0.0
H303 H 0.20429 0.4665 0.84432 0.0
C304 C 0.30868 0.54616 0.8742 0.0
C305 C 0.36011 0.59129 0.89085 0.0
C306 C 0.25281 0.54185 0.87857 0.0
C307 C 0.35428 0.62983 0.91365 0.0
C308 C 0.29891 0.62583 0.91812 0.0
C309 C 0.19379 0.58235 0.90166 0.0
C310 C 0.14394 0.54115 0.88218 0.0
C311 C 0.24824 0.58301 0.90001 0.0
C312 C 0.14792 0.49848 0.86248 0.0
C313 C 0.20191 0.49878 0.86063 0.0
H314 H 0.75989 0.22566 0.16577 0.0
H315 H 0.70484 0.30217 0.24671 0.0
H316 H 0.6162 0.20608 0.25853 0.0
H317 H 0.55157 0.10163 0.24356 0.0
H318 H 0.60573 0.02443 0.16331 0.0
H319 H 0.69767 0.11986 0.15301 0.0
C320 C 0.72871 0.22126 0.18614 0.0
C321 C 0.73876 0.27101 0.2052 0.0
C322 C 0.67771 0.16599 0.1927 0.0
C323 C 0.69807 0.26458 0.2316 0.0
C324 C 0.64732 0.20971 0.23836 0.0
C325 C 0.58432 0.10577 0.22441 0.0
C326 C 0.57291 0.05681 0.20433 0.0
C327 C 0.63644 0.16036 0.21881 0.0
C328 C 0.61429 0.06219 0.17887 0.0
C329 C 0.66652 0.11646 0.17309 0.0
H330 H 0.06054 0.56105 0.06955 0.0
H331 H 0.94259 0.37298 0.05846 0.0
H332 H 0.96609 0.38174 0.99519 0.0
H333 H 0.01022 0.44548 0.94171 0.0
H334 H 0.12204 0.63334 0.95333 0.0
H335 H 0.11307 0.62225 0.01801 0.0
C336 C 0.04104 0.52161 0.05362 0.0
C337 C -0.00044 0.46649 0.0688 0.0
C338 C 0.05413 0.52713 0.01732 0.0
C339 C 0.97429 0.41605 0.04746 0.0
C340 C 0.98773 0.42103 0.01126 0.0
C341 C 0.03426 0.48333 0.95876 0.0
C342 C 0.06793 0.53996 0.94333 0.0
C343 C 0.0263 0.47661 0.99573 0.0
C344 C 0.09739 0.58941 0.96507 0.0
C345 C 0.09144 0.58304 0.00186 0.0
H346 H 0.62608 0.98749 0.38287 0.0
H347 H 0.51547 0.05755 0.41604 0.0
H348 H 0.48006 0.05346 0.35557 0.0
H349 H 0.47361 0.02217 0.294 0.0
H350 H 0.58605 0.95673 0.25904 0.0
H351 H 0.62834 0.96717 0.3192 0.0
C352 C 0.59462 0.00225 0.37675 0.0
C353 C 0.57267 0.02166 0.4041 0.0
C354 C 0.57474 0.00052 0.34162 0.0
C355 C 0.53274 0.04176 0.39565 0.0
C356 C 0.51228 0.03944 0.36104 0.0
C357 C 0.50816 0.01134 0.29975 0.0
C358 C 0.52698 0.98866 0.27287 0.0
C359 C 0.532 0.0178 0.33402 0.0
C360 C 0.57157 0.97448 0.27981 0.0
C361 C 0.59526 0.98015 0.31407 0.0
H362 H 0.4978 0.57716 0.71626 0.0
H363 H 0.61246 0.52043 0.76458 0.0
H364 H 0.63829 0.50124 0.70643 0.0
H365 H 0.63092 0.50411 0.64159 0.0
H366 H 0.51078 0.55304 0.59257 0.0
H367 H 0.48465 0.5728 0.65106 0.0
C368 C 0.52807 0.5602 0.71402 0.0
C369 C 0.55435 0.55126 0.74471 0.0
C370 C 0.54186 0.5484 0.68034 0.0
C371 C 0.59294 0.52877 0.74136 0.0
C372 C 0.60747 0.51763 0.70811 0.0
C373 C 0.59832 0.51817 0.64392 0.0
C374 C 0.57259 0.52709 0.61318 0.0
C375 C 0.5827 0.52788 0.67744 0.0
C376 C 0.53124 0.54637 0.61613 0.0
C377 C 0.51623 0.55736 0.64946 0.0
H378 H 0.54142 0.95581 0.60872 0.0
H379 H 0.71292 0.11615 0.6009 0.0
H380 H 0.71215 0.13163 0.66459 0.0
H381 H 0.65579 0.10753 0.72017 0.0
H382 H 0.47764 0.95659 0.72546 0.0
H383 H 0.4882 0.92771 0.66589 0.0
C384 C 0.57922 0.99317 0.62128 0.0
C385 C 0.62717 0.03482 0.60044 0.0
C386 C 0.57687 0.00345 0.65749 0.0
C387 C 0.67557 0.08369 0.61663 0.0
C388 C 0.67502 0.09262 0.65294 0.0
C389 C 0.61975 0.06803 0.70825 0.0
C390 C 0.56594 0.03449 0.72679 0.0
C391 C 0.62484 0.05411 0.67327 0.0
C392 C 0.51965 0.98271 0.71168 0.0
C393 C 0.52546 0.96669 0.67748 0.0
H394 H 0.58605 0.50183 0.93988 0.0
H395 H 0.58645 0.66617 0.9303 0.0
H396 H 0.57281 0.66551 0.99469 0.0
H397 H 0.55307 0.61361 0.05271 0.0
H398 H 0.53026 0.43904 0.05797 0.0
H399 H 0.56441 0.4496 0.99704 0.0
C400 C 0.58392 0.53789 0.95202 0.0
C401 C 0.58752 0.58417 0.93071 0.0
C402 C 0.57318 0.5356 0.98843 0.0
C403 C 0.58359 0.6301 0.9464 0.0
C404 C 0.57602 0.62975 0.9831 0.0
C405 C 0.55574 0.57807 0.04039 0.0
C406 C 0.53971 0.5259 0.05996 0.0
C407 C 0.56958 0.58207 0.00424 0.0
C408 C 0.54421 0.4804 0.04402 0.0
C409 C 0.56248 0.48592 0.00887 0.0
H410 H 0.04679 0.45664 0.26713 0.0
H411 H 0.90461 0.49636 0.26924 0.0
H412 H 0.91379 0.50525 0.33413 0.0
H413 H 0.97307 0.51529 0.38894 0.0
H414 H 0.11237 0.47196 0.38577 0.0
H415 H 0.09275 0.44898 0.32274 0.0
C416 C 0.01727 0.46635 0.28198 0.0
C417 C 0.97602 0.47709 0.26379 0.0
C418 C 0.02228 0.47041 0.31898 0.0
C419 C 0.93706 0.48851 0.28298 0.0
C420 C 0.94238 0.49363 0.31995 0.0
C421 C -0.00273 0.49868 0.37452 0.0
C422 C 0.0443 0.49557 0.3914 0.0
C423 C 0.98613 0.48643 0.33813 0.0
C424 C 0.07605 0.47448 0.37286 0.0
C425 C 0.06525 0.46202 0.33689 0.0
loop_
_geom_bond_atom_site_label_1
_geom_bond_atom_site_label_2
_geom_bond_distance
_geom_bond_site_symmetry_2
_ccdc_geom_bond_type
Zn0 O6 1.969 . S
Zn0 O7 1.965 . S
Zn0 O11 2.024 . S
Zn0 O16 1.969 . S
Zn1 O8 1.969 . S
Zn1 O14 1.969 . S
Zn1 O15 1.965 . S
Zn1 O17 2.024 . S
C2 O3 1.229 . S
C2 O11 1.058 . S
O3 C2 1.229 . S
C4 O5 1.229 . S
C4 O17 1.058 . S
O5 C4 1.229 . S
O6 Zn0 1.969 . S
O6 C9 1.267 . S
O7 Zn0 1.965 . S
O7 C18 1.260 1_455 S
O8 Zn1 1.969 . S
O8 C18 1.258 . S
C9 O6 1.267 . S
C9 O10 1.228 . S
O10 C9 1.228 . S
O11 Zn0 2.024 . S
O11 C2 1.058 . S
C12 O13 1.228 . S
C12 O14 1.267 . S
O13 C12 1.228 . S
O14 Zn1 1.969 . S
O14 C12 1.267 . S
O15 Zn1 1.965 . S
O15 C19 1.260 1_655 S
O16 Zn0 1.969 . S
O16 C19 1.258 . S
O17 Zn1 2.024 . S
O17 C4 1.058 . S
C18 O7 1.260 1_655 S
C18 O8 1.258 . S
C19 O15 1.260 1_455 S
C19 O16 1.258 . S
Zn20 O26 1.969 . S
Zn20 O27 1.965 . S
Zn20 O31 2.024 . S
Zn20 O36 1.969 . S
Zn21 O28 1.969 . S
Zn21 O34 1.969 . S
Zn21 O35 1.965 . S
Zn21 O37 2.024 . S
C22 O23 1.229 . S
C22 O31 1.058 . S
O23 C22 1.229 . S
C24 O25 1.229 . S
C24 O37 1.058 . S
O25 C24 1.229 . S
O26 Zn20 1.969 . S
O26 C29 1.267 . S
O27 Zn20 1.965 . S
O27 C38 1.260 . S
O28 Zn21 1.969 . S
O28 C38 1.258 1_565 S
C29 O26 1.267 . S
C29 O30 1.228 . S
O30 C29 1.228 . S
O31 Zn20 2.024 . S
O31 C22 1.058 . S
C32 O33 1.228 . S
C32 O34 1.267 . S
O33 C32 1.228 . S
O34 Zn21 1.969 . S
O34 C32 1.267 . S
O35 Zn21 1.965 . S
O35 C39 1.260 1_565 S
O36 Zn20 1.969 . S
O36 C39 1.258 . S
O37 Zn21 2.024 . S
O37 C24 1.058 . S
C38 O27 1.260 . S
C38 O28 1.258 1_545 S
C39 O35 1.260 1_545 S
C39 O36 1.258 . S
Zn40 O46 1.969 . S
Zn40 O47 1.965 . S
Zn40 O51 2.024 . S
Zn40 O56 1.969 . S
Zn41 O48 1.969 . S
Zn41 O54 1.969 . S
Zn41 O55 1.965 . S
Zn41 O57 2.024 . S
C42 O43 1.229 . S
C42 O51 1.058 . S
O43 C42 1.229 . S
C44 O45 1.229 . S
C44 O57 1.058 . S
O45 C44 1.229 . S
O46 Zn40 1.969 . S
O46 C49 1.267 . S
O47 Zn40 1.965 . S
O47 C58 1.260 . S
O48 Zn41 1.969 . S
O48 C58 1.258 . S
C49 O46 1.267 . S
C49 O50 1.228 . S
O50 C49 1.228 . S
O51 Zn40 2.024 . S
O51 C42 1.058 . S
C52 O53 1.228 . S
C52 O54 1.267 . S
O53 C52 1.228 . S
O54 Zn41 1.969 . S
O54 C52 1.267 . S
O55 Zn41 1.965 . S
O55 C59 1.260 . S
O56 Zn40 1.969 . S
O56 C59 1.258 . S
O57 Zn41 2.024 . S
O57 C44 1.058 . S
C58 O47 1.260 . S
C58 O48 1.258 . S
C59 O55 1.260 . S
C59 O56 1.258 . S
C60 N61 1.317 . S
C60 N62 1.348 1_545 S
C60 C63 1.485 . S
N61 C60 1.317 . S
N61 N65 1.370 . S
N62 C60 1.348 1_565 S
N62 C64 1.346 . S
C63 C60 1.485 . S
C63 H67 0.960 . S
C63 H68 0.961 1_545 S
C63 H69 0.960 . S
C64 N62 1.346 . S
C64 N65 1.307 1_565 S
C64 C66 1.486 . S
N65 N61 1.370 . S
N65 C64 1.307 1_545 S
C66 C64 1.486 . S
C66 H70 0.960 . S
C66 H71 0.960 . S
C66 H72 0.959 . S
H67 C63 0.960 . S
H68 C63 0.961 1_565 S
H69 C63 0.960 . S
H70 C66 0.960 . S
H71 C66 0.960 . S
H72 C66 0.959 . S
C73 N74 1.317 . S
C73 N75 1.348 . S
C73 C76 1.485 . S
N74 C73 1.317 . S
N74 N78 1.370 . S
N75 C73 1.348 . S
N75 C77 1.346 . S
C76 C73 1.485 . S
C76 H80 0.960 . S
C76 H81 0.961 . S
C76 H82 0.960 . S
C77 N75 1.346 . S
C77 N78 1.307 . S
C77 C79 1.486 . S
N78 N74 1.370 . S
N78 C77 1.307 . S
C79 C77 1.486 . S
C79 H83 0.960 . S
C79 H84 0.960 . S
C79 H85 0.959 . S
H80 C76 0.960 . S
H81 C76 0.961 . S
H82 C76 0.960 . S
H83 C79 0.960 . S
H84 C79 0.960 . S
H85 C79 0.959 . S
C86 N87 1.317 . S
C86 N88 1.348 1_455 S
C86 C89 1.485 . S
N87 C86 1.317 . S
N87 N91 1.370 . S
N88 C86 1.348 1_655 S
N88 C90 1.345 1_655 S
C89 C86 1.485 . S
C89 H93 0.960 . S
C89 H94 0.961 . S
C89 H95 0.960 . S
C90 N88 1.345 1_455 S
C90 N91 1.320 . S
C90 C92 1.476 1_455 S
N91 N87 1.370 . S
N91 C90 1.320 . S
C92 C90 1.476 1_655 S
C92 H96 0.960 . S
C92 H97 0.960 . S
C92 H98 0.959 . S
H93 C89 0.960 . S
H94 C89 0.961 . S
H95 C89 0.960 . S
H96 C92 0.960 . S
H97 C92 0.960 . S
H98 C92 0.959 . S
C99 N100 1.317 . S
C99 N101 1.348 . S
C99 C102 1.485 . S
N100 C99 1.317 . S
N100 N104 1.370 . S
N101 C99 1.348 . S
N101 C103 1.346 . S
C102 C99 1.485 . S
C102 H106 0.960 . S
C102 H107 0.961 . S
C102 H108 0.960 . S
C103 N101 1.346 . S
C103 N104 1.307 . S
C103 C105 1.486 . S
N104 N100 1.370 . S
N104 C103 1.307 . S
C105 C103 1.486 . S
C105 H109 0.960 . S
C105 H110 0.960 . S
C105 H111 0.959 . S
H106 C102 0.960 . S
H107 C102 0.961 . S
H108 C102 0.960 . S
H109 C105 0.960 . S
H110 C105 0.960 . S
H111 C105 0.959 . S
C112 N113 1.317 . S
C112 N114 1.348 . S
C112 C115 1.485 . S
N113 C112 1.317 . S
N113 N117 1.370 . S
N114 C112 1.348 . S
N114 C116 1.346 . S
C115 C112 1.485 . S
C115 H119 0.960 . S
C115 H120 0.961 . S
C115 H121 0.960 . S
C116 N114 1.346 . S
C116 N117 1.307 . S
C116 C118 1.486 . S
N117 N113 1.370 . S
N117 C116 1.307 . S
C118 C116 1.486 . S
C118 H122 0.960 . S
C118 H123 0.960 . S
C118 H124 0.959 . S
H119 C115 0.960 . S
H120 C115 0.961 . S
H121 C115 0.960 . S
H122 C118 0.960 . S
H123 C118 0.960 . S
H124 C118 0.959 . S
C125 N126 1.317 . S
C125 N127 1.348 . S
C125 C128 1.485 . S
N126 C125 1.317 . S
N126 N130 1.370 . S
N127 C125 1.348 . S
N127 C129 1.346 . S
C128 C125 1.485 . S
C128 H132 0.960 . S
C128 H133 0.961 . S
C128 H134 0.960 . S
C129 N127 1.346 . S
C129 N130 1.307 . S
C129 C131 1.486 . S
N130 N126 1.370 . S
N130 C129 1.307 . S
C131 C129 1.486 . S
C131 H135 0.960 . S
C131 H136 0.960 . S
C131 H137 0.959 . S
H132 C128 0.960 . S
H133 C128 0.961 . S
H134 C128 0.960 . S
H135 C131 0.960 . S
H136 C131 0.960 . S
H137 C131 0.959 . S
H138 C144 0.930 . S
H139 C147 0.930 . S
H140 C148 0.930 . S
H141 C149 0.930 . S
H142 C152 0.930 . S
H143 C153 0.930 . S
C144 H138 0.930 . S
C144 C145 1.355 . S
C144 C146 1.415 . S
C145 C144 1.355 . S
C145 C147 1.419 . S
C146 C144 1.415 . S
C146 C151 1.425 . S
C146 C153 1.409 . S
C147 H139 0.930 . S
C147 C145 1.419 . S
C147 C148 1.362 . S
C148 H140 0.930 . S
C148 C147 1.362 . S
C148 C151 1.409 . S
C149 H141 0.930 . S
C149 C150 1.355 . S
C149 C151 1.415 . S
C150 C149 1.355 . S
C150 C152 1.419 . S
C151 C146 1.425 . S
C151 C148 1.409 . S
C151 C149 1.415 . S
C152 H142 0.930 . S
C152 C150 1.419 . S
C152 C153 1.362 . S
C153 H143 0.930 . S
C153 C146 1.409 . S
C153 C152 1.362 . S
H154 C160 0.930 . S
H155 C163 0.930 . S
H156 C164 0.930 . S
H157 C165 0.930 1_455 S
H158 C168 0.930 . S
H159 C169 0.930 . S
C160 H154 0.930 . S
C160 C161 1.355 . S
C160 C162 1.415 . S
C161 C160 1.355 . S
C161 C163 1.419 . S
C162 C160 1.415 . S
C162 C167 1.425 . S
C162 C169 1.409 . S
C163 H155 0.930 . S
C163 C161 1.419 . S
C163 C164 1.362 . S
C164 H156 0.930 . S
C164 C163 1.362 . S
C164 C167 1.409 . S
C165 H157 0.930 1_655 S
C165 C166 1.355 . S
C165 C167 1.415 . S
C166 C165 1.355 . S
C166 C168 1.419 . S
C167 C162 1.425 . S
C167 C164 1.409 . S
C167 C165 1.415 . S
C168 H158 0.930 . S
C168 C166 1.419 . S
C168 C169 1.362 . S
C169 H159 0.930 . S
C169 C162 1.409 . S
C169 C168 1.362 . S
H170 C176 0.930 . S
H171 C179 0.930 . S
H172 C180 0.930 . S
H173 C181 0.930 . S
H174 C184 0.930 . S
H175 C185 0.930 . S
C176 H170 0.930 . S
C176 C177 1.355 . S
C176 C178 1.415 . S
C177 C176 1.355 . S
C177 C179 1.419 . S
C178 C176 1.415 . S
C178 C183 1.425 . S
C178 C185 1.409 . S
C179 H171 0.930 . S
C179 C177 1.419 . S
C179 C180 1.362 . S
C180 H172 0.930 . S
C180 C179 1.362 . S
C180 C183 1.409 . S
C181 H173 0.930 . S
C181 C182 1.355 . S
C181 C183 1.415 . S
C182 C181 1.355 . S
C182 C184 1.419 . S
C183 C178 1.425 . S
C183 C180 1.409 . S
C183 C181 1.415 . S
C184 H174 0.930 . S
C184 C182 1.419 . S
C184 C185 1.362 . S
C185 H175 0.930 . S
C185 C178 1.409 . S
C185 C184 1.362 . S
H186 C192 0.930 . S
H187 C195 0.930 . S
H188 C196 0.930 . S
H189 C197 0.930 . S
H190 C200 0.930 . S
H191 C201 0.930 . S
C192 H186 0.930 . S
C192 C193 1.355 . S
C192 C194 1.415 . S
C193 C192 1.355 . S
C193 C195 1.419 . S
C194 C192 1.415 . S
C194 C199 1.425 . S
C194 C201 1.409 . S
C195 H187 0.930 . S
C195 C193 1.419 . S
C195 C196 1.362 . S
C196 H188 0.930 . S
C196 C195 1.362 . S
C196 C199 1.409 . S
C197 H189 0.930 . S
C197 C198 1.355 . S
C197 C199 1.415 . S
C198 C197 1.355 . S
C198 C200 1.419 . S
C199 C194 1.425 . S
C199 C196 1.409 . S
C199 C197 1.415 . S
C200 H190 0.930 . S
C200 C198 1.419 . S
C200 C201 1.362 . S
C201 H191 0.930 . S
C201 C194 1.409 . S
C201 C200 1.362 . S
H202 C208 0.930 . S
H203 C211 0.930 . S
H204 C212 0.930 . S
H205 C213 0.930 . S
H206 C216 0.930 . S
H207 C217 0.930 . S
C208 H202 0.930 . S
C208 C209 1.355 . S
C208 C210 1.415 . S
C209 C208 1.355 . S
C209 C211 1.419 . S
C210 C208 1.415 . S
C210 C215 1.425 . S
C210 C217 1.409 . S
C211 H203 0.930 . S
C211 C209 1.419 . S
C211 C212 1.362 . S
C212 H204 0.930 . S
C212 C211 1.362 . S
C212 C215 1.409 . S
C213 H205 0.930 . S
C213 C214 1.355 . S
C213 C215 1.415 . S
C214 C213 1.355 . S
C214 C216 1.419 . S
C215 C210 1.425 . S
C215 C212 1.409 . S
C215 C213 1.415 . S
C216 H206 0.930 . S
C216 C214 1.419 . S
C216 C217 1.362 . S
C217 H207 0.930 . S
C217 C210 1.409 . S
C217 C216 1.362 . S
H218 C224 0.930 . S
H219 C227 0.930 . S
H220 C228 0.930 . S
H221 C229 0.930 . S
H222 C232 0.930 . S
H223 C233 0.930 . S
C224 H218 0.930 . S
C224 C225 1.355 . S
C224 C226 1.415 . S
C225 C224 1.355 . S
C225 C227 1.419 . S
C226 C224 1.415 . S
C226 C231 1.425 . S
C226 C233 1.409 . S
C227 H219 0.930 . S
C227 C225 1.419 . S
C227 C228 1.362 . S
C228 H220 0.930 . S
C228 C227 1.362 . S
C228 C231 1.409 . S
C229 H221 0.930 . S
C229 C230 1.355 . S
C229 C231 1.415 . S
C230 C229 1.355 . S
C230 C232 1.419 . S
C231 C226 1.425 . S
C231 C228 1.409 . S
C231 C229 1.415 . S
C232 H222 0.930 . S
C232 C230 1.419 . S
C232 C233 1.362 . S
C233 H223 0.930 . S
C233 C226 1.409 . S
C233 C232 1.362 . S
H234 C240 0.930 . S
H235 C243 0.930 . S
H236 C244 0.930 . S
H237 C245 0.930 . S
H238 C248 0.930 . S
H239 C249 0.930 . S
C240 H234 0.930 . S
C240 C241 1.355 . S
C240 C242 1.415 . S
C241 C240 1.355 . S
C241 C243 1.419 . S
C242 C240 1.415 . S
C242 C247 1.425 . S
C242 C249 1.409 . S
C243 H235 0.930 . S
C243 C241 1.419 . S
C243 C244 1.362 . S
C244 H236 0.930 . S
C244 C243 1.362 . S
C244 C247 1.409 . S
C245 H237 0.930 . S
C245 C246 1.355 . S
C245 C247 1.415 . S
C246 C245 1.355 . S
C246 C248 1.419 . S
C247 C242 1.425 . S
C247 C244 1.409 . S
C247 C245 1.415 . S
C248 H238 0.930 . S
C248 C246 1.419 . S
C248 C249 1.362 . S
C249 H239 0.930 . S
C249 C242 1.409 . S
C249 C248 1.362 . S
H250 C256 0.930 . S
H251 C259 0.930 . S
H252 C260 0.930 . S
H253 C261 0.930 . S
H254 C264 0.930 . S
H255 C265 0.930 . S
C256 H250 0.930 . S
C256 C257 1.355 . S
C256 C258 1.415 . S
C257 C256 1.355 . S
C257 C259 1.419 . S
C258 C256 1.415 . S
C258 C263 1.425 . S
C258 C265 1.409 . S
C259 H251 0.930 . S
C259 C257 1.419 . S
C259 C260 1.362 . S
C260 H252 0.930 . S
C260 C259 1.362 . S
C260 C263 1.409 . S
C261 H253 0.930 . S
C261 C262 1.355 . S
C261 C263 1.415 . S
C262 C261 1.355 . S
C262 C264 1.419 . S
C263 C258 1.425 . S
C263 C260 1.409 . S
C263 C261 1.415 . S
C264 H254 0.930 . S
C264 C262 1.419 . S
C264 C265 1.362 . S
C265 H255 0.930 . S
C265 C258 1.409 . S
C265 C264 1.362 . S
H266 C272 0.930 . S
H267 C275 0.930 . S
H268 C276 0.930 . S
H269 C277 0.930 . S
H270 C280 0.930 . S
H271 C281 0.930 . S
C272 H266 0.930 . S
C272 C273 1.355 . S
C272 C274 1.415 . S
C273 C272 1.355 . S
C273 C275 1.419 . S
C274 C272 1.415 . S
C274 C279 1.425 . S
C274 C281 1.409 . S
C275 H267 0.930 . S
C275 C273 1.419 . S
C275 C276 1.362 . S
C276 H268 0.930 . S
C276 C275 1.362 . S
C276 C279 1.409 . S
C277 H269 0.930 . S
C277 C278 1.355 . S
C277 C279 1.415 . S
C278 C277 1.355 . S
C278 C280 1.419 . S
C279 C274 1.425 . S
C279 C276 1.409 . S
C279 C277 1.415 . S
C280 H270 0.930 . S
C280 C278 1.419 . S
C280 C281 1.362 . S
C281 H271 0.930 . S
C281 C274 1.409 . S
C281 C280 1.362 . S
H282 C288 0.930 . S
H283 C291 0.930 . S
H284 C292 0.930 . S
H285 C293 0.930 . S
H286 C296 0.930 . S
H287 C297 0.930 . S
C288 H282 0.930 . S
C288 C289 1.355 . S
C288 C290 1.415 . S
C289 C288 1.355 . S
C289 C291 1.419 . S
C290 C288 1.415 . S
C290 C295 1.425 . S
C290 C297 1.409 . S
C291 H283 0.930 . S
C291 C289 1.419 . S
C291 C292 1.362 . S
C292 H284 0.930 . S
C292 C291 1.362 . S
C292 C295 1.409 . S
C293 H285 0.930 . S
C293 C294 1.355 . S
C293 C295 1.415 . S
C294 C293 1.355 . S
C294 C296 1.419 . S
C295 C290 1.425 . S
C295 C292 1.409 . S
C295 C293 1.415 . S
C296 H286 0.930 . S
C296 C294 1.419 . S
C296 C297 1.362 . S
C297 H287 0.930 . S
C297 C290 1.409 . S
C297 C296 1.362 . S
H298 C304 0.930 . S
H299 C307 0.930 . S
H300 C308 0.930 . S
H301 C309 0.930 . S
H302 C312 0.930 . S
H303 C313 0.930 . S
C304 H298 0.930 . S
C304 C305 1.355 . S
C304 C306 1.415 . S
C305 C304 1.355 . S
C305 C307 1.419 . S
C306 C304 1.415 . S
C306 C311 1.425 . S
C306 C313 1.409 . S
C307 H299 0.930 . S
C307 C305 1.419 . S
C307 C308 1.362 . S
C308 H300 0.930 . S
C308 C307 1.362 . S
C308 C311 1.409 . S
C309 H301 0.930 . S
C309 C310 1.355 . S
C309 C311 1.415 . S
C310 C309 1.355 . S
C310 C312 1.419 . S
C311 C306 1.425 . S
C311 C308 1.409 . S
C311 C309 1.415 . S
C312 H302 0.930 . S
C312 C310 1.419 . S
C312 C313 1.362 . S
C313 H303 0.930 . S
C313 C306 1.409 . S
C313 C312 1.362 . S
H314 C320 0.930 . S
H315 C323 0.930 . S
H316 C324 0.930 . S
H317 C325 0.930 . S
H318 C328 0.930 . S
H319 C329 0.930 . S
C320 H314 0.930 . S
C320 C321 1.355 . S
C320 C322 1.415 . S
C321 C320 1.355 . S
C321 C323 1.419 . S
C322 C320 1.415 . S
C322 C327 1.425 . S
C322 C329 1.409 . S
C323 H315 0.930 . S
C323 C321 1.419 . S
C323 C324 1.362 . S
C324 H316 0.930 . S
C324 C323 1.362 . S
C324 C327 1.409 . S
C325 H317 0.930 . S
C325 C326 1.355 . S
C325 C327 1.415 . S
C326 C325 1.355 . S
C326 C328 1.419 . S
C327 C322 1.425 . S
C327 C324 1.409 . S
C327 C325 1.415 . S
C328 H318 0.930 . S
C328 C326 1.419 . S
C328 C329 1.362 . S
C329 H319 0.930 . S
C329 C322 1.409 . S
C329 C328 1.362 . S
H330 C336 0.930 . S
H331 C339 0.930 . S
H332 C340 0.930 . S
H333 C341 0.930 1_655 S
H334 C344 0.930 . S
H335 C345 0.930 1_554 S
C336 H330 0.930 . S
C336 C337 1.355 . S
C336 C338 1.415 . S
C337 C336 1.355 . S
C337 C339 1.419 1_455 S
C338 C336 1.415 . S
C338 C343 1.425 1_554 S
C338 C345 1.409 1_554 S
C339 H331 0.930 . S
C339 C337 1.419 1_655 S
C339 C340 1.362 . S
C340 H332 0.930 . S
C340 C339 1.362 . S
C340 C343 1.409 1_654 S
C341 H333 0.930 1_455 S
C341 C342 1.355 . S
C341 C343 1.415 . S
C342 C341 1.355 . S
C342 C344 1.419 . S
C343 C338 1.425 1_556 S
C343 C340 1.409 1_456 S
C343 C341 1.415 . S
C344 H334 0.930 . S
C344 C342 1.419 . S
C344 C345 1.362 . S
C345 H335 0.930 1_556 S
C345 C338 1.409 1_556 S
C345 C344 1.362 . S
H346 C352 0.930 . S
H347 C355 0.930 . S
H348 C356 0.930 1_565 S
H349 C357 0.930 . S
H350 C360 0.930 . S
H351 C361 0.930 . S
C352 H346 0.930 . S
C352 C353 1.355 . S
C352 C354 1.415 . S
C353 C352 1.355 . S
C353 C355 1.419 . S
C354 C352 1.415 . S
C354 C359 1.425 . S
C354 C361 1.409 . S
C355 H347 0.930 . S
C355 C353 1.419 . S
C355 C356 1.362 . S
C356 H348 0.930 1_545 S
C356 C355 1.362 . S
C356 C359 1.409 . S
C357 H349 0.930 . S
C357 C358 1.355 . S
C357 C359 1.415 . S
C358 C357 1.355 . S
C358 C360 1.419 . S
C359 C354 1.425 . S
C359 C356 1.409 . S
C359 C357 1.415 . S
C360 H350 0.930 . S
C360 C358 1.419 . S
C360 C361 1.362 . S
C361 H351 0.930 . S
C361 C354 1.409 . S
C361 C360 1.362 . S
H362 C368 0.930 . S
H363 C371 0.930 . S
H364 C372 0.930 . S
H365 C373 0.930 . S
H366 C376 0.930 . S
H367 C377 0.930 . S
C368 H362 0.930 . S
C368 C369 1.355 . S
C368 C370 1.415 . S
C369 C368 1.355 . S
C369 C371 1.419 . S
C370 C368 1.415 . S
C370 C375 1.425 . S
C370 C377 1.409 . S
C371 H363 0.930 . S
C371 C369 1.419 . S
C371 C372 1.362 . S
C372 H364 0.930 . S
C372 C371 1.362 . S
C372 C375 1.409 . S
C373 H365 0.930 . S
C373 C374 1.355 . S
C373 C375 1.415 . S
C374 C373 1.355 . S
C374 C376 1.419 . S
C375 C370 1.425 . S
C375 C372 1.409 . S
C375 C373 1.415 . S
C376 H366 0.930 . S
C376 C374 1.419 . S
C376 C377 1.362 . S
C377 H367 0.930 . S
C377 C370 1.409 . S
C377 C376 1.362 . S
H378 C384 0.930 . S
H379 C387 0.930 . S
H380 C388 0.930 . S
H381 C389 0.930 . S
H382 C392 0.930 . S
H383 C393 0.930 . S
C384 H378 0.930 . S
C384 C385 1.355 1_565 S
C384 C386 1.415 . S
C385 C384 1.355 1_545 S
C385 C387 1.419 . S
C386 C384 1.415 . S
C386 C391 1.425 1_565 S
C386 C393 1.409 . S
C387 H379 0.930 . S
C387 C385 1.419 . S
C387 C388 1.362 . S
C388 H380 0.930 . S
C388 C387 1.362 . S
C388 C391 1.409 . S
C389 H381 0.930 . S
C389 C390 1.355 . S
C389 C391 1.415 . S
C390 C389 1.355 . S
C390 C392 1.419 1_545 S
C391 C386 1.425 1_545 S
C391 C388 1.409 . S
C391 C389 1.415 . S
C392 H382 0.930 . S
C392 C390 1.419 1_565 S
C392 C393 1.362 . S
C393 H383 0.930 . S
C393 C386 1.409 . S
C393 C392 1.362 . S
H394 C400 0.930 . S
H395 C403 0.930 . S
H396 C404 0.930 . S
H397 C405 0.930 . S
H398 C408 0.930 . S
H399 C409 0.930 . S
C400 H394 0.930 . S
C400 C401 1.355 . S
C400 C402 1.415 . S
C401 C400 1.355 . S
C401 C403 1.419 . S
C402 C400 1.415 . S
C402 C407 1.425 . S
C402 C409 1.409 1_556 S
C403 H395 0.930 . S
C403 C401 1.419 . S
C403 C404 1.362 . S
C404 H396 0.930 . S
C404 C403 1.362 . S
C404 C407 1.409 . S
C405 H397 0.930 . S
C405 C406 1.355 . S
C405 C407 1.415 1_554 S
C406 C405 1.355 . S
C406 C408 1.419 . S
C407 C402 1.425 . S
C407 C404 1.409 . S
C407 C405 1.415 1_556 S
C408 H398 0.930 . S
C408 C406 1.419 . S
C408 C409 1.362 . S
C409 H399 0.930 . S
C409 C402 1.409 1_554 S
C409 C408 1.362 . S
H410 C416 0.930 . S
H411 C419 0.930 . S
H412 C420 0.930 . S
H413 C421 0.930 . S
H414 C424 0.930 . S
H415 C425 0.930 . S
C416 H410 0.930 . S
C416 C417 1.355 1_455 S
C416 C418 1.415 . S
C417 C416 1.355 1_655 S
C417 C419 1.419 . S
C418 C416 1.415 . S
C418 C423 1.425 1_455 S
C418 C425 1.409 . S
C419 H411 0.930 . S
C419 C417 1.419 . S
C419 C420 1.362 . S
C420 H412 0.930 . S
C420 C419 1.362 . S
C420 C423 1.409 . S
C421 H413 0.930 . S
C421 C422 1.355 1_655 S
C421 C423 1.415 . S
C422 C421 1.355 1_455 S
C422 C424 1.419 . S
C423 C418 1.425 1_655 S
C423 C420 1.409 . S
C423 C421 1.415 . S
C424 H414 0.930 . S
C424 C422 1.419 . S
C424 C425 1.362 . S
C425 H415 0.930 . S
C425 C418 1.409 . S
C425 C424 1.362 . S
C145 C2 1.206 . S
C150 N127 1.254 . S
C161 C22 1.372 . S
C166 N100 1.452 1_655 S
C177 C44 1.349 . S
C182 N113 1.444 1_565 S
C193 C4 1.708 . S
C198 N126 1.821 . S
C214 N101 1.636 . S
C209 C24 1.557 . S
C230 N114 1.610 . S
C225 C42 1.506 . S
C241 C32 1.201 . S
C246 N74 1.249 . S
C257 C49 1.072 . S
C262 N88 1.094 . S
C273 C9 1.333 . S
C278 N62 1.346 . S
C294 N75 1.347 . S
C289 C29 1.336 . S
C310 N87 1.503 . S
C305 C52 1.417 . S
C321 C12 1.136 . S
C326 N61 1.230 . S
C342 N91 1.507 . S
C337 C18 1.504 1_455 S
C353 C38 1.475 . S
C358 N65 1.523 . S
C369 C58 1.511 . S
C374 N78 1.507 . S
C390 N117 1.610 . S
C385 C39 1.552 . S
C406 N130 1.540 . S
C401 C59 1.513 . S
C417 C19 1.542 1_655 S
C422 N104 1.527 . S
