# Generated by pormake.
# Topology zzz, (3,6)-cn, num edge types: 1
# Building blocks:
#     Node 0, Type 0, BuildingBlock: KAKCAD_clean_linker_0, # of connection points: 3
#     Node 1, Type 0, BuildingBlock: KAKCAD_clean_linker_0, # of connection points: 3
#     Node 2, Type 0, BuildingBlock: KAKCAD_clean_linker_0, # of connection points: 3
#     Node 3, Type 0, BuildingBlock: KAKCAD_clean_linker_0, # of connection points: 3
#     Node 4, Type 0, BuildingBlock: KAKCAD_clean_linker_0, # of connection points: 3
#     Node 5, Type 0, BuildingBlock: KAKCAD_clean_linker_0, # of connection points: 3
#     Node 6, Type 0, BuildingBlock: KAKCAD_clean_linker_0, # of connection points: 3
#     Node 7, Type 0, BuildingBlock: KAKCAD_clean_linker_0, # of connection points: 3
#     Node 8, Type 1, BuildingBlock: CUKXOW_clean_sbu_0, # of connection points: 6
#     Node 9, Type 1, BuildingBlock: CUKXOW_clean_sbu_0, # of connection points: 6
#     Node 10, Type 1, BuildingBlock: CUKXOW_clean_sbu_0, # of connection points: 6
#     Node 11, Type 1, BuildingBlock: CUKXOW_clean_sbu_0, # of connection points: 6
#     Edge 12, Type (0, 1), BuildingBlock: XIVTED_clean_linker_0, # of connection points: 2
#     Edge 13, Type (0, 1), BuildingBlock: XIVTED_clean_linker_0, # of connection points: 2
#     Edge 14, Type (0, 1), BuildingBlock: XIVTED_clean_linker_0, # of connection points: 2
#     Edge 15, Type (0, 1), BuildingBlock: XIVTED_clean_linker_0, # of connection points: 2
#     Edge 16, Type (0, 1), BuildingBlock: XIVTED_clean_linker_0, # of connection points: 2
#     Edge 17, Type (0, 1), BuildingBlock: XIVTED_clean_linker_0, # of connection points: 2
#     Edge 18, Type (0, 1), BuildingBlock: XIVTED_clean_linker_0, # of connection points: 2
#     Edge 19, Type (0, 1), BuildingBlock: XIVTED_clean_linker_0, # of connection points: 2
#     Edge 20, Type (0, 1), BuildingBlock: XIVTED_clean_linker_0, # of connection points: 2
#     Edge 21, Type (0, 1), BuildingBlock: XIVTED_clean_linker_0, # of connection points: 2
#     Edge 22, Type (0, 1), BuildingBlock: XIVTED_clean_linker_0, # of connection points: 2
#     Edge 23, Type (0, 1), BuildingBlock: XIVTED_clean_linker_0, # of connection points: 2
#     Edge 24, Type (0, 1), BuildingBlock: XIVTED_clean_linker_0, # of connection points: 2
#     Edge 25, Type (0, 1), BuildingBlock: XIVTED_clean_linker_0, # of connection points: 2
#     Edge 26, Type (0, 1), BuildingBlock: XIVTED_clean_linker_0, # of connection points: 2
#     Edge 27, Type (0, 1), BuildingBlock: XIVTED_clean_linker_0, # of connection points: 2
#     Edge 28, Type (0, 1), BuildingBlock: XIVTED_clean_linker_0, # of connection points: 2
#     Edge 29, Type (0, 1), BuildingBlock: XIVTED_clean_linker_0, # of connection points: 2
#     Edge 30, Type (0, 1), BuildingBlock: XIVTED_clean_linker_0, # of connection points: 2
#     Edge 31, Type (0, 1), BuildingBlock: XIVTED_clean_linker_0, # of connection points: 2
#     Edge 32, Type (0, 1), BuildingBlock: XIVTED_clean_linker_0, # of connection points: 2
#     Edge 33, Type (0, 1), BuildingBlock: XIVTED_clean_linker_0, # of connection points: 2
#     Edge 34, Type (0, 1), BuildingBlock: XIVTED_clean_linker_0, # of connection points: 2
#     Edge 35, Type (0, 1), BuildingBlock: XIVTED_clean_linker_0, # of connection points: 2
# Relax obj value: 0.213
# Max RMSD: 0.230
# Mean RMSD: 0.186
data_MOF--net-zzz--node1-CUKXOW_clean_sbu_0--node2-KAKCAD_clean_linker_0--edge1-XIVTED_clean_linker_0
_symmetry_space_group_name_H-M    P1
_symmetry_Int_Tables_number       1
_symmetry_cell_setting            triclinic
loop_
_symmetry_equiv_pos_as_xyz
'x, y, z'
_cell_length_a     58.868452
_cell_length_b     57.508864
_cell_length_c     20.602345
_cell_angle_alpha  92.493942
_cell_angle_beta   88.340626
_cell_angle_gamma 95.514031
loop_
_atom_site_label
_atom_site_type_symbol
_atom_site_fract_x
_atom_site_fract_y
_atom_site_fract_z
_atom_type_partial_charge
C0 C 0.82191 0.45959 0.94947 0.0
C1 C 0.83772 0.44293 0.9532 0.0
C2 C 0.8015 0.4574 0.98577 0.0
C3 C 0.79666 0.43865 0.02704 0.0
C4 C 0.81186 0.42126 0.02784 0.0
C5 C 0.83218 0.4233 0.9908 0.0
C6 C 0.77753 0.43913 0.07516 0.0
C7 C 0.75605 0.44468 0.05689 0.0
C8 C 0.73897 0.44885 0.10394 0.0
C9 C 0.74356 0.44715 0.17025 0.0
C10 C 0.76508 0.44141 0.18914 0.0
C11 C 0.78174 0.43713 0.14107 0.0
C12 C 0.77191 0.44295 0.25815 0.0
C13 C 0.76883 0.46315 0.29696 0.0
C14 C 0.78542 0.42637 0.28126 0.0
C15 C 0.79756 0.43102 0.33833 0.0
C16 C 0.79636 0.45233 0.37389 0.0
C17 C 0.71695 0.4562 0.08281 0.0
C18 C 0.71688 0.47307 0.03549 0.0
C19 C 0.696 0.44567 0.10652 0.0
C20 C 0.67543 0.45119 0.08118 0.0
C21 C 0.67545 0.4675 0.03213 0.0
C22 C 0.69642 0.47862 0.01042 0.0
C23 C 0.78092 0.46778 0.35436 0.0
H24 H 0.82578 0.4748 0.92046 0.0
H25 H 0.79019 0.47116 0.98465 0.0
H26 H 0.80846 0.40661 0.05916 0.0
H27 H 0.84416 0.41029 0.99465 0.0
H28 H 0.75279 0.44617 0.00578 0.0
H29 H 0.79876 0.43404 0.15527 0.0
H30 H 0.73078 0.45107 0.20698 0.0
H31 H 0.75855 0.47627 0.28043 0.0
H32 H 0.78792 0.41053 0.25261 0.0
H33 H 0.80925 0.41869 0.35146 0.0
H34 H 0.73275 0.48173 0.01691 0.0
H35 H 0.69557 0.43261 0.14297 0.0
H36 H 0.77915 0.4841 0.3814 0.0
H37 H 0.69715 0.49107 0.97228 0.0
H38 H 0.65954 0.44251 0.09948 0.0
C39 C 0.90324 0.83084 0.95695 0.0
C40 C 0.92468 0.83125 0.92483 0.0
C41 C 0.8948 0.81157 0.9924 0.0
C42 C 0.90757 0.79227 0.99607 0.0
C43 C 0.92809 0.79188 0.95962 0.0
C44 C 0.93658 0.81118 0.92443 0.0
C45 C 0.90154 0.77441 0.04507 0.0
C46 C 0.90401 0.75073 0.03064 0.0
C47 C 0.90271 0.73455 0.08025 0.0
C48 C 0.89888 0.74235 0.14497 0.0
C49 C 0.8958 0.76592 0.15962 0.0
C50 C 0.89677 0.78169 0.10941 0.0
C51 C 0.89517 0.77536 0.22739 0.0
C52 C 0.87807 0.78955 0.2483 0.0
C53 C 0.91401 0.77403 0.2667 0.0
C54 C 0.91681 0.78839 0.32295 0.0
C55 C 0.90065 0.80415 0.34123 0.0
C56 C 0.90762 0.71012 0.06429 0.0
C57 C 0.89819 0.69807 0.00918 0.0
C58 C 0.92334 0.6995 0.1005 0.0
C59 C 0.93035 0.67775 0.08004 0.0
C60 C 0.92168 0.66618 0.02319 0.0
C61 C 0.90511 0.67632 0.98889 0.0
C62 C 0.88064 0.8036 0.30511 0.0
H63 H 0.89341 0.84582 0.95699 0.0
H64 H 0.87879 0.81219 0.01942 0.0
H65 H 0.93846 0.77738 0.96208 0.0
H66 H 0.95322 0.81095 0.90072 0.0
H67 H 0.90814 0.74512 0.98114 0.0
H68 H 0.89582 0.80013 0.12147 0.0
H69 H 0.89865 0.73026 0.18396 0.0
H70 H 0.86335 0.79076 0.21866 0.0
H71 H 0.92755 0.7634 0.25104 0.0
H72 H 0.93251 0.78837 0.34899 0.0
H73 H 0.88591 0.70579 0.98065 0.0
H74 H 0.93103 0.70845 0.14293 0.0
H75 H 0.86752 0.81499 0.31867 0.0
H76 H 0.89823 0.66797 0.9446 0.0
H77 H 0.94296 0.67026 0.10787 0.0
C78 C 0.66403 0.99003 0.05254 0.0
C79 C 0.6645 0.0051 0.00041 0.0
C80 C 0.68294 0.99004 0.09189 0.0
C81 C 0.70282 0.00478 0.07923 0.0
C82 C 0.70392 0.01876 0.02497 0.0
C83 C 0.68489 0.01905 0.98613 0.0
C84 C 0.72122 0.00769 0.12688 0.0
C85 C 0.74393 0.00521 0.10829 0.0
C86 C 0.76132 0.00917 0.15396 0.0
C87 C 0.7559 0.01598 0.21857 0.0
C88 C 0.73313 0.01869 0.23714 0.0
C89 C 0.71597 0.01428 0.19121 0.0
C90 C 0.72631 0.02561 0.3042 0.0
C91 C 0.7295 0.0112 0.3557 0.0
C92 C 0.71231 0.0439 0.31406 0.0
C93 C 0.69955 0.04606 0.3716 0.0
C94 C 0.70062 0.02999 0.42078 0.0
C95 C 0.78511 0.00671 0.13239 0.0
C96 C 0.79073 0.9857 0.10182 0.0
C97 C 0.80161 0.02598 0.13562 0.0
C98 C 0.823 0.02469 0.10496 0.0
C99 C 0.82828 0.00399 0.07119 0.0
C100 C 0.81217 0.98427 0.07214 0.0
C101 C 0.71678 0.01343 0.41378 0.0
H102 H 0.64888 0.97861 0.06402 0.0
H103 H 0.68182 0.979 0.13339 0.0
H104 H 0.71903 0.03045 0.0148 0.0
H105 H 0.68586 0.03109 0.94698 0.0
H106 H 0.74809 0.00038 0.05818 0.0
H107 H 0.69835 0.01627 0.2055 0.0
H108 H 0.76925 0.01921 0.25389 0.0
H109 H 0.74027 0.99698 0.3491 0.0
H110 H 0.70971 0.0553 0.27495 0.0
H111 H 0.68732 0.05899 0.37452 0.0
H112 H 0.77826 0.97057 0.09931 0.0
H113 H 0.7975 0.04241 0.15864 0.0
H114 H 0.7185 0.00116 0.45132 0.0
H115 H 0.81585 0.96785 0.04829 0.0
H116 H 0.83488 0.04027 0.1049 0.0
C117 C 0.59122 0.71514 0.37484 0.0
C118 C 0.60877 0.70177 0.39232 0.0
C119 C 0.594 0.72918 0.32087 0.0
C120 C 0.61428 0.72998 0.28331 0.0
C121 C 0.63252 0.71841 0.30398 0.0
C122 C 0.6299 0.70465 0.35842 0.0
C123 C 0.6142 0.73739 0.21569 0.0
C124 C 0.61246 0.76072 0.20039 0.0
C125 C 0.61048 0.76647 0.13517 0.0
C126 C 0.60926 0.7486 0.08623 0.0
C127 C 0.60994 0.72518 0.10156 0.0
C128 C 0.61314 0.71986 0.16613 0.0
C129 C 0.6039 0.70599 0.05287 0.0
C130 C 0.58467 0.70678 0.01448 0.0
C131 C 0.61527 0.68557 0.05044 0.0
C132 C 0.60675 0.66586 0.01349 0.0
C133 C 0.58662 0.66616 0.9785 0.0
C134 C 0.60755 0.79059 0.11693 0.0
C135 C 0.5896 0.80246 0.14431 0.0
C136 C 0.62057 0.80036 0.06501 0.0
C137 C 0.61479 0.82076 0.03796 0.0
C138 C 0.59569 0.83169 0.06176 0.0
C139 C 0.58368 0.82284 0.11686 0.0
C140 C 0.57611 0.68708 0.97779 0.0
H141 H 0.57466 0.71331 0.39929 0.0
H142 H 0.57958 0.73766 0.30504 0.0
H143 H 0.64826 0.71869 0.2753 0.0
H144 H 0.64398 0.69512 0.37144 0.0
H145 H 0.61255 0.77421 0.23881 0.0
H146 H 0.61303 0.70174 0.1789 0.0
H147 H 0.60665 0.75282 0.03636 0.0
H148 H 0.57531 0.72212 0.01604 0.0
H149 H 0.63029 0.68457 0.07898 0.0
H150 H 0.61553 0.65016 0.01398 0.0
H151 H 0.57919 0.79514 0.18402 0.0
H152 H 0.63462 0.79161 0.04345 0.0
H153 H 0.56043 0.68789 0.95209 0.0
H154 H 0.56882 0.83075 0.13624 0.0
H155 H 0.62476 0.82744 0.99663 0.0
C156 C 0.19099 0.55992 0.41056 0.0
C157 C 0.17207 0.54523 0.38824 0.0
C158 C 0.21104 0.5629 0.37231 0.0
C159 C 0.2125 0.55128 0.31107 0.0
C160 C 0.19368 0.53639 0.28943 0.0
C161 C 0.17371 0.53357 0.32717 0.0
C162 C 0.23341 0.55443 0.2691 0.0
C163 C 0.25517 0.55444 0.29494 0.0
C164 C 0.27488 0.55518 0.25414 0.0
C165 C 0.27241 0.5555 0.18617 0.0
C166 C 0.25063 0.55568 0.16026 0.0
C167 C 0.23146 0.55569 0.20187 0.0
C168 C 0.24649 0.55331 0.09001 0.0
C169 C 0.24329 0.57316 0.0555 0.0
C170 C 0.2389 0.53115 0.06367 0.0
C171 C 0.22622 0.52895 0.00714 0.0
C172 C 0.22096 0.54893 0.97551 0.0
C173 C 0.29756 0.55404 0.28348 0.0
C174 C 0.30245 0.56561 0.3438 0.0
C175 C 0.31369 0.53998 0.25464 0.0
C176 C 0.33368 0.53669 0.28696 0.0
C177 C 0.33774 0.54717 0.34893 0.0
C178 C 0.32219 0.56203 0.37639 0.0
C179 C 0.23088 0.57098 0.99822 0.0
H180 H 0.19036 0.56902 0.45761 0.0
H181 H 0.22526 0.57454 0.39024 0.0
H182 H 0.19434 0.52679 0.24311 0.0
H183 H 0.1594 0.52245 0.30773 0.0
H184 H 0.25664 0.55265 0.34675 0.0
H185 H 0.21474 0.55585 0.18115 0.0
H186 H 0.28719 0.55541 0.15361 0.0
H187 H 0.24873 0.59046 0.07562 0.0
H188 H 0.24077 0.51566 0.09041 0.0
H189 H 0.21884 0.51166 0.9921 0.0
H190 H 0.29073 0.57704 0.36672 0.0
H191 H 0.31043 0.53066 0.20856 0.0
H192 H 0.22778 0.58673 0.97433 0.0
H193 H 0.32514 0.57062 0.42365 0.0
H194 H 0.34543 0.52511 0.26488 0.0
C195 C 0.06804 0.1915 0.4596 0.0
C196 C 0.08047 0.17186 0.46092 0.0
C197 C 0.07606 0.21056 0.42291 0.0
C198 C 0.09667 0.21037 0.38677 0.0
C199 C 0.10992 0.19153 0.39202 0.0
C200 C 0.10193 0.17247 0.42885 0.0
C201 C 0.10254 0.22808 0.33727 0.0
C202 C 0.09918 0.25158 0.35055 0.0
C203 C 0.10071 0.26755 0.30062 0.0
C204 C 0.10645 0.26003 0.23693 0.0
C205 C 0.10982 0.23641 0.22264 0.0
C206 C 0.10813 0.22074 0.27353 0.0
C207 C 0.11119 0.2268 0.15445 0.0
C208 C 0.09675 0.23382 0.10732 0.0
C209 C 0.12393 0.20775 0.13907 0.0
C210 C 0.12018 0.19427 0.08168 0.0
C211 C 0.10394 0.19983 0.03747 0.0
C212 C 0.09328 0.29114 0.3144 0.0
C213 C 0.07205 0.29331 0.3457 0.0
C214 C 0.1072 0.31141 0.29845 0.0
C215 C 0.10026 0.33353 0.31585 0.0
C216 C 0.07913 0.33562 0.34827 0.0
C217 C 0.06504 0.31526 0.36229 0.0
C218 C 0.09334 0.2206 0.04923 0.0
H219 H 0.05136 0.19152 0.48319 0.0
H220 H 0.06531 0.2247 0.41928 0.0
H221 H 0.12602 0.19108 0.36535 0.0
H222 H 0.11212 0.15779 0.43003 0.0
H223 H 0.09442 0.2573 0.3995 0.0
H224 H 0.10913 0.20225 0.26266 0.0
H225 H 0.10698 0.27223 0.19817 0.0
H226 H 0.08669 0.24843 0.11715 0.0
H227 H 0.13565 0.20221 0.17361 0.0
H228 H 0.12881 0.17853 0.07479 0.0
H229 H 0.06091 0.27792 0.35791 0.0
H230 H 0.12363 0.3101 0.27421 0.0
H231 H 0.08132 0.22596 0.01534 0.0
H232 H 0.04882 0.31626 0.38799 0.0
H233 H 0.11141 0.34897 0.30429 0.0
C234 C 0.32656 0.99525 0.39922 0.0
C235 C 0.34823 0.006 0.3816 0.0
C236 C 0.3076 0.9976 0.36169 0.0
C237 C 0.3097 0.01113 0.30625 0.0
C238 C 0.33102 0.02321 0.29135 0.0
C239 C 0.35007 0.02047 0.32804 0.0
C240 C 0.29041 0.01094 0.26097 0.0
C241 C 0.26762 0.00945 0.28381 0.0
C242 C 0.24948 0.00702 0.24023 0.0
C243 C 0.25424 0.00655 0.17289 0.0
C244 C 0.27693 0.00839 0.14977 0.0
C245 C 0.29477 0.0105 0.19371 0.0
C246 C 0.28297 0.00627 0.08012 0.0
C247 C 0.2823 0.98401 0.0493 0.0
C248 C 0.29505 0.02533 0.05041 0.0
C249 C 0.30809 0.02183 0.99382 0.0
C250 C 0.30948 0.99913 0.96662 0.0
C251 C 0.22567 0.0043 0.2659 0.0
C252 C 0.21954 0.98849 0.31492 0.0
C253 C 0.20923 0.01806 0.2439 0.0
C254 C 0.18728 0.01665 0.27228 0.0
C255 C 0.18134 0.00121 0.32246 0.0
C256 C 0.1976 0.9869 0.34273 0.0
C257 C 0.29551 0.98044 0.99287 0.0
H258 H 0.32426 0.98452 0.44122 0.0
H259 H 0.29153 0.98794 0.37472 0.0
H260 H 0.3332 0.03428 0.25 0.0
H261 H 0.36639 0.029 0.31251 0.0
H262 H 0.26392 0.01017 0.33565 0.0
H263 H 0.31217 0.01069 0.17482 0.0
H264 H 0.24045 0.00426 0.13877 0.0
H265 H 0.27332 0.96905 0.07211 0.0
H266 H 0.29603 0.04257 0.07417 0.0
H267 H 0.31877 0.03657 0.9752 0.0
H268 H 0.23185 0.97751 0.33231 0.0
H269 H 0.21357 0.03042 0.20626 0.0
H270 H 0.29608 0.96281 0.97252 0.0
H271 H 0.1936 0.975 0.3817 0.0
H272 H 0.17502 0.02778 0.25545 0.0
C273 C 0.37945 0.29503 0.00236 0.0
C274 C 0.40064 0.29901 0.96931 0.0
C275 C 0.37744 0.28175 0.05783 0.0
C276 C 0.39647 0.27191 0.0806 0.0
C277 C 0.41672 0.2732 0.04277 0.0
C278 C 0.41884 0.28671 0.98771 0.0
C279 C 0.39764 0.26724 0.15037 0.0
C280 C 0.40468 0.24626 0.17193 0.0
C281 C 0.41022 0.24453 0.2375 0.0
C282 C 0.40917 0.26412 0.28049 0.0
C283 C 0.4028 0.2853 0.25901 0.0
C284 C 0.39599 0.28626 0.19468 0.0
C285 C 0.40683 0.30718 0.30003 0.0
C286 C 0.40338 0.30729 0.36794 0.0
C287 C 0.41649 0.32776 0.27155 0.0
C288 C 0.42317 0.34763 0.30982 0.0
C289 C 0.42065 0.34744 0.37771 0.0
C290 C 0.41879 0.2231 0.26142 0.0
C291 C 0.40698 0.20094 0.24987 0.0
C292 C 0.43804 0.22507 0.30076 0.0
C293 C 0.44447 0.2057 0.33143 0.0
C294 C 0.43191 0.18381 0.32321 0.0
C295 C 0.41352 0.1814 0.28054 0.0
C296 C 0.41037 0.32721 0.40648 0.0
H297 H 0.36488 0.30366 0.98845 0.0
H298 H 0.36165 0.28101 0.08636 0.0
H299 H 0.43172 0.26602 0.05979 0.0
H300 H 0.43544 0.28932 0.96375 0.0
H301 H 0.40675 0.2318 0.13744 0.0
H302 H 0.39113 0.30258 0.17739 0.0
H303 H 0.41447 0.26316 0.33014 0.0
H304 H 0.39578 0.29185 0.39144 0.0
H305 H 0.42007 0.32827 0.21976 0.0
H306 H 0.43144 0.36279 0.28629 0.0
H307 H 0.3921 0.19894 0.2197 0.0
H308 H 0.44783 0.24181 0.30924 0.0
H309 H 0.4081 0.32668 0.45878 0.0
H310 H 0.40358 0.16469 0.27328 0.0
H311 H 0.45905 0.20796 0.36276 0.0
Tb312 Tb 0.99072 0.98128 0.64814 0.0
C313 C 0.0411 0.99768 0.60945 0.0
Tb314 Tb 0.0168 0.02018 0.73456 0.0
O315 O 0.99237 0.00441 0.56635 0.0
O316 O 0.99218 0.01803 0.66146 0.0
O317 O 0.02489 0.97993 0.60632 0.0
C318 C 0.0387 0.05998 0.78064 0.0
O319 O 0.04004 0.01602 0.65077 0.0
C320 C 0.0134 0.97794 0.77941 0.0
C321 C 0.96632 0.00343 0.77354 0.0
O322 O 0.04674 0.03969 0.77874 0.0
O323 O 0.01836 0.05775 0.75723 0.0
O324 O 0.01593 0.99691 0.81622 0.0
O325 O 0.01538 0.98354 0.72104 0.0
O326 O 0.98284 0.02081 0.77859 0.0
O327 O 0.96713 0.98554 0.73072 0.0
C328 C 0.96701 0.9429 0.59974 0.0
O329 O 0.9613 0.96406 0.59676 0.0
O330 O 0.98619 0.94335 0.62946 0.0
C331 C 0.99448 0.02344 0.6029 0.0
Tb332 Tb 0.49974 0.02521 0.65804 0.0
C333 C 0.54826 0.00795 0.6375 0.0
Tb334 Tb 0.51028 0.98036 0.72672 0.0
O335 O 0.52472 0.04679 0.71658 0.0
O336 O 0.50839 0.01614 0.75187 0.0
O337 O 0.53288 0.02039 0.61304 0.0
C338 C 0.52777 0.94935 0.79883 0.0
O339 O 0.54346 0.99316 0.6849 0.0
C340 C 0.48607 0.97324 0.62163 0.0
C341 C 0.4617 0.99764 0.7468 0.0
O342 O 0.5263 0.94793 0.73602 0.0
O343 O 0.51914 0.96812 0.82124 0.0
O344 O 0.48545 0.95861 0.66815 0.0
O345 O 0.50167 0.98939 0.63294 0.0
O346 O 0.47717 0.98543 0.77191 0.0
O347 O 0.46649 0.0121 0.69861 0.0
C348 C 0.4829 0.05681 0.58646 0.0
O349 O 0.48387 0.05783 0.64941 0.0
O350 O 0.49161 0.03815 0.56382 0.0
C351 C 0.52409 0.03217 0.76308 0.0
Tb352 Tb 0.51944 0.52268 0.65818 0.0
C353 C 0.46796 0.51292 0.62148 0.0
Tb354 Tb 0.48939 0.4833 0.7285 0.0
O355 O 0.51631 0.50262 0.56569 0.0
O356 O 0.51452 0.48582 0.65331 0.0
O357 O 0.48627 0.52838 0.62169 0.0
C358 C 0.46436 0.44381 0.75863 0.0
O359 O 0.46634 0.49354 0.65515 0.0
C360 C 0.49645 0.52354 0.79289 0.0
C361 C 0.54064 0.4935 0.76626 0.0
O362 O 0.46001 0.46473 0.77836 0.0
O363 O 0.48275 0.44522 0.72234 0.0
O364 O 0.49275 0.50364 0.82091 0.0
O365 O 0.4941 0.52009 0.7327 0.0
O366 O 0.52272 0.47758 0.76401 0.0
O367 O 0.54187 0.51317 0.73398 0.0
C368 C 0.54486 0.5616 0.62559 0.0
O369 O 0.5495 0.54043 0.6097 0.0
O370 O 0.52598 0.56079 0.65974 0.0
C371 C 0.51219 0.48265 0.59296 0.0
Tb372 Tb 0.98306 0.49998 0.65055 0.0
C373 C 0.02237 0.47035 0.60169 0.0
Tb374 Tb 0.02923 0.50707 0.72205 0.0
O375 O 0.99955 0.51402 0.56218 0.0
O376 O 0.01216 0.52456 0.65286 0.0
O377 O -0.00012 0.47121 0.60543 0.0
C378 C 0.07282 0.51656 0.75481 0.0
O379 O 0.03683 0.48445 0.63731 0.0
C380 C 0.99639 0.48067 0.77896 0.0
C381 C 0.98967 0.53651 0.77108 0.0
O382 O 0.06131 0.49616 0.75635 0.0
O383 O 0.05974 0.53164 0.73531 0.0
O384 O 0.01279 0.4926 0.8103 0.0
O385 O 0.00035 0.4824 0.71905 0.0
O386 O 0.01215 0.53559 0.76808 0.0
O387 O 0.97532 0.52253 0.7349 0.0
C388 C 0.93966 0.49134 0.61526 0.0
O389 O 0.95233 0.51085 0.60806 0.0
O390 O 0.95145 0.4766 0.64227 0.0
C391 C 0.01611 0.52596 0.59276 0.0
H392 H 0.15884 0.03857 0.36557 0.0
H393 H 0.05523 0.96094 0.53427 0.0
H394 H 0.15278 0.96314 0.35784 0.0
H395 H 0.07154 0.03466 0.57834 0.0
H396 H 0.08795 0.96177 0.458 0.0
H397 H 0.12345 0.03778 0.43091 0.0
C398 C 0.14987 0.02184 0.37685 0.0
C399 C 0.15879 0.00089 0.35652 0.0
C400 C 0.08433 0.97774 0.48443 0.0
C401 C 0.11846 0.99984 0.43186 0.0
C402 C 0.06566 0.97729 0.52792 0.0
C403 C 0.06077 0.9977 0.56325 0.0
C404 C 0.09803 0.9988 0.47571 0.0
C405 C 0.07483 0.01841 0.55284 0.0
C406 C 0.12979 0.02139 0.41462 0.0
C407 C 0.14662 0.97969 0.37323 0.0
N408 N 0.09279 0.01843 0.51 0.0
N409 N 0.12709 0.9797 0.41007 0.0
H410 H 0.43985 0.18484 0.45274 0.0
H411 H 0.47632 0.05458 0.45546 0.0
H412 H 0.43627 0.13809 0.2831 0.0
H413 H 0.46835 0.09858 0.6279 0.0
H414 H 0.46198 0.08458 0.39053 0.0
H415 H 0.45068 0.15324 0.51685 0.0
C416 C 0.44141 0.16787 0.42896 0.0
C417 C 0.43741 0.16413 0.36235 0.0
C418 C 0.46328 0.08762 0.44259 0.0
C419 C 0.44973 0.12771 0.43568 0.0
C420 C 0.47151 0.07056 0.47956 0.0
C421 C 0.47364 0.07427 0.54693 0.0
C422 C 0.45734 0.10855 0.47333 0.0
C423 C 0.46705 0.09512 0.57599 0.0
C424 C 0.44747 0.14978 0.46568 0.0
C425 C 0.43921 0.14167 0.33434 0.0
N426 N 0.45933 0.11153 0.53898 0.0
N427 N 0.44544 0.12432 0.37106 0.0
H428 H 0.38294 0.54932 0.31119 0.0
H429 H 0.42328 0.49509 0.63348 0.0
H430 H 0.33697 0.53224 0.47256 0.0
H431 H 0.46876 0.5405 0.51644 0.0
H432 H 0.3916 0.50281 0.56547 0.0
H433 H 0.41505 0.54043 0.37673 0.0
C434 C 0.37965 0.54362 0.36029 0.0
C435 C 0.35738 0.54165 0.38684 0.0
C436 C 0.40853 0.51108 0.55484 0.0
C437 C 0.39373 0.53122 0.46132 0.0
C438 C 0.42661 0.50664 0.59345 0.0
C439 C 0.44864 0.51733 0.58092 0.0
C440 C 0.4126 0.52594 0.50259 0.0
C441 C 0.45198 0.53212 0.52829 0.0
C442 C 0.39791 0.53866 0.39764 0.0
C443 C 0.35395 0.53423 0.45067 0.0
N444 N 0.43417 0.5359 0.49081 0.0
N445 N 0.37192 0.52916 0.48566 0.0
H446 H 0.03717 0.35168 0.33939 0.0
H447 H 0.06732 0.46311 0.57781 0.0
H448 H 0.10476 0.3718 0.41032 0.0
H449 H 0.99898 0.43815 0.52033 0.0
H450 H 0.08227 0.43308 0.50548 0.0
H451 H 0.02401 0.38683 0.39284 0.0
C452 C 0.04929 0.36365 0.36575 0.0
C453 C 0.07202 0.35868 0.37117 0.0
C454 C 0.06402 0.43427 0.50851 0.0
C455 C 0.05706 0.39891 0.43281 0.0
C456 C 0.05543 0.45138 0.54994 0.0
C457 C 0.0318 0.45297 0.55594 0.0
C458 C 0.04887 0.41866 0.47271 0.0
C459 C 0.0173 0.43746 0.51791 0.0
C460 C 0.04178 0.38371 0.39626 0.0
C461 C 0.0871 0.37499 0.40488 0.0
N462 N 0.02606 0.42089 0.47827 0.0
N463 N 0.07929 0.39426 0.43513 0.0
H464 H 0.87135 0.02545 0.09641 0.0
H465 H 0.927 0.97415 0.76885 0.0
H466 H 0.83381 0.98168 0.95256 0.0
H467 H 0.95996 0.03236 0.88116 0.0
H468 H 0.89421 0.97375 0.8435 0.0
H469 H 0.90544 0.02552 0.02521 0.0
C470 C 0.87023 0.01585 0.05006 0.0
C471 C 0.84961 0.00343 0.03081 0.0
C472 C 0.90858 0.98667 0.85179 0.0
C473 C 0.8886 0.00325 0.94965 0.0
C474 C 0.92737 0.98691 0.80916 0.0
C475 C 0.94625 0.00344 0.81841 0.0
C476 C 0.90864 0.00295 0.90456 0.0
C477 C 0.9457 0.01944 0.87182 0.0
C478 C 0.88971 0.01585 0.00958 0.0
C479 C 0.84934 0.99108 0.97042 0.0
N480 N 0.92718 0.01878 0.91304 0.0
N481 N 0.86849 0.9913 0.9322 0.0
H482 H 0.57756 0.87177 0.10946 0.0
H483 H 0.54676 0.91015 0.75546 0.0
H484 H 0.59348 0.8344 0.93016 0.0
H485 H 0.53275 0.9506 0.93074 0.0
H486 H 0.56428 0.88245 0.82006 0.0
H487 H 0.56137 0.90114 0.0464 0.0
C488 C 0.57774 0.86977 0.05694 0.0
C489 C 0.58704 0.85063 0.02514 0.0
C490 C 0.5574 0.89736 0.84462 0.0
C491 C 0.56855 0.8841 0.9528 0.0
C492 C 0.54737 0.91315 0.80769 0.0
C493 C 0.53824 0.93257 0.83795 0.0
C494 C 0.5583 0.90096 0.91246 0.0
C495 C 0.53953 0.93573 0.9057 0.0
C496 C 0.56856 0.88657 0.02099 0.0
C497 C 0.58693 0.84904 0.95691 0.0
N498 N 0.54935 0.92003 0.94082 0.0
N499 N 0.57779 0.86547 0.92322 0.0
H500 H 0.66272 0.50949 0.99449 0.0
H501 H 0.54784 0.45352 0.82752 0.0
H502 H 0.63929 0.43607 0.99745 0.0
H503 H 0.57697 0.52444 0.8016 0.0
H504 H 0.57935 0.44754 0.89769 0.0
H505 H 0.62936 0.51604 0.9325 0.0
C506 C 0.65053 0.49474 0.98228 0.0
C507 C 0.65397 0.47214 0.0008 0.0
C508 C 0.57884 0.4644 0.87661 0.0
C509 C 0.61558 0.47958 0.92997 0.0
C510 C 0.56085 0.46784 0.83648 0.0
C511 C 0.5598 0.48947 0.80814 0.0
C512 C 0.59587 0.48276 0.88893 0.0
C513 C 0.57715 0.50739 0.82178 0.0
C514 C 0.63145 0.49851 0.94695 0.0
C515 C 0.6373 0.4538 0.9847 0.0
N516 N 0.59444 0.50362 0.86117 0.0
N517 N 0.61891 0.4579 0.9499 0.0
H518 H 0.89855 0.62677 0.96849 0.0
H519 H 0.01254 0.57091 0.8475 0.0
H520 H 0.96638 0.65668 0.01616 0.0
H521 H 0.94458 0.5417 0.79799 0.0
H522 H 0.99589 0.60057 0.9174 0.0
H523 H 0.91503 0.59352 0.91382 0.0
C524 C 0.91691 0.62626 0.9678 0.0
C525 C 0.93111 0.64461 0.99659 0.0
C526 C 0.98463 0.58759 0.89144 0.0
C527 C 0.95012 0.60662 0.93406 0.0
C528 C 0.99413 0.57065 0.85146 0.0
C529 C 0.97997 0.55393 0.81614 0.0
C530 C 0.96079 0.58784 0.89615 0.0
C531 C 0.95622 0.55439 0.82361 0.0
C532 C 0.92631 0.60725 0.93674 0.0
C533 C 0.95476 0.64286 0.9951 0.0
N534 N 0.9474 0.57114 0.86247 0.0
N535 N 0.96353 0.62431 0.96384 0.0
H536 H 0.05453 0.16629 0.57365 0.0
H537 H 0.02176 0.02979 0.49547 0.0
H538 H 0.08147 0.12741 0.40966 0.0
H539 H 0.99396 0.06707 0.66069 0.0
H540 H 0.04416 0.06566 0.46468 0.0
H541 H 0.03333 0.13017 0.60962 0.0
C542 C 0.05613 0.15015 0.54552 0.0
C543 C 0.0698 0.1499 0.48852 0.0
C544 C 0.03319 0.0661 0.50772 0.0
C545 C 0.04553 0.10863 0.52907 0.0
C546 C 0.02025 0.04565 0.52497 0.0
C547 C 0.00625 0.04554 0.58109 0.0
C548 C 0.03194 0.08666 0.54654 0.0
C549 C 0.005 0.06646 0.61786 0.0
C550 C 0.04403 0.12956 0.56605 0.0
C551 C 0.07142 0.12845 0.45434 0.0
N552 N 0.01774 0.08625 0.60002 0.0
N553 N 0.05933 0.10875 0.47491 0.0
H554 H 0.3874 0.03531 0.40542 0.0
H555 H 0.44296 0.95214 0.63554 0.0
H556 H 0.35681 0.96514 0.43675 0.0
H557 H 0.48496 0.99828 0.51224 0.0
H558 H 0.40948 0.95961 0.57485 0.0
H559 H 0.42188 0.02568 0.45763 0.0
C560 C 0.38785 0.01788 0.42288 0.0
C561 C 0.36897 0.00105 0.41643 0.0
C562 C 0.42605 0.96807 0.56104 0.0
C563 C 0.40823 0.99024 0.47757 0.0
C564 C 0.44514 0.96375 0.59534 0.0
C565 C 0.46658 0.97522 0.5798 0.0
C566 C 0.42843 0.98414 0.51145 0.0
C567 C 0.4685 0.99002 0.52734 0.0
C568 C 0.40754 0.01247 0.45278 0.0
C569 C 0.37057 0.97893 0.44166 0.0
N570 N 0.44956 0.99439 0.49545 0.0
N571 N 0.38977 0.97424 0.47147 0.0
H572 H 0.41757 0.39385 0.35991 0.0
H573 H 0.51102 0.43703 0.62473 0.0
H574 H 0.44698 0.34709 0.48492 0.0
H575 H 0.48356 0.48231 0.49183 0.0
H576 H 0.48609 0.40401 0.57933 0.0
H577 H 0.43929 0.42692 0.41473 0.0
C578 C 0.42845 0.39059 0.39941 0.0
C579 C 0.43065 0.36771 0.41756 0.0
C580 C 0.48552 0.42116 0.56009 0.0
C581 C 0.45574 0.40542 0.48016 0.0
C582 C 0.49968 0.43994 0.58601 0.0
C583 C 0.49906 0.4623 0.56234 0.0
C584 C 0.47079 0.42489 0.50986 0.0
C585 C 0.48455 0.46525 0.51125 0.0
C586 C 0.44088 0.40945 0.4306 0.0
C587 C 0.44472 0.36448 0.46963 0.0
N588 N 0.47091 0.44675 0.48686 0.0
N589 N 0.45693 0.38313 0.49873 0.0
H590 H 0.1434 0.50526 0.4018 0.0
H591 H 0.05034 0.55795 0.63557 0.0
H592 H 0.15124 0.5783 0.46354 0.0
H593 H 0.0338 0.50527 0.48456 0.0
H594 H 0.08982 0.56296 0.59145 0.0
H595 H 0.10553 0.50166 0.45336 0.0
C596 C 0.1372 0.52057 0.42616 0.0
C597 C 0.15038 0.54227 0.42697 0.0
C598 C 0.07742 0.55044 0.56801 0.0
C599 C 0.1072 0.53802 0.48736 0.0
C600 C 0.05505 0.54756 0.59306 0.0
C601 C 0.03899 0.53116 0.56362 0.0
C602 C 0.08365 0.53643 0.51417 0.0
C603 C 0.04568 0.51821 0.50839 0.0
C604 C 0.11561 0.51844 0.45571 0.0
C605 C 0.1417 0.56124 0.46159 0.0
N606 N 0.0676 0.52092 0.48588 0.0
N607 N 0.12055 0.55871 0.4903 0.0
H608 H 0.92416 0.87552 0.97827 0.0
H609 H 0.01368 0.9346 0.72018 0.0
H610 H 0.95128 0.83727 0.81331 0.0
H611 H 0.9866 0.97111 0.88782 0.0
H612 H 0.99055 0.89879 0.75124 0.0
H613 H 0.94566 0.91103 0.94205 0.0
C614 C 0.93433 0.87462 0.93373 0.0
C615 C 0.93584 0.8533 0.89874 0.0
C616 C 0.98971 0.91462 0.78129 0.0
C617 C 0.96113 0.89399 0.85787 0.0
C618 C 0.00283 0.935 0.76347 0.0
C619 C 0.00174 0.95575 0.80107 0.0
C620 C 0.97555 0.9151 0.83736 0.0
C621 C 0.98794 0.95539 0.85761 0.0
C622 C 0.94685 0.89492 0.91348 0.0
C623 C 0.94978 0.85324 0.8422 0.0
N624 N 0.97529 0.93541 0.87386 0.0
N625 N 0.96196 0.87327 0.82364 0.0
H626 H 0.66052 0.01293 0.87046 0.0
H627 H 0.52495 0.01027 0.87785 0.0
H628 H 0.62021 0.0031 0.04755 0.0
H629 H 0.56828 0.04791 0.73768 0.0
H630 H 0.55912 0.00217 0.9357 0.0
H631 H 0.62601 0.02012 0.81459 0.0
C632 C 0.64449 0.01228 0.89771 0.0
C633 C 0.64342 0.00752 0.96409 0.0
C634 C 0.56108 0.0123 0.89245 0.0
C635 C 0.60379 0.01536 0.89994 0.0
C636 C 0.54167 0.01683 0.85951 0.0
C637 C 0.54393 0.0295 0.80284 0.0
C638 C 0.58279 0.02037 0.86785 0.0
C639 C 0.56584 0.03807 0.78136 0.0
C640 C 0.62479 0.01633 0.86568 0.0
C641 C 0.62194 0.00635 0.99623 0.0
N642 N 0.58447 0.03312 0.81351 0.0
N643 N 0.60298 0.01024 0.96385 0.0
H644 H 0.58279 0.62215 0.02591 0.0
H645 H 0.49645 0.56807 0.7544 0.0
H646 H 0.56415 0.66039 0.86281 0.0
H647 H 0.52345 0.52703 0.89892 0.0
H648 H 0.51992 0.60262 0.7964 0.0
H649 H 0.56084 0.58729 0.98138 0.0
C650 C 0.5744 0.62316 0.98017 0.0
C651 C 0.57533 0.64431 0.94814 0.0
C652 C 0.52072 0.58609 0.81905 0.0
C653 C 0.5496 0.60451 0.8978 0.0
C654 C 0.50736 0.56643 0.79507 0.0
C655 C 0.50835 0.54478 0.82276 0.0
C656 C 0.53495 0.58405 0.87166 0.0
C657 C 0.52223 0.54351 0.87635 0.0
C658 C 0.56166 0.60326 0.95511 0.0
C659 C 0.56366 0.64459 0.8897 0.0
N660 N 0.53509 0.5629 0.89897 0.0
N661 N 0.55119 0.62503 0.86662 0.0
H662 H 0.86183 0.41347 0.8754 0.0
H663 H 0.97718 0.49795 0.89003 0.0
H664 H 0.8664 0.48252 0.96738 0.0
H665 H 0.96465 0.44684 0.73265 0.0
H666 H 0.93831 0.48802 0.9321 0.0
H667 H 0.90128 0.42142 0.8334 0.0
C668 C 0.87113 0.43029 0.88644 0.0
C669 C 0.8609 0.44746 0.92429 0.0
C670 C 0.9441 0.47891 0.8885 0.0
C671 C 0.90577 0.45641 0.87805 0.0
C672 C 0.96628 0.48441 0.86488 0.0
C673 C 0.97391 0.47323 0.80777 0.0
C674 C 0.92964 0.46181 0.85534 0.0
C675 C 0.95916 0.45596 0.77657 0.0
C676 C 0.89352 0.43481 0.86252 0.0
C677 C 0.8736 0.46896 0.93756 0.0
N678 N 0.93765 0.45069 0.80085 0.0
N679 N 0.89543 0.47276 0.91487 0.0
H680 H 0.06055 0.1907 0.99131 0.0
H681 H 0.08216 0.06795 0.8258 0.0
H682 H 0.12847 0.16859 0.96494 0.0
H683 H 0.02132 0.10201 0.79669 0.0
H684 H 0.09978 0.10437 0.87698 0.0
H685 H 0.04624 0.15872 0.91857 0.0
C686 C 0.07266 0.17953 0.96924 0.0
C687 C 0.09587 0.1825 0.98506 0.0
C688 C 0.08267 0.10393 0.85875 0.0
C689 C 0.07915 0.14496 0.90296 0.0
C690 C 0.0726 0.08316 0.82986 0.0
C691 C 0.05021 0.082 0.8077 0.0
C692 C 0.0701 0.12349 0.86615 0.0
C693 C 0.03857 0.10216 0.81365 0.0
C694 C 0.06434 0.16103 0.92798 0.0
C695 C 0.11038 0.16681 0.95564 0.0
N696 N 0.04855 0.12201 0.84294 0.0
N697 N 0.10174 0.14853 0.9168 0.0
H698 H 0.32426 0.02398 0.85982 0.0
H699 H 0.44318 0.96821 0.84007 0.0
H700 H 0.33834 0.96484 0.96889 0.0
H701 H 0.42571 0.02061 0.71097 0.0
H702 H 0.40395 0.96507 0.88315 0.0
H703 H 0.36015 0.02104 0.79842 0.0
C704 C 0.3347 0.01012 0.87 0.0
C705 C 0.32834 0.99471 0.91973 0.0
C706 C 0.40868 0.97715 0.8451 0.0
C707 C 0.36957 0.99145 0.85057 0.0
C708 C 0.43113 0.97903 0.82069 0.0
C709 C 0.43789 0.99492 0.77242 0.0
C710 C 0.3929 0.99135 0.8214 0.0
C711 C 0.4214 0.00829 0.74868 0.0
C712 C 0.3552 0.00846 0.83505 0.0
C713 C 0.34245 0.97698 0.93064 0.0
N714 N 0.39975 0.00634 0.77377 0.0
N715 N 0.36254 0.97605 0.89703 0.0
H716 H 0.38351 0.3417 0.97933 0.0
H717 H 0.47238 0.39938 0.71947 0.0
H718 H 0.42829 0.30195 0.85848 0.0
H719 H 0.4275 0.43818 0.84204 0.0
H720 H 0.45325 0.36289 0.75957 0.0
H721 H 0.39556 0.37607 0.91818 0.0
C722 C 0.39546 0.33994 0.9389 0.0
C723 C 0.40494 0.31873 0.92447 0.0
C724 C 0.44744 0.37935 0.7773 0.0
C725 C 0.41945 0.35861 0.8552 0.0
C726 C 0.45836 0.40017 0.75448 0.0
C727 C 0.45162 0.42177 0.77811 0.0
C728 C 0.4297 0.38017 0.82424 0.0
C729 C 0.43329 0.42187 0.82298 0.0
C730 C 0.40256 0.35978 0.90437 0.0
C731 C 0.42078 0.31795 0.87221 0.0
N732 N 0.42309 0.40139 0.84501 0.0
N733 N 0.42772 0.33766 0.83998 0.0
H734 H 0.18906 0.57976 0.95589 0.0
H735 H 0.10378 0.48581 0.77888 0.0
H736 H 0.20998 0.51314 0.88414 0.0
H737 H 0.09589 0.55953 0.77665 0.0
H738 H 0.14249 0.49512 0.81931 0.0
H739 H 0.15519 0.57306 0.89048 0.0
C740 C 0.18696 0.56395 0.92533 0.0
C741 C 0.20255 0.54689 0.92651 0.0
C742 C 0.13239 0.50927 0.80927 0.0
C743 C 0.16298 0.53879 0.85302 0.0
C744 C 0.11029 0.50396 0.78656 0.0
C745 C 0.09664 0.52195 0.775 0.0
C746 C 0.1407 0.53272 0.82162 0.0
C747 C 0.10587 0.54517 0.78531 0.0
C748 C 0.16738 0.56007 0.88833 0.0
C749 C 0.19827 0.52657 0.88646 0.0
N750 N 0.12724 0.5499 0.80891 0.0
N751 N 0.17873 0.5229 0.85232 0.0
H752 H 0.92412 0.80243 0.45507 0.0
H753 H 0.92898 0.94074 0.52699 0.0
H754 H 0.89039 0.84965 0.34126 0.0
H755 H 0.97592 0.89736 0.60807 0.0
H756 H 0.90933 0.90597 0.47371 0.0
H757 H 0.93799 0.83563 0.52635 0.0
C758 C 0.91941 0.81965 0.4453 0.0
C759 C 0.90616 0.82313 0.39149 0.0
C760 C 0.92385 0.90401 0.50345 0.0
C761 C 0.9218 0.86113 0.47339 0.0
C762 C 0.93504 0.92383 0.53386 0.0
C763 C 0.95421 0.92186 0.57121 0.0
C764 C 0.93185 0.88205 0.51065 0.0
C765 C 0.9613 0.89958 0.57901 0.0
C766 C 0.9273 0.83858 0.48616 0.0
C767 C 0.90026 0.84587 0.38233 0.0
N768 N 0.95018 0.88049 0.54863 0.0
N769 N 0.90825 0.86395 0.42249 0.0
H770 H 0.67896 0.06533 0.48426 0.0
H771 H 0.58189 0.97881 0.64809 0.0
H772 H 0.67971 0.99018 0.47364 0.0
H773 H 0.56931 0.04551 0.57501 0.0
H774 H 0.62168 0.9853 0.60998 0.0
H775 H 0.64277 0.06069 0.5458 0.0
C776 C 0.67178 0.04789 0.49557 0.0
C777 C 0.68228 0.02811 0.47221 0.0
C778 C 0.61018 0.99851 0.60257 0.0
C779 C 0.64111 0.02282 0.54361 0.0
C780 C 0.58749 0.99482 0.62408 0.0
C781 C 0.57219 0.0115 0.61374 0.0
C782 C 0.61771 0.01919 0.5716 0.0
C783 C 0.58043 0.03201 0.58289 0.0
C784 C 0.65113 0.04531 0.5307 0.0
C785 C 0.67243 0.00601 0.49043 0.0
N786 N 0.60267 0.0353 0.56293 0.0
N787 N 0.65229 0.00396 0.52445 0.0
H788 H 0.62401 0.65815 0.38451 0.0
H789 H 0.53653 0.60666 0.65643 0.0
H790 H 0.58189 0.70107 0.50473 0.0
H791 H 0.58204 0.56552 0.54318 0.0
H792 H 0.55547 0.64212 0.60968 0.0
H793 H 0.61193 0.62513 0.45086 0.0
C794 C 0.61261 0.66087 0.42574 0.0
C795 C 0.60394 0.68259 0.43866 0.0
C796 C 0.56148 0.62538 0.59551 0.0
C797 C 0.58939 0.64426 0.51408 0.0
C798 C 0.55067 0.60515 0.62214 0.0
C799 C 0.55763 0.58318 0.60302 0.0
C800 C 0.57928 0.62356 0.54917 0.0
C801 C 0.57608 0.58215 0.55885 0.0
C802 C 0.60551 0.64182 0.46334 0.0
C803 C 0.58876 0.68462 0.4921 0.0
N804 N 0.58613 0.60203 0.53295 0.0
N805 N 0.58179 0.66566 0.52739 0.0
H806 H 0.81844 0.49591 0.39728 0.0
H807 H 0.91178 0.45055 0.62226 0.0
H808 H 0.81407 0.42553 0.46482 0.0
H809 H 0.9142 0.52081 0.55563 0.0
H810 H 0.8739 0.44196 0.57535 0.0
H811 H 0.85075 0.50644 0.4669 0.0
C812 C 0.82388 0.48274 0.42782 0.0
C813 C 0.81347 0.45969 0.42457 0.0
C814 C 0.88263 0.45931 0.5715 0.0
C815 C 0.85122 0.47158 0.50341 0.0
C816 C 0.90423 0.4642 0.5982 0.0
C817 C 0.91615 0.48634 0.59215 0.0
C818 C 0.87297 0.47671 0.53847 0.0
C819 C 0.90562 0.50346 0.5609 0.0
C820 C 0.84259 0.48874 0.46718 0.0
C821 C 0.82177 0.44339 0.46466 0.0
N822 N 0.88472 0.49823 0.53483 0.0
N823 N 0.8403 0.44958 0.50182 0.0
loop_
_geom_bond_atom_site_label_1
_geom_bond_atom_site_label_2
_geom_bond_distance
_geom_bond_site_symmetry_2
_ccdc_geom_bond_type
C0 C1 1.386 . S
C0 C2 1.397 . S
C0 H24 0.931 . S
C1 C0 1.386 . S
C1 C5 1.397 . S
C2 C0 1.397 . S
C2 C3 1.384 . S
C2 H25 0.930 . S
C3 C2 1.384 . S
C3 C4 1.377 . S
C3 C6 1.481 1_556 S
C4 C3 1.377 . S
C4 C5 1.389 . S
C4 H26 0.929 . S
C5 C1 1.397 . S
C5 C4 1.389 . S
C5 H27 0.931 . S
C6 C3 1.481 1_554 S
C6 C7 1.387 1_554 S
C6 C11 1.390 . S
C7 C6 1.387 1_556 S
C7 C8 1.401 1_556 S
C7 H28 0.930 . S
C8 C7 1.401 1_554 S
C8 C9 1.376 . S
C8 C17 1.511 . S
C9 C8 1.376 . S
C9 C10 1.392 . S
C9 H30 0.931 . S
C10 C9 1.392 . S
C10 C11 1.361 . S
C10 C12 1.500 . S
C11 C6 1.390 . S
C11 C10 1.361 . S
C11 H29 0.931 . S
C12 C10 1.500 . S
C12 C13 1.371 . S
C12 C14 1.365 . S
C13 C12 1.371 . S
C13 C23 1.386 . S
C13 H31 0.931 . S
C14 C12 1.365 . S
C14 C15 1.409 . S
C14 H32 0.929 . S
C15 C14 1.409 . S
C15 C16 1.380 . S
C15 H33 0.930 . S
C16 C15 1.380 . S
C16 C23 1.357 . S
C17 C8 1.511 . S
C17 C18 1.341 1_554 S
C17 C19 1.371 . S
C18 C17 1.341 1_556 S
C18 C22 1.394 . S
C18 H34 0.930 . S
C19 C17 1.371 . S
C19 C20 1.392 . S
C19 H35 0.931 . S
C20 C19 1.392 . S
C20 C21 1.331 . S
C20 H38 0.932 . S
C21 C20 1.331 . S
C21 C22 1.336 1_554 S
C22 C18 1.394 . S
C22 C21 1.336 1_556 S
C22 H37 0.929 . S
C23 C13 1.386 . S
C23 C16 1.357 . S
C23 H36 0.928 . S
H24 C0 0.931 . S
H25 C2 0.930 . S
H26 C4 0.929 . S
H27 C5 0.931 . S
H28 C7 0.930 . S
H29 C11 0.931 . S
H30 C9 0.931 . S
H31 C13 0.931 . S
H32 C14 0.929 . S
H33 C15 0.930 . S
H34 C18 0.930 . S
H35 C19 0.931 . S
H36 C23 0.928 . S
H37 C22 0.929 . S
H38 C20 0.932 . S
C39 C40 1.386 . S
C39 C41 1.397 . S
C39 H63 0.931 . S
C40 C39 1.386 . S
C40 C44 1.397 . S
C41 C39 1.397 . S
C41 C42 1.384 . S
C41 H64 0.930 . S
C42 C41 1.384 . S
C42 C43 1.377 . S
C42 C45 1.481 . S
C43 C42 1.377 . S
C43 C44 1.389 . S
C43 H65 0.929 . S
C44 C40 1.397 . S
C44 C43 1.389 . S
C44 H66 0.931 . S
C45 C42 1.481 . S
C45 C46 1.387 . S
C45 C50 1.390 1_556 S
C46 C45 1.387 . S
C46 C47 1.401 1_556 S
C46 H67 0.930 . S
C47 C46 1.401 1_554 S
C47 C48 1.376 . S
C47 C56 1.511 1_554 S
C48 C47 1.376 . S
C48 C49 1.392 . S
C48 H69 0.931 . S
C49 C48 1.392 . S
C49 C50 1.361 . S
C49 C51 1.500 . S
C50 C45 1.390 1_554 S
C50 C49 1.361 . S
C50 H68 0.931 . S
C51 C49 1.500 . S
C51 C52 1.371 . S
C51 C53 1.365 . S
C52 C51 1.371 . S
C52 C62 1.386 . S
C52 H70 0.931 . S
C53 C51 1.365 . S
C53 C54 1.409 . S
C53 H71 0.929 . S
C54 C53 1.409 . S
C54 C55 1.380 . S
C54 H72 0.930 . S
C55 C54 1.380 . S
C55 C62 1.357 . S
C56 C47 1.511 1_556 S
C56 C57 1.341 . S
C56 C58 1.371 1_556 S
C57 C56 1.341 . S
C57 C61 1.394 . S
C57 H73 0.930 . S
C58 C56 1.371 1_554 S
C58 C59 1.392 . S
C58 H74 0.931 . S
C59 C58 1.392 . S
C59 C60 1.331 1_554 S
C59 H77 0.932 . S
C60 C59 1.331 1_556 S
C60 C61 1.336 . S
C61 C57 1.394 . S
C61 C60 1.336 . S
C61 H76 0.929 . S
C62 C52 1.386 . S
C62 C55 1.357 . S
C62 H75 0.928 . S
H63 C39 0.931 . S
H64 C41 0.930 . S
H65 C43 0.929 . S
H66 C44 0.931 . S
H67 C46 0.930 . S
H68 C50 0.931 . S
H69 C48 0.931 . S
H70 C52 0.931 . S
H71 C53 0.929 . S
H72 C54 0.930 . S
H73 C57 0.930 . S
H74 C58 0.931 . S
H75 C62 0.928 . S
H76 C61 0.929 . S
H77 C59 0.932 . S
C78 C79 1.395 . S
C78 C80 1.397 . S
C78 H102 0.931 . S
C79 C78 1.395 . S
C79 C83 1.389 1_565 S
C80 C78 1.397 . S
C80 C81 1.388 . S
C80 H103 0.930 . S
C81 C80 1.388 . S
C81 C82 1.372 1_566 S
C81 C84 1.478 1_556 S
C82 C81 1.372 1_544 S
C82 C83 1.389 1_554 S
C82 H104 0.929 . S
C83 C79 1.389 1_545 S
C83 C82 1.389 1_556 S
C83 H105 0.931 . S
C84 C81 1.478 1_554 S
C84 C85 1.391 . S
C84 C89 1.391 . S
C85 C84 1.391 . S
C85 C86 1.399 . S
C85 H106 0.930 1_554 S
C86 C85 1.399 . S
C86 C87 1.376 . S
C86 C95 1.515 . S
C87 C86 1.376 . S
C87 C88 1.388 . S
C87 H108 0.939 . S
C88 C87 1.388 . S
C88 C89 1.362 . S
C88 C90 1.499 1_565 S
C89 C84 1.391 . S
C89 C88 1.362 . S
C89 H107 0.930 . S
C90 C88 1.499 1_545 S
C90 C91 1.360 1_545 S
C90 C92 1.376 . S
C91 C90 1.360 1_565 S
C91 C101 1.386 . S
C91 H109 0.931 . S
C92 C90 1.376 . S
C92 C93 1.409 . S
C92 H110 0.929 . S
C93 C92 1.409 . S
C93 C94 1.379 . S
C93 H111 0.930 . S
C94 C93 1.379 . S
C94 C101 1.358 1_545 S
C95 C86 1.515 . S
C95 C96 1.341 . S
C95 C97 1.371 1_565 S
C96 C95 1.341 . S
C96 C100 1.394 1_554 S
C96 H112 0.930 1_554 S
C97 C95 1.371 1_545 S
C97 C98 1.392 . S
C97 H113 0.931 . S
C98 C97 1.392 . S
C98 C99 1.323 1_545 S
C98 H116 0.932 . S
C99 C98 1.323 1_565 S
C99 C100 1.342 1_554 S
C100 C96 1.394 1_556 S
C100 C99 1.342 1_556 S
C100 H115 0.929 . S
C101 C91 1.386 . S
C101 C94 1.358 1_565 S
C101 H114 0.928 . S
H102 C78 0.931 . S
H103 C80 0.930 . S
H104 C82 0.929 . S
H105 C83 0.931 . S
H106 C85 0.930 1_556 S
H107 C89 0.930 . S
H108 C87 0.939 . S
H109 C91 0.931 . S
H110 C92 0.929 . S
H111 C93 0.930 . S
H112 C96 0.930 1_556 S
H113 C97 0.931 . S
H114 C101 0.928 . S
H115 C100 0.929 . S
H116 C98 0.932 . S
C117 C118 1.386 . S
C117 C119 1.397 . S
C117 H141 0.931 . S
C118 C117 1.386 . S
C118 C122 1.397 . S
C119 C117 1.397 . S
C119 C120 1.384 . S
C119 H142 0.930 . S
C120 C119 1.384 . S
C120 C121 1.377 . S
C120 C123 1.481 . S
C121 C120 1.377 . S
C121 C122 1.389 . S
C121 H143 0.929 . S
C122 C118 1.397 . S
C122 C121 1.389 . S
C122 H144 0.931 . S
C123 C120 1.481 . S
C123 C124 1.387 . S
C123 C128 1.390 . S
C124 C123 1.387 . S
C124 C125 1.401 . S
C124 H145 0.930 . S
C125 C124 1.401 . S
C125 C126 1.376 . S
C125 C134 1.511 . S
C126 C125 1.376 . S
C126 C127 1.392 . S
C126 H147 0.931 1_554 S
C127 C126 1.392 . S
C127 C128 1.361 . S
C127 C129 1.500 1_554 S
C128 C123 1.390 . S
C128 C127 1.361 . S
C128 H146 0.931 . S
C129 C127 1.500 1_556 S
C129 C130 1.371 . S
C129 C131 1.365 . S
C130 C129 1.371 . S
C130 C140 1.386 . S
C130 H148 0.931 . S
C131 C129 1.365 . S
C131 C132 1.409 . S
C131 H149 0.929 1_556 S
C132 C131 1.409 . S
C132 C133 1.380 . S
C132 H150 0.930 . S
C133 C132 1.380 . S
C133 C140 1.357 . S
C134 C125 1.511 . S
C134 C135 1.341 . S
C134 C136 1.371 1_554 S
C135 C134 1.341 . S
C135 C139 1.394 . S
C135 H151 0.930 . S
C136 C134 1.371 1_556 S
C136 C137 1.392 . S
C136 H152 0.931 . S
C137 C136 1.392 . S
C137 C138 1.331 1_556 S
C137 H155 0.932 . S
C138 C137 1.331 1_554 S
C138 C139 1.336 . S
C139 C135 1.394 . S
C139 C138 1.336 . S
C139 H154 0.929 . S
C140 C130 1.386 . S
C140 C133 1.357 . S
C140 H153 0.928 . S
H141 C117 0.931 . S
H142 C119 0.930 . S
H143 C121 0.929 . S
H144 C122 0.931 . S
H145 C124 0.930 . S
H146 C128 0.931 . S
H147 C126 0.931 1_556 S
H148 C130 0.931 . S
H149 C131 0.929 1_554 S
H150 C132 0.930 . S
H151 C135 0.930 . S
H152 C136 0.931 . S
H153 C140 0.928 . S
H154 C139 0.929 . S
H155 C137 0.932 . S
C156 C157 1.386 . S
C156 C158 1.397 . S
C156 H180 0.931 . S
C157 C156 1.386 . S
C157 C161 1.397 . S
C158 C156 1.397 . S
C158 C159 1.384 . S
C158 H181 0.930 . S
C159 C158 1.384 . S
C159 C160 1.377 . S
C159 C162 1.481 . S
C160 C159 1.377 . S
C160 C161 1.389 . S
C160 H182 0.929 . S
C161 C157 1.397 . S
C161 C160 1.389 . S
C161 H183 0.931 . S
C162 C159 1.481 . S
C162 C163 1.387 . S
C162 C167 1.390 . S
C163 C162 1.387 . S
C163 C164 1.401 . S
C163 H184 0.930 . S
C164 C163 1.401 . S
C164 C165 1.376 . S
C164 C173 1.511 . S
C165 C164 1.376 . S
C165 C166 1.392 . S
C165 H186 0.931 . S
C166 C165 1.392 . S
C166 C167 1.361 . S
C166 C168 1.500 . S
C167 C162 1.390 . S
C167 C166 1.361 . S
C167 H185 0.931 . S
C168 C166 1.500 . S
C168 C169 1.371 . S
C168 C170 1.365 . S
C169 C168 1.371 . S
C169 C179 1.386 . S
C169 H187 0.931 . S
C170 C168 1.365 . S
C170 C171 1.409 . S
C170 H188 0.929 . S
C171 C170 1.409 . S
C171 C172 1.380 . S
C171 H189 0.930 . S
C172 C171 1.380 . S
C172 C179 1.357 . S
C173 C164 1.511 . S
C173 C174 1.341 . S
C173 C175 1.371 . S
C174 C173 1.341 . S
C174 C178 1.394 . S
C174 H190 0.930 . S
C175 C173 1.371 . S
C175 C176 1.392 . S
C175 H191 0.931 . S
C176 C175 1.392 . S
C176 C177 1.331 . S
C176 H194 0.932 . S
C177 C176 1.331 . S
C177 C178 1.336 . S
C178 C174 1.394 . S
C178 C177 1.336 . S
C178 H193 0.929 . S
C179 C169 1.386 . S
C179 C172 1.357 . S
C179 H192 0.928 . S
H180 C156 0.931 . S
H181 C158 0.930 . S
H182 C160 0.929 . S
H183 C161 0.931 . S
H184 C163 0.930 . S
H185 C167 0.931 . S
H186 C165 0.931 . S
H187 C169 0.931 . S
H188 C170 0.929 . S
H189 C171 0.930 . S
H190 C174 0.930 . S
H191 C175 0.931 . S
H192 C179 0.928 . S
H193 C178 0.929 . S
H194 C176 0.932 . S
C195 C196 1.386 . S
C195 C197 1.397 . S
C195 H219 0.931 . S
C196 C195 1.386 . S
C196 C200 1.397 . S
C197 C195 1.397 . S
C197 C198 1.384 . S
C197 H220 0.930 . S
C198 C197 1.384 . S
C198 C199 1.377 . S
C198 C201 1.481 . S
C199 C198 1.377 . S
C199 C200 1.389 . S
C199 H221 0.929 . S
C200 C196 1.397 . S
C200 C199 1.389 . S
C200 H222 0.931 . S
C201 C198 1.481 . S
C201 C202 1.387 . S
C201 C206 1.390 . S
C202 C201 1.387 . S
C202 C203 1.401 . S
C202 H223 0.930 . S
C203 C202 1.401 . S
C203 C204 1.376 . S
C203 C212 1.511 . S
C204 C203 1.376 . S
C204 C205 1.392 . S
C204 H225 0.931 . S
C205 C204 1.392 . S
C205 C206 1.361 . S
C205 C207 1.500 . S
C206 C201 1.390 . S
C206 C205 1.361 . S
C206 H224 0.931 . S
C207 C205 1.500 . S
C207 C208 1.371 . S
C207 C209 1.365 . S
C208 C207 1.371 . S
C208 C218 1.386 . S
C208 H226 0.931 . S
C209 C207 1.365 . S
C209 C210 1.409 . S
C209 H227 0.929 . S
C210 C209 1.409 . S
C210 C211 1.380 . S
C210 H228 0.930 . S
C211 C210 1.380 . S
C211 C218 1.357 . S
C212 C203 1.511 . S
C212 C213 1.341 . S
C212 C214 1.371 . S
C213 C212 1.341 . S
C213 C217 1.394 . S
C213 H229 0.930 . S
C214 C212 1.371 . S
C214 C215 1.392 . S
C214 H230 0.931 . S
C215 C214 1.392 . S
C215 C216 1.331 . S
C215 H233 0.932 . S
C216 C215 1.331 . S
C216 C217 1.336 . S
C217 C213 1.394 . S
C217 C216 1.336 . S
C217 H232 0.929 . S
C218 C208 1.386 . S
C218 C211 1.357 . S
C218 H231 0.928 . S
H219 C195 0.931 . S
H220 C197 0.930 . S
H221 C199 0.929 . S
H222 C200 0.931 . S
H223 C202 0.930 . S
H224 C206 0.931 . S
H225 C204 0.931 . S
H226 C208 0.931 . S
H227 C209 0.929 . S
H228 C210 0.930 . S
H229 C213 0.930 . S
H230 C214 0.931 . S
H231 C218 0.928 . S
H232 C217 0.929 . S
H233 C215 0.932 . S
C234 C235 1.386 1_565 S
C234 C236 1.397 . S
C234 H258 0.931 . S
C235 C234 1.386 1_545 S
C235 C239 1.397 . S
C236 C234 1.397 . S
C236 C237 1.384 1_565 S
C236 H259 0.930 . S
C237 C236 1.384 1_545 S
C237 C238 1.377 . S
C237 C240 1.481 . S
C238 C237 1.377 . S
C238 C239 1.389 . S
C238 H260 0.929 . S
C239 C235 1.397 . S
C239 C238 1.389 . S
C239 H261 0.931 . S
C240 C237 1.481 . S
C240 C241 1.387 . S
C240 C245 1.390 . S
C241 C240 1.387 . S
C241 C242 1.401 . S
C241 H262 0.930 . S
C242 C241 1.401 . S
C242 C243 1.376 . S
C242 C251 1.511 . S
C243 C242 1.376 . S
C243 C244 1.392 . S
C243 H264 0.931 . S
C244 C243 1.392 . S
C244 C245 1.361 . S
C244 C246 1.500 . S
C245 C240 1.390 . S
C245 C244 1.361 . S
C245 H263 0.931 . S
C246 C244 1.500 . S
C246 C247 1.371 1_545 S
C246 C248 1.365 . S
C247 C246 1.371 1_565 S
C247 C257 1.386 . S
C247 H265 0.931 . S
C248 C246 1.365 . S
C248 C249 1.409 . S
C248 H266 0.929 . S
C249 C248 1.409 . S
C249 C250 1.380 . S
C249 H267 0.930 . S
C250 C249 1.380 . S
C250 C257 1.357 1_545 S
C251 C242 1.511 . S
C251 C252 1.341 1_545 S
C251 C253 1.371 . S
C252 C251 1.341 1_565 S
C252 C256 1.399 . S
C252 H268 0.930 . S
C253 C251 1.371 . S
C253 C254 1.392 . S
C253 H269 0.931 . S
C254 C253 1.392 . S
C254 C255 1.331 . S
C254 H272 0.932 . S
C255 C254 1.331 . S
C255 C256 1.320 1_545 S
C256 C252 1.399 . S
C256 C255 1.320 1_565 S
C256 H271 0.942 . S
C257 C247 1.386 . S
C257 C250 1.357 1_565 S
C257 H270 0.916 1_554 S
H258 C234 0.931 . S
H259 C236 0.930 . S
H260 C238 0.929 . S
H261 C239 0.931 . S
H262 C241 0.930 . S
H263 C245 0.931 . S
H264 C243 0.931 . S
H265 C247 0.931 . S
H266 C248 0.929 . S
H267 C249 0.930 . S
H268 C252 0.930 . S
H269 C253 0.931 . S
H270 C257 0.916 1_556 S
H271 C256 0.942 . S
H272 C254 0.932 . S
C273 C274 1.386 . S
C273 C275 1.397 . S
C273 H297 0.931 . S
C274 C273 1.386 . S
C274 C278 1.397 . S
C275 C273 1.397 . S
C275 C276 1.384 . S
C275 H298 0.930 . S
C276 C275 1.384 . S
C276 C277 1.377 . S
C276 C279 1.481 . S
C277 C276 1.377 . S
C277 C278 1.389 . S
C277 H299 0.929 . S
C278 C274 1.397 . S
C278 C277 1.389 . S
C278 H300 0.931 . S
C279 C276 1.481 . S
C279 C280 1.387 . S
C279 C284 1.390 . S
C280 C279 1.387 . S
C280 C281 1.401 . S
C280 H301 0.930 . S
C281 C280 1.401 . S
C281 C282 1.376 . S
C281 C290 1.511 . S
C282 C281 1.376 . S
C282 C283 1.392 . S
C282 H303 0.931 . S
C283 C282 1.392 . S
C283 C284 1.361 . S
C283 C285 1.500 . S
C284 C279 1.390 . S
C284 C283 1.361 . S
C284 H302 0.931 . S
C285 C283 1.500 . S
C285 C286 1.371 . S
C285 C287 1.365 . S
C286 C285 1.371 . S
C286 C296 1.386 . S
C286 H304 0.931 . S
C287 C285 1.365 . S
C287 C288 1.409 . S
C287 H305 0.929 . S
C288 C287 1.409 . S
C288 C289 1.380 . S
C288 H306 0.930 . S
C289 C288 1.380 . S
C289 C296 1.357 . S
C290 C281 1.511 . S
C290 C291 1.341 . S
C290 C292 1.371 . S
C291 C290 1.341 . S
C291 C295 1.394 . S
C291 H307 0.930 . S
C292 C290 1.371 . S
C292 C293 1.392 . S
C292 H308 0.931 . S
C293 C292 1.392 . S
C293 C294 1.331 . S
C293 H311 0.932 . S
C294 C293 1.331 . S
C294 C295 1.336 . S
C295 C291 1.394 . S
C295 C294 1.336 . S
C295 H310 0.929 . S
C296 C286 1.386 . S
C296 C289 1.357 . S
C296 H309 0.928 . S
H297 C273 0.931 . S
H298 C275 0.930 . S
H299 C277 0.929 . S
H300 C278 0.931 . S
H301 C280 0.930 . S
H302 C284 0.931 . S
H303 C282 0.931 . S
H304 C286 0.931 . S
H305 C287 0.929 . S
H306 C288 0.930 . S
H307 C291 0.930 . S
H308 C292 0.931 . S
H309 C296 0.928 . S
H310 C295 0.929 . S
H311 C293 0.932 . S
Tb312 O315 2.453 1_665 S
Tb312 O316 2.596 1_665 S
Tb312 O317 2.374 1_655 S
Tb312 O325 2.343 . S
Tb312 O327 2.353 1_565 S
Tb312 O329 2.427 . S
Tb312 O330 2.513 . S
C313 O317 1.251 . S
C313 O319 1.263 . S
Tb314 O316 2.343 . S
Tb314 O319 2.353 1_545 S
Tb314 O322 2.427 . S
Tb314 O323 2.513 . S
Tb314 O324 2.453 1_545 S
Tb314 O325 2.596 1_445 S
Tb314 O326 2.374 1_455 S
O315 Tb312 2.453 1_445 S
O315 C331 1.245 . S
O316 Tb312 2.596 1_445 S
O316 Tb314 2.343 . S
O316 C331 1.259 . S
O317 Tb312 2.374 1_455 S
O317 C313 1.251 . S
C318 O322 1.275 . S
C318 O323 1.246 . S
O319 C313 1.263 . S
O319 Tb314 2.353 1_565 S
C320 O324 1.245 1_655 S
C320 O325 1.259 . S
C321 O326 1.250 . S
C321 O327 1.263 . S
O322 Tb314 2.427 . S
O322 C318 1.275 . S
O323 Tb314 2.513 . S
O323 C318 1.246 . S
O324 Tb314 2.453 1_565 S
O324 C320 1.245 1_455 S
O325 Tb312 2.343 . S
O325 Tb314 2.596 1_665 S
O325 C320 1.259 . S
O326 Tb314 2.374 1_655 S
O326 C321 1.250 . S
O327 Tb312 2.353 1_545 S
O327 C321 1.263 . S
C328 O329 1.275 . S
C328 O330 1.246 . S
O329 Tb312 2.427 . S
O329 C328 1.275 . S
O330 Tb312 2.513 . S
O330 C328 1.246 . S
C331 O315 1.245 . S
C331 O316 1.259 . S
Tb332 O335 2.453 . S
Tb332 O336 2.572 1_545 S
Tb332 O337 2.374 . S
Tb332 O345 2.343 . S
Tb332 O347 2.353 . S
Tb332 O349 2.427 . S
Tb332 O350 2.513 . S
C333 O337 1.251 . S
C333 O339 1.263 1_545 S
Tb334 O336 2.361 . S
Tb334 O339 2.353 . S
Tb334 O342 2.427 . S
Tb334 O343 2.513 . S
Tb334 O344 2.453 . S
Tb334 O345 2.596 1_565 S
Tb334 O346 2.374 . S
O335 Tb332 2.453 . S
O335 C351 1.245 . S
O336 Tb332 2.572 1_565 S
O336 Tb334 2.361 . S
O336 C351 1.248 1_565 S
O337 Tb332 2.374 . S
O337 C333 1.251 . S
C338 O342 1.275 . S
C338 O343 1.246 . S
O339 C333 1.263 1_565 S
O339 Tb334 2.353 . S
C340 O344 1.245 . S
C340 O345 1.259 1_565 S
C341 O346 1.250 1_545 S
C341 O347 1.263 . S
O342 Tb334 2.427 . S
O342 C338 1.275 . S
O343 Tb334 2.513 . S
O343 C338 1.246 . S
O344 Tb334 2.453 . S
O344 C340 1.245 . S
O345 Tb332 2.343 . S
O345 Tb334 2.596 1_545 S
O345 C340 1.259 1_545 S
O346 Tb334 2.374 . S
O346 C341 1.250 1_565 S
O347 Tb332 2.353 . S
O347 C341 1.263 . S
C348 O349 1.275 . S
C348 O350 1.246 . S
O349 Tb332 2.427 . S
O349 C348 1.275 . S
O350 Tb332 2.513 . S
O350 C348 1.246 . S
C351 O335 1.245 . S
C351 O336 1.248 1_545 S
Tb352 O355 2.453 . S
Tb352 O356 2.596 . S
Tb352 O357 2.374 . S
Tb352 O365 2.343 . S
Tb352 O367 2.353 . S
Tb352 O369 2.427 . S
Tb352 O370 2.513 . S
C353 O357 1.251 . S
C353 O359 1.263 . S
Tb354 O356 2.343 . S
Tb354 O359 2.353 . S
Tb354 O362 2.427 . S
Tb354 O363 2.513 . S
Tb354 O364 2.453 . S
Tb354 O365 2.596 . S
Tb354 O366 2.374 . S
O355 Tb352 2.453 . S
O355 C371 1.245 . S
O356 Tb352 2.596 . S
O356 Tb354 2.343 . S
O356 C371 1.259 . S
O357 Tb352 2.374 . S
O357 C353 1.251 . S
C358 O362 1.275 . S
C358 O363 1.246 . S
O359 C353 1.263 . S
O359 Tb354 2.353 . S
C360 O364 1.245 . S
C360 O365 1.259 . S
C361 O366 1.250 . S
C361 O367 1.263 . S
O362 Tb354 2.427 . S
O362 C358 1.275 . S
O363 Tb354 2.513 . S
O363 C358 1.246 . S
O364 Tb354 2.453 . S
O364 C360 1.245 . S
O365 Tb352 2.343 . S
O365 Tb354 2.596 . S
O365 C360 1.259 . S
O366 Tb354 2.374 . S
O366 C361 1.250 . S
O367 Tb352 2.353 . S
O367 C361 1.263 . S
C368 O369 1.275 . S
C368 O370 1.246 . S
O369 Tb352 2.427 . S
O369 C368 1.275 . S
O370 Tb352 2.513 . S
O370 C368 1.246 . S
C371 O355 1.245 . S
C371 O356 1.259 . S
Tb372 O375 2.453 1_655 S
Tb372 O376 2.596 1_655 S
Tb372 O377 2.374 1_655 S
Tb372 O385 2.343 . S
Tb372 O387 2.353 . S
Tb372 O389 2.427 . S
Tb372 O390 2.513 . S
C373 O377 1.251 . S
C373 O379 1.263 . S
Tb374 O376 2.343 . S
Tb374 O379 2.353 . S
Tb374 O382 2.427 . S
Tb374 O383 2.513 . S
Tb374 O384 2.453 1_455 S
Tb374 O385 2.596 1_455 S
Tb374 O386 2.374 . S
O375 Tb372 2.453 1_455 S
O375 C391 1.245 . S
O376 Tb372 2.596 1_455 S
O376 Tb374 2.343 . S
O376 C391 1.259 . S
O377 Tb372 2.374 1_455 S
O377 C373 1.251 . S
C378 O382 1.275 . S
C378 O383 1.246 . S
O379 C373 1.263 . S
O379 Tb374 2.353 . S
C380 O384 1.245 . S
C380 O385 1.259 . S
C381 O386 1.250 1_655 S
C381 O387 1.263 . S
O382 Tb374 2.427 . S
O382 C378 1.275 . S
O383 Tb374 2.513 . S
O383 C378 1.246 . S
O384 Tb374 2.453 1_655 S
O384 C380 1.245 . S
O385 Tb372 2.343 . S
O385 Tb374 2.596 1_655 S
O385 C380 1.259 . S
O386 Tb374 2.374 . S
O386 C381 1.250 1_455 S
O387 Tb372 2.353 . S
O387 C381 1.263 . S
C388 O389 1.275 . S
C388 O390 1.246 . S
O389 Tb372 2.427 . S
O389 C388 1.275 . S
O390 Tb372 2.513 . S
O390 C388 1.246 . S
C391 O375 1.245 . S
C391 O376 1.259 . S
H392 C398 0.930 . S
H393 C402 0.930 . S
H394 C407 0.929 . S
H395 C405 0.929 . S
H396 C400 0.929 . S
H397 C406 0.929 . S
C398 H392 0.930 . S
C398 C399 1.367 . S
C398 C406 1.378 . S
C399 C398 1.367 . S
C399 C407 1.433 1_545 S
C400 H396 0.929 . S
C400 C402 1.378 . S
C400 C404 1.350 1_565 S
C401 C404 1.463 . S
C401 C406 1.350 . S
C401 N409 1.427 1_545 S
C402 H393 0.930 . S
C402 C400 1.378 . S
C402 C403 1.378 . S
C403 C402 1.378 . S
C403 C405 1.422 1_565 S
C404 C400 1.350 1_545 S
C404 C401 1.463 . S
C404 N408 1.427 . S
C405 H395 0.929 . S
C405 C403 1.422 1_545 S
C405 N408 1.384 . S
C406 H397 0.929 . S
C406 C398 1.378 . S
C406 C401 1.350 . S
C407 H394 0.929 . S
C407 C399 1.433 1_565 S
C407 N409 1.384 . S
N408 C404 1.427 . S
N408 C405 1.384 . S
N409 C401 1.427 1_565 S
N409 C407 1.384 . S
H410 C416 0.930 . S
H411 C420 0.930 . S
H412 C425 0.929 . S
H413 C423 0.929 . S
H414 C418 0.929 . S
H415 C424 0.929 . S
C416 H410 0.930 . S
C416 C417 1.367 . S
C416 C424 1.378 . S
C417 C416 1.367 . S
C417 C425 1.433 . S
C418 H414 0.929 . S
C418 C420 1.378 . S
C418 C422 1.350 . S
C419 C422 1.463 . S
C419 C424 1.350 . S
C419 N427 1.427 . S
C420 H411 0.930 . S
C420 C418 1.378 . S
C420 C421 1.367 . S
C421 C420 1.367 . S
C421 C423 1.433 . S
C422 C418 1.350 . S
C422 C419 1.463 . S
C422 N426 1.427 . S
C423 H413 0.929 . S
C423 C421 1.433 . S
C423 N426 1.384 . S
C424 H415 0.929 . S
C424 C416 1.378 . S
C424 C419 1.350 . S
C425 H412 0.929 . S
C425 C417 1.433 . S
C425 N427 1.384 . S
N426 C422 1.427 . S
N426 C423 1.384 . S
N427 C419 1.427 . S
N427 C425 1.384 . S
H428 C434 0.930 . S
H429 C438 0.930 . S
H430 C443 0.929 . S
H431 C441 0.929 . S
H432 C436 0.929 . S
H433 C442 0.929 . S
C434 H428 0.930 . S
C434 C435 1.367 . S
C434 C442 1.378 . S
C435 C434 1.367 . S
C435 C443 1.433 . S
C436 H432 0.929 . S
C436 C438 1.378 . S
C436 C440 1.350 . S
C437 C440 1.463 . S
C437 C442 1.350 . S
C437 N445 1.427 . S
C438 H429 0.930 . S
C438 C436 1.378 . S
C438 C439 1.367 . S
C439 C438 1.367 . S
C439 C441 1.433 . S
C440 C436 1.350 . S
C440 C437 1.463 . S
C440 N444 1.427 . S
C441 H431 0.929 . S
C441 C439 1.433 . S
C441 N444 1.384 . S
C442 H433 0.929 . S
C442 C434 1.378 . S
C442 C437 1.350 . S
C443 H430 0.929 . S
C443 C435 1.433 . S
C443 N445 1.384 . S
N444 C440 1.427 . S
N444 C441 1.384 . S
N445 C437 1.427 . S
N445 C443 1.384 . S
H446 C452 0.930 . S
H447 C456 0.930 . S
H448 C461 0.929 . S
H449 C459 0.929 . S
H450 C454 0.929 . S
H451 C460 0.929 . S
C452 H446 0.930 . S
C452 C453 1.367 . S
C452 C460 1.378 . S
C453 C452 1.367 . S
C453 C461 1.433 . S
C454 H450 0.929 . S
C454 C456 1.378 . S
C454 C458 1.350 . S
C455 C458 1.463 . S
C455 C460 1.350 . S
C455 N463 1.427 . S
C456 H447 0.930 . S
C456 C454 1.378 . S
C456 C457 1.367 . S
C457 C456 1.367 . S
C457 C459 1.433 . S
C458 C454 1.350 . S
C458 C455 1.463 . S
C458 N462 1.427 . S
C459 H449 0.929 . S
C459 C457 1.433 . S
C459 N462 1.384 . S
C460 H451 0.929 . S
C460 C452 1.378 . S
C460 C455 1.350 . S
C461 H448 0.929 . S
C461 C453 1.433 . S
C461 N463 1.384 . S
N462 C458 1.427 . S
N462 C459 1.384 . S
N463 C455 1.427 . S
N463 C461 1.384 . S
H464 C470 0.930 . S
H465 C474 0.930 . S
H466 C479 0.929 . S
H467 C477 0.922 1_565 S
H468 C472 0.929 . S
H469 C478 0.929 . S
C470 H464 0.930 . S
C470 C471 1.355 1_564 S
C470 C478 1.378 1_554 S
C471 C470 1.355 1_546 S
C471 C479 1.454 . S
C472 H468 0.929 . S
C472 C474 1.378 . S
C472 C476 1.350 . S
C473 C476 1.463 . S
C473 C478 1.350 1_545 S
C473 N481 1.427 . S
C474 H465 0.930 . S
C474 C472 1.378 . S
C474 C475 1.367 . S
C475 C474 1.367 . S
C475 C477 1.433 . S
C476 C472 1.350 . S
C476 C473 1.463 . S
C476 N480 1.436 . S
C477 H467 0.922 1_545 S
C477 C475 1.433 . S
C477 N480 1.384 . S
C478 H469 0.929 . S
C478 C470 1.378 1_556 S
C478 C473 1.350 1_565 S
C479 H466 0.929 . S
C479 C471 1.454 . S
C479 N481 1.384 . S
N480 C476 1.436 . S
N480 C477 1.384 . S
N481 C473 1.427 . S
N481 C479 1.384 . S
H482 C488 0.930 . S
H483 C492 0.930 . S
H484 C497 0.929 . S
H485 C495 0.929 . S
H486 C490 0.929 . S
H487 C496 0.929 1_554 S
C488 H482 0.930 . S
C488 C489 1.367 1_554 S
C488 C496 1.378 1_554 S
C489 C488 1.367 1_556 S
C489 C497 1.433 . S
C490 H486 0.929 . S
C490 C492 1.378 . S
C490 C494 1.350 . S
C491 C494 1.463 . S
C491 C496 1.350 . S
C491 N499 1.427 . S
C492 H483 0.930 . S
C492 C490 1.378 . S
C492 C493 1.367 . S
C493 C492 1.367 . S
C493 C495 1.433 . S
C494 C490 1.350 . S
C494 C491 1.463 . S
C494 N498 1.427 . S
C495 H485 0.929 . S
C495 C493 1.433 . S
C495 N498 1.384 . S
C496 H487 0.929 1_556 S
C496 C488 1.378 1_556 S
C496 C491 1.350 . S
C497 H484 0.929 . S
C497 C489 1.433 . S
C497 N499 1.384 . S
N498 C494 1.427 . S
N498 C495 1.384 . S
N499 C491 1.427 . S
N499 C497 1.384 . S
H500 C506 0.930 . S
H501 C510 0.930 . S
H502 C515 0.929 . S
H503 C513 0.929 . S
H504 C508 0.929 . S
H505 C514 0.929 . S
C506 H500 0.930 . S
C506 C507 1.367 . S
C506 C514 1.378 . S
C507 C506 1.367 . S
C507 C515 1.433 . S
C508 H504 0.929 . S
C508 C510 1.378 . S
C508 C512 1.350 . S
C509 C512 1.463 . S
C509 C514 1.350 . S
C509 N517 1.427 . S
C510 H501 0.930 . S
C510 C508 1.378 . S
C510 C511 1.367 . S
C511 C510 1.367 . S
C511 C513 1.433 . S
C512 C508 1.350 . S
C512 C509 1.463 . S
C512 N516 1.427 . S
C513 H503 0.929 . S
C513 C511 1.433 . S
C513 N516 1.384 . S
C514 H505 0.929 . S
C514 C506 1.378 . S
C514 C509 1.350 . S
C515 H502 0.929 . S
C515 C507 1.433 . S
C515 N517 1.384 . S
N516 C512 1.427 . S
N516 C513 1.384 . S
N517 C509 1.427 . S
N517 C515 1.384 . S
H518 C524 0.930 . S
H519 C528 0.930 . S
H520 C533 0.929 . S
H521 C531 0.929 . S
H522 C526 0.929 . S
H523 C532 0.929 . S
C524 H518 0.930 . S
C524 C525 1.367 . S
C524 C532 1.378 . S
C525 C524 1.367 . S
C525 C533 1.433 . S
C526 H522 0.929 . S
C526 C528 1.378 . S
C526 C530 1.350 . S
C527 C530 1.463 . S
C527 C532 1.350 . S
C527 N535 1.427 . S
C528 H519 0.930 . S
C528 C526 1.378 . S
C528 C529 1.367 . S
C529 C528 1.367 . S
C529 C531 1.433 . S
C530 C526 1.350 . S
C530 C527 1.463 . S
C530 N534 1.427 . S
C531 H521 0.929 . S
C531 C529 1.433 . S
C531 N534 1.384 . S
C532 H523 0.929 . S
C532 C524 1.378 . S
C532 C527 1.350 . S
C533 H520 0.929 . S
C533 C525 1.433 . S
C533 N535 1.384 . S
N534 C530 1.427 . S
N534 C531 1.384 . S
N535 C527 1.427 . S
N535 C533 1.384 . S
H536 C542 0.930 . S
H537 C546 0.930 . S
H538 C551 0.929 . S
H539 C549 0.929 . S
H540 C544 0.929 . S
H541 C550 0.929 . S
C542 H536 0.930 . S
C542 C543 1.367 . S
C542 C550 1.378 . S
C543 C542 1.367 . S
C543 C551 1.433 . S
C544 H540 0.929 . S
C544 C546 1.378 . S
C544 C548 1.350 . S
C545 C548 1.463 . S
C545 C550 1.350 . S
C545 N553 1.427 . S
C546 H537 0.930 . S
C546 C544 1.378 . S
C546 C547 1.367 . S
C547 C546 1.367 . S
C547 C549 1.433 . S
C548 C544 1.350 . S
C548 C545 1.463 . S
C548 N552 1.427 . S
C549 H539 0.929 . S
C549 C547 1.433 . S
C549 N552 1.384 . S
C550 H541 0.929 . S
C550 C542 1.378 . S
C550 C545 1.350 . S
C551 H538 0.929 . S
C551 C543 1.433 . S
C551 N553 1.384 . S
N552 C548 1.427 . S
N552 C549 1.384 . S
N553 C545 1.427 . S
N553 C551 1.384 . S
H554 C560 0.930 . S
H555 C564 0.930 . S
H556 C569 0.929 . S
H557 C567 0.929 . S
H558 C562 0.929 . S
H559 C568 0.929 . S
C560 H554 0.930 . S
C560 C561 1.367 . S
C560 C568 1.378 . S
C561 C560 1.367 . S
C561 C569 1.433 1_545 S
C562 H558 0.929 . S
C562 C564 1.378 . S
C562 C566 1.350 1_565 S
C563 C566 1.463 . S
C563 C568 1.350 . S
C563 N571 1.427 1_545 S
C564 H555 0.930 . S
C564 C562 1.378 . S
C564 C565 1.346 1_565 S
C565 C564 1.346 1_545 S
C565 C567 1.460 . S
C566 C562 1.350 1_545 S
C566 C563 1.463 . S
C566 N570 1.427 . S
C567 H557 0.929 . S
C567 C565 1.460 . S
C567 N570 1.384 . S
C568 H559 0.929 . S
C568 C560 1.378 . S
C568 C563 1.350 . S
C569 H556 0.929 . S
C569 C561 1.433 1_565 S
C569 N571 1.384 . S
N570 C566 1.427 . S
N570 C567 1.384 . S
N571 C563 1.427 1_565 S
N571 C569 1.384 . S
H572 C578 0.930 . S
H573 C582 0.930 . S
H574 C587 0.929 . S
H575 C585 0.929 . S
H576 C580 0.929 . S
H577 C586 0.929 . S
C578 H572 0.930 . S
C578 C579 1.367 . S
C578 C586 1.378 . S
C579 C578 1.367 . S
C579 C587 1.433 . S
C580 H576 0.929 . S
C580 C582 1.378 . S
C580 C584 1.350 . S
C581 C584 1.463 . S
C581 C586 1.350 . S
C581 N589 1.427 . S
C582 H573 0.930 . S
C582 C580 1.378 . S
C582 C583 1.367 . S
C583 C582 1.367 . S
C583 C585 1.433 . S
C584 C580 1.350 . S
C584 C581 1.463 . S
C584 N588 1.427 . S
C585 H575 0.929 . S
C585 C583 1.433 . S
C585 N588 1.384 . S
C586 H577 0.929 . S
C586 C578 1.378 . S
C586 C581 1.350 . S
C587 H574 0.929 . S
C587 C579 1.433 . S
C587 N589 1.384 . S
N588 C584 1.427 . S
N588 C585 1.384 . S
N589 C581 1.427 . S
N589 C587 1.384 . S
H590 C596 0.930 . S
H591 C600 0.930 . S
H592 C605 0.929 . S
H593 C603 0.929 . S
H594 C598 0.929 . S
H595 C604 0.929 . S
C596 H590 0.930 . S
C596 C597 1.367 . S
C596 C604 1.378 . S
C597 C596 1.367 . S
C597 C605 1.433 . S
C598 H594 0.929 . S
C598 C600 1.378 . S
C598 C602 1.350 . S
C599 C602 1.463 . S
C599 C604 1.350 . S
C599 N607 1.427 . S
C600 H591 0.930 . S
C600 C598 1.378 . S
C600 C601 1.367 . S
C601 C600 1.367 . S
C601 C603 1.433 . S
C602 C598 1.350 . S
C602 C599 1.463 . S
C602 N606 1.427 . S
C603 H593 0.929 . S
C603 C601 1.433 . S
C603 N606 1.384 . S
C604 H595 0.929 . S
C604 C596 1.378 . S
C604 C599 1.350 . S
C605 H592 0.929 . S
C605 C597 1.433 . S
C605 N607 1.384 . S
N606 C602 1.427 . S
N606 C603 1.384 . S
N607 C599 1.427 . S
N607 C605 1.384 . S
H608 C614 0.930 . S
H609 C618 0.930 . S
H610 C623 0.929 . S
H611 C621 0.929 . S
H612 C616 0.929 . S
H613 C622 0.929 . S
C614 H608 0.930 . S
C614 C615 1.367 . S
C614 C622 1.378 . S
C615 C614 1.367 . S
C615 C623 1.433 . S
C616 H612 0.929 . S
C616 C618 1.378 . S
C616 C620 1.350 . S
C617 C620 1.463 . S
C617 C622 1.350 . S
C617 N625 1.427 . S
C618 H609 0.930 . S
C618 C616 1.378 . S
C618 C619 1.367 . S
C619 C618 1.367 . S
C619 C621 1.433 . S
C620 C616 1.350 . S
C620 C617 1.463 . S
C620 N624 1.427 . S
C621 H611 0.929 . S
C621 C619 1.433 . S
C621 N624 1.384 . S
C622 H613 0.929 . S
C622 C614 1.378 . S
C622 C617 1.350 . S
C623 H610 0.929 . S
C623 C615 1.433 . S
C623 N625 1.384 . S
N624 C620 1.427 . S
N624 C621 1.384 . S
N625 C617 1.427 . S
N625 C623 1.384 . S
H626 C632 0.930 . S
H627 C636 0.930 . S
H628 C641 0.929 . S
H629 C639 0.929 . S
H630 C634 0.929 . S
H631 C640 0.929 . S
C632 H626 0.930 . S
C632 C633 1.379 . S
C632 C640 1.378 . S
C633 C632 1.379 . S
C633 C641 1.423 1_545 S
C634 H630 0.929 . S
C634 C636 1.378 . S
C634 C638 1.350 1_565 S
C635 C638 1.463 . S
C635 C640 1.350 . S
C635 N643 1.427 1_545 S
C636 H627 0.930 . S
C636 C634 1.378 . S
C636 C637 1.367 1_565 S
C637 C636 1.367 1_545 S
C637 C639 1.433 . S
C638 C634 1.350 1_545 S
C638 C635 1.463 . S
C638 N642 1.427 . S
C639 H629 0.929 . S
C639 C637 1.433 . S
C639 N642 1.384 . S
C640 H631 0.929 . S
C640 C632 1.378 . S
C640 C635 1.350 . S
C641 H628 0.929 . S
C641 C633 1.423 1_565 S
C641 N643 1.384 . S
N642 C638 1.427 . S
N642 C639 1.384 . S
N643 C635 1.427 1_565 S
N643 C641 1.384 . S
H644 C650 0.930 . S
H645 C654 0.930 . S
H646 C659 0.929 . S
H647 C657 0.929 . S
H648 C652 0.929 . S
H649 C658 0.929 . S
C650 H644 0.930 . S
C650 C651 1.367 . S
C650 C658 1.378 . S
C651 C650 1.367 . S
C651 C659 1.433 . S
C652 H648 0.929 . S
C652 C654 1.378 . S
C652 C656 1.350 . S
C653 C656 1.463 . S
C653 C658 1.350 . S
C653 N661 1.427 . S
C654 H645 0.930 . S
C654 C652 1.378 . S
C654 C655 1.367 . S
C655 C654 1.367 . S
C655 C657 1.433 . S
C656 C652 1.350 . S
C656 C653 1.463 . S
C656 N660 1.427 . S
C657 H647 0.929 . S
C657 C655 1.433 . S
C657 N660 1.384 . S
C658 H649 0.929 . S
C658 C650 1.378 . S
C658 C653 1.350 . S
C659 H646 0.929 . S
C659 C651 1.433 . S
C659 N661 1.384 . S
N660 C656 1.427 . S
N660 C657 1.384 . S
N661 C653 1.427 . S
N661 C659 1.384 . S
H662 C668 0.930 . S
H663 C672 0.930 . S
H664 C677 0.929 . S
H665 C675 0.929 . S
H666 C670 0.929 . S
H667 C676 0.929 . S
C668 H662 0.930 . S
C668 C669 1.367 . S
C668 C676 1.378 . S
C669 C668 1.367 . S
C669 C677 1.433 . S
C670 H666 0.929 . S
C670 C672 1.378 . S
C670 C674 1.350 . S
C671 C674 1.463 . S
C671 C676 1.350 . S
C671 N679 1.427 . S
C672 H663 0.930 . S
C672 C670 1.378 . S
C672 C673 1.367 . S
C673 C672 1.367 . S
C673 C675 1.433 . S
C674 C670 1.350 . S
C674 C671 1.463 . S
C674 N678 1.427 . S
C675 H665 0.929 . S
C675 C673 1.433 . S
C675 N678 1.384 . S
C676 H667 0.929 . S
C676 C668 1.378 . S
C676 C671 1.350 . S
C677 H664 0.929 . S
C677 C669 1.433 . S
C677 N679 1.384 . S
N678 C674 1.427 . S
N678 C675 1.384 . S
N679 C671 1.427 . S
N679 C677 1.384 . S
H680 C686 0.930 . S
H681 C690 0.930 . S
H682 C695 0.929 . S
H683 C693 0.929 . S
H684 C688 0.929 . S
H685 C694 0.929 . S
C686 H680 0.930 . S
C686 C687 1.367 1_556 S
C686 C694 1.378 . S
C687 C686 1.367 1_554 S
C687 C695 1.433 . S
C688 H684 0.929 . S
C688 C690 1.378 . S
C688 C692 1.350 . S
C689 C692 1.463 . S
C689 C694 1.350 . S
C689 N697 1.427 . S
C690 H681 0.930 . S
C690 C688 1.378 . S
C690 C691 1.367 . S
C691 C690 1.367 . S
C691 C693 1.433 . S
C692 C688 1.350 . S
C692 C689 1.463 . S
C692 N696 1.427 . S
C693 H683 0.929 . S
C693 C691 1.433 . S
C693 N696 1.384 . S
C694 H685 0.929 . S
C694 C686 1.378 . S
C694 C689 1.350 . S
C695 H682 0.929 . S
C695 C687 1.433 . S
C695 N697 1.384 1_554 S
N696 C692 1.427 . S
N696 C693 1.384 . S
N697 C689 1.427 . S
N697 C695 1.384 1_556 S
H698 C704 0.929 1_565 S
H699 C708 0.930 . S
H700 C713 0.928 . S
H701 C711 0.929 1_565 S
H702 C706 0.929 . S
H703 C712 0.923 1_565 S
C704 H698 0.929 1_545 S
C704 C705 1.367 . S
C704 C712 1.378 . S
C705 C704 1.367 . S
C705 C713 1.434 1_556 S
C706 H702 0.929 . S
C706 C708 1.378 . S
C706 C710 1.350 . S
C707 C710 1.463 . S
C707 C712 1.350 . S
C707 N715 1.427 . S
C708 H699 0.930 . S
C708 C706 1.378 . S
C708 C709 1.367 . S
C709 C708 1.367 . S
C709 C711 1.433 . S
C710 C706 1.350 . S
C710 C707 1.463 . S
C710 N714 1.427 . S
C711 H701 0.929 1_545 S
C711 C709 1.433 . S
C711 N714 1.384 . S
C712 H703 0.923 1_545 S
C712 C704 1.378 . S
C712 C707 1.350 . S
C713 H700 0.928 . S
C713 C705 1.434 1_554 S
C713 N715 1.384 1_554 S
N714 C710 1.427 . S
N714 C711 1.384 . S
N715 C707 1.427 . S
N715 C713 1.384 1_556 S
H716 C722 0.930 . S
H717 C726 0.930 . S
H718 C731 0.916 1_554 S
H719 C729 0.929 . S
H720 C724 0.929 . S
H721 C730 0.929 . S
C722 H716 0.930 . S
C722 C723 1.367 . S
C722 C730 1.378 . S
C723 C722 1.367 . S
C723 C731 1.441 . S
C724 H720 0.929 . S
C724 C726 1.378 . S
C724 C728 1.350 . S
C725 C728 1.463 . S
C725 C730 1.350 . S
C725 N733 1.427 . S
C726 H717 0.930 . S
C726 C724 1.378 . S
C726 C727 1.367 . S
C727 C726 1.367 . S
C727 C729 1.433 . S
C728 C724 1.350 . S
C728 C725 1.463 . S
C728 N732 1.427 . S
C729 H719 0.929 . S
C729 C727 1.433 . S
C729 N732 1.384 . S
C730 H721 0.929 . S
C730 C722 1.378 . S
C730 C725 1.350 . S
C731 H718 0.916 1_556 S
C731 C723 1.441 . S
C731 N733 1.390 . S
N732 C728 1.427 . S
N732 C729 1.384 . S
N733 C725 1.427 . S
N733 C731 1.390 . S
H734 C740 0.930 . S
H735 C744 0.930 . S
H736 C749 0.929 . S
H737 C747 0.929 . S
H738 C742 0.929 . S
H739 C748 0.929 . S
C740 H734 0.930 . S
C740 C741 1.367 . S
C740 C748 1.378 . S
C741 C740 1.367 . S
C741 C749 1.433 1_556 S
C742 H738 0.929 . S
C742 C744 1.378 . S
C742 C746 1.350 . S
C743 C746 1.463 . S
C743 C748 1.350 . S
C743 N751 1.427 . S
C744 H735 0.930 . S
C744 C742 1.378 . S
C744 C745 1.367 . S
C745 C744 1.367 . S
C745 C747 1.433 . S
C746 C742 1.350 . S
C746 C743 1.463 . S
C746 N750 1.427 . S
C747 H737 0.929 . S
C747 C745 1.433 . S
C747 N750 1.384 . S
C748 H739 0.929 . S
C748 C740 1.378 . S
C748 C743 1.350 . S
C749 H736 0.929 . S
C749 C741 1.433 1_554 S
C749 N751 1.384 1_554 S
N750 C746 1.427 . S
N750 C747 1.384 . S
N751 C743 1.427 . S
N751 C749 1.384 1_556 S
H752 C758 0.930 . S
H753 C762 0.930 . S
H754 C767 0.929 . S
H755 C765 0.929 . S
H756 C760 0.929 . S
H757 C766 0.929 . S
C758 H752 0.930 . S
C758 C759 1.367 . S
C758 C766 1.378 . S
C759 C758 1.367 . S
C759 C767 1.433 . S
C760 H756 0.929 . S
C760 C762 1.378 . S
C760 C764 1.350 . S
C761 C764 1.463 . S
C761 C766 1.350 . S
C761 N769 1.427 . S
C762 H753 0.930 . S
C762 C760 1.378 . S
C762 C763 1.367 . S
C763 C762 1.367 . S
C763 C765 1.433 . S
C764 C760 1.350 . S
C764 C761 1.463 . S
C764 N768 1.427 . S
C765 H755 0.929 . S
C765 C763 1.433 . S
C765 N768 1.384 . S
C766 H757 0.929 . S
C766 C758 1.378 . S
C766 C761 1.350 . S
C767 H754 0.929 . S
C767 C759 1.433 . S
C767 N769 1.384 . S
N768 C764 1.427 . S
N768 C765 1.384 . S
N769 C761 1.427 . S
N769 C767 1.384 . S
H770 C776 0.930 . S
H771 C780 0.930 . S
H772 C785 0.929 . S
H773 C783 0.929 . S
H774 C778 0.929 . S
H775 C784 0.929 . S
C776 H770 0.930 . S
C776 C777 1.395 . S
C776 C784 1.378 . S
C777 C776 1.395 . S
C777 C785 1.407 1_545 S
C778 H774 0.929 . S
C778 C780 1.378 . S
C778 C782 1.352 1_565 S
C779 C782 1.463 . S
C779 C784 1.350 . S
C779 N787 1.427 1_545 S
C780 H771 0.930 . S
C780 C778 1.378 . S
C780 C781 1.338 1_565 S
C781 C780 1.338 1_545 S
C781 C783 1.460 . S
C782 C778 1.352 1_545 S
C782 C779 1.463 . S
C782 N786 1.425 . S
C783 H773 0.929 . S
C783 C781 1.460 . S
C783 N786 1.384 . S
C784 H775 0.929 . S
C784 C776 1.378 . S
C784 C779 1.350 . S
C785 H772 0.929 . S
C785 C777 1.407 1_565 S
C785 N787 1.384 . S
N786 C782 1.425 . S
N786 C783 1.384 . S
N787 C779 1.427 1_565 S
N787 C785 1.384 . S
H788 C794 0.930 . S
H789 C798 0.930 . S
H790 C803 0.929 . S
H791 C801 0.929 . S
H792 C796 0.929 . S
H793 C802 0.929 . S
C794 H788 0.930 . S
C794 C795 1.367 . S
C794 C802 1.378 . S
C795 C794 1.367 . S
C795 C803 1.433 . S
C796 H792 0.929 . S
C796 C798 1.378 . S
C796 C800 1.350 . S
C797 C800 1.463 . S
C797 C802 1.350 . S
C797 N805 1.427 . S
C798 H789 0.930 . S
C798 C796 1.378 . S
C798 C799 1.367 . S
C799 C798 1.367 . S
C799 C801 1.433 . S
C800 C796 1.350 . S
C800 C797 1.463 . S
C800 N804 1.427 . S
C801 H791 0.929 . S
C801 C799 1.433 . S
C801 N804 1.384 . S
C802 H793 0.929 . S
C802 C794 1.378 . S
C802 C797 1.350 . S
C803 H790 0.929 . S
C803 C795 1.433 . S
C803 N805 1.384 . S
N804 C800 1.427 . S
N804 C801 1.384 . S
N805 C797 1.427 . S
N805 C803 1.384 . S
H806 C812 0.930 . S
H807 C816 0.930 . S
H808 C821 0.929 . S
H809 C819 0.929 . S
H810 C814 0.929 . S
H811 C820 0.929 . S
C812 H806 0.930 . S
C812 C813 1.367 . S
C812 C820 1.378 . S
C813 C812 1.367 . S
C813 C821 1.433 . S
C814 H810 0.929 . S
C814 C816 1.378 . S
C814 C818 1.350 . S
C815 C818 1.463 . S
C815 C820 1.350 . S
C815 N823 1.427 . S
C816 H807 0.930 . S
C816 C814 1.378 . S
C816 C817 1.367 . S
C817 C816 1.367 . S
C817 C819 1.433 . S
C818 C814 1.350 . S
C818 C815 1.463 . S
C818 N822 1.427 . S
C819 H809 0.929 . S
C819 C817 1.433 . S
C819 N822 1.384 . S
C820 H811 0.929 . S
C820 C812 1.378 . S
C820 C815 1.350 . S
C821 H808 0.929 . S
C821 C813 1.433 . S
C821 N823 1.384 . S
N822 C818 1.427 . S
N822 C819 1.384 . S
N823 C815 1.427 . S
N823 C821 1.384 . S
C399 C255 1.536 . S
C403 C313 1.553 . S
C421 C348 2.257 . S
C417 C294 2.112 . S
C439 C353 1.428 . S
C435 C177 1.425 . S
C457 C373 1.954 . S
C453 C216 1.831 . S
C475 C321 1.553 . S
C471 C99 1.535 1_546 S
C489 C138 2.083 1_556 S
C493 C338 2.257 . S
C507 C21 1.405 1_556 S
C511 C361 1.417 . S
C525 C60 1.859 . S
C529 C381 1.954 . S
C547 C331 1.507 . S
C543 C196 1.376 . S
C565 C340 0.642 1_545 S
C561 C235 0.682 . S
C583 C371 1.658 . S
C579 C289 1.495 . S
C597 C157 0.879 . S
C601 C391 0.888 . S
C615 C40 1.371 . S
C619 C320 1.513 . S
C637 C351 0.683 . S
C633 C79 0.675 1_545 S
C655 C360 1.657 . S
C651 C133 1.501 . S
C669 C1 0.898 . S
C673 C380 0.890 . S
C687 C211 2.072 . S
C691 C318 2.226 . S
C705 C250 1.746 1_556 S
C709 C341 1.900 . S
C727 C358 2.387 . S
C723 C274 2.194 1_556 S
C745 C378 2.095 . S
C741 C172 1.952 1_556 S
C759 C55 2.071 . S
C763 C328 2.225 . S
C781 C333 1.905 . S
C777 C94 1.737 . S
C799 C368 2.390 . S
C795 C118 2.170 . S
C813 C16 1.942 . S
C817 C388 2.096 . S
