# Generated by pormake.
# Topology pto, (3,4)-cn, num edge types: 1
# Building blocks:
#     Node 0, Type 0, BuildingBlock: PAMTOO_clean_linker_0, # of connection points: 3
#     Node 1, Type 0, BuildingBlock: PAMTOO_clean_linker_0, # of connection points: 3
#     Node 2, Type 0, BuildingBlock: PAMTOO_clean_linker_0, # of connection points: 3
#     Node 3, Type 0, BuildingBlock: PAMTOO_clean_linker_0, # of connection points: 3
#     Node 4, Type 0, BuildingBlock: PAMTOO_clean_linker_0, # of connection points: 3
#     Node 5, Type 0, BuildingBlock: PAMTOO_clean_linker_0, # of connection points: 3
#     Node 6, Type 0, BuildingBlock: PAMTOO_clean_linker_0, # of connection points: 3
#     Node 7, Type 0, BuildingBlock: PAMTOO_clean_linker_0, # of connection points: 3
#     Node 8, Type 1, BuildingBlock: KOZSID_clean_sbu_0, # of connection points: 4
#     Node 9, Type 1, BuildingBlock: KOZSID_clean_sbu_0, # of connection points: 4
#     Node 10, Type 1, BuildingBlock: KOZSID_clean_sbu_0, # of connection points: 4
#     Node 11, Type 1, BuildingBlock: KOZSID_clean_sbu_0, # of connection points: 4
#     Node 12, Type 1, BuildingBlock: KOZSID_clean_sbu_0, # of connection points: 4
#     Node 13, Type 1, BuildingBlock: KOZSID_clean_sbu_0, # of connection points: 4
#     Edge 14, Type (0, 1), BuildingBlock: KIFKEQ_clean_linker_1, # of connection points: 2
#     Edge 15, Type (0, 1), BuildingBlock: KIFKEQ_clean_linker_1, # of connection points: 2
#     Edge 16, Type (0, 1), BuildingBlock: KIFKEQ_clean_linker_1, # of connection points: 2
#     Edge 17, Type (0, 1), BuildingBlock: KIFKEQ_clean_linker_1, # of connection points: 2
#     Edge 18, Type (0, 1), BuildingBlock: KIFKEQ_clean_linker_1, # of connection points: 2
#     Edge 19, Type (0, 1), BuildingBlock: KIFKEQ_clean_linker_1, # of connection points: 2
#     Edge 20, Type (0, 1), BuildingBlock: KIFKEQ_clean_linker_1, # of connection points: 2
#     Edge 21, Type (0, 1), BuildingBlock: KIFKEQ_clean_linker_1, # of connection points: 2
#     Edge 22, Type (0, 1), BuildingBlock: KIFKEQ_clean_linker_1, # of connection points: 2
#     Edge 23, Type (0, 1), BuildingBlock: KIFKEQ_clean_linker_1, # of connection points: 2
#     Edge 24, Type (0, 1), BuildingBlock: KIFKEQ_clean_linker_1, # of connection points: 2
#     Edge 25, Type (0, 1), BuildingBlock: KIFKEQ_clean_linker_1, # of connection points: 2
#     Edge 26, Type (0, 1), BuildingBlock: KIFKEQ_clean_linker_1, # of connection points: 2
#     Edge 27, Type (0, 1), BuildingBlock: KIFKEQ_clean_linker_1, # of connection points: 2
#     Edge 28, Type (0, 1), BuildingBlock: KIFKEQ_clean_linker_1, # of connection points: 2
#     Edge 29, Type (0, 1), BuildingBlock: KIFKEQ_clean_linker_1, # of connection points: 2
#     Edge 30, Type (0, 1), BuildingBlock: KIFKEQ_clean_linker_1, # of connection points: 2
#     Edge 31, Type (0, 1), BuildingBlock: KIFKEQ_clean_linker_1, # of connection points: 2
#     Edge 32, Type (0, 1), BuildingBlock: KIFKEQ_clean_linker_1, # of connection points: 2
#     Edge 33, Type (0, 1), BuildingBlock: KIFKEQ_clean_linker_1, # of connection points: 2
#     Edge 34, Type (0, 1), BuildingBlock: KIFKEQ_clean_linker_1, # of connection points: 2
#     Edge 35, Type (0, 1), BuildingBlock: KIFKEQ_clean_linker_1, # of connection points: 2
#     Edge 36, Type (0, 1), BuildingBlock: KIFKEQ_clean_linker_1, # of connection points: 2
#     Edge 37, Type (0, 1), BuildingBlock: KIFKEQ_clean_linker_1, # of connection points: 2
# Relax obj value: 0.025
# Max RMSD: 0.173
# Mean RMSD: 0.074
data_MOF--net-pto--node1-KOZSID_clean_sbu_0--node2-PAMTOO_clean_linker_0--edge1-KIFKEQ_clean_linker_1
_symmetry_space_group_name_H-M    P1
_symmetry_Int_Tables_number       1
_symmetry_cell_setting            triclinic
loop_
_symmetry_equiv_pos_as_xyz
'x, y, z'
_cell_length_a     39.68622
_cell_length_b     50.674639
_cell_length_c     46.111789
_cell_angle_alpha  81.964727
_cell_angle_beta   80.513556
_cell_angle_gamma 102.94199
loop_
_atom_site_label
_atom_site_type_symbol
_atom_site_fract_x
_atom_site_fract_y
_atom_site_fract_z
_atom_type_partial_charge
H0 H 0.20515 0.28497 0.38498 0.0
H1 H 0.27741 0.25961 0.3207 0.0
H2 H 0.25385 0.33768 0.29964 0.0
H3 H 0.25924 0.31285 0.24819 0.0
C4 C 0.27266 0.29677 0.25544 0.0
O5 O 0.28762 0.30317 0.27939 0.0
H6 H 0.25249 0.27663 0.26227 0.0
C7 C 0.22259 0.28893 0.36326 0.0
C8 C 0.22749 0.31389 0.34345 0.0
C9 C 0.24112 0.26947 0.35549 0.0
C10 C 0.2636 0.27469 0.32729 0.0
C11 C 0.26774 0.29908 0.30716 0.0
C12 C 0.2504 0.31887 0.31548 0.0
H13 H 0.2235 0.7982 0.72837 0.0
H14 H 0.27271 0.76002 0.79318 0.0
H15 H 0.29505 0.84804 0.77221 0.0
H16 H 0.35724 0.82728 0.77893 0.0
C17 C 0.34411 0.80774 0.79502 0.0
O18 O 0.30871 0.80629 0.80385 0.0
H19 H 0.34748 0.79036 0.78342 0.0
C20 C 0.24054 0.80009 0.74448 0.0
C21 C 0.25844 0.82636 0.74813 0.0
C22 C 0.24538 0.77606 0.76063 0.0
C23 C 0.26868 0.77834 0.7805 0.0
C24 C 0.28659 0.8043 0.78445 0.0
C25 C 0.28132 0.82817 0.7685 0.0
H26 H 0.71795 0.80315 0.30912 0.0
H27 H 0.75385 0.73335 0.28513 0.0
H28 H 0.7833 0.76704 0.36013 0.0
H29 H 0.84024 0.75298 0.32444 0.0
C30 C 0.82568 0.73597 0.31489 0.0
O31 O 0.7901 0.72987 0.32725 0.0
H32 H 0.82997 0.74299 0.29027 0.0
C33 C 0.73195 0.78741 0.31338 0.0
C34 C 0.75001 0.78735 0.33718 0.0
C35 C 0.73304 0.76808 0.29431 0.0
C36 C 0.7527 0.74858 0.29932 0.0
C37 C 0.77087 0.74842 0.32289 0.0
C38 C 0.76932 0.76759 0.34185 0.0
H39 H 0.77956 0.31711 0.77029 0.0
H40 H 0.71907 0.24071 0.75386 0.0
H41 H 0.81218 0.28718 0.69017 0.0
H42 H 0.75321 0.26284 0.66367 0.0
C43 C 0.74127 0.24354 0.68043 0.0
O44 O 0.76027 0.24247 0.70285 0.0
H45 H 0.71363 0.24357 0.69002 0.0
C46 C 0.77561 0.30143 0.75655 0.0
C47 C 0.79951 0.30477 0.72943 0.0
C48 C 0.74632 0.27851 0.7657 0.0
C49 C 0.74109 0.25882 0.74712 0.0
C50 C 0.76475 0.26206 0.71994 0.0
C51 C 0.7938 0.28504 0.71106 0.0
H52 H 0.74283 0.81982 0.77287 0.0
H53 H 0.77761 0.7475 0.80088 0.0
H54 H 0.80844 0.78849 0.70913 0.0
H55 H 0.79007 0.72653 0.71976 0.0
C56 C 0.80029 0.72289 0.74066 0.0
O57 O 0.81441 0.74792 0.74809 0.0
H58 H 0.77811 0.71061 0.75895 0.0
C59 C 0.75778 0.805 0.76771 0.0
C60 C 0.77555 0.8069 0.7382 0.0
C61 C 0.758 0.7835 0.79042 0.0
C62 C 0.77675 0.76399 0.78353 0.0
C63 C 0.79494 0.76591 0.75426 0.0
C64 C 0.79408 0.78715 0.73164 0.0
H65 H 0.77884 0.2679 0.37273 0.0
H66 H 0.71981 0.22791 0.3136 0.0
H67 H 0.75858 0.3155 0.29533 0.0
H68 H 0.682 0.29177 0.29322 0.0
C69 C 0.68608 0.27448 0.28172 0.0
O70 O 0.72091 0.27343 0.27888 0.0
H71 H 0.66865 0.25487 0.2954 0.0
C72 C 0.76784 0.26905 0.35274 0.0
C73 C 0.77184 0.29492 0.33484 0.0
C74 C 0.74946 0.2446 0.34529 0.0
C75 C 0.73383 0.24636 0.3201 0.0
C76 C 0.73649 0.27197 0.30276 0.0
C77 C 0.75573 0.29606 0.30985 0.0
H78 H 0.21921 0.29556 0.68863 0.0
H79 H 0.25929 0.33292 0.75871 0.0
H80 H 0.28254 0.25772 0.74063 0.0
H81 H 0.25806 0.26123 0.80423 0.0
C82 C 0.27306 0.28277 0.80358 0.0
O83 O 0.29038 0.29472 0.77466 0.0
H84 H 0.25386 0.29444 0.81163 0.0
C85 C 0.23404 0.29544 0.70637 0.0
C86 C 0.25077 0.27409 0.7123 0.0
C87 C 0.23736 0.3171 0.72269 0.0
C88 C 0.25705 0.31685 0.74538 0.0
C89 C 0.27292 0.29536 0.75189 0.0
C90 C 0.27014 0.27427 0.73522 0.0
H91 H 0.19537 0.78519 0.39551 0.0
H92 H 0.25152 0.76073 0.31998 0.0
H93 H 0.28454 0.8431 0.33516 0.0
H94 H 0.28992 0.84018 0.27078 0.0
C95 C 0.29031 0.81815 0.27231 0.0
O96 O 0.29637 0.80864 0.30005 0.0
H97 H 0.26427 0.80632 0.26929 0.0
C98 C 0.21634 0.7903 0.37579 0.0
C99 C 0.23978 0.81678 0.368 0.0
C100 C 0.22064 0.76999 0.35863 0.0
C101 C 0.24815 0.77621 0.33347 0.0
C102 C 0.2708 0.80259 0.325 0.0
C103 C 0.26677 0.82273 0.34223 0.0
C104 C 0.0543 0.55955 0.39585 0.0
C105 C 0.06042 0.56331 0.42396 0.0
C106 C 0.04154 0.53972 0.44358 0.0
C107 C 0.02513 0.52293 0.42639 0.0
N108 N 0.03252 0.53451 0.39725 0.0
Co109 Co 0.01478 0.51753 0.36471 0.0
N110 N 0.9752 0.49054 0.39353 0.0
C111 C 0.97326 0.48398 0.42322 0.0
C112 C 0.94346 0.46396 0.4375 0.0
C113 C 0.92579 0.45717 0.41539 0.0
C114 C 0.94587 0.47352 0.38869 0.0
N115 N 0.99739 0.50048 0.33199 0.0
C116 C 0.96601 0.48306 0.33216 0.0
C117 C 0.96466 0.47671 0.30393 0.0
C118 C 0.99674 0.48984 0.28588 0.0
C119 C 0.01574 0.50369 0.30385 0.0
N120 N 0.0544 0.54463 0.33609 0.0
C121 C 0.06698 0.54282 0.3077 0.0
C122 C 0.09345 0.56541 0.29301 0.0
C123 C 0.09784 0.58243 0.31348 0.0
C124 C 0.07394 0.56906 0.33974 0.0
N125 N 0.04456 0.49171 0.36841 0.0
C126 C 0.08748 0.45486 0.37105 0.0
C127 C 0.10126 0.48286 0.37093 0.0
C128 C 0.07927 0.50089 0.36993 0.0
C129 C 0.05175 0.44564 0.37028 0.0
C130 C 0.03089 0.46435 0.36873 0.0
N131 N 0.98509 0.54327 0.36086 0.0
C132 C 0.96336 0.57498 0.32964 0.0
C133 C 0.9438 0.58108 0.35485 0.0
C134 C 0.94527 0.56776 0.3832 0.0
C135 C 0.9659 0.54882 0.38571 0.0
C136 C 0.98385 0.55617 0.33312 0.0
H137 H 0.96646 0.53875 0.40775 0.0
H138 H 0.99895 0.55227 0.31328 0.0
H139 H 0.09047 0.52233 0.37001 0.0
H140 H 0.00378 0.45661 0.36734 0.0
C141 C 0.99785 0.49901 0.4372 0.0
C142 C 0.07122 0.57929 0.36811 0.0
C143 C 0.93894 0.46934 0.35909 0.0
C144 C 0.04847 0.5229 0.29406 0.0
H145 H 0.07678 0.5812 0.42965 0.0
H146 H 0.03885 0.53584 0.46764 0.0
H147 H 0.93537 0.45547 0.46118 0.0
H148 H 0.90149 0.44133 0.41851 0.0
H149 H 0.94304 0.46341 0.29725 0.0
H150 H 0.00487 0.48984 0.26229 0.0
H151 H 0.10654 0.56978 0.26971 0.0
H152 H 0.11622 0.60248 0.30925 0.0
H153 H 0.12877 0.49073 0.37166 0.0
H154 H 0.04019 0.4242 0.36996 0.0
H155 H 0.96344 0.5851 0.30731 0.0
H156 H 0.93036 0.57174 0.40328 0.0
C157 C 0.08807 0.57187 0.75361 0.0
C158 C 0.09005 0.57412 0.783 0.0
C159 C 0.06461 0.55273 0.8008 0.0
C160 C 0.04837 0.53879 0.78145 0.0
N161 N 0.06222 0.54971 0.75224 0.0
Co162 Co 0.04457 0.53726 0.71674 0.0
N163 N 0.00546 0.50707 0.74317 0.0
C164 C 0.99817 0.50112 0.77343 0.0
C165 C 0.97016 0.47881 0.78526 0.0
C166 C 0.95926 0.46959 0.76112 0.0
C167 C 0.98151 0.48683 0.73587 0.0
N168 N 0.0266 0.52507 0.68127 0.0
C169 C 1.00052 0.50309 0.67992 0.0
C170 C 0.99734 0.50152 0.65065 0.0
C171 C 0.0225 0.52315 0.63283 0.0
C172 C 0.03959 0.53659 0.65213 0.0
N173 N 0.08403 0.56716 0.69033 0.0
C174 C 0.09182 0.57261 0.66007 0.0
C175 C 0.12045 0.59444 0.6482 0.0
C176 C 0.13134 0.60379 0.67231 0.0
C177 C 0.10842 0.58715 0.69758 0.0
N178 N 0.07526 0.51118 0.71522 0.0
C179 C 0.11285 0.47017 0.71271 0.0
C180 C 0.11232 0.48783 0.68676 0.0
C181 C 0.09351 0.50802 0.68851 0.0
C182 C 0.09537 0.47408 0.74002 0.0
C183 C 0.07712 0.49463 0.74077 0.0
N184 N 0.01362 0.56319 0.71825 0.0
C185 C 0.99225 0.59994 0.69408 0.0
C186 C 0.97003 0.60028 0.72086 0.0
C187 C 0.97002 0.58162 0.74622 0.0
C188 C 0.9919 0.5636 0.74447 0.0
C189 C 0.01353 0.58134 0.69327 0.0
H190 H 0.9907 0.55021 0.76472 0.0
H191 H 0.02982 0.58216 0.67219 0.0
H192 H 0.09355 0.52044 0.66788 0.0
H193 H 0.06427 0.49642 0.76228 0.0
C194 C 0.01882 0.51636 0.79007 0.0
C195 C 0.10985 0.5921 0.72783 0.0
C196 C 0.9798 0.48233 0.70554 0.0
C197 C 0.07009 0.55824 0.64348 0.0
H198 H 0.10736 0.58995 0.79097 0.0
H199 H 0.05797 0.54839 0.82501 0.0
H200 H 0.95941 0.46997 0.80863 0.0
H201 H 0.93781 0.45183 0.76199 0.0
H202 H 0.97943 0.4859 0.6429 0.0
H203 H 0.02857 0.52784 0.60862 0.0
H204 H 0.13144 0.60306 0.62482 0.0
H205 H 0.15312 0.62131 0.67142 0.0
H206 H 0.12549 0.48561 0.66505 0.0
H207 H 0.09572 0.46132 0.76083 0.0
H208 H 0.99367 0.61418 0.67382 0.0
H209 H 0.9529 0.58059 0.76744 0.0
C210 C 0.26818 0.00792 0.58855 0.0
C211 C 0.30164 0.00547 0.59167 0.0
C212 C 0.32517 0.02435 0.56932 0.0
C213 C 0.30492 0.03708 0.55371 0.0
N214 N 0.26978 0.02765 0.56483 0.0
Co215 Co 0.23085 0.03942 0.5478 0.0
N216 N 0.26564 0.06665 0.5145 0.0
C217 C 0.30122 0.07125 0.50897 0.0
C218 C 0.3181 0.09153 0.48475 0.0
C219 C 0.2918 0.10088 0.47451 0.0
C220 C 0.2603 0.08582 0.49332 0.0
N221 N 0.19199 0.05116 0.53063 0.0
C222 C 0.19369 0.07216 0.50821 0.0
C223 C 0.16025 0.07432 0.50473 0.0
C224 C 0.13664 0.05408 0.5257 0.0
C225 C 0.15682 0.04086 0.54088 0.0
N226 N 0.19608 0.01239 0.5813 0.0
C227 C 0.16048 0.00755 0.58643 0.0
C228 C 0.14354 0.98803 0.6113 0.0
C229 C 0.16984 0.97968 0.62265 0.0
C230 C 0.20145 0.99451 0.60381 0.0
N231 N 0.2324 0.06858 0.57258 0.0
C232 C 0.23475 0.11233 0.60447 0.0
C233 C 0.20253 0.09545 0.60238 0.0
C234 C 0.20196 0.07373 0.58667 0.0
C235 C 0.26576 0.10659 0.59084 0.0
C236 C 0.264 0.08488 0.57506 0.0
N237 N 0.22928 0.01023 0.52285 0.0
C238 C 0.19645 0.97191 0.50446 0.0
C239 C 0.22756 0.96814 0.48837 0.0
C240 C 0.25947 0.98585 0.48987 0.0
C241 C 0.25971 0.00653 0.50697 0.0
C242 C 0.19791 0.99288 0.52138 0.0
H243 H 0.28495 0.01907 0.50708 0.0
H244 H 0.17329 0.99455 0.53312 0.0
H245 H 0.17658 0.06156 0.586 0.0
H246 H 0.28857 0.08193 0.56469 0.0
C247 C 0.3181 0.05722 0.52788 0.0
C248 C 0.23572 0.99031 0.60789 0.0
C249 C 0.22626 0.09149 0.49108 0.0
C250 C 0.14366 0.02098 0.56692 0.0
H251 H 0.30851 0.99118 0.608 0.0
H252 H 0.35363 0.02794 0.56461 0.0
H253 H 0.34623 0.09912 0.47607 0.0
H254 H 0.29545 0.11741 0.45576 0.0
H255 H 0.15342 0.08949 0.48942 0.0
H256 H 0.10816 0.05033 0.53028 0.0
H257 H 0.11539 0.98052 0.61994 0.0
H258 H 0.16614 0.96418 0.64239 0.0
H259 H 0.1778 0.09887 0.61298 0.0
H260 H 0.29138 0.11923 0.5917 0.0
H261 H 0.17097 0.95894 0.50381 0.0
H262 H 0.28442 0.98357 0.47829 0.0
C263 C 0.49659 0.81919 0.08466 0.0
C264 C 0.49693 0.8455 0.09022 0.0
C265 C 0.52479 0.86315 0.07035 0.0
C266 C 0.53997 0.84673 0.054 0.0
N267 N 0.52344 0.8196 0.06206 0.0
Co268 Co 0.53807 0.78846 0.04519 0.0
N269 N 0.57949 0.81454 0.01629 0.0
C270 C 0.5889 0.84233 0.01308 0.0
C271 C 0.61715 0.85488 0.99028 0.0
C272 C 0.62628 0.83394 0.97793 0.0
C273 C 0.60314 0.80962 0.99419 0.0
N274 N 0.55295 0.75731 0.0286 0.0
C275 C 0.57978 0.75772 0.006 0.0
C276 C 0.58122 0.73129 0.00205 0.0
C277 C 0.55384 0.71357 0.02239 0.0
C278 C 0.53748 0.73007 0.0377 0.0
N279 N 0.49639 0.76241 0.07379 0.0
C280 C 0.4864 0.73468 0.07646 0.0
C281 C 0.4565 0.72235 0.09777 0.0
C282 C 0.44682 0.74339 0.10959 0.0
C283 C 0.47165 0.76745 0.09485 0.0
N284 N 0.50847 0.79165 0.01468 0.0
C285 C 0.46886 0.79612 0.96948 0.0
C286 C 0.46859 0.7704 0.98525 0.0
C287 C 0.48835 0.76866 0.00756 0.0
C288 C 0.48882 0.81956 0.97716 0.0
C289 C 0.50818 0.81689 0.99963 0.0
N290 N 0.56767 0.78526 0.07575 0.0
C291 C 0.58477 0.75771 0.11534 0.0
C292 C 0.60683 0.78108 0.12128 0.0
C293 C 0.60956 0.8065 0.1036 0.0
C294 C 0.59007 0.80808 0.08107 0.0
C295 C 0.56558 0.76025 0.09272 0.0
H296 H 0.59342 0.82805 0.06844 0.0
H297 H 0.54891 0.74169 0.0897 0.0
H298 H 0.48725 0.74846 0.01849 0.0
H299 H 0.52289 0.83555 0.00428 0.0
C300 C 0.56992 0.85616 0.03114 0.0
C301 C 0.47073 0.79449 0.10194 0.0
C302 C 0.60389 0.78249 0.98712 0.0
C303 C 0.5065 0.7207 0.05955 0.0
H304 H 0.47916 0.85137 0.10711 0.0
H305 H 0.53321 0.8853 0.06829 0.0
H306 H 0.62918 0.87672 0.98305 0.0
H307 H 0.64723 0.83649 0.95873 0.0
H308 H 0.59983 0.72544 0.98582 0.0
H309 H 0.54634 0.69132 0.02528 0.0
H310 H 0.44353 0.7006 0.10422 0.0
H311 H 0.4242 0.74124 0.12724 0.0
H312 H 0.45383 0.75157 0.97999 0.0
H313 H 0.48944 0.83999 0.96599 0.0
H314 H 0.58156 0.73756 0.12857 0.0
H315 H 0.62678 0.82515 0.10702 0.0
C316 C 0.78714 0.97855 0.56221 0.0
C317 C 0.82079 0.97878 0.56716 0.0
C318 C 0.84391 0.99807 0.54489 0.0
C319 C 0.82319 0.00869 0.52785 0.0
N320 N 0.78816 0.99747 0.53798 0.0
Co321 Co 0.74872 0.00781 0.52066 0.0
N322 N 0.78289 0.03525 0.48722 0.0
C323 C 0.81844 0.03974 0.48101 0.0
C324 C 0.83476 0.05994 0.45655 0.0
C325 C 0.80809 0.06922 0.44684 0.0
C326 C 0.77698 0.05419 0.46618 0.0
N327 N 0.70934 0.01908 0.50394 0.0
C328 C 0.71056 0.04047 0.48216 0.0
C329 C 0.67697 0.04268 0.47931 0.0
C330 C 0.65369 0.02212 0.50017 0.0
C331 C 0.67428 0.00873 0.51466 0.0
N332 N 0.71451 0.97964 0.55354 0.0
C333 C 0.67888 0.97287 0.55747 0.0
C334 C 0.66241 0.95157 0.58077 0.0
C335 C 0.68909 0.94404 0.5923 0.0
C336 C 0.72047 0.96144 0.57543 0.0
N337 N 0.74882 0.0366 0.54572 0.0
C338 C 0.74797 0.08011 0.57756 0.0
C339 C 0.7173 0.05945 0.57954 0.0
C340 C 0.71829 0.03806 0.56355 0.0
C341 C 0.77928 0.07814 0.56007 0.0
C342 C 0.77915 0.05633 0.54461 0.0
N343 N 0.74861 0.97897 0.4954 0.0
C344 C 0.71702 0.94313 0.47302 0.0
C345 C 0.74842 0.93702 0.46095 0.0
C346 C 0.77993 0.95244 0.46626 0.0
C347 C 0.77943 0.97313 0.48328 0.0
C348 C 0.7177 0.96395 0.49001 0.0
H349 H 0.8044 0.98392 0.48646 0.0
H350 H 0.69281 0.96739 0.49857 0.0
H351 H 0.69392 0.02321 0.56553 0.0
H352 H 0.80384 0.05606 0.53157 0.0
C353 C 0.83587 0.02755 0.50097 0.0
C354 C 0.75522 0.95933 0.58051 0.0
C355 C 0.74285 0.05999 0.46496 0.0
C356 C 0.66161 0.98717 0.53919 0.0
H357 H 0.82794 0.96598 0.58476 0.0
H358 H 0.87246 0.00327 0.54117 0.0
H359 H 0.86282 0.06794 0.44776 0.0
H360 H 0.81125 0.08587 0.42834 0.0
H361 H 0.66991 0.05796 0.46429 0.0
H362 H 0.62517 0.01798 0.50485 0.0
H363 H 0.63435 0.94244 0.58832 0.0
H364 H 0.68572 0.92737 0.61081 0.0
H365 H 0.69235 0.06015 0.5927 0.0
H366 H 0.80387 0.09338 0.5583 0.0
H367 H 0.6919 0.9321 0.46919 0.0
H368 H 0.80499 0.94832 0.45776 0.0
C369 C 0.47614 0.31516 0.05644 0.0
C370 C 0.47456 0.34153 0.06053 0.0
C371 C 0.50106 0.35939 0.03948 0.0
C372 C 0.51716 0.34301 0.02375 0.0
N373 N 0.50235 0.31572 0.03324 0.0
Co374 Co 0.51804 0.28466 0.01709 0.0
N375 N 0.55705 0.31103 0.98614 0.0
C376 C 0.56516 0.33888 0.9818 0.0
C377 C 0.5927 0.35143 0.95834 0.0
C378 C 0.60251 0.33038 0.94665 0.0
C379 C 0.58017 0.30609 0.96369 0.0
N380 N 0.53422 0.2536 0.00135 0.0
C381 C 0.55984 0.25412 0.97769 0.0
C382 C 0.56181 0.22773 0.974 0.0
C383 C 0.53654 0.2099 0.99607 0.0
C384 C 0.52055 0.2263 0.01184 0.0
N385 N 0.47847 0.25827 0.04755 0.0
C386 C 0.47014 0.23043 0.05158 0.0
C387 C 0.44197 0.21782 0.07446 0.0
C388 C 0.43164 0.23881 0.08585 0.0
C389 C 0.45416 0.26317 0.06909 0.0
N390 N 0.48614 0.285 0.98817 0.0
C391 C 0.44086 0.28532 0.94703 0.0
C392 C 0.44424 0.26058 0.96243 0.0
C393 C 0.46674 0.26089 0.98273 0.0
C394 C 0.4607 0.30992 0.95252 0.0
C395 C 0.483 0.3093 0.97297 0.0
N396 N 0.54986 0.28435 0.04618 0.0
C397 C 0.56796 0.2602 0.0876 0.0
C398 C 0.58985 0.28465 0.09151 0.0
C399 C 0.59245 0.30876 0.07146 0.0
C400 C 0.57241 0.30815 0.04921 0.0
C401 C 0.54866 0.26049 0.06489 0.0
H402 H 0.57525 0.32731 0.03505 0.0
H403 H 0.5324 0.24119 0.06339 0.0
H404 H 0.46807 0.24134 0.99367 0.0
H405 H 0.49739 0.32873 0.97614 0.0
C406 C 0.54601 0.35265 0.99985 0.0
C407 C 0.45222 0.29032 0.07527 0.0
C408 C 0.58161 0.27894 0.95728 0.0
C409 C 0.49067 0.21667 0.03478 0.0
H410 H 0.45622 0.34727 0.07708 0.0
H411 H 0.50784 0.38166 0.0361 0.0
H412 H 0.604 0.37329 0.95045 0.0
H413 H 0.62351 0.33264 0.92753 0.0
H414 H 0.57904 0.22186 0.95671 0.0
H415 H 0.5298 0.18763 0.99954 0.0
H416 H 0.43082 0.19594 0.08239 0.0
H417 H 0.41034 0.23638 0.10477 0.0
H418 H 0.4299 0.24093 0.95864 0.0
H419 H 0.45874 0.32966 0.94143 0.0
H420 H 0.56471 0.24093 0.10256 0.0
H421 H 0.60967 0.32816 0.07299 0.0
H422 H 0.15685 0.3055 0.36434 0.0
H423 H 0.25465 0.36885 0.34013 0.0
H424 H 0.12436 0.34008 0.37326 0.0
H425 H 0.22261 0.40347 0.35034 0.0
H426 H 0.15086 0.46103 0.33407 0.0
H427 H 0.18544 0.42715 0.32977 0.0
H428 H 0.11036 0.37098 0.4036 0.0
H429 H 0.0751 0.4046 0.40678 0.0
C430 C 0.17141 0.32682 0.36152 0.0
C431 C 0.20818 0.33457 0.35142 0.0
C432 C 0.15286 0.34669 0.36676 0.0
C433 C 0.17074 0.37474 0.36244 0.0
C434 C 0.20777 0.38224 0.35328 0.0
C435 C 0.22621 0.36241 0.3476 0.0
C436 C 0.14207 0.44155 0.34957 0.0
C437 C 0.11029 0.43537 0.37067 0.0
C438 C 0.16193 0.42209 0.34723 0.0
C439 C 0.15073 0.39612 0.36625 0.0
C440 C 0.11949 0.39044 0.38811 0.0
C441 C 0.09937 0.40975 0.39011 0.0
H442 H 0.27222 0.73258 0.74912 0.0
H443 H 0.17493 0.75794 0.7629 0.0
H444 H 0.24054 0.68823 0.7402 0.0
H445 H 0.14279 0.71333 0.7554 0.0
H446 H 0.09927 0.64262 0.71145 0.0
H447 H 0.13301 0.68698 0.71853 0.0
H448 H 0.2006 0.64583 0.76229 0.0
H449 H 0.16788 0.60177 0.75332 0.0
C450 C 0.24394 0.72845 0.75062 0.0
C451 C 0.22601 0.74866 0.75655 0.0
C452 C 0.2257 0.70301 0.74563 0.0
C453 C 0.189 0.69709 0.74691 0.0
C454 C 0.17111 0.71727 0.75347 0.0
C455 C 0.18944 0.7428 0.75798 0.0
C456 C 0.12153 0.64327 0.72239 0.0
C457 C 0.13088 0.61895 0.73215 0.0
C458 C 0.14068 0.66859 0.72676 0.0
C459 C 0.16941 0.67011 0.74134 0.0
C460 C 0.17895 0.64562 0.75072 0.0
C461 C 0.16006 0.62033 0.7459 0.0
H462 H 0.82675 0.70809 0.36981 0.0
H463 H 0.85681 0.70836 0.27551 0.0
H464 H 0.85187 0.66882 0.3813 0.0
H465 H 0.88283 0.66982 0.28667 0.0
H466 H 0.90037 0.5861 0.31533 0.0
H467 H 0.86885 0.6217 0.30707 0.0
H468 H 0.90862 0.65856 0.37775 0.0
H469 H 0.93965 0.62261 0.38629 0.0
C470 C 0.83866 0.69961 0.3516 0.0
C471 C 0.83977 0.71109 0.32183 0.0
C472 C 0.85327 0.67731 0.35811 0.0
C473 C 0.86941 0.66612 0.33492 0.0
C474 C 0.87012 0.67756 0.30512 0.0
C475 C 0.85542 0.69976 0.29867 0.0
C476 C 0.9023 0.6018 0.32913 0.0
C477 C 0.92267 0.60166 0.35133 0.0
C478 C 0.88431 0.62225 0.32436 0.0
C479 C 0.88641 0.64319 0.34155 0.0
C480 C 0.90604 0.6426 0.36432 0.0
C481 C 0.92389 0.62202 0.36921 0.0
H482 H 0.82124 0.34191 0.67675 0.0
H483 H 0.84699 0.32208 0.76319 0.0
H484 H 0.86892 0.38448 0.66525 0.0
H485 H 0.89432 0.36431 0.75187 0.0
H486 H 0.91772 0.47333 0.686 0.0
H487 H 0.87745 0.42865 0.68678 0.0
H488 H 0.95255 0.38729 0.71767 0.0
H489 H 0.9926 0.432 0.71678 0.0
C490 C 0.83749 0.34647 0.69302 0.0
C491 C 0.83045 0.32889 0.72089 0.0
C492 C 0.86454 0.37082 0.68655 0.0
C493 C 0.88531 0.37767 0.70766 0.0
C494 C 0.87904 0.35945 0.73502 0.0
C495 C 0.85181 0.3354 0.74161 0.0
C496 C 0.9258 0.45462 0.69218 0.0
C497 C 0.95803 0.45583 0.70128 0.0
C498 C 0.90291 0.42912 0.69258 0.0
C499 C 0.91182 0.40451 0.70245 0.0
C500 C 0.94489 0.40592 0.71022 0.0
C501 C 0.96782 0.43138 0.7096 0.0
H502 H 0.18047 0.23047 0.38268 0.0
H503 H 0.29339 0.25065 0.37585 0.0
H504 H 0.17489 0.18702 0.41656 0.0
H505 H 0.28776 0.20765 0.41017 0.0
H506 H 0.25285 0.14339 0.49955 0.0
H507 H 0.25544 0.18702 0.46747 0.0
H508 H 0.20024 0.14219 0.4091 0.0
H509 H 0.19891 0.09851 0.44063 0.0
C510 C 0.20398 0.22566 0.38867 0.0
C511 C 0.23735 0.24376 0.37674 0.0
C512 C 0.20082 0.20086 0.40785 0.0
C513 C 0.23091 0.19413 0.41592 0.0
C514 C 0.26418 0.21249 0.40439 0.0
C515 C 0.26741 0.23695 0.38473 0.0
C516 C 0.24118 0.14298 0.47991 0.0
C517 C 0.22537 0.11776 0.4726 0.0
C518 C 0.24269 0.16782 0.46161 0.0
C519 C 0.2279 0.16786 0.43597 0.0
C520 C 0.21147 0.14264 0.42896 0.0
C521 C 0.21064 0.11776 0.44694 0.0
H522 H 0.3462 0.76183 0.83295 0.0
H523 H 0.37875 0.85053 0.81805 0.0
H524 H 0.37508 0.7593 0.87588 0.0
H525 H 0.40719 0.84823 0.86125 0.0
H526 H 0.49012 0.83156 0.9156 0.0
H527 H 0.45857 0.83472 0.87472 0.0
H528 H 0.37137 0.76897 0.92644 0.0
H529 H 0.40293 0.76584 0.96745 0.0
C530 C 0.35951 0.78076 0.83901 0.0
C531 C 0.36098 0.80634 0.82195 0.0
C532 C 0.37581 0.77937 0.86367 0.0
C533 C 0.3937 0.80358 0.87188 0.0
C534 C 0.39423 0.8292 0.8552 0.0
C535 C 0.37788 0.83055 0.83058 0.0
C536 C 0.46402 0.81801 0.91844 0.0
C537 C 0.44909 0.79844 0.94484 0.0
C538 C 0.44592 0.81982 0.89497 0.0
C539 C 0.41242 0.8021 0.89728 0.0
C540 C 0.39734 0.78266 0.92376 0.0
C541 C 0.41545 0.78086 0.94726 0.0
H542 H 0.69327 0.80506 0.36141 0.0
H543 H 0.80547 0.81734 0.35651 0.0
H544 H 0.69277 0.84107 0.39147 0.0
H545 H 0.80483 0.85288 0.38716 0.0
H546 H 0.79592 0.93677 0.41063 0.0
H547 H 0.79622 0.90002 0.38176 0.0
H548 H 0.70091 0.85007 0.44159 0.0
H549 H 0.70079 0.88665 0.4708 0.0
C550 C 0.7178 0.81542 0.36681 0.0
C551 C 0.74942 0.80841 0.35654 0.0
C552 C 0.71746 0.83586 0.38424 0.0
C553 C 0.74878 0.84985 0.39163 0.0
C554 C 0.78034 0.84267 0.38157 0.0
C555 C 0.78064 0.82212 0.3643 0.0
C556 C 0.77522 0.91785 0.41787 0.0
C557 C 0.74836 0.9147 0.4431 0.0
C558 C 0.7754 0.8968 0.40128 0.0
C559 C 0.74863 0.87213 0.40942 0.0
C560 C 0.72167 0.86898 0.43454 0.0
C561 C 0.72157 0.88998 0.45123 0.0
H562 H 0.76248 0.289 0.81902 0.0
H563 H 0.67398 0.26127 0.77777 0.0
H564 H 0.72209 0.28796 0.86515 0.0
H565 H 0.6334 0.25885 0.82458 0.0
H566 H 0.57354 0.29189 0.90012 0.0
H567 H 0.61278 0.28983 0.85407 0.0
H568 H 0.68065 0.25811 0.9066 0.0
H569 H 0.64185 0.26126 0.95241 0.0
C570 C 0.73435 0.28253 0.81985 0.0
C571 C 0.72147 0.27549 0.79458 0.0
C572 C 0.71116 0.28158 0.84648 0.0
C573 C 0.67444 0.27338 0.84862 0.0
C574 C 0.66152 0.26563 0.82359 0.0
C575 C 0.68478 0.26668 0.79686 0.0
C576 C 0.59687 0.28446 0.90159 0.0
C577 C 0.60486 0.27667 0.92953 0.0
C578 C 0.61918 0.28304 0.87534 0.0
C579 C 0.64988 0.27374 0.87659 0.0
C580 C 0.65751 0.2657 0.90477 0.0
C581 C 0.63529 0.26729 0.93098 0.0
H582 H 0.30841 0.87486 0.72349 0.0
H583 H 0.19788 0.83532 0.73169 0.0
H584 H 0.30133 0.91516 0.69172 0.0
H585 H 0.19139 0.87525 0.69898 0.0
H586 H 0.21203 0.93574 0.60764 0.0
H587 H 0.21602 0.89669 0.64365 0.0
H588 H 0.26773 0.9531 0.69428 0.0
H589 H 0.26301 0.99213 0.65843 0.0
C590 C 0.28252 0.87482 0.71889 0.0
C591 C 0.25378 0.85164 0.73009 0.0
C592 C 0.27854 0.8979 0.70057 0.0
C593 C 0.24587 0.89822 0.69275 0.0
C594 C 0.217 0.87537 0.70433 0.0
C595 C 0.22082 0.85245 0.72296 0.0
C596 C 0.22394 0.93966 0.62664 0.0
C597 C 0.23738 0.96676 0.63034 0.0
C598 C 0.22616 0.91741 0.64724 0.0
C599 C 0.24225 0.9219 0.6717 0.0
C600 C 0.25547 0.94908 0.67548 0.0
C601 C 0.25274 0.97133 0.65511 0.0
H602 H 0.75565 0.76043 0.23727 0.0
H603 H 0.66767 0.77725 0.29386 0.0
H604 H 0.72539 0.76306 0.19537 0.0
H605 H 0.63776 0.78025 0.25187 0.0
H606 H 0.61471 0.81497 0.16217 0.0
H607 H 0.64545 0.81132 0.20363 0.0
H608 H 0.67249 0.73844 0.17879 0.0
H609 H 0.64237 0.74246 0.13682 0.0
C610 C 0.72972 0.7644 0.24089 0.0
C611 C 0.71418 0.76873 0.26894 0.0
C612 C 0.71242 0.76596 0.21684 0.0
C613 C 0.67928 0.77203 0.22026 0.0
C614 C 0.66355 0.77602 0.24838 0.0
C615 C 0.68073 0.77432 0.27244 0.0
C616 C 0.62752 0.79834 0.16536 0.0
C617 C 0.62614 0.77903 0.14618 0.0
C618 C 0.6448 0.79606 0.18931 0.0
C619 C 0.66127 0.77452 0.19456 0.0
C620 C 0.66024 0.75537 0.17521 0.0
C621 C 0.64274 0.75754 0.15135 0.0
H622 H 0.79721 0.23427 0.64404 0.0
H623 H 0.68721 0.19797 0.68337 0.0
H624 H 0.79938 0.19451 0.61987 0.0
H625 H 0.68881 0.15853 0.6586 0.0
H626 H 0.71385 0.07952 0.63445 0.0
H627 H 0.71239 0.11869 0.65956 0.0
H628 H 0.77842 0.17361 0.5804 0.0
H629 H 0.78019 0.13444 0.55552 0.0
C630 C 0.77346 0.2178 0.64724 0.0
C631 C 0.742 0.21921 0.66523 0.0
C632 C 0.77458 0.19512 0.63333 0.0
C633 C 0.74422 0.17334 0.63716 0.0
C634 C 0.71278 0.17475 0.65542 0.0
C635 C 0.71173 0.19741 0.66941 0.0
C636 C 0.72791 0.09999 0.6224 0.0
C637 C 0.74723 0.10387 0.59304 0.0
C638 C 0.72703 0.12246 0.63676 0.0
C639 C 0.74531 0.14934 0.62203 0.0
C640 C 0.76456 0.15317 0.59263 0.0
C641 C 0.76556 0.13071 0.57834 0.0
H642 H 0.33535 0.33491 0.23081 0.0
H643 H 0.27187 0.2568 0.22109 0.0
H644 H 0.37926 0.33429 0.18697 0.0
H645 H 0.31563 0.25604 0.17745 0.0
H646 H 0.38089 0.27989 0.08171 0.0
H647 H 0.33786 0.28187 0.12553 0.0
H648 H 0.4229 0.30777 0.1712 0.0
H649 H 0.46575 0.30578 0.12718 0.0
C650 C 0.33109 0.31748 0.21947 0.0
C651 C 0.3006 0.29569 0.22956 0.0
C652 C 0.35614 0.3171 0.19444 0.0
C653 C 0.35087 0.29511 0.17878 0.0
C654 C 0.32026 0.27339 0.18887 0.0
C655 C 0.29537 0.2737 0.21397 0.0
C656 C 0.39016 0.28605 0.10117 0.0
C657 C 0.42634 0.29258 0.10138 0.0
C658 C 0.36567 0.28706 0.12624 0.0
C659 C 0.37701 0.29483 0.15186 0.0
C660 C 0.4134 0.30191 0.15172 0.0
C661 C 0.43786 0.3007 0.12669 0.0
H662 H 0.86369 0.72852 0.76041 0.0
H663 H 0.7976 0.67944 0.7119 0.0
H664 H 0.90593 0.70067 0.7537 0.0
H665 H 0.83908 0.65058 0.70634 0.0
H666 H 0.93439 0.61778 0.67864 0.0
H667 H 0.89588 0.64896 0.68189 0.0
H668 H 0.91293 0.65667 0.77085 0.0
H669 H 0.95319 0.62709 0.7668 0.0
C670 C 0.85826 0.71187 0.74812 0.0
C671 C 0.82764 0.70656 0.73601 0.0
C672 C 0.88234 0.69564 0.74457 0.0
C673 C 0.87608 0.67331 0.72941 0.0
C674 C 0.84525 0.6679 0.71758 0.0
C675 C 0.82135 0.68432 0.72088 0.0
C676 C 0.93044 0.6265 0.69869 0.0
C677 C 0.94691 0.61976 0.72249 0.0
C678 C 0.90789 0.64411 0.70074 0.0
C679 C 0.90104 0.65531 0.7267 0.0
C680 C 0.91781 0.64877 0.75035 0.0
C681 C 0.94056 0.63138 0.7482 0.0
H682 H 0.76228 0.34754 0.32699 0.0
H683 H 0.83212 0.30041 0.3577 0.0
H684 H 0.80156 0.3895 0.33382 0.0
H685 H 0.86936 0.34176 0.36712 0.0
H686 H 0.95266 0.4223 0.34489 0.0
H687 H 0.91112 0.38065 0.34026 0.0
H688 H 0.82433 0.41649 0.36732 0.0
H689 H 0.86679 0.45905 0.37003 0.0
C690 C 0.78581 0.34601 0.3354 0.0
C691 C 0.79402 0.32043 0.34149 0.0
C692 C 0.8081 0.37011 0.33981 0.0
C693 C 0.83894 0.36921 0.3508 0.0
C694 C 0.84635 0.34348 0.35797 0.0
C695 C 0.82448 0.31953 0.35307 0.0
C696 C 0.92467 0.42125 0.34958 0.0
C697 C 0.91277 0.44387 0.35731 0.0
C698 C 0.90074 0.39725 0.34735 0.0
C699 C 0.86416 0.39498 0.35356 0.0
C700 C 0.85227 0.41759 0.3619 0.0
C701 C 0.87642 0.44188 0.36367 0.0
H702 H 0.16972 0.31297 0.71453 0.0
H703 H 0.26523 0.37228 0.71788 0.0
H704 H 0.13952 0.34995 0.70907 0.0
H705 H 0.23494 0.40909 0.71305 0.0
H706 H 0.17759 0.47208 0.67942 0.0
H707 H 0.2076 0.43493 0.67816 0.0
H708 H 0.11919 0.38016 0.74215 0.0
H709 H 0.08892 0.41705 0.74289 0.0
C710 C 0.18436 0.33394 0.71373 0.0
C711 C 0.21978 0.33971 0.7168 0.0
C712 C 0.16699 0.35506 0.7109 0.0
C713 C 0.18478 0.38242 0.71081 0.0
C714 C 0.22055 0.38828 0.71283 0.0
C715 C 0.23781 0.36716 0.71587 0.0
C716 C 0.16444 0.45202 0.69296 0.0
C717 C 0.13098 0.44755 0.71139 0.0
C718 C 0.18172 0.43081 0.69241 0.0
C719 C 0.16579 0.40461 0.71007 0.0
C720 C 0.13204 0.40002 0.72805 0.0
C721 C 0.11489 0.42125 0.72876 0.0
H722 H 0.23534 0.72205 0.37962 0.0
H723 H 0.15195 0.75575 0.35372 0.0
H724 H 0.1977 0.67548 0.38644 0.0
H725 H 0.11466 0.70926 0.35867 0.0
H726 H 0.04653 0.62173 0.38549 0.0
H727 H 0.08084 0.66751 0.3886 0.0
H728 H 0.17722 0.64454 0.35703 0.0
H729 H 0.14279 0.59856 0.35604 0.0
C730 C 0.20873 0.71933 0.37563 0.0
C731 C 0.19632 0.74224 0.36629 0.0
C732 C 0.18725 0.6927 0.37915 0.0
C733 C 0.15317 0.6884 0.37266 0.0
C734 C 0.14048 0.71159 0.36425 0.0
C735 C 0.1618 0.73826 0.36129 0.0
C736 C 0.07509 0.62668 0.37936 0.0
C737 C 0.09212 0.60708 0.36975 0.0
C738 C 0.09478 0.65289 0.38096 0.0
C739 C 0.13194 0.66 0.37285 0.0
C740 C 0.14878 0.63991 0.36387 0.0
C741 C 0.1291 0.61366 0.36276 0.0
H742 H 0.76201 0.80287 0.68256 0.0
H743 H 0.78608 0.86163 0.74023 0.0
H744 H 0.75693 0.83951 0.64442 0.0
H745 H 0.78208 0.89848 0.70189 0.0
H746 H 0.73515 0.95256 0.64104 0.0
H747 H 0.74018 0.91548 0.67885 0.0
H748 H 0.78935 0.87937 0.60897 0.0
H749 H 0.78262 0.91589 0.57136 0.0
C750 C 0.7667 0.82372 0.68687 0.0
C751 C 0.77431 0.8294 0.71438 0.0
C752 C 0.76387 0.84476 0.66501 0.0
C753 C 0.76894 0.87202 0.67005 0.0
C754 C 0.77724 0.87768 0.69742 0.0
C755 C 0.77972 0.85661 0.71937 0.0
C756 C 0.74679 0.93651 0.63396 0.0
C757 C 0.75834 0.93682 0.60349 0.0
C758 C 0.75002 0.91542 0.65553 0.0
C759 C 0.76529 0.89439 0.64703 0.0
C760 C 0.77698 0.89493 0.61637 0.0
C761 C 0.77341 0.91589 0.59483 0.0
H762 H 0.63494 0.29821 0.26657 0.0
H763 H 0.71261 0.25789 0.22978 0.0
H764 H 0.61432 0.30182 0.21959 0.0
H765 H 0.69322 0.26257 0.18223 0.0
H766 H 0.62024 0.24542 0.11576 0.0
H767 H 0.64518 0.24417 0.16052 0.0
H768 H 0.62858 0.32441 0.16902 0.0
H769 H 0.60144 0.32482 0.12549 0.0
C770 C 0.64809 0.29068 0.24814 0.0
C771 C 0.67593 0.27844 0.2516 0.0
C772 C 0.63644 0.29285 0.22114 0.0
C773 C 0.65229 0.28273 0.19691 0.0
C774 C 0.68019 0.27042 0.20043 0.0
C775 C 0.69162 0.26802 0.22758 0.0
C776 C 0.62166 0.26272 0.12728 0.0
C777 C 0.60845 0.28509 0.11707 0.0
C778 C 0.63648 0.26219 0.15277 0.0
C779 C 0.63877 0.28413 0.16858 0.0
C780 C 0.62671 0.30692 0.15775 0.0
C781 C 0.6116 0.30735 0.13243 0.0
H782 H 0.30398 0.25342 0.68719 0.0
H783 H 0.19148 0.2436 0.69826 0.0
H784 H 0.29968 0.21488 0.66066 0.0
H785 H 0.1868 0.20438 0.67244 0.0
H786 H 0.19636 0.15081 0.60068 0.0
H787 H 0.20005 0.19053 0.62554 0.0
H788 H 0.27936 0.16637 0.66971 0.0
H789 H 0.27624 0.1272 0.64418 0.0
C790 C 0.27827 0.24286 0.68406 0.0
C791 C 0.24805 0.25143 0.69489 0.0
C792 C 0.27573 0.22066 0.66899 0.0
C793 C 0.24283 0.20623 0.66462 0.0
C794 C 0.21264 0.21515 0.67506 0.0
C795 C 0.21526 0.23759 0.68991 0.0
C796 C 0.2144 0.15396 0.61586 0.0
C797 C 0.2361 0.13595 0.62041 0.0
C798 C 0.21649 0.1767 0.63018 0.0
C799 C 0.24013 0.18184 0.64958 0.0
C800 C 0.26141 0.16349 0.65443 0.0
C801 C 0.25955 0.14094 0.6399 0.0
H802 H 0.31523 0.77243 0.26689 0.0
H803 H 0.32715 0.85566 0.22219 0.0
H804 H 0.35865 0.76601 0.22587 0.0
H805 H 0.37056 0.84938 0.18124 0.0
H806 H 0.41483 0.81677 0.09886 0.0
H807 H 0.37138 0.82228 0.14046 0.0
H808 H 0.42295 0.78311 0.20324 0.0
H809 H 0.46629 0.77768 0.16143 0.0
C810 C 0.32754 0.78943 0.24844 0.0
C811 C 0.31843 0.81471 0.24792 0.0
C812 C 0.35234 0.78578 0.22501 0.0
C813 C 0.36805 0.8072 0.20036 0.0
C814 C 0.3587 0.83242 0.19981 0.0
C815 C 0.3341 0.83611 0.22332 0.0
C816 C 0.41666 0.80936 0.12161 0.0
C817 C 0.44371 0.79691 0.12717 0.0
C818 C 0.39202 0.81261 0.14537 0.0
C819 C 0.39386 0.80325 0.17513 0.0
C820 C 0.42069 0.79034 0.18057 0.0
C821 C 0.44548 0.78729 0.15677 0.0
H822 H 0.6932 0.19888 0.3611 0.0
H823 H 0.80122 0.22833 0.37027 0.0
H824 H 0.69054 0.15404 0.39016 0.0
H825 H 0.79814 0.18379 0.39981 0.0
H826 H 0.76619 0.1105 0.47806 0.0
H827 H 0.76689 0.15526 0.44954 0.0
H828 H 0.71814 0.11431 0.38518 0.0
H829 H 0.71771 0.06957 0.41383 0.0
C830 C 0.71642 0.1958 0.36916 0.0
C831 C 0.74739 0.21731 0.36339 0.0
C832 C 0.71484 0.17012 0.38586 0.0
C833 C 0.74408 0.16545 0.39735 0.0
C834 C 0.77499 0.18691 0.39165 0.0
C835 C 0.77668 0.21248 0.37478 0.0
C836 C 0.75553 0.11123 0.45786 0.0
C837 C 0.74162 0.08683 0.44813 0.0
C838 C 0.75605 0.13673 0.4415 0.0
C839 C 0.74256 0.13827 0.41514 0.0
C840 C 0.72833 0.11373 0.4056 0.0
C841 C 0.7281 0.08821 0.42187 0.0
H842 H 0.29208 0.23908 0.83276 0.0
H843 H 0.31301 0.32765 0.81939 0.0
H844 H 0.33341 0.24001 0.86672 0.0
H845 H 0.35427 0.32874 0.85359 0.0
H846 H 0.45178 0.31961 0.89288 0.0
H847 H 0.41218 0.31928 0.85758 0.0
H848 H 0.33594 0.25068 0.91705 0.0
H849 H 0.37518 0.25117 0.95249 0.0
C850 C 0.30559 0.25874 0.83714 0.0
C851 C 0.2993 0.2833 0.82372 0.0
C852 C 0.32909 0.25929 0.85665 0.0
C853 C 0.34693 0.28444 0.86297 0.0
C854 C 0.34113 0.30906 0.849 0.0
C855 C 0.31747 0.30848 0.82959 0.0
C856 C 0.42642 0.30464 0.89858 0.0
C857 C 0.41673 0.28536 0.92552 0.0
C858 C 0.40377 0.30443 0.87832 0.0
C859 C 0.37101 0.28487 0.88447 0.0
C860 C 0.36127 0.26569 0.91142 0.0
C861 C 0.3838 0.26597 0.93172 0.0
H862 H 0.29303 0.85363 0.38274 0.0
H863 H 0.17929 0.8284 0.39578 0.0
H864 H 0.28843 0.88992 0.41144 0.0
H865 H 0.17476 0.86463 0.42504 0.0
H866 H 0.18525 0.91524 0.50199 0.0
H867 H 0.18669 0.87834 0.47325 0.0
H868 H 0.27039 0.93366 0.40537 0.0
H869 H 0.26866 0.97059 0.4337 0.0
C870 C 0.26701 0.85593 0.39154 0.0
C871 C 0.23655 0.83821 0.38665 0.0
C872 C 0.2644 0.87673 0.40805 0.0
C873 C 0.23124 0.88031 0.4203 0.0
C874 C 0.20068 0.86227 0.41604 0.0
C875 C 0.2033 0.84148 0.39933 0.0
C876 C 0.20361 0.91966 0.48073 0.0
C877 C 0.22704 0.94588 0.47032 0.0
C878 C 0.20447 0.89848 0.4643 0.0
C879 C 0.22888 0.90301 0.43718 0.0
C880 C 0.25175 0.92935 0.42648 0.0
C881 C 0.25078 0.95052 0.44277 0.0
H882 H 0.76151 0.82343 0.82448 0.0
H883 H 0.70913 0.73889 0.82515 0.0
H884 H 0.72545 0.82102 0.87375 0.0
H885 H 0.67266 0.73658 0.87434 0.0
H886 H 0.58533 0.76433 0.93784 0.0
H887 H 0.62445 0.76222 0.8916 0.0
H888 H 0.71526 0.79385 0.92847 0.0
H889 H 0.67597 0.79519 0.97505 0.0
C890 C 0.74242 0.8043 0.83532 0.0
C891 C 0.73801 0.78135 0.82111 0.0
C892 C 0.72196 0.80288 0.8635 0.0
C893 C 0.69629 0.77863 0.87775 0.0
C894 C 0.6922 0.75554 0.86373 0.0
C895 C 0.71314 0.7568 0.83576 0.0
C896 C 0.61366 0.7705 0.93606 0.0
C897 C 0.62781 0.78015 0.95969 0.0
C898 C 0.63598 0.76923 0.90976 0.0
C899 C 0.67282 0.77796 0.90651 0.0
C900 C 0.68694 0.7872 0.93038 0.0
C901 C 0.6646 0.78798 0.9569 0.0
loop_
_geom_bond_atom_site_label_1
_geom_bond_atom_site_label_2
_geom_bond_distance
_geom_bond_site_symmetry_2
_ccdc_geom_bond_type
H0 C7 0.929 . S
H1 C10 0.930 . S
H2 C12 0.929 . S
H3 C4 0.969 . S
C4 H3 0.969 . S
C4 O5 1.550 . S
C4 H6 0.973 . S
O5 C4 1.550 . S
O5 C11 1.412 . S
H6 C4 0.973 . S
C7 H0 0.929 . S
C7 C8 1.400 . S
C7 C9 1.364 . S
C8 C7 1.400 . S
C8 C12 1.377 . S
C9 C7 1.364 . S
C9 C10 1.374 . S
C10 H1 0.930 . S
C10 C9 1.374 . S
C10 C11 1.383 . S
C11 O5 1.412 . S
C11 C10 1.383 . S
C11 C12 1.394 . S
C12 H2 0.929 . S
C12 C8 1.377 . S
C12 C11 1.394 . S
H13 C20 0.929 . S
H14 C23 0.930 . S
H15 C25 0.929 . S
H16 C17 0.969 . S
C17 H16 0.969 . S
C17 O18 1.550 . S
C17 H19 0.973 . S
O18 C17 1.550 . S
O18 C24 1.412 . S
H19 C17 0.973 . S
C20 H13 0.929 . S
C20 C21 1.400 . S
C20 C22 1.364 . S
C21 C20 1.400 . S
C21 C25 1.377 . S
C22 C20 1.364 . S
C22 C23 1.374 . S
C23 H14 0.930 . S
C23 C22 1.374 . S
C23 C24 1.383 . S
C24 O18 1.412 . S
C24 C23 1.383 . S
C24 C25 1.394 . S
C25 H15 0.929 . S
C25 C21 1.377 . S
C25 C24 1.394 . S
H26 C33 0.929 . S
H27 C36 0.930 . S
H28 C38 0.929 . S
H29 C30 0.969 . S
C30 H29 0.969 . S
C30 O31 1.550 . S
C30 H32 0.973 . S
O31 C30 1.550 . S
O31 C37 1.412 . S
H32 C30 0.973 . S
C33 H26 0.929 . S
C33 C34 1.400 . S
C33 C35 1.364 . S
C34 C33 1.400 . S
C34 C38 1.377 . S
C35 C33 1.364 . S
C35 C36 1.374 . S
C36 H27 0.930 . S
C36 C35 1.374 . S
C36 C37 1.383 . S
C37 O31 1.412 . S
C37 C36 1.383 . S
C37 C38 1.394 . S
C38 H28 0.929 . S
C38 C34 1.377 . S
C38 C37 1.394 . S
H39 C46 0.929 . S
H40 C49 0.930 . S
H41 C51 0.929 . S
H42 C43 0.969 . S
C43 H42 0.969 . S
C43 O44 1.550 . S
C43 H45 0.973 . S
O44 C43 1.550 . S
O44 C50 1.412 . S
H45 C43 0.973 . S
C46 H39 0.929 . S
C46 C47 1.400 . S
C46 C48 1.364 . S
C47 C46 1.400 . S
C47 C51 1.377 . S
C48 C46 1.364 . S
C48 C49 1.374 . S
C49 H40 0.930 . S
C49 C48 1.374 . S
C49 C50 1.383 . S
C50 O44 1.412 . S
C50 C49 1.383 . S
C50 C51 1.394 . S
C51 H41 0.929 . S
C51 C47 1.377 . S
C51 C50 1.394 . S
H52 C59 0.929 . S
H53 C62 0.930 . S
H54 C64 0.929 . S
H55 C56 0.969 . S
C56 H55 0.969 . S
C56 O57 1.550 . S
C56 H58 0.973 . S
O57 C56 1.550 . S
O57 C63 1.412 . S
H58 C56 0.973 . S
C59 H52 0.929 . S
C59 C60 1.400 . S
C59 C61 1.364 . S
C60 C59 1.400 . S
C60 C64 1.377 . S
C61 C59 1.364 . S
C61 C62 1.374 . S
C62 H53 0.930 . S
C62 C61 1.374 . S
C62 C63 1.383 . S
C63 O57 1.412 . S
C63 C62 1.383 . S
C63 C64 1.394 . S
C64 H54 0.929 . S
C64 C60 1.377 . S
C64 C63 1.394 . S
H65 C72 0.929 . S
H66 C75 0.930 . S
H67 C77 0.929 . S
H68 C69 0.969 . S
C69 H68 0.969 . S
C69 O70 1.550 . S
C69 H71 0.973 . S
O70 C69 1.550 . S
O70 C76 1.412 . S
H71 C69 0.973 . S
C72 H65 0.929 . S
C72 C73 1.400 . S
C72 C74 1.364 . S
C73 C72 1.400 . S
C73 C77 1.377 . S
C74 C72 1.364 . S
C74 C75 1.374 . S
C75 H66 0.930 . S
C75 C74 1.374 . S
C75 C76 1.383 . S
C76 O70 1.412 . S
C76 C75 1.383 . S
C76 C77 1.394 . S
C77 H67 0.929 . S
C77 C73 1.377 . S
C77 C76 1.394 . S
H78 C85 0.929 . S
H79 C88 0.930 . S
H80 C90 0.929 . S
H81 C82 0.969 . S
C82 H81 0.969 . S
C82 O83 1.550 . S
C82 H84 0.973 . S
O83 C82 1.550 . S
O83 C89 1.412 . S
H84 C82 0.973 . S
C85 H78 0.929 . S
C85 C86 1.400 . S
C85 C87 1.364 . S
C86 C85 1.400 . S
C86 C90 1.377 . S
C87 C85 1.364 . S
C87 C88 1.374 . S
C88 H79 0.930 . S
C88 C87 1.374 . S
C88 C89 1.383 . S
C89 O83 1.412 . S
C89 C88 1.383 . S
C89 C90 1.394 . S
C90 H80 0.929 . S
C90 C86 1.377 . S
C90 C89 1.394 . S
H91 C98 0.929 . S
H92 C101 0.930 . S
H93 C103 0.929 . S
H94 C95 0.969 . S
C95 H94 0.969 . S
C95 O96 1.550 . S
C95 H97 0.973 . S
O96 C95 1.550 . S
O96 C102 1.412 . S
H97 C95 0.973 . S
C98 H91 0.929 . S
C98 C99 1.400 . S
C98 C100 1.364 . S
C99 C98 1.400 . S
C99 C103 1.377 . S
C100 C98 1.364 . S
C100 C101 1.374 . S
C101 H92 0.930 . S
C101 C100 1.374 . S
C101 C102 1.383 . S
C102 O96 1.412 . S
C102 C101 1.383 . S
C102 C103 1.394 . S
C103 H93 0.929 . S
C103 C99 1.377 . S
C103 C102 1.394 . S
C104 C105 1.443 . S
C104 N108 1.376 . S
C104 C142 1.389 . S
C105 C104 1.443 . S
C105 C106 1.340 . S
C105 H145 0.951 . S
C106 C105 1.340 . S
C106 C107 1.439 1_455 S
C106 H146 0.950 . S
C107 C106 1.439 1_655 S
C107 N108 1.374 1_655 S
C107 C141 1.395 . S
N108 C104 1.376 . S
N108 C107 1.374 1_455 S
N108 Co109 2.008 . S
Co109 N108 2.008 . S
Co109 N110 1.995 1_455 S
Co109 N115 2.008 1_455 S
Co109 N120 1.995 . S
Co109 N125 2.282 . S
Co109 N131 2.282 1_455 S
N110 Co109 1.995 1_655 S
N110 C111 1.376 . S
N110 C114 1.383 . S
C111 N110 1.376 . S
C111 C112 1.446 . S
C111 C141 1.391 . S
C112 C111 1.446 . S
C112 C113 1.339 . S
C112 H147 0.949 . S
C113 C112 1.339 . S
C113 C114 1.439 . S
C113 H148 0.950 . S
C114 N110 1.383 . S
C114 C113 1.439 . S
C114 C143 1.392 . S
N115 Co109 2.008 1_655 S
N115 C116 1.376 . S
N115 C119 1.374 1_655 S
C116 N115 1.376 . S
C116 C117 1.443 . S
C116 C143 1.389 . S
C117 C116 1.443 . S
C117 C118 1.340 . S
C117 H149 0.951 . S
C118 C117 1.340 . S
C118 C119 1.439 1_655 S
C118 H150 0.950 . S
C119 N115 1.374 1_455 S
C119 C118 1.439 1_455 S
C119 C144 1.395 . S
N120 Co109 1.995 . S
N120 C121 1.376 . S
N120 C124 1.383 . S
C121 N120 1.376 . S
C121 C122 1.446 . S
C121 C144 1.391 . S
C122 C121 1.446 . S
C122 C123 1.339 . S
C122 H151 0.949 . S
C123 C122 1.339 . S
C123 C124 1.439 . S
C123 H152 0.950 . S
C124 N120 1.383 . S
C124 C123 1.439 . S
C124 C142 1.392 . S
N125 Co109 2.282 . S
N125 C128 1.332 . S
N125 C130 1.332 . S
C126 C127 1.386 . S
C126 C129 1.388 . S
C127 C126 1.386 . S
C127 C128 1.382 . S
C127 H153 0.950 . S
C128 N125 1.332 . S
C128 C127 1.382 . S
C128 H139 0.952 . S
C129 C126 1.388 . S
C129 C130 1.382 . S
C129 H154 0.950 . S
C130 N125 1.332 . S
C130 C129 1.382 . S
C130 H140 0.948 . S
N131 Co109 2.282 1_655 S
N131 C135 1.332 . S
N131 C136 1.332 . S
C132 C133 1.388 . S
C132 C136 1.382 . S
C132 H155 0.950 . S
C133 C132 1.388 . S
C133 C134 1.386 . S
C134 C133 1.386 . S
C134 C135 1.382 . S
C134 H156 0.950 . S
C135 N131 1.332 . S
C135 C134 1.382 . S
C135 H137 0.952 . S
C136 N131 1.332 . S
C136 C132 1.382 . S
C136 H138 0.948 . S
H137 C135 0.952 . S
H138 C136 0.948 . S
H139 C128 0.952 . S
H140 C130 0.948 . S
C141 C107 1.395 . S
C141 C111 1.391 . S
C142 C104 1.389 . S
C142 C124 1.392 . S
C143 C114 1.392 . S
C143 C116 1.389 . S
C144 C119 1.395 . S
C144 C121 1.391 . S
H145 C105 0.951 . S
H146 C106 0.950 . S
H147 C112 0.949 . S
H148 C113 0.950 . S
H149 C117 0.951 . S
H150 C118 0.950 . S
H151 C122 0.949 . S
H152 C123 0.950 . S
H153 C127 0.950 . S
H154 C129 0.950 . S
H155 C132 0.950 . S
H156 C134 0.950 . S
C157 C158 1.443 . S
C157 N161 1.376 . S
C157 C195 1.389 . S
C158 C157 1.443 . S
C158 C159 1.340 . S
C158 H198 0.951 . S
C159 C158 1.340 . S
C159 C160 1.439 . S
C159 H199 0.950 . S
C160 C159 1.439 . S
C160 N161 1.374 . S
C160 C194 1.395 . S
N161 C157 1.376 . S
N161 C160 1.374 . S
N161 Co162 2.008 . S
Co162 N161 2.008 . S
Co162 N163 1.995 . S
Co162 N168 2.008 . S
Co162 N173 1.995 . S
Co162 N178 2.282 . S
Co162 N184 2.282 . S
N163 Co162 1.995 . S
N163 C164 1.376 . S
N163 C167 1.383 1_455 S
C164 N163 1.376 . S
C164 C165 1.446 1_455 S
C164 C194 1.391 . S
C165 C164 1.446 1_655 S
C165 C166 1.339 . S
C165 H200 0.949 . S
C166 C165 1.339 . S
C166 C167 1.439 . S
C166 H201 0.950 . S
C167 N163 1.383 1_655 S
C167 C166 1.439 . S
C167 C196 1.392 . S
N168 Co162 2.008 . S
N168 C169 1.376 . S
N168 C172 1.374 . S
C169 N168 1.376 . S
C169 C170 1.443 . S
C169 C196 1.389 1_455 S
C170 C169 1.443 . S
C170 C171 1.340 . S
C170 H202 0.951 . S
C171 C170 1.340 . S
C171 C172 1.439 . S
C171 H203 0.950 . S
C172 N168 1.374 . S
C172 C171 1.439 . S
C172 C197 1.395 . S
N173 Co162 1.995 . S
N173 C174 1.376 . S
N173 C177 1.383 . S
C174 N173 1.376 . S
C174 C175 1.446 . S
C174 C197 1.391 . S
C175 C174 1.446 . S
C175 C176 1.339 . S
C175 H204 0.949 . S
C176 C175 1.339 . S
C176 C177 1.439 . S
C176 H205 0.950 . S
C177 N173 1.383 . S
C177 C176 1.439 . S
C177 C195 1.392 . S
N178 Co162 2.282 . S
N178 C181 1.332 . S
N178 C183 1.332 . S
C179 C180 1.386 . S
C179 C182 1.388 . S
C180 C179 1.386 . S
C180 C181 1.382 . S
C180 H206 0.950 . S
C181 N178 1.332 . S
C181 C180 1.382 . S
C181 H192 0.952 . S
C182 C179 1.388 . S
C182 C183 1.382 . S
C182 H207 0.950 . S
C183 N178 1.332 . S
C183 C182 1.382 . S
C183 H193 0.948 . S
N184 Co162 2.282 . S
N184 C188 1.332 1_455 S
N184 C189 1.332 . S
C185 C186 1.388 1_455 S
C185 C189 1.382 . S
C185 H208 0.950 . S
C186 C185 1.388 1_655 S
C186 C187 1.386 . S
C187 C186 1.386 . S
C187 C188 1.382 . S
C187 H209 0.950 . S
C188 N184 1.332 1_655 S
C188 C187 1.382 . S
C188 H190 0.952 . S
C189 N184 1.332 . S
C189 C185 1.382 . S
C189 H191 0.948 . S
H190 C188 0.952 . S
H191 C189 0.948 . S
H192 C181 0.952 . S
H193 C183 0.948 . S
C194 C160 1.395 . S
C194 C164 1.391 . S
C195 C157 1.389 . S
C195 C177 1.392 . S
C196 C167 1.392 . S
C196 C169 1.389 1_655 S
C197 C172 1.395 . S
C197 C174 1.391 . S
H198 C158 0.951 . S
H199 C159 0.950 . S
H200 C165 0.949 . S
H201 C166 0.950 . S
H202 C170 0.951 . S
H203 C171 0.950 . S
H204 C175 0.949 . S
H205 C176 0.950 . S
H206 C180 0.950 . S
H207 C182 0.950 . S
H208 C185 0.950 . S
H209 C187 0.950 . S
C210 C211 1.443 . S
C210 N214 1.376 1_565 S
C210 C248 1.389 . S
C211 C210 1.443 . S
C211 C212 1.340 . S
C211 H251 0.951 . S
C212 C211 1.340 . S
C212 C213 1.439 1_565 S
C212 H252 0.950 . S
C213 C212 1.439 1_545 S
C213 N214 1.374 . S
C213 C247 1.395 . S
N214 C210 1.376 1_545 S
N214 C213 1.374 . S
N214 Co215 2.008 . S
Co215 N214 2.008 . S
Co215 N216 1.995 . S
Co215 N221 2.008 . S
Co215 N226 1.995 1_545 S
Co215 N231 2.282 . S
Co215 N237 2.282 1_545 S
N216 Co215 1.995 . S
N216 C217 1.376 . S
N216 C220 1.383 . S
C217 N216 1.376 . S
C217 C218 1.446 . S
C217 C247 1.391 . S
C218 C217 1.446 . S
C218 C219 1.339 . S
C218 H253 0.949 . S
C219 C218 1.339 . S
C219 C220 1.439 . S
C219 H254 0.950 . S
C220 N216 1.383 . S
C220 C219 1.439 . S
C220 C249 1.392 . S
N221 Co215 2.008 . S
N221 C222 1.376 . S
N221 C225 1.374 . S
C222 N221 1.376 . S
C222 C223 1.443 . S
C222 C249 1.389 . S
C223 C222 1.443 . S
C223 C224 1.340 . S
C223 H255 0.951 . S
C224 C223 1.340 . S
C224 C225 1.439 . S
C224 H256 0.950 . S
C225 N221 1.374 . S
C225 C224 1.439 . S
C225 C250 1.395 . S
N226 Co215 1.995 1_565 S
N226 C227 1.376 . S
N226 C230 1.383 . S
C227 N226 1.376 . S
C227 C228 1.446 . S
C227 C250 1.391 1_565 S
C228 C227 1.446 . S
C228 C229 1.339 . S
C228 H257 0.949 . S
C229 C228 1.339 . S
C229 C230 1.439 . S
C229 H258 0.950 . S
C230 N226 1.383 . S
C230 C229 1.439 . S
C230 C248 1.392 . S
N231 Co215 2.282 . S
N231 C234 1.332 . S
N231 C236 1.332 . S
C232 C233 1.386 . S
C232 C235 1.388 . S
C233 C232 1.386 . S
C233 C234 1.382 . S
C233 H259 0.950 . S
C234 N231 1.332 . S
C234 C233 1.382 . S
C234 H245 0.952 . S
C235 C232 1.388 . S
C235 C236 1.382 . S
C235 H260 0.950 . S
C236 N231 1.332 . S
C236 C235 1.382 . S
C236 H246 0.948 . S
N237 Co215 2.282 1_565 S
N237 C241 1.332 . S
N237 C242 1.332 . S
C238 C239 1.388 . S
C238 C242 1.382 . S
C238 H261 0.950 . S
C239 C238 1.388 . S
C239 C240 1.386 . S
C240 C239 1.386 . S
C240 C241 1.382 . S
C240 H262 0.950 . S
C241 N237 1.332 . S
C241 C240 1.382 . S
C241 H243 0.952 . S
C242 N237 1.332 . S
C242 C238 1.382 . S
C242 H244 0.948 . S
H243 C241 0.952 . S
H244 C242 0.948 . S
H245 C234 0.952 . S
H246 C236 0.948 . S
C247 C213 1.395 . S
C247 C217 1.391 . S
C248 C210 1.389 . S
C248 C230 1.392 . S
C249 C220 1.392 . S
C249 C222 1.389 . S
C250 C225 1.395 . S
C250 C227 1.391 1_545 S
H251 C211 0.951 . S
H252 C212 0.950 . S
H253 C218 0.949 . S
H254 C219 0.950 . S
H255 C223 0.951 . S
H256 C224 0.950 . S
H257 C228 0.949 . S
H258 C229 0.950 . S
H259 C233 0.950 . S
H260 C235 0.950 . S
H261 C238 0.950 . S
H262 C240 0.950 . S
C263 C264 1.443 . S
C263 N267 1.376 . S
C263 C301 1.389 . S
C264 C263 1.443 . S
C264 C265 1.340 . S
C264 H304 0.951 . S
C265 C264 1.340 . S
C265 C266 1.439 . S
C265 H305 0.950 . S
C266 C265 1.439 . S
C266 N267 1.374 . S
C266 C300 1.395 . S
N267 C263 1.376 . S
N267 C266 1.374 . S
N267 Co268 2.008 . S
Co268 N267 2.008 . S
Co268 N269 1.995 . S
Co268 N274 2.008 . S
Co268 N279 1.995 . S
Co268 N284 2.281 . S
Co268 N290 2.282 . S
N269 Co268 1.995 . S
N269 C270 1.376 . S
N269 C273 1.383 1_554 S
C270 N269 1.376 . S
C270 C271 1.446 1_554 S
C270 C300 1.391 . S
C271 C270 1.446 1_556 S
C271 C272 1.339 . S
C271 H306 0.949 . S
C272 C271 1.339 . S
C272 C273 1.439 . S
C272 H307 0.950 . S
C273 N269 1.383 1_556 S
C273 C272 1.439 . S
C273 C302 1.392 . S
N274 Co268 2.008 . S
N274 C275 1.376 1_554 S
N274 C278 1.374 . S
C275 N274 1.376 1_556 S
C275 C276 1.443 . S
C275 C302 1.389 . S
C276 C275 1.443 . S
C276 C277 1.340 . S
C276 H308 0.951 . S
C277 C276 1.340 . S
C277 C278 1.439 1_556 S
C277 H309 0.950 . S
C278 N274 1.374 . S
C278 C277 1.439 1_554 S
C278 C303 1.395 . S
N279 Co268 1.995 . S
N279 C280 1.376 . S
N279 C283 1.383 . S
C280 N279 1.376 . S
C280 C281 1.446 . S
C280 C303 1.391 . S
C281 C280 1.446 . S
C281 C282 1.339 . S
C281 H310 0.949 . S
C282 C281 1.339 . S
C282 C283 1.439 . S
C282 H311 0.950 . S
C283 N279 1.383 . S
C283 C282 1.439 . S
C283 C301 1.392 . S
N284 Co268 2.281 . S
N284 C287 1.333 1_554 S
N284 C289 1.333 1_554 S
C285 C286 1.386 . S
C285 C288 1.388 . S
C286 C285 1.386 . S
C286 C287 1.382 . S
C286 H312 0.950 . S
C287 N284 1.333 1_556 S
C287 C286 1.382 . S
C287 H298 0.952 1_556 S
C288 C285 1.388 . S
C288 C289 1.382 . S
C288 H313 0.950 . S
C289 N284 1.333 1_556 S
C289 C288 1.382 . S
C289 H299 0.948 . S
N290 Co268 2.282 . S
N290 C294 1.332 . S
N290 C295 1.332 . S
C291 C292 1.388 . S
C291 C295 1.382 . S
C291 H314 0.950 . S
C292 C291 1.388 . S
C292 C293 1.386 . S
C293 C292 1.386 . S
C293 C294 1.382 . S
C293 H315 0.950 . S
C294 N290 1.332 . S
C294 C293 1.382 . S
C294 H296 0.952 . S
C295 N290 1.332 . S
C295 C291 1.382 . S
C295 H297 0.948 . S
H296 C294 0.952 . S
H297 C295 0.948 . S
H298 C287 0.952 1_554 S
H299 C289 0.948 . S
C300 C266 1.395 . S
C300 C270 1.391 . S
C301 C263 1.389 . S
C301 C283 1.392 . S
C302 C273 1.392 . S
C302 C275 1.389 . S
C303 C278 1.395 . S
C303 C280 1.391 . S
H304 C264 0.951 . S
H305 C265 0.950 . S
H306 C271 0.949 . S
H307 C272 0.950 . S
H308 C276 0.951 . S
H309 C277 0.950 . S
H310 C281 0.949 . S
H311 C282 0.950 . S
H312 C286 0.950 . S
H313 C288 0.950 . S
H314 C291 0.950 . S
H315 C293 0.950 . S
C316 C317 1.443 . S
C316 N320 1.376 . S
C316 C354 1.389 . S
C317 C316 1.443 . S
C317 C318 1.340 . S
C317 H357 0.951 . S
C318 C317 1.340 . S
C318 C319 1.439 . S
C318 H358 0.950 . S
C319 C318 1.439 . S
C319 N320 1.374 . S
C319 C353 1.395 1_565 S
N320 C316 1.376 . S
N320 C319 1.374 . S
N320 Co321 2.008 1_565 S
Co321 N320 2.008 1_545 S
Co321 N322 1.995 . S
Co321 N327 2.008 . S
Co321 N332 1.995 1_545 S
Co321 N337 2.282 . S
Co321 N343 2.282 1_545 S
N322 Co321 1.995 . S
N322 C323 1.376 . S
N322 C326 1.383 . S
C323 N322 1.376 . S
C323 C324 1.446 . S
C323 C353 1.391 . S
C324 C323 1.446 . S
C324 C325 1.339 . S
C324 H359 0.949 . S
C325 C324 1.339 . S
C325 C326 1.439 . S
C325 H360 0.950 . S
C326 N322 1.383 . S
C326 C325 1.439 . S
C326 C355 1.392 . S
N327 Co321 2.008 . S
N327 C328 1.376 . S
N327 C331 1.374 . S
C328 N327 1.376 . S
C328 C329 1.443 . S
C328 C355 1.389 . S
C329 C328 1.443 . S
C329 C330 1.340 . S
C329 H361 0.951 . S
C330 C329 1.340 . S
C330 C331 1.439 . S
C330 H362 0.950 . S
C331 N327 1.374 . S
C331 C330 1.439 . S
C331 C356 1.395 1_545 S
N332 Co321 1.995 1_565 S
N332 C333 1.376 . S
N332 C336 1.383 . S
C333 N332 1.376 . S
C333 C334 1.446 . S
C333 C356 1.391 . S
C334 C333 1.446 . S
C334 C335 1.339 . S
C334 H363 0.949 . S
C335 C334 1.339 . S
C335 C336 1.439 . S
C335 H364 0.950 . S
C336 N332 1.383 . S
C336 C335 1.439 . S
C336 C354 1.392 . S
N337 Co321 2.282 . S
N337 C340 1.332 . S
N337 C342 1.332 . S
C338 C339 1.386 . S
C338 C341 1.388 . S
C339 C338 1.386 . S
C339 C340 1.382 . S
C339 H365 0.950 . S
C340 N337 1.332 . S
C340 C339 1.382 . S
C340 H351 0.952 . S
C341 C338 1.388 . S
C341 C342 1.382 . S
C341 H366 0.950 . S
C342 N337 1.332 . S
C342 C341 1.382 . S
C342 H352 0.948 . S
N343 Co321 2.282 1_565 S
N343 C347 1.332 . S
N343 C348 1.332 . S
C344 C345 1.388 . S
C344 C348 1.382 . S
C344 H367 0.950 . S
C345 C344 1.388 . S
C345 C346 1.386 . S
C346 C345 1.386 . S
C346 C347 1.382 . S
C346 H368 0.950 . S
C347 N343 1.332 . S
C347 C346 1.382 . S
C347 H349 0.952 . S
C348 N343 1.332 . S
C348 C344 1.382 . S
C348 H350 0.948 . S
H349 C347 0.952 . S
H350 C348 0.948 . S
H351 C340 0.952 . S
H352 C342 0.948 . S
C353 C319 1.395 1_545 S
C353 C323 1.391 . S
C354 C316 1.389 . S
C354 C336 1.392 . S
C355 C326 1.392 . S
C355 C328 1.389 . S
C356 C331 1.395 1_565 S
C356 C333 1.391 . S
H357 C317 0.951 . S
H358 C318 0.950 . S
H359 C324 0.949 . S
H360 C325 0.950 . S
H361 C329 0.951 . S
H362 C330 0.950 . S
H363 C334 0.949 . S
H364 C335 0.950 . S
H365 C339 0.950 . S
H366 C341 0.950 . S
H367 C344 0.950 . S
H368 C346 0.950 . S
C369 C370 1.443 . S
C369 N373 1.376 . S
C369 C407 1.389 . S
C370 C369 1.443 . S
C370 C371 1.340 . S
C370 H410 0.951 . S
C371 C370 1.340 . S
C371 C372 1.439 . S
C371 H411 0.950 . S
C372 C371 1.439 . S
C372 N373 1.374 . S
C372 C406 1.395 1_554 S
N373 C369 1.376 . S
N373 C372 1.374 . S
N373 Co374 2.025 . S
Co374 N373 2.025 . S
Co374 N375 1.981 1_554 S
Co374 N380 1.991 1_554 S
Co374 N385 2.009 . S
Co374 N390 2.260 1_554 S
Co374 N396 2.305 . S
N375 Co374 1.981 1_556 S
N375 C376 1.376 . S
N375 C379 1.383 . S
C376 N375 1.376 . S
C376 C377 1.446 . S
C376 C406 1.391 . S
C377 C376 1.446 . S
C377 C378 1.339 . S
C377 H412 0.949 . S
C378 C377 1.339 . S
C378 C379 1.439 . S
C378 H413 0.950 . S
C379 N375 1.383 . S
C379 C378 1.439 . S
C379 C408 1.392 . S
N380 Co374 1.991 1_556 S
N380 C381 1.376 . S
N380 C384 1.374 . S
C381 N380 1.376 . S
C381 C382 1.443 . S
C381 C408 1.389 . S
C382 C381 1.443 . S
C382 C383 1.340 . S
C382 H414 0.951 . S
C383 C382 1.340 . S
C383 C384 1.439 . S
C383 H415 0.950 . S
C384 N380 1.374 . S
C384 C383 1.439 . S
C384 C409 1.395 1_556 S
N385 Co374 2.009 . S
N385 C386 1.376 . S
N385 C389 1.383 . S
C386 N385 1.376 . S
C386 C387 1.446 . S
C386 C409 1.391 . S
C387 C386 1.446 . S
C387 C388 1.339 . S
C387 H416 0.949 . S
C388 C387 1.339 . S
C388 C389 1.439 . S
C388 H417 0.950 . S
C389 N385 1.383 . S
C389 C388 1.439 . S
C389 C407 1.392 . S
N390 Co374 2.260 1_556 S
N390 C393 1.332 . S
N390 C395 1.332 . S
C391 C392 1.386 . S
C391 C394 1.388 . S
C392 C391 1.386 . S
C392 C393 1.382 . S
C392 H418 0.950 . S
C393 N390 1.332 . S
C393 C392 1.382 . S
C393 H404 0.952 . S
C394 C391 1.388 . S
C394 C395 1.382 . S
C394 H419 0.950 . S
C395 N390 1.332 . S
C395 C394 1.382 . S
C395 H405 0.948 . S
N396 Co374 2.305 . S
N396 C400 1.332 . S
N396 C401 1.332 . S
C397 C398 1.388 . S
C397 C401 1.382 . S
C397 H420 0.950 . S
C398 C397 1.388 . S
C398 C399 1.386 . S
C399 C398 1.386 . S
C399 C400 1.382 . S
C399 H421 0.950 . S
C400 N396 1.332 . S
C400 C399 1.382 . S
C400 H402 0.952 . S
C401 N396 1.332 . S
C401 C397 1.382 . S
C401 H403 0.948 . S
H402 C400 0.952 . S
H403 C401 0.948 . S
H404 C393 0.952 . S
H405 C395 0.948 . S
C406 C372 1.395 1_556 S
C406 C376 1.391 . S
C407 C369 1.389 . S
C407 C389 1.392 . S
C408 C379 1.392 . S
C408 C381 1.389 . S
C409 C384 1.395 1_554 S
C409 C386 1.391 . S
H410 C370 0.951 . S
H411 C371 0.950 . S
H412 C377 0.949 . S
H413 C378 0.950 . S
H414 C382 0.951 . S
H415 C383 0.950 . S
H416 C387 0.949 . S
H417 C388 0.950 . S
H418 C392 0.950 . S
H419 C394 0.950 . S
H420 C397 0.950 . S
H421 C399 0.950 . S
H422 C430 0.950 . S
H423 C435 0.950 . S
H424 C432 0.950 . S
H425 C434 0.950 . S
H426 C436 0.950 . S
H427 C438 0.950 . S
H428 C440 0.950 . S
H429 C441 0.950 . S
C430 H422 0.950 . S
C430 C431 1.386 . S
C430 C432 1.391 . S
C431 C430 1.386 . S
C431 C435 1.393 . S
C432 H424 0.950 . S
C432 C430 1.391 . S
C432 C433 1.400 . S
C433 C432 1.400 . S
C433 C434 1.398 . S
C433 C439 1.491 . S
C434 H425 0.950 . S
C434 C433 1.398 . S
C434 C435 1.391 . S
C435 H423 0.950 . S
C435 C431 1.393 . S
C435 C434 1.391 . S
C436 H426 0.950 . S
C436 C437 1.386 . S
C436 C438 1.391 . S
C437 C436 1.386 . S
C437 C441 1.393 . S
C438 H427 0.950 . S
C438 C436 1.391 . S
C438 C439 1.400 . S
C439 C433 1.491 . S
C439 C438 1.400 . S
C439 C440 1.398 . S
C440 H428 0.950 . S
C440 C439 1.398 . S
C440 C441 1.391 . S
C441 H429 0.950 . S
C441 C437 1.393 . S
C441 C440 1.391 . S
H442 C450 0.950 . S
H443 C455 0.950 . S
H444 C452 0.950 . S
H445 C454 0.950 . S
H446 C456 0.950 . S
H447 C458 0.950 . S
H448 C460 0.950 . S
H449 C461 0.950 . S
C450 H442 0.950 . S
C450 C451 1.386 . S
C450 C452 1.391 . S
C451 C450 1.386 . S
C451 C455 1.393 . S
C452 H444 0.950 . S
C452 C450 1.391 . S
C452 C453 1.400 . S
C453 C452 1.400 . S
C453 C454 1.398 . S
C453 C459 1.491 . S
C454 H445 0.950 . S
C454 C453 1.398 . S
C454 C455 1.391 . S
C455 H443 0.950 . S
C455 C451 1.393 . S
C455 C454 1.391 . S
C456 H446 0.950 . S
C456 C457 1.386 . S
C456 C458 1.391 . S
C457 C456 1.386 . S
C457 C461 1.393 . S
C458 H447 0.950 . S
C458 C456 1.391 . S
C458 C459 1.400 . S
C459 C453 1.491 . S
C459 C458 1.400 . S
C459 C460 1.398 . S
C460 H448 0.950 . S
C460 C459 1.398 . S
C460 C461 1.391 . S
C461 H449 0.950 . S
C461 C457 1.393 . S
C461 C460 1.391 . S
H462 C470 0.950 . S
H463 C475 0.950 . S
H464 C472 0.950 . S
H465 C474 0.950 . S
H466 C476 0.950 . S
H467 C478 0.950 . S
H468 C480 0.950 . S
H469 C481 0.950 . S
C470 H462 0.950 . S
C470 C471 1.386 . S
C470 C472 1.391 . S
C471 C470 1.386 . S
C471 C475 1.393 . S
C472 H464 0.950 . S
C472 C470 1.391 . S
C472 C473 1.400 . S
C473 C472 1.400 . S
C473 C474 1.398 . S
C473 C479 1.491 . S
C474 H465 0.950 . S
C474 C473 1.398 . S
C474 C475 1.391 . S
C475 H463 0.950 . S
C475 C471 1.393 . S
C475 C474 1.391 . S
C476 H466 0.950 . S
C476 C477 1.386 . S
C476 C478 1.391 . S
C477 C476 1.386 . S
C477 C481 1.393 . S
C478 H467 0.950 . S
C478 C476 1.391 . S
C478 C479 1.400 . S
C479 C473 1.491 . S
C479 C478 1.400 . S
C479 C480 1.398 . S
C480 H468 0.950 . S
C480 C479 1.398 . S
C480 C481 1.391 . S
C481 H469 0.950 . S
C481 C477 1.393 . S
C481 C480 1.391 . S
H482 C490 0.950 . S
H483 C495 0.950 . S
H484 C492 0.950 . S
H485 C494 0.950 . S
H486 C496 0.950 . S
H487 C498 0.950 . S
H488 C500 0.950 . S
H489 C501 0.950 . S
C490 H482 0.950 . S
C490 C491 1.386 . S
C490 C492 1.391 . S
C491 C490 1.386 . S
C491 C495 1.393 . S
C492 H484 0.950 . S
C492 C490 1.391 . S
C492 C493 1.400 . S
C493 C492 1.400 . S
C493 C494 1.398 . S
C493 C499 1.491 . S
C494 H485 0.950 . S
C494 C493 1.398 . S
C494 C495 1.391 . S
C495 H483 0.950 . S
C495 C491 1.393 . S
C495 C494 1.391 . S
C496 H486 0.950 . S
C496 C497 1.386 . S
C496 C498 1.391 . S
C497 C496 1.386 . S
C497 C501 1.393 . S
C498 H487 0.950 . S
C498 C496 1.391 . S
C498 C499 1.400 . S
C499 C493 1.491 . S
C499 C498 1.400 . S
C499 C500 1.398 . S
C500 H488 0.950 . S
C500 C499 1.398 . S
C500 C501 1.391 . S
C501 H489 0.950 . S
C501 C497 1.393 . S
C501 C500 1.391 . S
H502 C510 0.950 . S
H503 C515 0.950 . S
H504 C512 0.950 . S
H505 C514 0.950 . S
H506 C516 0.950 . S
H507 C518 0.950 . S
H508 C520 0.950 . S
H509 C521 0.950 . S
C510 H502 0.950 . S
C510 C511 1.386 . S
C510 C512 1.391 . S
C511 C510 1.386 . S
C511 C515 1.393 . S
C512 H504 0.950 . S
C512 C510 1.391 . S
C512 C513 1.400 . S
C513 C512 1.400 . S
C513 C514 1.398 . S
C513 C519 1.491 . S
C514 H505 0.950 . S
C514 C513 1.398 . S
C514 C515 1.391 . S
C515 H503 0.950 . S
C515 C511 1.393 . S
C515 C514 1.391 . S
C516 H506 0.950 . S
C516 C517 1.386 . S
C516 C518 1.391 . S
C517 C516 1.386 . S
C517 C521 1.393 . S
C518 H507 0.950 . S
C518 C516 1.391 . S
C518 C519 1.400 . S
C519 C513 1.491 . S
C519 C518 1.400 . S
C519 C520 1.398 . S
C520 H508 0.950 . S
C520 C519 1.398 . S
C520 C521 1.391 . S
C521 H509 0.950 . S
C521 C517 1.393 . S
C521 C520 1.391 . S
H522 C530 0.950 . S
H523 C535 0.950 . S
H524 C532 0.950 . S
H525 C534 0.950 . S
H526 C536 0.950 . S
H527 C538 0.950 . S
H528 C540 0.950 . S
H529 C541 0.950 . S
C530 H522 0.950 . S
C530 C531 1.386 . S
C530 C532 1.391 . S
C531 C530 1.386 . S
C531 C535 1.393 . S
C532 H524 0.950 . S
C532 C530 1.391 . S
C532 C533 1.400 . S
C533 C532 1.400 . S
C533 C534 1.398 . S
C533 C539 1.491 . S
C534 H525 0.950 . S
C534 C533 1.398 . S
C534 C535 1.391 . S
C535 H523 0.950 . S
C535 C531 1.393 . S
C535 C534 1.391 . S
C536 H526 0.950 . S
C536 C537 1.386 . S
C536 C538 1.391 . S
C537 C536 1.386 . S
C537 C541 1.393 . S
C538 H527 0.950 . S
C538 C536 1.391 . S
C538 C539 1.400 . S
C539 C533 1.491 . S
C539 C538 1.400 . S
C539 C540 1.398 . S
C540 H528 0.950 . S
C540 C539 1.398 . S
C540 C541 1.391 . S
C541 H529 0.950 . S
C541 C537 1.393 . S
C541 C540 1.391 . S
H542 C550 0.950 . S
H543 C555 0.950 . S
H544 C552 0.950 . S
H545 C554 0.950 . S
H546 C556 0.950 . S
H547 C558 0.950 . S
H548 C560 0.950 . S
H549 C561 0.950 . S
C550 H542 0.950 . S
C550 C551 1.386 . S
C550 C552 1.391 . S
C551 C550 1.386 . S
C551 C555 1.393 . S
C552 H544 0.950 . S
C552 C550 1.391 . S
C552 C553 1.400 . S
C553 C552 1.400 . S
C553 C554 1.398 . S
C553 C559 1.491 . S
C554 H545 0.950 . S
C554 C553 1.398 . S
C554 C555 1.391 . S
C555 H543 0.950 . S
C555 C551 1.393 . S
C555 C554 1.391 . S
C556 H546 0.950 . S
C556 C557 1.386 . S
C556 C558 1.391 . S
C557 C556 1.386 . S
C557 C561 1.393 . S
C558 H547 0.950 . S
C558 C556 1.391 . S
C558 C559 1.400 . S
C559 C553 1.491 . S
C559 C558 1.400 . S
C559 C560 1.398 . S
C560 H548 0.950 . S
C560 C559 1.398 . S
C560 C561 1.391 . S
C561 H549 0.950 . S
C561 C557 1.393 . S
C561 C560 1.391 . S
H562 C570 0.950 . S
H563 C575 0.950 . S
H564 C572 0.950 . S
H565 C574 0.950 . S
H566 C576 0.950 . S
H567 C578 0.950 . S
H568 C580 0.950 . S
H569 C581 0.950 . S
C570 H562 0.950 . S
C570 C571 1.386 . S
C570 C572 1.391 . S
C571 C570 1.386 . S
C571 C575 1.393 . S
C572 H564 0.950 . S
C572 C570 1.391 . S
C572 C573 1.400 . S
C573 C572 1.400 . S
C573 C574 1.398 . S
C573 C579 1.491 . S
C574 H565 0.950 . S
C574 C573 1.398 . S
C574 C575 1.391 . S
C575 H563 0.950 . S
C575 C571 1.393 . S
C575 C574 1.391 . S
C576 H566 0.950 . S
C576 C577 1.386 . S
C576 C578 1.391 . S
C577 C576 1.386 . S
C577 C581 1.393 . S
C578 H567 0.950 . S
C578 C576 1.391 . S
C578 C579 1.400 . S
C579 C573 1.491 . S
C579 C578 1.400 . S
C579 C580 1.398 . S
C580 H568 0.950 . S
C580 C579 1.398 . S
C580 C581 1.391 . S
C581 H569 0.950 . S
C581 C577 1.393 . S
C581 C580 1.391 . S
H582 C590 0.950 . S
H583 C595 0.950 . S
H584 C592 0.950 . S
H585 C594 0.950 . S
H586 C596 0.950 . S
H587 C598 0.950 . S
H588 C600 0.950 . S
H589 C601 0.950 . S
C590 H582 0.950 . S
C590 C591 1.386 . S
C590 C592 1.391 . S
C591 C590 1.386 . S
C591 C595 1.393 . S
C592 H584 0.950 . S
C592 C590 1.391 . S
C592 C593 1.400 . S
C593 C592 1.400 . S
C593 C594 1.398 . S
C593 C599 1.491 . S
C594 H585 0.950 . S
C594 C593 1.398 . S
C594 C595 1.391 . S
C595 H583 0.950 . S
C595 C591 1.393 . S
C595 C594 1.391 . S
C596 H586 0.950 . S
C596 C597 1.386 . S
C596 C598 1.391 . S
C597 C596 1.386 . S
C597 C601 1.393 . S
C598 H587 0.950 . S
C598 C596 1.391 . S
C598 C599 1.400 . S
C599 C593 1.491 . S
C599 C598 1.400 . S
C599 C600 1.398 . S
C600 H588 0.950 . S
C600 C599 1.398 . S
C600 C601 1.391 . S
C601 H589 0.950 . S
C601 C597 1.393 . S
C601 C600 1.391 . S
H602 C610 0.950 . S
H603 C615 0.950 . S
H604 C612 0.950 . S
H605 C614 0.950 . S
H606 C616 0.950 . S
H607 C618 0.950 . S
H608 C620 0.950 . S
H609 C621 0.950 . S
C610 H602 0.950 . S
C610 C611 1.386 . S
C610 C612 1.391 . S
C611 C610 1.386 . S
C611 C615 1.393 . S
C612 H604 0.950 . S
C612 C610 1.391 . S
C612 C613 1.400 . S
C613 C612 1.400 . S
C613 C614 1.398 . S
C613 C619 1.491 . S
C614 H605 0.950 . S
C614 C613 1.398 . S
C614 C615 1.391 . S
C615 H603 0.950 . S
C615 C611 1.393 . S
C615 C614 1.391 . S
C616 H606 0.950 . S
C616 C617 1.386 . S
C616 C618 1.391 . S
C617 C616 1.386 . S
C617 C621 1.393 . S
C618 H607 0.950 . S
C618 C616 1.391 . S
C618 C619 1.400 . S
C619 C613 1.491 . S
C619 C618 1.400 . S
C619 C620 1.398 . S
C620 H608 0.950 . S
C620 C619 1.398 . S
C620 C621 1.391 . S
C621 H609 0.950 . S
C621 C617 1.393 . S
C621 C620 1.391 . S
H622 C630 0.950 . S
H623 C635 0.950 . S
H624 C632 0.950 . S
H625 C634 0.950 . S
H626 C636 0.950 . S
H627 C638 0.950 . S
H628 C640 0.950 . S
H629 C641 0.950 . S
C630 H622 0.950 . S
C630 C631 1.386 . S
C630 C632 1.391 . S
C631 C630 1.386 . S
C631 C635 1.393 . S
C632 H624 0.950 . S
C632 C630 1.391 . S
C632 C633 1.400 . S
C633 C632 1.400 . S
C633 C634 1.398 . S
C633 C639 1.491 . S
C634 H625 0.950 . S
C634 C633 1.398 . S
C634 C635 1.391 . S
C635 H623 0.950 . S
C635 C631 1.393 . S
C635 C634 1.391 . S
C636 H626 0.950 . S
C636 C637 1.386 . S
C636 C638 1.391 . S
C637 C636 1.386 . S
C637 C641 1.393 . S
C638 H627 0.950 . S
C638 C636 1.391 . S
C638 C639 1.400 . S
C639 C633 1.491 . S
C639 C638 1.400 . S
C639 C640 1.398 . S
C640 H628 0.950 . S
C640 C639 1.398 . S
C640 C641 1.391 . S
C641 H629 0.950 . S
C641 C637 1.393 . S
C641 C640 1.391 . S
H642 C650 0.950 . S
H643 C655 0.950 . S
H644 C652 0.950 . S
H645 C654 0.950 . S
H646 C656 0.950 . S
H647 C658 0.950 . S
H648 C660 0.950 . S
H649 C661 0.950 . S
C650 H642 0.950 . S
C650 C651 1.386 . S
C650 C652 1.391 . S
C651 C650 1.386 . S
C651 C655 1.393 . S
C652 H644 0.950 . S
C652 C650 1.391 . S
C652 C653 1.400 . S
C653 C652 1.400 . S
C653 C654 1.398 . S
C653 C659 1.491 . S
C654 H645 0.950 . S
C654 C653 1.398 . S
C654 C655 1.391 . S
C655 H643 0.950 . S
C655 C651 1.393 . S
C655 C654 1.391 . S
C656 H646 0.950 . S
C656 C657 1.386 . S
C656 C658 1.391 . S
C657 C656 1.386 . S
C657 C661 1.393 . S
C658 H647 0.950 . S
C658 C656 1.391 . S
C658 C659 1.400 . S
C659 C653 1.491 . S
C659 C658 1.400 . S
C659 C660 1.398 . S
C660 H648 0.950 . S
C660 C659 1.398 . S
C660 C661 1.391 . S
C661 H649 0.950 . S
C661 C657 1.393 . S
C661 C660 1.391 . S
H662 C670 0.950 . S
H663 C675 0.950 . S
H664 C672 0.950 . S
H665 C674 0.950 . S
H666 C676 0.950 . S
H667 C678 0.950 . S
H668 C680 0.950 . S
H669 C681 0.950 . S
C670 H662 0.950 . S
C670 C671 1.386 . S
C670 C672 1.391 . S
C671 C670 1.386 . S
C671 C675 1.393 . S
C672 H664 0.950 . S
C672 C670 1.391 . S
C672 C673 1.400 . S
C673 C672 1.400 . S
C673 C674 1.398 . S
C673 C679 1.491 . S
C674 H665 0.950 . S
C674 C673 1.398 . S
C674 C675 1.391 . S
C675 H663 0.950 . S
C675 C671 1.393 . S
C675 C674 1.391 . S
C676 H666 0.950 . S
C676 C677 1.386 . S
C676 C678 1.391 . S
C677 C676 1.386 . S
C677 C681 1.393 . S
C678 H667 0.950 . S
C678 C676 1.391 . S
C678 C679 1.400 . S
C679 C673 1.491 . S
C679 C678 1.400 . S
C679 C680 1.398 . S
C680 H668 0.950 . S
C680 C679 1.398 . S
C680 C681 1.391 . S
C681 H669 0.950 . S
C681 C677 1.393 . S
C681 C680 1.391 . S
H682 C690 0.950 . S
H683 C695 0.950 . S
H684 C692 0.950 . S
H685 C694 0.950 . S
H686 C696 0.950 . S
H687 C698 0.950 . S
H688 C700 0.950 . S
H689 C701 0.950 . S
C690 H682 0.950 . S
C690 C691 1.386 . S
C690 C692 1.391 . S
C691 C690 1.386 . S
C691 C695 1.393 . S
C692 H684 0.950 . S
C692 C690 1.391 . S
C692 C693 1.400 . S
C693 C692 1.400 . S
C693 C694 1.398 . S
C693 C699 1.491 . S
C694 H685 0.950 . S
C694 C693 1.398 . S
C694 C695 1.391 . S
C695 H683 0.950 . S
C695 C691 1.393 . S
C695 C694 1.391 . S
C696 H686 0.950 . S
C696 C697 1.386 . S
C696 C698 1.391 . S
C697 C696 1.386 . S
C697 C701 1.393 . S
C698 H687 0.950 . S
C698 C696 1.391 . S
C698 C699 1.400 . S
C699 C693 1.491 . S
C699 C698 1.400 . S
C699 C700 1.398 . S
C700 H688 0.950 . S
C700 C699 1.398 . S
C700 C701 1.391 . S
C701 H689 0.950 . S
C701 C697 1.393 . S
C701 C700 1.391 . S
H702 C710 0.950 . S
H703 C715 0.950 . S
H704 C712 0.950 . S
H705 C714 0.950 . S
H706 C716 0.950 . S
H707 C718 0.950 . S
H708 C720 0.950 . S
H709 C721 0.950 . S
C710 H702 0.950 . S
C710 C711 1.386 . S
C710 C712 1.391 . S
C711 C710 1.386 . S
C711 C715 1.393 . S
C712 H704 0.950 . S
C712 C710 1.391 . S
C712 C713 1.400 . S
C713 C712 1.400 . S
C713 C714 1.398 . S
C713 C719 1.491 . S
C714 H705 0.950 . S
C714 C713 1.398 . S
C714 C715 1.391 . S
C715 H703 0.950 . S
C715 C711 1.393 . S
C715 C714 1.391 . S
C716 H706 0.950 . S
C716 C717 1.386 . S
C716 C718 1.391 . S
C717 C716 1.386 . S
C717 C721 1.393 . S
C718 H707 0.950 . S
C718 C716 1.391 . S
C718 C719 1.400 . S
C719 C713 1.491 . S
C719 C718 1.400 . S
C719 C720 1.398 . S
C720 H708 0.950 . S
C720 C719 1.398 . S
C720 C721 1.391 . S
C721 H709 0.950 . S
C721 C717 1.393 . S
C721 C720 1.391 . S
H722 C730 0.950 . S
H723 C735 0.950 . S
H724 C732 0.950 . S
H725 C734 0.950 . S
H726 C736 0.950 . S
H727 C738 0.950 . S
H728 C740 0.950 . S
H729 C741 0.950 . S
C730 H722 0.950 . S
C730 C731 1.386 . S
C730 C732 1.391 . S
C731 C730 1.386 . S
C731 C735 1.393 . S
C732 H724 0.950 . S
C732 C730 1.391 . S
C732 C733 1.400 . S
C733 C732 1.400 . S
C733 C734 1.398 . S
C733 C739 1.491 . S
C734 H725 0.950 . S
C734 C733 1.398 . S
C734 C735 1.391 . S
C735 H723 0.950 . S
C735 C731 1.393 . S
C735 C734 1.391 . S
C736 H726 0.950 . S
C736 C737 1.386 . S
C736 C738 1.391 . S
C737 C736 1.386 . S
C737 C741 1.393 . S
C738 H727 0.950 . S
C738 C736 1.391 . S
C738 C739 1.400 . S
C739 C733 1.491 . S
C739 C738 1.400 . S
C739 C740 1.398 . S
C740 H728 0.950 . S
C740 C739 1.398 . S
C740 C741 1.391 . S
C741 H729 0.950 . S
C741 C737 1.393 . S
C741 C740 1.391 . S
H742 C750 0.950 . S
H743 C755 0.950 . S
H744 C752 0.950 . S
H745 C754 0.950 . S
H746 C756 0.950 . S
H747 C758 0.950 . S
H748 C760 0.950 . S
H749 C761 0.950 . S
C750 H742 0.950 . S
C750 C751 1.386 . S
C750 C752 1.391 . S
C751 C750 1.386 . S
C751 C755 1.393 . S
C752 H744 0.950 . S
C752 C750 1.391 . S
C752 C753 1.400 . S
C753 C752 1.400 . S
C753 C754 1.398 . S
C753 C759 1.491 . S
C754 H745 0.950 . S
C754 C753 1.398 . S
C754 C755 1.391 . S
C755 H743 0.950 . S
C755 C751 1.393 . S
C755 C754 1.391 . S
C756 H746 0.950 . S
C756 C757 1.386 . S
C756 C758 1.391 . S
C757 C756 1.386 . S
C757 C761 1.393 . S
C758 H747 0.950 . S
C758 C756 1.391 . S
C758 C759 1.400 . S
C759 C753 1.491 . S
C759 C758 1.400 . S
C759 C760 1.398 . S
C760 H748 0.950 . S
C760 C759 1.398 . S
C760 C761 1.391 . S
C761 H749 0.950 . S
C761 C757 1.393 . S
C761 C760 1.391 . S
H762 C770 0.950 . S
H763 C775 0.950 . S
H764 C772 0.950 . S
H765 C774 0.950 . S
H766 C776 0.950 . S
H767 C778 0.950 . S
H768 C780 0.950 . S
H769 C781 0.950 . S
C770 H762 0.950 . S
C770 C771 1.386 . S
C770 C772 1.391 . S
C771 C770 1.386 . S
C771 C775 1.393 . S
C772 H764 0.950 . S
C772 C770 1.391 . S
C772 C773 1.400 . S
C773 C772 1.400 . S
C773 C774 1.398 . S
C773 C779 1.491 . S
C774 H765 0.950 . S
C774 C773 1.398 . S
C774 C775 1.391 . S
C775 H763 0.950 . S
C775 C771 1.393 . S
C775 C774 1.391 . S
C776 H766 0.950 . S
C776 C777 1.386 . S
C776 C778 1.391 . S
C777 C776 1.386 . S
C777 C781 1.393 . S
C778 H767 0.950 . S
C778 C776 1.391 . S
C778 C779 1.400 . S
C779 C773 1.491 . S
C779 C778 1.400 . S
C779 C780 1.398 . S
C780 H768 0.950 . S
C780 C779 1.398 . S
C780 C781 1.391 . S
C781 H769 0.950 . S
C781 C777 1.393 . S
C781 C780 1.391 . S
H782 C790 0.950 . S
H783 C795 0.950 . S
H784 C792 0.950 . S
H785 C794 0.950 . S
H786 C796 0.950 . S
H787 C798 0.950 . S
H788 C800 0.950 . S
H789 C801 0.950 . S
C790 H782 0.950 . S
C790 C791 1.386 . S
C790 C792 1.391 . S
C791 C790 1.386 . S
C791 C795 1.393 . S
C792 H784 0.950 . S
C792 C790 1.391 . S
C792 C793 1.400 . S
C793 C792 1.400 . S
C793 C794 1.398 . S
C793 C799 1.491 . S
C794 H785 0.950 . S
C794 C793 1.398 . S
C794 C795 1.391 . S
C795 H783 0.950 . S
C795 C791 1.393 . S
C795 C794 1.391 . S
C796 H786 0.950 . S
C796 C797 1.386 . S
C796 C798 1.391 . S
C797 C796 1.386 . S
C797 C801 1.393 . S
C798 H787 0.950 . S
C798 C796 1.391 . S
C798 C799 1.400 . S
C799 C793 1.491 . S
C799 C798 1.400 . S
C799 C800 1.398 . S
C800 H788 0.950 . S
C800 C799 1.398 . S
C800 C801 1.391 . S
C801 H789 0.950 . S
C801 C797 1.393 . S
C801 C800 1.391 . S
H802 C810 0.950 . S
H803 C815 0.950 . S
H804 C812 0.950 . S
H805 C814 0.950 . S
H806 C816 0.950 . S
H807 C818 0.950 . S
H808 C820 0.950 . S
H809 C821 0.950 . S
C810 H802 0.950 . S
C810 C811 1.386 . S
C810 C812 1.391 . S
C811 C810 1.386 . S
C811 C815 1.393 . S
C812 H804 0.950 . S
C812 C810 1.391 . S
C812 C813 1.400 . S
C813 C812 1.400 . S
C813 C814 1.398 . S
C813 C819 1.491 . S
C814 H805 0.950 . S
C814 C813 1.398 . S
C814 C815 1.391 . S
C815 H803 0.950 . S
C815 C811 1.393 . S
C815 C814 1.391 . S
C816 H806 0.950 . S
C816 C817 1.386 . S
C816 C818 1.391 . S
C817 C816 1.386 . S
C817 C821 1.393 . S
C818 H807 0.950 . S
C818 C816 1.391 . S
C818 C819 1.400 . S
C819 C813 1.491 . S
C819 C818 1.400 . S
C819 C820 1.398 . S
C820 H808 0.950 . S
C820 C819 1.398 . S
C820 C821 1.391 . S
C821 H809 0.950 . S
C821 C817 1.393 . S
C821 C820 1.391 . S
H822 C830 0.950 . S
H823 C835 0.950 . S
H824 C832 0.950 . S
H825 C834 0.950 . S
H826 C836 0.950 . S
H827 C838 0.950 . S
H828 C840 0.950 . S
H829 C841 0.950 . S
C830 H822 0.950 . S
C830 C831 1.386 . S
C830 C832 1.391 . S
C831 C830 1.386 . S
C831 C835 1.393 . S
C832 H824 0.950 . S
C832 C830 1.391 . S
C832 C833 1.400 . S
C833 C832 1.400 . S
C833 C834 1.398 . S
C833 C839 1.491 . S
C834 H825 0.950 . S
C834 C833 1.398 . S
C834 C835 1.391 . S
C835 H823 0.950 . S
C835 C831 1.393 . S
C835 C834 1.391 . S
C836 H826 0.950 . S
C836 C837 1.386 . S
C836 C838 1.391 . S
C837 C836 1.386 . S
C837 C841 1.393 . S
C838 H827 0.950 . S
C838 C836 1.391 . S
C838 C839 1.400 . S
C839 C833 1.491 . S
C839 C838 1.400 . S
C839 C840 1.398 . S
C840 H828 0.950 . S
C840 C839 1.398 . S
C840 C841 1.391 . S
C841 H829 0.950 . S
C841 C837 1.393 . S
C841 C840 1.391 . S
H842 C850 0.950 . S
H843 C855 0.950 . S
H844 C852 0.950 . S
H845 C854 0.950 . S
H846 C856 0.950 . S
H847 C858 0.950 . S
H848 C860 0.950 . S
H849 C861 0.950 . S
C850 H842 0.950 . S
C850 C851 1.386 . S
C850 C852 1.391 . S
C851 C850 1.386 . S
C851 C855 1.393 . S
C852 H844 0.950 . S
C852 C850 1.391 . S
C852 C853 1.400 . S
C853 C852 1.400 . S
C853 C854 1.398 . S
C853 C859 1.491 . S
C854 H845 0.950 . S
C854 C853 1.398 . S
C854 C855 1.391 . S
C855 H843 0.950 . S
C855 C851 1.393 . S
C855 C854 1.391 . S
C856 H846 0.950 . S
C856 C857 1.386 . S
C856 C858 1.391 . S
C857 C856 1.386 . S
C857 C861 1.393 . S
C858 H847 0.950 . S
C858 C856 1.391 . S
C858 C859 1.400 . S
C859 C853 1.491 . S
C859 C858 1.400 . S
C859 C860 1.398 . S
C860 H848 0.950 . S
C860 C859 1.398 . S
C860 C861 1.391 . S
C861 H849 0.950 . S
C861 C857 1.393 . S
C861 C860 1.391 . S
H862 C870 0.950 . S
H863 C875 0.950 . S
H864 C872 0.950 . S
H865 C874 0.950 . S
H866 C876 0.950 . S
H867 C878 0.950 . S
H868 C880 0.950 . S
H869 C881 0.950 . S
C870 H862 0.950 . S
C870 C871 1.386 . S
C870 C872 1.391 . S
C871 C870 1.386 . S
C871 C875 1.393 . S
C872 H864 0.950 . S
C872 C870 1.391 . S
C872 C873 1.400 . S
C873 C872 1.400 . S
C873 C874 1.398 . S
C873 C879 1.491 . S
C874 H865 0.950 . S
C874 C873 1.398 . S
C874 C875 1.391 . S
C875 H863 0.950 . S
C875 C871 1.393 . S
C875 C874 1.391 . S
C876 H866 0.950 . S
C876 C877 1.386 . S
C876 C878 1.391 . S
C877 C876 1.386 . S
C877 C881 1.393 . S
C878 H867 0.950 . S
C878 C876 1.391 . S
C878 C879 1.400 . S
C879 C873 1.491 . S
C879 C878 1.400 . S
C879 C880 1.398 . S
C880 H868 0.950 . S
C880 C879 1.398 . S
C880 C881 1.391 . S
C881 H869 0.950 . S
C881 C877 1.393 . S
C881 C880 1.391 . S
H882 C890 0.950 . S
H883 C895 0.950 . S
H884 C892 0.950 . S
H885 C894 0.950 . S
H886 C896 0.950 . S
H887 C898 0.950 . S
H888 C900 0.950 . S
H889 C901 0.950 . S
C890 H882 0.950 . S
C890 C891 1.386 . S
C890 C892 1.391 . S
C891 C890 1.386 . S
C891 C895 1.393 . S
C892 H884 0.950 . S
C892 C890 1.391 . S
C892 C893 1.400 . S
C893 C892 1.400 . S
C893 C894 1.398 . S
C893 C899 1.491 . S
C894 H885 0.950 . S
C894 C893 1.398 . S
C894 C895 1.391 . S
C895 H883 0.950 . S
C895 C891 1.393 . S
C895 C894 1.391 . S
C896 H886 0.950 . S
C896 C897 1.386 . S
C896 C898 1.391 . S
C897 C896 1.386 . S
C897 C901 1.393 . S
C898 H887 0.950 . S
C898 C896 1.391 . S
C898 C899 1.400 . S
C899 C893 1.491 . S
C899 C898 1.400 . S
C899 C900 1.398 . S
C900 H888 0.950 . S
C900 C899 1.398 . S
C900 C901 1.391 . S
C901 H889 0.950 . S
C901 C897 1.393 . S
C901 C900 1.391 . S
C437 C126 1.840 . S
C431 C8 1.872 . S
C457 C195 1.718 . S
C451 C22 1.710 . S
C477 C133 1.730 . S
C471 C30 1.784 . S
C497 C196 1.355 . S
C491 C47 1.366 . S
C517 C249 1.817 . S
C511 C9 1.836 . S
C537 C285 1.744 . S
C531 C17 1.702 . S
C551 C34 1.609 . S
C557 C345 1.596 . S
C577 C408 1.494 . S
C571 C48 1.483 . S
C597 C248 1.882 . S
C591 C21 1.923 . S
C611 C35 1.831 . S
C617 C292 1.847 . S
C637 C338 1.325 . S
C631 C43 1.277 . S
C657 C407 1.575 . S
C651 C4 1.522 . S
C671 C56 1.504 . S
C677 C186 1.537 . S
C697 C143 1.735 . S
C691 C73 1.774 . S
C711 C87 1.737 . S
C717 C179 1.731 . S
C731 C100 1.986 . S
C737 C142 1.950 . S
C757 C354 1.634 . S
C751 C60 1.658 . S
C777 C398 1.404 . S
C771 C69 1.377 . S
C797 C232 1.887 . S
C791 C86 1.929 . S
C811 C95 1.475 . S
C817 C301 1.560 . S
C837 C355 1.637 . S
C831 C74 1.649 . S
C857 C391 1.400 . S
C851 C82 1.358 . S
C877 C239 1.985 . S
C871 C99 2.011 . S
C891 C61 1.665 . S
C897 C302 1.682 . S
