# Generated by pormake.
# Topology rtl, (3,6)-cn, num edge types: 1
# Building blocks:
#     Node 0, Type 0, BuildingBlock: BETDIP_clean_linker_0, # of connection points: 3
#     Node 1, Type 0, BuildingBlock: BETDIP_clean_linker_0, # of connection points: 3
#     Node 2, Type 0, BuildingBlock: BETDIP_clean_linker_0, # of connection points: 3
#     Node 3, Type 0, BuildingBlock: BETDIP_clean_linker_0, # of connection points: 3
#     Node 4, Type 1, BuildingBlock: VOLQOD_clean_sbu_1, # of connection points: 6
#     Node 5, Type 1, BuildingBlock: VOLQOD_clean_sbu_1, # of connection points: 6
#     Edge 6, Type (0, 1), BuildingBlock: UVAHIK_clean_linker_0, # of connection points: 2
#     Edge 7, Type (0, 1), BuildingBlock: UVAHIK_clean_linker_0, # of connection points: 2
#     Edge 8, Type (0, 1), BuildingBlock: UVAHIK_clean_linker_0, # of connection points: 2
#     Edge 9, Type (0, 1), BuildingBlock: UVAHIK_clean_linker_0, # of connection points: 2
#     Edge 10, Type (0, 1), BuildingBlock: UVAHIK_clean_linker_0, # of connection points: 2
#     Edge 11, Type (0, 1), BuildingBlock: UVAHIK_clean_linker_0, # of connection points: 2
#     Edge 12, Type (0, 1), BuildingBlock: UVAHIK_clean_linker_0, # of connection points: 2
#     Edge 13, Type (0, 1), BuildingBlock: UVAHIK_clean_linker_0, # of connection points: 2
#     Edge 14, Type (0, 1), BuildingBlock: UVAHIK_clean_linker_0, # of connection points: 2
#     Edge 15, Type (0, 1), BuildingBlock: UVAHIK_clean_linker_0, # of connection points: 2
#     Edge 16, Type (0, 1), BuildingBlock: UVAHIK_clean_linker_0, # of connection points: 2
#     Edge 17, Type (0, 1), BuildingBlock: UVAHIK_clean_linker_0, # of connection points: 2
# Relax obj value: 0.041
# Max RMSD: 0.143
# Mean RMSD: 0.098
data_MOF--net-rtl--node1-VOLQOD_clean_sbu_1--node2-BETDIP_clean_linker_0--edge1-UVAHIK_clean_linker_0
_symmetry_space_group_name_H-M    P1
_symmetry_Int_Tables_number       1
_symmetry_cell_setting            triclinic
loop_
_symmetry_equiv_pos_as_xyz
'x, y, z'
_cell_length_a     48.555543
_cell_length_b     49.19293
_cell_length_c     28.271072
_cell_angle_alpha  91.068502
_cell_angle_beta   91.347678
_cell_angle_gamma 89.898998
loop_
_atom_site_label
_atom_site_type_symbol
_atom_site_fract_x
_atom_site_fract_y
_atom_site_fract_z
_atom_type_partial_charge
H0 H 0.19704 0.79282 0.91054 0.0
H1 H 0.20742 0.79467 0.06225 0.0
H2 H 0.16395 0.85908 -0.00709 0.0
H3 H 0.21187 0.74961 0.05233 0.0
C4 C 0.22259 0.74714 0.01925 0.0
C5 C 0.19365 0.80279 0.94442 0.0
C6 C 0.17963 0.82773 0.94653 0.0
C7 C 0.20331 0.79042 0.98584 0.0
C8 C 0.1994 0.80346 0.02995 0.0
C9 C 0.18558 0.82847 0.03249 0.0
C10 C 0.1757 0.84036 0.99074 0.0
N11 N 0.21756 0.76532 0.98159 0.0
H12 H 0.71692 0.69102 0.60901 0.0
H13 H 0.70303 0.69897 0.45898 0.0
H14 H 0.64944 0.64899 0.53905 0.0
H15 H 0.75294 0.70048 0.46577 0.0
C16 C 0.75318 0.71631 0.49313 0.0
C17 C 0.70501 0.68606 0.57711 0.0
C18 C 0.68241 0.66845 0.57899 0.0
C19 C 0.71302 0.69646 0.53377 0.0
C20 C 0.69754 0.69019 0.49232 0.0
C21 C 0.67425 0.67346 0.49421 0.0
C22 C 0.66708 0.66241 0.53754 0.0
N23 N 0.73616 0.71393 0.53296 0.0
H24 H 0.78779 0.21434 0.89842 0.0
H25 H 0.79779 0.20686 0.04927 0.0
H26 H 0.8478 0.15894 0.95614 0.0
H27 H 0.78729 0.2533 0.04384 0.0
C28 C 0.76952 0.25162 0.01986 0.0
C29 C 0.79796 0.20511 0.92866 0.0
C30 C 0.81902 0.186 0.9219 0.0
C31 C 0.79077 0.21329 0.97446 0.0
C32 C 0.80378 0.2012 0.01377 0.0
C33 C 0.82447 0.18165 0.00739 0.0
C34 C 0.83211 0.17435 0.96138 0.0
N35 N 0.77028 0.23357 0.98013 0.0
H36 H 0.27241 0.30037 0.42855 0.0
H37 H 0.28735 0.2952 0.57895 0.0
H38 H 0.33421 0.35052 0.49761 0.0
H39 H 0.24697 0.27509 0.57954 0.0
C40 C 0.2429 0.26591 0.54491 0.0
C41 C 0.28353 0.30698 0.46041 0.0
C42 C 0.30401 0.32689 0.45798 0.0
C43 C 0.27682 0.29585 0.50389 0.0
C44 C 0.29141 0.30424 0.54527 0.0
C45 C 0.31225 0.32387 0.54306 0.0
C46 C 0.31824 0.33521 0.49941 0.0
N47 N 0.25577 0.27587 0.50411 0.0
O48 O 0.93221 0.96484 0.47102 0.0
Zn49 Zn 0.95153 0.00099 0.47214 0.0
O50 O 0.99139 -0.00343 0.47951 0.0
Zn51 Zn 0.00366 0.01309 0.53958 0.0
Zn52 Zn 0.00047 0.9579 0.47852 0.0
Zn53 Zn 0.00996 0.01428 0.42793 0.0
O54 O 0.03205 0.04184 0.53 0.0
O55 O 0.03499 0.04419 0.45205 0.0
O56 O 0.9361 0.02392 0.52485 0.0
O57 O 0.97241 0.03173 0.57222 0.0
O58 O 0.02077 0.98541 0.58254 0.0
O59 O 0.01893 0.94716 0.53965 0.0
O60 O 0.02661 0.94839 0.42673 0.0
O61 O 0.94197 0.02015 0.41179 0.0
O62 O 0.03369 0.98787 0.39237 0.0
O63 O 0.98253 0.03035 0.38211 0.0
C64 C 0.94092 0.94043 0.46888 0.0
C65 C 0.0421 0.0524 0.4935 0.0
C66 C 0.02566 0.96009 0.57758 0.0
C67 C 0.94691 0.0347 0.56209 0.0
C68 C 0.03829 0.96249 0.39571 0.0
C69 C 0.95631 0.03098 0.38007 0.0
O70 O 0.96656 0.93495 0.46977 0.0
O71 O 0.55543 0.47031 0.03709 0.0
Zn72 Zn 0.53356 0.50461 0.02969 0.0
O73 O 0.4944 0.49742 0.02097 0.0
Zn74 Zn 0.48092 0.51361 0.96194 0.0
Zn75 Zn 0.48875 0.45817 0.01826 0.0
Zn76 Zn 0.47484 0.51311 0.07456 0.0
O77 O 0.45052 0.54061 0.97423 0.0
O78 O 0.44586 0.53908 0.05204 0.0
O79 O 0.54822 0.52457 0.9748 0.0
O80 O 0.51152 0.53285 0.92896 0.0
O81 O 0.46509 0.48486 0.91737 0.0
O82 O 0.47105 0.44657 0.95665 0.0
O83 O 0.46361 0.44638 0.06926 0.0
O84 O 0.541 0.52817 0.08674 0.0
O85 O 0.45519 0.4843 0.11017 0.0
O86 O 0.50028 0.53404 0.11934 0.0
C87 C 0.54908 0.44525 0.03386 0.0
C88 C 0.43858 0.54824 0.01185 0.0
C89 C 0.46261 0.45917 0.92019 0.0
C90 C 0.53726 0.53503 0.93809 0.0
C91 C 0.45206 0.45883 0.10332 0.0
C92 C 0.52612 0.53835 0.11898 0.0
O93 O 0.52435 0.43767 0.02578 0.0
C94 C 0.21561 0.23218 0.4958 0.0
C95 C 0.22255 0.24373 0.54029 0.0
C96 C 0.19629 0.21127 0.49182 0.0
C97 C 0.13875 0.18025 0.55392 0.0
H98 H 0.15151 0.11972 0.46726 0.0
C99 C 0.06983 0.08469 0.54486 0.0
C100 C 0.06259 0.07448 0.49946 0.0
C101 C 0.08941 0.1053 0.55058 0.0
C102 C 0.14755 0.13662 0.49125 0.0
H103 H 0.215 0.24256 0.61537 0.0
H104 H 0.18135 0.20566 0.60857 0.0
H105 H 0.18591 0.15557 0.47645 0.0
H106 H 0.07018 0.07806 0.42445 0.0
H107 H 0.10425 0.11413 0.43454 0.0
H108 H 0.10037 0.16122 0.56873 0.0
C109 C 0.19057 0.21302 0.57674 0.0
C110 C 0.16723 0.15715 0.49653 0.0
C111 C 0.20989 0.23399 0.58069 0.0
C112 C 0.07531 0.08541 0.45993 0.0
C113 C 0.09495 0.10597 0.46569 0.0
C114 C 0.11908 0.15968 0.54872 0.0
C115 C 0.18357 0.20143 0.53223 0.0
C116 C 0.16298 0.17927 0.52771 0.0
C117 C 0.10223 0.11608 0.51107 0.0
C118 C 0.12323 0.13773 0.51715 0.0
H119 H 0.22495 0.2393 0.46392 0.0
H120 H 0.19103 0.20306 0.45696 0.0
H121 H 0.1347 0.19722 0.57773 0.0
H122 H 0.06046 0.07671 0.57609 0.0
H123 H 0.09482 0.11251 0.58602 0.0
C124 C 0.25591 0.71992 0.9712 0.0
C125 C 0.24255 0.72472 0.0141 0.0
C126 C 0.27563 0.69935 0.96753 0.0
C127 C 0.30145 0.63721 0.02578 0.0
H128 H 0.36903 0.65365 0.96168 0.0
C129 C 0.40017 0.57396 0.04954 0.0
C130 C 0.41539 0.56772 0.00904 0.0
C131 C 0.37804 0.592 0.04713 0.0
C132 C 0.35013 0.64863 0.97912 0.0
H133 H 0.23888 0.71178 0.08641 0.0
H134 H 0.27369 0.67608 0.08038 0.0
H135 H 0.3319 0.68706 0.96303 0.0
H136 H 0.41927 0.57563 0.93421 0.0
H137 H 0.38054 0.60733 0.93016 0.0
H138 H 0.31999 0.59901 0.04273 0.0
C139 C 0.26867 0.68786 0.04936 0.0
C140 C 0.32884 0.66773 0.97987 0.0
C141 C 0.24889 0.70837 0.05295 0.0
C142 C 0.408 0.58002 0.96606 0.0
C143 C 0.3859 0.59823 0.96375 0.0
C144 C 0.32278 0.61817 0.0252 0.0
C145 C 0.28242 0.68326 0.0067 0.0
C146 C 0.30437 0.66235 0.00364 0.0
C147 C 0.37067 0.60432 0.00426 0.0
C148 C 0.34744 0.62382 0.00232 0.0
H149 H 0.25133 0.73211 0.9405 0.0
H150 H 0.28556 0.69605 0.934 0.0
H151 H 0.28267 0.63225 0.04365 0.0
H152 H 0.40527 0.56487 0.08323 0.0
H153 H 0.36691 0.59662 0.07908 0.0
C154 C 0.76912 0.76283 0.51773 0.0
C155 C 0.77259 0.73915 0.49011 0.0
C156 C 0.7872 0.78464 0.51384 0.0
C157 C 0.84031 0.81269 0.43546 0.0
H158 H 0.85848 0.85663 0.54718 0.0
C159 C 0.92866 0.89203 0.44998 0.0
C160 C 0.92093 0.91787 0.46714 0.0
C161 C 0.91014 0.87036 0.45043 0.0
C162 C 0.85341 0.84459 0.5157 0.0
H163 H 0.79751 0.71938 0.43714 0.0
H164 H 0.82999 0.75696 0.43175 0.0
H165 H 0.82787 0.81778 0.55368 0.0
H166 H 0.88776 0.94137 0.49788 0.0
H167 H 0.85563 0.90319 0.49974 0.0
H168 H 0.86692 0.83919 0.39814 0.0
C169 C 0.81289 0.75915 0.45542 0.0
C170 C 0.83577 0.82241 0.51927 0.0
C171 C 0.79447 0.73752 0.45874 0.0
C172 C 0.89425 0.9217 0.48428 0.0
C173 C 0.87594 0.8999 0.48558 0.0
C174 C 0.85838 0.8346 0.43214 0.0
C175 C 0.80943 0.78306 0.48283 0.0
C176 C 0.82879 0.80628 0.47912 0.0
C177 C 0.88381 0.87406 0.46888 0.0
C178 C 0.86487 0.85081 0.47217 0.0
H179 H 0.75215 0.76476 0.54176 0.0
H180 H 0.78343 0.80289 0.5347 0.0
H181 H 0.83508 0.80108 0.40362 0.0
H182 H 0.94907 0.88852 0.43638 0.0
H183 H 0.91664 0.85054 0.43755 0.0
C184 C 0.72132 0.2666 0.00068 0.0
C185 C 0.7463 0.27057 0.02587 0.0
C186 C 0.6996 0.28491 0.00638 0.0
C187 C 0.68544 0.35542 0.0356 0.0
H188 H 0.61111 0.33077 0.05774 0.0
C189 C 0.5966 0.43149 0.05967 0.0
C190 C 0.57102 0.42461 0.03858 0.0
C191 C 0.61769 0.41225 0.06266 0.0
C192 C 0.63167 0.33798 0.05099 0.0
H193 H 0.76825 0.29631 0.07695 0.0
H194 H 0.73034 0.32878 0.08613 0.0
H195 H 0.6486 0.29776 0.05367 0.0
H196 H 0.54737 0.39215 0.00433 0.0
H197 H 0.58442 0.35886 0.00791 0.0
H198 H 0.66865 0.39543 0.03092 0.0
C199 C 0.7276 0.31148 0.06221 0.0
C200 C 0.65311 0.31908 0.04892 0.0
C201 C 0.74917 0.29294 0.05706 0.0
C202 C 0.56682 0.39801 0.02104 0.0
C203 C 0.58804 0.37887 0.02339 0.0
C204 C 0.66397 0.37429 0.03699 0.0
C205 C 0.70266 0.30762 0.03685 0.0
C206 C 0.68013 0.32765 0.04101 0.0
C207 C 0.61381 0.3858 0.04397 0.0
C208 C 0.63678 0.3658 0.04448 0.0
H209 H 0.71851 0.24939 0.97662 0.0
H210 H 0.68061 0.28163 0.9862 0.0
H211 H 0.70609 0.36246 0.02891 0.0
H212 H 0.60035 0.45177 0.07399 0.0
H213 H 0.63705 0.41815 0.07963 0.0
C214 C 0.1678 0.82719 0.11479 0.0
C215 C 0.17987 0.84184 0.07852 0.0
C216 C 0.15786 0.8408 0.15475 0.0
C217 C 0.12956 0.90738 0.18521 0.0
H218 H 0.12931 0.88021 0.31305 0.0
C219 C 0.07376 0.96496 0.33315 0.0
C220 C 0.05792 0.94925 0.36334 0.0
C221 C 0.09215 0.95252 0.30232 0.0
C222 C 0.12909 0.88794 0.27742 0.0
H223 H 0.19333 0.88168 0.05727 0.0
H224 H 0.17625 0.90543 0.12723 0.0
H225 H 0.15686 0.85702 0.25317 0.0
H226 H 0.04927 0.90814 0.38527 0.0
H227 H 0.08089 0.88641 0.33058 0.0
H228 H 0.10126 0.93772 0.20863 0.0
C229 C 0.17384 0.88357 0.12435 0.0
C230 C 0.14491 0.87472 0.24325 0.0
C231 C 0.18367 0.87 0.08443 0.0
C232 C 0.06115 0.92084 0.36245 0.0
C233 C 0.07946 0.90839 0.33139 0.0
C234 C 0.11373 0.9205 0.2192 0.0
C235 C 0.15992 0.86925 0.15906 0.0
C236 C 0.14512 0.88422 0.1967 0.0
C237 C 0.09499 0.92408 0.30071 0.0
C238 C 0.11311 0.91082 0.26559 0.0
H239 H 0.16452 0.80548 0.11094 0.0
H240 H 0.14709 0.82924 0.18077 0.0
H241 H 0.12879 0.91485 0.1494 0.0
H242 H 0.07201 0.98691 0.33329 0.0
H243 H 0.10413 0.96522 0.27966 0.0
C244 C 0.66967 0.62789 0.625 0.0
C245 C 0.67451 0.65599 0.62377 0.0
C246 C 0.65906 0.61625 0.66522 0.0
C247 C 0.61496 0.63327 0.76322 0.0
H248 H 0.63677 0.56201 0.80724 0.0
C249 C 0.54327 0.56456 0.86773 0.0
C250 C 0.55488 0.55033 0.90597 0.0
C251 C 0.56003 0.57917 0.83784 0.0
C252 C 0.63062 0.58205 0.79574 0.0
H253 H 0.67321 0.69386 0.66393 0.0
H254 H 0.6544 0.67343 0.73478 0.0
H255 H 0.66443 0.58469 0.74879 0.0
H256 H 0.59325 0.54039 0.94285 0.0
H257 H 0.62239 0.56581 0.89053 0.0
H258 H 0.58087 0.63042 0.80957 0.0
C259 C 0.65878 0.66049 0.70445 0.0
C260 C 0.64635 0.59494 0.76211 0.0
C261 C 0.66969 0.67213 0.6642 0.0
C262 C 0.58361 0.55107 0.91367 0.0
C263 C 0.60035 0.56556 0.88364 0.0
C264 C 0.59914 0.62032 0.79668 0.0
C265 C 0.65291 0.63252 0.70495 0.0
C266 C 0.6384 0.62045 0.74492 0.0
C267 C 0.58874 0.57973 0.84542 0.0
C268 C 0.60657 0.59439 0.81266 0.0
H269 H 0.67345 0.61503 0.5943 0.0
H270 H 0.65451 0.5947 0.66439 0.0
H271 H 0.6082 0.65282 0.75027 0.0
H272 H 0.52123 0.56444 0.86084 0.0
H273 H 0.55056 0.58963 0.80824 0.0
C274 C 0.86657 0.16447 0.0499 0.0
C275 C 0.8379 0.16832 0.0484 0.0
C276 C 0.8791 0.15016 0.08668 0.0
C277 C 0.86857 0.12568 0.20754 0.0
H278 H 0.92522 0.07357 0.17386 0.0
C279 C 0.91344 0.04855 0.34005 0.0
C280 C 0.94224 0.04545 0.34096 0.0
C281 C 0.90031 0.06328 0.30429 0.0
C282 C 0.90961 0.08821 0.18386 0.0
H283 H 0.79989 0.16066 0.08456 0.0
H284 H 0.8218 0.13549 0.14892 0.0
H285 H 0.90314 0.10066 0.11244 0.0
H286 H 0.97978 0.05507 0.30454 0.0
H287 H 0.95682 0.08079 0.24229 0.0
H288 H 0.87503 0.11308 0.27902 0.0
C289 C 0.83462 0.14382 0.12191 0.0
C290 C 0.89701 0.10377 0.14873 0.0
C291 C 0.82207 0.15822 0.08511 0.0
C292 C 0.95756 0.05703 0.30491 0.0
C293 C 0.94441 0.07167 0.26908 0.0
C294 C 0.88115 0.11006 0.2427 0.0
C295 C 0.86323 0.13932 0.1227 0.0
C296 C 0.87644 0.12277 0.1602 0.0
C297 C 0.91568 0.0751 0.26859 0.0
C298 C 0.90187 0.09124 0.23121 0.0
H299 H 0.87931 0.17243 0.02243 0.0
H300 H 0.90126 0.14752 0.08684 0.0
H301 H 0.85301 0.14037 0.21755 0.0
H302 H 0.901 0.03986 0.36724 0.0
H303 H 0.87809 0.06531 0.30445 0.0
C304 C 0.31396 0.34059 0.6273 0.0
C305 C 0.32782 0.33294 0.5861 0.0
C306 C 0.32854 0.35183 0.66611 0.0
C307 C 0.3983 0.35993 0.71942 0.0
H308 H 0.36833 0.42638 0.77354 0.0
C309 C 0.44699 0.41513 0.8829 0.0
C310 C 0.44858 0.44365 0.88137 0.0
C311 C 0.43248 0.40048 0.84774 0.0
C312 C 0.37701 0.40792 0.7586 0.0
H313 H 0.3678 0.32958 0.55392 0.0
H314 H 0.39321 0.34935 0.62148 0.0
H315 H 0.34216 0.40158 0.71202 0.0
H316 H 0.43657 0.47908 0.84112 0.0
H317 H 0.41134 0.4534 0.77955 0.0
H318 H 0.43342 0.36661 0.76532 0.0
C319 C 0.37116 0.34668 0.62392 0.0
C320 C 0.36187 0.39353 0.72387 0.0
C321 C 0.35659 0.33561 0.58512 0.0
C322 C 0.43572 0.45714 0.84342 0.0
C323 C 0.4211 0.44247 0.80834 0.0
C324 C 0.41338 0.37425 0.75433 0.0
C325 C 0.35722 0.35539 0.66447 0.0
C326 C 0.37247 0.36952 0.70365 0.0
C327 C 0.41916 0.41402 0.81037 0.0
C328 C 0.40299 0.39852 0.77395 0.0
H329 H 0.29177 0.33882 0.62887 0.0
H330 H 0.31733 0.35811 0.69715 0.0
H331 H 0.40689 0.34138 0.70465 0.0
H332 H 0.45667 0.40407 0.91162 0.0
H333 H 0.43116 0.37858 0.8504 0.0
C334 C 0.66987 0.65828 0.40932 0.0
C335 C 0.65738 0.667 0.45124 0.0
C336 C 0.65373 0.64907 0.37073 0.0
C337 C 0.58637 0.6179 0.34609 0.0
H338 H 0.60471 0.62855 0.21502 0.0
C339 C 0.52358 0.5683 0.19163 0.0
C340 C 0.53924 0.55603 0.15587 0.0
C341 C 0.5362 0.58517 0.22603 0.0
C342 C 0.59941 0.62534 0.25149 0.0
H343 H 0.61837 0.6749 0.48464 0.0
H344 H 0.59018 0.65903 0.41717 0.0
H345 H 0.63023 0.65325 0.27762 0.0
H346 H 0.58044 0.55202 0.12812 0.0
H347 H 0.60233 0.58102 0.18834 0.0
H348 H 0.55604 0.58954 0.3202 0.0
C349 C 0.6124 0.65867 0.41445 0.0
C350 C 0.614 0.63947 0.28727 0.0
C351 C 0.62851 0.66777 0.453 0.0
C352 C 0.56771 0.56113 0.15513 0.0
C353 C 0.58027 0.57797 0.1894 0.0
C354 C 0.5718 0.60379 0.31036 0.0
C355 C 0.62484 0.64855 0.37337 0.0
C356 C 0.60789 0.63559 0.33498 0.0
C357 C 0.56469 0.59014 0.22527 0.0
C358 C 0.57847 0.60701 0.26274 0.0
H359 H 0.6921 0.65736 0.40717 0.0
H360 H 0.66394 0.64117 0.3397 0.0
H361 H 0.58145 0.61412 0.38255 0.0
H362 H 0.50159 0.56491 0.19308 0.0
H363 H 0.52363 0.59445 0.25308 0.0
C364 C 0.80862 0.16863 0.83948 0.0
C365 C 0.82782 0.17792 0.87399 0.0
C366 C 0.81765 0.15748 0.79664 0.0
C367 C 0.87921 0.15023 0.72175 0.0
H368 H 0.85018 0.07834 0.69213 0.0
C369 C 0.94262 0.06837 0.62877 0.0
C370 C 0.92998 0.05239 0.59275 0.0
C371 C 0.92707 0.08629 0.65605 0.0
C372 C 0.85816 0.09858 0.69936 0.0
H373 H 0.87114 0.18461 0.88998 0.0
H374 H 0.88692 0.16515 0.81573 0.0
H375 H 0.82768 0.10707 0.75108 0.0
H376 H 0.89093 0.04239 0.55767 0.0
H377 H 0.86366 0.07358 0.60615 0.0
H378 H 0.91045 0.14122 0.67166 0.0
C379 C 0.86496 0.16645 0.82129 0.0
C380 C 0.84523 0.11508 0.73298 0.0
C381 C 0.85598 0.17735 0.86402 0.0
C382 C 0.9013 0.05443 0.58516 0.0
C383 C 0.88568 0.07224 0.61285 0.0
C384 C 0.89217 0.13372 0.68836 0.0
C385 C 0.84597 0.15578 0.78759 0.0
C386 C 0.85621 0.1407 0.74566 0.0
C387 C 0.89849 0.08853 0.64821 0.0
C388 C 0.88231 0.1074 0.67803 0.0
H389 H 0.78679 0.16883 0.84651 0.0
H390 H 0.80256 0.14958 0.77114 0.0
H391 H 0.88782 0.17009 0.73016 0.0
H392 H 0.96464 0.06735 0.63558 0.0
H393 H 0.93741 0.09824 0.68369 0.0
C394 C 0.31434 0.36717 0.4092 0.0
C395 C 0.3112 0.33891 0.41238 0.0
C396 C 0.3246 0.37847 0.36839 0.0
C397 C 0.3706 0.36112 0.2729 0.0
H398 H 0.34763 0.43123 0.22527 0.0
C399 C 0.42899 0.41566 0.12638 0.0
C400 C 0.43377 0.44358 0.13441 0.0
C401 C 0.41106 0.40148 0.15487 0.0
C402 C 0.35433 0.41168 0.23833 0.0
H403 H 0.31498 0.30035 0.37481 0.0
H404 H 0.33296 0.32019 0.30295 0.0
H405 H 0.31966 0.40855 0.28329 0.0
H406 H 0.4235 0.47843 0.17886 0.0
H407 H 0.39261 0.45359 0.22892 0.0
H408 H 0.40572 0.36461 0.22916 0.0
C409 C 0.32763 0.33354 0.33225 0.0
C410 C 0.33828 0.39867 0.27136 0.0
C411 C 0.31718 0.32222 0.37311 0.0
C412 C 0.42028 0.45697 0.17163 0.0
C413 C 0.40236 0.44278 0.20007 0.0
C414 C 0.38667 0.37414 0.23988 0.0
C415 C 0.33202 0.36172 0.32995 0.0
C416 C 0.3466 0.37356 0.28981 0.0
C417 C 0.39752 0.41491 0.19194 0.0
C418 C 0.37903 0.39985 0.22312 0.0
H419 H 0.30961 0.38048 0.4389 0.0
H420 H 0.32798 0.40022 0.3679 0.0
H421 H 0.37774 0.34195 0.28694 0.0
H422 H 0.43895 0.40474 0.09786 0.0
H423 H 0.40759 0.38005 0.14757 0.0
C424 C 0.16873 0.86856 0.89799 0.0
C425 C 0.16774 0.84023 0.90332 0.0
C426 C 0.15446 0.88084 0.86074 0.0
C427 C 0.12183 0.86923 0.74399 0.0
H428 H 0.07516 0.92969 0.78103 0.0
C429 C 0.04311 0.91719 0.61414 0.0
C430 C 0.0406 0.94566 0.61574 0.0
C431 C 0.05839 0.90371 0.64899 0.0
C432 C 0.08833 0.91309 0.76993 0.0
H433 H 0.15207 0.80245 0.87247 0.0
H434 H 0.12747 0.824 0.80667 0.0
H435 H 0.10403 0.9075 0.84038 0.0
H436 H 0.05209 0.9823 0.65532 0.0
H437 H 0.07918 0.95889 0.7154 0.0
H438 H 0.10649 0.87506 0.67336 0.0
C439 C 0.13927 0.83661 0.83154 0.0
C440 C 0.10483 0.90037 0.80395 0.0
C441 C 0.15341 0.8243 0.86908 0.0
C442 C 0.05344 0.96033 0.65321 0.0
C443 C 0.06889 0.94688 0.68781 0.0
C444 C 0.10549 0.88212 0.70979 0.0
C445 C 0.1391 0.86504 0.8278 0.0
C446 C 0.1218 0.8784 0.79129 0.0
C447 C 0.07166 0.91842 0.68601 0.0
C448 C 0.0886 0.90426 0.72237 0.0
H449 H 0.18006 0.88132 0.92326 0.0
H450 H 0.15509 0.90277 0.85809 0.0
H451 H 0.13487 0.85241 0.73333 0.0
H452 H 0.03333 0.90527 0.58587 0.0
H453 H 0.05971 0.88174 0.647 0.0
loop_
_geom_bond_atom_site_label_1
_geom_bond_atom_site_label_2
_geom_bond_distance
_geom_bond_site_symmetry_2
_ccdc_geom_bond_type
H0 C5 0.930 . S
H1 C8 0.930 . S
H2 C10 0.930 . S
H3 C4 1.016 . S
C4 H3 1.016 . S
C4 N11 1.286 1_554 S
C5 H0 0.930 . S
C5 C6 1.397 . S
C5 C7 1.361 . S
C6 C5 1.397 . S
C6 C10 1.390 1_556 S
C7 C5 1.361 . S
C7 C8 1.393 1_556 S
C7 N11 1.413 . S
C8 H1 0.930 . S
C8 C7 1.393 1_554 S
C8 C9 1.399 . S
C9 C8 1.399 . S
C9 C10 1.381 . S
C10 H2 0.930 . S
C10 C6 1.390 1_554 S
C10 C9 1.381 . S
N11 C4 1.286 1_556 S
N11 C7 1.413 . S
H12 C17 0.930 . S
H13 C20 0.930 . S
H14 C22 0.930 . S
H15 C16 1.016 . S
C16 H15 1.016 . S
C16 N23 1.286 . S
C17 H12 0.930 . S
C17 C18 1.397 . S
C17 C19 1.361 . S
C18 C17 1.397 . S
C18 C22 1.390 . S
C19 C17 1.361 . S
C19 C20 1.393 . S
C19 N23 1.413 . S
C20 H13 0.930 . S
C20 C19 1.393 . S
C20 C21 1.399 . S
C21 C20 1.399 . S
C21 C22 1.381 . S
C22 H14 0.930 . S
C22 C18 1.390 . S
C22 C21 1.381 . S
N23 C16 1.286 . S
N23 C19 1.413 . S
H24 C29 0.930 . S
H25 C32 0.930 . S
H26 C34 0.930 . S
H27 C28 1.016 . S
C28 H27 1.016 . S
C28 N35 1.286 1_554 S
C29 H24 0.930 . S
C29 C30 1.397 . S
C29 C31 1.361 . S
C30 C29 1.397 . S
C30 C34 1.390 1_556 S
C31 C29 1.361 . S
C31 C32 1.393 1_556 S
C31 N35 1.413 . S
C32 H25 0.930 . S
C32 C31 1.393 1_554 S
C32 C33 1.399 . S
C33 C32 1.399 . S
C33 C34 1.381 . S
C34 H26 0.930 . S
C34 C30 1.390 1_554 S
C34 C33 1.381 . S
N35 C28 1.286 1_556 S
N35 C31 1.413 . S
H36 C41 0.930 . S
H37 C44 0.930 . S
H38 C46 0.930 . S
H39 C40 1.016 . S
C40 H39 1.016 . S
C40 N47 1.286 . S
C41 H36 0.930 . S
C41 C42 1.397 . S
C41 C43 1.361 . S
C42 C41 1.397 . S
C42 C46 1.390 . S
C43 C41 1.361 . S
C43 C44 1.393 . S
C43 N47 1.413 . S
C44 H37 0.930 . S
C44 C43 1.393 . S
C44 C45 1.399 . S
C45 C44 1.399 . S
C45 C46 1.381 . S
C46 H38 0.930 . S
C46 C42 1.390 . S
C46 C45 1.381 . S
N47 C40 1.286 . S
N47 C43 1.413 . S
O48 Zn49 1.953 1_565 S
O48 C64 1.225 . S
Zn49 O48 1.953 1_545 S
Zn49 O50 1.949 1_655 S
Zn49 O56 1.919 . S
Zn49 O61 1.924 . S
O50 Zn49 1.949 1_455 S
O50 Zn51 1.923 . S
O50 Zn52 1.950 1_545 S
O50 Zn53 1.945 . S
Zn51 O50 1.923 . S
Zn51 O54 1.933 . S
Zn51 O57 1.941 1_455 S
Zn51 O58 1.965 1_545 S
Zn52 O50 1.950 1_565 S
Zn52 O59 1.938 . S
Zn52 O60 1.906 . S
Zn52 O70 1.953 1_455 S
Zn53 O50 1.945 . S
Zn53 O55 1.932 . S
Zn53 O62 1.972 1_545 S
Zn53 O63 1.910 1_455 S
O54 Zn51 1.933 . S
O54 C65 1.226 . S
O55 Zn53 1.932 . S
O55 C65 1.307 . S
O56 Zn49 1.919 . S
O56 C67 1.253 . S
O57 Zn51 1.941 1_655 S
O57 C67 1.283 . S
O58 Zn51 1.965 1_565 S
O58 C66 1.303 . S
O59 Zn52 1.938 . S
O59 C66 1.247 . S
O60 Zn52 1.906 . S
O60 C68 1.304 . S
O61 Zn49 1.924 . S
O61 C69 1.311 . S
O62 Zn53 1.972 1_565 S
O62 C68 1.279 . S
O63 Zn53 1.910 1_655 S
O63 C69 1.231 . S
C64 O48 1.225 . S
C64 O70 1.298 . S
C65 O54 1.226 . S
C65 O55 1.307 . S
C66 O58 1.303 . S
C66 O59 1.247 . S
C67 O56 1.253 . S
C67 O57 1.283 . S
C68 O60 1.304 . S
C68 O62 1.279 . S
C69 O61 1.311 . S
C69 O63 1.231 . S
O70 Zn52 1.953 1_655 S
O70 C64 1.298 . S
O71 Zn72 1.953 . S
O71 C87 1.225 . S
Zn72 O71 1.953 . S
Zn72 O73 1.949 . S
Zn72 O79 1.919 1_554 S
Zn72 O84 1.924 . S
O73 Zn72 1.949 . S
O73 Zn74 1.923 1_554 S
O73 Zn75 1.950 . S
O73 Zn76 1.945 . S
Zn74 O73 1.923 1_556 S
Zn74 O77 1.933 . S
Zn74 O80 1.941 . S
Zn74 O81 1.965 . S
Zn75 O73 1.950 . S
Zn75 O82 1.938 1_554 S
Zn75 O83 1.906 . S
Zn75 O93 1.953 . S
Zn76 O73 1.945 . S
Zn76 O78 1.932 . S
Zn76 O85 1.977 . S
Zn76 O86 1.910 . S
O77 Zn74 1.933 . S
O77 C88 1.226 1_556 S
O78 Zn76 1.932 . S
O78 C88 1.307 . S
O79 Zn72 1.919 1_556 S
O79 C90 1.253 . S
O80 Zn74 1.941 . S
O80 C90 1.283 . S
O81 Zn74 1.965 . S
O81 C89 1.303 . S
O82 Zn75 1.938 1_556 S
O82 C89 1.247 . S
O83 Zn75 1.906 . S
O83 C91 1.304 . S
O84 Zn72 1.924 . S
O84 C92 1.311 . S
O85 Zn76 1.977 . S
O85 C91 1.272 . S
O86 Zn76 1.910 . S
O86 C92 1.231 . S
C87 O71 1.225 . S
C87 O93 1.298 . S
C88 O77 1.226 1_554 S
C88 O78 1.307 . S
C89 O81 1.303 . S
C89 O82 1.247 . S
C90 O79 1.253 . S
C90 O80 1.283 . S
C91 O83 1.304 . S
C91 O85 1.272 . S
C92 O84 1.311 . S
C92 O86 1.231 . S
O93 Zn75 1.953 . S
O93 C87 1.298 . S
C94 C95 1.349 . S
C94 C96 1.327 . S
C94 H119 0.950 . S
C95 C94 1.349 . S
C95 C111 1.349 . S
C96 C94 1.327 . S
C96 C115 1.429 . S
C96 H120 0.950 . S
C97 C114 1.574 . S
C97 C116 1.368 . S
C97 H121 0.949 . S
H98 C102 0.949 . S
C99 C100 1.349 . S
C99 C101 1.327 . S
C99 H122 0.950 . S
C100 C99 1.349 . S
C100 C112 1.349 . S
C101 C99 1.327 . S
C101 C117 1.429 . S
C101 H123 0.950 . S
C102 H98 0.949 . S
C102 C110 1.574 . S
C102 C118 1.368 . S
H103 C111 0.950 . S
H104 C109 0.950 . S
H105 C110 0.949 . S
H106 C112 0.950 . S
H107 C113 0.950 . S
H108 C114 0.949 . S
C109 H104 0.950 . S
C109 C111 1.327 . S
C109 C115 1.429 . S
C110 C102 1.574 . S
C110 H105 0.949 . S
C110 C116 1.368 . S
C111 C95 1.349 . S
C111 H103 0.950 . S
C111 C109 1.327 . S
C112 C100 1.349 . S
C112 H106 0.950 . S
C112 C113 1.327 . S
C113 H107 0.950 . S
C113 C112 1.327 . S
C113 C117 1.429 . S
C114 C97 1.574 . S
C114 H108 0.949 . S
C114 C118 1.368 . S
C115 C96 1.429 . S
C115 C109 1.429 . S
C115 C116 1.523 . S
C116 C97 1.368 . S
C116 C110 1.368 . S
C116 C115 1.523 . S
C117 C101 1.429 . S
C117 C113 1.429 . S
C117 C118 1.523 . S
C118 C102 1.368 . S
C118 C114 1.368 . S
C118 C117 1.523 . S
H119 C94 0.950 . S
H120 C96 0.950 . S
H121 C97 0.949 . S
H122 C99 0.950 . S
H123 C101 0.950 . S
C124 C125 1.349 1_556 S
C124 C126 1.327 . S
C124 H149 0.950 . S
C125 C124 1.349 1_554 S
C125 C141 1.349 . S
C126 C124 1.327 . S
C126 C145 1.429 1_556 S
C126 H150 0.950 . S
C127 C144 1.574 . S
C127 C146 1.368 . S
C127 H151 0.949 . S
H128 C132 0.949 . S
C129 C130 1.349 . S
C129 C131 1.327 . S
C129 H152 0.950 . S
C130 C129 1.349 . S
C130 C142 1.349 1_554 S
C131 C129 1.327 . S
C131 C147 1.429 . S
C131 H153 0.950 . S
C132 H128 0.949 . S
C132 C140 1.574 . S
C132 C148 1.368 1_556 S
H133 C141 0.950 . S
H134 C139 0.950 . S
H135 C140 0.949 . S
H136 C142 0.950 . S
H137 C143 0.950 . S
H138 C144 0.949 . S
C139 H134 0.950 . S
C139 C141 1.327 . S
C139 C145 1.429 . S
C140 C132 1.574 . S
C140 H135 0.949 . S
C140 C146 1.368 1_556 S
C141 C125 1.349 . S
C141 H133 0.950 . S
C141 C139 1.327 . S
C142 C130 1.349 1_556 S
C142 H136 0.950 . S
C142 C143 1.327 . S
C143 H137 0.950 . S
C143 C142 1.327 . S
C143 C147 1.429 1_556 S
C144 C127 1.574 . S
C144 H138 0.949 . S
C144 C148 1.368 . S
C145 C126 1.429 1_554 S
C145 C139 1.429 . S
C145 C146 1.523 . S
C146 C127 1.368 . S
C146 C140 1.368 1_554 S
C146 C145 1.523 . S
C147 C131 1.429 . S
C147 C143 1.429 1_554 S
C147 C148 1.523 . S
C148 C132 1.368 1_554 S
C148 C144 1.368 . S
C148 C147 1.523 . S
H149 C124 0.950 . S
H150 C126 0.950 . S
H151 C127 0.949 . S
H152 C129 0.950 . S
H153 C131 0.950 . S
C154 C155 1.349 . S
C154 C156 1.327 . S
C154 H179 0.950 . S
C155 C154 1.349 . S
C155 C171 1.349 . S
C156 C154 1.327 . S
C156 C175 1.429 . S
C156 H180 0.950 . S
C157 C174 1.574 . S
C157 C176 1.368 . S
C157 H181 0.949 . S
H158 C162 0.949 . S
C159 C160 1.349 . S
C159 C161 1.327 . S
C159 H182 0.950 . S
C160 C159 1.349 . S
C160 C172 1.349 . S
C161 C159 1.327 . S
C161 C177 1.429 . S
C161 H183 0.950 . S
C162 H158 0.949 . S
C162 C170 1.574 . S
C162 C178 1.368 . S
H163 C171 0.950 . S
H164 C169 0.950 . S
H165 C170 0.949 . S
H166 C172 0.950 . S
H167 C173 0.950 . S
H168 C174 0.949 . S
C169 H164 0.950 . S
C169 C171 1.327 . S
C169 C175 1.429 . S
C170 C162 1.574 . S
C170 H165 0.949 . S
C170 C176 1.368 . S
C171 C155 1.349 . S
C171 H163 0.950 . S
C171 C169 1.327 . S
C172 C160 1.349 . S
C172 H166 0.950 . S
C172 C173 1.327 . S
C173 H167 0.950 . S
C173 C172 1.327 . S
C173 C177 1.429 . S
C174 C157 1.574 . S
C174 H168 0.949 . S
C174 C178 1.368 . S
C175 C156 1.429 . S
C175 C169 1.429 . S
C175 C176 1.523 . S
C176 C157 1.368 . S
C176 C170 1.368 . S
C176 C175 1.523 . S
C177 C161 1.429 . S
C177 C173 1.429 . S
C177 C178 1.523 . S
C178 C162 1.368 . S
C178 C174 1.368 . S
C178 C177 1.523 . S
H179 C154 0.950 . S
H180 C156 0.950 . S
H181 C157 0.949 . S
H182 C159 0.950 . S
H183 C161 0.950 . S
C184 C185 1.349 1_556 S
C184 C186 1.327 . S
C184 H209 0.950 . S
C185 C184 1.349 1_554 S
C185 C201 1.349 . S
C186 C184 1.327 . S
C186 C205 1.429 1_556 S
C186 H210 0.950 . S
C187 C204 1.574 . S
C187 C206 1.368 . S
C187 H211 0.949 . S
H188 C192 0.949 . S
C189 C190 1.349 . S
C189 C191 1.327 . S
C189 H212 0.950 . S
C190 C189 1.349 . S
C190 C202 1.349 1_554 S
C191 C189 1.327 . S
C191 C207 1.429 . S
C191 H213 0.950 . S
C192 H188 0.949 . S
C192 C200 1.574 . S
C192 C208 1.368 1_556 S
H193 C201 0.950 . S
H194 C199 0.950 . S
H195 C200 0.949 . S
H196 C202 0.950 . S
H197 C203 0.950 . S
H198 C204 0.949 . S
C199 H194 0.950 . S
C199 C201 1.327 . S
C199 C205 1.429 . S
C200 C192 1.574 . S
C200 H195 0.949 . S
C200 C206 1.368 1_556 S
C201 C185 1.349 . S
C201 H193 0.950 . S
C201 C199 1.327 . S
C202 C190 1.349 1_556 S
C202 H196 0.950 . S
C202 C203 1.327 . S
C203 H197 0.950 . S
C203 C202 1.327 . S
C203 C207 1.429 1_556 S
C204 C187 1.574 . S
C204 H198 0.949 . S
C204 C208 1.368 . S
C205 C186 1.429 1_554 S
C205 C199 1.429 . S
C205 C206 1.523 . S
C206 C187 1.368 . S
C206 C200 1.368 1_554 S
C206 C205 1.523 . S
C207 C191 1.429 . S
C207 C203 1.429 1_554 S
C207 C208 1.523 . S
C208 C192 1.368 1_554 S
C208 C204 1.368 . S
C208 C207 1.523 . S
H209 C184 0.950 . S
H210 C186 0.950 . S
H211 C187 0.949 . S
H212 C189 0.950 . S
H213 C191 0.950 . S
C214 C215 1.349 . S
C214 C216 1.327 . S
C214 H239 0.950 . S
C215 C214 1.349 . S
C215 C231 1.349 . S
C216 C214 1.327 . S
C216 C235 1.429 . S
C216 H240 0.950 . S
C217 C234 1.574 . S
C217 C236 1.368 . S
C217 H241 0.949 . S
H218 C222 0.949 . S
C219 C220 1.349 . S
C219 C221 1.327 . S
C219 H242 0.950 . S
C220 C219 1.349 . S
C220 C232 1.349 . S
C221 C219 1.327 . S
C221 C237 1.429 . S
C221 H243 0.950 . S
C222 H218 0.949 . S
C222 C230 1.574 . S
C222 C238 1.368 . S
H223 C231 0.950 . S
H224 C229 0.950 . S
H225 C230 0.949 . S
H226 C232 0.950 . S
H227 C233 0.950 . S
H228 C234 0.949 . S
C229 H224 0.950 . S
C229 C231 1.327 . S
C229 C235 1.429 . S
C230 C222 1.574 . S
C230 H225 0.949 . S
C230 C236 1.368 . S
C231 C215 1.349 . S
C231 H223 0.950 . S
C231 C229 1.327 . S
C232 C220 1.349 . S
C232 H226 0.950 . S
C232 C233 1.327 . S
C233 H227 0.950 . S
C233 C232 1.327 . S
C233 C237 1.429 . S
C234 C217 1.574 . S
C234 H228 0.949 . S
C234 C238 1.368 . S
C235 C216 1.429 . S
C235 C229 1.429 . S
C235 C236 1.523 . S
C236 C217 1.368 . S
C236 C230 1.368 . S
C236 C235 1.523 . S
C237 C221 1.429 . S
C237 C233 1.429 . S
C237 C238 1.523 . S
C238 C222 1.368 . S
C238 C234 1.368 . S
C238 C237 1.523 . S
H239 C214 0.950 . S
H240 C216 0.950 . S
H241 C217 0.949 . S
H242 C219 0.950 . S
H243 C221 0.950 . S
C244 C245 1.349 . S
C244 C246 1.327 . S
C244 H269 0.950 . S
C245 C244 1.349 . S
C245 C261 1.349 . S
C246 C244 1.327 . S
C246 C265 1.429 . S
C246 H270 0.950 . S
C247 C264 1.574 . S
C247 C266 1.368 . S
C247 H271 0.949 . S
H248 C252 0.949 . S
C249 C250 1.349 . S
C249 C251 1.327 . S
C249 H272 0.950 . S
C250 C249 1.349 . S
C250 C262 1.349 . S
C251 C249 1.327 . S
C251 C267 1.429 . S
C251 H273 0.950 . S
C252 H248 0.949 . S
C252 C260 1.574 . S
C252 C268 1.368 . S
H253 C261 0.950 . S
H254 C259 0.950 . S
H255 C260 0.949 . S
H256 C262 0.950 . S
H257 C263 0.950 . S
H258 C264 0.949 . S
C259 H254 0.950 . S
C259 C261 1.327 . S
C259 C265 1.429 . S
C260 C252 1.574 . S
C260 H255 0.949 . S
C260 C266 1.368 . S
C261 C245 1.349 . S
C261 H253 0.950 . S
C261 C259 1.327 . S
C262 C250 1.349 . S
C262 H256 0.950 . S
C262 C263 1.327 . S
C263 H257 0.950 . S
C263 C262 1.327 . S
C263 C267 1.429 . S
C264 C247 1.574 . S
C264 H258 0.949 . S
C264 C268 1.368 . S
C265 C246 1.429 . S
C265 C259 1.429 . S
C265 C266 1.523 . S
C266 C247 1.368 . S
C266 C260 1.368 . S
C266 C265 1.523 . S
C267 C251 1.429 . S
C267 C263 1.429 . S
C267 C268 1.523 . S
C268 C252 1.368 . S
C268 C264 1.368 . S
C268 C267 1.523 . S
H269 C244 0.950 . S
H270 C246 0.950 . S
H271 C247 0.949 . S
H272 C249 0.950 . S
H273 C251 0.950 . S
C274 C275 1.349 . S
C274 C276 1.327 . S
C274 H299 0.950 . S
C275 C274 1.349 . S
C275 C291 1.349 . S
C276 C274 1.327 . S
C276 C295 1.429 . S
C276 H300 0.950 . S
C277 C294 1.574 . S
C277 C296 1.368 . S
C277 H301 0.949 . S
H278 C282 0.949 . S
C279 C280 1.349 . S
C279 C281 1.327 . S
C279 H302 0.950 . S
C280 C279 1.349 . S
C280 C292 1.349 . S
C281 C279 1.327 . S
C281 C297 1.429 . S
C281 H303 0.950 . S
C282 H278 0.949 . S
C282 C290 1.574 . S
C282 C298 1.368 . S
H283 C291 0.950 . S
H284 C289 0.950 . S
H285 C290 0.949 . S
H286 C292 0.950 . S
H287 C293 0.950 . S
H288 C294 0.949 . S
C289 H284 0.950 . S
C289 C291 1.327 . S
C289 C295 1.429 . S
C290 C282 1.574 . S
C290 H285 0.949 . S
C290 C296 1.368 . S
C291 C275 1.349 . S
C291 H283 0.950 . S
C291 C289 1.327 . S
C292 C280 1.349 . S
C292 H286 0.950 . S
C292 C293 1.327 . S
C293 H287 0.950 . S
C293 C292 1.327 . S
C293 C297 1.429 . S
C294 C277 1.574 . S
C294 H288 0.949 . S
C294 C298 1.368 . S
C295 C276 1.429 . S
C295 C289 1.429 . S
C295 C296 1.523 . S
C296 C277 1.368 . S
C296 C290 1.368 . S
C296 C295 1.523 . S
C297 C281 1.429 . S
C297 C293 1.429 . S
C297 C298 1.523 . S
C298 C282 1.368 . S
C298 C294 1.368 . S
C298 C297 1.523 . S
H299 C274 0.950 . S
H300 C276 0.950 . S
H301 C277 0.949 . S
H302 C279 0.950 . S
H303 C281 0.950 . S
C304 C305 1.349 . S
C304 C306 1.327 . S
C304 H329 0.950 . S
C305 C304 1.349 . S
C305 C321 1.349 . S
C306 C304 1.327 . S
C306 C325 1.429 . S
C306 H330 0.950 . S
C307 C324 1.574 . S
C307 C326 1.368 . S
C307 H331 0.949 . S
H308 C312 0.949 . S
C309 C310 1.349 . S
C309 C311 1.327 . S
C309 H332 0.950 . S
C310 C309 1.349 . S
C310 C322 1.349 . S
C311 C309 1.327 . S
C311 C327 1.429 . S
C311 H333 0.950 . S
C312 H308 0.949 . S
C312 C320 1.574 . S
C312 C328 1.368 . S
H313 C321 0.950 . S
H314 C319 0.950 . S
H315 C320 0.949 . S
H316 C322 0.950 . S
H317 C323 0.950 . S
H318 C324 0.949 . S
C319 H314 0.950 . S
C319 C321 1.327 . S
C319 C325 1.429 . S
C320 C312 1.574 . S
C320 H315 0.949 . S
C320 C326 1.368 . S
C321 C305 1.349 . S
C321 H313 0.950 . S
C321 C319 1.327 . S
C322 C310 1.349 . S
C322 H316 0.950 . S
C322 C323 1.327 . S
C323 H317 0.950 . S
C323 C322 1.327 . S
C323 C327 1.429 . S
C324 C307 1.574 . S
C324 H318 0.949 . S
C324 C328 1.368 . S
C325 C306 1.429 . S
C325 C319 1.429 . S
C325 C326 1.523 . S
C326 C307 1.368 . S
C326 C320 1.368 . S
C326 C325 1.523 . S
C327 C311 1.429 . S
C327 C323 1.429 . S
C327 C328 1.523 . S
C328 C312 1.368 . S
C328 C324 1.368 . S
C328 C327 1.523 . S
H329 C304 0.950 . S
H330 C306 0.950 . S
H331 C307 0.949 . S
H332 C309 0.950 . S
H333 C311 0.950 . S
C334 C335 1.349 . S
C334 C336 1.327 . S
C334 H359 0.950 . S
C335 C334 1.349 . S
C335 C351 1.349 . S
C336 C334 1.327 . S
C336 C355 1.429 . S
C336 H360 0.950 . S
C337 C354 1.574 . S
C337 C356 1.368 . S
C337 H361 0.949 . S
H338 C342 0.949 . S
C339 C340 1.349 . S
C339 C341 1.327 . S
C339 H362 0.950 . S
C340 C339 1.349 . S
C340 C352 1.349 . S
C341 C339 1.327 . S
C341 C357 1.429 . S
C341 H363 0.950 . S
C342 H338 0.949 . S
C342 C350 1.574 . S
C342 C358 1.368 . S
H343 C351 0.950 . S
H344 C349 0.950 . S
H345 C350 0.949 . S
H346 C352 0.950 . S
H347 C353 0.950 . S
H348 C354 0.949 . S
C349 H344 0.950 . S
C349 C351 1.327 . S
C349 C355 1.429 . S
C350 C342 1.574 . S
C350 H345 0.949 . S
C350 C356 1.368 . S
C351 C335 1.349 . S
C351 H343 0.950 . S
C351 C349 1.327 . S
C352 C340 1.349 . S
C352 H346 0.950 . S
C352 C353 1.327 . S
C353 H347 0.950 . S
C353 C352 1.327 . S
C353 C357 1.429 . S
C354 C337 1.574 . S
C354 H348 0.949 . S
C354 C358 1.368 . S
C355 C336 1.429 . S
C355 C349 1.429 . S
C355 C356 1.523 . S
C356 C337 1.368 . S
C356 C350 1.368 . S
C356 C355 1.523 . S
C357 C341 1.429 . S
C357 C353 1.429 . S
C357 C358 1.523 . S
C358 C342 1.368 . S
C358 C354 1.368 . S
C358 C357 1.523 . S
H359 C334 0.950 . S
H360 C336 0.950 . S
H361 C337 0.949 . S
H362 C339 0.950 . S
H363 C341 0.950 . S
C364 C365 1.349 . S
C364 C366 1.327 . S
C364 H389 0.950 . S
C365 C364 1.349 . S
C365 C381 1.349 . S
C366 C364 1.327 . S
C366 C385 1.429 . S
C366 H390 0.950 . S
C367 C384 1.574 . S
C367 C386 1.368 . S
C367 H391 0.949 . S
H368 C372 0.949 . S
C369 C370 1.349 . S
C369 C371 1.327 . S
C369 H392 0.950 . S
C370 C369 1.349 . S
C370 C382 1.349 . S
C371 C369 1.327 . S
C371 C387 1.429 . S
C371 H393 0.950 . S
C372 H368 0.949 . S
C372 C380 1.574 . S
C372 C388 1.368 . S
H373 C381 0.950 . S
H374 C379 0.950 . S
H375 C380 0.949 . S
H376 C382 0.950 . S
H377 C383 0.950 . S
H378 C384 0.949 . S
C379 H374 0.950 . S
C379 C381 1.327 . S
C379 C385 1.429 . S
C380 C372 1.574 . S
C380 H375 0.949 . S
C380 C386 1.368 . S
C381 C365 1.349 . S
C381 H373 0.950 . S
C381 C379 1.327 . S
C382 C370 1.349 . S
C382 H376 0.950 . S
C382 C383 1.327 . S
C383 H377 0.950 . S
C383 C382 1.327 . S
C383 C387 1.429 . S
C384 C367 1.574 . S
C384 H378 0.949 . S
C384 C388 1.368 . S
C385 C366 1.429 . S
C385 C379 1.429 . S
C385 C386 1.523 . S
C386 C367 1.368 . S
C386 C380 1.368 . S
C386 C385 1.523 . S
C387 C371 1.429 . S
C387 C383 1.429 . S
C387 C388 1.523 . S
C388 C372 1.368 . S
C388 C384 1.368 . S
C388 C387 1.523 . S
H389 C364 0.950 . S
H390 C366 0.950 . S
H391 C367 0.949 . S
H392 C369 0.950 . S
H393 C371 0.950 . S
C394 C395 1.349 . S
C394 C396 1.327 . S
C394 H419 0.950 . S
C395 C394 1.349 . S
C395 C411 1.349 . S
C396 C394 1.327 . S
C396 C415 1.429 . S
C396 H420 0.950 . S
C397 C414 1.574 . S
C397 C416 1.368 . S
C397 H421 0.949 . S
H398 C402 0.949 . S
C399 C400 1.349 . S
C399 C401 1.327 . S
C399 H422 0.950 . S
C400 C399 1.349 . S
C400 C412 1.349 . S
C401 C399 1.327 . S
C401 C417 1.429 . S
C401 H423 0.950 . S
C402 H398 0.949 . S
C402 C410 1.574 . S
C402 C418 1.368 . S
H403 C411 0.950 . S
H404 C409 0.950 . S
H405 C410 0.949 . S
H406 C412 0.950 . S
H407 C413 0.950 . S
H408 C414 0.949 . S
C409 H404 0.950 . S
C409 C411 1.327 . S
C409 C415 1.429 . S
C410 C402 1.574 . S
C410 H405 0.949 . S
C410 C416 1.368 . S
C411 C395 1.349 . S
C411 H403 0.950 . S
C411 C409 1.327 . S
C412 C400 1.349 . S
C412 H406 0.950 . S
C412 C413 1.327 . S
C413 H407 0.950 . S
C413 C412 1.327 . S
C413 C417 1.429 . S
C414 C397 1.574 . S
C414 H408 0.949 . S
C414 C418 1.368 . S
C415 C396 1.429 . S
C415 C409 1.429 . S
C415 C416 1.523 . S
C416 C397 1.368 . S
C416 C410 1.368 . S
C416 C415 1.523 . S
C417 C401 1.429 . S
C417 C413 1.429 . S
C417 C418 1.523 . S
C418 C402 1.368 . S
C418 C414 1.368 . S
C418 C417 1.523 . S
H419 C394 0.950 . S
H420 C396 0.950 . S
H421 C397 0.949 . S
H422 C399 0.950 . S
H423 C401 0.950 . S
C424 C425 1.349 . S
C424 C426 1.327 . S
C424 H449 0.950 . S
C425 C424 1.349 . S
C425 C441 1.349 . S
C426 C424 1.327 . S
C426 C445 1.429 . S
C426 H450 0.950 . S
C427 C444 1.574 . S
C427 C446 1.368 . S
C427 H451 0.949 . S
H428 C432 0.949 . S
C429 C430 1.349 . S
C429 C431 1.327 . S
C429 H452 0.950 . S
C430 C429 1.349 . S
C430 C442 1.349 . S
C431 C429 1.327 . S
C431 C447 1.429 . S
C431 H453 0.950 . S
C432 H428 0.949 . S
C432 C440 1.574 . S
C432 C448 1.368 . S
H433 C441 0.950 . S
H434 C439 0.950 . S
H435 C440 0.949 . S
H436 C442 0.950 . S
H437 C443 0.950 . S
H438 C444 0.949 . S
C439 H434 0.950 . S
C439 C441 1.327 . S
C439 C445 1.429 . S
C440 C432 1.574 . S
C440 H435 0.949 . S
C440 C446 1.368 . S
C441 C425 1.349 . S
C441 H433 0.950 . S
C441 C439 1.327 . S
C442 C430 1.349 . S
C442 H436 0.950 . S
C442 C443 1.327 . S
C443 H437 0.950 . S
C443 C442 1.327 . S
C443 C447 1.429 . S
C444 C427 1.574 . S
C444 H438 0.949 . S
C444 C448 1.368 . S
C445 C426 1.429 . S
C445 C439 1.429 . S
C445 C446 1.523 . S
C446 C427 1.368 . S
C446 C440 1.368 . S
C446 C445 1.523 . S
C447 C431 1.429 . S
C447 C443 1.429 . S
C447 C448 1.523 . S
C448 C432 1.368 . S
C448 C444 1.368 . S
C448 C447 1.523 . S
H449 C424 0.950 . S
H450 C426 0.950 . S
H451 C427 0.949 . S
H452 C429 0.950 . S
H453 C431 0.950 . S
C100 C65 1.484 . S
C95 C40 1.479 . S
C125 C4 1.481 . S
C130 C88 1.486 . S
C155 C16 1.520 . S
C160 C64 1.527 . S
C185 C28 1.520 . S
C190 C87 1.525 . S
C220 C68 1.460 . S
C215 C9 1.478 . S
C250 C90 1.491 . S
C245 C18 1.536 . S
C275 C33 1.496 . S
C280 C69 1.465 . S
C305 C45 1.517 . S
C310 C89 1.482 . S
C340 C92 1.391 . S
C335 C21 1.419 . S
C370 C67 1.420 . S
C365 C30 1.466 . S
C400 C91 1.388 . S
C395 C42 1.419 . S
C425 C6 1.449 . S
C430 C66 1.407 . S
