# Generated by pormake.
# Topology scu, (8,4)-cn, num edge types: 1
# Building blocks:
#     Node 0, Type 0, BuildingBlock: GIZVER_clean_sbu_0, # of connection points: 8
#     Node 1, Type 1, BuildingBlock: IZENUY_clean_linker_0, # of connection points: 4
#     Node 2, Type 1, BuildingBlock: IZENUY_clean_linker_0, # of connection points: 4
#     Edge 3, Type (0, 1), BuildingBlock: FUNLAD_clean_linker_1, # of connection points: 2
#     Edge 4, Type (0, 1), BuildingBlock: FUNLAD_clean_linker_1, # of connection points: 2
#     Edge 5, Type (0, 1), BuildingBlock: FUNLAD_clean_linker_1, # of connection points: 2
#     Edge 6, Type (0, 1), BuildingBlock: FUNLAD_clean_linker_1, # of connection points: 2
#     Edge 7, Type (0, 1), BuildingBlock: FUNLAD_clean_linker_1, # of connection points: 2
#     Edge 8, Type (0, 1), BuildingBlock: FUNLAD_clean_linker_1, # of connection points: 2
#     Edge 9, Type (0, 1), BuildingBlock: FUNLAD_clean_linker_1, # of connection points: 2
#     Edge 10, Type (0, 1), BuildingBlock: FUNLAD_clean_linker_1, # of connection points: 2
# Relax obj value: 0.122
# Max RMSD: 0.249
# Mean RMSD: 0.211
data_MOF--net-scu--node1-GIZVER_clean_sbu_0--node2-IZENUY_clean_linker_0--edge1-FUNLAD_clean_linker_1
_symmetry_space_group_name_H-M    P1
_symmetry_Int_Tables_number       1
_symmetry_cell_setting            triclinic
loop_
_symmetry_equiv_pos_as_xyz
'x, y, z'
_cell_length_a     28.070031
_cell_length_b     28.805309
_cell_length_c     22.268672
_cell_angle_alpha  101.01461
_cell_angle_beta   80.678066
_cell_angle_gamma 107.7317
loop_
_atom_site_label
_atom_site_type_symbol
_atom_site_fract_x
_atom_site_fract_y
_atom_site_fract_z
_atom_type_partial_charge
Co0 Co 0.03674 0.96033 0.12619 0.0
Co1 Co 0.11155 0.03587 0.09888 0.0
Co2 Co 0.02444 0.02598 1.01768 0.0
O3 O 0.06222 0.9915 0.05366 0.0
H4 H 0.07787 0.97111 1.02198 0.0
O5 O 0.98582 0.0607 0.98323 0.0
Co6 Co 1.00963 0.09411 0.91299 0.0
Co7 Co 0.93681 1.01644 0.93773 0.0
H8 H 0.9696 0.08001 1.01572 0.0
O9 O 0.16617 1.01971 0.11717 0.0
O10 O 0.08988 1.01022 0.17219 0.0
O11 O 0.11061 0.10339 0.11494 0.0
O12 O 0.03415 0.08557 0.08536 0.0
O13 O 0.08862 0.05665 0.96751 0.0
O14 O 0.02795 0.129 0.85071 0.0
O15 O 0.97094 0.1364 0.93295 0.0
O16 O 0.05474 0.05543 0.88319 0.0
O17 O 1.0149 0.96657 0.95029 0.0
O18 O 0.93998 0.94959 0.91677 0.0
O19 O 0.95621 0.04511 0.86679 0.0
O20 O 0.88059 0.03197 0.92402 0.0
C21 C 0.05065 0.90482 0.16076 0.0
C22 C 0.95443 0.99738 0.12401 0.0
C23 C 0.0705 0.11462 0.1142 0.0
C24 C 0.13651 1.00933 0.16696 0.0
C25 C 0.99487 0.15056 0.88122 0.0
C26 C 0.09132 0.05378 0.90907 0.0
C27 C 0.97974 0.93826 0.91913 0.0
C28 C 0.90922 0.04504 0.87456 0.0
O29 O 1.01752 0.92684 0.19005 0.0
O30 O 0.07516 0.91808 0.10892 0.0
O31 O 0.96024 0.99415 0.06565 0.0
O32 O 0.99057 0.9996 0.1536 0.0
H33 H 1.01441 0.45131 0.43449 0.0
H34 H 1.02178 0.46485 0.62921 0.0
H35 H 0.98966 0.32191 0.51831 0.0
H36 H 0.04599 0.60478 0.6019 0.0
H37 H 0.0334 0.59003 0.40828 0.0
H38 H 0.06801 0.73346 0.51776 0.0
N39 N 0.02799 0.51668 0.54046 0.0
N40 N 0.02997 0.53884 0.4966 0.0
C41 C 1.01147 0.43459 0.47508 0.0
C42 C 1.00277 0.38325 0.46894 0.0
C43 C 1.01808 0.4644 0.53304 0.0
C44 C 1.01564 0.44208 0.58484 0.0
C45 C 1.00458 0.3906 0.57983 0.0
C46 C 0.99779 0.36155 0.52197 0.0
C47 C 0.0479 0.62124 0.56139 0.0
C48 C 0.05652 0.67256 0.56722 0.0
C49 C 0.0399 0.59111 0.50384 0.0
C50 C 0.04079 0.61307 0.45223 0.0
C51 C 0.05167 0.66449 0.45693 0.0
C52 C 0.06007 0.69386 0.51428 0.0
H53 H 0.59645 0.03166 0.42775 0.0
H54 H 0.59736 0.04233 0.62338 0.0
H55 H 0.73606 0.06305 0.50273 0.0
H56 H 0.45412 1.01903 0.6105 0.0
H57 H 0.44634 1.00494 0.41617 0.0
H58 H 0.3137 1.00217 0.5438 0.0
N59 N 0.5373 0.02753 0.53921 0.0
N60 N 0.50946 1.0198 0.49784 0.0
C61 C 0.61666 0.03803 0.46742 0.0
C62 C 0.66952 0.04863 0.45944 0.0
C63 C 0.5905 0.03646 0.52728 0.0
C64 C 0.61765 0.04442 0.57774 0.0
C65 C 0.67026 0.05463 0.57009 0.0
C66 C 0.69572 0.05695 0.5106 0.0
C67 C 0.43232 1.01318 0.57239 0.0
C68 C 0.38024 1.00784 0.58452 0.0
C69 C 0.4564 1.0121 0.51145 0.0
C70 C 0.42771 1.00517 0.46281 0.0
C71 C 0.37577 0.99998 0.47378 0.0
C72 C 0.35261 1.00204 0.53479 0.0
H73 H 0.09581 0.18242 0.17958 0.0
C74 C 0.06395 0.15954 0.15549 0.0
H75 H 0.9866 0.14609 0.14886 0.0
H76 H 0.94459 0.24068 0.42628 0.0
H77 H 0.89316 0.15595 0.42509 0.0
H78 H 0.89605 0.09441 0.33217 0.0
H79 H 0.94984 0.11715 0.23934 0.0
C80 C 1.01948 0.16993 0.17021 0.0
C81 C 1.01265 0.20876 0.22336 0.0
C82 C 0.98049 0.19485 0.277 0.0
C83 C 0.97957 0.23014 0.33117 0.0
C84 C 0.94735 0.21518 0.3842 0.0
C85 C 0.91748 0.16672 0.38411 0.0
C86 C 0.91902 0.13208 0.33166 0.0
C87 C 0.95009 0.1457 0.27867 0.0
H88 H 0.98472 0.36437 0.37189 0.0
C89 C 0.99955 0.35272 0.40685 0.0
H90 H 0.03265 0.30121 0.42619 0.0
H91 H 0.06979 0.25002 0.12515 0.0
H92 H 0.12172 0.33474 0.12649 0.0
H93 H 0.12481 0.39451 0.22227 0.0
H94 H 0.07535 0.37034 0.31687 0.0
C95 C 1.0165 0.3125 0.3922 0.0
C96 C 1.01106 0.27918 0.33204 0.0
C97 C 0.0411 0.29382 0.27746 0.0
C98 C 0.04103 0.25879 0.22276 0.0
C99 C 0.07 0.2747 0.1684 0.0
C100 C 0.09967 0.32325 0.16846 0.0
C101 C 0.10129 0.35694 0.22235 0.0
C102 C 0.07252 0.3426 0.27636 0.0
H103 H 0.87295 0.98852 0.12966 0.0
C104 C 0.90438 0.99819 0.15686 0.0
H105 H 0.92771 1.02 0.24572 0.0
H106 H 0.70264 0.06391 0.27857 0.0
H107 H 0.73855 0.11934 0.20298 0.0
H108 H 0.82465 0.12702 0.15126 0.0
H109 H 0.87472 0.07849 0.1733 0.0
C110 C 0.89657 1.0109 0.21818 0.0
C111 C 0.84527 1.00902 0.25121 0.0
C112 C 0.81724 0.03936 0.23952 0.0
C113 C 0.76867 0.03721 0.27212 0.0
C114 C 0.74047 0.06576 0.25708 0.0
C115 C 0.76053 0.0975 0.21358 0.0
C116 C 0.80891 0.10166 0.18426 0.0
C117 C 0.83712 0.07314 0.19696 0.0
H118 H 0.73125 0.08392 0.39466 0.0
C119 C 0.69998 0.05087 0.39875 0.0
H120 H 0.67323 0.97522 0.36699 0.0
H121 H 0.88785 0.94499 0.28407 0.0
H122 H 0.8549 0.89492 0.36537 0.0
H123 H 0.7741 0.8963 0.42753 0.0
H124 H 0.7254 0.94699 0.40814 0.0
C125 C 0.70173 1.00953 0.35963 0.0
C126 C 0.74937 1.00719 0.31914 0.0
C127 C 0.77782 0.97754 0.33154 0.0
C128 C 0.82532 0.97797 0.29704 0.0
C129 C 0.85221 0.94714 0.30971 0.0
C130 C 0.83366 0.918 0.35619 0.0
C131 C 0.78813 0.91869 0.39106 0.0
C132 C 0.76041 0.94796 0.37915 0.0
H133 H 0.09399 0.85305 0.16516 0.0
C134 C 0.06324 0.86765 0.18822 0.0
H135 H 1.00986 0.86961 0.26629 0.0
H136 H 0.07555 0.66889 0.28316 0.0
H137 H 0.04601 0.63514 0.18306 0.0
H138 H 1.01809 0.68554 0.12563 0.0
H139 H 1.02107 0.7704 0.16702 0.0
C140 C 0.03935 0.85359 0.24212 0.0
C141 C 0.05603 0.82193 0.2755 0.0
C142 C 0.05129 0.7715 0.25215 0.0
C143 C 0.06415 0.74134 0.28721 0.0
C144 C 0.06317 0.69242 0.26039 0.0
C145 C 0.04684 0.67276 0.20263 0.0
C146 C 0.03135 0.70121 0.17017 0.0
C147 C 0.03347 0.75001 0.19439 0.0
H148 H 1.01582 0.67366 0.38017 0.0
C149 C 0.0495 0.68776 0.40376 0.0
H150 H 0.11925 0.74091 0.41218 0.0
H151 H 0.07806 0.91865 0.32875 0.0
H152 H 0.10848 0.95274 0.42817 0.0
H153 H 0.12276 0.89921 0.49354 0.0
H154 H 0.10794 0.81183 0.45951 0.0
C155 C 0.08559 0.72822 0.38855 0.0
C156 C 0.07815 0.76059 0.34756 0.0
C157 C 0.0847 0.8116 0.36983 0.0
C158 C 0.07449 0.84228 0.3333 0.0
C159 C 0.08366 0.8934 0.35541 0.0
C160 C 0.10136 0.91356 0.41231 0.0
C161 C 0.10957 0.88346 0.44897 0.0
C162 C 0.10109 0.83311 0.4285 0.0
H163 H 0.13043 0.99109 0.26051 0.0
C164 C 0.15578 0.99801 0.21872 0.0
H165 H 0.23014 1.00644 0.17558 0.0
H166 H 0.31265 0.07602 0.43834 0.0
H167 H 0.31806 0.15589 0.41361 0.0
H168 H 0.28148 0.16264 0.32321 0.0
H169 H 0.23869 0.0894 0.25748 0.0
C170 C 0.204 0.99836 0.21641 0.0
C171 C 0.22489 0.99367 0.27145 0.0
C172 C 0.25086 0.03679 0.30851 0.0
C173 C 0.27321 0.03287 0.35955 0.0
C174 C 0.29678 0.07667 0.3975 0.0
C175 C 0.29974 0.12285 0.38418 0.0
C176 C 0.27906 0.12666 0.33338 0.0
C177 C 0.2547 0.08429 0.29596 0.0
H178 H 0.36946 1.01071 0.37977 0.0
C179 C 0.34772 0.99743 0.42129 0.0
H180 H 0.27408 0.9647 0.46172 0.0
H181 H 0.17714 0.90406 0.21015 0.0
H182 H 0.17081 0.82377 0.23519 0.0
H183 H 0.20893 0.81674 0.32417 0.0
H184 H 0.25477 0.88987 0.38777 0.0
C185 C 0.29713 0.98151 0.42321 0.0
C186 C 0.27088 0.98571 0.37225 0.0
C187 C 0.24324 0.94259 0.33653 0.0
C188 C 0.22057 0.94659 0.28571 0.0
C189 C 0.19469 0.903 0.24948 0.0
C190 C 0.1909 0.85675 0.26327 0.0
C191 C 0.2124 0.85279 0.31336 0.0
C192 C 0.23846 0.89506 0.34962 0.0
H193 H 0.95654 0.87055 0.85273 0.0
C194 C 0.98759 0.8939 0.8779 0.0
H195 H 0.06489 0.9093 0.88682 0.0
H196 H 0.98711 0.68375 0.71932 0.0
H197 H 0.93868 0.65841 0.8138 0.0
H198 H 0.93855 0.71831 0.90915 0.0
H199 H 0.98616 0.80435 0.91003 0.0
C200 C 0.03271 0.8848 0.86464 0.0
C201 C 0.04146 0.84674 0.81172 0.0
C202 C 1.01584 0.79612 0.8127 0.0
C203 C 1.01776 0.76116 0.7583 0.0
C204 C 0.98862 0.7116 0.7596 0.0
C205 C 0.9604 0.69655 0.81357 0.0
C206 C 0.9602 0.7303 0.86722 0.0
C207 C 0.98745 0.77957 0.86703 0.0
H208 H 0.07589 0.69233 0.66378 0.0
C209 C 0.06046 0.70353 0.62898 0.0
H210 H 0.026 0.75405 0.60979 0.0
H211 H 0.09776 0.94048 0.7948 0.0
H212 H 0.1519 0.96481 0.70307 0.0
H213 H 0.16019 0.90326 0.61127 0.0
H214 H 0.11343 0.81702 0.61043 0.0
C215 C 0.04284 0.74336 0.64363 0.0
C216 C 0.04734 0.77665 0.70382 0.0
C217 C 0.07636 0.82657 0.70455 0.0
C218 C 0.07284 0.86178 0.75814 0.0
C219 C 0.09987 0.91189 0.756 0.0
C220 C 0.13103 0.92645 0.70349 0.0
C221 C 0.13566 0.89181 0.65182 0.0
C222 C 0.10854 0.84247 0.65193 0.0
H223 H 0.13793 0.0514 0.8202 0.0
C224 C 0.13677 0.0479 0.86826 0.0
H225 H 0.17403 0.02991 0.93217 0.0
H226 H 0.2767 0.91161 0.69776 0.0
H227 H 0.22463 0.84489 0.75212 0.0
H228 H 0.16982 0.86154 0.84722 0.0
H229 H 0.16647 0.94502 0.88841 0.0
C230 C 0.175 0.03639 0.88545 0.0
C231 C 0.21698 0.02813 0.8379 0.0
C232 C 0.22035 0.97963 0.81598 0.0
C233 C 0.25201 0.97009 0.76104 0.0
C234 C 0.25306 0.9209 0.73898 0.0
C235 C 0.22356 0.8823 0.76988 0.0
C236 C 0.19276 0.89168 0.8235 0.0
C237 C 0.19111 0.93972 0.84658 0.0
H238 H 0.38035 0.03263 0.68553 0.0
C239 C 0.35629 1.01322 0.64962 0.0
H240 H 0.28161 0.97452 0.63152 0.0
H241 H 0.22767 0.12611 0.87573 0.0
H242 H 0.27821 0.19334 0.82121 0.0
H243 H 0.32896 0.17694 0.7225 0.0
H244 H 0.33039 0.09395 0.67838 0.0
C245 C 0.3061 0.99752 0.66531 0.0
C246 C 0.28095 1.00922 0.72854 0.0
C247 C 0.28004 0.05836 0.75295 0.0
C248 C 0.2489 0.06776 0.80841 0.0
C249 C 0.24941 0.11703 0.83268 0.0
C250 C 0.27839 0.1559 0.80207 0.0
C251 C 0.3071 0.14667 0.74662 0.0
C252 C 0.30787 0.09862 0.72199 0.0
H253 H 0.95118 0.2026 0.87848 0.0
C254 C 0.98183 0.1881 0.85484 0.0
H255 H 0.03466 0.18627 0.77617 0.0
H256 H 0.93914 0.243 0.58128 0.0
H257 H 0.9204 0.15498 0.55034 0.0
H258 H 0.93143 0.1016 0.6183 0.0
H259 H 0.96246 0.13647 0.7173 0.0
C260 C 1.0053 0.2023 0.80077 0.0
C261 C 0.98854 0.23384 0.76728 0.0
C262 C 0.96965 0.21313 0.70979 0.0
C263 C 0.96142 0.24385 0.67172 0.0
C264 C 0.9446 0.22183 0.61338 0.0
C265 C 0.93387 0.17109 0.59469 0.0
C266 C 0.94026 0.14106 0.6328 0.0
C267 C 0.95832 0.16163 0.68942 0.0
H268 H 0.03762 0.37982 0.65805 0.0
C269 C 1.00438 0.36696 0.63364 0.0
H270 H 0.93326 0.31651 0.62441 0.0
H271 H 1.02305 0.28573 0.87573 0.0
H272 H 0.02955 0.37176 0.91427 0.0
H273 H 1.00569 0.42289 0.85377 0.0
H274 H 0.97667 0.38863 0.75346 0.0
C275 C 0.96635 0.32788 0.64897 0.0
C276 C 0.97059 0.29541 0.69204 0.0
C277 C 0.98435 0.31512 0.75243 0.0
C278 C 0.99501 0.28473 0.78916 0.0
C279 C 1.01252 0.30645 0.84701 0.0
C280 C 1.01658 0.35589 0.86963 0.0
C281 C 1.00336 0.38474 0.83545 0.0
C282 C 0.98731 0.36477 0.7776 0.0
H283 H 0.91269 0.06641 0.78354 0.0
C284 C 0.88831 0.05796 0.82558 0.0
H285 H 0.81444 0.04706 0.87119 0.0
H286 H 0.79032 0.16692 0.65992 0.0
H287 H 0.83742 0.23957 0.723 0.0
H288 H 0.87487 0.23186 0.81217 0.0
H289 H 0.86646 0.15131 0.83797 0.0
C290 C 0.83974 0.05689 0.83028 0.0
C291 C 0.81749 0.06207 0.77678 0.0
C292 C 0.82278 0.10932 0.76237 0.0
C293 C 0.80056 0.11371 0.71147 0.0
C294 C 0.80634 0.16139 0.6981 0.0
C295 C 0.83312 0.20342 0.73407 0.0
C296 C 0.85425 0.19908 0.78427 0.0
C297 C 0.84932 0.15267 0.79844 0.0
H298 H 0.67456 0.04414 0.66478 0.0
C299 C 0.69699 0.05843 0.62416 0.0
H300 H 0.77121 0.09316 0.58688 0.0
H301 H 0.80146 0.9661 0.79172 0.0
H302 H 0.7587 0.89321 0.7255 0.0
H303 H 0.72403 0.90055 0.63391 0.0
H304 H 0.73118 0.98062 0.60863 0.0
C305 C 0.74737 0.07546 0.62425 0.0
C306 C 0.7726 0.07081 0.67573 0.0
C307 C 0.76941 1.02343 0.68853 0.0
C308 C 0.79097 1.01915 0.73995 0.0
C309 C 0.78618 0.97149 0.75281 0.0
C310 C 0.76183 0.92931 0.71512 0.0
C311 C 0.7422 0.93344 0.66367 0.0
C312 C 0.74607 0.97978 0.65011 0.0
loop_
_geom_bond_atom_site_label_1
_geom_bond_atom_site_label_2
_geom_bond_distance
_geom_bond_site_symmetry_2
_ccdc_geom_bond_type
Co0 O3 2.042 . S
Co0 O10 2.258 1_565 S
Co0 O29 2.286 1_455 S
Co0 O30 2.069 . S
Co0 O32 2.015 1_455 S
Co1 O3 2.122 1_545 S
Co1 O9 2.073 . S
Co1 O10 2.339 . S
Co1 O11 1.976 . S
Co2 O3 2.092 1_545 S
Co2 O5 2.082 1_454 S
Co2 O12 2.112 . S
Co2 O13 2.149 1_554 S
Co2 O17 2.111 1_444 S
Co2 O31 2.138 1_445 S
O3 Co0 2.042 . S
O3 Co1 2.122 1_565 S
O3 Co2 2.092 1_565 S
O3 H4 0.980 . S
H4 O3 0.980 . S
O5 Co2 2.082 1_656 S
O5 Co6 2.042 . S
O5 Co7 2.122 1_545 S
O5 H8 0.980 . S
Co6 O5 2.042 . S
Co6 O14 2.286 1_655 S
Co6 O15 2.069 . S
Co6 O16 2.015 1_655 S
Co6 O19 2.261 1_545 S
Co7 O5 2.122 1_565 S
Co7 O18 1.976 . S
Co7 O19 2.334 . S
Co7 O20 2.073 . S
H8 O5 0.980 . S
O9 Co1 2.073 . S
O9 C24 1.245 1_545 S
O10 Co0 2.258 1_545 S
O10 Co1 2.339 . S
O10 C24 1.249 1_545 S
O11 Co1 1.976 . S
O11 C23 1.251 . S
O12 Co2 2.112 . S
O12 C23 1.274 . S
O13 Co2 2.149 1_556 S
O13 C26 1.246 . S
O14 Co6 2.286 1_455 S
O14 C25 1.259 1_455 S
O15 Co6 2.069 . S
O15 C25 1.289 . S
O16 Co6 2.015 1_455 S
O16 C26 1.257 . S
O17 Co2 2.111 1_666 S
O17 C27 1.274 . S
O18 Co7 1.976 . S
O18 C27 1.251 . S
O19 Co6 2.261 1_565 S
O19 Co7 2.334 . S
O19 C28 1.253 1_565 S
O20 Co7 2.073 . S
O20 C28 1.245 1_565 S
C21 O29 1.259 1_455 S
C21 O30 1.289 . S
C22 O31 1.246 . S
C22 O32 1.257 . S
C23 O11 1.251 . S
C23 O12 1.274 . S
C24 O9 1.245 1_565 S
C24 O10 1.249 1_565 S
C25 O14 1.259 1_655 S
C25 O15 1.289 . S
C26 O13 1.246 . S
C26 O16 1.257 . S
C27 O17 1.274 . S
C27 O18 1.251 . S
C28 O19 1.253 1_545 S
C28 O20 1.245 1_545 S
O29 Co0 2.286 1_655 S
O29 C21 1.259 1_655 S
O30 Co0 2.069 . S
O30 C21 1.289 . S
O31 Co2 2.138 1_665 S
O31 C22 1.246 . S
O32 Co0 2.015 1_655 S
O32 C22 1.257 . S
H33 C41 0.940 . S
H34 C44 0.940 . S
H35 C46 0.940 . S
H36 C47 0.940 . S
H37 C50 0.940 . S
H38 C52 0.940 . S
N39 N40 1.190 . S
N39 C43 1.477 . S
N40 N39 1.190 . S
N40 C49 1.477 . S
C41 H33 0.940 . S
C41 C42 1.390 1_455 S
C41 C43 1.322 . S
C42 C41 1.390 1_655 S
C42 C46 1.370 . S
C43 N39 1.477 . S
C43 C41 1.322 . S
C43 C44 1.447 . S
C44 H34 0.940 . S
C44 C43 1.447 . S
C44 C45 1.373 . S
C45 C44 1.373 . S
C45 C46 1.417 1_455 S
C46 H35 0.940 . S
C46 C42 1.370 . S
C46 C45 1.417 1_655 S
C47 H36 0.940 . S
C47 C48 1.390 1_455 S
C47 C49 1.322 . S
C48 C47 1.390 1_655 S
C48 C52 1.370 . S
C49 N40 1.477 . S
C49 C47 1.322 . S
C49 C50 1.447 . S
C50 H37 0.940 . S
C50 C49 1.447 . S
C50 C51 1.373 . S
C51 C50 1.373 . S
C51 C52 1.417 1_455 S
C52 H38 0.940 . S
C52 C48 1.370 . S
C52 C51 1.417 1_655 S
H53 C61 0.940 . S
H54 C64 0.940 . S
H55 C66 0.940 . S
H56 C67 0.940 . S
H57 C70 0.940 . S
H58 C72 0.940 . S
N59 N60 1.190 . S
N59 C63 1.477 . S
N60 N59 1.190 . S
N60 C69 1.477 . S
C61 H53 0.940 . S
C61 C62 1.390 1_545 S
C61 C63 1.322 . S
C62 C61 1.390 1_565 S
C62 C66 1.370 . S
C63 N59 1.477 . S
C63 C61 1.322 . S
C63 C64 1.447 . S
C64 H54 0.940 . S
C64 C63 1.447 . S
C64 C65 1.373 . S
C65 C64 1.373 . S
C65 C66 1.417 1_545 S
C66 H55 0.940 . S
C66 C62 1.370 . S
C66 C65 1.417 1_565 S
C67 H56 0.940 . S
C67 C68 1.390 1_545 S
C67 C69 1.322 . S
C68 C67 1.390 1_565 S
C68 C72 1.370 . S
C69 N60 1.477 . S
C69 C67 1.322 . S
C69 C70 1.447 . S
C70 H57 0.940 . S
C70 C69 1.447 . S
C70 C71 1.373 . S
C71 C70 1.373 . S
C71 C72 1.417 1_545 S
C72 H58 0.940 . S
C72 C68 1.370 . S
C72 C71 1.417 1_565 S
H73 C74 0.951 . S
C74 H73 0.951 . S
C74 C80 1.265 1_455 S
H75 C80 0.950 . S
H76 C84 0.949 . S
H77 C85 0.950 . S
H78 C86 0.951 . S
H79 C87 0.951 . S
C80 C74 1.265 1_655 S
C80 H75 0.950 . S
C80 C81 1.478 . S
C81 C80 1.478 . S
C81 C82 1.397 . S
C81 C98 1.394 1_655 S
C82 C81 1.397 . S
C82 C83 1.438 . S
C82 C87 1.429 . S
C83 C82 1.438 . S
C83 C84 1.428 . S
C83 C96 1.394 1_655 S
C84 H76 0.949 . S
C84 C83 1.428 . S
C84 C85 1.345 . S
C85 H77 0.950 . S
C85 C84 1.345 . S
C85 C86 1.424 . S
C86 H78 0.951 . S
C86 C85 1.424 . S
C86 C87 1.347 . S
C87 H79 0.951 . S
C87 C82 1.429 . S
C87 C86 1.347 . S
H88 C89 0.951 . S
C89 H88 0.951 . S
C89 C95 1.265 1_655 S
H90 C95 0.950 . S
H91 C99 0.949 . S
H92 C100 0.950 . S
H93 C101 0.951 . S
H94 C102 0.951 . S
C95 C89 1.265 1_455 S
C95 H90 0.950 . S
C95 C96 1.478 . S
C96 C83 1.394 1_455 S
C96 C95 1.478 . S
C96 C97 1.397 . S
C97 C96 1.397 . S
C97 C98 1.438 . S
C97 C102 1.429 . S
C98 C81 1.394 1_455 S
C98 C97 1.438 . S
C98 C99 1.428 . S
C99 H91 0.949 . S
C99 C98 1.428 . S
C99 C100 1.345 . S
C100 H92 0.950 . S
C100 C99 1.345 . S
C100 C101 1.424 . S
C101 H93 0.951 . S
C101 C100 1.424 . S
C101 C102 1.347 . S
C102 H94 0.951 . S
C102 C97 1.429 . S
C102 C101 1.347 . S
H103 C104 0.951 . S
C104 H103 0.951 . S
C104 C110 1.265 1_565 S
H105 C110 0.950 . S
H106 C114 0.949 . S
H107 C115 0.950 . S
H108 C116 0.951 . S
H109 C117 0.951 . S
C110 C104 1.265 1_545 S
C110 H105 0.950 . S
C110 C111 1.478 . S
C111 C110 1.478 . S
C111 C112 1.397 . S
C111 C128 1.394 1_545 S
C112 C111 1.397 . S
C112 C113 1.438 . S
C112 C117 1.429 . S
C113 C112 1.438 . S
C113 C114 1.428 . S
C113 C126 1.394 1_545 S
C114 H106 0.949 . S
C114 C113 1.428 . S
C114 C115 1.345 . S
C115 H107 0.950 . S
C115 C114 1.345 . S
C115 C116 1.424 . S
C116 H108 0.951 . S
C116 C115 1.424 . S
C116 C117 1.347 . S
C117 H109 0.951 . S
C117 C112 1.429 . S
C117 C116 1.347 . S
H118 C119 0.951 1_545 S
C119 H118 0.951 1_565 S
C119 C125 1.265 . S
H120 C125 0.950 . S
H121 C129 0.949 . S
H122 C130 0.950 . S
H123 C131 0.951 . S
H124 C132 0.951 . S
C125 C119 1.265 . S
C125 H120 0.950 . S
C125 C126 1.478 . S
C126 C113 1.394 1_565 S
C126 C125 1.478 . S
C126 C127 1.397 . S
C127 C126 1.397 . S
C127 C128 1.438 . S
C127 C132 1.429 . S
C128 C111 1.394 1_565 S
C128 C127 1.438 . S
C128 C129 1.428 . S
C129 H121 0.949 . S
C129 C128 1.428 . S
C129 C130 1.345 . S
C130 H122 0.950 . S
C130 C129 1.345 . S
C130 C131 1.424 . S
C131 H123 0.951 . S
C131 C130 1.424 . S
C131 C132 1.347 . S
C132 H124 0.951 . S
C132 C127 1.429 . S
C132 C131 1.347 . S
H133 C134 0.951 . S
C134 H133 0.951 . S
C134 C140 1.265 . S
H135 C140 0.950 1_655 S
H136 C144 0.949 . S
H137 C145 0.950 . S
H138 C146 0.951 . S
H139 C147 0.951 . S
C140 C134 1.265 . S
C140 H135 0.950 1_455 S
C140 C141 1.478 . S
C141 C140 1.478 . S
C141 C142 1.397 1_455 S
C141 C158 1.394 . S
C142 C141 1.397 1_655 S
C142 C143 1.438 . S
C142 C147 1.429 . S
C143 C142 1.438 . S
C143 C144 1.428 . S
C143 C156 1.394 1_655 S
C144 H136 0.949 . S
C144 C143 1.428 . S
C144 C145 1.345 . S
C145 H137 0.950 . S
C145 C144 1.345 . S
C145 C146 1.424 . S
C146 H138 0.951 . S
C146 C145 1.424 . S
C146 C147 1.347 . S
C147 H139 0.951 . S
C147 C142 1.429 . S
C147 C146 1.347 . S
H148 C149 0.951 1_655 S
C149 H148 0.951 1_455 S
C149 C155 1.265 . S
H150 C155 0.950 . S
H151 C159 0.949 . S
H152 C160 0.950 . S
H153 C161 0.951 . S
H154 C162 0.951 . S
C155 C149 1.265 . S
C155 H150 0.950 . S
C155 C156 1.478 . S
C156 C143 1.394 1_455 S
C156 C155 1.478 . S
C156 C157 1.397 . S
C157 C156 1.397 . S
C157 C158 1.438 . S
C157 C162 1.429 . S
C158 C141 1.394 . S
C158 C157 1.438 . S
C158 C159 1.428 . S
C159 H151 0.949 . S
C159 C158 1.428 . S
C159 C160 1.345 . S
C160 H152 0.950 . S
C160 C159 1.345 . S
C160 C161 1.424 . S
C161 H153 0.951 . S
C161 C160 1.424 . S
C161 C162 1.347 . S
C162 H154 0.951 . S
C162 C157 1.429 . S
C162 C161 1.347 . S
H163 C164 0.951 . S
C164 H163 0.951 . S
C164 C170 1.265 . S
H165 C170 0.950 1_545 S
H166 C174 0.949 . S
H167 C175 0.950 . S
H168 C176 0.951 . S
H169 C177 0.951 . S
C170 C164 1.265 . S
C170 H165 0.950 1_565 S
C170 C171 1.478 . S
C171 C170 1.478 . S
C171 C172 1.397 1_565 S
C171 C188 1.394 . S
C172 C171 1.397 1_545 S
C172 C173 1.438 . S
C172 C177 1.429 . S
C173 C172 1.438 . S
C173 C174 1.428 . S
C173 C186 1.394 1_545 S
C174 H166 0.949 . S
C174 C173 1.428 . S
C174 C175 1.345 . S
C175 H167 0.950 . S
C175 C174 1.345 . S
C175 C176 1.424 . S
C176 H168 0.951 . S
C176 C175 1.424 . S
C176 C177 1.347 . S
C177 H169 0.951 . S
C177 C172 1.429 . S
C177 C176 1.347 . S
H178 C179 0.951 . S
C179 H178 0.951 . S
C179 C185 1.265 1_545 S
H180 C185 0.950 . S
H181 C189 0.949 . S
H182 C190 0.950 . S
H183 C191 0.951 . S
H184 C192 0.951 . S
C185 C179 1.265 1_565 S
C185 H180 0.950 . S
C185 C186 1.478 . S
C186 C173 1.394 1_565 S
C186 C185 1.478 . S
C186 C187 1.397 . S
C187 C186 1.397 . S
C187 C188 1.438 . S
C187 C192 1.429 . S
C188 C171 1.394 . S
C188 C187 1.438 . S
C188 C189 1.428 . S
C189 H181 0.949 . S
C189 C188 1.428 . S
C189 C190 1.345 . S
C190 H182 0.950 . S
C190 C189 1.345 . S
C190 C191 1.424 . S
C191 H183 0.951 . S
C191 C190 1.424 . S
C191 C192 1.347 . S
C192 H184 0.951 . S
C192 C187 1.429 . S
C192 C191 1.347 . S
H193 C194 0.951 . S
C194 H193 0.951 . S
C194 C200 1.265 1_655 S
H195 C200 0.950 . S
H196 C204 0.949 . S
H197 C205 0.950 . S
H198 C206 0.951 . S
H199 C207 0.951 . S
C200 C194 1.265 1_455 S
C200 H195 0.950 . S
C200 C201 1.478 . S
C201 C200 1.478 . S
C201 C202 1.397 1_455 S
C201 C218 1.394 . S
C202 C201 1.397 1_655 S
C202 C203 1.438 . S
C202 C207 1.429 . S
C203 C202 1.438 . S
C203 C204 1.428 . S
C203 C216 1.394 . S
C204 H196 0.949 . S
C204 C203 1.428 . S
C204 C205 1.345 . S
C205 H197 0.950 . S
C205 C204 1.345 . S
C205 C206 1.424 . S
C206 H198 0.951 . S
C206 C205 1.424 . S
C206 C207 1.347 . S
C207 H199 0.951 . S
C207 C202 1.429 . S
C207 C206 1.347 . S
H208 C209 0.953 1_455 S
C209 H208 0.953 1_655 S
C209 C215 1.263 . S
H210 C215 0.950 . S
H211 C219 0.949 . S
H212 C220 0.950 . S
H213 C221 0.951 . S
H214 C222 0.951 . S
C215 C209 1.263 . S
C215 H210 0.950 . S
C215 C216 1.478 . S
C216 C203 1.394 . S
C216 C215 1.478 . S
C216 C217 1.397 1_655 S
C217 C216 1.397 1_455 S
C217 C218 1.438 . S
C217 C222 1.429 . S
C218 C201 1.394 . S
C218 C217 1.438 . S
C218 C219 1.428 . S
C219 H211 0.949 . S
C219 C218 1.428 . S
C219 C220 1.345 . S
C220 H212 0.950 . S
C220 C219 1.345 . S
C220 C221 1.424 . S
C221 H213 0.951 . S
C221 C220 1.424 . S
C221 C222 1.347 . S
C222 H214 0.951 . S
C222 C217 1.429 . S
C222 C221 1.347 . S
H223 C224 0.953 1_565 S
C224 H223 0.953 1_545 S
C224 C230 1.262 . S
H225 C230 0.950 . S
H226 C234 0.949 . S
H227 C235 0.950 . S
H228 C236 0.951 . S
H229 C237 0.951 . S
C230 C224 1.262 . S
C230 H225 0.950 . S
C230 C231 1.478 . S
C231 C230 1.478 . S
C231 C232 1.397 1_545 S
C231 C248 1.394 . S
C232 C231 1.397 1_565 S
C232 C233 1.438 . S
C232 C237 1.429 . S
C233 C232 1.438 . S
C233 C234 1.428 . S
C233 C246 1.394 . S
C234 H226 0.949 . S
C234 C233 1.428 . S
C234 C235 1.345 . S
C235 H227 0.950 . S
C235 C234 1.345 . S
C235 C236 1.424 . S
C236 H228 0.951 . S
C236 C235 1.424 . S
C236 C237 1.347 . S
C237 H229 0.951 . S
C237 C232 1.429 . S
C237 C236 1.347 . S
H238 C239 0.951 1_545 S
C239 H238 0.951 1_565 S
C239 C245 1.265 . S
H240 C245 0.950 . S
H241 C249 0.949 . S
H242 C250 0.950 . S
H243 C251 0.951 . S
H244 C252 0.951 . S
C245 C239 1.265 . S
C245 H240 0.950 . S
C245 C246 1.478 . S
C246 C233 1.394 . S
C246 C245 1.478 . S
C246 C247 1.397 1_565 S
C247 C246 1.397 1_545 S
C247 C248 1.438 . S
C247 C252 1.429 . S
C248 C231 1.394 . S
C248 C247 1.438 . S
C248 C249 1.428 . S
C249 H241 0.949 . S
C249 C248 1.428 . S
C249 C250 1.345 . S
C250 H242 0.950 . S
C250 C249 1.345 . S
C250 C251 1.424 . S
C251 H243 0.951 . S
C251 C250 1.424 . S
C251 C252 1.347 . S
C252 H244 0.951 . S
C252 C247 1.429 . S
C252 C251 1.347 . S
H253 C254 0.951 . S
C254 H253 0.951 . S
C254 C260 1.265 1_655 S
H255 C260 0.950 . S
H256 C264 0.949 . S
H257 C265 0.950 . S
H258 C266 0.951 . S
H259 C267 0.951 . S
C260 C254 1.265 1_455 S
C260 H255 0.950 . S
C260 C261 1.479 . S
C261 C260 1.479 . S
C261 C262 1.398 . S
C261 C278 1.391 1_455 S
C262 C261 1.398 . S
C262 C263 1.438 . S
C262 C267 1.429 . S
C263 C262 1.438 . S
C263 C264 1.428 . S
C263 C276 1.394 1_455 S
C264 H256 0.949 . S
C264 C263 1.428 . S
C264 C265 1.345 . S
C265 H257 0.950 . S
C265 C264 1.345 . S
C265 C266 1.424 . S
C266 H258 0.951 . S
C266 C265 1.424 . S
C266 C267 1.347 . S
C267 H259 0.951 . S
C267 C262 1.429 . S
C267 C266 1.347 . S
H268 C269 0.951 . S
C269 H268 0.951 . S
C269 C275 1.265 1_455 S
H270 C275 0.950 . S
H271 C279 0.949 . S
H272 C280 0.950 . S
H273 C281 0.951 . S
H274 C282 0.951 . S
C275 C269 1.265 1_655 S
C275 H270 0.950 . S
C275 C276 1.478 . S
C276 C263 1.394 1_655 S
C276 C275 1.478 . S
C276 C277 1.397 . S
C277 C276 1.397 . S
C277 C278 1.438 . S
C277 C282 1.429 . S
C278 C261 1.391 1_655 S
C278 C277 1.438 . S
C278 C279 1.428 . S
C279 H271 0.949 . S
C279 C278 1.428 . S
C279 C280 1.345 . S
C280 H272 0.950 . S
C280 C279 1.345 . S
C280 C281 1.424 . S
C281 H273 0.951 . S
C281 C280 1.424 . S
C281 C282 1.347 . S
C282 H274 0.951 . S
C282 C277 1.429 . S
C282 C281 1.347 . S
H283 C284 0.951 . S
C284 H283 0.951 . S
C284 C290 1.265 . S
H285 C290 0.950 . S
H286 C294 0.949 . S
H287 C295 0.950 . S
H288 C296 0.951 . S
H289 C297 0.951 . S
C290 C284 1.265 . S
C290 H285 0.950 . S
C290 C291 1.478 . S
C291 C290 1.478 . S
C291 C292 1.397 . S
C291 C308 1.394 1_545 S
C292 C291 1.397 . S
C292 C293 1.438 . S
C292 C297 1.429 . S
C293 C292 1.438 . S
C293 C294 1.428 . S
C293 C306 1.394 . S
C294 H286 0.949 . S
C294 C293 1.428 . S
C294 C295 1.345 . S
C295 H287 0.950 . S
C295 C294 1.345 . S
C295 C296 1.424 . S
C296 H288 0.951 . S
C296 C295 1.424 . S
C296 C297 1.347 . S
C297 H289 0.951 . S
C297 C292 1.429 . S
C297 C296 1.347 . S
H298 C299 0.951 . S
C299 H298 0.951 . S
C299 C305 1.265 . S
H300 C305 0.950 . S
H301 C309 0.949 . S
H302 C310 0.950 . S
H303 C311 0.951 . S
H304 C312 0.951 . S
C305 C299 1.265 . S
C305 H300 0.950 . S
C305 C306 1.478 . S
C306 C293 1.394 . S
C306 C305 1.478 . S
C306 C307 1.397 1_545 S
C307 C306 1.397 1_565 S
C307 C308 1.438 . S
C307 C312 1.429 . S
C308 C291 1.394 1_565 S
C308 C307 1.438 . S
C308 C309 1.428 . S
C309 H301 0.949 . S
C309 C308 1.428 . S
C309 C310 1.345 . S
C310 H302 0.950 . S
C310 C309 1.345 . S
C310 C311 1.424 . S
C311 H303 0.951 . S
C311 C310 1.424 . S
C311 C312 1.347 . S
C312 H304 0.951 . S
C312 C307 1.429 . S
C312 C311 1.347 . S
C74 C23 1.449 . S
C89 C42 1.580 . S
C104 C22 1.660 . S
C119 C62 1.607 . S
C134 C21 1.960 . S
C149 C51 1.912 . S
C164 C24 1.710 . S
C179 C71 1.774 . S
C194 C27 1.446 . S
C209 C48 1.578 . S
C224 C26 1.624 . S
C239 C68 1.678 . S
C269 C45 1.961 . S
C254 C25 1.956 . S
C284 C28 1.697 . S
C299 C65 1.766 . S
