# Generated by pormake.
# Topology zzz, (3,6)-cn, num edge types: 1
# Building blocks:
#     Node 0, Type 0, BuildingBlock: BETDIP_clean_linker_0, # of connection points: 3
#     Node 1, Type 0, BuildingBlock: BETDIP_clean_linker_0, # of connection points: 3
#     Node 2, Type 0, BuildingBlock: BETDIP_clean_linker_0, # of connection points: 3
#     Node 3, Type 0, BuildingBlock: BETDIP_clean_linker_0, # of connection points: 3
#     Node 4, Type 0, BuildingBlock: BETDIP_clean_linker_0, # of connection points: 3
#     Node 5, Type 0, BuildingBlock: BETDIP_clean_linker_0, # of connection points: 3
#     Node 6, Type 0, BuildingBlock: BETDIP_clean_linker_0, # of connection points: 3
#     Node 7, Type 0, BuildingBlock: BETDIP_clean_linker_0, # of connection points: 3
#     Node 8, Type 1, BuildingBlock: KUMBOL_clean_sbu_1, # of connection points: 6
#     Node 9, Type 1, BuildingBlock: KUMBOL_clean_sbu_1, # of connection points: 6
#     Node 10, Type 1, BuildingBlock: KUMBOL_clean_sbu_1, # of connection points: 6
#     Node 11, Type 1, BuildingBlock: KUMBOL_clean_sbu_1, # of connection points: 6
#     Edge 12, Type (0, 1), BuildingBlock: XUDNAN_clean_linker_2, # of connection points: 2
#     Edge 13, Type (0, 1), BuildingBlock: XUDNAN_clean_linker_2, # of connection points: 2
#     Edge 14, Type (0, 1), BuildingBlock: XUDNAN_clean_linker_2, # of connection points: 2
#     Edge 15, Type (0, 1), BuildingBlock: XUDNAN_clean_linker_2, # of connection points: 2
#     Edge 16, Type (0, 1), BuildingBlock: XUDNAN_clean_linker_2, # of connection points: 2
#     Edge 17, Type (0, 1), BuildingBlock: XUDNAN_clean_linker_2, # of connection points: 2
#     Edge 18, Type (0, 1), BuildingBlock: XUDNAN_clean_linker_2, # of connection points: 2
#     Edge 19, Type (0, 1), BuildingBlock: XUDNAN_clean_linker_2, # of connection points: 2
#     Edge 20, Type (0, 1), BuildingBlock: XUDNAN_clean_linker_2, # of connection points: 2
#     Edge 21, Type (0, 1), BuildingBlock: XUDNAN_clean_linker_2, # of connection points: 2
#     Edge 22, Type (0, 1), BuildingBlock: XUDNAN_clean_linker_2, # of connection points: 2
#     Edge 23, Type (0, 1), BuildingBlock: XUDNAN_clean_linker_2, # of connection points: 2
#     Edge 24, Type (0, 1), BuildingBlock: XUDNAN_clean_linker_2, # of connection points: 2
#     Edge 25, Type (0, 1), BuildingBlock: XUDNAN_clean_linker_2, # of connection points: 2
#     Edge 26, Type (0, 1), BuildingBlock: XUDNAN_clean_linker_2, # of connection points: 2
#     Edge 27, Type (0, 1), BuildingBlock: XUDNAN_clean_linker_2, # of connection points: 2
#     Edge 28, Type (0, 1), BuildingBlock: XUDNAN_clean_linker_2, # of connection points: 2
#     Edge 29, Type (0, 1), BuildingBlock: XUDNAN_clean_linker_2, # of connection points: 2
#     Edge 30, Type (0, 1), BuildingBlock: XUDNAN_clean_linker_2, # of connection points: 2
#     Edge 31, Type (0, 1), BuildingBlock: XUDNAN_clean_linker_2, # of connection points: 2
#     Edge 32, Type (0, 1), BuildingBlock: XUDNAN_clean_linker_2, # of connection points: 2
#     Edge 33, Type (0, 1), BuildingBlock: XUDNAN_clean_linker_2, # of connection points: 2
#     Edge 34, Type (0, 1), BuildingBlock: XUDNAN_clean_linker_2, # of connection points: 2
#     Edge 35, Type (0, 1), BuildingBlock: XUDNAN_clean_linker_2, # of connection points: 2
# Relax obj value: 0.181
# Max RMSD: 0.105
# Mean RMSD: 0.081
data_MOF--net-zzz--node1-KUMBOL_clean_sbu_1--node2-BETDIP_clean_linker_0--edge1-XUDNAN_clean_linker_2
_symmetry_space_group_name_H-M    P1
_symmetry_Int_Tables_number       1
_symmetry_cell_setting            triclinic
loop_
_symmetry_equiv_pos_as_xyz
'x, y, z'
_cell_length_a     50.146057
_cell_length_b     50.232082
_cell_length_c     15.688194
_cell_angle_alpha  90.150425
_cell_angle_beta   90.091897
_cell_angle_gamma 90.419739
loop_
_atom_site_label
_atom_site_type_symbol
_atom_site_fract_x
_atom_site_fract_y
_atom_site_fract_z
_atom_type_partial_charge
H0 H 0.76447 0.52961 0.41802 0.0
H1 H 0.75198 0.577 0.19295 0.0
H2 H 0.82141 0.59004 0.34289 0.0
H3 H 0.70547 0.57685 0.3013 0.0
C4 C 0.70548 0.55792 0.26741 0.0
C5 C 0.77037 0.54591 0.37707 0.0
C6 C 0.795 0.56008 0.39298 0.0
C7 C 0.75331 0.5539 0.30753 0.0
C8 C 0.76271 0.57365 0.25203 0.0
C9 C 0.7888 0.58305 0.25875 0.0
C10 C 0.80183 0.58082 0.33702 0.0
N11 N 0.72811 0.54136 0.28589 0.0
H12 H 0.0309 0.76824 0.39909 0.0
H13 H 0.9894 0.76123 0.16104 0.0
H14 H 0.97237 0.82654 0.32882 0.0
H15 H 0.98078 0.71396 0.26249 0.0
C16 C 1.00094 0.71248 0.23741 0.0
C17 C 1.01579 0.77541 0.35565 0.0
C18 C 1.00333 0.80063 0.37082 0.0
C19 C 1.00833 0.75978 0.28228 0.0
C20 C 0.99168 0.77146 0.22131 0.0
C21 C 0.98076 0.79686 0.23376 0.0
C22 C 0.98327 0.80854 0.3145 0.0
N23 N 0.01882 0.73369 0.2631 0.0
H24 H 0.7915 0.02449 0.43406 0.0
H25 H 0.8042 0.98643 0.19032 0.0
H26 H 0.72691 0.98419 0.30316 0.0
H27 H 0.8446 0.97359 0.296 0.0
C28 C 0.84901 0.99412 0.27858 0.0
C29 C 0.78416 1.01257 0.38134 0.0
C30 C 0.75657 1.00421 0.37933 0.0
C31 C 0.80201 1.00519 0.31323 0.0
C32 C 0.79179 0.99022 0.24556 0.0
C33 C 0.76508 0.98317 0.24169 0.0
C34 C 0.74793 0.98923 0.30913 0.0
N35 N 0.82963 1.01335 0.30657 0.0
H36 H 0.52169 0.78435 0.39315 0.0
H37 H 0.57676 0.80661 0.19632 0.0
H38 H 0.59284 0.73843 0.34346 0.0
H39 H 0.56266 0.85561 0.28866 0.0
C40 C 0.54603 0.84825 0.25067 0.0
C41 C 0.54077 0.78159 0.36233 0.0
C42 C 0.55605 0.75802 0.37874 0.0
C43 C 0.54992 0.80086 0.30105 0.0
C44 C 0.57256 0.79477 0.25248 0.0
C45 C 0.5835 0.76936 0.2573 0.0
C46 C 0.5803 0.7556 0.33384 0.0
N47 N 0.53413 0.82318 0.27467 0.0
H48 H 0.29312 0.51999 0.94941 0.0
H49 H 0.29856 0.472 0.17712 0.0
H50 H 0.2266 0.47285 0.03896 0.0
H51 H 0.34227 0.47199 0.15237 0.0
C52 C 0.34471 0.49338 0.14584 0.0
C53 C 0.28507 0.50499 0.99176 0.0
C54 C 0.25791 0.4956 0.98033 0.0
C55 C 0.3012 0.49511 0.06162 0.0
C56 C 0.28879 0.47706 0.11788 0.0
C57 C 0.26108 0.47498 0.11801 0.0
C58 C 0.24768 0.47799 0.04114 0.0
N59 N 0.32686 0.50662 0.08658 0.0
H60 H 0.07688 0.29331 0.95374 0.0
H61 H 0.02138 0.31204 0.15563 0.0
H62 H 1.01313 0.2392 0.01709 0.0
H63 H 0.07796 0.32997 0.19805 0.0
C64 C 0.06669 0.34277 0.15576 0.0
C65 C 0.05908 0.28856 0.98971 0.0
C66 C 0.04532 0.26362 0.97458 0.0
C67 C 0.04963 0.30699 0.054 0.0
C68 C 0.02768 0.29956 0.10308 0.0
C69 C 1.01464 0.27544 0.08923 0.0
C70 C 0.02264 0.25859 0.02307 0.0
N71 N 0.06123 0.33292 0.07051 0.0
H72 H 0.26441 0.02752 0.97422 0.0
H73 H 0.2437 0.06944 0.20531 0.0
H74 H 0.32258 0.07557 0.11 0.0
H75 H 0.23021 0.02163 0.22547 0.0
C76 C 0.21498 0.02662 0.17887 0.0
C77 C 0.2698 0.04117 0.02495 0.0
C78 C 0.29671 0.05143 0.03054 0.0
C79 C 0.25037 0.04764 0.08928 0.0
C80 C 0.25787 0.06477 0.15542 0.0
C81 C 0.2843 0.07192 0.16772 0.0
C82 C 0.30269 0.06765 0.10176 0.0
N83 N 0.22441 0.03518 0.09615 0.0
H84 H 0.50988 0.26021 0.93619 0.0
H85 H 0.49601 0.25711 0.20583 0.0
H86 H 0.51887 0.33068 0.08952 0.0
H87 H 0.54062 0.2202 0.15526 0.0
C88 C 0.52139 0.21146 0.13898 0.0
C89 C 0.50948 0.27006 0.9976 0.0
C90 C 0.51202 0.29856 1.00286 0.0
C91 C 0.5064 0.25467 0.07453 0.0
C92 C 0.50229 0.2683 0.15095 0.0
C93 C 0.50503 0.2959 0.15608 0.0
C94 C 0.51323 0.30988 0.08393 0.0
N95 N 0.50555 0.22598 0.07778 0.0
C96 C 0.09953 0.05057 0.9005 0.0
C97 C 0.07768 0.06335 0.03196 0.0
C98 C 0.07719 0.04977 0.95296 0.0
C99 C 0.10025 0.07839 0.05543 0.0
C100 C 0.12258 0.06491 0.92537 0.0
C101 C 0.12266 0.07905 1.0025 0.0
N102 N 0.09889 0.03722 0.82537 0.0
C103 C 0.12087 0.03612 0.77424 0.0
C104 C 0.1449 0.06462 0.87185 0.0
C105 C 0.14409 0.04998 0.79622 0.0
Gd106 Gd 1.00219 0.03731 0.65344 0.0
Gd107 Gd 0.05964 1.01424 0.79334 0.0
N108 N 0.05588 0.03432 0.9298 0.0
C109 C 0.056 0.06043 0.08707 0.0
C110 C 0.03655 0.02886 0.98868 0.0
C111 C 0.03564 0.04259 0.06615 0.0
H112 H 0.02275 1.01283 0.97997 0.0
H113 H 0.01977 0.03859 0.11116 0.0
H114 H 0.02575 0.05257 0.45811 0.0
H115 H 0.12072 0.02428 0.71673 0.0
H116 H 1.01621 0.04055 0.3086 0.0
H117 H 0.0556 0.07056 0.14812 0.0
H118 H 0.10086 0.08896 0.11569 0.0
H119 H 0.94537 0.02332 0.7625 0.0
H120 H 0.16296 0.07536 0.88883 0.0
H121 H 0.16138 0.0492 0.75508 0.0
H122 H 0.93685 0.98724 0.32466 0.0
H123 H 0.14012 0.09031 0.02234 0.0
H124 H 0.893 0.98115 0.59478 0.0
H125 H 0.9034 0.99923 0.7379 0.0
N126 N 0.95992 1.01759 0.63664 0.0
C127 C 0.95411 1.00879 0.55654 0.0
C128 C 0.94175 1.01488 0.70071 0.0
C129 C 0.91182 0.99134 0.60567 0.0
C130 C 0.91762 1.00149 0.68653 0.0
C131 C 0.92992 0.99532 0.53905 0.0
H132 H 0.9058 0.97643 0.44093 0.0
N133 N 0.99401 0.02899 0.50848 0.0
C134 C 0.97166 1.01469 0.49064 0.0
C135 C 0.98194 1.01641 0.34006 0.0
C136 C 0.96523 1.00766 0.40589 0.0
C137 C 1.00911 0.03947 0.44409 0.0
C138 C 1.00368 0.03287 0.35917 0.0
O139 O 0.06091 0.05851 0.76149 0.0
O140 O 1.01654 0.0657 0.76046 0.0
O141 O 1.01487 0.0749 0.60266 0.0
O142 O 0.97152 0.06553 0.62517 0.0
O143 O 1.01674 1.00229 0.83467 0.0
O144 O 0.99036 0.03661 0.79162 0.0
O145 O 1.00156 0.99206 0.66027 0.0
O146 O 0.04458 0.98186 0.70204 0.0
O147 O 0.07612 0.98879 0.89125 0.0
O148 O 0.09009 0.98587 0.76085 0.0
O149 O 0.03901 0.02311 0.58051 0.0
O150 O 0.07459 0.03109 0.66753 0.0
C151 C 0.04099 0.07515 0.76952 0.0
C152 C 0.99479 1.01674 0.84312 0.0
C153 C 0.98288 0.10871 0.57378 0.0
C154 C 0.99097 0.14409 0.4768 0.0
C155 C 0.95856 0.1497 0.58965 0.0
C156 C 0.96379 0.12388 0.61685 0.0
C157 C 0.97222 0.15993 0.5195 0.0
C158 C 0.99639 0.1187 0.50394 0.0
C159 C 0.9899 0.0828 0.60266 0.0
C160 C 0.94182 0.99313 0.38911 0.0
C161 C 0.92418 0.98698 0.45542 0.0
H162 H 0.97764 1.01143 0.27415 0.0
C163 C 0.02147 0.97521 0.66738 0.0
C164 C 0.06463 0.02774 0.59094 0.0
C165 C 0.09002 0.94702 0.84005 0.0
C166 C 0.06533 0.90564 0.85665 0.0
C167 C 0.11217 0.90494 0.81761 0.0
C168 C 0.11299 0.93267 0.81986 0.0
C169 C 0.08849 0.89142 0.83608 0.0
C170 C 0.06613 0.93355 0.85759 0.0
C171 C 0.09107 0.97598 0.83721 0.0
H172 H 0.94396 0.16169 0.62252 0.0
H173 H 0.9534 0.11594 0.67178 0.0
H174 H 0.96773 0.17978 0.49706 0.0
H175 H 1.01071 0.10658 0.46958 0.0
H176 H 0.12998 0.8939 0.8023 0.0
H177 H 0.13148 0.94296 0.80517 0.0
H178 H 0.08851 0.86987 0.83675 0.0
H179 H 0.04825 0.94471 0.8722 0.0
C180 C 0.52836 0.94497 0.56396 0.0
C181 C 0.49272 0.91932 0.63032 0.0
C182 C 0.50497 0.94405 0.61177 0.0
C183 C 0.50387 0.89575 0.59879 0.0
C184 C 0.53965 0.92123 0.5328 0.0
C185 C 0.52722 0.8967 0.55009 0.0
N186 N 0.54012 0.96897 0.54827 0.0
C187 C 0.56292 0.97061 0.50083 0.0
C188 C 0.56312 0.9228 0.48489 0.0
C189 C 0.57477 0.94758 0.46885 0.0
Gd190 Gd 0.53551 0.05201 0.77634 0.0
Gd191 Gd 0.51621 1.00612 0.59556 0.0
N192 N 0.49504 0.96711 0.64406 0.0
C193 C 0.46996 0.91893 0.68174 0.0
C194 C 0.47239 0.96676 0.69232 0.0
C195 C 0.45978 0.94277 0.71288 0.0
H196 H 0.46357 0.98469 0.71476 0.0
H197 H 0.44202 0.94273 0.75203 0.0
H198 H 0.58648 0.06997 0.64364 0.0
H199 H 0.57143 0.98965 0.48402 0.0
H200 H 0.60682 0.1109 0.591 0.0
H201 H 0.46012 0.90034 0.69787 0.0
H202 H 0.49471 0.87663 0.61239 0.0
H203 H 0.48302 0.07107 0.89473 0.0
H204 H 0.57229 0.905 0.45948 0.0
H205 H 0.59267 0.94901 0.43063 0.0
H206 H 0.55535 0.18011 0.71907 0.0
H207 H 0.5356 0.8783 0.52644 0.0
H208 H 0.48156 0.1558 0.89573 0.0
H209 H 0.46251 0.11271 0.94204 0.0
N210 N 0.51133 0.08983 0.81389 0.0
C211 C 0.52265 0.11327 0.78935 0.0
C212 C 0.49015 0.08949 0.86856 0.0
C213 C 0.49001 0.13743 0.87202 0.0
C214 C 0.47904 0.11318 0.89777 0.0
C215 C 0.51211 0.13772 0.81761 0.0
H216 H 0.51641 0.18061 0.81371 0.0
N217 N 0.55511 0.08913 0.71015 0.0
C218 C 0.54506 0.11294 0.73639 0.0
C219 C 0.57907 0.13628 0.65619 0.0
C220 C 0.55687 0.13712 0.70994 0.0
C221 C 0.5773 0.08834 0.65996 0.0
C222 C 0.5893 0.11178 0.63111 0.0
O223 O 0.5301 0.98313 0.71388 0.0
O224 O 0.52781 1.01079 0.83134 0.0
O225 O 0.57165 0.06417 0.83994 0.0
O226 O 0.53486 0.06078 0.91179 0.0
O227 O 0.48125 0.02798 0.66057 0.0
O228 O 0.49404 0.03486 0.79908 0.0
O229 O 0.51426 0.07119 0.66134 0.0
O230 O 0.52986 0.04689 0.55022 0.0
O231 O 0.47942 1.0106 0.52878 0.0
O232 O 0.51428 0.99465 0.46092 0.0
O233 O 0.56926 0.02592 0.72131 0.0
O234 O 0.55765 0.02403 0.58134 0.0
C235 C 0.52987 0.98688 0.79743 0.0
C236 C 0.4751 0.03251 0.74139 0.0
C237 C 0.57494 0.05934 0.98853 0.0
C238 C 0.61356 0.03875 0.04979 0.0
C239 C 0.58805 0.06991 0.13338 0.0
C240 C 0.5706 0.07315 0.06485 0.0
C241 C 0.60969 0.05294 0.12572 0.0
C242 C 0.59593 0.04144 0.98195 0.0
C243 C 0.55997 0.06701 0.91355 0.0
C244 C 0.54635 0.16139 0.73824 0.0
C245 C 0.52413 0.16169 0.79204 0.0
H246 H 0.58866 0.15443 0.63457 0.0
C247 C 0.51955 0.06906 0.57908 0.0
C248 C 0.57596 0.02209 0.64074 0.0
C249 C 0.47259 0.99782 0.38305 0.0
C250 C 0.42902 1.003 0.32138 0.0
C251 C 0.4668 0.99421 0.23013 0.0
C252 C 0.48346 0.99364 0.30178 0.0
C253 C 0.43962 0.99938 0.23969 0.0
C254 C 0.4453 1.00141 0.39244 0.0
C255 C 0.48917 1.00071 0.45851 0.0
H256 H 0.5857 0.0813 0.19113 0.0
H257 H 0.55445 0.08724 0.06953 0.0
H258 H 0.62376 0.05137 0.17795 0.0
H259 H 0.59976 0.03113 0.92236 0.0
H260 H 0.475 0.99182 0.16697 0.0
H261 H 0.5047 0.99085 0.29361 0.0
H262 H 0.42711 1.0013 0.18391 0.0
H263 H 0.43678 1.00512 0.45496 0.0
C264 C 0.4583 0.49736 0.85202 0.0
C265 C 0.47452 0.48249 0.99024 0.0
C266 C 0.47808 0.4972 0.91464 0.0
C267 C 0.45094 0.46777 1.00206 0.0
C268 C 0.43444 0.48286 0.8647 0.0
C269 C 0.43101 0.46792 0.93948 0.0
N270 N 0.46182 0.51256 0.78097 0.0
C271 C 0.44152 0.51536 0.72342 0.0
C272 C 0.41432 0.48444 0.8031 0.0
C273 C 0.4178 0.50095 0.73262 0.0
Gd274 Gd 0.55413 0.51782 0.61365 0.0
Gd275 Gd 0.50133 0.53795 0.77995 0.0
N276 N 0.50079 0.51151 0.90175 0.0
C277 C 0.49467 0.48321 0.0522 0.0
C278 C 0.51985 0.5135 0.96379 0.0
C279 C 0.51736 0.49894 0.03911 0.0
H280 H 0.53677 0.52657 0.95573 0.0
H281 H 0.53271 0.50023 0.08758 0.0
H282 H 0.51765 0.51966 0.42875 0.0
H283 H 0.44273 0.5295 0.67212 0.0
H284 H 0.51869 0.54363 0.29373 0.0
H285 H 0.49268 0.4721 0.11098 0.0
H286 H 0.44785 0.45633 0.05971 0.0
H287 H 0.60989 0.53616 0.71721 0.0
H288 H 0.39568 0.47367 0.81074 0.0
H289 H 0.40191 0.50315 0.68644 0.0
H290 H 0.60043 0.59323 0.30377 0.0
H291 H 0.4128 0.45669 0.95011 0.0
H292 H 0.65399 0.58824 0.5556 0.0
H293 H 0.64928 0.56405 0.6918 0.0
N294 N 0.59052 0.54674 0.60137 0.0
C295 C 0.59323 0.55877 0.52423 0.0
C296 C 0.61064 0.54787 0.66006 0.0
C297 C 0.6361 0.57663 0.56763 0.0
C298 C 0.63346 0.56318 0.64482 0.0
C299 C 0.61606 0.57427 0.50579 0.0
H300 H 0.63596 0.59836 0.41057 0.0
N301 N 0.55184 0.5394 0.48086 0.0
C302 C 0.57328 0.55527 0.4629 0.0
C303 C 0.55535 0.56427 0.32273 0.0
C304 C 0.57566 0.56789 0.38291 0.0
C305 C 0.53295 0.53443 0.41978 0.0
C306 C 0.53398 0.54737 0.34115 0.0
O307 O 0.5182 0.49584 0.79391 0.0
O308 O 0.52711 0.48384 0.65676 0.0
O309 O 0.56971 0.49601 0.50584 0.0
O310 O 0.58761 0.49145 0.63058 0.0
O311 O 0.54427 0.55021 0.80501 0.0
O312 O 0.56781 0.51525 0.75365 0.0
O313 O 0.55017 0.56313 0.63529 0.0
O314 O 0.50651 0.56864 0.67487 0.0
O315 O 0.50682 0.56827 0.87574 0.0
O316 O 0.46703 0.55818 0.83218 0.0
O317 O 0.51091 0.5083 0.5723 0.0
O318 O 0.48701 0.54059 0.64184 0.0
C319 C 0.52193 0.47726 0.73618 0.0
C320 C 0.56484 0.53423 0.81088 0.0
C321 C 0.58685 0.45436 0.54226 0.0
C322 C 0.56232 0.41296 0.52664 0.0
C323 C 0.60946 0.41249 0.56274 0.0
C324 C 0.61003 0.44021 0.56155 0.0
C325 C 0.58572 0.39886 0.54567 0.0
C326 C 0.56312 0.44072 0.52321 0.0
C327 C 0.58688 0.48314 0.55199 0.0
C328 C 0.59829 0.58348 0.36494 0.0
C329 C 0.61852 0.58645 0.42584 0.0
H330 H 0.55633 0.57388 0.26105 0.0
C331 C 0.5288 0.57822 0.64243 0.0
C332 C 0.48974 0.52379 0.57782 0.0
C333 C 0.47624 0.6031 0.8637 0.0
C334 C 0.49138 0.64874 0.87571 0.0
C335 C 0.44815 0.63902 0.81362 0.0
C336 C 0.45242 0.61186 0.82584 0.0
C337 C 0.46751 0.65751 0.83903 0.0
C338 C 0.49553 0.62173 0.88882 0.0
C339 C 0.48171 0.57478 0.87566 0.0
H340 H 0.62735 0.40154 0.57777 0.0
H341 H 0.62837 0.45064 0.57745 0.0
H342 H 0.58573 0.3773 0.54643 0.0
H343 H 0.54498 0.45164 0.51019 0.0
H344 H 0.42972 0.64576 0.78521 0.0
H345 H 0.43716 0.59781 0.80573 0.0
H346 H 0.46377 0.67858 0.8313 0.0
H347 H 0.5137 0.61531 0.92013 0.0
C348 C 0.05137 0.45987 0.84625 0.0
C349 C 0.06351 0.47694 0.98633 0.0
C350 C 0.05135 0.48059 0.90597 0.0
C351 C 0.07603 0.45275 1.00508 0.0
C352 C 0.06392 0.43557 0.8653 0.0
C353 C 0.07625 0.43217 0.94481 0.0
N354 N 0.03855 0.46319 0.77053 0.0
C355 C 0.03732 0.4431 0.71178 0.0
C356 C 0.06317 0.41508 0.8046 0.0
C357 C 0.04984 0.41889 0.72752 0.0
Gd358 Gd 0.03894 0.55583 0.6131 0.0
Gd359 Gd 1.01419 0.50236 0.75909 0.0
N360 N 0.03831 0.50362 0.8875 0.0
C361 C 0.06181 0.49727 0.04712 0.0
C362 C 0.03494 0.52252 0.94937 0.0
C363 C 0.04723 0.52004 0.02877 0.0
H364 H 0.02141 0.53873 0.94124 0.0
H365 H 0.04453 0.53523 0.07702 0.0
H366 H 0.02753 0.52095 0.43024 0.0
H367 H 0.02563 0.44509 0.65456 0.0
H368 H 0.99906 0.5238 0.30441 0.0
H369 H 0.07073 0.4951 0.10965 0.0
H370 H 0.08522 0.44958 0.06674 0.0
H371 H 0.03209 0.61415 0.7171 0.0
H372 H 0.07245 0.39608 0.81721 0.0
H373 H 0.04862 0.40295 0.68107 0.0
H374 H 0.95658 0.60833 0.33257 0.0
H375 H 0.08572 0.41352 0.96083 0.0
H376 H 0.97769 0.66198 0.57632 0.0
H377 H 1.00695 0.65561 0.70149 0.0
N378 N 1.01531 0.59586 0.60655 0.0
C379 C 0.99987 0.59918 0.53599 0.0
C380 C 0.01824 0.61593 0.66489 0.0
C381 C 0.98812 0.64333 0.58414 0.0
C382 C 1.0045 0.63979 0.65509 0.0
C383 C 0.98578 0.62303 0.52321 0.0
H384 H 0.95924 0.64429 0.43878 0.0
N385 N 1.01234 0.5559 0.48931 0.0
C386 C 0.99826 0.57865 0.47605 0.0
C387 C 0.98232 0.56145 0.34099 0.0
C388 C 0.98269 0.58186 0.40182 0.0
C389 C 1.01365 0.53701 0.42672 0.0
C390 C 0.99815 0.53909 0.35305 0.0
O391 O 0.05954 0.50237 0.73522 0.0
O392 O 0.06914 0.54634 0.71801 0.0
O393 O 0.06876 0.55488 0.5142 0.0
O394 O 0.06091 0.59163 0.58209 0.0
O395 O 1.00603 0.54591 0.79781 0.0
O396 O 0.04301 0.56805 0.75214 0.0
O397 O 0.99382 0.55505 0.63822 0.0
O398 O 0.98359 0.51122 0.65532 0.0
O399 O 0.98454 0.50301 0.85857 0.0
O400 O 0.99177 0.46661 0.78824 0.0
O401 O 0.04725 0.51247 0.56785 0.0
O402 O 1.01103 0.49024 0.6202 0.0
C403 C 0.07665 0.52234 0.7403 0.0
C404 C 0.02297 0.56608 0.80541 0.0
C405 C 0.10508 0.58091 0.55387 0.0
C406 C 0.1498 0.56903 0.51776 0.0
C407 C 0.14112 0.58961 0.654 0.0
C408 C 0.11403 0.59049 0.63353 0.0
C409 C 0.15914 0.57896 0.59582 0.0
C410 C 0.12304 0.57021 0.49657 0.0
C411 C 0.077 0.5789 0.53239 0.0
C412 C 0.96854 0.60554 0.38938 0.0
C413 C 0.97009 0.62604 0.4498 0.0
H414 H 0.97065 0.5632 0.28312 0.0
C415 C 0.97654 0.53527 0.63228 0.0
C416 C 0.03061 0.49186 0.56476 0.0
C417 C 0.94957 0.47115 0.85064 0.0
C418 C 0.90435 0.48287 0.88761 0.0
C419 C 0.91581 0.43662 0.86344 0.0
C420 C 0.94208 0.4442 0.84726 0.0
C421 C 0.897 0.45582 0.88436 0.0
C422 C 0.9305 0.4905 0.86904 0.0
C423 C 0.97783 0.47814 0.84703 0.0
H424 H 0.1481 0.59702 0.71494 0.0
H425 H 0.1002 0.59823 0.68019 0.0
H426 H 0.18017 0.57834 0.61149 0.0
H427 H 0.11614 0.56251 0.43548 0.0
H428 H 0.91023 0.41577 0.86253 0.0
H429 H 0.95675 0.42894 0.83485 0.0
H430 H 0.87692 0.44953 0.90038 0.0
H431 H 0.93633 0.51126 0.87523 0.0
H432 H 0.20382 0.04472 0.33829 0.0
H433 H 0.1645 1.0176 0.10779 0.0
H434 H 0.1212 1.01639 0.18556 0.0
H435 H 0.17001 1.00659 0.4854 0.0
H436 H 0.16728 0.03179 0.5669 0.0
H437 H 0.19422 0.03325 0.49139 0.0
H438 H 0.18051 0.08088 0.4471 0.0
H439 H 0.15385 0.07974 0.52401 0.0
H440 H 0.14667 0.08697 0.41393 0.0
H441 H 0.08313 1.0115 0.29984 0.0
H442 H 0.05415 1.00989 0.42687 0.0
H443 H 0.11761 0.04474 0.57911 0.0
C444 C 0.18597 0.03912 0.30345 0.0
C445 C 0.18769 0.03122 0.2165 0.0
C446 C 0.16381 0.02397 0.17374 0.0
C447 C 0.13912 0.02304 0.21801 0.0
C448 C 0.13841 0.02994 0.30487 0.0
C449 C 0.16121 0.03868 0.34616 0.0
C450 C 0.15546 0.04503 0.43944 0.0
C451 C 0.17277 0.02815 0.49927 0.0
C452 C 0.15936 0.07493 0.45715 0.0
C453 C 0.12619 0.03723 0.44616 0.0
C454 C 0.11659 0.02863 0.36794 0.0
C455 C 0.09048 0.01895 0.36034 0.0
C456 C 0.07392 0.01836 0.43333 0.0
C457 C 0.08294 0.02793 0.51389 0.0
C458 C 0.10968 0.03739 0.51934 0.0
H459 H 0.52036 0.15582 0.13952 0.0
H460 H 0.50285 0.22429 0.29737 0.0
H461 H 0.49769 0.19523 0.4219 0.0
H462 H 0.47385 0.10814 0.26023 0.0
H463 H 0.49635 0.08064 0.24706 0.0
H464 H 0.49463 0.10622 0.16678 0.0
H465 H 0.54559 0.11517 0.18236 0.0
H466 H 0.54652 0.08875 0.26034 0.0
H467 H 0.55941 0.12142 0.28646 0.0
H468 H 0.49868 0.15919 0.53466 0.0
H469 H 0.50368 0.11944 0.62353 0.0
H470 H 0.5236 0.07289 0.39962 0.0
C471 C 0.51419 0.16453 0.19947 0.0
C472 C 0.51076 0.19262 0.20639 0.0
C473 C 0.50425 0.20307 0.28781 0.0
C474 C 0.50164 0.18657 0.36001 0.0
C475 C 0.50569 0.15923 0.35144 0.0
C476 C 0.51133 0.14813 0.27294 0.0
C477 C 0.5159 0.1182 0.28301 0.0
C478 C 0.49388 0.10236 0.23648 0.0
C479 C 0.54356 0.11043 0.25105 0.0
C480 C 0.51376 0.11454 0.37955 0.0
C481 C 0.50721 0.13848 0.41725 0.0
C482 C 0.50389 0.14042 0.50532 0.0
C483 C 0.50722 0.11755 0.55599 0.0
C484 C 0.51497 0.09275 0.52053 0.0
C485 C 0.51806 0.0914 0.43007 0.0
H486 H 0.37348 0.46762 0.26648 0.0
H487 H 0.36515 0.54629 0.15804 0.0
H488 H 0.40176 0.56265 0.25337 0.0
H489 H 0.38706 0.48854 0.48304 0.0
H490 H 0.41015 0.46191 0.50236 0.0
H491 H 0.38341 0.45738 0.42676 0.0
H492 H 0.41778 0.44499 0.3098 0.0
H493 H 0.44449 0.44956 0.38543 0.0
H494 H 0.44475 0.46775 0.2865 0.0
H495 H 0.44008 0.56996 0.37034 0.0
H496 H 0.47412 0.56714 0.48506 0.0
H497 H 0.45846 0.48271 0.50928 0.0
C498 C 0.3793 0.48837 0.26216 0.0
C499 C 0.36626 0.5055 0.20323 0.0
C500 C 0.37459 0.53257 0.20156 0.0
C501 C 0.3955 0.542 0.25592 0.0
C502 C 0.40804 0.52428 0.31252 0.0
C503 C 0.40002 0.49796 0.31547 0.0
C504 C 0.41626 0.48254 0.38098 0.0
C505 C 0.39814 0.47196 0.45249 0.0
C506 C 0.43173 0.45987 0.33809 0.0
C507 C 0.43511 0.50397 0.41476 0.0
C508 C 0.42994 0.5281 0.37551 0.0
C509 C 0.44411 0.55101 0.40017 0.0
C510 C 0.4635 0.54924 0.46586 0.0
C511 C 0.46941 0.52466 0.50612 0.0
C512 C 0.45496 0.50173 0.47913 0.0
H513 H 0.09517 0.38284 0.23803 0.0
H514 H 1.01452 0.35977 0.17026 0.0
H515 H 0.99712 0.39554 0.26361 0.0
H516 H 0.08618 0.40016 0.45127 0.0
H517 H 0.10701 0.42958 0.45109 0.0
H518 H 0.11309 0.40323 0.37573 0.0
H519 H 0.10929 0.43676 0.25227 0.0
H520 H 0.10253 0.46338 0.32645 0.0
H521 H 0.0795 0.45631 0.2411 0.0
H522 H 0.98847 0.43059 0.38058 0.0
H523 H 0.98886 0.46529 0.49202 0.0
H524 H 0.07505 0.47033 0.47596 0.0
C525 C 0.07383 0.38584 0.24076 0.0
C526 C 0.0563 0.36841 0.19494 0.0
C527 C 0.02852 0.3729 0.20236 0.0
C528 C 0.01842 0.39317 0.25627 0.0
C529 C 0.03623 0.40962 0.30155 0.0
C530 C 0.06342 0.40673 0.29211 0.0
C531 C 0.07824 0.42761 0.34613 0.0
C532 C 0.09725 0.41434 0.40984 0.0
C533 C 0.09331 0.44716 0.28801 0.0
C534 C 0.05528 0.44163 0.39196 0.0
C535 C 0.03122 0.43087 0.36482 0.0
C536 C 1.00724 0.43935 0.40067 0.0
C537 C 1.00769 0.45916 0.46479 0.0
C538 C 0.03185 0.4711 0.49353 0.0
C539 C 0.05607 0.46215 0.45533 0.0
H540 H 0.86571 0.03601 0.1613 0.0
H541 H 0.88761 0.95888 0.26323 0.0
H542 H 0.92552 0.95689 0.16589 0.0
H543 H 0.88387 0.022 0.94155 0.0
H544 H 0.89847 0.05409 0.91899 0.0
H545 H 0.87266 0.0511 0.99831 0.0
H546 H 0.90366 0.07321 0.11016 0.0
H547 H 0.92945 0.07638 0.03078 0.0
H548 H 0.93621 0.05942 0.1295 0.0
H549 H 0.95989 0.9605 0.05492 0.0
H550 H 0.99127 0.97148 0.93954 0.0
H551 H 0.95166 0.04728 0.90452 0.0
C552 C 0.87883 0.01902 0.16423 0.0
C553 C 0.87342 0.9976 0.22197 0.0
C554 C 0.89099 0.97559 0.22095 0.0
C555 C 0.91275 0.97415 0.16526 0.0
C556 C 0.91747 0.99501 0.1092 0.0
C557 C 0.90133 1.01725 0.10803 0.0
C558 C 0.91169 0.03652 0.03931 0.0
C559 C 0.89039 0.0412 0.97048 0.0
C560 C 0.92079 0.06296 0.07986 0.0
C561 C 0.9356 0.02127 1.00257 0.0
C562 C 0.93829 0.99736 0.04439 0.0
C563 C 0.95818 0.97931 0.0221 0.0
C564 C 0.97601 0.98574 0.95599 0.0
C565 C 0.97445 1.01029 0.91206 0.0
C566 C 0.95368 0.02828 0.93621 0.0
H567 H 0.54568 0.90261 0.23655 0.0
H568 H 0.53074 0.83093 0.08961 0.0
H569 H 0.5254 0.85838 0.95904 0.0
H570 H 0.49634 0.94407 0.12214 0.0
H571 H 0.51699 0.97351 0.13213 0.0
H572 H 0.51864 0.94776 0.21174 0.0
H573 H 0.56969 0.94561 0.18696 0.0
H574 H 0.56743 0.97077 0.10572 0.0
H575 H 0.58211 0.93902 0.08122 0.0
H576 H 0.52826 0.89408 0.84102 0.0
H577 H 0.53034 0.93391 0.75157 0.0
H578 H 0.53532 0.9839 0.9762 0.0
C579 C 0.54073 0.89272 0.17712 0.0
C580 C 0.53832 0.86451 0.17391 0.0
C581 C 0.53216 0.85241 0.09451 0.0
C582 C 0.52937 0.86792 0.01973 0.0
C583 C 0.53221 0.89567 0.02516 0.0
C584 C 0.53708 0.90798 0.10243 0.0
C585 C 0.53851 0.93816 0.09159 0.0
C586 C 0.51626 0.95166 0.14245 0.0
C587 C 0.56608 0.94902 0.11795 0.0
C588 C 0.53405 0.9411 0.99589 0.0
C589 C 0.53105 0.91624 0.9587 0.0
C590 C 0.52941 0.91357 0.87041 0.0
C591 C 0.53017 0.93662 0.81944 0.0
C592 C 0.53121 0.96262 0.85521 0.0
C593 C 0.53354 0.96462 0.94561 0.0
H594 H 0.68946 0.51448 0.15208 0.0
H595 H 0.67335 0.59673 0.2205 0.0
H596 H 0.63795 0.59841 0.1144 0.0
H597 H 0.67559 0.5213 0.92128 0.0
H598 H 0.65813 0.49 0.90978 0.0
H599 H 0.68342 0.49389 0.99079 0.0
H600 H 0.64945 0.47946 0.10571 0.0
H601 H 0.6241 0.47559 0.02486 0.0
H602 H 0.61836 0.49701 0.1152 0.0
H603 H 0.60389 0.59321 1.00588 0.0
H604 H 0.5719 0.58088 0.89469 0.0
H605 H 0.60583 0.5016 0.88258 0.0
C606 C 0.67857 0.53283 0.14418 0.0
C607 C 0.68473 0.55562 0.19627 0.0
C608 C 0.66951 0.57897 0.18294 0.0
C609 C 0.64911 0.58023 0.12218 0.0
C610 C 0.64337 0.5579 0.07293 0.0
C611 C 0.65741 0.53449 0.08233 0.0
C612 C 0.64571 0.5136 0.02002 0.0
C613 C 0.66699 0.50414 0.95672 0.0
C614 C 0.63371 0.49001 0.06939 0.0
C615 C 0.62366 0.52936 0.97413 0.0
C616 C 0.62287 0.55479 1.00735 0.0
C617 C 0.60435 0.57335 0.97907 0.0
C618 C 0.58606 0.56604 0.91532 0.0
C619 C 0.58595 0.54027 0.8782 0.0
C620 C 0.60531 0.52159 0.90838 0.0
H621 H 0.0447 0.68116 0.17364 0.0
H622 H 0.96167 0.70048 0.12874 0.0
H623 H 0.95903 0.66622 0.01727 0.0
H624 H 0.06161 0.66617 0.94708 0.0
H625 H 0.08263 0.63831 0.97244 0.0
H626 H 0.07915 0.66531 0.04747 0.0
H627 H 0.06429 0.63178 0.16313 0.0
H628 H 0.06751 0.60476 0.08807 0.0
H629 H 0.03634 0.60992 0.14244 0.0
H630 H 0.9629 0.62754 0.91912 0.0
H631 H 0.97504 0.58964 0.82704 0.0
H632 H 0.05637 0.59429 0.92035 0.0
C633 C 0.02622 0.67863 0.13873 0.0
C634 C 1.00336 0.69412 0.16045 0.0
C635 C 0.97949 0.68931 0.11397 0.0
C636 C 0.97771 0.66967 0.05027 0.0
C637 C 1.00001 0.65438 0.03181 0.0
C638 C 0.02402 0.65868 0.07344 0.0
C639 C 0.04456 0.63855 0.04041 0.0
C640 C 0.06841 0.65295 0.99941 0.0
C641 C 0.05373 0.62017 0.11283 0.0
C642 C 0.02837 0.62287 0.97349 0.0
C643 C 1.00255 0.6322 0.97145 0.0
C644 C 0.98318 0.62032 0.91939 0.0
C645 C 0.99022 0.5986 0.86733 0.0
C646 C 1.01664 0.58891 0.86513 0.0
C647 C 0.03605 0.6014 0.91926 0.0
H648 H 0.03131 0.27045 0.25159 0.0
H649 H 0.9659 0.25031 0.08164 0.0
H650 H 0.96384 0.20527 0.14331 0.0
H651 H 0.06409 0.20894 0.24392 0.0
H652 H 0.07307 0.20828 0.35514 0.0
H653 H 0.06941 0.23968 0.30122 0.0
H654 H 0.03375 0.25555 0.41052 0.0
H655 H 0.03965 0.22529 0.4679 0.0
H656 H 1.00621 0.23367 0.43571 0.0
H657 H 0.97359 0.16178 0.20331 0.0
H658 H 0.97371 0.12995 0.32206 0.0
H659 H 0.03129 0.17875 0.45724 0.0
C660 C 1.01548 0.25716 0.23063 0.0
C661 C 0.99978 0.26293 0.15852 0.0
C662 C 0.97855 0.24565 0.13553 0.0
C663 C 0.9781 0.21974 0.16724 0.0
C664 C 0.99776 0.21279 0.22556 0.0
C665 C 1.01468 0.23141 0.26197 0.0
C666 C 0.03164 0.21954 0.33132 0.0
C667 C 0.0613 0.2191 0.30631 0.0
C668 C 0.02752 0.23436 0.41639 0.0
C669 C 0.0201 0.19174 0.33188 0.0
C670 C 1.00225 0.18776 0.26537 0.0
C671 C 0.98731 0.16454 0.25594 0.0
C672 C 0.98764 0.14655 0.32291 0.0
C673 C 1.00206 0.15294 0.39732 0.0
C674 C 0.02042 0.17401 0.39934 0.0
H675 H 0.32348 0.10449 0.23045 0.0
H676 H 0.26874 0.04182 0.30355 0.0
H677 H 0.30137 0.02406 0.40134 0.0
H678 H 0.36879 0.07298 0.18118 0.0
H679 H 0.39803 0.08946 0.22294 0.0
H680 H 0.36823 0.10799 0.20776 0.0
H681 H 0.36837 0.12186 0.36733 0.0
H682 H 0.39891 0.1036 0.38157 0.0
H683 H 0.3706 0.09676 0.44885 0.0
H684 H 0.34177 0.99958 0.41745 0.0
H685 H 0.3849 0.97825 0.38443 0.0
H686 H 0.4162 0.05353 0.29542 0.0
C687 C 0.318 0.08828 0.27231 0.0
C688 C 0.29439 0.07388 0.25645 0.0
C689 C 0.28699 0.0531 0.31288 0.0
C690 C 0.30566 0.04263 0.36913 0.0
C691 C 0.3312 0.05361 0.36949 0.0
C692 C 0.3371 0.07713 0.32634 0.0
C693 C 0.36697 0.08109 0.31849 0.0
C694 C 0.37595 0.08826 0.22717 0.0
C695 C 0.3768 0.10206 0.38294 0.0
C696 C 0.3761 0.05376 0.34416 0.0
C697 C 0.35558 0.03878 0.37894 0.0
C698 C 0.35821 1.01146 0.39359 0.0
C699 C 0.38231 0.99931 0.37246 0.0
C700 C 0.40286 1.01439 0.3346 0.0
C701 C 0.40008 0.04185 0.32252 0.0
H702 H 0.48809 0.34754 0.16867 0.0
H703 H 0.50718 0.27853 0.32371 0.0
H704 H 0.50197 0.30549 0.45136 0.0
H705 H 0.5388 0.37844 0.25827 0.0
H706 H 0.52575 0.41165 0.24787 0.0
H707 H 0.5149 0.38611 0.17631 0.0
H708 H 0.46595 0.3959 0.21967 0.0
H709 H 0.47743 0.42103 0.29357 0.0
H710 H 0.45624 0.39423 0.3302 0.0
H711 H 0.50931 0.33859 0.55476 0.0
H712 H 0.54097 0.37084 0.61249 0.0
H713 H 0.52927 0.42152 0.39309 0.0
C714 C 0.49123 0.33783 0.22925 0.0
C715 C 0.49844 0.31075 0.23494 0.0
C716 C 0.50109 0.29899 0.31624 0.0
C717 C 0.49806 0.31432 0.38983 0.0
C718 C 0.49374 0.34161 0.38139 0.0
C719 C 0.49125 0.3534 0.30228 0.0
C720 C 0.49767 0.38286 0.30537 0.0
C721 C 0.52063 0.39014 0.2435 0.0
C722 C 0.47281 0.39947 0.28619 0.0
C723 C 0.50607 0.38539 0.39773 0.0
C724 C 0.50162 0.36182 0.44166 0.0
C725 C 0.51239 0.35729 0.52203 0.0
C726 C 0.53051 0.37576 0.5545 0.0
C727 C 0.5375 0.39851 0.50681 0.0
C728 C 0.52365 0.40442 0.4311 0.0
H729 H 0.2205 0.46042 0.22785 0.0
H730 H 0.27218 0.5265 0.15359 0.0
H731 H 0.24624 0.55687 0.23722 0.0
H732 H 0.1594 0.49671 0.23417 0.0
H733 H 0.14698 0.48185 0.3309 0.0
H734 H 0.16896 0.46334 0.26246 0.0
H735 H 0.20187 0.45602 0.38741 0.0
H736 H 0.17949 0.47362 0.45697 0.0
H737 H 0.21376 0.48431 0.44775 0.0
H738 H 0.21607 0.58105 0.32032 0.0
H739 H 0.18524 0.59765 0.42993 0.0
H740 H 0.1529 0.51793 0.46212 0.0
C741 C 0.22656 0.48113 0.2314 0.0
C742 C 0.24859 0.49079 0.1852 0.0
C743 C 0.25583 0.5182 0.18966 0.0
C744 C 0.24091 0.53596 0.23594 0.0
C745 C 0.21905 0.5261 0.27875 0.0
C746 C 0.21215 0.4994 0.27982 0.0
C747 C 0.18867 0.49453 0.33808 0.0
C748 C 0.16457 0.48347 0.28832 0.0
C749 C 0.19642 0.47603 0.41193 0.0
C750 C 0.18401 0.52274 0.36897 0.0
C751 C 0.20155 0.5405 0.33187 0.0
C752 C 0.2023 0.56751 0.35117 0.0
C753 C 0.18512 0.57668 0.41355 0.0
C754 C 0.16788 0.55873 0.45482 0.0
C755 C 0.16659 0.53164 0.43136 0.0
H756 H 0.98383 0.85171 0.22528 0.0
H757 H 0.96484 0.78247 0.06846 0.0
H758 H 0.97628 0.80842 0.94134 0.0
H759 H 0.96478 0.90573 0.06734 0.0
H760 H 0.993 0.92512 0.10388 0.0
H761 H 0.97511 0.90403 0.17727 0.0
H762 H 0.02028 0.87982 0.21511 0.0
H763 H 0.03684 0.90199 0.14369 0.0
H764 H 0.03977 0.86648 0.12977 0.0
H765 H 1.00603 0.83399 0.84639 0.0
H766 H 0.04215 0.86142 0.78501 0.0
H767 H 0.03639 0.91621 0.99737 0.0
C768 C 0.98038 0.84187 0.16509 0.0
C769 C 0.97462 0.81424 0.15886 0.0
C770 C 0.97051 0.80313 0.07659 0.0
C771 C 0.97665 0.81787 1.00338 0.0
C772 C 0.98559 0.84404 0.0133 0.0
C773 C 0.98645 0.85625 0.09213 0.0
C774 C 1.0011 0.88265 0.08907 0.0
C775 C 0.98236 0.90576 0.1106 0.0
C776 C 0.0259 0.88272 0.14777 0.0
C777 C 1.00932 0.88294 0.99678 0.0
C778 C 1.00055 0.86032 0.95415 0.0
C779 C 1.01176 0.85252 0.87684 0.0
C780 C 0.03251 0.86798 0.84305 0.0
C781 C 0.0412 0.89138 0.88508 0.0
C782 C 0.0289 0.89928 0.96143 0.0
H783 H 0.76197 0.02123 0.13001 0.0
H784 H 0.73876 0.93965 0.17559 0.0
H785 H 0.70167 0.94418 0.07376 0.0
H786 H 0.70539 0.03769 0.19185 0.0
H787 H 0.70089 0.06791 0.13213 0.0
H788 H 0.73378 0.05661 0.15491 0.0
H789 H 0.74588 0.05556 0.99468 0.0
H790 H 0.7132 0.06829 0.97077 0.0
H791 H 0.72456 0.03818 0.92006 0.0
H792 H 0.66013 0.96029 0.01912 0.0
H793 H 0.61805 0.98559 0.02444 0.0
H794 H 0.66285 0.05919 0.04671 0.0
C795 C 0.75018 1.00386 0.11257 0.0
C796 C 0.75314 0.98001 0.15771 0.0
C797 C 0.73692 0.9578 0.13901 0.0
C798 C 0.71577 0.96042 0.08162 0.0
C799 C 0.71062 0.98564 0.04809 0.0
C800 C 0.72741 1.00723 0.06392 0.0
C801 C 0.71316 0.03348 0.05408 0.0
C802 C 0.71331 0.0498 0.13815 0.0
C803 C 0.72489 0.04982 0.9804 0.0
C804 C 0.68563 0.02334 0.03334 0.0
C805 C 0.68474 0.99584 0.02656 0.0
C806 C 0.66067 0.98181 0.02154 0.0
C807 C 0.63697 0.99615 0.0256 0.0
C808 C 0.63788 0.02394 0.03676 0.0
C809 C 0.66222 0.03779 0.03779 0.0
H810 H 0.53468 0.75218 0.21824 0.0
H811 H 0.61665 0.74799 0.13186 0.0
H812 H 0.60208 0.7167 0.01612 0.0
H813 H 0.52286 0.68265 0.19233 0.0
H814 H 0.48808 0.68757 0.16858 0.0
H815 H 0.50545 0.71051 0.23777 0.0
H816 H 0.49161 0.74984 0.14039 0.0
H817 H 0.47424 0.72708 0.07091 0.0
H818 H 0.49967 0.74883 0.02841 0.0
H819 H 0.57672 0.68458 0.91309 0.0
H820 H 0.54425 0.65542 0.83596 0.0
H821 H 0.48127 0.68177 1.00387 0.0
C822 C 0.54979 0.74503 0.17502 0.0
C823 C 0.57676 0.75263 0.18305 0.0
C824 C 0.59583 0.74248 0.12563 0.0
C825 C 0.58772 0.72472 0.06054 0.0
C826 C 0.56078 0.71729 0.05634 0.0
C827 C 0.54233 0.72708 0.11323 0.0
C828 C 0.51504 0.71513 0.10198 0.0
C829 C 0.50742 0.69795 0.17971 0.0
C830 C 0.49392 0.73651 0.08431 0.0
C831 C 0.52023 0.69829 0.02511 0.0
C832 C 0.54672 0.69915 1.00008 0.0
C833 C 0.55595 0.68407 0.93163 0.0
C834 C 0.53749 0.66786 0.88804 0.0
C835 C 0.51036 0.66753 0.91285 0.0
C836 C 0.50176 0.68273 0.98206 0.0
H837 H 0.80973 0.53549 0.24189 0.0
H838 H 0.80461 0.61184 0.1149 0.0
H839 H 0.83359 0.59423 0.99804 0.0
H840 H 0.87824 0.52602 0.20007 0.0
H841 H 0.87401 0.49037 0.19392 0.0
H842 H 0.85206 0.50987 0.25948 0.0
H843 H 0.81139 0.48966 0.18098 0.0
H844 H 0.83299 0.47063 0.11318 0.0
H845 H 0.80895 0.49286 0.06678 0.0
H846 H 0.86399 0.56649 0.89817 0.0
H847 H 0.89256 0.53284 0.82706 0.0
H848 H 0.87715 0.47764 0.03356 0.0
C849 C 0.81476 0.54875 0.1899 0.0
C850 C 0.80552 0.57505 0.1871 0.0
C851 C 0.81197 0.59166 0.11763 0.0
C852 C 0.82825 0.5818 0.05168 0.0
C853 C 0.8375 0.55564 0.05808 0.0
C854 C 0.83092 0.5396 0.12616 0.0
C855 C 0.84387 0.51286 0.1232 0.0
C856 C 0.86326 0.50959 0.19851 0.0
C857 C 0.82304 0.49019 0.1208 0.0
C858 C 0.85831 0.51559 0.04035 0.0
C859 C 0.85472 0.54032 1.00333 0.0
C860 C 0.86677 0.54707 0.9264 0.0
C861 C 0.8828 0.52793 0.8866 0.0
C862 C 0.88622 0.50255 0.92414 0.0
C863 C 0.87402 0.49655 1.00206 0.0
H864 H 1.01614 0.23398 0.85643 0.0
H865 H 0.09299 0.23619 0.98249 0.0
H866 H 0.10059 0.18942 0.93813 0.0
H867 H 0.99651 0.17102 0.9196 0.0
H868 H 0.98058 0.16101 0.82129 0.0
H869 H 0.98312 0.19577 0.84863 0.0
H870 H 1.00667 0.20518 0.70564 0.0
H871 H 1.00462 0.17038 0.67764 0.0
H872 H 0.03642 0.18715 0.67835 0.0
H873 H 0.09855 0.14058 0.88538 0.0
H874 H 0.08763 0.09588 0.83319 0.0
H875 H 1.00893 0.12191 0.75906 0.0
C876 C 0.03517 0.22508 0.87146 0.0
C877 C 0.05437 0.23971 0.92135 0.0
C878 C 0.0784 0.22643 0.94195 0.0
C879 C 0.08263 0.19947 0.91804 0.0
C880 C 0.0627 0.18548 0.87309 0.0
C881 C 0.03951 0.19799 0.84916 0.0
C882 C 0.02055 0.17806 0.80529 0.0
C883 C 0.9936 0.17637 0.85152 0.0
C884 C 1.01683 0.18566 0.71117 0.0
C885 C 0.03591 0.15192 0.81267 0.0
C886 C 0.06057 0.15699 0.84944 0.0
C887 C 0.07906 0.13659 0.85832 0.0
C888 C 0.0724 0.11072 0.82963 0.0
C889 C 0.04686 0.10409 0.796 0.0
C890 C 0.0284 0.12551 0.78686 0.0
H891 H 0.35151 0.04762 0.0658 0.0
H892 H 0.29602 0.03873 0.855 0.0
H893 H 0.33464 0.03231 0.75769 0.0
H894 H 0.39863 0.08896 0.9383 0.0
H895 H 0.42668 0.07713 0.99888 0.0
H896 H 0.39444 0.07993 0.04837 0.0
H897 H 0.39701 0.03027 0.09167 0.0
H898 H 0.42892 0.02739 0.04042 0.0
H899 H 0.40198 1.00526 1.01054 0.0
H900 H 0.38235 0.02872 0.68127 0.0
H901 H 0.42997 0.0271 0.63994 0.0
H902 H 0.45253 0.03973 0.9038 0.0
C903 C 0.34687 0.04533 0.99905 0.0
C904 C 0.31983 0.0447 0.96946 0.0
C905 C 0.31601 0.03952 0.88106 0.0
C906 C 0.33806 0.03609 0.82477 0.0
C907 C 0.36426 0.03826 0.85652 0.0
C908 C 0.36849 0.04304 0.94206 0.0
C909 C 0.39818 0.04586 0.96156 0.0
C910 C 0.40487 0.07465 0.9884 0.0
C911 C 0.40703 0.02598 0.03005 0.0
C912 C 0.41046 0.03972 0.87522 0.0
C913 C 0.3907 0.03622 0.81439 0.0
C914 C 0.39766 0.03153 0.72922 0.0
C915 C 0.42503 0.03063 0.70616 0.0
C916 C 0.44576 0.03392 0.76758 0.0
C917 C 0.43785 0.03809 0.85368 0.0
H918 H 0.48083 0.3428 0.98858 0.0
H919 H 0.54552 0.30241 0.86067 0.0
H920 H 0.55424 0.34342 0.77591 0.0
H921 H 0.4573 0.38594 0.81733 0.0
H922 H 0.45254 0.41387 0.88794 0.0
H923 H 0.44919 0.38044 0.92791 0.0
H924 H 0.48411 0.39103 0.04409 0.0
H925 H 0.48834 0.42429 1.00392 0.0
H926 H 0.51675 0.40289 0.01371 0.0
H927 H 0.56137 0.39269 0.72695 0.0
H928 H 0.55905 0.44052 0.69141 0.0
H929 H 0.4893 0.44852 0.84956 0.0
C930 C 0.49626 0.34212 0.94039 0.0
C931 C 0.51226 0.31882 0.93098 0.0
C932 C 0.53262 0.31942 0.86852 0.0
C933 C 0.53798 0.34294 0.82115 0.0
C934 C 0.52305 0.36599 0.83718 0.0
C935 C 0.50226 0.36552 0.89459 0.0
C936 C 0.49041 0.39324 0.9058 0.0
C937 C 0.46059 0.39337 0.88334 0.0
C938 C 0.49518 0.40345 0.99727 0.0
C939 C 0.50676 0.40934 0.84216 0.0
C940 C 0.52602 0.39346 0.8052 0.0
C941 C 0.5452 0.40462 0.75131 0.0
C942 C 0.54362 0.43189 0.73042 0.0
C943 C 0.52313 0.44831 0.76263 0.0
C944 C 0.50488 0.43676 0.82146 0.0
H945 H 0.21819 0.53389 0.99528 0.0
H946 H 0.24825 0.47341 0.82458 0.0
H947 H 0.20567 0.47404 0.74478 0.0
H948 H 0.15268 0.51069 1.00874 0.0
H949 H 0.13642 0.54256 1.0079 0.0
H950 H 0.17012 0.53992 0.04673 0.0
H951 H 0.18578 0.57554 0.93862 0.0
H952 H 0.15203 0.57857 0.90016 0.0
H953 H 0.17857 0.571 0.82687 0.0
H954 H 0.15663 0.47591 0.69722 0.0
H955 H 0.10887 0.48478 0.66954 0.0
H956 H 0.11031 0.54733 0.86002 0.0
C957 C 0.21643 0.52194 0.93796 0.0
C958 C 0.23759 0.5044 0.91432 0.0
C959 C 0.23332 0.48789 0.84207 0.0
C960 C 0.2088 0.48778 0.79715 0.0
C961 C 0.18822 0.50454 0.82381 0.0
C962 C 0.19204 0.52197 0.89111 0.0
C963 C 0.16634 0.53756 0.90758 0.0
C964 C 0.15578 0.53237 0.99811 0.0
C965 C 0.17096 0.56745 0.89243 0.0
C966 C 0.1474 0.52587 0.84033 0.0
C967 C 0.16039 0.50652 0.7936 0.0
C968 C 0.14661 0.49148 0.73227 0.0
C969 C 0.11931 0.49659 0.71707 0.0
C970 C 0.10567 0.51706 0.76105 0.0
C971 C 0.12015 0.53189 0.82375 0.0
H972 H 0.02039 0.85135 0.33768 0.0
H973 H 1.00237 0.79909 0.54897 0.0
H974 H 1.00469 0.83801 0.64765 0.0
H975 H 0.06503 0.8978 0.44163 0.0
H976 H 0.05156 0.92649 0.38837 0.0
H977 H 0.05023 0.89435 0.33739 0.0
H978 H 0.99768 0.89817 0.32309 0.0
H979 H 1.00086 0.93079 0.3698 0.0
H980 H 0.97889 0.90632 0.41641 0.0
H981 H 1.00219 0.88509 0.71874 0.0
H982 H 1.00767 0.93222 0.76421 0.0
H983 H 0.02599 0.95409 0.50406 0.0
C984 C 0.01762 0.84792 0.40512 0.0
C985 C 1.01174 0.82174 0.43525 0.0
C986 C 1.00763 0.81849 0.52399 0.0
C987 C 1.00845 0.84071 0.5803 0.0
C988 C 1.0131 0.86632 0.54729 0.0
C989 C 0.01787 0.86988 0.4615 0.0
C990 C 0.02139 0.89941 0.44078 0.0
C991 C 0.04867 0.90483 0.39959 0.0
C992 C 0.99841 0.90925 0.38408 0.0
C993 C 0.01947 0.91197 0.52883 0.0
C994 C 1.01372 0.89269 0.58906 0.0
C995 C 1.00855 0.89991 0.67343 0.0
C996 C 1.01108 0.92689 0.6982 0.0
C997 C 0.0177 0.94689 0.6383 0.0
C998 C 0.02145 0.93925 0.55195 0.0
H999 H 0.71306 0.03797 0.36554 0.0
H1000 H 0.7489 0.98056 0.53499 0.0
H1001 H 0.7073 0.97924 0.62013 0.0
H1002 H 0.67343 0.07277 0.53961 0.0
H1003 H 0.64597 0.07922 0.4686 0.0
H1004 H 0.67954 0.07793 0.42768 0.0
H1005 H 0.66469 0.04196 0.319 0.0
H1006 H 0.63126 0.04287 0.36034 0.0
H1007 H 0.649 1.0118 0.35663 0.0
H1008 H 0.65976 0.98231 0.68364 0.0
H1009 H 0.61241 0.99022 0.7202 0.0
H1010 H 0.60574 0.04419 0.50651 0.0
C1011 C 0.7126 0.02605 0.42292 0.0
C1012 C 0.73515 1.0102 0.44519 0.0
C1013 C 0.7328 0.99384 0.51838 0.0
C1014 C 0.7089 0.99268 0.56654 0.0
C1015 C 0.68702 1.00808 0.54181 0.0
C1016 C 0.68883 0.02484 0.47229 0.0
C1017 C 0.66218 0.03894 0.45816 0.0
C1018 C 0.66547 0.069 0.47442 0.0
C1019 C 0.65114 0.03354 0.3682 0.0
C1020 C 0.6446 0.02629 0.52698 0.0
C1021 C 0.65957 1.00906 0.576 0.0
C1022 C 0.64806 0.99583 0.64547 0.0
C1023 C 0.621 1.00047 0.66605 0.0
C1024 C 0.60497 1.01773 0.61668 0.0
C1025 C 0.61715 0.03062 0.54544 0.0
H1026 H 0.56591 0.70422 0.34869 0.0
H1027 H 0.52286 0.75556 0.52305 0.0
H1028 H 0.51029 0.71562 0.60794 0.0
H1029 H 0.52515 0.64669 0.35648 0.0
H1030 H 0.55271 0.6239 0.35587 0.0
H1031 H 0.55613 0.65599 0.30624 0.0
H1032 H 0.59743 0.66618 0.39875 0.0
H1033 H 0.59437 0.63455 0.45146 0.0
H1034 H 0.59492 0.66468 0.51334 0.0
H1035 H 0.50216 0.66759 0.67302 0.0
H1036 H 0.5017 0.61993 0.71291 0.0
H1037 H 0.55672 0.60288 0.50911 0.0
C1038 C 0.55446 0.70773 0.4059 0.0
C1039 C 0.54627 0.73392 0.42965 0.0
C1040 C 0.52974 0.73619 0.50271 0.0
C1041 C 0.52258 0.71345 0.55177 0.0
C1042 C 0.5322 0.68831 0.52796 0.0
C1043 C 0.548 0.68559 0.45675 0.0
C1044 C 0.55727 0.657 0.44597 0.0
C1045 C 0.54721 0.6452 0.36112 0.0
C1046 C 0.58781 0.65554 0.45272 0.0
C1047 C 0.54396 0.64357 0.52164 0.0
C1048 C 0.5292 0.66181 0.56768 0.0
C1049 C 0.51404 0.6535 0.63756 0.0
C1050 C 0.51397 0.62625 0.66029 0.0
C1051 C 0.5296 0.60725 0.61603 0.0
C1052 C 0.5449 0.61645 0.54584 0.0
H1053 H 0.8301 0.51627 0.40989 0.0
H1054 H 0.81036 0.59276 0.52057 0.0
H1055 H 0.85415 0.59449 0.59139 0.0
H1056 H 0.86824 0.49412 0.61358 0.0
H1057 H 0.89179 0.47504 0.55248 0.0
H1058 H 0.8579 0.47837 0.51545 0.0
H1059 H 0.87667 0.49473 0.37474 0.0
H1060 H 0.91065 0.49508 0.41042 0.0
H1061 H 0.89602 0.52522 0.37008 0.0
H1062 H 0.90301 0.59243 0.62836 0.0
H1063 H 0.94976 0.58142 0.66096 0.0
H1064 H 0.93831 0.50321 0.54848 0.0
C1065 C 0.83439 0.53267 0.45274 0.0
C1066 C 0.81602 0.55426 0.46034 0.0
C1067 C 0.82336 0.57572 0.51489 0.0
C1068 C 0.84855 0.57709 0.55451 0.0
C1069 C 0.86649 0.55634 0.54265 0.0
C1070 C 0.85942 0.53387 0.49653 0.0
C1071 C 0.88264 0.51404 0.49815 0.0
C1072 C 0.87467 0.4889 0.54785 0.0
C1073 C 0.89204 0.50693 0.40785 0.0
C1074 C 0.90416 0.52973 0.54671 0.0
C1075 C 0.89429 0.55417 0.57119 0.0
C1076 C 0.91062 0.57301 0.61164 0.0
C1077 C 0.93735 0.56658 0.62964 0.0
C1078 C 0.9479 0.54124 0.60923 0.0
C1079 C 0.93086 0.52257 0.56682 0.0
loop_
_geom_bond_atom_site_label_1
_geom_bond_atom_site_label_2
_geom_bond_distance
_geom_bond_site_symmetry_2
_ccdc_geom_bond_type
H0 C5 0.930 . S
H1 C8 0.930 . S
H2 C10 0.930 . S
H3 C4 1.016 . S
C4 H3 1.016 . S
C4 N11 1.286 . S
C5 H0 0.930 . S
C5 C6 1.397 . S
C5 C7 1.361 . S
C6 C5 1.397 . S
C6 C10 1.390 . S
C7 C5 1.361 . S
C7 C8 1.393 . S
C7 N11 1.413 . S
C8 H1 0.930 . S
C8 C7 1.393 . S
C8 C9 1.399 . S
C9 C8 1.399 . S
C9 C10 1.381 . S
C10 H2 0.930 . S
C10 C6 1.390 . S
C10 C9 1.381 . S
N11 C4 1.286 . S
N11 C7 1.413 . S
H12 C17 0.930 . S
H13 C20 0.930 . S
H14 C22 0.930 . S
H15 C16 1.016 . S
C16 H15 1.016 . S
C16 N23 1.286 . S
C17 H12 0.930 . S
C17 C18 1.397 . S
C17 C19 1.361 . S
C18 C17 1.397 . S
C18 C22 1.390 . S
C19 C17 1.361 . S
C19 C20 1.393 . S
C19 N23 1.413 . S
C20 H13 0.930 . S
C20 C19 1.393 . S
C20 C21 1.399 . S
C21 C20 1.399 . S
C21 C22 1.381 . S
C22 H14 0.930 . S
C22 C18 1.390 . S
C22 C21 1.381 . S
N23 C16 1.286 . S
N23 C19 1.413 . S
H24 C29 0.930 . S
H25 C32 0.930 . S
H26 C34 0.930 . S
H27 C28 1.016 . S
C28 H27 1.016 . S
C28 N35 1.286 . S
C29 H24 0.930 . S
C29 C30 1.397 . S
C29 C31 1.361 . S
C30 C29 1.397 . S
C30 C34 1.390 . S
C31 C29 1.361 . S
C31 C32 1.393 . S
C31 N35 1.413 . S
C32 H25 0.930 . S
C32 C31 1.393 . S
C32 C33 1.399 . S
C33 C32 1.399 . S
C33 C34 1.381 . S
C34 H26 0.930 . S
C34 C30 1.390 . S
C34 C33 1.381 . S
N35 C28 1.286 . S
N35 C31 1.413 . S
H36 C41 0.930 . S
H37 C44 0.930 . S
H38 C46 0.930 . S
H39 C40 1.016 . S
C40 H39 1.016 . S
C40 N47 1.286 . S
C41 H36 0.930 . S
C41 C42 1.397 . S
C41 C43 1.361 . S
C42 C41 1.397 . S
C42 C46 1.390 . S
C43 C41 1.361 . S
C43 C44 1.393 . S
C43 N47 1.413 . S
C44 H37 0.930 . S
C44 C43 1.393 . S
C44 C45 1.399 . S
C45 C44 1.399 . S
C45 C46 1.381 . S
C46 H38 0.930 . S
C46 C42 1.390 . S
C46 C45 1.381 . S
N47 C40 1.286 . S
N47 C43 1.413 . S
H48 C53 0.930 . S
H49 C56 0.930 . S
H50 C58 0.930 . S
H51 C52 1.016 . S
C52 H51 1.016 . S
C52 N59 1.286 . S
C53 H48 0.930 . S
C53 C54 1.397 . S
C53 C55 1.361 1_556 S
C54 C53 1.397 . S
C54 C58 1.390 1_556 S
C55 C53 1.361 1_554 S
C55 C56 1.393 . S
C55 N59 1.413 . S
C56 H49 0.930 . S
C56 C55 1.393 . S
C56 C57 1.399 . S
C57 C56 1.399 . S
C57 C58 1.381 . S
C58 H50 0.930 . S
C58 C54 1.390 1_554 S
C58 C57 1.381 . S
N59 C52 1.286 . S
N59 C55 1.413 . S
H60 C65 0.930 . S
H61 C68 0.930 . S
H62 C70 0.930 . S
H63 C64 1.016 . S
C64 H63 1.016 . S
C64 N71 1.286 . S
C65 H60 0.930 . S
C65 C66 1.397 . S
C65 C67 1.361 1_556 S
C66 C65 1.397 . S
C66 C70 1.390 1_556 S
C67 C65 1.361 1_554 S
C67 C68 1.393 . S
C67 N71 1.413 . S
C68 H61 0.930 . S
C68 C67 1.393 . S
C68 C69 1.399 . S
C69 C68 1.399 . S
C69 C70 1.381 . S
C70 H62 0.930 . S
C70 C66 1.390 1_554 S
C70 C69 1.381 . S
N71 C64 1.286 . S
N71 C67 1.413 . S
H72 C77 0.930 . S
H73 C80 0.930 . S
H74 C82 0.930 . S
H75 C76 1.016 . S
C76 H75 1.016 . S
C76 N83 1.286 . S
C77 H72 0.930 . S
C77 C78 1.397 . S
C77 C79 1.361 1_556 S
C78 C77 1.397 . S
C78 C82 1.390 1_556 S
C79 C77 1.361 1_554 S
C79 C80 1.393 . S
C79 N83 1.413 . S
C80 H73 0.930 . S
C80 C79 1.393 . S
C80 C81 1.399 . S
C81 C80 1.399 . S
C81 C82 1.381 . S
C82 H74 0.930 . S
C82 C78 1.390 1_554 S
C82 C81 1.381 . S
N83 C76 1.286 . S
N83 C79 1.413 . S
H84 C89 0.930 . S
H85 C92 0.930 . S
H86 C94 0.930 . S
H87 C88 1.016 . S
C88 H87 1.016 . S
C88 N95 1.286 . S
C89 H84 0.930 . S
C89 C90 1.397 . S
C89 C91 1.361 1_556 S
C90 C89 1.397 . S
C90 C94 1.390 1_556 S
C91 C89 1.361 1_554 S
C91 C92 1.393 . S
C91 N95 1.413 . S
C92 H85 0.930 . S
C92 C91 1.393 . S
C92 C93 1.399 . S
C93 C92 1.399 . S
C93 C94 1.381 . S
C94 H86 0.930 . S
C94 C90 1.390 1_554 S
C94 C93 1.381 . S
N95 C88 1.286 . S
N95 C91 1.413 . S
C96 C98 1.422 . S
C96 C100 1.415 . S
C96 N102 1.369 . S
C97 C98 1.421 1_554 S
C97 C99 1.417 . S
C97 C109 1.422 . S
C98 C96 1.422 . S
C98 C97 1.421 1_556 S
C98 N108 1.359 . S
C99 C97 1.417 . S
C99 C101 1.329 . S
C99 H118 0.930 . S
C100 C96 1.415 . S
C100 C101 1.437 1_556 S
C100 C104 1.413 . S
C101 C99 1.329 . S
C101 C100 1.437 1_554 S
C101 H123 0.929 . S
N102 C96 1.369 . S
N102 C103 1.338 . S
N102 Gd107 2.622 1_545 S
C103 N102 1.338 . S
C103 C105 1.378 . S
C103 H115 0.929 1_545 S
C104 C100 1.413 . S
C104 C105 1.348 . S
C104 H120 0.931 . S
C105 C103 1.378 . S
C105 C104 1.348 . S
C105 H121 0.930 . S
Gd106 N126 2.622 . S
Gd106 N133 2.570 . S
Gd106 O140 2.353 1_655 S
Gd106 O141 2.468 1_655 S
Gd106 O142 2.427 . S
Gd106 O144 2.388 . S
Gd106 O145 2.386 1_545 S
Gd106 O149 2.307 1_655 S
Gd106 C159 2.805 . S
Gd107 N102 2.622 1_565 S
Gd107 N108 2.570 1_565 S
Gd107 O139 2.386 1_565 S
Gd107 O143 2.307 1_465 S
Gd107 O146 2.353 . S
Gd107 O147 2.468 . S
Gd107 O148 2.427 . S
Gd107 O150 2.388 . S
Gd107 C171 2.805 . S
N108 C98 1.359 . S
N108 Gd107 2.570 1_545 S
N108 C110 1.343 . S
C109 C97 1.422 . S
C109 C111 1.321 . S
C109 H117 0.931 . S
C110 N108 1.343 . S
C110 C111 1.390 1_556 S
C110 H112 0.931 1_455 S
C111 C109 1.321 . S
C111 C110 1.390 1_554 S
C111 H113 0.909 1_455 S
H112 C110 0.931 1_655 S
H113 C111 0.909 1_655 S
H114 C137 0.931 . S
H115 C103 0.929 1_565 S
H116 C138 0.930 . S
H117 C109 0.931 . S
H118 C99 0.930 . S
H119 C128 0.929 . S
H120 C104 0.931 . S
H121 C105 0.930 . S
H122 C160 0.930 . S
H123 C101 0.929 . S
H124 C129 0.931 . S
H125 C130 0.930 . S
N126 Gd106 2.622 . S
N126 C127 1.369 . S
N126 C128 1.338 . S
C127 N126 1.369 . S
C127 C131 1.415 1_545 S
C127 C134 1.427 . S
C128 H119 0.929 . S
C128 N126 1.338 . S
C128 C130 1.378 . S
C129 H124 0.931 . S
C129 C130 1.348 1_565 S
C129 C131 1.413 . S
C130 H125 0.930 . S
C130 C128 1.378 . S
C130 C129 1.348 1_545 S
C131 C127 1.415 1_565 S
C131 C129 1.413 . S
C131 C161 1.437 . S
H132 C161 0.929 . S
N133 Gd106 2.570 . S
N133 C134 1.375 . S
N133 C137 1.343 1_655 S
C134 C127 1.427 . S
C134 N133 1.375 . S
C134 C136 1.401 1_545 S
C135 C136 1.422 . S
C135 C138 1.321 1_655 S
C135 H162 0.931 . S
C136 C134 1.401 1_565 S
C136 C135 1.422 . S
C136 C160 1.417 . S
C137 H114 0.931 . S
C137 N133 1.343 1_455 S
C137 C138 1.390 1_545 S
C138 H116 0.930 . S
C138 C135 1.321 1_455 S
C138 C137 1.390 1_565 S
O139 Gd107 2.386 1_545 S
O139 C151 1.265 . S
O140 Gd106 2.353 1_455 S
O140 C151 1.242 . S
O141 Gd106 2.468 1_455 S
O141 C159 1.263 1_455 S
O142 Gd106 2.427 . S
O142 C159 1.252 . S
O143 Gd107 2.307 1_645 S
O143 C152 1.261 . S
O144 Gd106 2.388 . S
O144 C152 1.252 . S
O145 Gd106 2.386 1_565 S
O145 C163 1.265 . S
O146 Gd107 2.353 . S
O146 C163 1.242 1_455 S
O147 Gd107 2.468 . S
O147 C171 1.263 . S
O148 Gd107 2.427 . S
O148 C171 1.252 . S
O149 Gd106 2.307 1_455 S
O149 C164 1.261 . S
O150 Gd107 2.388 . S
O150 C164 1.252 1_565 S
C151 O139 1.265 . S
C151 O140 1.242 . S
C152 O143 1.261 . S
C152 O144 1.252 . S
C153 C156 1.394 . S
C153 C158 1.370 . S
C153 C159 1.500 . S
C154 C157 1.383 . S
C154 C158 1.395 . S
C155 C156 1.396 . S
C155 C157 1.365 . S
C155 H172 0.929 . S
C156 C153 1.394 . S
C156 C155 1.396 . S
C156 H173 0.930 . S
C157 C154 1.383 . S
C157 C155 1.365 . S
C157 H174 0.931 . S
C158 C153 1.370 . S
C158 C154 1.395 . S
C158 H175 0.930 1_655 S
C159 Gd106 2.805 . S
C159 O141 1.263 1_655 S
C159 O142 1.252 . S
C159 C153 1.500 . S
C160 H122 0.930 . S
C160 C136 1.417 . S
C160 C161 1.329 . S
C161 C131 1.437 . S
C161 H132 0.929 . S
C161 C160 1.329 . S
H162 C135 0.931 . S
C163 O145 1.265 . S
C163 O146 1.242 1_655 S
C164 O149 1.261 . S
C164 O150 1.252 1_545 S
C165 C168 1.394 . S
C165 C170 1.370 . S
C165 C171 1.500 . S
C166 C169 1.383 . S
C166 C170 1.395 . S
C167 C168 1.396 . S
C167 C169 1.365 . S
C167 H176 0.929 . S
C168 C165 1.394 . S
C168 C167 1.396 . S
C168 H177 0.930 . S
C169 C166 1.383 . S
C169 C167 1.365 . S
C169 H178 0.931 1_556 S
C170 C165 1.370 . S
C170 C166 1.395 . S
C170 H179 0.930 . S
C171 Gd107 2.805 . S
C171 O147 1.263 . S
C171 O148 1.252 . S
C171 C165 1.500 . S
H172 C155 0.929 . S
H173 C156 0.930 . S
H174 C157 0.931 . S
H175 C158 0.930 1_455 S
H176 C167 0.929 . S
H177 C168 0.930 . S
H178 C169 0.931 1_554 S
H179 C170 0.930 . S
C180 C182 1.422 . S
C180 C184 1.415 . S
C180 N186 1.369 . S
C181 C182 1.421 . S
C181 C183 1.417 . S
C181 C193 1.422 . S
C182 C180 1.422 . S
C182 C181 1.421 . S
C182 N192 1.359 . S
C183 C181 1.417 . S
C183 C185 1.329 . S
C183 H202 0.930 . S
C184 C180 1.415 . S
C184 C185 1.437 . S
C184 C188 1.413 . S
C185 C183 1.329 . S
C185 C184 1.437 . S
C185 H207 0.929 . S
N186 C180 1.369 . S
N186 C187 1.338 . S
N186 Gd191 2.622 . S
C187 N186 1.338 . S
C187 C189 1.378 . S
C187 H199 0.929 . S
C188 C184 1.413 . S
C188 C189 1.348 . S
C188 H204 0.931 . S
C189 C187 1.378 . S
C189 C188 1.348 . S
C189 H205 0.930 . S
Gd190 N210 2.622 . S
Gd190 N217 2.570 . S
Gd190 O224 2.353 1_545 S
Gd190 O225 2.468 . S
Gd190 O226 2.427 . S
Gd190 O228 2.388 . S
Gd190 O229 2.386 . S
Gd190 O233 2.307 . S
Gd190 C243 2.805 . S
Gd191 N186 2.622 . S
Gd191 N192 2.570 . S
Gd191 O223 2.386 . S
Gd191 O227 2.307 1_565 S
Gd191 O230 2.353 1_565 S
Gd191 O231 2.468 . S
Gd191 O232 2.427 . S
Gd191 O234 2.388 . S
Gd191 C255 2.805 . S
N192 C182 1.359 . S
N192 Gd191 2.570 . S
N192 C194 1.343 . S
C193 C181 1.422 . S
C193 C195 1.321 . S
C193 H201 0.931 . S
C194 N192 1.343 . S
C194 C195 1.390 . S
C194 H196 0.931 . S
C195 C193 1.321 . S
C195 C194 1.390 . S
C195 H197 0.930 . S
H196 C194 0.931 . S
H197 C195 0.930 . S
H198 C221 0.931 . S
H199 C187 0.929 . S
H200 C222 0.930 . S
H201 C193 0.931 . S
H202 C183 0.930 . S
H203 C212 0.929 . S
H204 C188 0.931 . S
H205 C189 0.930 . S
H206 C244 0.930 . S
H207 C185 0.929 . S
H208 C213 0.931 . S
H209 C214 0.930 . S
N210 Gd190 2.622 . S
N210 C211 1.369 . S
N210 C212 1.338 . S
C211 N210 1.369 . S
C211 C215 1.415 . S
C211 C218 1.422 . S
C212 H203 0.929 . S
C212 N210 1.338 . S
C212 C214 1.378 . S
C213 H208 0.931 . S
C213 C214 1.348 . S
C213 C215 1.413 . S
C214 H209 0.930 . S
C214 C212 1.378 . S
C214 C213 1.348 . S
C215 C211 1.415 . S
C215 C213 1.413 . S
C215 C245 1.437 . S
H216 C245 0.929 . S
N217 Gd190 2.570 . S
N217 C218 1.359 . S
N217 C221 1.343 . S
C218 C211 1.422 . S
C218 N217 1.359 . S
C218 C220 1.421 . S
C219 C220 1.422 . S
C219 C222 1.321 . S
C219 H246 0.931 . S
C220 C218 1.421 . S
C220 C219 1.422 . S
C220 C244 1.417 . S
C221 H198 0.931 . S
C221 N217 1.343 . S
C221 C222 1.390 . S
C222 H200 0.930 . S
C222 C219 1.321 . S
C222 C221 1.390 . S
O223 Gd191 2.386 . S
O223 C235 1.265 . S
O224 Gd190 2.353 1_565 S
O224 C235 1.242 . S
O225 Gd190 2.468 . S
O225 C243 1.263 . S
O226 Gd190 2.427 . S
O226 C243 1.252 . S
O227 Gd191 2.307 1_545 S
O227 C236 1.261 . S
O228 Gd190 2.388 . S
O228 C236 1.252 . S
O229 Gd190 2.386 . S
O229 C247 1.265 . S
O230 Gd191 2.353 1_545 S
O230 C247 1.242 . S
O231 Gd191 2.468 . S
O231 C255 1.263 . S
O232 Gd191 2.427 . S
O232 C255 1.252 . S
O233 Gd190 2.307 . S
O233 C248 1.261 . S
O234 Gd191 2.388 . S
O234 C248 1.252 1_565 S
C235 O223 1.265 . S
C235 O224 1.242 . S
C236 O227 1.261 . S
C236 O228 1.252 . S
C237 C240 1.394 1_556 S
C237 C242 1.370 . S
C237 C243 1.500 . S
C238 C241 1.383 . S
C238 C242 1.395 1_554 S
C239 C240 1.396 . S
C239 C241 1.365 . S
C239 H256 0.929 . S
C240 C237 1.394 1_554 S
C240 C239 1.396 . S
C240 H257 0.930 . S
C241 C238 1.383 . S
C241 C239 1.365 . S
C241 H258 0.931 . S
C242 C237 1.370 . S
C242 C238 1.395 1_556 S
C242 H259 0.930 . S
C243 Gd190 2.805 . S
C243 O225 1.263 . S
C243 O226 1.252 . S
C243 C237 1.500 . S
C244 H206 0.930 . S
C244 C220 1.417 . S
C244 C245 1.329 . S
C245 C215 1.437 . S
C245 H216 0.929 . S
C245 C244 1.329 . S
H246 C219 0.931 . S
C247 O229 1.265 . S
C247 O230 1.242 . S
C248 O233 1.261 . S
C248 O234 1.252 1_545 S
C249 C252 1.394 . S
C249 C254 1.370 1_565 S
C249 C255 1.500 . S
C250 C253 1.383 1_545 S
C250 C254 1.395 . S
C251 C252 1.396 . S
C251 C253 1.365 . S
C251 H260 0.929 . S
C252 C249 1.394 . S
C252 C251 1.396 . S
C252 H261 0.930 . S
C253 C250 1.383 1_565 S
C253 C251 1.365 . S
C253 H262 0.931 . S
C254 C249 1.370 1_545 S
C254 C250 1.395 . S
C254 H263 0.930 . S
C255 Gd191 2.805 . S
C255 O231 1.263 . S
C255 O232 1.252 . S
C255 C249 1.500 . S
H256 C239 0.929 . S
H257 C240 0.930 . S
H258 C241 0.931 . S
H259 C242 0.930 . S
H260 C251 0.929 . S
H261 C252 0.930 . S
H262 C253 0.931 . S
H263 C254 0.930 . S
C264 C266 1.422 . S
C264 C268 1.415 . S
C264 N270 1.369 . S
C265 C266 1.421 1_554 S
C265 C267 1.417 . S
C265 C277 1.422 . S
C266 C264 1.422 . S
C266 C265 1.421 1_556 S
C266 N276 1.359 . S
C267 C265 1.417 . S
C267 C269 1.329 . S
C267 H286 0.930 . S
C268 C264 1.415 . S
C268 C269 1.437 1_556 S
C268 C272 1.413 . S
C269 C267 1.329 . S
C269 C268 1.437 1_554 S
C269 H291 0.929 . S
N270 C264 1.369 . S
N270 C271 1.338 . S
N270 Gd275 2.622 . S
C271 N270 1.338 . S
C271 C273 1.378 . S
C271 H283 0.929 . S
C272 C268 1.413 . S
C272 C273 1.348 . S
C272 H288 0.931 . S
C273 C271 1.378 . S
C273 C272 1.348 . S
C273 H289 0.930 . S
Gd274 N294 2.622 . S
Gd274 N301 2.570 . S
Gd274 O308 2.353 . S
Gd274 O309 2.468 . S
Gd274 O310 2.427 . S
Gd274 O312 2.388 . S
Gd274 O313 2.386 . S
Gd274 O317 2.307 . S
Gd274 C327 2.805 . S
Gd275 N270 2.622 . S
Gd275 N276 2.570 . S
Gd275 O307 2.386 . S
Gd275 O311 2.307 . S
Gd275 O314 2.353 . S
Gd275 O315 2.468 . S
Gd275 O316 2.427 . S
Gd275 O318 2.388 . S
Gd275 C339 2.805 . S
N276 C266 1.359 . S
N276 Gd275 2.570 . S
N276 C278 1.343 . S
C277 C265 1.422 . S
C277 C279 1.321 . S
C277 H285 0.931 . S
C278 N276 1.343 . S
C278 C279 1.390 1_556 S
C278 H280 0.931 . S
C279 C277 1.321 . S
C279 C278 1.390 1_554 S
C279 H281 0.930 . S
H280 C278 0.931 . S
H281 C279 0.930 . S
H282 C305 0.931 . S
H283 C271 0.929 . S
H284 C306 0.930 . S
H285 C277 0.931 . S
H286 C267 0.930 . S
H287 C296 0.929 . S
H288 C272 0.931 . S
H289 C273 0.930 . S
H290 C328 0.930 . S
H291 C269 0.929 . S
H292 C297 0.931 . S
H293 C298 0.930 . S
N294 Gd274 2.622 . S
N294 C295 1.369 . S
N294 C296 1.338 . S
C295 N294 1.369 . S
C295 C299 1.415 . S
C295 C302 1.422 . S
C296 H287 0.929 . S
C296 N294 1.338 . S
C296 C298 1.378 . S
C297 H292 0.931 . S
C297 C298 1.348 . S
C297 C299 1.413 . S
C298 H293 0.930 . S
C298 C296 1.378 . S
C298 C297 1.348 . S
C299 C295 1.415 . S
C299 C297 1.413 . S
C299 C329 1.437 . S
H300 C329 0.929 . S
N301 Gd274 2.570 . S
N301 C302 1.359 . S
N301 C305 1.343 . S
C302 C295 1.422 . S
C302 N301 1.359 . S
C302 C304 1.421 . S
C303 C304 1.422 . S
C303 C306 1.321 . S
C303 H330 0.931 . S
C304 C302 1.421 . S
C304 C303 1.422 . S
C304 C328 1.417 . S
C305 H282 0.931 . S
C305 N301 1.343 . S
C305 C306 1.390 . S
C306 H284 0.930 . S
C306 C303 1.321 . S
C306 C305 1.390 . S
O307 Gd275 2.386 . S
O307 C319 1.265 . S
O308 Gd274 2.353 . S
O308 C319 1.242 . S
O309 Gd274 2.468 . S
O309 C327 1.263 . S
O310 Gd274 2.427 . S
O310 C327 1.252 . S
O311 Gd275 2.307 . S
O311 C320 1.261 . S
O312 Gd274 2.388 . S
O312 C320 1.252 . S
O313 Gd274 2.386 . S
O313 C331 1.265 . S
O314 Gd275 2.353 . S
O314 C331 1.242 . S
O315 Gd275 2.468 . S
O315 C339 1.263 . S
O316 Gd275 2.427 . S
O316 C339 1.252 . S
O317 Gd274 2.307 . S
O317 C332 1.261 . S
O318 Gd275 2.388 . S
O318 C332 1.252 . S
C319 O307 1.265 . S
C319 O308 1.242 . S
C320 O311 1.261 . S
C320 O312 1.252 . S
C321 C324 1.394 . S
C321 C326 1.370 . S
C321 C327 1.500 . S
C322 C325 1.383 . S
C322 C326 1.395 . S
C323 C324 1.396 . S
C323 C325 1.365 . S
C323 H340 0.929 . S
C324 C321 1.394 . S
C324 C323 1.396 . S
C324 H341 0.930 . S
C325 C322 1.383 . S
C325 C323 1.365 . S
C325 H342 0.931 . S
C326 C321 1.370 . S
C326 C322 1.395 . S
C326 H343 0.930 . S
C327 Gd274 2.805 . S
C327 O309 1.263 . S
C327 O310 1.252 . S
C327 C321 1.500 . S
C328 H290 0.930 . S
C328 C304 1.417 . S
C328 C329 1.329 . S
C329 C299 1.437 . S
C329 H300 0.929 . S
C329 C328 1.329 . S
H330 C303 0.931 . S
C331 O313 1.265 . S
C331 O314 1.242 . S
C332 O317 1.261 . S
C332 O318 1.252 . S
C333 C336 1.394 . S
C333 C338 1.370 . S
C333 C339 1.500 . S
C334 C337 1.383 . S
C334 C338 1.395 . S
C335 C336 1.396 . S
C335 C337 1.365 . S
C335 H344 0.929 . S
C336 C333 1.394 . S
C336 C335 1.396 . S
C336 H345 0.930 . S
C337 C334 1.383 . S
C337 C335 1.365 . S
C337 H346 0.931 1_556 S
C338 C333 1.370 . S
C338 C334 1.395 . S
C338 H347 0.930 . S
C339 Gd275 2.805 . S
C339 O315 1.263 . S
C339 O316 1.252 . S
C339 C333 1.500 . S
H340 C323 0.929 . S
H341 C324 0.930 . S
H342 C325 0.931 . S
H343 C326 0.930 . S
H344 C335 0.929 . S
H345 C336 0.930 . S
H346 C337 0.931 1_554 S
H347 C338 0.930 . S
C348 C350 1.422 . S
C348 C352 1.415 . S
C348 N354 1.369 . S
C349 C350 1.421 1_554 S
C349 C351 1.417 . S
C349 C361 1.422 . S
C350 C348 1.422 . S
C350 C349 1.421 1_556 S
C350 N360 1.359 . S
C351 C349 1.417 . S
C351 C353 1.329 . S
C351 H370 0.930 . S
C352 C348 1.415 . S
C352 C353 1.437 1_556 S
C352 C356 1.413 . S
C353 C351 1.329 . S
C353 C352 1.437 1_554 S
C353 H375 0.929 . S
N354 C348 1.369 . S
N354 C355 1.335 1_455 S
N354 Gd359 2.622 1_455 S
C355 N354 1.335 1_655 S
C355 C357 1.370 1_655 S
C355 H367 0.941 . S
C356 C352 1.413 . S
C356 C357 1.348 . S
C356 H372 0.931 . S
C357 C355 1.370 1_455 S
C357 C356 1.348 . S
C357 H373 0.930 . S
Gd358 N378 2.622 . S
Gd358 N385 2.570 . S
Gd358 O392 2.353 . S
Gd358 O393 2.468 . S
Gd358 O394 2.427 . S
Gd358 O396 2.388 . S
Gd358 O397 2.386 1_455 S
Gd358 O401 2.307 . S
Gd358 C411 2.805 . S
Gd359 N354 2.622 1_655 S
Gd359 N360 2.570 1_655 S
Gd359 O391 2.386 1_655 S
Gd359 O395 2.307 1_655 S
Gd359 O398 2.353 . S
Gd359 O399 2.468 . S
Gd359 O400 2.427 . S
Gd359 O402 2.388 . S
Gd359 C423 2.805 . S
N360 C350 1.359 . S
N360 Gd359 2.570 1_455 S
N360 C362 1.343 . S
C361 C349 1.422 . S
C361 C363 1.321 . S
C361 H369 0.931 . S
C362 N360 1.343 . S
C362 C363 1.390 1_556 S
C362 H364 0.931 . S
C363 C361 1.321 . S
C363 C362 1.390 1_554 S
C363 H365 0.930 . S
H364 C362 0.931 . S
H365 C363 0.930 . S
H366 C389 0.931 . S
H367 C355 0.941 . S
H368 C390 0.930 . S
H369 C361 0.931 . S
H370 C351 0.930 . S
H371 C380 0.929 . S
H372 C356 0.931 . S
H373 C357 0.930 . S
H374 C412 0.930 . S
H375 C353 0.929 . S
H376 C381 0.931 . S
H377 C382 0.930 . S
N378 Gd358 2.622 . S
N378 C379 1.369 . S
N378 C380 1.338 . S
C379 N378 1.369 . S
C379 C383 1.415 1_455 S
C379 C386 1.423 1_455 S
C380 H371 0.929 . S
C380 N378 1.338 . S
C380 C382 1.378 . S
C381 H376 0.931 . S
C381 C382 1.348 1_655 S
C381 C383 1.413 . S
C382 H377 0.930 . S
C382 C380 1.378 . S
C382 C381 1.348 1_455 S
C383 C379 1.415 1_655 S
C383 C381 1.413 . S
C383 C413 1.437 . S
H384 C413 0.929 . S
N385 Gd358 2.570 . S
N385 C386 1.360 1_455 S
N385 C389 1.343 . S
C386 C379 1.423 1_655 S
C386 N385 1.360 1_655 S
C386 C388 1.419 . S
C387 C388 1.422 . S
C387 C390 1.321 . S
C387 H414 0.931 . S
C388 C386 1.419 . S
C388 C387 1.422 . S
C388 C412 1.417 . S
C389 H366 0.931 . S
C389 N385 1.343 . S
C389 C390 1.390 1_455 S
C390 H368 0.930 . S
C390 C387 1.321 . S
C390 C389 1.390 1_655 S
O391 Gd359 2.386 1_455 S
O391 C403 1.265 . S
O392 Gd358 2.353 . S
O392 C403 1.242 . S
O393 Gd358 2.468 . S
O393 C411 1.263 . S
O394 Gd358 2.427 . S
O394 C411 1.252 . S
O395 Gd359 2.307 1_455 S
O395 C404 1.261 . S
O396 Gd358 2.388 . S
O396 C404 1.252 . S
O397 Gd358 2.386 1_655 S
O397 C415 1.265 . S
O398 Gd359 2.353 . S
O398 C415 1.242 . S
O399 Gd359 2.468 . S
O399 C423 1.263 . S
O400 Gd359 2.427 . S
O400 C423 1.252 . S
O401 Gd358 2.307 . S
O401 C416 1.261 . S
O402 Gd359 2.388 . S
O402 C416 1.252 1_655 S
C403 O391 1.265 . S
C403 O392 1.242 . S
C404 O395 1.261 . S
C404 O396 1.252 . S
C405 C408 1.394 . S
C405 C410 1.370 . S
C405 C411 1.500 . S
C406 C409 1.383 . S
C406 C410 1.395 . S
C407 C408 1.396 . S
C407 C409 1.365 . S
C407 H424 0.929 . S
C408 C405 1.394 . S
C408 C407 1.396 . S
C408 H425 0.930 . S
C409 C406 1.383 . S
C409 C407 1.365 . S
C409 H426 0.931 . S
C410 C405 1.370 . S
C410 C406 1.395 . S
C410 H427 0.930 . S
C411 Gd358 2.805 . S
C411 O393 1.263 . S
C411 O394 1.252 . S
C411 C405 1.500 . S
C412 H374 0.930 . S
C412 C388 1.417 . S
C412 C413 1.329 . S
C413 C383 1.437 . S
C413 H384 0.929 . S
C413 C412 1.329 . S
H414 C387 0.931 . S
C415 O397 1.265 . S
C415 O398 1.242 . S
C416 O401 1.261 . S
C416 O402 1.252 1_455 S
C417 C420 1.394 . S
C417 C422 1.370 . S
C417 C423 1.500 . S
C418 C421 1.383 . S
C418 C422 1.395 . S
C419 C420 1.396 . S
C419 C421 1.365 . S
C419 H428 0.929 . S
C420 C417 1.394 . S
C420 C419 1.396 . S
C420 H429 0.930 . S
C421 C418 1.383 . S
C421 C419 1.365 . S
C421 H430 0.931 1_556 S
C422 C417 1.370 . S
C422 C418 1.395 . S
C422 H431 0.930 . S
C423 Gd359 2.805 . S
C423 O399 1.263 . S
C423 O400 1.252 . S
C423 C417 1.500 . S
H424 C407 0.929 . S
H425 C408 0.930 . S
H426 C409 0.931 . S
H427 C410 0.930 . S
H428 C419 0.929 . S
H429 C420 0.930 . S
H430 C421 0.931 1_554 S
H431 C422 0.930 . S
H432 C444 0.930 . S
H433 C446 0.930 . S
H434 C447 0.930 . S
H435 C451 0.959 . S
H436 C451 0.959 . S
H437 C451 0.961 . S
H438 C452 0.960 . S
H439 C452 0.961 . S
H440 C452 0.959 . S
H441 C455 0.929 . S
H442 C456 0.931 . S
H443 C458 0.930 . S
C444 H432 0.930 . S
C444 C445 1.399 . S
C444 C449 1.399 . S
C445 C444 1.399 . S
C445 C446 1.376 . S
C446 H433 0.930 . S
C446 C445 1.376 . S
C446 C447 1.388 . S
C447 H434 0.930 . S
C447 C446 1.388 . S
C447 C448 1.390 . S
C448 C447 1.390 . S
C448 C449 1.394 . S
C448 C454 1.465 . S
C449 C444 1.399 . S
C449 C448 1.394 . S
C449 C450 1.516 . S
C450 C449 1.516 . S
C450 C451 1.502 . S
C450 C452 1.561 . S
C450 C453 1.526 . S
C451 H435 0.959 . S
C451 H436 0.959 . S
C451 H437 0.961 . S
C451 C450 1.502 . S
C452 H438 0.960 . S
C452 H439 0.961 . S
C452 H440 0.959 . S
C452 C450 1.561 . S
C453 C450 1.526 . S
C453 C454 1.396 . S
C453 C458 1.390 . S
C454 C448 1.465 . S
C454 C453 1.396 . S
C454 C455 1.399 . S
C455 H441 0.929 . S
C455 C454 1.399 . S
C455 C456 1.385 . S
C456 H442 0.931 . S
C456 C455 1.385 . S
C456 C457 1.389 . S
C457 C456 1.389 . S
C457 C458 1.387 . S
C458 H443 0.930 . S
C458 C453 1.390 . S
C458 C457 1.387 . S
H459 C471 0.930 . S
H460 C473 0.930 . S
H461 C474 0.930 . S
H462 C478 0.959 . S
H463 C478 0.959 . S
H464 C478 0.961 . S
H465 C479 0.960 . S
H466 C479 0.961 . S
H467 C479 0.959 . S
H468 C482 0.929 . S
H469 C483 0.931 . S
H470 C485 0.930 . S
C471 H459 0.930 . S
C471 C472 1.399 . S
C471 C476 1.399 . S
C472 C471 1.399 . S
C472 C473 1.376 . S
C473 H460 0.930 . S
C473 C472 1.376 . S
C473 C474 1.388 . S
C474 H461 0.930 . S
C474 C473 1.388 . S
C474 C475 1.390 . S
C475 C474 1.390 . S
C475 C476 1.394 . S
C475 C481 1.465 . S
C476 C471 1.399 . S
C476 C475 1.394 . S
C476 C477 1.516 . S
C477 C476 1.516 . S
C477 C478 1.502 . S
C477 C479 1.561 . S
C477 C480 1.526 . S
C478 H462 0.959 . S
C478 H463 0.959 . S
C478 H464 0.961 . S
C478 C477 1.502 . S
C479 H465 0.960 . S
C479 H466 0.961 . S
C479 H467 0.959 . S
C479 C477 1.561 . S
C480 C477 1.526 . S
C480 C481 1.396 . S
C480 C485 1.390 . S
C481 C475 1.465 . S
C481 C480 1.396 . S
C481 C482 1.399 . S
C482 H468 0.929 . S
C482 C481 1.399 . S
C482 C483 1.385 . S
C483 H469 0.931 . S
C483 C482 1.385 . S
C483 C484 1.389 . S
C484 C483 1.389 . S
C484 C485 1.387 . S
C485 H470 0.930 . S
C485 C480 1.390 . S
C485 C484 1.387 . S
H486 C498 0.930 . S
H487 C500 0.930 . S
H488 C501 0.930 . S
H489 C505 0.959 . S
H490 C505 0.959 . S
H491 C505 0.961 . S
H492 C506 0.960 . S
H493 C506 0.961 . S
H494 C506 0.959 . S
H495 C509 0.929 . S
H496 C510 0.931 . S
H497 C512 0.930 . S
C498 H486 0.930 . S
C498 C499 1.399 . S
C498 C503 1.399 . S
C499 C498 1.399 . S
C499 C500 1.376 . S
C500 H487 0.930 . S
C500 C499 1.376 . S
C500 C501 1.388 . S
C501 H488 0.930 . S
C501 C500 1.388 . S
C501 C502 1.390 . S
C502 C501 1.390 . S
C502 C503 1.394 . S
C502 C508 1.465 . S
C503 C498 1.399 . S
C503 C502 1.394 . S
C503 C504 1.516 . S
C504 C503 1.516 . S
C504 C505 1.502 . S
C504 C506 1.561 . S
C504 C507 1.526 . S
C505 H489 0.959 . S
C505 H490 0.959 . S
C505 H491 0.961 . S
C505 C504 1.502 . S
C506 H492 0.960 . S
C506 H493 0.961 . S
C506 H494 0.959 . S
C506 C504 1.561 . S
C507 C504 1.526 . S
C507 C508 1.396 . S
C507 C512 1.390 . S
C508 C502 1.465 . S
C508 C507 1.396 . S
C508 C509 1.399 . S
C509 H495 0.929 . S
C509 C508 1.399 . S
C509 C510 1.385 . S
C510 H496 0.931 . S
C510 C509 1.385 . S
C510 C511 1.389 . S
C511 C510 1.389 . S
C511 C512 1.387 . S
C512 H497 0.930 . S
C512 C507 1.390 . S
C512 C511 1.387 . S
H513 C525 0.930 . S
H514 C527 0.930 1_655 S
H515 C528 0.930 . S
H516 C532 0.959 . S
H517 C532 0.959 . S
H518 C532 0.961 . S
H519 C533 0.960 . S
H520 C533 0.961 . S
H521 C533 0.959 . S
H522 C536 0.929 . S
H523 C537 0.931 . S
H524 C539 0.930 . S
C525 H513 0.930 . S
C525 C526 1.399 . S
C525 C530 1.399 . S
C526 C525 1.399 . S
C526 C527 1.376 . S
C527 H514 0.930 1_455 S
C527 C526 1.376 . S
C527 C528 1.388 1_455 S
C528 H515 0.930 . S
C528 C527 1.388 1_655 S
C528 C529 1.390 1_655 S
C529 C528 1.390 1_455 S
C529 C530 1.394 . S
C529 C535 1.465 . S
C530 C525 1.399 . S
C530 C529 1.394 . S
C530 C531 1.516 . S
C531 C530 1.516 . S
C531 C532 1.502 . S
C531 C533 1.561 . S
C531 C534 1.526 . S
C532 H516 0.959 . S
C532 H517 0.959 . S
C532 H518 0.961 . S
C532 C531 1.502 . S
C533 H519 0.960 . S
C533 H520 0.961 . S
C533 H521 0.959 . S
C533 C531 1.561 . S
C534 C531 1.526 . S
C534 C535 1.396 . S
C534 C539 1.390 . S
C535 C529 1.465 . S
C535 C534 1.396 . S
C535 C536 1.399 1_455 S
C536 H522 0.929 . S
C536 C535 1.399 1_655 S
C536 C537 1.385 . S
C537 H523 0.931 . S
C537 C536 1.385 . S
C537 C538 1.389 1_655 S
C538 C537 1.389 1_455 S
C538 C539 1.387 . S
C539 H524 0.930 . S
C539 C534 1.390 . S
C539 C538 1.387 . S
H540 C552 0.930 . S
H541 C554 0.930 . S
H542 C555 0.930 . S
H543 C559 0.959 . S
H544 C559 0.959 . S
H545 C559 0.961 1_554 S
H546 C560 0.960 . S
H547 C560 0.961 . S
H548 C560 0.959 . S
H549 C563 0.929 . S
H550 C564 0.931 . S
H551 C566 0.930 . S
C552 H540 0.930 . S
C552 C553 1.399 1_545 S
C552 C557 1.399 . S
C553 C552 1.399 1_565 S
C553 C554 1.376 . S
C554 H541 0.930 . S
C554 C553 1.376 . S
C554 C555 1.388 . S
C555 H542 0.930 . S
C555 C554 1.388 . S
C555 C556 1.390 . S
C556 C555 1.390 . S
C556 C557 1.394 1_565 S
C556 C562 1.465 . S
C557 C552 1.399 . S
C557 C556 1.394 1_545 S
C557 C558 1.516 . S
C558 C557 1.516 . S
C558 C559 1.502 1_554 S
C558 C560 1.561 . S
C558 C561 1.526 1_554 S
C559 H543 0.959 . S
C559 H544 0.959 . S
C559 H545 0.961 1_556 S
C559 C558 1.502 1_556 S
C560 H546 0.960 . S
C560 H547 0.961 . S
C560 H548 0.959 . S
C560 C558 1.561 . S
C561 C558 1.526 1_556 S
C561 C562 1.396 1_546 S
C561 C566 1.390 . S
C562 C556 1.465 . S
C562 C561 1.396 1_564 S
C562 C563 1.399 1_554 S
C563 H549 0.929 . S
C563 C562 1.399 1_556 S
C563 C564 1.385 . S
C564 H550 0.931 . S
C564 C563 1.385 . S
C564 C565 1.389 . S
C565 C564 1.389 . S
C565 C566 1.387 1_565 S
C566 H551 0.930 . S
C566 C561 1.390 . S
C566 C565 1.387 1_545 S
H567 C579 0.930 . S
H568 C581 0.930 . S
H569 C582 0.930 1_556 S
H570 C586 0.959 . S
H571 C586 0.959 . S
H572 C586 0.961 . S
H573 C587 0.960 . S
H574 C587 0.961 . S
H575 C587 0.959 . S
H576 C590 0.929 . S
H577 C591 0.931 . S
H578 C593 0.930 . S
C579 H567 0.930 . S
C579 C580 1.399 . S
C579 C584 1.399 . S
C580 C579 1.399 . S
C580 C581 1.376 . S
C581 H568 0.930 . S
C581 C580 1.376 . S
C581 C582 1.388 . S
C582 H569 0.930 1_554 S
C582 C581 1.388 . S
C582 C583 1.390 . S
C583 C582 1.390 . S
C583 C584 1.394 . S
C583 C589 1.465 1_554 S
C584 C579 1.399 . S
C584 C583 1.394 . S
C584 C585 1.516 . S
C585 C584 1.516 . S
C585 C586 1.502 . S
C585 C587 1.561 . S
C585 C588 1.526 1_554 S
C586 H570 0.959 . S
C586 H571 0.959 . S
C586 H572 0.961 . S
C586 C585 1.502 . S
C587 H573 0.960 . S
C587 H574 0.961 . S
C587 H575 0.959 . S
C587 C585 1.561 . S
C588 C585 1.526 1_556 S
C588 C589 1.396 . S
C588 C593 1.389 . S
C589 C583 1.465 1_556 S
C589 C588 1.396 . S
C589 C590 1.399 . S
C590 H576 0.929 . S
C590 C589 1.399 . S
C590 C591 1.385 . S
C591 H577 0.931 . S
C591 C590 1.385 . S
C591 C592 1.389 . S
C592 C591 1.389 . S
C592 C593 1.387 . S
C593 H578 0.930 . S
C593 C588 1.389 . S
C593 C592 1.387 . S
H594 C606 0.930 . S
H595 C608 0.930 . S
H596 C609 0.930 . S
H597 C613 0.959 . S
H598 C613 0.959 . S
H599 C613 0.961 1_554 S
H600 C614 0.960 . S
H601 C614 0.961 . S
H602 C614 0.959 . S
H603 C617 0.929 . S
H604 C618 0.931 . S
H605 C620 0.930 . S
C606 H594 0.930 . S
C606 C607 1.399 . S
C606 C611 1.399 . S
C607 C606 1.399 . S
C607 C608 1.376 . S
C608 H595 0.930 . S
C608 C607 1.376 . S
C608 C609 1.388 . S
C609 H596 0.930 . S
C609 C608 1.388 . S
C609 C610 1.390 . S
C610 C609 1.390 . S
C610 C611 1.394 . S
C610 C616 1.475 . S
C611 C606 1.399 . S
C611 C610 1.394 . S
C611 C612 1.516 . S
C612 C611 1.516 . S
C612 C613 1.502 1_554 S
C612 C614 1.561 . S
C612 C615 1.526 1_554 S
C613 H597 0.959 . S
C613 H598 0.959 . S
C613 H599 0.961 1_556 S
C613 C612 1.502 1_556 S
C614 H600 0.960 . S
C614 H601 0.961 . S
C614 H602 0.959 . S
C614 C612 1.561 . S
C615 C612 1.526 1_556 S
C615 C616 1.392 1_556 S
C615 C620 1.390 . S
C616 C610 1.475 . S
C616 C615 1.392 1_554 S
C616 C617 1.393 1_554 S
C617 H603 0.929 . S
C617 C616 1.393 1_556 S
C617 C618 1.385 . S
C618 H604 0.931 . S
C618 C617 1.385 . S
C618 C619 1.389 . S
C619 C618 1.389 . S
C619 C620 1.387 . S
C620 H605 0.930 . S
C620 C615 1.390 . S
C620 C619 1.387 . S
H621 C633 0.930 . S
H622 C635 0.930 . S
H623 C636 0.930 . S
H624 C640 0.959 1_556 S
H625 C640 0.959 . S
H626 C640 0.961 . S
H627 C641 0.960 . S
H628 C641 0.961 . S
H629 C641 0.959 . S
H630 C644 0.929 . S
H631 C645 0.931 . S
H632 C647 0.930 . S
C633 H621 0.930 . S
C633 C634 1.399 1_455 S
C633 C638 1.397 1_455 S
C634 C633 1.399 1_655 S
C634 C635 1.376 . S
C635 H622 0.930 . S
C635 C634 1.376 . S
C635 C636 1.388 . S
C636 H623 0.930 . S
C636 C635 1.388 . S
C636 C637 1.390 . S
C637 C636 1.390 . S
C637 C638 1.411 . S
C637 C643 1.465 1_554 S
C638 C633 1.397 1_655 S
C638 C637 1.411 . S
C638 C639 1.503 1_655 S
C639 C638 1.503 1_455 S
C639 C640 1.502 . S
C639 C641 1.561 . S
C639 C642 1.526 1_554 S
C640 H624 0.959 1_554 S
C640 H625 0.959 . S
C640 H626 0.961 . S
C640 C639 1.502 . S
C641 H627 0.960 . S
C641 H628 0.961 . S
C641 H629 0.959 . S
C641 C639 1.561 . S
C642 C639 1.526 1_556 S
C642 C643 1.396 1_455 S
C642 C647 1.390 . S
C643 C637 1.465 1_556 S
C643 C642 1.396 1_655 S
C643 C644 1.399 . S
C644 H630 0.929 . S
C644 C643 1.399 . S
C644 C645 1.385 . S
C645 H631 0.931 . S
C645 C644 1.385 . S
C645 C646 1.389 . S
C646 C645 1.389 . S
C646 C647 1.387 1_655 S
C647 H632 0.930 . S
C647 C642 1.390 . S
C647 C646 1.387 1_455 S
H648 C660 0.930 . S
H649 C662 0.930 . S
H650 C663 0.904 1_655 S
H651 C667 0.959 . S
H652 C667 0.959 . S
H653 C667 0.961 . S
H654 C668 0.960 . S
H655 C668 0.961 . S
H656 C668 0.959 . S
H657 C671 0.929 . S
H658 C672 0.931 . S
H659 C674 0.930 . S
C660 H648 0.930 . S
C660 C661 1.399 . S
C660 C665 1.399 . S
C661 C660 1.399 . S
C661 C662 1.376 . S
C662 H649 0.930 . S
C662 C661 1.376 . S
C662 C663 1.388 . S
C663 H650 0.904 1_455 S
C663 C662 1.388 . S
C663 C664 1.390 . S
C664 C663 1.390 . S
C664 C665 1.394 . S
C664 C670 1.465 . S
C665 C660 1.399 . S
C665 C664 1.394 . S
C665 C666 1.516 . S
C666 C665 1.516 . S
C666 C667 1.502 . S
C666 C668 1.561 . S
C666 C669 1.526 . S
C667 H651 0.959 . S
C667 H652 0.959 . S
C667 H653 0.961 . S
C667 C666 1.502 . S
C668 H654 0.960 . S
C668 H655 0.961 . S
C668 H656 0.959 . S
C668 C666 1.561 . S
C669 C666 1.526 . S
C669 C670 1.396 . S
C669 C674 1.390 . S
C670 C664 1.465 . S
C670 C669 1.396 . S
C670 C671 1.399 1_455 S
C671 H657 0.929 . S
C671 C670 1.399 1_655 S
C671 C672 1.385 . S
C672 H658 0.931 . S
C672 C671 1.385 . S
C672 C673 1.389 1_655 S
C673 C672 1.389 1_455 S
C673 C674 1.387 . S
C674 H659 0.930 . S
C674 C669 1.390 . S
C674 C673 1.387 . S
H675 C687 0.930 . S
H676 C689 0.930 . S
H677 C690 0.930 1_565 S
H678 C694 0.959 . S
H679 C694 0.959 . S
H680 C694 0.961 . S
H681 C695 0.960 . S
H682 C695 0.961 . S
H683 C695 0.959 . S
H684 C698 0.929 . S
H685 C699 0.931 . S
H686 C701 0.930 . S
C687 H675 0.930 . S
C687 C688 1.399 . S
C687 C692 1.399 . S
C688 C687 1.399 . S
C688 C689 1.376 . S
C689 H676 0.930 . S
C689 C688 1.376 . S
C689 C690 1.388 . S
C690 H677 0.930 1_545 S
C690 C689 1.388 . S
C690 C691 1.390 . S
C691 C690 1.390 . S
C691 C692 1.394 . S
C691 C697 1.465 . S
C692 C687 1.399 . S
C692 C691 1.394 . S
C692 C693 1.516 . S
C693 C692 1.516 . S
C693 C694 1.502 . S
C693 C695 1.561 . S
C693 C696 1.526 . S
C694 H678 0.959 . S
C694 H679 0.959 . S
C694 H680 0.961 . S
C694 C693 1.502 . S
C695 H681 0.960 . S
C695 H682 0.961 . S
C695 H683 0.959 . S
C695 C693 1.561 . S
C696 C693 1.526 . S
C696 C697 1.396 . S
C696 C701 1.390 . S
C697 C691 1.465 . S
C697 C696 1.396 . S
C697 C698 1.399 1_545 S
C698 H684 0.929 . S
C698 C697 1.399 1_565 S
C698 C699 1.385 . S
C699 H685 0.931 . S
C699 C698 1.385 . S
C699 C700 1.389 1_565 S
C700 C699 1.389 1_545 S
C700 C701 1.387 . S
C701 H686 0.930 . S
C701 C696 1.390 . S
C701 C700 1.387 . S
H702 C714 0.930 . S
H703 C716 0.930 . S
H704 C717 0.930 . S
H705 C721 0.959 . S
H706 C721 0.959 . S
H707 C721 0.961 . S
H708 C722 0.960 . S
H709 C722 0.961 . S
H710 C722 0.959 . S
H711 C725 0.929 . S
H712 C726 0.931 . S
H713 C728 0.930 . S
C714 H702 0.930 . S
C714 C715 1.399 . S
C714 C719 1.399 . S
C715 C714 1.399 . S
C715 C716 1.376 . S
C716 H703 0.930 . S
C716 C715 1.376 . S
C716 C717 1.388 . S
C717 H704 0.930 . S
C717 C716 1.388 . S
C717 C718 1.390 . S
C718 C717 1.390 . S
C718 C719 1.394 . S
C718 C724 1.465 . S
C719 C714 1.399 . S
C719 C718 1.394 . S
C719 C720 1.516 . S
C720 C719 1.516 . S
C720 C721 1.502 . S
C720 C722 1.561 . S
C720 C723 1.526 . S
C721 H705 0.959 . S
C721 H706 0.959 . S
C721 H707 0.961 . S
C721 C720 1.502 . S
C722 H708 0.960 . S
C722 H709 0.961 . S
C722 H710 0.959 . S
C722 C720 1.561 . S
C723 C720 1.526 . S
C723 C724 1.396 . S
C723 C728 1.390 . S
C724 C718 1.465 . S
C724 C723 1.396 . S
C724 C725 1.399 . S
C725 H711 0.929 . S
C725 C724 1.399 . S
C725 C726 1.385 . S
C726 H712 0.931 . S
C726 C725 1.385 . S
C726 C727 1.389 . S
C727 C726 1.389 . S
C727 C728 1.387 . S
C728 H713 0.930 . S
C728 C723 1.390 . S
C728 C727 1.387 . S
H729 C741 0.930 . S
H730 C743 0.930 . S
H731 C744 0.930 . S
H732 C748 0.959 . S
H733 C748 0.959 . S
H734 C748 0.961 . S
H735 C749 0.960 . S
H736 C749 0.961 . S
H737 C749 0.959 . S
H738 C752 0.929 . S
H739 C753 0.931 . S
H740 C755 0.930 . S
C741 H729 0.930 . S
C741 C742 1.399 . S
C741 C746 1.399 . S
C742 C741 1.399 . S
C742 C743 1.376 . S
C743 H730 0.930 . S
C743 C742 1.376 . S
C743 C744 1.388 . S
C744 H731 0.930 . S
C744 C743 1.388 . S
C744 C745 1.390 . S
C745 C744 1.390 . S
C745 C746 1.394 . S
C745 C751 1.465 . S
C746 C741 1.399 . S
C746 C745 1.394 . S
C746 C747 1.516 . S
C747 C746 1.516 . S
C747 C748 1.502 . S
C747 C749 1.561 . S
C747 C750 1.526 . S
C748 H732 0.959 . S
C748 H733 0.959 . S
C748 H734 0.961 . S
C748 C747 1.502 . S
C749 H735 0.960 . S
C749 H736 0.961 . S
C749 H737 0.959 . S
C749 C747 1.561 . S
C750 C747 1.526 . S
C750 C751 1.396 . S
C750 C755 1.390 . S
C751 C745 1.465 . S
C751 C750 1.396 . S
C751 C752 1.399 . S
C752 H738 0.929 . S
C752 C751 1.399 . S
C752 C753 1.385 . S
C753 H739 0.931 . S
C753 C752 1.385 . S
C753 C754 1.389 . S
C754 C753 1.389 . S
C754 C755 1.387 . S
C755 H740 0.930 . S
C755 C750 1.390 . S
C755 C754 1.387 . S
H756 C768 0.930 . S
H757 C770 0.930 . S
H758 C771 0.930 . S
H759 C775 0.959 . S
H760 C775 0.959 . S
H761 C775 0.961 . S
H762 C776 0.960 . S
H763 C776 0.961 . S
H764 C776 0.959 . S
H765 C779 0.929 . S
H766 C780 0.931 . S
H767 C782 0.930 . S
C768 H756 0.930 . S
C768 C769 1.399 . S
C768 C773 1.399 . S
C769 C768 1.399 . S
C769 C770 1.376 . S
C770 H757 0.930 . S
C770 C769 1.376 . S
C770 C771 1.388 . S
C771 H758 0.930 . S
C771 C770 1.388 . S
C771 C772 1.390 . S
C772 C771 1.390 . S
C772 C773 1.394 . S
C772 C778 1.465 1_655 S
C773 C768 1.399 . S
C773 C772 1.394 . S
C773 C774 1.516 . S
C774 C773 1.516 . S
C774 C775 1.502 . S
C774 C776 1.561 1_655 S
C774 C777 1.526 1_655 S
C775 H759 0.959 . S
C775 H760 0.959 . S
C775 H761 0.961 . S
C775 C774 1.502 . S
C776 H762 0.960 . S
C776 H763 0.961 . S
C776 H764 0.959 . S
C776 C774 1.561 1_455 S
C777 C774 1.526 1_455 S
C777 C778 1.396 . S
C777 C782 1.390 . S
C778 C772 1.465 1_455 S
C778 C777 1.396 . S
C778 C779 1.399 1_554 S
C779 H765 0.929 . S
C779 C778 1.399 1_556 S
C779 C780 1.385 . S
C780 H766 0.931 . S
C780 C779 1.385 . S
C780 C781 1.389 . S
C781 C780 1.389 . S
C781 C782 1.387 1_556 S
C782 H767 0.930 . S
C782 C777 1.390 . S
C782 C781 1.387 1_554 S
H783 C795 0.966 . S
H784 C797 0.930 . S
H785 C798 0.930 . S
H786 C802 0.959 . S
H787 C802 0.959 . S
H788 C802 0.961 . S
H789 C803 0.960 . S
H790 C803 0.961 . S
H791 C803 0.959 . S
H792 C806 0.929 . S
H793 C807 0.931 1_556 S
H794 C809 0.930 . S
C795 H783 0.966 . S
C795 C796 1.359 1_545 S
C795 C800 1.403 . S
C796 C795 1.359 1_565 S
C796 C797 1.376 . S
C797 H784 0.930 . S
C797 C796 1.376 . S
C797 C798 1.388 . S
C798 H785 0.930 . S
C798 C797 1.388 . S
C798 C799 1.390 . S
C799 C798 1.390 . S
C799 C800 1.394 1_565 S
C799 C805 1.465 . S
C800 C795 1.403 . S
C800 C799 1.394 1_545 S
C800 C801 1.516 . S
C801 C800 1.516 . S
C801 C802 1.502 . S
C801 C803 1.561 . S
C801 C804 1.526 . S
C802 H786 0.959 . S
C802 H787 0.959 . S
C802 H788 0.961 . S
C802 C801 1.502 . S
C803 H789 0.960 . S
C803 H790 0.961 . S
C803 H791 0.959 . S
C803 C801 1.561 . S
C804 C801 1.526 . S
C804 C805 1.396 1_545 S
C804 C809 1.390 . S
C805 C799 1.465 . S
C805 C804 1.396 1_565 S
C805 C806 1.399 . S
C806 H792 0.929 . S
C806 C805 1.399 . S
C806 C807 1.385 . S
C807 H793 0.931 1_554 S
C807 C806 1.385 . S
C807 C808 1.389 1_565 S
C808 C807 1.389 1_545 S
C808 C809 1.387 . S
C809 H794 0.930 . S
C809 C804 1.390 . S
C809 C808 1.387 . S
H810 C822 0.930 . S
H811 C824 0.930 . S
H812 C825 0.930 . S
H813 C829 0.959 . S
H814 C829 0.959 . S
H815 C829 0.961 . S
H816 C830 0.960 . S
H817 C830 0.961 . S
H818 C830 0.959 . S
H819 C833 0.929 . S
H820 C834 0.931 . S
H821 C836 0.930 . S
C822 H810 0.930 . S
C822 C823 1.399 . S
C822 C827 1.399 . S
C823 C822 1.399 . S
C823 C824 1.376 . S
C824 H811 0.930 . S
C824 C823 1.376 . S
C824 C825 1.388 . S
C825 H812 0.930 . S
C825 C824 1.388 . S
C825 C826 1.390 . S
C826 C825 1.390 . S
C826 C827 1.394 . S
C826 C832 1.465 . S
C827 C822 1.399 . S
C827 C826 1.394 . S
C827 C828 1.516 . S
C828 C827 1.516 . S
C828 C829 1.502 . S
C828 C830 1.561 . S
C828 C831 1.526 . S
C829 H813 0.959 . S
C829 H814 0.959 . S
C829 H815 0.961 . S
C829 C828 1.502 . S
C830 H816 0.960 . S
C830 H817 0.961 . S
C830 H818 0.959 . S
C830 C828 1.561 . S
C831 C828 1.526 . S
C831 C832 1.396 . S
C831 C836 1.390 . S
C832 C826 1.465 . S
C832 C831 1.396 . S
C832 C833 1.399 1_554 S
C833 H819 0.929 . S
C833 C832 1.399 1_556 S
C833 C834 1.385 . S
C834 H820 0.931 . S
C834 C833 1.385 . S
C834 C835 1.389 1_556 S
C835 C834 1.389 1_554 S
C835 C836 1.387 . S
C836 H821 0.930 . S
C836 C831 1.390 . S
C836 C835 1.387 . S
H837 C849 0.930 . S
H838 C851 0.930 . S
H839 C852 0.930 . S
H840 C856 0.959 . S
H841 C856 0.959 . S
H842 C856 0.961 . S
H843 C857 0.960 . S
H844 C857 0.961 . S
H845 C857 0.959 . S
H846 C860 0.929 . S
H847 C861 0.931 . S
H848 C863 0.930 . S
C849 H837 0.930 . S
C849 C850 1.399 . S
C849 C854 1.399 . S
C850 C849 1.399 . S
C850 C851 1.376 . S
C851 H838 0.930 . S
C851 C850 1.376 . S
C851 C852 1.388 . S
C852 H839 0.930 . S
C852 C851 1.388 . S
C852 C853 1.390 . S
C853 C852 1.390 . S
C853 C854 1.394 . S
C853 C859 1.465 . S
C854 C849 1.399 . S
C854 C853 1.394 . S
C854 C855 1.516 . S
C855 C854 1.516 . S
C855 C856 1.502 . S
C855 C857 1.561 . S
C855 C858 1.526 . S
C856 H840 0.959 . S
C856 H841 0.959 . S
C856 H842 0.961 . S
C856 C855 1.502 . S
C857 H843 0.960 . S
C857 H844 0.961 . S
C857 H845 0.959 . S
C857 C855 1.561 . S
C858 C855 1.526 . S
C858 C859 1.396 . S
C858 C863 1.390 . S
C859 C853 1.465 . S
C859 C858 1.396 . S
C859 C860 1.399 1_554 S
C860 H846 0.929 . S
C860 C859 1.399 1_556 S
C860 C861 1.385 . S
C861 H847 0.931 . S
C861 C860 1.385 . S
C861 C862 1.383 1_556 S
C862 C861 1.383 1_554 S
C862 C863 1.399 . S
C863 H848 0.930 . S
C863 C858 1.390 . S
C863 C862 1.399 . S
H864 C876 0.930 . S
H865 C878 0.930 . S
H866 C879 0.930 . S
H867 C883 0.959 . S
H868 C883 0.959 . S
H869 C883 0.961 . S
H870 C884 0.960 . S
H871 C884 0.961 . S
H872 C884 0.959 . S
H873 C887 0.929 . S
H874 C888 0.931 . S
H875 C890 0.930 . S
C876 H864 0.930 . S
C876 C877 1.399 . S
C876 C881 1.399 . S
C877 C876 1.399 . S
C877 C878 1.376 . S
C878 H865 0.930 . S
C878 C877 1.376 . S
C878 C879 1.388 . S
C879 H866 0.930 . S
C879 C878 1.388 . S
C879 C880 1.390 . S
C880 C879 1.390 . S
C880 C881 1.394 . S
C880 C886 1.465 . S
C881 C876 1.399 . S
C881 C880 1.394 . S
C881 C882 1.516 . S
C882 C881 1.516 . S
C882 C883 1.502 1_455 S
C882 C884 1.561 . S
C882 C885 1.526 . S
C883 H867 0.959 . S
C883 H868 0.959 . S
C883 H869 0.961 . S
C883 C882 1.502 1_655 S
C884 H870 0.960 . S
C884 H871 0.961 . S
C884 H872 0.959 . S
C884 C882 1.561 . S
C885 C882 1.526 . S
C885 C886 1.396 . S
C885 C890 1.390 . S
C886 C880 1.465 . S
C886 C885 1.396 . S
C886 C887 1.399 . S
C887 H873 0.929 . S
C887 C886 1.399 . S
C887 C888 1.385 . S
C888 H874 0.931 . S
C888 C887 1.385 . S
C888 C889 1.389 . S
C889 C888 1.389 . S
C889 C890 1.387 . S
C890 H875 0.930 . S
C890 C885 1.390 . S
C890 C889 1.387 . S
H891 C903 0.930 . S
H892 C905 0.930 . S
H893 C906 0.930 . S
H894 C910 0.959 . S
H895 C910 0.959 1_554 S
H896 C910 0.961 1_554 S
H897 C911 0.960 1_554 S
H898 C911 0.961 1_554 S
H899 C911 0.959 1_565 S
H900 C914 0.929 . S
H901 C915 0.931 . S
H902 C917 0.930 . S
C903 H891 0.930 . S
C903 C904 1.399 . S
C903 C908 1.399 . S
C904 C903 1.399 . S
C904 C905 1.376 . S
C905 H892 0.930 . S
C905 C904 1.376 . S
C905 C906 1.388 . S
C906 H893 0.930 . S
C906 C905 1.388 . S
C906 C907 1.390 . S
C907 C906 1.390 . S
C907 C908 1.394 . S
C907 C913 1.465 . S
C908 C903 1.399 . S
C908 C907 1.394 . S
C908 C909 1.516 . S
C909 C908 1.516 . S
C909 C910 1.502 . S
C909 C911 1.561 . S
C909 C912 1.526 . S
C910 H894 0.959 . S
C910 H895 0.959 1_556 S
C910 H896 0.961 1_556 S
C910 C909 1.502 . S
C911 H897 0.960 1_556 S
C911 H898 0.961 1_556 S
C911 H899 0.959 1_545 S
C911 C909 1.561 . S
C912 C909 1.526 . S
C912 C913 1.396 . S
C912 C917 1.390 . S
C913 C907 1.465 . S
C913 C912 1.396 . S
C913 C914 1.399 . S
C914 H900 0.929 . S
C914 C913 1.399 . S
C914 C915 1.385 . S
C915 H901 0.931 . S
C915 C914 1.385 . S
C915 C916 1.389 . S
C916 C915 1.389 . S
C916 C917 1.387 . S
C917 H902 0.930 . S
C917 C912 1.390 . S
C917 C916 1.387 . S
H918 C930 0.930 . S
H919 C932 0.930 . S
H920 C933 0.930 . S
H921 C937 0.959 . S
H922 C937 0.959 1_554 S
H923 C937 0.961 1_554 S
H924 C938 0.960 1_554 S
H925 C938 0.961 1_554 S
H926 C938 0.959 . S
H927 C941 0.929 . S
H928 C942 0.931 . S
H929 C944 0.930 . S
C930 H918 0.930 . S
C930 C931 1.399 . S
C930 C935 1.399 . S
C931 C930 1.399 . S
C931 C932 1.376 . S
C932 H919 0.930 . S
C932 C931 1.376 . S
C932 C933 1.388 . S
C933 H920 0.930 . S
C933 C932 1.388 . S
C933 C934 1.390 . S
C934 C933 1.390 . S
C934 C935 1.394 . S
C934 C940 1.465 . S
C935 C930 1.399 . S
C935 C934 1.394 . S
C935 C936 1.516 . S
C936 C935 1.516 . S
C936 C937 1.502 . S
C936 C938 1.561 . S
C936 C939 1.526 . S
C937 H921 0.959 . S
C937 H922 0.959 1_556 S
C937 H923 0.961 1_556 S
C937 C936 1.502 . S
C938 H924 0.960 1_556 S
C938 H925 0.961 1_556 S
C938 H926 0.959 . S
C938 C936 1.561 . S
C939 C936 1.526 . S
C939 C940 1.396 . S
C939 C944 1.390 . S
C940 C934 1.465 . S
C940 C939 1.396 . S
C940 C941 1.399 . S
C941 H927 0.929 . S
C941 C940 1.399 . S
C941 C942 1.385 . S
C942 H928 0.931 . S
C942 C941 1.385 . S
C942 C943 1.389 . S
C943 C942 1.389 . S
C943 C944 1.387 . S
C944 H929 0.930 . S
C944 C939 1.390 . S
C944 C943 1.387 . S
H945 C957 0.930 . S
H946 C959 0.930 . S
H947 C960 0.930 . S
H948 C964 0.959 1_554 S
H949 C964 0.959 . S
H950 C964 0.961 1_554 S
H951 C965 0.960 . S
H952 C965 0.961 . S
H953 C965 0.959 . S
H954 C968 0.929 . S
H955 C969 0.931 . S
H956 C971 0.930 . S
C957 H945 0.930 . S
C957 C958 1.399 . S
C957 C962 1.399 . S
C958 C957 1.399 . S
C958 C959 1.376 . S
C959 H946 0.930 . S
C959 C958 1.376 . S
C959 C960 1.388 . S
C960 H947 0.930 . S
C960 C959 1.388 . S
C960 C961 1.390 . S
C961 C960 1.390 . S
C961 C962 1.394 . S
C961 C967 1.465 . S
C962 C957 1.399 . S
C962 C961 1.394 . S
C962 C963 1.516 . S
C963 C962 1.516 . S
C963 C964 1.502 . S
C963 C965 1.561 . S
C963 C966 1.526 . S
C964 H948 0.959 1_556 S
C964 H949 0.959 . S
C964 H950 0.961 1_556 S
C964 C963 1.502 . S
C965 H951 0.960 . S
C965 H952 0.961 . S
C965 H953 0.959 . S
C965 C963 1.561 . S
C966 C963 1.526 . S
C966 C967 1.396 . S
C966 C971 1.390 . S
C967 C961 1.465 . S
C967 C966 1.396 . S
C967 C968 1.399 . S
C968 H954 0.929 . S
C968 C967 1.399 . S
C968 C969 1.385 . S
C969 H955 0.931 . S
C969 C968 1.385 . S
C969 C970 1.389 . S
C970 C969 1.389 . S
C970 C971 1.387 . S
C971 H956 0.930 . S
C971 C966 1.390 . S
C971 C970 1.387 . S
H972 C984 0.930 . S
H973 C986 0.930 . S
H974 C987 0.930 . S
H975 C991 0.959 . S
H976 C991 0.959 . S
H977 C991 0.961 . S
H978 C992 0.960 . S
H979 C992 0.961 . S
H980 C992 0.959 . S
H981 C995 0.929 . S
H982 C996 0.931 . S
H983 C998 0.931 1_455 S
C984 H972 0.930 . S
C984 C985 1.399 . S
C984 C989 1.399 . S
C985 C984 1.399 . S
C985 C986 1.376 . S
C986 H973 0.930 . S
C986 C985 1.376 . S
C986 C987 1.388 . S
C987 H974 0.930 . S
C987 C986 1.388 . S
C987 C988 1.390 . S
C988 C987 1.390 . S
C988 C989 1.394 . S
C988 C994 1.465 . S
C989 C984 1.399 . S
C989 C988 1.394 . S
C989 C990 1.516 . S
C990 C989 1.516 . S
C990 C991 1.502 1_655 S
C990 C992 1.561 . S
C990 C993 1.526 . S
C991 H975 0.959 . S
C991 H976 0.959 . S
C991 H977 0.961 . S
C991 C990 1.502 1_455 S
C992 H978 0.960 . S
C992 H979 0.961 . S
C992 H980 0.959 . S
C992 C990 1.561 . S
C993 C990 1.526 . S
C993 C994 1.396 . S
C993 C998 1.390 . S
C994 C988 1.465 . S
C994 C993 1.396 . S
C994 C995 1.399 . S
C995 H981 0.929 . S
C995 C994 1.399 . S
C995 C996 1.385 . S
C996 H982 0.931 . S
C996 C995 1.385 . S
C996 C997 1.389 . S
C997 C996 1.389 . S
C997 C998 1.387 . S
C998 H983 0.931 1_655 S
C998 C993 1.390 . S
C998 C997 1.387 . S
H999 C1011 0.930 . S
H1000 C1013 0.930 . S
H1001 C1014 0.930 . S
H1002 C1018 0.959 . S
H1003 C1018 0.959 . S
H1004 C1018 0.961 . S
H1005 C1019 0.960 . S
H1006 C1019 0.961 . S
H1007 C1019 0.959 . S
H1008 C1022 0.929 . S
H1009 C1023 0.931 . S
H1010 C1025 0.930 . S
C1011 H999 0.930 . S
C1011 C1012 1.399 1_545 S
C1011 C1016 1.399 1_545 S
C1012 C1011 1.399 1_565 S
C1012 C1013 1.376 . S
C1013 H1000 0.930 . S
C1013 C1012 1.376 . S
C1013 C1014 1.388 . S
C1014 H1001 0.930 . S
C1014 C1013 1.388 . S
C1014 C1015 1.390 . S
C1015 C1014 1.390 . S
C1015 C1016 1.394 . S
C1015 C1021 1.465 . S
C1016 C1011 1.399 1_565 S
C1016 C1015 1.394 . S
C1016 C1017 1.516 1_565 S
C1017 C1016 1.516 1_545 S
C1017 C1018 1.502 . S
C1017 C1019 1.561 . S
C1017 C1020 1.526 . S
C1018 H1002 0.959 . S
C1018 H1003 0.959 . S
C1018 H1004 0.961 . S
C1018 C1017 1.502 . S
C1019 H1005 0.960 . S
C1019 H1006 0.961 . S
C1019 H1007 0.959 . S
C1019 C1017 1.561 . S
C1020 C1017 1.526 . S
C1020 C1021 1.396 1_545 S
C1020 C1025 1.390 . S
C1021 C1015 1.465 . S
C1021 C1020 1.396 1_565 S
C1021 C1022 1.399 . S
C1022 H1008 0.929 . S
C1022 C1021 1.399 . S
C1022 C1023 1.385 . S
C1023 H1009 0.931 . S
C1023 C1022 1.385 . S
C1023 C1024 1.389 . S
C1024 C1023 1.389 . S
C1024 C1025 1.387 1_565 S
C1025 H1010 0.930 . S
C1025 C1020 1.390 . S
C1025 C1024 1.387 1_545 S
H1026 C1038 0.930 . S
H1027 C1040 0.930 . S
H1028 C1041 0.930 . S
H1029 C1045 0.959 . S
H1030 C1045 0.959 . S
H1031 C1045 0.961 . S
H1032 C1046 0.960 . S
H1033 C1046 0.961 . S
H1034 C1046 0.959 . S
H1035 C1049 0.929 . S
H1036 C1050 0.931 . S
H1037 C1052 0.930 . S
C1038 H1026 0.930 . S
C1038 C1039 1.399 . S
C1038 C1043 1.399 . S
C1039 C1038 1.399 . S
C1039 C1040 1.376 . S
C1040 H1027 0.930 . S
C1040 C1039 1.376 . S
C1040 C1041 1.388 . S
C1041 H1028 0.930 . S
C1041 C1040 1.388 . S
C1041 C1042 1.390 . S
C1042 C1041 1.390 . S
C1042 C1043 1.394 . S
C1042 C1048 1.465 . S
C1043 C1038 1.399 . S
C1043 C1042 1.394 . S
C1043 C1044 1.516 . S
C1044 C1043 1.516 . S
C1044 C1045 1.502 . S
C1044 C1046 1.561 . S
C1044 C1047 1.526 . S
C1045 H1029 0.959 . S
C1045 H1030 0.959 . S
C1045 H1031 0.961 . S
C1045 C1044 1.502 . S
C1046 H1032 0.960 . S
C1046 H1033 0.961 . S
C1046 H1034 0.959 . S
C1046 C1044 1.561 . S
C1047 C1044 1.526 . S
C1047 C1048 1.396 . S
C1047 C1052 1.390 . S
C1048 C1042 1.465 . S
C1048 C1047 1.396 . S
C1048 C1049 1.399 . S
C1049 H1035 0.929 . S
C1049 C1048 1.399 . S
C1049 C1050 1.385 . S
C1050 H1036 0.931 . S
C1050 C1049 1.385 . S
C1050 C1051 1.389 . S
C1051 C1050 1.389 . S
C1051 C1052 1.387 . S
C1052 H1037 0.930 . S
C1052 C1047 1.390 . S
C1052 C1051 1.387 . S
H1053 C1065 0.930 . S
H1054 C1067 0.930 . S
H1055 C1068 0.930 . S
H1056 C1072 0.959 . S
H1057 C1072 0.959 . S
H1058 C1072 0.961 . S
H1059 C1073 0.960 . S
H1060 C1073 0.961 . S
H1061 C1073 0.959 . S
H1062 C1076 0.929 . S
H1063 C1077 0.931 . S
H1064 C1079 0.930 . S
C1065 H1053 0.930 . S
C1065 C1066 1.399 . S
C1065 C1070 1.399 . S
C1066 C1065 1.399 . S
C1066 C1067 1.376 . S
C1067 H1054 0.930 . S
C1067 C1066 1.376 . S
C1067 C1068 1.388 . S
C1068 H1055 0.930 . S
C1068 C1067 1.388 . S
C1068 C1069 1.390 . S
C1069 C1068 1.390 . S
C1069 C1070 1.394 . S
C1069 C1075 1.465 . S
C1070 C1065 1.399 . S
C1070 C1069 1.394 . S
C1070 C1071 1.516 . S
C1071 C1070 1.516 . S
C1071 C1072 1.502 . S
C1071 C1073 1.561 . S
C1071 C1074 1.526 . S
C1072 H1056 0.959 . S
C1072 H1057 0.959 . S
C1072 H1058 0.961 . S
C1072 C1071 1.502 . S
C1073 H1059 0.960 . S
C1073 H1060 0.961 . S
C1073 H1061 0.959 . S
C1073 C1071 1.561 . S
C1074 C1071 1.526 . S
C1074 C1075 1.396 . S
C1074 C1079 1.390 . S
C1075 C1069 1.465 . S
C1075 C1074 1.396 . S
C1075 C1076 1.399 . S
C1076 H1062 0.929 . S
C1076 C1075 1.399 . S
C1076 C1077 1.385 . S
C1077 H1063 0.931 . S
C1077 C1076 1.385 . S
C1077 C1078 1.389 . S
C1078 C1077 1.389 . S
C1078 C1079 1.387 . S
C1079 H1064 0.930 . S
C1079 C1074 1.390 . S
C1079 C1078 1.387 . S
C445 C76 1.916 . S
C457 C164 2.009 . S
C484 C247 2.049 . S
C472 C88 1.833 . S
C511 C332 1.994 . S
C499 C52 1.891 . S
C538 C416 1.985 . S
C526 C64 1.859 . S
C565 C152 2.029 1_565 S
C553 C28 1.909 . S
C580 C40 1.847 . S
C592 C235 2.045 . S
C607 C4 1.899 . S
C619 C320 2.023 . S
C634 C16 1.871 . S
C646 C404 2.018 1_655 S
C673 C154 0.594 1_455 S
C661 C69 0.521 . S
C700 C250 0.634 . S
C688 C81 0.577 . S
C727 C322 0.619 . S
C715 C93 0.658 . S
C742 C57 0.551 . S
C754 C406 0.505 . S
C769 C21 0.619 . S
C781 C166 0.551 . S
C808 C238 0.646 . S
C796 C33 0.647 . S
C835 C334 0.643 1_554 S
C823 C45 0.667 . S
C850 C9 0.651 . S
C862 C418 0.627 1_554 S
C877 C66 1.902 . S
C889 C151 2.126 . S
C904 C78 1.969 . S
C916 C236 2.130 . S
C943 C319 2.121 . S
C931 C90 1.985 . S
C970 C403 2.127 . S
C958 C54 1.994 . S
C985 C18 1.963 . S
C997 C163 2.101 . S
C1024 C248 2.135 1_565 S
C1012 C30 1.920 . S
C1051 C331 2.120 . S
C1039 C42 1.984 . S
C1066 C6 1.948 . S
C1078 C415 2.135 . S
