# Generated by pormake.
# Topology pts, (4,4)-cn, num edge types: 1
# Building blocks:
#     Node 0, Type 0, BuildingBlock: NAWXER_clean_linker_0, # of connection points: 4
#     Node 1, Type 0, BuildingBlock: NAWXER_clean_linker_0, # of connection points: 4
#     Node 2, Type 1, BuildingBlock: UXUYUI_clean_sbu_0, # of connection points: 4
#     Node 3, Type 1, BuildingBlock: UXUYUI_clean_sbu_0, # of connection points: 4
#     Edge 4, Type (0, 1), BuildingBlock: FUNLAD_clean_linker_0, # of connection points: 2
#     Edge 5, Type (0, 1), BuildingBlock: FUNLAD_clean_linker_0, # of connection points: 2
#     Edge 6, Type (0, 1), BuildingBlock: FUNLAD_clean_linker_0, # of connection points: 2
#     Edge 7, Type (0, 1), BuildingBlock: FUNLAD_clean_linker_0, # of connection points: 2
#     Edge 8, Type (0, 1), BuildingBlock: FUNLAD_clean_linker_0, # of connection points: 2
#     Edge 9, Type (0, 1), BuildingBlock: FUNLAD_clean_linker_0, # of connection points: 2
#     Edge 10, Type (0, 1), BuildingBlock: FUNLAD_clean_linker_0, # of connection points: 2
#     Edge 11, Type (0, 1), BuildingBlock: FUNLAD_clean_linker_0, # of connection points: 2
# Relax obj value: 0.000
# Max RMSD: 0.009
# Mean RMSD: 0.008
data_MOF--net-pts--node1-UXUYUI_clean_sbu_0--node2-NAWXER_clean_linker_0--edge1-FUNLAD_clean_linker_0
_symmetry_space_group_name_H-M    P1
_symmetry_Int_Tables_number       1
_symmetry_cell_setting            triclinic
loop_
_symmetry_equiv_pos_as_xyz
'x, y, z'
_cell_length_a     39.419073
_cell_length_b     39.44355
_cell_length_c     56.847833
_cell_angle_alpha  89.98189
_cell_angle_beta   90.027479
_cell_angle_gamma 89.996308
loop_
_atom_site_label
_atom_site_type_symbol
_atom_site_fract_x
_atom_site_fract_y
_atom_site_fract_z
_atom_type_partial_charge
C0 C 0.61419 0.03702 0.96396 0.0
C1 C 0.62 0.01227 0.94662 0.0
C2 C 0.58518 0.0356 0.97805 0.0
C3 C 0.56153 0.00929 0.97519 0.0
C4 C 0.59616 0.98609 0.9437 0.0
C5 C 0.56708 0.98477 0.95774 0.0
C6 C 0.53011 0.00822 0.98942 0.0
C7 C 0.61602 0.98965 0.03983 0.0
C8 C 0.61917 0.01399 0.05779 0.0
C9 C 0.58715 0.98883 0.02555 0.0
C10 C 0.56102 0.01263 0.02871 0.0
C11 C 0.59275 0.03749 0.06108 0.0
C12 C 0.56395 0.0367 0.04676 0.0
C13 C 0.52982 0.01158 0.01417 0.0
C14 C 0.38347 0.98648 0.03903 0.0
C15 C 0.37849 0.01217 0.05584 0.0
C16 C 0.41288 0.98589 0.02529 0.0
C17 C 0.43775 0.01109 0.028 0.0
C18 C 0.40367 0.03708 0.0587 0.0
C19 C 0.4331 0.03639 0.04503 0.0
C20 C 0.46926 0.01062 0.01385 0.0
C21 C 0.38452 0.03158 0.96283 0.0
C22 C 0.38062 0.00701 0.94511 0.0
C23 C 0.4132 0.03153 0.9773 0.0
C24 C 0.43838 0.00664 0.97455 0.0
C25 C 0.40602 0.98228 0.94229 0.0
C26 C 0.43467 0.98223 0.95678 0.0
C27 C 0.46955 0.00708 0.9891 0.0
H28 H 0.63215 0.05741 0.96672 0.0
H29 H 0.58105 0.05531 0.991 0.0
H30 H 0.59966 0.96694 0.93027 0.0
H31 H 0.54894 0.96451 0.95502 0.0
H32 H 0.63594 0.97127 0.03674 0.0
H33 H 0.58513 0.96934 0.01221 0.0
H34 H 0.59403 0.05617 0.07501 0.0
H35 H 0.54392 0.05502 0.04976 0.0
H36 H 0.36449 0.96701 0.03635 0.0
H37 H 0.41626 0.96562 0.01266 0.0
H38 H 0.40083 0.05688 0.07175 0.0
H39 H 0.45215 0.05584 0.04762 0.0
H40 H 0.36538 0.05088 0.96556 0.0
H41 H 0.41588 0.05126 0.99041 0.0
H42 H 0.40411 0.96336 0.92856 0.0
H43 H 0.454 0.96309 0.95411 0.0
N44 N 0.49998 0.00584 0.97789 0.0
N45 N 0.49939 0.01289 0.02537 0.0
C46 C 0.03195 0.61292 0.53913 0.0
C47 C 0.00754 0.61839 0.55677 0.0
C48 C 0.03062 0.58394 0.52505 0.0
C49 C 0.00457 0.56003 0.52806 0.0
C50 C 0.98175 0.59417 0.55994 0.0
C51 C 0.9804 0.56521 0.54581 0.0
C52 C 0.00341 0.52877 0.51364 0.0
C53 C 0.98549 0.61493 0.4636 0.0
C54 C 0.0105 0.61871 0.44615 0.0
C55 C 0.98444 0.58578 0.47756 0.0
C56 C 0.00864 0.55999 0.47457 0.0
C57 C 0.03438 0.5926 0.44298 0.0
C58 C 0.03333 0.56348 0.45697 0.0
C59 C 0.00744 0.52868 0.48894 0.0
C60 C 0.98165 0.38362 0.46183 0.0
C61 C 0.00713 0.37961 0.44474 0.0
C62 C 0.98136 0.41209 0.4765 0.0
C63 C 0.00678 0.43689 0.47454 0.0
C64 C 0.03254 0.4045 0.44287 0.0
C65 C 0.03223 0.4329 0.45752 0.0
C66 C 0.00598 0.46815 0.48895 0.0
C67 C 0.02205 0.38297 0.5409 0.0
C68 C 0.99629 0.37994 0.5579 0.0
C69 C 0.02349 0.41135 0.52618 0.0
C70 C 0.999 0.43708 0.528 0.0
C71 C 0.97178 0.40574 0.5596 0.0
C72 C 0.97327 0.43409 0.5449 0.0
C73 C 0.00123 0.46826 0.51359 0.0
H74 H 0.05204 0.63114 0.53611 0.0
H75 H 0.05018 0.58009 0.51194 0.0
H76 H 0.96289 0.5973 0.57362 0.0
H77 H 0.96037 0.54686 0.54869 0.0
H78 H 0.96683 0.63461 0.46659 0.0
H79 H 0.96454 0.58332 0.49057 0.0
H80 H 0.05361 0.59445 0.42944 0.0
H81 H 0.05196 0.5437 0.45412 0.0
H82 H 0.9614 0.36522 0.46346 0.0
H83 H 0.96085 0.41507 0.489 0.0
H84 H 0.05277 0.402 0.43011 0.0
H85 H 0.05199 0.4518 0.45559 0.0
H86 H 0.04167 0.36387 0.5394 0.0
H87 H 0.0442 0.41353 0.51375 0.0
H88 H 0.95135 0.40403 0.57227 0.0
H89 H 0.95423 0.45373 0.54673 0.0
N90 N 1.00009 0.49858 0.52494 0.0
N91 N 0.00892 0.49837 0.47762 0.0
Li92 Li 0.99969 0.02825 0.2682 0.0
Li93 Li 0.99813 0.96628 0.26613 0.0
Li94 Li 0.03108 0.99963 0.23602 0.0
Li95 Li 0.9689 0.99732 0.23568 0.0
C96 C 0.06584 0.00747 0.28295 0.0
N97 N 0.12165 0.03047 0.30773 0.0
C98 C 0.07339 0.99405 0.30511 0.0
C99 C 0.08711 0.03212 0.27323 0.0
C100 C 0.10158 0.00615 0.31742 0.0
C101 C 0.11509 0.04353 0.28606 0.0
C102 C 0.94043 0.98317 0.2873 0.0
C103 C 0.90296 0.93873 0.30051 0.0
N104 N 0.90372 0.95196 0.3226 0.0
C105 C 0.94058 0.99651 0.31008 0.0
C106 C 0.92122 0.95423 0.28241 0.0
C107 C 0.92193 0.98031 0.32769 0.0
C108 C 0.98377 0.09546 0.28163 0.0
N109 N 0.9987 0.06624 0.28896 0.0
C110 C 0.01088 0.09073 0.32649 0.0
C111 C 0.01184 0.06332 0.31098 0.0
C112 C 0.99602 0.12143 0.31933 0.0
C113 C 0.98231 0.12357 0.29654 0.0
H114 H 0.97282 0.09688 0.26421 0.0
H115 H 0.02261 0.03954 0.31667 0.0
C116 C 0.9971 0.89541 0.27486 0.0
N117 N 0.99799 0.92649 0.28515 0.0
C118 C 0.99637 0.86614 0.2887 0.0
C119 C 0.99784 0.90143 0.32343 0.0
C120 C 0.99859 0.92997 0.30893 0.0
C121 C 0.99668 0.86892 0.31335 0.0
H122 H 0.99705 0.89333 0.25591 0.0
H123 H 0.99936 0.95499 0.31666 0.0
C124 C 0.00982 0.06639 0.22232 0.0
N125 N 0.03248 0.12377 0.19921 0.0
C126 C 0.99731 0.07447 0.19999 0.0
C127 C 0.03336 0.0879 0.23306 0.0
C128 C 0.00923 0.10346 0.18854 0.0
C129 C 0.04463 0.11668 0.22106 0.0
C130 C 0.98897 0.94161 0.21285 0.0
C131 C 0.00477 0.94393 0.19091 0.0
C132 C 0.96001 0.9215 0.21541 0.0
C133 C 0.99098 0.92651 0.17176 0.0
C134 C 0.94696 0.90451 0.19583 0.0
N135 N 0.96257 0.90737 0.17459 0.0
C136 C 0.0987 0.98315 0.22472 0.0
C137 C 0.07093 0.01637 0.19581 0.0
C138 C 0.12829 0.98236 0.21122 0.0
N139 N 0.07091 1.00023 0.21695 0.0
C140 C 0.09995 0.0163 0.18176 0.0
C141 C 0.12918 0.99915 0.18941 0.0
H142 H 0.09786 0.9701 0.24145 0.0
H143 H 0.04822 0.02871 0.1896 0.0
C144 C 0.89869 0.997 0.22473 0.0
N145 N 0.93039 0.99801 0.21535 0.0
C146 C 0.87024 0.9965 0.21007 0.0
C147 C 0.90758 0.99842 0.17638 0.0
C148 C 0.93526 0.99907 0.19169 0.0
C149 C 0.87451 0.99701 0.18552 0.0
H150 H 0.89548 0.99644 0.2436 0.0
H151 H 0.96071 1.00023 0.18469 0.0
O152 O 0.0383 0.99583 0.27067 0.0
O153 O 0.95897 0.99839 0.26991 0.0
O154 O 0.99834 0.03806 0.23377 0.0
O155 O 0.00184 0.95888 0.23173 0.0
H156 H 0.05757 0.97461 0.3128 0.0
H157 H 0.08243 0.04198 0.25582 0.0
H158 H 0.10754 0.99616 0.33466 0.0
H159 H 0.13168 0.06265 0.27874 0.0
H160 H 0.88821 0.91617 0.297 0.0
H161 H 0.95507 0.01901 0.31415 0.0
H162 H 0.92061 0.94372 0.26487 0.0
H163 H 0.92199 0.99024 0.34543 0.0
H164 H 0.02187 0.08795 0.34384 0.0
H165 H 0.97007 0.14652 0.29044 0.0
H166 H 0.996 0.8416 0.28017 0.0
H167 H 0.99767 0.90484 0.34233 0.0
H168 H 0.97874 0.05845 0.19152 0.0
H169 H 0.04247 0.0828 0.25062 0.0
H170 H 0.99995 0.10983 0.17118 0.0
H171 H 0.0629 0.13348 0.22917 0.0
H172 H 0.02731 0.95917 0.18863 0.0
H173 H 0.94759 0.91921 0.23227 0.0
H174 H 0.00284 0.92824 0.15465 0.0
H175 H 0.92441 0.88908 0.19753 0.0
H176 H 0.15029 0.969 0.21786 0.0
H177 H 0.09927 0.02895 0.16486 0.0
H178 H 0.84521 0.99516 0.21785 0.0
H179 H 0.91202 0.99935 0.15759 0.0
Li180 Li 0.96862 1.00011 0.7668 0.0
Li181 Li 0.03065 0.99623 0.76698 0.0
Li182 Li 1.00036 0.02852 0.73478 0.0
Li183 Li 1.00056 0.96634 0.73619 0.0
C184 C 0.99012 0.06477 0.78191 0.0
N185 N 0.96587 0.1193 0.80742 0.0
C186 C 0.00193 0.07079 0.80472 0.0
C187 C 0.9665 0.08694 0.77192 0.0
C188 C 0.9892 0.09834 0.81738 0.0
C189 C 0.95442 0.11424 0.78512 0.0
C190 C 0.00981 0.93942 0.78858 0.0
C191 C 0.05087 0.89936 0.80337 0.0
N192 N 0.03636 0.90132 0.82502 0.0
C193 C 0.99508 0.94075 0.81092 0.0
C194 C 0.03771 0.91828 0.7847 0.0
C195 C 0.00895 0.9214 0.82913 0.0
C196 C 0.8994 0.98908 0.77722 0.0
N197 N 0.92898 0.0014 0.78606 0.0
C198 C 0.90235 0.01308 0.82296 0.0
C199 C 0.93097 0.01308 0.80851 0.0
C200 C 0.8713 0.00079 0.81427 0.0
C201 C 0.87008 0.98877 0.791 0.0
H202 H 0.89862 0.97926 0.75947 0.0
H203 H 0.95501 0.02154 0.81545 0.0
C204 C 0.10094 0.9946 0.7777 0.0
N205 N 0.06931 0.9954 0.78718 0.0
C206 C 0.12948 0.99323 0.79225 0.0
C207 C 0.09237 0.99393 0.82607 0.0
C208 C 0.0646 0.99537 0.81087 0.0
C209 C 0.12539 0.99276 0.81682 0.0
H210 H 0.10404 0.99494 0.75881 0.0
H211 H 0.0392 0.99637 0.81798 0.0
C212 C 0.93508 0.0093 0.71864 0.0
N213 N 0.88265 0.03398 0.69121 0.0
C214 C 0.92903 0.99571 0.69632 0.0
C215 C 0.91398 0.03498 0.72718 0.0
C216 C 0.90255 0.00867 0.68267 0.0
C217 C 0.88773 0.04723 0.71301 0.0
C218 C 0.0594 0.98292 0.71533 0.0
C219 C 0.06035 0.9972 0.69283 0.0
C220 C 0.0782 0.95365 0.72003 0.0
C221 C 0.07958 0.98155 0.67528 0.0
C222 C 0.09709 0.93873 0.70201 0.0
N223 N 0.09735 0.95284 0.68019 0.0
C224 C 0.01497 0.09657 0.72214 0.0
C225 C 0.99042 0.06358 0.69177 0.0
C226 C 0.01644 0.12483 0.70733 0.0
N227 N 0.00177 0.06684 0.71424 0.0
C228 C 0.99147 0.0911 0.67636 0.0
C229 C 0.00456 0.1223 0.68408 0.0
H230 H 0.02455 0.09831 0.73993 0.0
H231 H 0.98108 0.03943 0.68565 0.0
C232 C 0.99637 0.89579 0.72726 0.0
N233 N 0.99946 0.92675 0.71698 0.0
C234 C 0.99538 0.8665 0.71347 0.0
C235 C 0.00058 0.90152 0.67877 0.0
C236 C 0.00134 0.9301 0.69322 0.0
C237 C 0.99753 0.86915 0.68886 0.0
H238 H 0.99452 0.89383 0.74618 0.0
H239 H 0.00324 0.95504 0.68546 0.0
O240 O 0.00228 0.0378 0.76929 0.0
O241 O 0.99687 0.95857 0.7706 0.0
O242 O 0.96103 0.99697 0.73219 0.0
O243 O 0.04036 0.99768 0.73267 0.0
H244 H 0.02057 0.05426 0.81264 0.0
H245 H 0.95794 0.08345 0.75405 0.0
H246 H 0.99792 0.1031 0.83513 0.0
H247 H 0.93606 0.13151 0.7776 0.0
H248 H 0.0726 0.88308 0.80063 0.0
H249 H 0.9733 0.95666 0.81422 0.0
H250 H 0.04912 0.91654 0.76748 0.0
H251 H 0.99793 0.92237 0.84654 0.0
H252 H 0.90477 0.02182 0.84094 0.0
H253 H 0.8467 0.97929 0.78346 0.0
H254 H 0.15444 0.99208 0.78434 0.0
H255 H 0.08802 0.99414 0.84488 0.0
H256 H 0.94473 0.97552 0.68952 0.0
H257 H 0.91745 0.04499 0.74468 0.0
H258 H 0.8978 0.99856 0.66529 0.0
H259 H 0.87129 0.06716 0.71941 0.0
H260 H 0.04631 0.02003 0.68891 0.0
H261 H 0.07817 0.94253 0.73739 0.0
H262 H 0.08036 0.99222 0.65776 0.0
H263 H 0.11156 0.91594 0.70539 0.0
H264 H 0.02731 0.1482 0.7139 0.0
H265 H 0.98191 0.08799 0.65863 0.0
H266 H 0.99325 0.84204 0.722 0.0
H267 H 0.00175 0.9048 0.65987 0.0
C268 C 0.33421 0.98305 0.08038 0.0
C269 C 0.34727 0.01296 0.07045 0.0
C270 C 0.30511 0.98393 0.09443 0.0
C271 C 0.28844 0.01486 0.09889 0.0
C272 C 0.30116 0.04459 0.08858 0.0
C273 C 0.33034 0.04373 0.07464 0.0
C274 C 0.2573 0.01709 0.11358 0.0
C275 C 0.24962 0.99473 0.13073 0.0
C276 C 0.21863 0.99687 0.14565 0.0
C277 C 0.20804 0.96777 0.15785 0.0
C278 C 0.17916 0.96848 0.1721 0.0
C279 C 0.16021 0.99845 0.17457 0.0
H280 H 0.20772 0.05046 0.14017 0.0
C281 C 0.17102 0.02775 0.16267 0.0
C282 C 0.19996 0.02707 0.14847 0.0
H283 H 0.15738 0.05142 0.16461 0.0
H284 H 0.34671 0.95895 0.07751 0.0
H285 H 0.29557 0.96027 0.10141 0.0
H286 H 0.28863 0.06869 0.09146 0.0
H287 H 0.33945 0.06713 0.06693 0.0
H288 H 0.24066 0.03844 0.11022 0.0
H289 H 0.26656 0.97356 0.13404 0.0
H290 H 0.22198 0.94421 0.15618 0.0
H291 H 0.17137 0.94539 0.18087 0.0
C292 C 0.0028 0.31757 0.56609 0.0
C293 C 0.99541 0.35042 0.5742 0.0
C294 C 0.00207 0.2899 0.58149 0.0
C295 C 0.99412 0.29454 0.60543 0.0
C296 C 0.98637 0.3273 0.61342 0.0
C297 C 0.98717 0.35493 0.59805 0.0
C298 C 0.99259 0.26594 0.62249 0.0
C299 C 0.00949 0.23649 0.61968 0.0
C300 C 0.00796 0.20786 0.63674 0.0
C301 C 0.0166 0.17523 0.6289 0.0
C302 C 0.01554 0.14754 0.64422 0.0
C303 C 0.00606 0.15186 0.66787 0.0
H304 H 0.99322 0.23709 0.66759 0.0
C305 C 0.998 0.1846 0.67587 0.0
C306 C 0.99901 0.21231 0.66053 0.0
H307 H 0.99053 0.18879 0.69397 0.0
H308 H 0.00858 0.31312 0.54773 0.0
H309 H 0.00705 0.26497 0.57438 0.0
H310 H 0.97999 0.33163 0.63171 0.0
H311 H 0.98174 0.37992 0.60498 0.0
H312 H 0.9772 0.26983 0.63807 0.0
H313 H 0.02489 0.23269 0.60408 0.0
H314 H 0.024 0.17107 0.61077 0.0
H315 H 0.02252 0.12278 0.63757 0.0
C316 C 0.66401 0.98419 0.08153 0.0
C317 C 0.64959 0.01457 0.07329 0.0
C318 C 0.69218 0.98473 0.09648 0.0
C319 C 0.70671 0.01575 0.10345 0.0
C320 C 0.69219 0.04607 0.09532 0.0
C321 C 0.66408 0.04552 0.08033 0.0
C322 C 0.73606 0.01757 0.11986 0.0
C323 C 0.75883 0.99236 0.12251 0.0
C324 C 0.78821 0.99436 0.13888 0.0
C325 C 0.81706 0.97461 0.13424 0.0
C326 C 0.84508 0.97557 0.14929 0.0
C327 C 0.84471 0.99603 0.16953 0.0
H328 H 0.76554 0.02939 0.16389 0.0
C329 C 0.81563 0.01541 0.17441 0.0
C330 C 0.78766 0.01458 0.15929 0.0
H331 H 0.81458 0.03148 0.18984 0.0
H332 H 0.65304 0.95993 0.07687 0.0
H333 H 0.70185 0.96083 0.10296 0.0
H334 H 0.70272 0.07032 0.10049 0.0
H335 H 0.65385 0.06939 0.07413 0.0
H336 H 0.73977 0.04126 0.12925 0.0
H337 H 0.75704 0.96997 0.11147 0.0
H338 H 0.81802 0.95849 0.11882 0.0
H339 H 0.86689 0.95992 0.14524 0.0
C340 C 0.97949 0.66659 0.57817 0.0
C341 C 0.00921 0.64903 0.57196 0.0
C342 C 0.98107 0.69539 0.59247 0.0
C343 C 0.01246 0.70717 0.60102 0.0
C344 C 0.04214 0.68986 0.59457 0.0
C345 C 0.04056 0.66104 0.58032 0.0
C346 C 0.0154 0.73795 0.61598 0.0
C347 C 0.99005 0.74959 0.62968 0.0
C348 C 0.99308 0.78024 0.64478 0.0
C349 C 0.97154 0.78351 0.66431 0.0
C350 C 0.97318 0.81216 0.67873 0.0
C351 C 0.9962 0.83842 0.67378 0.0
H352 H 0.03235 0.80565 0.62446 0.0
C353 C 0.01756 0.83534 0.6541 0.0
C354 C 0.016 0.80664 0.63972 0.0
H355 H 0.03566 0.85507 0.64986 0.0
H356 H 0.95501 0.65844 0.57163 0.0
H357 H 0.9577 0.70865 0.59633 0.0
H358 H 0.06667 0.69847 0.60076 0.0
H359 H 0.06392 0.64794 0.57608 0.0
H360 H 0.03998 0.75036 0.61652 0.0
H361 H 0.96656 0.73531 0.63087 0.0
H362 H 0.95338 0.76378 0.66847 0.0
H363 H 0.95598 0.81399 0.69352 0.0
C364 C 0.33446 0.97734 0.92252 0.0
C365 C 0.35058 0.00762 0.92927 0.0
C366 C 0.30657 0.97792 0.90731 0.0
C367 C 0.29399 0.00891 0.89861 0.0
C368 C 0.31028 0.03909 0.90523 0.0
C369 C 0.33814 0.0385 0.92044 0.0
C370 C 0.26486 0.01084 0.88198 0.0
C371 C 0.24118 0.98636 0.87979 0.0
C372 C 0.21191 0.98866 0.86331 0.0
C373 C 0.1828 0.96928 0.86796 0.0
C374 C 0.15477 0.97061 0.85292 0.0
C375 C 0.15532 0.99116 0.83271 0.0
H376 H 0.23497 0.02336 0.83821 0.0
C377 C 0.18467 0.01013 0.82781 0.0
C378 C 0.21269 0.00885 0.84288 0.0
H379 H 0.1859 0.0263 0.81243 0.0
H380 H 0.34334 0.95312 0.92907 0.0
H381 H 0.29548 0.95398 0.90216 0.0
H382 H 0.30143 0.06329 0.89861 0.0
H383 H 0.3503 0.06225 0.92493 0.0
H384 H 0.26214 0.03415 0.872 0.0
H385 H 0.24208 0.96443 0.89131 0.0
H386 H 0.18163 0.95317 0.88338 0.0
H387 H 0.1328 0.9552 0.85699 0.0
C388 C 0.9989 0.31739 0.43683 0.0
C389 C 0.0069 0.35 0.42854 0.0
C390 C 0.99895 0.28957 0.42156 0.0
C391 C 0.00678 0.29384 0.39755 0.0
C392 C 0.01496 0.32641 0.38937 0.0
C393 C 0.01489 0.35417 0.40462 0.0
C394 C 0.00783 0.2651 0.38059 0.0
C395 C 0.99151 0.23541 0.38384 0.0
C396 C 0.99284 0.2068 0.36679 0.0
C397 C 0.98602 0.17388 0.37491 0.0
C398 C 0.98705 0.14623 0.35956 0.0
C399 C 0.99463 0.15089 0.33561 0.0
H400 H 0.0042 0.23656 0.33549 0.0
C401 C 0.00085 0.1839 0.32736 0.0
C402 C 0.99989 0.21157 0.34272 0.0
H403 H 0.00683 0.18837 0.30902 0.0
H404 H 0.99325 0.31322 0.45525 0.0
H405 H 0.99358 0.26483 0.42884 0.0
H406 H 0.02122 0.33049 0.37103 0.0
H407 H 0.02076 0.37899 0.39757 0.0
H408 H 0.02253 0.26901 0.36469 0.0
H409 H 0.97691 0.23134 0.39977 0.0
H410 H 0.9801 0.16947 0.39327 0.0
H411 H 0.98151 0.12122 0.36642 0.0
C412 C 0.66921 0.98464 0.92615 0.0
C413 C 0.65055 0.01405 0.93137 0.0
C414 C 0.69784 0.98626 0.91169 0.0
C415 C 0.70825 0.01737 0.90186 0.0
C416 C 0.68978 0.04677 0.90735 0.0
C417 C 0.66125 0.04516 0.92189 0.0
C418 C 0.73862 0.02051 0.88641 0.0
C419 C 0.75261 0.99426 0.87469 0.0
C420 C 0.7829 0.99726 0.85914 0.0
C421 C 0.78975 0.97091 0.84323 0.0
C422 C 0.8182 0.97214 0.8286 0.0
C423 C 0.84066 0.99979 0.82955 0.0
H424 H 0.80197 0.04533 0.87263 0.0
C425 C 0.83393 0.02615 0.84553 0.0
C426 C 0.80554 0.02486 0.86025 0.0
H427 H 0.85057 0.04794 0.84666 0.0
H428 H 0.66198 0.9604 0.93359 0.0
H429 H 0.71192 0.96314 0.9087 0.0
H430 H 0.69727 0.07111 0.90021 0.0
H431 H 0.64726 0.06824 0.92542 0.0
H432 H 0.7487 0.04584 0.88393 0.0
H433 H 0.74073 0.9695 0.87566 0.0
H434 H 0.77305 0.94914 0.84213 0.0
H435 H 0.82289 0.95106 0.81684 0.0
C436 C 0.98139 0.66404 0.4225 0.0
C437 C 0.01151 0.6496 0.43117 0.0
C438 C 0.98234 0.69302 0.40835 0.0
C439 C 0.01355 0.70811 0.40238 0.0
C440 C 0.04358 0.69392 0.41132 0.0
C441 C 0.04262 0.66494 0.42546 0.0
C442 C 0.01583 0.73916 0.38758 0.0
C443 C 0.99151 0.7488 0.37227 0.0
C444 C 0.99386 0.77975 0.35737 0.0
C445 C 0.97389 0.78176 0.33696 0.0
C446 C 0.97492 0.81054 0.32262 0.0
C447 C 0.9958 0.83816 0.32847 0.0
H448 H 0.02957 0.80759 0.37929 0.0
C449 C 0.01557 0.83632 0.34903 0.0
C450 C 0.01454 0.80755 0.36337 0.0
H451 H 0.03206 0.85708 0.35401 0.0
H452 H 0.957 0.65278 0.42648 0.0
H453 H 0.95851 0.70366 0.40248 0.0
H454 H 0.06795 0.70522 0.40728 0.0
H455 H 0.06626 0.65481 0.43217 0.0
H456 H 0.03922 0.75358 0.38865 0.0
H457 H 0.96954 0.73267 0.36962 0.0
H458 H 0.95742 0.76094 0.33203 0.0
H459 H 0.95892 0.81134 0.30713 0.0
loop_
_geom_bond_atom_site_label_1
_geom_bond_atom_site_label_2
_geom_bond_distance
_geom_bond_site_symmetry_2
_ccdc_geom_bond_type
C0 C1 1.366 1_545 S
C0 C2 1.384 . S
C0 H28 0.931 . S
C1 C0 1.366 1_565 S
C1 C4 1.401 . S
C2 C0 1.384 . S
C2 C3 1.381 1_545 S
C2 H29 0.930 . S
C3 C2 1.381 1_565 S
C3 C5 1.381 . S
C3 C6 1.487 . S
C4 C1 1.401 . S
C4 C5 1.387 . S
C4 H30 0.930 . S
C5 C3 1.381 . S
C5 C4 1.387 . S
C5 H31 0.931 . S
C6 C3 1.487 . S
C6 C13 1.399 1_566 S
C6 N44 1.343 . S
C7 C8 1.384 1_565 S
C7 C9 1.384 . S
C7 H32 0.931 . S
C8 C7 1.384 1_545 S
C8 C11 1.382 . S
C9 C7 1.384 . S
C9 C10 1.381 1_565 S
C9 H33 0.930 . S
C10 C9 1.381 1_545 S
C10 C12 1.381 . S
C10 C13 1.487 . S
C11 C8 1.382 . S
C11 C12 1.387 . S
C11 H34 0.930 . S
C12 C10 1.381 . S
C12 C11 1.387 . S
C12 H35 0.931 . S
C13 C6 1.399 1_544 S
C13 C10 1.487 . S
C13 N45 1.343 . S
C14 C15 1.384 1_565 S
C14 C16 1.384 . S
C14 H36 0.931 . S
C15 C14 1.384 1_545 S
C15 C18 1.382 . S
C16 C14 1.384 . S
C16 C17 1.381 1_565 S
C16 H37 0.930 . S
C17 C16 1.381 1_545 S
C17 C19 1.381 . S
C17 C20 1.487 . S
C18 C15 1.382 . S
C18 C19 1.387 . S
C18 H38 0.930 . S
C19 C17 1.381 . S
C19 C18 1.387 . S
C19 H39 0.931 . S
C20 C17 1.487 . S
C20 C27 1.399 1_544 S
C20 N45 1.343 . S
C21 C22 1.366 1_545 S
C21 C23 1.384 . S
C21 H40 0.931 . S
C22 C21 1.366 1_565 S
C22 C25 1.401 . S
C23 C21 1.384 . S
C23 C24 1.381 1_545 S
C23 H41 0.930 . S
C24 C23 1.381 1_565 S
C24 C26 1.381 . S
C24 C27 1.487 . S
C25 C22 1.401 . S
C25 C26 1.387 . S
C25 H42 0.930 . S
C26 C24 1.381 . S
C26 C25 1.387 . S
C26 H43 0.931 . S
C27 C20 1.399 1_566 S
C27 C24 1.487 . S
C27 N44 1.343 . S
H28 C0 0.931 . S
H29 C2 0.930 . S
H30 C4 0.930 . S
H31 C5 0.931 . S
H32 C7 0.931 . S
H33 C9 0.930 . S
H34 C11 0.930 . S
H35 C12 0.931 . S
H36 C14 0.931 . S
H37 C16 0.930 . S
H38 C18 0.930 . S
H39 C19 0.931 . S
H40 C21 0.931 . S
H41 C23 0.930 . S
H42 C25 0.930 . S
H43 C26 0.931 . S
N44 C6 1.343 . S
N44 C27 1.343 . S
N45 C13 1.343 . S
N45 C20 1.343 . S
C46 C47 1.366 1_455 S
C46 C48 1.384 . S
C46 H74 0.931 . S
C47 C46 1.366 1_655 S
C47 C50 1.401 . S
C48 C46 1.384 . S
C48 C49 1.381 1_455 S
C48 H75 0.930 . S
C49 C48 1.381 1_655 S
C49 C51 1.381 . S
C49 C52 1.487 . S
C50 C47 1.401 . S
C50 C51 1.387 . S
C50 H76 0.930 . S
C51 C49 1.381 . S
C51 C50 1.387 . S
C51 H77 0.931 . S
C52 C49 1.487 . S
C52 C59 1.399 1_655 S
C52 N90 1.343 . S
C53 C54 1.384 1_655 S
C53 C55 1.384 . S
C53 H78 0.931 . S
C54 C53 1.384 1_455 S
C54 C57 1.382 . S
C55 C53 1.384 . S
C55 C56 1.381 1_655 S
C55 H79 0.930 . S
C56 C55 1.381 1_455 S
C56 C58 1.381 . S
C56 C59 1.487 . S
C57 C54 1.382 . S
C57 C58 1.387 . S
C57 H80 0.930 . S
C58 C56 1.381 . S
C58 C57 1.387 . S
C58 H81 0.931 . S
C59 C52 1.399 1_455 S
C59 C56 1.487 . S
C59 N91 1.343 . S
C60 C61 1.384 1_655 S
C60 C62 1.384 . S
C60 H82 0.931 . S
C61 C60 1.384 1_455 S
C61 C64 1.382 . S
C62 C60 1.384 . S
C62 C63 1.381 1_655 S
C62 H83 0.930 . S
C63 C62 1.381 1_455 S
C63 C65 1.381 . S
C63 C66 1.487 . S
C64 C61 1.382 . S
C64 C65 1.387 . S
C64 H84 0.930 . S
C65 C63 1.381 . S
C65 C64 1.387 . S
C65 H85 0.931 . S
C66 C63 1.487 . S
C66 C73 1.399 1_455 S
C66 N91 1.343 . S
C67 C68 1.366 1_455 S
C67 C69 1.384 . S
C67 H86 0.931 . S
C68 C67 1.366 1_655 S
C68 C71 1.401 . S
C69 C67 1.384 . S
C69 C70 1.381 1_455 S
C69 H87 0.930 . S
C70 C69 1.381 1_655 S
C70 C72 1.381 . S
C70 C73 1.487 . S
C71 C68 1.401 . S
C71 C72 1.387 . S
C71 H88 0.930 . S
C72 C70 1.381 . S
C72 C71 1.387 . S
C72 H89 0.931 . S
C73 C66 1.399 1_655 S
C73 C70 1.487 . S
C73 N90 1.343 . S
H74 C46 0.931 . S
H75 C48 0.930 . S
H76 C50 0.930 . S
H77 C51 0.931 . S
H78 C53 0.931 . S
H79 C55 0.930 . S
H80 C57 0.930 . S
H81 C58 0.931 . S
H82 C60 0.931 . S
H83 C62 0.930 . S
H84 C64 0.930 . S
H85 C65 0.931 . S
H86 C67 0.931 . S
H87 C69 0.930 . S
H88 C71 0.930 . S
H89 C72 0.931 . S
N90 C52 1.343 . S
N90 C73 1.343 . S
N91 C59 1.343 . S
N91 C66 1.343 . S
Li92 N109 1.990 . S
Li92 O152 1.956 1_545 S
Li92 O153 1.970 1_455 S
Li92 O154 1.961 1_455 S
Li93 N117 1.990 . S
Li93 O152 1.970 1_655 S
Li93 O153 1.956 1_565 S
Li93 O155 1.961 1_655 S
Li94 N139 1.990 . S
Li94 O152 1.961 1_545 S
Li94 O154 1.956 1_455 S
Li94 O155 1.970 1_545 S
Li95 N145 1.990 . S
Li95 O153 1.961 1_565 S
Li95 O154 1.970 1_565 S
Li95 O155 1.956 1_655 S
C96 C98 1.348 1_545 S
C96 C99 1.356 . S
C96 O152 1.325 1_545 S
N97 C100 1.314 1_545 S
N97 C101 1.279 . S
C98 C96 1.348 1_565 S
C98 C100 1.353 . S
C98 H156 0.929 . S
C99 C96 1.356 . S
C99 C101 1.358 . S
C99 H157 0.930 . S
C100 N97 1.314 1_565 S
C100 C98 1.353 . S
C100 H158 0.930 . S
C101 N97 1.279 . S
C101 C99 1.358 . S
C101 H159 0.930 . S
C102 C105 1.348 . S
C102 C106 1.356 1_545 S
C102 O153 1.325 . S
C103 N104 1.279 . S
C103 C106 1.358 . S
C103 H160 0.930 . S
N104 C103 1.279 . S
N104 C107 1.314 1_565 S
C105 C102 1.348 . S
C105 C107 1.353 . S
C105 H161 0.929 . S
C106 C102 1.356 1_565 S
C106 C103 1.358 . S
C106 H162 0.930 . S
C107 N104 1.314 1_545 S
C107 C105 1.353 . S
C107 H163 0.930 . S
C108 N109 1.314 1_655 S
C108 C113 1.353 . S
C108 H114 0.930 . S
N109 Li92 1.990 . S
N109 C108 1.314 1_455 S
N109 C111 1.279 . S
C110 C111 1.358 . S
C110 C112 1.356 . S
C110 H164 0.930 . S
C111 N109 1.279 . S
C111 C110 1.358 . S
C111 H115 0.930 . S
C112 C110 1.356 . S
C112 C113 1.348 1_455 S
C113 C108 1.353 . S
C113 C112 1.348 1_655 S
C113 H165 0.929 . S
H114 C108 0.930 . S
H115 C111 0.930 . S
C116 N117 1.314 1_455 S
C116 C118 1.353 . S
C116 H122 0.930 . S
N117 Li93 1.990 . S
N117 C116 1.314 1_655 S
N117 C120 1.279 . S
C118 C116 1.353 . S
C118 C121 1.348 . S
C118 H166 0.929 . S
C119 C120 1.358 . S
C119 C121 1.356 1_655 S
C119 H167 0.930 . S
C120 N117 1.279 . S
C120 C119 1.358 . S
C120 H123 0.930 . S
C121 C118 1.348 . S
C121 C119 1.356 1_455 S
H122 C116 0.930 . S
H123 C120 0.930 . S
C124 C126 1.348 1_455 S
C124 C127 1.356 . S
C124 O154 1.325 1_455 S
N125 C128 1.314 1_455 S
N125 C129 1.279 . S
C126 C124 1.348 1_655 S
C126 C128 1.353 . S
C126 H168 0.929 . S
C127 C124 1.356 . S
C127 C129 1.358 . S
C127 H169 0.930 . S
C128 N125 1.314 1_655 S
C128 C126 1.353 . S
C128 H170 0.930 . S
C129 N125 1.279 . S
C129 C127 1.358 . S
C129 H171 0.930 . S
C130 C131 1.348 . S
C130 C132 1.356 1_455 S
C130 O155 1.325 . S
C131 C130 1.348 . S
C131 C133 1.353 . S
C131 H172 0.929 . S
C132 C130 1.356 1_655 S
C132 C134 1.358 . S
C132 H173 0.930 . S
C133 C131 1.353 . S
C133 N135 1.314 1_455 S
C133 H174 0.930 . S
C134 C132 1.358 . S
C134 N135 1.279 . S
C134 H175 0.930 . S
N135 C133 1.314 1_655 S
N135 C134 1.279 . S
C136 C138 1.353 . S
C136 N139 1.314 1_565 S
C136 H142 0.930 . S
C137 N139 1.279 . S
C137 C140 1.358 . S
C137 H143 0.930 . S
C138 C136 1.353 . S
C138 C141 1.348 1_565 S
C138 H176 0.929 . S
N139 Li94 1.990 . S
N139 C136 1.314 1_545 S
N139 C137 1.279 . S
C140 C137 1.358 . S
C140 C141 1.356 . S
C140 H177 0.930 . S
C141 C138 1.348 1_545 S
C141 C140 1.356 . S
H142 C136 0.930 . S
H143 C137 0.930 . S
C144 N145 1.314 1_545 S
C144 C146 1.353 . S
C144 H150 0.930 . S
N145 Li95 1.990 . S
N145 C144 1.314 1_565 S
N145 C148 1.279 . S
C146 C144 1.353 . S
C146 C149 1.348 . S
C146 H178 0.929 . S
C147 C148 1.358 . S
C147 C149 1.356 1_565 S
C147 H179 0.930 . S
C148 N145 1.279 . S
C148 C147 1.358 . S
C148 H151 0.930 . S
C149 C146 1.348 . S
C149 C147 1.356 1_545 S
H150 C144 0.930 . S
H151 C148 0.930 . S
O152 Li92 1.956 1_565 S
O152 Li93 1.970 1_455 S
O152 Li94 1.961 1_565 S
O152 C96 1.325 1_565 S
O153 Li92 1.970 1_655 S
O153 Li93 1.956 1_545 S
O153 Li95 1.961 1_545 S
O153 C102 1.325 . S
O154 Li92 1.961 1_655 S
O154 Li94 1.956 1_655 S
O154 Li95 1.970 1_545 S
O154 C124 1.325 1_655 S
O155 Li93 1.961 1_455 S
O155 Li94 1.970 1_565 S
O155 Li95 1.956 1_455 S
O155 C130 1.325 . S
H156 C98 0.929 . S
H157 C99 0.930 . S
H158 C100 0.930 . S
H159 C101 0.930 . S
H160 C103 0.930 . S
H161 C105 0.929 . S
H162 C106 0.930 . S
H163 C107 0.930 . S
H164 C110 0.930 . S
H165 C113 0.929 . S
H166 C118 0.929 . S
H167 C119 0.930 . S
H168 C126 0.929 . S
H169 C127 0.930 . S
H170 C128 0.930 . S
H171 C129 0.930 . S
H172 C131 0.929 . S
H173 C132 0.930 . S
H174 C133 0.930 . S
H175 C134 0.930 . S
H176 C138 0.929 . S
H177 C140 0.930 . S
H178 C146 0.929 . S
H179 C147 0.930 . S
Li180 N197 1.990 . S
Li180 O240 1.956 1_655 S
Li180 O241 1.970 1_545 S
Li180 O242 1.961 1_545 S
Li181 N205 1.990 . S
Li181 O240 1.970 1_565 S
Li181 O241 1.956 1_455 S
Li181 O243 1.961 1_565 S
Li182 N227 1.990 . S
Li182 O240 1.961 1_655 S
Li182 O242 1.956 1_545 S
Li182 O243 1.970 1_655 S
Li183 N233 1.990 . S
Li183 O241 1.961 1_455 S
Li183 O242 1.970 1_455 S
Li183 O243 1.956 1_565 S
C184 C186 1.348 . S
C184 C187 1.356 1_455 S
C184 O240 1.325 . S
N185 C188 1.314 1_655 S
N185 C189 1.279 . S
C186 C184 1.348 . S
C186 C188 1.353 . S
C186 H244 0.929 . S
C187 C184 1.356 1_655 S
C187 C189 1.358 . S
C187 H245 0.930 . S
C188 N185 1.314 1_455 S
C188 C186 1.353 . S
C188 H246 0.930 . S
C189 N185 1.279 . S
C189 C187 1.358 . S
C189 H247 0.930 . S
C190 C193 1.348 1_455 S
C190 C194 1.356 . S
C190 O241 1.325 1_455 S
C191 N192 1.279 . S
C191 C194 1.358 . S
C191 H248 0.930 . S
N192 C191 1.279 . S
N192 C195 1.314 1_455 S
C193 C190 1.348 1_655 S
C193 C195 1.353 . S
C193 H249 0.929 . S
C194 C190 1.356 . S
C194 C191 1.358 . S
C194 H250 0.930 . S
C195 N192 1.314 1_655 S
C195 C193 1.353 . S
C195 H251 0.930 . S
C196 N197 1.314 1_565 S
C196 C201 1.353 . S
C196 H202 0.930 . S
N197 Li180 1.990 . S
N197 C196 1.314 1_545 S
N197 C199 1.279 . S
C198 C199 1.358 . S
C198 C200 1.356 . S
C198 H252 0.930 . S
C199 N197 1.279 . S
C199 C198 1.358 . S
C199 H203 0.930 . S
C200 C198 1.356 . S
C200 C201 1.348 1_545 S
C201 C196 1.353 . S
C201 C200 1.348 1_565 S
C201 H253 0.929 . S
H202 C196 0.930 . S
H203 C199 0.930 . S
C204 N205 1.314 1_545 S
C204 C206 1.353 . S
C204 H210 0.930 . S
N205 Li181 1.990 . S
N205 C204 1.314 1_565 S
N205 C208 1.279 . S
C206 C204 1.353 . S
C206 C209 1.348 . S
C206 H254 0.929 . S
C207 C208 1.358 . S
C207 C209 1.356 1_565 S
C207 H255 0.930 . S
C208 N205 1.279 . S
C208 C207 1.358 . S
C208 H211 0.930 . S
C209 C206 1.348 . S
C209 C207 1.356 1_545 S
H210 C204 0.930 . S
H211 C208 0.930 . S
C212 C214 1.348 1_545 S
C212 C215 1.356 . S
C212 O242 1.325 1_545 S
N213 C216 1.314 1_545 S
N213 C217 1.279 . S
C214 C212 1.348 1_565 S
C214 C216 1.353 . S
C214 H256 0.929 . S
C215 C212 1.356 . S
C215 C217 1.358 . S
C215 H257 0.930 . S
C216 N213 1.314 1_565 S
C216 C214 1.353 . S
C216 H258 0.930 . S
C217 N213 1.279 . S
C217 C215 1.358 . S
C217 H259 0.930 . S
C218 C219 1.348 . S
C218 C220 1.356 1_545 S
C218 O243 1.325 . S
C219 C218 1.348 . S
C219 C221 1.353 . S
C219 H260 0.929 . S
C220 C218 1.356 1_565 S
C220 C222 1.358 . S
C220 H261 0.930 . S
C221 C219 1.353 . S
C221 N223 1.314 1_545 S
C221 H262 0.930 . S
C222 C220 1.358 . S
C222 N223 1.279 . S
C222 H263 0.930 . S
N223 C221 1.314 1_565 S
N223 C222 1.279 . S
C224 C226 1.353 . S
C224 N227 1.314 1_455 S
C224 H230 0.930 . S
C225 N227 1.279 . S
C225 C228 1.358 . S
C225 H231 0.930 . S
C226 C224 1.353 . S
C226 C229 1.348 . S
C226 H264 0.929 . S
N227 Li182 1.990 . S
N227 C224 1.314 1_655 S
N227 C225 1.279 . S
C228 C225 1.358 . S
C228 C229 1.356 1_655 S
C228 H265 0.930 . S
C229 C226 1.348 . S
C229 C228 1.356 1_455 S
H230 C224 0.930 . S
H231 C225 0.930 . S
C232 N233 1.314 1_655 S
C232 C234 1.353 . S
C232 H238 0.930 . S
N233 Li183 1.990 . S
N233 C232 1.314 1_455 S
N233 C236 1.279 . S
C234 C232 1.353 . S
C234 C237 1.348 1_655 S
C234 H266 0.929 . S
C235 C236 1.358 . S
C235 C237 1.356 . S
C235 H267 0.930 . S
C236 N233 1.279 . S
C236 C235 1.358 . S
C236 H239 0.930 . S
C237 C234 1.348 1_455 S
C237 C235 1.356 . S
H238 C232 0.930 . S
H239 C236 0.930 . S
O240 Li180 1.956 1_455 S
O240 Li181 1.970 1_545 S
O240 Li182 1.961 1_455 S
O240 C184 1.325 . S
O241 Li180 1.970 1_565 S
O241 Li181 1.956 1_655 S
O241 Li183 1.961 1_655 S
O241 C190 1.325 1_655 S
O242 Li180 1.961 1_565 S
O242 Li182 1.956 1_565 S
O242 Li183 1.970 1_655 S
O242 C212 1.325 1_565 S
O243 Li181 1.961 1_545 S
O243 Li182 1.970 1_455 S
O243 Li183 1.956 1_545 S
O243 C218 1.325 . S
H244 C186 0.929 . S
H245 C187 0.930 . S
H246 C188 0.930 . S
H247 C189 0.930 . S
H248 C191 0.930 . S
H249 C193 0.929 . S
H250 C194 0.930 . S
H251 C195 0.930 . S
H252 C198 0.930 . S
H253 C201 0.929 . S
H254 C206 0.929 . S
H255 C207 0.930 . S
H256 C214 0.929 . S
H257 C215 0.930 . S
H258 C216 0.930 . S
H259 C217 0.930 . S
H260 C219 0.929 . S
H261 C220 0.930 . S
H262 C221 0.930 . S
H263 C222 0.930 . S
H264 C226 0.929 . S
H265 C228 0.930 . S
H266 C234 0.929 . S
H267 C235 0.930 . S
C268 C269 1.386 1_565 S
C268 C270 1.383 . S
C268 H284 0.951 . S
C269 C268 1.386 1_545 S
C269 C273 1.383 . S
C270 C268 1.383 . S
C270 C271 1.402 1_565 S
C270 H285 0.951 . S
C271 C270 1.402 1_545 S
C271 C272 1.375 . S
C271 C274 1.481 . S
C272 C271 1.375 . S
C272 C273 1.367 . S
C272 H286 0.951 . S
C273 C269 1.383 . S
C273 C272 1.367 . S
C273 H287 0.950 . S
C274 C271 1.481 . S
C274 C275 1.297 1_545 S
C274 H288 0.950 . S
C275 C274 1.297 1_565 S
C275 C276 1.479 . S
C275 H289 0.950 . S
C276 C275 1.479 . S
C276 C277 1.375 . S
C276 C282 1.404 1_565 S
C277 C276 1.375 . S
C277 C278 1.369 . S
C277 H290 0.950 . S
C278 C277 1.369 . S
C278 C279 1.396 . S
C278 H291 0.951 . S
C279 C278 1.396 . S
C279 C281 1.381 1_565 S
H280 C282 0.949 . S
C281 C279 1.381 1_545 S
C281 C282 1.385 . S
C281 H283 0.950 . S
C282 C276 1.404 1_545 S
C282 H280 0.949 . S
C282 C281 1.385 . S
H283 C281 0.950 . S
H284 C268 0.951 . S
H285 C270 0.951 . S
H286 C272 0.951 . S
H287 C273 0.950 . S
H288 C274 0.950 . S
H289 C275 0.950 . S
H290 C277 0.950 . S
H291 C278 0.951 . S
C292 C293 1.387 1_455 S
C292 C294 1.383 . S
C292 H308 0.951 . S
C293 C292 1.387 1_655 S
C293 C297 1.381 . S
C294 C292 1.383 . S
C294 C295 1.388 1_455 S
C294 H309 0.951 . S
C295 C294 1.388 1_655 S
C295 C296 1.389 . S
C295 C298 1.482 . S
C296 C295 1.389 . S
C296 C297 1.367 . S
C296 H310 0.951 . S
C297 C293 1.381 . S
C297 C296 1.367 . S
C297 H311 0.950 . S
C298 C295 1.482 . S
C298 C299 1.297 1_655 S
C298 H312 0.950 . S
C299 C298 1.297 1_455 S
C299 C300 1.479 . S
C299 H313 0.950 . S
C300 C299 1.479 . S
C300 C301 1.375 . S
C300 C306 1.404 1_455 S
C301 C300 1.375 . S
C301 C302 1.369 . S
C301 H314 0.950 . S
C302 C301 1.369 . S
C302 C303 1.392 . S
C302 H315 0.951 . S
C303 C302 1.392 . S
C303 C305 1.384 1_455 S
H304 C306 0.949 . S
C305 C303 1.384 1_655 S
C305 C306 1.385 . S
C305 H307 0.950 . S
C306 C300 1.404 1_655 S
C306 H304 0.949 . S
C306 C305 1.385 . S
H307 C305 0.950 . S
H308 C292 0.951 . S
H309 C294 0.951 . S
H310 C296 0.951 . S
H311 C297 0.950 . S
H312 C298 0.950 . S
H313 C299 0.950 . S
H314 C301 0.950 . S
H315 C302 0.951 . S
C316 C317 1.386 1_565 S
C316 C318 1.383 . S
C316 H332 0.951 . S
C317 C316 1.386 1_545 S
C317 C321 1.383 . S
C318 C316 1.383 . S
C318 C319 1.402 1_565 S
C318 H333 0.951 . S
C319 C318 1.402 1_545 S
C319 C320 1.375 . S
C319 C322 1.481 . S
C320 C319 1.375 . S
C320 C321 1.367 . S
C320 H334 0.951 . S
C321 C317 1.383 . S
C321 C320 1.367 . S
C321 H335 0.950 . S
C322 C319 1.481 . S
C322 C323 1.297 1_545 S
C322 H336 0.950 . S
C323 C322 1.297 1_565 S
C323 C324 1.479 . S
C323 H337 0.950 . S
C324 C323 1.479 . S
C324 C325 1.375 . S
C324 C330 1.404 1_565 S
C325 C324 1.375 . S
C325 C326 1.369 . S
C325 H338 0.950 . S
C326 C325 1.369 . S
C326 C327 1.392 . S
C326 H339 0.951 . S
C327 C326 1.392 . S
C327 C329 1.384 1_565 S
H328 C330 0.949 . S
C329 C327 1.384 1_545 S
C329 C330 1.385 . S
C329 H331 0.950 . S
C330 C324 1.404 1_545 S
C330 H328 0.949 . S
C330 C329 1.385 . S
H331 C329 0.950 . S
H332 C316 0.951 . S
H333 C318 0.951 . S
H334 C320 0.951 . S
H335 C321 0.950 . S
H336 C322 0.950 . S
H337 C323 0.950 . S
H338 C325 0.950 . S
H339 C326 0.951 . S
C340 C341 1.386 1_655 S
C340 C342 1.383 . S
C340 H356 0.951 . S
C341 C340 1.386 1_455 S
C341 C345 1.383 . S
C342 C340 1.383 . S
C342 C343 1.402 1_655 S
C342 H357 0.951 . S
C343 C342 1.402 1_455 S
C343 C344 1.375 . S
C343 C346 1.481 . S
C344 C343 1.375 . S
C344 C345 1.367 . S
C344 H358 0.951 . S
C345 C341 1.383 . S
C345 C344 1.367 . S
C345 H359 0.950 . S
C346 C343 1.481 . S
C346 C347 1.297 1_455 S
C346 H360 0.950 . S
C347 C346 1.297 1_655 S
C347 C348 1.479 1_655 S
C347 H361 0.950 . S
C348 C347 1.479 1_455 S
C348 C349 1.375 1_455 S
C348 C354 1.404 . S
C349 C348 1.375 1_655 S
C349 C350 1.369 . S
C349 H362 0.950 . S
C350 C349 1.369 . S
C350 C351 1.369 1_655 S
C350 H363 0.951 . S
C351 C350 1.369 1_455 S
C351 C353 1.409 . S
H352 C354 0.949 . S
C353 C351 1.409 . S
C353 C354 1.385 . S
C353 H355 0.950 . S
C354 C348 1.404 . S
C354 H352 0.949 . S
C354 C353 1.385 . S
H355 C353 0.950 . S
H356 C340 0.951 . S
H357 C342 0.951 . S
H358 C344 0.951 . S
H359 C345 0.950 . S
H360 C346 0.950 . S
H361 C347 0.950 . S
H362 C349 0.950 . S
H363 C350 0.951 . S
C364 C365 1.386 1_565 S
C364 C366 1.383 . S
C364 H380 0.951 . S
C365 C364 1.386 1_545 S
C365 C369 1.383 . S
C366 C364 1.383 . S
C366 C367 1.402 1_565 S
C366 H381 0.951 . S
C367 C366 1.402 1_545 S
C367 C368 1.375 . S
C367 C370 1.481 . S
C368 C367 1.375 . S
C368 C369 1.367 . S
C368 H382 0.951 . S
C369 C365 1.383 . S
C369 C368 1.367 . S
C369 H383 0.950 . S
C370 C367 1.481 . S
C370 C371 1.297 1_545 S
C370 H384 0.950 . S
C371 C370 1.297 1_565 S
C371 C372 1.479 . S
C371 H385 0.950 . S
C372 C371 1.479 . S
C372 C373 1.375 . S
C372 C378 1.404 1_565 S
C373 C372 1.375 . S
C373 C374 1.369 . S
C373 H386 0.950 . S
C374 C373 1.369 . S
C374 C375 1.392 . S
C374 H387 0.951 . S
C375 C374 1.392 . S
C375 C377 1.384 1_565 S
H376 C378 0.949 . S
C377 C375 1.384 1_545 S
C377 C378 1.385 . S
C377 H379 0.950 . S
C378 C372 1.404 1_545 S
C378 H376 0.949 . S
C378 C377 1.385 . S
H379 C377 0.950 . S
H380 C364 0.951 . S
H381 C366 0.951 . S
H382 C368 0.951 . S
H383 C369 0.950 . S
H384 C370 0.950 . S
H385 C371 0.950 . S
H386 C373 0.950 . S
H387 C374 0.951 . S
C388 C389 1.372 1_655 S
C388 C390 1.383 . S
C388 H404 0.951 . S
C389 C388 1.372 1_455 S
C389 C393 1.397 . S
C390 C388 1.383 . S
C390 C391 1.402 1_655 S
C390 H405 0.951 . S
C391 C390 1.402 1_455 S
C391 C392 1.375 . S
C391 C394 1.481 . S
C392 C391 1.375 . S
C392 C393 1.367 . S
C392 H406 0.951 . S
C393 C389 1.397 . S
C393 C392 1.367 . S
C393 H407 0.950 . S
C394 C391 1.481 . S
C394 C395 1.297 1_455 S
C394 H408 0.950 . S
C395 C394 1.297 1_655 S
C395 C396 1.479 . S
C395 H409 0.950 . S
C396 C395 1.479 . S
C396 C397 1.375 . S
C396 C402 1.404 1_655 S
C397 C396 1.375 . S
C397 C398 1.369 . S
C397 H410 0.950 . S
C398 C397 1.369 . S
C398 C399 1.392 . S
C398 H411 0.951 . S
C399 C398 1.392 . S
C399 C401 1.384 1_655 S
H400 C402 0.949 . S
C401 C399 1.384 1_455 S
C401 C402 1.385 . S
C401 H403 0.950 . S
C402 C396 1.404 1_455 S
C402 H400 0.949 . S
C402 C401 1.385 . S
H403 C401 0.950 . S
H404 C388 0.951 . S
H405 C390 0.951 . S
H406 C392 0.951 . S
H407 C393 0.950 . S
H408 C394 0.950 . S
H409 C395 0.950 . S
H410 C397 0.950 . S
H411 C398 0.951 . S
C412 C413 1.386 1_565 S
C412 C414 1.383 . S
C412 H428 0.951 . S
C413 C412 1.386 1_545 S
C413 C417 1.383 . S
C414 C412 1.383 . S
C414 C415 1.402 1_565 S
C414 H429 0.951 . S
C415 C414 1.402 1_545 S
C415 C416 1.375 . S
C415 C418 1.481 . S
C416 C415 1.375 . S
C416 C417 1.367 . S
C416 H430 0.951 . S
C417 C413 1.383 . S
C417 C416 1.367 . S
C417 H431 0.950 . S
C418 C415 1.481 . S
C418 C419 1.297 1_545 S
C418 H432 0.950 . S
C419 C418 1.297 1_565 S
C419 C420 1.479 . S
C419 H433 0.950 . S
C420 C419 1.479 . S
C420 C421 1.375 . S
C420 C426 1.404 1_565 S
C421 C420 1.375 . S
C421 C422 1.369 . S
C421 H434 0.950 . S
C422 C421 1.369 . S
C422 C423 1.392 . S
C422 H435 0.951 . S
C423 C422 1.392 . S
C423 C425 1.384 1_565 S
H424 C426 0.949 . S
C425 C423 1.384 1_545 S
C425 C426 1.385 . S
C425 H427 0.950 . S
C426 C420 1.404 1_545 S
C426 H424 0.949 . S
C426 C425 1.385 . S
H427 C425 0.950 . S
H428 C412 0.951 . S
H429 C414 0.951 . S
H430 C416 0.951 . S
H431 C417 0.950 . S
H432 C418 0.950 . S
H433 C419 0.950 . S
H434 C421 0.950 . S
H435 C422 0.951 . S
C436 C437 1.378 1_655 S
C436 C438 1.383 . S
C436 H452 0.951 . S
C437 C436 1.378 1_455 S
C437 C441 1.390 . S
C438 C436 1.383 . S
C438 C439 1.402 1_655 S
C438 H453 0.951 . S
C439 C438 1.402 1_455 S
C439 C440 1.375 . S
C439 C442 1.481 . S
C440 C439 1.375 . S
C440 C441 1.367 . S
C440 H454 0.951 . S
C441 C437 1.390 . S
C441 C440 1.367 . S
C441 H455 0.950 . S
C442 C439 1.481 . S
C442 C443 1.297 1_455 S
C442 H456 0.950 . S
C443 C442 1.297 1_655 S
C443 C444 1.479 . S
C443 H457 0.950 . S
C444 C443 1.479 . S
C444 C445 1.375 . S
C444 C450 1.404 1_655 S
C445 C444 1.375 . S
C445 C446 1.369 . S
C445 H458 0.950 . S
C446 C445 1.369 . S
C446 C447 1.392 . S
C446 H459 0.951 . S
C447 C446 1.392 . S
C447 C449 1.384 1_655 S
H448 C450 0.949 . S
C449 C447 1.384 1_455 S
C449 C450 1.385 . S
C449 H451 0.950 . S
C450 C444 1.404 1_455 S
C450 H448 0.949 . S
C450 C449 1.385 . S
H451 C449 0.950 . S
H452 C436 0.951 . S
H453 C438 0.951 . S
H454 C440 0.951 . S
H455 C441 0.950 . S
H456 C442 0.950 . S
H457 C443 0.950 . S
H458 C445 0.950 . S
H459 C446 0.951 . S
C279 C141 1.479 1_565 S
C269 C15 1.480 . S
C303 C229 1.483 . S
C293 C68 1.487 . S
C327 C149 1.477 1_565 S
C317 C8 1.480 . S
C351 C237 1.478 . S
C341 C47 1.489 1_455 S
C375 C209 1.477 1_565 S
C365 C22 1.483 1_545 S
C399 C112 1.482 1_655 S
C389 C61 1.487 . S
C423 C200 1.482 1_565 S
C413 C1 1.495 1_545 S
C437 C54 1.482 . S
C447 C121 1.478 1_655 S
