# Generated by pormake.
# Topology ptr, (4,4)-cn, num edge types: 1
# Building blocks:
#     Node 0, Type 0, BuildingBlock: QUQFOY_clean_sbu_3, # of connection points: 4
#     Node 1, Type 0, BuildingBlock: QUQFOY_clean_sbu_3, # of connection points: 4
#     Node 2, Type 0, BuildingBlock: QUQFOY_clean_sbu_3, # of connection points: 4
#     Node 3, Type 0, BuildingBlock: QUQFOY_clean_sbu_3, # of connection points: 4
#     Node 4, Type 0, BuildingBlock: QUQFOY_clean_sbu_3, # of connection points: 4
#     Node 5, Type 0, BuildingBlock: QUQFOY_clean_sbu_3, # of connection points: 4
#     Node 6, Type 0, BuildingBlock: QUQFOY_clean_sbu_3, # of connection points: 4
#     Node 7, Type 0, BuildingBlock: QUQFOY_clean_sbu_3, # of connection points: 4
#     Node 8, Type 0, BuildingBlock: QUQFOY_clean_sbu_3, # of connection points: 4
#     Node 9, Type 0, BuildingBlock: QUQFOY_clean_sbu_3, # of connection points: 4
#     Node 10, Type 0, BuildingBlock: QUQFOY_clean_sbu_3, # of connection points: 4
#     Node 11, Type 0, BuildingBlock: QUQFOY_clean_sbu_3, # of connection points: 4
#     Node 12, Type 0, BuildingBlock: QUQFOY_clean_sbu_3, # of connection points: 4
#     Node 13, Type 0, BuildingBlock: QUQFOY_clean_sbu_3, # of connection points: 4
#     Node 14, Type 0, BuildingBlock: QUQFOY_clean_sbu_3, # of connection points: 4
#     Node 15, Type 0, BuildingBlock: QUQFOY_clean_sbu_3, # of connection points: 4
#     Node 16, Type 0, BuildingBlock: QUQFOY_clean_sbu_3, # of connection points: 4
#     Node 17, Type 0, BuildingBlock: QUQFOY_clean_sbu_3, # of connection points: 4
#     Node 18, Type 1, BuildingBlock: AZAVOO_clean_linker_0, # of connection points: 4
#     Node 19, Type 1, BuildingBlock: AZAVOO_clean_linker_0, # of connection points: 4
#     Node 20, Type 1, BuildingBlock: AZAVOO_clean_linker_0, # of connection points: 4
#     Node 21, Type 1, BuildingBlock: AZAVOO_clean_linker_0, # of connection points: 4
#     Node 22, Type 1, BuildingBlock: AZAVOO_clean_linker_0, # of connection points: 4
#     Node 23, Type 1, BuildingBlock: AZAVOO_clean_linker_0, # of connection points: 4
#     Node 24, Type 1, BuildingBlock: AZAVOO_clean_linker_0, # of connection points: 4
#     Node 25, Type 1, BuildingBlock: AZAVOO_clean_linker_0, # of connection points: 4
#     Node 26, Type 1, BuildingBlock: AZAVOO_clean_linker_0, # of connection points: 4
#     Node 27, Type 1, BuildingBlock: AZAVOO_clean_linker_0, # of connection points: 4
#     Node 28, Type 1, BuildingBlock: AZAVOO_clean_linker_0, # of connection points: 4
#     Node 29, Type 1, BuildingBlock: AZAVOO_clean_linker_0, # of connection points: 4
#     Node 30, Type 1, BuildingBlock: AZAVOO_clean_linker_0, # of connection points: 4
#     Node 31, Type 1, BuildingBlock: AZAVOO_clean_linker_0, # of connection points: 4
#     Node 32, Type 1, BuildingBlock: AZAVOO_clean_linker_0, # of connection points: 4
#     Node 33, Type 1, BuildingBlock: AZAVOO_clean_linker_0, # of connection points: 4
#     Node 34, Type 1, BuildingBlock: AZAVOO_clean_linker_0, # of connection points: 4
#     Node 35, Type 1, BuildingBlock: AZAVOO_clean_linker_0, # of connection points: 4
#     Edge 36, Type (0, 1), BuildingBlock: ZUJKAS_clean_linker_0, # of connection points: 2
#     Edge 37, Type (0, 1), BuildingBlock: ZUJKAS_clean_linker_0, # of connection points: 2
#     Edge 38, Type (0, 1), BuildingBlock: ZUJKAS_clean_linker_0, # of connection points: 2
#     Edge 39, Type (0, 1), BuildingBlock: ZUJKAS_clean_linker_0, # of connection points: 2
#     Edge 40, Type (0, 1), BuildingBlock: ZUJKAS_clean_linker_0, # of connection points: 2
#     Edge 41, Type (0, 1), BuildingBlock: ZUJKAS_clean_linker_0, # of connection points: 2
#     Edge 42, Type (0, 1), BuildingBlock: ZUJKAS_clean_linker_0, # of connection points: 2
#     Edge 43, Type (0, 1), BuildingBlock: ZUJKAS_clean_linker_0, # of connection points: 2
#     Edge 44, Type (0, 1), BuildingBlock: ZUJKAS_clean_linker_0, # of connection points: 2
#     Edge 45, Type (0, 1), BuildingBlock: ZUJKAS_clean_linker_0, # of connection points: 2
#     Edge 46, Type (0, 1), BuildingBlock: ZUJKAS_clean_linker_0, # of connection points: 2
#     Edge 47, Type (0, 1), BuildingBlock: ZUJKAS_clean_linker_0, # of connection points: 2
#     Edge 48, Type (0, 1), BuildingBlock: ZUJKAS_clean_linker_0, # of connection points: 2
#     Edge 49, Type (0, 1), BuildingBlock: ZUJKAS_clean_linker_0, # of connection points: 2
#     Edge 50, Type (0, 1), BuildingBlock: ZUJKAS_clean_linker_0, # of connection points: 2
#     Edge 51, Type (0, 1), BuildingBlock: ZUJKAS_clean_linker_0, # of connection points: 2
#     Edge 52, Type (0, 1), BuildingBlock: ZUJKAS_clean_linker_0, # of connection points: 2
#     Edge 53, Type (0, 1), BuildingBlock: ZUJKAS_clean_linker_0, # of connection points: 2
#     Edge 54, Type (0, 1), BuildingBlock: ZUJKAS_clean_linker_0, # of connection points: 2
#     Edge 55, Type (0, 1), BuildingBlock: ZUJKAS_clean_linker_0, # of connection points: 2
#     Edge 56, Type (0, 1), BuildingBlock: ZUJKAS_clean_linker_0, # of connection points: 2
#     Edge 57, Type (0, 1), BuildingBlock: ZUJKAS_clean_linker_0, # of connection points: 2
#     Edge 58, Type (0, 1), BuildingBlock: ZUJKAS_clean_linker_0, # of connection points: 2
#     Edge 59, Type (0, 1), BuildingBlock: ZUJKAS_clean_linker_0, # of connection points: 2
#     Edge 60, Type (0, 1), BuildingBlock: ZUJKAS_clean_linker_0, # of connection points: 2
#     Edge 61, Type (0, 1), BuildingBlock: ZUJKAS_clean_linker_0, # of connection points: 2
#     Edge 62, Type (0, 1), BuildingBlock: ZUJKAS_clean_linker_0, # of connection points: 2
#     Edge 63, Type (0, 1), BuildingBlock: ZUJKAS_clean_linker_0, # of connection points: 2
#     Edge 64, Type (0, 1), BuildingBlock: ZUJKAS_clean_linker_0, # of connection points: 2
#     Edge 65, Type (0, 1), BuildingBlock: ZUJKAS_clean_linker_0, # of connection points: 2
#     Edge 66, Type (0, 1), BuildingBlock: ZUJKAS_clean_linker_0, # of connection points: 2
#     Edge 67, Type (0, 1), BuildingBlock: ZUJKAS_clean_linker_0, # of connection points: 2
#     Edge 68, Type (0, 1), BuildingBlock: ZUJKAS_clean_linker_0, # of connection points: 2
#     Edge 69, Type (0, 1), BuildingBlock: ZUJKAS_clean_linker_0, # of connection points: 2
#     Edge 70, Type (0, 1), BuildingBlock: ZUJKAS_clean_linker_0, # of connection points: 2
#     Edge 71, Type (0, 1), BuildingBlock: ZUJKAS_clean_linker_0, # of connection points: 2
#     Edge 72, Type (0, 1), BuildingBlock: ZUJKAS_clean_linker_0, # of connection points: 2
#     Edge 73, Type (0, 1), BuildingBlock: ZUJKAS_clean_linker_0, # of connection points: 2
#     Edge 74, Type (0, 1), BuildingBlock: ZUJKAS_clean_linker_0, # of connection points: 2
#     Edge 75, Type (0, 1), BuildingBlock: ZUJKAS_clean_linker_0, # of connection points: 2
#     Edge 76, Type (0, 1), BuildingBlock: ZUJKAS_clean_linker_0, # of connection points: 2
#     Edge 77, Type (0, 1), BuildingBlock: ZUJKAS_clean_linker_0, # of connection points: 2
#     Edge 78, Type (0, 1), BuildingBlock: ZUJKAS_clean_linker_0, # of connection points: 2
#     Edge 79, Type (0, 1), BuildingBlock: ZUJKAS_clean_linker_0, # of connection points: 2
#     Edge 80, Type (0, 1), BuildingBlock: ZUJKAS_clean_linker_0, # of connection points: 2
#     Edge 81, Type (0, 1), BuildingBlock: ZUJKAS_clean_linker_0, # of connection points: 2
#     Edge 82, Type (0, 1), BuildingBlock: ZUJKAS_clean_linker_0, # of connection points: 2
#     Edge 83, Type (0, 1), BuildingBlock: ZUJKAS_clean_linker_0, # of connection points: 2
#     Edge 84, Type (0, 1), BuildingBlock: ZUJKAS_clean_linker_0, # of connection points: 2
#     Edge 85, Type (0, 1), BuildingBlock: ZUJKAS_clean_linker_0, # of connection points: 2
#     Edge 86, Type (0, 1), BuildingBlock: ZUJKAS_clean_linker_0, # of connection points: 2
#     Edge 87, Type (0, 1), BuildingBlock: ZUJKAS_clean_linker_0, # of connection points: 2
#     Edge 88, Type (0, 1), BuildingBlock: ZUJKAS_clean_linker_0, # of connection points: 2
#     Edge 89, Type (0, 1), BuildingBlock: ZUJKAS_clean_linker_0, # of connection points: 2
#     Edge 90, Type (0, 1), BuildingBlock: ZUJKAS_clean_linker_0, # of connection points: 2
#     Edge 91, Type (0, 1), BuildingBlock: ZUJKAS_clean_linker_0, # of connection points: 2
#     Edge 92, Type (0, 1), BuildingBlock: ZUJKAS_clean_linker_0, # of connection points: 2
#     Edge 93, Type (0, 1), BuildingBlock: ZUJKAS_clean_linker_0, # of connection points: 2
#     Edge 94, Type (0, 1), BuildingBlock: ZUJKAS_clean_linker_0, # of connection points: 2
#     Edge 95, Type (0, 1), BuildingBlock: ZUJKAS_clean_linker_0, # of connection points: 2
#     Edge 96, Type (0, 1), BuildingBlock: ZUJKAS_clean_linker_0, # of connection points: 2
#     Edge 97, Type (0, 1), BuildingBlock: ZUJKAS_clean_linker_0, # of connection points: 2
#     Edge 98, Type (0, 1), BuildingBlock: ZUJKAS_clean_linker_0, # of connection points: 2
#     Edge 99, Type (0, 1), BuildingBlock: ZUJKAS_clean_linker_0, # of connection points: 2
#     Edge 100, Type (0, 1), BuildingBlock: ZUJKAS_clean_linker_0, # of connection points: 2
#     Edge 101, Type (0, 1), BuildingBlock: ZUJKAS_clean_linker_0, # of connection points: 2
#     Edge 102, Type (0, 1), BuildingBlock: ZUJKAS_clean_linker_0, # of connection points: 2
#     Edge 103, Type (0, 1), BuildingBlock: ZUJKAS_clean_linker_0, # of connection points: 2
#     Edge 104, Type (0, 1), BuildingBlock: ZUJKAS_clean_linker_0, # of connection points: 2
#     Edge 105, Type (0, 1), BuildingBlock: ZUJKAS_clean_linker_0, # of connection points: 2
#     Edge 106, Type (0, 1), BuildingBlock: ZUJKAS_clean_linker_0, # of connection points: 2
#     Edge 107, Type (0, 1), BuildingBlock: ZUJKAS_clean_linker_0, # of connection points: 2
# Relax obj value: 0.051
# Max RMSD: 0.180
# Mean RMSD: 0.121
data_MOF--net-ptr--node1-QUQFOY_clean_sbu_3--node2-AZAVOO_clean_linker_0--edge1-ZUJKAS_clean_linker_0
_symmetry_space_group_name_H-M    P1
_symmetry_Int_Tables_number       1
_symmetry_cell_setting            triclinic
loop_
_symmetry_equiv_pos_as_xyz
'x, y, z'
_cell_length_a     102.70021
_cell_length_b     101.79407
_cell_length_c     87.642299
_cell_angle_alpha  92.577664
_cell_angle_beta   91.760603
_cell_angle_gamma 120.72877
loop_
_atom_site_label
_atom_site_type_symbol
_atom_site_fract_x
_atom_site_fract_y
_atom_site_fract_z
_atom_type_partial_charge
C0 C 0.97424 0.3251 -0.00225 0.0
O1 O 0.9663 0.33093 0.00136 0.0
Cd2 Cd 0.97643 0.35547 0.01506 0.0
O3 O 0.98829 0.33192 0.00201 0.0
Cd4 Cd 0.00763 0.35525 0.01749 0.0
C5 C 0.00534 0.37769 0.99174 0.0
O6 O 0.99157 0.35676 0.03675 0.0
O7 O 0.01371 0.37687 0.03541 0.0
O8 O 0.01343 0.33801 0.03004 0.0
C9 C 0.00137 0.37022 0.04205 0.0
O10 O 0.99289 0.37409 -0.00228 0.0
C11 C 0.02769 0.34582 0.0291 0.0
O12 O 0.01301 0.37157 0.99569 0.0
O13 O 0.03288 0.35813 0.02224 0.0
C14 C 0.63195 0.6557 0.07209 0.0
O15 O 0.61776 0.64995 0.06969 0.0
Cd16 Cd 0.60218 0.62559 0.05564 0.0
O17 O 0.63839 0.64886 0.06652 0.0
Cd18 Cd 0.632 0.6257 0.05013 0.0
C19 C 0.61004 0.60217 0.0762 0.0
O20 O 0.61319 0.62535 0.03195 0.0
O21 O 0.61444 0.60478 0.03177 0.0
O22 O 0.65343 0.6415 0.03539 0.0
C23 C 0.60908 0.61222 0.02566 0.0
O24 O 0.60064 0.6061 0.07189 0.0
C25 C 0.66072 0.6348 0.03805 0.0
O26 O 0.62313 0.60823 0.07085 0.0
O27 O 0.65467 0.62359 0.0465 0.0
C28 C 0.34582 0.9656 0.02367 0.0
O29 O 0.35121 0.95733 0.01951 0.0
Cd30 Cd 0.37592 0.96891 0.00921 0.0
O31 O 0.35299 0.97984 0.02164 0.0
Cd32 Cd 0.37573 2e-05 0.01065 0.0
C33 C 0.39745 0.99678 0.0381 0.0
O34 O 0.37679 0.98459 0.98911 0.0
O35 O 0.39639 0.00732 0.99385 0.0
O36 O 0.35828 0.00626 -0.00118 0.0
C37 C 0.38967 0.99501 0.98529 0.0
O38 O 0.3939 0.9842 0.03072 0.0
C39 C 0.36519 0.02024 0.00373 0.0
O40 O 0.39187 0.00478 0.03384 0.0
O41 O 0.37741 0.02513 0.01198 0.0
C42 C 0.95911 0.63451 0.02446 0.0
O43 O 0.95071 0.62108 0.02869 0.0
Cd44 Cd 0.9614 0.60793 0.04151 0.0
O45 O 0.97327 0.64188 0.02819 0.0
Cd46 Cd 0.99228 0.6394 0.04366 0.0
C47 C 0.98918 0.61288 0.01715 0.0
O48 O 0.97707 0.62299 0.06369 0.0
O49 O -0.00081 0.62582 0.06091 0.0
O50 O -0.00067 0.66399 0.05626 0.0
C51 C 0.98735 0.62042 0.06836 0.0
O52 O 0.97662 0.60411 0.02297 0.0
C53 C 0.01338 0.67044 0.05409 0.0
O54 O -0.00279 0.627 0.0218 0.0
O55 O 0.01776 0.66249 0.0467 0.0
C56 C 0.34094 0.37578 0.01432 0.0
O57 O 0.34762 0.39026 0.01408 0.0
Cd58 Cd 0.3727 0.40482 0.005 0.0
O59 O 0.34717 0.3686 0.00911 0.0
Cd60 Cd 0.36999 0.37297 0.99647 0.0
C61 C 0.39231 0.39336 0.02804 0.0
O62 O 0.37256 0.39311 0.98052 0.0
O63 O 0.39111 0.38879 0.98106 0.0
O64 O 0.35286 0.35088 0.97946 0.0
C65 C 0.38512 0.3959 0.97549 0.0
O66 O 0.38972 0.40384 0.02442 0.0
C67 C 0.35916 0.3432 0.9821 0.0
O68 O 0.38606 0.38055 0.0202 0.0
O69 O 0.37077 0.34943 0.99146 0.0
C70 C 0.6603 0.03394 0.02916 0.0
O71 O 0.65503 0.04239 0.03307 0.0
Cd72 Cd 0.63016 0.03115 0.04307 0.0
O73 O 0.65288 0.01972 0.03126 0.0
Cd74 Cd 0.62956 9e-05 0.04212 0.0
C75 C 0.60855 0.00368 0.01406 0.0
O76 O 0.62814 0.01547 0.0637 0.0
O77 O 0.60826 0.99315 0.05797 0.0
O78 O 0.64629 0.9933 0.05476 0.0
C79 C 0.61496 0.00516 0.06696 0.0
O80 O 0.61213 0.01624 0.02148 0.0
C81 C 0.6392 0.97929 0.04994 0.0
O82 O 0.61397 0.99555 0.01843 0.0
O83 O 0.62723 0.97463 0.04134 0.0
C84 C 0.63737 0.66283 0.3273 0.0
O85 O 0.62928 0.66887 0.32894 0.0
Cd86 Cd 0.63859 0.69347 0.34206 0.0
O87 O 0.65087 0.6695 0.33335 0.0
Cd88 Cd 0.66856 0.69289 0.34989 0.0
C89 C 0.67028 0.71557 0.32211 0.0
O90 O 0.65012 0.69386 0.36636 0.0
O91 O 0.67258 0.71395 0.36768 0.0
O92 O 0.67364 0.6761 0.36446 0.0
C93 C 0.65945 0.70698 0.37276 0.0
O94 O 0.65692 0.71181 0.32561 0.0
C95 C 0.68798 0.68391 0.3642 0.0
O96 O 0.67734 0.70984 0.32862 0.0
O97 O 0.6935 0.69603 0.357 0.0
C98 C 0.29701 0.98814 0.40778 0.0
O99 O 0.28277 0.9826 0.40613 0.0
Cd100 Cd 0.26549 0.95825 0.39306 0.0
O101 O 0.30298 0.98088 0.40203 0.0
Cd102 Cd 0.29482 0.95665 0.38633 0.0
C103 C 0.27284 0.93453 0.41362 0.0
O104 O 0.27601 0.95755 0.36927 0.0
O105 O 0.27673 0.93671 0.3673 0.0
O106 O 0.31671 0.97065 0.37128 0.0
C107 C 0.27135 0.94458 0.36231 0.0
O108 O 0.26383 0.93913 0.40985 0.0
C109 C 0.32252 0.96249 0.37375 0.0
O110 O 0.28541 0.93954 0.40737 0.0
O111 O 0.31556 0.95157 0.38238 0.0
C112 C 0.02383 0.30061 0.36313 0.0
O113 O 0.02927 0.29195 0.36121 0.0
Cd114 Cd 0.05331 0.30069 0.35021 0.0
O115 O 0.03086 0.3142 0.35884 0.0
Cd116 Cd 0.05393 0.33161 0.346 0.0
C117 C 0.07694 0.33193 0.37468 0.0
O118 O 0.05277 0.31249 0.32726 0.0
O119 O 0.07299 0.33495 0.32814 0.0
O120 O 0.03825 0.33921 0.33229 0.0
C121 C 0.06525 0.32157 0.32165 0.0
O122 O 0.07291 0.3184 0.36954 0.0
C123 C 0.04656 0.35343 0.33605 0.0
O124 O 0.07117 0.33914 0.36874 0.0
O125 O 0.05848 0.35763 0.34452 0.0
C126 C 0.6285 0.95392 0.35396 0.0
O127 O 0.62212 0.93994 0.35695 0.0
Cd128 Cd 0.63393 0.92953 0.3723 0.0
O129 O 0.64185 0.96355 0.3596 0.0
Cd130 Cd 0.66168 0.96398 0.37697 0.0
C131 C 0.6657 0.9399 0.35226 0.0
O132 O 0.64492 0.94622 0.395 0.0
O133 O 0.6683 0.95213 0.39709 0.0
O134 O 0.66643 0.98837 0.38868 0.0
C135 C 0.6552 0.94517 0.40222 0.0
O136 O 0.65314 0.92934 0.3567 0.0
C137 C 0.68063 0.99559 0.38712 0.0
O138 O 0.67109 0.95382 0.35709 0.0
O139 O 0.68602 0.98813 0.38064 0.0
C140 C 0.00682 0.71156 0.35244 0.0
O141 O 0.01293 0.72599 0.35238 0.0
Cd142 Cd 0.03775 0.74195 0.34329 0.0
O143 O 0.01365 0.70497 0.34727 0.0
Cd144 Cd 0.03745 0.71155 0.33518 0.0
C145 C 0.05917 0.73313 0.36663 0.0
O146 O 0.03807 0.73066 0.3187 0.0
O147 O 0.05792 0.72849 0.31962 0.0
O148 O 0.02179 0.68798 0.31925 0.0
C149 C 0.05086 0.73437 0.31365 0.0
O150 O 0.05603 0.74314 0.3627 0.0
C151 C 0.03039 0.68258 0.32133 0.0
O152 O 0.05323 0.72018 0.35911 0.0
O153 O 0.04234 0.69065 0.33 0.0
C154 C 0.3188 0.36554 0.35774 0.0
O155 O 0.31263 0.37344 0.36026 0.0
Cd156 Cd 0.28865 0.36241 0.37196 0.0
O157 O 0.31272 0.35197 0.36203 0.0
Cd158 Cd 0.29098 0.33331 0.37582 0.0
C159 C 0.2667 0.33064 0.34724 0.0
O160 O 0.29057 0.35136 0.39506 0.0
O161 O 0.2714 0.3282 0.39369 0.0
O162 O 0.31008 0.32941 0.38806 0.0
C163 C 0.27834 0.34146 0.40055 0.0
O164 O 0.26969 0.34378 0.35265 0.0
C165 C 0.30278 0.31492 0.38599 0.0
O166 O 0.27345 0.32425 0.35296 0.0
O167 O 0.28967 0.30872 0.37915 0.0
C168 C 0.3057 -0.00263 0.66122 0.0
O169 O 0.29763 0.00351 0.66208 0.0
Cd170 Cd 0.30621 0.02841 0.67405 0.0
O171 O 0.31921 0.00432 0.66726 0.0
Cd172 Cd 0.33667 0.02886 0.68241 0.0
C173 C 0.33764 0.05077 0.65404 0.0
O174 O 0.31815 0.0301 0.69844 0.0
O175 O 0.34024 0.05063 0.69885 0.0
O176 O 0.34356 0.01537 0.70008 0.0
C177 C 0.32722 0.04359 0.70418 0.0
O178 O 0.32427 0.0469 0.65756 0.0
C179 C 0.35764 0.0226 0.69796 0.0
O180 O 0.34481 0.04516 0.66057 0.0
O181 O 0.36213 0.0327 0.68823 0.0
C182 C 0.95742 0.3116 0.73288 0.0
O183 O 0.94323 0.30441 0.72942 0.0
Cd184 Cd 0.93018 0.2809 0.71369 0.0
O185 O 0.96569 0.30667 0.72763 0.0
Cd186 Cd 0.96318 0.2854 0.71033 0.0
C187 C 0.94013 0.25869 0.73387 0.0
O188 O 0.94477 0.2851 0.69187 0.0
O189 O 0.94913 0.26658 0.68865 0.0
O190 O 0.98633 0.30467 0.69974 0.0
C191 C 0.9425 0.27337 0.68384 0.0
O192 O 0.93003 0.26147 0.72901 0.0
C193 C 0.99357 0.29772 0.70124 0.0
O194 O 0.95368 0.26634 0.72969 0.0
O195 O 0.98675 0.28494 0.70727 0.0
C196 C 0.68363 0.63187 0.69408 0.0
O197 O 0.68926 0.62344 0.69175 0.0
Cd198 Cd 0.71344 0.63355 0.68065 0.0
O199 O 0.6904 0.64552 0.68997 0.0
Cd200 Cd 0.71283 0.66386 0.67696 0.0
C201 C 0.73596 0.6648 0.70577 0.0
O202 O 0.71267 0.64558 0.65786 0.0
O203 O 0.73237 0.66847 0.65931 0.0
O204 O 0.69552 0.66929 0.66328 0.0
C205 C 0.72509 0.6552 0.65247 0.0
O206 O 0.73215 0.65135 0.70055 0.0
C207 C 0.70254 0.68353 0.66713 0.0
O208 O 0.73021 0.67198 0.69972 0.0
O209 O 0.71473 0.6889 0.67555 0.0
C210 C 0.29877 0.29583 0.68634 0.0
O211 O 0.29106 0.28165 0.68852 0.0
Cd212 Cd 0.30091 0.26854 0.70258 0.0
O213 O 0.31231 0.30407 0.69215 0.0
Cd214 Cd 0.33075 0.3015 0.70874 0.0
C215 C 0.33216 0.27703 0.68229 0.0
O216 O 0.31285 0.28358 0.72601 0.0
O217 O 0.3356 0.28754 0.72787 0.0
O218 O 0.3368 0.32578 0.72168 0.0
C219 C 0.32243 0.28119 0.73286 0.0
O220 O 0.31919 0.26709 0.68652 0.0
C221 C 0.35105 0.33231 0.72067 0.0
O222 O 0.33872 0.29091 0.68776 0.0
O223 O 0.35595 0.32455 0.71388 0.0
C224 C 0.68177 0.04842 0.67784 0.0
O225 O 0.68996 0.06273 0.67647 0.0
Cd226 Cd 0.71412 0.07402 0.6654 0.0
O227 O 0.68596 0.03932 0.67281 0.0
Cd228 Cd 0.70693 0.03995 0.65906 0.0
C229 C 0.73231 0.06115 0.68858 0.0
O230 O 0.71024 0.05934 0.64178 0.0
O231 O 0.72752 0.05325 0.64196 0.0
O232 O 0.68779 0.01716 0.64391 0.0
C233 C 0.72202 0.06067 0.63609 0.0
O234 O 0.73125 0.07234 0.68417 0.0
C235 C 0.69356 0.00902 0.64671 0.0
O236 O 0.72414 0.04779 0.68197 0.0
O237 O 0.70564 0.01525 0.65539 0.0
C238 C 0.98131 0.69782 0.68941 0.0
O239 O 0.97607 0.70657 0.69188 0.0
Cd240 Cd 0.95199 0.69748 0.70293 0.0
O241 O 0.97404 0.68403 0.69316 0.0
Cd242 Cd 0.95063 0.66638 0.7056 0.0
C243 C 0.92845 0.66756 0.67705 0.0
O244 O 0.9521 0.68494 0.72553 0.0
O245 O 0.93133 0.66295 0.72326 0.0
O246 O 0.96706 0.65833 0.71696 0.0
C247 C 0.93934 0.67584 0.73064 0.0
O248 O 0.93235 0.68076 0.68313 0.0
C249 C 0.95769 0.64405 0.71488 0.0
O250 O 0.93416 0.66001 0.68229 0.0
O251 O 0.94484 0.63998 0.70835 0.0
H252 H 0.16267 0.32272 0.04918 0.0
H253 H 0.23636 0.27151 0.16658 0.0
H254 H 0.15599 0.32222 0.13357 0.0
H255 H 0.13817 0.32813 0.12116 0.0
H256 H 0.10359 0.28006 0.11829 0.0
H257 H 0.12174 0.27425 0.13054 0.0
H258 H 0.17902 0.32147 0.1134 0.0
H259 H 0.17578 0.32639 0.08689 0.0
H260 H 0.13787 0.27996 0.07899 0.0
H261 H 0.14136 0.27516 0.10549 0.0
H262 H 0.20281 0.31863 0.13447 0.0
H263 H 0.22263 0.32596 0.11645 0.0
H264 H 0.19363 0.28415 0.08839 0.0
H265 H 0.1739 0.27666 0.10686 0.0
H266 H 0.20113 0.31136 0.16637 0.0
H267 H 0.22259 0.30891 0.1751 0.0
H268 H 0.20283 0.26522 0.14899 0.0
H269 H 0.18132 0.26773 0.14051 0.0
H270 H 0.17464 0.31268 0.18086 0.0
H271 H 0.18371 0.3134 0.20714 0.0
H272 H 0.17434 0.26709 0.19907 0.0
H273 H 0.1648 0.26631 0.17283 0.0
H274 H 0.15121 0.31561 0.1649 0.0
H275 H 0.13551 0.31553 0.18531 0.0
H276 H 0.11647 0.26676 0.18765 0.0
H277 H 0.13254 0.26708 0.16741 0.0
O278 O 0.16382 0.3205 0.05959 0.0
O279 O 0.14437 0.29654 0.05615 0.0
O280 O 0.23764 0.29525 0.17659 0.0
O281 O 0.228 0.27277 0.1633 0.0
C282 C 0.15186 0.29432 0.13802 0.0
C283 C 0.16228 0.29503 0.12747 0.0
C284 C 0.1747 0.29363 0.13242 0.0
C285 C 0.17643 0.291 0.14782 0.0
C286 C 0.16593 0.29014 0.1584 0.0
C287 C 0.1536 0.29175 0.15345 0.0
C288 C 0.14012 0.29783 0.13298 0.0
C289 C 0.14446 0.31302 0.13055 0.0
C290 C 0.13425 0.31636 0.12348 0.0
C291 C 0.11946 0.30456 0.11867 0.0
C292 C 0.11495 0.28938 0.1217 0.0
C293 C 0.12522 0.28605 0.12883 0.0
C294 C 0.16049 0.29794 0.1113 0.0
C295 C 0.1701 0.31236 0.10588 0.0
C296 C 0.16819 0.31514 0.09075 0.0
C297 C 0.15657 0.30357 0.08081 0.0
C298 C 0.14694 0.28913 0.08633 0.0
C299 C 0.1489 0.28635 0.10145 0.0
C300 C 0.18698 0.2971 0.12199 0.0
C301 C 0.20084 0.31093 0.12457 0.0
C302 C 0.21206 0.31517 0.11417 0.0
C303 C 0.20961 0.30571 0.10091 0.0
C304 C 0.19585 0.29163 0.09855 0.0
C305 C 0.18459 0.28736 0.10903 0.0
C306 C 0.1896 0.28965 0.15294 0.0
C307 C 0.20141 0.30123 0.16263 0.0
C308 C 0.21368 0.29982 0.16755 0.0
C309 C 0.21441 0.28684 0.16277 0.0
C310 C 0.20261 0.27534 0.15292 0.0
C311 C 0.19032 0.27675 0.14804 0.0
C312 C 0.16901 0.28943 0.17494 0.0
C313 C 0.17412 0.30253 0.18489 0.0
C314 C 0.1795 0.30299 0.19983 0.0
C315 C 0.17995 0.29037 0.20511 0.0
C316 C 0.17407 0.27696 0.19537 0.0
C317 C 0.16865 0.2765 0.18039 0.0
C318 C 0.14292 0.29134 0.16464 0.0
C319 C 0.14343 0.30487 0.16964 0.0
C320 C 0.13443 0.30478 0.18128 0.0
C321 C 0.12473 0.29113 0.18812 0.0
C322 C 0.12396 0.27749 0.18276 0.0
C323 C 0.13302 0.27762 0.17114 0.0
C324 C 0.1545 0.30659 0.06477 0.0
C325 C 0.2274 0.28526 0.168 0.0
H326 H 0.68415 0.83307 0.06728 0.0
H327 H 0.72761 0.95667 0.19387 0.0
H328 H 0.6838 0.82611 0.14912 0.0
H329 H 0.6785 0.80112 0.13866 0.0
H330 H 0.72511 0.81433 0.14958 0.0
H331 H 0.73041 0.83958 0.15997 0.0
H332 H 0.68334 0.84936 0.13195 0.0
H333 H 0.67931 0.84162 0.10458 0.0
H334 H 0.72545 0.85119 0.10396 0.0
H335 H 0.72938 0.85907 0.13131 0.0
H336 H 0.68377 0.87373 0.15571 0.0
H337 H 0.67525 0.8864 0.13852 0.0
H338 H 0.71638 0.90303 0.11455 0.0
H339 H 0.7249 0.89025 0.13199 0.0
H340 H 0.69186 0.88029 0.18807 0.0
H341 H 0.693 0.90384 0.1976 0.0
H342 H 0.73544 0.93055 0.17633 0.0
H343 H 0.73426 0.9069 0.16707 0.0
H344 H 0.69274 0.85323 0.20194 0.0
H345 H 0.69155 0.86243 0.22772 0.0
H346 H 0.73605 0.90239 0.22465 0.0
H347 H 0.73743 0.89268 0.19903 0.0
H348 H 0.68943 0.82722 0.1837 0.0
H349 H 0.68938 0.81006 0.20226 0.0
H350 H 0.73746 0.84095 0.21273 0.0
H351 H 0.73726 0.85828 0.19427 0.0
O352 O 0.68602 0.83625 0.07809 0.0
O353 O 0.7098 0.8413 0.0784 0.0
O354 O 0.70511 0.93292 0.20109 0.0
O355 O 0.72689 0.94718 0.19027 0.0
C356 C 0.71057 0.85006 0.16067 0.0
C357 C 0.70916 0.85953 0.15022 0.0
C358 C 0.70965 0.87304 0.15566 0.0
C359 C 0.71252 0.87761 0.17145 0.0
C360 C 0.71425 0.86832 0.18192 0.0
C361 C 0.71309 0.85444 0.17653 0.0
C362 C 0.70754 0.83472 0.15507 0.0
C363 C 0.6929 0.82365 0.14918 0.0
C364 C 0.6899 0.80941 0.1432 0.0
C365 C 0.70145 0.80588 0.14313 0.0
C366 C 0.71602 0.81679 0.1495 0.0
C367 C 0.71906 0.83117 0.15539 0.0
C368 C 0.7067 0.85494 0.13356 0.0
C369 C 0.6926 0.84991 0.12585 0.0
C370 C 0.69032 0.84543 0.11023 0.0
C371 C 0.70207 0.84581 0.10207 0.0
C372 C 0.71617 0.85079 0.10989 0.0
C373 C 0.71845 0.8553 0.1255 0.0
C374 C 0.70503 0.88123 0.14522 0.0
C375 C 0.69104 0.88026 0.14687 0.0
C376 C 0.68619 0.88751 0.13704 0.0
C377 C 0.6952 0.8958 0.12526 0.0
C378 C 0.70918 0.89665 0.12349 0.0
C379 C 0.71409 0.88945 0.13346 0.0
C380 C 0.71307 0.89191 0.17704 0.0
C381 C 0.70144 0.89124 0.18558 0.0
C382 C 0.7021 0.90471 0.19096 0.0
C383 C 0.71434 0.91909 0.18776 0.0
C384 C 0.72588 0.91968 0.17903 0.0
C385 C 0.72523 0.9062 0.17371 0.0
C386 C 0.71518 0.87227 0.1986 0.0
C387 C 0.70249 0.86365 0.20705 0.0
C388 C 0.70174 0.86906 0.2217 0.0
C389 C 0.71358 0.88329 0.22811 0.0
C390 C 0.72677 0.89137 0.22007 0.0
C391 C 0.72757 0.88586 0.20543 0.0
C392 C 0.71336 0.84393 0.18757 0.0
C393 C 0.69997 0.83021 0.18991 0.0
C394 C 0.7 0.82038 0.20048 0.0
C395 C 0.71345 0.82404 0.20893 0.0
C396 C 0.72688 0.83783 0.20652 0.0
C397 C 0.72682 0.8477 0.19595 0.0
C398 C 0.69959 0.841 0.08548 0.0
C399 C 0.71511 0.93344 0.19346 0.0
H400 H 0.14383 0.85109 0.05439 0.0
H401 H 0.26303 0.95084 0.18056 0.0
H402 H 0.12971 0.85417 0.13374 0.0
H403 H 0.10934 0.82938 0.1222 0.0
H404 H 0.13005 0.80686 0.14435 0.0
H405 H 0.15046 0.83166 0.15558 0.0
H406 H 0.15837 0.88107 0.11617 0.0
H407 H 0.15178 0.87207 0.08911 0.0
H408 H 0.15727 0.83364 0.09785 0.0
H409 H 0.16404 0.84288 0.12482 0.0
H410 H 0.19035 0.90928 0.13135 0.0
H411 H 0.21114 0.92141 0.11407 0.0
H412 H 0.21518 0.88115 0.11279 0.0
H413 H 0.19471 0.86931 0.13015 0.0
H414 H 0.1876 0.91436 0.16926 0.0
H415 H 0.21165 0.93766 0.17744 0.0
H416 H 0.23566 0.91399 0.16718 0.0
H417 H 0.21152 0.89073 0.1592 0.0
H418 H 0.1628 0.89137 0.19075 0.0
H419 H 0.17251 0.90067 0.2174 0.0
H420 H 0.20409 0.88478 0.21261 0.0
H421 H 0.19456 0.87589 0.18608 0.0
H422 H 0.13114 0.85992 0.17116 0.0
H423 H 0.11429 0.84437 0.1906 0.0
H424 H 0.14782 0.83343 0.20594 0.0
H425 H 0.16447 0.84885 0.18648 0.0
O426 O 0.14654 0.85448 0.06511 0.0
O427 O 0.14943 0.83488 0.07022 0.0
O428 O 0.24048 0.95343 0.18251 0.0
O429 O 0.25337 0.9418 0.17737 0.0
C430 C 0.15529 0.85972 0.1501 0.0
C431 C 0.16539 0.86804 0.13888 0.0
C432 C 0.17943 0.88137 0.14329 0.0
C433 C 0.18317 0.88677 0.15884 0.0
C434 C 0.17315 0.87842 0.17008 0.0
C435 C 0.15922 0.86487 0.16573 0.0
C436 C 0.14153 0.84469 0.14549 0.0
C437 C 0.12963 0.84383 0.13635 0.0
C438 C 0.11803 0.82968 0.12979 0.0
C439 C 0.11822 0.81622 0.13225 0.0
C440 C 0.12974 0.81707 0.14208 0.0
C441 C 0.14129 0.83119 0.14865 0.0
C442 C 0.16153 0.86254 0.12246 0.0
C443 C 0.15816 0.87072 0.11219 0.0
C444 C 0.15439 0.86554 0.09676 0.0
C445 C 0.15394 0.8521 0.09133 0.0
C446 C 0.15746 0.844 0.10166 0.0
C447 C 0.16127 0.84922 0.11708 0.0
C448 C 0.19105 0.88844 0.13194 0.0
C449 C 0.19568 0.90309 0.1272 0.0
C450 C 0.20747 0.90994 0.11733 0.0
C451 C 0.21482 0.90224 0.1122 0.0
C452 C 0.20987 0.88743 0.11673 0.0
C453 C 0.19811 0.8806 0.12651 0.0
C454 C 0.19785 0.90093 0.16351 0.0
C455 C 0.19808 0.91426 0.16876 0.0
C456 C 0.21182 0.92754 0.17343 0.0
C457 C 0.22559 0.9277 0.17293 0.0
C458 C 0.22528 0.91428 0.16767 0.0
C459 C 0.21152 0.901 0.16304 0.0
C460 C 0.1781 0.88311 0.18649 0.0
C461 C 0.17175 0.88986 0.19555 0.0
C462 C 0.17727 0.89509 0.21075 0.0
C463 C 0.18921 0.89363 0.21706 0.0
C464 C 0.19515 0.88641 0.20801 0.0
C465 C 0.18967 0.88124 0.19288 0.0
C466 C 0.14908 0.85565 0.17756 0.0
C467 C 0.13481 0.85417 0.17876 0.0
C468 C 0.12522 0.84528 0.18981 0.0
C469 C 0.12981 0.8378 0.19985 0.0
C470 C 0.1441 0.83929 0.19855 0.0
C471 C 0.15362 0.84807 0.18745 0.0
C472 C 0.14985 0.84659 0.07494 0.0
C473 C 0.24022 0.94177 0.1779 0.0
H474 H 0.28955 0.15966 0.98915 0.0
H475 H 0.30677 0.05603 0.87251 0.0
H476 H 0.27392 0.15525 0.90902 0.0
H477 H 0.27904 0.18061 0.91851 0.0
H478 H 0.32198 0.20166 0.8974 0.0
H479 H 0.31695 0.17638 0.88827 0.0
H480 H 0.27381 0.12823 0.928 0.0
H481 H 0.27625 0.1379 0.95464 0.0
H482 H 0.32113 0.17569 0.94751 0.0
H483 H 0.31862 0.16577 0.92096 0.0
H484 H 0.27565 0.09905 0.91426 0.0
H485 H 0.28246 0.08632 0.93338 0.0
H486 H 0.32816 0.12549 0.93803 0.0
H487 H 0.32119 0.13808 0.91918 0.0
H488 H 0.2694 0.09372 0.87628 0.0
H489 H 0.26948 0.07011 0.86986 0.0
H490 H 0.31715 0.09317 0.88441 0.0
H491 H 0.31694 0.11673 0.8906 0.0
H492 H 0.26923 0.11571 0.85304 0.0
H493 H 0.27071 0.10639 0.82711 0.0
H494 H 0.31838 0.12324 0.83695 0.0
H495 H 0.3168 0.13249 0.86259 0.0
H496 H 0.26961 0.14857 0.87034 0.0
H497 H 0.2699 0.16494 0.85048 0.0
H498 H 0.31489 0.17531 0.83992 0.0
H499 H 0.31447 0.15899 0.85971 0.0
O500 O 0.28885 0.156 0.97861 0.0
O501 O 0.31183 0.17526 0.97431 0.0
O502 O 0.28192 0.05389 0.86759 0.0
O503 O 0.30641 0.0652 0.87497 0.0
C504 C 0.29325 0.14874 0.8943 0.0
C505 C 0.29434 0.14048 0.90634 0.0
C506 C 0.29442 0.12683 0.90298 0.0
C507 C 0.29301 0.12121 0.88763 0.0
C508 C 0.2921 0.12955 0.87561 0.0
C509 C 0.29215 0.14328 0.87891 0.0
C510 C 0.29503 0.16399 0.89791 0.0
C511 C 0.28429 0.16538 0.90623 0.0
C512 C 0.28725 0.17982 0.91168 0.0
C513 C 0.30091 0.19308 0.9087 0.0
C514 C 0.31128 0.19166 0.8997 0.0
C515 C 0.3084 0.17724 0.89444 0.0
C516 C 0.29598 0.14637 0.92253 0.0
C517 C 0.28416 0.13857 0.93224 0.0
C518 C 0.28558 0.14414 0.94743 0.0
C519 C 0.29886 0.1576 0.95319 0.0
C520 C 0.31073 0.16532 0.94343 0.0
C521 C 0.30931 0.15971 0.92825 0.0
C522 C 0.29792 0.11949 0.91541 0.0
C523 C 0.28706 0.1049 0.91959 0.0
C524 C 0.29099 0.09765 0.93044 0.0
C525 C 0.30586 0.1049 0.93724 0.0
C526 C 0.31656 0.11969 0.93324 0.0
C527 C 0.31262 0.12689 0.92243 0.0
C528 C 0.29312 0.10687 0.88402 0.0
C529 C 0.27983 0.09362 0.87808 0.0
C530 C 0.27991 0.08016 0.87444 0.0
C531 C 0.29332 0.07974 0.87666 0.0
C532 C 0.30663 0.09308 0.88259 0.0
C533 C 0.30653 0.10654 0.8862 0.0
C534 C 0.29291 0.12473 0.85963 0.0
C535 C 0.27999 0.11749 0.84947 0.0
C536 C 0.28084 0.11215 0.83474 0.0
C537 C 0.29468 0.11416 0.82999 0.0
C538 C 0.30763 0.12173 0.84017 0.0
C539 C 0.30673 0.12693 0.85484 0.0
C540 C 0.29193 0.15244 0.86631 0.0
C541 C 0.27944 0.15428 0.86361 0.0
C542 C 0.27967 0.16369 0.85235 0.0
C543 C 0.29239 0.17136 0.84359 0.0
C544 C 0.30481 0.16933 0.84626 0.0
C545 C 0.30459 0.16001 0.85755 0.0
C546 C 0.3003 0.16353 0.96932 0.0
C547 C 0.29348 0.06548 0.87278 0.0
H548 H 0.84212 0.15405 0.99245 0.0
H549 H 0.75463 0.02759 0.86787 0.0
H550 H 0.84583 0.15885 0.90967 0.0
H551 H 0.86619 0.18362 0.92089 0.0
H552 H 0.89858 0.16912 0.91399 0.0
H553 H 0.87796 0.14415 0.90273 0.0
H554 H 0.82255 0.13632 0.92766 0.0
H555 H 0.8274 0.14478 0.95488 0.0
H556 H 0.86312 0.13416 0.95765 0.0
H557 H 0.85802 0.12556 0.93044 0.0
H558 H 0.79713 0.11126 0.90506 0.0
H559 H 0.77749 0.10049 0.92342 0.0
H560 H 0.80287 0.08398 0.94788 0.0
H561 H 0.82244 0.0946 0.92915 0.0
H562 H 0.79703 0.10394 0.87237 0.0
H563 H 0.77376 0.08035 0.86302 0.0
H564 H 0.78979 0.0538 0.88547 0.0
H565 H 0.81309 0.07749 0.89457 0.0
H566 H 0.82459 0.13041 0.85846 0.0
H567 H 0.81507 0.12196 0.83185 0.0
H568 H 0.81999 0.08253 0.83588 0.0
H569 H 0.83001 0.09139 0.86249 0.0
H570 H 0.84958 0.15686 0.87594 0.0
H571 H 0.86611 0.17276 0.85663 0.0
H572 H 0.88065 0.1402 0.84812 0.0
H573 H 0.86418 0.12443 0.86769 0.0
O574 O 0.84034 0.15058 0.98171 0.0
O575 O 0.85865 0.145 0.98251 0.0
O576 O 0.75605 0.05127 0.86002 0.0
O577 O 0.76373 0.0371 0.87141 0.0
C578 C 0.84761 0.1343 0.90011 0.0
C579 C 0.837 0.12514 0.91058 0.0
C580 C 0.82353 0.11155 0.90524 0.0
C581 C 0.82102 0.10671 0.88952 0.0
C582 C 0.83176 0.11573 0.87906 0.0
C583 C 0.84505 0.12957 0.88437 0.0
C584 C 0.86042 0.14968 0.90558 0.0
C585 C 0.85733 0.16104 0.91054 0.0
C586 C 0.86895 0.17513 0.91699 0.0
C587 C 0.88392 0.17819 0.91851 0.0
C588 C 0.88713 0.16704 0.91294 0.0
C589 C 0.87541 0.15282 0.90655 0.0
C590 C 0.83982 0.13017 0.92714 0.0
C591 C 0.83132 0.1357 0.93421 0.0
C592 C 0.83416 0.14059 0.94974 0.0
C593 C 0.84563 0.14012 0.95845 0.0
C594 C 0.85418 0.13464 0.95128 0.0
C595 C 0.8513 0.12972 0.93576 0.0
C596 C 0.81115 0.10363 0.91573 0.0
C597 C 0.79833 0.1051 0.91423 0.0
C598 C 0.78723 0.09911 0.92483 0.0
C599 C 0.78874 0.09155 0.93719 0.0
C600 C 0.80139 0.08969 0.93844 0.0
C601 C 0.81256 0.09575 0.92779 0.0
C602 C 0.8068 0.0924 0.884 0.0
C603 C 0.79553 0.09301 0.87516 0.0
C604 C 0.78224 0.07953 0.86989 0.0
C605 C 0.77993 0.06518 0.87347 0.0
C606 C 0.79121 0.06464 0.88247 0.0
C607 C 0.80452 0.07815 0.8877 0.0
C608 C 0.82806 0.11156 0.86238 0.0
C609 C 0.82401 0.12018 0.85348 0.0
C610 C 0.81838 0.11522 0.83835 0.0
C611 C 0.8166 0.10147 0.83183 0.0
C612 C 0.82132 0.09321 0.84056 0.0
C613 C 0.827 0.09822 0.85574 0.0
C614 C 0.85576 0.13955 0.87326 0.0
C615 C 0.85649 0.15327 0.87005 0.0
C616 C 0.86583 0.16225 0.85894 0.0
C617 C 0.87462 0.15768 0.85082 0.0
C618 C 0.87411 0.14407 0.85429 0.0
C619 C 0.86468 0.13504 0.86539 0.0
C620 C 0.84864 0.14536 0.97494 0.0
C621 C 0.76584 0.05081 0.86787 0.0
H622 H 0.86588 0.70359 0.00935 0.0
H623 H 0.74617 0.68626 0.88914 0.0
H624 H 0.87721 0.72239 0.93211 0.0
H625 H 0.89679 0.7183 0.94368 0.0
H626 H 0.87707 0.6746 0.91777 0.0
H627 H 0.85734 0.67856 0.90658 0.0
H628 H 0.85033 0.71982 0.95119 0.0
H629 H 0.85743 0.71711 0.97727 0.0
H630 H 0.84949 0.67221 0.96315 0.0
H631 H 0.8422 0.67499 0.93719 0.0
H632 H 0.82149 0.71777 0.93972 0.0
H633 H 0.80164 0.70996 0.95818 0.0
H634 H 0.78989 0.66289 0.95 0.0
H635 H 0.80979 0.67078 0.93182 0.0
H636 H 0.82153 0.72511 0.90197 0.0
H637 H 0.79804 0.72488 0.89549 0.0
H638 H 0.77242 0.67578 0.89861 0.0
H639 H 0.796 0.67618 0.90494 0.0
H640 H 0.84397 0.72675 0.8784 0.0
H641 H 0.83407 0.7267 0.85251 0.0
H642 H 0.80413 0.67758 0.85192 0.0
H643 H 0.8137 0.67791 0.87784 0.0
H644 H 0.87535 0.72582 0.89168 0.0
H645 H 0.89046 0.72539 0.87065 0.0
H646 H 0.85612 0.67824 0.85803 0.0
H647 H 0.84131 0.67874 0.87909 0.0
O648 O 0.86283 0.70434 -0.00098 0.0
O649 O 0.85875 0.68139 0.99114 0.0
O650 O 0.76933 0.71193 0.89019 0.0
O651 O 0.75562 0.68669 0.8917 0.0
C652 C 0.85201 0.7014 0.91468 0.0
C653 C 0.84213 0.69963 0.92638 0.0
C654 C 0.8284 0.69913 0.92283 0.0
C655 C 0.82472 0.70091 0.90774 0.0
C656 C 0.8344 0.70237 0.896 0.0
C657 C 0.84796 0.70242 0.89941 0.0
C658 C 0.86587 0.70078 0.91849 0.0
C659 C 0.87739 0.71214 0.92861 0.0
C660 C 0.88848 0.70976 0.93526 0.0
C661 C 0.88834 0.69609 0.93169 0.0
C662 C 0.87751 0.68529 0.92062 0.0
C663 C 0.86629 0.68758 0.91415 0.0
C664 C 0.84584 0.69765 0.94231 0.0
C665 C 0.85004 0.70938 0.95379 0.0
C666 C 0.85413 0.70781 0.96866 0.0
C667 C 0.85409 0.69447 0.97228 0.0
C668 C 0.84968 0.68265 0.96074 0.0
C669 C 0.84553 0.68421 0.94591 0.0
C670 C 0.81701 0.69482 0.93449 0.0
C671 C 0.81469 0.70582 0.94206 0.0
C672 C 0.80344 0.70136 0.95258 0.0
C673 C 0.79424 0.68583 0.95542 0.0
C674 C 0.79675 0.67491 0.94791 0.0
C675 C 0.80811 0.67939 0.93761 0.0
C676 C 0.81041 0.70069 0.90404 0.0
C677 C 0.81081 0.71433 0.90127 0.0
C678 C 0.7974 0.71416 0.89757 0.0
C679 C 0.78334 0.70031 0.89657 0.0
C680 C 0.78303 0.68664 0.89933 0.0
C681 C 0.79646 0.68684 0.903 0.0
C682 C 0.82948 0.70235 0.87994 0.0
C683 C 0.83534 0.71601 0.87257 0.0
C684 C 0.8297 0.71594 0.85779 0.0
C685 C 0.81817 0.70216 0.85019 0.0
C686 C 0.81273 0.68845 0.85754 0.0
C687 C 0.81827 0.68857 0.87229 0.0
C688 C 0.85724 0.70233 0.88683 0.0
C689 C 0.87116 0.71543 0.88435 0.0
C690 C 0.87971 0.71517 0.87233 0.0
C691 C 0.8745 0.70176 0.86272 0.0
C692 C 0.86055 0.68867 0.86534 0.0
C693 C 0.85201 0.68897 0.87727 0.0
C694 C 0.85868 0.69294 0.98802 0.0
C695 C 0.76905 0.70006 0.89262 0.0
H696 H 0.82643 0.65581 0.37767 0.0
H697 H 0.89356 0.60204 0.49888 0.0
H698 H 0.81832 0.65731 0.46041 0.0
H699 H 0.80045 0.66361 0.44883 0.0
H700 H 0.76426 0.61656 0.45064 0.0
H701 H 0.78244 0.6103 0.46202 0.0
H702 H 0.84139 0.65548 0.44253 0.0
H703 H 0.83886 0.65994 0.41569 0.0
H704 H 0.79938 0.61437 0.40857 0.0
H705 H 0.80217 0.61001 0.4354 0.0
H706 H 0.86386 0.65247 0.46525 0.0
H707 H 0.88427 0.65939 0.44806 0.0
H708 H 0.85553 0.61779 0.41961 0.0
H709 H 0.83514 0.61072 0.43726 0.0
H710 H 0.86164 0.64497 0.49678 0.0
H711 H 0.88219 0.64133 0.50615 0.0
H712 H 0.86099 0.5973 0.48049 0.0
H713 H 0.8404 0.60101 0.47136 0.0
H714 H 0.83597 0.64819 0.51017 0.0
H715 H 0.84393 0.64889 0.53681 0.0
H716 H 0.83145 0.60141 0.53047 0.0
H717 H 0.82364 0.60091 0.5036 0.0
H718 H 0.81249 0.6518 0.4924 0.0
H719 H 0.79769 0.65355 0.51285 0.0
H720 H 0.77928 0.60556 0.5197 0.0
H721 H 0.79371 0.60381 0.4988 0.0
O722 O 0.82727 0.65378 0.38822 0.0
O723 O 0.80699 0.63029 0.38518 0.0
O724 O 0.89598 0.62646 0.50838 0.0
O725 O 0.88558 0.60377 0.49535 0.0
C726 C 0.81306 0.62951 0.46743 0.0
C727 C 0.82349 0.6297 0.45717 0.0
C728 C 0.83555 0.62788 0.46254 0.0
C729 C 0.83682 0.62522 0.47803 0.0
C730 C 0.82638 0.62499 0.48832 0.0
C731 C 0.81446 0.6271 0.483 0.0
C732 C 0.80166 0.63336 0.462 0.0
C733 C 0.80649 0.64841 0.45845 0.0
C734 C 0.79624 0.65199 0.45191 0.0
C735 C 0.78092 0.64058 0.44879 0.0
C736 C 0.77602 0.62556 0.45276 0.0
C737 C 0.78633 0.62199 0.45936 0.0
C738 C 0.82205 0.63237 0.44084 0.0
C739 C 0.83229 0.64644 0.43511 0.0
C740 C 0.83077 0.64897 0.41979 0.0
C741 C 0.81893 0.6375 0.40997 0.0
C742 C 0.80864 0.62343 0.41581 0.0
C743 C 0.8102 0.62091 0.43112 0.0
C744 C 0.84807 0.63108 0.45253 0.0
C745 C 0.86205 0.64472 0.45545 0.0
C746 C 0.87362 0.64874 0.44552 0.0
C747 C 0.87142 0.63922 0.43239 0.0
C748 C 0.85754 0.62531 0.42968 0.0
C749 C 0.84591 0.62128 0.43969 0.0
C750 C 0.84946 0.62317 0.48353 0.0
C751 C 0.86141 0.6345 0.49328 0.0
C752 C 0.87315 0.63242 0.49857 0.0
C753 C 0.87321 0.61899 0.49411 0.0
C754 C 0.86128 0.60775 0.48419 0.0
C755 C 0.84952 0.60984 0.47894 0.0
C756 C 0.82917 0.62449 0.50497 0.0
C757 C 0.83461 0.63783 0.51462 0.0
C758 C 0.83914 0.63819 0.52987 0.0
C759 C 0.83835 0.6252 0.53581 0.0
C760 C 0.83237 0.61166 0.52622 0.0
C761 C 0.82781 0.61131 0.51092 0.0
C762 C 0.80407 0.62765 0.49405 0.0
C763 C 0.80494 0.64158 0.49804 0.0
C764 C 0.79663 0.6426 0.50986 0.0
C765 C 0.78741 0.62973 0.51799 0.0
C766 C 0.78615 0.61565 0.51357 0.0
C767 C 0.79442 0.61463 0.50168 0.0
C768 C 0.81732 0.64024 0.39371 0.0
C769 C 0.88563 0.6167 0.49974 0.0
H770 H 0.34953 0.16478 0.39913 0.0
H771 H 0.39519 0.29206 0.52304 0.0
H772 H 0.34918 0.15989 0.48161 0.0
H773 H 0.3438 0.13469 0.47177 0.0
H774 H 0.39072 0.14845 0.48176 0.0
H775 H 0.39601 0.17381 0.49171 0.0
H776 H 0.34892 0.18263 0.46336 0.0
H777 H 0.3448 0.17421 0.43615 0.0
H778 H 0.39112 0.18431 0.43568 0.0
H779 H 0.39513 0.19287 0.46287 0.0
H780 H 0.34903 0.20642 0.48462 0.0
H781 H 0.34119 0.21958 0.46728 0.0
H782 H 0.38451 0.23926 0.44696 0.0
H783 H 0.39232 0.22598 0.46454 0.0
H784 H 0.35783 0.2156 0.51793 0.0
H785 H 0.35939 0.23953 0.52681 0.0
H786 H 0.40257 0.26519 0.50653 0.0
H787 H 0.40095 0.24116 0.49791 0.0
H788 H 0.35846 0.1897 0.53343 0.0
H789 H 0.35829 0.19995 0.55903 0.0
H790 H 0.40419 0.23739 0.55532 0.0
H791 H 0.40418 0.22701 0.52953 0.0
H792 H 0.35451 0.16212 0.51557 0.0
H793 H 0.35383 0.14527 0.53492 0.0
H794 H 0.40179 0.17591 0.54617 0.0
H795 H 0.4024 0.19261 0.52647 0.0
O796 O 0.35144 0.16826 0.40987 0.0
O797 O 0.37533 0.17362 0.41024 0.0
O798 O 0.37212 0.2687 0.53001 0.0
O799 O 0.39428 0.28242 0.51966 0.0
C800 C 0.37609 0.18416 0.49237 0.0
C801 C 0.37486 0.19346 0.48158 0.0
C802 C 0.37561 0.2072 0.4866 0.0
C803 C 0.37855 0.21216 0.50228 0.0
C804 C 0.38007 0.20303 0.51308 0.0
C805 C 0.37861 0.18889 0.50814 0.0
C806 C 0.37301 0.16871 0.48718 0.0
C807 C 0.35831 0.15748 0.48164 0.0
C808 C 0.35528 0.14312 0.47598 0.0
C809 C 0.3669 0.13967 0.47579 0.0
C810 C 0.38156 0.1508 0.48179 0.0
C811 C 0.3846 0.16525 0.48742 0.0
C812 C 0.37237 0.18853 0.46502 0.0
C813 C 0.3582 0.18317 0.45731 0.0
C814 C 0.35586 0.17829 0.44179 0.0
C815 C 0.36764 0.17862 0.43372 0.0
C816 C 0.38182 0.18394 0.44153 0.0
C817 C 0.38414 0.18884 0.45705 0.0
C818 C 0.37123 0.21531 0.47584 0.0
C819 C 0.35682 0.21357 0.47641 0.0
C820 C 0.35232 0.22098 0.46642 0.0
C821 C 0.3622 0.23036 0.45569 0.0
C822 C 0.3767 0.23213 0.45515 0.0
C823 C 0.38116 0.22457 0.46512 0.0
C824 C 0.37935 0.22668 0.50742 0.0
C825 C 0.36765 0.22641 0.5155 0.0
C826 C 0.36856 0.24009 0.52052 0.0
C827 C 0.38114 0.25429 0.51742 0.0
C828 C 0.39275 0.25447 0.50915 0.0
C829 C 0.39185 0.24078 0.50419 0.0
C830 C 0.38134 0.20757 0.52964 0.0
C831 C 0.36866 0.19982 0.53834 0.0
C832 C 0.36859 0.20574 0.55299 0.0
C833 C 0.38121 0.21956 0.5592 0.0
C834 C 0.39423 0.22683 0.55078 0.0
C835 C 0.3943 0.22086 0.53612 0.0
C836 C 0.37851 0.17853 0.51957 0.0
C837 C 0.3649 0.1651 0.5221 0.0
C838 C 0.36452 0.15558 0.53324 0.0
C839 C 0.37775 0.15931 0.54212 0.0
C840 C 0.39144 0.17267 0.53941 0.0
C841 C 0.3918 0.18225 0.52825 0.0
C842 C 0.3651 0.17337 0.41725 0.0
C843 C 0.38218 0.26886 0.52276 0.0
H844 H 0.80852 0.18651 0.37644 0.0
H845 H 0.93051 0.28152 0.50192 0.0
H846 H 0.79636 0.18414 0.45734 0.0
H847 H 0.77544 0.15925 0.44652 0.0
H848 H 0.79866 0.13723 0.46425 0.0
H849 H 0.81958 0.16208 0.47465 0.0
H850 H 0.82461 0.21318 0.43957 0.0
H851 H 0.81727 0.2056 0.41233 0.0
H852 H 0.82351 0.16701 0.41698 0.0
H853 H 0.83101 0.17484 0.44414 0.0
H854 H 0.85804 0.24144 0.45499 0.0
H855 H 0.88004 0.25497 0.43938 0.0
H856 H 0.88266 0.21401 0.43394 0.0
H857 H 0.86104 0.20077 0.44968 0.0
H858 H 0.85489 0.24421 0.49268 0.0
H859 H 0.8789 0.26749 0.50104 0.0
H860 H 0.90326 0.24493 0.48768 0.0
H861 H 0.87916 0.22169 0.47954 0.0
H862 H 0.83136 0.2199 0.51412 0.0
H863 H 0.84199 0.22829 0.54064 0.0
H864 H 0.87366 0.21309 0.5323 0.0
H865 H 0.86318 0.20505 0.50589 0.0
H866 H 0.80016 0.18903 0.49653 0.0
H867 H 0.78472 0.17148 0.5156 0.0
H868 H 0.8189 0.1593 0.52322 0.0
H869 H 0.8341 0.17668 0.50409 0.0
O870 O 0.8115 0.18933 0.38721 0.0
O871 O 0.81481 0.16963 0.39023 0.0
O872 O 0.90779 0.28353 0.50544 0.0
O873 O 0.92085 0.27247 0.4987 0.0
C874 C 0.82302 0.18999 0.4716 0.0
C875 C 0.83253 0.19915 0.46038 0.0
C876 C 0.84652 0.21253 0.46487 0.0
C877 C 0.85067 0.21721 0.48055 0.0
C878 C 0.8412 0.20807 0.49175 0.0
C879 C 0.82745 0.19441 0.48729 0.0
C880 C 0.80942 0.17488 0.46684 0.0
C881 C 0.79677 0.17388 0.45907 0.0
C882 C 0.78485 0.15968 0.45293 0.0
C883 C 0.78549 0.14632 0.45443 0.0
C884 C 0.79795 0.14735 0.46273 0.0
C885 C 0.80981 0.1615 0.46884 0.0
C886 C 0.82816 0.19446 0.44384 0.0
C887 C 0.82438 0.2031 0.43466 0.0
C888 C 0.82019 0.19873 0.41912 0.0
C889 C 0.81974 0.18566 0.41249 0.0
C890 C 0.82367 0.1771 0.42173 0.0
C891 C 0.8279 0.18151 0.43726 0.0
C892 C 0.85797 0.22014 0.45343 0.0
C893 C 0.86322 0.23536 0.45015 0.0
C894 C 0.87573 0.24303 0.44126 0.0
C895 C 0.88313 0.23556 0.43564 0.0
C896 C 0.87731 0.2201 0.43832 0.0
C897 C 0.86486 0.21247 0.44715 0.0
C898 C 0.86532 0.23135 0.48537 0.0
C899 C 0.86544 0.24435 0.49155 0.0
C900 C 0.87916 0.25762 0.49631 0.0
C901 C 0.89301 0.25809 0.49499 0.0
C902 C 0.89281 0.24498 0.48883 0.0
C903 C 0.87908 0.23171 0.48411 0.0
C904 C 0.84662 0.21202 0.50811 0.0
C905 C 0.84052 0.21831 0.51812 0.0
C906 C 0.84656 0.22303 0.53324 0.0
C907 C 0.85879 0.22151 0.53851 0.0
C908 C 0.86448 0.21472 0.52851 0.0
C909 C 0.85846 0.21004 0.51346 0.0
C910 C 0.81824 0.18415 0.49904 0.0
C911 C 0.80428 0.18258 0.50238 0.0
C912 C 0.79554 0.17263 0.51328 0.0
C913 C 0.8006 0.16401 0.52084 0.0
C914 C 0.81463 0.16566 0.51744 0.0
C915 C 0.82337 0.17566 0.50664 0.0
C916 C 0.81522 0.18101 0.39599 0.0
C917 C 0.90762 0.27215 0.50004 0.0
H918 H -0.0022 0.50824 0.32274 0.0
H919 H 0.00425 0.40604 0.19521 0.0
H920 H 0.97276 0.50284 0.24326 0.0
H921 H 0.97671 0.5275 0.25353 0.0
H922 H 0.01898 0.55098 0.23133 0.0
H923 H 0.01504 0.52628 0.22132 0.0
H924 H 0.97595 0.4776 0.26145 0.0
H925 H 0.98102 0.48703 0.28842 0.0
H926 H 0.02526 0.52409 0.27824 0.0
H927 H 0.0201 0.51442 0.25134 0.0
H928 H 0.97403 0.44861 0.24469 0.0
H929 H 0.97958 0.43401 0.26254 0.0
H930 H 0.02694 0.46977 0.26571 0.0
H931 H 0.02115 0.48437 0.24821 0.0
H932 H 0.96712 0.44312 0.20767 0.0
H933 H 0.96681 0.41975 0.19905 0.0
H934 H 0.01529 0.44278 0.20938 0.0
H935 H 0.01545 0.46612 0.21778 0.0
H936 H 0.96391 0.46471 0.18766 0.0
H937 H 0.96125 0.45241 0.16207 0.0
H938 H 0.00941 0.46911 0.16463 0.0
H939 H 0.01193 0.48154 0.18987 0.0
H940 H 0.96539 0.49641 0.20744 0.0
H941 H 0.96186 0.51197 0.18912 0.0
H942 H 0.00512 0.52441 0.17114 0.0
H943 H 0.0085 0.50877 0.18945 0.0
O944 O 0.99605 0.50469 0.31203 0.0
O945 O 0.01865 0.52356 0.30618 0.0
O946 O 0.97913 0.40381 0.19343 0.0
O947 O 0.00403 0.4151 0.19863 0.0
C948 C 0.99222 0.49795 0.22694 0.0
C949 C 0.99449 0.4896 0.23811 0.0
C950 C 0.99406 0.47589 0.23368 0.0
C951 C 0.99148 0.47057 0.21811 0.0
C952 C 0.98944 0.47904 0.20692 0.0
C953 C 0.98958 0.49261 0.21134 0.0
C954 C 0.99362 0.51282 0.23158 0.0
C955 C 0.98275 0.51334 0.24046 0.0
C956 C 0.985 0.52741 0.24625 0.0
C957 C -0.0018 0.54114 0.24329 0.0
C958 C 0.0088 0.54057 0.23394 0.0
C959 C 0.00651 0.52651 0.22811 0.0
C960 C -0.00237 0.49537 0.25446 0.0
C961 C 0.98673 0.48773 0.26509 0.0
C962 C 0.98966 0.49316 0.28048 0.0
C963 C 0.00354 0.50634 0.28549 0.0
C964 C 0.01445 0.51393 0.27477 0.0
C965 C 0.01152 0.50846 0.2594 0.0
C966 C -0.00281 0.46751 0.24522 0.0
C967 C 0.98555 0.45331 0.2494 0.0
C968 C 0.98877 0.44498 0.25951 0.0
C969 C 0.00372 0.4507 0.26552 0.0
C970 C 0.01528 0.46512 0.2615 0.0
C971 C 0.01202 0.47346 0.25146 0.0
C972 C 0.99129 0.45627 0.2134 0.0
C973 C 0.97765 0.44307 0.20808 0.0
C974 C 0.97751 0.42975 0.20317 0.0
C975 C 0.99104 0.4294 0.20353 0.0
C976 C 0.00468 0.44265 0.20896 0.0
C977 C 0.0048 0.45598 0.21382 0.0
C978 C 0.9881 0.47397 0.19055 0.0
C979 C 0.9739 0.46601 0.18245 0.0
C980 C 0.9724 0.4589 0.16794 0.0
C981 C 0.9851 0.45971 0.16135 0.0
C982 C -0.00057 0.46842 0.16924 0.0
C983 C 0.0009 0.47549 0.18369 0.0
C984 C 0.98715 0.5014 0.19969 0.0
C985 C 0.97404 0.50243 0.19946 0.0
C986 C 0.97209 0.51138 0.18907 0.0
C987 C 0.98321 0.51942 0.17869 0.0
C988 C 0.99625 0.51818 0.17884 0.0
C989 C -0.00179 0.50928 0.18928 0.0
C990 C 0.00659 0.51209 0.30183 0.0
C991 C 0.99097 0.41531 0.19822 0.0
H992 H 0.5017 0.48943 0.32686 0.0
H993 H 0.4206 0.36306 0.20073 0.0
H994 H 0.51034 0.4949 0.24574 0.0
H995 H 0.53102 0.51955 0.25683 0.0
H996 H 0.56278 0.50428 0.24963 0.0
H997 H 0.54186 0.47944 0.23856 0.0
H998 H 0.48512 0.47181 0.26159 0.0
H999 H 0.48867 0.48016 0.28878 0.0
H1000 H 0.52459 0.47004 0.29401 0.0
H1001 H 0.52079 0.46154 0.26682 0.0
H1002 H 0.46066 0.4466 0.23786 0.0
H1003 H 0.43984 0.43519 0.25485 0.0
H1004 H 0.46443 0.41934 0.28177 0.0
H1005 H 0.48517 0.43055 0.26435 0.0
H1006 H 0.46248 0.43944 0.20538 0.0
H1007 H 0.43981 0.41573 0.19516 0.0
H1008 H 0.45466 0.38952 0.22013 0.0
H1009 H 0.47739 0.41333 0.23011 0.0
H1010 H 0.4908 0.46566 0.19203 0.0
H1011 H 0.48232 0.45632 0.16537 0.0
H1012 H 0.48736 0.41739 0.17258 0.0
H1013 H 0.49603 0.42696 0.19934 0.0
H1014 H 0.51402 0.49267 0.21184 0.0
H1015 H 0.53087 0.50917 0.19309 0.0
H1016 H 0.54659 0.47755 0.18469 0.0
H1017 H 0.52979 0.46116 0.20376 0.0
O1018 O 0.50043 0.48599 0.31615 0.0
O1019 O 0.51886 0.48066 0.31822 0.0
O1020 O 0.42239 0.38662 0.19193 0.0
O1021 O 0.42946 0.37261 0.20461 0.0
C1022 C 0.51169 0.47013 0.23571 0.0
C1023 C 0.50054 0.46095 0.24574 0.0
C1024 C 0.48729 0.44736 0.23996 0.0
C1025 C 0.48558 0.44247 0.22431 0.0
C1026 C 0.49683 0.45152 0.21429 0.0
C1027 C 0.50981 0.46546 0.21996 0.0
C1028 C 0.52458 0.48533 0.24155 0.0
C1029 C 0.52176 0.49685 0.24659 0.0
C1030 C 0.53356 0.5109 0.25295 0.0
C1031 C 0.54848 0.51375 0.25427 0.0
C1032 C 0.55139 0.50238 0.24873 0.0
C1033 C 0.5395 0.48822 0.24245 0.0
C1034 C 0.50259 0.46592 0.26228 0.0
C1035 C 0.49365 0.47127 0.26866 0.0
C1036 C 0.49575 0.4761 0.28418 0.0
C1037 C 0.5069 0.47574 0.29358 0.0
C1038 C 0.51589 0.47044 0.2871 0.0
C1039 C 0.51375 0.46558 0.27159 0.0
C1040 C 0.47438 0.43934 0.24984 0.0
C1041 C 0.46146 0.44047 0.24729 0.0
C1042 C 0.44966 0.43411 0.25712 0.0
C1043 C 0.45056 0.42651 0.26974 0.0
C1044 C 0.46338 0.42506 0.27208 0.0
C1045 C 0.47523 0.43147 0.26221 0.0
C1046 C 0.47164 0.42808 0.21836 0.0
C1047 C 0.46085 0.42856 0.20856 0.0
C1048 C 0.4479 0.415 0.20278 0.0
C1049 C 0.44544 0.40071 0.2068 0.0
C1050 C 0.45621 0.40032 0.21677 0.0
C1051 C 0.46919 0.41389 0.22251 0.0
C1052 C 0.49411 0.44704 0.19761 0.0
C1053 C 0.49054 0.45538 0.18774 0.0
C1054 C 0.48567 0.45 0.17251 0.0
C1055 C 0.48414 0.43609 0.16689 0.0
C1056 C 0.48833 0.42808 0.17664 0.0
C1057 C 0.49334 0.43356 0.19186 0.0
C1058 C 0.52074 0.47577 0.2092 0.0
C1059 C 0.52125 0.48941 0.20611 0.0
C1060 C 0.53078 0.49873 0.1953 0.0
C1061 C 0.53997 0.49459 0.18736 0.0
C1062 C 0.5397 0.48108 0.19072 0.0
C1063 C 0.5301 0.47169 0.20153 0.0
C1064 C 0.50914 0.48093 0.31005 0.0
C1065 C 0.43172 0.38627 0.20064 0.0
H1066 H 0.5091 0.99232 0.33748 0.0
H1067 H 0.40083 0.9916 0.21471 0.0
H1068 H 0.52789 0.02027 0.26219 0.0
H1069 H 0.54779 0.01621 0.27268 0.0
H1070 H 0.52906 0.97399 0.2442 0.0
H1071 H 0.50889 0.97793 0.23417 0.0
H1072 H 0.50096 0.01627 0.28081 0.0
H1073 H 0.50531 0.01035 0.30656 0.0
H1074 H 0.49474 0.96544 0.28872 0.0
H1075 H 0.49025 0.97145 0.26306 0.0
H1076 H 0.47647 0.01922 0.26831 0.0
H1077 H 0.45745 0.01382 0.2872 0.0
H1078 H 0.43848 0.96528 0.27717 0.0
H1079 H 0.4577 0.97078 0.25854 0.0
H1080 H 0.47562 0.02702 0.23099 0.0
H1081 H 0.45305 0.02832 0.22399 0.0
H1082 H 0.42538 0.97901 0.22426 0.0
H1083 H 0.44806 0.97789 0.23111 0.0
H1084 H 0.50088 0.03051 0.21015 0.0
H1085 H 0.49416 0.03466 0.18439 0.0
H1086 H 0.45996 0.98658 0.17777 0.0
H1087 H 0.46682 0.98257 0.20339 0.0
H1088 H 0.52907 0.02747 0.22512 0.0
H1089 H 0.54654 0.03015 0.20536 0.0
H1090 H 0.51323 0.98531 0.18492 0.0
H1091 H 0.49597 0.98269 0.20478 0.0
O1092 O 0.50723 0.99439 0.32722 0.0
O1093 O 0.50178 0.97146 0.31746 0.0
O1094 O 0.42466 0.01674 0.21746 0.0
O1095 O 0.40993 0.99143 0.21749 0.0
C1096 C 0.50342 0.00044 0.24333 0.0
C1097 C 0.49287 -0.00201 0.25447 0.0
C1098 C 0.47976 -0.00142 0.25062 0.0
C1099 C 0.47717 0.00165 0.23565 0.0
C1100 C 0.48757 0.00386 0.22445 0.0
C1101 C 0.50069 0.00322 0.22826 0.0
C1102 C 0.51695 -0.00063 0.24747 0.0
C1103 C 0.52829 0.01031 0.25802 0.0
C1104 C 0.53968 0.00799 0.26394 0.0
C1105 C 0.53994 0.99471 0.25936 0.0
C1106 C 0.52903 0.98422 0.24812 0.0
C1107 C 0.51761 0.98652 0.24225 0.0
C1108 C 0.49529 0.99428 0.27011 0.0
C1109 C 0.49951 0.00513 0.28252 0.0
C1110 C 0.50202 0.00173 0.2972 0.0
C1111 C 0.50038 0.98742 0.2997 0.0
C1112 C 0.49611 0.97656 0.2872 0.0
C1113 C 0.49355 0.97997 0.27254 0.0
C1114 C 0.4684 0.99538 0.26211 0.0
C1115 C 0.46824 0.00744 0.27028 0.0
C1116 C 0.45745 0.00435 0.28106 0.0
C1117 C 0.44653 0.98914 0.2836 0.0
C1118 C 0.44673 0.97709 0.27535 0.0
C1119 C 0.45768 0.9802 0.26477 0.0
C1120 C 0.46343 0.00238 0.23163 0.0
C1121 C 0.46466 0.01653 0.22954 0.0
C1122 C 0.45176 0.01723 0.22555 0.0
C1123 C 0.4374 0.00376 0.22359 0.0
C1124 C 0.43625 0.9896 0.22571 0.0
C1125 C 0.44916 0.98892 0.22967 0.0
C1126 C 0.48432 0.00625 0.20857 0.0
C1127 C 0.49205 0.02089 0.20303 0.0
C1128 C 0.48815 0.02324 0.1884 0.0
C1129 C 0.47654 0.01094 0.17908 0.0
C1130 C 0.46907 0.99623 0.1846 0.0
C1131 C 0.47291 0.99393 0.19923 0.0
C1132 C 0.51127 0.00491 0.21633 0.0
C1133 C 0.52559 0.01825 0.21636 0.0
C1134 C 0.5355 0.01978 0.20505 0.0
C1135 C 0.53126 0.00792 0.1936 0.0
C1136 C 0.51689 0.99456 0.19368 0.0
C1137 C 0.50698 0.99308 0.20493 0.0
C1138 C 0.50316 0.98388 0.3153 0.0
C1139 C 0.42366 0.00443 0.21933 0.0
H1140 H 0.50557 0.02268 0.71982 0.0
H1141 H 0.58488 0.9733 0.83286 0.0
H1142 H 0.49657 0.0179 0.80464 0.0
H1143 H 0.47635 0.02075 0.79265 0.0
H1144 H 0.4478 0.97152 0.78628 0.0
H1145 H 0.46804 0.96877 0.79855 0.0
H1146 H 0.52252 0.02035 0.78354 0.0
H1147 H 0.51879 0.02583 0.75738 0.0
H1148 H 0.48328 0.97848 0.74791 0.0
H1149 H 0.48726 0.97315 0.77405 0.0
H1150 H 0.54836 0.01717 0.80115 0.0
H1151 H 0.56772 0.02232 0.78298 0.0
H1152 H 0.53698 0.97918 0.75766 0.0
H1153 H 0.51781 0.97394 0.77624 0.0
H1154 H 0.54678 0.01029 0.83482 0.0
H1155 H 0.56902 0.00886 0.84289 0.0
H1156 H 0.5506 0.96574 0.81601 0.0
H1157 H 0.52833 0.96722 0.8082 0.0
H1158 H 0.52006 0.00869 0.85149 0.0
H1159 H 0.52881 0.0072 0.87729 0.0
H1160 H 0.51969 0.9616 0.86466 0.0
H1161 H 0.5106 0.96307 0.839 0.0
H1162 H 0.49521 0.01185 0.8345 0.0
H1163 H 0.47867 0.01054 0.85459 0.0
H1164 H 0.46287 0.96243 0.85744 0.0
H1165 H 0.47913 0.96377 0.83695 0.0
O1166 O 0.50691 0.02025 0.73008 0.0
O1167 O 0.48869 0.9958 0.72582 0.0
O1168 O 0.58514 0.99631 0.84355 0.0
O1169 O 0.57621 0.97415 0.82985 0.0
C1170 C 0.49675 0.99158 0.80741 0.0
C1171 C 0.50728 0.99317 0.7966 0.0
C1172 C 0.5201 0.99229 0.80108 0.0
C1173 C 0.52231 0.98958 0.81633 0.0
C1174 C 0.51174 0.98793 0.82718 0.0
C1175 C 0.49898 0.989 0.82272 0.0
C1176 C 0.48368 0.99314 0.80255 0.0
C1177 C 0.48579 0.00774 0.80103 0.0
C1178 C 0.47427 0.00934 0.79417 0.0
C1179 C 0.46056 0.99635 0.78849 0.0
C1180 C 0.4583 0.98171 0.79049 0.0
C1181 C 0.46976 0.98012 0.79758 0.0
C1182 C 0.50516 0.99637 0.78065 0.0
C1183 C 0.514 0.01118 0.77576 0.0
C1184 C 0.51182 0.01427 0.76083 0.0
C1185 C 0.50072 0.0026 0.75055 0.0
C1186 C 0.49191 0.98774 0.75553 0.0
C1187 C 0.49414 0.98466 0.77044 0.0
C1188 C 0.53175 0.99518 0.79001 0.0
C1189 C 0.54586 0.00881 0.79172 0.0
C1190 C 0.55684 0.01178 0.78126 0.0
C1191 C 0.55385 0.00118 0.76883 0.0
C1192 C 0.53966 0.98749 0.76719 0.0
C1193 C 0.52869 0.98452 0.77771 0.0
C1194 C 0.53592 0.98881 0.82101 0.0
C1195 C 0.54755 0.00052 0.83075 0.0
C1196 C 0.56025 -0.00031 0.8353 0.0
C1197 C 0.56158 0.98716 0.83011 0.0
C1198 C 0.54994 0.97552 0.82024 0.0
C1199 C 0.53722 0.97635 0.81573 0.0
C1200 C 0.5147 0.98599 0.84339 0.0
C1201 C 0.5196 -0.00176 0.85443 0.0
C1202 C 0.52475 -0.00257 0.8691 0.0
C1203 C 0.52511 0.98435 0.87297 0.0
C1204 C 0.51946 0.97179 0.86209 0.0
C1205 C 0.5143 0.97261 0.84741 0.0
C1206 C 0.48826 0.98788 0.83421 0.0
C1207 C 0.48797 0.00098 0.83928 0.0
C1208 C 0.47865 0.00024 0.85087 0.0
C1209 C 0.46952 0.98639 0.85766 0.0
C1210 C 0.46964 0.97322 0.85233 0.0
C1211 C 0.47895 0.97397 0.8407 0.0
C1212 C 0.49837 0.00594 0.73473 0.0
C1213 C 0.57504 0.98621 0.83494 0.0
H1214 H 0.97816 0.47307 0.73497 0.0
H1215 H 0.01582 0.60039 0.85583 0.0
H1216 H 0.98377 0.47053 0.81767 0.0
H1217 H 0.98191 0.44642 0.80908 0.0
H1218 H 0.03047 0.46748 0.81699 0.0
H1219 H 0.03224 0.49173 0.82548 0.0
H1220 H 0.97914 0.49212 0.79916 0.0
H1221 H 0.97424 0.48279 0.77217 0.0
H1222 H 0.02156 0.49691 0.76949 0.0
H1223 H 0.02633 0.50634 0.79646 0.0
H1224 H 0.97816 0.51618 0.81691 0.0
H1225 H 0.97099 0.53018 0.79999 0.0
H1226 H 0.01625 0.5532 0.78367 0.0
H1227 H 0.02306 0.53861 0.80026 0.0
H1228 H 0.98655 0.52469 0.85232 0.0
H1229 H 0.9851 0.54712 0.86081 0.0
H1230 H 0.02712 0.57637 0.83984 0.0
H1231 H 0.02852 0.55385 0.83162 0.0
H1232 H 0.99273 0.50285 0.86986 0.0
H1233 H 0.99377 0.51462 0.89519 0.0
H1234 H 0.03695 0.55407 0.88639 0.0
H1235 H 0.03597 0.54203 0.86125 0.0
H1236 H 0.99138 0.47427 0.85083 0.0
H1237 H 0.9954 0.45867 0.86863 0.0
H1238 H 0.04166 0.49553 0.87868 0.0
H1239 H 0.03766 0.51101 0.86046 0.0
O1240 O 0.98037 0.47692 0.7456 0.0
O1241 O 0.0048 0.48436 0.74483 0.0
O1242 O 0.99465 0.5758 0.86338 0.0
O1243 O 0.01612 0.59133 0.85264 0.0
C1244 C 0.00904 0.49743 0.82703 0.0
C1245 C 0.00603 0.50551 0.81612 0.0
C1246 C 0.00558 0.51867 0.82089 0.0
C1247 C 0.00859 0.52404 0.83645 0.0
C1248 C 0.01193 0.51616 0.84735 0.0
C1249 C 0.01194 0.5027 0.84268 0.0
C1250 C 0.00814 0.48285 0.82211 0.0
C1251 C 0.994 0.46992 0.81755 0.0
C1252 C 0.99295 0.45615 0.8128 0.0
C1253 C 0.00605 0.45506 0.81245 0.0
C1254 C 0.02022 0.46803 0.81708 0.0
C1255 C 0.02125 0.48183 0.82195 0.0
C1256 C 0.0031 0.50001 0.7997 0.0
C1257 C 0.98845 0.49331 0.79268 0.0
C1258 C 0.98567 0.48793 0.77728 0.0
C1259 C -0.00249 0.48912 0.76866 0.0
C1260 C 0.0122 0.49583 0.77579 0.0
C1261 C 0.01495 0.50122 0.79118 0.0
C1262 C 0.00111 0.52644 0.80979 0.0
C1263 C 0.98644 0.52413 0.80953 0.0
C1264 C 0.98243 0.53223 0.79994 0.0
C1265 C 0.99308 0.54296 0.79055 0.0
C1266 C 0.0077 0.54493 0.79059 0.0
C1267 C 0.01166 0.53668 0.80011 0.0
C1268 C 0.00767 0.53768 0.84142 0.0
C1269 C 0.99545 0.53597 0.84964 0.0
C1270 C 0.99464 0.54879 0.85443 0.0
C1271 C 0.00601 0.56355 0.85101 0.0
C1272 C 0.01818 0.56518 0.84268 0.0
C1273 C 0.01901 0.55235 0.83794 0.0
C1274 C 0.01426 0.52161 0.86374 0.0
C1275 C 0.00264 0.5138 0.87363 0.0
C1276 C 0.00318 0.52062 0.888 0.0
C1277 C 0.01534 0.53537 0.89268 0.0
C1278 C 0.02748 0.54267 0.88316 0.0
C1279 C 0.02694 0.53583 0.8688 0.0
C1280 C 0.01428 0.4937 0.8542 0.0
C1281 C 0.00242 0.47895 0.85677 0.0
C1282 C 0.00474 0.47005 0.8669 0.0
C1283 C 0.01889 0.47584 0.87489 0.0
C1284 C 0.03065 0.4908 0.87265 0.0
C1285 C 0.02838 0.49964 0.8623 0.0
C1286 C 0.99452 0.48335 0.75232 0.0
C1287 C 0.0052 0.57721 0.85607 0.0
H1288 H 0.47487 0.51535 0.71818 0.0
H1289 H 0.59714 0.6195 0.83891 0.0
H1290 H 0.4641 0.51721 0.79826 0.0
H1291 H 0.44386 0.49186 0.78778 0.0
H1292 H 0.46705 0.47132 0.80905 0.0
H1293 H 0.48738 0.49669 0.81907 0.0
H1294 H 0.49114 0.54523 0.78006 0.0
H1295 H 0.48358 0.53616 0.75311 0.0
H1296 H 0.49114 0.49876 0.76034 0.0
H1297 H 0.49885 0.50807 0.78719 0.0
H1298 H 0.52338 0.57507 0.79568 0.0
H1299 H 0.54306 0.58848 0.77756 0.0
H1300 H 0.5479 0.54885 0.77151 0.0
H1301 H 0.52852 0.53571 0.78964 0.0
H1302 H 0.5214 0.5786 0.83365 0.0
H1303 H 0.545 0.60272 0.84091 0.0
H1304 H 0.57075 0.58222 0.82579 0.0
H1305 H 0.54708 0.55814 0.81877 0.0
H1306 H 0.49707 0.55259 0.85581 0.0
H1307 H 0.50737 0.56127 0.88245 0.0
H1308 H 0.54397 0.55339 0.8731 0.0
H1309 H 0.53347 0.54441 0.84679 0.0
H1310 H 0.46706 0.52355 0.83553 0.0
H1311 H 0.45104 0.50765 0.85521 0.0
H1312 H 0.48601 0.49824 0.86927 0.0
H1313 H 0.50192 0.51416 0.84962 0.0
O1314 O 0.47794 0.51876 0.72886 0.0
O1315 O 0.48191 0.49969 0.7332 0.0
O1316 O 0.57387 0.62008 0.84382 0.0
O1317 O 0.58764 0.61011 0.83614 0.0
C1318 C 0.49069 0.52416 0.81357 0.0
C1319 C 0.49994 0.53281 0.80195 0.0
C1320 C 0.51373 0.54662 0.80587 0.0
C1321 C 0.51812 0.55202 0.82139 0.0
C1322 C 0.50896 0.54331 0.83303 0.0
C1323 C 0.49519 0.52943 0.82911 0.0
C1324 C 0.4772 0.50878 0.8094 0.0
C1325 C 0.46464 0.50719 0.80085 0.0
C1326 C 0.45309 0.49271 0.79493 0.0
C1327 C 0.45395 0.47962 0.79746 0.0
C1328 C 0.46619 0.48122 0.80669 0.0
C1329 C 0.47771 0.49567 0.81258 0.0
C1330 C 0.4954 0.52723 0.78559 0.0
C1331 C 0.49116 0.53509 0.77578 0.0
C1332 C 0.48684 0.52988 0.7604 0.0
C1333 C 0.48671 0.5167 0.75458 0.0
C1334 C 0.49106 0.50891 0.76446 0.0
C1335 C 0.49542 0.51417 0.77981 0.0
C1336 C 0.52448 0.55439 0.79389 0.0
C1337 C 0.5286 0.56927 0.79028 0.0
C1338 C 0.53983 0.5769 0.78 0.0
C1339 C 0.54694 0.56967 0.77308 0.0
C1340 C 0.54244 0.55461 0.77644 0.0
C1341 C 0.53138 0.54709 0.7868 0.0
C1342 C 0.53253 0.56668 0.82556 0.0
C1343 C 0.53215 0.57936 0.8319 0.0
C1344 C 0.54565 0.59311 0.83603 0.0
C1345 C 0.55977 0.59441 0.83389 0.0
C1346 C 0.56008 0.58164 0.82756 0.0
C1347 C 0.54658 0.56788 0.82347 0.0
C1348 C 0.51464 0.54806 0.84932 0.0
C1349 C 0.50724 0.55265 0.85958 0.0
C1350 C 0.51311 0.55757 0.87474 0.0
C1351 C 0.52656 0.55816 0.87972 0.0
C1352 C 0.53374 0.55329 0.86947 0.0
C1353 C 0.52776 0.54817 0.85447 0.0
C1354 C 0.48567 0.52008 0.84125 0.0
C1355 C 0.47124 0.51808 0.84291 0.0
C1356 C 0.46211 0.50896 0.85409 0.0
C1357 C 0.46729 0.50174 0.86381 0.0
C1358 C 0.4818 0.50385 0.86213 0.0
C1359 C 0.49089 0.5129 0.8509 0.0
C1360 C 0.48206 0.51116 0.73825 0.0
C1361 C 0.57414 0.60899 0.83827 0.0
H1362 H 0.62163 0.82115 0.65903 0.0
H1363 H 0.63892 0.71916 0.54088 0.0
H1364 H 0.60745 0.81908 0.5785 0.0
H1365 H 0.6121 0.84442 0.58749 0.0
H1366 H 0.65564 0.8657 0.56754 0.0
H1367 H 0.65111 0.84047 0.55899 0.0
H1368 H 0.60673 0.79134 0.59716 0.0
H1369 H 0.60878 0.80033 0.62399 0.0
H1370 H 0.65394 0.8382 0.618 0.0
H1371 H 0.65181 0.82897 0.59126 0.0
H1372 H 0.60857 0.76225 0.58294 0.0
H1373 H 0.61531 0.74866 0.60106 0.0
H1374 H 0.66107 0.78768 0.60657 0.0
H1375 H 0.65416 0.80112 0.58874 0.0
H1376 H 0.60257 0.75786 0.54514 0.0
H1377 H 0.60226 0.7341 0.53838 0.0
H1378 H 0.64981 0.75634 0.55323 0.0
H1379 H 0.64998 0.78006 0.55975 0.0
H1380 H 0.60319 0.78048 0.52231 0.0
H1381 H 0.6046 0.77099 0.49646 0.0
H1382 H 0.65205 0.78697 0.50661 0.0
H1383 H 0.65055 0.7965 0.53213 0.0
H1384 H 0.60392 0.8129 0.53903 0.0
H1385 H 0.60544 0.83043 0.51987 0.0
H1386 H 0.65111 0.84147 0.51166 0.0
H1387 H 0.64955 0.8241 0.53088 0.0
O1388 O 0.62109 0.81777 0.64841 0.0
O1389 O 0.64422 0.83708 0.64471 0.0
O1390 O 0.61431 0.71753 0.53589 0.0
O1391 O 0.63872 0.7284 0.54345 0.0
C1392 C 0.62703 0.8127 0.5641 0.0
C1393 C 0.62769 0.80405 0.57597 0.0
C1394 C 0.62759 0.79034 0.57236 0.0
C1395 C 0.62637 0.78503 0.55692 0.0
C1396 C 0.62587 0.79374 0.54507 0.0
C1397 C 0.62617 0.80755 0.54863 0.0
C1398 C 0.62888 0.82794 0.56797 0.0
C1399 C 0.61789 0.82924 0.57592 0.0
C1400 C 0.62058 0.84367 0.58108 0.0
C1401 C 0.6342 0.85699 0.57816 0.0
C1402 C 0.64494 0.85564 0.56974 0.0
C1403 C 0.64235 0.84125 0.56481 0.0
C1404 C 0.62906 0.80957 0.59225 0.0
C1405 C 0.61706 0.80156 0.60169 0.0
C1406 C 0.61825 0.80674 0.61699 0.0
C1407 C 0.6315 0.82002 0.62313 0.0
C1408 C 0.64356 0.82796 0.61363 0.0
C1409 C 0.64236 0.82275 0.59834 0.0
C1410 C 0.63087 0.78266 0.5846 0.0
C1411 C 0.61996 0.7679 0.58831 0.0
C1412 C 0.62386 0.76015 0.59857 0.0
C1413 C 0.63874 0.76708 0.60525 0.0
C1414 C 0.64945 0.7821 0.60187 0.0
C1415 C 0.64555 0.7898 0.59164 0.0
C1416 C 0.62625 0.77061 0.55304 0.0
C1417 C 0.61289 0.75755 0.54693 0.0
C1418 C 0.61276 0.74401 0.54309 0.0
C1419 C 0.62601 0.74331 0.54531 0.0
C1420 C 0.6394 0.75646 0.55141 0.0
C1421 C 0.63952 0.77001 0.5552 0.0
C1422 C 0.62677 0.78914 0.52903 0.0
C1423 C 0.6139 0.78208 0.5188 0.0
C1424 C 0.61471 0.77661 0.50413 0.0
C1425 C 0.62845 0.77826 0.49949 0.0
C1426 C 0.64137 0.78573 0.50971 0.0
C1427 C 0.64053 0.7911 0.52433 0.0
C1428 C 0.62658 0.81717 0.53624 0.0
C1429 C 0.61417 0.819 0.53295 0.0
C1430 C 0.61505 0.82897 0.52202 0.0
C1431 C 0.62842 0.83736 0.51435 0.0
C1432 C 0.64073 0.83528 0.51752 0.0
C1433 C 0.6398 0.82526 0.52835 0.0
C1434 C 0.63271 0.82552 0.63938 0.0
C1435 C 0.62593 0.72895 0.54125 0.0
H1436 H 0.16768 0.81654 0.6677 0.0
H1437 H 0.0874 0.69687 0.53587 0.0
H1438 H 0.17767 0.82622 0.58676 0.0
H1439 H 0.19838 0.85082 0.59782 0.0
H1440 H 0.23014 0.83567 0.58988 0.0
H1441 H 0.20917 0.81091 0.57872 0.0
H1442 H 0.15229 0.80268 0.60187 0.0
H1443 H 0.15542 0.80957 0.62939 0.0
H1444 H 0.19066 0.79835 0.63353 0.0
H1445 H 0.18728 0.79132 0.606 0.0
H1446 H 0.12807 0.77901 0.57682 0.0
H1447 H 0.10666 0.76691 0.59299 0.0
H1448 H 0.12977 0.74888 0.61899 0.0
H1449 H 0.15112 0.76078 0.60234 0.0
H1450 H 0.13011 0.77315 0.54435 0.0
H1451 H 0.1074 0.75005 0.53312 0.0
H1452 H 0.12128 0.72212 0.55626 0.0
H1453 H 0.14406 0.74533 0.56724 0.0
H1454 H 0.15942 0.80063 0.53264 0.0
H1455 H 0.15101 0.79314 0.50567 0.0
H1456 H 0.15356 0.75235 0.50956 0.0
H1457 H 0.16241 0.76016 0.53659 0.0
H1458 H 0.18238 0.8258 0.55295 0.0
H1459 H 0.19971 0.8429 0.53495 0.0
H1460 H 0.21504 0.8111 0.5254 0.0
H1461 H 0.1973 0.79384 0.5433 0.0
O1462 O 0.16659 0.8137 0.65684 0.0
O1463 O 0.18468 0.80784 0.65834 0.0
O1464 O 0.08969 0.72107 0.52846 0.0
O1465 O 0.09628 0.7062 0.54017 0.0
C1466 C 0.17903 0.80178 0.57567 0.0
C1467 C 0.16761 0.7922 0.58526 0.0
C1468 C 0.1543 0.779 0.57888 0.0
C1469 C 0.15278 0.77492 0.56304 0.0
C1470 C 0.16427 0.7844 0.55343 0.0
C1471 C 0.17734 0.79793 0.55974 0.0
C1472 C 0.1919 0.81673 0.58213 0.0
C1473 C 0.18908 0.82816 0.58751 0.0
C1474 C 0.20092 0.84218 0.59386 0.0
C1475 C 0.21587 0.84511 0.59489 0.0
C1476 C 0.21874 0.83374 0.5892 0.0
C1477 C 0.20681 0.81962 0.58289 0.0
C1478 C 0.16944 0.79635 0.60199 0.0
C1479 C 0.16058 0.80159 0.60877 0.0
C1480 C 0.16244 0.80558 0.62448 0.0
C1481 C 0.17327 0.80448 0.63367 0.0
C1482 C 0.18219 0.7993 0.62679 0.0
C1483 C 0.18029 0.79528 0.61108 0.0
C1484 C 0.1411 0.77071 0.58836 0.0
C1485 C 0.12843 0.77227 0.58587 0.0
C1486 C 0.11629 0.7655 0.59524 0.0
C1487 C 0.11659 0.75707 0.60737 0.0
C1488 C 0.12918 0.75524 0.60968 0.0
C1489 C 0.14138 0.76205 0.60024 0.0
C1490 C 0.1388 0.7609 0.55648 0.0
C1491 C 0.12826 0.76203 0.5469 0.0
C1492 C 0.11528 0.74882 0.54055 0.0
C1493 C 0.11255 0.73423 0.54376 0.0
C1494 C 0.12306 0.73317 0.55352 0.0
C1495 C 0.13606 0.7464 0.55983 0.0
C1496 C 0.16164 0.781 0.53657 0.0
C1497 C 0.15871 0.79036 0.52756 0.0
C1498 C 0.15385 0.78604 0.51216 0.0
C1499 C 0.1516 0.77215 0.50555 0.0
C1500 C 0.15513 0.76308 0.51442 0.0
C1501 C 0.16023 0.76754 0.52979 0.0
C1502 C 0.18867 0.80864 0.5495 0.0
C1503 C 0.18964 0.82263 0.54713 0.0
C1504 C 0.19961 0.83242 0.53687 0.0
C1505 C 0.20886 0.82843 0.52877 0.0
C1506 C 0.20799 0.81446 0.53134 0.0
C1507 C 0.19794 0.80463 0.5416 0.0
C1508 C 0.17524 0.80876 0.65036 0.0
C1509 C 0.09881 0.72015 0.53698 0.0
H1510 H 0.19855 0.36481 0.67891 0.0
H1511 H 0.08613 0.35911 0.55935 0.0
H1512 H 0.21389 0.38315 0.60127 0.0
H1513 H 0.23218 0.3766 0.61137 0.0
H1514 H 0.20861 0.33346 0.58411 0.0
H1515 H 0.19002 0.3398 0.57468 0.0
H1516 H 0.18729 0.38367 0.62029 0.0
H1517 H 0.19299 0.38001 0.64653 0.0
H1518 H 0.18223 0.33413 0.63227 0.0
H1519 H 0.17637 0.33788 0.60612 0.0
H1520 H 0.15816 0.3841 0.60637 0.0
H1521 H 0.1387 0.37796 0.62487 0.0
H1522 H 0.12737 0.33071 0.62147 0.0
H1523 H 0.14692 0.33704 0.60332 0.0
H1524 H 0.16138 0.39191 0.56923 0.0
H1525 H 0.13912 0.39393 0.5628 0.0
H1526 H 0.10993 0.34576 0.56945 0.0
H1527 H 0.13228 0.34388 0.57569 0.0
H1528 H 0.18502 0.39134 0.54674 0.0
H1529 H 0.17754 0.39185 0.51994 0.0
H1530 H 0.14046 0.34511 0.52084 0.0
H1531 H 0.14811 0.34466 0.54738 0.0
H1532 H 0.21272 0.38837 0.56179 0.0
H1533 H 0.22757 0.38748 0.54072 0.0
H1534 H 0.19097 0.34186 0.52607 0.0
H1535 H 0.17634 0.34282 0.54713 0.0
O1536 O 0.19616 0.36599 0.66849 0.0
O1537 O 0.19059 0.34252 0.66055 0.0
O1538 O 0.11063 0.38334 0.55851 0.0
O1539 O 0.09512 0.35864 0.56184 0.0
C1540 C 0.18783 0.3644 0.58368 0.0
C1541 C 0.17824 0.36348 0.59537 0.0
C1542 C 0.16519 0.36433 0.59186 0.0
C1543 C 0.162 0.36665 0.57677 0.0
C1544 C 0.17148 0.36743 0.56507 0.0
C1545 C 0.18432 0.36617 0.56848 0.0
C1546 C 0.20063 0.36196 0.58726 0.0
C1547 C 0.21289 0.37244 0.59725 0.0
C1548 C 0.22336 0.36869 0.60296 0.0
C1549 C 0.22174 0.35442 0.59868 0.0
C1550 C 0.21001 0.34442 0.58784 0.0
C1551 C 0.1995 0.34811 0.58226 0.0
C1552 C 0.18154 0.3611 0.6113 0.0
C1553 C 0.18614 0.37283 0.62288 0.0
C1554 C 0.18941 0.37071 0.63785 0.0
C1555 C 0.18811 0.35679 0.64149 0.0
C1556 C 0.18339 0.34501 0.62985 0.0
C1557 C 0.18008 0.34713 0.6149 0.0
C1558 C 0.15398 0.36103 0.6036 0.0
C1559 C 0.15153 0.37248 0.60976 0.0
C1560 C 0.14037 0.36892 0.62025 0.0
C1561 C 0.1315 0.35384 0.6247 0.0
C1562 C 0.13417 0.34249 0.61856 0.0
C1563 C 0.14529 0.34606 0.60813 0.0
C1564 C 0.14842 0.36779 0.57304 0.0
C1565 C 0.15016 0.38182 0.56929 0.0
C1566 C 0.13743 0.38293 0.56564 0.0
C1567 C 0.12273 0.37 0.56565 0.0
C1568 C 0.12107 0.35595 0.56937 0.0
C1569 C 0.13381 0.35485 0.57299 0.0
C1570 C 0.16705 0.36798 0.54896 0.0
C1571 C 0.1753 0.38124 0.54108 0.0
C1572 C 0.17099 0.38152 0.52585 0.0
C1573 C 0.15846 0.36849 0.5183 0.0
C1574 C 0.15029 0.35525 0.52628 0.0
C1575 C 0.15455 0.355 0.54146 0.0
C1576 C 0.19347 0.36568 0.55593 0.0
C1577 C 0.20797 0.3782 0.55402 0.0
C1578 C 0.21638 0.37769 0.54198 0.0
C1579 C 0.21044 0.36458 0.53178 0.0
C1580 C 0.19592 0.35204 0.53384 0.0
C1581 C 0.18752 0.3526 0.54578 0.0
C1582 C 0.19168 0.35461 0.65739 0.0
C1583 C 0.10918 0.37113 0.56178 0.0
H1584 H 0.97595 0.35904 0.05837 0.0
H1585 H 0.96995 0.37327 0.07742 0.0
H1586 H 0.01274 0.41426 0.07148 0.0
H1587 H 0.01884 0.40021 0.05251 0.0
H1588 H 0.98826 0.39035 0.10531 0.0
H1589 H 0.98017 0.42688 0.06551 0.0
H1590 H 0.97927 0.40929 0.05912 0.0
H1591 H -0.00267 0.42645 0.06361 0.0
C1592 C 0.98407 0.37109 0.06113 0.0
C1593 C -0.00215 0.37852 0.05391 0.0
C1594 C 0.98062 0.37918 0.07198 0.0
C1595 C 0.9908 0.39484 0.07562 0.0
C1596 C 0.00462 0.40223 0.06859 0.0
H1597 H 0.00379 0.46811 0.13753 0.0
H1598 H 0.00324 0.45148 0.1162 0.0
C1599 C 0.00812 0.39416 0.05783 0.0
C1600 C 0.98732 0.40345 0.08718 0.0
H1601 H 0.98241 0.43405 0.09214 0.0
C1602 C 0.98676 0.39978 0.10246 0.0
C1603 C 0.98544 0.41574 0.08333 0.0
C1604 C 0.98544 0.41979 0.06699 0.0
C1605 C 0.98505 0.40854 0.11416 0.0
C1606 C 0.98346 0.42106 0.11037 0.0
C1607 C 0.9836 0.42444 0.095 0.0
C1608 C 0.98269 0.43136 0.12231 0.0
C1609 C 0.98568 0.40477 0.13053 0.0
C1610 C 0.97101 0.4257 0.13246 0.0
C1611 C 0.97139 0.43514 0.14477 0.0
C1612 C 0.9834 0.45044 0.14703 0.0
C1613 C 0.99454 0.45631 0.13625 0.0
C1614 C 0.99419 0.44685 0.12401 0.0
H1615 H 0.99043 0.39718 0.1317 0.0
H1616 H 0.99268 0.41536 0.1381 0.0
H1617 H 0.97402 0.39874 0.13459 0.0
H1618 H 0.96186 0.41386 0.13115 0.0
H1619 H 0.96268 0.43022 0.1529 0.0
H1620 H 0.58245 0.58592 0.08818 0.0
H1621 H 0.57452 0.56628 0.10643 0.0
H1622 H 0.61897 0.57159 0.10797 0.0
H1623 H 0.62715 0.59147 0.08958 0.0
H1624 H 0.57569 0.538 0.10252 0.0
H1625 H 0.60961 0.57616 0.15388 0.0
H1626 H 0.60537 0.58356 0.13731 0.0
H1627 H 0.619 0.57757 0.13648 0.0
C1628 C 0.59062 0.58301 0.09238 0.0
C1629 C 0.60547 0.59033 0.08742 0.0
C1630 C 0.58603 0.57173 0.1028 0.0
C1631 C 0.59618 0.56757 0.10857 0.0
C1632 C 0.61102 0.57478 0.10371 0.0
H1633 H 0.56961 0.50385 0.18232 0.0
H1634 H 0.58502 0.52021 0.16244 0.0
C1635 C 0.61565 0.58608 0.09319 0.0
C1636 C 0.59088 0.55555 0.11961 0.0
H1637 H 0.59163 0.55057 0.15781 0.0
C1638 C 0.57935 0.54066 0.11458 0.0
C1639 C 0.59579 0.55906 0.13528 0.0
C1640 C 0.60808 0.57494 0.14119 0.0
C1641 C 0.57207 0.52935 0.12494 0.0
C1642 C 0.57625 0.53314 0.14074 0.0
C1643 C 0.58843 0.54775 0.14568 0.0
C1644 C 0.567 0.52274 0.15237 0.0
C1645 C 0.55966 0.51356 0.11892 0.0
C1646 C 0.55186 0.51891 0.15332 0.0
C1647 C 0.54311 0.50966 0.16459 0.0
C1648 C 0.54934 0.50411 0.17521 0.0
C1649 C 0.56449 0.50788 0.1742 0.0
C1650 C 0.5733 0.51724 0.16292 0.0
H1651 H 0.56111 0.5111 0.10681 0.0
H1652 H 0.5594 0.5046 0.1259 0.0
H1653 H 0.54853 0.51285 0.11938 0.0
H1654 H 0.54686 0.52325 0.14545 0.0
H1655 H 0.53143 0.50683 0.16498 0.0
H1656 H 0.41139 0.98247 0.05005 0.0
H1657 H 0.42755 0.98981 0.07353 0.0
H1658 H 0.42363 0.02976 0.08117 0.0
H1659 H 0.40719 0.02239 0.05766 0.0
H1660 H 0.45534 0.01686 0.08234 0.0
H1661 H 0.40972 0.0077 0.12092 0.0
H1662 H 0.4057 0.00066 0.10105 0.0
H1663 H 0.41331 0.02065 0.10617 0.0
C1664 C 0.41395 0.99285 0.05666 0.0
C1665 C 0.40787 0.00178 0.05201 0.0
C1666 C 0.42324 -0.00295 0.07007 0.0
C1667 C 0.42664 0.01022 0.07916 0.0
C1668 C 0.42094 0.01941 0.07442 0.0
H1669 H 0.47153 0.03382 0.17149 0.0
H1670 H 0.4615 0.0365 0.14681 0.0
C1671 C 0.4116 0.01521 0.06095 0.0
C1672 C 0.43584 0.01392 0.09377 0.0
H1673 H 0.43343 0.01446 0.13252 0.0
C1674 C 0.45062 0.01652 0.09333 0.0
C1675 C 0.42967 0.01352 0.10807 0.0
C1676 C 0.4137 0.01038 0.1092 0.0
C1677 C 0.45924 0.01827 0.10681 0.0
C1678 C 0.45281 0.01716 0.12107 0.0
C1679 C 0.43831 0.01528 0.12155 0.0
C1680 C 0.46031 0.01655 0.13549 0.0
C1681 C 0.47508 0.02106 0.10568 0.0
C1682 C 0.46299 0.00449 0.13725 0.0
C1683 C 0.4687 0.00294 0.15128 0.0
C1684 C 0.47179 0.0134 0.16384 0.0
C1685 C 0.46943 0.0257 0.16196 0.0
C1686 C 0.46364 0.0272 0.14791 0.0
H1687 H 0.47998 0.02628 0.09486 0.0
H1688 H 0.48273 0.02868 0.11549 0.0
H1689 H 0.47467 0.00996 0.10578 0.0
H1690 H 0.46023 0.99597 0.1279 0.0
H1691 H 0.47049 0.99341 0.15237 0.0
H1692 H 0.41762 0.01484 0.97553 0.0
H1693 H 0.42957 0.0111 0.9534 0.0
H1694 H 0.39001 0.96641 0.94254 0.0
H1695 H 0.37788 0.97006 0.96467 0.0
H1696 H 0.43535 0.98642 0.94769 0.0
H1697 H 0.39767 0.98851 0.90202 0.0
H1698 H 0.3989 0.99579 0.92152 0.0
H1699 H 0.38852 0.97552 0.91667 0.0
C1700 C 0.41142 0.00423 0.96842 0.0
C1701 C 0.39679 0.99276 0.97182 0.0
C1702 C 0.41827 0.00212 0.9558 0.0
C1703 C 0.4106 0.98855 0.9463 0.0
C1704 C 0.39601 0.97704 0.94964 0.0
H1705 H 0.44041 0.96413 0.86277 0.0
H1706 H 0.42562 0.96326 0.88454 0.0
C1707 C 0.38914 0.97913 0.96231 0.0
C1708 C 0.41811 0.98644 0.9331 0.0
H1709 H 0.41704 0.9843 0.89407 0.0
C1710 C 0.43133 0.98589 0.93596 0.0
C1711 C 0.41273 0.98564 0.91785 0.0
C1712 C 0.39873 0.98649 0.91422 0.0
C1713 C 0.43945 0.98474 0.92393 0.0
C1714 C 0.43437 0.98445 0.90867 0.0
C1715 C 0.4209 0.98456 0.90579 0.0
C1716 C 0.44329 0.98483 0.89559 0.0
C1717 C 0.45339 0.9838 0.92766 0.0
C1718 C 0.458 -0.00266 0.89454 0.0
C1719 C 0.46648 -0.00217 0.88221 0.0
C1720 C 0.46034 0.98587 0.87062 0.0
C1721 C 0.44551 0.97342 0.87162 0.0
C1722 C 0.43703 0.97294 0.88398 0.0
H1723 H 0.45316 0.9796 0.93919 0.0
H1724 H 0.45447 0.97611 0.91908 0.0
H1725 H 0.46362 0.9954 0.9276 0.0
H1726 H 0.46292 0.00676 0.90325 0.0
H1727 H 0.47791 0.0075 0.88187 0.0
H1728 H 0.02497 0.38207 0.96908 0.0
H1729 H 0.03077 0.39907 0.94802 0.0
H1730 H 0.00319 0.41574 0.96695 0.0
H1731 H -0.00286 0.39875 0.98761 0.0
H1732 H 0.99535 0.40555 0.93688 0.0
H1733 H 0.05764 0.44573 0.94604 0.0
H1734 H 0.05135 0.42565 0.94506 0.0
H1735 H 0.0463 0.43383 0.9607 0.0
C1736 C 0.02035 0.38955 0.96883 0.0
C1737 C 0.01048 0.38896 0.97991 0.0
C1738 C 0.02372 0.39928 0.95685 0.0
C1739 C 0.01744 0.4087 0.95595 0.0
C1740 C 0.00811 0.40853 0.96737 0.0
H1741 H 0.03139 0.48394 0.90425 0.0
H1742 H 0.03242 0.46715 0.92286 0.0
C1743 C 0.00464 0.39877 0.97917 0.0
C1744 C 0.01941 0.41792 0.94264 0.0
H1745 H 0.04532 0.44883 0.92446 0.0
C1746 C 0.0063 0.41495 0.93409 0.0
C1747 C 0.03369 0.43023 0.93912 0.0
C1748 C 0.04807 0.43419 0.94825 0.0
C1749 C 0.00696 0.42418 0.9224 0.0
C1750 C 0.02123 0.43649 0.91882 0.0
C1751 C 0.03442 0.43931 0.92716 0.0
C1752 C 0.02244 0.44701 0.90704 0.0
C1753 C 0.99228 0.42103 0.91446 0.0
C1754 C 0.01696 0.44138 0.89186 0.0
C1755 C 0.01619 0.45088 0.8813 0.0
C1756 C 0.02115 0.46626 0.88566 0.0
C1757 C 0.0275 0.47213 0.90059 0.0
C1758 C 0.0281 0.46257 0.91121 0.0
H1759 H 0.98232 0.41373 0.92109 0.0
H1760 H 0.9925 0.43187 0.91264 0.0
H1761 H 0.99065 0.41491 0.90313 0.0
H1762 H 0.01286 0.42951 0.8883 0.0
H1763 H 0.01151 0.44614 0.86978 0.0
H1764 H 0.60031 0.62736 0.00686 0.0
H1765 H 0.58397 0.61708 0.9833 0.0
H1766 H 0.57719 0.57233 0.99012 0.0
H1767 H 0.59399 0.58269 0.01338 0.0
H1768 H 0.58408 0.57931 0.96206 0.0
H1769 H 0.53889 0.59143 0.97575 0.0
H1770 H 0.55731 0.60843 0.97798 0.0
H1771 H 0.55267 0.59298 0.9901 0.0
C1772 C 0.59521 0.6153 0.00341 0.0
C1773 C 0.59845 0.60583 0.01195 0.0
C1774 C 0.58575 0.6094 0.99001 0.0
C1775 C 0.57909 0.59385 0.98507 0.0
C1776 C 0.58213 0.58434 0.99374 0.0
H1777 H 0.51257 0.54994 0.90666 0.0
H1778 H 0.52462 0.5581 0.93272 0.0
C1779 C 0.59174 0.59027 0.00702 0.0
C1780 C 0.56998 0.58778 0.97026 0.0
H1781 H 0.54041 0.58579 0.94914 0.0
C1782 C 0.57443 0.58059 0.95932 0.0
C1783 C 0.55723 0.58922 0.96673 0.0
C1784 C 0.55114 0.59579 0.97833 0.0
C1785 C 0.56682 0.57523 0.94483 0.0
C1786 C 0.5547 0.57755 0.94096 0.0
C1787 C 0.54987 0.58425 0.95204 0.0
C1788 C 0.54714 0.57333 0.92535 0.0
C1789 C 0.57179 0.567 0.93387 0.0
C1790 C 0.55571 0.57956 0.91265 0.0
C1791 C 0.54891 0.57483 0.89786 0.0
C1792 C 0.53335 0.56398 0.89549 0.0
C1793 C 0.52459 0.55832 0.90821 0.0
C1794 C 0.53146 0.56294 0.92306 0.0
H1795 H 0.57763 0.56196 0.94004 0.0
H1796 H 0.56199 0.5577 0.92674 0.0
H1797 H 0.57992 0.57529 0.92616 0.0
H1798 H 0.56773 0.58795 0.91417 0.0
H1799 H 0.55585 0.57959 0.88824 0.0
H1800 H 0.01444 0.62792 0.00051 0.0
H1801 H 0.02241 0.61677 0.98006 0.0
H1802 H 0.98356 0.57217 0.98569 0.0
H1803 H 0.97557 0.58305 0.00607 0.0
H1804 H 0.01181 0.57294 0.98375 0.0
H1805 H 0.00027 0.60132 0.93668 0.0
H1806 H 0.01232 0.61347 0.95284 0.0
H1807 H 0.99267 0.60002 0.95523 0.0
C1808 C 0.00761 0.61574 -0.0026 0.0
C1809 C 0.99432 0.6064 0.00489 0.0
C1810 C 0.01216 0.60941 0.9857 0.0
C1811 C 0.0035 0.59368 0.98133 0.0
C1812 C 0.99039 0.58434 0.98892 0.0
H1813 H 0.99096 0.53666 0.90203 0.0
H1814 H 0.98988 0.55156 0.92405 0.0
C1815 C 0.98582 0.59062 0.00054 0.0
C1816 C 0.00776 0.58678 0.96868 0.0
H1817 H 0.0085 0.58428 0.92979 0.0
C1818 C 0.01129 0.57554 0.97195 0.0
C1819 C 0.00692 0.59014 0.95333 0.0
C1820 C 0.00275 0.60181 0.94919 0.0
C1821 C 0.01365 0.56727 0.96021 0.0
C1822 C 0.01254 0.57044 0.94485 0.0
C1823 C 0.00939 0.58195 0.94161 0.0
C1824 C 0.01337 0.56112 0.9319 0.0
C1825 C 0.01664 0.55475 0.96424 0.0
C1826 C 0.02694 0.56152 0.92909 0.0
C1827 C 0.02757 0.55291 0.91654 0.0
C1828 C 0.01462 0.54374 0.90664 0.0
C1829 C 0.00104 0.54333 0.90961 0.0
C1830 C 0.00044 0.55196 0.92209 0.0
H1831 H 0.01476 0.55213 0.97642 0.0
H1832 H 0.0092 0.54411 0.95689 0.0
H1833 H 0.02859 0.5584 0.96217 0.0
H1834 H 0.03708 0.56866 0.93646 0.0
H1835 H 0.03819 0.55345 0.91454 0.0
H1836 H 0.37553 0.41366 0.96248 0.0
H1837 H 0.38777 0.43188 0.94289 0.0
H1838 H 0.42361 0.42158 0.94267 0.0
H1839 H 0.41145 0.4033 0.96214 0.0
H1840 H 0.41762 0.45803 0.94437 0.0
H1841 H 0.40849 0.41538 0.89721 0.0
H1842 H 0.39815 0.41014 0.91435 0.0
H1843 H 0.41721 0.41375 0.91454 0.0
C1844 C 0.386 0.41525 0.95822 0.0
C1845 C 0.3925 0.407 0.96378 0.0
C1846 C 0.39296 0.42566 0.94706 0.0
C1847 C 0.40645 0.42788 0.94121 0.0
C1848 C 0.41305 0.4198 0.94686 0.0
H1849 H 0.47553 0.50053 0.89343 0.0
H1850 H 0.45969 0.48301 0.91215 0.0
C1851 C 0.40613 0.40942 0.95803 0.0
C1852 C 0.41385 0.43887 0.92941 0.0
H1853 H 0.42587 0.44158 0.89322 0.0
C1854 C 0.41933 0.45445 0.93313 0.0
C1855 C 0.41584 0.4341 0.91471 0.0
C1856 C 0.4095 0.41741 0.90987 0.0
C1857 C 0.42726 0.46549 0.92268 0.0
C1858 C 0.42989 0.46079 0.90826 0.0
C1859 C 0.42394 0.44515 0.90435 0.0
C1860 C 0.43922 0.47191 0.8972 0.0
C1861 C 0.43275 0.48207 0.92715 0.0
C1862 C 0.43299 0.47131 0.88254 0.0
C1863 C 0.44204 0.4812 0.87177 0.0
C1864 C 0.45751 0.49177 0.87546 0.0
C1865 C 0.46367 0.49242 0.89022 0.0
C1866 C 0.45461 0.48255 0.90098 0.0
H1867 H 0.4263 0.48325 0.93654 0.0
H1868 H 0.44488 0.48797 0.93125 0.0
H1869 H 0.43173 0.48797 0.91723 0.0
H1870 H 0.42115 0.46307 0.87938 0.0
H1871 H 0.43702 0.48029 0.86044 0.0
H1872 H 0.59363 0.01735 0.00291 0.0
H1873 H 0.57753 0.01022 0.97942 0.0
H1874 H 0.58385 0.97199 0.96982 0.0
H1875 H 0.60019 0.97913 0.9934 0.0
H1876 H 0.58869 0.99001 0.94504 0.0
H1877 H 0.53407 0.97456 0.96972 0.0
H1878 H 0.54936 0.99298 0.97714 0.0
H1879 H 0.5499 0.97602 0.98088 0.0
C1880 C 0.59153 0.00733 0.99591 0.0
C1881 C 0.59822 -0.0012 8e-05 0.0
C1882 C 0.58221 0.00321 0.98252 0.0
C1883 C 0.57928 0.99043 0.97301 0.0
C1884 C 0.58587 0.98182 0.97709 0.0
H1885 H 0.51529 0.96095 0.89222 0.0
H1886 H 0.52805 0.96067 0.91624 0.0
C1887 C 0.59519 0.98592 0.99057 0.0
C1888 C 0.57011 0.98676 0.95836 0.0
H1889 H 0.53606 0.98013 0.94324 0.0
C1890 C 0.5771 0.98762 0.94463 0.0
C1891 C 0.55494 0.98346 0.95784 0.0
C1892 C 0.54656 0.98154 0.97219 0.0
C1893 C 0.56958 0.98605 0.93042 0.0
C1894 C 0.55478 0.98375 0.92996 0.0
C1895 C 0.54749 0.98209 0.94364 0.0
C1896 C 0.54699 0.98382 0.91548 0.0
C1897 C 0.57763 0.98703 0.91602 0.0
C1898 C 0.55328 -0.00298 0.90727 0.0
C1899 C 0.54605 -0.00279 0.8936 0.0
C1900 C 0.53232 0.98423 0.88789 0.0
C1901 C 0.52592 0.97108 0.89625 0.0
C1902 C 0.53315 0.97092 0.90999 0.0
H1903 H 0.58674 0.98434 0.91795 0.0
H1904 H 0.56955 0.97906 0.90663 0.0
H1905 H 0.58295 -0.00114 0.91227 0.0
H1906 H 0.56381 0.0072 0.91145 0.0
H1907 H 0.55139 0.00746 0.88736 0.0
H1908 H 0.58596 0.98612 0.07474 0.0
H1909 H 0.57357 0.9892 0.09682 0.0
H1910 H 0.61456 0.0315 0.11165 0.0
H1911 H 0.62713 0.02853 0.0895 0.0
H1912 H 0.60026 0.00978 0.13507 0.0
H1913 H 0.56021 0.02145 0.10297 0.0
H1914 H 0.56056 0.00487 0.09563 0.0
H1915 H 0.57715 0.02356 0.09501 0.0
C1916 C 0.59236 0.99612 0.08266 0.0
C1917 C 0.60752 0.00712 0.08035 0.0
C1918 C 0.58523 -0.00212 0.09523 0.0
C1919 C 0.5931 0.01066 0.10574 0.0
C1920 C 0.60828 0.0216 0.1036 0.0
H1921 H 0.54824 0.03278 0.17717 0.0
H1922 H 0.56471 0.03487 0.1566 0.0
C1923 C 0.61542 0.01989 0.09094 0.0
C1924 C 0.58548 0.01234 0.11911 0.0
H1925 H 0.55537 0.01571 0.12897 0.0
C1926 C 0.59054 0.01123 0.13379 0.0
C1927 C 0.57291 0.01439 0.11737 0.0
C1928 C 0.56743 0.01628 0.10192 0.0
C1929 C 0.58296 0.01154 0.14675 0.0
C1930 C 0.56997 0.01287 0.14492 0.0
C1931 C 0.56527 0.01458 0.13031 0.0
C1932 C 0.56071 0.01193 0.15791 0.0
C1933 C 0.58887 0.01035 0.16229 0.0
C1934 C 0.55298 -0.00167 0.16539 0.0
C1935 C 0.54357 -0.0029 0.17711 0.0
C1936 C 0.54171 0.00946 0.18154 0.0
C1937 C 0.54959 0.02314 0.17412 0.0
C1938 C 0.55893 0.02432 0.16233 0.0
H1939 H 0.60092 0.01342 0.16226 0.0
H1940 H 0.58788 0.01793 0.1711 0.0
H1941 H 0.58204 -0.00162 0.16558 0.0
H1942 H 0.55401 0.98856 0.16199 0.0
H1943 H 0.53774 0.98647 0.18269 0.0
H1944 H 0.00811 0.61437 0.08088 0.0
H1945 H 0.00468 0.59726 0.10096 0.0
H1946 H 0.95878 0.58721 0.10493 0.0
H1947 H 0.96207 0.60433 0.08462 0.0
H1948 H 0.99655 0.5982 0.13151 0.0
H1949 H 0.95468 0.54463 0.09724 0.0
H1950 H 0.96632 0.56248 0.08861 0.0
H1951 H 0.95032 0.55964 0.09887 0.0
C1952 C -0.00272 0.60857 0.08602 0.0
C1953 C 0.98532 0.61063 0.0811 0.0
C1954 C 0.99536 0.59882 0.09752 0.0
C1955 C 0.98144 0.59086 0.10429 0.0
C1956 C 0.96954 0.5931 0.09968 0.0
H1957 H 0.97308 0.5392 0.18469 0.0
H1958 H 0.97104 0.55624 0.16719 0.0
C1959 C 0.97147 0.60293 0.08814 0.0
C1960 C 0.97953 0.5801 0.11602 0.0
H1961 H 0.96206 0.54203 0.12208 0.0
C1962 C 0.98889 0.58592 0.12956 0.0
C1963 C 0.96964 0.5641 0.11329 0.0
C1964 C 0.95972 0.55725 0.09869 0.0
C1965 C 0.98885 0.57614 0.14036 0.0
C1966 C 0.97906 0.56014 0.13758 0.0
C1967 C 0.96948 0.55432 0.12417 0.0
C1968 C 0.97934 0.54922 0.14797 0.0
C1969 C -0.00026 0.58295 0.15433 0.0
C1970 C 0.98429 0.53935 0.14281 0.0
C1971 C 0.98537 0.52953 0.15272 0.0
C1972 C 0.98142 0.52935 0.16796 0.0
C1973 C 0.9761 0.539 0.17298 0.0
C1974 C 0.97505 0.54883 0.16306 0.0
H1975 H 0.00851 0.59515 0.15327 0.0
H1976 H 0.99333 0.58235 0.16451 0.0
H1977 H 0.00549 0.57641 0.15638 0.0
H1978 H 0.98759 0.53944 0.13117 0.0
H1979 H 0.98929 0.52208 0.14846 0.0
H1980 H 0.40299 0.37516 0.03789 0.0
H1981 H 0.41941 0.37975 0.06087 0.0
H1982 H 0.42102 0.42225 0.07197 0.0
H1983 H 0.40474 0.41788 0.04912 0.0
H1984 H 0.45007 0.40787 0.06981 0.0
H1985 H 0.40546 0.39584 0.11053 0.0
H1986 H 0.40109 0.38903 0.09057 0.0
H1987 H 0.40736 0.40867 0.09615 0.0
C1988 C 0.40685 0.38549 0.04521 0.0
C1989 C 0.40249 0.39612 0.04169 0.0
C1990 C 0.41625 0.38809 0.05829 0.0
C1991 C 0.42127 0.40126 0.06812 0.0
C1992 C 0.41711 0.41196 0.06456 0.0
H1993 H 0.4894 0.45066 0.14029 0.0
H1994 H 0.4748 0.44039 0.11569 0.0
C1995 C 0.40783 0.40944 0.05147 0.0
C1996 C 0.43077 0.40389 0.08224 0.0
H1997 H 0.43084 0.40768 0.1211 0.0
C1998 C 0.44587 0.40767 0.08105 0.0
C1999 C 0.42515 0.40344 0.09684 0.0
C2000 C 0.40884 0.39891 0.09869 0.0
C2001 C 0.45571 0.41164 0.09416 0.0
C2002 C 0.45028 0.41192 0.10873 0.0
C2003 C 0.435 0.40752 0.10991 0.0
C2004 C 0.46034 0.41752 0.12291 0.0
C2005 C 0.47184 0.4156 0.09231 0.0
C2006 C 0.45707 0.40806 0.13511 0.0
C2007 C 0.46532 0.41392 0.1492 0.0
C2008 C 0.47691 0.4294 0.15138 0.0
C2009 C 0.4805 0.43871 0.13897 0.0
C2010 C 0.47227 0.43282 0.12487 0.0
H2011 H 0.473 0.4107 0.0812 0.0
H2012 H 0.47931 0.42824 0.09262 0.0
H2013 H 0.4759 0.41138 0.10173 0.0
H2014 H 0.44781 0.39625 0.13386 0.0
H2015 H 0.46213 0.40652 0.1586 0.0
H2016 H 0.67648 0.7358 0.38657 0.0
H2017 H 0.66945 0.74761 0.40705 0.0
H2018 H 0.62567 0.70629 0.40738 0.0
H2019 H 0.63251 0.69443 0.38661 0.0
H2020 H 0.62416 0.73302 0.40883 0.0
H2021 H 0.66727 0.73726 0.45165 0.0
H2022 H 0.67516 0.746 0.43431 0.0
H2023 H 0.6622 0.72565 0.43385 0.0
C2024 C 0.66535 0.7292 0.39099 0.0
C2025 C 0.65509 0.71413 0.38506 0.0
C2026 C 0.66138 0.73595 0.40274 0.0
C2027 C 0.64715 0.72772 0.40891 0.0
C2028 C 0.63674 0.71279 0.40282 0.0
H2029 H 0.60809 0.75005 0.48559 0.0
H2030 H 0.61134 0.73776 0.46253 0.0
C2031 C 0.64069 0.70603 0.391 0.0
C2032 C 0.64322 0.73475 0.42176 0.0
H2033 H 0.65493 0.75095 0.45822 0.0
C2034 C 0.6308 0.73685 0.41968 0.0
C2035 C 0.65186 0.73964 0.43592 0.0
C2036 C 0.66477 0.7369 0.43916 0.0
C2037 C 0.6271 0.74418 0.43125 0.0
C2038 C 0.636 0.74939 0.44524 0.0
C2039 C 0.64824 0.74705 0.4474 0.0
C2040 C 0.63295 0.75738 0.45789 0.0
C2041 C 0.61399 0.74665 0.42835 0.0
C2042 C 0.64395 0.77251 0.46278 0.0
C2043 C 0.64212 0.77956 0.47588 0.0
C2044 C 0.6293 0.77155 0.48443 0.0
C2045 C 0.61799 0.75659 0.47915 0.0
C2046 C 0.61983 0.74954 0.46599 0.0
H2047 H 0.61016 0.74466 0.41603 0.0
H2048 H 0.60429 0.73857 0.43484 0.0
H2049 H 0.61715 0.75847 0.43236 0.0
H2050 H 0.65415 0.77873 0.45666 0.0
H2051 H 0.65092 0.79117 0.47955 0.0
H2052 H 0.24916 0.92502 0.43198 0.0
H2053 H 0.24136 0.90613 0.45103 0.0
H2054 H 0.27831 0.89913 0.4409 0.0
H2055 H 0.28647 0.91841 0.42191 0.0
H2056 H 0.23217 0.87595 0.44644 0.0
H2057 H 0.28282 0.90564 0.48747 0.0
H2058 H 0.27943 0.91528 0.47243 0.0
H2059 H 0.28653 0.90275 0.46808 0.0
C2060 C 0.25572 0.91955 0.43381 0.0
C2061 C 0.26846 0.92325 0.42541 0.0
C2062 C 0.25122 0.90873 0.44472 0.0
C2063 C 0.25931 0.90131 0.44748 0.0
C2064 C 0.27206 0.90493 0.43915 0.0
H2065 H 0.21441 0.82001 0.50063 0.0
H2066 H 0.22858 0.83675 0.48065 0.0
C2067 C 0.27666 0.91589 0.42825 0.0
C2068 C 0.25392 0.88948 0.45879 0.0
H2069 H 0.26311 0.88132 0.49346 0.0
C2070 C 0.23897 0.87704 0.45667 0.0
C2071 C 0.2628 0.89101 0.47216 0.0
C2072 C 0.27875 0.90444 0.4753 0.0
C2073 C 0.23246 0.86635 0.46775 0.0
C2074 C 0.24131 0.8679 0.48116 0.0
C2075 C 0.25641 0.8801 0.48311 0.0
C2076 C 0.23462 0.85778 0.49387 0.0
C2077 C 0.21594 0.85398 0.46531 0.0
C2078 C 0.23405 0.86408 0.50821 0.0
C2079 C 0.22624 0.85458 0.51976 0.0
C2080 C 0.21876 0.83855 0.51718 0.0
C2081 C 0.22005 0.8323 0.50305 0.0
C2082 C 0.228 0.84184 0.49154 0.0
H2083 H 0.20994 0.85655 0.45623 0.0
H2084 H 0.2151 0.84296 0.46174 0.0
H2085 H 0.20998 0.85248 0.47603 0.0
H2086 H 0.23919 0.87637 0.51031 0.0
H2087 H 0.22578 0.8598 0.53062 0.0
H2088 H 0.08731 0.36003 0.38979 0.0
H2089 H 0.10493 0.3712 0.41248 0.0
H2090 H 0.10926 0.33124 0.41244 0.0
H2091 H 0.09188 0.32007 0.38975 0.0
H2092 H 0.10053 0.35871 0.44051 0.0
H2093 H 0.15334 0.36605 0.4178 0.0
H2094 H 0.13746 0.36306 0.40553 0.0
H2095 H 0.13744 0.34705 0.41349 0.0
C2096 C 0.09215 0.35369 0.39449 0.0
C2097 C 0.08817 0.33914 0.38794 0.0
C2098 C 0.10222 0.36011 0.40745 0.0
C2099 C 0.10859 0.35217 0.41397 0.0
C2100 C 0.10477 0.33774 0.40737 0.0
H2101 H 0.15034 0.34629 0.49529 0.0
H2102 H 0.13986 0.34512 0.46951 0.0
C2103 C 0.09471 0.33131 0.39445 0.0
C2104 C 0.11824 0.35826 0.42842 0.0
H2105 H 0.15186 0.36535 0.44519 0.0
C2106 C 0.11188 0.36048 0.44151 0.0
C2107 C 0.13305 0.36059 0.42964 0.0
C2108 C 0.14079 0.35922 0.41582 0.0
C2109 C 0.11956 0.36403 0.45599 0.0
C2110 C 0.13406 0.3656 0.45731 0.0
C2111 C 0.14072 0.36409 0.44412 0.0
C2112 C 0.14175 0.36726 0.47242 0.0
C2113 C 0.11175 0.36521 0.46985 0.0
C2114 C 0.14664 0.38029 0.48244 0.0
C2115 C 0.15256 0.38096 0.49723 0.0
C2116 C 0.15367 0.36859 0.5022 0.0
C2117 C 0.14937 0.35587 0.49187 0.0
C2118 C 0.1435 0.35523 0.47712 0.0
H2119 H 0.0996 0.36122 0.46711 0.0
H2120 H 0.11249 0.35835 0.47898 0.0
H2121 H 0.11749 0.37733 0.47447 0.0
H2122 H 0.14555 0.38976 0.47893 0.0
H2123 H 0.15575 0.39088 0.50496 0.0
H2124 H 0.0521 0.29305 0.30691 0.0
H2125 H 0.0609 0.28518 0.28459 0.0
H2126 H 0.09881 0.33133 0.28353 0.0
H2127 H 0.09028 0.33922 0.30598 0.0
H2128 H 0.06481 0.29543 0.25581 0.0
H2129 H 0.11939 0.30628 0.28228 0.0
H2130 H 0.10462 0.30565 0.29343 0.0
H2131 H 0.11733 0.32273 0.28428 0.0
C2132 C 0.06236 0.3015 0.30197 0.0
C2133 C 0.07056 0.31674 0.30824 0.0
C2134 C 0.06736 0.29698 0.28923 0.0
C2135 C 0.08064 0.30761 0.28258 0.0
C2136 C 0.08874 0.32286 0.28871 0.0
H2137 H 0.11008 0.3071 0.19214 0.0
H2138 H 0.09818 0.3094 0.215 0.0
C2139 C 0.0838 0.32737 0.30149 0.0
C2140 C 0.08581 0.30292 0.26892 0.0
H2141 H 0.11651 0.30308 0.25494 0.0
C2142 C 0.07606 0.29694 0.25564 0.0
C2143 C 0.10037 0.30464 0.26883 0.0
C2144 C 0.11097 0.31002 0.28302 0.0
C2145 C 0.08071 0.2932 0.24207 0.0
C2146 C 0.09561 0.29581 0.24173 0.0
C2147 C 0.10514 0.30124 0.25517 0.0
C2148 C 0.1018 0.29352 0.22747 0.0
C2149 C 0.0696 0.28644 0.22826 0.0
C2150 C 0.10799 0.28403 0.22697 0.0
C2151 C 0.11507 0.28292 0.21402 0.0
C2152 C 0.11611 0.29133 0.20134 0.0
C2153 C 0.10959 0.30058 0.20177 0.0
C2154 C 0.10259 0.30174 0.21475 0.0
H2155 H 0.05768 0.28069 0.23164 0.0
H2156 H 0.07138 0.29576 0.22093 0.0
H2157 H 0.07122 0.27802 0.22137 0.0
H2158 H 0.10761 0.27769 0.23672 0.0
H2159 H 0.12018 0.27589 0.21419 0.0
H2160 H 0.65663 0.72587 0.30295 0.0
H2161 H 0.66826 0.74513 0.28445 0.0
H2162 H 0.71189 0.75058 0.29637 0.0
H2163 H 0.70021 0.73091 0.31487 0.0
H2164 H 0.69046 0.7751 0.29048 0.0
H2165 H 0.70922 0.74559 0.24958 0.0
H2166 H 0.69597 0.73564 0.26388 0.0
H2167 H 0.71586 0.74761 0.26925 0.0
C2168 C 0.66869 0.73105 0.30162 0.0
C2169 C 0.67749 0.72684 0.31043 0.0
C2170 C 0.67533 0.74209 0.29102 0.0
C2171 C 0.69092 0.74924 0.28895 0.0
C2172 C 0.69979 0.74503 0.2976 0.0
H2173 H 0.7285 0.8319 0.23734 0.0
H2174 H 0.72611 0.81477 0.25716 0.0
C2175 C 0.69311 0.73384 0.3082 0.0
C2176 C 0.69769 0.76145 0.27809 0.0
H2177 H 0.71424 0.7701 0.24389 0.0
C2178 C 0.69581 0.77411 0.28036 0.0
C2179 C 0.70457 0.76005 0.26487 0.0
C2180 C 0.70646 0.74646 0.26161 0.0
C2181 C 0.70007 0.7851 0.26953 0.0
C2182 C 0.70681 0.78363 0.25621 0.0
C2183 C 0.70917 0.77125 0.25416 0.0
C2184 C 0.71008 0.79399 0.24365 0.0
C2185 C 0.69654 0.7977 0.27209 0.0
C2186 C 0.70251 0.78796 0.22919 0.0
C2187 C 0.70408 0.79768 0.21775 0.0
C2188 C 0.7132 0.81368 0.22053 0.0
C2189 C 0.72139 0.81966 0.23478 0.0
C2190 C 0.71991 0.80989 0.24619 0.0
H2191 H 0.68832 0.79517 0.28107 0.0
H2192 H 0.70714 0.80856 0.27583 0.0
H2193 H 0.69178 0.79949 0.26136 0.0
H2194 H 0.69496 0.77572 0.22693 0.0
H2195 H 0.69789 0.79266 0.20679 0.0
H2196 H 0.25518 0.95716 0.35161 0.0
H2197 H 0.23779 0.94857 0.32877 0.0
H2198 H 0.24582 0.91139 0.31955 0.0
H2199 H 0.26283 0.91962 0.34258 0.0
H2200 H 0.24409 0.94729 0.29996 0.0
H2201 H 0.20041 0.88907 0.31372 0.0
H2202 H 0.2143 0.90293 0.32796 0.0
H2203 H 0.21901 0.89162 0.31547 0.0
C2204 C 0.25308 0.94704 0.34481 0.0
C2205 C 0.26034 0.93904 0.3489 0.0
C2206 C 0.24314 0.94214 0.33178 0.0
C2207 C 0.24028 0.92918 0.32258 0.0
C2208 C 0.24748 0.92115 0.32669 0.0
H2209 H 0.21912 0.90906 0.22695 0.0
H2210 H 0.23008 0.91827 0.253 0.0
C2211 C 0.25731 0.92595 0.3398 0.0
C2212 C 0.23073 0.92473 0.30807 0.0
H2213 H 0.20184 0.89405 0.28695 0.0
C2214 C 0.2347 0.9357 0.29722 0.0
C2215 C 0.21827 0.90971 0.30457 0.0
C2216 C 0.21264 0.89772 0.31613 0.0
C2217 C 0.22709 0.93185 0.28269 0.0
C2218 C 0.21546 0.91652 0.27877 0.0
C2219 C 0.21092 0.90575 0.28988 0.0
C2220 C 0.20862 0.91122 0.26293 0.0
C2221 C 0.23169 0.94424 0.27166 0.0
C2222 C 0.19284 0.90381 0.25988 0.0
C2223 C 0.18648 0.89826 0.24495 0.0
C2224 C 0.1958 0.89991 0.23287 0.0
C2225 C 0.2116 0.90742 0.23601 0.0
C2226 C 0.21791 0.9129 0.25088 0.0
H2227 H 0.23661 0.95571 0.27783 0.0
H2228 H 0.2405 0.94448 0.26447 0.0
H2229 H 0.22189 0.94216 0.26403 0.0
H2230 H 0.18546 0.90228 0.26905 0.0
H2231 H 0.17426 0.89238 0.24294 0.0
H2232 H 0.69285 0.95906 0.33994 0.0
H2233 H 0.70553 0.95217 0.32065 0.0
H2234 H 0.66966 0.90486 0.31992 0.0
H2235 H 0.65706 0.91152 0.33927 0.0
H2236 H 0.69882 0.90884 0.3201 0.0
H2237 H 0.68987 0.94119 0.27548 0.0
H2238 H 0.69981 0.95195 0.29308 0.0
H2239 H 0.68021 0.93713 0.29304 0.0
C2240 C 0.68769 0.94718 0.33572 0.0
C2241 C 0.67386 0.93586 0.34107 0.0
C2242 C 0.69494 0.94328 0.32467 0.0
C2243 C 0.68843 0.92804 0.31874 0.0
C2244 C 0.67487 0.9167 0.32435 0.0
H2245 H 0.68821 0.88359 0.23551 0.0
H2246 H 0.68449 0.89563 0.25826 0.0
C2247 C 0.66765 0.92055 0.33538 0.0
C2248 C 0.69526 0.92379 0.30625 0.0
H2249 H 0.70114 0.92702 0.26814 0.0
C2250 C 0.69954 0.91295 0.30878 0.0
C2251 C 0.69607 0.92914 0.29148 0.0
C2252 C 0.69116 0.94041 0.28799 0.0
C2253 C 0.70411 0.90689 0.29679 0.0
C2254 C 0.70456 0.91197 0.28196 0.0
C2255 C 0.70084 0.92323 0.27956 0.0
C2256 C 0.70716 0.90455 0.26844 0.0
C2257 C 0.70766 0.89455 0.29988 0.0
C2258 C 0.72117 0.90556 0.26663 0.0
C2259 C 0.72331 0.89851 0.25363 0.0
C2260 C 0.71144 0.89034 0.24229 0.0
C2261 C 0.69747 0.88946 0.24418 0.0
C2262 C 0.69537 0.89648 0.25711 0.0
H2263 H 0.70451 0.89026 0.31142 0.0
H2264 H 0.70157 0.88475 0.29117 0.0
H2265 H 0.72001 0.89922 0.29913 0.0
H2266 H 0.73048 0.91191 0.27517 0.0
H2267 H 0.7342 0.89941 0.25247 0.0
H2268 H 0.0392 0.75017 0.30011 0.0
H2269 H 0.04999 0.76786 0.27979 0.0
H2270 H 0.08783 0.7606 0.27954 0.0
H2271 H 0.07716 0.74291 0.29975 0.0
H2272 H 0.07935 0.79523 0.28044 0.0
H2273 H 0.07132 0.75221 0.2342 0.0
H2274 H 0.06129 0.74702 0.25155 0.0
H2275 H 0.08063 0.75145 0.25154 0.0
C2276 C 0.0498 0.75231 0.29569 0.0
C2277 C 0.05731 0.74511 0.30148 0.0
C2278 C 0.05593 0.76241 0.28411 0.0
C2279 C 0.06957 0.76533 0.27806 0.0
C2280 C 0.07715 0.75827 0.2839 0.0
H2281 H 0.1374 0.83715 0.2298 0.0
H2282 H 0.12116 0.82001 0.24854 0.0
C2283 C 0.07107 0.74823 0.2955 0.0
C2284 C 0.07618 0.77606 0.26589 0.0
H2285 H 0.08802 0.77848 0.22965 0.0
C2286 C 0.0811 0.79157 0.26926 0.0
C2287 C 0.07822 0.77118 0.25128 0.0
C2288 C 0.07246 0.75453 0.24683 0.0
C2289 C 0.08868 0.80248 0.25859 0.0
C2290 C 0.09149 0.79771 0.2443 0.0
C2291 C 0.08595 0.7821 0.24068 0.0
C2292 C 0.10092 0.80879 0.23326 0.0
C2293 C 0.09374 0.81901 0.26274 0.0
C2294 C 0.09494 0.80803 0.21842 0.0
C2295 C 0.10422 0.81774 0.20765 0.0
C2296 C 0.11968 0.82824 0.21152 0.0
C2297 C 0.12556 0.8291 0.22646 0.0
C2298 C 0.11627 0.81944 0.23723 0.0
H2299 H 0.08708 0.8201 0.27195 0.0
H2300 H 0.10585 0.82522 0.26697 0.0
H2301 H 0.09263 0.82465 0.25263 0.0
H2302 H 0.08314 0.79977 0.21512 0.0
H2303 H 0.09943 0.81672 0.19617 0.0
H2304 H 0.24964 0.34065 0.33304 0.0
H2305 H 0.23272 0.32927 0.31007 0.0
H2306 H 0.24169 0.29223 0.30789 0.0
H2307 H 0.25888 0.30367 0.3309 0.0
H2308 H 0.24486 0.30539 0.28046 0.0
H2309 H 0.19016 0.29189 0.30353 0.0
H2310 H 0.20483 0.31138 0.30847 0.0
H2311 H 0.20652 0.29599 0.31568 0.0
C2312 C 0.24793 0.32999 0.32782 0.0
C2313 C 0.25565 0.32308 0.33385 0.0
C2314 C 0.23813 0.32343 0.31473 0.0
C2315 C 0.23573 0.30976 0.30741 0.0
C2316 C 0.24328 0.30272 0.31345 0.0
H2317 H 0.17061 0.26921 0.22686 0.0
H2318 H 0.18368 0.27163 0.25171 0.0
C2319 C 0.2531 0.30927 0.3266 0.0
C2320 C 0.22627 0.3036 0.29283 0.0
H2321 H 0.1917 0.29392 0.27624 0.0
C2322 C 0.23315 0.30263 0.27958 0.0
C2323 C 0.21093 0.29977 0.29169 0.0
C2324 C 0.20262 0.29965 0.30563 0.0
C2325 C 0.22539 0.29882 0.26512 0.0
C2326 C 0.21044 0.29613 0.26387 0.0
C2327 C 0.20324 0.29619 0.2772 0.0
C2328 C 0.20256 0.29437 0.2488 0.0
C2329 C 0.23336 0.29797 0.25126 0.0
C2330 C 0.20874 0.30642 0.23907 0.0
C2331 C 0.20135 0.30508 0.22496 0.0
C2332 C 0.18753 0.29168 0.2203 0.0
C2333 C 0.18128 0.27962 0.23009 0.0
C2334 C 0.1887 0.281 0.24429 0.0
H2335 H 0.24252 0.29563 0.25441 0.0
H2336 H 0.22527 0.28892 0.24259 0.0
H2337 H 0.23865 0.30912 0.24598 0.0
H2338 H 0.21929 0.31695 0.24244 0.0
H2339 H 0.20657 0.3145 0.21761 0.0
H2340 H 0.29181 0.36812 0.41889 0.0
H2341 H 0.28181 0.37402 0.44157 0.0
H2342 H 0.24139 0.32928 0.43554 0.0
H2343 H 0.25126 0.32325 0.41292 0.0
H2344 H 0.23689 0.35543 0.44067 0.0
H2345 H 0.27717 0.35411 0.4837 0.0
H2346 H 0.2852 0.36555 0.4677 0.0
H2347 H 0.27364 0.34511 0.46458 0.0
C2348 C 0.28079 0.35953 0.4224 0.0
C2349 C 0.27234 0.34519 0.41415 0.0
C2350 C 0.27513 0.36291 0.43538 0.0
C2351 C 0.26093 0.35203 0.44026 0.0
C2352 C 0.2524 0.3378 0.43195 0.0
H2353 H 0.2145 0.34101 0.52259 0.0
H2354 H 0.22762 0.33924 0.50044 0.0
C2355 C 0.25807 0.33437 0.41905 0.0
C2356 C 0.25484 0.35542 0.45399 0.0
H2357 H 0.25939 0.36012 0.49301 0.0
C2358 C 0.24185 0.35657 0.45212 0.0
C2359 C 0.26131 0.35678 0.46887 0.0
C2360 C 0.27505 0.35524 0.47146 0.0
C2361 C 0.23508 0.35896 0.46479 0.0
C2362 C 0.24153 0.36027 0.47967 0.0
C2363 C 0.25457 0.35921 0.48155 0.0
C2364 C 0.23433 0.36185 0.49345 0.0
C2365 C 0.22083 0.3596 0.46223 0.0
C2366 C 0.234 0.37525 0.49696 0.0
C2367 C 0.22652 0.3763 0.50962 0.0
C2368 C 0.2192 0.36392 0.51891 0.0
C2369 C 0.21987 0.35065 0.51553 0.0
C2370 C 0.22742 0.34966 0.50295 0.0
H2371 H 0.21596 0.35596 0.45024 0.0
H2372 H 0.21212 0.35218 0.47004 0.0
H2373 H 0.22348 0.37153 0.46478 0.0
H2374 H 0.23939 0.38483 0.48982 0.0
H2375 H 0.22612 0.38663 0.5119 0.0
H2376 H 0.6283 0.92913 0.4158 0.0
H2377 H 0.62222 0.91089 0.43558 0.0
H2378 H 0.66787 0.91932 0.43642 0.0
H2379 H 0.67409 0.93759 0.41674 0.0
H2380 H 0.64238 0.88679 0.43259 0.0
H2381 H 0.63902 0.92096 0.48215 0.0
H2382 H 0.62914 0.91984 0.46434 0.0
H2383 H 0.64948 0.92976 0.46568 0.0
C2384 C 0.63708 0.92719 0.42029 0.0
C2385 C 0.65168 0.93479 0.41472 0.0
C2386 C 0.63359 0.91681 0.43159 0.0
C2387 C 0.64463 0.91386 0.43745 0.0
C2388 C 0.65923 0.92151 0.43202 0.0
H2389 H 0.65203 0.86649 0.51245 0.0
H2390 H 0.65476 0.88468 0.49365 0.0
C2391 C 0.66276 0.93195 0.42081 0.0
C2392 C 0.64087 0.90237 0.44884 0.0
H2393 H 0.63366 0.89599 0.48639 0.0
C2394 C 0.64037 0.88872 0.44434 0.0
C2395 C 0.63835 0.90505 0.46412 0.0
C2396 C 0.63908 0.91971 0.46949 0.0
C2397 C 0.63751 0.87766 0.4548 0.0
C2398 C 0.63504 0.88035 0.4701 0.0
C2399 C 0.63546 0.89397 0.4746 0.0
C2400 C 0.6329 0.86951 0.48178 0.0
C2401 C 0.63754 0.86335 0.44956 0.0
C2402 C 0.6196 0.85507 0.48139 0.0
C2403 C 0.61801 0.84465 0.49211 0.0
C2404 C 0.62974 0.84852 0.5033 0.0
C2405 C 0.64291 0.86312 0.5038 0.0
C2406 C 0.64444 0.87355 0.49317 0.0
H2407 H 0.64184 0.86406 0.43797 0.0
H2408 H 0.64465 0.86123 0.45772 0.0
H2409 H 0.62579 0.85336 0.44925 0.0
H2410 H 0.61054 0.85182 0.47271 0.0
H2411 H 0.60777 0.83346 0.49144 0.0
H2412 H 0.06803 0.71441 0.37894 0.0
H2413 H 0.08469 0.71993 0.4019 0.0
H2414 H 0.09081 0.76506 0.40789 0.0
H2415 H 0.07413 0.75967 0.38507 0.0
H2416 H 0.11566 0.74452 0.40889 0.0
H2417 H 0.0754 0.7458 0.44903 0.0
H2418 H 0.06963 0.73756 0.42958 0.0
H2419 H 0.07951 0.75799 0.43348 0.0
C2420 C 0.07293 0.72552 0.38512 0.0
C2421 C 0.06964 0.73655 0.38022 0.0
C2422 C 0.08246 0.72866 0.39821 0.0
C2423 C 0.08879 0.74282 0.40666 0.0
C2424 C 0.08582 0.75397 0.40164 0.0
H2425 H 0.15838 0.78801 0.47974 0.0
H2426 H 0.14374 0.77971 0.45497 0.0
C2427 C 0.07631 0.75086 0.38856 0.0
C2428 C 0.09835 0.74591 0.42087 0.0
H2429 H 0.10021 0.75396 0.45938 0.0
C2430 C 0.11228 0.74652 0.41995 0.0
C2431 C 0.09381 0.74836 0.43528 0.0
C2432 C 0.07872 0.74727 0.437 0.0
C2433 C 0.12197 0.74993 0.43306 0.0
C2434 C 0.11758 0.75277 0.44736 0.0
C2435 C 0.10352 0.75182 0.44834 0.0
C2436 C 0.12748 0.75705 0.4615 0.0
C2437 C 0.13682 0.75045 0.43163 0.0
C2438 C 0.12323 0.74696 0.47323 0.0
C2439 C 0.13158 0.75164 0.48732 0.0
C2440 C 0.1442 0.76655 0.48995 0.0
C2441 C 0.14869 0.77647 0.47801 0.0
C2442 C 0.14041 0.77173 0.46387 0.0
H2443 H 0.13749 0.74567 0.42024 0.0
H2444 H 0.14631 0.76252 0.43331 0.0
H2445 H 0.13839 0.74396 0.44064 0.0
H2446 H 0.11319 0.73563 0.47162 0.0
H2447 H 0.12772 0.74384 0.49639 0.0
H2448 H 0.30019 0.03116 0.71778 0.0
H2449 H 0.29289 0.0434 0.73767 0.0
H2450 H 0.33634 0.08504 0.73679 0.0
H2451 H 0.34382 0.07284 0.7171 0.0
H2452 H 0.32862 0.07558 0.76586 0.0
H2453 H 0.28101 0.07594 0.73442 0.0
H2454 H 0.27938 0.05751 0.73434 0.0
H2455 H 0.29453 0.07265 0.72486 0.0
C2456 C 0.30815 0.04296 0.72176 0.0
C2457 C 0.32259 0.05104 0.71588 0.0
C2458 C 0.30391 0.04997 0.73303 0.0
C2459 C 0.31398 0.0652 0.73851 0.0
C2460 C 0.32837 0.0733 0.73262 0.0
H2461 H 0.31664 0.12809 0.80976 0.0
H2462 H 0.32041 0.11624 0.78672 0.0
C2463 C 0.33263 0.0663 0.72139 0.0
C2464 C 0.30996 0.07244 0.75107 0.0
H2465 H 0.28471 0.08327 0.76108 0.0
C2466 C 0.31906 0.07733 0.76479 0.0
C2467 C 0.29743 0.07461 0.74965 0.0
C2468 C 0.28758 0.07003 0.73499 0.0
C2469 C 0.31593 0.08424 0.77717 0.0
C2470 C 0.30349 0.08653 0.77572 0.0
C2471 C 0.29427 0.08152 0.76208 0.0
C2472 C 0.30006 0.09419 0.78834 0.0
C2473 C 0.32583 0.08886 0.79182 0.0
C2474 C 0.28702 0.08588 0.79643 0.0
C2475 C 0.28483 0.09262 0.80961 0.0
C2476 C 0.29567 0.10777 0.81484 0.0
C2477 C 0.30824 0.11632 0.80615 0.0
C2478 C 0.3104 0.10959 0.79299 0.0
H2479 H 0.33268 0.08325 0.79225 0.0
H2480 H 0.33376 0.10145 0.79264 0.0
H2481 H 0.31885 0.08592 0.80194 0.0
H2482 H 0.27891 0.07398 0.79296 0.0
H2483 H 0.27509 0.08573 0.81613 0.0
H2484 H 0.95888 0.25181 0.75039 0.0
H2485 H 0.95148 0.23251 0.76933 0.0
H2486 H 0.90462 0.21933 0.76104 0.0
H2487 H 0.91177 0.2383 0.7422 0.0
H2488 H 0.93639 0.23105 0.79607 0.0
H2489 H 0.90262 0.17816 0.7584 0.0
H2490 H 0.91591 0.19632 0.75114 0.0
H2491 H 0.89707 0.19194 0.75518 0.0
C2492 C 0.94698 0.24466 0.75248 0.0
C2493 C 0.93592 0.24661 0.74477 0.0
C2494 C 0.94279 0.23366 0.7633 0.0
C2495 C 0.92748 0.22432 0.76638 0.0
C2496 C 0.91646 0.22617 0.75859 0.0
H2497 H 0.86599 0.16983 0.8284 0.0
H2498 H 0.88107 0.18532 0.80812 0.0
C2499 C 0.92061 0.23714 0.74789 0.0
C2500 C 0.92284 0.2133 0.77845 0.0
H2501 H 0.89665 0.17639 0.78503 0.0
C2502 C 0.928 0.21901 0.79367 0.0
C2503 C 0.91195 0.19759 0.77525 0.0
C2504 C 0.90669 0.19061 0.75908 0.0
C2505 C 0.92167 0.20964 0.80586 0.0
C2506 C 0.91 0.19421 0.80266 0.0
C2507 C 0.90553 0.18827 0.78742 0.0
C2508 C 0.90111 0.18459 0.8149 0.0
C2509 C 0.92677 0.21649 0.82209 0.0
C2510 C 0.90739 0.17896 0.82534 0.0
C2511 C 0.89877 0.17009 0.83699 0.0
C2512 C 0.88381 0.16683 0.83839 0.0
C2513 C 0.87756 0.17237 0.82777 0.0
C2514 C 0.88612 0.18112 0.81612 0.0
H2515 H 0.93508 0.229 0.82262 0.0
H2516 H 0.91683 0.21448 0.82853 0.0
H2517 H 0.93213 0.21081 0.82791 0.0
H2518 H 0.91892 0.18146 0.82448 0.0
H2519 H 0.90388 0.16601 0.84503 0.0
H2520 H 0.74617 0.65084 0.72448 0.0
H2521 H 0.76271 0.66176 0.74774 0.0
H2522 H 0.76721 0.7056 0.74106 0.0
H2523 H 0.75018 0.69458 0.71791 0.0
H2524 H 0.79168 0.6848 0.75299 0.0
H2525 H 0.75321 0.69853 0.78404 0.0
H2526 H 0.74733 0.68698 0.76617 0.0
H2527 H 0.75921 0.70746 0.76635 0.0
C2528 C 0.75067 0.66282 0.7279 0.0
C2529 C 0.74673 0.6718 0.7194 0.0
C2530 C 0.76017 0.66906 0.7412 0.0
C2531 C 0.76602 0.68443 0.74628 0.0
C2532 C 0.76254 0.69361 0.73756 0.0
H2533 H 0.83277 0.71866 0.82582 0.0
H2534 H 0.82158 0.71732 0.80028 0.0
C2535 C 0.75288 0.68732 0.72429 0.0
C2536 C 0.77543 0.69052 0.76089 0.0
H2537 H 0.77586 0.70412 0.79734 0.0
C2538 C 0.78832 0.68917 0.76267 0.0
C2539 C 0.77096 0.69614 0.77351 0.0
C2540 C 0.75686 0.69727 0.77254 0.0
C2541 C 0.7965 0.69266 0.77686 0.0
C2542 C 0.7919 0.69807 0.78953 0.0
C2543 C 0.7794 0.70004 0.78759 0.0
C2544 C 0.79876 0.70007 0.80522 0.0
C2545 C 0.80945 0.68968 0.77833 0.0
C2546 C 0.78956 0.69133 0.81665 0.0
C2547 C 0.79584 0.6923 0.83128 0.0
C2548 C 0.81152 0.70195 0.83481 0.0
C2549 C 0.82067 0.7111 0.82349 0.0
C2550 C 0.81432 0.71022 0.80883 0.0
H2551 H 0.80937 0.68244 0.76841 0.0
H2552 H 0.82037 0.70075 0.77889 0.0
H2553 H 0.80895 0.68393 0.78895 0.0
H2554 H 0.77751 0.6835 0.81417 0.0
H2555 H 0.78838 0.68539 0.83982 0.0
H2556 H 0.75191 0.67303 0.63949 0.0
H2557 H 0.76105 0.66657 0.61655 0.0
H2558 H 0.72036 0.62196 0.61162 0.0
H2559 H 0.71107 0.62831 0.63457 0.0
H2560 H 0.76529 0.6405 0.61125 0.0
H2561 H 0.72346 0.64067 0.5694 0.0
H2562 H 0.72737 0.64982 0.58848 0.0
H2563 H 0.71598 0.62935 0.58557 0.0
C2564 C 0.74489 0.66184 0.63354 0.0
C2565 C 0.73074 0.6512 0.6388 0.0
C2566 C 0.75014 0.65818 0.62046 0.0
C2567 C 0.74129 0.64387 0.61235 0.0
C2568 C 0.72724 0.63314 0.61763 0.0
H2569 H 0.75873 0.60972 0.5266 0.0
H2570 H 0.74706 0.61191 0.54984 0.0
C2571 C 0.72199 0.63677 0.63076 0.0
C2572 C 0.74692 0.64022 0.59844 0.0
H2573 H 0.74102 0.63464 0.55956 0.0
C2574 C 0.75997 0.63916 0.59994 0.0
C2575 C 0.73984 0.63836 0.58377 0.0
C2576 C 0.72594 0.63969 0.58158 0.0
C2577 C 0.76626 0.63642 0.58709 0.0
C2578 C 0.75949 0.63507 0.57235 0.0
C2579 C 0.7462 0.63573 0.57088 0.0
C2580 C 0.76646 0.63369 0.5583 0.0
C2581 C 0.78006 0.63492 0.58941 0.0
C2582 C 0.78108 0.64534 0.55528 0.0
C2583 C 0.78779 0.64409 0.54212 0.0
C2584 C 0.77993 0.63122 0.53163 0.0
C2585 C 0.76514 0.61969 0.53455 0.0
C2586 C 0.75844 0.62094 0.54776 0.0
H2587 H 0.78102 0.63162 0.60112 0.0
H2588 H 0.77974 0.62628 0.58097 0.0
H2589 H 0.79041 0.64612 0.5879 0.0
H2590 H 0.78734 0.65541 0.56312 0.0
H2591 H 0.79926 0.65309 0.54033 0.0
H2592 H 0.32571 0.06557 0.63925 0.0
H2593 H 0.33756 0.08507 0.621 0.0
H2594 H 0.37777 0.08181 0.62429 0.0
H2595 H 0.36595 0.06209 0.64276 0.0
H2596 H 0.36743 0.11419 0.62721 0.0
H2597 H 0.36448 0.07708 0.57681 0.0
H2598 H 0.35199 0.06926 0.59222 0.0
H2599 H 0.37169 0.0754 0.59518 0.0
C2600 C 0.33705 0.06888 0.6361 0.0
C2601 C 0.34487 0.06222 0.64251 0.0
C2602 C 0.34381 0.08007 0.62567 0.0
C2603 C 0.35849 0.08482 0.62129 0.0
C2604 C 0.36636 0.07818 0.62748 0.0
H2605 H 0.39764 0.14965 0.5491 0.0
H2606 H 0.39589 0.13286 0.56922 0.0
C2607 C 0.35961 0.06695 0.63803 0.0
C2608 C 0.3654 0.097 0.61048 0.0
H2609 H 0.37182 0.10255 0.57268 0.0
C2610 C 0.36866 0.11174 0.61534 0.0
C2611 C 0.36708 0.09376 0.59506 0.0
C2612 C 0.36361 0.07803 0.58937 0.0
C2613 C 0.3729 0.12318 0.60501 0.0
C2614 C 0.37358 0.11965 0.58937 0.0
C2615 C 0.37121 0.10518 0.58467 0.0
C2616 C 0.37514 0.13025 0.57756 0.0
C2617 C 0.37625 0.13883 0.61087 0.0
C2618 C 0.364 0.1342 0.57553 0.0
C2619 C 0.36496 0.14373 0.56413 0.0
C2620 C 0.37706 0.14946 0.55443 0.0
C2621 C 0.38827 0.14553 0.5565 0.0
C2622 C 0.38725 0.1359 0.56791 0.0
H2623 H 0.38 0.14116 0.62322 0.0
H2624 H 0.38515 0.14797 0.60439 0.0
H2625 H 0.36576 0.13938 0.6095 0.0
H2626 H 0.35441 0.12974 0.58268 0.0
H2627 H 0.35624 0.14666 0.56294 0.0
H2628 H 0.92428 0.28362 0.67313 0.0
H2629 H 0.90754 0.27446 0.64981 0.0
H2630 H 0.92101 0.24142 0.63944 0.0
H2631 H 0.9375 0.25027 0.66293 0.0
H2632 H 0.91509 0.275 0.62073 0.0
H2633 H 0.87532 0.21504 0.63361 0.0
H2634 H 0.88824 0.22947 0.64806 0.0
H2635 H 0.89475 0.21989 0.63542 0.0
C2636 C 0.92359 0.27431 0.66595 0.0
C2637 C 0.93218 0.26763 0.66988 0.0
C2638 C 0.91401 0.26909 0.65264 0.0
C2639 C 0.91283 0.25709 0.64302 0.0
C2640 C 0.92143 0.25042 0.64689 0.0
H2641 H 0.88902 0.23726 0.5471 0.0
H2642 H 0.901 0.24617 0.57287 0.0
C2643 C 0.93094 0.25557 0.66026 0.0
C2644 C 0.90331 0.25217 0.62847 0.0
H2645 H 0.87535 0.22076 0.60733 0.0
C2646 C 0.90629 0.26317 0.61787 0.0
C2647 C 0.89163 0.23679 0.62485 0.0
C2648 C 0.88717 0.22465 0.63616 0.0
C2649 C 0.89835 0.25909 0.60351 0.0
C2650 C 0.88737 0.24354 0.59952 0.0
C2651 C 0.88391 0.23265 0.61035 0.0
C2652 C 0.87993 0.23825 0.58391 0.0
C2653 C 0.90182 0.27148 0.59274 0.0
C2654 C 0.86406 0.23049 0.5816 0.0
C2655 C 0.85713 0.22515 0.56684 0.0
C2656 C 0.86597 0.22738 0.55419 0.0
C2657 C 0.88187 0.23518 0.55661 0.0
C2658 C 0.88875 0.24047 0.57131 0.0
H2659 H 0.90663 0.28287 0.59905 0.0
H2660 H 0.91037 0.27217 0.58485 0.0
H2661 H 0.8915 0.26901 0.58578 0.0
H2662 H 0.85705 0.22855 0.59121 0.0
H2663 H 0.84486 0.21905 0.56537 0.0
H2664 H 0.35754 0.2953 0.66689 0.0
H2665 H 0.36838 0.28714 0.64662 0.0
H2666 H 0.33428 0.23997 0.65146 0.0
H2667 H 0.32324 0.24795 0.67141 0.0
H2668 H 0.37992 0.26734 0.64617 0.0
H2669 H 0.32909 0.24488 0.60617 0.0
H2670 H 0.33208 0.25702 0.62316 0.0
H2671 H 0.32473 0.23685 0.62444 0.0
C2672 C 0.35237 0.28319 0.66366 0.0
C2673 C 0.3394 0.27229 0.67064 0.0
C2674 C 0.35859 0.27856 0.65209 0.0
C2675 C 0.35193 0.26298 0.64734 0.0
C2676 C 0.33936 0.25207 0.6547 0.0
H2677 H 0.36824 0.20602 0.58535 0.0
H2678 H 0.36291 0.21775 0.60744 0.0
C2679 C 0.3331 0.25667 0.66615 0.0
C2680 C 0.35787 0.258 0.63454 0.0
H2681 H 0.34719 0.23778 0.59975 0.0
C2682 C 0.37284 0.26101 0.63595 0.0
C2683 C 0.34862 0.24985 0.62116 0.0
C2684 C 0.33279 0.24709 0.61853 0.0
C2685 C 0.37859 0.25558 0.62453 0.0
C2686 C 0.36912 0.24696 0.61149 0.0
C2687 C 0.35432 0.24427 0.6099 0.0
C2688 C 0.37422 0.24049 0.59929 0.0
C2689 C 0.39459 0.25874 0.62649 0.0
C2690 C 0.38252 0.24951 0.58757 0.0
C2691 C 0.38545 0.24283 0.57486 0.0
C2692 C 0.38009 0.22701 0.57368 0.0
C2693 C 0.37236 0.21818 0.58583 0.0
C2694 C 0.36939 0.22486 0.59849 0.0
H2695 H 0.40034 0.26512 0.6376 0.0
H2696 H 0.3945 0.24778 0.62576 0.0
H2697 H 0.40127 0.26555 0.61707 0.0
H2698 H 0.38617 0.26157 0.58796 0.0
H2699 H 0.39121 0.24992 0.56562 0.0
H2700 H 0.7119 0.07678 0.62068 0.0
H2701 H 0.7244 0.09432 0.60066 0.0
H2702 H 0.76137 0.08576 0.60392 0.0
H2703 H 0.74897 0.06818 0.62395 0.0
H2704 H 0.7696 0.118 0.60472 0.0
H2705 H 0.72931 0.08173 0.55584 0.0
H2706 H 0.72106 0.08439 0.57265 0.0
H2707 H 0.7308 0.07396 0.5735 0.0
C2708 C 0.72267 0.07859 0.6171 0.0
C2709 C 0.72945 0.07109 0.62386 0.0
C2710 C 0.72975 0.08856 0.60564 0.0
C2711 C 0.7437 0.09119 0.60077 0.0
C2712 C 0.75055 0.0838 0.60753 0.0
H2713 H 0.79426 0.13475 0.52337 0.0
H2714 H 0.78001 0.11737 0.54293 0.0
C2715 C 0.74345 0.07376 0.61894 0.0
C2716 C 0.75135 0.10191 0.58883 0.0
H2717 H 0.74868 0.10666 0.55079 0.0
C2718 C 0.76504 0.11557 0.59293 0.0
C2719 C 0.74535 0.09858 0.57349 0.0
C2720 C 0.73087 0.08383 0.56849 0.0
C2721 C 0.77292 0.12609 0.58203 0.0
C2722 C 0.76686 0.12283 0.56671 0.0
C2723 C 0.75319 0.10914 0.5626 0.0
C2724 C 0.77493 0.13322 0.55466 0.0
C2725 C 0.78781 0.14045 0.58688 0.0
C2726 C 0.77654 0.14776 0.55471 0.0
C2727 C 0.78467 0.15771 0.54356 0.0
C2728 C 0.79134 0.15326 0.53224 0.0
C2729 C 0.78942 0.13855 0.53208 0.0
C2730 C 0.78123 0.1286 0.54317 0.0
H2731 H 0.79221 0.13995 0.59845 0.0
H2732 H 0.79648 0.14239 0.57857 0.0
H2733 H 0.78621 0.15044 0.58711 0.0
H2734 H 0.77161 0.15144 0.56344 0.0
H2735 H 0.78604 0.169 0.54399 0.0
H2736 H 0.92163 0.64283 0.65739 0.0
H2737 H 0.90485 0.63372 0.63401 0.0
H2738 H 0.89347 0.66855 0.64297 0.0
H2739 H 0.91046 0.67798 0.66605 0.0
H2740 H 0.87436 0.6227 0.62849 0.0
H2741 H 0.9083 0.6768 0.60028 0.0
H2742 H 0.91517 0.67267 0.61753 0.0
H2743 H 0.90227 0.67969 0.61848 0.0
C2744 C 0.91552 0.64853 0.6544 0.0
C2745 C 0.91754 0.66126 0.66348 0.0
C2746 C 0.90593 0.64329 0.64105 0.0
C2747 C 0.89817 0.65067 0.63658 0.0
C2748 C 0.89967 0.66295 0.64597 0.0
H2749 H 0.83624 0.64005 0.56166 0.0
H2750 H 0.84984 0.64481 0.58659 0.0
C2751 C 0.90934 0.66828 0.65921 0.0
C2752 C 0.88872 0.64575 0.62197 0.0
H2753 H 0.88405 0.65889 0.58827 0.0
C2754 C 0.87653 0.63057 0.61965 0.0
C2755 C 0.89164 0.65601 0.61039 0.0
C2756 C 0.90514 0.67215 0.6117 0.0
C2757 C 0.86695 0.62553 0.60621 0.0
C2758 C 0.86967 0.63593 0.59489 0.0
C2759 C 0.88193 0.65101 0.59711 0.0
C2760 C 0.86007 0.63145 0.58048 0.0
C2761 C 0.85382 0.60924 0.60426 0.0
C2762 C 0.86123 0.62222 0.56889 0.0
C2763 C 0.85365 0.61964 0.55455 0.0
C2764 C 0.84477 0.62626 0.55157 0.0
C2765 C 0.84316 0.63498 0.56348 0.0
C2766 C 0.85083 0.63763 0.57776 0.0
H2767 H 0.85201 0.60321 0.61495 0.0
H2768 H 0.84324 0.609 0.60065 0.0
H2769 H 0.85607 0.60287 0.59512 0.0
H2770 H 0.8685 0.61753 0.57074 0.0
H2771 H 0.85534 0.61306 0.5456 0.0
H2772 H 0.95429 0.70243 0.74908 0.0
H2773 H 0.94515 0.70931 0.77183 0.0
H2774 H 0.90306 0.66596 0.76587 0.0
H2775 H 0.91203 0.65901 0.74311 0.0
H2776 H 0.8998 0.692 0.7714 0.0
H2777 H 0.94036 0.69045 0.81383 0.0
H2778 H 0.94854 0.70212 0.79803 0.0
H2779 H 0.93679 0.68171 0.7946 0.0
C2780 C 0.94309 0.69436 0.75263 0.0
C2781 C 0.93389 0.68015 0.74433 0.0
C2782 C 0.93792 0.69829 0.76565 0.0
C2783 C 0.9235 0.68807 0.7706 0.0
C2784 C 0.91425 0.67398 0.76224 0.0
H2785 H 0.88022 0.67912 0.85441 0.0
H2786 H 0.89314 0.67737 0.83212 0.0
C2787 C 0.9194 0.67002 0.74926 0.0
C2788 C 0.91791 0.692 0.78443 0.0
H2789 H 0.92339 0.69751 0.82336 0.0
C2790 C 0.90501 0.69332 0.78276 0.0
C2791 C 0.92469 0.69359 0.79921 0.0
C2792 C 0.9383 0.6918 0.80164 0.0
C2793 C 0.89857 0.69602 0.79554 0.0
C2794 C 0.90533 0.69759 0.81033 0.0
C2795 C 0.91833 0.69643 0.81198 0.0
C2796 C 0.89839 0.6993 0.82427 0.0
C2797 C 0.88428 0.69664 0.79317 0.0
C2798 C 0.89734 0.71236 0.82739 0.0
C2799 C 0.88991 0.71337 0.84011 0.0
C2800 C 0.88339 0.70132 0.84988 0.0
C2801 C 0.88491 0.68848 0.84696 0.0
C2802 C 0.89237 0.68751 0.83429 0.0
H2803 H 0.87896 0.69239 0.78139 0.0
H2804 H 0.87586 0.68972 0.80146 0.0
H2805 H 0.88706 0.70867 0.7951 0.0
H2806 H 0.90209 0.72167 0.81987 0.0
H2807 H 0.88887 0.72338 0.84203 0.0
H2808 H 0.34054 0.27354 0.74881 0.0
H2809 H 0.33315 0.25472 0.76804 0.0
H2810 H 0.28725 0.24556 0.7638 0.0
H2811 H 0.29451 0.26429 0.74437 0.0
H2812 H 0.32024 0.25369 0.79626 0.0
H2813 H 0.28249 0.20292 0.75651 0.0
H2814 H 0.29592 0.22131 0.74983 0.0
H2815 H 0.27841 0.21813 0.75698 0.0
C2816 C 0.32887 0.26755 0.75197 0.0
C2817 C 0.31808 0.27033 0.745 0.0
C2818 C 0.32468 0.25682 0.76297 0.0
C2819 C 0.30962 0.24862 0.76717 0.0
C2820 C 0.29888 0.25159 0.76051 0.0
H2821 H 0.28343 0.19246 0.84619 0.0
H2822 H 0.28609 0.21091 0.82771 0.0
C2823 C 0.30306 0.26235 0.74948 0.0
C2824 C 0.30528 0.23693 0.77849 0.0
H2825 H 0.28421 0.19845 0.78248 0.0
C2826 C 0.31229 0.24162 0.79331 0.0
C2827 C 0.29501 0.2212 0.7745 0.0
C2828 C 0.28758 0.2155 0.75857 0.0
C2829 C 0.30943 0.23095 0.80423 0.0
C2830 C 0.29913 0.21521 0.80026 0.0
C2831 C 0.292 0.21054 0.78549 0.0
C2832 C 0.29638 0.20336 0.81099 0.0
C2833 C 0.31786 0.23653 0.81976 0.0
C2834 C 0.3008 0.19268 0.80744 0.0
C2835 C 0.29918 0.18206 0.81788 0.0
C2836 C 0.29303 0.18187 0.83204 0.0
C2837 C 0.28813 0.19225 0.83534 0.0
C2838 C 0.28977 0.2029 0.82488 0.0
H2839 H 0.32762 0.24847 0.81988 0.0
H2840 H 0.31002 0.23627 0.82833 0.0
H2841 H 0.32211 0.229 0.82334 0.0
H2842 H 0.30584 0.1928 0.79673 0.0
H2843 H 0.30284 0.17405 0.81492 0.0
H2844 H 0.75138 0.08811 0.70522 0.0
H2845 H 0.76752 0.09215 0.72801 0.0
H2846 H 0.75337 0.04422 0.72502 0.0
H2847 H 0.73693 0.03998 0.70221 0.0
H2848 H 0.75118 0.05451 0.75365 0.0
H2849 H 0.80783 0.09387 0.73322 0.0
H2850 H 0.79482 0.10037 0.72963 0.0
H2851 H 0.79124 0.0826 0.72032 0.0
C2852 C 0.75179 0.07842 0.70927 0.0
C2853 C 0.74283 0.06371 0.70186 0.0
C2854 C 0.76114 0.08079 0.72225 0.0
C2855 C 0.76186 0.06854 0.72805 0.0
C2856 C 0.75308 0.05386 0.72063 0.0
H2857 H 0.82449 0.08844 0.80851 0.0
H2858 H 0.81141 0.07831 0.78305 0.0
C2859 C 0.74369 0.05146 0.70761 0.0
C2860 C 0.77086 0.07097 0.74256 0.0
H2861 H 0.8059 0.09413 0.76061 0.0
C2862 C 0.7632 0.06298 0.75511 0.0
C2863 C 0.78659 0.08184 0.7444 0.0
C2864 C 0.79563 0.09004 0.73112 0.0
C2865 C 0.77067 0.06625 0.76967 0.0
C2866 C 0.78611 0.07797 0.77175 0.0
C2867 C 0.794 0.08529 0.75903 0.0
C2868 C 0.79388 0.08362 0.78718 0.0
C2869 C 0.76187 0.05732 0.78276 0.0
C2870 C 0.78845 0.09011 0.7978 0.0
C2871 C 0.79585 0.09586 0.81225 0.0
C2872 C 0.80892 0.09536 0.81636 0.0
C2873 C 0.81439 0.08888 0.80569 0.0
C2874 C 0.80697 0.08315 0.79116 0.0
H2875 H 0.75208 0.04595 0.7786 0.0
H2876 H 0.76922 0.05561 0.791 0.0
H2877 H 0.75736 0.06377 0.78892 0.0
H2878 H 0.77853 0.09084 0.79486 0.0
H2879 H 0.79123 0.10058 0.82027 0.0
H2880 H 0.01905 0.31891 0.04193 0.0
H2881 H 0.03497 0.31188 0.05644 0.0
H2882 H 0.0747 0.35493 0.04804 0.0
H2883 H 0.05879 0.36201 0.03323 0.0
H2884 H 0.07896 0.3297 0.04508 0.0
H2885 H 0.0534 0.33094 0.09957 0.0
H2886 H 0.03975 0.31864 0.0845 0.0
H2887 H 0.05071 0.33896 0.08264 0.0
C2888 C 0.03119 0.32687 0.04305 0.0
C2889 C 0.03765 0.34109 0.03654 0.0
C2890 C 0.04026 0.32285 0.05143 0.0
C2891 C 0.05596 0.33303 0.05361 0.0
C2892 C 0.06257 0.34697 0.04659 0.0
H2893 H 0.11507 0.32875 0.12369 0.0
H2894 H 0.10002 0.33578 0.10761 0.0
C2895 C 0.05348 0.35099 0.03813 0.0
C2896 C 0.06535 0.32918 0.06349 0.0
H2897 H 0.06947 0.3205 0.09985 0.0
C2898 C 0.07694 0.32774 0.05706 0.0
C2899 C 0.06283 0.32685 0.07919 0.0
C2900 C 0.0511 0.32907 0.08695 0.0
C2901 C 0.08588 0.32371 0.06585 0.0
C2902 C 0.08295 0.32079 0.08139 0.0
C2903 C 0.07157 0.32255 0.08788 0.0
C2904 C 0.09179 0.31623 0.09124 0.0
C2905 C 0.09853 0.32284 0.05847 0.0
C2906 C 0.09188 0.30271 0.08758 0.0
C2907 C 0.10054 0.2987 0.09671 0.0
C2908 C 0.10922 0.30809 0.10974 0.0
C2909 C 0.1087 0.32138 0.11362 0.0
C2910 C 0.10006 0.32538 0.10448 0.0
H2911 H 0.10184 0.32925 0.04797 0.0
H2912 H 0.1087 0.32748 0.06652 0.0
H2913 H 0.09466 0.31068 0.05516 0.0
H2914 H 0.08532 0.29531 0.0776 0.0
H2915 H 0.10078 0.28847 0.09331 0.0
H2916 H 0.66265 0.67157 0.07887 0.0
H2917 H 0.67791 0.69652 0.09306 0.0
H2918 H 0.63753 0.69857 0.09964 0.0
H2919 H 0.62214 0.67358 0.08564 0.0
H2920 H 0.6809 0.72387 0.08553 0.0
H2921 H 0.65808 0.70948 0.14272 0.0
H2922 H 0.65506 0.69504 0.12799 0.0
H2923 H 0.6434 0.70353 0.12781 0.0
C2924 C 0.65698 0.67725 0.08346 0.0
C2925 C 0.64115 0.67056 0.08113 0.0
C2926 C 0.66573 0.6915 0.09157 0.0
C2927 C 0.65882 0.69926 0.0976 0.0
C2928 C 0.64304 0.6926 0.09537 0.0
H2929 H 0.68638 0.79197 0.11576 0.0
H2930 H 0.67868 0.76625 0.10522 0.0
C2931 C 0.63428 0.67836 0.08726 0.0
C2932 C 0.66814 0.71477 0.10537 0.0
H2933 H 0.67127 0.73622 0.13786 0.0
C2934 C 0.67898 0.72654 0.09707 0.0
C2935 C 0.66583 0.71818 0.12052 0.0
C2936 C 0.65507 0.70586 0.13034 0.0
C2937 C 0.68689 0.7418 0.10317 0.0
C2938 C 0.68371 0.74535 0.11785 0.0
C2939 C 0.67358 0.73348 0.12653 0.0
C2940 C 0.6896 0.76136 0.12379 0.0
C2941 C 0.69837 0.75401 0.09372 0.0
C2942 C 0.69818 0.76709 0.13782 0.0
C2943 C 0.70253 0.78181 0.14393 0.0
C2944 C 0.69813 0.79087 0.1362 0.0
C2945 C 0.6898 0.78518 0.12202 0.0
C2946 C 0.68554 0.77056 0.11591 0.0
H2947 H 0.70301 0.74917 0.08537 0.0
H2948 H 0.69277 0.75905 0.08716 0.0
H2949 H 0.70792 0.76333 0.10108 0.0
H2950 H 0.70129 0.76009 0.14413 0.0
H2951 H 0.70885 0.78589 0.15493 0.0
H2952 H 0.32752 0.93591 0.03116 0.0
H2953 H 0.30417 0.92556 0.04483 0.0
H2954 H 0.30794 0.96979 0.04684 0.0
H2955 H 0.33125 0.98027 0.03336 0.0
H2956 H 0.30362 0.9568 0.07507 0.0
H2957 H 0.26143 0.91593 0.02981 0.0
H2958 H 0.27765 0.91389 0.03317 0.0
H2959 H 0.28012 0.93111 0.02568 0.0
C2960 C 0.3233 0.9434 0.03439 0.0
C2961 C 0.33127 0.95892 0.03119 0.0
C2962 C 0.30992 0.93745 0.04211 0.0
C2963 C 0.30428 0.9469 0.04668 0.0
C2964 C 0.3121 0.96232 0.04335 0.0
H2965 H 0.21763 0.91822 0.08696 0.0
H2966 H 0.23939 0.93001 0.07083 0.0
C2967 C 0.32543 0.96827 0.03564 0.0
C2968 C 0.29075 0.94101 0.05576 0.0
H2969 H 0.25292 0.91442 0.05499 0.0
C2970 C 0.29251 0.94759 0.07066 0.0
C2971 C 0.27627 0.92915 0.04988 0.0
C2972 C 0.27365 0.92217 0.03371 0.0
C2973 C 0.28022 0.94233 0.08001 0.0
C2974 C 0.26588 0.93008 0.07433 0.0
C2975 C 0.26399 0.92376 0.0593 0.0
C2976 C 0.25285 0.92325 0.0841 0.0
C2977 C 0.28267 0.9499 0.09588 0.0
C2978 C 0.25329 0.91555 0.09678 0.0
C2979 C 0.24097 0.90886 0.10595 0.0
C2980 C 0.22796 0.90972 0.10257 0.0
C2981 C 0.22757 0.91751 0.08988 0.0
C2982 C 0.23991 0.92415 0.08064 0.0
H2983 H 0.29318 0.96139 0.0971 0.0
H2984 H 0.27288 0.95115 0.09874 0.0
H2985 H 0.28377 0.94267 0.10432 0.0
H2986 H 0.26313 0.91462 0.09951 0.0
H2987 H 0.24164 0.90307 0.11575 0.0
H2988 H 0.37683 0.0506 0.01274 0.0
H2989 H 0.36643 0.06671 0.0059 0.0
H2990 H 0.3297 0.02839 0.97897 0.0
H2991 H 0.33978 0.01226 0.98589 0.0
H2992 H 0.36188 0.07388 0.9771 0.0
H2993 H 0.30714 0.04368 0.00432 0.0
H2994 H 0.3226 0.04061 0.00895 0.0
H2995 H 0.31004 0.03083 0.99223 0.0
C2996 C 0.36648 0.0456 0.00547 0.0
C2997 C 0.3591 0.03015 -0.0001 0.0
C2998 C 0.36055 0.0548 0.0016 0.0
C2999 C 0.34712 0.04864 0.9922 0.0
C3000 C 0.33983 0.03326 0.98659 0.0
H3001 H 0.29817 0.07489 0.93449 0.0
H3002 H 0.30811 0.06229 0.95012 0.0
C3003 C 0.3457 0.02409 0.99045 0.0
C3004 C 0.34114 0.0584 0.98731 0.0
H3005 H 0.30856 0.05963 0.9841 0.0
C3006 C 0.35033 0.07098 0.97889 0.0
C3007 C 0.32606 0.05458 0.9897 0.0
C3008 C 0.31595 0.04178 -0.00057 0.0
C3009 C 0.34456 0.0793 0.97203 0.0
C3010 C 0.32927 0.07498 0.97379 0.0
C3011 C 0.32026 0.06282 0.98273 0.0
C3012 C 0.32219 0.08229 0.9655 0.0
C3013 C 0.3546 0.09218 0.96232 0.0
C3014 C 0.32651 0.09757 0.96929 0.0
C3015 C 0.32075 0.10477 0.96047 0.0
C3016 C 0.31058 0.0968 0.9477 0.0
C3017 C 0.30583 0.0813 0.94434 0.0
C3018 C 0.31156 0.0741 0.9532 0.0
H3019 H 0.36549 0.09271 0.96042 0.0
H3020 H 0.34867 0.09083 0.95103 0.0
H3021 H 0.35718 0.10326 0.96808 0.0
H3022 H 0.33457 0.10398 0.97888 0.0
H3023 H 0.32444 0.11665 0.96351 0.0
H3024 H 0.94495 0.30795 0.98574 0.0
H3025 H 0.93301 0.28312 0.97121 0.0
H3026 H 0.97524 0.28363 0.97438 0.0
H3027 H 0.98734 0.30848 0.98906 0.0
H3028 H 0.94171 0.27504 0.94301 0.0
H3029 H 0.94372 0.24243 0.99148 0.0
H3030 H 0.94628 0.2613 0.99434 0.0
H3031 H 0.96132 0.25907 0.98733 0.0
C3032 C 0.95174 0.30282 0.98337 0.0
C3033 C 0.96709 0.31018 0.98865 0.0
C3034 C 0.94489 0.28864 0.97502 0.0
C3035 C 0.95322 0.28151 0.97186 0.0
C3036 C 0.96859 0.28888 0.97689 0.0
H3037 H 0.91257 0.19772 0.90953 0.0
H3038 H 0.93156 0.22282 0.92197 0.0
C3039 C 0.97548 0.3031 0.98523 0.0
C3040 C 0.94562 0.26626 0.96343 0.0
H3041 H 0.93224 0.22841 0.96798 0.0
C3042 C 0.93978 0.26485 0.94837 0.0
C3043 C 0.9431 0.25303 0.97054 0.0
C3044 C 0.94882 0.25391 0.98685 0.0
C3045 C 0.9311 0.25046 0.94035 0.0
C3046 C 0.92834 0.2372 0.94757 0.0
C3047 C 0.93453 0.23865 0.96247 0.0
C3048 C 0.91763 0.22166 0.9405 0.0
C3049 C 0.92435 0.24945 0.92449 0.0
C3050 C 0.90377 0.2126 0.94706 0.0
C3051 C 0.893 0.19836 0.94005 0.0
C3052 C 0.89591 0.19286 0.92635 0.0
C3053 C 0.91005 0.20169 0.92008 0.0
C3054 C 0.92083 0.21603 0.9271 0.0
H3055 H 0.92577 0.26057 0.92145 0.0
H3056 H 0.93002 0.24598 0.916 0.0
H3057 H 0.91207 0.24065 0.92356 0.0
H3058 H 0.90113 0.21672 0.95744 0.0
H3059 H 0.88232 0.19168 0.94528 0.0
H3060 H 0.68234 0.62781 0.04641 0.0
H3061 H 0.70718 0.63727 0.03575 0.0
H3062 H 0.69689 0.66224 0.00381 0.0
H3063 H 0.67249 0.65339 0.01476 0.0
H3064 H 0.71482 0.63344 0.00833 0.0
H3065 H 0.73785 0.69531 0.0204 0.0
H3066 H 0.72084 0.68101 0.02856 0.0
H3067 H 0.71999 0.68683 0.0096 0.0
C3068 C 0.68545 0.63539 0.03718 0.0
C3069 C 0.67555 0.63998 0.03151 0.0
C3070 C 0.69964 0.64081 0.03111 0.0
C3071 C 0.70409 0.65081 0.01924 0.0
C3072 C 0.69398 0.65501 0.01333 0.0
H3073 H 0.7648 0.66339 0.94947 0.0
H3074 H 0.74397 0.65491 0.96647 0.0
C3075 C 0.67996 0.64981 0.01951 0.0
C3076 C 0.71893 0.65632 0.01245 0.0
H3077 H 0.74936 0.68841 0.00033 0.0
C3078 C 0.72249 0.64549 0.0068 0.0
C3079 C 0.72918 0.67207 0.01077 0.0
C3080 C 0.72684 0.68446 0.01783 0.0
C3081 C 0.73557 0.64989 -0.00122 0.0
C3082 C 0.74505 0.66549 0.99586 0.0
C3083 C 0.74195 0.67641 0.00227 0.0
C3084 C 0.75781 0.67063 0.98565 0.0
C3085 C 0.73904 0.63774 0.99353 0.0
C3086 C 0.77241 0.68279 0.9905 0.0
C3087 C 0.78427 0.68789 0.98063 0.0
C3088 C 0.78173 0.68084 0.96582 0.0
C3089 C 0.7671 0.66882 0.96094 0.0
C3090 C 0.75523 0.66389 0.97069 0.0
H3091 H 0.73431 0.62812 0.00117 0.0
H3092 H 0.73367 0.63296 0.98187 0.0
H3093 H 0.75144 0.64246 0.99321 0.0
H3094 H 0.77464 0.68827 0.00193 0.0
H3095 H 0.79546 0.69717 0.98465 0.0
H3096 H 0.92911 0.62499 0.01844 0.0
H3097 H 0.91859 0.63669 0.00221 0.0
H3098 H 0.96382 0.67145 0.99214 0.0
H3099 H 0.97443 0.66016 0.00873 0.0
H3100 H 0.94706 0.68383 -0.00209 0.0
H3101 H 0.91478 0.63367 0.95628 0.0
H3102 H 0.90949 0.62912 0.9755 0.0
H3103 H 0.92846 0.63481 0.9705 0.0
C3104 C 0.93681 0.63511 0.01276 0.0
C3105 C 0.9526 0.6416 0.01483 0.0
C3106 C 0.93078 0.64173 0.00339 0.0
C3107 C 0.9404 0.65476 0.99568 0.0
C3108 C 0.95617 0.66135 -0.0021 0.0
H3109 H 0.90571 0.68476 0.92106 0.0
H3110 H 0.92002 0.67613 0.9363 0.0
C3111 C 0.96221 0.65487 0.0074 0.0
C3112 C 0.9341 0.66172 0.98554 0.0
H3113 H 0.9092 0.65366 0.95493 0.0
C3114 C 0.93886 0.67726 0.98843 0.0
C3115 C 0.92364 0.65324 0.97298 0.0
C3116 C 0.91892 0.63684 0.96852 0.0
C3117 C 0.93317 0.68445 0.97938 0.0
C3118 C 0.92207 0.67574 0.96737 0.0
C3119 C 0.9176 0.66031 0.96423 0.0
C3120 C 0.91458 0.68222 0.95818 0.0
C3121 C 0.93927 0.70135 0.98267 0.0
C3122 C 0.90684 0.68858 0.96541 0.0
C3123 C 0.89886 0.69367 0.95675 0.0
C3124 C 0.89824 0.69227 0.94068 0.0
C3125 C 0.90606 0.686 0.93344 0.0
C3126 C 0.9142 0.68107 0.94212 0.0
H3127 H 0.95087 0.7072 0.98837 0.0
H3128 H 0.93965 0.70703 0.97203 0.0
H3129 H 0.93181 0.7029 0.99051 0.0
H3130 H 0.90654 0.68914 0.97775 0.0
H3131 H 0.89262 0.69811 0.96262 0.0
H3132 H 0.33626 0.3286 0.95988 0.0
H3133 H 0.3258 0.30282 0.94784 0.0
H3134 H 0.35746 0.29672 0.97564 0.0
H3135 H 0.36826 0.32272 0.98755 0.0
H3136 H 0.3557 0.28709 0.94569 0.0
H3137 H 0.29794 0.26279 0.96649 0.0
H3138 H 0.30375 0.27968 0.95638 0.0
H3139 H 0.31375 0.28095 0.97412 0.0
C3140 C 0.34099 0.32178 0.96347 0.0
C3141 C 0.35304 0.32766 0.97472 0.0
C3142 C 0.33492 0.307 0.95664 0.0
C3143 C 0.34063 0.29775 0.96107 0.0
C3144 C 0.35281 0.30365 0.97215 0.0
H3145 H 0.29843 0.19999 0.93846 0.0
H3146 H 0.30783 0.22541 0.95115 0.0
C3147 C 0.35897 0.31849 0.97893 0.0
C3148 C 0.33416 0.28207 0.95382 0.0
H3149 H 0.30108 0.24779 0.94688 0.0
C3150 C 0.34378 0.27846 0.94602 0.0
C3151 C 0.31864 0.27078 0.95445 0.0
C3152 C 0.30795 0.27367 0.96344 0.0
C3153 C 0.33824 0.26394 0.93854 0.0
C3154 C 0.32258 0.25288 0.93859 0.0
C3155 C 0.31303 0.25638 0.94667 0.0
C3156 C 0.316 0.23748 0.93063 0.0
C3157 C 0.34926 0.26052 0.9309 0.0
C3158 C 0.31705 0.23582 0.91481 0.0
C3159 C 0.31171 0.22132 0.90755 0.0
C3160 C 0.30503 0.20823 0.91596 0.0
C3161 C 0.30338 0.20986 0.93167 0.0
C3162 C 0.30882 0.22437 0.93894 0.0
H3163 H 0.36113 0.26851 0.93544 0.0
H3164 H 0.34642 0.2486 0.9325 0.0
H3165 H 0.34867 0.26185 0.91845 0.0
H3166 H 0.3222 0.24576 0.90812 0.0
H3167 H 0.31296 0.22035 0.89539 0.0
H3168 H 0.67807 0.06301 0.01983 0.0
H3169 H 0.70127 0.07277 0.00595 0.0
H3170 H 0.69882 0.02933 0.00801 0.0
H3171 H 0.67562 0.01941 0.02166 0.0
H3172 H 0.72952 0.07509 0.01372 0.0
H3173 H 0.69989 0.03571 0.96207 0.0
H3174 H 0.68984 0.03891 0.97693 0.0
H3175 H 0.69713 0.02639 0.9796 0.0
C3176 C 0.68251 0.05556 0.01739 0.0
C3177 C 0.67489 0.04037 0.02171 0.0
C3178 C 0.69576 0.06116 0.00948 0.0
C3179 C 0.70158 0.05167 0.00573 0.0
C3180 C 0.69432 0.03672 0.01051 0.0
H3181 H 0.77546 0.06386 0.94999 0.0
H3182 H 0.75532 0.05426 0.96808 0.0
C3183 C 0.68108 0.0311 0.01836 0.0
C3184 C 0.71504 0.05726 0.99652 0.0
H3185 H 0.72663 0.05084 0.96234 0.0
C3186 C 0.72891 0.06982 0.00248 0.0
C3187 C 0.71419 0.05031 0.98189 0.0
C3188 C 0.69945 0.03717 0.97465 0.0
C3189 C 0.74201 0.07555 0.99421 0.0
C3190 C 0.74112 0.06867 0.97953 0.0
C3191 C 0.72729 0.05602 0.97365 0.0
C3192 C 0.75414 0.0749 0.96966 0.0
C3193 C 0.75673 0.08882 0.00131 0.0
C3194 C 0.76012 0.08966 0.9646 0.0
C3195 C 0.77157 0.09515 0.95431 0.0
C3196 C 0.77721 0.08594 0.94881 0.0
C3197 C 0.77141 0.07125 0.95412 0.0
C3198 C 0.75989 0.06574 0.96439 0.0
H3199 H 0.75656 0.0899 0.01396 0.0
H3200 H 0.7665 0.08754 -0.00159 0.0
H3201 H 0.75853 0.0996 -0.00319 0.0
H3202 H 0.75566 0.09681 0.96831 0.0
H3203 H 0.77594 0.10658 0.95056 0.0
H3204 H 0.66417 0.98688 0.06836 0.0
H3205 H 0.67319 0.97023 0.07655 0.0
H3206 H 0.63617 0.93197 0.04983 0.0
H3207 H 0.62683 0.94864 0.04171 0.0
H3208 H 0.63927 0.92499 0.07874 0.0
H3209 H 0.69524 0.9527 0.05394 0.0
H3210 H 0.69277 0.96641 0.06505 0.0
H3211 H 0.68056 0.95655 0.04812 0.0
C3212 C 0.65797 0.97495 0.06409 0.0
C3213 C 0.64477 0.96908 0.05436 0.0
C3214 C 0.66325 0.96548 0.06868 0.0
C3215 C 0.65556 0.94994 0.06353 0.0
C3216 C 0.64237 0.94399 0.05379 0.0
H3217 H 0.69582 0.8962 0.094 0.0
H3218 H 0.68547 0.90771 0.07707 0.0
C3219 C 0.63704 0.9535 0.04918 0.0
C3220 C 0.66077 0.93985 0.0694 0.0
H3221 H 0.69262 0.93774 0.07565 0.0
C3222 C 0.65085 0.92759 0.07782 0.0
C3223 C 0.67579 0.94304 0.06797 0.0
C3224 C 0.68664 0.95529 0.05813 0.0
C3225 C 0.65585 0.91912 0.08569 0.0
C3226 C 0.67125 0.92324 0.08539 0.0
C3227 C 0.68089 0.93478 0.07611 0.0
C3228 C 0.67777 0.91646 0.09545 0.0
C3229 C 0.64466 0.90603 0.09451 0.0
C3230 C 0.67727 0.91797 0.11138 0.0
C3231 C 0.68317 0.9115 0.12101 0.0
C3232 C 0.68984 0.90346 0.11494 0.0
C3233 C 0.6908 0.90238 0.099 0.0
C3234 C 0.68482 0.90885 0.08933 0.0
H3235 H 0.63285 0.90123 0.08966 0.0
H3236 H 0.64726 0.8967 0.0945 0.0
H3237 H 0.64522 0.91026 0.10654 0.0
H3238 H 0.6723 0.92421 0.11637 0.0
H3239 H 0.68255 0.9128 0.13326 0.0
H3240 H 0.04446 0.68607 0.05491 0.0
H3241 H 0.06201 0.71145 0.06756 0.0
H3242 H 0.0241 0.71587 0.08019 0.0
H3243 H 0.00653 0.69049 0.06788 0.0
H3244 H 0.06615 0.74029 0.06309 0.0
H3245 H 0.0472 0.72273 0.12124 0.0
H3246 H 0.04219 0.70905 0.10507 0.0
H3247 H 0.03213 0.7191 0.1076 0.0
C3248 C 0.03988 0.69249 0.06032 0.0
C3249 C 0.02411 0.68622 0.06054 0.0
C3250 C 0.04991 0.70697 0.06754 0.0
C3251 C 0.04433 0.71538 0.07508 0.0
C3252 C 0.02863 0.7094 0.07477 0.0
H3253 H 0.08746 0.80363 0.12769 0.0
H3254 H 0.06934 0.77945 0.11318 0.0
C3255 C 0.01861 0.69493 0.06764 0.0
C3256 C 0.05491 0.73032 0.08345 0.0
H3257 H 0.06415 0.74923 0.11889 0.0
C3258 C 0.06575 0.74224 0.07529 0.0
C3259 C 0.05435 0.73281 0.09938 0.0
C3260 C 0.04345 0.72022 0.10888 0.0
C3261 C 0.07595 0.75668 0.08263 0.0
C3262 C 0.07535 0.75916 0.09853 0.0
C3263 C 0.06448 0.74728 0.10667 0.0
C3264 C 0.08627 0.77385 0.10705 0.0
C3265 C 0.08716 0.76924 0.0733 0.0
C3266 C 0.1017 0.77853 0.10852 0.0
C3267 C 0.11201 0.79223 0.1168 0.0
C3268 C 0.10708 0.8015 0.1238 0.0
C3269 C 0.09159 0.79676 0.12234 0.0
C3270 C 0.08124 0.78297 0.11411 0.0
H3271 H 0.08384 0.76667 0.06086 0.0
H3272 H 0.08823 0.78038 0.07689 0.0
H3273 H 0.09848 0.77048 0.07519 0.0
H3274 H 0.10574 0.77153 0.10332 0.0
H3275 H 0.1239 0.79569 0.11755 0.0
H3276 H 0.32403 0.34493 0.01717 0.0
H3277 H 0.29981 0.33072 0.02896 0.0
H3278 H 0.29979 0.37265 0.03838 0.0
H3279 H 0.32399 0.38701 0.0265 0.0
H3280 H 0.29472 0.33566 0.05935 0.0
H3281 H 0.25694 0.34307 0.01859 0.0
H3282 H 0.27532 0.34638 0.01381 0.0
H3283 H 0.27386 0.36066 0.02519 0.0
C3284 C 0.31883 0.35115 0.02162 0.0
C3285 C 0.32596 0.36713 0.0209 0.0
C3286 C 0.30498 0.34299 0.02833 0.0
C3287 C 0.29794 0.35061 0.03434 0.0
C3288 C 0.30491 0.36652 0.03352 0.0
H3289 H 0.2258 0.33416 0.0904 0.0
H3290 H 0.24645 0.34337 0.07314 0.0
C3291 C 0.31879 0.37472 0.02683 0.0
C3292 C 0.28381 0.3421 0.04238 0.0
H3293 H 0.24721 0.33392 0.04275 0.0
C3294 C 0.28425 0.33508 0.05564 0.0
C3295 C 0.27022 0.34138 0.03744 0.0
C3296 C 0.26896 0.34815 0.0229 0.0
C3297 C 0.27162 0.32794 0.06452 0.0
C3298 C 0.25814 0.32758 0.05981 0.0
C3299 C 0.25757 0.33421 0.0463 0.0
C3300 C 0.24495 0.32147 0.0694 0.0
C3301 C 0.27304 0.32146 0.07922 0.0
C3302 C 0.23707 0.30602 0.07275 0.0
C3303 C 0.22533 0.30074 0.08275 0.0
C3304 C 0.22131 0.31086 0.08951 0.0
C3305 C 0.22886 0.32618 0.08563 0.0
C3306 C 0.24056 0.33142 0.07568 0.0
H3307 H 0.28504 0.3254 0.08271 0.0
H3308 H 0.26807 0.32477 0.08866 0.0
H3309 H 0.26672 0.30877 0.07763 0.0
H3310 H 0.24015 0.29811 0.0678 0.0
H3311 H 0.2197 0.28888 0.08552 0.0
H3312 H 0.67874 0.65812 0.37945 0.0
H3313 H 0.69449 0.65075 0.39379 0.0
H3314 H 0.7348 0.69167 0.38195 0.0
H3315 H 0.71907 0.69907 0.36733 0.0
H3316 H 0.73679 0.66524 0.37877 0.0
H3317 H 0.71676 0.6707 0.43547 0.0
H3318 H 0.70174 0.6584 0.42147 0.0
H3319 H 0.71339 0.67849 0.41871 0.0
C3320 C 0.69096 0.66556 0.37986 0.0
C3321 C 0.69766 0.67924 0.37233 0.0
C3322 C 0.69994 0.66137 0.38814 0.0
C3323 C 0.71579 0.67081 0.38918 0.0
C3324 C 0.72256 0.68428 0.38137 0.0
H3325 H 0.77863 0.66604 0.45388 0.0
H3326 H 0.76288 0.67326 0.43922 0.0
C3327 C 0.71357 0.68849 0.37304 0.0
C3328 C 0.72525 0.66653 0.39836 0.0
H3329 H 0.73165 0.65893 0.43448 0.0
C3330 C 0.73572 0.66391 0.39096 0.0
C3331 C 0.72395 0.66498 0.41429 0.0
C3332 C 0.71346 0.66842 0.42301 0.0
C3333 C 0.74474 0.6595 0.39902 0.0
C3334 C 0.74305 0.65744 0.41486 0.0
C3335 C 0.73278 0.66033 0.4223 0.0
C3336 C 0.75216 0.65269 0.42399 0.0
C3337 C 0.75618 0.65735 0.39058 0.0
C3338 C 0.75108 0.63855 0.42053 0.0
C3339 C 0.76013 0.63443 0.42883 0.0
C3340 C 0.77037 0.64433 0.44082 0.0
C3341 C 0.77103 0.65826 0.44457 0.0
C3342 C 0.76199 0.66237 0.43626 0.0
H3343 H 0.75875 0.66306 0.37965 0.0
H3344 H 0.76694 0.66195 0.39771 0.0
H3345 H 0.75153 0.64493 0.38785 0.0
H3346 H 0.74333 0.63078 0.4113 0.0
H3347 H 0.75941 0.62367 0.42558 0.0
H3348 H 0.28806 0.00688 0.42088 0.0
H3349 H 0.30403 0.03229 0.43375 0.0
H3350 H 0.34381 0.02921 0.42691 0.0
H3351 H 0.32791 0.00375 0.41374 0.0
H3352 H 0.32409 0.04177 0.4598 0.0
H3353 H 0.35375 0.06934 0.40802 0.0
H3354 H 0.33676 0.05064 0.40693 0.0
H3355 H 0.35464 0.05294 0.41329 0.0
C3356 C 0.3002 0.01155 0.4221 0.0
C3357 C 0.30671 0.0033 0.41616 0.0
C3358 C 0.30931 0.02607 0.42951 0.0
C3359 C 0.32511 0.03269 0.43112 0.0
C3360 C 0.33166 0.02439 0.42555 0.0
H3361 H 0.37592 0.12066 0.48715 0.0
H3362 H 0.36853 0.09478 0.47684 0.0
C3363 C 0.32254 0.00983 0.41809 0.0
C3364 C 0.33455 0.04841 0.43839 0.0
H3365 H 0.3596 0.08527 0.43049 0.0
C3366 C 0.33203 0.05128 0.4535 0.0
C3367 C 0.34483 0.06076 0.43006 0.0
C3368 C 0.34764 0.05838 0.41364 0.0
C3369 C 0.33904 0.06626 0.46032 0.0
C3370 C 0.34902 0.07864 0.45185 0.0
C3371 C 0.35202 0.07572 0.43696 0.0
C3372 C 0.3549 0.09474 0.45749 0.0
C3373 C 0.33506 0.06877 0.47619 0.0
C3374 C 0.35014 0.10345 0.44971 0.0
C3375 C 0.35442 0.11818 0.45546 0.0
C3376 C 0.36356 0.12453 0.46914 0.0
C3377 C 0.36886 0.11605 0.47659 0.0
C3378 C 0.36456 0.10125 0.4708 0.0
H3379 H 0.32525 0.05822 0.48011 0.0
H3380 H 0.34494 0.07237 0.48437 0.0
H3381 H 0.33231 0.078 0.47657 0.0
H3382 H 0.34275 0.09867 0.43937 0.0
H3383 H 0.3504 0.12455 0.44929 0.0
H3384 H 0.00994 0.31667 0.37055 0.0
H3385 H 0.98572 0.3073 0.38227 0.0
H3386 H 0.98024 0.26246 0.3835 0.0
H3387 H 0.00447 0.27167 0.37174 0.0
H3388 H 0.95388 0.26367 0.37137 0.0
H3389 H 0.97839 0.29602 0.42789 0.0
H3390 H 0.98471 0.30682 0.41123 0.0
H3391 H 0.9895 0.29248 0.41454 0.0
C3392 C 0.00362 0.30481 0.37332 0.0
C3393 C 0.00918 0.29493 0.37026 0.0
C3394 C 0.98981 0.29951 0.38005 0.0
C3395 C 0.98132 0.28425 0.38383 0.0
C3396 C 0.9867 0.2743 0.38067 0.0
H3397 H 0.9091 0.23532 0.44146 0.0
H3398 H 0.93262 0.2483 0.42826 0.0
C3399 C 0.00055 0.2796 0.37399 0.0
C3400 C 0.96679 0.27863 0.39112 0.0
H3401 H 0.95171 0.28119 0.42449 0.0
C3402 C 0.95335 0.26755 0.38294 0.0
C3403 C 0.96625 0.28373 0.40622 0.0
C3404 C 0.98046 0.29534 0.41559 0.0
C3405 C 0.93931 0.26127 0.38957 0.0
C3406 C 0.93878 0.2663 0.40471 0.0
C3407 C 0.9522 0.27751 0.41282 0.0
C3408 C 0.92462 0.25902 0.41282 0.0
C3409 C 0.92521 0.24894 0.38059 0.0
C3410 C 0.91244 0.26096 0.40859 0.0
C3411 C 0.89895 0.25353 0.41613 0.0
C3412 C 0.89747 0.24399 0.42788 0.0
C3413 C 0.90983 0.24237 0.43225 0.0
C3414 C 0.92329 0.24985 0.42481 0.0
H3415 H 0.92787 0.24489 0.36981 0.0
H3416 H 0.91876 0.23901 0.38758 0.0
H3417 H 0.91775 0.25351 0.37764 0.0
H3418 H 0.91337 0.26814 0.39944 0.0
H3419 H 0.88958 0.25497 0.41258 0.0
H3420 H 0.02317 0.34757 0.31595 0.0
H3421 H 0.01649 0.36575 0.30667 0.0
H3422 H 0.05357 0.40229 0.33498 0.0
H3423 H 0.06058 0.38418 0.3441 0.0
H3424 H 0.00818 0.38399 0.32257 0.0
H3425 H 0.06109 0.41934 0.29294 0.0
H3426 H 0.05604 0.40091 0.29962 0.0
H3427 H 0.06389 0.41751 0.31288 0.0
C3428 C 0.02994 0.35948 0.32019 0.0
C3429 C 0.04247 0.36448 0.33068 0.0
C3430 C 0.02608 0.36984 0.3149 0.0
C3431 C 0.03465 0.38539 0.31999 0.0
C3432 C 0.047 0.39039 0.33068 0.0
H3433 H 0.02361 0.46048 0.29084 0.0
H3434 H 0.03099 0.44524 0.3057 0.0
C3435 C 0.05094 0.38003 0.33592 0.0
C3436 C 0.03051 0.39623 0.31401 0.0
H3437 H 0.04311 0.4272 0.29259 0.0
C3438 C 0.01584 0.39348 0.31608 0.0
C3439 C 0.04055 0.40862 0.30558 0.0
C3440 C 0.05623 0.41175 0.30248 0.0
C3441 C 0.01086 0.40267 0.30973 0.0
C3442 C 0.02077 0.41482 0.30102 0.0
C3443 C 0.03558 0.41787 0.29933 0.0
C3444 C 0.01569 0.42386 0.2927 0.0
C3445 C 0.995 0.39928 0.31227 0.0
C3446 C 0.0047 0.41684 0.28048 0.0
C3447 C 0.00059 0.42551 0.27187 0.0
C3448 C 0.00741 0.44138 0.27533 0.0
C3449 C 0.01827 0.44832 0.28777 0.0
C3450 C 0.02244 0.43964 0.29632 0.0
H3451 H 0.99025 0.39222 0.3222 0.0
H3452 H 0.99482 0.41004 0.3142 0.0
H3453 H 0.9875 0.39282 0.30194 0.0
H3454 H -0.00041 0.40471 0.27734 0.0
H3455 H 0.99243 0.41984 0.26219 0.0
H3456 H 0.65062 0.64553 0.32289 0.0
H3457 H 0.63962 0.62044 0.30883 0.0
H3458 H 0.5987 0.62105 0.29801 0.0
H3459 H 0.60957 0.64609 0.31186 0.0
H3460 H 0.61321 0.59355 0.3149 0.0
H3461 H 0.60881 0.60979 0.25637 0.0
H3462 H 0.62063 0.62369 0.27175 0.0
H3463 H 0.60057 0.61659 0.27007 0.0
C3464 C 0.63933 0.64039 0.31741 0.0
C3465 C 0.63099 0.64784 0.31848 0.0
C3466 C 0.63308 0.62606 0.30938 0.0
C3467 C 0.61846 0.61902 0.30217 0.0
C3468 C 0.61014 0.62644 0.3032 0.0
H3469 H 0.54769 0.52829 0.28073 0.0
H3470 H 0.56704 0.55347 0.29208 0.0
C3471 C 0.61634 0.64072 0.31123 0.0
C3472 C 0.61143 0.60352 0.29434 0.0
H3473 H 0.59295 0.58309 0.2608 0.0
C3474 C 0.609 0.59128 0.303 0.0
C3475 C 0.6062 0.6006 0.27875 0.0
C3476 C 0.60932 0.61339 0.26864 0.0
C3477 C 0.60062 0.57609 0.29672 0.0
C3478 C 0.59436 0.57311 0.28148 0.0
C3479 C 0.59762 0.5854 0.27254 0.0
C3480 C 0.58327 0.55738 0.27508 0.0
C3481 C 0.59826 0.56335 0.30656 0.0
C3482 C 0.5859 0.5513 0.26163 0.0
C3483 C 0.57478 0.5369 0.25503 0.0
C3484 C 0.56078 0.5285 0.26168 0.0
C3485 C 0.55831 0.53456 0.27527 0.0
C3486 C 0.56942 0.54887 0.28187 0.0
H3487 H 0.60748 0.56747 0.31572 0.0
H3488 H 0.58738 0.559 0.31213 0.0
H3489 H 0.59775 0.55368 0.29961 0.0
H3490 H 0.59648 0.55778 0.25615 0.0
H3491 H 0.57692 0.53255 0.2445 0.0
H3492 H 0.34068 0.95079 0.38057 0.0
H3493 H 0.36368 0.95565 0.36817 0.0
H3494 H 0.35828 0.98491 0.3377 0.0
H3495 H 0.33578 0.98061 0.35038 0.0
H3496 H 0.36758 0.94923 0.33996 0.0
H3497 H 0.40189 0.01199 0.35136 0.0
H3498 H 0.38457 0.00036 0.36067 0.0
H3499 H 0.38398 0.00654 0.34183 0.0
C3500 C 0.34452 0.95839 0.37134 0.0
C3501 C 0.33651 0.96543 0.36654 0.0
C3502 C 0.35765 0.96115 0.36426 0.0
C3503 C 0.36293 0.97093 0.35222 0.0
C3504 C 0.35477 0.97775 0.34729 0.0
H3505 H 0.41598 0.97029 0.27869 0.0
H3506 H 0.3964 0.96544 0.29652 0.0
C3507 C 0.34181 0.97518 0.35448 0.0
C3508 C 0.37649 0.97344 0.34424 0.0
H3509 H 0.40932 0.00139 0.33058 0.0
C3510 C 0.37682 0.96064 0.3381 0.0
C3511 C 0.38875 0.98831 0.34207 0.0
C3512 C 0.38987 0.00256 0.34949 0.0
C3513 C 0.38869 0.9623 0.32928 0.0
C3514 C 0.40028 0.97718 0.32606 0.0
C3515 C 0.40032 0.98997 0.3328 0.0
C3516 C 0.41222 0.97976 0.31539 0.0
C3517 C 0.38867 0.94808 0.3236 0.0
C3518 C 0.42762 0.98987 0.31982 0.0
C3519 C 0.4388 0.99293 0.3095 0.0
C3520 C 0.43477 0.98583 0.29461 0.0
C3521 C 0.41938 0.9757 0.29019 0.0
C3522 C 0.4082 0.97285 0.30041 0.0
H3523 H 0.38263 0.93866 0.3313 0.0
H3524 H 0.38262 0.94405 0.31212 0.0
H3525 H 0.40039 0.95032 0.32272 0.0
H3526 H 0.431 0.99542 0.33127 0.0
H3527 H 0.4506 0.00075 0.31319 0.0
H3528 H 0.63875 0.9827 0.34435 0.0
H3529 H 0.62498 0.99096 0.32783 0.0
H3530 H 0.58625 0.94499 0.32401 0.0
H3531 H 0.59979 0.93662 0.34054 0.0
H3532 H 0.61173 0.97949 0.29728 0.0
H3533 H 0.56889 0.97179 0.3386 0.0
H3534 H 0.58639 0.97267 0.34423 0.0
H3535 H 0.57071 0.95527 0.33525 0.0
C3536 C 0.62729 0.97435 0.34003 0.0
C3537 C 0.62034 0.95901 0.34386 0.0
C3538 C 0.61946 0.97909 0.33057 0.0
C3539 C 0.60455 0.96862 0.32489 0.0
C3540 C 0.59767 0.95329 0.3285 0.0
H3541 H 0.53385 0.96714 0.26903 0.0
H3542 H 0.55066 0.96157 0.284 0.0
C3543 C 0.60546 0.94853 0.33792 0.0
C3544 C 0.59611 0.97362 0.31512 0.0
H3545 H 0.56401 0.97572 0.31302 0.0
C3546 C 0.60137 0.97881 0.30073 0.0
C3547 C 0.58264 0.97276 0.31973 0.0
C3548 C 0.57687 0.96796 0.33535 0.0
C3549 C 0.59316 0.98262 0.29057 0.0
C3550 C 0.57949 0.98139 0.29506 0.0
C3551 C 0.57444 0.97654 0.30958 0.0
C3552 C 0.56995 0.98469 0.28479 0.0
C3553 C 0.59888 0.98744 0.27495 0.0
C3554 C 0.57529 -0.00048 0.28014 0.0
C3555 C 0.56573 0.00272 0.27144 0.0
C3556 C 0.55065 0.99115 0.2673 0.0
C3557 C 0.54547 0.97625 0.27175 0.0
C3558 C 0.55502 0.97307 0.28043 0.0
H3559 H 0.60764 0.98458 0.27205 0.0
H3560 H 0.5894 0.98185 0.26599 0.0
H3561 H 0.60403 2e-05 0.27472 0.0
H3562 H 0.58671 0.0087 0.28359 0.0
H3563 H 0.57007 0.0143 0.26813 0.0
H3564 H 0.00458 0.6621 0.30426 0.0
H3565 H -0.00133 0.63771 0.29136 0.0
H3566 H 0.04209 0.64526 0.30801 0.0
H3567 H 0.04796 0.66953 0.32123 0.0
H3568 H 0.01376 0.63265 0.26887 0.0
H3569 H 0.01326 0.60212 0.31991 0.0
H3570 H 0.01293 0.61969 0.32125 0.0
H3571 H 0.0305 0.62017 0.3189 0.0
C3572 C 0.01283 0.65852 0.30527 0.0
C3573 C 0.02671 0.6677 0.31382 0.0
C3574 C 0.00944 0.6446 0.29789 0.0
C3575 C 0.01984 0.63958 0.29891 0.0
C3576 C 0.03375 0.64875 0.30736 0.0
H3577 H 0.02476 0.56378 0.25756 0.0
H3578 H 0.02978 0.58786 0.27053 0.0
C3579 C 0.03713 0.66265 0.31484 0.0
C3580 C 0.01634 0.62502 0.29068 0.0
H3581 H 0.01274 0.59026 0.29567 0.0
C3582 C 0.01343 0.62334 0.27473 0.0
C3583 C 0.01591 0.61289 0.29838 0.0
C3584 C 0.01817 0.6137 0.31556 0.0
C3585 C 0.01039 0.60996 0.26623 0.0
C3586 C 0.01016 0.59795 0.27392 0.0
C3587 C 0.013 0.59957 0.28985 0.0
C3588 C 0.00714 0.58363 0.26561 0.0
C3589 C 0.00776 0.60886 0.24907 0.0
C3590 C 0.99273 0.57332 0.25861 0.0
C3591 C 0.98982 0.55956 0.25118 0.0
C3592 C 0.00132 0.55595 0.25062 0.0
C3593 C 0.01576 0.56637 0.2576 0.0
C3594 C 0.01862 0.58006 0.26509 0.0
H3595 H 0.01114 0.62015 0.24464 0.0
H3596 H 0.0142 0.60418 0.24338 0.0
H3597 H 0.99552 0.60092 0.24587 0.0
H3598 H 0.98369 0.57584 0.25906 0.0
H3599 H 0.97861 0.55176 0.24586 0.0
H3600 H 0.33497 0.39386 0.34634 0.0
H3601 H 0.35821 0.40396 0.33252 0.0
H3602 H 0.35827 0.36203 0.33738 0.0
H3603 H 0.33504 0.35177 0.35104 0.0
H3604 H 0.38694 0.40805 0.3422 0.0
H3605 H 0.36047 0.36707 0.29101 0.0
H3606 H 0.34942 0.37002 0.3049 0.0
H3607 H 0.35748 0.35841 0.30897 0.0
C3608 C 0.33992 0.38678 0.34447 0.0
C3609 C 0.33307 0.37196 0.34971 0.0
C3610 C 0.3532 0.39258 0.33659 0.0
C3611 C 0.3598 0.38364 0.33375 0.0
C3612 C 0.35318 0.36899 0.33921 0.0
H3613 H 0.43727 0.39878 0.28248 0.0
H3614 H 0.41608 0.38845 0.29931 0.0
C3615 C 0.33993 0.36318 0.34708 0.0
C3616 C 0.37364 0.38965 0.32507 0.0
H3617 H 0.38712 0.38348 0.29207 0.0
C3618 C 0.387 0.40271 0.33123 0.0
C3619 C 0.37366 0.38258 0.31081 0.0
C3620 C 0.35947 0.36882 0.30343 0.0
C3621 C 0.40046 0.40887 0.32351 0.0
C3622 C 0.40043 0.40191 0.30916 0.0
C3623 C 0.38711 0.38874 0.3031 0.0
C3624 C 0.41388 0.40851 0.29987 0.0
C3625 C 0.41463 0.42266 0.33087 0.0
C3626 C 0.41963 0.42317 0.29462 0.0
C3627 C 0.43171 0.42909 0.28509 0.0
C3628 C 0.43823 0.42041 0.2805 0.0
C3629 C 0.43258 0.40579 0.28593 0.0
C3630 C 0.42044 0.39985 0.29547 0.0
H3631 H 0.41396 0.42383 0.34344 0.0
H3632 H 0.42486 0.42197 0.32861 0.0
H3633 H 0.41603 0.43316 0.32602 0.0
H3634 H 0.41456 0.42993 0.29765 0.0
H3635 H 0.43592 0.44046 0.28124 0.0
H3636 H 0.28902 0.28366 0.38611 0.0
H3637 H 0.2999 0.26902 0.39628 0.0
H3638 H 0.34228 0.31107 0.40791 0.0
H3639 H 0.33147 0.32573 0.39811 0.0
H3640 H 0.32546 0.26756 0.38848 0.0
H3641 H 0.33207 0.29101 0.44846 0.0
H3642 H 0.32076 0.29322 0.43378 0.0
H3643 H 0.34108 0.30548 0.43513 0.0
C3644 C 0.30065 0.28976 0.39084 0.0
C3645 C 0.30933 0.30585 0.39147 0.0
C3646 C 0.30686 0.2814 0.39661 0.0
C3647 C 0.3218 0.28899 0.4031 0.0
C3648 C 0.33061 0.30501 0.40328 0.0
H3649 H 0.37839 0.26045 0.44926 0.0
H3650 H 0.36928 0.27458 0.43482 0.0
C3651 C 0.32442 0.31336 0.39762 0.0
C3652 C 0.3282 0.28025 0.40986 0.0
H3653 H 0.34357 0.27632 0.44319 0.0
C3654 C 0.32937 0.26941 0.40045 0.0
C3655 C 0.33328 0.28271 0.42549 0.0
C3656 C 0.33162 0.29362 0.43635 0.0
C3657 C 0.33573 0.26113 0.40622 0.0
C3658 C 0.3409 0.26369 0.42181 0.0
C3659 C 0.33973 0.27452 0.4312 0.0
C3660 C 0.34699 0.25483 0.42888 0.0
C3661 C 0.33708 0.24988 0.39558 0.0
C3662 C 0.33751 0.23905 0.43017 0.0
C3663 C 0.34267 0.23098 0.4384 0.0
C3664 C 0.35739 0.23857 0.44552 0.0
C3665 C 0.36705 0.25428 0.44377 0.0
C3666 C 0.36184 0.26236 0.43559 0.0
H3667 H 0.33615 0.252 0.38338 0.0
H3668 H 0.34806 0.25046 0.39793 0.0
H3669 H 0.3278 0.2381 0.3974 0.0
H3670 H 0.32593 0.23308 0.42528 0.0
H3671 H 0.33502 0.21886 0.43947 0.0
H3672 H 0.71148 0.01337 0.38678 0.0
H3673 H 0.72778 0.03973 0.3976 0.0
H3674 H 0.68835 0.04084 0.41126 0.0
H3675 H 0.67197 0.0144 0.40068 0.0
H3676 H 0.72816 0.06655 0.39075 0.0
H3677 H 0.7149 0.05336 0.45118 0.0
H3678 H 0.71011 0.03864 0.43612 0.0
H3679 H 0.69871 0.04729 0.43812 0.0
C3680 C 0.70627 0.01922 0.39206 0.0
C3681 C 0.69045 0.01176 0.39298 0.0
C3682 C 0.71559 0.03428 0.39823 0.0
C3683 C 0.70928 0.04214 0.40544 0.0
C3684 C 0.69347 0.03487 0.40602 0.0
H3685 H 0.75458 0.13351 0.45343 0.0
H3686 H 0.73523 0.10874 0.44074 0.0
C3687 C 0.68413 0.01979 0.3999 0.0
C3688 C 0.71931 0.05791 0.41239 0.0
H3689 H 0.73093 0.07937 0.44651 0.0
C3690 C 0.72875 0.06937 0.40293 0.0
C3691 C 0.71998 0.06155 0.42828 0.0
C3692 C 0.71049 0.04956 0.43907 0.0
C3693 C 0.73894 0.08438 0.40896 0.0
C3694 C 0.73984 0.08793 0.42488 0.0
C3695 C 0.73016 0.07658 0.43429 0.0
C3696 C 0.75142 0.1031 0.43212 0.0
C3697 C 0.74865 0.09633 0.39824 0.0
C3698 C 0.76686 0.10799 0.43156 0.0
C3699 C 0.77787 0.12204 0.43877 0.0
C3700 C 0.77365 0.13145 0.44675 0.0
C3701 C 0.75816 0.12654 0.44727 0.0
C3702 C 0.74712 0.11241 0.44009 0.0
H3703 H 0.74373 0.093 0.38625 0.0
H3704 H 0.75007 0.10762 0.40178 0.0
H3705 H 0.76006 0.09762 0.39851 0.0
H3706 H 0.7704 0.10085 0.42568 0.0
H3707 H 0.78972 0.12558 0.43801 0.0
H3708 H 0.99095 0.68061 0.35526 0.0
H3709 H 0.96617 0.66537 0.36583 0.0
H3710 H 0.96378 0.70613 0.37428 0.0
H3711 H 0.98848 0.72147 0.36364 0.0
H3712 H 0.95858 0.66918 0.39553 0.0
H3713 H 0.92257 0.67579 0.3518 0.0
H3714 H 0.94155 0.67994 0.34849 0.0
H3715 H 0.93871 0.69366 0.35923 0.0
C3716 C 0.98512 0.68634 0.35927 0.0
C3717 C 0.9917 0.70227 0.35858 0.0
C3718 C 0.97096 0.6776 0.36528 0.0
C3719 C 0.96307 0.68459 0.37059 0.0
C3720 C 0.96956 0.70047 0.36993 0.0
H3721 H 0.88831 0.66754 0.42185 0.0
H3722 H 0.90971 0.67649 0.4056 0.0
C3723 C 0.98373 0.70923 0.36394 0.0
C3724 C 0.94842 0.67549 0.37765 0.0
H3725 H 0.91156 0.66666 0.37558 0.0
C3726 C 0.94822 0.6684 0.39107 0.0
C3727 C 0.93496 0.67448 0.37172 0.0
C3728 C 0.93437 0.68125 0.35693 0.0
C3729 C 0.93507 0.66101 0.39921 0.0
C3730 C 0.92175 0.6605 0.39359 0.0
C3731 C 0.92181 0.66708 0.37985 0.0
C3732 C 0.90811 0.65449 0.40254 0.0
C3733 C 0.93575 0.6545 0.41416 0.0
C3734 C 0.89992 0.63906 0.40593 0.0
C3735 C 0.88771 0.63391 0.41535 0.0
C3736 C 0.88356 0.64416 0.42149 0.0
C3737 C 0.89145 0.65945 0.41755 0.0
C3738 C 0.90359 0.66456 0.40817 0.0
H3739 H 0.94759 0.65831 0.41823 0.0
H3740 H 0.93046 0.65792 0.42316 0.0
H3741 H 0.92933 0.64181 0.4126 0.0
H3742 H 0.9031 0.63106 0.40148 0.0
H3743 H 0.88182 0.62206 0.41818 0.0
H3744 H 0.35196 0.00651 0.72334 0.0
H3745 H 0.36949 0.00224 0.73872 0.0
H3746 H 0.4046 0.02705 0.70782 0.0
H3747 H 0.38722 0.03192 0.69269 0.0
H3748 H 0.38351 0.98739 0.73243 0.0
H3749 H 0.42679 0.04823 0.74792 0.0
H3750 H 0.40852 0.04247 0.73876 0.0
H3751 H 0.42355 0.04381 0.72762 0.0
C3752 C 0.36343 0.0111 0.71983 0.0
C3753 C 0.36825 0.01963 0.70685 0.0
C3754 C 0.37345 0.00864 0.72864 0.0
C3755 C 0.38847 0.01455 0.72461 0.0
C3756 C 0.39321 0.02275 0.71143 0.0
H3757 H 0.44684 0.98273 0.76051 0.0
H3758 H 0.42919 0.98689 0.74507 0.0
C3759 C 0.38323 0.02542 0.70271 0.0
C3760 C 0.39897 0.01181 0.73414 0.0
H3761 H 0.43339 0.0298 0.75423 0.0
C3762 C 0.3944 0.99668 0.73724 0.0
C3763 C 0.41306 0.02394 0.74065 0.0
C3764 C 0.41822 0.04053 0.73871 0.0
C3765 C 0.40354 0.99332 0.74656 0.0
C3766 C 0.41791 0.00539 0.75253 0.0
C3767 C 0.42244 0.02053 0.74954 0.0
C3768 C 0.42841 0.00261 0.762 0.0
C3769 C 0.39748 0.9769 0.7502 0.0
C3770 C 0.43422 0.01038 0.77648 0.0
C3771 C 0.44452 0.00821 0.78521 0.0
C3772 C 0.44909 -0.00187 0.77966 0.0
C3773 C 0.44324 0.99031 0.7652 0.0
C3774 C 0.43312 0.99265 0.75639 0.0
H3775 H 0.38488 0.9701 0.74896 0.0
H3776 H 0.40179 0.97154 0.74209 0.0
H3777 H 0.40116 0.9762 0.76203 0.0
H3778 H 0.43081 0.01817 0.78103 0.0
H3779 H 0.44889 0.01439 0.79631 0.0
H3780 H 0.9438 0.327 0.74348 0.0
H3781 H 0.95572 0.35174 0.7582 0.0
H3782 H -0.00119 0.35401 0.759 0.0
H3783 H 0.98702 0.32921 0.74418 0.0
H3784 H 0.98897 0.36193 0.78873 0.0
H3785 H 0.98737 0.39304 0.73885 0.0
H3786 H 0.96993 0.37565 0.74179 0.0
H3787 H 0.98631 0.37477 0.7368 0.0
C3788 C 0.95579 0.33268 0.74683 0.0
C3789 C 0.96447 0.32616 0.74256 0.0
C3790 C 0.96258 0.34683 0.75521 0.0
C3791 C 0.97813 0.35469 0.75952 0.0
C3792 C 0.98678 0.34808 0.7557 0.0
H3793 H 0.02368 0.45126 0.79211 0.0
H3794 H 0.01962 0.42705 0.78033 0.0
C3795 C 0.98003 0.33394 0.74722 0.0
C3796 C 0.98532 0.37001 0.76767 0.0
H3797 H 0.99296 0.40635 0.76334 0.0
C3798 C 0.99003 0.37172 0.78319 0.0
C3799 C 0.98686 0.38274 0.76029 0.0
C3800 C 0.98248 0.38158 0.74348 0.0
C3801 C 0.99563 0.38576 0.79173 0.0
C3802 C 0.99638 0.39827 0.78454 0.0
C3803 C 0.99232 0.39671 0.76884 0.0
C3804 C 0.00023 0.41274 0.7932 0.0
C3805 C 0.00052 0.38705 0.8084 0.0
C3806 C 0.99078 0.41268 0.80445 0.0
C3807 C 0.99306 0.42645 0.81117 0.0
C3808 C 0.00481 0.44053 0.80671 0.0
C3809 C 0.01463 0.44057 0.79587 0.0
C3810 C 0.0123 0.42678 0.7891 0.0
H3811 H 0.00355 0.37831 0.81095 0.0
H3812 H 0.0104 0.39861 0.81183 0.0
H3813 H 0.99101 0.38515 0.81548 0.0
H3814 H 0.98123 0.40199 0.80757 0.0
H3815 H 0.9854 0.42608 0.81958 0.0
H3816 H 0.66781 0.64639 0.69903 0.0
H3817 H 0.64419 0.63698 0.71187 0.0
H3818 H 0.64286 0.59467 0.71885 0.0
H3819 H 0.66661 0.604 0.70609 0.0
H3820 H 0.61547 0.61004 0.70416 0.0
H3821 H 0.6393 0.61044 0.76209 0.0
H3822 H 0.6511 0.62055 0.74685 0.0
H3823 H 0.64287 0.60019 0.74716 0.0
C3824 C 0.66254 0.63508 0.7033 0.0
C3825 C 0.66915 0.62597 0.70161 0.0
C3826 C 0.64902 0.62973 0.7106 0.0
C3827 C 0.64192 0.61523 0.71644 0.0
C3828 C 0.64833 0.606 0.71461 0.0
H3829 H 0.55171 0.55912 0.74589 0.0
H3830 H 0.57452 0.57147 0.73147 0.0
C3831 C 0.66186 0.61132 0.70726 0.0
C3832 C 0.62776 0.60979 0.7244 0.0
H3833 H 0.61256 0.59892 0.7589 0.0
C3834 C 0.61481 0.60765 0.71615 0.0
C3835 C 0.62707 0.60695 0.74008 0.0
C3836 C 0.64084 0.60976 0.74964 0.0
C3837 C 0.60102 0.60234 0.72309 0.0
C3838 C 0.6002 0.59896 0.73863 0.0
C3839 C 0.61324 0.60147 0.74697 0.0
C3840 C 0.5858 0.59228 0.74637 0.0
C3841 C 0.58749 0.60045 0.7138 0.0
C3842 C 0.5846 0.59992 0.75949 0.0
C3843 C 0.57161 0.59286 0.76779 0.0
C3844 C 0.5597 0.57797 0.76317 0.0
C3845 C 0.56075 0.57056 0.74974 0.0
C3846 C 0.57371 0.57765 0.74143 0.0
H3847 H 0.59096 0.60734 0.70362 0.0
H3848 H 0.58006 0.58823 0.70972 0.0
H3849 H 0.58075 0.60388 0.72083 0.0
H3850 H 0.59388 0.61118 0.76351 0.0
H3851 H 0.5712 0.59875 0.7782 0.0
H3852 H 0.67856 0.67526 0.64691 0.0
H3853 H 0.66794 0.69074 0.63913 0.0
H3854 H 0.70165 0.72884 0.66881 0.0
H3855 H 0.71262 0.71346 0.67643 0.0
H3856 H 0.65563 0.70405 0.65679 0.0
H3857 H 0.70553 0.74819 0.62834 0.0
H3858 H 0.70389 0.73048 0.63357 0.0
H3859 H 0.70934 0.74591 0.64787 0.0
C3860 C 0.6838 0.68697 0.65172 0.0
C3861 C 0.69648 0.69318 0.66222 0.0
C3862 C 0.67768 0.69578 0.64729 0.0
C3863 C 0.68409 0.71098 0.65327 0.0
C3864 C 0.69671 0.71722 0.66383 0.0
H3865 H 0.65774 0.77747 0.63127 0.0
H3866 H 0.66819 0.76404 0.6448 0.0
C3867 C 0.70293 0.70842 0.66821 0.0
C3868 C 0.67732 0.72007 0.64848 0.0
H3869 H 0.68444 0.75145 0.62958 0.0
C3870 C 0.66195 0.71446 0.6509 0.0
C3871 C 0.6856 0.73365 0.64082 0.0
C3872 C 0.70196 0.73988 0.63735 0.0
C3873 C 0.65457 0.72195 0.64567 0.0
C3874 C 0.66277 0.73533 0.63776 0.0
C3875 C 0.67823 0.7412 0.63572 0.0
C3876 C 0.65533 0.7429 0.63062 0.0
C3877 C 0.63805 0.71549 0.64856 0.0
C3878 C 0.64457 0.73537 0.61827 0.0
C3879 C 0.6387 0.74303 0.61042 0.0
C3880 C 0.64352 0.75839 0.61477 0.0
C3881 C 0.65393 0.76571 0.62751 0.0
C3882 C 0.65986 0.75806 0.6353 0.0
H3883 H 0.63447 0.70759 0.65795 0.0
H3884 H 0.63575 0.72481 0.65151 0.0
H3885 H 0.631 0.70896 0.63802 0.0
H3886 H 0.64116 0.72374 0.61433 0.0
H3887 H 0.63093 0.73714 0.60051 0.0
H3888 H 0.27721 0.97928 0.64761 0.0
H3889 H 0.26603 0.95344 0.63556 0.0
H3890 H 0.30806 0.95448 0.64471 0.0
H3891 H 0.31936 0.98038 0.65706 0.0
H3892 H 0.27519 0.9427 0.61053 0.0
H3893 H 0.27635 0.91533 0.66375 0.0
H3894 H 0.27926 0.93439 0.66408 0.0
H3895 H 0.29417 0.93112 0.65874 0.0
C3896 C 0.28413 0.97406 0.64708 0.0
C3897 C 0.29917 0.98188 0.65341 0.0
C3898 C 0.27771 0.95929 0.64014 0.0
C3899 C 0.28616 0.952 0.6394 0.0
C3900 C 0.30127 0.95983 0.6454 0.0
H3901 H 0.24427 0.8634 0.58468 0.0
H3902 H 0.26379 0.88908 0.59524 0.0
C3903 C 0.30772 0.97465 0.65239 0.0
C3904 C 0.27887 0.93609 0.63249 0.0
H3905 H 0.26526 0.89915 0.64134 0.0
C3906 C 0.27317 0.93316 0.61718 0.0
C3907 C 0.27622 0.92372 0.64127 0.0
C3908 C 0.2817 0.92619 0.6579 0.0
C3909 C 0.2644 0.91814 0.61054 0.0
C3910 C 0.26148 0.90575 0.61942 0.0
C3911 C 0.26764 0.9087 0.63456 0.0
C3912 C 0.25061 0.88968 0.61378 0.0
C3913 C 0.25765 0.91563 0.59438 0.0
C3914 C 0.23704 0.88131 0.62106 0.0
C3915 C 0.22599 0.86666 0.61517 0.0
C3916 C 0.22829 0.86006 0.60186 0.0
C3917 C 0.24219 0.86818 0.59495 0.0
C3918 C 0.25328 0.88289 0.60089 0.0
H3919 H 0.25879 0.92626 0.59011 0.0
H3920 H 0.26359 0.91174 0.58668 0.0
H3921 H 0.24544 0.90661 0.59364 0.0
H3922 H 0.2348 0.88631 0.63108 0.0
H3923 H 0.21553 0.86058 0.62092 0.0
H3924 H 0.00913 0.32318 0.68542 0.0
H3925 H 0.03389 0.33299 0.67484 0.0
H3926 H 0.03791 0.29689 0.69416 0.0
H3927 H 0.01286 0.28672 0.70447 0.0
H3928 H 0.06209 0.34361 0.68818 0.0
H3929 H 0.04467 0.29177 0.64956 0.0
H3930 H 0.03115 0.2948 0.6594 0.0
H3931 H 0.04199 0.28813 0.66941 0.0
C3932 C 0.01527 0.31731 0.68745 0.0
C3933 C 0.00897 0.30408 0.69567 0.0
C3934 C 0.02944 0.32296 0.68142 0.0
C3935 C 0.03763 0.31553 0.68348 0.0
C3936 C 0.03162 0.3026 0.69212 0.0
H3937 H 0.12338 0.33423 0.64773 0.0
H3938 H 0.10141 0.32554 0.66327 0.0
C3939 C 0.01735 0.29685 0.69808 0.0
C3940 C 0.05234 0.32128 0.67635 0.0
H3941 H 0.07043 0.31142 0.65021 0.0
C3942 C 0.06393 0.33656 0.67991 0.0
C3943 C 0.0547 0.31207 0.66551 0.0
C3944 C 0.04244 0.29583 0.66061 0.0
C3945 C 0.07779 0.34288 0.67289 0.0
C3946 C 0.08006 0.33371 0.662 0.0
C3947 C 0.06862 0.31838 0.65864 0.0
C3948 C 0.09399 0.33992 0.65347 0.0
C3949 C 0.08992 0.35931 0.67718 0.0
C3950 C 0.09709 0.35092 0.64287 0.0
C3951 C 0.10953 0.35579 0.63383 0.0
C3952 C 0.11908 0.34971 0.63523 0.0
C3953 C 0.11613 0.33898 0.64619 0.0
C3954 C 0.10365 0.33406 0.65515 0.0
H3955 H 0.0878 0.3637 0.68808 0.0
H3956 H 0.10128 0.36051 0.6783 0.0
H3957 H 0.0901 0.36658 0.66802 0.0
H3958 H 0.0896 0.35538 0.64123 0.0
H3959 H 0.11131 0.36388 0.62535 0.0
H3960 H 0.3123 0.32542 0.67806 0.0
H3961 H 0.30075 0.33702 0.66308 0.0
H3962 H 0.25841 0.29385 0.65857 0.0
H3963 H 0.26976 0.28215 0.67355 0.0
H3964 H 0.28621 0.3276 0.63251 0.0
H3965 H 0.24728 0.32509 0.67637 0.0
H3966 H 0.26354 0.32325 0.68082 0.0
H3967 H 0.24641 0.30724 0.67194 0.0
C3968 C 0.30052 0.31839 0.6739 0.0
C3969 C 0.29192 0.30286 0.67709 0.0
C3970 C 0.29397 0.32503 0.66533 0.0
C3971 C 0.2787 0.31633 0.65991 0.0
C3972 C 0.27016 0.30081 0.66287 0.0
H3973 H 0.21257 0.32623 0.6088 0.0
H3974 H 0.22767 0.31805 0.62298 0.0
C3975 C 0.27669 0.29413 0.67139 0.0
C3976 C 0.27164 0.32338 0.65109 0.0
H3977 H 0.24288 0.33091 0.65146 0.0
C3978 C 0.27683 0.32848 0.63667 0.0
C3979 C 0.25947 0.32455 0.65664 0.0
C3980 C 0.2539 0.31988 0.67235 0.0
C3981 C 0.26971 0.33415 0.62733 0.0
C3982 C 0.25727 0.33493 0.63273 0.0
C3983 C 0.25238 0.33021 0.64733 0.0
C3984 C 0.24862 0.33988 0.62319 0.0
C3985 C 0.27517 0.33871 0.61158 0.0
C3986 C 0.25544 0.35489 0.61853 0.0
C3987 C 0.24685 0.35958 0.61023 0.0
C3988 C 0.23129 0.34935 0.60652 0.0
C3989 C 0.22458 0.33431 0.61115 0.0
C3990 C 0.23316 0.32964 0.61939 0.0
H3991 H 0.28267 0.33439 0.60795 0.0
H3992 H 0.26542 0.33431 0.603 0.0
H3993 H 0.28171 0.35139 0.61161 0.0
H3994 H 0.26732 0.36304 0.62157 0.0
H3995 H 0.25235 0.37123 0.60681 0.0
H3996 H 0.70179 0.98796 0.65251 0.0
H3997 H 0.69039 0.96181 0.64087 0.0
H3998 H 0.65844 0.96814 0.61385 0.0
H3999 H 0.66951 0.99412 0.62568 0.0
H4000 H 0.64486 0.94046 0.62625 0.0
H4001 H 0.69634 0.95042 0.5978 0.0
H4002 H 0.6995 0.9549 0.6181 0.0
H4003 H 0.69455 0.96586 0.60624 0.0
C4004 C 0.69234 0.98378 0.64409 0.0
C4005 C 0.68661 0.99313 0.63994 0.0
C4006 C 0.68589 0.96887 0.63739 0.0
C4007 C 0.67375 0.96314 0.62629 0.0
C4008 C 0.66785 0.97237 0.62234 0.0
H4009 H 0.64571 0.88353 0.56364 0.0
H4010 H 0.65402 0.9092 0.57507 0.0
C4011 C 0.67421 0.98722 0.6291 0.0
C4012 C 0.66716 0.94753 0.61879 0.0
H4013 H 0.67598 0.92464 0.59738 0.0
C4014 C 0.65164 0.937 0.61989 0.0
C4015 C 0.67597 0.94314 0.61028 0.0
C4016 C 0.69248 0.95421 0.60788 0.0
C4017 C 0.64473 0.92209 0.61291 0.0
C4018 C 0.65368 0.91752 0.60489 0.0
C4019 C 0.66915 0.92813 0.60362 0.0
C4020 C 0.64734 0.90179 0.59777 0.0
C4021 C 0.62789 0.91149 0.61395 0.0
C4022 C 0.6407 0.8891 0.6067 0.0
C4023 C 0.63585 0.87442 0.60017 0.0
C4024 C 0.63777 0.87224 0.58464 0.0
C4025 C 0.64417 0.88492 0.57565 0.0
C4026 C 0.6489 0.89956 0.58216 0.0
H4027 H 0.62206 0.91796 0.61634 0.0
H4028 H 0.62262 0.9041 0.60321 0.0
H4029 H 0.62594 0.90398 0.62347 0.0
H4030 H 0.63973 0.89059 0.61884 0.0
H4031 H 0.63119 0.86489 0.60741 0.0
H4032 H 0.99559 0.68205 0.68225 0.0
H4033 H 0.01965 0.6915 0.67019 0.0
H4034 H 0.02418 0.73587 0.66792 0.0
H4035 H 0.00019 0.7266 0.68012 0.0
H4036 H 0.02686 0.70343 0.64145 0.0
H4037 H 0.06536 0.74605 0.68768 0.0
H4038 H 0.04617 0.73122 0.69074 0.0
H4039 H 0.04968 0.74821 0.68182 0.0
C4040 C 0.00172 0.69385 0.67927 0.0
C4041 C 0.99596 0.70359 0.6822 0.0
C4042 C 0.01547 0.69922 0.67238 0.0
C4043 C 0.02379 0.71443 0.66838 0.0
C4044 C 0.01808 0.72417 0.67122 0.0
H4045 H 0.10195 0.77079 0.61943 0.0
H4046 H 0.07982 0.75953 0.6348 0.0
C4047 C 0.00431 0.71882 0.6781 0.0
C4048 C 0.03813 0.71994 0.66065 0.0
H4049 H 0.07581 0.74725 0.6635 0.0
C4050 C 0.03761 0.7129 0.64633 0.0
C4051 C 0.05211 0.73227 0.66708 0.0
C4052 C 0.05345 0.73981 0.68274 0.0
C4053 C 0.05062 0.71825 0.63796 0.0
C4054 C 0.06454 0.7308 0.64425 0.0
C4055 C 0.06512 0.73762 0.65873 0.0
C4056 C 0.0784 0.73762 0.63556 0.0
C4057 C 0.04922 0.71082 0.62222 0.0
C4058 C 0.08513 0.72913 0.63116 0.0
C4059 C 0.09775 0.73551 0.62225 0.0
C4060 C 0.10383 0.7505 0.61764 0.0
C4061 C 0.09735 0.75911 0.62253 0.0
C4062 C 0.08477 0.75274 0.63141 0.0
H4063 H 0.0372 0.70354 0.6178 0.0
H4064 H 0.05545 0.71962 0.61399 0.0
H4065 H 0.05426 0.70345 0.62275 0.0
H4066 H 0.08053 0.71752 0.63448 0.0
H4067 H 0.10249 0.72859 0.61865 0.0
H4068 H 0.9857 0.64925 0.72355 0.0
H4069 H 0.99208 0.63124 0.73392 0.0
H4070 H 0.94479 0.59571 0.72946 0.0
H4071 H 0.9384 0.61359 0.71854 0.0
H4072 H 0.98357 0.61777 0.75962 0.0
H4073 H 0.96389 0.57285 0.71212 0.0
H4074 H 0.96575 0.59123 0.70968 0.0
H4075 H 0.94919 0.57627 0.7178 0.0
C4076 C 0.97668 0.63754 0.72459 0.0
C4077 C 0.96155 0.63282 0.72024 0.0
C4078 C 0.98034 0.62726 0.73051 0.0
C4079 C 0.96895 0.61206 0.73231 0.0
C4080 C 0.95383 0.60726 0.72782 0.0
H4081 H 0.97598 0.55547 0.79862 0.0
H4082 H 0.96998 0.57163 0.78387 0.0
C4083 C 0.95018 0.61751 0.72169 0.0
C4084 C 0.97282 0.60168 0.73998 0.0
H4085 H 0.96929 0.56642 0.73653 0.0
C4086 C 0.98054 0.60659 0.75449 0.0
C4087 C 0.96906 0.58717 0.73323 0.0
C4088 C 0.96166 0.58163 0.71728 0.0
C4089 C 0.98435 0.59733 0.76256 0.0
C4090 C 0.97991 0.58251 0.75617 0.0
C4091 C 0.9725 0.5777 0.74151 0.0
C4092 C 0.98277 0.57185 0.76461 0.0
C4093 C 0.9933 0.60362 0.77778 0.0
C4094 C 0.99141 0.56605 0.7584 0.0
C4095 C 0.99459 0.55648 0.76668 0.0
C4096 C 0.98917 0.55252 0.78133 0.0
C4097 C 0.98022 0.55811 0.78733 0.0
C4098 C 0.97695 0.56755 0.779 0.0
H4099 H -0.00031 0.61635 0.77877 0.0
H4100 H 0.98537 0.59963 0.78712 0.0
H4101 H 0.00147 0.59965 0.7795 0.0
H4102 H 0.9959 0.56912 0.74725 0.0
H4103 H 0.0013 0.55218 0.76161 0.0
H4104 H 0.34334 0.35164 0.73472 0.0
H4105 H 0.36037 0.37726 0.74691 0.0
H4106 H 0.39906 0.37403 0.73474 0.0
H4107 H 0.3821 0.34848 0.72228 0.0
H4108 H 0.38131 0.38524 0.77113 0.0
H4109 H 0.40966 0.41561 0.72025 0.0
H4110 H 0.39247 0.39705 0.71873 0.0
H4111 H 0.41053 0.39866 0.72269 0.0
C4112 C 0.35548 0.35643 0.7345 0.0
C4113 C 0.36139 0.34805 0.72749 0.0
C4114 C 0.36518 0.37107 0.74149 0.0
C4115 C 0.38097 0.37763 0.74156 0.0
C4116 C 0.38691 0.36932 0.73453 0.0
H4117 H 0.45955 0.45885 0.78311 0.0
H4118 H 0.44125 0.43413 0.76994 0.0
C4119 C 0.37721 0.35468 0.72749 0.0
C4120 C 0.39118 0.39287 0.74959 0.0
H4121 H 0.42065 0.42883 0.74459 0.0
C4122 C 0.38983 0.39482 0.76531 0.0
C4123 C 0.40227 0.40533 0.74196 0.0
C4124 C 0.40376 0.40415 0.72495 0.0
C4125 C 0.39956 0.40879 0.7737 0.0
C4126 C 0.41078 0.42116 0.76611 0.0
C4127 C 0.41203 0.41928 0.75036 0.0
C4128 C 0.42166 0.43604 0.77437 0.0
C4129 C 0.39805 0.41008 0.79069 0.0
C4130 C 0.41669 0.44532 0.78116 0.0
C4131 C 0.42712 0.45945 0.78879 0.0
C4132 C 0.4427 0.4645 0.78974 0.0
C4133 C 0.44761 0.45516 0.78285 0.0
C4134 C 0.43719 0.44109 0.77521 0.0
H4135 H 0.39104 0.39868 0.79531 0.0
H4136 H 0.40938 0.41611 0.79696 0.0
H4137 H 0.39251 0.41684 0.79299 0.0
H4138 H 0.40475 0.4417 0.78045 0.0
H4139 H 0.42301 0.46638 0.794 0.0
H4140 H 0.66224 0.01873 0.68415 0.0
H4141 H 0.6388 0.00876 0.69752 0.0
H4142 H 0.64529 0.0541 0.70245 0.0
H4143 H 0.66868 0.0642 0.68902 0.0
H4144 H 0.63642 0.01834 0.72758 0.0
H4145 H 0.60095 0.02716 0.68503 0.0
H4146 H 0.61795 0.02719 0.68023 0.0
H4147 H 0.61928 0.04384 0.68987 0.0
C4148 C 0.65863 0.02658 0.68796 0.0
C4149 C 0.66734 0.04227 0.6855 0.0
C4150 C 0.64524 0.02085 0.69559 0.0
C4151 C 0.64024 0.03066 0.70076 0.0
C4152 C 0.64883 0.04629 0.69827 0.0
H4153 H 0.5723 0.02835 0.75645 0.0
H4154 H 0.59268 0.03423 0.73938 0.0
C4155 C 0.66224 0.05205 0.69068 0.0
C4156 C 0.62651 0.02475 0.70954 0.0
H4157 H 0.59178 0.02151 0.70999 0.0
C4158 C 0.62657 0.01885 0.72368 0.0
C4159 C 0.61374 0.02547 0.70438 0.0
C4160 C 0.61285 0.03113 0.68898 0.0
C4161 C 0.61439 0.01418 0.73312 0.0
C4162 C 0.60172 0.01519 0.72809 0.0
C4163 C 0.60153 0.02077 0.71379 0.0
C4164 C 0.58892 0.01126 0.73787 0.0
C4165 C 0.61543 0.0088 0.74863 0.0
C4166 C 0.5799 0.99632 0.74244 0.0
C4167 C 0.56833 0.99295 0.75232 0.0
C4168 C 0.56557 0.00447 0.75773 0.0
C4169 C 0.57434 0.0193 0.75272 0.0
C4170 C 0.5859 0.02265 0.74288 0.0
H4171 H 0.62722 0.01192 0.7521 0.0
H4172 H 0.61138 0.01375 0.75752 0.0
H4173 H 0.60814 0.99613 0.74825 0.0
H4174 H 0.58191 0.98731 0.73848 0.0
H4175 H 0.56181 0.98144 0.75602 0.0
loop_
_geom_bond_atom_site_label_1
_geom_bond_atom_site_label_2
_geom_bond_distance
_geom_bond_site_symmetry_2
_ccdc_geom_bond_type
C0 O1 1.306 . S
C0 O3 1.160 . S
O1 C0 1.306 . S
O1 Cd2 2.228 . S
Cd2 O1 2.228 . S
Cd2 O6 2.273 . S
Cd2 O10 2.277 . S
O3 C0 1.160 . S
O3 Cd4 2.203 1_655 S
Cd4 O3 2.203 1_455 S
Cd4 O6 2.411 1_455 S
Cd4 O7 2.333 . S
Cd4 O8 2.352 . S
Cd4 O12 2.322 . S
Cd4 O13 2.356 . S
C5 O10 1.209 1_456 S
C5 O12 1.215 1_556 S
O6 Cd2 2.273 . S
O6 Cd4 2.411 1_655 S
O6 C9 1.320 1_655 S
O7 Cd4 2.333 . S
O7 C9 1.214 . S
O8 Cd4 2.352 . S
O8 C11 1.258 . S
C9 O6 1.320 1_455 S
C9 O7 1.214 . S
O10 Cd2 2.277 . S
O10 C5 1.209 1_654 S
C11 O8 1.258 . S
C11 O13 1.282 . S
O12 Cd4 2.322 . S
O12 C5 1.215 1_554 S
O13 Cd4 2.356 . S
O13 C11 1.282 . S
C14 O15 1.306 . S
C14 O17 1.160 . S
O15 C14 1.306 . S
O15 Cd16 2.228 . S
Cd16 O15 2.228 . S
Cd16 O20 2.273 . S
Cd16 O24 2.277 . S
O17 C14 1.160 . S
O17 Cd18 2.203 . S
Cd18 O17 2.203 . S
Cd18 O20 2.411 . S
Cd18 O21 2.333 . S
Cd18 O22 2.352 . S
Cd18 O26 2.277 . S
Cd18 O27 2.356 . S
C19 O24 1.209 . S
C19 O26 1.226 . S
O20 Cd16 2.273 . S
O20 Cd18 2.411 . S
O20 C23 1.320 . S
O21 Cd18 2.333 . S
O21 C23 1.214 . S
O22 Cd18 2.352 . S
O22 C25 1.258 . S
C23 O20 1.320 . S
C23 O21 1.214 . S
O24 Cd16 2.277 . S
O24 C19 1.209 . S
C25 O22 1.258 . S
C25 O27 1.282 . S
O26 Cd18 2.277 . S
O26 C19 1.226 . S
O27 Cd18 2.356 . S
O27 C25 1.282 . S
C28 O29 1.306 . S
C28 O31 1.160 . S
O29 C28 1.306 . S
O29 Cd30 2.228 . S
Cd30 O29 2.228 . S
Cd30 O34 2.273 . S
Cd30 O38 2.277 . S
O31 C28 1.160 . S
O31 Cd32 2.203 1_565 S
Cd32 O31 2.203 1_545 S
Cd32 O34 2.411 1_545 S
Cd32 O35 2.333 . S
Cd32 O36 2.352 . S
Cd32 O40 2.277 . S
Cd32 O41 2.356 . S
C33 O38 1.209 1_545 S
C33 O40 1.226 . S
O34 Cd30 2.273 . S
O34 Cd32 2.411 1_565 S
O34 C37 1.320 1_554 S
O35 Cd32 2.333 . S
O35 C37 1.214 1_544 S
O36 Cd32 2.352 . S
O36 C39 1.258 . S
C37 O34 1.320 1_556 S
C37 O35 1.214 1_566 S
O38 Cd30 2.277 . S
O38 C33 1.209 1_565 S
C39 O36 1.258 . S
C39 O41 1.282 . S
O40 Cd32 2.277 . S
O40 C33 1.226 . S
O41 Cd32 2.356 . S
O41 C39 1.282 . S
C42 O43 1.306 . S
C42 O45 1.160 . S
O43 C42 1.306 . S
O43 Cd44 2.228 . S
Cd44 O43 2.228 . S
Cd44 O48 2.273 . S
Cd44 O52 2.277 . S
O45 C42 1.160 . S
O45 Cd46 2.203 1_655 S
Cd46 O45 2.203 1_455 S
Cd46 O48 2.411 1_455 S
Cd46 O49 2.333 . S
Cd46 O50 2.352 . S
Cd46 O54 2.277 . S
Cd46 O55 2.356 . S
C47 O52 1.209 1_455 S
C47 O54 1.226 . S
O48 Cd44 2.273 . S
O48 Cd46 2.411 1_655 S
O48 C51 1.338 . S
O49 Cd46 2.333 . S
O49 C51 1.198 1_455 S
O50 Cd46 2.352 . S
O50 C53 1.258 . S
C51 O48 1.338 . S
C51 O49 1.198 1_655 S
O52 Cd44 2.277 . S
O52 C47 1.209 1_655 S
C53 O50 1.258 . S
C53 O55 1.282 . S
O54 Cd46 2.277 . S
O54 C47 1.226 . S
O55 Cd46 2.356 . S
O55 C53 1.282 . S
C56 O57 1.306 . S
C56 O59 1.160 . S
O57 C56 1.306 . S
O57 Cd58 2.228 . S
Cd58 O57 2.228 . S
Cd58 O62 2.273 1_554 S
Cd58 O66 2.277 . S
O59 C56 1.160 . S
O59 Cd60 2.203 . S
Cd60 O59 2.203 . S
Cd60 O62 2.411 1_554 S
Cd60 O63 2.333 1_554 S
Cd60 O64 2.352 1_554 S
Cd60 O68 2.277 . S
Cd60 O69 2.356 1_554 S
C61 O66 1.209 . S
C61 O68 1.226 . S
O62 Cd58 2.273 1_556 S
O62 Cd60 2.411 1_556 S
O62 C65 1.320 . S
O63 Cd60 2.333 1_556 S
O63 C65 1.214 . S
O64 Cd60 2.352 1_556 S
O64 C67 1.258 . S
C65 O62 1.320 . S
C65 O63 1.214 . S
O66 Cd58 2.277 . S
O66 C61 1.209 . S
C67 O64 1.258 . S
C67 O69 1.282 . S
O68 Cd60 2.277 . S
O68 C61 1.226 . S
O69 Cd60 2.356 1_556 S
O69 C67 1.282 . S
C70 O71 1.306 . S
C70 O73 1.160 . S
O71 C70 1.306 . S
O71 Cd72 2.228 . S
Cd72 O71 2.228 . S
Cd72 O76 2.273 . S
Cd72 O80 2.277 . S
O73 C70 1.160 . S
O73 Cd74 2.203 1_545 S
Cd74 O73 2.203 1_565 S
Cd74 O76 2.411 1_565 S
Cd74 O77 2.333 . S
Cd74 O78 2.352 . S
Cd74 O82 2.277 . S
Cd74 O83 2.356 . S
C75 O80 1.209 1_565 S
C75 O82 1.226 . S
O76 Cd72 2.273 . S
O76 Cd74 2.411 1_545 S
O76 C79 1.320 . S
O77 Cd74 2.333 . S
O77 C79 1.214 1_565 S
O78 Cd74 2.352 . S
O78 C81 1.258 . S
C79 O76 1.320 . S
C79 O77 1.214 1_545 S
O80 Cd72 2.277 . S
O80 C75 1.209 1_545 S
C81 O78 1.258 . S
C81 O83 1.282 . S
O82 Cd74 2.277 . S
O82 C75 1.226 . S
O83 Cd74 2.356 . S
O83 C81 1.282 . S
C84 O85 1.306 . S
C84 O87 1.160 . S
O85 C84 1.306 . S
O85 Cd86 2.228 . S
Cd86 O85 2.228 . S
Cd86 O90 2.273 . S
Cd86 O94 2.277 . S
O87 C84 1.160 . S
O87 Cd88 2.203 . S
Cd88 O87 2.203 . S
Cd88 O90 2.411 . S
Cd88 O91 2.333 . S
Cd88 O92 2.352 . S
Cd88 O96 2.277 . S
Cd88 O97 2.356 . S
C89 O94 1.209 . S
C89 O96 1.226 . S
O90 Cd86 2.273 . S
O90 Cd88 2.411 . S
O90 C93 1.320 . S
O91 Cd88 2.333 . S
O91 C93 1.214 . S
O92 Cd88 2.352 . S
O92 C95 1.258 . S
C93 O90 1.320 . S
C93 O91 1.214 . S
O94 Cd86 2.277 . S
O94 C89 1.209 . S
C95 O92 1.258 . S
C95 O97 1.282 . S
O96 Cd88 2.277 . S
O96 C89 1.226 . S
O97 Cd88 2.356 . S
O97 C95 1.282 . S
C98 O99 1.306 . S
C98 O101 1.160 . S
O99 C98 1.306 . S
O99 Cd100 2.228 . S
Cd100 O99 2.228 . S
Cd100 O104 2.273 . S
Cd100 O108 2.277 . S
O101 C98 1.160 . S
O101 Cd102 2.203 . S
Cd102 O101 2.203 . S
Cd102 O104 2.411 . S
Cd102 O105 2.333 . S
Cd102 O106 2.352 . S
Cd102 O110 2.277 . S
Cd102 O111 2.356 . S
C103 O108 1.209 . S
C103 O110 1.226 . S
O104 Cd100 2.273 . S
O104 Cd102 2.411 . S
O104 C107 1.320 . S
O105 Cd102 2.333 . S
O105 C107 1.214 . S
O106 Cd102 2.352 . S
O106 C109 1.258 . S
C107 O104 1.320 . S
C107 O105 1.214 . S
O108 Cd100 2.277 . S
O108 C103 1.209 . S
C109 O106 1.258 . S
C109 O111 1.282 . S
O110 Cd102 2.277 . S
O110 C103 1.226 . S
O111 Cd102 2.356 . S
O111 C109 1.282 . S
C112 O113 1.306 . S
C112 O115 1.160 . S
O113 C112 1.306 . S
O113 Cd114 2.228 . S
Cd114 O113 2.228 . S
Cd114 O118 2.273 . S
Cd114 O122 2.277 . S
O115 C112 1.160 . S
O115 Cd116 2.203 . S
Cd116 O115 2.203 . S
Cd116 O118 2.411 . S
Cd116 O119 2.333 . S
Cd116 O120 2.352 . S
Cd116 O124 2.277 . S
Cd116 O125 2.356 . S
C117 O122 1.209 . S
C117 O124 1.226 . S
O118 Cd114 2.273 . S
O118 Cd116 2.411 . S
O118 C121 1.320 . S
O119 Cd116 2.333 . S
O119 C121 1.214 . S
O120 Cd116 2.352 . S
O120 C123 1.258 . S
C121 O118 1.320 . S
C121 O119 1.214 . S
O122 Cd114 2.277 . S
O122 C117 1.209 . S
C123 O120 1.258 . S
C123 O125 1.282 . S
O124 Cd116 2.277 . S
O124 C117 1.226 . S
O125 Cd116 2.356 . S
O125 C123 1.282 . S
C126 O127 1.306 . S
C126 O129 1.160 . S
O127 C126 1.306 . S
O127 Cd128 2.228 . S
Cd128 O127 2.228 . S
Cd128 O132 2.273 . S
Cd128 O136 2.277 . S
O129 C126 1.160 . S
O129 Cd130 2.203 . S
Cd130 O129 2.203 . S
Cd130 O132 2.411 . S
Cd130 O133 2.333 . S
Cd130 O134 2.352 . S
Cd130 O138 2.277 . S
Cd130 O139 2.356 . S
C131 O136 1.209 . S
C131 O138 1.226 . S
O132 Cd128 2.273 . S
O132 Cd130 2.411 . S
O132 C135 1.320 . S
O133 Cd130 2.333 . S
O133 C135 1.214 . S
O134 Cd130 2.352 . S
O134 C137 1.258 . S
C135 O132 1.320 . S
C135 O133 1.214 . S
O136 Cd128 2.277 . S
O136 C131 1.209 . S
C137 O134 1.258 . S
C137 O139 1.282 . S
O138 Cd130 2.277 . S
O138 C131 1.226 . S
O139 Cd130 2.356 . S
O139 C137 1.282 . S
C140 O141 1.306 . S
C140 O143 1.160 . S
O141 C140 1.306 . S
O141 Cd142 2.228 . S
Cd142 O141 2.228 . S
Cd142 O146 2.273 . S
Cd142 O150 2.277 . S
O143 C140 1.160 . S
O143 Cd144 2.203 . S
Cd144 O143 2.203 . S
Cd144 O146 2.411 . S
Cd144 O147 2.333 . S
Cd144 O148 2.352 . S
Cd144 O152 2.277 . S
Cd144 O153 2.356 . S
C145 O150 1.209 . S
C145 O152 1.226 . S
O146 Cd142 2.273 . S
O146 Cd144 2.411 . S
O146 C149 1.320 . S
O147 Cd144 2.333 . S
O147 C149 1.214 . S
O148 Cd144 2.352 . S
O148 C151 1.258 . S
C149 O146 1.320 . S
C149 O147 1.214 . S
O150 Cd142 2.277 . S
O150 C145 1.209 . S
C151 O148 1.258 . S
C151 O153 1.282 . S
O152 Cd144 2.277 . S
O152 C145 1.226 . S
O153 Cd144 2.356 . S
O153 C151 1.282 . S
C154 O155 1.306 . S
C154 O157 1.160 . S
O155 C154 1.306 . S
O155 Cd156 2.228 . S
Cd156 O155 2.228 . S
Cd156 O160 2.273 . S
Cd156 O164 2.277 . S
O157 C154 1.160 . S
O157 Cd158 2.203 . S
Cd158 O157 2.203 . S
Cd158 O160 2.411 . S
Cd158 O161 2.333 . S
Cd158 O162 2.352 . S
Cd158 O166 2.277 . S
Cd158 O167 2.356 . S
C159 O164 1.209 . S
C159 O166 1.226 . S
O160 Cd156 2.273 . S
O160 Cd158 2.411 . S
O160 C163 1.320 . S
O161 Cd158 2.333 . S
O161 C163 1.214 . S
O162 Cd158 2.352 . S
O162 C165 1.258 . S
C163 O160 1.320 . S
C163 O161 1.214 . S
O164 Cd156 2.277 . S
O164 C159 1.209 . S
C165 O162 1.258 . S
C165 O167 1.282 . S
O166 Cd158 2.277 . S
O166 C159 1.226 . S
O167 Cd158 2.356 . S
O167 C165 1.282 . S
C168 O169 1.306 . S
C168 O171 1.160 . S
O169 C168 1.306 . S
O169 Cd170 2.228 . S
Cd170 O169 2.228 . S
Cd170 O174 2.273 . S
Cd170 O178 2.277 . S
O171 C168 1.160 . S
O171 Cd172 2.203 . S
Cd172 O171 2.203 . S
Cd172 O174 2.411 . S
Cd172 O175 2.333 . S
Cd172 O176 2.352 . S
Cd172 O180 2.277 . S
Cd172 O181 2.356 . S
C173 O178 1.209 . S
C173 O180 1.226 . S
O174 Cd170 2.273 . S
O174 Cd172 2.411 . S
O174 C177 1.320 . S
O175 Cd172 2.333 . S
O175 C177 1.214 . S
O176 Cd172 2.352 . S
O176 C179 1.258 . S
C177 O174 1.320 . S
C177 O175 1.214 . S
O178 Cd170 2.277 . S
O178 C173 1.209 . S
C179 O176 1.258 . S
C179 O181 1.282 . S
O180 Cd172 2.277 . S
O180 C173 1.226 . S
O181 Cd172 2.356 . S
O181 C179 1.282 . S
C182 O183 1.306 . S
C182 O185 1.160 . S
O183 C182 1.306 . S
O183 Cd184 2.228 . S
Cd184 O183 2.228 . S
Cd184 O188 2.273 . S
Cd184 O192 2.277 . S
O185 C182 1.160 . S
O185 Cd186 2.203 . S
Cd186 O185 2.203 . S
Cd186 O188 2.411 . S
Cd186 O189 2.333 . S
Cd186 O190 2.352 . S
Cd186 O194 2.277 . S
Cd186 O195 2.356 . S
C187 O192 1.209 . S
C187 O194 1.226 . S
O188 Cd184 2.273 . S
O188 Cd186 2.411 . S
O188 C191 1.320 . S
O189 Cd186 2.333 . S
O189 C191 1.214 . S
O190 Cd186 2.352 . S
O190 C193 1.337 . S
C191 O188 1.320 . S
C191 O189 1.214 . S
O192 Cd184 2.277 . S
O192 C187 1.209 . S
C193 O190 1.337 . S
C193 O195 1.274 . S
O194 Cd186 2.277 . S
O194 C187 1.226 . S
O195 Cd186 2.356 . S
O195 C193 1.274 . S
C196 O197 1.306 . S
C196 O199 1.160 . S
O197 C196 1.306 . S
O197 Cd198 2.228 . S
Cd198 O197 2.228 . S
Cd198 O202 2.273 . S
Cd198 O206 2.277 . S
O199 C196 1.160 . S
O199 Cd200 2.203 . S
Cd200 O199 2.203 . S
Cd200 O202 2.411 . S
Cd200 O203 2.333 . S
Cd200 O204 2.352 . S
Cd200 O208 2.277 . S
Cd200 O209 2.356 . S
C201 O206 1.209 . S
C201 O208 1.226 . S
O202 Cd198 2.273 . S
O202 Cd200 2.411 . S
O202 C205 1.320 . S
O203 Cd200 2.333 . S
O203 C205 1.214 . S
O204 Cd200 2.352 . S
O204 C207 1.258 . S
C205 O202 1.320 . S
C205 O203 1.214 . S
O206 Cd198 2.277 . S
O206 C201 1.209 . S
C207 O204 1.258 . S
C207 O209 1.282 . S
O208 Cd200 2.277 . S
O208 C201 1.226 . S
O209 Cd200 2.356 . S
O209 C207 1.282 . S
C210 O211 1.306 . S
C210 O213 1.160 . S
O211 C210 1.306 . S
O211 Cd212 2.228 . S
Cd212 O211 2.228 . S
Cd212 O216 2.273 . S
Cd212 O220 2.277 . S
O213 C210 1.160 . S
O213 Cd214 2.203 . S
Cd214 O213 2.203 . S
Cd214 O216 2.411 . S
Cd214 O217 2.333 . S
Cd214 O218 2.352 . S
Cd214 O222 2.277 . S
Cd214 O223 2.356 . S
C215 O220 1.209 . S
C215 O222 1.226 . S
O216 Cd212 2.273 . S
O216 Cd214 2.411 . S
O216 C219 1.320 . S
O217 Cd214 2.333 . S
O217 C219 1.214 . S
O218 Cd214 2.352 . S
O218 C221 1.258 . S
C219 O216 1.320 . S
C219 O217 1.214 . S
O220 Cd212 2.277 . S
O220 C215 1.209 . S
C221 O218 1.258 . S
C221 O223 1.282 . S
O222 Cd214 2.277 . S
O222 C215 1.226 . S
O223 Cd214 2.356 . S
O223 C221 1.282 . S
C224 O225 1.306 . S
C224 O227 1.160 . S
O225 C224 1.306 . S
O225 Cd226 2.228 . S
Cd226 O225 2.228 . S
Cd226 O230 2.273 . S
Cd226 O234 2.277 . S
O227 C224 1.160 . S
O227 Cd228 2.203 . S
Cd228 O227 2.203 . S
Cd228 O230 2.411 . S
Cd228 O231 2.333 . S
Cd228 O232 2.352 . S
Cd228 O236 2.277 . S
Cd228 O237 2.356 . S
C229 O234 1.209 . S
C229 O236 1.226 . S
O230 Cd226 2.273 . S
O230 Cd228 2.411 . S
O230 C233 1.320 . S
O231 Cd228 2.333 . S
O231 C233 1.214 . S
O232 Cd228 2.352 . S
O232 C235 1.258 . S
C233 O230 1.320 . S
C233 O231 1.214 . S
O234 Cd226 2.277 . S
O234 C229 1.209 . S
C235 O232 1.258 . S
C235 O237 1.282 . S
O236 Cd228 2.277 . S
O236 C229 1.226 . S
O237 Cd228 2.356 . S
O237 C235 1.282 . S
C238 O239 1.306 . S
C238 O241 1.160 . S
O239 C238 1.306 . S
O239 Cd240 2.228 . S
Cd240 O239 2.228 . S
Cd240 O244 2.273 . S
Cd240 O248 2.277 . S
O241 C238 1.160 . S
O241 Cd242 2.203 . S
Cd242 O241 2.203 . S
Cd242 O244 2.411 . S
Cd242 O245 2.333 . S
Cd242 O246 2.352 . S
Cd242 O250 2.277 . S
Cd242 O251 2.356 . S
C243 O248 1.209 . S
C243 O250 1.226 . S
O244 Cd240 2.273 . S
O244 Cd242 2.411 . S
O244 C247 1.320 . S
O245 Cd242 2.333 . S
O245 C247 1.214 . S
O246 Cd242 2.352 . S
O246 C249 1.258 . S
C247 O244 1.320 . S
C247 O245 1.214 . S
O248 Cd240 2.277 . S
O248 C243 1.209 . S
C249 O246 1.258 . S
C249 O251 1.282 . S
O250 Cd242 2.277 . S
O250 C243 1.226 . S
O251 Cd242 2.356 . S
O251 C249 1.282 . S
H252 O278 0.856 . S
H253 O281 0.854 . S
H254 C289 0.930 . S
H255 C290 0.930 . S
H256 C292 0.930 . S
H257 C293 0.930 . S
H258 C295 0.931 . S
H259 C296 0.930 . S
H260 C298 0.930 . S
H261 C299 0.929 . S
H262 C301 0.930 . S
H263 C302 0.931 . S
H264 C304 0.930 . S
H265 C305 0.929 . S
H266 C307 0.931 . S
H267 C308 0.930 . S
H268 C310 0.930 . S
H269 C311 0.932 . S
H270 C313 0.930 . S
H271 C314 0.929 . S
H272 C316 0.931 . S
H273 C317 0.930 . S
H274 C319 0.929 . S
H275 C320 0.931 . S
H276 C322 0.930 . S
H277 C323 0.929 . S
O278 H252 0.856 . S
O278 C324 1.300 . S
O279 C324 1.209 . S
O280 C325 1.199 . S
O281 H253 0.854 . S
O281 C325 1.297 . S
C282 C283 1.404 . S
C282 C287 1.397 . S
C282 C288 1.492 . S
C283 C282 1.404 . S
C283 C284 1.396 . S
C283 C294 1.492 . S
C284 C283 1.396 . S
C284 C285 1.397 . S
C284 C300 1.509 . S
C285 C284 1.397 . S
C285 C286 1.412 . S
C285 C306 1.485 . S
C286 C285 1.412 . S
C286 C287 1.388 . S
C286 C312 1.490 . S
C287 C282 1.397 . S
C287 C286 1.388 . S
C287 C318 1.519 . S
C288 C282 1.492 . S
C288 C289 1.363 . S
C288 C293 1.390 . S
C289 H254 0.930 . S
C289 C288 1.363 . S
C289 C290 1.372 . S
C290 H255 0.930 . S
C290 C289 1.372 . S
C290 C291 1.383 . S
C291 C290 1.383 . S
C291 C292 1.395 . S
C292 H256 0.930 . S
C292 C291 1.395 . S
C292 C293 1.362 . S
C293 H257 0.930 . S
C293 C288 1.390 . S
C293 C292 1.362 . S
C294 C283 1.492 . S
C294 C295 1.377 . S
C294 C299 1.397 . S
C295 H258 0.931 . S
C295 C294 1.377 . S
C295 C296 1.376 . S
C296 H259 0.930 . S
C296 C295 1.376 . S
C296 C297 1.376 . S
C297 C296 1.376 . S
C297 C298 1.378 . S
C297 C324 1.486 . S
C298 H260 0.930 . S
C298 C297 1.378 . S
C298 C299 1.376 . S
C299 H261 0.929 . S
C299 C294 1.397 . S
C299 C298 1.376 . S
C300 C284 1.509 . S
C300 C301 1.391 . S
C300 C305 1.386 . S
C301 H262 0.930 . S
C301 C300 1.391 . S
C301 C302 1.375 . S
C302 H263 0.931 . S
C302 C301 1.375 . S
C302 C303 1.375 . S
C303 C302 1.375 . S
C303 C304 1.361 . S
C304 H264 0.930 . S
C304 C303 1.361 . S
C304 C305 1.399 . S
C305 H265 0.929 . S
C305 C300 1.386 . S
C305 C304 1.399 . S
C306 C285 1.485 . S
C306 C307 1.394 . S
C306 C311 1.360 . S
C307 H266 0.931 . S
C307 C306 1.394 . S
C307 C308 1.372 . S
C308 H267 0.930 . S
C308 C307 1.372 . S
C308 C309 1.397 . S
C309 C308 1.397 . S
C309 C310 1.390 . S
C309 C325 1.476 . S
C310 H268 0.930 . S
C310 C309 1.390 . S
C310 C311 1.366 . S
C311 H269 0.932 . S
C311 C306 1.360 . S
C311 C310 1.366 . S
C312 C286 1.490 . S
C312 C313 1.380 . S
C312 C317 1.386 . S
C313 H270 0.930 . S
C313 C312 1.380 . S
C313 C314 1.381 . S
C314 H271 0.929 . S
C314 C313 1.381 . S
C314 C315 1.371 . S
C315 C314 1.371 . S
C315 C316 1.380 . S
C316 H272 0.931 . S
C316 C315 1.380 . S
C316 C317 1.387 . S
C317 H273 0.930 . S
C317 C312 1.386 . S
C317 C316 1.387 . S
C318 C287 1.519 . S
C318 C319 1.377 . S
C318 C323 1.361 . S
C319 H274 0.929 . S
C319 C318 1.377 . S
C319 C320 1.386 . S
C320 H275 0.931 . S
C320 C319 1.386 . S
C320 C321 1.363 . S
C321 C320 1.363 . S
C321 C322 1.385 . S
C322 H276 0.930 . S
C322 C321 1.385 . S
C322 C323 1.396 . S
C323 H277 0.929 . S
C323 C318 1.361 . S
C323 C322 1.396 . S
C324 O278 1.300 . S
C324 O279 1.209 . S
C324 C297 1.486 . S
C325 O280 1.199 . S
C325 O281 1.297 . S
C325 C309 1.476 . S
H326 O352 0.856 . S
H327 O355 0.854 . S
H328 C363 0.930 . S
H329 C364 0.930 . S
H330 C366 0.930 . S
H331 C367 0.930 . S
H332 C369 0.931 . S
H333 C370 0.930 . S
H334 C372 0.930 . S
H335 C373 0.929 . S
H336 C375 0.930 . S
H337 C376 0.931 . S
H338 C378 0.930 . S
H339 C379 0.929 . S
H340 C381 0.931 . S
H341 C382 0.930 . S
H342 C384 0.930 . S
H343 C385 0.932 . S
H344 C387 0.930 . S
H345 C388 0.929 . S
H346 C390 0.931 . S
H347 C391 0.930 . S
H348 C393 0.929 . S
H349 C394 0.931 . S
H350 C396 0.930 . S
H351 C397 0.929 . S
O352 H326 0.856 . S
O352 C398 1.300 . S
O353 C398 1.209 . S
O354 C399 1.199 . S
O355 H327 0.854 . S
O355 C399 1.297 . S
C356 C357 1.404 . S
C356 C361 1.397 . S
C356 C362 1.492 . S
C357 C356 1.404 . S
C357 C358 1.396 . S
C357 C368 1.492 . S
C358 C357 1.396 . S
C358 C359 1.397 . S
C358 C374 1.509 . S
C359 C358 1.397 . S
C359 C360 1.412 . S
C359 C380 1.485 . S
C360 C359 1.412 . S
C360 C361 1.388 . S
C360 C386 1.490 . S
C361 C356 1.397 . S
C361 C360 1.388 . S
C361 C392 1.519 . S
C362 C356 1.492 . S
C362 C363 1.363 . S
C362 C367 1.390 . S
C363 H328 0.930 . S
C363 C362 1.363 . S
C363 C364 1.372 . S
C364 H329 0.930 . S
C364 C363 1.372 . S
C364 C365 1.383 . S
C365 C364 1.383 . S
C365 C366 1.395 . S
C366 H330 0.930 . S
C366 C365 1.395 . S
C366 C367 1.362 . S
C367 H331 0.930 . S
C367 C362 1.390 . S
C367 C366 1.362 . S
C368 C357 1.492 . S
C368 C369 1.377 . S
C368 C373 1.397 . S
C369 H332 0.931 . S
C369 C368 1.377 . S
C369 C370 1.376 . S
C370 H333 0.930 . S
C370 C369 1.376 . S
C370 C371 1.376 . S
C371 C370 1.376 . S
C371 C372 1.378 . S
C371 C398 1.486 . S
C372 H334 0.930 . S
C372 C371 1.378 . S
C372 C373 1.376 . S
C373 H335 0.929 . S
C373 C368 1.397 . S
C373 C372 1.376 . S
C374 C358 1.509 . S
C374 C375 1.391 . S
C374 C379 1.386 . S
C375 H336 0.930 . S
C375 C374 1.391 . S
C375 C376 1.375 . S
C376 H337 0.931 . S
C376 C375 1.375 . S
C376 C377 1.375 . S
C377 C376 1.375 . S
C377 C378 1.361 . S
C378 H338 0.930 . S
C378 C377 1.361 . S
C378 C379 1.399 . S
C379 H339 0.929 . S
C379 C374 1.386 . S
C379 C378 1.399 . S
C380 C359 1.485 . S
C380 C381 1.394 . S
C380 C385 1.360 . S
C381 H340 0.931 . S
C381 C380 1.394 . S
C381 C382 1.372 . S
C382 H341 0.930 . S
C382 C381 1.372 . S
C382 C383 1.397 . S
C383 C382 1.397 . S
C383 C384 1.390 . S
C383 C399 1.476 . S
C384 H342 0.930 . S
C384 C383 1.390 . S
C384 C385 1.366 . S
C385 H343 0.932 . S
C385 C380 1.360 . S
C385 C384 1.366 . S
C386 C360 1.490 . S
C386 C387 1.380 . S
C386 C391 1.386 . S
C387 H344 0.930 . S
C387 C386 1.380 . S
C387 C388 1.381 . S
C388 H345 0.929 . S
C388 C387 1.381 . S
C388 C389 1.371 . S
C389 C388 1.371 . S
C389 C390 1.380 . S
C390 H346 0.931 . S
C390 C389 1.380 . S
C390 C391 1.387 . S
C391 H347 0.930 . S
C391 C386 1.386 . S
C391 C390 1.387 . S
C392 C361 1.519 . S
C392 C393 1.377 . S
C392 C397 1.361 . S
C393 H348 0.929 . S
C393 C392 1.377 . S
C393 C394 1.386 . S
C394 H349 0.931 . S
C394 C393 1.386 . S
C394 C395 1.363 . S
C395 C394 1.363 . S
C395 C396 1.385 . S
C396 H350 0.930 . S
C396 C395 1.385 . S
C396 C397 1.396 . S
C397 H351 0.929 . S
C397 C392 1.361 . S
C397 C396 1.396 . S
C398 O352 1.300 . S
C398 O353 1.209 . S
C398 C371 1.486 . S
C399 O354 1.199 . S
C399 O355 1.297 . S
C399 C383 1.476 . S
H400 O426 0.856 . S
H401 O429 0.854 . S
H402 C437 0.930 . S
H403 C438 0.930 . S
H404 C440 0.930 . S
H405 C441 0.930 . S
H406 C443 0.931 . S
H407 C444 0.930 . S
H408 C446 0.930 . S
H409 C447 0.929 . S
H410 C449 0.930 . S
H411 C450 0.931 . S
H412 C452 0.930 . S
H413 C453 0.929 . S
H414 C455 0.931 . S
H415 C456 0.930 . S
H416 C458 0.930 . S
H417 C459 0.932 . S
H418 C461 0.930 . S
H419 C462 0.929 . S
H420 C464 0.931 . S
H421 C465 0.930 . S
H422 C467 0.929 . S
H423 C468 0.931 . S
H424 C470 0.930 . S
H425 C471 0.929 . S
O426 H400 0.856 . S
O426 C472 1.300 . S
O427 C472 1.209 . S
O428 C473 1.199 . S
O429 H401 0.854 . S
O429 C473 1.297 . S
C430 C431 1.404 . S
C430 C435 1.397 . S
C430 C436 1.492 . S
C431 C430 1.404 . S
C431 C432 1.396 . S
C431 C442 1.492 . S
C432 C431 1.396 . S
C432 C433 1.397 . S
C432 C448 1.509 . S
C433 C432 1.397 . S
C433 C434 1.412 . S
C433 C454 1.485 . S
C434 C433 1.412 . S
C434 C435 1.388 . S
C434 C460 1.490 . S
C435 C430 1.397 . S
C435 C434 1.388 . S
C435 C466 1.519 . S
C436 C430 1.492 . S
C436 C437 1.363 . S
C436 C441 1.390 . S
C437 H402 0.930 . S
C437 C436 1.363 . S
C437 C438 1.372 . S
C438 H403 0.930 . S
C438 C437 1.372 . S
C438 C439 1.383 . S
C439 C438 1.383 . S
C439 C440 1.395 . S
C440 H404 0.930 . S
C440 C439 1.395 . S
C440 C441 1.362 . S
C441 H405 0.930 . S
C441 C436 1.390 . S
C441 C440 1.362 . S
C442 C431 1.492 . S
C442 C443 1.377 . S
C442 C447 1.397 . S
C443 H406 0.931 . S
C443 C442 1.377 . S
C443 C444 1.376 . S
C444 H407 0.930 . S
C444 C443 1.376 . S
C444 C445 1.376 . S
C445 C444 1.376 . S
C445 C446 1.378 . S
C445 C472 1.486 . S
C446 H408 0.930 . S
C446 C445 1.378 . S
C446 C447 1.376 . S
C447 H409 0.929 . S
C447 C442 1.397 . S
C447 C446 1.376 . S
C448 C432 1.509 . S
C448 C449 1.391 . S
C448 C453 1.386 . S
C449 H410 0.930 . S
C449 C448 1.391 . S
C449 C450 1.375 . S
C450 H411 0.931 . S
C450 C449 1.375 . S
C450 C451 1.375 . S
C451 C450 1.375 . S
C451 C452 1.361 . S
C452 H412 0.930 . S
C452 C451 1.361 . S
C452 C453 1.399 . S
C453 H413 0.929 . S
C453 C448 1.386 . S
C453 C452 1.399 . S
C454 C433 1.485 . S
C454 C455 1.394 . S
C454 C459 1.360 . S
C455 H414 0.931 . S
C455 C454 1.394 . S
C455 C456 1.372 . S
C456 H415 0.930 . S
C456 C455 1.372 . S
C456 C457 1.397 . S
C457 C456 1.397 . S
C457 C458 1.390 . S
C457 C473 1.476 . S
C458 H416 0.930 . S
C458 C457 1.390 . S
C458 C459 1.366 . S
C459 H417 0.932 . S
C459 C454 1.360 . S
C459 C458 1.366 . S
C460 C434 1.490 . S
C460 C461 1.380 . S
C460 C465 1.386 . S
C461 H418 0.930 . S
C461 C460 1.380 . S
C461 C462 1.381 . S
C462 H419 0.929 . S
C462 C461 1.381 . S
C462 C463 1.371 . S
C463 C462 1.371 . S
C463 C464 1.380 . S
C464 H420 0.931 . S
C464 C463 1.380 . S
C464 C465 1.387 . S
C465 H421 0.930 . S
C465 C460 1.386 . S
C465 C464 1.387 . S
C466 C435 1.519 . S
C466 C467 1.377 . S
C466 C471 1.361 . S
C467 H422 0.929 . S
C467 C466 1.377 . S
C467 C468 1.386 . S
C468 H423 0.931 . S
C468 C467 1.386 . S
C468 C469 1.363 . S
C469 C468 1.363 . S
C469 C470 1.385 . S
C470 H424 0.930 . S
C470 C469 1.385 . S
C470 C471 1.396 . S
C471 H425 0.929 . S
C471 C466 1.361 . S
C471 C470 1.396 . S
C472 O426 1.300 . S
C472 O427 1.209 . S
C472 C445 1.486 . S
C473 O428 1.199 . S
C473 O429 1.297 . S
C473 C457 1.476 . S
H474 O500 0.856 . S
H475 O503 0.854 . S
H476 C511 0.930 . S
H477 C512 0.930 . S
H478 C514 0.930 . S
H479 C515 0.930 . S
H480 C517 0.931 . S
H481 C518 0.930 . S
H482 C520 0.930 . S
H483 C521 0.929 . S
H484 C523 0.930 . S
H485 C524 0.931 . S
H486 C526 0.930 . S
H487 C527 0.929 . S
H488 C529 0.931 . S
H489 C530 0.930 . S
H490 C532 0.930 . S
H491 C533 0.932 . S
H492 C535 0.930 . S
H493 C536 0.929 . S
H494 C538 0.931 . S
H495 C539 0.930 . S
H496 C541 0.929 . S
H497 C542 0.931 . S
H498 C544 0.930 . S
H499 C545 0.929 . S
O500 H474 0.856 . S
O500 C546 1.300 . S
O501 C546 1.209 . S
O502 C547 1.199 . S
O503 H475 0.854 . S
O503 C547 1.297 . S
C504 C505 1.404 . S
C504 C509 1.397 . S
C504 C510 1.492 . S
C505 C504 1.404 . S
C505 C506 1.396 . S
C505 C516 1.492 . S
C506 C505 1.396 . S
C506 C507 1.397 . S
C506 C522 1.509 . S
C507 C506 1.397 . S
C507 C508 1.412 . S
C507 C528 1.485 . S
C508 C507 1.412 . S
C508 C509 1.388 . S
C508 C534 1.490 . S
C509 C504 1.397 . S
C509 C508 1.388 . S
C509 C540 1.519 . S
C510 C504 1.492 . S
C510 C511 1.363 . S
C510 C515 1.390 . S
C511 H476 0.930 . S
C511 C510 1.363 . S
C511 C512 1.372 . S
C512 H477 0.930 . S
C512 C511 1.372 . S
C512 C513 1.383 . S
C513 C512 1.383 . S
C513 C514 1.395 . S
C514 H478 0.930 . S
C514 C513 1.395 . S
C514 C515 1.362 . S
C515 H479 0.930 . S
C515 C510 1.390 . S
C515 C514 1.362 . S
C516 C505 1.492 . S
C516 C517 1.377 . S
C516 C521 1.397 . S
C517 H480 0.931 . S
C517 C516 1.377 . S
C517 C518 1.376 . S
C518 H481 0.930 . S
C518 C517 1.376 . S
C518 C519 1.376 . S
C519 C518 1.376 . S
C519 C520 1.378 . S
C519 C546 1.486 . S
C520 H482 0.930 . S
C520 C519 1.378 . S
C520 C521 1.376 . S
C521 H483 0.929 . S
C521 C516 1.397 . S
C521 C520 1.376 . S
C522 C506 1.509 . S
C522 C523 1.391 . S
C522 C527 1.386 . S
C523 H484 0.930 . S
C523 C522 1.391 . S
C523 C524 1.375 . S
C524 H485 0.931 . S
C524 C523 1.375 . S
C524 C525 1.375 . S
C525 C524 1.375 . S
C525 C526 1.361 . S
C526 H486 0.930 . S
C526 C525 1.361 . S
C526 C527 1.399 . S
C527 H487 0.929 . S
C527 C522 1.386 . S
C527 C526 1.399 . S
C528 C507 1.485 . S
C528 C529 1.394 . S
C528 C533 1.360 . S
C529 H488 0.931 . S
C529 C528 1.394 . S
C529 C530 1.372 . S
C530 H489 0.930 . S
C530 C529 1.372 . S
C530 C531 1.397 . S
C531 C530 1.397 . S
C531 C532 1.390 . S
C531 C547 1.476 . S
C532 H490 0.930 . S
C532 C531 1.390 . S
C532 C533 1.366 . S
C533 H491 0.932 . S
C533 C528 1.360 . S
C533 C532 1.366 . S
C534 C508 1.490 . S
C534 C535 1.380 . S
C534 C539 1.386 . S
C535 H492 0.930 . S
C535 C534 1.380 . S
C535 C536 1.381 . S
C536 H493 0.929 . S
C536 C535 1.381 . S
C536 C537 1.371 . S
C537 C536 1.371 . S
C537 C538 1.380 . S
C538 H494 0.931 . S
C538 C537 1.380 . S
C538 C539 1.387 . S
C539 H495 0.930 . S
C539 C534 1.386 . S
C539 C538 1.387 . S
C540 C509 1.519 . S
C540 C541 1.377 . S
C540 C545 1.361 . S
C541 H496 0.929 . S
C541 C540 1.377 . S
C541 C542 1.386 . S
C542 H497 0.931 . S
C542 C541 1.386 . S
C542 C543 1.363 . S
C543 C542 1.363 . S
C543 C544 1.385 . S
C544 H498 0.930 . S
C544 C543 1.385 . S
C544 C545 1.396 . S
C545 H499 0.929 . S
C545 C540 1.361 . S
C545 C544 1.396 . S
C546 O500 1.300 . S
C546 O501 1.209 . S
C546 C519 1.486 . S
C547 O502 1.199 . S
C547 O503 1.297 . S
C547 C531 1.476 . S
H548 O574 0.856 . S
H549 O577 0.854 . S
H550 C585 0.930 . S
H551 C586 0.930 . S
H552 C588 0.930 . S
H553 C589 0.930 . S
H554 C591 0.931 . S
H555 C592 0.930 . S
H556 C594 0.930 . S
H557 C595 0.929 . S
H558 C597 0.930 . S
H559 C598 0.931 . S
H560 C600 0.930 . S
H561 C601 0.929 . S
H562 C603 0.931 . S
H563 C604 0.930 . S
H564 C606 0.930 . S
H565 C607 0.932 . S
H566 C609 0.930 . S
H567 C610 0.929 . S
H568 C612 0.931 . S
H569 C613 0.930 . S
H570 C615 0.929 . S
H571 C616 0.931 . S
H572 C618 0.930 . S
H573 C619 0.929 . S
O574 H548 0.856 . S
O574 C620 1.300 . S
O575 C620 1.209 . S
O576 C621 1.199 . S
O577 H549 0.854 . S
O577 C621 1.297 . S
C578 C579 1.404 . S
C578 C583 1.397 . S
C578 C584 1.492 . S
C579 C578 1.404 . S
C579 C580 1.396 . S
C579 C590 1.492 . S
C580 C579 1.396 . S
C580 C581 1.397 . S
C580 C596 1.509 . S
C581 C580 1.397 . S
C581 C582 1.412 . S
C581 C602 1.485 . S
C582 C581 1.412 . S
C582 C583 1.388 . S
C582 C608 1.490 . S
C583 C578 1.397 . S
C583 C582 1.388 . S
C583 C614 1.519 . S
C584 C578 1.492 . S
C584 C585 1.363 . S
C584 C589 1.390 . S
C585 H550 0.930 . S
C585 C584 1.363 . S
C585 C586 1.372 . S
C586 H551 0.930 . S
C586 C585 1.372 . S
C586 C587 1.383 . S
C587 C586 1.383 . S
C587 C588 1.395 . S
C588 H552 0.930 . S
C588 C587 1.395 . S
C588 C589 1.362 . S
C589 H553 0.930 . S
C589 C584 1.390 . S
C589 C588 1.362 . S
C590 C579 1.492 . S
C590 C591 1.377 . S
C590 C595 1.397 . S
C591 H554 0.931 . S
C591 C590 1.377 . S
C591 C592 1.376 . S
C592 H555 0.930 . S
C592 C591 1.376 . S
C592 C593 1.376 . S
C593 C592 1.376 . S
C593 C594 1.378 . S
C593 C620 1.486 . S
C594 H556 0.930 . S
C594 C593 1.378 . S
C594 C595 1.376 . S
C595 H557 0.929 . S
C595 C590 1.397 . S
C595 C594 1.376 . S
C596 C580 1.509 . S
C596 C597 1.391 . S
C596 C601 1.386 . S
C597 H558 0.930 . S
C597 C596 1.391 . S
C597 C598 1.375 . S
C598 H559 0.931 . S
C598 C597 1.375 . S
C598 C599 1.375 . S
C599 C598 1.375 . S
C599 C600 1.361 . S
C600 H560 0.930 . S
C600 C599 1.361 . S
C600 C601 1.399 . S
C601 H561 0.929 . S
C601 C596 1.386 . S
C601 C600 1.399 . S
C602 C581 1.485 . S
C602 C603 1.394 . S
C602 C607 1.360 . S
C603 H562 0.931 . S
C603 C602 1.394 . S
C603 C604 1.372 . S
C604 H563 0.930 . S
C604 C603 1.372 . S
C604 C605 1.397 . S
C605 C604 1.397 . S
C605 C606 1.390 . S
C605 C621 1.476 . S
C606 H564 0.930 . S
C606 C605 1.390 . S
C606 C607 1.366 . S
C607 H565 0.932 . S
C607 C602 1.360 . S
C607 C606 1.366 . S
C608 C582 1.490 . S
C608 C609 1.380 . S
C608 C613 1.386 . S
C609 H566 0.930 . S
C609 C608 1.380 . S
C609 C610 1.381 . S
C610 H567 0.929 . S
C610 C609 1.381 . S
C610 C611 1.371 . S
C611 C610 1.371 . S
C611 C612 1.380 . S
C612 H568 0.931 . S
C612 C611 1.380 . S
C612 C613 1.387 . S
C613 H569 0.930 . S
C613 C608 1.386 . S
C613 C612 1.387 . S
C614 C583 1.519 . S
C614 C615 1.377 . S
C614 C619 1.361 . S
C615 H570 0.929 . S
C615 C614 1.377 . S
C615 C616 1.386 . S
C616 H571 0.931 . S
C616 C615 1.386 . S
C616 C617 1.363 . S
C617 C616 1.363 . S
C617 C618 1.385 . S
C618 H572 0.930 . S
C618 C617 1.385 . S
C618 C619 1.396 . S
C619 H573 0.929 . S
C619 C614 1.361 . S
C619 C618 1.396 . S
C620 O574 1.300 . S
C620 O575 1.209 . S
C620 C593 1.486 . S
C621 O576 1.199 . S
C621 O577 1.297 . S
C621 C605 1.476 . S
H622 O648 0.856 1_554 S
H623 O651 0.854 . S
H624 C659 0.930 . S
H625 C660 0.930 . S
H626 C662 0.930 . S
H627 C663 0.930 . S
H628 C665 0.931 . S
H629 C666 0.930 . S
H630 C668 0.930 . S
H631 C669 0.929 . S
H632 C671 0.930 . S
H633 C672 0.931 . S
H634 C674 0.930 . S
H635 C675 0.929 . S
H636 C677 0.931 . S
H637 C678 0.930 . S
H638 C680 0.930 . S
H639 C681 0.932 . S
H640 C683 0.930 . S
H641 C684 0.929 . S
H642 C686 0.931 . S
H643 C687 0.930 . S
H644 C689 0.929 . S
H645 C690 0.931 . S
H646 C692 0.930 . S
H647 C693 0.929 . S
O648 H622 0.856 1_556 S
O648 C694 1.300 . S
O649 C694 1.209 . S
O650 C695 1.199 . S
O651 H623 0.854 . S
O651 C695 1.297 . S
C652 C653 1.404 . S
C652 C657 1.397 . S
C652 C658 1.492 . S
C653 C652 1.404 . S
C653 C654 1.396 . S
C653 C664 1.492 . S
C654 C653 1.396 . S
C654 C655 1.397 . S
C654 C670 1.509 . S
C655 C654 1.397 . S
C655 C656 1.412 . S
C655 C676 1.485 . S
C656 C655 1.412 . S
C656 C657 1.388 . S
C656 C682 1.490 . S
C657 C652 1.397 . S
C657 C656 1.388 . S
C657 C688 1.519 . S
C658 C652 1.492 . S
C658 C659 1.363 . S
C658 C663 1.390 . S
C659 H624 0.930 . S
C659 C658 1.363 . S
C659 C660 1.372 . S
C660 H625 0.930 . S
C660 C659 1.372 . S
C660 C661 1.383 . S
C661 C660 1.383 . S
C661 C662 1.395 . S
C662 H626 0.930 . S
C662 C661 1.395 . S
C662 C663 1.362 . S
C663 H627 0.930 . S
C663 C658 1.390 . S
C663 C662 1.362 . S
C664 C653 1.492 . S
C664 C665 1.377 . S
C664 C669 1.397 . S
C665 H628 0.931 . S
C665 C664 1.377 . S
C665 C666 1.376 . S
C666 H629 0.930 . S
C666 C665 1.376 . S
C666 C667 1.376 . S
C667 C666 1.376 . S
C667 C668 1.378 . S
C667 C694 1.486 . S
C668 H630 0.930 . S
C668 C667 1.378 . S
C668 C669 1.376 . S
C669 H631 0.929 . S
C669 C664 1.397 . S
C669 C668 1.376 . S
C670 C654 1.509 . S
C670 C671 1.391 . S
C670 C675 1.386 . S
C671 H632 0.930 . S
C671 C670 1.391 . S
C671 C672 1.375 . S
C672 H633 0.931 . S
C672 C671 1.375 . S
C672 C673 1.375 . S
C673 C672 1.375 . S
C673 C674 1.361 . S
C674 H634 0.930 . S
C674 C673 1.361 . S
C674 C675 1.399 . S
C675 H635 0.929 . S
C675 C670 1.386 . S
C675 C674 1.399 . S
C676 C655 1.485 . S
C676 C677 1.394 . S
C676 C681 1.360 . S
C677 H636 0.931 . S
C677 C676 1.394 . S
C677 C678 1.372 . S
C678 H637 0.930 . S
C678 C677 1.372 . S
C678 C679 1.397 . S
C679 C678 1.397 . S
C679 C680 1.390 . S
C679 C695 1.476 . S
C680 H638 0.930 . S
C680 C679 1.390 . S
C680 C681 1.366 . S
C681 H639 0.932 . S
C681 C676 1.360 . S
C681 C680 1.366 . S
C682 C656 1.490 . S
C682 C683 1.380 . S
C682 C687 1.386 . S
C683 H640 0.930 . S
C683 C682 1.380 . S
C683 C684 1.381 . S
C684 H641 0.929 . S
C684 C683 1.381 . S
C684 C685 1.371 . S
C685 C684 1.371 . S
C685 C686 1.380 . S
C686 H642 0.931 . S
C686 C685 1.380 . S
C686 C687 1.387 . S
C687 H643 0.930 . S
C687 C682 1.386 . S
C687 C686 1.387 . S
C688 C657 1.519 . S
C688 C689 1.377 . S
C688 C693 1.361 . S
C689 H644 0.929 . S
C689 C688 1.377 . S
C689 C690 1.386 . S
C690 H645 0.931 . S
C690 C689 1.386 . S
C690 C691 1.363 . S
C691 C690 1.363 . S
C691 C692 1.385 . S
C692 H646 0.930 . S
C692 C691 1.385 . S
C692 C693 1.396 . S
C693 H647 0.929 . S
C693 C688 1.361 . S
C693 C692 1.396 . S
C694 O648 1.300 . S
C694 O649 1.209 . S
C694 C667 1.486 . S
C695 O650 1.199 . S
C695 O651 1.297 . S
C695 C679 1.476 . S
H696 O722 0.856 . S
H697 O725 0.854 . S
H698 C733 0.930 . S
H699 C734 0.930 . S
H700 C736 0.930 . S
H701 C737 0.930 . S
H702 C739 0.931 . S
H703 C740 0.930 . S
H704 C742 0.930 . S
H705 C743 0.929 . S
H706 C745 0.930 . S
H707 C746 0.931 . S
H708 C748 0.930 . S
H709 C749 0.929 . S
H710 C751 0.931 . S
H711 C752 0.930 . S
H712 C754 0.930 . S
H713 C755 0.932 . S
H714 C757 0.930 . S
H715 C758 0.929 . S
H716 C760 0.931 . S
H717 C761 0.930 . S
H718 C763 0.929 . S
H719 C764 0.931 . S
H720 C766 0.930 . S
H721 C767 0.929 . S
O722 H696 0.856 . S
O722 C768 1.300 . S
O723 C768 1.209 . S
O724 C769 1.199 . S
O725 H697 0.854 . S
O725 C769 1.297 . S
C726 C727 1.404 . S
C726 C731 1.397 . S
C726 C732 1.492 . S
C727 C726 1.404 . S
C727 C728 1.396 . S
C727 C738 1.492 . S
C728 C727 1.396 . S
C728 C729 1.397 . S
C728 C744 1.509 . S
C729 C728 1.397 . S
C729 C730 1.412 . S
C729 C750 1.485 . S
C730 C729 1.412 . S
C730 C731 1.388 . S
C730 C756 1.490 . S
C731 C726 1.397 . S
C731 C730 1.388 . S
C731 C762 1.519 . S
C732 C726 1.492 . S
C732 C733 1.363 . S
C732 C737 1.390 . S
C733 H698 0.930 . S
C733 C732 1.363 . S
C733 C734 1.372 . S
C734 H699 0.930 . S
C734 C733 1.372 . S
C734 C735 1.383 . S
C735 C734 1.383 . S
C735 C736 1.395 . S
C736 H700 0.930 . S
C736 C735 1.395 . S
C736 C737 1.362 . S
C737 H701 0.930 . S
C737 C732 1.390 . S
C737 C736 1.362 . S
C738 C727 1.492 . S
C738 C739 1.377 . S
C738 C743 1.397 . S
C739 H702 0.931 . S
C739 C738 1.377 . S
C739 C740 1.376 . S
C740 H703 0.930 . S
C740 C739 1.376 . S
C740 C741 1.376 . S
C741 C740 1.376 . S
C741 C742 1.378 . S
C741 C768 1.486 . S
C742 H704 0.930 . S
C742 C741 1.378 . S
C742 C743 1.376 . S
C743 H705 0.929 . S
C743 C738 1.397 . S
C743 C742 1.376 . S
C744 C728 1.509 . S
C744 C745 1.391 . S
C744 C749 1.386 . S
C745 H706 0.930 . S
C745 C744 1.391 . S
C745 C746 1.375 . S
C746 H707 0.931 . S
C746 C745 1.375 . S
C746 C747 1.375 . S
C747 C746 1.375 . S
C747 C748 1.361 . S
C748 H708 0.930 . S
C748 C747 1.361 . S
C748 C749 1.399 . S
C749 H709 0.929 . S
C749 C744 1.386 . S
C749 C748 1.399 . S
C750 C729 1.485 . S
C750 C751 1.394 . S
C750 C755 1.360 . S
C751 H710 0.931 . S
C751 C750 1.394 . S
C751 C752 1.372 . S
C752 H711 0.930 . S
C752 C751 1.372 . S
C752 C753 1.397 . S
C753 C752 1.397 . S
C753 C754 1.390 . S
C753 C769 1.476 . S
C754 H712 0.930 . S
C754 C753 1.390 . S
C754 C755 1.366 . S
C755 H713 0.932 . S
C755 C750 1.360 . S
C755 C754 1.366 . S
C756 C730 1.490 . S
C756 C757 1.380 . S
C756 C761 1.386 . S
C757 H714 0.930 . S
C757 C756 1.380 . S
C757 C758 1.381 . S
C758 H715 0.929 . S
C758 C757 1.381 . S
C758 C759 1.371 . S
C759 C758 1.371 . S
C759 C760 1.380 . S
C760 H716 0.931 . S
C760 C759 1.380 . S
C760 C761 1.387 . S
C761 H717 0.930 . S
C761 C756 1.386 . S
C761 C760 1.387 . S
C762 C731 1.519 . S
C762 C763 1.377 . S
C762 C767 1.361 . S
C763 H718 0.929 . S
C763 C762 1.377 . S
C763 C764 1.386 . S
C764 H719 0.931 . S
C764 C763 1.386 . S
C764 C765 1.363 . S
C765 C764 1.363 . S
C765 C766 1.385 . S
C766 H720 0.930 . S
C766 C765 1.385 . S
C766 C767 1.396 . S
C767 H721 0.929 . S
C767 C762 1.361 . S
C767 C766 1.396 . S
C768 O722 1.300 . S
C768 O723 1.209 . S
C768 C741 1.486 . S
C769 O724 1.199 . S
C769 O725 1.297 . S
C769 C753 1.476 . S
H770 O796 0.856 . S
H771 O799 0.854 . S
H772 C807 0.930 . S
H773 C808 0.930 . S
H774 C810 0.930 . S
H775 C811 0.930 . S
H776 C813 0.931 . S
H777 C814 0.930 . S
H778 C816 0.930 . S
H779 C817 0.929 . S
H780 C819 0.930 . S
H781 C820 0.931 . S
H782 C822 0.930 . S
H783 C823 0.929 . S
H784 C825 0.931 . S
H785 C826 0.930 . S
H786 C828 0.930 . S
H787 C829 0.932 . S
H788 C831 0.930 . S
H789 C832 0.929 . S
H790 C834 0.931 . S
H791 C835 0.930 . S
H792 C837 0.929 . S
H793 C838 0.931 . S
H794 C840 0.930 . S
H795 C841 0.929 . S
O796 H770 0.856 . S
O796 C842 1.300 . S
O797 C842 1.209 . S
O798 C843 1.199 . S
O799 H771 0.854 . S
O799 C843 1.297 . S
C800 C801 1.404 . S
C800 C805 1.397 . S
C800 C806 1.492 . S
C801 C800 1.404 . S
C801 C802 1.396 . S
C801 C812 1.492 . S
C802 C801 1.396 . S
C802 C803 1.397 . S
C802 C818 1.509 . S
C803 C802 1.397 . S
C803 C804 1.412 . S
C803 C824 1.485 . S
C804 C803 1.412 . S
C804 C805 1.388 . S
C804 C830 1.490 . S
C805 C800 1.397 . S
C805 C804 1.388 . S
C805 C836 1.519 . S
C806 C800 1.492 . S
C806 C807 1.363 . S
C806 C811 1.390 . S
C807 H772 0.930 . S
C807 C806 1.363 . S
C807 C808 1.372 . S
C808 H773 0.930 . S
C808 C807 1.372 . S
C808 C809 1.383 . S
C809 C808 1.383 . S
C809 C810 1.395 . S
C810 H774 0.930 . S
C810 C809 1.395 . S
C810 C811 1.362 . S
C811 H775 0.930 . S
C811 C806 1.390 . S
C811 C810 1.362 . S
C812 C801 1.492 . S
C812 C813 1.377 . S
C812 C817 1.397 . S
C813 H776 0.931 . S
C813 C812 1.377 . S
C813 C814 1.376 . S
C814 H777 0.930 . S
C814 C813 1.376 . S
C814 C815 1.376 . S
C815 C814 1.376 . S
C815 C816 1.378 . S
C815 C842 1.486 . S
C816 H778 0.930 . S
C816 C815 1.378 . S
C816 C817 1.376 . S
C817 H779 0.929 . S
C817 C812 1.397 . S
C817 C816 1.376 . S
C818 C802 1.509 . S
C818 C819 1.391 . S
C818 C823 1.386 . S
C819 H780 0.930 . S
C819 C818 1.391 . S
C819 C820 1.375 . S
C820 H781 0.931 . S
C820 C819 1.375 . S
C820 C821 1.375 . S
C821 C820 1.375 . S
C821 C822 1.361 . S
C822 H782 0.930 . S
C822 C821 1.361 . S
C822 C823 1.399 . S
C823 H783 0.929 . S
C823 C818 1.386 . S
C823 C822 1.399 . S
C824 C803 1.485 . S
C824 C825 1.394 . S
C824 C829 1.360 . S
C825 H784 0.931 . S
C825 C824 1.394 . S
C825 C826 1.372 . S
C826 H785 0.930 . S
C826 C825 1.372 . S
C826 C827 1.397 . S
C827 C826 1.397 . S
C827 C828 1.390 . S
C827 C843 1.476 . S
C828 H786 0.930 . S
C828 C827 1.390 . S
C828 C829 1.366 . S
C829 H787 0.932 . S
C829 C824 1.360 . S
C829 C828 1.366 . S
C830 C804 1.490 . S
C830 C831 1.380 . S
C830 C835 1.386 . S
C831 H788 0.930 . S
C831 C830 1.380 . S
C831 C832 1.381 . S
C832 H789 0.929 . S
C832 C831 1.381 . S
C832 C833 1.371 . S
C833 C832 1.371 . S
C833 C834 1.380 . S
C834 H790 0.931 . S
C834 C833 1.380 . S
C834 C835 1.387 . S
C835 H791 0.930 . S
C835 C830 1.386 . S
C835 C834 1.387 . S
C836 C805 1.519 . S
C836 C837 1.377 . S
C836 C841 1.361 . S
C837 H792 0.929 . S
C837 C836 1.377 . S
C837 C838 1.386 . S
C838 H793 0.931 . S
C838 C837 1.386 . S
C838 C839 1.363 . S
C839 C838 1.363 . S
C839 C840 1.385 . S
C840 H794 0.930 . S
C840 C839 1.385 . S
C840 C841 1.396 . S
C841 H795 0.929 . S
C841 C836 1.361 . S
C841 C840 1.396 . S
C842 O796 1.300 . S
C842 O797 1.209 . S
C842 C815 1.486 . S
C843 O798 1.199 . S
C843 O799 1.297 . S
C843 C827 1.476 . S
H844 O870 0.856 . S
H845 O873 0.854 . S
H846 C881 0.930 . S
H847 C882 0.930 . S
H848 C884 0.930 . S
H849 C885 0.930 . S
H850 C887 0.931 . S
H851 C888 0.930 . S
H852 C890 0.930 . S
H853 C891 0.929 . S
H854 C893 0.930 . S
H855 C894 0.931 . S
H856 C896 0.930 . S
H857 C897 0.929 . S
H858 C899 0.931 . S
H859 C900 0.930 . S
H860 C902 0.930 . S
H861 C903 0.932 . S
H862 C905 0.930 . S
H863 C906 0.929 . S
H864 C908 0.931 . S
H865 C909 0.930 . S
H866 C911 0.929 . S
H867 C912 0.931 . S
H868 C914 0.930 . S
H869 C915 0.929 . S
O870 H844 0.856 . S
O870 C916 1.300 . S
O871 C916 1.209 . S
O872 C917 1.199 . S
O873 H845 0.854 . S
O873 C917 1.297 . S
C874 C875 1.404 . S
C874 C879 1.397 . S
C874 C880 1.492 . S
C875 C874 1.404 . S
C875 C876 1.396 . S
C875 C886 1.492 . S
C876 C875 1.396 . S
C876 C877 1.397 . S
C876 C892 1.509 . S
C877 C876 1.397 . S
C877 C878 1.412 . S
C877 C898 1.485 . S
C878 C877 1.412 . S
C878 C879 1.388 . S
C878 C904 1.490 . S
C879 C874 1.397 . S
C879 C878 1.388 . S
C879 C910 1.519 . S
C880 C874 1.492 . S
C880 C881 1.363 . S
C880 C885 1.390 . S
C881 H846 0.930 . S
C881 C880 1.363 . S
C881 C882 1.372 . S
C882 H847 0.930 . S
C882 C881 1.372 . S
C882 C883 1.383 . S
C883 C882 1.383 . S
C883 C884 1.395 . S
C884 H848 0.930 . S
C884 C883 1.395 . S
C884 C885 1.362 . S
C885 H849 0.930 . S
C885 C880 1.390 . S
C885 C884 1.362 . S
C886 C875 1.492 . S
C886 C887 1.377 . S
C886 C891 1.397 . S
C887 H850 0.931 . S
C887 C886 1.377 . S
C887 C888 1.376 . S
C888 H851 0.930 . S
C888 C887 1.376 . S
C888 C889 1.376 . S
C889 C888 1.376 . S
C889 C890 1.378 . S
C889 C916 1.486 . S
C890 H852 0.930 . S
C890 C889 1.378 . S
C890 C891 1.376 . S
C891 H853 0.929 . S
C891 C886 1.397 . S
C891 C890 1.376 . S
C892 C876 1.509 . S
C892 C893 1.391 . S
C892 C897 1.386 . S
C893 H854 0.930 . S
C893 C892 1.391 . S
C893 C894 1.375 . S
C894 H855 0.931 . S
C894 C893 1.375 . S
C894 C895 1.375 . S
C895 C894 1.375 . S
C895 C896 1.361 . S
C896 H856 0.930 . S
C896 C895 1.361 . S
C896 C897 1.399 . S
C897 H857 0.929 . S
C897 C892 1.386 . S
C897 C896 1.399 . S
C898 C877 1.485 . S
C898 C899 1.394 . S
C898 C903 1.360 . S
C899 H858 0.931 . S
C899 C898 1.394 . S
C899 C900 1.372 . S
C900 H859 0.930 . S
C900 C899 1.372 . S
C900 C901 1.397 . S
C901 C900 1.397 . S
C901 C902 1.390 . S
C901 C917 1.476 . S
C902 H860 0.930 . S
C902 C901 1.390 . S
C902 C903 1.366 . S
C903 H861 0.932 . S
C903 C898 1.360 . S
C903 C902 1.366 . S
C904 C878 1.490 . S
C904 C905 1.380 . S
C904 C909 1.386 . S
C905 H862 0.930 . S
C905 C904 1.380 . S
C905 C906 1.381 . S
C906 H863 0.929 . S
C906 C905 1.381 . S
C906 C907 1.371 . S
C907 C906 1.371 . S
C907 C908 1.380 . S
C908 H864 0.931 . S
C908 C907 1.380 . S
C908 C909 1.387 . S
C909 H865 0.930 . S
C909 C904 1.386 . S
C909 C908 1.387 . S
C910 C879 1.519 . S
C910 C911 1.377 . S
C910 C915 1.361 . S
C911 H866 0.929 . S
C911 C910 1.377 . S
C911 C912 1.386 . S
C912 H867 0.931 . S
C912 C911 1.386 . S
C912 C913 1.363 . S
C913 C912 1.363 . S
C913 C914 1.385 . S
C914 H868 0.930 . S
C914 C913 1.385 . S
C914 C915 1.396 . S
C915 H869 0.929 . S
C915 C910 1.361 . S
C915 C914 1.396 . S
C916 O870 1.300 . S
C916 O871 1.209 . S
C916 C889 1.486 . S
C917 O872 1.199 . S
C917 O873 1.297 . S
C917 C901 1.476 . S
H918 O944 0.856 . S
H919 O947 0.854 . S
H920 C955 0.930 . S
H921 C956 0.930 . S
H922 C958 0.930 . S
H923 C959 0.930 . S
H924 C961 0.931 . S
H925 C962 0.897 1_655 S
H926 C964 0.930 . S
H927 C965 0.929 . S
H928 C967 0.930 . S
H929 C968 0.912 1_655 S
H930 C970 0.930 . S
H931 C971 0.929 . S
H932 C973 0.931 . S
H933 C974 0.930 . S
H934 C976 0.930 . S
H935 C977 0.932 . S
H936 C979 0.930 . S
H937 C980 0.929 . S
H938 C982 0.931 . S
H939 C983 0.930 . S
H940 C985 0.929 . S
H941 C986 0.931 . S
H942 C988 0.930 . S
H943 C989 0.929 . S
O944 H918 0.856 . S
O944 C990 1.300 . S
O945 C990 1.209 . S
O946 C991 1.199 1_655 S
O947 H919 0.854 . S
O947 C991 1.297 . S
C948 C949 1.404 . S
C948 C953 1.395 . S
C948 C954 1.492 . S
C949 C948 1.404 . S
C949 C950 1.396 . S
C949 C960 1.492 . S
C950 C949 1.396 . S
C950 C951 1.397 . S
C950 C966 1.509 . S
C951 C950 1.397 . S
C951 C952 1.429 . S
C951 C972 1.485 . S
C952 C951 1.429 . S
C952 C953 1.399 . S
C952 C978 1.490 1_455 S
C953 C948 1.395 . S
C953 C952 1.399 . S
C953 C984 1.488 1_455 S
C954 C948 1.492 . S
C954 C955 1.363 1_455 S
C954 C959 1.390 . S
C955 H920 0.930 . S
C955 C954 1.363 1_655 S
C955 C956 1.372 . S
C956 H921 0.930 . S
C956 C955 1.372 . S
C956 C957 1.383 . S
C957 C956 1.383 . S
C957 C958 1.395 1_655 S
C958 H922 0.930 . S
C958 C957 1.395 1_455 S
C958 C959 1.362 . S
C959 H923 0.930 . S
C959 C954 1.390 . S
C959 C958 1.362 . S
C960 C949 1.492 . S
C960 C961 1.377 1_455 S
C960 C965 1.397 . S
C961 H924 0.931 . S
C961 C960 1.377 1_655 S
C961 C962 1.382 1_655 S
C962 H925 0.897 1_455 S
C962 C961 1.382 1_455 S
C962 C963 1.408 . S
C963 C962 1.408 . S
C963 C964 1.378 . S
C963 C990 1.486 . S
C964 H926 0.930 . S
C964 C963 1.378 . S
C964 C965 1.376 . S
C965 H927 0.929 . S
C965 C960 1.397 . S
C965 C964 1.376 . S
C966 C950 1.509 . S
C966 C967 1.391 1_455 S
C966 C971 1.386 . S
C967 H928 0.930 . S
C967 C966 1.391 1_655 S
C967 C968 1.347 1_655 S
C968 H929 0.912 1_455 S
C968 C967 1.347 1_455 S
C968 C969 1.424 . S
C969 C968 1.424 . S
C969 C970 1.361 . S
C970 H930 0.930 . S
C970 C969 1.361 . S
C970 C971 1.399 . S
C971 H931 0.929 . S
C971 C966 1.386 . S
C971 C970 1.399 . S
C972 C951 1.485 . S
C972 C973 1.394 1_455 S
C972 C977 1.360 . S
C973 H932 0.931 . S
C973 C972 1.394 1_655 S
C973 C974 1.372 . S
C974 H933 0.930 . S
C974 C973 1.372 . S
C974 C975 1.397 1_655 S
C975 C974 1.397 1_455 S
C975 C976 1.390 . S
C975 C991 1.476 . S
C976 H934 0.930 . S
C976 C975 1.390 . S
C976 C977 1.366 . S
C977 H935 0.932 . S
C977 C972 1.360 . S
C977 C976 1.366 . S
C978 C952 1.490 1_655 S
C978 C979 1.380 . S
C978 C983 1.386 1_655 S
C979 H936 0.930 . S
C979 C978 1.380 . S
C979 C980 1.381 . S
C980 H937 0.929 . S
C980 C979 1.381 . S
C980 C981 1.371 . S
C981 C980 1.371 . S
C981 C982 1.380 1_655 S
C982 H938 0.931 . S
C982 C981 1.380 1_455 S
C982 C983 1.387 . S
C983 H939 0.930 . S
C983 C978 1.386 1_455 S
C983 C982 1.387 . S
C984 C953 1.488 1_655 S
C984 C985 1.405 . S
C984 C989 1.343 1_655 S
C985 H940 0.929 . S
C985 C984 1.405 . S
C985 C986 1.386 . S
C986 H941 0.931 . S
C986 C985 1.386 . S
C986 C987 1.378 . S
C987 C986 1.378 . S
C987 C988 1.363 1_655 S
C988 H942 0.930 . S
C988 C987 1.363 1_455 S
C988 C989 1.396 . S
C989 H943 0.929 . S
C989 C984 1.343 1_455 S
C989 C988 1.396 . S
C990 O944 1.300 . S
C990 O945 1.209 . S
C990 C963 1.486 . S
C991 O946 1.199 1_455 S
C991 O947 1.297 . S
C991 C975 1.476 . S
H992 O1018 0.856 . S
H993 O1021 0.854 . S
H994 C1029 0.930 . S
H995 C1030 0.930 . S
H996 C1032 0.930 . S
H997 C1033 0.930 . S
H998 C1035 0.931 . S
H999 C1036 0.930 . S
H1000 C1038 0.930 . S
H1001 C1039 0.929 . S
H1002 C1041 0.930 . S
H1003 C1042 0.931 . S
H1004 C1044 0.930 . S
H1005 C1045 0.929 . S
H1006 C1047 0.931 . S
H1007 C1048 0.930 . S
H1008 C1050 0.930 . S
H1009 C1051 0.932 . S
H1010 C1053 0.930 . S
H1011 C1054 0.929 . S
H1012 C1056 0.931 . S
H1013 C1057 0.930 . S
H1014 C1059 0.929 . S
H1015 C1060 0.931 . S
H1016 C1062 0.930 . S
H1017 C1063 0.929 . S
O1018 H992 0.856 . S
O1018 C1064 1.300 . S
O1019 C1064 1.209 . S
O1020 C1065 1.199 . S
O1021 H993 0.854 . S
O1021 C1065 1.297 . S
C1022 C1023 1.404 . S
C1022 C1027 1.397 . S
C1022 C1028 1.492 . S
C1023 C1022 1.404 . S
C1023 C1024 1.396 . S
C1023 C1034 1.492 . S
C1024 C1023 1.396 . S
C1024 C1025 1.397 . S
C1024 C1040 1.509 . S
C1025 C1024 1.397 . S
C1025 C1026 1.412 . S
C1025 C1046 1.485 . S
C1026 C1025 1.412 . S
C1026 C1027 1.388 . S
C1026 C1052 1.490 . S
C1027 C1022 1.397 . S
C1027 C1026 1.388 . S
C1027 C1058 1.519 . S
C1028 C1022 1.492 . S
C1028 C1029 1.363 . S
C1028 C1033 1.390 . S
C1029 H994 0.930 . S
C1029 C1028 1.363 . S
C1029 C1030 1.372 . S
C1030 H995 0.930 . S
C1030 C1029 1.372 . S
C1030 C1031 1.383 . S
C1031 C1030 1.383 . S
C1031 C1032 1.395 . S
C1032 H996 0.930 . S
C1032 C1031 1.395 . S
C1032 C1033 1.362 . S
C1033 H997 0.930 . S
C1033 C1028 1.390 . S
C1033 C1032 1.362 . S
C1034 C1023 1.492 . S
C1034 C1035 1.377 . S
C1034 C1039 1.397 . S
C1035 H998 0.931 . S
C1035 C1034 1.377 . S
C1035 C1036 1.376 . S
C1036 H999 0.930 . S
C1036 C1035 1.376 . S
C1036 C1037 1.376 . S
C1037 C1036 1.376 . S
C1037 C1038 1.378 . S
C1037 C1064 1.486 . S
C1038 H1000 0.930 . S
C1038 C1037 1.378 . S
C1038 C1039 1.376 . S
C1039 H1001 0.929 . S
C1039 C1034 1.397 . S
C1039 C1038 1.376 . S
C1040 C1024 1.509 . S
C1040 C1041 1.391 . S
C1040 C1045 1.386 . S
C1041 H1002 0.930 . S
C1041 C1040 1.391 . S
C1041 C1042 1.375 . S
C1042 H1003 0.931 . S
C1042 C1041 1.375 . S
C1042 C1043 1.375 . S
C1043 C1042 1.375 . S
C1043 C1044 1.361 . S
C1044 H1004 0.930 . S
C1044 C1043 1.361 . S
C1044 C1045 1.399 . S
C1045 H1005 0.929 . S
C1045 C1040 1.386 . S
C1045 C1044 1.399 . S
C1046 C1025 1.485 . S
C1046 C1047 1.394 . S
C1046 C1051 1.360 . S
C1047 H1006 0.931 . S
C1047 C1046 1.394 . S
C1047 C1048 1.372 . S
C1048 H1007 0.930 . S
C1048 C1047 1.372 . S
C1048 C1049 1.397 . S
C1049 C1048 1.397 . S
C1049 C1050 1.390 . S
C1049 C1065 1.476 . S
C1050 H1008 0.930 . S
C1050 C1049 1.390 . S
C1050 C1051 1.366 . S
C1051 H1009 0.932 . S
C1051 C1046 1.360 . S
C1051 C1050 1.366 . S
C1052 C1026 1.490 . S
C1052 C1053 1.380 . S
C1052 C1057 1.386 . S
C1053 H1010 0.930 . S
C1053 C1052 1.380 . S
C1053 C1054 1.381 . S
C1054 H1011 0.929 . S
C1054 C1053 1.381 . S
C1054 C1055 1.371 . S
C1055 C1054 1.371 . S
C1055 C1056 1.380 . S
C1056 H1012 0.931 . S
C1056 C1055 1.380 . S
C1056 C1057 1.387 . S
C1057 H1013 0.930 . S
C1057 C1052 1.386 . S
C1057 C1056 1.387 . S
C1058 C1027 1.519 . S
C1058 C1059 1.377 . S
C1058 C1063 1.361 . S
C1059 H1014 0.929 . S
C1059 C1058 1.377 . S
C1059 C1060 1.386 . S
C1060 H1015 0.931 . S
C1060 C1059 1.386 . S
C1060 C1061 1.363 . S
C1061 C1060 1.363 . S
C1061 C1062 1.385 . S
C1062 H1016 0.930 . S
C1062 C1061 1.385 . S
C1062 C1063 1.396 . S
C1063 H1017 0.929 . S
C1063 C1058 1.361 . S
C1063 C1062 1.396 . S
C1064 O1018 1.300 . S
C1064 O1019 1.209 . S
C1064 C1037 1.486 . S
C1065 O1020 1.199 . S
C1065 O1021 1.297 . S
C1065 C1049 1.476 . S
H1066 O1092 0.856 . S
H1067 O1095 0.854 . S
H1068 C1103 0.930 . S
H1069 C1104 0.930 . S
H1070 C1106 0.930 . S
H1071 C1107 0.930 . S
H1072 C1109 0.931 . S
H1073 C1110 0.973 . S
H1074 C1112 0.930 . S
H1075 C1113 0.929 . S
H1076 C1115 0.930 . S
H1077 C1116 0.931 . S
H1078 C1118 0.930 . S
H1079 C1119 0.929 . S
H1080 C1121 0.931 . S
H1081 C1122 0.930 . S
H1082 C1124 0.930 . S
H1083 C1125 0.932 . S
H1084 C1127 0.930 . S
H1085 C1128 0.929 . S
H1086 C1130 0.931 . S
H1087 C1131 0.930 . S
H1088 C1133 0.929 . S
H1089 C1134 0.931 . S
H1090 C1136 0.930 . S
H1091 C1137 0.929 . S
O1092 H1066 0.856 . S
O1092 C1138 1.300 . S
O1093 C1138 1.209 . S
O1094 C1139 1.199 1_545 S
O1095 H1067 0.854 . S
O1095 C1139 1.297 . S
C1096 C1097 1.404 . S
C1096 C1101 1.412 . S
C1096 C1102 1.492 . S
C1097 C1096 1.404 . S
C1097 C1098 1.396 . S
C1097 C1108 1.492 . S
C1098 C1097 1.396 . S
C1098 C1099 1.397 . S
C1098 C1114 1.509 . S
C1099 C1098 1.397 . S
C1099 C1100 1.411 . S
C1099 C1120 1.485 . S
C1100 C1099 1.411 . S
C1100 C1101 1.367 . S
C1100 C1126 1.488 1_565 S
C1101 C1096 1.412 . S
C1101 C1100 1.367 . S
C1101 C1132 1.536 . S
C1102 C1096 1.492 . S
C1102 C1103 1.363 1_565 S
C1102 C1107 1.390 . S
C1103 H1068 0.930 . S
C1103 C1102 1.363 1_545 S
C1103 C1104 1.372 . S
C1104 H1069 0.930 . S
C1104 C1103 1.372 . S
C1104 C1105 1.383 . S
C1105 C1104 1.383 . S
C1105 C1106 1.395 1_545 S
C1106 H1070 0.930 . S
C1106 C1105 1.395 1_565 S
C1106 C1107 1.362 . S
C1107 H1071 0.930 . S
C1107 C1102 1.390 . S
C1107 C1106 1.362 . S
C1108 C1097 1.492 . S
C1108 C1109 1.377 1_565 S
C1108 C1113 1.397 . S
C1109 H1072 0.931 . S
C1109 C1108 1.377 1_545 S
C1109 C1110 1.398 . S
C1110 H1073 0.973 . S
C1110 C1109 1.398 . S
C1110 C1111 1.313 1_545 S
C1111 C1110 1.313 1_565 S
C1111 C1112 1.378 . S
C1111 C1138 1.486 . S
C1112 H1074 0.930 . S
C1112 C1111 1.378 . S
C1112 C1113 1.376 . S
C1113 H1075 0.929 . S
C1113 C1108 1.397 . S
C1113 C1112 1.376 . S
C1114 C1098 1.509 . S
C1114 C1115 1.391 1_565 S
C1114 C1119 1.386 . S
C1115 H1076 0.930 . S
C1115 C1114 1.391 1_545 S
C1115 C1116 1.375 . S
C1116 H1077 0.931 . S
C1116 C1115 1.375 . S
C1116 C1117 1.375 1_545 S
C1117 C1116 1.375 1_565 S
C1117 C1118 1.361 . S
C1118 H1078 0.930 . S
C1118 C1117 1.361 . S
C1118 C1119 1.399 . S
C1119 H1079 0.929 . S
C1119 C1114 1.386 . S
C1119 C1118 1.399 . S
C1120 C1099 1.485 . S
C1120 C1121 1.394 1_565 S
C1120 C1125 1.360 . S
C1121 H1080 0.931 . S
C1121 C1120 1.394 1_545 S
C1121 C1122 1.372 . S
C1122 H1081 0.930 . S
C1122 C1121 1.372 . S
C1122 C1123 1.397 1_545 S
C1123 C1122 1.397 1_565 S
C1123 C1124 1.390 . S
C1123 C1139 1.476 . S
C1124 H1082 0.930 . S
C1124 C1123 1.390 . S
C1124 C1125 1.366 . S
C1125 H1083 0.932 . S
C1125 C1120 1.360 . S
C1125 C1124 1.366 . S
C1126 C1100 1.488 1_545 S
C1126 C1127 1.380 . S
C1126 C1131 1.386 1_545 S
C1127 H1084 0.930 . S
C1127 C1126 1.380 . S
C1127 C1128 1.381 . S
C1128 H1085 0.929 . S
C1128 C1127 1.381 . S
C1128 C1129 1.371 . S
C1129 C1128 1.371 . S
C1129 C1130 1.380 1_545 S
C1130 H1086 0.931 . S
C1130 C1129 1.380 1_565 S
C1130 C1131 1.387 . S
C1131 H1087 0.930 . S
C1131 C1126 1.386 1_565 S
C1131 C1130 1.387 . S
C1132 C1101 1.536 . S
C1132 C1133 1.379 1_565 S
C1132 C1137 1.357 . S
C1133 H1088 0.929 . S
C1133 C1132 1.379 1_545 S
C1133 C1134 1.386 . S
C1134 H1089 0.931 . S
C1134 C1133 1.386 . S
C1134 C1135 1.300 1_545 S
C1135 C1134 1.300 1_565 S
C1135 C1136 1.419 . S
C1136 H1090 0.930 . S
C1136 C1135 1.419 . S
C1136 C1137 1.396 . S
C1137 H1091 0.929 . S
C1137 C1132 1.357 . S
C1137 C1136 1.396 . S
C1138 O1092 1.300 . S
C1138 O1093 1.209 . S
C1138 C1111 1.486 . S
C1139 O1094 1.199 1_565 S
C1139 O1095 1.297 . S
C1139 C1123 1.476 . S
H1140 O1166 0.856 . S
H1141 O1169 0.854 . S
H1142 C1177 0.930 . S
H1143 C1178 0.930 . S
H1144 C1180 0.930 . S
H1145 C1181 0.930 . S
H1146 C1183 0.931 . S
H1147 C1184 0.930 . S
H1148 C1186 0.930 . S
H1149 C1187 0.929 . S
H1150 C1189 0.930 . S
H1151 C1190 0.931 . S
H1152 C1192 0.930 . S
H1153 C1193 0.929 . S
H1154 C1195 0.931 . S
H1155 C1196 0.930 . S
H1156 C1198 0.930 . S
H1157 C1199 0.932 . S
H1158 C1201 0.930 . S
H1159 C1202 0.929 . S
H1160 C1204 0.931 . S
H1161 C1205 0.930 . S
H1162 C1207 0.929 . S
H1163 C1208 0.931 . S
H1164 C1210 0.930 . S
H1165 C1211 0.929 . S
O1166 H1140 0.856 . S
O1166 C1212 1.300 . S
O1167 C1212 1.209 1_565 S
O1168 C1213 1.199 1_545 S
O1169 H1141 0.854 . S
O1169 C1213 1.297 . S
C1170 C1171 1.404 . S
C1170 C1175 1.398 1_545 S
C1170 C1176 1.492 . S
C1171 C1170 1.404 . S
C1171 C1172 1.417 . S
C1171 C1182 1.492 . S
C1172 C1171 1.417 . S
C1172 C1173 1.381 1_545 S
C1172 C1188 1.500 . S
C1173 C1172 1.381 1_565 S
C1173 C1174 1.413 . S
C1173 C1194 1.508 . S
C1174 C1173 1.413 . S
C1174 C1175 1.364 . S
C1174 C1200 1.489 . S
C1175 C1170 1.398 1_565 S
C1175 C1174 1.364 . S
C1175 C1206 1.519 . S
C1176 C1170 1.492 . S
C1176 C1177 1.363 . S
C1176 C1181 1.390 1_545 S
C1177 H1142 0.930 . S
C1177 C1176 1.363 . S
C1177 C1178 1.372 . S
C1178 H1143 0.930 . S
C1178 C1177 1.372 . S
C1178 C1179 1.383 . S
C1179 C1178 1.383 . S
C1179 C1180 1.395 1_545 S
C1180 H1144 0.930 . S
C1180 C1179 1.395 1_565 S
C1180 C1181 1.362 . S
C1181 H1145 0.930 . S
C1181 C1176 1.390 1_565 S
C1181 C1180 1.362 . S
C1182 C1171 1.492 . S
C1182 C1183 1.377 . S
C1182 C1187 1.397 1_545 S
C1183 H1146 0.931 . S
C1183 C1182 1.377 . S
C1183 C1184 1.376 . S
C1184 H1147 0.930 . S
C1184 C1183 1.376 . S
C1184 C1185 1.376 . S
C1185 C1184 1.376 . S
C1185 C1186 1.378 1_545 S
C1185 C1212 1.486 . S
C1186 H1148 0.930 . S
C1186 C1185 1.378 1_565 S
C1186 C1187 1.376 . S
C1187 H1149 0.929 . S
C1187 C1182 1.397 1_565 S
C1187 C1186 1.376 . S
C1188 C1172 1.500 . S
C1188 C1189 1.396 . S
C1188 C1193 1.378 1_545 S
C1189 H1150 0.930 . S
C1189 C1188 1.396 . S
C1189 C1190 1.375 . S
C1190 H1151 0.931 . S
C1190 C1189 1.375 . S
C1190 C1191 1.359 1_545 S
C1191 C1190 1.359 1_565 S
C1191 C1192 1.371 . S
C1192 H1152 0.930 . S
C1192 C1191 1.371 . S
C1192 C1193 1.399 . S
C1193 H1153 0.929 . S
C1193 C1188 1.378 1_565 S
C1193 C1192 1.399 . S
C1194 C1173 1.508 . S
C1194 C1195 1.394 1_565 S
C1194 C1199 1.360 . S
C1195 H1154 0.931 . S
C1195 C1194 1.394 1_545 S
C1195 C1196 1.372 . S
C1196 H1155 0.930 . S
C1196 C1195 1.372 . S
C1196 C1197 1.397 1_545 S
C1197 C1196 1.397 1_565 S
C1197 C1198 1.390 . S
C1197 C1213 1.476 . S
C1198 H1156 0.930 . S
C1198 C1197 1.390 . S
C1198 C1199 1.366 . S
C1199 H1157 0.932 . S
C1199 C1194 1.360 . S
C1199 C1198 1.366 . S
C1200 C1174 1.489 . S
C1200 C1201 1.343 1_565 S
C1200 C1205 1.432 . S
C1201 H1158 0.930 . S
C1201 C1200 1.343 1_545 S
C1201 C1202 1.381 . S
C1202 H1159 0.929 . S
C1202 C1201 1.381 . S
C1202 C1203 1.395 . S
C1203 C1202 1.395 . S
C1203 C1204 1.360 1_545 S
C1204 H1160 0.931 . S
C1204 C1203 1.360 1_565 S
C1204 C1205 1.387 . S
C1205 H1161 0.930 . S
C1205 C1200 1.432 . S
C1205 C1204 1.387 . S
C1206 C1175 1.519 . S
C1206 C1207 1.377 1_565 S
C1206 C1211 1.361 . S
C1207 H1162 0.929 . S
C1207 C1206 1.377 1_545 S
C1207 C1208 1.386 . S
C1208 H1163 0.931 . S
C1208 C1207 1.386 . S
C1208 C1209 1.363 1_545 S
C1209 C1208 1.363 1_565 S
C1209 C1210 1.385 . S
C1210 H1164 0.930 . S
C1210 C1209 1.385 . S
C1210 C1211 1.396 . S
C1211 H1165 0.929 . S
C1211 C1206 1.361 . S
C1211 C1210 1.396 . S
C1212 O1166 1.300 . S
C1212 O1167 1.209 1_545 S
C1212 C1185 1.486 . S
C1213 O1168 1.199 1_565 S
C1213 O1169 1.297 . S
C1213 C1197 1.476 . S
H1214 O1240 0.856 . S
H1215 O1243 0.854 . S
H1216 C1251 0.930 . S
H1217 C1252 0.930 . S
H1218 C1254 0.930 . S
H1219 C1255 0.930 . S
H1220 C1257 0.931 . S
H1221 C1258 0.930 . S
H1222 C1260 0.930 . S
H1223 C1261 0.929 . S
H1224 C1263 0.930 . S
H1225 C1264 0.931 . S
H1226 C1266 0.930 . S
H1227 C1267 0.929 . S
H1228 C1269 0.931 . S
H1229 C1270 0.930 . S
H1230 C1272 0.930 . S
H1231 C1273 0.932 . S
H1232 C1275 0.930 . S
H1233 C1276 0.929 . S
H1234 C1278 0.931 . S
H1235 C1279 0.930 . S
H1236 C1281 0.929 . S
H1237 C1282 0.931 . S
H1238 C1284 0.930 . S
H1239 C1285 0.929 . S
O1240 H1214 0.856 . S
O1240 C1286 1.300 . S
O1241 C1286 1.209 1_455 S
O1242 C1287 1.199 1_655 S
O1243 H1215 0.854 . S
O1243 C1287 1.297 . S
C1244 C1245 1.404 . S
C1244 C1249 1.398 . S
C1244 C1250 1.492 . S
C1245 C1244 1.404 . S
C1245 C1246 1.396 . S
C1245 C1256 1.492 . S
C1246 C1245 1.396 . S
C1246 C1247 1.397 . S
C1246 C1262 1.509 . S
C1247 C1246 1.397 . S
C1247 C1248 1.400 1_655 S
C1247 C1268 1.518 1_655 S
C1248 C1247 1.400 1_455 S
C1248 C1249 1.397 1_455 S
C1248 C1274 1.499 . S
C1249 C1244 1.398 . S
C1249 C1248 1.397 1_655 S
C1249 C1280 1.523 1_655 S
C1250 C1244 1.492 . S
C1250 C1251 1.363 . S
C1250 C1255 1.390 1_655 S
C1251 H1216 0.930 . S
C1251 C1250 1.363 . S
C1251 C1252 1.372 . S
C1252 H1217 0.930 . S
C1252 C1251 1.372 . S
C1252 C1253 1.383 . S
C1253 C1252 1.383 . S
C1253 C1254 1.395 1_655 S
C1254 H1218 0.930 . S
C1254 C1253 1.395 1_455 S
C1254 C1255 1.362 . S
C1255 H1219 0.930 . S
C1255 C1250 1.390 1_455 S
C1255 C1254 1.362 . S
C1256 C1245 1.492 . S
C1256 C1257 1.377 . S
C1256 C1261 1.397 1_655 S
C1257 H1220 0.931 . S
C1257 C1256 1.377 . S
C1257 C1258 1.376 . S
C1258 H1221 0.930 . S
C1258 C1257 1.376 . S
C1258 C1259 1.376 . S
C1259 C1258 1.376 . S
C1259 C1260 1.378 1_655 S
C1259 C1286 1.486 . S
C1260 H1222 0.930 . S
C1260 C1259 1.378 1_455 S
C1260 C1261 1.376 . S
C1261 H1223 0.929 . S
C1261 C1256 1.397 1_455 S
C1261 C1260 1.376 . S
C1262 C1246 1.509 . S
C1262 C1263 1.391 . S
C1262 C1267 1.386 1_655 S
C1263 H1224 0.930 . S
C1263 C1262 1.391 . S
C1263 C1264 1.375 . S
C1264 H1225 0.931 . S
C1264 C1263 1.375 . S
C1264 C1265 1.375 . S
C1265 C1264 1.375 . S
C1265 C1266 1.361 1_655 S
C1266 H1226 0.930 . S
C1266 C1265 1.361 1_455 S
C1266 C1267 1.399 . S
C1267 H1227 0.929 . S
C1267 C1262 1.386 1_455 S
C1267 C1266 1.399 . S
C1268 C1247 1.518 1_455 S
C1268 C1269 1.342 1_455 S
C1268 C1273 1.384 . S
C1269 H1228 0.931 . S
C1269 C1268 1.342 1_655 S
C1269 C1270 1.372 . S
C1270 H1229 0.930 . S
C1270 C1269 1.372 . S
C1270 C1271 1.397 1_655 S
C1271 C1270 1.397 1_455 S
C1271 C1272 1.390 . S
C1271 C1287 1.476 . S
C1272 H1230 0.930 . S
C1272 C1271 1.390 . S
C1272 C1273 1.366 . S
C1273 H1231 0.932 . S
C1273 C1268 1.384 . S
C1273 C1272 1.366 . S
C1274 C1248 1.499 . S
C1274 C1275 1.337 1_455 S
C1274 C1279 1.419 . S
C1275 H1232 0.930 . S
C1275 C1274 1.337 1_655 S
C1275 C1276 1.381 . S
C1276 H1233 0.929 . S
C1276 C1275 1.381 . S
C1276 C1277 1.346 1_655 S
C1277 C1276 1.346 1_455 S
C1277 C1278 1.419 . S
C1278 H1234 0.931 . S
C1278 C1277 1.419 . S
C1278 C1279 1.387 . S
C1279 H1235 0.930 . S
C1279 C1274 1.419 . S
C1279 C1278 1.387 . S
C1280 C1249 1.523 1_455 S
C1280 C1281 1.377 1_455 S
C1280 C1285 1.361 . S
C1281 H1236 0.929 . S
C1281 C1280 1.377 1_655 S
C1281 C1282 1.386 . S
C1282 H1237 0.931 . S
C1282 C1281 1.386 . S
C1282 C1283 1.363 1_655 S
C1283 C1282 1.363 1_455 S
C1283 C1284 1.385 . S
C1284 H1238 0.930 . S
C1284 C1283 1.385 . S
C1284 C1285 1.396 . S
C1285 H1239 0.929 . S
C1285 C1280 1.361 . S
C1285 C1284 1.396 . S
C1286 O1240 1.300 . S
C1286 O1241 1.209 1_655 S
C1286 C1259 1.486 . S
C1287 O1242 1.199 1_455 S
C1287 O1243 1.297 . S
C1287 C1271 1.476 . S
H1288 O1314 0.856 . S
H1289 O1317 0.854 . S
H1290 C1325 0.930 . S
H1291 C1326 0.930 . S
H1292 C1328 0.930 . S
H1293 C1329 0.930 . S
H1294 C1331 0.931 . S
H1295 C1332 0.930 . S
H1296 C1334 0.930 . S
H1297 C1335 0.929 . S
H1298 C1337 0.930 . S
H1299 C1338 0.931 . S
H1300 C1340 0.930 . S
H1301 C1341 0.929 . S
H1302 C1343 0.931 . S
H1303 C1344 0.930 . S
H1304 C1346 0.930 . S
H1305 C1347 0.932 . S
H1306 C1349 0.930 . S
H1307 C1350 0.929 . S
H1308 C1352 0.931 . S
H1309 C1353 0.930 . S
H1310 C1355 0.929 . S
H1311 C1356 0.931 . S
H1312 C1358 0.930 . S
H1313 C1359 0.929 . S
O1314 H1288 0.856 . S
O1314 C1360 1.300 . S
O1315 C1360 1.209 . S
O1316 C1361 1.199 . S
O1317 H1289 0.854 . S
O1317 C1361 1.297 . S
C1318 C1319 1.404 . S
C1318 C1323 1.397 . S
C1318 C1324 1.492 . S
C1319 C1318 1.404 . S
C1319 C1320 1.396 . S
C1319 C1330 1.492 . S
C1320 C1319 1.396 . S
C1320 C1321 1.397 . S
C1320 C1336 1.509 . S
C1321 C1320 1.397 . S
C1321 C1322 1.412 . S
C1321 C1342 1.485 . S
C1322 C1321 1.412 . S
C1322 C1323 1.388 . S
C1322 C1348 1.490 . S
C1323 C1318 1.397 . S
C1323 C1322 1.388 . S
C1323 C1354 1.519 . S
C1324 C1318 1.492 . S
C1324 C1325 1.363 . S
C1324 C1329 1.390 . S
C1325 H1290 0.930 . S
C1325 C1324 1.363 . S
C1325 C1326 1.372 . S
C1326 H1291 0.930 . S
C1326 C1325 1.372 . S
C1326 C1327 1.383 . S
C1327 C1326 1.383 . S
C1327 C1328 1.395 . S
C1328 H1292 0.930 . S
C1328 C1327 1.395 . S
C1328 C1329 1.362 . S
C1329 H1293 0.930 . S
C1329 C1324 1.390 . S
C1329 C1328 1.362 . S
C1330 C1319 1.492 . S
C1330 C1331 1.377 . S
C1330 C1335 1.397 . S
C1331 H1294 0.931 . S
C1331 C1330 1.377 . S
C1331 C1332 1.376 . S
C1332 H1295 0.930 . S
C1332 C1331 1.376 . S
C1332 C1333 1.376 . S
C1333 C1332 1.376 . S
C1333 C1334 1.378 . S
C1333 C1360 1.486 . S
C1334 H1296 0.930 . S
C1334 C1333 1.378 . S
C1334 C1335 1.376 . S
C1335 H1297 0.929 . S
C1335 C1330 1.397 . S
C1335 C1334 1.376 . S
C1336 C1320 1.509 . S
C1336 C1337 1.391 . S
C1336 C1341 1.386 . S
C1337 H1298 0.930 . S
C1337 C1336 1.391 . S
C1337 C1338 1.375 . S
C1338 H1299 0.931 . S
C1338 C1337 1.375 . S
C1338 C1339 1.375 . S
C1339 C1338 1.375 . S
C1339 C1340 1.361 . S
C1340 H1300 0.930 . S
C1340 C1339 1.361 . S
C1340 C1341 1.399 . S
C1341 H1301 0.929 . S
C1341 C1336 1.386 . S
C1341 C1340 1.399 . S
C1342 C1321 1.485 . S
C1342 C1343 1.394 . S
C1342 C1347 1.360 . S
C1343 H1302 0.931 . S
C1343 C1342 1.394 . S
C1343 C1344 1.372 . S
C1344 H1303 0.930 . S
C1344 C1343 1.372 . S
C1344 C1345 1.397 . S
C1345 C1344 1.397 . S
C1345 C1346 1.390 . S
C1345 C1361 1.476 . S
C1346 H1304 0.930 . S
C1346 C1345 1.390 . S
C1346 C1347 1.366 . S
C1347 H1305 0.932 . S
C1347 C1342 1.360 . S
C1347 C1346 1.366 . S
C1348 C1322 1.490 . S
C1348 C1349 1.380 . S
C1348 C1353 1.386 . S
C1349 H1306 0.930 . S
C1349 C1348 1.380 . S
C1349 C1350 1.381 . S
C1350 H1307 0.929 . S
C1350 C1349 1.381 . S
C1350 C1351 1.371 . S
C1351 C1350 1.371 . S
C1351 C1352 1.380 . S
C1352 H1308 0.931 . S
C1352 C1351 1.380 . S
C1352 C1353 1.387 . S
C1353 H1309 0.930 . S
C1353 C1348 1.386 . S
C1353 C1352 1.387 . S
C1354 C1323 1.519 . S
C1354 C1355 1.377 . S
C1354 C1359 1.361 . S
C1355 H1310 0.929 . S
C1355 C1354 1.377 . S
C1355 C1356 1.386 . S
C1356 H1311 0.931 . S
C1356 C1355 1.386 . S
C1356 C1357 1.363 . S
C1357 C1356 1.363 . S
C1357 C1358 1.385 . S
C1358 H1312 0.930 . S
C1358 C1357 1.385 . S
C1358 C1359 1.396 . S
C1359 H1313 0.929 . S
C1359 C1354 1.361 . S
C1359 C1358 1.396 . S
C1360 O1314 1.300 . S
C1360 O1315 1.209 . S
C1360 C1333 1.486 . S
C1361 O1316 1.199 . S
C1361 O1317 1.297 . S
C1361 C1345 1.476 . S
H1362 O1388 0.856 . S
H1363 O1391 0.854 . S
H1364 C1399 0.930 . S
H1365 C1400 0.930 . S
H1366 C1402 0.930 . S
H1367 C1403 0.930 . S
H1368 C1405 0.931 . S
H1369 C1406 0.930 . S
H1370 C1408 0.930 . S
H1371 C1409 0.929 . S
H1372 C1411 0.930 . S
H1373 C1412 0.931 . S
H1374 C1414 0.930 . S
H1375 C1415 0.929 . S
H1376 C1417 0.931 . S
H1377 C1418 0.930 . S
H1378 C1420 0.930 . S
H1379 C1421 0.932 . S
H1380 C1423 0.930 . S
H1381 C1424 0.929 . S
H1382 C1426 0.931 . S
H1383 C1427 0.930 . S
H1384 C1429 0.929 . S
H1385 C1430 0.931 . S
H1386 C1432 0.930 . S
H1387 C1433 0.929 . S
O1388 H1362 0.856 . S
O1388 C1434 1.300 . S
O1389 C1434 1.209 . S
O1390 C1435 1.199 . S
O1391 H1363 0.854 . S
O1391 C1435 1.297 . S
C1392 C1393 1.404 . S
C1392 C1397 1.397 . S
C1392 C1398 1.492 . S
C1393 C1392 1.404 . S
C1393 C1394 1.396 . S
C1393 C1404 1.492 . S
C1394 C1393 1.396 . S
C1394 C1395 1.397 . S
C1394 C1410 1.509 . S
C1395 C1394 1.397 . S
C1395 C1396 1.412 . S
C1395 C1416 1.485 . S
C1396 C1395 1.412 . S
C1396 C1397 1.388 . S
C1396 C1422 1.490 . S
C1397 C1392 1.397 . S
C1397 C1396 1.388 . S
C1397 C1428 1.519 . S
C1398 C1392 1.492 . S
C1398 C1399 1.363 . S
C1398 C1403 1.390 . S
C1399 H1364 0.930 . S
C1399 C1398 1.363 . S
C1399 C1400 1.372 . S
C1400 H1365 0.930 . S
C1400 C1399 1.372 . S
C1400 C1401 1.383 . S
C1401 C1400 1.383 . S
C1401 C1402 1.395 . S
C1402 H1366 0.930 . S
C1402 C1401 1.395 . S
C1402 C1403 1.362 . S
C1403 H1367 0.930 . S
C1403 C1398 1.390 . S
C1403 C1402 1.362 . S
C1404 C1393 1.492 . S
C1404 C1405 1.377 . S
C1404 C1409 1.397 . S
C1405 H1368 0.931 . S
C1405 C1404 1.377 . S
C1405 C1406 1.376 . S
C1406 H1369 0.930 . S
C1406 C1405 1.376 . S
C1406 C1407 1.376 . S
C1407 C1406 1.376 . S
C1407 C1408 1.378 . S
C1407 C1434 1.486 . S
C1408 H1370 0.930 . S
C1408 C1407 1.378 . S
C1408 C1409 1.376 . S
C1409 H1371 0.929 . S
C1409 C1404 1.397 . S
C1409 C1408 1.376 . S
C1410 C1394 1.509 . S
C1410 C1411 1.391 . S
C1410 C1415 1.386 . S
C1411 H1372 0.930 . S
C1411 C1410 1.391 . S
C1411 C1412 1.375 . S
C1412 H1373 0.931 . S
C1412 C1411 1.375 . S
C1412 C1413 1.375 . S
C1413 C1412 1.375 . S
C1413 C1414 1.361 . S
C1414 H1374 0.930 . S
C1414 C1413 1.361 . S
C1414 C1415 1.399 . S
C1415 H1375 0.929 . S
C1415 C1410 1.386 . S
C1415 C1414 1.399 . S
C1416 C1395 1.485 . S
C1416 C1417 1.394 . S
C1416 C1421 1.360 . S
C1417 H1376 0.931 . S
C1417 C1416 1.394 . S
C1417 C1418 1.372 . S
C1418 H1377 0.930 . S
C1418 C1417 1.372 . S
C1418 C1419 1.397 . S
C1419 C1418 1.397 . S
C1419 C1420 1.390 . S
C1419 C1435 1.476 . S
C1420 H1378 0.930 . S
C1420 C1419 1.390 . S
C1420 C1421 1.366 . S
C1421 H1379 0.932 . S
C1421 C1416 1.360 . S
C1421 C1420 1.366 . S
C1422 C1396 1.490 . S
C1422 C1423 1.380 . S
C1422 C1427 1.386 . S
C1423 H1380 0.930 . S
C1423 C1422 1.380 . S
C1423 C1424 1.381 . S
C1424 H1381 0.929 . S
C1424 C1423 1.381 . S
C1424 C1425 1.371 . S
C1425 C1424 1.371 . S
C1425 C1426 1.380 . S
C1426 H1382 0.931 . S
C1426 C1425 1.380 . S
C1426 C1427 1.387 . S
C1427 H1383 0.930 . S
C1427 C1422 1.386 . S
C1427 C1426 1.387 . S
C1428 C1397 1.519 . S
C1428 C1429 1.377 . S
C1428 C1433 1.361 . S
C1429 H1384 0.929 . S
C1429 C1428 1.377 . S
C1429 C1430 1.386 . S
C1430 H1385 0.931 . S
C1430 C1429 1.386 . S
C1430 C1431 1.363 . S
C1431 C1430 1.363 . S
C1431 C1432 1.385 . S
C1432 H1386 0.930 . S
C1432 C1431 1.385 . S
C1432 C1433 1.396 . S
C1433 H1387 0.929 . S
C1433 C1428 1.361 . S
C1433 C1432 1.396 . S
C1434 O1388 1.300 . S
C1434 O1389 1.209 . S
C1434 C1407 1.486 . S
C1435 O1390 1.199 . S
C1435 O1391 1.297 . S
C1435 C1419 1.476 . S
H1436 O1462 0.856 . S
H1437 O1465 0.854 . S
H1438 C1473 0.930 . S
H1439 C1474 0.930 . S
H1440 C1476 0.930 . S
H1441 C1477 0.930 . S
H1442 C1479 0.931 . S
H1443 C1480 0.930 . S
H1444 C1482 0.930 . S
H1445 C1483 0.929 . S
H1446 C1485 0.930 . S
H1447 C1486 0.931 . S
H1448 C1488 0.930 . S
H1449 C1489 0.929 . S
H1450 C1491 0.931 . S
H1451 C1492 0.930 . S
H1452 C1494 0.930 . S
H1453 C1495 0.932 . S
H1454 C1497 0.930 . S
H1455 C1498 0.929 . S
H1456 C1500 0.931 . S
H1457 C1501 0.930 . S
H1458 C1503 0.929 . S
H1459 C1504 0.931 . S
H1460 C1506 0.930 . S
H1461 C1507 0.929 . S
O1462 H1436 0.856 . S
O1462 C1508 1.300 . S
O1463 C1508 1.209 . S
O1464 C1509 1.199 . S
O1465 H1437 0.854 . S
O1465 C1509 1.297 . S
C1466 C1467 1.404 . S
C1466 C1471 1.397 . S
C1466 C1472 1.492 . S
C1467 C1466 1.404 . S
C1467 C1468 1.396 . S
C1467 C1478 1.492 . S
C1468 C1467 1.396 . S
C1468 C1469 1.397 . S
C1468 C1484 1.509 . S
C1469 C1468 1.397 . S
C1469 C1470 1.412 . S
C1469 C1490 1.485 . S
C1470 C1469 1.412 . S
C1470 C1471 1.388 . S
C1470 C1496 1.490 . S
C1471 C1466 1.397 . S
C1471 C1470 1.388 . S
C1471 C1502 1.519 . S
C1472 C1466 1.492 . S
C1472 C1473 1.363 . S
C1472 C1477 1.390 . S
C1473 H1438 0.930 . S
C1473 C1472 1.363 . S
C1473 C1474 1.372 . S
C1474 H1439 0.930 . S
C1474 C1473 1.372 . S
C1474 C1475 1.383 . S
C1475 C1474 1.383 . S
C1475 C1476 1.395 . S
C1476 H1440 0.930 . S
C1476 C1475 1.395 . S
C1476 C1477 1.362 . S
C1477 H1441 0.930 . S
C1477 C1472 1.390 . S
C1477 C1476 1.362 . S
C1478 C1467 1.492 . S
C1478 C1479 1.377 . S
C1478 C1483 1.397 . S
C1479 H1442 0.931 . S
C1479 C1478 1.377 . S
C1479 C1480 1.376 . S
C1480 H1443 0.930 . S
C1480 C1479 1.376 . S
C1480 C1481 1.376 . S
C1481 C1480 1.376 . S
C1481 C1482 1.378 . S
C1481 C1508 1.486 . S
C1482 H1444 0.930 . S
C1482 C1481 1.378 . S
C1482 C1483 1.376 . S
C1483 H1445 0.929 . S
C1483 C1478 1.397 . S
C1483 C1482 1.376 . S
C1484 C1468 1.509 . S
C1484 C1485 1.391 . S
C1484 C1489 1.386 . S
C1485 H1446 0.930 . S
C1485 C1484 1.391 . S
C1485 C1486 1.375 . S
C1486 H1447 0.931 . S
C1486 C1485 1.375 . S
C1486 C1487 1.375 . S
C1487 C1486 1.375 . S
C1487 C1488 1.361 . S
C1488 H1448 0.930 . S
C1488 C1487 1.361 . S
C1488 C1489 1.399 . S
C1489 H1449 0.929 . S
C1489 C1484 1.386 . S
C1489 C1488 1.399 . S
C1490 C1469 1.485 . S
C1490 C1491 1.394 . S
C1490 C1495 1.360 . S
C1491 H1450 0.931 . S
C1491 C1490 1.394 . S
C1491 C1492 1.372 . S
C1492 H1451 0.930 . S
C1492 C1491 1.372 . S
C1492 C1493 1.397 . S
C1493 C1492 1.397 . S
C1493 C1494 1.390 . S
C1493 C1509 1.476 . S
C1494 H1452 0.930 . S
C1494 C1493 1.390 . S
C1494 C1495 1.366 . S
C1495 H1453 0.932 . S
C1495 C1490 1.360 . S
C1495 C1494 1.366 . S
C1496 C1470 1.490 . S
C1496 C1497 1.380 . S
C1496 C1501 1.386 . S
C1497 H1454 0.930 . S
C1497 C1496 1.380 . S
C1497 C1498 1.381 . S
C1498 H1455 0.929 . S
C1498 C1497 1.381 . S
C1498 C1499 1.371 . S
C1499 C1498 1.371 . S
C1499 C1500 1.380 . S
C1500 H1456 0.931 . S
C1500 C1499 1.380 . S
C1500 C1501 1.387 . S
C1501 H1457 0.930 . S
C1501 C1496 1.386 . S
C1501 C1500 1.387 . S
C1502 C1471 1.519 . S
C1502 C1503 1.377 . S
C1502 C1507 1.361 . S
C1503 H1458 0.929 . S
C1503 C1502 1.377 . S
C1503 C1504 1.386 . S
C1504 H1459 0.931 . S
C1504 C1503 1.386 . S
C1504 C1505 1.363 . S
C1505 C1504 1.363 . S
C1505 C1506 1.385 . S
C1506 H1460 0.930 . S
C1506 C1505 1.385 . S
C1506 C1507 1.396 . S
C1507 H1461 0.929 . S
C1507 C1502 1.361 . S
C1507 C1506 1.396 . S
C1508 O1462 1.300 . S
C1508 O1463 1.209 . S
C1508 C1481 1.486 . S
C1509 O1464 1.199 . S
C1509 O1465 1.297 . S
C1509 C1493 1.476 . S
H1510 O1536 0.856 . S
H1511 O1539 0.854 . S
H1512 C1547 0.930 . S
H1513 C1548 0.930 . S
H1514 C1550 0.930 . S
H1515 C1551 0.930 . S
H1516 C1553 0.931 . S
H1517 C1554 0.930 . S
H1518 C1556 0.930 . S
H1519 C1557 0.929 . S
H1520 C1559 0.930 . S
H1521 C1560 0.931 . S
H1522 C1562 0.930 . S
H1523 C1563 0.929 . S
H1524 C1565 0.931 . S
H1525 C1566 0.930 . S
H1526 C1568 0.930 . S
H1527 C1569 0.932 . S
H1528 C1571 0.930 . S
H1529 C1572 0.929 . S
H1530 C1574 0.931 . S
H1531 C1575 0.930 . S
H1532 C1577 0.929 . S
H1533 C1578 0.931 . S
H1534 C1580 0.930 . S
H1535 C1581 0.929 . S
O1536 H1510 0.856 . S
O1536 C1582 1.300 . S
O1537 C1582 1.209 . S
O1538 C1583 1.199 . S
O1539 H1511 0.854 . S
O1539 C1583 1.297 . S
C1540 C1541 1.404 . S
C1540 C1545 1.397 . S
C1540 C1546 1.492 . S
C1541 C1540 1.404 . S
C1541 C1542 1.396 . S
C1541 C1552 1.492 . S
C1542 C1541 1.396 . S
C1542 C1543 1.397 . S
C1542 C1558 1.509 . S
C1543 C1542 1.397 . S
C1543 C1544 1.412 . S
C1543 C1564 1.485 . S
C1544 C1543 1.412 . S
C1544 C1545 1.388 . S
C1544 C1570 1.490 . S
C1545 C1540 1.397 . S
C1545 C1544 1.388 . S
C1545 C1576 1.519 . S
C1546 C1540 1.492 . S
C1546 C1547 1.363 . S
C1546 C1551 1.390 . S
C1547 H1512 0.930 . S
C1547 C1546 1.363 . S
C1547 C1548 1.372 . S
C1548 H1513 0.930 . S
C1548 C1547 1.372 . S
C1548 C1549 1.383 . S
C1549 C1548 1.383 . S
C1549 C1550 1.395 . S
C1550 H1514 0.930 . S
C1550 C1549 1.395 . S
C1550 C1551 1.362 . S
C1551 H1515 0.930 . S
C1551 C1546 1.390 . S
C1551 C1550 1.362 . S
C1552 C1541 1.492 . S
C1552 C1553 1.377 . S
C1552 C1557 1.397 . S
C1553 H1516 0.931 . S
C1553 C1552 1.377 . S
C1553 C1554 1.376 . S
C1554 H1517 0.930 . S
C1554 C1553 1.376 . S
C1554 C1555 1.376 . S
C1555 C1554 1.376 . S
C1555 C1556 1.378 . S
C1555 C1582 1.486 . S
C1556 H1518 0.930 . S
C1556 C1555 1.378 . S
C1556 C1557 1.376 . S
C1557 H1519 0.929 . S
C1557 C1552 1.397 . S
C1557 C1556 1.376 . S
C1558 C1542 1.509 . S
C1558 C1559 1.391 . S
C1558 C1563 1.386 . S
C1559 H1520 0.930 . S
C1559 C1558 1.391 . S
C1559 C1560 1.375 . S
C1560 H1521 0.931 . S
C1560 C1559 1.375 . S
C1560 C1561 1.375 . S
C1561 C1560 1.375 . S
C1561 C1562 1.361 . S
C1562 H1522 0.930 . S
C1562 C1561 1.361 . S
C1562 C1563 1.399 . S
C1563 H1523 0.929 . S
C1563 C1558 1.386 . S
C1563 C1562 1.399 . S
C1564 C1543 1.485 . S
C1564 C1565 1.394 . S
C1564 C1569 1.360 . S
C1565 H1524 0.931 . S
C1565 C1564 1.394 . S
C1565 C1566 1.372 . S
C1566 H1525 0.930 . S
C1566 C1565 1.372 . S
C1566 C1567 1.397 . S
C1567 C1566 1.397 . S
C1567 C1568 1.390 . S
C1567 C1583 1.476 . S
C1568 H1526 0.930 . S
C1568 C1567 1.390 . S
C1568 C1569 1.366 . S
C1569 H1527 0.932 . S
C1569 C1564 1.360 . S
C1569 C1568 1.366 . S
C1570 C1544 1.490 . S
C1570 C1571 1.380 . S
C1570 C1575 1.386 . S
C1571 H1528 0.930 . S
C1571 C1570 1.380 . S
C1571 C1572 1.381 . S
C1572 H1529 0.929 . S
C1572 C1571 1.381 . S
C1572 C1573 1.371 . S
C1573 C1572 1.371 . S
C1573 C1574 1.380 . S
C1574 H1530 0.931 . S
C1574 C1573 1.380 . S
C1574 C1575 1.387 . S
C1575 H1531 0.930 . S
C1575 C1570 1.386 . S
C1575 C1574 1.387 . S
C1576 C1545 1.519 . S
C1576 C1577 1.377 . S
C1576 C1581 1.361 . S
C1577 H1532 0.929 . S
C1577 C1576 1.377 . S
C1577 C1578 1.386 . S
C1578 H1533 0.931 . S
C1578 C1577 1.386 . S
C1578 C1579 1.363 . S
C1579 C1578 1.363 . S
C1579 C1580 1.385 . S
C1580 H1534 0.930 . S
C1580 C1579 1.385 . S
C1580 C1581 1.396 . S
C1581 H1535 0.929 . S
C1581 C1576 1.361 . S
C1581 C1580 1.396 . S
C1582 O1536 1.300 . S
C1582 O1537 1.209 . S
C1582 C1555 1.486 . S
C1583 O1538 1.199 . S
C1583 O1539 1.297 . S
C1583 C1567 1.476 . S
H1584 C1592 0.929 . S
H1585 C1594 0.930 . S
H1586 C1596 0.930 . S
H1587 C1599 0.929 . S
H1588 C1602 0.930 1_455 S
H1589 C1604 0.960 . S
H1590 C1604 0.960 . S
H1591 C1604 0.960 . S
C1592 H1584 0.929 . S
C1592 C1593 1.377 1_655 S
C1592 C1594 1.384 . S
C1593 C1592 1.377 1_455 S
C1593 C1599 1.390 . S
C1594 H1585 0.930 . S
C1594 C1592 1.384 . S
C1594 C1595 1.372 . S
C1595 C1594 1.372 . S
C1595 C1596 1.400 1_655 S
C1595 C1600 1.490 . S
C1596 H1586 0.930 . S
C1596 C1595 1.400 1_455 S
C1596 C1599 1.386 . S
H1597 C1613 0.930 1_455 S
H1598 C1614 0.974 . S
C1599 H1587 0.929 . S
C1599 C1593 1.390 . S
C1599 C1596 1.386 . S
C1600 C1595 1.490 . S
C1600 C1602 1.395 . S
C1600 C1603 1.403 . S
H1601 C1607 0.930 . S
C1602 H1588 0.930 1_655 S
C1602 C1600 1.395 . S
C1602 C1605 1.403 . S
C1603 C1600 1.403 . S
C1603 C1604 1.524 . S
C1603 C1607 1.400 . S
C1604 H1589 0.960 . S
C1604 H1590 0.960 . S
C1604 H1591 0.960 . S
C1604 C1603 1.524 . S
C1605 C1602 1.403 . S
C1605 C1606 1.392 . S
C1605 C1609 1.495 1_655 S
C1606 C1605 1.392 . S
C1606 C1607 1.385 . S
C1606 C1608 1.478 . S
C1607 H1601 0.930 . S
C1607 C1603 1.400 . S
C1607 C1606 1.385 . S
C1608 C1606 1.478 . S
C1608 C1610 1.381 . S
C1608 C1614 1.378 1_655 S
C1609 C1605 1.495 1_455 S
C1609 H1615 0.959 . S
C1609 H1616 0.961 . S
C1609 H1617 0.960 1_455 S
C1610 C1608 1.381 . S
C1610 C1611 1.394 . S
C1610 H1618 0.930 . S
C1611 C1610 1.394 . S
C1611 C1612 1.383 . S
C1611 H1619 0.929 . S
C1612 C1611 1.383 . S
C1612 C1613 1.377 . S
C1613 H1597 0.930 1_655 S
C1613 C1612 1.377 . S
C1613 C1614 1.346 1_655 S
C1614 H1598 0.974 . S
C1614 C1608 1.378 1_455 S
C1614 C1613 1.346 1_455 S
H1615 C1609 0.959 . S
H1616 C1609 0.961 . S
H1617 C1609 0.960 1_655 S
H1618 C1610 0.930 . S
H1619 C1611 0.929 . S
H1620 C1628 0.929 . S
H1621 C1630 0.930 . S
H1622 C1632 0.930 . S
H1623 C1635 0.929 . S
H1624 C1638 0.930 . S
H1625 C1640 0.960 . S
H1626 C1640 0.960 . S
H1627 C1640 0.960 . S
C1628 H1620 0.929 . S
C1628 C1629 1.377 . S
C1628 C1630 1.384 . S
C1629 C1628 1.377 . S
C1629 C1635 1.390 . S
C1630 H1621 0.930 . S
C1630 C1628 1.384 . S
C1630 C1631 1.372 . S
C1631 C1630 1.372 . S
C1631 C1632 1.400 . S
C1631 C1636 1.490 . S
C1632 H1622 0.930 . S
C1632 C1631 1.400 . S
C1632 C1635 1.386 . S
H1633 C1649 0.930 . S
H1634 C1650 0.931 . S
C1635 H1623 0.929 . S
C1635 C1629 1.390 . S
C1635 C1632 1.386 . S
C1636 C1631 1.490 . S
C1636 C1638 1.395 . S
C1636 C1639 1.403 . S
H1637 C1643 0.930 . S
C1638 H1624 0.930 . S
C1638 C1636 1.395 . S
C1638 C1641 1.403 . S
C1639 C1636 1.403 . S
C1639 C1640 1.524 . S
C1639 C1643 1.400 . S
C1640 H1625 0.960 . S
C1640 H1626 0.960 . S
C1640 H1627 0.960 . S
C1640 C1639 1.524 . S
C1641 C1638 1.403 . S
C1641 C1642 1.392 . S
C1641 C1645 1.495 . S
C1642 C1641 1.392 . S
C1642 C1643 1.385 . S
C1642 C1644 1.478 . S
C1643 H1637 0.930 . S
C1643 C1639 1.400 . S
C1643 C1642 1.385 . S
C1644 C1642 1.478 . S
C1644 C1646 1.381 . S
C1644 C1650 1.383 . S
C1645 C1641 1.495 . S
C1645 H1651 0.959 . S
C1645 H1652 0.961 . S
C1645 H1653 0.960 . S
C1646 C1644 1.381 . S
C1646 C1647 1.394 . S
C1646 H1654 0.930 . S
C1647 C1646 1.394 . S
C1647 C1648 1.383 . S
C1647 H1655 0.929 . S
C1648 C1647 1.383 . S
C1648 C1649 1.377 . S
C1649 H1633 0.930 . S
C1649 C1648 1.377 . S
C1649 C1650 1.379 . S
C1650 H1634 0.931 . S
C1650 C1644 1.383 . S
C1650 C1649 1.379 . S
H1651 C1645 0.959 . S
H1652 C1645 0.961 . S
H1653 C1645 0.960 . S
H1654 C1646 0.930 . S
H1655 C1647 0.929 . S
H1656 C1664 0.929 . S
H1657 C1666 0.930 . S
H1658 C1668 0.930 . S
H1659 C1671 0.929 . S
H1660 C1674 0.930 . S
H1661 C1676 0.960 . S
H1662 C1676 0.960 . S
H1663 C1676 0.960 . S
C1664 H1656 0.929 . S
C1664 C1665 1.377 . S
C1664 C1666 1.384 . S
C1665 C1664 1.377 . S
C1665 C1671 1.390 . S
C1666 H1657 0.930 . S
C1666 C1664 1.384 . S
C1666 C1667 1.372 . S
C1667 C1666 1.372 . S
C1667 C1668 1.400 . S
C1667 C1672 1.490 . S
C1668 H1658 0.930 . S
C1668 C1667 1.400 . S
C1668 C1671 1.386 . S
H1669 C1685 0.930 . S
H1670 C1686 0.931 . S
C1671 H1659 0.929 . S
C1671 C1665 1.390 . S
C1671 C1668 1.386 . S
C1672 C1667 1.490 . S
C1672 C1674 1.395 . S
C1672 C1675 1.428 . S
H1673 C1679 0.930 1_565 S
C1674 H1660 0.930 . S
C1674 C1672 1.395 . S
C1674 C1677 1.403 . S
C1675 C1672 1.428 . S
C1675 C1676 1.511 1_545 S
C1675 C1679 1.388 . S
C1676 H1661 0.960 . S
C1676 H1662 0.960 . S
C1676 H1663 0.960 . S
C1676 C1675 1.511 1_565 S
C1677 C1674 1.403 . S
C1677 C1678 1.392 . S
C1677 C1681 1.495 . S
C1678 C1677 1.392 . S
C1678 C1679 1.385 . S
C1678 C1680 1.478 . S
C1679 H1673 0.930 1_545 S
C1679 C1675 1.388 . S
C1679 C1678 1.385 . S
C1680 C1678 1.478 . S
C1680 C1682 1.381 . S
C1680 C1686 1.383 . S
C1681 C1677 1.495 . S
C1681 H1687 0.959 . S
C1681 H1688 0.961 . S
C1681 H1689 0.960 . S
C1682 C1680 1.381 . S
C1682 C1683 1.394 . S
C1682 H1690 0.930 . S
C1683 C1682 1.394 . S
C1683 C1684 1.383 . S
C1683 H1691 0.929 . S
C1684 C1683 1.383 . S
C1684 C1685 1.377 . S
C1685 H1669 0.930 . S
C1685 C1684 1.377 . S
C1685 C1686 1.379 . S
C1686 H1670 0.931 . S
C1686 C1680 1.383 . S
C1686 C1685 1.379 . S
H1687 C1681 0.959 . S
H1688 C1681 0.961 . S
H1689 C1681 0.960 . S
H1690 C1682 0.930 . S
H1691 C1683 0.929 . S
H1692 C1700 0.929 . S
H1693 C1702 0.930 . S
H1694 C1704 0.930 . S
H1695 C1707 0.929 . S
H1696 C1710 0.930 . S
H1697 C1712 0.960 . S
H1698 C1712 0.960 1_545 S
H1699 C1712 0.960 . S
C1700 H1692 0.929 . S
C1700 C1701 1.377 1_545 S
C1700 C1702 1.384 . S
C1701 C1700 1.377 1_565 S
C1701 C1707 1.390 . S
C1702 H1693 0.930 . S
C1702 C1700 1.384 . S
C1702 C1703 1.372 1_545 S
C1703 C1702 1.372 1_565 S
C1703 C1704 1.400 . S
C1703 C1708 1.490 . S
C1704 H1694 0.930 . S
C1704 C1703 1.400 . S
C1704 C1707 1.386 . S
H1705 C1721 0.930 . S
H1706 C1722 0.931 . S
C1707 H1695 0.929 . S
C1707 C1701 1.390 . S
C1707 C1704 1.386 . S
C1708 C1703 1.490 . S
C1708 C1710 1.395 . S
C1708 C1711 1.403 . S
H1709 C1715 0.930 . S
C1710 H1696 0.930 . S
C1710 C1708 1.395 . S
C1710 C1713 1.403 . S
C1711 C1708 1.403 . S
C1711 C1712 1.524 . S
C1711 C1715 1.400 . S
C1712 H1697 0.960 . S
C1712 H1698 0.960 1_565 S
C1712 H1699 0.960 . S
C1712 C1711 1.524 . S
C1713 C1710 1.403 . S
C1713 C1714 1.392 . S
C1713 C1717 1.495 . S
C1714 C1713 1.392 . S
C1714 C1715 1.385 . S
C1714 C1716 1.478 . S
C1715 H1709 0.930 . S
C1715 C1711 1.400 . S
C1715 C1714 1.385 . S
C1716 C1714 1.478 . S
C1716 C1718 1.381 1_565 S
C1716 C1722 1.383 . S
C1717 C1713 1.495 . S
C1717 H1723 0.959 . S
C1717 H1724 0.961 . S
C1717 H1725 0.945 1_565 S
C1718 C1716 1.381 1_545 S
C1718 C1719 1.394 . S
C1718 H1726 0.930 . S
C1719 C1718 1.394 . S
C1719 C1720 1.383 1_545 S
C1719 H1727 0.929 . S
C1720 C1719 1.383 1_565 S
C1720 C1721 1.377 . S
C1721 H1705 0.930 . S
C1721 C1720 1.377 . S
C1721 C1722 1.379 . S
C1722 H1706 0.931 . S
C1722 C1716 1.383 . S
C1722 C1721 1.379 . S
H1723 C1717 0.959 . S
H1724 C1717 0.961 . S
H1725 C1717 0.945 1_545 S
H1726 C1718 0.930 . S
H1727 C1719 0.929 . S
H1728 C1736 0.929 1_655 S
H1729 C1738 0.930 1_655 S
H1730 C1740 0.930 . S
H1731 C1743 0.929 . S
H1732 C1746 0.930 . S
H1733 C1748 0.960 . S
H1734 C1748 0.960 . S
H1735 C1748 0.960 . S
C1736 H1728 0.929 1_455 S
C1736 C1737 1.377 . S
C1736 C1738 1.384 . S
C1737 C1736 1.377 . S
C1737 C1743 1.390 . S
C1738 H1729 0.930 1_455 S
C1738 C1736 1.384 . S
C1738 C1739 1.372 . S
C1739 C1738 1.372 . S
C1739 C1740 1.400 . S
C1739 C1744 1.490 . S
C1740 H1730 0.930 . S
C1740 C1739 1.400 . S
C1740 C1743 1.386 . S
H1741 C1757 0.930 . S
H1742 C1758 0.931 . S
C1743 H1731 0.929 . S
C1743 C1737 1.390 . S
C1743 C1740 1.386 . S
C1744 C1739 1.490 . S
C1744 C1746 1.395 1_455 S
C1744 C1747 1.403 . S
H1745 C1751 0.930 . S
C1746 H1732 0.930 . S
C1746 C1744 1.395 1_655 S
C1746 C1749 1.403 . S
C1747 C1744 1.403 . S
C1747 C1748 1.524 . S
C1747 C1751 1.400 . S
C1748 H1733 0.960 . S
C1748 H1734 0.960 . S
C1748 H1735 0.960 . S
C1748 C1747 1.524 . S
C1749 C1746 1.403 . S
C1749 C1750 1.392 1_655 S
C1749 C1753 1.495 . S
C1750 C1749 1.392 1_455 S
C1750 C1751 1.385 . S
C1750 C1752 1.478 . S
C1751 H1745 0.930 . S
C1751 C1747 1.400 . S
C1751 C1750 1.385 . S
C1752 C1750 1.478 . S
C1752 C1754 1.381 . S
C1752 C1758 1.383 . S
C1753 C1749 1.495 . S
C1753 H1759 0.959 . S
C1753 H1760 0.961 . S
C1753 H1761 0.960 . S
C1754 C1752 1.381 . S
C1754 C1755 1.394 . S
C1754 H1762 0.930 1_455 S
C1755 C1754 1.394 . S
C1755 C1756 1.383 . S
C1755 H1763 0.929 1_455 S
C1756 C1755 1.383 . S
C1756 C1757 1.377 . S
C1757 H1741 0.930 . S
C1757 C1756 1.377 . S
C1757 C1758 1.379 . S
C1758 H1742 0.931 . S
C1758 C1752 1.383 . S
C1758 C1757 1.379 . S
H1759 C1753 0.959 . S
H1760 C1753 0.961 . S
H1761 C1753 0.960 . S
H1762 C1754 0.930 1_655 S
H1763 C1755 0.929 1_655 S
H1764 C1772 0.929 . S
H1765 C1774 0.930 . S
H1766 C1776 0.930 . S
H1767 C1779 0.929 . S
H1768 C1782 0.930 . S
H1769 C1784 0.960 . S
H1770 C1784 0.960 . S
H1771 C1784 0.960 . S
C1772 H1764 0.929 . S
C1772 C1773 1.377 . S
C1772 C1774 1.384 1_554 S
C1773 C1772 1.377 . S
C1773 C1779 1.390 . S
C1774 H1765 0.930 . S
C1774 C1772 1.384 1_556 S
C1774 C1775 1.372 . S
C1775 C1774 1.372 . S
C1775 C1776 1.400 1_556 S
C1775 C1780 1.490 . S
C1776 H1766 0.930 . S
C1776 C1775 1.400 1_554 S
C1776 C1779 1.386 . S
H1777 C1793 0.930 . S
H1778 C1794 0.931 . S
C1779 H1767 0.929 . S
C1779 C1773 1.390 . S
C1779 C1776 1.386 . S
C1780 C1775 1.490 . S
C1780 C1782 1.395 . S
C1780 C1783 1.403 . S
H1781 C1787 0.930 . S
C1782 H1768 0.930 . S
C1782 C1780 1.395 . S
C1782 C1785 1.403 . S
C1783 C1780 1.403 . S
C1783 C1784 1.524 . S
C1783 C1787 1.400 . S
C1784 H1769 0.960 . S
C1784 H1770 0.960 . S
C1784 H1771 0.960 . S
C1784 C1783 1.524 . S
C1785 C1782 1.403 . S
C1785 C1786 1.392 . S
C1785 C1789 1.495 . S
C1786 C1785 1.392 . S
C1786 C1787 1.385 . S
C1786 C1788 1.478 . S
C1787 H1781 0.930 . S
C1787 C1783 1.400 . S
C1787 C1786 1.385 . S
C1788 C1786 1.478 . S
C1788 C1790 1.381 . S
C1788 C1794 1.383 . S
C1789 C1785 1.495 . S
C1789 H1795 0.959 . S
C1789 H1796 0.961 . S
C1789 H1797 0.960 . S
C1790 C1788 1.381 . S
C1790 C1791 1.394 . S
C1790 H1798 0.930 . S
C1791 C1790 1.394 . S
C1791 C1792 1.383 . S
C1791 H1799 0.929 . S
C1792 C1791 1.383 . S
C1792 C1793 1.377 . S
C1793 H1777 0.930 . S
C1793 C1792 1.377 . S
C1793 C1794 1.379 . S
C1794 H1778 0.931 . S
C1794 C1788 1.383 . S
C1794 C1793 1.379 . S
H1795 C1789 0.959 . S
H1796 C1789 0.961 . S
H1797 C1789 0.960 . S
H1798 C1790 0.930 . S
H1799 C1791 0.929 . S
H1800 C1808 0.939 . S
H1801 C1810 0.930 . S
H1802 C1812 0.930 . S
H1803 C1815 0.936 . S
H1804 C1818 0.930 . S
H1805 C1820 0.960 . S
H1806 C1820 0.960 1_455 S
H1807 C1820 0.960 . S
C1808 H1800 0.939 . S
C1808 C1809 1.385 . S
C1808 C1810 1.367 1_554 S
C1809 C1808 1.385 . S
C1809 C1815 1.390 1_454 S
C1810 H1801 0.930 . S
C1810 C1808 1.367 1_556 S
C1810 C1811 1.372 . S
C1811 C1810 1.372 . S
C1811 C1812 1.400 1_455 S
C1811 C1816 1.490 . S
C1812 H1802 0.930 . S
C1812 C1811 1.400 1_655 S
C1812 C1815 1.386 . S
H1813 C1829 0.930 . S
H1814 C1830 0.931 . S
C1815 H1803 0.936 . S
C1815 C1809 1.390 1_656 S
C1815 C1812 1.386 . S
C1816 C1811 1.490 . S
C1816 C1818 1.395 . S
C1816 C1819 1.387 1_455 S
H1817 C1823 0.962 . S
C1818 H1804 0.930 . S
C1818 C1816 1.395 . S
C1818 C1821 1.403 . S
C1819 C1816 1.387 1_655 S
C1819 C1820 1.558 . S
C1819 C1823 1.415 . S
C1820 H1805 0.960 . S
C1820 H1806 0.960 1_655 S
C1820 H1807 0.960 . S
C1820 C1819 1.558 . S
C1821 C1818 1.403 . S
C1821 C1822 1.392 . S
C1821 C1825 1.495 . S
C1822 C1821 1.392 . S
C1822 C1823 1.324 1_455 S
C1822 C1824 1.478 . S
C1823 H1817 0.962 . S
C1823 C1819 1.415 . S
C1823 C1822 1.324 1_655 S
C1824 C1822 1.478 . S
C1824 C1826 1.381 . S
C1824 C1830 1.383 1_455 S
C1825 C1821 1.495 . S
C1825 H1831 0.959 . S
C1825 H1832 0.961 . S
C1825 H1833 0.960 . S
C1826 C1824 1.381 . S
C1826 C1827 1.394 . S
C1826 H1834 0.930 . S
C1827 C1826 1.394 . S
C1827 C1828 1.432 . S
C1827 H1835 0.929 . S
C1828 C1827 1.432 . S
C1828 C1829 1.305 1_455 S
C1829 H1813 0.930 . S
C1829 C1828 1.305 1_655 S
C1829 C1830 1.379 . S
C1830 H1814 0.931 . S
C1830 C1824 1.383 1_655 S
C1830 C1829 1.379 . S
H1831 C1825 0.959 . S
H1832 C1825 0.961 . S
H1833 C1825 0.960 . S
H1834 C1826 0.930 . S
H1835 C1827 0.929 . S
H1836 C1844 0.929 . S
H1837 C1846 0.930 . S
H1838 C1848 0.930 . S
H1839 C1851 0.929 . S
H1840 C1854 0.930 . S
H1841 C1856 0.960 . S
H1842 C1856 0.960 . S
H1843 C1856 0.960 . S
C1844 H1836 0.929 . S
C1844 C1845 1.377 . S
C1844 C1846 1.384 . S
C1845 C1844 1.377 . S
C1845 C1851 1.390 . S
C1846 H1837 0.930 . S
C1846 C1844 1.384 . S
C1846 C1847 1.372 . S
C1847 C1846 1.372 . S
C1847 C1848 1.400 . S
C1847 C1852 1.490 . S
C1848 H1838 0.930 . S
C1848 C1847 1.400 . S
C1848 C1851 1.386 . S
H1849 C1865 0.930 . S
H1850 C1866 0.931 . S
C1851 H1839 0.929 . S
C1851 C1845 1.390 . S
C1851 C1848 1.386 . S
C1852 C1847 1.490 . S
C1852 C1854 1.395 . S
C1852 C1855 1.403 . S
H1853 C1859 0.930 . S
C1854 H1840 0.930 . S
C1854 C1852 1.395 . S
C1854 C1857 1.403 . S
C1855 C1852 1.403 . S
C1855 C1856 1.524 . S
C1855 C1859 1.400 . S
C1856 H1841 0.960 . S
C1856 H1842 0.960 . S
C1856 H1843 0.960 . S
C1856 C1855 1.524 . S
C1857 C1854 1.403 . S
C1857 C1858 1.392 . S
C1857 C1861 1.495 . S
C1858 C1857 1.392 . S
C1858 C1859 1.385 . S
C1858 C1860 1.478 . S
C1859 H1853 0.930 . S
C1859 C1855 1.400 . S
C1859 C1858 1.385 . S
C1860 C1858 1.478 . S
C1860 C1862 1.381 . S
C1860 C1866 1.383 . S
C1861 C1857 1.495 . S
C1861 H1867 0.959 . S
C1861 H1868 0.961 . S
C1861 H1869 0.960 . S
C1862 C1860 1.381 . S
C1862 C1863 1.394 . S
C1862 H1870 0.930 . S
C1863 C1862 1.394 . S
C1863 C1864 1.383 . S
C1863 H1871 0.929 . S
C1864 C1863 1.383 . S
C1864 C1865 1.377 . S
C1865 H1849 0.930 . S
C1865 C1864 1.377 . S
C1865 C1866 1.379 . S
C1866 H1850 0.931 . S
C1866 C1860 1.383 . S
C1866 C1865 1.379 . S
H1867 C1861 0.959 . S
H1868 C1861 0.961 . S
H1869 C1861 0.960 . S
H1870 C1862 0.930 . S
H1871 C1863 0.929 . S
H1872 C1880 0.929 1_554 S
H1873 C1882 0.930 . S
H1874 C1884 0.930 . S
H1875 C1887 0.908 1_554 S
H1876 C1890 0.930 . S
H1877 C1892 0.960 . S
H1878 C1892 0.960 . S
H1879 C1892 0.960 . S
C1880 H1872 0.929 1_556 S
C1880 C1881 1.377 1_546 S
C1880 C1882 1.384 . S
C1881 C1880 1.377 1_564 S
C1881 C1887 1.390 1_554 S
C1882 H1873 0.930 . S
C1882 C1880 1.384 . S
C1882 C1883 1.372 1_545 S
C1883 C1882 1.372 1_565 S
C1883 C1884 1.400 . S
C1883 C1888 1.490 . S
C1884 H1874 0.930 . S
C1884 C1883 1.400 . S
C1884 C1887 1.386 . S
H1885 C1901 0.930 . S
H1886 C1902 0.931 . S
C1887 H1875 0.908 1_556 S
C1887 C1881 1.390 1_556 S
C1887 C1884 1.386 . S
C1888 C1883 1.490 . S
C1888 C1890 1.395 1_565 S
C1888 C1891 1.403 . S
H1889 C1895 0.930 . S
C1890 H1876 0.930 . S
C1890 C1888 1.395 1_545 S
C1890 C1893 1.403 . S
C1891 C1888 1.403 . S
C1891 C1892 1.524 . S
C1891 C1895 1.400 . S
C1892 H1877 0.960 . S
C1892 H1878 0.960 . S
C1892 H1879 0.960 . S
C1892 C1891 1.524 . S
C1893 C1890 1.403 . S
C1893 C1894 1.391 1_545 S
C1893 C1897 1.495 . S
C1894 C1893 1.391 1_565 S
C1894 C1895 1.384 . S
C1894 C1896 1.470 1_565 S
C1895 H1889 0.930 . S
C1895 C1891 1.400 . S
C1895 C1894 1.384 . S
C1896 C1894 1.470 1_545 S
C1896 C1898 1.406 . S
C1896 C1902 1.369 1_545 S
C1897 C1893 1.495 . S
C1897 H1903 0.959 . S
C1897 H1904 0.961 . S
C1897 H1905 0.960 . S
C1898 C1896 1.406 . S
C1898 C1899 1.394 . S
C1898 H1906 0.930 . S
C1899 C1898 1.394 . S
C1899 C1900 1.383 . S
C1899 H1907 0.929 . S
C1900 C1899 1.383 . S
C1900 C1901 1.377 1_545 S
C1901 H1885 0.930 . S
C1901 C1900 1.377 1_565 S
C1901 C1902 1.379 . S
C1902 H1886 0.931 . S
C1902 C1896 1.369 1_565 S
C1902 C1901 1.379 . S
H1903 C1897 0.959 . S
H1904 C1897 0.961 . S
H1905 C1897 0.960 . S
H1906 C1898 0.930 . S
H1907 C1899 0.929 . S
H1908 C1916 0.929 . S
H1909 C1918 0.930 . S
H1910 C1920 0.930 . S
H1911 C1923 0.929 . S
H1912 C1926 0.930 . S
H1913 C1928 0.942 . S
H1914 C1928 0.998 . S
H1915 C1928 0.933 1_545 S
C1916 H1908 0.929 . S
C1916 C1917 1.377 1_565 S
C1916 C1918 1.384 . S
C1917 C1916 1.377 1_545 S
C1917 C1923 1.390 . S
C1918 H1909 0.930 . S
C1918 C1916 1.384 . S
C1918 C1919 1.372 1_565 S
C1919 C1918 1.372 1_545 S
C1919 C1920 1.400 . S
C1919 C1924 1.490 . S
C1920 H1910 0.930 . S
C1920 C1919 1.400 . S
C1920 C1923 1.386 . S
H1921 C1937 0.930 . S
H1922 C1938 0.931 . S
C1923 H1911 0.929 . S
C1923 C1917 1.390 . S
C1923 C1920 1.386 . S
C1924 C1919 1.490 . S
C1924 C1926 1.395 . S
C1924 C1927 1.403 . S
H1925 C1931 0.966 1_565 S
C1926 H1912 0.930 . S
C1926 C1924 1.395 . S
C1926 C1929 1.403 . S
C1927 C1924 1.403 . S
C1927 C1928 1.533 1_545 S
C1927 C1931 1.386 . S
C1928 H1913 0.942 . S
C1928 H1914 0.998 . S
C1928 H1915 0.933 1_565 S
C1928 C1927 1.533 1_565 S
C1929 C1926 1.403 . S
C1929 C1930 1.392 . S
C1929 C1933 1.495 . S
C1930 C1929 1.392 . S
C1930 C1931 1.370 . S
C1930 C1932 1.478 . S
C1931 H1925 0.966 1_545 S
C1931 C1927 1.386 . S
C1931 C1930 1.370 . S
C1932 C1930 1.478 . S
C1932 C1934 1.381 1_545 S
C1932 C1938 1.383 . S
C1933 C1929 1.495 . S
C1933 H1939 0.959 . S
C1933 H1940 0.961 . S
C1933 H1941 0.960 1_545 S
C1934 C1932 1.381 1_565 S
C1934 C1935 1.394 . S
C1934 H1942 0.930 . S
C1935 C1934 1.394 . S
C1935 C1936 1.425 . S
C1935 H1943 0.929 . S
C1936 C1935 1.425 . S
C1936 C1937 1.347 1_565 S
C1937 H1921 0.930 . S
C1937 C1936 1.347 1_545 S
C1937 C1938 1.379 . S
C1938 H1922 0.931 . S
C1938 C1932 1.383 . S
C1938 C1937 1.379 . S
H1939 C1933 0.959 . S
H1940 C1933 0.961 . S
H1941 C1933 0.960 1_565 S
H1942 C1934 0.930 . S
H1943 C1935 0.929 . S
H1944 C1952 0.929 . S
H1945 C1954 0.930 . S
H1946 C1956 0.930 . S
H1947 C1959 0.929 . S
H1948 C1962 0.930 . S
H1949 C1964 0.960 . S
H1950 C1964 0.960 . S
H1951 C1964 0.960 . S
C1952 H1944 0.929 . S
C1952 C1953 1.377 1_455 S
C1952 C1954 1.384 . S
C1953 C1952 1.377 1_655 S
C1953 C1959 1.390 . S
C1954 H1945 0.930 . S
C1954 C1952 1.384 . S
C1954 C1955 1.372 1_455 S
C1955 C1954 1.372 1_655 S
C1955 C1956 1.400 . S
C1955 C1960 1.513 . S
C1956 H1946 0.930 . S
C1956 C1955 1.400 . S
C1956 C1959 1.386 . S
H1957 C1973 0.930 . S
H1958 C1974 0.931 . S
C1959 H1947 0.929 . S
C1959 C1953 1.390 . S
C1959 C1956 1.386 . S
C1960 C1955 1.513 . S
C1960 C1962 1.345 1_655 S
C1960 C1963 1.431 . S
H1961 C1967 0.930 . S
C1962 H1948 0.930 . S
C1962 C1960 1.345 1_455 S
C1962 C1965 1.403 . S
C1963 C1960 1.431 . S
C1963 C1964 1.524 . S
C1963 C1967 1.400 . S
C1964 H1949 0.960 . S
C1964 H1950 0.960 . S
C1964 H1951 0.960 . S
C1964 C1963 1.524 . S
C1965 C1962 1.403 . S
C1965 C1966 1.392 . S
C1965 C1969 1.495 . S
C1966 C1965 1.392 . S
C1966 C1967 1.385 1_455 S
C1966 C1968 1.478 . S
C1967 H1961 0.930 . S
C1967 C1963 1.400 . S
C1967 C1966 1.385 1_655 S
C1968 C1966 1.478 . S
C1968 C1970 1.381 . S
C1968 C1974 1.383 1_455 S
C1969 C1965 1.495 . S
C1969 H1975 0.959 . S
C1969 H1976 0.961 . S
C1969 H1977 0.960 . S
C1970 C1968 1.381 . S
C1970 C1971 1.394 . S
C1970 H1978 0.930 . S
C1971 C1970 1.394 . S
C1971 C1972 1.431 . S
C1971 H1979 0.929 . S
C1972 C1971 1.431 . S
C1972 C1973 1.308 1_455 S
C1973 H1957 0.930 . S
C1973 C1972 1.308 1_655 S
C1973 C1974 1.379 . S
C1974 H1958 0.931 . S
C1974 C1968 1.383 1_655 S
C1974 C1973 1.379 . S
H1975 C1969 0.959 . S
H1976 C1969 0.961 . S
H1977 C1969 0.960 . S
H1978 C1970 0.930 . S
H1979 C1971 0.929 . S
H1980 C1988 0.929 . S
H1981 C1990 0.930 . S
H1982 C1992 0.930 . S
H1983 C1995 0.929 . S
H1984 C1998 0.930 . S
H1985 C2000 0.960 . S
H1986 C2000 0.960 . S
H1987 C2000 0.960 . S
C1988 H1980 0.929 . S
C1988 C1989 1.377 . S
C1988 C1990 1.384 . S
C1989 C1988 1.377 . S
C1989 C1995 1.390 . S
C1990 H1981 0.930 . S
C1990 C1988 1.384 . S
C1990 C1991 1.372 . S
C1991 C1990 1.372 . S
C1991 C1992 1.400 . S
C1991 C1996 1.490 . S
C1992 H1982 0.930 . S
C1992 C1991 1.400 . S
C1992 C1995 1.386 . S
H1993 C2009 0.930 . S
H1994 C2010 0.931 . S
C1995 H1983 0.929 . S
C1995 C1989 1.390 . S
C1995 C1992 1.386 . S
C1996 C1991 1.490 . S
C1996 C1998 1.395 . S
C1996 C1999 1.403 . S
H1997 C2003 0.930 . S
C1998 H1984 0.930 . S
C1998 C1996 1.395 . S
C1998 C2001 1.403 . S
C1999 C1996 1.403 . S
C1999 C2000 1.524 . S
C1999 C2003 1.400 . S
C2000 H1985 0.960 . S
C2000 H1986 0.960 . S
C2000 H1987 0.960 . S
C2000 C1999 1.524 . S
C2001 C1998 1.403 . S
C2001 C2002 1.392 . S
C2001 C2005 1.495 . S
C2002 C2001 1.392 . S
C2002 C2003 1.385 . S
C2002 C2004 1.478 . S
C2003 H1997 0.930 . S
C2003 C1999 1.400 . S
C2003 C2002 1.385 . S
C2004 C2002 1.478 . S
C2004 C2006 1.381 . S
C2004 C2010 1.383 . S
C2005 C2001 1.495 . S
C2005 H2011 0.959 . S
C2005 H2012 0.961 . S
C2005 H2013 0.960 . S
C2006 C2004 1.381 . S
C2006 C2007 1.394 . S
C2006 H2014 0.930 . S
C2007 C2006 1.394 . S
C2007 C2008 1.383 . S
C2007 H2015 0.929 . S
C2008 C2007 1.383 . S
C2008 C2009 1.377 . S
C2009 H1993 0.930 . S
C2009 C2008 1.377 . S
C2009 C2010 1.379 . S
C2010 H1994 0.931 . S
C2010 C2004 1.383 . S
C2010 C2009 1.379 . S
H2011 C2005 0.959 . S
H2012 C2005 0.961 . S
H2013 C2005 0.960 . S
H2014 C2006 0.930 . S
H2015 C2007 0.929 . S
H2016 C2024 0.929 . S
H2017 C2026 0.930 . S
H2018 C2028 0.930 . S
H2019 C2031 0.929 . S
H2020 C2034 0.930 . S
H2021 C2036 0.960 . S
H2022 C2036 0.960 . S
H2023 C2036 0.960 . S
C2024 H2016 0.929 . S
C2024 C2025 1.377 . S
C2024 C2026 1.384 . S
C2025 C2024 1.377 . S
C2025 C2031 1.390 . S
C2026 H2017 0.930 . S
C2026 C2024 1.384 . S
C2026 C2027 1.372 . S
C2027 C2026 1.372 . S
C2027 C2028 1.400 . S
C2027 C2032 1.490 . S
C2028 H2018 0.930 . S
C2028 C2027 1.400 . S
C2028 C2031 1.386 . S
H2029 C2045 0.930 . S
H2030 C2046 0.931 . S
C2031 H2019 0.929 . S
C2031 C2025 1.390 . S
C2031 C2028 1.386 . S
C2032 C2027 1.490 . S
C2032 C2034 1.395 . S
C2032 C2035 1.403 . S
H2033 C2039 0.930 . S
C2034 H2020 0.930 . S
C2034 C2032 1.395 . S
C2034 C2037 1.403 . S
C2035 C2032 1.403 . S
C2035 C2036 1.524 . S
C2035 C2039 1.400 . S
C2036 H2021 0.960 . S
C2036 H2022 0.960 . S
C2036 H2023 0.960 . S
C2036 C2035 1.524 . S
C2037 C2034 1.403 . S
C2037 C2038 1.392 . S
C2037 C2041 1.495 . S
C2038 C2037 1.392 . S
C2038 C2039 1.385 . S
C2038 C2040 1.478 . S
C2039 H2033 0.930 . S
C2039 C2035 1.400 . S
C2039 C2038 1.385 . S
C2040 C2038 1.478 . S
C2040 C2042 1.381 . S
C2040 C2046 1.383 . S
C2041 C2037 1.495 . S
C2041 H2047 0.959 . S
C2041 H2048 0.961 . S
C2041 H2049 0.960 . S
C2042 C2040 1.381 . S
C2042 C2043 1.394 . S
C2042 H2050 0.930 . S
C2043 C2042 1.394 . S
C2043 C2044 1.383 . S
C2043 H2051 0.929 . S
C2044 C2043 1.383 . S
C2044 C2045 1.377 . S
C2045 H2029 0.930 . S
C2045 C2044 1.377 . S
C2045 C2046 1.379 . S
C2046 H2030 0.931 . S
C2046 C2040 1.383 . S
C2046 C2045 1.379 . S
H2047 C2041 0.959 . S
H2048 C2041 0.961 . S
H2049 C2041 0.960 . S
H2050 C2042 0.930 . S
H2051 C2043 0.929 . S
H2052 C2060 0.929 . S
H2053 C2062 0.930 . S
H2054 C2064 0.930 . S
H2055 C2067 0.929 . S
H2056 C2070 0.930 . S
H2057 C2072 0.960 . S
H2058 C2072 0.960 . S
H2059 C2072 0.960 . S
C2060 H2052 0.929 . S
C2060 C2061 1.377 . S
C2060 C2062 1.384 . S
C2061 C2060 1.377 . S
C2061 C2067 1.390 . S
C2062 H2053 0.930 . S
C2062 C2060 1.384 . S
C2062 C2063 1.372 . S
C2063 C2062 1.372 . S
C2063 C2064 1.400 . S
C2063 C2068 1.490 . S
C2064 H2054 0.930 . S
C2064 C2063 1.400 . S
C2064 C2067 1.386 . S
H2065 C2081 0.930 . S
H2066 C2082 0.931 . S
C2067 H2055 0.929 . S
C2067 C2061 1.390 . S
C2067 C2064 1.386 . S
C2068 C2063 1.490 . S
C2068 C2070 1.395 . S
C2068 C2071 1.403 . S
H2069 C2075 0.930 . S
C2070 H2056 0.930 . S
C2070 C2068 1.395 . S
C2070 C2073 1.403 . S
C2071 C2068 1.403 . S
C2071 C2072 1.524 . S
C2071 C2075 1.400 . S
C2072 H2057 0.960 . S
C2072 H2058 0.960 . S
C2072 H2059 0.960 . S
C2072 C2071 1.524 . S
C2073 C2070 1.403 . S
C2073 C2074 1.392 . S
C2073 C2077 1.495 . S
C2074 C2073 1.392 . S
C2074 C2075 1.385 . S
C2074 C2076 1.478 . S
C2075 H2069 0.930 . S
C2075 C2071 1.400 . S
C2075 C2074 1.385 . S
C2076 C2074 1.478 . S
C2076 C2078 1.381 . S
C2076 C2082 1.383 . S
C2077 C2073 1.495 . S
C2077 H2083 0.959 . S
C2077 H2084 0.961 . S
C2077 H2085 0.960 . S
C2078 C2076 1.381 . S
C2078 C2079 1.394 . S
C2078 H2086 0.930 . S
C2079 C2078 1.394 . S
C2079 C2080 1.383 . S
C2079 H2087 0.929 . S
C2080 C2079 1.383 . S
C2080 C2081 1.377 . S
C2081 H2065 0.930 . S
C2081 C2080 1.377 . S
C2081 C2082 1.379 . S
C2082 H2066 0.931 . S
C2082 C2076 1.383 . S
C2082 C2081 1.379 . S
H2083 C2077 0.959 . S
H2084 C2077 0.961 . S
H2085 C2077 0.960 . S
H2086 C2078 0.930 . S
H2087 C2079 0.929 . S
H2088 C2096 0.929 . S
H2089 C2098 0.930 . S
H2090 C2100 0.930 . S
H2091 C2103 0.929 . S
H2092 C2106 0.930 . S
H2093 C2108 0.960 . S
H2094 C2108 0.960 . S
H2095 C2108 0.960 . S
C2096 H2088 0.929 . S
C2096 C2097 1.377 . S
C2096 C2098 1.384 . S
C2097 C2096 1.377 . S
C2097 C2103 1.390 . S
C2098 H2089 0.930 . S
C2098 C2096 1.384 . S
C2098 C2099 1.372 . S
C2099 C2098 1.372 . S
C2099 C2100 1.400 . S
C2099 C2104 1.490 . S
C2100 H2090 0.930 . S
C2100 C2099 1.400 . S
C2100 C2103 1.386 . S
H2101 C2117 0.930 . S
H2102 C2118 0.931 . S
C2103 H2091 0.929 . S
C2103 C2097 1.390 . S
C2103 C2100 1.386 . S
C2104 C2099 1.490 . S
C2104 C2106 1.395 . S
C2104 C2107 1.403 . S
H2105 C2111 0.930 . S
C2106 H2092 0.930 . S
C2106 C2104 1.395 . S
C2106 C2109 1.403 . S
C2107 C2104 1.403 . S
C2107 C2108 1.524 . S
C2107 C2111 1.400 . S
C2108 H2093 0.960 . S
C2108 H2094 0.960 . S
C2108 H2095 0.960 . S
C2108 C2107 1.524 . S
C2109 C2106 1.403 . S
C2109 C2110 1.392 . S
C2109 C2113 1.495 . S
C2110 C2109 1.392 . S
C2110 C2111 1.385 . S
C2110 C2112 1.478 . S
C2111 H2105 0.930 . S
C2111 C2107 1.400 . S
C2111 C2110 1.385 . S
C2112 C2110 1.478 . S
C2112 C2114 1.381 . S
C2112 C2118 1.383 . S
C2113 C2109 1.495 . S
C2113 H2119 0.959 . S
C2113 H2120 0.961 . S
C2113 H2121 0.960 . S
C2114 C2112 1.381 . S
C2114 C2115 1.394 . S
C2114 H2122 0.930 . S
C2115 C2114 1.394 . S
C2115 C2116 1.383 . S
C2115 H2123 0.929 . S
C2116 C2115 1.383 . S
C2116 C2117 1.377 . S
C2117 H2101 0.930 . S
C2117 C2116 1.377 . S
C2117 C2118 1.379 . S
C2118 H2102 0.931 . S
C2118 C2112 1.383 . S
C2118 C2117 1.379 . S
H2119 C2113 0.959 . S
H2120 C2113 0.961 . S
H2121 C2113 0.960 . S
H2122 C2114 0.930 . S
H2123 C2115 0.929 . S
H2124 C2132 0.929 . S
H2125 C2134 0.930 . S
H2126 C2136 0.930 . S
H2127 C2139 0.929 . S
H2128 C2142 0.930 . S
H2129 C2144 0.960 . S
H2130 C2144 0.960 . S
H2131 C2144 0.960 . S
C2132 H2124 0.929 . S
C2132 C2133 1.377 . S
C2132 C2134 1.384 . S
C2133 C2132 1.377 . S
C2133 C2139 1.390 . S
C2134 H2125 0.930 . S
C2134 C2132 1.384 . S
C2134 C2135 1.372 . S
C2135 C2134 1.372 . S
C2135 C2136 1.400 . S
C2135 C2140 1.490 . S
C2136 H2126 0.930 . S
C2136 C2135 1.400 . S
C2136 C2139 1.386 . S
H2137 C2153 0.930 . S
H2138 C2154 0.931 . S
C2139 H2127 0.929 . S
C2139 C2133 1.390 . S
C2139 C2136 1.386 . S
C2140 C2135 1.490 . S
C2140 C2142 1.395 . S
C2140 C2143 1.403 . S
H2141 C2147 0.930 . S
C2142 H2128 0.930 . S
C2142 C2140 1.395 . S
C2142 C2145 1.403 . S
C2143 C2140 1.403 . S
C2143 C2144 1.524 . S
C2143 C2147 1.400 . S
C2144 H2129 0.960 . S
C2144 H2130 0.960 . S
C2144 H2131 0.960 . S
C2144 C2143 1.524 . S
C2145 C2142 1.403 . S
C2145 C2146 1.392 . S
C2145 C2149 1.495 . S
C2146 C2145 1.392 . S
C2146 C2147 1.385 . S
C2146 C2148 1.478 . S
C2147 H2141 0.930 . S
C2147 C2143 1.400 . S
C2147 C2146 1.385 . S
C2148 C2146 1.478 . S
C2148 C2150 1.381 . S
C2148 C2154 1.383 . S
C2149 C2145 1.495 . S
C2149 H2155 0.959 . S
C2149 H2156 0.961 . S
C2149 H2157 0.960 . S
C2150 C2148 1.381 . S
C2150 C2151 1.394 . S
C2150 H2158 0.930 . S
C2151 C2150 1.394 . S
C2151 C2152 1.383 . S
C2151 H2159 0.929 . S
C2152 C2151 1.383 . S
C2152 C2153 1.377 . S
C2153 H2137 0.930 . S
C2153 C2152 1.377 . S
C2153 C2154 1.379 . S
C2154 H2138 0.931 . S
C2154 C2148 1.383 . S
C2154 C2153 1.379 . S
H2155 C2149 0.959 . S
H2156 C2149 0.961 . S
H2157 C2149 0.960 . S
H2158 C2150 0.930 . S
H2159 C2151 0.929 . S
H2160 C2168 0.929 . S
H2161 C2170 0.930 . S
H2162 C2172 0.930 . S
H2163 C2175 0.929 . S
H2164 C2178 0.930 . S
H2165 C2180 0.960 . S
H2166 C2180 0.960 . S
H2167 C2180 0.960 . S
C2168 H2160 0.929 . S
C2168 C2169 1.377 . S
C2168 C2170 1.384 . S
C2169 C2168 1.377 . S
C2169 C2175 1.390 . S
C2170 H2161 0.930 . S
C2170 C2168 1.384 . S
C2170 C2171 1.372 . S
C2171 C2170 1.372 . S
C2171 C2172 1.400 . S
C2171 C2176 1.490 . S
C2172 H2162 0.930 . S
C2172 C2171 1.400 . S
C2172 C2175 1.386 . S
H2173 C2189 0.930 . S
H2174 C2190 0.931 . S
C2175 H2163 0.929 . S
C2175 C2169 1.390 . S
C2175 C2172 1.386 . S
C2176 C2171 1.490 . S
C2176 C2178 1.395 . S
C2176 C2179 1.403 . S
H2177 C2183 0.930 . S
C2178 H2164 0.930 . S
C2178 C2176 1.395 . S
C2178 C2181 1.403 . S
C2179 C2176 1.403 . S
C2179 C2180 1.524 . S
C2179 C2183 1.400 . S
C2180 H2165 0.960 . S
C2180 H2166 0.960 . S
C2180 H2167 0.960 . S
C2180 C2179 1.524 . S
C2181 C2178 1.403 . S
C2181 C2182 1.392 . S
C2181 C2185 1.495 . S
C2182 C2181 1.392 . S
C2182 C2183 1.385 . S
C2182 C2184 1.478 . S
C2183 H2177 0.930 . S
C2183 C2179 1.400 . S
C2183 C2182 1.385 . S
C2184 C2182 1.478 . S
C2184 C2186 1.381 . S
C2184 C2190 1.383 . S
C2185 C2181 1.495 . S
C2185 H2191 0.959 . S
C2185 H2192 0.961 . S
C2185 H2193 0.960 . S
C2186 C2184 1.381 . S
C2186 C2187 1.394 . S
C2186 H2194 0.930 . S
C2187 C2186 1.394 . S
C2187 C2188 1.383 . S
C2187 H2195 0.929 . S
C2188 C2187 1.383 . S
C2188 C2189 1.377 . S
C2189 H2173 0.930 . S
C2189 C2188 1.377 . S
C2189 C2190 1.379 . S
C2190 H2174 0.931 . S
C2190 C2184 1.383 . S
C2190 C2189 1.379 . S
H2191 C2185 0.959 . S
H2192 C2185 0.961 . S
H2193 C2185 0.960 . S
H2194 C2186 0.930 . S
H2195 C2187 0.929 . S
H2196 C2204 0.929 . S
H2197 C2206 0.930 . S
H2198 C2208 0.930 . S
H2199 C2211 0.929 . S
H2200 C2214 0.930 . S
H2201 C2216 0.960 . S
H2202 C2216 0.960 . S
H2203 C2216 0.960 . S
C2204 H2196 0.929 . S
C2204 C2205 1.377 . S
C2204 C2206 1.384 . S
C2205 C2204 1.377 . S
C2205 C2211 1.390 . S
C2206 H2197 0.930 . S
C2206 C2204 1.384 . S
C2206 C2207 1.372 . S
C2207 C2206 1.372 . S
C2207 C2208 1.400 . S
C2207 C2212 1.490 . S
C2208 H2198 0.930 . S
C2208 C2207 1.400 . S
C2208 C2211 1.386 . S
H2209 C2225 0.930 . S
H2210 C2226 0.931 . S
C2211 H2199 0.929 . S
C2211 C2205 1.390 . S
C2211 C2208 1.386 . S
C2212 C2207 1.490 . S
C2212 C2214 1.395 . S
C2212 C2215 1.403 . S
H2213 C2219 0.930 . S
C2214 H2200 0.930 . S
C2214 C2212 1.395 . S
C2214 C2217 1.403 . S
C2215 C2212 1.403 . S
C2215 C2216 1.524 . S
C2215 C2219 1.400 . S
C2216 H2201 0.960 . S
C2216 H2202 0.960 . S
C2216 H2203 0.960 . S
C2216 C2215 1.524 . S
C2217 C2214 1.403 . S
C2217 C2218 1.392 . S
C2217 C2221 1.495 . S
C2218 C2217 1.392 . S
C2218 C2219 1.385 . S
C2218 C2220 1.478 . S
C2219 H2213 0.930 . S
C2219 C2215 1.400 . S
C2219 C2218 1.385 . S
C2220 C2218 1.478 . S
C2220 C2222 1.381 . S
C2220 C2226 1.383 . S
C2221 C2217 1.495 . S
C2221 H2227 0.959 . S
C2221 H2228 0.961 . S
C2221 H2229 0.960 . S
C2222 C2220 1.381 . S
C2222 C2223 1.394 . S
C2222 H2230 0.930 . S
C2223 C2222 1.394 . S
C2223 C2224 1.383 . S
C2223 H2231 0.929 . S
C2224 C2223 1.383 . S
C2224 C2225 1.377 . S
C2225 H2209 0.930 . S
C2225 C2224 1.377 . S
C2225 C2226 1.379 . S
C2226 H2210 0.931 . S
C2226 C2220 1.383 . S
C2226 C2225 1.379 . S
H2227 C2221 0.959 . S
H2228 C2221 0.961 . S
H2229 C2221 0.960 . S
H2230 C2222 0.930 . S
H2231 C2223 0.929 . S
H2232 C2240 0.929 . S
H2233 C2242 0.930 . S
H2234 C2244 0.930 . S
H2235 C2247 0.929 . S
H2236 C2250 0.930 . S
H2237 C2252 0.960 . S
H2238 C2252 0.960 . S
H2239 C2252 0.960 . S
C2240 H2232 0.929 . S
C2240 C2241 1.377 . S
C2240 C2242 1.384 . S
C2241 C2240 1.377 . S
C2241 C2247 1.390 . S
C2242 H2233 0.930 . S
C2242 C2240 1.384 . S
C2242 C2243 1.372 . S
C2243 C2242 1.372 . S
C2243 C2244 1.400 . S
C2243 C2248 1.490 . S
C2244 H2234 0.930 . S
C2244 C2243 1.400 . S
C2244 C2247 1.386 . S
H2245 C2261 0.930 . S
H2246 C2262 0.931 . S
C2247 H2235 0.929 . S
C2247 C2241 1.390 . S
C2247 C2244 1.386 . S
C2248 C2243 1.490 . S
C2248 C2250 1.395 . S
C2248 C2251 1.403 . S
H2249 C2255 0.930 . S
C2250 H2236 0.930 . S
C2250 C2248 1.395 . S
C2250 C2253 1.403 . S
C2251 C2248 1.403 . S
C2251 C2252 1.524 . S
C2251 C2255 1.400 . S
C2252 H2237 0.960 . S
C2252 H2238 0.960 . S
C2252 H2239 0.960 . S
C2252 C2251 1.524 . S
C2253 C2250 1.403 . S
C2253 C2254 1.392 . S
C2253 C2257 1.495 . S
C2254 C2253 1.392 . S
C2254 C2255 1.385 . S
C2254 C2256 1.478 . S
C2255 H2249 0.930 . S
C2255 C2251 1.400 . S
C2255 C2254 1.385 . S
C2256 C2254 1.478 . S
C2256 C2258 1.381 . S
C2256 C2262 1.383 . S
C2257 C2253 1.495 . S
C2257 H2263 0.959 . S
C2257 H2264 0.961 . S
C2257 H2265 0.960 . S
C2258 C2256 1.381 . S
C2258 C2259 1.394 . S
C2258 H2266 0.930 . S
C2259 C2258 1.394 . S
C2259 C2260 1.383 . S
C2259 H2267 0.929 . S
C2260 C2259 1.383 . S
C2260 C2261 1.377 . S
C2261 H2245 0.930 . S
C2261 C2260 1.377 . S
C2261 C2262 1.379 . S
C2262 H2246 0.931 . S
C2262 C2256 1.383 . S
C2262 C2261 1.379 . S
H2263 C2257 0.959 . S
H2264 C2257 0.961 . S
H2265 C2257 0.960 . S
H2266 C2258 0.930 . S
H2267 C2259 0.929 . S
H2268 C2276 0.929 . S
H2269 C2278 0.930 . S
H2270 C2280 0.930 . S
H2271 C2283 0.929 . S
H2272 C2286 0.930 . S
H2273 C2288 0.960 . S
H2274 C2288 0.960 . S
H2275 C2288 0.960 . S
C2276 H2268 0.929 . S
C2276 C2277 1.377 . S
C2276 C2278 1.384 . S
C2277 C2276 1.377 . S
C2277 C2283 1.390 . S
C2278 H2269 0.930 . S
C2278 C2276 1.384 . S
C2278 C2279 1.372 . S
C2279 C2278 1.372 . S
C2279 C2280 1.400 . S
C2279 C2284 1.490 . S
C2280 H2270 0.930 . S
C2280 C2279 1.400 . S
C2280 C2283 1.386 . S
H2281 C2297 0.930 . S
H2282 C2298 0.931 . S
C2283 H2271 0.929 . S
C2283 C2277 1.390 . S
C2283 C2280 1.386 . S
C2284 C2279 1.490 . S
C2284 C2286 1.395 . S
C2284 C2287 1.403 . S
H2285 C2291 0.930 . S
C2286 H2272 0.930 . S
C2286 C2284 1.395 . S
C2286 C2289 1.403 . S
C2287 C2284 1.403 . S
C2287 C2288 1.524 . S
C2287 C2291 1.400 . S
C2288 H2273 0.960 . S
C2288 H2274 0.960 . S
C2288 H2275 0.960 . S
C2288 C2287 1.524 . S
C2289 C2286 1.403 . S
C2289 C2290 1.392 . S
C2289 C2293 1.495 . S
C2290 C2289 1.392 . S
C2290 C2291 1.385 . S
C2290 C2292 1.478 . S
C2291 H2285 0.930 . S
C2291 C2287 1.400 . S
C2291 C2290 1.385 . S
C2292 C2290 1.478 . S
C2292 C2294 1.381 . S
C2292 C2298 1.383 . S
C2293 C2289 1.495 . S
C2293 H2299 0.959 . S
C2293 H2300 0.961 . S
C2293 H2301 0.960 . S
C2294 C2292 1.381 . S
C2294 C2295 1.394 . S
C2294 H2302 0.930 . S
C2295 C2294 1.394 . S
C2295 C2296 1.383 . S
C2295 H2303 0.929 . S
C2296 C2295 1.383 . S
C2296 C2297 1.377 . S
C2297 H2281 0.930 . S
C2297 C2296 1.377 . S
C2297 C2298 1.379 . S
C2298 H2282 0.931 . S
C2298 C2292 1.383 . S
C2298 C2297 1.379 . S
H2299 C2293 0.959 . S
H2300 C2293 0.961 . S
H2301 C2293 0.960 . S
H2302 C2294 0.930 . S
H2303 C2295 0.929 . S
H2304 C2312 0.929 . S
H2305 C2314 0.930 . S
H2306 C2316 0.930 . S
H2307 C2319 0.929 . S
H2308 C2322 0.930 . S
H2309 C2324 0.960 . S
H2310 C2324 0.960 . S
H2311 C2324 0.960 . S
C2312 H2304 0.929 . S
C2312 C2313 1.377 . S
C2312 C2314 1.384 . S
C2313 C2312 1.377 . S
C2313 C2319 1.390 . S
C2314 H2305 0.930 . S
C2314 C2312 1.384 . S
C2314 C2315 1.372 . S
C2315 C2314 1.372 . S
C2315 C2316 1.400 . S
C2315 C2320 1.490 . S
C2316 H2306 0.930 . S
C2316 C2315 1.400 . S
C2316 C2319 1.386 . S
H2317 C2333 0.930 . S
H2318 C2334 0.931 . S
C2319 H2307 0.929 . S
C2319 C2313 1.390 . S
C2319 C2316 1.386 . S
C2320 C2315 1.490 . S
C2320 C2322 1.395 . S
C2320 C2323 1.403 . S
H2321 C2327 0.930 . S
C2322 H2308 0.930 . S
C2322 C2320 1.395 . S
C2322 C2325 1.403 . S
C2323 C2320 1.403 . S
C2323 C2324 1.524 . S
C2323 C2327 1.400 . S
C2324 H2309 0.960 . S
C2324 H2310 0.960 . S
C2324 H2311 0.960 . S
C2324 C2323 1.524 . S
C2325 C2322 1.403 . S
C2325 C2326 1.392 . S
C2325 C2329 1.495 . S
C2326 C2325 1.392 . S
C2326 C2327 1.385 . S
C2326 C2328 1.478 . S
C2327 H2321 0.930 . S
C2327 C2323 1.400 . S
C2327 C2326 1.385 . S
C2328 C2326 1.478 . S
C2328 C2330 1.381 . S
C2328 C2334 1.383 . S
C2329 C2325 1.495 . S
C2329 H2335 0.959 . S
C2329 H2336 0.961 . S
C2329 H2337 0.960 . S
C2330 C2328 1.381 . S
C2330 C2331 1.394 . S
C2330 H2338 0.930 . S
C2331 C2330 1.394 . S
C2331 C2332 1.383 . S
C2331 H2339 0.929 . S
C2332 C2331 1.383 . S
C2332 C2333 1.377 . S
C2333 H2317 0.930 . S
C2333 C2332 1.377 . S
C2333 C2334 1.379 . S
C2334 H2318 0.931 . S
C2334 C2328 1.383 . S
C2334 C2333 1.379 . S
H2335 C2329 0.959 . S
H2336 C2329 0.961 . S
H2337 C2329 0.960 . S
H2338 C2330 0.930 . S
H2339 C2331 0.929 . S
H2340 C2348 0.929 . S
H2341 C2350 0.930 . S
H2342 C2352 0.930 . S
H2343 C2355 0.929 . S
H2344 C2358 0.930 . S
H2345 C2360 0.960 . S
H2346 C2360 0.960 . S
H2347 C2360 0.960 . S
C2348 H2340 0.929 . S
C2348 C2349 1.377 . S
C2348 C2350 1.384 . S
C2349 C2348 1.377 . S
C2349 C2355 1.390 . S
C2350 H2341 0.930 . S
C2350 C2348 1.384 . S
C2350 C2351 1.372 . S
C2351 C2350 1.372 . S
C2351 C2352 1.400 . S
C2351 C2356 1.490 . S
C2352 H2342 0.930 . S
C2352 C2351 1.400 . S
C2352 C2355 1.386 . S
H2353 C2369 0.930 . S
H2354 C2370 0.931 . S
C2355 H2343 0.929 . S
C2355 C2349 1.390 . S
C2355 C2352 1.386 . S
C2356 C2351 1.490 . S
C2356 C2358 1.395 . S
C2356 C2359 1.403 . S
H2357 C2363 0.930 . S
C2358 H2344 0.930 . S
C2358 C2356 1.395 . S
C2358 C2361 1.403 . S
C2359 C2356 1.403 . S
C2359 C2360 1.524 . S
C2359 C2363 1.400 . S
C2360 H2345 0.960 . S
C2360 H2346 0.960 . S
C2360 H2347 0.960 . S
C2360 C2359 1.524 . S
C2361 C2358 1.403 . S
C2361 C2362 1.392 . S
C2361 C2365 1.495 . S
C2362 C2361 1.392 . S
C2362 C2363 1.385 . S
C2362 C2364 1.478 . S
C2363 H2357 0.930 . S
C2363 C2359 1.400 . S
C2363 C2362 1.385 . S
C2364 C2362 1.478 . S
C2364 C2366 1.381 . S
C2364 C2370 1.383 . S
C2365 C2361 1.495 . S
C2365 H2371 0.959 . S
C2365 H2372 0.961 . S
C2365 H2373 0.960 . S
C2366 C2364 1.381 . S
C2366 C2367 1.394 . S
C2366 H2374 0.930 . S
C2367 C2366 1.394 . S
C2367 C2368 1.383 . S
C2367 H2375 0.929 . S
C2368 C2367 1.383 . S
C2368 C2369 1.377 . S
C2369 H2353 0.930 . S
C2369 C2368 1.377 . S
C2369 C2370 1.379 . S
C2370 H2354 0.931 . S
C2370 C2364 1.383 . S
C2370 C2369 1.379 . S
H2371 C2365 0.959 . S
H2372 C2365 0.961 . S
H2373 C2365 0.960 . S
H2374 C2366 0.930 . S
H2375 C2367 0.929 . S
H2376 C2384 0.929 . S
H2377 C2386 0.930 . S
H2378 C2388 0.930 . S
H2379 C2391 0.929 . S
H2380 C2394 0.930 . S
H2381 C2396 0.960 . S
H2382 C2396 0.960 . S
H2383 C2396 0.960 . S
C2384 H2376 0.929 . S
C2384 C2385 1.377 . S
C2384 C2386 1.384 . S
C2385 C2384 1.377 . S
C2385 C2391 1.390 . S
C2386 H2377 0.930 . S
C2386 C2384 1.384 . S
C2386 C2387 1.372 . S
C2387 C2386 1.372 . S
C2387 C2388 1.400 . S
C2387 C2392 1.490 . S
C2388 H2378 0.930 . S
C2388 C2387 1.400 . S
C2388 C2391 1.386 . S
H2389 C2405 0.930 . S
H2390 C2406 0.931 . S
C2391 H2379 0.929 . S
C2391 C2385 1.390 . S
C2391 C2388 1.386 . S
C2392 C2387 1.490 . S
C2392 C2394 1.395 . S
C2392 C2395 1.403 . S
H2393 C2399 0.930 . S
C2394 H2380 0.930 . S
C2394 C2392 1.395 . S
C2394 C2397 1.403 . S
C2395 C2392 1.403 . S
C2395 C2396 1.524 . S
C2395 C2399 1.400 . S
C2396 H2381 0.960 . S
C2396 H2382 0.960 . S
C2396 H2383 0.960 . S
C2396 C2395 1.524 . S
C2397 C2394 1.403 . S
C2397 C2398 1.392 . S
C2397 C2401 1.495 . S
C2398 C2397 1.392 . S
C2398 C2399 1.385 . S
C2398 C2400 1.478 . S
C2399 H2393 0.930 . S
C2399 C2395 1.400 . S
C2399 C2398 1.385 . S
C2400 C2398 1.478 . S
C2400 C2402 1.381 . S
C2400 C2406 1.383 . S
C2401 C2397 1.495 . S
C2401 H2407 0.959 . S
C2401 H2408 0.961 . S
C2401 H2409 0.960 . S
C2402 C2400 1.381 . S
C2402 C2403 1.394 . S
C2402 H2410 0.930 . S
C2403 C2402 1.394 . S
C2403 C2404 1.383 . S
C2403 H2411 0.929 . S
C2404 C2403 1.383 . S
C2404 C2405 1.377 . S
C2405 H2389 0.930 . S
C2405 C2404 1.377 . S
C2405 C2406 1.379 . S
C2406 H2390 0.931 . S
C2406 C2400 1.383 . S
C2406 C2405 1.379 . S
H2407 C2401 0.959 . S
H2408 C2401 0.961 . S
H2409 C2401 0.960 . S
H2410 C2402 0.930 . S
H2411 C2403 0.929 . S
H2412 C2420 0.929 . S
H2413 C2422 0.930 . S
H2414 C2424 0.930 . S
H2415 C2427 0.929 . S
H2416 C2430 0.930 . S
H2417 C2432 0.960 . S
H2418 C2432 0.960 . S
H2419 C2432 0.960 . S
C2420 H2412 0.929 . S
C2420 C2421 1.377 . S
C2420 C2422 1.384 . S
C2421 C2420 1.377 . S
C2421 C2427 1.390 . S
C2422 H2413 0.930 . S
C2422 C2420 1.384 . S
C2422 C2423 1.372 . S
C2423 C2422 1.372 . S
C2423 C2424 1.400 . S
C2423 C2428 1.490 . S
C2424 H2414 0.930 . S
C2424 C2423 1.400 . S
C2424 C2427 1.386 . S
H2425 C2441 0.930 . S
H2426 C2442 0.931 . S
C2427 H2415 0.929 . S
C2427 C2421 1.390 . S
C2427 C2424 1.386 . S
C2428 C2423 1.490 . S
C2428 C2430 1.395 . S
C2428 C2431 1.403 . S
H2429 C2435 0.930 . S
C2430 H2416 0.930 . S
C2430 C2428 1.395 . S
C2430 C2433 1.403 . S
C2431 C2428 1.403 . S
C2431 C2432 1.524 . S
C2431 C2435 1.400 . S
C2432 H2417 0.960 . S
C2432 H2418 0.960 . S
C2432 H2419 0.960 . S
C2432 C2431 1.524 . S
C2433 C2430 1.403 . S
C2433 C2434 1.392 . S
C2433 C2437 1.495 . S
C2434 C2433 1.392 . S
C2434 C2435 1.385 . S
C2434 C2436 1.478 . S
C2435 H2429 0.930 . S
C2435 C2431 1.400 . S
C2435 C2434 1.385 . S
C2436 C2434 1.478 . S
C2436 C2438 1.381 . S
C2436 C2442 1.383 . S
C2437 C2433 1.495 . S
C2437 H2443 0.959 . S
C2437 H2444 0.961 . S
C2437 H2445 0.960 . S
C2438 C2436 1.381 . S
C2438 C2439 1.394 . S
C2438 H2446 0.930 . S
C2439 C2438 1.394 . S
C2439 C2440 1.383 . S
C2439 H2447 0.929 . S
C2440 C2439 1.383 . S
C2440 C2441 1.377 . S
C2441 H2425 0.930 . S
C2441 C2440 1.377 . S
C2441 C2442 1.379 . S
C2442 H2426 0.931 . S
C2442 C2436 1.383 . S
C2442 C2441 1.379 . S
H2443 C2437 0.959 . S
H2444 C2437 0.961 . S
H2445 C2437 0.960 . S
H2446 C2438 0.930 . S
H2447 C2439 0.929 . S
H2448 C2456 0.929 . S
H2449 C2458 0.930 . S
H2450 C2460 0.930 . S
H2451 C2463 0.929 . S
H2452 C2466 0.930 . S
H2453 C2468 0.960 . S
H2454 C2468 0.960 . S
H2455 C2468 0.960 . S
C2456 H2448 0.929 . S
C2456 C2457 1.377 . S
C2456 C2458 1.384 . S
C2457 C2456 1.377 . S
C2457 C2463 1.390 . S
C2458 H2449 0.930 . S
C2458 C2456 1.384 . S
C2458 C2459 1.372 . S
C2459 C2458 1.372 . S
C2459 C2460 1.400 . S
C2459 C2464 1.490 . S
C2460 H2450 0.930 . S
C2460 C2459 1.400 . S
C2460 C2463 1.386 . S
H2461 C2477 0.930 . S
H2462 C2478 0.931 . S
C2463 H2451 0.929 . S
C2463 C2457 1.390 . S
C2463 C2460 1.386 . S
C2464 C2459 1.490 . S
C2464 C2466 1.395 . S
C2464 C2467 1.403 . S
H2465 C2471 0.930 . S
C2466 H2452 0.930 . S
C2466 C2464 1.395 . S
C2466 C2469 1.403 . S
C2467 C2464 1.403 . S
C2467 C2468 1.524 . S
C2467 C2471 1.400 . S
C2468 H2453 0.960 . S
C2468 H2454 0.960 . S
C2468 H2455 0.960 . S
C2468 C2467 1.524 . S
C2469 C2466 1.403 . S
C2469 C2470 1.392 . S
C2469 C2473 1.495 . S
C2470 C2469 1.392 . S
C2470 C2471 1.385 . S
C2470 C2472 1.478 . S
C2471 H2465 0.930 . S
C2471 C2467 1.400 . S
C2471 C2470 1.385 . S
C2472 C2470 1.478 . S
C2472 C2474 1.381 . S
C2472 C2478 1.383 . S
C2473 C2469 1.495 . S
C2473 H2479 0.959 . S
C2473 H2480 0.961 . S
C2473 H2481 0.960 . S
C2474 C2472 1.381 . S
C2474 C2475 1.394 . S
C2474 H2482 0.930 . S
C2475 C2474 1.394 . S
C2475 C2476 1.383 . S
C2475 H2483 0.929 . S
C2476 C2475 1.383 . S
C2476 C2477 1.377 . S
C2477 H2461 0.930 . S
C2477 C2476 1.377 . S
C2477 C2478 1.379 . S
C2478 H2462 0.931 . S
C2478 C2472 1.383 . S
C2478 C2477 1.379 . S
H2479 C2473 0.959 . S
H2480 C2473 0.961 . S
H2481 C2473 0.960 . S
H2482 C2474 0.930 . S
H2483 C2475 0.929 . S
H2484 C2492 0.929 . S
H2485 C2494 0.930 . S
H2486 C2496 0.930 . S
H2487 C2499 0.929 . S
H2488 C2502 0.930 . S
H2489 C2504 0.960 . S
H2490 C2504 0.960 . S
H2491 C2504 0.960 . S
C2492 H2484 0.929 . S
C2492 C2493 1.377 . S
C2492 C2494 1.384 . S
C2493 C2492 1.377 . S
C2493 C2499 1.390 . S
C2494 H2485 0.930 . S
C2494 C2492 1.384 . S
C2494 C2495 1.372 . S
C2495 C2494 1.372 . S
C2495 C2496 1.400 . S
C2495 C2500 1.490 . S
C2496 H2486 0.930 . S
C2496 C2495 1.400 . S
C2496 C2499 1.386 . S
H2497 C2513 0.930 . S
H2498 C2514 0.931 . S
C2499 H2487 0.929 . S
C2499 C2493 1.390 . S
C2499 C2496 1.386 . S
C2500 C2495 1.490 . S
C2500 C2502 1.395 . S
C2500 C2503 1.403 . S
H2501 C2507 0.930 . S
C2502 H2488 0.930 . S
C2502 C2500 1.395 . S
C2502 C2505 1.403 . S
C2503 C2500 1.403 . S
C2503 C2504 1.524 . S
C2503 C2507 1.400 . S
C2504 H2489 0.960 . S
C2504 H2490 0.960 . S
C2504 H2491 0.960 . S
C2504 C2503 1.524 . S
C2505 C2502 1.403 . S
C2505 C2506 1.392 . S
C2505 C2509 1.495 . S
C2506 C2505 1.392 . S
C2506 C2507 1.385 . S
C2506 C2508 1.478 . S
C2507 H2501 0.930 . S
C2507 C2503 1.400 . S
C2507 C2506 1.385 . S
C2508 C2506 1.478 . S
C2508 C2510 1.381 . S
C2508 C2514 1.383 . S
C2509 C2505 1.495 . S
C2509 H2515 0.959 . S
C2509 H2516 0.961 . S
C2509 H2517 0.960 . S
C2510 C2508 1.381 . S
C2510 C2511 1.394 . S
C2510 H2518 0.930 . S
C2511 C2510 1.394 . S
C2511 C2512 1.383 . S
C2511 H2519 0.929 . S
C2512 C2511 1.383 . S
C2512 C2513 1.377 . S
C2513 H2497 0.930 . S
C2513 C2512 1.377 . S
C2513 C2514 1.379 . S
C2514 H2498 0.931 . S
C2514 C2508 1.383 . S
C2514 C2513 1.379 . S
H2515 C2509 0.959 . S
H2516 C2509 0.961 . S
H2517 C2509 0.960 . S
H2518 C2510 0.930 . S
H2519 C2511 0.929 . S
H2520 C2528 0.929 . S
H2521 C2530 0.930 . S
H2522 C2532 0.930 . S
H2523 C2535 0.929 . S
H2524 C2538 0.930 . S
H2525 C2540 0.960 . S
H2526 C2540 0.960 . S
H2527 C2540 0.960 . S
C2528 H2520 0.929 . S
C2528 C2529 1.377 . S
C2528 C2530 1.384 . S
C2529 C2528 1.377 . S
C2529 C2535 1.390 . S
C2530 H2521 0.930 . S
C2530 C2528 1.384 . S
C2530 C2531 1.372 . S
C2531 C2530 1.372 . S
C2531 C2532 1.400 . S
C2531 C2536 1.490 . S
C2532 H2522 0.930 . S
C2532 C2531 1.400 . S
C2532 C2535 1.386 . S
H2533 C2549 0.930 . S
H2534 C2550 0.931 . S
C2535 H2523 0.929 . S
C2535 C2529 1.390 . S
C2535 C2532 1.386 . S
C2536 C2531 1.490 . S
C2536 C2538 1.395 . S
C2536 C2539 1.403 . S
H2537 C2543 0.930 . S
C2538 H2524 0.930 . S
C2538 C2536 1.395 . S
C2538 C2541 1.403 . S
C2539 C2536 1.403 . S
C2539 C2540 1.524 . S
C2539 C2543 1.400 . S
C2540 H2525 0.960 . S
C2540 H2526 0.960 . S
C2540 H2527 0.960 . S
C2540 C2539 1.524 . S
C2541 C2538 1.403 . S
C2541 C2542 1.392 . S
C2541 C2545 1.495 . S
C2542 C2541 1.392 . S
C2542 C2543 1.385 . S
C2542 C2544 1.478 . S
C2543 H2537 0.930 . S
C2543 C2539 1.400 . S
C2543 C2542 1.385 . S
C2544 C2542 1.478 . S
C2544 C2546 1.381 . S
C2544 C2550 1.383 . S
C2545 C2541 1.495 . S
C2545 H2551 0.959 . S
C2545 H2552 0.961 . S
C2545 H2553 0.960 . S
C2546 C2544 1.381 . S
C2546 C2547 1.394 . S
C2546 H2554 0.930 . S
C2547 C2546 1.394 . S
C2547 C2548 1.383 . S
C2547 H2555 0.929 . S
C2548 C2547 1.383 . S
C2548 C2549 1.377 . S
C2549 H2533 0.930 . S
C2549 C2548 1.377 . S
C2549 C2550 1.379 . S
C2550 H2534 0.931 . S
C2550 C2544 1.383 . S
C2550 C2549 1.379 . S
H2551 C2545 0.959 . S
H2552 C2545 0.961 . S
H2553 C2545 0.960 . S
H2554 C2546 0.930 . S
H2555 C2547 0.929 . S
H2556 C2564 0.929 . S
H2557 C2566 0.930 . S
H2558 C2568 0.930 . S
H2559 C2571 0.929 . S
H2560 C2574 0.930 . S
H2561 C2576 0.960 . S
H2562 C2576 0.960 . S
H2563 C2576 0.960 . S
C2564 H2556 0.929 . S
C2564 C2565 1.377 . S
C2564 C2566 1.384 . S
C2565 C2564 1.377 . S
C2565 C2571 1.390 . S
C2566 H2557 0.930 . S
C2566 C2564 1.384 . S
C2566 C2567 1.372 . S
C2567 C2566 1.372 . S
C2567 C2568 1.400 . S
C2567 C2572 1.490 . S
C2568 H2558 0.930 . S
C2568 C2567 1.400 . S
C2568 C2571 1.386 . S
H2569 C2585 0.930 . S
H2570 C2586 0.931 . S
C2571 H2559 0.929 . S
C2571 C2565 1.390 . S
C2571 C2568 1.386 . S
C2572 C2567 1.490 . S
C2572 C2574 1.395 . S
C2572 C2575 1.403 . S
H2573 C2579 0.930 . S
C2574 H2560 0.930 . S
C2574 C2572 1.395 . S
C2574 C2577 1.403 . S
C2575 C2572 1.403 . S
C2575 C2576 1.524 . S
C2575 C2579 1.400 . S
C2576 H2561 0.960 . S
C2576 H2562 0.960 . S
C2576 H2563 0.960 . S
C2576 C2575 1.524 . S
C2577 C2574 1.403 . S
C2577 C2578 1.392 . S
C2577 C2581 1.495 . S
C2578 C2577 1.392 . S
C2578 C2579 1.385 . S
C2578 C2580 1.478 . S
C2579 H2573 0.930 . S
C2579 C2575 1.400 . S
C2579 C2578 1.385 . S
C2580 C2578 1.478 . S
C2580 C2582 1.381 . S
C2580 C2586 1.383 . S
C2581 C2577 1.495 . S
C2581 H2587 0.959 . S
C2581 H2588 0.961 . S
C2581 H2589 0.960 . S
C2582 C2580 1.381 . S
C2582 C2583 1.394 . S
C2582 H2590 0.930 . S
C2583 C2582 1.394 . S
C2583 C2584 1.383 . S
C2583 H2591 0.929 . S
C2584 C2583 1.383 . S
C2584 C2585 1.377 . S
C2585 H2569 0.930 . S
C2585 C2584 1.377 . S
C2585 C2586 1.379 . S
C2586 H2570 0.931 . S
C2586 C2580 1.383 . S
C2586 C2585 1.379 . S
H2587 C2581 0.959 . S
H2588 C2581 0.961 . S
H2589 C2581 0.960 . S
H2590 C2582 0.930 . S
H2591 C2583 0.929 . S
H2592 C2600 0.929 . S
H2593 C2602 0.930 . S
H2594 C2604 0.930 . S
H2595 C2607 0.929 . S
H2596 C2610 0.930 . S
H2597 C2612 0.960 . S
H2598 C2612 0.960 . S
H2599 C2612 0.960 . S
C2600 H2592 0.929 . S
C2600 C2601 1.377 . S
C2600 C2602 1.384 . S
C2601 C2600 1.377 . S
C2601 C2607 1.390 . S
C2602 H2593 0.930 . S
C2602 C2600 1.384 . S
C2602 C2603 1.372 . S
C2603 C2602 1.372 . S
C2603 C2604 1.400 . S
C2603 C2608 1.490 . S
C2604 H2594 0.930 . S
C2604 C2603 1.400 . S
C2604 C2607 1.386 . S
H2605 C2621 0.930 . S
H2606 C2622 0.931 . S
C2607 H2595 0.929 . S
C2607 C2601 1.390 . S
C2607 C2604 1.386 . S
C2608 C2603 1.490 . S
C2608 C2610 1.395 . S
C2608 C2611 1.403 . S
H2609 C2615 0.930 . S
C2610 H2596 0.930 . S
C2610 C2608 1.395 . S
C2610 C2613 1.403 . S
C2611 C2608 1.403 . S
C2611 C2612 1.524 . S
C2611 C2615 1.400 . S
C2612 H2597 0.960 . S
C2612 H2598 0.960 . S
C2612 H2599 0.960 . S
C2612 C2611 1.524 . S
C2613 C2610 1.403 . S
C2613 C2614 1.392 . S
C2613 C2617 1.495 . S
C2614 C2613 1.392 . S
C2614 C2615 1.385 . S
C2614 C2616 1.478 . S
C2615 H2609 0.930 . S
C2615 C2611 1.400 . S
C2615 C2614 1.385 . S
C2616 C2614 1.478 . S
C2616 C2618 1.381 . S
C2616 C2622 1.383 . S
C2617 C2613 1.495 . S
C2617 H2623 0.959 . S
C2617 H2624 0.961 . S
C2617 H2625 0.960 . S
C2618 C2616 1.381 . S
C2618 C2619 1.394 . S
C2618 H2626 0.930 . S
C2619 C2618 1.394 . S
C2619 C2620 1.383 . S
C2619 H2627 0.929 . S
C2620 C2619 1.383 . S
C2620 C2621 1.377 . S
C2621 H2605 0.930 . S
C2621 C2620 1.377 . S
C2621 C2622 1.379 . S
C2622 H2606 0.931 . S
C2622 C2616 1.383 . S
C2622 C2621 1.379 . S
H2623 C2617 0.959 . S
H2624 C2617 0.961 . S
H2625 C2617 0.960 . S
H2626 C2618 0.930 . S
H2627 C2619 0.929 . S
H2628 C2636 0.929 . S
H2629 C2638 0.930 . S
H2630 C2640 0.930 . S
H2631 C2643 0.929 . S
H2632 C2646 0.930 . S
H2633 C2648 0.960 . S
H2634 C2648 0.960 . S
H2635 C2648 0.960 . S
C2636 H2628 0.929 . S
C2636 C2637 1.377 . S
C2636 C2638 1.384 . S
C2637 C2636 1.377 . S
C2637 C2643 1.390 . S
C2638 H2629 0.930 . S
C2638 C2636 1.384 . S
C2638 C2639 1.372 . S
C2639 C2638 1.372 . S
C2639 C2640 1.400 . S
C2639 C2644 1.490 . S
C2640 H2630 0.930 . S
C2640 C2639 1.400 . S
C2640 C2643 1.386 . S
H2641 C2657 0.930 . S
H2642 C2658 0.931 . S
C2643 H2631 0.929 . S
C2643 C2637 1.390 . S
C2643 C2640 1.386 . S
C2644 C2639 1.490 . S
C2644 C2646 1.395 . S
C2644 C2647 1.403 . S
H2645 C2651 0.930 . S
C2646 H2632 0.930 . S
C2646 C2644 1.395 . S
C2646 C2649 1.403 . S
C2647 C2644 1.403 . S
C2647 C2648 1.524 . S
C2647 C2651 1.400 . S
C2648 H2633 0.960 . S
C2648 H2634 0.960 . S
C2648 H2635 0.960 . S
C2648 C2647 1.524 . S
C2649 C2646 1.403 . S
C2649 C2650 1.392 . S
C2649 C2653 1.495 . S
C2650 C2649 1.392 . S
C2650 C2651 1.385 . S
C2650 C2652 1.478 . S
C2651 H2645 0.930 . S
C2651 C2647 1.400 . S
C2651 C2650 1.385 . S
C2652 C2650 1.478 . S
C2652 C2654 1.381 . S
C2652 C2658 1.383 . S
C2653 C2649 1.495 . S
C2653 H2659 0.959 . S
C2653 H2660 0.961 . S
C2653 H2661 0.960 . S
C2654 C2652 1.381 . S
C2654 C2655 1.394 . S
C2654 H2662 0.930 . S
C2655 C2654 1.394 . S
C2655 C2656 1.383 . S
C2655 H2663 0.929 . S
C2656 C2655 1.383 . S
C2656 C2657 1.377 . S
C2657 H2641 0.930 . S
C2657 C2656 1.377 . S
C2657 C2658 1.379 . S
C2658 H2642 0.931 . S
C2658 C2652 1.383 . S
C2658 C2657 1.379 . S
H2659 C2653 0.959 . S
H2660 C2653 0.961 . S
H2661 C2653 0.960 . S
H2662 C2654 0.930 . S
H2663 C2655 0.929 . S
H2664 C2672 0.929 . S
H2665 C2674 0.930 . S
H2666 C2676 0.930 . S
H2667 C2679 0.929 . S
H2668 C2682 0.930 . S
H2669 C2684 0.960 . S
H2670 C2684 0.960 . S
H2671 C2684 0.960 . S
C2672 H2664 0.929 . S
C2672 C2673 1.377 . S
C2672 C2674 1.384 . S
C2673 C2672 1.377 . S
C2673 C2679 1.390 . S
C2674 H2665 0.930 . S
C2674 C2672 1.384 . S
C2674 C2675 1.372 . S
C2675 C2674 1.372 . S
C2675 C2676 1.400 . S
C2675 C2680 1.490 . S
C2676 H2666 0.930 . S
C2676 C2675 1.400 . S
C2676 C2679 1.386 . S
H2677 C2693 0.930 . S
H2678 C2694 0.931 . S
C2679 H2667 0.929 . S
C2679 C2673 1.390 . S
C2679 C2676 1.386 . S
C2680 C2675 1.490 . S
C2680 C2682 1.395 . S
C2680 C2683 1.403 . S
H2681 C2687 0.930 . S
C2682 H2668 0.930 . S
C2682 C2680 1.395 . S
C2682 C2685 1.403 . S
C2683 C2680 1.403 . S
C2683 C2684 1.524 . S
C2683 C2687 1.400 . S
C2684 H2669 0.960 . S
C2684 H2670 0.960 . S
C2684 H2671 0.960 . S
C2684 C2683 1.524 . S
C2685 C2682 1.403 . S
C2685 C2686 1.392 . S
C2685 C2689 1.495 . S
C2686 C2685 1.392 . S
C2686 C2687 1.385 . S
C2686 C2688 1.478 . S
C2687 H2681 0.930 . S
C2687 C2683 1.400 . S
C2687 C2686 1.385 . S
C2688 C2686 1.478 . S
C2688 C2690 1.381 . S
C2688 C2694 1.383 . S
C2689 C2685 1.495 . S
C2689 H2695 0.959 . S
C2689 H2696 0.961 . S
C2689 H2697 0.960 . S
C2690 C2688 1.381 . S
C2690 C2691 1.394 . S
C2690 H2698 0.930 . S
C2691 C2690 1.394 . S
C2691 C2692 1.383 . S
C2691 H2699 0.929 . S
C2692 C2691 1.383 . S
C2692 C2693 1.377 . S
C2693 H2677 0.930 . S
C2693 C2692 1.377 . S
C2693 C2694 1.379 . S
C2694 H2678 0.931 . S
C2694 C2688 1.383 . S
C2694 C2693 1.379 . S
H2695 C2689 0.959 . S
H2696 C2689 0.961 . S
H2697 C2689 0.960 . S
H2698 C2690 0.930 . S
H2699 C2691 0.929 . S
H2700 C2708 0.929 . S
H2701 C2710 0.930 . S
H2702 C2712 0.930 . S
H2703 C2715 0.929 . S
H2704 C2718 0.930 . S
H2705 C2720 0.960 . S
H2706 C2720 0.960 . S
H2707 C2720 0.960 . S
C2708 H2700 0.929 . S
C2708 C2709 1.377 . S
C2708 C2710 1.384 . S
C2709 C2708 1.377 . S
C2709 C2715 1.390 . S
C2710 H2701 0.930 . S
C2710 C2708 1.384 . S
C2710 C2711 1.372 . S
C2711 C2710 1.372 . S
C2711 C2712 1.400 . S
C2711 C2716 1.490 . S
C2712 H2702 0.930 . S
C2712 C2711 1.400 . S
C2712 C2715 1.386 . S
H2713 C2729 0.930 . S
H2714 C2730 0.931 . S
C2715 H2703 0.929 . S
C2715 C2709 1.390 . S
C2715 C2712 1.386 . S
C2716 C2711 1.490 . S
C2716 C2718 1.395 . S
C2716 C2719 1.403 . S
H2717 C2723 0.930 . S
C2718 H2704 0.930 . S
C2718 C2716 1.395 . S
C2718 C2721 1.403 . S
C2719 C2716 1.403 . S
C2719 C2720 1.524 . S
C2719 C2723 1.400 . S
C2720 H2705 0.960 . S
C2720 H2706 0.960 . S
C2720 H2707 0.960 . S
C2720 C2719 1.524 . S
C2721 C2718 1.403 . S
C2721 C2722 1.392 . S
C2721 C2725 1.495 . S
C2722 C2721 1.392 . S
C2722 C2723 1.385 . S
C2722 C2724 1.478 . S
C2723 H2717 0.930 . S
C2723 C2719 1.400 . S
C2723 C2722 1.385 . S
C2724 C2722 1.478 . S
C2724 C2726 1.381 . S
C2724 C2730 1.383 . S
C2725 C2721 1.495 . S
C2725 H2731 0.959 . S
C2725 H2732 0.961 . S
C2725 H2733 0.960 . S
C2726 C2724 1.381 . S
C2726 C2727 1.394 . S
C2726 H2734 0.930 . S
C2727 C2726 1.394 . S
C2727 C2728 1.383 . S
C2727 H2735 0.929 . S
C2728 C2727 1.383 . S
C2728 C2729 1.377 . S
C2729 H2713 0.930 . S
C2729 C2728 1.377 . S
C2729 C2730 1.379 . S
C2730 H2714 0.931 . S
C2730 C2724 1.383 . S
C2730 C2729 1.379 . S
H2731 C2725 0.959 . S
H2732 C2725 0.961 . S
H2733 C2725 0.960 . S
H2734 C2726 0.930 . S
H2735 C2727 0.929 . S
H2736 C2744 0.929 . S
H2737 C2746 0.930 . S
H2738 C2748 0.930 . S
H2739 C2751 0.929 . S
H2740 C2754 0.930 . S
H2741 C2756 0.960 . S
H2742 C2756 0.960 . S
H2743 C2756 0.960 . S
C2744 H2736 0.929 . S
C2744 C2745 1.377 . S
C2744 C2746 1.384 . S
C2745 C2744 1.377 . S
C2745 C2751 1.390 . S
C2746 H2737 0.930 . S
C2746 C2744 1.384 . S
C2746 C2747 1.372 . S
C2747 C2746 1.372 . S
C2747 C2748 1.400 . S
C2747 C2752 1.490 . S
C2748 H2738 0.930 . S
C2748 C2747 1.400 . S
C2748 C2751 1.386 . S
H2749 C2765 0.930 . S
H2750 C2766 0.931 . S
C2751 H2739 0.929 . S
C2751 C2745 1.390 . S
C2751 C2748 1.386 . S
C2752 C2747 1.490 . S
C2752 C2754 1.395 . S
C2752 C2755 1.403 . S
H2753 C2759 0.930 . S
C2754 H2740 0.930 . S
C2754 C2752 1.395 . S
C2754 C2757 1.403 . S
C2755 C2752 1.403 . S
C2755 C2756 1.524 . S
C2755 C2759 1.400 . S
C2756 H2741 0.960 . S
C2756 H2742 0.960 . S
C2756 H2743 0.960 . S
C2756 C2755 1.524 . S
C2757 C2754 1.403 . S
C2757 C2758 1.392 . S
C2757 C2761 1.495 . S
C2758 C2757 1.392 . S
C2758 C2759 1.385 . S
C2758 C2760 1.478 . S
C2759 H2753 0.930 . S
C2759 C2755 1.400 . S
C2759 C2758 1.385 . S
C2760 C2758 1.478 . S
C2760 C2762 1.381 . S
C2760 C2766 1.383 . S
C2761 C2757 1.495 . S
C2761 H2767 0.959 . S
C2761 H2768 0.961 . S
C2761 H2769 0.960 . S
C2762 C2760 1.381 . S
C2762 C2763 1.394 . S
C2762 H2770 0.930 . S
C2763 C2762 1.394 . S
C2763 C2764 1.383 . S
C2763 H2771 0.929 . S
C2764 C2763 1.383 . S
C2764 C2765 1.377 . S
C2765 H2749 0.930 . S
C2765 C2764 1.377 . S
C2765 C2766 1.379 . S
C2766 H2750 0.931 . S
C2766 C2760 1.383 . S
C2766 C2765 1.379 . S
H2767 C2761 0.959 . S
H2768 C2761 0.961 . S
H2769 C2761 0.960 . S
H2770 C2762 0.930 . S
H2771 C2763 0.929 . S
H2772 C2780 0.929 . S
H2773 C2782 0.930 . S
H2774 C2784 0.930 . S
H2775 C2787 0.929 . S
H2776 C2790 0.930 . S
H2777 C2792 0.960 . S
H2778 C2792 0.960 . S
H2779 C2792 0.960 . S
C2780 H2772 0.929 . S
C2780 C2781 1.377 . S
C2780 C2782 1.384 . S
C2781 C2780 1.377 . S
C2781 C2787 1.390 . S
C2782 H2773 0.930 . S
C2782 C2780 1.384 . S
C2782 C2783 1.372 . S
C2783 C2782 1.372 . S
C2783 C2784 1.400 . S
C2783 C2788 1.490 . S
C2784 H2774 0.930 . S
C2784 C2783 1.400 . S
C2784 C2787 1.386 . S
H2785 C2801 0.930 . S
H2786 C2802 0.931 . S
C2787 H2775 0.929 . S
C2787 C2781 1.390 . S
C2787 C2784 1.386 . S
C2788 C2783 1.490 . S
C2788 C2790 1.395 . S
C2788 C2791 1.403 . S
H2789 C2795 0.930 . S
C2790 H2776 0.930 . S
C2790 C2788 1.395 . S
C2790 C2793 1.403 . S
C2791 C2788 1.403 . S
C2791 C2792 1.524 . S
C2791 C2795 1.400 . S
C2792 H2777 0.960 . S
C2792 H2778 0.960 . S
C2792 H2779 0.960 . S
C2792 C2791 1.524 . S
C2793 C2790 1.403 . S
C2793 C2794 1.392 . S
C2793 C2797 1.495 . S
C2794 C2793 1.392 . S
C2794 C2795 1.385 . S
C2794 C2796 1.478 . S
C2795 H2789 0.930 . S
C2795 C2791 1.400 . S
C2795 C2794 1.385 . S
C2796 C2794 1.478 . S
C2796 C2798 1.381 . S
C2796 C2802 1.383 . S
C2797 C2793 1.495 . S
C2797 H2803 0.959 . S
C2797 H2804 0.961 . S
C2797 H2805 0.960 . S
C2798 C2796 1.381 . S
C2798 C2799 1.394 . S
C2798 H2806 0.930 . S
C2799 C2798 1.394 . S
C2799 C2800 1.383 . S
C2799 H2807 0.929 . S
C2800 C2799 1.383 . S
C2800 C2801 1.377 . S
C2801 H2785 0.930 . S
C2801 C2800 1.377 . S
C2801 C2802 1.379 . S
C2802 H2786 0.931 . S
C2802 C2796 1.383 . S
C2802 C2801 1.379 . S
H2803 C2797 0.959 . S
H2804 C2797 0.961 . S
H2805 C2797 0.960 . S
H2806 C2798 0.930 . S
H2807 C2799 0.929 . S
H2808 C2816 0.929 . S
H2809 C2818 0.930 . S
H2810 C2820 0.930 . S
H2811 C2823 0.929 . S
H2812 C2826 0.930 . S
H2813 C2828 0.960 . S
H2814 C2828 0.960 . S
H2815 C2828 0.960 . S
C2816 H2808 0.929 . S
C2816 C2817 1.377 . S
C2816 C2818 1.384 . S
C2817 C2816 1.377 . S
C2817 C2823 1.390 . S
C2818 H2809 0.930 . S
C2818 C2816 1.384 . S
C2818 C2819 1.372 . S
C2819 C2818 1.372 . S
C2819 C2820 1.400 . S
C2819 C2824 1.490 . S
C2820 H2810 0.930 . S
C2820 C2819 1.400 . S
C2820 C2823 1.386 . S
H2821 C2837 0.930 . S
H2822 C2838 0.931 . S
C2823 H2811 0.929 . S
C2823 C2817 1.390 . S
C2823 C2820 1.386 . S
C2824 C2819 1.490 . S
C2824 C2826 1.395 . S
C2824 C2827 1.403 . S
H2825 C2831 0.930 . S
C2826 H2812 0.930 . S
C2826 C2824 1.395 . S
C2826 C2829 1.403 . S
C2827 C2824 1.403 . S
C2827 C2828 1.524 . S
C2827 C2831 1.400 . S
C2828 H2813 0.960 . S
C2828 H2814 0.960 . S
C2828 H2815 0.960 . S
C2828 C2827 1.524 . S
C2829 C2826 1.403 . S
C2829 C2830 1.392 . S
C2829 C2833 1.495 . S
C2830 C2829 1.392 . S
C2830 C2831 1.385 . S
C2830 C2832 1.478 . S
C2831 H2825 0.930 . S
C2831 C2827 1.400 . S
C2831 C2830 1.385 . S
C2832 C2830 1.478 . S
C2832 C2834 1.381 . S
C2832 C2838 1.383 . S
C2833 C2829 1.495 . S
C2833 H2839 0.959 . S
C2833 H2840 0.961 . S
C2833 H2841 0.960 . S
C2834 C2832 1.381 . S
C2834 C2835 1.394 . S
C2834 H2842 0.930 . S
C2835 C2834 1.394 . S
C2835 C2836 1.383 . S
C2835 H2843 0.929 . S
C2836 C2835 1.383 . S
C2836 C2837 1.377 . S
C2837 H2821 0.930 . S
C2837 C2836 1.377 . S
C2837 C2838 1.379 . S
C2838 H2822 0.931 . S
C2838 C2832 1.383 . S
C2838 C2837 1.379 . S
H2839 C2833 0.959 . S
H2840 C2833 0.961 . S
H2841 C2833 0.960 . S
H2842 C2834 0.930 . S
H2843 C2835 0.929 . S
H2844 C2852 0.929 . S
H2845 C2854 0.930 . S
H2846 C2856 0.930 . S
H2847 C2859 0.929 . S
H2848 C2862 0.930 . S
H2849 C2864 0.960 . S
H2850 C2864 0.960 . S
H2851 C2864 0.960 . S
C2852 H2844 0.929 . S
C2852 C2853 1.377 . S
C2852 C2854 1.384 . S
C2853 C2852 1.377 . S
C2853 C2859 1.390 . S
C2854 H2845 0.930 . S
C2854 C2852 1.384 . S
C2854 C2855 1.372 . S
C2855 C2854 1.372 . S
C2855 C2856 1.400 . S
C2855 C2860 1.490 . S
C2856 H2846 0.930 . S
C2856 C2855 1.400 . S
C2856 C2859 1.386 . S
H2857 C2873 0.930 . S
H2858 C2874 0.931 . S
C2859 H2847 0.929 . S
C2859 C2853 1.390 . S
C2859 C2856 1.386 . S
C2860 C2855 1.490 . S
C2860 C2862 1.395 . S
C2860 C2863 1.403 . S
H2861 C2867 0.930 . S
C2862 H2848 0.930 . S
C2862 C2860 1.395 . S
C2862 C2865 1.403 . S
C2863 C2860 1.403 . S
C2863 C2864 1.524 . S
C2863 C2867 1.400 . S
C2864 H2849 0.960 . S
C2864 H2850 0.960 . S
C2864 H2851 0.960 . S
C2864 C2863 1.524 . S
C2865 C2862 1.403 . S
C2865 C2866 1.392 . S
C2865 C2869 1.495 . S
C2866 C2865 1.392 . S
C2866 C2867 1.385 . S
C2866 C2868 1.478 . S
C2867 H2861 0.930 . S
C2867 C2863 1.400 . S
C2867 C2866 1.385 . S
C2868 C2866 1.478 . S
C2868 C2870 1.381 . S
C2868 C2874 1.383 . S
C2869 C2865 1.495 . S
C2869 H2875 0.959 . S
C2869 H2876 0.961 . S
C2869 H2877 0.960 . S
C2870 C2868 1.381 . S
C2870 C2871 1.394 . S
C2870 H2878 0.930 . S
C2871 C2870 1.394 . S
C2871 C2872 1.383 . S
C2871 H2879 0.929 . S
C2872 C2871 1.383 . S
C2872 C2873 1.377 . S
C2873 H2857 0.930 . S
C2873 C2872 1.377 . S
C2873 C2874 1.379 . S
C2874 H2858 0.931 . S
C2874 C2868 1.383 . S
C2874 C2873 1.379 . S
H2875 C2869 0.959 . S
H2876 C2869 0.961 . S
H2877 C2869 0.960 . S
H2878 C2870 0.930 . S
H2879 C2871 0.929 . S
H2880 C2888 0.929 . S
H2881 C2890 0.930 . S
H2882 C2892 0.930 . S
H2883 C2895 0.929 . S
H2884 C2898 0.930 . S
H2885 C2900 0.960 . S
H2886 C2900 0.960 . S
H2887 C2900 0.960 . S
C2888 H2880 0.929 . S
C2888 C2889 1.377 . S
C2888 C2890 1.384 . S
C2889 C2888 1.377 . S
C2889 C2895 1.390 . S
C2890 H2881 0.930 . S
C2890 C2888 1.384 . S
C2890 C2891 1.372 . S
C2891 C2890 1.372 . S
C2891 C2892 1.400 . S
C2891 C2896 1.490 . S
C2892 H2882 0.930 . S
C2892 C2891 1.400 . S
C2892 C2895 1.386 . S
H2893 C2909 0.930 . S
H2894 C2910 0.931 . S
C2895 H2883 0.929 . S
C2895 C2889 1.390 . S
C2895 C2892 1.386 . S
C2896 C2891 1.490 . S
C2896 C2898 1.395 . S
C2896 C2899 1.403 . S
H2897 C2903 0.930 . S
C2898 H2884 0.930 . S
C2898 C2896 1.395 . S
C2898 C2901 1.403 . S
C2899 C2896 1.403 . S
C2899 C2900 1.524 . S
C2899 C2903 1.400 . S
C2900 H2885 0.960 . S
C2900 H2886 0.960 . S
C2900 H2887 0.960 . S
C2900 C2899 1.524 . S
C2901 C2898 1.403 . S
C2901 C2902 1.392 . S
C2901 C2905 1.495 . S
C2902 C2901 1.392 . S
C2902 C2903 1.385 . S
C2902 C2904 1.478 . S
C2903 H2897 0.930 . S
C2903 C2899 1.400 . S
C2903 C2902 1.385 . S
C2904 C2902 1.478 . S
C2904 C2906 1.381 . S
C2904 C2910 1.383 . S
C2905 C2901 1.495 . S
C2905 H2911 0.959 . S
C2905 H2912 0.961 . S
C2905 H2913 0.960 . S
C2906 C2904 1.381 . S
C2906 C2907 1.394 . S
C2906 H2914 0.930 . S
C2907 C2906 1.394 . S
C2907 C2908 1.383 . S
C2907 H2915 0.929 . S
C2908 C2907 1.383 . S
C2908 C2909 1.377 . S
C2909 H2893 0.930 . S
C2909 C2908 1.377 . S
C2909 C2910 1.379 . S
C2910 H2894 0.931 . S
C2910 C2904 1.383 . S
C2910 C2909 1.379 . S
H2911 C2905 0.959 . S
H2912 C2905 0.961 . S
H2913 C2905 0.960 . S
H2914 C2906 0.930 . S
H2915 C2907 0.929 . S
H2916 C2924 0.929 . S
H2917 C2926 0.930 . S
H2918 C2928 0.930 . S
H2919 C2931 0.929 . S
H2920 C2934 0.930 . S
H2921 C2936 0.960 . S
H2922 C2936 0.960 . S
H2923 C2936 0.960 . S
C2924 H2916 0.929 . S
C2924 C2925 1.377 . S
C2924 C2926 1.384 . S
C2925 C2924 1.377 . S
C2925 C2931 1.390 . S
C2926 H2917 0.930 . S
C2926 C2924 1.384 . S
C2926 C2927 1.372 . S
C2927 C2926 1.372 . S
C2927 C2928 1.400 . S
C2927 C2932 1.490 . S
C2928 H2918 0.930 . S
C2928 C2927 1.400 . S
C2928 C2931 1.386 . S
H2929 C2945 0.930 . S
H2930 C2946 0.931 . S
C2931 H2919 0.929 . S
C2931 C2925 1.390 . S
C2931 C2928 1.386 . S
C2932 C2927 1.490 . S
C2932 C2934 1.395 . S
C2932 C2935 1.403 . S
H2933 C2939 0.930 . S
C2934 H2920 0.930 . S
C2934 C2932 1.395 . S
C2934 C2937 1.403 . S
C2935 C2932 1.403 . S
C2935 C2936 1.524 . S
C2935 C2939 1.400 . S
C2936 H2921 0.960 . S
C2936 H2922 0.960 . S
C2936 H2923 0.960 . S
C2936 C2935 1.524 . S
C2937 C2934 1.403 . S
C2937 C2938 1.392 . S
C2937 C2941 1.495 . S
C2938 C2937 1.392 . S
C2938 C2939 1.385 . S
C2938 C2940 1.478 . S
C2939 H2933 0.930 . S
C2939 C2935 1.400 . S
C2939 C2938 1.385 . S
C2940 C2938 1.478 . S
C2940 C2942 1.381 . S
C2940 C2946 1.383 . S
C2941 C2937 1.495 . S
C2941 H2947 0.959 . S
C2941 H2948 0.961 . S
C2941 H2949 0.960 . S
C2942 C2940 1.381 . S
C2942 C2943 1.394 . S
C2942 H2950 0.930 . S
C2943 C2942 1.394 . S
C2943 C2944 1.383 . S
C2943 H2951 0.929 . S
C2944 C2943 1.383 . S
C2944 C2945 1.377 . S
C2945 H2929 0.930 . S
C2945 C2944 1.377 . S
C2945 C2946 1.379 . S
C2946 H2930 0.931 . S
C2946 C2940 1.383 . S
C2946 C2945 1.379 . S
H2947 C2941 0.959 . S
H2948 C2941 0.961 . S
H2949 C2941 0.960 . S
H2950 C2942 0.930 . S
H2951 C2943 0.929 . S
H2952 C2960 0.929 . S
H2953 C2962 0.930 . S
H2954 C2964 0.930 . S
H2955 C2967 0.929 . S
H2956 C2970 0.930 . S
H2957 C2972 0.960 . S
H2958 C2972 0.960 . S
H2959 C2972 0.960 . S
C2960 H2952 0.929 . S
C2960 C2961 1.377 . S
C2960 C2962 1.384 . S
C2961 C2960 1.377 . S
C2961 C2967 1.390 . S
C2962 H2953 0.930 . S
C2962 C2960 1.384 . S
C2962 C2963 1.372 . S
C2963 C2962 1.372 . S
C2963 C2964 1.400 . S
C2963 C2968 1.490 . S
C2964 H2954 0.930 . S
C2964 C2963 1.400 . S
C2964 C2967 1.386 . S
H2965 C2981 0.930 . S
H2966 C2982 0.931 . S
C2967 H2955 0.929 . S
C2967 C2961 1.390 . S
C2967 C2964 1.386 . S
C2968 C2963 1.490 . S
C2968 C2970 1.395 . S
C2968 C2971 1.403 . S
H2969 C2975 0.930 . S
C2970 H2956 0.930 . S
C2970 C2968 1.395 . S
C2970 C2973 1.403 . S
C2971 C2968 1.403 . S
C2971 C2972 1.524 . S
C2971 C2975 1.400 . S
C2972 H2957 0.960 . S
C2972 H2958 0.960 . S
C2972 H2959 0.960 . S
C2972 C2971 1.524 . S
C2973 C2970 1.403 . S
C2973 C2974 1.392 . S
C2973 C2977 1.495 . S
C2974 C2973 1.392 . S
C2974 C2975 1.385 . S
C2974 C2976 1.478 . S
C2975 H2969 0.930 . S
C2975 C2971 1.400 . S
C2975 C2974 1.385 . S
C2976 C2974 1.478 . S
C2976 C2978 1.381 . S
C2976 C2982 1.383 . S
C2977 C2973 1.495 . S
C2977 H2983 0.959 . S
C2977 H2984 0.961 . S
C2977 H2985 0.960 . S
C2978 C2976 1.381 . S
C2978 C2979 1.394 . S
C2978 H2986 0.930 . S
C2979 C2978 1.394 . S
C2979 C2980 1.383 . S
C2979 H2987 0.929 . S
C2980 C2979 1.383 . S
C2980 C2981 1.377 . S
C2981 H2965 0.930 . S
C2981 C2980 1.377 . S
C2981 C2982 1.379 . S
C2982 H2966 0.931 . S
C2982 C2976 1.383 . S
C2982 C2981 1.379 . S
H2983 C2977 0.959 . S
H2984 C2977 0.961 . S
H2985 C2977 0.960 . S
H2986 C2978 0.930 . S
H2987 C2979 0.929 . S
H2988 C2996 0.929 . S
H2989 C2998 0.925 1_554 S
H2990 C3000 0.930 . S
H2991 C3003 0.929 . S
H2992 C3006 0.930 . S
H2993 C3008 0.960 . S
H2994 C3008 0.960 . S
H2995 C3008 0.960 . S
C2996 H2988 0.929 . S
C2996 C2997 1.377 1_554 S
C2996 C2998 1.379 1_554 S
C2997 C2996 1.377 1_556 S
C2997 C3003 1.391 . S
C2998 H2989 0.925 1_556 S
C2998 C2996 1.379 1_556 S
C2998 C2999 1.382 . S
C2999 C2998 1.382 . S
C2999 C3000 1.400 . S
C2999 C3004 1.490 . S
C3000 H2990 0.930 . S
C3000 C2999 1.400 . S
C3000 C3003 1.386 . S
H3001 C3017 0.930 . S
H3002 C3018 0.931 . S
C3003 H2991 0.929 . S
C3003 C2997 1.391 . S
C3003 C3000 1.386 . S
C3004 C2999 1.490 . S
C3004 C3006 1.395 . S
C3004 C3007 1.403 . S
H3005 C3011 0.930 . S
C3006 H2992 0.930 . S
C3006 C3004 1.395 . S
C3006 C3009 1.403 . S
C3007 C3004 1.403 . S
C3007 C3008 1.524 . S
C3007 C3011 1.400 . S
C3008 H2993 0.960 . S
C3008 H2994 0.960 . S
C3008 H2995 0.960 . S
C3008 C3007 1.524 . S
C3009 C3006 1.403 . S
C3009 C3010 1.392 . S
C3009 C3013 1.495 . S
C3010 C3009 1.392 . S
C3010 C3011 1.385 . S
C3010 C3012 1.478 . S
C3011 H3005 0.930 . S
C3011 C3007 1.400 . S
C3011 C3010 1.385 . S
C3012 C3010 1.478 . S
C3012 C3014 1.381 . S
C3012 C3018 1.383 . S
C3013 C3009 1.495 . S
C3013 H3019 0.959 . S
C3013 H3020 0.961 . S
C3013 H3021 0.960 . S
C3014 C3012 1.381 . S
C3014 C3015 1.394 . S
C3014 H3022 0.930 . S
C3015 C3014 1.394 . S
C3015 C3016 1.383 . S
C3015 H3023 0.929 . S
C3016 C3015 1.383 . S
C3016 C3017 1.377 . S
C3017 H3001 0.930 . S
C3017 C3016 1.377 . S
C3017 C3018 1.379 . S
C3018 H3002 0.931 . S
C3018 C3012 1.383 . S
C3018 C3017 1.379 . S
H3019 C3013 0.959 . S
H3020 C3013 0.961 . S
H3021 C3013 0.960 . S
H3022 C3014 0.930 . S
H3023 C3015 0.929 . S
H3024 C3032 0.929 1_554 S
H3025 C3034 0.930 . S
H3026 C3036 0.930 . S
H3027 C3039 0.929 . S
H3028 C3042 0.930 . S
H3029 C3044 0.960 . S
H3030 C3044 0.960 . S
H3031 C3044 0.960 . S
C3032 H3024 0.929 1_556 S
C3032 C3033 1.377 . S
C3032 C3034 1.384 . S
C3033 C3032 1.377 . S
C3033 C3039 1.390 . S
C3034 H3025 0.930 . S
C3034 C3032 1.384 . S
C3034 C3035 1.372 . S
C3035 C3034 1.372 . S
C3035 C3036 1.400 . S
C3035 C3040 1.490 . S
C3036 H3026 0.930 . S
C3036 C3035 1.400 . S
C3036 C3039 1.386 . S
H3037 C3053 0.930 . S
H3038 C3054 0.931 . S
C3039 H3027 0.929 . S
C3039 C3033 1.390 . S
C3039 C3036 1.386 . S
C3040 C3035 1.490 . S
C3040 C3042 1.395 . S
C3040 C3043 1.403 . S
H3041 C3047 0.930 . S
C3042 H3028 0.930 . S
C3042 C3040 1.395 . S
C3042 C3045 1.403 . S
C3043 C3040 1.403 . S
C3043 C3044 1.524 . S
C3043 C3047 1.400 . S
C3044 H3029 0.960 . S
C3044 H3030 0.960 . S
C3044 H3031 0.960 . S
C3044 C3043 1.524 . S
C3045 C3042 1.403 . S
C3045 C3046 1.392 . S
C3045 C3049 1.495 . S
C3046 C3045 1.392 . S
C3046 C3047 1.385 . S
C3046 C3048 1.478 . S
C3047 H3041 0.930 . S
C3047 C3043 1.400 . S
C3047 C3046 1.385 . S
C3048 C3046 1.478 . S
C3048 C3050 1.381 . S
C3048 C3054 1.383 . S
C3049 C3045 1.495 . S
C3049 H3055 0.959 . S
C3049 H3056 0.961 . S
C3049 H3057 0.960 . S
C3050 C3048 1.381 . S
C3050 C3051 1.394 . S
C3050 H3058 0.930 . S
C3051 C3050 1.394 . S
C3051 C3052 1.383 . S
C3051 H3059 0.929 . S
C3052 C3051 1.383 . S
C3052 C3053 1.377 . S
C3053 H3037 0.930 . S
C3053 C3052 1.377 . S
C3053 C3054 1.379 . S
C3054 H3038 0.931 . S
C3054 C3048 1.383 . S
C3054 C3053 1.379 . S
H3055 C3049 0.959 . S
H3056 C3049 0.961 . S
H3057 C3049 0.960 . S
H3058 C3050 0.930 . S
H3059 C3051 0.929 . S
H3060 C3068 0.929 . S
H3061 C3070 0.930 . S
H3062 C3072 0.930 1_556 S
H3063 C3075 0.929 . S
H3064 C3078 0.930 . S
H3065 C3080 0.960 . S
H3066 C3080 0.961 . S
H3067 C3080 0.960 . S
C3068 H3060 0.929 . S
C3068 C3069 1.377 . S
C3068 C3070 1.384 . S
C3069 C3068 1.377 . S
C3069 C3075 1.390 . S
C3070 H3061 0.930 . S
C3070 C3068 1.384 . S
C3070 C3071 1.372 . S
C3071 C3070 1.372 . S
C3071 C3072 1.400 . S
C3071 C3076 1.490 . S
C3072 H3062 0.930 1_554 S
C3072 C3071 1.400 . S
C3072 C3075 1.386 . S
H3073 C3089 0.930 . S
H3074 C3090 0.931 . S
C3075 H3063 0.929 . S
C3075 C3069 1.390 . S
C3075 C3072 1.386 . S
C3076 C3071 1.490 . S
C3076 C3078 1.395 . S
C3076 C3079 1.403 1_554 S
H3077 C3083 0.930 . S
C3078 H3064 0.930 . S
C3078 C3076 1.395 . S
C3078 C3081 1.403 . S
C3079 C3076 1.403 1_556 S
C3079 C3080 1.524 . S
C3079 C3083 1.400 . S
C3080 H3065 0.960 . S
C3080 H3066 0.961 . S
C3080 H3067 0.960 . S
C3080 C3079 1.524 . S
C3081 C3078 1.403 . S
C3081 C3082 1.392 1_554 S
C3081 C3085 1.495 . S
C3082 C3081 1.392 1_556 S
C3082 C3083 1.385 . S
C3082 C3084 1.478 . S
C3083 H3077 0.930 . S
C3083 C3079 1.400 . S
C3083 C3082 1.385 . S
C3084 C3082 1.478 . S
C3084 C3086 1.381 . S
C3084 C3090 1.383 . S
C3085 C3081 1.495 . S
C3085 H3091 0.959 . S
C3085 H3092 0.961 1_554 S
C3085 H3093 0.960 . S
C3086 C3084 1.381 . S
C3086 C3087 1.394 . S
C3086 H3094 0.930 . S
C3087 C3086 1.394 . S
C3087 C3088 1.383 . S
C3087 H3095 0.929 . S
C3088 C3087 1.383 . S
C3088 C3089 1.377 . S
C3089 H3073 0.930 . S
C3089 C3088 1.377 . S
C3089 C3090 1.379 . S
C3090 H3074 0.931 . S
C3090 C3084 1.383 . S
C3090 C3089 1.379 . S
H3091 C3085 0.959 . S
H3092 C3085 0.961 1_556 S
H3093 C3085 0.960 . S
H3094 C3086 0.930 . S
H3095 C3087 0.929 . S
H3096 C3104 0.929 . S
H3097 C3106 0.930 . S
H3098 C3108 0.930 . S
H3099 C3111 0.929 . S
H3100 C3114 0.930 . S
H3101 C3116 0.960 . S
H3102 C3116 0.960 . S
H3103 C3116 0.960 . S
C3104 H3096 0.929 . S
C3104 C3105 1.377 . S
C3104 C3106 1.384 . S
C3105 C3104 1.377 . S
C3105 C3111 1.390 1_554 S
C3106 H3097 0.930 . S
C3106 C3104 1.384 . S
C3106 C3107 1.372 1_554 S
C3107 C3106 1.372 1_556 S
C3107 C3108 1.400 . S
C3107 C3112 1.490 . S
C3108 H3098 0.930 . S
C3108 C3107 1.400 . S
C3108 C3111 1.386 . S
H3109 C3125 0.930 . S
H3110 C3126 0.931 . S
C3111 H3099 0.929 . S
C3111 C3105 1.390 1_556 S
C3111 C3108 1.386 . S
C3112 C3107 1.490 . S
C3112 C3114 1.395 . S
C3112 C3115 1.403 . S
H3113 C3119 0.930 . S
C3114 H3100 0.930 . S
C3114 C3112 1.395 . S
C3114 C3117 1.403 . S
C3115 C3112 1.403 . S
C3115 C3116 1.524 . S
C3115 C3119 1.400 . S
C3116 H3101 0.960 . S
C3116 H3102 0.960 . S
C3116 H3103 0.960 . S
C3116 C3115 1.524 . S
C3117 C3114 1.403 . S
C3117 C3118 1.392 . S
C3117 C3121 1.495 . S
C3118 C3117 1.392 . S
C3118 C3119 1.385 . S
C3118 C3120 1.478 . S
C3119 H3113 0.930 . S
C3119 C3115 1.400 . S
C3119 C3118 1.385 . S
C3120 C3118 1.478 . S
C3120 C3122 1.381 . S
C3120 C3126 1.383 . S
C3121 C3117 1.495 . S
C3121 H3127 0.959 . S
C3121 H3128 0.961 . S
C3121 H3129 0.960 . S
C3122 C3120 1.381 . S
C3122 C3123 1.394 . S
C3122 H3130 0.930 . S
C3123 C3122 1.394 . S
C3123 C3124 1.383 . S
C3123 H3131 0.929 . S
C3124 C3123 1.383 . S
C3124 C3125 1.377 . S
C3125 H3109 0.930 . S
C3125 C3124 1.377 . S
C3125 C3126 1.379 . S
C3126 H3110 0.931 . S
C3126 C3120 1.383 . S
C3126 C3125 1.379 . S
H3127 C3121 0.959 . S
H3128 C3121 0.961 . S
H3129 C3121 0.960 . S
H3130 C3122 0.930 . S
H3131 C3123 0.929 . S
H3132 C3140 0.929 . S
H3133 C3142 0.930 . S
H3134 C3144 0.930 . S
H3135 C3147 0.929 . S
H3136 C3150 0.930 . S
H3137 C3152 0.960 . S
H3138 C3152 0.960 . S
H3139 C3152 0.960 . S
C3140 H3132 0.929 . S
C3140 C3141 1.377 . S
C3140 C3142 1.384 . S
C3141 C3140 1.377 . S
C3141 C3147 1.390 . S
C3142 H3133 0.930 . S
C3142 C3140 1.384 . S
C3142 C3143 1.372 . S
C3143 C3142 1.372 . S
C3143 C3144 1.400 . S
C3143 C3148 1.490 . S
C3144 H3134 0.930 . S
C3144 C3143 1.400 . S
C3144 C3147 1.386 . S
H3145 C3161 0.930 . S
H3146 C3162 0.931 . S
C3147 H3135 0.929 . S
C3147 C3141 1.390 . S
C3147 C3144 1.386 . S
C3148 C3143 1.490 . S
C3148 C3150 1.395 . S
C3148 C3151 1.403 . S
H3149 C3155 0.930 . S
C3150 H3136 0.930 . S
C3150 C3148 1.395 . S
C3150 C3153 1.403 . S
C3151 C3148 1.403 . S
C3151 C3152 1.524 . S
C3151 C3155 1.400 . S
C3152 H3137 0.960 . S
C3152 H3138 0.960 . S
C3152 H3139 0.960 . S
C3152 C3151 1.524 . S
C3153 C3150 1.403 . S
C3153 C3154 1.392 . S
C3153 C3157 1.495 . S
C3154 C3153 1.392 . S
C3154 C3155 1.385 . S
C3154 C3156 1.478 . S
C3155 H3149 0.930 . S
C3155 C3151 1.400 . S
C3155 C3154 1.385 . S
C3156 C3154 1.478 . S
C3156 C3158 1.381 . S
C3156 C3162 1.383 . S
C3157 C3153 1.495 . S
C3157 H3163 0.959 . S
C3157 H3164 0.961 . S
C3157 H3165 0.960 . S
C3158 C3156 1.381 . S
C3158 C3159 1.394 . S
C3158 H3166 0.930 . S
C3159 C3158 1.394 . S
C3159 C3160 1.383 . S
C3159 H3167 0.929 . S
C3160 C3159 1.383 . S
C3160 C3161 1.377 . S
C3161 H3145 0.930 . S
C3161 C3160 1.377 . S
C3161 C3162 1.379 . S
C3162 H3146 0.931 . S
C3162 C3156 1.383 . S
C3162 C3161 1.379 . S
H3163 C3157 0.959 . S
H3164 C3157 0.961 . S
H3165 C3157 0.960 . S
H3166 C3158 0.930 . S
H3167 C3159 0.929 . S
H3168 C3176 0.929 . S
H3169 C3178 0.930 . S
H3170 C3180 0.930 . S
H3171 C3183 0.938 . S
H3172 C3186 0.930 . S
H3173 C3188 0.960 . S
H3174 C3188 0.960 . S
H3175 C3188 0.960 . S
C3176 H3168 0.929 . S
C3176 C3177 1.377 . S
C3176 C3178 1.384 . S
C3177 C3176 1.377 . S
C3177 C3183 1.390 . S
C3178 H3169 0.930 . S
C3178 C3176 1.384 . S
C3178 C3179 1.372 . S
C3179 C3178 1.372 . S
C3179 C3180 1.400 1_554 S
C3179 C3184 1.490 1_554 S
C3180 H3170 0.930 . S
C3180 C3179 1.400 1_556 S
C3180 C3183 1.386 1_556 S
H3181 C3197 0.930 . S
H3182 C3198 0.931 . S
C3183 H3171 0.938 . S
C3183 C3177 1.390 . S
C3183 C3180 1.386 1_554 S
C3184 C3179 1.490 1_556 S
C3184 C3186 1.395 1_556 S
C3184 C3187 1.403 . S
H3185 C3191 0.930 . S
C3186 H3172 0.930 . S
C3186 C3184 1.395 1_554 S
C3186 C3189 1.403 1_554 S
C3187 C3184 1.403 . S
C3187 C3188 1.524 . S
C3187 C3191 1.400 . S
C3188 H3173 0.960 . S
C3188 H3174 0.960 . S
C3188 H3175 0.960 . S
C3188 C3187 1.524 . S
C3189 C3186 1.403 1_556 S
C3189 C3190 1.392 . S
C3189 C3193 1.495 1_556 S
C3190 C3189 1.392 . S
C3190 C3191 1.385 . S
C3190 C3192 1.478 . S
C3191 H3185 0.930 . S
C3191 C3187 1.400 . S
C3191 C3190 1.385 . S
C3192 C3190 1.478 . S
C3192 C3194 1.381 . S
C3192 C3198 1.383 . S
C3193 C3189 1.495 1_554 S
C3193 H3199 0.959 . S
C3193 H3200 0.957 1_554 S
C3193 H3201 0.960 . S
C3194 C3192 1.381 . S
C3194 C3195 1.394 . S
C3194 H3202 0.930 . S
C3195 C3194 1.394 . S
C3195 C3196 1.383 . S
C3195 H3203 0.929 . S
C3196 C3195 1.383 . S
C3196 C3197 1.377 . S
C3197 H3181 0.930 . S
C3197 C3196 1.377 . S
C3197 C3198 1.379 . S
C3198 H3182 0.931 . S
C3198 C3192 1.383 . S
C3198 C3197 1.379 . S
H3199 C3193 0.959 . S
H3200 C3193 0.957 1_556 S
H3201 C3193 0.960 . S
H3202 C3194 0.930 . S
H3203 C3195 0.929 . S
H3204 C3212 0.929 . S
H3205 C3214 0.930 . S
H3206 C3216 0.930 . S
H3207 C3219 0.929 . S
H3208 C3222 0.930 . S
H3209 C3224 0.960 . S
H3210 C3224 0.960 . S
H3211 C3224 0.960 . S
C3212 H3204 0.929 . S
C3212 C3213 1.377 . S
C3212 C3214 1.384 . S
C3213 C3212 1.377 . S
C3213 C3219 1.390 . S
C3214 H3205 0.930 . S
C3214 C3212 1.384 . S
C3214 C3215 1.372 . S
C3215 C3214 1.372 . S
C3215 C3216 1.400 . S
C3215 C3220 1.490 . S
C3216 H3206 0.930 . S
C3216 C3215 1.400 . S
C3216 C3219 1.386 . S
H3217 C3233 0.930 . S
H3218 C3234 0.931 . S
C3219 H3207 0.929 . S
C3219 C3213 1.390 . S
C3219 C3216 1.386 . S
C3220 C3215 1.490 . S
C3220 C3222 1.395 . S
C3220 C3223 1.403 . S
H3221 C3227 0.930 . S
C3222 H3208 0.930 . S
C3222 C3220 1.395 . S
C3222 C3225 1.403 . S
C3223 C3220 1.403 . S
C3223 C3224 1.524 . S
C3223 C3227 1.400 . S
C3224 H3209 0.960 . S
C3224 H3210 0.960 . S
C3224 H3211 0.960 . S
C3224 C3223 1.524 . S
C3225 C3222 1.403 . S
C3225 C3226 1.392 . S
C3225 C3229 1.495 . S
C3226 C3225 1.392 . S
C3226 C3227 1.385 . S
C3226 C3228 1.478 . S
C3227 H3221 0.930 . S
C3227 C3223 1.400 . S
C3227 C3226 1.385 . S
C3228 C3226 1.478 . S
C3228 C3230 1.381 . S
C3228 C3234 1.383 . S
C3229 C3225 1.495 . S
C3229 H3235 0.959 . S
C3229 H3236 0.961 . S
C3229 H3237 0.960 . S
C3230 C3228 1.381 . S
C3230 C3231 1.394 . S
C3230 H3238 0.930 . S
C3231 C3230 1.394 . S
C3231 C3232 1.383 . S
C3231 H3239 0.929 . S
C3232 C3231 1.383 . S
C3232 C3233 1.377 . S
C3233 H3217 0.930 . S
C3233 C3232 1.377 . S
C3233 C3234 1.379 . S
C3234 H3218 0.931 . S
C3234 C3228 1.383 . S
C3234 C3233 1.379 . S
H3235 C3229 0.959 . S
H3236 C3229 0.961 . S
H3237 C3229 0.960 . S
H3238 C3230 0.930 . S
H3239 C3231 0.929 . S
H3240 C3248 0.929 . S
H3241 C3250 0.930 . S
H3242 C3252 0.930 . S
H3243 C3255 0.929 . S
H3244 C3258 0.930 . S
H3245 C3260 0.960 . S
H3246 C3260 0.960 . S
H3247 C3260 0.960 . S
C3248 H3240 0.929 . S
C3248 C3249 1.377 . S
C3248 C3250 1.384 . S
C3249 C3248 1.377 . S
C3249 C3255 1.390 . S
C3250 H3241 0.930 . S
C3250 C3248 1.384 . S
C3250 C3251 1.372 . S
C3251 C3250 1.372 . S
C3251 C3252 1.400 . S
C3251 C3256 1.490 . S
C3252 H3242 0.930 . S
C3252 C3251 1.400 . S
C3252 C3255 1.386 . S
H3253 C3269 0.930 . S
H3254 C3270 0.931 . S
C3255 H3243 0.929 . S
C3255 C3249 1.390 . S
C3255 C3252 1.386 . S
C3256 C3251 1.490 . S
C3256 C3258 1.395 . S
C3256 C3259 1.403 . S
H3257 C3263 0.930 . S
C3258 H3244 0.930 . S
C3258 C3256 1.395 . S
C3258 C3261 1.403 . S
C3259 C3256 1.403 . S
C3259 C3260 1.524 . S
C3259 C3263 1.400 . S
C3260 H3245 0.960 . S
C3260 H3246 0.960 . S
C3260 H3247 0.960 . S
C3260 C3259 1.524 . S
C3261 C3258 1.403 . S
C3261 C3262 1.392 . S
C3261 C3265 1.495 . S
C3262 C3261 1.392 . S
C3262 C3263 1.385 . S
C3262 C3264 1.478 . S
C3263 H3257 0.930 . S
C3263 C3259 1.400 . S
C3263 C3262 1.385 . S
C3264 C3262 1.478 . S
C3264 C3266 1.381 . S
C3264 C3270 1.383 . S
C3265 C3261 1.495 . S
C3265 H3271 0.959 . S
C3265 H3272 0.961 . S
C3265 H3273 0.960 . S
C3266 C3264 1.381 . S
C3266 C3267 1.394 . S
C3266 H3274 0.930 . S
C3267 C3266 1.394 . S
C3267 C3268 1.383 . S
C3267 H3275 0.929 . S
C3268 C3267 1.383 . S
C3268 C3269 1.377 . S
C3269 H3253 0.930 . S
C3269 C3268 1.377 . S
C3269 C3270 1.379 . S
C3270 H3254 0.931 . S
C3270 C3264 1.383 . S
C3270 C3269 1.379 . S
H3271 C3265 0.959 . S
H3272 C3265 0.961 . S
H3273 C3265 0.960 . S
H3274 C3266 0.930 . S
H3275 C3267 0.929 . S
H3276 C3284 0.929 . S
H3277 C3286 0.930 . S
H3278 C3288 0.930 . S
H3279 C3291 0.929 . S
H3280 C3294 0.930 . S
H3281 C3296 0.960 . S
H3282 C3296 0.960 . S
H3283 C3296 0.960 . S
C3284 H3276 0.929 . S
C3284 C3285 1.377 . S
C3284 C3286 1.384 . S
C3285 C3284 1.377 . S
C3285 C3291 1.390 . S
C3286 H3277 0.930 . S
C3286 C3284 1.384 . S
C3286 C3287 1.372 . S
C3287 C3286 1.372 . S
C3287 C3288 1.400 . S
C3287 C3292 1.490 . S
C3288 H3278 0.930 . S
C3288 C3287 1.400 . S
C3288 C3291 1.386 . S
H3289 C3305 0.930 . S
H3290 C3306 0.931 . S
C3291 H3279 0.929 . S
C3291 C3285 1.390 . S
C3291 C3288 1.386 . S
C3292 C3287 1.490 . S
C3292 C3294 1.395 . S
C3292 C3295 1.403 . S
H3293 C3299 0.930 . S
C3294 H3280 0.930 . S
C3294 C3292 1.395 . S
C3294 C3297 1.403 . S
C3295 C3292 1.403 . S
C3295 C3296 1.524 . S
C3295 C3299 1.400 . S
C3296 H3281 0.960 . S
C3296 H3282 0.960 . S
C3296 H3283 0.960 . S
C3296 C3295 1.524 . S
C3297 C3294 1.403 . S
C3297 C3298 1.392 . S
C3297 C3301 1.495 . S
C3298 C3297 1.392 . S
C3298 C3299 1.385 . S
C3298 C3300 1.478 . S
C3299 H3293 0.930 . S
C3299 C3295 1.400 . S
C3299 C3298 1.385 . S
C3300 C3298 1.478 . S
C3300 C3302 1.381 . S
C3300 C3306 1.383 . S
C3301 C3297 1.495 . S
C3301 H3307 0.959 . S
C3301 H3308 0.961 . S
C3301 H3309 0.960 . S
C3302 C3300 1.381 . S
C3302 C3303 1.394 . S
C3302 H3310 0.930 . S
C3303 C3302 1.394 . S
C3303 C3304 1.383 . S
C3303 H3311 0.929 . S
C3304 C3303 1.383 . S
C3304 C3305 1.377 . S
C3305 H3289 0.930 . S
C3305 C3304 1.377 . S
C3305 C3306 1.379 . S
C3306 H3290 0.931 . S
C3306 C3300 1.383 . S
C3306 C3305 1.379 . S
H3307 C3301 0.959 . S
H3308 C3301 0.961 . S
H3309 C3301 0.960 . S
H3310 C3302 0.930 . S
H3311 C3303 0.929 . S
H3312 C3320 0.929 . S
H3313 C3322 0.930 . S
H3314 C3324 0.930 . S
H3315 C3327 0.929 . S
H3316 C3330 0.930 . S
H3317 C3332 0.960 . S
H3318 C3332 0.960 . S
H3319 C3332 0.960 . S
C3320 H3312 0.929 . S
C3320 C3321 1.377 . S
C3320 C3322 1.384 . S
C3321 C3320 1.377 . S
C3321 C3327 1.390 . S
C3322 H3313 0.930 . S
C3322 C3320 1.384 . S
C3322 C3323 1.372 . S
C3323 C3322 1.372 . S
C3323 C3324 1.400 . S
C3323 C3328 1.490 . S
C3324 H3314 0.930 . S
C3324 C3323 1.400 . S
C3324 C3327 1.386 . S
H3325 C3341 0.930 . S
H3326 C3342 0.931 . S
C3327 H3315 0.929 . S
C3327 C3321 1.390 . S
C3327 C3324 1.386 . S
C3328 C3323 1.490 . S
C3328 C3330 1.395 . S
C3328 C3331 1.403 . S
H3329 C3335 0.930 . S
C3330 H3316 0.930 . S
C3330 C3328 1.395 . S
C3330 C3333 1.403 . S
C3331 C3328 1.403 . S
C3331 C3332 1.524 . S
C3331 C3335 1.400 . S
C3332 H3317 0.960 . S
C3332 H3318 0.960 . S
C3332 H3319 0.960 . S
C3332 C3331 1.524 . S
C3333 C3330 1.403 . S
C3333 C3334 1.392 . S
C3333 C3337 1.495 . S
C3334 C3333 1.392 . S
C3334 C3335 1.385 . S
C3334 C3336 1.478 . S
C3335 H3329 0.930 . S
C3335 C3331 1.400 . S
C3335 C3334 1.385 . S
C3336 C3334 1.478 . S
C3336 C3338 1.381 . S
C3336 C3342 1.383 . S
C3337 C3333 1.495 . S
C3337 H3343 0.959 . S
C3337 H3344 0.961 . S
C3337 H3345 0.960 . S
C3338 C3336 1.381 . S
C3338 C3339 1.394 . S
C3338 H3346 0.930 . S
C3339 C3338 1.394 . S
C3339 C3340 1.383 . S
C3339 H3347 0.929 . S
C3340 C3339 1.383 . S
C3340 C3341 1.377 . S
C3341 H3325 0.930 . S
C3341 C3340 1.377 . S
C3341 C3342 1.379 . S
C3342 H3326 0.931 . S
C3342 C3336 1.383 . S
C3342 C3341 1.379 . S
H3343 C3337 0.959 . S
H3344 C3337 0.961 . S
H3345 C3337 0.960 . S
H3346 C3338 0.930 . S
H3347 C3339 0.929 . S
H3348 C3356 0.929 . S
H3349 C3358 0.930 . S
H3350 C3360 0.930 . S
H3351 C3363 0.929 . S
H3352 C3366 0.930 . S
H3353 C3368 0.960 . S
H3354 C3368 0.960 . S
H3355 C3368 0.960 . S
C3356 H3348 0.929 . S
C3356 C3357 1.377 . S
C3356 C3358 1.384 . S
C3357 C3356 1.377 . S
C3357 C3363 1.390 . S
C3358 H3349 0.930 . S
C3358 C3356 1.384 . S
C3358 C3359 1.372 . S
C3359 C3358 1.372 . S
C3359 C3360 1.400 . S
C3359 C3364 1.490 . S
C3360 H3350 0.930 . S
C3360 C3359 1.400 . S
C3360 C3363 1.386 . S
H3361 C3377 0.930 . S
H3362 C3378 0.931 . S
C3363 H3351 0.929 . S
C3363 C3357 1.390 . S
C3363 C3360 1.386 . S
C3364 C3359 1.490 . S
C3364 C3366 1.395 . S
C3364 C3367 1.403 . S
H3365 C3371 0.930 . S
C3366 H3352 0.930 . S
C3366 C3364 1.395 . S
C3366 C3369 1.403 . S
C3367 C3364 1.403 . S
C3367 C3368 1.524 . S
C3367 C3371 1.400 . S
C3368 H3353 0.960 . S
C3368 H3354 0.960 . S
C3368 H3355 0.960 . S
C3368 C3367 1.524 . S
C3369 C3366 1.403 . S
C3369 C3370 1.392 . S
C3369 C3373 1.495 . S
C3370 C3369 1.392 . S
C3370 C3371 1.385 . S
C3370 C3372 1.478 . S
C3371 H3365 0.930 . S
C3371 C3367 1.400 . S
C3371 C3370 1.385 . S
C3372 C3370 1.478 . S
C3372 C3374 1.381 . S
C3372 C3378 1.383 . S
C3373 C3369 1.495 . S
C3373 H3379 0.959 . S
C3373 H3380 0.961 . S
C3373 H3381 0.960 . S
C3374 C3372 1.381 . S
C3374 C3375 1.394 . S
C3374 H3382 0.930 . S
C3375 C3374 1.394 . S
C3375 C3376 1.383 . S
C3375 H3383 0.929 . S
C3376 C3375 1.383 . S
C3376 C3377 1.377 . S
C3377 H3361 0.930 . S
C3377 C3376 1.377 . S
C3377 C3378 1.379 . S
C3378 H3362 0.931 . S
C3378 C3372 1.383 . S
C3378 C3377 1.379 . S
H3379 C3373 0.959 . S
H3380 C3373 0.961 . S
H3381 C3373 0.960 . S
H3382 C3374 0.930 . S
H3383 C3375 0.929 . S
H3384 C3392 0.929 . S
H3385 C3394 0.930 . S
H3386 C3396 0.930 . S
H3387 C3399 0.929 . S
H3388 C3402 0.930 . S
H3389 C3404 0.960 . S
H3390 C3404 0.960 . S
H3391 C3404 0.960 . S
C3392 H3384 0.929 . S
C3392 C3393 1.377 1_655 S
C3392 C3394 1.384 . S
C3393 C3392 1.377 1_455 S
C3393 C3399 1.390 . S
C3394 H3385 0.930 . S
C3394 C3392 1.384 . S
C3394 C3395 1.372 . S
C3395 C3394 1.372 . S
C3395 C3396 1.400 . S
C3395 C3400 1.490 . S
C3396 H3386 0.930 . S
C3396 C3395 1.400 . S
C3396 C3399 1.386 1_655 S
H3397 C3413 0.930 . S
H3398 C3414 0.931 . S
C3399 H3387 0.929 . S
C3399 C3393 1.390 . S
C3399 C3396 1.386 1_455 S
C3400 C3395 1.490 . S
C3400 C3402 1.395 . S
C3400 C3403 1.403 . S
H3401 C3407 0.930 . S
C3402 H3388 0.930 . S
C3402 C3400 1.395 . S
C3402 C3405 1.403 . S
C3403 C3400 1.403 . S
C3403 C3404 1.524 . S
C3403 C3407 1.400 . S
C3404 H3389 0.960 . S
C3404 H3390 0.960 . S
C3404 H3391 0.960 . S
C3404 C3403 1.524 . S
C3405 C3402 1.403 . S
C3405 C3406 1.392 . S
C3405 C3409 1.495 . S
C3406 C3405 1.392 . S
C3406 C3407 1.385 . S
C3406 C3408 1.478 . S
C3407 H3401 0.930 . S
C3407 C3403 1.400 . S
C3407 C3406 1.385 . S
C3408 C3406 1.478 . S
C3408 C3410 1.381 . S
C3408 C3414 1.383 . S
C3409 C3405 1.495 . S
C3409 H3415 0.959 . S
C3409 H3416 0.961 . S
C3409 H3417 0.960 . S
C3410 C3408 1.381 . S
C3410 C3411 1.394 . S
C3410 H3418 0.930 . S
C3411 C3410 1.394 . S
C3411 C3412 1.383 . S
C3411 H3419 0.929 . S
C3412 C3411 1.383 . S
C3412 C3413 1.377 . S
C3413 H3397 0.930 . S
C3413 C3412 1.377 . S
C3413 C3414 1.379 . S
C3414 H3398 0.931 . S
C3414 C3408 1.383 . S
C3414 C3413 1.379 . S
H3415 C3409 0.959 . S
H3416 C3409 0.961 . S
H3417 C3409 0.960 . S
H3418 C3410 0.930 . S
H3419 C3411 0.929 . S
H3420 C3428 0.929 . S
H3421 C3430 0.930 . S
H3422 C3432 0.930 . S
H3423 C3435 0.929 . S
H3424 C3438 0.930 . S
H3425 C3440 0.960 . S
H3426 C3440 0.960 . S
H3427 C3440 0.960 . S
C3428 H3420 0.929 . S
C3428 C3429 1.377 . S
C3428 C3430 1.384 . S
C3429 C3428 1.377 . S
C3429 C3435 1.390 . S
C3430 H3421 0.930 . S
C3430 C3428 1.384 . S
C3430 C3431 1.372 . S
C3431 C3430 1.372 . S
C3431 C3432 1.400 . S
C3431 C3436 1.490 . S
C3432 H3422 0.930 . S
C3432 C3431 1.400 . S
C3432 C3435 1.386 . S
H3433 C3449 0.930 . S
H3434 C3450 0.931 . S
C3435 H3423 0.929 . S
C3435 C3429 1.390 . S
C3435 C3432 1.386 . S
C3436 C3431 1.490 . S
C3436 C3438 1.395 . S
C3436 C3439 1.403 . S
H3437 C3443 0.930 . S
C3438 H3424 0.930 . S
C3438 C3436 1.395 . S
C3438 C3441 1.403 . S
C3439 C3436 1.403 . S
C3439 C3440 1.524 . S
C3439 C3443 1.400 . S
C3440 H3425 0.960 . S
C3440 H3426 0.960 . S
C3440 H3427 0.960 . S
C3440 C3439 1.524 . S
C3441 C3438 1.403 . S
C3441 C3442 1.392 . S
C3441 C3445 1.495 1_455 S
C3442 C3441 1.392 . S
C3442 C3443 1.385 . S
C3442 C3444 1.478 . S
C3443 H3437 0.930 . S
C3443 C3439 1.400 . S
C3443 C3442 1.385 . S
C3444 C3442 1.478 . S
C3444 C3446 1.381 . S
C3444 C3450 1.383 . S
C3445 C3441 1.495 1_655 S
C3445 H3451 0.959 . S
C3445 H3452 0.961 . S
C3445 H3453 0.960 . S
C3446 C3444 1.381 . S
C3446 C3447 1.394 . S
C3446 H3454 0.930 . S
C3447 C3446 1.394 . S
C3447 C3448 1.383 . S
C3447 H3455 0.929 . S
C3448 C3447 1.383 . S
C3448 C3449 1.377 . S
C3449 H3433 0.930 . S
C3449 C3448 1.377 . S
C3449 C3450 1.379 . S
C3450 H3434 0.931 . S
C3450 C3444 1.383 . S
C3450 C3449 1.379 . S
H3451 C3445 0.959 . S
H3452 C3445 0.961 . S
H3453 C3445 0.960 . S
H3454 C3446 0.930 . S
H3455 C3447 0.929 . S
H3456 C3464 0.929 . S
H3457 C3466 0.930 . S
H3458 C3468 0.930 . S
H3459 C3471 0.929 . S
H3460 C3474 0.930 . S
H3461 C3476 0.960 . S
H3462 C3476 0.960 . S
H3463 C3476 0.960 . S
C3464 H3456 0.929 . S
C3464 C3465 1.377 . S
C3464 C3466 1.384 . S
C3465 C3464 1.377 . S
C3465 C3471 1.390 . S
C3466 H3457 0.930 . S
C3466 C3464 1.384 . S
C3466 C3467 1.372 . S
C3467 C3466 1.372 . S
C3467 C3468 1.400 . S
C3467 C3472 1.490 . S
C3468 H3458 0.930 . S
C3468 C3467 1.400 . S
C3468 C3471 1.386 . S
H3469 C3485 0.930 . S
H3470 C3486 0.931 . S
C3471 H3459 0.929 . S
C3471 C3465 1.390 . S
C3471 C3468 1.386 . S
C3472 C3467 1.490 . S
C3472 C3474 1.395 . S
C3472 C3475 1.403 . S
H3473 C3479 0.930 . S
C3474 H3460 0.930 . S
C3474 C3472 1.395 . S
C3474 C3477 1.403 . S
C3475 C3472 1.403 . S
C3475 C3476 1.524 . S
C3475 C3479 1.400 . S
C3476 H3461 0.960 . S
C3476 H3462 0.960 . S
C3476 H3463 0.960 . S
C3476 C3475 1.524 . S
C3477 C3474 1.403 . S
C3477 C3478 1.392 . S
C3477 C3481 1.495 . S
C3478 C3477 1.392 . S
C3478 C3479 1.385 . S
C3478 C3480 1.478 . S
C3479 H3473 0.930 . S
C3479 C3475 1.400 . S
C3479 C3478 1.385 . S
C3480 C3478 1.478 . S
C3480 C3482 1.381 . S
C3480 C3486 1.383 . S
C3481 C3477 1.495 . S
C3481 H3487 0.959 . S
C3481 H3488 0.961 . S
C3481 H3489 0.960 . S
C3482 C3480 1.381 . S
C3482 C3483 1.394 . S
C3482 H3490 0.930 . S
C3483 C3482 1.394 . S
C3483 C3484 1.383 . S
C3483 H3491 0.929 . S
C3484 C3483 1.383 . S
C3484 C3485 1.377 . S
C3485 H3469 0.930 . S
C3485 C3484 1.377 . S
C3485 C3486 1.379 . S
C3486 H3470 0.931 . S
C3486 C3480 1.383 . S
C3486 C3485 1.379 . S
H3487 C3481 0.959 . S
H3488 C3481 0.961 . S
H3489 C3481 0.960 . S
H3490 C3482 0.930 . S
H3491 C3483 0.929 . S
H3492 C3500 0.929 . S
H3493 C3502 0.930 . S
H3494 C3504 0.930 . S
H3495 C3507 0.929 . S
H3496 C3510 0.930 . S
H3497 C3512 0.952 1_545 S
H3498 C3512 0.951 1_545 S
H3499 C3512 0.959 . S
C3500 H3492 0.929 . S
C3500 C3501 1.377 . S
C3500 C3502 1.384 . S
C3501 C3500 1.377 . S
C3501 C3507 1.390 . S
C3502 H3493 0.930 . S
C3502 C3500 1.384 . S
C3502 C3503 1.372 . S
C3503 C3502 1.372 . S
C3503 C3504 1.400 . S
C3503 C3508 1.490 . S
C3504 H3494 0.930 . S
C3504 C3503 1.400 . S
C3504 C3507 1.386 . S
H3505 C3521 0.930 . S
H3506 C3522 0.931 . S
C3507 H3495 0.929 . S
C3507 C3501 1.390 . S
C3507 C3504 1.386 . S
C3508 C3503 1.490 . S
C3508 C3510 1.395 . S
C3508 C3511 1.403 . S
H3509 C3515 0.930 . S
C3510 H3496 0.930 . S
C3510 C3508 1.395 . S
C3510 C3513 1.403 . S
C3511 C3508 1.403 . S
C3511 C3512 1.542 . S
C3511 C3515 1.400 . S
C3512 H3497 0.952 1_565 S
C3512 H3498 0.951 1_565 S
C3512 H3499 0.959 . S
C3512 C3511 1.542 . S
C3513 C3510 1.403 . S
C3513 C3514 1.392 . S
C3513 C3517 1.495 . S
C3514 C3513 1.392 . S
C3514 C3515 1.385 . S
C3514 C3516 1.478 . S
C3515 H3509 0.930 . S
C3515 C3511 1.400 . S
C3515 C3514 1.385 . S
C3516 C3514 1.478 . S
C3516 C3518 1.381 . S
C3516 C3522 1.383 . S
C3517 C3513 1.495 . S
C3517 H3523 0.959 . S
C3517 H3524 0.961 . S
C3517 H3525 0.960 . S
C3518 C3516 1.381 . S
C3518 C3519 1.394 . S
C3518 H3526 0.930 . S
C3519 C3518 1.394 . S
C3519 C3520 1.383 . S
C3519 H3527 0.929 . S
C3520 C3519 1.383 . S
C3520 C3521 1.377 . S
C3521 H3505 0.930 . S
C3521 C3520 1.377 . S
C3521 C3522 1.379 . S
C3522 H3506 0.931 . S
C3522 C3516 1.383 . S
C3522 C3521 1.379 . S
H3523 C3517 0.959 . S
H3524 C3517 0.961 . S
H3525 C3517 0.960 . S
H3526 C3518 0.930 . S
H3527 C3519 0.929 . S
H3528 C3536 0.929 . S
H3529 C3538 0.930 1_545 S
H3530 C3540 0.930 . S
H3531 C3543 0.929 . S
H3532 C3546 0.930 . S
H3533 C3548 0.960 . S
H3534 C3548 0.960 . S
H3535 C3548 0.960 . S
C3536 H3528 0.929 . S
C3536 C3537 1.377 . S
C3536 C3538 1.384 . S
C3537 C3536 1.377 . S
C3537 C3543 1.390 . S
C3538 H3529 0.930 1_565 S
C3538 C3536 1.384 . S
C3538 C3539 1.372 . S
C3539 C3538 1.372 . S
C3539 C3540 1.400 . S
C3539 C3544 1.490 . S
C3540 H3530 0.930 . S
C3540 C3539 1.400 . S
C3540 C3543 1.386 . S
H3541 C3557 0.930 . S
H3542 C3558 0.931 . S
C3543 H3531 0.929 . S
C3543 C3537 1.390 . S
C3543 C3540 1.386 . S
C3544 C3539 1.490 . S
C3544 C3546 1.395 . S
C3544 C3547 1.403 . S
H3545 C3551 0.930 . S
C3546 H3532 0.930 . S
C3546 C3544 1.395 . S
C3546 C3549 1.403 . S
C3547 C3544 1.403 . S
C3547 C3548 1.524 . S
C3547 C3551 1.400 . S
C3548 H3533 0.960 . S
C3548 H3534 0.960 . S
C3548 H3535 0.960 . S
C3548 C3547 1.524 . S
C3549 C3546 1.403 . S
C3549 C3550 1.392 . S
C3549 C3553 1.490 1_565 S
C3550 C3549 1.392 . S
C3550 C3551 1.385 . S
C3550 C3552 1.478 . S
C3551 H3545 0.930 . S
C3551 C3547 1.400 . S
C3551 C3550 1.385 . S
C3552 C3550 1.478 . S
C3552 C3554 1.381 1_565 S
C3552 C3558 1.383 . S
C3553 C3549 1.490 1_545 S
C3553 H3559 0.948 . S
C3553 H3560 0.952 1_545 S
C3553 H3561 0.987 . S
C3554 C3552 1.381 1_545 S
C3554 C3555 1.394 . S
C3554 H3562 0.930 . S
C3555 C3554 1.394 . S
C3555 C3556 1.396 . S
C3555 H3563 0.929 . S
C3556 C3555 1.396 . S
C3556 C3557 1.343 1_545 S
C3557 H3541 0.930 . S
C3557 C3556 1.343 1_565 S
C3557 C3558 1.379 . S
C3558 H3542 0.931 . S
C3558 C3552 1.383 . S
C3558 C3557 1.379 . S
H3559 C3553 0.948 . S
H3560 C3553 0.952 1_565 S
H3561 C3553 0.987 . S
H3562 C3554 0.930 . S
H3563 C3555 0.929 . S
H3564 C3572 0.929 . S
H3565 C3574 0.951 . S
H3566 C3576 0.930 . S
H3567 C3579 0.929 . S
H3568 C3582 0.930 . S
H3569 C3584 0.960 . S
H3570 C3584 0.960 . S
H3571 C3584 0.960 . S
C3572 H3564 0.929 . S
C3572 C3573 1.377 . S
C3572 C3574 1.384 . S
C3573 C3572 1.377 . S
C3573 C3579 1.390 . S
C3574 H3565 0.951 . S
C3574 C3572 1.384 . S
C3574 C3575 1.372 . S
C3575 C3574 1.372 . S
C3575 C3576 1.400 . S
C3575 C3580 1.490 . S
C3576 H3566 0.930 . S
C3576 C3575 1.400 . S
C3576 C3579 1.386 . S
H3577 C3593 0.930 . S
H3578 C3594 0.931 . S
C3579 H3567 0.929 . S
C3579 C3573 1.390 . S
C3579 C3576 1.386 . S
C3580 C3575 1.490 . S
C3580 C3582 1.395 . S
C3580 C3583 1.403 . S
H3581 C3587 0.930 . S
C3582 H3568 0.930 . S
C3582 C3580 1.395 . S
C3582 C3585 1.403 . S
C3583 C3580 1.403 . S
C3583 C3584 1.524 . S
C3583 C3587 1.400 . S
C3584 H3569 0.960 . S
C3584 H3570 0.960 . S
C3584 H3571 0.960 . S
C3584 C3583 1.524 . S
C3585 C3582 1.403 . S
C3585 C3586 1.392 . S
C3585 C3589 1.495 1_455 S
C3586 C3585 1.392 . S
C3586 C3587 1.385 . S
C3586 C3588 1.478 . S
C3587 H3581 0.930 . S
C3587 C3583 1.400 . S
C3587 C3586 1.385 . S
C3588 C3586 1.478 . S
C3588 C3590 1.381 1_455 S
C3588 C3594 1.383 . S
C3589 C3585 1.495 1_655 S
C3589 H3595 0.959 . S
C3589 H3596 0.961 . S
C3589 H3597 0.960 . S
C3590 C3588 1.381 1_655 S
C3590 C3591 1.394 . S
C3590 H3598 0.930 . S
C3591 C3590 1.394 . S
C3591 C3592 1.383 . S
C3591 H3599 0.929 . S
C3592 C3591 1.383 . S
C3592 C3593 1.377 1_655 S
C3593 H3577 0.930 . S
C3593 C3592 1.377 1_455 S
C3593 C3594 1.379 . S
C3594 H3578 0.931 . S
C3594 C3588 1.383 . S
C3594 C3593 1.379 . S
H3595 C3589 0.959 . S
H3596 C3589 0.961 . S
H3597 C3589 0.960 . S
H3598 C3590 0.930 . S
H3599 C3591 0.929 . S
H3600 C3608 0.929 . S
H3601 C3610 0.930 . S
H3602 C3612 0.930 . S
H3603 C3615 0.929 . S
H3604 C3618 0.930 . S
H3605 C3620 0.960 . S
H3606 C3620 0.960 . S
H3607 C3620 0.960 . S
C3608 H3600 0.929 . S
C3608 C3609 1.377 . S
C3608 C3610 1.384 . S
C3609 C3608 1.377 . S
C3609 C3615 1.390 . S
C3610 H3601 0.930 . S
C3610 C3608 1.384 . S
C3610 C3611 1.372 . S
C3611 C3610 1.372 . S
C3611 C3612 1.400 . S
C3611 C3616 1.490 . S
C3612 H3602 0.930 . S
C3612 C3611 1.400 . S
C3612 C3615 1.386 . S
H3613 C3629 0.930 . S
H3614 C3630 0.931 . S
C3615 H3603 0.929 . S
C3615 C3609 1.390 . S
C3615 C3612 1.386 . S
C3616 C3611 1.490 . S
C3616 C3618 1.395 . S
C3616 C3619 1.403 . S
H3617 C3623 0.930 . S
C3618 H3604 0.930 . S
C3618 C3616 1.395 . S
C3618 C3621 1.403 . S
C3619 C3616 1.403 . S
C3619 C3620 1.524 . S
C3619 C3623 1.400 . S
C3620 H3605 0.960 . S
C3620 H3606 0.960 . S
C3620 H3607 0.960 . S
C3620 C3619 1.524 . S
C3621 C3618 1.403 . S
C3621 C3622 1.392 . S
C3621 C3625 1.495 . S
C3622 C3621 1.392 . S
C3622 C3623 1.385 . S
C3622 C3624 1.478 . S
C3623 H3617 0.930 . S
C3623 C3619 1.400 . S
C3623 C3622 1.385 . S
C3624 C3622 1.478 . S
C3624 C3626 1.381 . S
C3624 C3630 1.383 . S
C3625 C3621 1.495 . S
C3625 H3631 0.959 . S
C3625 H3632 0.961 . S
C3625 H3633 0.960 . S
C3626 C3624 1.381 . S
C3626 C3627 1.394 . S
C3626 H3634 0.930 . S
C3627 C3626 1.394 . S
C3627 C3628 1.383 . S
C3627 H3635 0.929 . S
C3628 C3627 1.383 . S
C3628 C3629 1.377 . S
C3629 H3613 0.930 . S
C3629 C3628 1.377 . S
C3629 C3630 1.379 . S
C3630 H3614 0.931 . S
C3630 C3624 1.383 . S
C3630 C3629 1.379 . S
H3631 C3625 0.959 . S
H3632 C3625 0.961 . S
H3633 C3625 0.960 . S
H3634 C3626 0.930 . S
H3635 C3627 0.929 . S
H3636 C3644 0.929 . S
H3637 C3646 0.930 . S
H3638 C3648 0.930 . S
H3639 C3651 0.929 . S
H3640 C3654 0.930 . S
H3641 C3656 0.960 . S
H3642 C3656 0.960 . S
H3643 C3656 0.960 . S
C3644 H3636 0.929 . S
C3644 C3645 1.377 . S
C3644 C3646 1.384 . S
C3645 C3644 1.377 . S
C3645 C3651 1.390 . S
C3646 H3637 0.930 . S
C3646 C3644 1.384 . S
C3646 C3647 1.372 . S
C3647 C3646 1.372 . S
C3647 C3648 1.400 . S
C3647 C3652 1.490 . S
C3648 H3638 0.930 . S
C3648 C3647 1.400 . S
C3648 C3651 1.386 . S
H3649 C3665 0.930 . S
H3650 C3666 0.931 . S
C3651 H3639 0.929 . S
C3651 C3645 1.390 . S
C3651 C3648 1.386 . S
C3652 C3647 1.490 . S
C3652 C3654 1.395 . S
C3652 C3655 1.403 . S
H3653 C3659 0.930 . S
C3654 H3640 0.930 . S
C3654 C3652 1.395 . S
C3654 C3657 1.403 . S
C3655 C3652 1.403 . S
C3655 C3656 1.524 . S
C3655 C3659 1.400 . S
C3656 H3641 0.960 . S
C3656 H3642 0.960 . S
C3656 H3643 0.960 . S
C3656 C3655 1.524 . S
C3657 C3654 1.403 . S
C3657 C3658 1.392 . S
C3657 C3661 1.495 . S
C3658 C3657 1.392 . S
C3658 C3659 1.385 . S
C3658 C3660 1.478 . S
C3659 H3653 0.930 . S
C3659 C3655 1.400 . S
C3659 C3658 1.385 . S
C3660 C3658 1.478 . S
C3660 C3662 1.381 . S
C3660 C3666 1.383 . S
C3661 C3657 1.495 . S
C3661 H3667 0.959 . S
C3661 H3668 0.961 . S
C3661 H3669 0.960 . S
C3662 C3660 1.381 . S
C3662 C3663 1.394 . S
C3662 H3670 0.930 . S
C3663 C3662 1.394 . S
C3663 C3664 1.383 . S
C3663 H3671 0.929 . S
C3664 C3663 1.383 . S
C3664 C3665 1.377 . S
C3665 H3649 0.930 . S
C3665 C3664 1.377 . S
C3665 C3666 1.379 . S
C3666 H3650 0.931 . S
C3666 C3660 1.383 . S
C3666 C3665 1.379 . S
H3667 C3661 0.959 . S
H3668 C3661 0.961 . S
H3669 C3661 0.960 . S
H3670 C3662 0.930 . S
H3671 C3663 0.929 . S
H3672 C3680 0.929 . S
H3673 C3682 0.930 . S
H3674 C3684 0.930 . S
H3675 C3687 0.929 . S
H3676 C3690 0.930 . S
H3677 C3692 0.960 . S
H3678 C3692 0.960 . S
H3679 C3692 0.960 . S
C3680 H3672 0.929 . S
C3680 C3681 1.377 . S
C3680 C3682 1.384 . S
C3681 C3680 1.377 . S
C3681 C3687 1.390 . S
C3682 H3673 0.930 . S
C3682 C3680 1.384 . S
C3682 C3683 1.372 . S
C3683 C3682 1.372 . S
C3683 C3684 1.400 . S
C3683 C3688 1.490 . S
C3684 H3674 0.930 . S
C3684 C3683 1.400 . S
C3684 C3687 1.386 . S
H3685 C3701 0.930 . S
H3686 C3702 0.931 . S
C3687 H3675 0.929 . S
C3687 C3681 1.390 . S
C3687 C3684 1.386 . S
C3688 C3683 1.490 . S
C3688 C3690 1.395 . S
C3688 C3691 1.403 . S
H3689 C3695 0.930 . S
C3690 H3676 0.930 . S
C3690 C3688 1.395 . S
C3690 C3693 1.403 . S
C3691 C3688 1.403 . S
C3691 C3692 1.524 . S
C3691 C3695 1.400 . S
C3692 H3677 0.960 . S
C3692 H3678 0.960 . S
C3692 H3679 0.960 . S
C3692 C3691 1.524 . S
C3693 C3690 1.403 . S
C3693 C3694 1.392 . S
C3693 C3697 1.495 . S
C3694 C3693 1.392 . S
C3694 C3695 1.385 . S
C3694 C3696 1.478 . S
C3695 H3689 0.930 . S
C3695 C3691 1.400 . S
C3695 C3694 1.385 . S
C3696 C3694 1.478 . S
C3696 C3698 1.381 . S
C3696 C3702 1.383 . S
C3697 C3693 1.495 . S
C3697 H3703 0.959 . S
C3697 H3704 0.961 . S
C3697 H3705 0.960 . S
C3698 C3696 1.381 . S
C3698 C3699 1.394 . S
C3698 H3706 0.930 . S
C3699 C3698 1.394 . S
C3699 C3700 1.383 . S
C3699 H3707 0.929 . S
C3700 C3699 1.383 . S
C3700 C3701 1.377 . S
C3701 H3685 0.930 . S
C3701 C3700 1.377 . S
C3701 C3702 1.379 . S
C3702 H3686 0.931 . S
C3702 C3696 1.383 . S
C3702 C3701 1.379 . S
H3703 C3697 0.959 . S
H3704 C3697 0.961 . S
H3705 C3697 0.960 . S
H3706 C3698 0.930 . S
H3707 C3699 0.929 . S
H3708 C3716 0.929 . S
H3709 C3718 0.930 . S
H3710 C3720 0.930 . S
H3711 C3723 0.929 . S
H3712 C3726 0.930 . S
H3713 C3728 0.960 . S
H3714 C3728 0.960 . S
H3715 C3728 0.960 . S
C3716 H3708 0.929 . S
C3716 C3717 1.377 . S
C3716 C3718 1.384 . S
C3717 C3716 1.377 . S
C3717 C3723 1.390 . S
C3718 H3709 0.930 . S
C3718 C3716 1.384 . S
C3718 C3719 1.372 . S
C3719 C3718 1.372 . S
C3719 C3720 1.400 . S
C3719 C3724 1.490 . S
C3720 H3710 0.930 . S
C3720 C3719 1.400 . S
C3720 C3723 1.386 . S
H3721 C3737 0.930 . S
H3722 C3738 0.931 . S
C3723 H3711 0.929 . S
C3723 C3717 1.390 . S
C3723 C3720 1.386 . S
C3724 C3719 1.490 . S
C3724 C3726 1.395 . S
C3724 C3727 1.403 . S
H3725 C3731 0.930 . S
C3726 H3712 0.930 . S
C3726 C3724 1.395 . S
C3726 C3729 1.403 . S
C3727 C3724 1.403 . S
C3727 C3728 1.524 . S
C3727 C3731 1.400 . S
C3728 H3713 0.960 . S
C3728 H3714 0.960 . S
C3728 H3715 0.960 . S
C3728 C3727 1.524 . S
C3729 C3726 1.403 . S
C3729 C3730 1.392 . S
C3729 C3733 1.495 . S
C3730 C3729 1.392 . S
C3730 C3731 1.385 . S
C3730 C3732 1.478 . S
C3731 H3725 0.930 . S
C3731 C3727 1.400 . S
C3731 C3730 1.385 . S
C3732 C3730 1.478 . S
C3732 C3734 1.381 . S
C3732 C3738 1.383 . S
C3733 C3729 1.495 . S
C3733 H3739 0.959 . S
C3733 H3740 0.961 . S
C3733 H3741 0.960 . S
C3734 C3732 1.381 . S
C3734 C3735 1.394 . S
C3734 H3742 0.930 . S
C3735 C3734 1.394 . S
C3735 C3736 1.383 . S
C3735 H3743 0.929 . S
C3736 C3735 1.383 . S
C3736 C3737 1.377 . S
C3737 H3721 0.930 . S
C3737 C3736 1.377 . S
C3737 C3738 1.379 . S
C3738 H3722 0.931 . S
C3738 C3732 1.383 . S
C3738 C3737 1.379 . S
H3739 C3733 0.959 . S
H3740 C3733 0.961 . S
H3741 C3733 0.960 . S
H3742 C3734 0.930 . S
H3743 C3735 0.929 . S
H3744 C3752 0.929 . S
H3745 C3754 0.930 . S
H3746 C3756 0.930 . S
H3747 C3759 0.929 . S
H3748 C3762 0.930 . S
H3749 C3764 0.960 . S
H3750 C3764 0.960 . S
H3751 C3764 0.960 . S
C3752 H3744 0.929 . S
C3752 C3753 1.377 . S
C3752 C3754 1.384 . S
C3753 C3752 1.377 . S
C3753 C3759 1.390 . S
C3754 H3745 0.930 . S
C3754 C3752 1.384 . S
C3754 C3755 1.372 . S
C3755 C3754 1.372 . S
C3755 C3756 1.400 . S
C3755 C3760 1.490 . S
C3756 H3746 0.930 . S
C3756 C3755 1.400 . S
C3756 C3759 1.386 . S
H3757 C3773 0.953 . S
H3758 C3774 0.931 . S
C3759 H3747 0.929 . S
C3759 C3753 1.390 . S
C3759 C3756 1.386 . S
C3760 C3755 1.490 . S
C3760 C3762 1.395 . S
C3760 C3763 1.403 . S
H3761 C3767 0.930 . S
C3762 H3748 0.930 . S
C3762 C3760 1.395 . S
C3762 C3765 1.403 . S
C3763 C3760 1.403 . S
C3763 C3764 1.524 . S
C3763 C3767 1.400 . S
C3764 H3749 0.960 . S
C3764 H3750 0.960 . S
C3764 H3751 0.960 . S
C3764 C3763 1.524 . S
C3765 C3762 1.403 . S
C3765 C3766 1.392 . S
C3765 C3769 1.495 1_545 S
C3766 C3765 1.392 . S
C3766 C3767 1.385 . S
C3766 C3768 1.478 . S
C3767 H3761 0.930 . S
C3767 C3763 1.400 . S
C3767 C3766 1.385 . S
C3768 C3766 1.478 . S
C3768 C3770 1.381 . S
C3768 C3774 1.383 . S
C3769 C3765 1.495 1_565 S
C3769 H3775 0.959 . S
C3769 H3776 0.961 . S
C3769 H3777 0.951 1_565 S
C3770 C3768 1.381 . S
C3770 C3771 1.394 . S
C3770 H3778 0.930 . S
C3771 C3770 1.394 . S
C3771 C3772 1.383 . S
C3771 H3779 0.929 . S
C3772 C3771 1.383 . S
C3772 C3773 1.377 . S
C3773 H3757 0.953 . S
C3773 C3772 1.377 . S
C3773 C3774 1.379 . S
C3774 H3758 0.931 . S
C3774 C3768 1.383 . S
C3774 C3773 1.379 . S
H3775 C3769 0.959 . S
H3776 C3769 0.961 . S
H3777 C3769 0.951 1_545 S
H3778 C3770 0.930 . S
H3779 C3771 0.929 . S
H3780 C3788 0.929 . S
H3781 C3790 0.930 . S
H3782 C3792 0.930 . S
H3783 C3795 0.929 . S
H3784 C3798 0.930 . S
H3785 C3800 0.960 . S
H3786 C3800 0.960 . S
H3787 C3800 0.960 . S
C3788 H3780 0.929 . S
C3788 C3789 1.377 . S
C3788 C3790 1.384 . S
C3789 C3788 1.377 . S
C3789 C3795 1.390 . S
C3790 H3781 0.930 . S
C3790 C3788 1.384 . S
C3790 C3791 1.372 . S
C3791 C3790 1.372 . S
C3791 C3792 1.400 . S
C3791 C3796 1.490 . S
C3792 H3782 0.930 . S
C3792 C3791 1.400 . S
C3792 C3795 1.386 . S
H3793 C3809 0.932 1_455 S
H3794 C3810 0.968 . S
C3795 H3783 0.929 . S
C3795 C3789 1.390 . S
C3795 C3792 1.386 . S
C3796 C3791 1.490 . S
C3796 C3798 1.395 . S
C3796 C3799 1.403 . S
H3797 C3803 0.930 . S
C3798 H3784 0.930 . S
C3798 C3796 1.395 . S
C3798 C3801 1.403 . S
C3799 C3796 1.403 . S
C3799 C3800 1.524 . S
C3799 C3803 1.400 . S
C3800 H3785 0.960 . S
C3800 H3786 0.960 . S
C3800 H3787 0.960 . S
C3800 C3799 1.524 . S
C3801 C3798 1.403 . S
C3801 C3802 1.392 . S
C3801 C3805 1.495 1_655 S
C3802 C3801 1.392 . S
C3802 C3803 1.385 . S
C3802 C3804 1.478 . S
C3803 H3797 0.930 . S
C3803 C3799 1.400 . S
C3803 C3802 1.385 . S
C3804 C3802 1.478 . S
C3804 C3806 1.381 . S
C3804 C3810 1.383 . S
C3805 C3801 1.495 1_455 S
C3805 H3811 0.959 . S
C3805 H3812 0.961 . S
C3805 H3813 0.987 . S
C3806 C3804 1.381 . S
C3806 C3807 1.394 . S
C3806 H3814 0.930 . S
C3807 C3806 1.394 . S
C3807 C3808 1.383 . S
C3807 H3815 0.929 . S
C3808 C3807 1.383 . S
C3808 C3809 1.377 . S
C3809 H3793 0.932 1_655 S
C3809 C3808 1.377 . S
C3809 C3810 1.379 . S
C3810 H3794 0.968 . S
C3810 C3804 1.383 . S
C3810 C3809 1.379 . S
H3811 C3805 0.959 . S
H3812 C3805 0.961 . S
H3813 C3805 0.987 . S
H3814 C3806 0.930 . S
H3815 C3807 0.929 . S
H3816 C3824 0.929 . S
H3817 C3826 0.930 . S
H3818 C3828 0.930 . S
H3819 C3831 0.929 . S
H3820 C3834 0.930 . S
H3821 C3836 0.960 . S
H3822 C3836 0.960 . S
H3823 C3836 0.960 . S
C3824 H3816 0.929 . S
C3824 C3825 1.377 . S
C3824 C3826 1.384 . S
C3825 C3824 1.377 . S
C3825 C3831 1.390 . S
C3826 H3817 0.930 . S
C3826 C3824 1.384 . S
C3826 C3827 1.372 . S
C3827 C3826 1.372 . S
C3827 C3828 1.400 . S
C3827 C3832 1.490 . S
C3828 H3818 0.930 . S
C3828 C3827 1.400 . S
C3828 C3831 1.386 . S
H3829 C3845 0.930 . S
H3830 C3846 0.931 . S
C3831 H3819 0.929 . S
C3831 C3825 1.390 . S
C3831 C3828 1.386 . S
C3832 C3827 1.490 . S
C3832 C3834 1.395 . S
C3832 C3835 1.403 . S
H3833 C3839 0.930 . S
C3834 H3820 0.930 . S
C3834 C3832 1.395 . S
C3834 C3837 1.403 . S
C3835 C3832 1.403 . S
C3835 C3836 1.524 . S
C3835 C3839 1.400 . S
C3836 H3821 0.960 . S
C3836 H3822 0.960 . S
C3836 H3823 0.960 . S
C3836 C3835 1.524 . S
C3837 C3834 1.403 . S
C3837 C3838 1.392 . S
C3837 C3841 1.495 . S
C3838 C3837 1.392 . S
C3838 C3839 1.385 . S
C3838 C3840 1.478 . S
C3839 H3833 0.930 . S
C3839 C3835 1.400 . S
C3839 C3838 1.385 . S
C3840 C3838 1.478 . S
C3840 C3842 1.381 . S
C3840 C3846 1.383 . S
C3841 C3837 1.495 . S
C3841 H3847 0.959 . S
C3841 H3848 0.961 . S
C3841 H3849 0.960 . S
C3842 C3840 1.381 . S
C3842 C3843 1.394 . S
C3842 H3850 0.930 . S
C3843 C3842 1.394 . S
C3843 C3844 1.383 . S
C3843 H3851 0.929 . S
C3844 C3843 1.383 . S
C3844 C3845 1.377 . S
C3845 H3829 0.930 . S
C3845 C3844 1.377 . S
C3845 C3846 1.379 . S
C3846 H3830 0.931 . S
C3846 C3840 1.383 . S
C3846 C3845 1.379 . S
H3847 C3841 0.959 . S
H3848 C3841 0.961 . S
H3849 C3841 0.960 . S
H3850 C3842 0.930 . S
H3851 C3843 0.929 . S
H3852 C3860 0.929 . S
H3853 C3862 0.930 . S
H3854 C3864 0.930 . S
H3855 C3867 0.929 . S
H3856 C3870 0.930 . S
H3857 C3872 0.960 . S
H3858 C3872 0.960 . S
H3859 C3872 0.960 . S
C3860 H3852 0.929 . S
C3860 C3861 1.377 . S
C3860 C3862 1.384 . S
C3861 C3860 1.377 . S
C3861 C3867 1.390 . S
C3862 H3853 0.930 . S
C3862 C3860 1.384 . S
C3862 C3863 1.372 . S
C3863 C3862 1.372 . S
C3863 C3864 1.400 . S
C3863 C3868 1.490 . S
C3864 H3854 0.930 . S
C3864 C3863 1.400 . S
C3864 C3867 1.386 . S
H3865 C3881 0.930 . S
H3866 C3882 0.931 . S
C3867 H3855 0.929 . S
C3867 C3861 1.390 . S
C3867 C3864 1.386 . S
C3868 C3863 1.490 . S
C3868 C3870 1.395 . S
C3868 C3871 1.403 . S
H3869 C3875 0.930 . S
C3870 H3856 0.930 . S
C3870 C3868 1.395 . S
C3870 C3873 1.403 . S
C3871 C3868 1.403 . S
C3871 C3872 1.524 . S
C3871 C3875 1.400 . S
C3872 H3857 0.960 . S
C3872 H3858 0.960 . S
C3872 H3859 0.960 . S
C3872 C3871 1.524 . S
C3873 C3870 1.403 . S
C3873 C3874 1.392 . S
C3873 C3877 1.495 . S
C3874 C3873 1.392 . S
C3874 C3875 1.385 . S
C3874 C3876 1.478 . S
C3875 H3869 0.930 . S
C3875 C3871 1.400 . S
C3875 C3874 1.385 . S
C3876 C3874 1.478 . S
C3876 C3878 1.381 . S
C3876 C3882 1.383 . S
C3877 C3873 1.495 . S
C3877 H3883 0.959 . S
C3877 H3884 0.961 . S
C3877 H3885 0.960 . S
C3878 C3876 1.381 . S
C3878 C3879 1.394 . S
C3878 H3886 0.930 . S
C3879 C3878 1.394 . S
C3879 C3880 1.383 . S
C3879 H3887 0.929 . S
C3880 C3879 1.383 . S
C3880 C3881 1.377 . S
C3881 H3865 0.930 . S
C3881 C3880 1.377 . S
C3881 C3882 1.379 . S
C3882 H3866 0.931 . S
C3882 C3876 1.383 . S
C3882 C3881 1.379 . S
H3883 C3877 0.959 . S
H3884 C3877 0.961 . S
H3885 C3877 0.960 . S
H3886 C3878 0.930 . S
H3887 C3879 0.929 . S
H3888 C3896 0.929 . S
H3889 C3898 0.930 . S
H3890 C3900 0.930 . S
H3891 C3903 0.929 . S
H3892 C3906 0.930 . S
H3893 C3908 0.960 . S
H3894 C3908 0.960 . S
H3895 C3908 0.960 . S
C3896 H3888 0.929 . S
C3896 C3897 1.377 . S
C3896 C3898 1.384 . S
C3897 C3896 1.377 . S
C3897 C3903 1.390 . S
C3898 H3889 0.930 . S
C3898 C3896 1.384 . S
C3898 C3899 1.372 . S
C3899 C3898 1.372 . S
C3899 C3900 1.400 . S
C3899 C3904 1.490 . S
C3900 H3890 0.930 . S
C3900 C3899 1.400 . S
C3900 C3903 1.386 . S
H3901 C3917 0.930 . S
H3902 C3918 0.931 . S
C3903 H3891 0.929 . S
C3903 C3897 1.390 . S
C3903 C3900 1.386 . S
C3904 C3899 1.490 . S
C3904 C3906 1.395 . S
C3904 C3907 1.403 . S
H3905 C3911 0.930 . S
C3906 H3892 0.930 . S
C3906 C3904 1.395 . S
C3906 C3909 1.403 . S
C3907 C3904 1.403 . S
C3907 C3908 1.524 . S
C3907 C3911 1.400 . S
C3908 H3893 0.960 . S
C3908 H3894 0.960 . S
C3908 H3895 0.960 . S
C3908 C3907 1.524 . S
C3909 C3906 1.403 . S
C3909 C3910 1.392 . S
C3909 C3913 1.495 . S
C3910 C3909 1.392 . S
C3910 C3911 1.385 . S
C3910 C3912 1.478 . S
C3911 H3905 0.930 . S
C3911 C3907 1.400 . S
C3911 C3910 1.385 . S
C3912 C3910 1.478 . S
C3912 C3914 1.381 . S
C3912 C3918 1.383 . S
C3913 C3909 1.495 . S
C3913 H3919 0.959 . S
C3913 H3920 0.961 . S
C3913 H3921 0.960 . S
C3914 C3912 1.381 . S
C3914 C3915 1.394 . S
C3914 H3922 0.930 . S
C3915 C3914 1.394 . S
C3915 C3916 1.383 . S
C3915 H3923 0.929 . S
C3916 C3915 1.383 . S
C3916 C3917 1.377 . S
C3917 H3901 0.930 . S
C3917 C3916 1.377 . S
C3917 C3918 1.379 . S
C3918 H3902 0.931 . S
C3918 C3912 1.383 . S
C3918 C3917 1.379 . S
H3919 C3913 0.959 . S
H3920 C3913 0.961 . S
H3921 C3913 0.960 . S
H3922 C3914 0.930 . S
H3923 C3915 0.929 . S
H3924 C3932 0.929 . S
H3925 C3934 0.930 . S
H3926 C3936 0.930 . S
H3927 C3939 0.929 . S
H3928 C3942 0.930 . S
H3929 C3944 0.960 . S
H3930 C3944 0.960 . S
H3931 C3944 0.960 . S
C3932 H3924 0.929 . S
C3932 C3933 1.377 . S
C3932 C3934 1.384 . S
C3933 C3932 1.377 . S
C3933 C3939 1.390 . S
C3934 H3925 0.930 . S
C3934 C3932 1.384 . S
C3934 C3935 1.372 . S
C3935 C3934 1.372 . S
C3935 C3936 1.400 . S
C3935 C3940 1.490 . S
C3936 H3926 0.930 . S
C3936 C3935 1.400 . S
C3936 C3939 1.386 . S
H3937 C3953 0.930 . S
H3938 C3954 0.931 . S
C3939 H3927 0.929 . S
C3939 C3933 1.390 . S
C3939 C3936 1.386 . S
C3940 C3935 1.490 . S
C3940 C3942 1.395 . S
C3940 C3943 1.403 . S
H3941 C3947 0.930 . S
C3942 H3928 0.930 . S
C3942 C3940 1.395 . S
C3942 C3945 1.403 . S
C3943 C3940 1.403 . S
C3943 C3944 1.524 . S
C3943 C3947 1.400 . S
C3944 H3929 0.960 . S
C3944 H3930 0.960 . S
C3944 H3931 0.960 . S
C3944 C3943 1.524 . S
C3945 C3942 1.403 . S
C3945 C3946 1.392 . S
C3945 C3949 1.495 . S
C3946 C3945 1.392 . S
C3946 C3947 1.385 . S
C3946 C3948 1.478 . S
C3947 H3941 0.930 . S
C3947 C3943 1.400 . S
C3947 C3946 1.385 . S
C3948 C3946 1.478 . S
C3948 C3950 1.381 . S
C3948 C3954 1.383 . S
C3949 C3945 1.495 . S
C3949 H3955 0.959 . S
C3949 H3956 0.961 . S
C3949 H3957 0.960 . S
C3950 C3948 1.381 . S
C3950 C3951 1.394 . S
C3950 H3958 0.930 . S
C3951 C3950 1.394 . S
C3951 C3952 1.383 . S
C3951 H3959 0.929 . S
C3952 C3951 1.383 . S
C3952 C3953 1.377 . S
C3953 H3937 0.930 . S
C3953 C3952 1.377 . S
C3953 C3954 1.379 . S
C3954 H3938 0.931 . S
C3954 C3948 1.383 . S
C3954 C3953 1.379 . S
H3955 C3949 0.959 . S
H3956 C3949 0.961 . S
H3957 C3949 0.960 . S
H3958 C3950 0.930 . S
H3959 C3951 0.929 . S
H3960 C3968 0.929 . S
H3961 C3970 0.930 . S
H3962 C3972 0.930 . S
H3963 C3975 0.929 . S
H3964 C3978 0.930 . S
H3965 C3980 0.960 . S
H3966 C3980 0.960 . S
H3967 C3980 0.960 . S
C3968 H3960 0.929 . S
C3968 C3969 1.377 . S
C3968 C3970 1.384 . S
C3969 C3968 1.377 . S
C3969 C3975 1.390 . S
C3970 H3961 0.930 . S
C3970 C3968 1.384 . S
C3970 C3971 1.372 . S
C3971 C3970 1.372 . S
C3971 C3972 1.400 . S
C3971 C3976 1.490 . S
C3972 H3962 0.930 . S
C3972 C3971 1.400 . S
C3972 C3975 1.386 . S
H3973 C3989 0.930 . S
H3974 C3990 0.931 . S
C3975 H3963 0.929 . S
C3975 C3969 1.390 . S
C3975 C3972 1.386 . S
C3976 C3971 1.490 . S
C3976 C3978 1.395 . S
C3976 C3979 1.403 . S
H3977 C3983 0.930 . S
C3978 H3964 0.930 . S
C3978 C3976 1.395 . S
C3978 C3981 1.403 . S
C3979 C3976 1.403 . S
C3979 C3980 1.524 . S
C3979 C3983 1.400 . S
C3980 H3965 0.960 . S
C3980 H3966 0.960 . S
C3980 H3967 0.960 . S
C3980 C3979 1.524 . S
C3981 C3978 1.403 . S
C3981 C3982 1.392 . S
C3981 C3985 1.495 . S
C3982 C3981 1.392 . S
C3982 C3983 1.385 . S
C3982 C3984 1.478 . S
C3983 H3977 0.930 . S
C3983 C3979 1.400 . S
C3983 C3982 1.385 . S
C3984 C3982 1.478 . S
C3984 C3986 1.381 . S
C3984 C3990 1.383 . S
C3985 C3981 1.495 . S
C3985 H3991 0.959 . S
C3985 H3992 0.961 . S
C3985 H3993 0.960 . S
C3986 C3984 1.381 . S
C3986 C3987 1.394 . S
C3986 H3994 0.930 . S
C3987 C3986 1.394 . S
C3987 C3988 1.383 . S
C3987 H3995 0.929 . S
C3988 C3987 1.383 . S
C3988 C3989 1.377 . S
C3989 H3973 0.930 . S
C3989 C3988 1.377 . S
C3989 C3990 1.379 . S
C3990 H3974 0.931 . S
C3990 C3984 1.383 . S
C3990 C3989 1.379 . S
H3991 C3985 0.959 . S
H3992 C3985 0.961 . S
H3993 C3985 0.960 . S
H3994 C3986 0.930 . S
H3995 C3987 0.929 . S
H3996 C4004 0.929 . S
H3997 C4006 0.930 . S
H3998 C4008 0.930 . S
H3999 C4011 0.929 . S
H4000 C4014 0.930 . S
H4001 C4016 0.960 . S
H4002 C4016 0.960 . S
H4003 C4016 0.960 . S
C4004 H3996 0.929 . S
C4004 C4005 1.377 . S
C4004 C4006 1.384 . S
C4005 C4004 1.377 . S
C4005 C4011 1.390 . S
C4006 H3997 0.930 . S
C4006 C4004 1.384 . S
C4006 C4007 1.372 . S
C4007 C4006 1.372 . S
C4007 C4008 1.400 . S
C4007 C4012 1.490 . S
C4008 H3998 0.930 . S
C4008 C4007 1.400 . S
C4008 C4011 1.386 . S
H4009 C4025 0.930 . S
H4010 C4026 0.931 . S
C4011 H3999 0.929 . S
C4011 C4005 1.390 . S
C4011 C4008 1.386 . S
C4012 C4007 1.490 . S
C4012 C4014 1.395 . S
C4012 C4015 1.403 . S
H4013 C4019 0.930 . S
C4014 H4000 0.930 . S
C4014 C4012 1.395 . S
C4014 C4017 1.403 . S
C4015 C4012 1.403 . S
C4015 C4016 1.524 . S
C4015 C4019 1.400 . S
C4016 H4001 0.960 . S
C4016 H4002 0.960 . S
C4016 H4003 0.960 . S
C4016 C4015 1.524 . S
C4017 C4014 1.403 . S
C4017 C4018 1.392 . S
C4017 C4021 1.495 . S
C4018 C4017 1.392 . S
C4018 C4019 1.385 . S
C4018 C4020 1.478 . S
C4019 H4013 0.930 . S
C4019 C4015 1.400 . S
C4019 C4018 1.385 . S
C4020 C4018 1.478 . S
C4020 C4022 1.381 . S
C4020 C4026 1.383 . S
C4021 C4017 1.495 . S
C4021 H4027 0.959 . S
C4021 H4028 0.961 . S
C4021 H4029 0.960 . S
C4022 C4020 1.381 . S
C4022 C4023 1.394 . S
C4022 H4030 0.930 . S
C4023 C4022 1.394 . S
C4023 C4024 1.383 . S
C4023 H4031 0.929 . S
C4024 C4023 1.383 . S
C4024 C4025 1.377 . S
C4025 H4009 0.930 . S
C4025 C4024 1.377 . S
C4025 C4026 1.379 . S
C4026 H4010 0.931 . S
C4026 C4020 1.383 . S
C4026 C4025 1.379 . S
H4027 C4021 0.959 . S
H4028 C4021 0.961 . S
H4029 C4021 0.960 . S
H4030 C4022 0.930 . S
H4031 C4023 0.929 . S
H4032 C4040 0.929 . S
H4033 C4042 0.930 . S
H4034 C4044 0.930 . S
H4035 C4047 0.894 1_655 S
H4036 C4050 0.930 . S
H4037 C4052 0.960 . S
H4038 C4052 0.960 . S
H4039 C4052 0.960 . S
C4040 H4032 0.929 . S
C4040 C4041 1.377 . S
C4040 C4042 1.384 . S
C4041 C4040 1.377 . S
C4041 C4047 1.390 . S
C4042 H4033 0.930 . S
C4042 C4040 1.384 . S
C4042 C4043 1.372 . S
C4043 C4042 1.372 . S
C4043 C4044 1.400 . S
C4043 C4048 1.490 . S
C4044 H4034 0.930 . S
C4044 C4043 1.400 . S
C4044 C4047 1.386 . S
H4045 C4061 0.930 . S
H4046 C4062 0.931 . S
C4047 H4035 0.894 1_455 S
C4047 C4041 1.390 . S
C4047 C4044 1.386 . S
C4048 C4043 1.490 . S
C4048 C4050 1.395 . S
C4048 C4051 1.403 . S
H4049 C4055 0.930 . S
C4050 H4036 0.930 . S
C4050 C4048 1.395 . S
C4050 C4053 1.403 . S
C4051 C4048 1.403 . S
C4051 C4052 1.524 . S
C4051 C4055 1.400 . S
C4052 H4037 0.960 . S
C4052 H4038 0.960 . S
C4052 H4039 0.960 . S
C4052 C4051 1.524 . S
C4053 C4050 1.403 . S
C4053 C4054 1.392 . S
C4053 C4057 1.495 . S
C4054 C4053 1.392 . S
C4054 C4055 1.385 . S
C4054 C4056 1.478 . S
C4055 H4049 0.930 . S
C4055 C4051 1.400 . S
C4055 C4054 1.385 . S
C4056 C4054 1.478 . S
C4056 C4058 1.381 . S
C4056 C4062 1.383 . S
C4057 C4053 1.495 . S
C4057 H4063 0.959 . S
C4057 H4064 0.961 . S
C4057 H4065 0.960 . S
C4058 C4056 1.381 . S
C4058 C4059 1.394 . S
C4058 H4066 0.930 . S
C4059 C4058 1.394 . S
C4059 C4060 1.383 . S
C4059 H4067 0.929 . S
C4060 C4059 1.383 . S
C4060 C4061 1.377 . S
C4061 H4045 0.930 . S
C4061 C4060 1.377 . S
C4061 C4062 1.379 . S
C4062 H4046 0.931 . S
C4062 C4056 1.383 . S
C4062 C4061 1.379 . S
H4063 C4057 0.959 . S
H4064 C4057 0.961 . S
H4065 C4057 0.960 . S
H4066 C4058 0.930 . S
H4067 C4059 0.929 . S
H4068 C4076 0.929 . S
H4069 C4078 0.930 . S
H4070 C4080 0.930 . S
H4071 C4083 0.929 . S
H4072 C4086 0.930 1_455 S
H4073 C4088 0.960 . S
H4074 C4088 0.960 . S
H4075 C4088 0.960 . S
C4076 H4068 0.929 . S
C4076 C4077 1.377 . S
C4076 C4078 1.384 . S
C4077 C4076 1.377 . S
C4077 C4083 1.390 . S
C4078 H4069 0.930 . S
C4078 C4076 1.384 . S
C4078 C4079 1.372 . S
C4079 C4078 1.372 . S
C4079 C4080 1.400 . S
C4079 C4084 1.490 . S
C4080 H4070 0.930 . S
C4080 C4079 1.400 . S
C4080 C4083 1.386 . S
H4081 C4097 0.930 . S
H4082 C4098 0.931 . S
C4083 H4071 0.929 . S
C4083 C4077 1.390 . S
C4083 C4080 1.386 . S
C4084 C4079 1.490 . S
C4084 C4086 1.395 . S
C4084 C4087 1.403 . S
H4085 C4091 0.930 . S
C4086 H4072 0.930 1_655 S
C4086 C4084 1.395 . S
C4086 C4089 1.432 . S
C4087 C4084 1.403 . S
C4087 C4088 1.524 . S
C4087 C4091 1.400 . S
C4088 H4073 0.960 . S
C4088 H4074 0.960 . S
C4088 H4075 0.960 . S
C4088 C4087 1.524 . S
C4089 C4086 1.432 . S
C4089 C4090 1.402 . S
C4089 C4093 1.460 1_655 S
C4090 C4089 1.402 . S
C4090 C4091 1.385 . S
C4090 C4092 1.478 . S
C4091 H4085 0.930 . S
C4091 C4087 1.400 . S
C4091 C4090 1.385 . S
C4092 C4090 1.478 . S
C4092 C4094 1.381 1_655 S
C4092 C4098 1.383 . S
C4093 C4089 1.460 1_455 S
C4093 H4099 0.959 . S
C4093 H4100 0.961 . S
C4093 H4101 0.960 . S
C4094 C4092 1.381 1_455 S
C4094 C4095 1.394 . S
C4094 H4102 0.930 . S
C4095 C4094 1.394 . S
C4095 C4096 1.383 1_455 S
C4095 H4103 0.929 . S
C4096 C4095 1.383 1_655 S
C4096 C4097 1.377 . S
C4097 H4081 0.930 . S
C4097 C4096 1.377 . S
C4097 C4098 1.379 . S
C4098 H4082 0.931 . S
C4098 C4092 1.383 . S
C4098 C4097 1.379 . S
H4099 C4093 0.959 . S
H4100 C4093 0.961 . S
H4101 C4093 0.960 . S
H4102 C4094 0.930 . S
H4103 C4095 0.929 . S
H4104 C4112 0.929 . S
H4105 C4114 0.930 . S
H4106 C4116 0.930 . S
H4107 C4119 0.929 . S
H4108 C4122 0.930 . S
H4109 C4124 0.960 . S
H4110 C4124 0.960 . S
H4111 C4124 0.960 . S
C4112 H4104 0.929 . S
C4112 C4113 1.377 . S
C4112 C4114 1.384 . S
C4113 C4112 1.377 . S
C4113 C4119 1.390 . S
C4114 H4105 0.930 . S
C4114 C4112 1.384 . S
C4114 C4115 1.372 . S
C4115 C4114 1.372 . S
C4115 C4116 1.400 . S
C4115 C4120 1.490 . S
C4116 H4106 0.930 . S
C4116 C4115 1.400 . S
C4116 C4119 1.386 . S
H4117 C4133 0.930 . S
H4118 C4134 0.931 . S
C4119 H4107 0.929 . S
C4119 C4113 1.390 . S
C4119 C4116 1.386 . S
C4120 C4115 1.490 . S
C4120 C4122 1.395 . S
C4120 C4123 1.403 . S
H4121 C4127 0.930 . S
C4122 H4108 0.930 . S
C4122 C4120 1.395 . S
C4122 C4125 1.403 . S
C4123 C4120 1.403 . S
C4123 C4124 1.524 . S
C4123 C4127 1.400 . S
C4124 H4109 0.960 . S
C4124 H4110 0.960 . S
C4124 H4111 0.960 . S
C4124 C4123 1.524 . S
C4125 C4122 1.403 . S
C4125 C4126 1.392 . S
C4125 C4129 1.495 . S
C4126 C4125 1.392 . S
C4126 C4127 1.385 . S
C4126 C4128 1.478 . S
C4127 H4121 0.930 . S
C4127 C4123 1.400 . S
C4127 C4126 1.385 . S
C4128 C4126 1.478 . S
C4128 C4130 1.381 . S
C4128 C4134 1.383 . S
C4129 C4125 1.495 . S
C4129 H4135 0.959 . S
C4129 H4136 0.961 . S
C4129 H4137 0.960 . S
C4130 C4128 1.381 . S
C4130 C4131 1.394 . S
C4130 H4138 0.930 . S
C4131 C4130 1.394 . S
C4131 C4132 1.383 . S
C4131 H4139 0.929 . S
C4132 C4131 1.383 . S
C4132 C4133 1.377 . S
C4133 H4117 0.930 . S
C4133 C4132 1.377 . S
C4133 C4134 1.379 . S
C4134 H4118 0.931 . S
C4134 C4128 1.383 . S
C4134 C4133 1.379 . S
H4135 C4129 0.959 . S
H4136 C4129 0.961 . S
H4137 C4129 0.960 . S
H4138 C4130 0.930 . S
H4139 C4131 0.929 . S
H4140 C4148 0.929 . S
H4141 C4150 0.930 . S
H4142 C4152 0.930 . S
H4143 C4155 0.929 . S
H4144 C4158 0.930 . S
H4145 C4160 0.960 . S
H4146 C4160 0.960 . S
H4147 C4160 0.960 . S
C4148 H4140 0.929 . S
C4148 C4149 1.377 . S
C4148 C4150 1.384 . S
C4149 C4148 1.377 . S
C4149 C4155 1.390 . S
C4150 H4141 0.930 . S
C4150 C4148 1.384 . S
C4150 C4151 1.372 . S
C4151 C4150 1.372 . S
C4151 C4152 1.400 . S
C4151 C4156 1.490 . S
C4152 H4142 0.930 . S
C4152 C4151 1.400 . S
C4152 C4155 1.386 . S
H4153 C4169 0.930 . S
H4154 C4170 0.931 . S
C4155 H4143 0.929 . S
C4155 C4149 1.390 . S
C4155 C4152 1.386 . S
C4156 C4151 1.490 . S
C4156 C4158 1.395 . S
C4156 C4159 1.403 . S
H4157 C4163 0.930 . S
C4158 H4144 0.930 . S
C4158 C4156 1.395 . S
C4158 C4161 1.403 . S
C4159 C4156 1.403 . S
C4159 C4160 1.524 . S
C4159 C4163 1.400 . S
C4160 H4145 0.960 . S
C4160 H4146 0.960 . S
C4160 H4147 0.960 . S
C4160 C4159 1.524 . S
C4161 C4158 1.403 . S
C4161 C4162 1.392 . S
C4161 C4165 1.495 . S
C4162 C4161 1.392 . S
C4162 C4163 1.385 . S
C4162 C4164 1.478 . S
C4163 H4157 0.930 . S
C4163 C4159 1.400 . S
C4163 C4162 1.385 . S
C4164 C4162 1.478 . S
C4164 C4166 1.381 1_545 S
C4164 C4170 1.383 . S
C4165 C4161 1.495 . S
C4165 H4171 0.959 . S
C4165 H4172 0.961 . S
C4165 H4173 0.960 1_545 S
C4166 C4164 1.381 1_565 S
C4166 C4167 1.394 . S
C4166 H4174 0.930 . S
C4167 C4166 1.394 . S
C4167 C4168 1.383 1_565 S
C4167 H4175 0.929 . S
C4168 C4167 1.383 1_545 S
C4168 C4169 1.377 . S
C4169 H4153 0.930 . S
C4169 C4168 1.377 . S
C4169 C4170 1.379 . S
C4170 H4154 0.931 . S
C4170 C4164 1.383 . S
C4170 C4169 1.379 . S
H4171 C4165 0.959 . S
H4172 C4165 0.961 . S
H4173 C4165 0.960 1_565 S
H4174 C4166 0.930 . S
H4175 C4167 0.929 . S
C1593 C9 1.095 . S
C1612 C981 1.009 . S
C1629 C19 1.584 . S
C1648 C1061 1.554 . S
C1684 C1129 1.347 . S
C1665 C33 1.358 . S
C1701 C37 1.747 . S
C1720 C1209 1.741 . S
C1737 C5 1.478 . S
C1756 C1283 1.457 . S
C1773 C23 1.646 . S
C1792 C1351 1.543 . S
C1809 C47 1.034 . S
C1828 C1277 1.040 . S
C1864 C1357 1.497 . S
C1845 C65 1.495 . S
C1900 C1203 1.218 . S
C1881 C75 1.259 . S
C1917 C79 1.620 . S
C1936 C1135 1.660 . S
C1972 C987 1.523 1_455 S
C1953 C51 1.471 . S
C1989 C61 1.471 . S
C2008 C1055 1.463 . S
C2025 C93 1.455 . S
C2044 C1425 1.389 . S
C2061 C103 1.630 . S
C2080 C1505 1.558 . S
C2116 C1573 1.473 . S
C2097 C117 1.577 . S
C2133 C121 1.968 . S
C2152 C321 1.934 . S
C2169 C89 1.759 . S
C2188 C395 1.683 . S
C2205 C107 1.683 . S
C2224 C463 1.615 . S
C2241 C131 1.096 . S
C2260 C389 1.095 . S
C2277 C149 1.539 . S
C2296 C469 1.547 . S
C2332 C315 1.358 . S
C2313 C159 1.394 . S
C2368 C1579 1.890 . S
C2349 C163 1.904 . S
C2404 C1431 1.602 . S
C2385 C135 1.615 . S
C2440 C1499 1.503 . S
C2421 C145 1.520 . S
C2457 C177 1.315 . S
C2476 C537 1.182 . S
C2493 C187 1.640 . S
C2512 C617 1.601 . S
C2529 C201 1.632 . S
C2548 C685 1.532 . S
C2565 C205 2.094 . S
C2584 C765 2.040 . S
C2620 C839 1.669 . S
C2601 C173 1.728 . S
C2656 C907 1.652 . S
C2637 C191 1.720 . S
C2692 C833 1.220 . S
C2673 C215 1.250 . S
C2728 C913 1.522 . S
C2709 C233 1.536 . S
C2745 C243 1.326 . S
C2764 C759 1.315 . S
C2800 C691 1.744 . S
C2781 C247 1.756 . S
C2817 C219 1.660 . S
C2836 C543 1.651 . S
C2872 C611 1.468 . S
C2853 C229 1.497 . S
C2908 C291 1.947 . S
C2889 C11 2.005 . S
C2925 C14 1.436 . S
C2944 C365 1.418 . S
C2980 C451 1.552 . S
C2961 C28 1.574 . S
C3016 C525 1.209 . S
C2997 C39 1.241 1_556 S
C3052 C587 1.639 . S
C3033 C0 1.664 1_556 S
C3088 C673 1.465 . S
C3069 C25 1.479 . S
C3105 C42 2.252 . S
C3124 C661 2.170 . S
C3141 C67 1.650 . S
C3160 C513 1.542 . S
C3177 C70 1.666 . S
C3196 C599 1.635 . S
C3213 C81 1.388 . S
C3232 C377 1.319 . S
C3268 C439 1.770 . S
C3249 C53 1.865 . S
C3285 C56 1.769 . S
C3304 C303 1.699 . S
C3340 C735 1.891 . S
C3321 C95 1.944 . S
C3357 C98 1.629 1_545 S
C3376 C809 1.607 . S
C3393 C112 1.656 . S
C3412 C895 1.650 . S
C3448 C969 0.954 . S
C3429 C123 0.954 . S
C3465 C84 1.578 . S
C3484 C1031 1.555 . S
C3501 C109 1.327 . S
C3520 C1117 1.333 . S
C3537 C126 1.914 . S
C3556 C1105 1.894 . S
C3573 C151 1.363 . S
C3592 C957 1.356 . S
C3628 C1043 1.568 . S
C3609 C154 1.618 . S
C3645 C165 1.356 . S
C3664 C821 1.305 . S
C3681 C137 1.889 1_545 S
C3700 C883 1.815 . S
C3736 C747 1.846 . S
C3717 C140 1.908 1_655 S
C3772 C1179 1.770 . S
C3753 C179 1.786 . S
C3789 C182 1.265 . S
C3808 C1253 1.274 . S
C3825 C196 1.528 . S
C3844 C1339 1.528 . S
C3880 C1413 1.203 . S
C3861 C207 1.209 . S
C3916 C1475 1.683 . S
C3897 C168 1.708 1_565 S
C3933 C193 1.559 1_455 S
C3952 C1561 1.624 . S
C3969 C210 2.201 . S
C3988 C1549 2.112 . S
C4005 C235 1.824 1_565 S
C4024 C1401 1.764 . S
C4060 C1487 1.688 . S
C4041 C238 1.742 1_455 S
C4096 C1265 0.953 . S
C4077 C249 0.951 . S
C4132 C1327 1.697 . S
C4113 C221 1.767 . S
C4149 C224 1.485 . S
C4168 C1191 1.472 1_545 S
