# Generated by pormake.
# Topology pth, (4,4)-cn, num edge types: 1
# Building blocks:
#     Node 0, Type 0, BuildingBlock: CEKHIL_clean_sbu_0, # of connection points: 4
#     Node 1, Type 0, BuildingBlock: CEKHIL_clean_sbu_0, # of connection points: 4
#     Node 2, Type 0, BuildingBlock: CEKHIL_clean_sbu_0, # of connection points: 4
#     Node 3, Type 1, BuildingBlock: MUDLON_clean_linker_0, # of connection points: 4
#     Node 4, Type 1, BuildingBlock: MUDLON_clean_linker_0, # of connection points: 4
#     Node 5, Type 1, BuildingBlock: MUDLON_clean_linker_0, # of connection points: 4
#     Edge 6, Type (0, 1), BuildingBlock: XUDNAN_clean_linker_2, # of connection points: 2
#     Edge 7, Type (0, 1), BuildingBlock: XUDNAN_clean_linker_2, # of connection points: 2
#     Edge 8, Type (0, 1), BuildingBlock: XUDNAN_clean_linker_2, # of connection points: 2
#     Edge 9, Type (0, 1), BuildingBlock: XUDNAN_clean_linker_2, # of connection points: 2
#     Edge 10, Type (0, 1), BuildingBlock: XUDNAN_clean_linker_2, # of connection points: 2
#     Edge 11, Type (0, 1), BuildingBlock: XUDNAN_clean_linker_2, # of connection points: 2
#     Edge 12, Type (0, 1), BuildingBlock: XUDNAN_clean_linker_2, # of connection points: 2
#     Edge 13, Type (0, 1), BuildingBlock: XUDNAN_clean_linker_2, # of connection points: 2
#     Edge 14, Type (0, 1), BuildingBlock: XUDNAN_clean_linker_2, # of connection points: 2
#     Edge 15, Type (0, 1), BuildingBlock: XUDNAN_clean_linker_2, # of connection points: 2
#     Edge 16, Type (0, 1), BuildingBlock: XUDNAN_clean_linker_2, # of connection points: 2
#     Edge 17, Type (0, 1), BuildingBlock: XUDNAN_clean_linker_2, # of connection points: 2
# Relax obj value: 0.035
# Max RMSD: 0.091
# Mean RMSD: 0.088
data_MOF--net-pth--node1-CEKHIL_clean_sbu_0--node2-MUDLON_clean_linker_0--edge1-XUDNAN_clean_linker_2
_symmetry_space_group_name_H-M    P1
_symmetry_Int_Tables_number       1
_symmetry_cell_setting            triclinic
loop_
_symmetry_equiv_pos_as_xyz
'x, y, z'
_cell_length_a     33.203969
_cell_length_b     33.342359
_cell_length_c     68.830379
_cell_angle_alpha  90.833565
_cell_angle_beta   90.047781
_cell_angle_gamma 120.2523
loop_
_atom_site_label
_atom_site_type_symbol
_atom_site_fract_x
_atom_site_fract_y
_atom_site_fract_z
_atom_type_partial_charge
Co0 Co 1.00294 0.01853 0.04257 0.0
O1 O 0.97521 0.97149 0.06225 0.0
O2 O 0.03179 0.98071 0.04258 0.0
C3 C 0.01139 0.07835 0.06152 0.0
O4 O 0.04247 0.06319 0.02132 0.0
Co5 Co 0.95766 0.07427 0.02763 0.0
O6 O 0.0184 0.11361 0.01477 0.0
C7 C 0.91693 0.97502 0.01696 0.0
C8 C 0.00437 0.95837 0.05685 0.0
C9 C 0.04742 0.09955 0.01277 0.0
O10 O 0.95398 0.97554 0.02297 0.0
O11 O 0.91006 0.00926 0.01937 0.0
O12 O 0.04182 0.06479 0.06252 0.0
O13 O 0.97586 0.05358 0.05037 0.0
Co14 Co 0.00493 0.00773 0.36039 0.0
O15 O 0.97431 0.01567 0.33851 0.0
O16 O 0.02381 0.07329 0.35767 0.0
C17 C 0.02617 0.96166 0.34431 0.0
O18 O 0.04377 0.01086 0.38414 0.0
Co19 Co 0.96319 0.9078 0.37595 0.0
O20 O 0.01859 0.93726 0.39335 0.0
C21 C 0.91547 0.96018 0.3839 0.0
C22 C 0.99623 0.05969 0.3425 0.0
C23 C 0.04624 0.98095 0.39502 0.0
O24 O 0.95112 0.99715 0.37755 0.0
O25 O 0.9113 0.91991 0.38261 0.0
O26 O 0.0515 0.00655 0.34347 0.0
O27 O 0.98723 0.94631 0.35337 0.0
Co28 Co 0.01607 0.01217 0.69135 0.0
O29 O 0.06465 0.0406 0.6723 0.0
O30 O 0.05549 0.98482 0.69204 0.0
C31 C 0.95688 1.00061 0.67143 0.0
O32 O 0.96938 0.9727 0.71205 0.0
Co33 Co 0.95949 0.05769 0.70474 0.0
O34 O 0.92135 0.99978 0.7194 0.0
C35 C 0.05806 0.09952 0.71613 0.0
C36 C 0.0785 0.01253 0.67797 0.0
C37 C 0.93388 0.96959 0.72102 0.0
O38 O 0.05715 0.06177 0.71107 0.0
O39 O 0.02435 0.10676 0.7128 0.0
O40 O 0.97207 0.97154 0.67146 0.0
O41 O 0.98019 0.03751 0.68218 0.0
H42 H 0.92601 0.67414 0.21679 0.0
N43 N 0.9809 0.65033 0.19806 0.0
H44 H 0.94608 0.72747 0.24458 0.0
H45 H 0.06362 0.69137 0.21855 0.0
H46 H 0.08332 0.74279 0.24681 0.0
H47 H 0.06297 0.72339 0.18511 0.0
H48 H 0.07273 0.77046 0.15675 0.0
H49 H 0.91648 0.63755 0.17181 0.0
H50 H 0.92588 0.68543 0.14348 0.0
H51 H 0.92545 0.56438 0.21014 0.0
H52 H 0.06174 0.6532 0.18634 0.0
H53 H 0.94271 0.50123 0.21228 0.0
H54 H 0.07949 0.59107 0.18876 0.0
H55 H 0.97199 0.33667 0.21971 0.0
H56 H 0.94941 0.27895 0.24495 0.0
H57 H 0.09482 0.33028 0.25826 0.0
H58 H 0.11686 0.38954 0.2335 0.0
H59 H 0.12535 0.38371 0.19098 0.0
H60 H 0.11598 0.33577 0.1621 0.0
H61 H 0.97182 0.30014 0.15733 0.0
H62 H 0.98205 0.34919 0.18574 0.0
H63 H 0.01277 0.42144 0.23449 0.0
H64 H 0.99251 0.4812 0.23091 0.0
H65 H 0.05986 0.51639 0.17512 0.0
N66 N 0.06109 0.3974 0.20799 0.0
H67 H 0.08074 0.45668 0.17865 0.0
C68 C 0.99294 0.67841 0.21561 0.0
C69 C 0.96022 0.68871 0.22345 0.0
C70 C 0.97174 0.719 0.23943 0.0
C71 C 0.0164 0.73956 0.24802 0.0
C72 C 0.04884 0.7282 0.24043 0.0
C73 C 0.03741 0.69828 0.22431 0.0
C74 C 0.98895 0.67615 0.18041 0.0
C75 C 0.03305 0.71392 0.17587 0.0
C76 C 0.03857 0.74105 0.15967 0.0
C77 C 1.00007 0.73161 0.14788 0.0
C78 C 0.95613 0.69366 0.15235 0.0
C79 C 0.95077 0.66611 0.16839 0.0
C80 C 0.99187 0.61349 0.19797 0.0
C81 C 0.95896 0.57017 0.20528 0.0
C82 C 0.96906 0.5343 0.20664 0.0
C83 C 0.01255 0.54102 0.20072 0.0
C84 C 0.04539 0.58438 0.19319 0.0
C85 C 0.03524 0.62021 0.19183 0.0
C86 C 0.04631 0.36779 0.22478 0.0
C87 C 0.99899 0.33616 0.22832 0.0
C88 C 0.98617 0.30282 0.2427 0.0
C89 C 0.02027 0.29927 0.25353 0.0
C90 C 0.06751 0.33212 0.25045 0.0
C91 C 0.08025 0.366 0.23625 0.0
C92 C 0.05463 0.37016 0.19049 0.0
C93 C 0.09191 0.36575 0.18356 0.0
C94 C 0.08633 0.33805 0.16718 0.0
C95 C 0.04313 0.31403 0.15737 0.0
C96 C 0.00575 0.31862 0.16434 0.0
C97 C 0.0114 0.34636 0.1807 0.0
C98 C 0.04644 0.43183 0.20629 0.0
C99 C 0.02234 0.44061 0.22114 0.0
C100 C 0.01077 0.47538 0.21917 0.0
C101 C 0.02392 0.50327 0.20261 0.0
C102 C 0.04909 0.49561 0.18809 0.0
C103 C 0.06057 0.46088 0.19001 0.0
H104 H 0.77218 0.11387 0.54743 0.0
N105 N 0.68991 0.06068 0.53039 0.0
H106 H 0.80723 0.09338 0.57394 0.0
H107 H 0.64573 0.98164 0.55219 0.0
H108 H 0.67983 0.96132 0.57889 0.0
H109 H 0.6618 0.97189 0.51821 0.0
H110 H 0.68767 0.94902 0.48917 0.0
H111 H 0.74264 0.11547 0.50219 0.0
H112 H 0.76764 0.0929 0.47255 0.0
H113 H 0.68165 0.13543 0.53337 0.0
H114 H 0.6004 0.9864 0.52824 0.0
H115 H 0.61041 0.13956 0.53343 0.0
H116 H 0.52874 0.98952 0.52986 0.0
H117 H 0.35516 0.1242 0.54652 0.0
H118 H 0.30429 0.10388 0.57436 0.0
H119 H 0.33386 0.99476 0.58798 0.0
H120 H 0.38077 0.01262 0.55877 0.0
H121 H 0.32654 0.99326 0.52356 0.0
H122 H 0.26465 0.97351 0.49956 0.0
H123 H 0.33664 0.11497 0.47982 0.0
H124 H 0.39861 0.13448 0.50397 0.0
H125 H 0.47794 0.13526 0.55056 0.0
H126 H 0.54753 0.12838 0.55134 0.0
H127 H 0.47869 0.00696 0.5136 0.0
N128 N 0.39746 0.08061 0.53249 0.0
H129 H 0.40834 0.01223 0.51415 0.0
C130 C 0.7064 0.0496 0.54777 0.0
C131 C 0.75162 0.08087 0.5545 0.0
C132 C 0.7715 0.0691 0.5697 0.0
C133 C 0.74645 0.02554 0.57852 0.0
C134 C 0.70038 0.99488 0.57224 0.0
C135 C 0.68059 0.00669 0.557 0.0
C136 C 0.70049 0.04555 0.51238 0.0
C137 C 0.68449 0.99848 0.50826 0.0
C138 C 0.69921 0.98543 0.49152 0.0
C139 C 0.72997 0.01911 0.47847 0.0
C140 C 0.74462 0.06607 0.48239 0.0
C141 C 0.73006 0.07905 0.4992 0.0
C142 C 0.64657 0.06081 0.53119 0.0
C143 C 0.64826 0.10352 0.53266 0.0
C144 C 0.60729 0.10565 0.53285 0.0
C145 C 0.56324 0.06483 0.5319 0.0
C146 C 0.56171 0.02183 0.53043 0.0
C147 C 0.6029 0.01987 0.52984 0.0
C148 C 0.3723 0.07054 0.5506 0.0
C149 C 0.35085 0.09613 0.55564 0.0
C150 C 0.32197 0.08454 0.57181 0.0
C151 C 0.31472 0.04767 0.58385 0.0
C152 C 0.33751 0.0228 0.57904 0.0
C153 C 0.36523 0.0335 0.56242 0.0
C154 C 0.36712 0.06553 0.5156 0.0
C155 C 0.32975 0.01966 0.51367 0.0
C156 C 0.29426 0.00854 0.50005 0.0
C157 C 0.29549 0.04291 0.48803 0.0
C158 C 0.33482 0.08776 0.48884 0.0
C159 C 0.37023 0.09894 0.50258 0.0
C160 C 0.43793 0.07491 0.53216 0.0
C161 C 0.47792 0.10709 0.54252 0.0
C162 C 0.51792 0.10324 0.54277 0.0
C163 C 0.51946 0.06743 0.5323 0.0
C164 C 0.47903 0.03476 0.52204 0.0
C165 C 0.43858 0.0381 0.52215 0.0
H166 H 0.65422 0.7341 0.87933 0.0
N167 N 0.66404 0.66132 0.86716 0.0
H168 H 0.6873 0.78109 0.90899 0.0
H169 H 0.71413 0.65025 0.89452 0.0
H170 H 0.74837 0.69788 0.92411 0.0
H171 H 0.73752 0.66381 0.85105 0.0
H172 H 0.7813 0.7082 0.82298 0.0
H173 H 0.64162 0.71391 0.84443 0.0
H174 H 0.68503 0.75851 0.81593 0.0
H175 H 0.58554 0.65792 0.88236 0.0
H176 H 0.63356 0.58004 0.84894 0.0
H177 H 0.50753 0.59106 0.88258 0.0
H178 H 0.55442 0.51371 0.84764 0.0
H179 H 0.25955 0.3704 0.88253 0.0
H180 H 0.21835 0.31812 0.90907 0.0
H181 H 0.33087 0.28897 0.91482 0.0
H182 H 0.36992 0.33889 0.88743 0.0
H183 H 0.34689 0.31537 0.85031 0.0
H184 H 0.31212 0.27364 0.8195 0.0
H185 H 0.25407 0.36236 0.81005 0.0
H186 H 0.28926 0.40373 0.84057 0.0
H187 H 0.36142 0.47491 0.86776 0.0
H188 H 0.43935 0.54316 0.86653 0.0
H189 H 0.49841 0.45328 0.86477 0.0
N190 N 0.33812 0.38622 0.86596 0.0
H191 H 0.42011 0.38577 0.86418 0.0
C192 C 0.68107 0.68812 0.88495 0.0
C193 C 0.67409 0.72552 0.88916 0.0
C194 C 0.69306 0.75236 0.90609 0.0
C195 C 0.72027 0.74298 0.91886 0.0
C196 C 0.72765 0.7059 0.91449 0.0
C197 C 0.70793 0.67857 0.89773 0.0
C198 C 0.68643 0.68543 0.84969 0.0
C199 C 0.72567 0.68405 0.84329 0.0
C200 C 0.75049 0.70936 0.8272 0.0
C201 C 0.73656 0.73677 0.81706 0.0
C202 C 0.69689 0.73802 0.82348 0.0
C203 C 0.6719 0.71242 0.83966 0.0
C204 C 0.61607 0.62403 0.86584 0.0
C205 C 0.5794 0.62671 0.8748 0.0
C206 C 0.53418 0.58813 0.87473 0.0
C207 C 0.52404 0.54618 0.86528 0.0
C208 C 0.56059 0.54454 0.85561 0.0
C209 C 0.60595 0.58276 0.85608 0.0
C210 C 0.31803 0.35918 0.88311 0.0
C211 C 0.27544 0.35305 0.88971 0.0
C212 C 0.2521 0.32325 0.90502 0.0
C213 C 0.27113 0.2991 0.91431 0.0
C214 C 0.31458 0.30624 0.90792 0.0
C215 C 0.3375 0.33551 0.89235 0.0
C216 C 0.32065 0.36273 0.84756 0.0
C217 C 0.32705 0.32595 0.84144 0.0
C218 C 0.30694 0.30202 0.82393 0.0
C219 C 0.28054 0.31483 0.81225 0.0
C220 C 0.27488 0.35208 0.81846 0.0
C221 C 0.29474 0.37568 0.83591 0.0
C222 C 0.38494 0.42536 0.86657 0.0
C223 C 0.39139 0.47021 0.8672 0.0
C224 C 0.43618 0.50923 0.86662 0.0
C225 C 0.47592 0.50435 0.8657 0.0
C226 C 0.46909 0.45897 0.86518 0.0
C227 C 0.42412 0.41997 0.86528 0.0
H228 H 0.06242 0.11969 0.09485 0.0
H229 H 0.96987 0.12835 0.05275 0.0
H230 H 0.97201 0.19268 0.07167 0.0
H231 H 0.00963 0.13738 0.13614 0.0
H232 H 0.06307 0.17119 0.14976 0.0
H233 H 0.05851 0.129 0.13195 0.0
H234 H 0.13134 0.19264 0.11443 0.0
H235 H 0.13623 0.23504 0.13225 0.0
H236 H 0.13242 0.24466 0.10678 0.0
H237 H 0.98055 0.25305 0.09578 0.0
H238 H 0.99398 0.30496 0.12395 0.0
H239 H 0.07794 0.25517 0.15149 0.0
C240 C 0.04343 0.13583 0.08945 0.0
C241 C 0.01633 0.11935 0.07224 0.0
C242 C 0.99099 0.14052 0.06586 0.0
C243 C 0.99206 0.17718 0.07648 0.0
C244 C 0.01837 0.19212 0.09357 0.0
C245 C 0.04357 0.17217 0.10007 0.0
C246 C 0.06635 0.19279 0.11961 0.0
C247 C 0.04829 0.15535 0.13529 0.0
C248 C 0.11976 0.21777 0.11817 0.0
C249 C 0.04962 0.22704 0.1231 0.0
C250 C 0.02232 0.22632 0.10781 0.0
C251 C 1.00195 0.25402 0.10785 0.0
C252 C 0.00949 0.28313 0.124 0.0
C253 C 0.03688 0.28415 0.14002 0.0
C254 C 0.05738 0.2558 0.1394 0.0
H255 H 0.92606 0.03238 0.4071 0.0
H256 H 0.8225 0.89644 0.38481 0.0
H257 H 0.7621 0.89993 0.40451 0.0
H258 H 0.88585 0.01226 0.45506 0.0
H259 H 0.89799 0.07057 0.46 0.0
H260 H 0.9317 0.06036 0.44224 0.0
H261 H 0.91016 0.10211 0.41629 0.0
H262 H 0.87643 0.11258 0.43402 0.0
H263 H 0.84967 0.08285 0.41146 0.0
H264 H 0.71409 0.91603 0.42805 0.0
H265 H 0.68253 0.9418 0.45477 0.0
H266 H 0.81864 0.06496 0.46339 0.0
C267 C 0.89041 0.00392 0.40601 0.0
C268 C 0.87872 0.96439 0.39424 0.0
C269 C 0.83205 0.92713 0.39366 0.0
C270 C 0.79753 0.92889 0.40474 0.0
C271 C 0.81033 0.96794 0.4165 0.0
C272 C 0.85568 0.00473 0.41728 0.0
C273 C 0.86111 0.04061 0.43244 0.0
C274 C 0.89623 0.04625 0.44838 0.0
C275 C 0.87517 0.0873 0.42298 0.0
C276 C 0.81188 0.01798 0.4402 0.0
C277 C 0.78302 0.97641 0.43064 0.0
C278 C 0.73636 0.94858 0.43563 0.0
C279 C 0.71883 0.96337 0.45095 0.0
C280 C 0.748 0.00538 0.46131 0.0
C281 C 0.79507 0.03311 0.45562 0.0
H282 H 0.8767 0.96222 0.75138 0.0
H283 H 0.92802 0.88487 0.7188 0.0
H284 H 0.88021 0.8162 0.73883 0.0
H285 H 0.87793 0.91455 0.7979 0.0
H286 H 0.8261 0.91357 0.80638 0.0
H287 H 0.86307 0.95612 0.78903 0.0
H288 H 0.79243 0.92849 0.76567 0.0
H289 H 0.7553 0.8856 0.7829 0.0
H290 H 0.75924 0.86813 0.75839 0.0
H291 H 0.82631 0.75575 0.76194 0.0
H292 H 0.77478 0.70906 0.78838 0.0
H293 H 0.76099 0.82638 0.80726 0.0
C294 C 0.8777 0.93076 0.7484 0.0
C295 C 0.90595 0.92886 0.73343 0.0
C296 C 0.90679 0.88723 0.7302 0.0
C297 C 0.87956 0.84796 0.74144 0.0
C298 C 0.852 0.85094 0.756 0.0
C299 C 0.85123 0.89138 0.75968 0.0
C300 C 0.82013 0.88586 0.77679 0.0
C301 C 0.84851 0.91952 0.79351 0.0
C302 C 0.77935 0.8924 0.77056 0.0
C303 C 0.80328 0.83587 0.78206 0.0
C304 C 0.8219 0.81637 0.76978 0.0
C305 C 0.81179 0.77074 0.77174 0.0
C306 C 0.78262 0.74456 0.78689 0.0
C307 C 0.76408 0.76405 0.80007 0.0
C308 C 0.77417 0.81023 0.79737 0.0
H309 H 0.94878 0.90259 0.0861 0.0
H310 H 0.06879 0.93137 0.05108 0.0
H311 H 0.07867 0.87399 0.06959 0.0
H312 H 0.99341 0.89043 0.13088 0.0
H313 H 0.93862 0.84361 0.13931 0.0
H314 H 0.93931 0.88501 0.12262 0.0
H315 H 0.88636 0.81813 0.09869 0.0
H316 H 0.88543 0.77647 0.11535 0.0
H317 H 0.9041 0.77767 0.09067 0.0
H318 H 0.07894 0.81757 0.09341 0.0
H319 H 0.06732 0.76358 0.11993 0.0
H320 H 0.94605 0.76982 0.13894 0.0
C321 C 0.97682 0.89644 0.08217 0.0
C322 C 0.008 0.92148 0.06711 0.0
C323 C 0.04435 0.91253 0.0625 0.0
C324 C 0.05028 0.88 0.07294 0.0
C325 C 0.01932 0.85634 0.08786 0.0
C326 C 0.98304 0.86381 0.09237 0.0
C327 C 0.95526 0.83449 0.10936 0.0
C328 C 0.95677 0.86523 0.12656 0.0
C329 C 0.9048 0.79962 0.10314 0.0
C330 C 0.98211 0.81002 0.11392 0.0
C331 C 0.01892 0.8231 0.10134 0.0
C332 C 0.04994 0.80671 0.10321 0.0
C333 C 0.04321 0.77625 0.11836 0.0
C334 C 0.00564 0.76227 0.13139 0.0
C335 C 0.97458 0.77923 0.12899 0.0
H336 H 0.14271 0.03196 0.39506 0.0
H337 H 0.02238 0.96189 0.43233 0.0
H338 H 0.07389 0.97454 0.46038 0.0
H339 H 0.20486 0.98355 0.41529 0.0
H340 H 0.26195 0.03451 0.41389 0.0
H341 H 0.21686 0.02626 0.397 0.0
H342 H 0.22719 0.10598 0.40722 0.0
H343 H 0.27283 0.11479 0.42397 0.0
H344 H 0.22337 0.11827 0.43253 0.0
H345 H 0.13576 0.98617 0.48331 0.0
H346 H 0.20658 1.00114 0.50101 0.0
H347 H 0.28929 0.06407 0.4497 0.0
C348 C 0.12762 0.02082 0.40929 0.0
C349 C 0.07872 0.99661 0.41172 0.0
C350 C 0.05981 0.98095 0.43034 0.0
C351 C 0.08876 0.9879 0.44631 0.0
C352 C 0.13668 0.0105 0.44344 0.0
C353 C 0.15626 0.02724 0.42551 0.0
C354 C 0.20879 0.04745 0.42637 0.0
C355 C 0.22398 0.02137 0.4123 0.0
C356 C 0.23457 0.09974 0.42228 0.0
C357 C 0.21522 0.03841 0.44742 0.0
C358 C 0.17302 0.01718 0.45692 0.0
C359 C 0.16913 0.00321 0.47611 0.0
C360 C 0.2095 0.01143 0.48598 0.0
C361 C 0.25337 0.03346 0.47671 0.0
C362 C 0.25624 0.0474 0.45717 0.0
H363 H 0.10325 0.09295 0.74831 0.0
H364 H 0.10474 0.19032 0.70689 0.0
H365 H 0.16979 0.25518 0.72498 0.0
H366 H 0.11785 0.16213 0.78915 0.0
H367 H 0.15395 0.14619 0.80275 0.0
H368 H 0.11334 0.10652 0.78487 0.0
H369 H 0.1805 0.10285 0.76739 0.0
H370 H 0.2214 0.14259 0.78527 0.0
H371 H 0.23102 0.15586 0.75982 0.0
H372 H 0.22917 0.30969 0.74864 0.0
H373 H 0.27562 0.35155 0.77768 0.0
H374 H 0.23285 0.22009 0.8054 0.0
C375 C 0.11835 0.12785 0.74283 0.0
C376 C 0.09976 0.13685 0.72608 0.0
C377 C 0.11897 0.18294 0.71962 0.0
C378 C 0.15599 0.21988 0.72974 0.0
C379 C 0.17306 0.21018 0.74644 0.0
C380 C 0.15479 0.16539 0.75305 0.0
C381 C 0.17585 0.16531 0.77264 0.0
C382 C 0.13799 0.14378 0.78827 0.0
C383 C 0.20386 0.14016 0.77118 0.0
C384 C 0.20774 0.21707 0.77619 0.0
C385 C 0.20623 0.24213 0.76068 0.0
C386 C 0.23085 0.29047 0.76084 0.0
C387 C 0.25689 0.31394 0.77747 0.0
C388 C 0.2577 0.28918 0.79389 0.0
C389 C 0.23353 0.24003 0.793 0.0
H390 H 0.92974 0.06361 0.66251 0.0
H391 H 0.89638 0.92167 0.6513 0.0
H392 H 0.83481 0.91094 0.62812 0.0
H393 H 0.80986 0.04253 0.6582 0.0
H394 H 0.82837 0.09674 0.64623 0.0
H395 H 0.86673 0.09188 0.66335 0.0
H396 H 0.93089 0.11957 0.63716 0.0
H397 H 0.89272 0.12432 0.61995 0.0
H398 H 0.91798 0.08884 0.61415 0.0
H399 H 0.78083 0.91721 0.60452 0.0
H400 H 0.73902 0.94025 0.58179 0.0
H401 H 0.80709 0.07829 0.60817 0.0
C402 C 0.90889 0.03003 0.65543 0.0
C403 C 0.91764 0.99336 0.65878 0.0
C404 C 0.89018 0.95019 0.649 0.0
C405 C 0.85506 0.94372 0.63583 0.0
C406 C 0.84781 0.98078 0.6326 0.0
C407 C 0.87387 0.02308 0.64213 0.0
C408 C 0.86094 0.05809 0.63513 0.0
C409 C 0.84023 0.07319 0.65172 0.0
C410 C 0.90314 0.10018 0.62606 0.0
C411 C 0.82424 0.02914 0.6199 0.0
C412 C 0.81686 0.98452 0.61883 0.0
C413 C 0.78585 0.95187 0.6054 0.0
C414 C 0.76202 0.96526 0.59261 0.0
C415 C 0.76937 0.01101 0.59323 0.0
C416 C 0.8007 0.04311 0.60724 0.0
H417 H 0.92707 0.91913 0.98984 0.0
H418 H 0.82381 0.93946 0.01991 0.0
H419 H 0.76148 0.87726 0.99985 0.0
H420 H 0.87703 0.9045 0.94364 0.0
H421 H 0.89013 0.8611 0.93499 0.0
H422 H 0.92637 0.90253 0.95343 0.0
H423 H 0.9124 0.83556 0.97617 0.0
H424 H 0.87635 0.79383 0.95772 0.0
H425 H 0.85355 0.79135 0.98171 0.0
H426 H 0.71154 0.81959 0.97459 0.0
H427 H 0.67652 0.76794 0.94586 0.0
H428 H 0.81123 0.78458 0.93152 0.0
C429 C 0.89118 0.90943 0.99253 0.0
C430 C 0.88009 0.93371 0.00652 0.0
C431 C 0.83293 0.92114 0.00928 0.0
C432 C 0.79729 0.8858 0.998 0.0
C433 C 0.80934 0.86341 0.98393 0.0
C434 C 0.85505 0.87446 0.98116 0.0
C435 C 0.85869 0.8477 0.96388 0.0
C436 C 0.8899 0.88094 0.94806 0.0
C437 C 0.87628 0.81517 0.97026 0.0
C438 C 0.80809 0.82049 0.95729 0.0
C439 C 0.78025 0.82998 0.96914 0.0
C440 C 0.73283 0.81136 0.96534 0.0
C441 C 0.7133 0.78234 0.94895 0.0
C442 C 0.74111 0.77213 0.93659 0.0
C443 C 0.78903 0.79116 0.94095 0.0
H444 H 0.96818 0.8698 0.33495 0.0
H445 H 0.10879 0.98473 0.327 0.0
H446 H 0.1243 0.93678 0.30394 0.0
H447 H 0.99574 0.77444 0.32965 0.0
H448 H 0.94217 0.73769 0.31653 0.0
H449 H 0.9446 0.7785 0.33463 0.0
H450 H 0.91511 0.81425 0.30906 0.0
H451 H 0.91308 0.77402 0.29086 0.0
H452 H 0.94671 0.83558 0.28674 0.0
H453 H 0.12129 0.88044 0.27882 0.0
H454 H 0.10063 0.81948 0.2538 0.0
H455 H 0.96214 0.74012 0.27829 0.0
C456 C 1.00266 0.88438 0.32879 0.0
C457 C 0.03743 0.93086 0.33284 0.0
C458 C 0.08175 0.94912 0.32415 0.0
C459 C 0.0909 0.92212 0.31107 0.0
C460 C 0.0554 0.87689 0.30689 0.0
C461 C 0.01226 0.85798 0.3156 0.0
C462 C 0.97886 0.81003 0.3073 0.0
C463 C 0.96451 0.77297 0.32297 0.0
C464 C 0.93592 0.80842 0.29794 0.0
C465 C 0.0095 0.80557 0.29215 0.0
C466 C 0.05366 0.84426 0.29231 0.0
C467 C 0.08713 0.84951 0.27882 0.0
C468 C 0.07507 0.81448 0.26469 0.0
C469 C 0.02983 0.77459 0.26408 0.0
C470 C 0.99697 0.77008 0.27825 0.0
H471 H 0.15218 0.08262 0.65919 0.0
H472 H 0.08963 0.93712 0.67337 0.0
H473 H 0.14719 0.93092 0.65257 0.0
H474 H 0.17514 0.07427 0.61072 0.0
H475 H 0.23076 0.12729 0.61025 0.0
H476 H 0.18742 0.12121 0.62749 0.0
H477 H 0.24593 0.13964 0.65585 0.0
H478 H 0.28972 0.14631 0.63866 0.0
H479 H 0.27436 0.10598 0.65824 0.0
H480 H 0.20419 0.93857 0.62636 0.0
H481 H 0.26075 0.96071 0.5999 0.0
H482 H 0.29283 0.10389 0.60623 0.0
C483 C 0.15121 0.04969 0.65819 0.0
C484 C 0.11653 0.01029 0.66781 0.0
C485 C 0.11622 0.96777 0.66621 0.0
C486 C 0.14865 0.96392 0.65439 0.0
C487 C 0.18183 0.00324 0.64471 0.0
C488 C 0.18401 0.04558 0.64688 0.0
C489 C 0.22246 0.08235 0.63468 0.0
C490 C 0.20274 0.10243 0.61991 0.0
C491 C 0.26037 0.12084 0.64763 0.0
C492 C 0.24034 0.0537 0.62468 0.0
C493 C 0.21645 0.00816 0.63059 0.0
C494 C 0.22407 0.97446 0.62203 0.0
C495 C 0.25677 0.98762 0.60701 0.0
C496 C 0.28219 0.03437 0.60077 0.0
C497 C 0.27408 0.06773 0.61019 0.0
H498 H 0.08095 0.18675 0.99797 0.0
H499 H 0.1036 0.06934 0.99695 0.0
H500 H 0.16618 0.10922 0.97294 0.0
H501 H 0.09691 0.21089 0.94806 0.0
H502 H 0.12702 0.27312 0.95122 0.0
H503 H 0.0859 0.23657 0.96913 0.0
H504 H 0.1494 0.27523 0.99602 0.0
H505 H 0.19072 0.31212 0.97819 0.0
H506 H 0.20397 0.2764 0.99324 0.0
H507 H 0.22175 0.1593 0.94689 0.0
H508 H 0.26811 0.21667 0.92215 0.0
H509 H 0.21295 0.3038 0.9419 0.0
C510 C 0.09928 0.16951 0.99284 0.0
C511 C 0.08716 0.12475 0.99934 0.0
C512 C 0.11226 0.10363 0.99227 0.0
C513 C 0.14786 0.12599 0.9786 0.0
C514 C 0.15845 0.16979 0.97231 0.0
C515 C 0.13525 0.19154 0.97938 0.0
C516 C 0.15277 0.23829 0.97005 0.0
C517 C 0.1133 0.23977 0.95896 0.0
C518 C 0.17558 0.27785 0.98528 0.0
C519 C 0.18864 0.23896 0.95627 0.0
C520 C 0.19146 0.1992 0.9578 0.0
C521 C 0.22043 0.19097 0.94582 0.0
C522 C 0.24699 0.2241 0.93186 0.0
C523 C 0.2448 0.26532 0.92999 0.0
C524 C 0.21544 0.27272 0.94265 0.0
H525 H 0.04773 0.15642 0.34095 0.0
H526 H 0.93043 0.0342 0.31444 0.0
H527 H 0.92169 0.08296 0.2905 0.0
H528 H 1.00008 0.23502 0.33282 0.0
H529 H 0.0564 0.2842 0.32751 0.0
H530 H 0.05184 0.24047 0.34392 0.0
H531 H 0.10974 0.22867 0.32283 0.0
H532 H 0.11428 0.27214 0.30632 0.0
H533 H 0.0973 0.21467 0.29732 0.0
H534 H 0.92881 0.1419 0.26772 0.0
H535 H 0.95005 0.20964 0.24759 0.0
H536 H 0.06085 0.29674 0.28858 0.0
C537 C 0.01975 0.14018 0.33032 0.0
C538 C 0.9898 0.09138 0.32963 0.0
C539 C 0.95394 0.07139 0.31532 0.0
C540 C 0.94852 0.09882 0.30162 0.0
C541 C 0.97898 0.14646 0.30238 0.0
C542 C 0.01368 0.16729 0.31639 0.0
C543 C 0.04255 0.21935 0.31321 0.0
C544 C 0.03741 0.24636 0.33039 0.0
C545 C 0.09401 0.23458 0.30971 0.0
C546 C 0.01942 0.22388 0.29494 0.0
C547 C 0.9826 0.18131 0.28914 0.0
C548 C 0.95695 0.1757 0.2723 0.0
C549 C 0.96915 0.21466 0.26101 0.0
C550 C 0.00664 0.25905 0.26656 0.0
C551 C 0.03195 0.2635 0.28388 0.0
loop_
_geom_bond_atom_site_label_1
_geom_bond_atom_site_label_2
_geom_bond_distance
_geom_bond_site_symmetry_2
_ccdc_geom_bond_type
Co0 O1 2.216 1_445 S
Co0 O2 2.091 1_545 S
Co0 O4 2.004 . S
Co0 O10 2.021 1_445 S
Co0 O12 2.137 . S
Co0 O13 2.244 1_455 S
O1 Co0 2.216 1_665 S
O1 C8 1.247 1_655 S
O2 Co0 2.091 1_565 S
O2 C8 1.261 . S
C3 O12 1.247 . S
C3 O13 1.272 1_455 S
O4 Co0 2.004 . S
O4 C9 1.259 . S
Co5 O6 2.042 1_654 S
Co5 O11 2.052 . S
Co5 O13 2.135 . S
O6 Co5 2.042 1_456 S
O6 C9 1.223 1_556 S
C7 O10 1.238 . S
C7 O11 1.241 1_565 S
C8 O1 1.247 1_455 S
C8 O2 1.261 . S
C9 O4 1.259 . S
C9 O6 1.223 1_554 S
O10 Co0 2.021 1_665 S
O10 C7 1.238 . S
O11 Co5 2.052 . S
O11 C7 1.241 1_545 S
O12 Co0 2.137 . S
O12 C3 1.247 . S
O13 Co0 2.244 1_655 S
O13 C3 1.272 1_655 S
O13 Co5 2.135 . S
Co14 O15 2.216 1_455 S
Co14 O16 2.091 . S
Co14 O18 2.004 . S
Co14 O24 2.021 1_455 S
Co14 O26 2.137 . S
Co14 O27 2.244 1_445 S
O15 Co14 2.216 1_655 S
O15 C22 1.247 1_655 S
O16 Co14 2.091 . S
O16 C22 1.261 . S
C17 O26 1.247 1_565 S
C17 O27 1.272 1_455 S
O18 Co14 2.004 . S
O18 C23 1.259 . S
Co19 O20 2.061 1_655 S
Co19 O25 2.052 . S
Co19 O27 2.135 . S
O20 Co19 2.061 1_455 S
O20 C23 1.235 1_565 S
C21 O24 1.238 . S
C21 O25 1.241 1_545 S
C22 O15 1.247 1_455 S
C22 O16 1.261 . S
C23 O18 1.259 . S
C23 O20 1.235 1_545 S
O24 Co14 2.021 1_655 S
O24 C21 1.238 . S
O25 Co19 2.052 . S
O25 C21 1.241 1_565 S
O26 Co14 2.137 . S
O26 C17 1.247 1_545 S
O27 Co14 2.244 1_665 S
O27 C17 1.272 1_655 S
O27 Co19 2.135 . S
Co28 O29 2.216 . S
Co28 O30 2.091 1_545 S
Co28 O32 2.004 1_445 S
Co28 O38 2.021 . S
Co28 O40 2.137 1_445 S
Co28 O41 2.244 1_455 S
O29 Co28 2.216 . S
O29 C36 1.247 . S
O30 Co28 2.091 1_565 S
O30 C36 1.261 1_565 S
C31 O40 1.247 1_545 S
C31 O41 1.272 . S
O32 Co28 2.004 1_665 S
O32 C37 1.259 . S
Co33 O34 2.061 1_545 S
Co33 O39 2.052 1_655 S
Co33 O41 2.135 . S
O34 Co33 2.061 1_565 S
O34 C37 1.235 . S
C35 O38 1.238 . S
C35 O39 1.241 . S
C36 O29 1.247 . S
C36 O30 1.261 1_545 S
C37 O32 1.259 . S
C37 O34 1.235 . S
O38 Co28 2.021 . S
O38 C35 1.238 . S
O39 Co33 2.052 1_455 S
O39 C35 1.241 . S
O40 Co28 2.137 1_665 S
O40 C31 1.247 1_565 S
O41 Co28 2.244 1_655 S
O41 C31 1.272 . S
O41 Co33 2.135 . S
H42 C69 0.929 . S
N43 C68 1.433 . S
N43 C74 1.435 . S
N43 C80 1.423 . S
H44 C70 0.930 . S
H45 C73 0.931 . S
H46 C72 0.929 . S
H47 C75 0.930 . S
H48 C76 0.932 . S
H49 C79 0.929 . S
H50 C78 0.931 . S
H51 C81 0.929 . S
H52 C85 0.932 . S
H53 C82 0.931 . S
H54 C84 0.929 1_455 S
H55 C87 0.929 . S
H56 C88 0.930 . S
H57 C90 0.929 . S
H58 C91 0.931 . S
H59 C93 0.930 . S
H60 C94 0.932 . S
H61 C96 0.931 . S
H62 C97 0.929 . S
H63 C99 0.929 . S
H64 C100 0.931 . S
H65 C102 0.929 1_455 S
N66 C86 1.433 . S
N66 C92 1.435 . S
N66 C98 1.423 . S
H67 C103 0.932 . S
C68 N43 1.433 . S
C68 C69 1.363 . S
C68 C73 1.370 1_655 S
C69 H42 0.929 . S
C69 C68 1.363 . S
C69 C70 1.385 . S
C70 H44 0.930 . S
C70 C69 1.385 . S
C70 C71 1.357 1_655 S
C71 C70 1.357 1_455 S
C71 C72 1.406 . S
C72 H46 0.929 . S
C72 C71 1.406 . S
C72 C73 1.391 . S
C73 H45 0.931 . S
C73 C68 1.370 1_455 S
C73 C72 1.391 . S
C74 N43 1.435 . S
C74 C75 1.358 1_655 S
C74 C79 1.371 . S
C75 H47 0.930 . S
C75 C74 1.358 1_455 S
C75 C76 1.405 . S
C76 H48 0.932 . S
C76 C75 1.405 . S
C76 C77 1.383 . S
C77 C76 1.383 . S
C77 C78 1.393 1_455 S
C78 H50 0.931 . S
C78 C77 1.393 1_655 S
C78 C79 1.382 . S
C79 H49 0.929 . S
C79 C74 1.371 . S
C79 C78 1.382 . S
C80 N43 1.423 . S
C80 C81 1.362 . S
C80 C85 1.388 1_655 S
C81 H51 0.929 . S
C81 C80 1.362 . S
C81 C82 1.376 . S
C82 H53 0.931 . S
C82 C81 1.376 . S
C82 C83 1.396 . S
C83 C82 1.396 . S
C83 C84 1.348 . S
C83 C101 1.472 . S
C84 H54 0.929 1_655 S
C84 C83 1.348 . S
C84 C85 1.443 1_655 S
C85 H52 0.932 . S
C85 C80 1.388 1_455 S
C85 C84 1.443 1_455 S
C86 N66 1.433 . S
C86 C87 1.363 . S
C86 C91 1.370 1_655 S
C87 H55 0.929 . S
C87 C86 1.363 . S
C87 C88 1.385 . S
C88 H56 0.930 . S
C88 C87 1.385 . S
C88 C89 1.357 1_655 S
C89 C88 1.357 1_455 S
C89 C90 1.406 . S
C90 H57 0.929 . S
C90 C89 1.406 . S
C90 C91 1.391 . S
C91 H58 0.931 . S
C91 C86 1.370 1_455 S
C91 C90 1.391 . S
C92 N66 1.435 . S
C92 C93 1.358 1_655 S
C92 C97 1.371 . S
C93 H59 0.930 . S
C93 C92 1.358 1_455 S
C93 C94 1.405 . S
C94 H60 0.932 . S
C94 C93 1.405 . S
C94 C95 1.383 . S
C95 C94 1.383 . S
C95 C96 1.393 1_455 S
C96 H61 0.931 . S
C96 C95 1.393 1_655 S
C96 C97 1.382 . S
C97 H62 0.929 . S
C97 C92 1.371 . S
C97 C96 1.382 . S
C98 N66 1.423 . S
C98 C99 1.362 . S
C98 C103 1.388 1_655 S
C99 H63 0.929 . S
C99 C98 1.362 . S
C99 C100 1.376 . S
C100 H64 0.931 . S
C100 C99 1.376 . S
C100 C101 1.396 . S
C101 C83 1.472 . S
C101 C100 1.396 . S
C101 C102 1.348 . S
C102 H65 0.929 1_655 S
C102 C101 1.348 . S
C102 C103 1.443 1_655 S
C103 H67 0.932 . S
C103 C98 1.388 1_455 S
C103 C102 1.443 1_455 S
H104 C131 0.929 . S
N105 C130 1.433 . S
N105 C136 1.435 . S
N105 C142 1.423 . S
H106 C132 0.930 . S
H107 C135 0.931 . S
H108 C134 0.929 . S
H109 C137 0.930 . S
H110 C138 0.932 . S
H111 C141 0.929 . S
H112 C140 0.931 . S
H113 C143 0.929 . S
H114 C147 0.932 1_565 S
H115 C144 0.931 . S
H116 C146 0.929 . S
H117 C149 0.929 . S
H118 C150 0.930 . S
H119 C152 0.929 . S
H120 C153 0.930 . S
H121 C155 0.930 . S
H122 C156 0.932 . S
H123 C158 0.931 . S
H124 C159 0.929 . S
H125 C161 0.929 . S
H126 C162 0.931 . S
H127 C164 0.929 . S
N128 C148 1.433 . S
N128 C154 1.435 . S
N128 C160 1.423 . S
H129 C165 0.932 1_565 S
C130 N105 1.433 . S
C130 C131 1.363 . S
C130 C135 1.370 1_545 S
C131 H104 0.929 . S
C131 C130 1.363 . S
C131 C132 1.385 . S
C132 H106 0.930 . S
C132 C131 1.385 . S
C132 C133 1.357 . S
C133 C132 1.357 . S
C133 C134 1.406 1_545 S
C134 H108 0.929 . S
C134 C133 1.406 1_565 S
C134 C135 1.391 . S
C135 H107 0.931 . S
C135 C130 1.370 1_565 S
C135 C134 1.391 . S
C136 N105 1.435 . S
C136 C137 1.358 1_545 S
C136 C141 1.371 . S
C137 H109 0.930 . S
C137 C136 1.358 1_565 S
C137 C138 1.405 . S
C138 H110 0.932 . S
C138 C137 1.405 . S
C138 C139 1.383 1_565 S
C139 C138 1.383 1_545 S
C139 C140 1.393 . S
C140 H112 0.931 . S
C140 C139 1.393 . S
C140 C141 1.382 . S
C141 H111 0.929 . S
C141 C136 1.371 . S
C141 C140 1.382 . S
C142 N105 1.423 . S
C142 C143 1.362 . S
C142 C147 1.388 . S
C143 H113 0.929 . S
C143 C142 1.362 . S
C143 C144 1.376 . S
C144 H115 0.931 . S
C144 C143 1.376 . S
C144 C145 1.396 . S
C145 C144 1.396 . S
C145 C146 1.348 . S
C145 C163 1.472 . S
C146 H116 0.929 . S
C146 C145 1.348 . S
C146 C147 1.443 . S
C147 H114 0.932 1_545 S
C147 C142 1.388 . S
C147 C146 1.443 . S
C148 N128 1.433 . S
C148 C149 1.363 . S
C148 C153 1.371 1_545 S
C149 H117 0.929 . S
C149 C148 1.363 . S
C149 C150 1.385 . S
C150 H118 0.930 . S
C150 C149 1.385 . S
C150 C151 1.357 . S
C151 C150 1.357 . S
C151 C152 1.406 1_545 S
C152 H119 0.929 . S
C152 C151 1.406 1_565 S
C152 C153 1.391 . S
C153 H120 0.930 . S
C153 C148 1.371 1_565 S
C153 C152 1.391 . S
C154 N128 1.435 . S
C154 C155 1.358 1_545 S
C154 C159 1.371 . S
C155 H121 0.930 . S
C155 C154 1.358 1_565 S
C155 C156 1.405 . S
C156 H122 0.932 . S
C156 C155 1.405 . S
C156 C157 1.383 1_565 S
C157 C156 1.383 1_545 S
C157 C158 1.393 . S
C158 H123 0.931 . S
C158 C157 1.393 . S
C158 C159 1.382 . S
C159 H124 0.929 . S
C159 C154 1.371 . S
C159 C158 1.382 . S
C160 N128 1.423 . S
C160 C161 1.362 . S
C160 C165 1.388 . S
C161 H125 0.929 . S
C161 C160 1.362 . S
C161 C162 1.376 . S
C162 H126 0.931 . S
C162 C161 1.376 . S
C162 C163 1.396 . S
C163 C145 1.472 . S
C163 C162 1.396 . S
C163 C164 1.348 . S
C164 H127 0.929 . S
C164 C163 1.348 . S
C164 C165 1.443 . S
C165 H129 0.932 1_545 S
C165 C160 1.388 . S
C165 C164 1.443 . S
H166 C193 0.929 . S
N167 C192 1.433 . S
N167 C198 1.435 . S
N167 C204 1.423 . S
H168 C194 0.930 . S
H169 C197 0.931 . S
H170 C196 0.929 . S
H171 C199 0.930 . S
H172 C200 0.932 . S
H173 C203 0.929 . S
H174 C202 0.931 . S
H175 C205 0.929 . S
H176 C209 0.932 . S
H177 C206 0.931 . S
H178 C208 0.929 . S
H179 C211 0.929 . S
H180 C212 0.930 . S
H181 C214 0.929 . S
H182 C215 0.931 . S
H183 C217 0.930 . S
H184 C218 0.932 . S
H185 C220 0.931 . S
H186 C221 0.929 . S
H187 C223 0.929 . S
H188 C224 0.931 . S
H189 C226 0.929 . S
N190 C210 1.433 . S
N190 C216 1.435 . S
N190 C222 1.423 . S
H191 C227 0.932 . S
C192 N167 1.433 . S
C192 C193 1.363 . S
C192 C197 1.370 . S
C193 H166 0.929 . S
C193 C192 1.363 . S
C193 C194 1.385 . S
C194 H168 0.930 . S
C194 C193 1.385 . S
C194 C195 1.357 . S
C195 C194 1.357 . S
C195 C196 1.406 . S
C196 H170 0.929 . S
C196 C195 1.406 . S
C196 C197 1.391 . S
C197 H169 0.931 . S
C197 C192 1.370 . S
C197 C196 1.391 . S
C198 N167 1.435 . S
C198 C199 1.358 . S
C198 C203 1.371 . S
C199 H171 0.930 . S
C199 C198 1.358 . S
C199 C200 1.405 . S
C200 H172 0.932 . S
C200 C199 1.405 . S
C200 C201 1.383 . S
C201 C200 1.383 . S
C201 C202 1.393 . S
C202 H174 0.931 . S
C202 C201 1.393 . S
C202 C203 1.382 . S
C203 H173 0.929 . S
C203 C198 1.371 . S
C203 C202 1.382 . S
C204 N167 1.423 . S
C204 C205 1.362 . S
C204 C209 1.388 . S
C205 H175 0.929 . S
C205 C204 1.362 . S
C205 C206 1.376 . S
C206 H177 0.931 . S
C206 C205 1.376 . S
C206 C207 1.396 . S
C207 C206 1.396 . S
C207 C208 1.348 . S
C207 C225 1.472 . S
C208 H178 0.929 . S
C208 C207 1.348 . S
C208 C209 1.443 . S
C209 H176 0.932 . S
C209 C204 1.388 . S
C209 C208 1.443 . S
C210 N190 1.433 . S
C210 C211 1.363 . S
C210 C215 1.370 . S
C211 H179 0.929 . S
C211 C210 1.363 . S
C211 C212 1.385 . S
C212 H180 0.930 . S
C212 C211 1.385 . S
C212 C213 1.357 . S
C213 C212 1.357 . S
C213 C214 1.406 . S
C214 H181 0.929 . S
C214 C213 1.406 . S
C214 C215 1.391 . S
C215 H182 0.931 . S
C215 C210 1.370 . S
C215 C214 1.391 . S
C216 N190 1.435 . S
C216 C217 1.358 . S
C216 C221 1.371 . S
C217 H183 0.930 . S
C217 C216 1.358 . S
C217 C218 1.405 . S
C218 H184 0.932 . S
C218 C217 1.405 . S
C218 C219 1.383 . S
C219 C218 1.383 . S
C219 C220 1.393 . S
C220 H185 0.931 . S
C220 C219 1.393 . S
C220 C221 1.382 . S
C221 H186 0.929 . S
C221 C216 1.371 . S
C221 C220 1.382 . S
C222 N190 1.423 . S
C222 C223 1.362 . S
C222 C227 1.388 . S
C223 H187 0.929 . S
C223 C222 1.362 . S
C223 C224 1.376 . S
C224 H188 0.931 . S
C224 C223 1.376 . S
C224 C225 1.396 . S
C225 C207 1.472 . S
C225 C224 1.396 . S
C225 C226 1.348 . S
C226 H189 0.929 . S
C226 C225 1.348 . S
C226 C227 1.443 . S
C227 H191 0.932 . S
C227 C222 1.388 . S
C227 C226 1.443 . S
H228 C240 0.928 . S
H229 C242 0.930 . S
H230 C243 0.930 . S
H231 C247 0.959 . S
H232 C247 0.959 . S
H233 C247 0.961 . S
H234 C248 0.960 . S
H235 C248 0.961 . S
H236 C248 0.959 . S
H237 C251 0.929 . S
H238 C252 0.931 . S
H239 C254 0.927 . S
C240 H228 0.928 . S
C240 C241 1.399 . S
C240 C245 1.399 . S
C241 C240 1.399 . S
C241 C242 1.376 . S
C242 H229 0.930 . S
C242 C241 1.376 . S
C242 C243 1.388 . S
C243 H230 0.930 . S
C243 C242 1.388 . S
C243 C244 1.390 . S
C244 C243 1.390 . S
C244 C245 1.394 . S
C244 C250 1.465 . S
C245 C240 1.399 . S
C245 C244 1.394 . S
C245 C246 1.516 . S
C246 C245 1.516 . S
C246 C247 1.502 1_455 S
C246 C248 1.561 . S
C246 C249 1.526 . S
C247 H231 0.959 . S
C247 H232 0.959 . S
C247 H233 0.961 . S
C247 C246 1.502 1_655 S
C248 H234 0.960 . S
C248 H235 0.961 . S
C248 H236 0.959 . S
C248 C246 1.561 . S
C249 C246 1.526 . S
C249 C250 1.396 . S
C249 C254 1.390 . S
C250 C244 1.465 . S
C250 C249 1.396 . S
C250 C251 1.399 . S
C251 H237 0.929 . S
C251 C250 1.399 . S
C251 C252 1.385 . S
C252 H238 0.931 . S
C252 C251 1.385 . S
C252 C253 1.389 . S
C253 C252 1.389 . S
C253 C254 1.387 . S
C254 H239 0.927 . S
C254 C249 1.390 . S
C254 C253 1.387 . S
H255 C267 0.930 . S
H256 C269 0.930 . S
H257 C270 0.930 . S
H258 C274 0.959 . S
H259 C274 0.959 . S
H260 C274 0.961 . S
H261 C275 0.960 . S
H262 C275 0.961 . S
H263 C275 0.959 . S
H264 C278 0.929 . S
H265 C279 0.931 . S
H266 C281 0.930 . S
C267 H255 0.930 . S
C267 C268 1.399 . S
C267 C272 1.399 . S
C268 C267 1.399 . S
C268 C269 1.376 1_545 S
C269 H256 0.930 . S
C269 C268 1.376 1_565 S
C269 C270 1.388 . S
C270 H257 0.930 . S
C270 C269 1.388 . S
C270 C271 1.390 1_565 S
C271 C270 1.390 1_545 S
C271 C272 1.394 . S
C271 C277 1.465 . S
C272 C267 1.399 . S
C272 C271 1.394 . S
C272 C273 1.516 . S
C273 C272 1.516 . S
C273 C274 1.502 . S
C273 C275 1.561 . S
C273 C276 1.526 . S
C274 H258 0.959 . S
C274 H259 0.959 . S
C274 H260 0.961 . S
C274 C273 1.502 . S
C275 H261 0.960 . S
C275 H262 0.961 . S
C275 H263 0.959 . S
C275 C273 1.561 . S
C276 C273 1.526 . S
C276 C277 1.396 . S
C276 C281 1.390 . S
C277 C271 1.465 . S
C277 C276 1.396 . S
C277 C278 1.399 1_545 S
C278 H264 0.929 . S
C278 C277 1.399 1_565 S
C278 C279 1.385 . S
C279 H265 0.931 . S
C279 C278 1.385 . S
C279 C280 1.389 1_565 S
C280 C279 1.389 1_545 S
C280 C281 1.387 . S
C281 H266 0.930 . S
C281 C276 1.390 . S
C281 C280 1.387 . S
H282 C294 0.930 . S
H283 C296 0.930 . S
H284 C297 0.930 . S
H285 C301 0.959 . S
H286 C301 0.959 . S
H287 C301 0.961 . S
H288 C302 0.960 . S
H289 C302 0.961 . S
H290 C302 0.959 . S
H291 C305 0.929 . S
H292 C306 0.931 . S
H293 C308 0.930 . S
C294 H282 0.930 . S
C294 C295 1.399 . S
C294 C299 1.399 . S
C295 C294 1.399 . S
C295 C296 1.376 . S
C296 H283 0.930 . S
C296 C295 1.376 . S
C296 C297 1.388 . S
C297 H284 0.930 . S
C297 C296 1.388 . S
C297 C298 1.390 . S
C298 C297 1.390 . S
C298 C299 1.394 . S
C298 C304 1.465 . S
C299 C294 1.399 . S
C299 C298 1.394 . S
C299 C300 1.516 . S
C300 C299 1.516 . S
C300 C301 1.502 . S
C300 C302 1.561 . S
C300 C303 1.526 . S
C301 H285 0.959 . S
C301 H286 0.959 . S
C301 H287 0.961 . S
C301 C300 1.502 . S
C302 H288 0.960 . S
C302 H289 0.961 . S
C302 H290 0.959 . S
C302 C300 1.561 . S
C303 C300 1.526 . S
C303 C304 1.396 . S
C303 C308 1.390 . S
C304 C298 1.465 . S
C304 C303 1.396 . S
C304 C305 1.399 . S
C305 H291 0.929 . S
C305 C304 1.399 . S
C305 C306 1.385 . S
C306 H292 0.931 . S
C306 C305 1.385 . S
C306 C307 1.389 . S
C307 C306 1.389 . S
C307 C308 1.387 . S
C308 H293 0.930 . S
C308 C303 1.390 . S
C308 C307 1.387 . S
H309 C321 0.930 . S
H310 C323 0.930 . S
H311 C324 0.930 . S
H312 C328 0.959 . S
H313 C328 0.959 . S
H314 C328 0.961 . S
H315 C329 0.960 . S
H316 C329 0.961 . S
H317 C329 0.959 1_455 S
H318 C332 0.929 . S
H319 C333 0.931 . S
H320 C335 0.930 . S
C321 H309 0.930 . S
C321 C322 1.399 1_655 S
C321 C326 1.399 . S
C322 C321 1.399 1_455 S
C322 C323 1.376 . S
C323 H310 0.930 . S
C323 C322 1.376 . S
C323 C324 1.388 . S
C324 H311 0.930 . S
C324 C323 1.388 . S
C324 C325 1.390 . S
C325 C324 1.390 . S
C325 C326 1.394 1_455 S
C325 C331 1.465 . S
C326 C321 1.399 . S
C326 C325 1.394 1_655 S
C326 C327 1.516 . S
C327 C326 1.516 . S
C327 C328 1.502 . S
C327 C329 1.561 . S
C327 C330 1.526 . S
C328 H312 0.959 . S
C328 H313 0.959 . S
C328 H314 0.961 . S
C328 C327 1.502 . S
C329 H315 0.960 . S
C329 H316 0.961 . S
C329 H317 0.959 1_655 S
C329 C327 1.561 . S
C330 C327 1.526 . S
C330 C331 1.396 1_655 S
C330 C335 1.390 . S
C331 C325 1.465 . S
C331 C330 1.396 1_455 S
C331 C332 1.399 . S
C332 H318 0.929 . S
C332 C331 1.399 . S
C332 C333 1.385 . S
C333 H319 0.931 . S
C333 C332 1.385 . S
C333 C334 1.389 . S
C334 C333 1.389 . S
C334 C335 1.387 1_455 S
C335 H320 0.930 . S
C335 C330 1.390 . S
C335 C334 1.387 1_655 S
H336 C348 0.930 . S
H337 C350 0.930 1_565 S
H338 C351 0.930 . S
H339 C355 0.959 . S
H340 C355 0.959 . S
H341 C355 0.961 . S
H342 C356 0.960 . S
H343 C356 0.961 . S
H344 C356 0.959 . S
H345 C359 0.929 . S
H346 C360 0.931 . S
H347 C362 0.930 . S
C348 H336 0.930 . S
C348 C349 1.399 . S
C348 C353 1.399 . S
C349 C348 1.399 . S
C349 C350 1.376 . S
C350 H337 0.930 1_545 S
C350 C349 1.376 . S
C350 C351 1.388 1_545 S
C351 H338 0.930 . S
C351 C350 1.388 1_565 S
C351 C352 1.390 1_565 S
C352 C351 1.390 1_545 S
C352 C353 1.394 . S
C352 C358 1.465 . S
C353 C348 1.399 . S
C353 C352 1.394 . S
C353 C354 1.516 . S
C354 C353 1.516 . S
C354 C355 1.502 . S
C354 C356 1.561 . S
C354 C357 1.526 . S
C355 H339 0.959 . S
C355 H340 0.959 . S
C355 H341 0.961 . S
C355 C354 1.502 . S
C356 H342 0.960 . S
C356 H343 0.961 . S
C356 H344 0.959 . S
C356 C354 1.561 . S
C357 C354 1.526 . S
C357 C358 1.396 . S
C357 C362 1.390 . S
C358 C352 1.465 . S
C358 C357 1.396 . S
C358 C359 1.399 1_545 S
C359 H345 0.929 . S
C359 C358 1.399 1_565 S
C359 C360 1.385 . S
C360 H346 0.931 . S
C360 C359 1.385 . S
C360 C361 1.389 1_565 S
C361 C360 1.389 1_545 S
C361 C362 1.387 . S
C362 H347 0.930 . S
C362 C357 1.390 . S
C362 C361 1.387 . S
H363 C375 0.930 . S
H364 C377 0.930 . S
H365 C378 0.930 . S
H366 C382 0.959 . S
H367 C382 0.959 . S
H368 C382 0.961 . S
H369 C383 0.960 . S
H370 C383 0.961 . S
H371 C383 0.959 . S
H372 C386 0.929 . S
H373 C387 0.931 . S
H374 C389 0.930 . S
C375 H363 0.930 . S
C375 C376 1.399 . S
C375 C380 1.399 . S
C376 C375 1.399 . S
C376 C377 1.376 . S
C377 H364 0.930 . S
C377 C376 1.376 . S
C377 C378 1.388 . S
C378 H365 0.930 . S
C378 C377 1.388 . S
C378 C379 1.390 . S
C379 C378 1.390 . S
C379 C380 1.394 . S
C379 C385 1.465 . S
C380 C375 1.399 . S
C380 C379 1.394 . S
C380 C381 1.516 . S
C381 C380 1.516 . S
C381 C382 1.502 . S
C381 C383 1.561 . S
C381 C384 1.526 . S
C382 H366 0.959 . S
C382 H367 0.959 . S
C382 H368 0.961 . S
C382 C381 1.502 . S
C383 H369 0.960 . S
C383 H370 0.961 . S
C383 H371 0.959 . S
C383 C381 1.561 . S
C384 C381 1.526 . S
C384 C385 1.396 . S
C384 C389 1.390 . S
C385 C379 1.465 . S
C385 C384 1.396 . S
C385 C386 1.399 . S
C386 H372 0.929 . S
C386 C385 1.399 . S
C386 C387 1.385 . S
C387 H373 0.931 . S
C387 C386 1.385 . S
C387 C388 1.389 . S
C388 C387 1.389 . S
C388 C389 1.387 . S
C389 H374 0.930 . S
C389 C384 1.390 . S
C389 C388 1.387 . S
H390 C402 0.930 . S
H391 C404 0.930 . S
H392 C405 0.930 . S
H393 C409 0.959 . S
H394 C409 0.959 . S
H395 C409 0.961 . S
H396 C410 0.960 . S
H397 C410 0.961 . S
H398 C410 0.959 . S
H399 C413 0.929 . S
H400 C414 0.931 . S
H401 C416 0.930 . S
C402 H390 0.930 . S
C402 C403 1.399 . S
C402 C407 1.399 . S
C403 C402 1.399 . S
C403 C404 1.376 1_545 S
C404 H391 0.930 . S
C404 C403 1.376 1_565 S
C404 C405 1.388 . S
C405 H392 0.930 . S
C405 C404 1.388 . S
C405 C406 1.390 1_565 S
C406 C405 1.390 1_545 S
C406 C407 1.394 . S
C406 C412 1.465 . S
C407 C402 1.399 . S
C407 C406 1.394 . S
C407 C408 1.516 . S
C408 C407 1.516 . S
C408 C409 1.502 . S
C408 C410 1.561 . S
C408 C411 1.526 . S
C409 H393 0.959 . S
C409 H394 0.959 . S
C409 H395 0.961 . S
C409 C408 1.502 . S
C410 H396 0.960 . S
C410 H397 0.961 . S
C410 H398 0.959 . S
C410 C408 1.561 . S
C411 C408 1.526 . S
C411 C412 1.396 . S
C411 C416 1.390 . S
C412 C406 1.465 . S
C412 C411 1.396 . S
C412 C413 1.399 1_545 S
C413 H399 0.929 . S
C413 C412 1.399 1_565 S
C413 C414 1.385 . S
C414 H400 0.931 . S
C414 C413 1.385 . S
C414 C415 1.389 1_565 S
C415 C414 1.389 1_545 S
C415 C416 1.387 . S
C416 H401 0.930 . S
C416 C411 1.390 . S
C416 C415 1.387 . S
H417 C429 0.930 . S
H418 C431 0.930 1_554 S
H419 C432 0.930 . S
H420 C436 0.959 . S
H421 C436 0.959 . S
H422 C436 0.961 . S
H423 C437 0.960 . S
H424 C437 0.961 . S
H425 C437 0.959 . S
H426 C440 0.929 . S
H427 C441 0.931 . S
H428 C443 0.930 . S
C429 H417 0.930 . S
C429 C430 1.399 . S
C429 C434 1.399 . S
C430 C429 1.399 . S
C430 C431 1.376 . S
C431 H418 0.930 1_556 S
C431 C430 1.376 . S
C431 C432 1.388 . S
C432 H419 0.930 . S
C432 C431 1.388 . S
C432 C433 1.390 . S
C433 C432 1.390 . S
C433 C434 1.394 . S
C433 C439 1.465 . S
C434 C429 1.399 . S
C434 C433 1.394 . S
C434 C435 1.516 . S
C435 C434 1.516 . S
C435 C436 1.502 . S
C435 C437 1.561 . S
C435 C438 1.526 . S
C436 H420 0.959 . S
C436 H421 0.959 . S
C436 H422 0.961 . S
C436 C435 1.502 . S
C437 H423 0.960 . S
C437 H424 0.961 . S
C437 H425 0.959 . S
C437 C435 1.561 . S
C438 C435 1.526 . S
C438 C439 1.396 . S
C438 C443 1.390 . S
C439 C433 1.465 . S
C439 C438 1.396 . S
C439 C440 1.399 . S
C440 H426 0.929 . S
C440 C439 1.399 . S
C440 C441 1.385 . S
C441 H427 0.931 . S
C441 C440 1.385 . S
C441 C442 1.389 . S
C442 C441 1.389 . S
C442 C443 1.387 . S
C443 H428 0.930 . S
C443 C438 1.390 . S
C443 C442 1.387 . S
H444 C456 0.930 . S
H445 C458 0.930 . S
H446 C459 0.930 . S
H447 C463 0.959 . S
H448 C463 0.959 . S
H449 C463 0.961 . S
H450 C464 0.960 . S
H451 C464 0.961 . S
H452 C464 0.959 . S
H453 C467 0.929 . S
H454 C468 0.931 . S
H455 C470 0.930 . S
C456 H444 0.930 . S
C456 C457 1.399 . S
C456 C461 1.399 . S
C457 C456 1.399 . S
C457 C458 1.376 . S
C458 H445 0.930 . S
C458 C457 1.376 . S
C458 C459 1.388 . S
C459 H446 0.930 . S
C459 C458 1.388 . S
C459 C460 1.390 . S
C460 C459 1.390 . S
C460 C461 1.394 . S
C460 C466 1.465 . S
C461 C456 1.399 . S
C461 C460 1.394 . S
C461 C462 1.516 . S
C462 C461 1.516 . S
C462 C463 1.502 . S
C462 C464 1.561 1_455 S
C462 C465 1.526 . S
C463 H447 0.959 . S
C463 H448 0.959 . S
C463 H449 0.961 . S
C463 C462 1.502 . S
C464 H450 0.960 . S
C464 H451 0.961 . S
C464 H452 0.959 . S
C464 C462 1.561 1_655 S
C465 C462 1.526 . S
C465 C466 1.396 . S
C465 C470 1.390 . S
C466 C460 1.465 . S
C466 C465 1.396 . S
C466 C467 1.399 . S
C467 H453 0.929 . S
C467 C466 1.399 . S
C467 C468 1.385 . S
C468 H454 0.931 . S
C468 C467 1.385 . S
C468 C469 1.389 . S
C469 C468 1.389 . S
C469 C470 1.387 . S
C470 H455 0.930 . S
C470 C465 1.390 . S
C470 C469 1.387 . S
H471 C483 0.930 . S
H472 C485 0.930 . S
H473 C486 0.930 . S
H474 C490 0.959 . S
H475 C490 0.959 . S
H476 C490 0.961 . S
H477 C491 0.960 . S
H478 C491 0.961 . S
H479 C491 0.959 . S
H480 C494 0.929 . S
H481 C495 0.931 . S
H482 C497 0.930 . S
C483 H471 0.930 . S
C483 C484 1.399 . S
C483 C488 1.399 . S
C484 C483 1.399 . S
C484 C485 1.376 1_545 S
C485 H472 0.930 . S
C485 C484 1.376 1_565 S
C485 C486 1.388 . S
C486 H473 0.930 . S
C486 C485 1.388 . S
C486 C487 1.390 . S
C487 C486 1.390 . S
C487 C488 1.394 1_565 S
C487 C493 1.465 . S
C488 C483 1.399 . S
C488 C487 1.394 1_545 S
C488 C489 1.516 . S
C489 C488 1.516 . S
C489 C490 1.502 . S
C489 C491 1.561 . S
C489 C492 1.526 . S
C490 H474 0.959 . S
C490 H475 0.959 . S
C490 H476 0.961 . S
C490 C489 1.502 . S
C491 H477 0.960 . S
C491 H478 0.961 . S
C491 H479 0.959 . S
C491 C489 1.561 . S
C492 C489 1.526 . S
C492 C493 1.396 1_545 S
C492 C497 1.390 . S
C493 C487 1.465 . S
C493 C492 1.396 1_565 S
C493 C494 1.399 . S
C494 H480 0.929 . S
C494 C493 1.399 . S
C494 C495 1.385 . S
C495 H481 0.931 . S
C495 C494 1.385 . S
C495 C496 1.389 1_565 S
C496 C495 1.389 1_545 S
C496 C497 1.387 . S
C497 H482 0.930 . S
C497 C492 1.390 . S
C497 C496 1.387 . S
H498 C510 0.887 1_554 S
H499 C512 0.930 . S
H500 C513 0.930 . S
H501 C517 0.959 . S
H502 C517 0.959 . S
H503 C517 0.961 . S
H504 C518 0.960 1_554 S
H505 C518 0.961 . S
H506 C518 0.959 . S
H507 C521 0.929 . S
H508 C522 0.931 . S
H509 C524 0.930 . S
C510 H498 0.887 1_556 S
C510 C511 1.399 . S
C510 C515 1.399 . S
C511 C510 1.399 . S
C511 C512 1.376 . S
C512 H499 0.930 . S
C512 C511 1.376 . S
C512 C513 1.388 . S
C513 H500 0.930 . S
C513 C512 1.388 . S
C513 C514 1.390 . S
C514 C513 1.390 . S
C514 C515 1.394 . S
C514 C520 1.465 . S
C515 C510 1.399 . S
C515 C514 1.394 . S
C515 C516 1.516 . S
C516 C515 1.516 . S
C516 C517 1.502 . S
C516 C518 1.561 . S
C516 C519 1.526 . S
C517 H501 0.959 . S
C517 H502 0.959 . S
C517 H503 0.961 . S
C517 C516 1.502 . S
C518 H504 0.960 1_556 S
C518 H505 0.961 . S
C518 H506 0.959 . S
C518 C516 1.561 . S
C519 C516 1.526 . S
C519 C520 1.396 . S
C519 C524 1.390 . S
C520 C514 1.465 . S
C520 C519 1.396 . S
C520 C521 1.399 . S
C521 H507 0.929 . S
C521 C520 1.399 . S
C521 C522 1.385 . S
C522 H508 0.931 . S
C522 C521 1.385 . S
C522 C523 1.389 . S
C523 C522 1.389 . S
C523 C524 1.387 . S
C524 H509 0.930 . S
C524 C519 1.390 . S
C524 C523 1.387 . S
H525 C537 0.930 . S
H526 C539 0.930 . S
H527 C540 0.930 . S
H528 C544 0.959 . S
H529 C544 0.959 . S
H530 C544 0.961 . S
H531 C545 0.960 . S
H532 C545 0.961 . S
H533 C545 0.959 . S
H534 C548 0.929 . S
H535 C549 0.931 . S
H536 C551 0.930 . S
C537 H525 0.930 . S
C537 C538 1.399 . S
C537 C542 1.399 . S
C538 C537 1.399 . S
C538 C539 1.376 . S
C539 H526 0.930 . S
C539 C538 1.376 . S
C539 C540 1.388 . S
C540 H527 0.930 . S
C540 C539 1.388 . S
C540 C541 1.390 . S
C541 C540 1.390 . S
C541 C542 1.394 . S
C541 C547 1.465 . S
C542 C537 1.399 . S
C542 C541 1.394 . S
C542 C543 1.516 . S
C543 C542 1.516 . S
C543 C544 1.502 1_455 S
C543 C545 1.561 . S
C543 C546 1.526 . S
C544 H528 0.959 . S
C544 H529 0.959 . S
C544 H530 0.961 . S
C544 C543 1.502 1_655 S
C545 H531 0.960 . S
C545 H532 0.961 . S
C545 H533 0.959 . S
C545 C543 1.561 . S
C546 C543 1.526 . S
C546 C547 1.396 . S
C546 C551 1.390 . S
C547 C541 1.465 . S
C547 C546 1.396 . S
C547 C548 1.399 . S
C548 H534 0.929 . S
C548 C547 1.399 . S
C548 C549 1.385 . S
C549 H535 0.931 . S
C549 C548 1.385 . S
C549 C550 1.389 . S
C550 C549 1.389 . S
C550 C551 1.387 . S
C551 H536 0.930 . S
C551 C546 1.390 . S
C551 C550 1.387 . S
C253 C95 1.409 . S
C241 C3 1.399 . S
C268 C21 1.427 . S
C280 C139 1.450 . S
C295 C37 1.397 . S
C307 C201 1.434 . S
C322 C8 1.408 . S
C334 C77 1.399 . S
C361 C157 1.405 . S
C349 C23 1.397 . S
C376 C35 1.416 . S
C388 C219 1.436 . S
C415 C133 1.561 . S
C403 C31 1.690 . S
C430 C7 1.700 1_556 S
C442 C195 1.645 . S
C469 C71 1.567 . S
C457 C17 1.716 . S
C496 C151 1.613 . S
C484 C36 1.696 . S
C523 C213 1.611 . S
C511 C9 1.725 1_556 S
C538 C22 1.723 . S
C550 C89 1.578 . S
