# Generated by pormake.
# Topology pyr, (3,6)-cn, num edge types: 1
# Building blocks:
#     Node 0, Type 0, BuildingBlock: BETDIP_clean_linker_0, # of connection points: 3
#     Node 1, Type 0, BuildingBlock: BETDIP_clean_linker_0, # of connection points: 3
#     Node 2, Type 0, BuildingBlock: BETDIP_clean_linker_0, # of connection points: 3
#     Node 3, Type 0, BuildingBlock: BETDIP_clean_linker_0, # of connection points: 3
#     Node 4, Type 0, BuildingBlock: BETDIP_clean_linker_0, # of connection points: 3
#     Node 5, Type 0, BuildingBlock: BETDIP_clean_linker_0, # of connection points: 3
#     Node 6, Type 0, BuildingBlock: BETDIP_clean_linker_0, # of connection points: 3
#     Node 7, Type 0, BuildingBlock: BETDIP_clean_linker_0, # of connection points: 3
#     Node 8, Type 1, BuildingBlock: BETFAJ_clean_sbu_0, # of connection points: 6
#     Node 9, Type 1, BuildingBlock: BETFAJ_clean_sbu_0, # of connection points: 6
#     Node 10, Type 1, BuildingBlock: BETFAJ_clean_sbu_0, # of connection points: 6
#     Node 11, Type 1, BuildingBlock: BETFAJ_clean_sbu_0, # of connection points: 6
#     Edge 12, Type (0, 1), BuildingBlock: CIFDUS_clean_linker_0, # of connection points: 2
#     Edge 13, Type (0, 1), BuildingBlock: CIFDUS_clean_linker_0, # of connection points: 2
#     Edge 14, Type (0, 1), BuildingBlock: CIFDUS_clean_linker_0, # of connection points: 2
#     Edge 15, Type (0, 1), BuildingBlock: CIFDUS_clean_linker_0, # of connection points: 2
#     Edge 16, Type (0, 1), BuildingBlock: CIFDUS_clean_linker_0, # of connection points: 2
#     Edge 17, Type (0, 1), BuildingBlock: CIFDUS_clean_linker_0, # of connection points: 2
#     Edge 18, Type (0, 1), BuildingBlock: CIFDUS_clean_linker_0, # of connection points: 2
#     Edge 19, Type (0, 1), BuildingBlock: CIFDUS_clean_linker_0, # of connection points: 2
#     Edge 20, Type (0, 1), BuildingBlock: CIFDUS_clean_linker_0, # of connection points: 2
#     Edge 21, Type (0, 1), BuildingBlock: CIFDUS_clean_linker_0, # of connection points: 2
#     Edge 22, Type (0, 1), BuildingBlock: CIFDUS_clean_linker_0, # of connection points: 2
#     Edge 23, Type (0, 1), BuildingBlock: CIFDUS_clean_linker_0, # of connection points: 2
#     Edge 24, Type (0, 1), BuildingBlock: CIFDUS_clean_linker_0, # of connection points: 2
#     Edge 25, Type (0, 1), BuildingBlock: CIFDUS_clean_linker_0, # of connection points: 2
#     Edge 26, Type (0, 1), BuildingBlock: CIFDUS_clean_linker_0, # of connection points: 2
#     Edge 27, Type (0, 1), BuildingBlock: CIFDUS_clean_linker_0, # of connection points: 2
#     Edge 28, Type (0, 1), BuildingBlock: CIFDUS_clean_linker_0, # of connection points: 2
#     Edge 29, Type (0, 1), BuildingBlock: CIFDUS_clean_linker_0, # of connection points: 2
#     Edge 30, Type (0, 1), BuildingBlock: CIFDUS_clean_linker_0, # of connection points: 2
#     Edge 31, Type (0, 1), BuildingBlock: CIFDUS_clean_linker_0, # of connection points: 2
#     Edge 32, Type (0, 1), BuildingBlock: CIFDUS_clean_linker_0, # of connection points: 2
#     Edge 33, Type (0, 1), BuildingBlock: CIFDUS_clean_linker_0, # of connection points: 2
#     Edge 34, Type (0, 1), BuildingBlock: CIFDUS_clean_linker_0, # of connection points: 2
#     Edge 35, Type (0, 1), BuildingBlock: CIFDUS_clean_linker_0, # of connection points: 2
# Relax obj value: 0.151
# Max RMSD: 0.173
# Mean RMSD: 0.137
data_MOF--net-pyr--node1-BETFAJ_clean_sbu_0--node2-BETDIP_clean_linker_0--edge1-CIFDUS_clean_linker_0
_symmetry_space_group_name_H-M    P1
_symmetry_Int_Tables_number       1
_symmetry_cell_setting            triclinic
loop_
_symmetry_equiv_pos_as_xyz
'x, y, z'
_cell_length_a     33.098803
_cell_length_b     35.329779
_cell_length_c     33.64885
_cell_angle_alpha  93.27001
_cell_angle_beta   86.844938
_cell_angle_gamma 107.18992
loop_
_atom_site_label
_atom_site_type_symbol
_atom_site_fract_x
_atom_site_fract_y
_atom_site_fract_z
_atom_type_partial_charge
H0 H 0.3285 0.32254 0.24677 0.0
H1 H 0.41118 0.31229 0.14678 0.0
H2 H 0.37918 0.22333 0.23457 0.0
H3 H 0.35943 0.33836 0.11898 0.0
C4 C 0.35074 0.35732 0.14239 0.0
C5 C 0.3498 0.30756 0.23206 0.0
C6 C 0.35111 0.27097 0.24518 0.0
C7 C 0.37132 0.32257 0.19677 0.0
C8 C 0.39579 0.30158 0.17493 0.0
C9 C 0.39942 0.2661 0.18907 0.0
C10 C 0.37798 0.25166 0.22473 0.0
N11 N 0.36331 0.3562 0.18184 0.0
H12 H 0.16187 0.85923 0.69173 0.0
H13 H 0.1882 0.78627 0.59295 0.0
H14 H 0.28221 0.8357 0.67981 0.0
H15 H 0.11733 0.79142 0.56818 0.0
C16 C 0.12199 0.81851 0.58661 0.0
C17 C 0.18334 0.8451 0.67594 0.0
C18 C 0.22433 0.85145 0.68921 0.0
C19 C 0.17045 0.82209 0.64109 0.0
C20 C 0.1983 0.8043 0.61977 0.0
C21 C 0.2389 0.80926 0.63353 0.0
C22 C 0.25149 0.83285 0.66822 0.0
N23 N 0.12962 0.81812 0.62756 0.0
H24 H 0.71442 0.4343 0.83647 0.0
H25 H 0.61285 0.32469 0.84006 0.0
H26 H 0.71456 0.34605 0.92044 0.0
H27 H 0.68931 0.42339 0.76222 0.0
C28 C 0.65602 0.41883 0.77014 0.0
C29 C 0.70028 0.4056 0.84895 0.0
C30 C 0.72049 0.39357 0.88059 0.0
C31 C 0.66116 0.38121 0.83387 0.0
C32 C 0.64255 0.34351 0.8511 0.0
C33 C 0.66242 0.32938 0.88138 0.0
C34 C 0.70074 0.35541 0.8958 0.0
N35 N 0.63834 0.39464 0.80408 0.0
H36 H 0.81785 0.6534 0.36876 0.0
H37 H 0.92553 0.75469 0.34602 0.0
H38 H 0.84082 0.75683 0.44763 0.0
H39 H 0.92305 0.72249 0.28043 0.0
C40 C 0.91016 0.69106 0.28556 0.0
C41 C 0.8364 0.68342 0.37676 0.0
C42 C 0.82469 0.70286 0.41116 0.0
C43 C 0.87225 0.70164 0.35269 0.0
C44 C 0.89728 0.74057 0.36363 0.0
C45 C 0.88662 0.76045 0.39876 0.0
C46 C 0.85006 0.74128 0.42165 0.0
N47 N 0.88275 0.67828 0.31966 0.0
H48 H 0.63141 0.81376 0.93921 0.0
H49 H 0.72307 0.76338 0.87917 0.0
H50 H 0.72479 0.88207 0.85655 0.0
H51 H 0.64526 0.68634 0.93042 0.0
C52 C 0.66942 0.71484 0.93228 0.0
C53 C 0.65807 0.8164 0.91826 0.0
C54 C 0.67568 0.85178 0.89833 0.0
C55 C 0.67516 0.78451 0.91218 0.0
C56 C 0.70993 0.78785 0.88515 0.0
C57 C 0.72794 0.82316 0.86546 0.0
C58 C 0.71061 0.85481 0.87187 0.0
N59 N 0.6555 0.74931 0.93283 0.0
H60 H 0.83645 0.187 0.40763 0.0
H61 H 0.80851 0.26409 0.50189 0.0
H62 H 0.72418 0.22446 0.40567 0.0
H63 H 0.85427 0.24297 0.53664 0.0
C64 C 0.8686 0.22477 0.51689 0.0
C65 C 0.81599 0.20371 0.42073 0.0
C66 C 0.77871 0.20262 0.40227 0.0
C67 C 0.82644 0.22485 0.457 0.0
C68 C 0.80017 0.24651 0.47453 0.0
C69 C 0.76305 0.24591 0.45607 0.0
C70 C 0.75231 0.22374 0.42032 0.0
N71 N 0.86286 0.22211 0.47527 0.0
H72 H 0.32446 0.66477 0.20534 0.0
H73 H 0.4336 0.76575 0.22423 0.0
H74 H 0.34212 0.77034 0.13969 0.0
H75 H 0.42366 0.73339 0.29386 0.0
C76 C 0.41598 0.70221 0.28461 0.0
C77 C 0.34196 0.69499 0.19891 0.0
C78 C 0.32735 0.71478 0.16945 0.0
C79 C 0.37942 0.71304 0.22016 0.0
C80 C 0.40411 0.75212 0.20972 0.0
C81 C 0.39121 0.77318 0.17977 0.0
C82 C 0.35234 0.75416 0.16141 0.0
N83 N 0.3923 0.68937 0.24868 0.0
H84 H 0.14563 0.34195 0.74366 0.0
H85 H 0.24909 0.44758 0.72535 0.0
H86 H 0.23972 0.34403 0.64892 0.0
H87 H 0.13548 0.37501 0.80463 0.0
C88 C 0.14975 0.40652 0.80079 0.0
C89 C 0.17455 0.35734 0.72767 0.0
C90 C 0.18975 0.3378 0.69464 0.0
C91 C 0.19604 0.39724 0.73872 0.0
C92 C 0.23299 0.41694 0.717 0.0
C93 C 0.24912 0.39822 0.68458 0.0
C94 C 0.22705 0.3588 0.6735 0.0
N95 N 0.18139 0.41988 0.76993 0.0
Sm96 Sm 0.04602 0.06129 0.50932 0.0
Sm97 Sm 0.03555 1.02975 0.59398 0.0
C98 C 0.04911 0.10361 0.44642 0.0
C99 C 0.0823 0.13662 0.42956 0.0
C100 C 0.08146 0.14518 0.3896 0.0
C101 C 0.11663 0.17168 0.37145 0.0
C102 C 0.15285 0.19003 0.39321 0.0
C103 C 0.15262 0.18326 0.43387 0.0
C104 C 0.11766 0.15633 0.45184 0.0
C105 C 0.10784 1.02883 0.52937 0.0
C106 C 0.08589 0.12278 0.58644 0.0
C107 C 0.02796 0.98686 0.65733 0.0
C108 C 0.99027 0.9594 0.67587 0.0
C109 C 0.99357 0.92854 0.69864 0.0
C110 C 0.95718 0.90274 0.71619 0.0
C111 C 0.91701 0.90758 0.71122 0.0
C112 C 0.91413 0.93833 0.68776 0.0
C113 C 0.95026 0.96368 0.67004 0.0
C114 C 0.97243 0.05975 0.57279 0.0
C115 C 0.99812 0.96833 0.51549 0.0
O116 O 0.03218 0.11106 0.48094 0.0
O117 O 0.05804 0.06988 0.4446 0.0
O118 O 0.09143 0.05041 0.5519 0.0
O119 O 0.09564 1.02842 0.49333 0.0
O120 O 0.07143 0.11802 0.54996 0.0
O121 O 0.08195 0.09183 0.60841 0.0
O122 O 0.03959 0.97547 0.62203 0.0
O123 O 0.02872 1.02414 0.65942 0.0
O124 O 0.98995 0.03877 0.55089 0.0
O125 O 0.98531 0.0626 0.60877 0.0
O126 O 1.01261 0.97294 0.55206 0.0
O127 O 1.00074 0.99941 0.49429 0.0
H128 H 0.05455 0.1299 0.37196 0.0
H129 H 0.11637 0.17649 0.33996 0.0
H130 H 0.18047 0.19666 0.45096 0.0
H131 H 0.11914 0.14923 0.48248 0.0
H132 H 0.02421 0.92451 0.70295 0.0
H133 H 0.96053 0.8791 0.73363 0.0
H134 H 0.88403 0.94363 0.68385 0.0
H135 H 0.94698 0.98708 0.65214 0.0
Sm136 Sm 0.55958 0.0588 0.04612 0.0
Sm137 Sm 0.4851 0.04513 1.01484 0.0
C138 C 0.63366 0.08588 0.08025 0.0
C139 C 0.64981 0.09058 0.12043 0.0
C140 C 0.68445 0.12317 0.12967 0.0
C141 C 0.69849 0.13015 0.16845 0.0
C142 C 0.6782 0.10444 0.19868 0.0
C143 C 0.64401 0.07115 0.18901 0.0
C144 C 0.62976 0.06437 0.15018 0.0
C145 C 0.50465 0.98686 0.07547 0.0
C146 C 0.49363 0.09863 0.09265 0.0
C147 C 0.4103 1.01572 0.98213 0.0
C148 C 0.39107 1.00211 0.94359 0.0
C149 C 0.36019 0.96523 0.94076 0.0
C150 C 0.34095 0.95146 0.90478 0.0
C151 C 0.352 0.97451 0.87095 0.0
C152 C 0.38289 1.01164 0.87392 0.0
C153 C 0.40237 1.0253 0.90993 0.0
C154 C 0.5365 0.11929 0.98853 0.0
C155 C 0.55344 1.00803 0.96789 0.0
O156 O 0.61016 0.10829 0.07297 0.0
O157 O 0.61898 0.04976 0.0655 0.0
O158 O 0.49533 1.0191 0.07272 0.0
O159 O 0.54311 0.99204 0.06185 0.0
O160 O 0.53388 0.10348 0.08424 0.0
O161 O 0.46531 0.07062 0.07372 0.0
O162 O 0.43081 0.9938 0.99684 0.0
O163 O 0.42886 0.05351 0.98778 0.0
O164 O 0.54864 0.08802 0.98927 0.0
O165 O 0.49805 0.1112 1.0029 0.0
O166 O 0.51313 1.00087 0.97792 0.0
O167 O 0.58026 0.03828 0.98535 0.0
H168 H 0.69998 0.14385 0.10706 0.0
H169 H 0.7243 0.15652 0.17497 0.0
H170 H 0.62795 0.05062 0.21152 0.0
H171 H 0.60272 0.03912 0.14356 0.0
H172 H 0.35109 0.94691 0.96642 0.0
H173 H 0.31794 0.92239 0.90335 0.0
H174 H 0.39186 1.03023 0.84849 0.0
H175 H 0.42615 0.05394 0.91141 0.0
Sm176 Sm 0.5248 0.51966 0.49786 0.0
Sm177 Sm 0.52106 0.58023 0.55819 0.0
C178 C 0.55143 0.46908 0.45036 0.0
C179 C 0.57923 0.44439 0.45591 0.0
C180 C 0.61165 0.44439 0.42735 0.0
C181 C 0.64097 0.42421 0.43372 0.0
C182 C 0.63811 0.4035 0.46868 0.0
C183 C 0.60536 0.40314 0.49713 0.0
C184 C 0.5763 0.42372 0.49095 0.0
C185 C 0.44705 0.50217 0.53798 0.0
C186 C 0.56024 0.514 0.59021 0.0
C187 C 0.49472 0.63123 0.60556 0.0
C188 C 0.47245 0.66062 0.59953 0.0
C189 C 0.44408 0.65484 0.56865 0.0
C190 C 0.42067 0.6813 0.56477 0.0
C191 C 0.42514 0.71395 0.59176 0.0
C192 C 0.45478 0.72048 0.62173 0.0
C193 C 0.47825 0.69396 0.62557 0.0
C194 C 0.59799 0.59677 0.51656 0.0
C195 C 0.48838 0.58806 0.46491 0.0
O196 O 0.57022 0.50721 0.45181 0.0
O197 O 0.51454 0.45946 0.46939 0.0
O198 O 0.48252 0.51564 0.55397 0.0
O199 O 0.45207 0.4978 0.49958 0.0
O200 O 0.56194 0.50476 0.55119 0.0
O201 O 0.54181 0.54134 0.60247 0.0
O202 O 0.47264 0.5942 0.59944 0.0
O203 O 0.53352 0.63897 0.59084 0.0
O204 O 0.56197 0.58377 0.50187 0.0
O205 O 0.5945 0.6021 0.55504 0.0
O206 O 0.48986 0.59958 0.50344 0.0
O207 O 0.50209 0.55737 0.45333 0.0
H208 H 0.61467 0.46054 0.40037 0.0
H209 H 0.66564 0.42445 0.41112 0.0
H210 H 0.60267 0.38746 0.52435 0.0
H211 H 0.552 0.42393 0.51381 0.0
H212 H 0.43907 0.62929 0.54817 0.0
H213 H 0.3984 0.67575 0.54117 0.0
H214 H 0.45855 0.74514 0.64327 0.0
H215 H 0.50005 0.69887 0.64952 0.0
Sm216 Sm 1.01566 0.50803 0.06142 0.0
Sm217 Sm 0.02212 0.58695 1.01201 0.0
C218 C 0.02991 0.44261 0.08321 0.0
C219 C 0.06721 0.42799 0.08174 0.0
C220 C 0.09905 0.4392 0.05164 0.0
C221 C 0.13615 0.4281 0.05267 0.0
C222 C 0.14236 0.40643 0.08431 0.0
C223 C 0.11024 0.39487 0.11411 0.0
C224 C 0.07288 0.40543 0.11272 0.0
C225 C 0.9753 0.55729 0.10474 0.0
C226 C 0.10081 0.58934 0.07132 0.0
C227 C 1.00579 0.65148 0.99022 0.0
C228 C 0.96547 0.66071 0.98844 0.0
C229 C 0.92816 0.63419 1.00371 0.0
C230 C 0.8889 0.63945 0.99732 0.0
C231 C 0.88622 0.67148 0.97573 0.0
C232 C 0.92378 0.69907 0.96205 0.0
C233 C 0.96318 0.69354 0.96815 0.0
C234 C 0.06311 0.53771 0.96978 0.0
C235 C 0.93924 0.50372 0.9989 0.0
O236 O 1.01375 0.44512 0.04911 0.0
O237 O 0.03209 0.47332 0.10755 0.0
O238 O 0.99318 0.56199 0.07039 0.0
O239 O 0.97567 0.52289 0.11619 0.0
O240 O 0.08259 0.55076 0.07641 0.0
O241 O 0.08352 0.61033 0.04928 0.0
O242 O 1.01801 0.64802 1.02587 0.0
O243 O 1.01008 0.62324 0.96496 0.0
O244 O 0.04443 0.5332 1.00367 0.0
O245 O 0.06285 0.57193 0.95763 0.0
O246 O 0.95555 0.54271 0.9942 0.0
O247 O 0.95754 0.48426 1.02151 0.0
H248 H 0.09578 0.45746 0.02799 0.0
H249 H 0.16064 0.43769 0.02958 0.0
H250 H 0.11423 0.37796 0.1387 0.0
H251 H 0.04886 0.39687 0.1364 0.0
H252 H 0.92932 0.60865 1.01947 0.0
H253 H 0.86051 0.61799 1.00858 0.0
H254 H 0.92259 0.72388 0.94514 0.0
H255 H 0.99168 0.71413 0.95592 0.0
H256 H 0.32064 0.30008 0.31413 0.0
H257 H 0.30587 0.19309 0.24016 0.0
H258 H 0.24467 0.15884 0.28066 0.0
H259 H 0.19156 0.16025 0.33314 0.0
H260 H 0.20345 0.26598 0.40749 0.0
H261 H 0.26909 0.30005 0.37042 0.0
C262 C 0.30421 0.26919 0.30716 0.0
C263 C 0.31816 0.24929 0.2742 0.0
C264 C 0.26801 0.24967 0.33008 0.0
C265 C 0.29667 0.20909 0.26577 0.0
C266 C 0.26115 0.18949 0.28858 0.0
C267 C 0.20854 0.19084 0.34104 0.0
C268 C 0.19261 0.21106 0.37213 0.0
C269 C 0.24601 0.20974 0.32007 0.0
C270 C 0.21518 0.25021 0.38314 0.0
C271 C 0.25259 0.26953 0.36206 0.0
H272 H 0.30093 0.90548 0.69828 0.0
H273 H 0.18131 0.85467 0.7607 0.0
H274 H 0.20929 0.89165 0.82183 0.0
H275 H 0.26956 0.93387 0.85858 0.0
H276 H 0.39062 0.98007 0.79675 0.0
H277 H 0.36011 0.94959 0.73422 0.0
C278 C 0.28097 0.90244 0.7253 0.0
C279 C 0.23933 0.87695 0.72514 0.0
C280 C 0.29757 0.92285 0.76041 0.0
C281 C 0.21346 0.87417 0.76003 0.0
C282 C 0.22953 0.89506 0.79503 0.0
C283 C 0.2893 0.9372 0.83144 0.0
C284 C 0.3324 0.95896 0.83246 0.0
C285 C 0.27184 0.91872 0.79575 0.0
C286 C 0.35728 0.9638 0.79683 0.0
C287 C 0.33995 0.94612 0.76108 0.0
H288 H 0.67309 0.43406 0.6901 0.0
H289 H 0.58123 0.44013 0.78399 0.0
H290 H 0.545 0.47066 0.7388 0.0
H291 H 0.53977 0.49777 0.67169 0.0
H292 H 0.62814 0.48466 0.57671 0.0
H293 H 0.66434 0.45534 0.62232 0.0
C294 C 0.64488 0.44166 0.70081 0.0
C295 C 0.63042 0.43436 0.74122 0.0
C296 C 0.62331 0.45853 0.67396 0.0
C297 C 0.59348 0.44471 0.75358 0.0
C298 C 0.57272 0.46255 0.72747 0.0
C299 C 0.56696 0.48855 0.6608 0.0
C300 C 0.58105 0.49445 0.61997 0.0
C301 C 0.58736 0.47001 0.68748 0.0
C302 C 0.61612 0.48118 0.6073 0.0
C303 C 0.6371 0.46422 0.63369 0.0
H304 H 0.94548 0.70377 0.20975 0.0
H305 H 0.89245 0.61068 0.2918 0.0
H306 H 0.90597 0.56184 0.24278 0.0
H307 H 0.9347 0.54516 0.17731 0.0
H308 H 0.98677 0.63688 0.09411 0.0
H309 H 0.97142 0.68616 0.1421 0.0
C310 C 0.93682 0.67276 0.21683 0.0
C311 C 0.91802 0.66119 0.25474 0.0
C312 C 0.94438 0.64439 0.18804 0.0
C313 C 0.90685 0.62074 0.26313 0.0
C314 C 0.91462 0.59264 0.23499 0.0
C315 C 0.94237 0.57588 0.1694 0.0
C316 C 0.96197 0.58714 0.13176 0.0
C317 C 0.93353 0.60406 0.19743 0.0
C318 C 0.97156 0.62717 0.12242 0.0
C319 C 0.96294 0.65546 0.15015 0.0
H320 H 0.45857 0.23215 0.20969 0.0
H321 H 0.38172 0.2402 0.11295 0.0
H322 H 0.40267 0.18731 0.07539 0.0
H323 H 0.43964 0.13641 0.07168 0.0
H324 H 0.52091 0.13094 0.1655 0.0
H325 H 0.50101 0.18484 0.20321 0.0
C326 C 0.44712 0.22268 0.18008 0.0
C327 C 0.41884 0.23999 0.16392 0.0
C328 C 0.45929 0.19224 0.15872 0.0
C329 C 0.40403 0.22765 0.12563 0.0
C330 C 0.41555 0.19711 0.10441 0.0
C331 C 0.45256 0.14684 0.10061 0.0
C332 C 0.48058 0.1293 0.1166 0.0
C333 C 0.44241 0.17869 0.12103 0.0
C334 C 0.49857 0.14375 0.15325 0.0
C335 C 0.48743 0.17461 0.17455 0.0
H336 H 0.13783 0.892 0.62333 0.0
H337 H 0.10538 0.82852 0.5106 0.0
H338 H 0.10244 0.88956 0.48141 0.0
H339 H 0.10537 0.95972 0.48922 0.0
H340 H 0.13543 1.02245 0.60263 0.0
H341 H 0.14406 0.96281 0.63026 0.0
C342 C 0.13029 0.89145 0.59232 0.0
C343 C 0.1215 0.85576 0.56909 0.0
C344 C 0.12863 0.9265 0.5759 0.0
C345 C 0.11203 0.85568 0.52898 0.0
C346 C 0.11045 0.89051 0.51233 0.0
C347 C 0.11462 0.96056 0.51977 0.0
C348 C 0.11988 0.99534 0.54395 0.0
C349 C 0.11833 0.92598 0.53563 0.0
C350 C 0.13142 0.99596 0.58352 0.0
C351 C 0.13604 0.96185 0.59934 0.0
H352 H 0.78488 0.3732 0.91701 0.0
H353 H 0.75043 0.47647 0.88708 0.0
H354 H 0.81351 0.51918 0.91888 0.0
H355 H 0.87909 0.52813 0.95785 0.0
H356 H 0.90889 0.42313 0.99009 0.0
H357 H 0.84749 0.38155 0.95622 0.0
C358 C 0.79024 0.40497 0.91766 0.0
C359 C 0.76133 0.42065 0.8991 0.0
C360 C 0.8265 0.4298 0.93713 0.0
C361 C 0.77129 0.46252 0.90007 0.0
C362 C 0.80764 0.48734 0.91883 0.0
C363 C 0.87225 0.49616 0.95756 0.0
C364 C 0.89964 0.47946 0.97726 0.0
C365 C 0.83562 0.47147 0.93782 0.0
C366 C 0.88921 0.43764 0.97597 0.0
C367 C 0.85372 0.41344 0.95626 0.0
H368 H 0.74648 0.65763 0.38717 0.0
H369 H 0.81622 0.7036 0.49275 0.0
H370 H 0.75325 0.67441 0.53456 0.0
H371 H 0.67737 0.63691 0.54152 0.0
H372 H 0.60786 0.59114 0.43584 0.0
H373 H 0.67148 0.61841 0.39413 0.0
C374 C 0.74812 0.6609 0.41933 0.0
C375 C 0.78627 0.68316 0.43656 0.0
C376 C 0.7116 0.64395 0.44339 0.0
C377 C 0.78731 0.68731 0.47842 0.0
C378 C 0.75127 0.67039 0.50248 0.0
C379 C 0.67624 0.63274 0.50937 0.0
C380 C 0.63775 0.61201 0.49193 0.0
C381 C 0.71308 0.64889 0.48535 0.0
C382 C 0.63694 0.60695 0.45016 0.0
C383 C 0.67338 0.62262 0.4262 0.0
H384 H 0.30742 0.35064 0.07514 0.0
H385 H 0.31532 0.40133 0.19528 0.0
H386 H 0.252 0.42141 0.18731 0.0
H387 H 0.19198 0.42132 0.14776 0.0
H388 H 0.18371 0.37192 1.02735 0.0
H389 H 0.24957 0.35473 0.03369 0.0
C390 C 0.29551 0.36656 0.09931 0.0
C391 C 0.3158 0.37415 0.13577 0.0
C392 C 0.25882 0.37792 0.09462 0.0
C393 C 0.30018 0.39484 0.16694 0.0
C394 C 0.26386 0.40628 0.16248 0.0
C395 C 0.20466 0.40673 0.12297 0.0
C396 C 0.18294 0.39738 0.08735 0.0
C397 C 0.24249 0.39729 0.12677 0.0
C398 C 0.19998 0.37927 0.05509 0.0
C399 C 0.23752 0.36942 0.05874 0.0
H400 H 0.57843 0.28532 0.90137 0.0
H401 H 0.70596 0.27761 0.90081 0.0
H402 H 0.68062 0.2134 0.93153 0.0
H403 H 0.62165 0.15815 0.96141 0.0
H404 H 0.49477 0.1681 0.96285 0.0
H405 H 0.52012 0.23043 0.92968 0.0
C406 C 0.60085 0.26963 0.90751 0.0
C407 C 0.64459 0.28767 0.89844 0.0
C408 C 0.58596 0.23202 0.92593 0.0
C409 C 0.67233 0.26581 0.90753 0.0
C410 C 0.65773 0.2285 0.92519 0.0
C411 C 0.5994 0.17364 0.95418 0.0
C412 C 0.55574 0.15709 0.9651 0.0
C413 C 0.61451 0.21107 0.93502 0.0
C414 C 0.52832 0.17898 0.95536 0.0
C415 C 0.54288 0.21522 0.93612 0.0
H416 H 0.91195 0.78544 0.47408 0.0
H417 H 0.91966 0.8274 0.35533 0.0
H418 H 0.95453 0.89526 0.38043 0.0
H419 H 0.97992 0.94351 0.43726 0.0
H420 H 0.97247 0.89971 0.55546 0.0
H421 H 0.94017 0.83232 0.52956 0.0
C422 C 0.92134 0.80938 0.45356 0.0
C423 C 0.91275 0.80112 0.41277 0.0
C424 C 0.94112 0.84832 0.46829 0.0
C425 C 0.92596 0.83262 0.38672 0.0
C426 C 0.94562 0.87157 0.40121 0.0
C427 C 0.97114 0.91925 0.45738 0.0
C428 C 0.97838 0.92716 0.49854 0.0
C429 C 0.95282 0.87996 0.4421 0.0
C430 C 0.96727 0.89497 0.52383 0.0
C431 C 0.94875 0.8562 0.509 0.0
H432 H 0.32357 0.83849 0.61841 0.0
H433 H 0.21878 0.7321 0.60547 0.0
H434 H 0.26787 0.69393 0.58599 0.0
H435 H 0.3404 0.68918 0.58275 0.0
H436 H 0.44526 0.79476 0.6 0.0
H437 H 0.39626 0.83484 0.60852 0.0
C438 C 0.31149 0.80699 0.61095 0.0
C439 C 0.26767 0.78802 0.61399 0.0
C440 C 0.33991 0.78502 0.60133 0.0
C441 C 0.25234 0.74744 0.60328 0.0
C442 C 0.28043 0.72552 0.59257 0.0
C443 C 0.35262 0.72109 0.58738 0.0
C444 C 0.39634 0.73898 0.59109 0.0
C445 C 0.32427 0.74375 0.59294 0.0
C446 C 0.41167 0.78029 0.59763 0.0
C447 C 0.3837 0.80318 0.60238 0.0
H448 H 0.73471 0.83136 0.78604 0.0
H449 H 0.80675 0.82813 0.88784 0.0
H450 H 0.87288 0.85049 0.84765 0.0
H451 H 0.90958 0.87932 0.78605 0.0
H452 H 0.83698 0.87928 0.68321 0.0
H453 H 0.77157 0.84973 0.72131 0.0
C454 C 0.76496 0.83473 0.79898 0.0
C455 C 0.76635 0.82851 0.83958 0.0
C456 C 0.80258 0.84755 0.77576 0.0
C457 C 0.80534 0.83277 0.85645 0.0
C458 C 0.843 0.84576 0.83358 0.0
C459 C 0.87963 0.87187 0.77154 0.0
C460 C 0.8783 0.88259 0.73207 0.0
C461 C 0.84202 0.85443 0.7935 0.0
C462 C 0.83896 0.87264 0.71394 0.0
C463 C 0.80148 0.85551 0.73562 0.0
H464 H 0.70128 0.15695 0.37984 0.0
H465 H 0.83178 0.19898 0.33788 0.0
H466 H 0.81267 0.16788 0.2722 0.0
H467 H 0.75812 0.13395 0.22531 0.0
H468 H 0.62688 0.09712 0.26606 0.0
H469 H 0.64716 0.12047 0.3337 0.0
C470 C 0.72553 0.15935 0.3563 0.0
C471 C 0.76778 0.18061 0.36362 0.0
C472 C 0.7142 0.14233 0.31839 0.0
C473 C 0.79904 0.1826 0.33312 0.0
C474 C 0.7881 0.16507 0.29547 0.0
C475 C 0.73394 0.13103 0.24898 0.0
C476 C 0.69103 0.11415 0.24048 0.0
C477 C 0.74565 0.14568 0.28756 0.0
C478 C 0.66019 0.10966 0.27173 0.0
C479 C 0.6717 0.12337 0.31039 0.0
H480 H 0.43795 0.71654 0.36348 0.0
H481 H 0.41891 0.62387 0.27155 0.0
H482 H 0.43951 0.58124 0.31706 0.0
H483 H 0.46463 0.56988 0.38414 0.0
H484 H 0.47851 0.66233 0.47633 0.0
H485 H 0.45853 0.70407 0.43052 0.0
C486 C 0.43804 0.68692 0.3532 0.0
C487 C 0.42666 0.67411 0.31328 0.0
C488 C 0.44932 0.66196 0.38016 0.0
C489 C 0.42713 0.63521 0.30154 0.0
C490 C 0.43915 0.61062 0.32787 0.0
C491 C 0.46321 0.59909 0.39444 0.0
C492 C 0.47368 0.61224 0.4347 0.0
C493 C 0.45059 0.62354 0.36744 0.0
C494 C 0.47094 0.65051 0.44635 0.0
C495 C 0.45945 0.67482 0.4198 0.0
H496 H 0.10076 0.39214 0.86997 0.0
H497 H 0.17316 0.48757 0.79726 0.0
H498 H 0.15432 0.53576 0.84365 0.0
H499 H 0.11589 0.55142 0.90411 0.0
H500 H 0.043 0.45707 0.97726 0.0
H501 H 0.06377 0.4083 0.93235 0.0
C502 C 0.11246 0.4235 0.86437 0.0
C503 C 0.13836 0.43595 0.8299 0.0
C504 C 0.10163 0.45146 0.89158 0.0
C505 C 0.15329 0.47683 0.82332 0.0
C506 C 0.14248 0.50458 0.84995 0.0
C507 C 0.10487 0.52019 0.91048 0.0
C508 C 0.07844 0.50806 0.9446 0.0
C509 C 0.11656 0.49231 0.88408 0.0
C510 C 0.0642 0.46741 0.952 0.0
C511 C 0.07573 0.43944 0.92593 0.0
H512 H 0.59342 0.85254 0.90113 0.0
H513 H 0.72108 0.92851 0.91402 0.0
H514 H 0.69453 0.98508 0.93134 0.0
H515 H 0.63514 1.01161 0.94845 0.0
H516 H 0.50708 0.93576 0.93733 0.0
H517 H 0.5337 0.8808 0.91293 0.0
C518 C 0.61534 0.88154 0.90765 0.0
C519 C 0.65911 0.88628 0.90658 0.0
C520 C 0.59983 0.91399 0.91773 0.0
C521 C 0.68725 0.92413 0.91446 0.0
C522 C 0.6721 0.95647 0.92448 0.0
C523 C 0.61297 0.98329 0.94001 0.0
C524 C 0.56917 0.97778 0.94508 0.0
C525 C 0.62845 0.9516 0.92686 0.0
C526 C 0.54097 0.94087 0.9338 0.0
C527 C 0.55617 0.90929 0.92014 0.0
H528 H 0.8892 0.163 0.47851 0.0
H529 H 0.89183 0.22468 0.59325 0.0
H530 H 0.92294 0.17771 0.62166 0.0
H531 H 0.94986 0.1195 0.61311 0.0
H532 H 0.94501 0.0579 0.49814 0.0
H533 H 0.91357 0.1045 0.47048 0.0
C534 C 0.89675 0.16649 0.50971 0.0
C535 C 0.88871 0.19752 0.53379 0.0
C536 C 0.91378 0.13921 0.52574 0.0
C537 C 0.8981 0.20111 0.57421 0.0
C538 C 0.91569 0.17424 0.59041 0.0
C539 C 0.94148 0.11613 0.58212 0.0
C540 C 0.94976 0.08552 0.55756 0.0
C541 C 0.92359 0.14314 0.56641 0.0
C542 C 0.93891 0.08135 0.5175 0.0
C543 C 0.92113 0.10803 0.50167 0.0
H544 H 0.25531 0.65113 0.1894 0.0
H545 H 0.30655 0.73052 0.09384 0.0
H546 H 0.24255 0.70244 0.05784 0.0
H547 H 0.1705 0.65421 0.05124 0.0
H548 H 0.12312 0.5696 0.1425 0.0
H549 H 0.18615 0.59991 0.18061 0.0
C550 C 0.25323 0.66239 0.16058 0.0
C551 C 0.287 0.69459 0.14601 0.0
C552 C 0.21611 0.64467 0.13834 0.0
C553 C 0.28175 0.70755 0.10799 0.0
C554 C 0.24474 0.69088 0.08653 0.0
C555 C 0.17382 0.64238 0.07949 0.0
C556 C 0.14111 0.60937 0.09361 0.0
C557 C 0.2114 0.65949 0.10128 0.0
C558 C 0.14714 0.59465 0.1303 0.0
C559 C 0.18349 0.61216 0.15241 0.0
H560 H 0.26546 0.40273 0.60389 0.0
H561 H 0.32336 0.44306 0.71633 0.0
H562 H 0.38901 0.47941 0.68158 0.0
H563 H 0.43081 0.4994 0.61887 0.0
H564 H 0.37208 0.46011 0.50657 0.0
H565 H 0.3065 0.4241 0.54138 0.0
C566 C 0.29253 0.41929 0.62078 0.0
C567 C 0.28931 0.41998 0.66276 0.0
C568 C 0.33025 0.44056 0.60053 0.0
C569 C 0.32467 0.44215 0.68406 0.0
C570 C 0.36236 0.46292 0.66417 0.0
C571 C 0.40358 0.4831 0.60205 0.0
C572 C 0.4066 0.48243 0.56006 0.0
C573 C 0.36561 0.4624 0.62237 0.0
C574 C 0.37085 0.46119 0.53883 0.0
C575 C 0.33323 0.44044 0.55876 0.0
H576 H 0.70101 0.6534 0.9236 0.0
H577 H 0.73434 0.77623 0.9644 0.0
H578 H 0.80496 0.77405 0.97967 0.0
H579 H 0.85702 0.73641 0.98281 0.0
H580 H 0.8214 0.61263 0.94498 0.0
H581 H 0.75191 0.61582 0.9277 0.0
C582 C 0.72383 0.67972 0.93575 0.0
C583 C 0.71277 0.71507 0.9419 0.0
C584 C 0.76392 0.67796 0.94534 0.0
C585 C 0.74234 0.74886 0.95824 0.0
C586 C 0.78268 0.74755 0.96731 0.0
C587 C 0.83403 0.71027 0.97061 0.0
C588 C 0.84423 0.6743 0.96535 0.0
C589 C 0.79383 0.71221 0.96103 0.0
C590 C 0.81409 0.64052 0.9498 0.0
C591 C 0.77442 0.64235 0.93973 0.0
H592 H 0.36752 0.83899 0.15728 0.0
H593 H 0.47822 0.79992 0.16669 0.0
H594 H 0.52199 0.86054 0.13613 0.0
H595 H 0.5295 0.92451 0.10351 0.0
H596 H 0.41933 0.9647 0.09648 0.0
H597 H 0.37564 0.90459 0.12832 0.0
C598 C 0.40125 0.84347 0.15285 0.0
C599 C 0.41884 0.81364 0.16477 0.0
C600 C 0.42678 0.87911 0.13502 0.0
C601 C 0.46307 0.82156 0.15875 0.0
C602 C 0.48835 0.85647 0.14073 0.0
C603 C 0.49593 0.92035 0.10901 0.0
C604 C 0.47817 0.94992 0.09698 0.0
C605 C 0.47067 0.88543 0.12826 0.0
C606 C 0.43443 0.94323 0.10504 0.0
C607 C 0.40922 0.90849 0.12338 0.0
H608 H 0.17405 0.30685 0.61877 0.0
H609 H 0.15488 0.27325 0.74107 0.0
H610 H 0.12244 0.20392 0.71921 0.0
H611 H 0.10026 0.15198 0.66452 0.0
H612 H 0.11865 0.1881 0.54282 0.0
H613 H 0.15102 0.25638 0.56518 0.0
C614 C 0.16301 0.28441 0.64077 0.0
C615 C 0.16734 0.2956 0.68163 0.0
C616 C 0.1444 0.24458 0.62797 0.0
C617 C 0.15184 0.26587 0.70948 0.0
C618 C 0.13351 0.22603 0.69692 0.0
C619 C 0.11163 0.17474 0.64291 0.0
C620 C 0.10715 0.1643 0.6018 0.0
C621 C 0.12981 0.21485 0.65614 0.0
C622 C 0.12161 0.19466 0.57449 0.0
C623 C 0.14017 0.23404 0.58729 0.0
H624 H 0.78596 0.32548 0.46164 0.0
H625 H 0.6809 0.22151 0.48231 0.0
H626 H 0.63302 0.26266 0.49358 0.0
H627 H 0.61987 0.32696 0.48804 0.0
H628 H 0.72408 0.43012 0.46143 0.0
H629 H 0.77374 0.39082 0.46206 0.0
C630 C 0.75279 0.31218 0.4698 0.0
C631 C 0.7367 0.27087 0.47151 0.0
C632 C 0.72535 0.33581 0.4744 0.0
C633 C 0.69367 0.25344 0.4812 0.0
C634 C 0.66638 0.27688 0.48731 0.0
C635 C 0.65357 0.3409 0.48326 0.0
C636 C 0.66844 0.38113 0.47442 0.0
C637 C 0.68163 0.31792 0.48257 0.0
C638 C 0.71204 0.39898 0.46783 0.0
C639 C 0.74037 0.37659 0.46825 0.0
loop_
_geom_bond_atom_site_label_1
_geom_bond_atom_site_label_2
_geom_bond_distance
_geom_bond_site_symmetry_2
_ccdc_geom_bond_type
H0 C5 0.930 . S
H1 C8 0.930 . S
H2 C10 0.930 . S
H3 C4 1.016 . S
C4 H3 1.016 . S
C4 N11 1.286 . S
C5 H0 0.930 . S
C5 C6 1.397 . S
C5 C7 1.361 . S
C6 C5 1.397 . S
C6 C10 1.390 . S
C7 C5 1.361 . S
C7 C8 1.393 . S
C7 N11 1.413 . S
C8 H1 0.930 . S
C8 C7 1.393 . S
C8 C9 1.399 . S
C9 C8 1.399 . S
C9 C10 1.381 . S
C10 H2 0.930 . S
C10 C6 1.390 . S
C10 C9 1.381 . S
N11 C4 1.286 . S
N11 C7 1.413 . S
H12 C17 0.930 . S
H13 C20 0.930 . S
H14 C22 0.930 . S
H15 C16 1.016 . S
C16 H15 1.016 . S
C16 N23 1.286 . S
C17 H12 0.930 . S
C17 C18 1.397 . S
C17 C19 1.361 . S
C18 C17 1.397 . S
C18 C22 1.390 . S
C19 C17 1.361 . S
C19 C20 1.393 . S
C19 N23 1.413 . S
C20 H13 0.930 . S
C20 C19 1.393 . S
C20 C21 1.399 . S
C21 C20 1.399 . S
C21 C22 1.381 . S
C22 H14 0.930 . S
C22 C18 1.390 . S
C22 C21 1.381 . S
N23 C16 1.286 . S
N23 C19 1.413 . S
H24 C29 0.930 . S
H25 C32 0.930 . S
H26 C34 0.930 . S
H27 C28 1.016 . S
C28 H27 1.016 . S
C28 N35 1.286 . S
C29 H24 0.930 . S
C29 C30 1.397 . S
C29 C31 1.361 . S
C30 C29 1.397 . S
C30 C34 1.390 . S
C31 C29 1.361 . S
C31 C32 1.393 . S
C31 N35 1.413 . S
C32 H25 0.930 . S
C32 C31 1.393 . S
C32 C33 1.399 . S
C33 C32 1.399 . S
C33 C34 1.381 . S
C34 H26 0.930 . S
C34 C30 1.390 . S
C34 C33 1.381 . S
N35 C28 1.286 . S
N35 C31 1.413 . S
H36 C41 0.930 . S
H37 C44 0.930 . S
H38 C46 0.930 . S
H39 C40 1.016 . S
C40 H39 1.016 . S
C40 N47 1.286 . S
C41 H36 0.930 . S
C41 C42 1.397 . S
C41 C43 1.361 . S
C42 C41 1.397 . S
C42 C46 1.390 . S
C43 C41 1.361 . S
C43 C44 1.393 . S
C43 N47 1.413 . S
C44 H37 0.930 . S
C44 C43 1.393 . S
C44 C45 1.399 . S
C45 C44 1.399 . S
C45 C46 1.381 . S
C46 H38 0.930 . S
C46 C42 1.390 . S
C46 C45 1.381 . S
N47 C40 1.286 . S
N47 C43 1.413 . S
H48 C53 0.930 . S
H49 C56 0.930 . S
H50 C58 0.930 . S
H51 C52 1.016 . S
C52 H51 1.016 . S
C52 N59 1.286 . S
C53 H48 0.930 . S
C53 C54 1.397 . S
C53 C55 1.361 . S
C54 C53 1.397 . S
C54 C58 1.390 . S
C55 C53 1.361 . S
C55 C56 1.393 . S
C55 N59 1.413 . S
C56 H49 0.930 . S
C56 C55 1.393 . S
C56 C57 1.399 . S
C57 C56 1.399 . S
C57 C58 1.381 . S
C58 H50 0.930 . S
C58 C54 1.390 . S
C58 C57 1.381 . S
N59 C52 1.286 . S
N59 C55 1.413 . S
H60 C65 0.930 . S
H61 C68 0.930 . S
H62 C70 0.930 . S
H63 C64 1.016 . S
C64 H63 1.016 . S
C64 N71 1.286 . S
C65 H60 0.930 . S
C65 C66 1.397 . S
C65 C67 1.361 . S
C66 C65 1.397 . S
C66 C70 1.390 . S
C67 C65 1.361 . S
C67 C68 1.393 . S
C67 N71 1.413 . S
C68 H61 0.930 . S
C68 C67 1.393 . S
C68 C69 1.399 . S
C69 C68 1.399 . S
C69 C70 1.381 . S
C70 H62 0.930 . S
C70 C66 1.390 . S
C70 C69 1.381 . S
N71 C64 1.286 . S
N71 C67 1.413 . S
H72 C77 0.930 . S
H73 C80 0.930 . S
H74 C82 0.930 . S
H75 C76 1.016 . S
C76 H75 1.016 . S
C76 N83 1.286 . S
C77 H72 0.930 . S
C77 C78 1.397 . S
C77 C79 1.361 . S
C78 C77 1.397 . S
C78 C82 1.390 . S
C79 C77 1.361 . S
C79 C80 1.393 . S
C79 N83 1.413 . S
C80 H73 0.930 . S
C80 C79 1.393 . S
C80 C81 1.399 . S
C81 C80 1.399 . S
C81 C82 1.381 . S
C82 H74 0.930 . S
C82 C78 1.390 . S
C82 C81 1.381 . S
N83 C76 1.286 . S
N83 C79 1.413 . S
H84 C89 0.930 . S
H85 C92 0.930 . S
H86 C94 0.930 . S
H87 C88 1.016 . S
C88 H87 1.016 . S
C88 N95 1.286 . S
C89 H84 0.930 . S
C89 C90 1.397 . S
C89 C91 1.361 . S
C90 C89 1.397 . S
C90 C94 1.390 . S
C91 C89 1.361 . S
C91 C92 1.393 . S
C91 N95 1.413 . S
C92 H85 0.930 . S
C92 C91 1.393 . S
C92 C93 1.399 . S
C93 C92 1.399 . S
C93 C94 1.381 . S
C94 H86 0.930 . S
C94 C90 1.390 . S
C94 C93 1.381 . S
N95 C88 1.286 . S
N95 C91 1.413 . S
Sm96 C98 2.846 . S
Sm96 O116 2.543 . S
Sm96 O117 2.450 . S
Sm96 O118 2.681 1_545 S
Sm96 O119 2.464 1_545 S
Sm96 O120 2.396 . S
Sm96 O124 2.386 1_455 S
Sm96 O127 2.408 1_445 S
Sm97 C107 2.840 1_545 S
Sm97 O118 2.382 1_645 S
Sm97 O121 2.414 1_655 S
Sm97 O122 2.535 1_545 S
Sm97 O123 2.447 1_545 S
Sm97 O124 2.685 . S
Sm97 O125 2.469 . S
Sm97 O126 2.391 1_545 S
C98 Sm96 2.846 . S
C98 C99 1.506 . S
C98 O116 1.261 . S
C98 O117 1.242 . S
C99 C98 1.506 . S
C99 C100 1.358 . S
C99 C104 1.382 . S
C100 C99 1.358 . S
C100 C101 1.385 . S
C100 H128 0.930 . S
C101 C100 1.385 . S
C101 C102 1.395 . S
C101 H129 0.929 . S
C102 C101 1.395 . S
C102 C103 1.335 . S
C103 C102 1.335 . S
C103 C104 1.398 . S
C103 H130 0.930 . S
C104 C99 1.382 . S
C104 C103 1.398 . S
C104 H131 0.929 . S
C105 O118 1.271 . S
C105 O119 1.251 . S
C106 O120 1.252 . S
C106 O121 1.272 . S
C107 Sm97 2.840 1_565 S
C107 C108 1.506 . S
C107 O122 1.261 . S
C107 O123 1.242 . S
C108 C107 1.506 . S
C108 C109 1.358 . S
C108 C113 1.382 . S
C109 C108 1.358 . S
C109 C110 1.385 . S
C109 H132 0.930 . S
C110 C109 1.385 . S
C110 C111 1.395 . S
C110 H133 0.929 . S
C111 C110 1.395 . S
C111 C112 1.335 . S
C112 C111 1.335 . S
C112 C113 1.398 . S
C112 H134 0.930 . S
C113 C108 1.382 . S
C113 C112 1.398 . S
C113 H135 0.929 . S
C114 O124 1.271 . S
C114 O125 1.251 . S
C115 O126 1.252 . S
C115 O127 1.272 . S
O116 Sm96 2.543 . S
O116 C98 1.261 . S
O117 Sm96 2.450 . S
O117 C98 1.242 . S
O118 Sm96 2.681 1_565 S
O118 Sm97 2.382 1_465 S
O118 C105 1.271 . S
O119 Sm96 2.464 1_565 S
O119 C105 1.251 . S
O120 Sm96 2.396 . S
O120 C106 1.252 . S
O121 Sm97 2.414 1_455 S
O121 C106 1.272 . S
O122 Sm97 2.535 1_565 S
O122 C107 1.261 . S
O123 Sm97 2.447 1_565 S
O123 C107 1.242 . S
O124 Sm96 2.386 1_655 S
O124 Sm97 2.685 . S
O124 C114 1.271 . S
O125 Sm97 2.469 . S
O125 C114 1.251 . S
O126 Sm97 2.391 1_565 S
O126 C115 1.252 . S
O127 Sm96 2.408 1_665 S
O127 C115 1.272 . S
H128 C100 0.930 . S
H129 C101 0.929 . S
H130 C103 0.930 . S
H131 C104 0.929 . S
H132 C109 0.930 . S
H133 C110 0.929 . S
H134 C112 0.930 . S
H135 C113 0.929 . S
Sm136 C138 2.846 . S
Sm136 O156 2.543 . S
Sm136 O157 2.450 . S
Sm136 O158 2.681 1_545 S
Sm136 O159 2.464 1_545 S
Sm136 O160 2.396 . S
Sm136 O164 2.391 . S
Sm136 O167 2.408 1_544 S
Sm137 C147 2.846 1_545 S
Sm137 O158 2.386 1_546 S
Sm137 O161 2.408 1_556 S
Sm137 O162 2.543 1_545 S
Sm137 O163 2.450 1_545 S
Sm137 O164 2.679 1_556 S
Sm137 O165 2.464 . S
Sm137 O166 2.396 1_545 S
C138 Sm136 2.846 . S
C138 C139 1.506 . S
C138 O156 1.261 . S
C138 O157 1.242 . S
C139 C138 1.506 . S
C139 C140 1.358 . S
C139 C144 1.382 . S
C140 C139 1.358 . S
C140 C141 1.385 . S
C140 H168 0.930 . S
C141 C140 1.385 . S
C141 C142 1.395 . S
C141 H169 0.929 . S
C142 C141 1.395 . S
C142 C143 1.335 . S
C143 C142 1.335 . S
C143 C144 1.398 . S
C143 H170 0.930 . S
C144 C139 1.382 . S
C144 C143 1.398 . S
C144 H171 0.929 . S
C145 O158 1.271 . S
C145 O159 1.251 . S
C146 O160 1.252 . S
C146 O161 1.272 . S
C147 Sm137 2.846 1_565 S
C147 C148 1.506 . S
C147 O162 1.261 . S
C147 O163 1.242 . S
C148 C147 1.506 . S
C148 C149 1.358 . S
C148 C153 1.382 . S
C149 C148 1.358 . S
C149 C150 1.385 . S
C149 H172 0.930 . S
C150 C149 1.385 . S
C150 C151 1.395 . S
C150 H173 0.929 . S
C151 C150 1.395 . S
C151 C152 1.335 . S
C152 C151 1.335 . S
C152 C153 1.398 . S
C152 H174 0.930 . S
C153 C148 1.382 . S
C153 C152 1.398 . S
C153 H175 0.929 . S
C154 O164 1.266 1_556 S
C154 O165 1.251 . S
C155 O166 1.252 . S
C155 O167 1.272 . S
O156 Sm136 2.543 . S
O156 C138 1.261 . S
O157 Sm136 2.450 . S
O157 C138 1.242 . S
O158 Sm136 2.681 1_565 S
O158 Sm137 2.386 1_564 S
O158 C145 1.271 . S
O159 Sm136 2.464 1_565 S
O159 C145 1.251 . S
O160 Sm136 2.396 . S
O160 C146 1.252 . S
O161 Sm137 2.408 1_554 S
O161 C146 1.272 . S
O162 Sm137 2.543 1_565 S
O162 C147 1.261 . S
O163 Sm137 2.450 1_565 S
O163 C147 1.242 . S
O164 Sm136 2.391 . S
O164 Sm137 2.679 1_554 S
O164 C154 1.266 1_554 S
O165 Sm137 2.464 . S
O165 C154 1.251 . S
O166 Sm137 2.396 1_565 S
O166 C155 1.252 . S
O167 Sm136 2.408 1_566 S
O167 C155 1.272 . S
H168 C140 0.930 . S
H169 C141 0.929 . S
H170 C143 0.930 . S
H171 C144 0.929 . S
H172 C149 0.930 . S
H173 C150 0.929 . S
H174 C152 0.930 . S
H175 C153 0.929 . S
Sm176 C178 2.846 . S
Sm176 O196 2.543 . S
Sm176 O197 2.450 . S
Sm176 O198 2.681 . S
Sm176 O199 2.464 . S
Sm176 O200 2.396 . S
Sm176 O204 2.386 . S
Sm176 O207 2.408 . S
Sm177 C187 2.846 . S
Sm177 O198 2.386 . S
Sm177 O201 2.408 . S
Sm177 O202 2.543 . S
Sm177 O203 2.450 . S
Sm177 O204 2.681 . S
Sm177 O205 2.464 . S
Sm177 O206 2.396 . S
C178 Sm176 2.846 . S
C178 C179 1.506 . S
C178 O196 1.261 . S
C178 O197 1.242 . S
C179 C178 1.506 . S
C179 C180 1.358 . S
C179 C184 1.382 . S
C180 C179 1.358 . S
C180 C181 1.385 . S
C180 H208 0.930 . S
C181 C180 1.385 . S
C181 C182 1.395 . S
C181 H209 0.929 . S
C182 C181 1.395 . S
C182 C183 1.335 . S
C183 C182 1.335 . S
C183 C184 1.398 . S
C183 H210 0.930 . S
C184 C179 1.382 . S
C184 C183 1.398 . S
C184 H211 0.929 . S
C185 O198 1.271 . S
C185 O199 1.251 . S
C186 O200 1.252 . S
C186 O201 1.272 . S
C187 Sm177 2.846 . S
C187 C188 1.506 . S
C187 O202 1.261 . S
C187 O203 1.242 . S
C188 C187 1.506 . S
C188 C189 1.358 . S
C188 C193 1.382 . S
C189 C188 1.358 . S
C189 C190 1.385 . S
C189 H212 0.930 . S
C190 C189 1.385 . S
C190 C191 1.395 . S
C190 H213 0.929 . S
C191 C190 1.395 . S
C191 C192 1.335 . S
C192 C191 1.335 . S
C192 C193 1.398 . S
C192 H214 0.930 . S
C193 C188 1.382 . S
C193 C192 1.398 . S
C193 H215 0.929 . S
C194 O204 1.271 . S
C194 O205 1.251 . S
C195 O206 1.252 . S
C195 O207 1.272 . S
O196 Sm176 2.543 . S
O196 C178 1.261 . S
O197 Sm176 2.450 . S
O197 C178 1.242 . S
O198 Sm176 2.681 . S
O198 Sm177 2.386 . S
O198 C185 1.271 . S
O199 Sm176 2.464 . S
O199 C185 1.251 . S
O200 Sm176 2.396 . S
O200 C186 1.252 . S
O201 Sm177 2.408 . S
O201 C186 1.272 . S
O202 Sm177 2.543 . S
O202 C187 1.261 . S
O203 Sm177 2.450 . S
O203 C187 1.242 . S
O204 Sm176 2.386 . S
O204 Sm177 2.681 . S
O204 C194 1.271 . S
O205 Sm177 2.464 . S
O205 C194 1.251 . S
O206 Sm177 2.396 . S
O206 C195 1.252 . S
O207 Sm176 2.408 . S
O207 C195 1.272 . S
H208 C180 0.930 . S
H209 C181 0.929 . S
H210 C183 0.930 . S
H211 C184 0.929 . S
H212 C189 0.930 . S
H213 C190 0.929 . S
H214 C192 0.930 . S
H215 C193 0.929 . S
Sm216 C218 2.846 . S
Sm216 O236 2.543 . S
Sm216 O237 2.450 . S
Sm216 O238 2.681 1_455 S
Sm216 O239 2.464 1_455 S
Sm216 O240 2.396 . S
Sm216 O244 2.386 1_554 S
Sm216 O247 2.408 1_454 S
Sm217 C227 2.846 1_455 S
Sm217 O238 2.386 1_456 S
Sm217 O241 2.408 1_556 S
Sm217 O242 2.543 1_455 S
Sm217 O243 2.450 1_455 S
Sm217 O244 2.681 . S
Sm217 O245 2.464 . S
Sm217 O246 2.396 1_455 S
C218 Sm216 2.846 . S
C218 C219 1.506 . S
C218 O236 1.261 . S
C218 O237 1.242 . S
C219 C218 1.506 . S
C219 C220 1.358 . S
C219 C224 1.382 . S
C220 C219 1.358 . S
C220 C221 1.385 . S
C220 H248 0.930 . S
C221 C220 1.385 . S
C221 C222 1.395 . S
C221 H249 0.929 . S
C222 C221 1.395 . S
C222 C223 1.335 . S
C223 C222 1.335 . S
C223 C224 1.398 . S
C223 H250 0.930 . S
C224 C219 1.382 . S
C224 C223 1.398 . S
C224 H251 0.929 . S
C225 O238 1.271 . S
C225 O239 1.251 . S
C226 O240 1.252 . S
C226 O241 1.272 . S
C227 Sm217 2.846 1_655 S
C227 C228 1.506 . S
C227 O242 1.261 . S
C227 O243 1.242 . S
C228 C227 1.506 . S
C228 C229 1.358 . S
C228 C233 1.382 . S
C229 C228 1.358 . S
C229 C230 1.385 . S
C229 H252 0.930 . S
C230 C229 1.385 . S
C230 C231 1.395 . S
C230 H253 0.929 . S
C231 C230 1.395 . S
C231 C232 1.335 . S
C232 C231 1.335 . S
C232 C233 1.398 . S
C232 H254 0.930 . S
C233 C228 1.382 . S
C233 C232 1.398 . S
C233 H255 0.929 . S
C234 O244 1.271 . S
C234 O245 1.251 . S
C235 O246 1.252 . S
C235 O247 1.272 . S
O236 Sm216 2.543 . S
O236 C218 1.261 . S
O237 Sm216 2.450 . S
O237 C218 1.242 . S
O238 Sm216 2.681 1_655 S
O238 Sm217 2.386 1_654 S
O238 C225 1.271 . S
O239 Sm216 2.464 1_655 S
O239 C225 1.251 . S
O240 Sm216 2.396 . S
O240 C226 1.252 . S
O241 Sm217 2.408 1_554 S
O241 C226 1.272 . S
O242 Sm217 2.543 1_655 S
O242 C227 1.261 . S
O243 Sm217 2.450 1_655 S
O243 C227 1.242 . S
O244 Sm216 2.386 1_556 S
O244 Sm217 2.681 . S
O244 C234 1.271 . S
O245 Sm217 2.464 . S
O245 C234 1.251 . S
O246 Sm217 2.396 1_655 S
O246 C235 1.252 . S
O247 Sm216 2.408 1_656 S
O247 C235 1.272 . S
H248 C220 0.930 . S
H249 C221 0.929 . S
H250 C223 0.930 . S
H251 C224 0.929 . S
H252 C229 0.930 . S
H253 C230 0.929 . S
H254 C232 0.930 . S
H255 C233 0.929 . S
H256 C262 0.930 . S
H257 C265 0.930 . S
H258 C266 0.930 . S
H259 C267 0.930 . S
H260 C270 0.930 . S
H261 C271 0.930 . S
C262 H256 0.930 . S
C262 C263 1.355 . S
C262 C264 1.415 . S
C263 C262 1.355 . S
C263 C265 1.419 . S
C264 C262 1.415 . S
C264 C269 1.425 . S
C264 C271 1.409 . S
C265 H257 0.930 . S
C265 C263 1.419 . S
C265 C266 1.362 . S
C266 H258 0.930 . S
C266 C265 1.362 . S
C266 C269 1.409 . S
C267 H259 0.930 . S
C267 C268 1.355 . S
C267 C269 1.415 . S
C268 C267 1.355 . S
C268 C270 1.419 . S
C269 C264 1.425 . S
C269 C266 1.409 . S
C269 C267 1.415 . S
C270 H260 0.930 . S
C270 C268 1.419 . S
C270 C271 1.362 . S
C271 H261 0.930 . S
C271 C264 1.409 . S
C271 C270 1.362 . S
H272 C278 0.930 . S
H273 C281 0.930 . S
H274 C282 0.930 . S
H275 C283 0.930 . S
H276 C286 0.930 . S
H277 C287 0.930 . S
C278 H272 0.930 . S
C278 C279 1.355 . S
C278 C280 1.415 . S
C279 C278 1.355 . S
C279 C281 1.419 . S
C280 C278 1.415 . S
C280 C285 1.425 . S
C280 C287 1.409 . S
C281 H273 0.930 . S
C281 C279 1.419 . S
C281 C282 1.362 . S
C282 H274 0.930 . S
C282 C281 1.362 . S
C282 C285 1.409 . S
C283 H275 0.930 . S
C283 C284 1.355 . S
C283 C285 1.415 . S
C284 C283 1.355 . S
C284 C286 1.419 . S
C285 C280 1.425 . S
C285 C282 1.409 . S
C285 C283 1.415 . S
C286 H276 0.930 . S
C286 C284 1.419 . S
C286 C287 1.362 . S
C287 H277 0.930 . S
C287 C280 1.409 . S
C287 C286 1.362 . S
H288 C294 0.930 . S
H289 C297 0.930 . S
H290 C298 0.930 . S
H291 C299 0.930 . S
H292 C302 0.930 . S
H293 C303 0.930 . S
C294 H288 0.930 . S
C294 C295 1.355 . S
C294 C296 1.415 . S
C295 C294 1.355 . S
C295 C297 1.419 . S
C296 C294 1.415 . S
C296 C301 1.425 . S
C296 C303 1.409 . S
C297 H289 0.930 . S
C297 C295 1.419 . S
C297 C298 1.362 . S
C298 H290 0.930 . S
C298 C297 1.362 . S
C298 C301 1.409 . S
C299 H291 0.930 . S
C299 C300 1.355 . S
C299 C301 1.415 . S
C300 C299 1.355 . S
C300 C302 1.419 . S
C301 C296 1.425 . S
C301 C298 1.409 . S
C301 C299 1.415 . S
C302 H292 0.930 . S
C302 C300 1.419 . S
C302 C303 1.362 . S
C303 H293 0.930 . S
C303 C296 1.409 . S
C303 C302 1.362 . S
H304 C310 0.930 . S
H305 C313 0.930 . S
H306 C314 0.930 . S
H307 C315 0.930 . S
H308 C318 0.930 1_455 S
H309 C319 0.930 . S
C310 H304 0.930 . S
C310 C311 1.355 . S
C310 C312 1.415 . S
C311 C310 1.355 . S
C311 C313 1.419 . S
C312 C310 1.415 . S
C312 C317 1.425 . S
C312 C319 1.409 . S
C313 H305 0.930 . S
C313 C311 1.419 . S
C313 C314 1.362 . S
C314 H306 0.930 . S
C314 C313 1.362 . S
C314 C317 1.409 . S
C315 H307 0.930 . S
C315 C316 1.355 . S
C315 C317 1.415 . S
C316 C315 1.355 . S
C316 C318 1.419 . S
C317 C312 1.425 . S
C317 C314 1.409 . S
C317 C315 1.415 . S
C318 H308 0.930 1_655 S
C318 C316 1.419 . S
C318 C319 1.362 . S
C319 H309 0.930 . S
C319 C312 1.409 . S
C319 C318 1.362 . S
H320 C326 0.930 . S
H321 C329 0.930 . S
H322 C330 0.930 . S
H323 C331 0.930 . S
H324 C334 0.930 . S
H325 C335 0.930 . S
C326 H320 0.930 . S
C326 C327 1.355 . S
C326 C328 1.415 . S
C327 C326 1.355 . S
C327 C329 1.419 . S
C328 C326 1.415 . S
C328 C333 1.425 . S
C328 C335 1.409 . S
C329 H321 0.930 . S
C329 C327 1.419 . S
C329 C330 1.362 . S
C330 H322 0.930 . S
C330 C329 1.362 . S
C330 C333 1.409 . S
C331 H323 0.930 . S
C331 C332 1.355 . S
C331 C333 1.415 . S
C332 C331 1.355 . S
C332 C334 1.419 . S
C333 C328 1.425 . S
C333 C330 1.409 . S
C333 C331 1.415 . S
C334 H324 0.930 . S
C334 C332 1.419 . S
C334 C335 1.362 . S
C335 H325 0.930 . S
C335 C328 1.409 . S
C335 C334 1.362 . S
H336 C342 0.930 . S
H337 C345 0.930 . S
H338 C346 0.930 . S
H339 C347 0.930 . S
H340 C350 0.930 . S
H341 C351 0.930 . S
C342 H336 0.930 . S
C342 C343 1.355 . S
C342 C344 1.415 . S
C343 C342 1.355 . S
C343 C345 1.419 . S
C344 C342 1.415 . S
C344 C349 1.425 . S
C344 C351 1.409 . S
C345 H337 0.930 . S
C345 C343 1.419 . S
C345 C346 1.362 . S
C346 H338 0.930 . S
C346 C345 1.362 . S
C346 C349 1.409 . S
C347 H339 0.930 . S
C347 C348 1.355 . S
C347 C349 1.415 . S
C348 C347 1.355 . S
C348 C350 1.419 . S
C349 C344 1.425 . S
C349 C346 1.409 . S
C349 C347 1.415 . S
C350 H340 0.930 . S
C350 C348 1.419 . S
C350 C351 1.362 . S
C351 H341 0.930 . S
C351 C344 1.409 . S
C351 C350 1.362 . S
H352 C358 0.930 . S
H353 C361 0.930 . S
H354 C362 0.930 . S
H355 C363 0.930 . S
H356 C366 0.930 1_554 S
H357 C367 0.930 . S
C358 H352 0.930 . S
C358 C359 1.355 . S
C358 C360 1.415 . S
C359 C358 1.355 . S
C359 C361 1.419 . S
C360 C358 1.415 . S
C360 C365 1.425 . S
C360 C367 1.409 . S
C361 H353 0.930 . S
C361 C359 1.419 . S
C361 C362 1.362 . S
C362 H354 0.930 . S
C362 C361 1.362 . S
C362 C365 1.409 . S
C363 H355 0.930 . S
C363 C364 1.355 . S
C363 C365 1.415 . S
C364 C363 1.355 . S
C364 C366 1.419 . S
C365 C360 1.425 . S
C365 C362 1.409 . S
C365 C363 1.415 . S
C366 H356 0.930 1_556 S
C366 C364 1.419 . S
C366 C367 1.362 . S
C367 H357 0.930 . S
C367 C360 1.409 . S
C367 C366 1.362 . S
H368 C374 0.930 . S
H369 C377 0.930 . S
H370 C378 0.930 . S
H371 C379 0.930 . S
H372 C382 0.930 . S
H373 C383 0.930 . S
C374 H368 0.930 . S
C374 C375 1.355 . S
C374 C376 1.415 . S
C375 C374 1.355 . S
C375 C377 1.419 . S
C376 C374 1.415 . S
C376 C381 1.425 . S
C376 C383 1.409 . S
C377 H369 0.930 . S
C377 C375 1.419 . S
C377 C378 1.362 . S
C378 H370 0.930 . S
C378 C377 1.362 . S
C378 C381 1.409 . S
C379 H371 0.930 . S
C379 C380 1.355 . S
C379 C381 1.415 . S
C380 C379 1.355 . S
C380 C382 1.419 . S
C381 C376 1.425 . S
C381 C378 1.409 . S
C381 C379 1.415 . S
C382 H372 0.930 . S
C382 C380 1.419 . S
C382 C383 1.362 . S
C383 H373 0.930 . S
C383 C376 1.409 . S
C383 C382 1.362 . S
H384 C390 0.930 . S
H385 C393 0.930 . S
H386 C394 0.930 . S
H387 C395 0.930 . S
H388 C398 0.930 . S
H389 C399 0.930 . S
C390 H384 0.930 . S
C390 C391 1.355 . S
C390 C392 1.415 . S
C391 C390 1.355 . S
C391 C393 1.419 . S
C392 C390 1.415 . S
C392 C397 1.425 . S
C392 C399 1.409 . S
C393 H385 0.930 . S
C393 C391 1.419 . S
C393 C394 1.362 . S
C394 H386 0.930 . S
C394 C393 1.362 . S
C394 C397 1.409 . S
C395 H387 0.930 . S
C395 C396 1.355 . S
C395 C397 1.415 . S
C396 C395 1.355 . S
C396 C398 1.419 . S
C397 C392 1.425 . S
C397 C394 1.409 . S
C397 C395 1.415 . S
C398 H388 0.930 . S
C398 C396 1.419 . S
C398 C399 1.362 . S
C399 H389 0.930 . S
C399 C392 1.409 . S
C399 C398 1.362 . S
H400 C406 0.930 . S
H401 C409 0.930 . S
H402 C410 0.930 . S
H403 C411 0.930 . S
H404 C414 0.930 . S
H405 C415 0.930 . S
C406 H400 0.930 . S
C406 C407 1.355 . S
C406 C408 1.415 . S
C407 C406 1.355 . S
C407 C409 1.419 . S
C408 C406 1.415 . S
C408 C413 1.425 . S
C408 C415 1.409 . S
C409 H401 0.930 . S
C409 C407 1.419 . S
C409 C410 1.362 . S
C410 H402 0.930 . S
C410 C409 1.362 . S
C410 C413 1.409 . S
C411 H403 0.930 . S
C411 C412 1.355 . S
C411 C413 1.415 . S
C412 C411 1.355 . S
C412 C414 1.419 . S
C413 C408 1.425 . S
C413 C410 1.409 . S
C413 C411 1.415 . S
C414 H404 0.930 . S
C414 C412 1.419 . S
C414 C415 1.362 . S
C415 H405 0.930 . S
C415 C408 1.409 . S
C415 C414 1.362 . S
H416 C422 0.930 . S
H417 C425 0.930 . S
H418 C426 0.930 . S
H419 C427 0.930 . S
H420 C430 0.930 . S
H421 C431 0.930 . S
C422 H416 0.930 . S
C422 C423 1.355 . S
C422 C424 1.415 . S
C423 C422 1.355 . S
C423 C425 1.419 . S
C424 C422 1.415 . S
C424 C429 1.425 . S
C424 C431 1.409 . S
C425 H417 0.930 . S
C425 C423 1.419 . S
C425 C426 1.362 . S
C426 H418 0.930 . S
C426 C425 1.362 . S
C426 C429 1.409 . S
C427 H419 0.930 . S
C427 C428 1.355 . S
C427 C429 1.415 . S
C428 C427 1.355 . S
C428 C430 1.419 . S
C429 C424 1.425 . S
C429 C426 1.409 . S
C429 C427 1.415 . S
C430 H420 0.930 . S
C430 C428 1.419 . S
C430 C431 1.362 . S
C431 H421 0.930 . S
C431 C424 1.409 . S
C431 C430 1.362 . S
H432 C438 0.930 . S
H433 C441 0.930 . S
H434 C442 0.930 . S
H435 C443 0.930 . S
H436 C446 0.930 . S
H437 C447 0.930 . S
C438 H432 0.930 . S
C438 C439 1.355 . S
C438 C440 1.415 . S
C439 C438 1.355 . S
C439 C441 1.419 . S
C440 C438 1.415 . S
C440 C445 1.425 . S
C440 C447 1.409 . S
C441 H433 0.930 . S
C441 C439 1.419 . S
C441 C442 1.362 . S
C442 H434 0.930 . S
C442 C441 1.362 . S
C442 C445 1.409 . S
C443 H435 0.930 . S
C443 C444 1.355 . S
C443 C445 1.415 . S
C444 C443 1.355 . S
C444 C446 1.419 . S
C445 C440 1.425 . S
C445 C442 1.409 . S
C445 C443 1.415 . S
C446 H436 0.930 . S
C446 C444 1.419 . S
C446 C447 1.362 . S
C447 H437 0.930 . S
C447 C440 1.409 . S
C447 C446 1.362 . S
H448 C454 0.930 . S
H449 C457 0.930 . S
H450 C458 0.930 . S
H451 C459 0.930 . S
H452 C462 0.930 . S
H453 C463 0.930 . S
C454 H448 0.930 . S
C454 C455 1.355 . S
C454 C456 1.415 . S
C455 C454 1.355 . S
C455 C457 1.419 . S
C456 C454 1.415 . S
C456 C461 1.425 . S
C456 C463 1.409 . S
C457 H449 0.930 . S
C457 C455 1.419 . S
C457 C458 1.362 . S
C458 H450 0.930 . S
C458 C457 1.362 . S
C458 C461 1.409 . S
C459 H451 0.930 . S
C459 C460 1.355 . S
C459 C461 1.415 . S
C460 C459 1.355 . S
C460 C462 1.419 . S
C461 C456 1.425 . S
C461 C458 1.409 . S
C461 C459 1.415 . S
C462 H452 0.930 . S
C462 C460 1.419 . S
C462 C463 1.362 . S
C463 H453 0.930 . S
C463 C456 1.409 . S
C463 C462 1.362 . S
H464 C470 0.930 . S
H465 C473 0.930 . S
H466 C474 0.930 . S
H467 C475 0.930 . S
H468 C478 0.930 . S
H469 C479 0.930 . S
C470 H464 0.930 . S
C470 C471 1.355 . S
C470 C472 1.415 . S
C471 C470 1.355 . S
C471 C473 1.419 . S
C472 C470 1.415 . S
C472 C477 1.425 . S
C472 C479 1.409 . S
C473 H465 0.930 . S
C473 C471 1.419 . S
C473 C474 1.362 . S
C474 H466 0.930 . S
C474 C473 1.362 . S
C474 C477 1.409 . S
C475 H467 0.930 . S
C475 C476 1.355 . S
C475 C477 1.415 . S
C476 C475 1.355 . S
C476 C478 1.419 . S
C477 C472 1.425 . S
C477 C474 1.409 . S
C477 C475 1.415 . S
C478 H468 0.930 . S
C478 C476 1.419 . S
C478 C479 1.362 . S
C479 H469 0.930 . S
C479 C472 1.409 . S
C479 C478 1.362 . S
H480 C486 0.930 . S
H481 C489 0.930 . S
H482 C490 0.930 . S
H483 C491 0.930 . S
H484 C494 0.930 . S
H485 C495 0.930 . S
C486 H480 0.930 . S
C486 C487 1.355 . S
C486 C488 1.415 . S
C487 C486 1.355 . S
C487 C489 1.419 . S
C488 C486 1.415 . S
C488 C493 1.425 . S
C488 C495 1.409 . S
C489 H481 0.930 . S
C489 C487 1.419 . S
C489 C490 1.362 . S
C490 H482 0.930 . S
C490 C489 1.362 . S
C490 C493 1.409 . S
C491 H483 0.930 . S
C491 C492 1.355 . S
C491 C493 1.415 . S
C492 C491 1.355 . S
C492 C494 1.419 . S
C493 C488 1.425 . S
C493 C490 1.409 . S
C493 C491 1.415 . S
C494 H484 0.930 . S
C494 C492 1.419 . S
C494 C495 1.362 . S
C495 H485 0.930 . S
C495 C488 1.409 . S
C495 C494 1.362 . S
H496 C502 0.930 . S
H497 C505 0.930 . S
H498 C506 0.930 . S
H499 C507 0.930 . S
H500 C510 0.930 . S
H501 C511 0.930 . S
C502 H496 0.930 . S
C502 C503 1.355 . S
C502 C504 1.415 . S
C503 C502 1.355 . S
C503 C505 1.419 . S
C504 C502 1.415 . S
C504 C509 1.425 . S
C504 C511 1.409 . S
C505 H497 0.930 . S
C505 C503 1.419 . S
C505 C506 1.362 . S
C506 H498 0.930 . S
C506 C505 1.362 . S
C506 C509 1.409 . S
C507 H499 0.930 . S
C507 C508 1.355 . S
C507 C509 1.415 . S
C508 C507 1.355 . S
C508 C510 1.419 . S
C509 C504 1.425 . S
C509 C506 1.409 . S
C509 C507 1.415 . S
C510 H500 0.930 . S
C510 C508 1.419 . S
C510 C511 1.362 . S
C511 H501 0.930 . S
C511 C504 1.409 . S
C511 C510 1.362 . S
H512 C518 0.930 . S
H513 C521 0.930 . S
H514 C522 0.930 . S
H515 C523 0.930 . S
H516 C526 0.930 . S
H517 C527 0.930 . S
C518 H512 0.930 . S
C518 C519 1.355 . S
C518 C520 1.415 . S
C519 C518 1.355 . S
C519 C521 1.419 . S
C520 C518 1.415 . S
C520 C525 1.425 . S
C520 C527 1.409 . S
C521 H513 0.930 . S
C521 C519 1.419 . S
C521 C522 1.362 . S
C522 H514 0.930 . S
C522 C521 1.362 . S
C522 C525 1.409 . S
C523 H515 0.930 . S
C523 C524 1.355 . S
C523 C525 1.415 . S
C524 C523 1.355 . S
C524 C526 1.419 . S
C525 C520 1.425 . S
C525 C522 1.409 . S
C525 C523 1.415 . S
C526 H516 0.930 . S
C526 C524 1.419 . S
C526 C527 1.362 . S
C527 H517 0.930 . S
C527 C520 1.409 . S
C527 C526 1.362 . S
H528 C534 0.930 . S
H529 C537 0.930 . S
H530 C538 0.930 . S
H531 C539 0.930 . S
H532 C542 0.930 . S
H533 C543 0.930 . S
C534 H528 0.930 . S
C534 C535 1.355 . S
C534 C536 1.415 . S
C535 C534 1.355 . S
C535 C537 1.419 . S
C536 C534 1.415 . S
C536 C541 1.425 . S
C536 C543 1.409 . S
C537 H529 0.930 . S
C537 C535 1.419 . S
C537 C538 1.362 . S
C538 H530 0.930 . S
C538 C537 1.362 . S
C538 C541 1.409 . S
C539 H531 0.930 . S
C539 C540 1.355 . S
C539 C541 1.415 . S
C540 C539 1.355 . S
C540 C542 1.419 . S
C541 C536 1.425 . S
C541 C538 1.409 . S
C541 C539 1.415 . S
C542 H532 0.930 . S
C542 C540 1.419 . S
C542 C543 1.362 . S
C543 H533 0.930 . S
C543 C536 1.409 . S
C543 C542 1.362 . S
H544 C550 0.930 . S
H545 C553 0.930 . S
H546 C554 0.930 . S
H547 C555 0.930 . S
H548 C558 0.930 . S
H549 C559 0.930 . S
C550 H544 0.930 . S
C550 C551 1.355 . S
C550 C552 1.415 . S
C551 C550 1.355 . S
C551 C553 1.419 . S
C552 C550 1.415 . S
C552 C557 1.425 . S
C552 C559 1.409 . S
C553 H545 0.930 . S
C553 C551 1.419 . S
C553 C554 1.362 . S
C554 H546 0.930 . S
C554 C553 1.362 . S
C554 C557 1.409 . S
C555 H547 0.930 . S
C555 C556 1.355 . S
C555 C557 1.415 . S
C556 C555 1.355 . S
C556 C558 1.419 . S
C557 C552 1.425 . S
C557 C554 1.409 . S
C557 C555 1.415 . S
C558 H548 0.930 . S
C558 C556 1.419 . S
C558 C559 1.362 . S
C559 H549 0.930 . S
C559 C552 1.409 . S
C559 C558 1.362 . S
H560 C566 0.930 . S
H561 C569 0.930 . S
H562 C570 0.930 . S
H563 C571 0.930 . S
H564 C574 0.930 . S
H565 C575 0.930 . S
C566 H560 0.930 . S
C566 C567 1.355 . S
C566 C568 1.415 . S
C567 C566 1.355 . S
C567 C569 1.419 . S
C568 C566 1.415 . S
C568 C573 1.425 . S
C568 C575 1.409 . S
C569 H561 0.930 . S
C569 C567 1.419 . S
C569 C570 1.362 . S
C570 H562 0.930 . S
C570 C569 1.362 . S
C570 C573 1.409 . S
C571 H563 0.930 . S
C571 C572 1.355 . S
C571 C573 1.415 . S
C572 C571 1.355 . S
C572 C574 1.419 . S
C573 C568 1.425 . S
C573 C570 1.409 . S
C573 C571 1.415 . S
C574 H564 0.930 . S
C574 C572 1.419 . S
C574 C575 1.362 . S
C575 H565 0.930 . S
C575 C568 1.409 . S
C575 C574 1.362 . S
H576 C582 0.930 . S
H577 C585 0.930 . S
H578 C586 0.930 . S
H579 C587 0.930 . S
H580 C590 0.930 . S
H581 C591 0.930 . S
C582 H576 0.930 . S
C582 C583 1.355 . S
C582 C584 1.415 . S
C583 C582 1.355 . S
C583 C585 1.419 . S
C584 C582 1.415 . S
C584 C589 1.425 . S
C584 C591 1.409 . S
C585 H577 0.930 . S
C585 C583 1.419 . S
C585 C586 1.362 . S
C586 H578 0.930 . S
C586 C585 1.362 . S
C586 C589 1.409 . S
C587 H579 0.930 . S
C587 C588 1.355 . S
C587 C589 1.415 . S
C588 C587 1.355 . S
C588 C590 1.419 . S
C589 C584 1.425 . S
C589 C586 1.409 . S
C589 C587 1.415 . S
C590 H580 0.930 . S
C590 C588 1.419 . S
C590 C591 1.362 . S
C591 H581 0.930 . S
C591 C584 1.409 . S
C591 C590 1.362 . S
H592 C598 0.930 . S
H593 C601 0.930 . S
H594 C602 0.930 . S
H595 C603 0.930 . S
H596 C606 0.930 . S
H597 C607 0.930 . S
C598 H592 0.930 . S
C598 C599 1.355 . S
C598 C600 1.415 . S
C599 C598 1.355 . S
C599 C601 1.419 . S
C600 C598 1.415 . S
C600 C605 1.425 . S
C600 C607 1.409 . S
C601 H593 0.930 . S
C601 C599 1.419 . S
C601 C602 1.362 . S
C602 H594 0.930 . S
C602 C601 1.362 . S
C602 C605 1.409 . S
C603 H595 0.930 . S
C603 C604 1.355 . S
C603 C605 1.415 . S
C604 C603 1.355 . S
C604 C606 1.419 . S
C605 C600 1.425 . S
C605 C602 1.409 . S
C605 C603 1.415 . S
C606 H596 0.930 . S
C606 C604 1.419 . S
C606 C607 1.362 . S
C607 H597 0.930 . S
C607 C600 1.409 . S
C607 C606 1.362 . S
H608 C614 0.930 . S
H609 C617 0.930 . S
H610 C618 0.930 . S
H611 C619 0.930 . S
H612 C622 0.930 . S
H613 C623 0.930 . S
C614 H608 0.930 . S
C614 C615 1.355 . S
C614 C616 1.415 . S
C615 C614 1.355 . S
C615 C617 1.419 . S
C616 C614 1.415 . S
C616 C621 1.425 . S
C616 C623 1.409 . S
C617 H609 0.930 . S
C617 C615 1.419 . S
C617 C618 1.362 . S
C618 H610 0.930 . S
C618 C617 1.362 . S
C618 C621 1.409 . S
C619 H611 0.930 . S
C619 C620 1.355 . S
C619 C621 1.415 . S
C620 C619 1.355 . S
C620 C622 1.419 . S
C621 C616 1.425 . S
C621 C618 1.409 . S
C621 C619 1.415 . S
C622 H612 0.930 . S
C622 C620 1.419 . S
C622 C623 1.362 . S
C623 H613 0.930 . S
C623 C616 1.409 . S
C623 C622 1.362 . S
H624 C630 0.930 . S
H625 C633 0.930 . S
H626 C634 0.930 . S
H627 C635 0.930 . S
H628 C638 0.930 . S
H629 C639 0.930 . S
C630 H624 0.930 . S
C630 C631 1.355 . S
C630 C632 1.415 . S
C631 C630 1.355 . S
C631 C633 1.419 . S
C632 C630 1.415 . S
C632 C637 1.425 . S
C632 C639 1.409 . S
C633 H625 0.930 . S
C633 C631 1.419 . S
C633 C634 1.362 . S
C634 H626 0.930 . S
C634 C633 1.362 . S
C634 C637 1.409 . S
C635 H627 0.930 . S
C635 C636 1.355 . S
C635 C637 1.415 . S
C636 C635 1.355 . S
C636 C638 1.419 . S
C637 C632 1.425 . S
C637 C634 1.409 . S
C637 C635 1.415 . S
C638 H628 0.930 . S
C638 C636 1.419 . S
C638 C639 1.362 . S
C639 H629 0.930 . S
C639 C632 1.409 . S
C639 C638 1.362 . S
C263 C6 1.010 . S
C268 C102 1.086 . S
C279 C18 1.238 . S
C284 C151 1.222 . S
C300 C186 2.589 . S
C295 C28 2.634 . S
C311 C40 1.873 . S
C316 C225 1.811 . S
C332 C146 2.280 . S
C327 C9 2.131 . S
C348 C105 0.844 . S
C343 C16 0.810 . S
C364 C235 1.919 . S
C359 C30 1.948 . S
C380 C194 1.399 . S
C375 C42 1.406 . S
C391 C4 1.466 . S
C396 C222 1.490 . S
C412 C154 2.478 . S
C407 C33 2.577 . S
C423 C45 2.089 . S
C428 C115 2.088 . S
C439 C21 1.109 . S
C444 C191 1.136 . S
C460 C111 1.066 . S
C455 C57 1.037 . S
C471 C66 1.298 . S
C476 C142 1.271 . S
C487 C76 2.682 . S
C492 C195 2.605 . S
C503 C88 1.814 . S
C508 C234 1.805 . S
C519 C54 2.105 . S
C524 C155 2.266 . S
C540 C114 0.957 . S
C535 C64 0.950 . S
C556 C226 1.802 . S
C551 C78 1.872 . S
C572 C185 1.445 . S
C567 C93 1.442 . S
C583 C52 1.386 . S
C588 C231 1.496 . S
C604 C145 2.504 . S
C599 C81 2.582 . S
C620 C106 2.065 . S
C615 C90 2.071 . S
C631 C69 1.029 . S
C636 C182 1.075 . S
