# Generated by pormake.
# Topology zzz, (3,6)-cn, num edge types: 1
# Building blocks:
#     Node 0, Type 0, BuildingBlock: BETDIP_clean_linker_0, # of connection points: 3
#     Node 1, Type 0, BuildingBlock: BETDIP_clean_linker_0, # of connection points: 3
#     Node 2, Type 0, BuildingBlock: BETDIP_clean_linker_0, # of connection points: 3
#     Node 3, Type 0, BuildingBlock: BETDIP_clean_linker_0, # of connection points: 3
#     Node 4, Type 0, BuildingBlock: BETDIP_clean_linker_0, # of connection points: 3
#     Node 5, Type 0, BuildingBlock: BETDIP_clean_linker_0, # of connection points: 3
#     Node 6, Type 0, BuildingBlock: BETDIP_clean_linker_0, # of connection points: 3
#     Node 7, Type 0, BuildingBlock: BETDIP_clean_linker_0, # of connection points: 3
#     Node 8, Type 1, BuildingBlock: BETDEL_clean_sbu_0, # of connection points: 6
#     Node 9, Type 1, BuildingBlock: BETDEL_clean_sbu_0, # of connection points: 6
#     Node 10, Type 1, BuildingBlock: BETDEL_clean_sbu_0, # of connection points: 6
#     Node 11, Type 1, BuildingBlock: BETDEL_clean_sbu_0, # of connection points: 6
#     Edge 12, Type (0, 1), BuildingBlock: MIFKUJ_clean_linker_0, # of connection points: 2
#     Edge 13, Type (0, 1), BuildingBlock: MIFKUJ_clean_linker_0, # of connection points: 2
#     Edge 14, Type (0, 1), BuildingBlock: MIFKUJ_clean_linker_0, # of connection points: 2
#     Edge 15, Type (0, 1), BuildingBlock: MIFKUJ_clean_linker_0, # of connection points: 2
#     Edge 16, Type (0, 1), BuildingBlock: MIFKUJ_clean_linker_0, # of connection points: 2
#     Edge 17, Type (0, 1), BuildingBlock: MIFKUJ_clean_linker_0, # of connection points: 2
#     Edge 18, Type (0, 1), BuildingBlock: MIFKUJ_clean_linker_0, # of connection points: 2
#     Edge 19, Type (0, 1), BuildingBlock: MIFKUJ_clean_linker_0, # of connection points: 2
#     Edge 20, Type (0, 1), BuildingBlock: MIFKUJ_clean_linker_0, # of connection points: 2
#     Edge 21, Type (0, 1), BuildingBlock: MIFKUJ_clean_linker_0, # of connection points: 2
#     Edge 22, Type (0, 1), BuildingBlock: MIFKUJ_clean_linker_0, # of connection points: 2
#     Edge 23, Type (0, 1), BuildingBlock: MIFKUJ_clean_linker_0, # of connection points: 2
#     Edge 24, Type (0, 1), BuildingBlock: MIFKUJ_clean_linker_0, # of connection points: 2
#     Edge 25, Type (0, 1), BuildingBlock: MIFKUJ_clean_linker_0, # of connection points: 2
#     Edge 26, Type (0, 1), BuildingBlock: MIFKUJ_clean_linker_0, # of connection points: 2
#     Edge 27, Type (0, 1), BuildingBlock: MIFKUJ_clean_linker_0, # of connection points: 2
#     Edge 28, Type (0, 1), BuildingBlock: MIFKUJ_clean_linker_0, # of connection points: 2
#     Edge 29, Type (0, 1), BuildingBlock: MIFKUJ_clean_linker_0, # of connection points: 2
#     Edge 30, Type (0, 1), BuildingBlock: MIFKUJ_clean_linker_0, # of connection points: 2
#     Edge 31, Type (0, 1), BuildingBlock: MIFKUJ_clean_linker_0, # of connection points: 2
#     Edge 32, Type (0, 1), BuildingBlock: MIFKUJ_clean_linker_0, # of connection points: 2
#     Edge 33, Type (0, 1), BuildingBlock: MIFKUJ_clean_linker_0, # of connection points: 2
#     Edge 34, Type (0, 1), BuildingBlock: MIFKUJ_clean_linker_0, # of connection points: 2
#     Edge 35, Type (0, 1), BuildingBlock: MIFKUJ_clean_linker_0, # of connection points: 2
# Relax obj value: 0.149
# Max RMSD: 0.174
# Mean RMSD: 0.112
data_MOF--net-zzz--node1-BETDEL_clean_sbu_0--node2-BETDIP_clean_linker_0--edge1-MIFKUJ_clean_linker_0
_symmetry_space_group_name_H-M    P1
_symmetry_Int_Tables_number       1
_symmetry_cell_setting            triclinic
loop_
_symmetry_equiv_pos_as_xyz
'x, y, z'
_cell_length_a     65.099472
_cell_length_b     66.399246
_cell_length_c     19.173191
_cell_angle_alpha  91.875276
_cell_angle_beta   88.275671
_cell_angle_gamma 95.070004
loop_
_atom_site_label
_atom_site_type_symbol
_atom_site_fract_x
_atom_site_fract_y
_atom_site_fract_z
_atom_type_partial_charge
H0 H 0.74635 0.51199 0.21031 0.0
H1 H 0.7481 0.53532 0.00191 0.0
H2 H 0.80427 0.53082 0.10735 0.0
H3 H 0.7199 0.55179 0.05973 0.0
C4 C 0.71166 0.53722 0.07084 0.0
C5 C 0.75495 0.51848 0.16604 0.0
C6 C 0.77679 0.52047 0.16561 0.0
C7 C 0.74433 0.52471 0.10793 0.0
C8 C 0.75582 0.53194 0.04887 0.0
C9 C 0.77731 0.53434 0.0494 0.0
C10 C 0.78752 0.52919 0.10822 0.0
N11 N 0.72228 0.523 0.10712 0.0
H12 H 0.98646 0.74846 0.18627 0.0
H13 H 0.97107 0.75564 0.97165 0.0
H14 H 0.96909 0.8055 0.11896 0.0
H15 H 0.95248 0.72072 0.00905 0.0
C16 C 0.96766 0.71604 0.01938 0.0
C17 C 0.98119 0.75763 0.14581 0.0
C18 C 0.97746 0.77787 0.16086 0.0
C19 C 0.97778 0.74917 0.07829 0.0
C20 C 0.97221 0.76158 0.02484 0.0
C21 C 0.96904 0.7819 0.0396 0.0
C22 C 0.97099 0.78962 0.10794 0.0
N23 N 0.98094 0.72852 0.06363 0.0
H24 H 0.74843 0.97917 0.19353 0.0
H25 H 0.7604 0.9998 0.9839 0.0
H26 H 0.70543 0.01426 0.09527 0.0
H27 H 0.77015 0.9617 0.98962 0.0
C28 C 0.78205 0.96884 0.02316 0.0
C29 C 0.74404 0.98753 0.14959 0.0
C30 C 0.72532 0.99685 0.15251 0.0
C31 C 0.75684 0.98861 0.08873 0.0
C32 C 0.75082 0.99905 0.03112 0.0
C33 C 0.73258 0.00869 0.03433 0.0
C34 C 0.72006 0.00761 0.09485 0.0
N35 N 0.77575 0.97932 0.08511 0.0
H36 H 0.52235 0.75392 0.19669 0.0
H37 H 0.49742 0.74896 0.98989 0.0
H38 H 0.49653 0.69645 0.11514 0.0
H39 H 0.53275 0.7733 0.98669 0.0
C40 C 0.52405 0.78307 0.02072 0.0
C41 C 0.51473 0.74494 0.15528 0.0
C42 C 0.50987 0.724 0.16301 0.0
C43 C 0.51034 0.75406 0.09243 0.0
C44 C 0.50089 0.7421 0.0382 0.0
C45 C 0.49538 0.72144 0.04705 0.0
C46 C 0.49998 0.71262 0.1093 0.0
N47 N 0.51513 0.77522 0.08408 0.0
H48 H 0.26402 0.49811 0.91852 0.0
H49 H 0.26092 0.51709 0.13632 0.0
H50 H 0.2077 0.51744 0.01088 0.0
H51 H 0.29375 0.53322 0.09456 0.0
C52 C 0.29938 0.51877 0.07875 0.0
C53 C 0.25549 0.50374 0.9633 0.0
C54 C 0.2346 0.50758 0.957 0.0
C55 C 0.26543 0.50796 0.02759 0.0
C56 C 0.25389 0.51473 0.08586 0.0
C57 C 0.23325 0.51844 0.0795 0.0
C58 C 0.22389 0.515 0.01517 0.0
N59 N 0.28688 0.50546 0.03413 0.0
H60 H 0.0246 0.2599 0.98156 0.0
H61 H 0.9857 0.24779 0.16483 0.0
H62 H 0.99891 0.19941 0.02161 0.0
H63 H 0.97549 0.28044 0.12884 0.0
C64 C 0.99121 0.2875 0.12909 0.0
C65 C 0.01494 0.24947 0.0133 0.0
C66 C 0.01275 0.22876 0.99454 0.0
C67 C 0.00463 0.25661 0.07375 0.0
C68 C 0.99278 0.24272 0.11629 0.0
C69 C 0.99051 0.22211 0.09702 0.0
C70 C 1.00025 0.21544 0.03579 0.0
N71 N 0.00706 0.27757 0.09303 0.0
H72 H 0.26223 0.01196 0.97178 0.0
H73 H 0.25409 0.99304 0.18491 0.0
H74 H 0.31492 0.00506 0.09682 0.0
H75 H 0.22719 0.97229 0.12194 0.0
C76 C 0.22063 0.98613 0.10849 0.0
C77 C 0.2687 0.00831 0.02072 0.0
C78 C 0.29033 0.00963 0.02783 0.0
C79 C 0.25544 1.00207 0.07722 0.0
C80 C 0.26403 0.99737 0.14059 0.0
C81 C 0.28539 0.99866 0.14798 0.0
C82 C 0.29834 0.00474 0.09163 0.0
N83 N 0.23356 1.00082 0.07129 0.0
H84 H 0.49387 0.25247 0.98358 0.0
H85 H 0.53359 0.26119 0.16101 0.0
H86 H 0.52749 0.31009 0.02543 0.0
H87 H 0.54007 0.22843 0.12347 0.0
C88 C 0.52415 0.22195 0.12152 0.0
C89 C 0.5046 0.26197 0.01506 0.0
C90 C 0.50974 0.28233 0.99773 0.0
C91 C 0.51383 0.25385 0.0726 0.0
C92 C 0.52725 0.2667 0.11441 0.0
C93 C 0.53239 0.28682 0.09661 0.0
C94 C 0.5238 0.29435 0.03817 0.0
N95 N 0.50947 0.23299 0.08857 0.0
Dy96 Dy 0.01362 0.99631 0.64925 0.0
C97 C 0.98927 0.03479 0.4079 0.0
C98 C 0.01344 0.9735 0.76506 0.0
Dy99 Dy 0.99668 0.01179 0.51819 0.0
O100 O 0.02894 0.9764 0.72109 0.0
O101 O 0.99857 0.98384 0.74712 0.0
O102 O 0.04556 0.00959 0.62286 0.0
O103 O 0.02553 0.99949 0.54205 0.0
C104 C 0.04292 0.00863 0.55559 0.0
C105 C 0.96824 0.99855 0.6138 0.0
O106 O 1.00018 0.98041 0.47687 0.0
O107 O 1.00362 0.9678 0.58689 0.0
O108 O 0.9752 0.02514 0.44647 0.0
O109 O 0.00742 0.03116 0.42791 0.0
O110 O 0.96571 0.99615 0.54703 0.0
O111 O 0.98509 0.00883 0.62539 0.0
O112 O 0.01477 0.02865 0.68573 0.0
O113 O 0.00742 0.0405 0.57743 0.0
C114 C 1.00105 0.965 0.51866 0.0
C115 C 0.01278 0.0437 0.64338 0.0
Dy116 Dy 0.48907 0.9914 0.5401 0.0
C117 C 0.56078 0.03163 0.66579 0.0
C118 C 0.45154 0.97288 0.50659 0.0
Dy119 Dy 0.52352 0.01383 0.62544 0.0
O120 O 0.46629 0.97798 0.46165 0.0
O121 O 0.45743 0.97768 0.56935 0.0
O122 O 0.51139 0.9859 0.45066 0.0
O123 O 0.52166 0.98789 0.55338 0.0
C124 C 0.52738 0.98695 0.49011 0.0
C125 C 0.48494 0.0178 0.675 0.0
O126 O 0.5208 0.03537 0.53816 0.0
O127 O 0.48902 0.02252 0.49644 0.0
O128 O 0.54416 0.02996 0.70522 0.0
O129 O 0.55694 0.0238 0.60418 0.0
O130 O 0.50082 0.01846 0.71484 0.0
O131 O 0.49088 0.01722 0.61196 0.0
O132 O 0.49198 0.96991 0.62792 0.0
O133 O 0.52357 0.98305 0.67039 0.0
C134 C 0.50491 0.03657 0.49703 0.0
C135 C 0.50779 0.96895 0.66957 0.0
Dy136 Dy 0.49074 0.50796 0.6215 0.0
C137 C 0.53556 0.46968 0.41043 0.0
C138 C 0.47338 0.5328 0.71875 0.0
Dy139 Dy 0.51806 0.49238 0.51393 0.0
O140 O 0.46492 0.52578 0.66167 0.0
O141 O 0.49103 0.52537 0.72442 0.0
O142 O 0.46387 0.48952 0.5761 0.0
O143 O 0.48704 0.50249 0.50851 0.0
C144 C 0.47004 0.49158 0.51143 0.0
C145 C 0.53849 0.50891 0.62471 0.0
O146 O 0.51719 0.52285 0.46841 0.0
O147 O 0.50442 0.53651 0.57106 0.0
O148 O 0.54552 0.48 0.45916 0.0
O149 O 0.51603 0.47207 0.41742 0.0
O150 O 0.54497 0.51087 0.56038 0.0
O151 O 0.52169 0.49779 0.62679 0.0
O152 O 0.49046 0.47747 0.66729 0.0
O153 O 0.50641 0.46384 0.56949 0.0
C154 C 0.51233 0.53867 0.50706 0.0
C155 C 0.497 0.46176 0.63162 0.0
Dy156 Dy 0.99123 0.49639 0.6562 0.0
C157 C 0.03875 0.50733 0.39512 0.0
C158 C 0.96648 0.49992 0.77171 0.0
Dy159 Dy 0.01389 0.50919 0.51064 0.0
O160 O 0.96553 0.48441 0.7282 0.0
O161 O 0.9817 0.51286 0.75378 0.0
O162 O 1.00015 0.46472 0.63824 0.0
O163 O 0.99566 0.48282 0.55242 0.0
C164 C 1.00171 0.46622 0.57044 0.0
C165 C 0.0109 0.54079 0.60231 0.0
O166 O 0.98103 0.50729 0.47696 0.0
O167 O 0.96547 0.50488 0.58872 0.0
O168 O 0.02761 0.52224 0.41152 0.0
O169 O 0.03519 0.49303 0.43973 0.0
O170 O 0.01981 0.5429 0.54113 0.0
O171 O 0.00505 0.5225 0.6074 0.0
O172 O 0.02429 0.49932 0.68897 0.0
O173 O 0.03914 0.49956 0.57638 0.0
C174 C 0.96452 0.50704 0.51991 0.0
C175 C 0.04047 0.49842 0.64516 0.0
H176 H 0.1907 0.01063 0.07226 0.0
H177 H 0.15884 0.01663 0.13894 0.0
H178 H 0.17757 0.97993 0.30375 0.0
H179 H 0.20825 0.97277 0.23489 0.0
H180 H 0.14086 0.97066 0.29322 0.0
H181 H 0.17895 0.03588 0.30679 0.0
H182 H 0.19785 0.06694 0.26274 0.0
H183 H 0.14412 0.08089 0.15566 0.0
H184 H 0.12496 0.04977 0.19846 0.0
H185 H 0.0841 0.01319 0.58108 0.0
H186 H 0.1128 0.01231 0.49574 0.0
H187 H 0.06995 0.00837 0.3279 0.0
H188 H 0.041 0.00836 0.41321 0.0
H189 H 0.11578 0.03862 0.33251 0.0
H190 H 0.07844 0.9702 0.33665 0.0
H191 H 0.06231 0.94217 0.40635 0.0
H192 H 0.12007 0.93625 0.50254 0.0
H193 H 0.13627 0.96498 0.43626 0.0
C194 C 0.1879 0.00393 0.12279 0.0
C195 C 0.20186 0.99122 0.14853 0.0
C196 C 0.16975 0.00745 0.16126 0.0
C197 C 0.16567 0.99894 0.22731 0.0
C198 C 0.18 0.98657 0.25298 0.0
C199 C 0.19767 0.98255 0.21373 0.0
C200 C 0.14645 1.00232 0.26967 0.0
C201 C 0.13557 0.98561 0.30152 0.0
C202 C 0.13912 0.02173 0.28114 0.0
C203 C 0.15062 0.04038 0.25509 0.0
C204 C 0.17122 0.04549 0.27339 0.0
C205 C 0.18197 0.06312 0.24874 0.0
C206 C 0.17221 0.07584 0.20623 0.0
C207 C 0.15167 0.07099 0.18845 0.0
C208 C 0.14086 0.05337 0.21291 0.0
C209 C 0.08077 0.0124 0.526 0.0
C210 C 0.06028 0.01074 0.5038 0.0
C211 C 0.0972 0.01195 0.47736 0.0
C212 C 0.09347 0.01026 0.40565 0.0
C213 C 0.07311 0.00975 0.38307 0.0
C214 C 0.05662 0.0097 0.43181 0.0
C215 C 0.11072 0.00707 0.35529 0.0
C216 C 0.12113 0.02374 0.32261 0.0
C217 C 0.11807 0.98778 0.34483 0.0
C218 C 0.10849 0.96994 0.38216 0.0
C219 C 0.08764 0.96312 0.37333 0.0
C220 C 0.07848 0.94708 0.41217 0.0
C221 C 0.09017 0.93739 0.45861 0.0
C222 C 0.11103 0.94377 0.46653 0.0
C223 C 0.12018 0.95999 0.4286 0.0
H224 H 0.08307 0.92494 0.48843 0.0
H225 H 0.18055 0.08949 0.18722 0.0
H226 H 0.55042 0.20041 0.18665 0.0
H227 H 0.54371 0.16791 0.24208 0.0
H228 H 0.47992 0.16535 0.18492 0.0
H229 H 0.48661 0.19844 0.12991 0.0
H230 H 0.48314 0.15305 0.31741 0.0
H231 H 0.51319 0.13559 0.09745 0.0
H232 H 0.53833 0.13793 0.99865 0.0
H233 H 0.58655 0.12489 0.13378 0.0
H234 H 0.56176 0.12275 0.23367 0.0
H235 H 0.47261 0.04902 0.42448 0.0
H236 H 0.47251 0.07918 0.35389 0.0
H237 H 0.53642 0.09521 0.39947 0.0
H238 H 0.53667 0.06527 0.46986 0.0
H239 H 0.52894 0.09855 0.26068 0.0
H240 H 0.49863 0.11935 0.48225 0.0
H241 H 0.47302 0.11673 0.57966 0.0
H242 H 0.42433 0.12261 0.43748 0.0
H243 H 0.44965 0.12498 0.33902 0.0
C244 C 0.53495 0.19292 0.18556 0.0
C245 C 0.51911 0.20192 0.15343 0.0
C246 C 0.53114 0.17425 0.21709 0.0
C247 C 0.51138 0.16388 0.21677 0.0
C248 C 0.49534 0.17296 0.18553 0.0
C249 C 0.49917 0.19182 0.15388 0.0
C250 C 0.50784 0.14374 0.24992 0.0
C251 C 0.49287 0.14098 0.30394 0.0
C252 C 0.52064 0.12795 0.23317 0.0
C253 C 0.53562 0.12914 0.17318 0.0
C254 C 0.52918 0.13336 0.10623 0.0
C255 C 0.54337 0.13463 0.05 0.0
C256 C 0.56403 0.1316 0.05995 0.0
C257 C 0.57054 0.12724 0.12615 0.0
C258 C 0.55642 0.12597 0.18258 0.0
C259 C 0.48666 0.05894 0.41943 0.0
C260 C 0.50464 0.05467 0.45315 0.0
C261 C 0.48654 0.07625 0.37923 0.0
C262 C 0.50443 0.08959 0.37159 0.0
C263 C 0.52243 0.08519 0.40448 0.0
C264 C 0.52251 0.06805 0.44503 0.0
C265 C 0.50466 0.1081 0.32925 0.0
C266 C 0.51902 0.11052 0.27342 0.0
C267 C 0.4912 0.12344 0.34403 0.0
C268 C 0.476 0.1221 0.40319 0.0
C269 C 0.48244 0.1199 0.47168 0.0
C270 C 0.46798 0.1185 0.52709 0.0
C271 C 0.44705 0.11943 0.51474 0.0
C272 C 0.44054 0.12184 0.44695 0.0
C273 C 0.45494 0.12323 0.39133 0.0
H274 H 0.43588 0.11835 0.55771 0.0
H275 H 0.57499 0.13259 0.01635 0.0
H276 H 0.32314 0.48652 0.04824 0.0
H277 H 0.35458 0.47904 0.10719 0.0
H278 H 0.34885 0.53085 0.24619 0.0
H279 H 0.3184 0.53875 0.18571 0.0
H280 H 0.38617 0.5308 0.21485 0.0
H281 H 0.33499 0.47871 0.29102 0.0
H282 H 0.30885 0.44974 0.27693 0.0
H283 H 0.35416 0.41481 0.17536 0.0
H284 H 0.38052 0.44369 0.18816 0.0
H285 H 0.43008 0.47562 0.51802 0.0
H286 H 0.4037 0.4772 0.43128 0.0
H287 H 0.44943 0.50433 0.28725 0.0
H288 H 0.47589 0.50341 0.37545 0.0
H289 H 0.39452 0.46343 0.30877 0.0
H290 H 0.42716 0.53947 0.19048 0.0
H291 H 0.44918 0.57027 0.22356 0.0
H292 H 0.43499 0.55992 0.44027 0.0
H293 H 0.41243 0.52941 0.40844 0.0
C294 C 0.32871 0.49628 0.09124 0.0
C295 C 0.31832 0.51324 0.11238 0.0
C296 C 0.34663 0.49196 0.12526 0.0
C297 C 0.3542 0.50428 0.18189 0.0
C298 C 0.34365 0.52114 0.20254 0.0
C299 C 0.3261 0.52561 0.16804 0.0
C300 C 0.37295 0.49995 0.22062 0.0
C301 C 0.38802 0.51598 0.23478 0.0
C302 C 0.37547 0.48074 0.24781 0.0
C303 C 0.35964 0.46343 0.23972 0.0
C304 C 0.33933 0.46491 0.26517 0.0
C305 C 0.32448 0.4485 0.25751 0.0
C306 C 0.32982 0.43047 0.22504 0.0
C307 C 0.35003 0.4288 0.20033 0.0
C308 C 0.36493 0.44518 0.20778 0.0
C309 C 0.43462 0.48172 0.4676 0.0
C310 C 0.45505 0.48964 0.45404 0.0
C311 C 0.41947 0.48254 0.41773 0.0
C312 C 0.42436 0.49121 0.35277 0.0
C313 C 0.44509 0.49794 0.33737 0.0
C314 C 0.46026 0.4973 0.38768 0.0
C315 C 0.40745 0.49438 0.304 0.0
C316 C 0.39282 0.47814 0.28776 0.0
C317 C 0.40483 0.51363 0.27729 0.0
C318 C 0.41839 0.53196 0.29703 0.0
C319 C 0.42873 0.54378 0.24517 0.0
C320 C 0.44128 0.56121 0.26372 0.0
C321 C 0.4436 0.56696 0.334 0.0
C322 C 0.43327 0.55538 0.38587 0.0
C323 C 0.42058 0.53804 0.3676 0.0
H324 H 0.4533 0.58045 0.34829 0.0
H325 H 0.31831 0.41778 0.2192 0.0
H326 H 0.02865 0.30846 0.15896 0.0
H327 H 0.03431 0.33946 0.23188 0.0
H328 H 0.96849 0.34168 0.25829 0.0
H329 H 0.96283 0.31056 0.18734 0.0
H330 H 0.0248 0.37757 0.22629 0.0
H331 H 0.95609 0.35775 0.41951 0.0
H332 H 0.93681 0.32746 0.46794 0.0
H333 H 0.98949 0.2936 0.43051 0.0
H334 H 0.00916 0.32374 0.38276 0.0
H335 H 0.99725 0.46394 0.42877 0.0
H336 H 1.00033 0.43433 0.35075 0.0
H337 H 0.01859 0.4006 0.52375 0.0
H338 H 0.01506 0.43 0.60197 0.0
H339 H 0.99 0.37929 0.45987 0.0
H340 H 0.05333 0.41432 0.38428 0.0
H341 H 0.0774 0.44203 0.33966 0.0
H342 H 0.04225 0.44309 0.15408 0.0
H343 H 0.01799 0.41534 0.19754 0.0
C344 C 0.01542 0.31566 0.18002 0.0
C345 C 0.99528 0.30706 0.16793 0.0
C346 C 0.01866 0.33339 0.22157 0.0
C347 C 1.00183 0.34276 0.25165 0.0
C348 C 0.98174 0.33455 0.23703 0.0
C349 C 0.97851 0.31681 0.19617 0.0
C350 C 0.00508 0.36073 0.29999 0.0
C351 C 0.01721 0.37796 0.27739 0.0
C352 C 0.99567 0.36112 0.36754 0.0
C353 C 0.98403 0.34296 0.39698 0.0
C354 C 0.96359 0.34386 0.4219 0.0
C355 C 0.95258 0.32671 0.44918 0.0
C356 C 0.9619 0.3086 0.45211 0.0
C357 C 0.98226 0.30761 0.42798 0.0
C358 C 0.99334 0.32472 0.40074 0.0
C359 C 1.0022 0.45028 0.44986 0.0
C360 C 0.00576 0.44921 0.52155 0.0
C361 C 1.00408 0.43338 0.40512 0.0
C362 C 0.00977 0.41515 0.43111 0.0
C363 C 0.01409 0.4144 0.50234 0.0
C364 C 0.01209 0.43123 0.54705 0.0
C365 C 0.0094 0.39641 0.38583 0.0
C366 C 0.9977 0.37898 0.40893 0.0
C367 C 0.01968 0.39571 0.31968 0.0
C368 C 0.03375 0.41288 0.29446 0.0
C369 C 0.05063 0.42059 0.33425 0.0
C370 C 0.06437 0.43622 0.30899 0.0
C371 C 0.06134 0.44433 0.24412 0.0
C372 C 0.04457 0.4368 0.20432 0.0
C373 C 0.03087 0.42108 0.22913 0.0
H374 H 0.07199 0.45644 0.22466 0.0
H375 H 0.95335 0.29534 0.47319 0.0
H376 H 0.79639 0.94954 0.90847 0.0
H377 H 0.83104 0.95285 0.85553 0.0
H378 H 0.85156 0.99382 0.02362 0.0
H379 H 0.8166 0.99065 0.07666 0.0
H380 H 0.86413 0.00879 0.90089 0.0
H381 H 0.8675 0.94582 0.00734 0.0
H382 H 0.85683 0.91077 0.03988 0.0
H383 H 0.85962 0.89132 0.82429 0.0
H384 H 0.86996 0.92632 0.79023 0.0
H385 H 0.96631 0.01206 0.75018 0.0
H386 H 0.93777 0.00541 0.83525 0.0
H387 H 0.90481 0.96686 0.68289 0.0
H388 H 0.93324 0.97348 0.59788 0.0
H389 H 0.90186 0.95081 0.81424 0.0
H390 H 0.89361 0.01491 0.7093 0.0
H391 H 0.90497 0.04993 0.67757 0.0
H392 H 0.91224 0.06683 0.8941 0.0
H393 H 0.90118 0.03182 0.92705 0.0
C394 C 0.80837 0.95903 0.93474 0.0
C395 C 0.80379 0.96976 0.99679 0.0
C396 C 0.82823 0.96085 0.90456 0.0
C397 C 0.84408 0.97341 0.93584 0.0
C398 C 0.83963 0.98396 0.99859 0.0
C399 C 0.81968 0.98209 0.02904 0.0
C400 C 0.86478 0.97639 0.9001 0.0
C401 C 0.87259 0.9961 0.88339 0.0
C402 C 0.87577 0.95987 0.87605 0.0
C403 C 0.86932 0.93878 0.89618 0.0
C404 C 0.86563 0.93412 0.96676 0.0
C405 C 0.85968 0.91424 0.9855 0.0
C406 C 0.8575 0.89883 0.93418 0.0
C407 C 0.86129 0.90327 0.86399 0.0
C408 C 0.86721 0.92313 0.84494 0.0
C409 C 0.95305 1.00202 0.73516 0.0
C410 C 0.95189 0.99342 0.66725 0.0
C411 C 0.93674 0.99828 0.7837 0.0
C412 C 0.91902 0.98582 0.76523 0.0
C413 C 0.91827 0.97657 0.69831 0.0
C414 C 0.93448 0.98043 0.64967 0.0
C415 C 0.90081 0.98308 0.814 0.0
C416 C 0.89351 0.96344 0.83291 0.0
C417 C 0.89032 0.99965 0.8403 0.0
C418 C 0.89681 0.02071 0.82057 0.0
C419 C 0.89779 0.02606 0.7501 0.0
C420 C 0.90415 0.04591 0.7319 0.0
C421 C 0.90939 0.06058 0.78377 0.0
C422 C 0.90822 0.05544 0.85397 0.0
C423 C 0.9019 0.0356 0.87244 0.0
H424 H 0.91431 0.07594 0.76958 0.0
H425 H 0.85291 0.88345 0.94881 0.0
H426 H 0.54931 0.80469 0.93098 0.0
H427 H 0.54522 0.83814 0.88538 0.0
H428 H 0.4897 0.84184 0.01159 0.0
H429 H 0.49417 0.80856 0.05956 0.0
H430 H 0.49142 0.84751 0.84307 0.0
H431 H 0.51843 0.8716 0.06648 0.0
H432 H 0.54346 0.87384 0.16104 0.0
H433 H 0.59195 0.89424 0.01659 0.0
H434 H 0.56726 0.8918 0.92087 0.0
H435 H 0.47522 0.94495 0.7239 0.0
H436 H 0.47637 0.91529 0.79566 0.0
H437 H 0.54294 0.92208 0.78296 0.0
H438 H 0.54178 0.95243 0.71496 0.0
H439 H 0.53332 0.91133 0.90425 0.0
H440 H 0.51005 0.88523 0.6809 0.0
H441 H 0.4876 0.88205 0.57904 0.0
H442 H 0.43541 0.86388 0.71188 0.0
H443 H 0.45753 0.86717 0.81468 0.0
C444 C 0.53643 0.8128 0.94996 0.0
C445 C 0.52216 0.80411 0.99917 0.0
C446 C 0.53411 0.83188 0.92384 0.0
C447 C 0.5172 0.84249 0.94522 0.0
C448 C 0.50293 0.83394 0.99476 0.0
C449 C 0.50554 0.815 0.02231 0.0
C450 C 0.51401 0.8619 0.91222 0.0
C451 C 0.50025 0.8616 0.85724 0.0
C452 C 0.52612 0.88004 0.92902 0.0
C453 C 0.54104 0.88125 0.98632 0.0
C454 C 0.53448 0.87629 0.05466 0.0
C455 C 0.54859 0.87766 0.10852 0.0
C456 C 0.5693 0.88409 0.09476 0.0
C457 C 0.57592 0.88921 0.02713 0.0
C458 C 0.56187 0.88784 0.97307 0.0
C459 C 0.49009 0.94011 0.73657 0.0
C460 C 0.50841 0.95098 0.71342 0.0
C461 C 0.49076 0.92303 0.77734 0.0
C462 C 0.50976 0.91599 0.79389 0.0
C463 C 0.52805 0.92706 0.77129 0.0
C464 C 0.52739 0.94442 0.7321 0.0
C465 C 0.51071 0.89711 0.83415 0.0
C466 C 0.52421 0.89739 0.89024 0.0
C467 C 0.49869 0.87879 0.81726 0.0
C468 C 0.48539 0.87666 0.75552 0.0
C469 C 0.49376 0.88067 0.68841 0.0
C470 C 0.4811 0.87883 0.63052 0.0
C471 C 0.46008 0.87282 0.63901 0.0
C472 C 0.45169 0.86857 0.7054 0.0
C473 C 0.46428 0.8704 0.76348 0.0
H474 H 0.45031 0.87142 0.59413 0.0
H475 H 0.5802 0.88517 0.13653 0.0
H476 H 0.69757 0.55681 0.96469 0.0
H477 H 0.66524 0.55033 0.90453 0.0
H478 H 0.64738 0.5005 0.03891 0.0
H479 H 0.68077 0.5064 0.09722 0.0
H480 H 0.63449 0.49024 0.9165 0.0
H481 H 0.62589 0.54827 0.05759 0.0
H482 H 0.6341 0.58195 0.11283 0.0
H483 H 0.63577 0.60902 0.91219 0.0
H484 H 0.62787 0.57547 0.85555 0.0
H485 H 0.53526 0.49169 0.75368 0.0
H486 H 0.56101 0.49492 0.84565 0.0
H487 H 0.59955 0.53678 0.72075 0.0
H488 H 0.57406 0.53349 0.62899 0.0
H489 H 0.59669 0.54915 0.86108 0.0
H490 H 0.60834 0.48689 0.72509 0.0
H491 H 0.59702 0.45256 0.68043 0.0
H492 H 0.58489 0.43297 0.89009 0.0
H493 H 0.59589 0.46728 0.93594 0.0
C494 C 0.68678 0.54445 0.98156 0.0
C495 C 0.69165 0.53224 0.03606 0.0
C496 C 0.66812 0.54084 0.94743 0.0
C497 C 0.65335 0.52532 0.96828 0.0
C498 C 0.65834 0.51273 0.02206 0.0
C499 C 0.67739 0.5161 0.05551 0.0
C500 C 0.63308 0.5224 0.93242 0.0
C501 C 0.62604 0.5031 0.90575 0.0
C502 C 0.62164 0.53902 0.91859 0.0
C503 C 0.6264 0.5593 0.95228 0.0
C504 C 0.62814 0.56138 0.02517 0.0
C505 C 0.63272 0.58046 0.05674 0.0
C506 C 0.63549 0.59761 0.01604 0.0
C507 C 0.63363 0.59572 0.94366 0.0
C508 C 0.62907 0.57667 0.91179 0.0
C509 C 0.54913 0.50175 0.74632 0.0
C510 C 0.55269 0.5123 0.68398 0.0
C511 C 0.56388 0.50348 0.79871 0.0
C512 C 0.58236 0.51593 0.7899 0.0
C513 C 0.58548 0.52704 0.72878 0.0
C514 C 0.5709 0.52514 0.6763 0.0
C515 C 0.59882 0.5173 0.84287 0.0
C516 C 0.60504 0.53631 0.87296 0.0
C517 C 0.60902 0.50034 0.86155 0.0
C518 C 0.60274 0.47968 0.83385 0.0
C519 C 0.60314 0.47529 0.76162 0.0
C520 C 0.59679 0.45584 0.73611 0.0
C521 C 0.59018 0.44061 0.78239 0.0
C522 C 0.58998 0.44479 0.8543 0.0
C523 C 0.59628 0.46423 0.88007 0.0
H524 H 0.58526 0.42556 0.76253 0.0
H525 H 0.63904 0.61237 0.04059 0.0
H526 H 0.00645 0.70293 1.0 0.0
H527 H 0.01541 0.67165 0.9387 0.0
H528 H 0.95088 0.65392 0.90879 0.0
H529 H 0.9419 0.68535 0.96812 0.0
H530 H 0.97672 0.62178 0.9546 0.0
H531 H 0.97338 0.67323 0.78053 0.0
H532 H 0.9833 0.70669 0.73151 0.0
H533 H 0.0468 0.69371 0.72087 0.0
H534 H 0.03727 0.66027 0.77086 0.0
H535 H 0.97668 0.54585 0.68401 0.0
H536 H 0.97085 0.57419 0.76503 0.0
H537 H 0.03261 0.60067 0.71929 0.0
H538 H 0.03786 0.57286 0.63546 0.0
H539 H 0.01007 0.62855 0.71959 0.0
H540 H 0.01467 0.57604 0.87954 0.0
H541 H 0.007 0.54328 0.93581 0.0
H542 H 0.94513 0.55787 0.98424 0.0
H543 H 0.95216 0.59041 0.92606 0.0
C544 C 0.99419 0.69223 0.9811 0.0
C545 C 0.97347 0.6965 0.98876 0.0
C546 C 0.99932 0.67441 0.94608 0.0
C547 C 0.98378 0.66048 0.91934 0.0
C548 C 0.96307 0.66441 0.92935 0.0
C549 C 0.95798 0.68238 0.96298 0.0
C550 C 0.98905 0.64245 0.87692 0.0
C551 C 0.98388 0.62311 0.90295 0.0
C552 C 0.99895 0.64434 0.81063 0.0
C553 C 0.00465 0.66437 0.78019 0.0
C554 C 0.98948 0.6776 0.76836 0.0
C555 C 0.99503 0.69654 0.74027 0.0
C556 C 0.01568 0.70235 0.72329 0.0
C557 C 0.03082 0.68921 0.73418 0.0
C558 C 0.02535 0.67026 0.76235 0.0
C559 C 0.98908 0.55758 0.69243 0.0
C560 C 0.00781 0.55711 0.65453 0.0
C561 C 0.98579 0.57378 0.73887 0.0
C562 C 1.00141 0.58955 0.74977 0.0
C563 C 0.02026 0.58881 0.71217 0.0
C564 C 0.02331 0.5729 0.66442 0.0
C565 C 0.99777 0.6074 0.79673 0.0
C566 C 1.00313 0.62688 0.77146 0.0
C567 C 0.98839 0.60553 0.8644 0.0
C568 C 0.98392 0.58565 0.89771 0.0
C569 C 0.99934 0.57217 0.9013 0.0
C570 C 0.9951 0.55363 0.93361 0.0
C571 C 0.97559 0.54849 0.96356 0.0
C572 C 0.96025 0.56187 0.96104 0.0
C573 C 0.96432 0.58033 0.9281 0.0
H574 H 0.97234 0.53414 0.98862 0.0
H575 H 0.01994 0.71702 0.70154 0.0
H576 H 0.99941 0.21524 0.23142 0.0
H577 H 0.99253 0.18272 0.28841 0.0
H578 H 0.95338 0.16069 0.11991 0.0
H579 H 0.9599 0.19327 0.06373 0.0
H580 H 0.95922 0.15456 0.33061 0.0
H581 H 0.97398 0.11559 0.06093 0.0
H582 H 0.99274 0.12178 0.94873 0.0
H583 H 0.03318 0.16794 0.04785 0.0
H584 H 0.01487 0.16186 0.16059 0.0
H585 H 0.9522 0.04851 0.38072 0.0
H586 H 0.94658 0.0805 0.32712 0.0
H587 H 0.01202 0.09133 0.28443 0.0
H588 H 0.01767 0.05934 0.33715 0.0
H589 H 0.99071 0.10286 0.17915 0.0
H590 H 0.9897 0.11148 0.42922 0.0
H591 H 0.97737 0.10426 0.54944 0.0
H592 H 0.91703 0.12009 0.50076 0.0
H593 H 0.92888 0.12704 0.37975 0.0
C594 C 0.98849 0.20382 0.20857 0.0
C595 C 0.98034 0.20658 0.14295 0.0
C596 C 0.98469 0.18521 0.24081 0.0
C597 C 0.97285 0.16923 0.20739 0.0
C598 C 0.96278 0.17279 0.14597 0.0
C599 C 0.96642 0.19139 0.11414 0.0
C600 C 0.97359 0.14831 0.23061 0.0
C601 C 0.96587 0.14316 0.29731 0.0
C602 C 0.98272 0.13361 0.18756 0.0
C603 C 0.99287 0.13843 0.11902 0.0
C604 C 0.9868 0.12715 0.05863 0.0
C605 C 0.99741 0.13056 0.99504 0.0
C606 C 0.01422 0.14513 0.99133 0.0
C607 C 0.02018 0.15662 0.05083 0.0
C608 C 0.00964 0.15326 0.11455 0.0
C609 C 0.96531 0.05751 0.35833 0.0
C610 C 0.98539 0.05155 0.3632 0.0
C611 C 0.96209 0.07583 0.32835 0.0
C612 C 0.97893 0.08844 0.3031 0.0
C613 C 0.99883 0.08185 0.30392 0.0
C614 C 1.00204 0.06356 0.33385 0.0
C615 C 0.97613 0.10894 0.27887 0.0
C616 C 0.98357 0.11407 0.21191 0.0
C617 C 0.96723 0.12369 0.32241 0.0
C618 C 0.96011 0.11955 0.39518 0.0
C619 C 0.97375 0.11325 0.44395 0.0
C620 C 0.96686 0.10924 0.51227 0.0
C621 C 0.94643 0.11168 0.5327 0.0
C622 C 0.93284 0.11817 0.48483 0.0
C623 C 0.93963 0.12214 0.41636 0.0
H624 H 0.94114 0.10858 0.58565 0.0
H625 H 0.02256 0.14753 0.94225 0.0
H626 H 0.27563 0.96456 0.22249 0.0
H627 H 0.29479 0.9528 0.31942 0.0
H628 H 0.33524 0.00791 0.31502 0.0
H629 H 0.31599 0.01977 0.2198 0.0
H630 H 0.33323 0.94438 0.30804 0.0
H631 H 0.35604 0.02038 0.46508 0.0
H632 H 0.33886 0.04953 0.51366 0.0
H633 H 0.28039 0.01415 0.51162 0.0
H634 H 0.29724 0.98464 0.46418 0.0
H635 H 0.43625 0.96495 0.37728 0.0
H636 H 0.39998 0.96006 0.34729 0.0
H637 H 0.38228 0.96102 0.56603 0.0
H638 H 0.4187 0.96643 0.59623 0.0
H639 H 0.36288 0.98667 0.50449 0.0
H640 H 0.36999 0.91805 0.46128 0.0
H641 H 0.38584 0.88735 0.41956 0.0
H642 H 0.38143 0.90493 0.2074 0.0
H643 H 0.36585 0.9359 0.24773 0.0
C644 C 0.28823 0.97437 0.24385 0.0
C645 C 0.29451 0.99297 0.21347 0.0
C646 C 0.29918 0.96762 0.29894 0.0
C647 C 0.31636 0.97952 0.32481 0.0
C648 C 0.32182 0.99861 0.29696 0.0
C649 C 0.31098 0.00529 0.24197 0.0
C650 C 0.33055 0.97116 0.37306 0.0
C651 C 0.33951 0.9534 0.35183 0.0
C652 C 0.33816 0.98249 0.43199 0.0
C653 C 0.32795 1.00024 0.46086 0.0
C654 C 0.33955 0.01872 0.47548 0.0
C655 C 0.32985 0.03535 0.50272 0.0
C656 C 0.30854 0.0337 0.51566 0.0
C657 C 0.29689 0.01542 0.50143 0.0
C658 C 0.30651 0.99874 0.47426 0.0
C659 C 0.42464 0.96358 0.41894 0.0
C660 C 0.43018 0.96611 0.48893 0.0
C661 C 0.4039 0.96062 0.40186 0.0
C662 C 0.38838 0.95995 0.45455 0.0
C663 C 0.394 0.96136 0.52471 0.0
C664 C 0.41477 0.9644 0.54181 0.0
C665 C 0.3666 0.9609 0.43543 0.0
C666 C 0.3562 0.97723 0.46231 0.0
C667 C 0.35743 0.94802 0.38269 0.0
C668 C 0.36672 0.92935 0.35768 0.0
C669 C 0.37249 0.91544 0.40572 0.0
C670 C 0.38142 0.89797 0.3823 0.0
C671 C 0.38463 0.89419 0.31088 0.0
C672 C 0.3789 0.90786 0.26271 0.0
C673 C 0.36996 0.92536 0.28584 0.0
H674 H 0.39157 0.88067 0.29286 0.0
H675 H 0.30107 0.04659 0.53673 0.0
H676 H 0.56899 0.30726 0.06159 0.0
H677 H 0.58362 0.33864 0.11823 0.0
H678 H 0.5372 0.33145 0.28333 0.0
H679 H 0.52328 0.29971 0.22825 0.0
H680 H 0.56326 0.3693 0.12276 0.0
H681 H 0.54762 0.36021 0.4232 0.0
H682 H 0.55296 0.33558 0.51288 0.0
H683 H 0.60135 0.31209 0.38597 0.0
H684 H 0.59654 0.33678 0.29592 0.0
H685 H 0.51644 0.44694 0.30673 0.0
H686 H 0.52884 0.41716 0.24623 0.0
H687 H 0.58666 0.42752 0.35142 0.0
H688 H 0.57434 0.45742 0.41179 0.0
H689 H 0.56856 0.39018 0.37242 0.0
H690 H 0.58681 0.43029 0.1782 0.0
H691 H 0.58402 0.45445 0.08473 0.0
H692 H 0.53453 0.41586 0.99592 0.0
H693 H 0.53668 0.39167 0.08956 0.0
C694 C 0.56269 0.31191 0.11192 0.0
C695 C 0.54515 0.30114 0.14107 0.0
C696 C 0.5709 0.32991 0.14391 0.0
C697 C 0.56149 0.33753 0.2049 0.0
C698 C 0.54505 0.32578 0.23711 0.0
C699 C 0.53705 0.30761 0.20567 0.0
C700 C 0.56601 0.35905 0.2273 0.0
C701 C 0.56462 0.37385 0.1773 0.0
C702 C 0.56851 0.36512 0.29815 0.0
C703 C 0.57165 0.35035 0.35258 0.0
C704 C 0.55951 0.34991 0.41457 0.0
C705 C 0.56242 0.3359 0.46545 0.0
C706 C 0.57746 0.32226 0.45508 0.0
C707 C 0.58966 0.32263 0.39385 0.0
C708 C 0.58683 0.33662 0.34281 0.0
C709 C 0.532 0.44317 0.31543 0.0
C710 C 0.54439 0.45435 0.36414 0.0
C711 C 0.53911 0.42622 0.28067 0.0
C712 C 0.55869 0.42015 0.29432 0.0
C713 C 0.57153 0.43198 0.34009 0.0
C714 C 0.56449 0.44905 0.37438 0.0
C715 C 0.56435 0.40007 0.2683 0.0
C716 C 0.56762 0.3856 0.3177 0.0
C717 C 0.56372 0.3943 0.19674 0.0
C718 C 0.56183 0.40919 0.14145 0.0
C719 C 0.57514 0.42706 0.13933 0.0
C720 C 0.5737 0.44076 0.08616 0.0
C721 C 0.55907 0.43673 0.03456 0.0
C722 C 0.54583 0.41899 0.03601 0.0
C723 C 0.54716 0.40528 0.08913 0.0
H724 H 0.55803 0.44733 0.99336 0.0
H725 H 0.57967 0.31142 0.49452 0.0
H726 H 0.22604 0.49845 0.20052 0.0
H727 H 0.19519 0.50042 0.27609 0.0
H728 H 0.17956 0.5524 0.16666 0.0
H729 H 0.21041 0.55065 0.09172 0.0
H730 H 0.16749 0.53942 0.34649 0.0
H731 H 0.14573 0.52468 0.07407 0.0
H732 H 0.15874 0.5093 0.96395 0.0
H733 H 0.18172 0.46187 0.07826 0.0
H734 H 0.16882 0.47697 0.18871 0.0
H735 H 0.05848 0.542 0.34512 0.0
H736 H 0.09454 0.54641 0.30373 0.0
H737 H 0.09841 0.48198 0.31036 0.0
H738 H 0.06257 0.47762 0.35381 0.0
H739 H 0.11771 0.50038 0.19079 0.0
H740 H 0.11559 0.50723 0.43967 0.0
H741 H 0.10566 0.52063 0.55602 0.0
H742 H 0.13207 0.57981 0.50274 0.0
H743 H 0.14179 0.5669 0.38532 0.0
C744 C 0.21667 0.51099 0.19545 0.0
C745 C 0.22033 0.52425 0.14004 0.0
C746 C 0.19908 0.5121 0.23857 0.0
C747 C 0.18516 0.52647 0.22629 0.0
C748 C 0.19026 0.54132 0.17701 0.0
C749 C 0.20781 0.54025 0.13414 0.0
C750 C 0.16344 0.5227 0.24929 0.0
C751 C 0.1565 0.53099 0.31276 0.0
C752 C 0.14938 0.51136 0.20551 0.0
C753 C 0.15633 0.50188 0.13917 0.0
C754 C 0.15344 0.51089 0.0754 0.0
C755 C 0.16082 0.50227 0.01308 0.0
C756 C 0.17098 0.48459 0.01425 0.0
C757 C 0.17381 0.47553 0.07753 0.0
C758 C 0.16647 0.48409 0.13989 0.0
C759 C 0.06684 0.52873 0.33568 0.0
C760 C 0.0578 0.50941 0.35206 0.0
C761 C 0.08747 0.5313 0.31296 0.0
C762 C 0.09912 0.51455 0.30533 0.0
C763 C 0.08964 0.49509 0.31643 0.0
C764 C 0.06916 0.49257 0.34039 0.0
C765 C 0.12141 0.51732 0.28816 0.0
C766 C 0.12851 0.50889 0.22505 0.0
C767 C 0.13557 0.52819 0.33339 0.0
C768 C 0.12915 0.53615 0.40319 0.0
C769 C 0.119 0.52317 0.45227 0.0
C770 C 0.11348 0.53065 0.51857 0.0
C771 C 0.11819 0.55104 0.53674 0.0
C772 C 0.12839 0.56402 0.48855 0.0
C773 C 0.13389 0.55664 0.42207 0.0
H774 H 0.11397 0.55676 0.58821 0.0
H775 H 0.17668 0.47788 0.96627 0.0
H776 H 0.99751 0.79148 0.93809 0.0
H777 H 1.00259 0.82445 0.88387 0.0
H778 H 0.94339 0.83946 0.96688 0.0
H779 H 0.93841 0.80656 0.0222 0.0
H780 H 0.95666 0.85784 0.83194 0.0
H781 H 0.97717 0.8514 0.06686 0.0
H782 H 0.99371 0.83549 0.16211 0.0
H783 H 0.05278 0.84639 0.05797 0.0
H784 H 0.03644 0.86194 0.96092 0.0
H785 H 0.97964 0.96317 0.84688 0.0
H786 H 0.97009 0.92993 0.89528 0.0
H787 H 0.02972 0.91095 0.83217 0.0
H788 H 0.03945 0.94427 0.78408 0.0
H789 H 0.01424 0.89501 0.96021 0.0
H790 H 0.99099 0.9018 0.72222 0.0
H791 H 0.97263 0.91966 0.63562 0.0
H792 H 0.91643 0.9106 0.75803 0.0
H793 H 0.9345 0.89278 0.84559 0.0
C794 C 0.98509 0.80134 0.94141 0.0
C795 C 0.9676 0.79658 0.98425 0.0
C796 C 0.98809 0.82024 0.91103 0.0
C797 C 0.97351 0.83444 0.9226 0.0
C798 C 0.95479 0.82867 0.95751 0.0
C799 C 0.95191 0.80987 0.98871 0.0
C800 C 0.97945 0.85605 0.91008 0.0
C801 C 0.96914 0.86602 0.86019 0.0
C802 C 0.99557 0.86674 0.94776 0.0
C803 C 0.00553 0.85753 0.00607 0.0
C804 C 0.99365 0.85017 0.06377 0.0
C805 C 1.00299 0.84124 0.11816 0.0
C806 C 0.02429 0.83984 0.11601 0.0
C807 C 0.03628 0.84742 0.05946 0.0
C808 C 0.02698 0.85627 0.00467 0.0
C809 C 0.99096 0.95214 0.84542 0.0
C810 C 0.01021 0.95617 0.81118 0.0
C811 C 0.98543 0.93313 0.87261 0.0
C812 C 0.99903 0.91789 0.86564 0.0
C813 C 0.01897 0.9225 0.8375 0.0
C814 C 0.02454 0.94154 0.8103 0.0
C815 C 0.99181 0.8967 0.88086 0.0
C816 C 1.00183 0.88682 0.93167 0.0
C817 C 0.97517 0.88625 0.84493 0.0
C818 C 0.96411 0.89606 0.79058 0.0
C819 C 0.97471 0.90361 0.73061 0.0
C820 C 0.96437 0.91373 0.68139 0.0
C821 C 0.9434 0.9163 0.69137 0.0
C822 C 0.93268 0.90859 0.75033 0.0
C823 C 0.94295 0.89843 0.79968 0.0
H824 H 0.93545 0.92424 0.65341 0.0
H825 H 0.0315 0.83296 0.15827 0.0
H826 H 0.72173 0.04707 0.02393 0.0
H827 H 0.6983 0.05818 0.93821 0.0
H828 H 0.70119 1.00158 0.82306 0.0
H829 H 0.72484 0.99054 0.90809 0.0
H830 H 0.69223 0.05809 0.77877 0.0
H831 H 0.65195 0.98148 0.84329 0.0
H832 H 0.65159 0.95579 0.93377 0.0
H833 H 0.66655 1.00243 0.08906 0.0
H834 H 0.6668 0.02836 0.99959 0.0
H835 H 0.59735 0.0312 0.59273 0.0
H836 H 0.63195 0.03508 0.64123 0.0
H837 H 0.60554 0.04931 0.84406 0.0
H838 H 0.57101 0.04547 0.79599 0.0
H839 H 0.6278 0.01628 0.84251 0.0
H840 H 0.63464 0.08365 0.76245 0.0
H841 H 0.63537 0.1113 0.67964 0.0
H842 H 0.68626 0.08757 0.56659 0.0
H843 H 0.68532 0.05926 0.64703 0.0
C844 C 0.71814 0.03747 0.97835 0.0
C845 C 0.72484 0.01793 0.97254 0.0
C846 C 0.70488 0.04385 0.92934 0.0
C847 C 0.69797 0.0306 0.87493 0.0
C848 C 0.7065 0.01201 0.86468 0.0
C849 C 0.71998 0.00573 0.91319 0.0
C850 C 0.67855 0.03385 0.84112 0.0
C851 C 0.67811 0.04891 0.79181 0.0
C852 C 0.66016 0.02221 0.86029 0.0
C853 C 0.65962 0.00678 0.91467 0.0
C854 C 0.65511 0.98622 0.89678 0.0
C855 C 0.65495 0.97163 0.94786 0.0
C856 C 0.65915 0.97747 0.01705 0.0
C857 C 0.66342 0.99792 0.03538 0.0
C858 C 0.66361 0.01256 0.9845 0.0
C859 C 0.59902 0.03571 0.64723 0.0
C860 C 0.58157 0.03786 0.69095 0.0
C861 C 0.61877 0.03797 0.67476 0.0
C862 C 0.62123 0.04239 0.74623 0.0
C863 C 0.6039 0.04586 0.78877 0.0
C864 C 0.58421 0.04367 0.7613 0.0
C865 C 0.64124 0.04048 0.77878 0.0
C866 C 0.64182 0.02549 0.82836 0.0
C867 C 0.65956 0.05246 0.76026 0.0
C868 C 0.65969 0.0691 0.7103 0.0
C869 C 0.64573 0.08406 0.71914 0.0
C870 C 0.64619 0.09988 0.67262 0.0
C871 C 0.66075 0.1011 0.61754 0.0
C872 C 0.67487 0.0865 0.60891 0.0
C873 C 0.67434 0.07052 0.65483 0.0
H874 H 0.66115 0.11342 0.58179 0.0
H875 H 0.65904 0.96617 0.05649 0.0
H876 H 0.50928 0.7169 0.91206 0.0
H877 H 0.49958 0.68821 0.83233 0.0
H878 H 0.45194 0.6665 0.97994 0.0
H879 H 0.46107 0.69538 0.0576 0.0
H880 H 0.50545 0.65221 0.86122 0.0
H881 H 0.41617 0.63431 0.9127 0.0
H882 H 0.38493 0.65282 0.91741 0.0
H883 H 0.41604 0.69963 0.79408 0.0
H884 H 0.44737 0.68128 0.78768 0.0
H885 H 0.48731 0.54865 0.84329 0.0
H886 H 0.48518 0.58351 0.88673 0.0
H887 H 0.44698 0.59467 0.71431 0.0
H888 H 0.44799 0.55957 0.67358 0.0
H889 H 0.43642 0.61706 0.81675 0.0
H890 H 0.50057 0.60561 0.70592 0.0
H891 H 0.53211 0.58819 0.68269 0.0
H892 H 0.55207 0.60359 0.89066 0.0
H893 H 0.5205 0.62086 0.91546 0.0
C894 C 0.49614 0.70647 0.9257 0.0
C895 C 0.48601 0.70817 0.99102 0.0
C896 C 0.49072 0.68999 0.88054 0.0
C897 C 0.47509 0.67508 0.90016 0.0
C898 C 0.46383 0.67786 0.9628 0.0
C899 C 0.46914 0.69432 0.00752 0.0
C900 C 0.4727 0.65518 0.86226 0.0
C901 C 0.49034 0.64467 0.85066 0.0
C902 C 0.45309 0.64539 0.84667 0.0
C903 C 0.43419 0.65644 0.8501 0.0
C904 C 0.41633 0.64849 0.88622 0.0
C905 C 0.3986 0.65898 0.88928 0.0
C906 C 0.39851 0.67741 0.8562 0.0
C907 C 0.41615 0.68538 0.81989 0.0
C908 C 0.43391 0.67496 0.81665 0.0
C909 C 0.47788 0.55838 0.81625 0.0
C910 C 0.46795 0.55153 0.75496 0.0
C911 C 0.47687 0.57835 0.84047 0.0
C912 C 0.46655 0.59192 0.80224 0.0
C913 C 0.4552 0.58457 0.74433 0.0
C914 C 0.45576 0.56447 0.72118 0.0
C915 C 0.46905 0.61397 0.81916 0.0
C916 C 0.45149 0.62479 0.82646 0.0
C917 C 0.48882 0.62436 0.82782 0.0
C918 C 0.5081 0.61443 0.81266 0.0
C919 C 0.51166 0.60523 0.74676 0.0
C920 C 0.52954 0.59538 0.73333 0.0
C921 C 0.54407 0.59476 0.78521 0.0
C922 C 0.5408 0.60408 0.85054 0.0
C923 C 0.52293 0.61393 0.86428 0.0
H924 H 0.55788 0.58708 0.77478 0.0
H925 H 0.38477 0.6855 0.85863 0.0
H926 H 0.8034 0.56775 0.02587 0.0
H927 H 0.83562 0.56666 0.95729 0.0
H928 H 0.81374 0.5084 0.86963 0.0
H929 H 0.78133 0.50971 0.93655 0.0
H930 H 0.84867 0.51803 0.99362 0.0
H931 H 0.82692 0.52637 0.7564 0.0
H932 H 0.8127 0.54447 0.66116 0.0
H933 H 0.85923 0.59379 0.69019 0.0
H934 H 0.87356 0.57607 0.78634 0.0
H935 H 0.93416 0.47494 0.82049 0.0
H936 H 0.90095 0.48541 0.86524 0.0
H937 H 0.9252 0.54795 0.8597 0.0
H938 H 0.9585 0.53757 0.81682 0.0
H939 H 0.88961 0.53896 0.78193 0.0
H940 H 0.91365 0.53005 0.00898 0.0
H941 H 0.92831 0.51345 0.10674 0.0
H942 H 0.87791 0.46717 0.10307 0.0
H943 H 0.86315 0.48324 0.00414 0.0
C944 C 0.80489 0.55547 0.98795 0.0
C945 C 0.79003 0.53881 0.9862 0.0
C946 C 0.82332 0.55479 0.94913 0.0
C947 C 0.82698 0.53743 0.90875 0.0
C948 C 0.81101 0.52204 0.89977 0.0
C949 C 0.79246 0.52285 0.93774 0.0
C950 C 0.84843 0.53271 0.89517 0.0
C951 C 0.85761 0.52232 0.9469 0.0
C952 C 0.86008 0.53911 0.83558 0.0
C953 C 0.85107 0.55005 0.77942 0.0
C954 C 0.8339 0.54123 0.74335 0.0
C955 C 0.82589 0.55137 0.6889 0.0
C956 C 0.83499 0.57031 0.66983 0.0
C957 C 0.85215 0.57914 0.70515 0.0
C958 C 0.86022 0.56905 0.7596 0.0
C959 C 0.9326 0.49085 0.83136 0.0
C960 C 0.94884 0.50544 0.81551 0.0
C961 C 0.91364 0.49682 0.85655 0.0
C962 C 0.91068 0.51745 0.86521 0.0
C963 C 0.92725 0.53197 0.85324 0.0
C964 C 0.94629 0.526 0.82935 0.0
C965 C 0.88978 0.52381 0.87975 0.0
C966 C 0.88072 0.53463 0.82869 0.0
C967 C 0.87822 0.51788 0.94029 0.0
C968 C 0.88742 0.50774 0.99834 0.0
C969 C 0.90585 0.51616 0.02818 0.0
C970 C 0.91414 0.50688 0.08403 0.0
C971 C 0.90408 0.48923 0.11097 0.0
C972 C 0.88572 0.48081 0.08202 0.0
C973 C 0.87738 0.49 0.02601 0.0
H974 H 0.91049 0.48212 0.1544 0.0
H975 H 0.82881 0.5781 0.62753 0.0
H976 H 1.00383 0.22974 0.85652 0.0
H977 H 0.01007 0.20232 0.77182 0.0
H978 H 0.04969 0.17762 0.91766 0.0
H979 H 0.04453 0.2056 0.99933 0.0
H980 H 0.06028 0.16453 0.80046 0.0
H981 H 0.99311 0.17007 0.91342 0.0
H982 H 0.96005 0.18439 0.93919 0.0
H983 H 0.94481 0.17779 0.72292 0.0
H984 H 0.97792 0.16347 0.69567 0.0
H985 H 0.02953 0.05802 0.7675 0.0
H986 H 0.03471 0.09336 0.80961 0.0
H987 H 0.00893 0.11282 0.62135 0.0
H988 H 1.00377 0.07776 0.57867 0.0
H989 H 0.99201 0.12949 0.74482 0.0
H990 H 0.05847 0.12068 0.63735 0.0
H991 H 0.09045 0.10374 0.61767 0.0
H992 H 0.1056 0.11465 0.83283 0.0
H993 H 0.07354 0.1314 0.85405 0.0
C994 C 0.01489 0.21915 0.86829 0.0
C995 C 0.02364 0.21966 0.93438 0.0
C996 C 0.01812 0.2032 0.82059 0.0
C997 C 0.02944 0.18721 0.8398 0.0
C998 C 0.04053 0.18942 0.90173 0.0
C999 C 0.03774 0.20558 0.9484 0.0
C1000 C 0.02746 0.16709 0.80221 0.0
C1001 C 0.0453 0.15693 0.78854 0.0
C1002 C 0.00794 0.15697 0.78584 0.0
C1003 C 0.98812 0.16581 0.80242 0.0
C1004 C 0.98276 0.17163 0.87132 0.0
C1005 C 0.964 0.1798 0.8862 0.0
C1006 C 0.95035 0.18204 0.83275 0.0
C1007 C 0.95542 0.17609 0.76427 0.0
C1008 C 0.97419 0.16795 0.74908 0.0
C1009 C 0.02499 0.06981 0.735 0.0
C1010 C 0.01621 0.06499 0.66973 0.0
C1011 C 0.02806 0.09 0.75899 0.0
C1012 C 0.02227 0.1057 0.71838 0.0
C1013 C 0.01347 0.10093 0.65345 0.0
C1014 C 0.01059 0.08084 0.62916 0.0
C1015 C 0.02471 0.12708 0.74439 0.0
C1016 C 0.00695 0.13732 0.75604 0.0
C1017 C 0.04417 0.13707 0.76017 0.0
C1018 C 0.06352 0.12715 0.7474 0.0
C1019 C 0.06854 0.11933 0.6806 0.0
C1020 C 0.0867 0.10978 0.66914 0.0
C1021 C 0.10003 0.10808 0.724 0.0
C1022 C 0.09525 0.11596 0.7904 0.0
C1023 C 0.0771 0.1255 0.80215 0.0
H1024 H 0.11408 0.10068 0.71503 0.0
H1025 H 0.93582 0.18836 0.84441 0.0
H1026 H 0.32272 0.03825 0.03205 0.0
H1027 H 0.35254 0.0413 0.9525 0.0
H1028 H 0.32247 0.99636 0.81318 0.0
H1029 H 0.29269 0.99268 0.89529 0.0
H1030 H 0.35911 0.98666 0.83097 0.0
H1031 H 0.3345 0.04788 0.76713 0.0
H1032 H 0.32011 0.08093 0.78132 0.0
H1033 H 0.37373 0.10494 0.89158 0.0
H1034 H 0.38834 0.07195 0.87895 0.0
H1035 H 0.45014 0.01538 0.59699 0.0
H1036 H 0.4141 0.01467 0.63954 0.0
H1037 H 0.43466 0.02306 0.85086 0.0
H1038 H 0.47061 0.02248 0.80918 0.0
H1039 H 0.40041 0.05069 0.77365 0.0
H1040 H 0.42079 0.98443 0.84645 0.0
H1041 H 0.43419 0.95146 0.81844 0.0
H1042 H 0.38561 0.93707 0.67371 0.0
H1043 H 0.3724 0.97035 0.69897 0.0
C1044 C 0.32221 0.0294 0.98352 0.0
C1045 C 0.30534 0.01522 0.96996 0.0
C1046 C 0.3393 0.03122 0.93766 0.0
C1047 C 0.3399 0.01917 0.8761 0.0
C1048 C 0.32248 0.00584 0.86023 0.0
C1049 C 0.30533 0.00392 0.90668 0.0
C1050 C 0.3595 0.01922 0.83303 0.0
C1051 C 0.36787 1.00071 0.81737 0.0
C1052 C 0.37116 0.03745 0.81457 0.0
C1053 C 0.36247 0.05737 0.82242 0.0
C1054 C 0.34317 0.06016 0.79485 0.0
C1055 C 0.33498 0.0789 0.80254 0.0
C1056 C 0.34598 0.09501 0.83742 0.0
C1057 C 0.36522 0.09244 0.86457 0.0
C1058 C 0.37348 0.07373 0.85705 0.0
C1059 C 0.44696 0.01674 0.65261 0.0
C1060 C 0.4632 0.01855 0.69989 0.0
C1061 C 0.42638 0.01647 0.67673 0.0
C1062 C 0.42173 0.0186 0.74838 0.0
C1063 C 0.43794 0.0212 0.7954 0.0
C1064 C 0.45846 0.02089 0.77152 0.0
C1065 C 0.40001 0.01831 0.77469 0.0
C1066 C 0.39135 0.03674 0.78668 0.0
C1067 C 0.38792 1.00005 0.78834 0.0
C1068 C 0.39589 0.98007 0.77343 0.0
C1069 C 0.41322 0.97443 0.80759 0.0
C1070 C 0.42074 0.95565 0.79239 0.0
C1071 C 0.41084 0.94223 0.74398 0.0
C1072 C 0.39333 0.94752 0.71097 0.0
C1073 C 0.38587 0.96638 0.7255 0.0
H1074 H 0.41666 0.92769 0.73234 0.0
H1075 H 0.33961 0.10951 0.84333 0.0
H1076 H 0.52776 0.29005 0.87145 0.0
H1077 H 0.5213 0.31856 0.79989 0.0
H1078 H 0.4669 0.32828 0.92591 0.0
H1079 H 0.47344 0.29968 0.9977 0.0
H1080 H 0.46288 0.33875 0.78549 0.0
H1081 H 0.50851 0.35315 0.97213 0.0
H1082 H 0.53783 0.34918 0.04717 0.0
H1083 H 0.58002 0.36063 0.87364 0.0
H1084 H 0.55086 0.36429 0.79707 0.0
H1085 H 0.47053 0.44789 0.73745 0.0
H1086 H 0.46844 0.4146 0.79101 0.0
H1087 H 0.51738 0.3968 0.65231 0.0
H1088 H 0.51925 0.42969 0.59753 0.0
H1089 H 0.52224 0.39086 0.80291 0.0
H1090 H 0.47323 0.37709 0.61796 0.0
H1091 H 0.44229 0.38329 0.55358 0.0
H1092 H 0.40464 0.37364 0.73927 0.0
H1093 H 0.43543 0.36767 0.80504 0.0
C1094 C 0.51379 0.29754 0.88134 0.0
C1095 C 0.50088 0.29241 0.93926 0.0
C1096 C 0.51027 0.31405 0.84115 0.0
C1097 C 0.49383 0.32582 0.85832 0.0
C1098 C 0.47968 0.31945 0.91164 0.0
C1099 C 0.48327 0.30293 0.95214 0.0
C1100 C 0.49311 0.34601 0.82695 0.0
C1101 C 0.47579 0.35019 0.78977 0.0
C1102 C 0.50984 0.36111 0.83307 0.0
C1103 C 0.52746 0.35871 0.87859 0.0
C1104 C 0.52402 0.35459 0.94972 0.0
C1105 C 0.54062 0.35246 0.99261 0.0
C1106 C 0.56079 0.3546 0.96516 0.0
C1107 C 0.56439 0.35892 0.89478 0.0
C1108 C 0.54782 0.36102 0.85158 0.0
C1109 C 0.48074 0.43683 0.71806 0.0
C1110 C 0.49502 0.44146 0.66306 0.0
C1111 C 0.47949 0.41781 0.74859 0.0
C1112 C 0.49273 0.40321 0.72552 0.0
C1113 C 0.50699 0.40782 0.67081 0.0
C1114 C 0.50797 0.42663 0.6394 0.0
C1115 C 0.49231 0.38337 0.75979 0.0
C1116 C 0.5094 0.37936 0.79822 0.0
C1117 C 0.47517 0.3687 0.75619 0.0
C1118 C 0.45666 0.37216 0.71659 0.0
C1119 C 0.45838 0.37648 0.64523 0.0
C1120 C 0.44087 0.37991 0.60845 0.0
C1121 C 0.42152 0.37892 0.64236 0.0
C1122 C 0.41964 0.37443 0.71309 0.0
C1123 C 0.43712 0.37101 0.75013 0.0
H1124 H 0.40797 0.38158 0.61379 0.0
H1125 H 0.57364 0.35297 0.99844 0.0
H1126 H 0.22008 0.47123 0.89863 0.0
H1127 H 0.18954 0.46579 0.82591 0.0
H1128 H 0.18925 0.53029 0.80634 0.0
H1129 H 0.21993 0.53558 0.87697 0.0
H1130 H 0.15364 0.47709 0.86827 0.0
H1131 H 0.16094 0.54166 0.66614 0.0
H1132 H 0.1871 0.55822 0.58633 0.0
H1133 H 0.22187 0.50621 0.58703 0.0
H1134 H 0.19573 0.48915 0.66573 0.0
H1135 H 0.05479 0.50657 0.77817 0.0
H1136 H 0.09007 0.50478 0.81794 0.0
H1137 H 0.10831 0.48253 0.6135 0.0
H1138 H 0.07352 0.48484 0.57321 0.0
H1139 H 0.13581 0.51028 0.6532 0.0
H1140 H 0.1019 0.45173 0.76022 0.0
H1141 H 0.07582 0.43244 0.83339 0.0
H1142 H 0.0952 0.46844 0.01366 0.0
H1143 H 0.12116 0.48817 0.94133 0.0
C1144 C 0.21421 0.48412 0.87522 0.0
C1145 C 0.22262 0.5038 0.89241 0.0
C1146 C 0.19651 0.48105 0.83463 0.0
C1147 C 0.18687 0.49762 0.8108 0.0
C1148 C 0.19638 0.51719 0.82307 0.0
C1149 C 0.21408 0.52023 0.86311 0.0
C1150 C 0.16567 0.49483 0.7817 0.0
C1151 C 0.14984 0.48434 0.82112 0.0
C1152 C 0.1605 0.50399 0.71956 0.0
C1153 C 0.17646 0.51421 0.67269 0.0
C1154 C 0.17414 0.53372 0.64922 0.0
C1155 C 0.18896 0.5432 0.60409 0.0
C1156 C 0.20618 0.53331 0.58187 0.0
C1157 C 0.20857 0.5139 0.60458 0.0
C1158 C 0.19377 0.50433 0.64957 0.0
C1159 C 0.06628 0.50113 0.74197 0.0
C1160 C 0.06128 0.49596 0.67241 0.0
C1161 C 0.08648 0.50005 0.76478 0.0
C1162 C 0.10198 0.49344 0.71885 0.0
C1163 C 0.09678 0.4878 0.65 0.0
C1164 C 0.07678 0.48911 0.62704 0.0
C1165 C 0.1238 0.49311 0.74108 0.0
C1166 C 0.1397 0.50306 0.70041 0.0
C1167 C 0.12908 0.4833 0.8017 0.0
C1168 C 0.11337 0.47154 0.8452 0.0
C1169 C 0.10048 0.45565 0.81534 0.0
C1170 C 0.08573 0.44462 0.85669 0.0
C1171 C 0.08382 0.44924 0.92809 0.0
C1172 C 0.09668 0.46489 0.95833 0.0
C1173 C 0.11142 0.47599 0.91719 0.0
H1174 H 0.0724 0.44067 0.96002 0.0
H1175 H 0.21764 0.54067 0.54691 0.0
H1176 H 0.01525 0.78898 0.21232 0.0
H1177 H 0.02312 0.81746 0.29459 0.0
H1178 H 0.95803 0.82096 0.33662 0.0
H1179 H 0.95027 0.79246 0.25502 0.0
H1180 H 0.01184 0.85326 0.26396 0.0
H1181 H 0.95002 0.84701 0.4899 0.0
H1182 H 0.93339 0.82107 0.56726 0.0
H1183 H 0.98536 0.78585 0.53739 0.0
H1184 H 1.00245 0.81171 0.46072 0.0
H1185 H 0.98819 0.95093 0.38932 0.0
H1186 H 0.98711 0.91615 0.34208 0.0
H1187 H 0.01219 0.89714 0.53264 0.0
H1188 H 0.01252 0.93154 0.58087 0.0
H1189 H 0.9833 0.87103 0.49804 0.0
H1190 H 0.04105 0.90416 0.36708 0.0
H1191 H 0.05928 0.92834 0.28614 0.0
H1192 H 0.01725 0.90846 0.12478 0.0
H1193 H 0.99873 0.88427 0.20434 0.0
C1194 C 1.00273 0.79509 0.24233 0.0
C1195 C 0.98218 0.78838 0.22834 0.0
C1196 C 0.00721 0.81154 0.2886 0.0
C1197 C 0.99118 0.82144 0.32172 0.0
C1198 C 0.97069 0.81346 0.31264 0.0
C1199 C 0.96624 0.79708 0.26629 0.0
C1200 C 0.99545 0.84183 0.35546 0.0
C1201 C 0.00567 0.85712 0.31529 0.0
C1202 C 0.98758 0.84688 0.42269 0.0
C1203 C 0.97744 0.83126 0.46902 0.0
C1204 C 0.95795 0.83378 0.50005 0.0
C1205 C 0.94843 0.81907 0.54376 0.0
C1206 C 0.95828 0.8018 0.55707 0.0
C1207 C 0.9777 0.79921 0.52682 0.0
C1208 C 0.9873 0.81387 0.48311 0.0
C1209 C 0.99349 0.93932 0.42105 0.0
C1210 C 1.00038 0.94404 0.48892 0.0
C1211 C 0.99303 0.91944 0.39378 0.0
C1212 C 0.99989 0.90395 0.43323 0.0
C1213 C 0.00681 0.90872 0.50096 0.0
C1214 C 0.00699 0.92847 0.52853 0.0
C1215 C 0.99921 0.88265 0.40549 0.0
C1216 C 0.98957 0.86719 0.44675 0.0
C1217 C 0.00758 0.87742 0.33889 0.0
C1218 C 0.01834 0.89257 0.29208 0.0
C1219 C 0.03554 0.90512 0.31464 0.0
C1220 C 0.04595 0.9188 0.26898 0.0
C1221 C 0.03932 0.92005 0.20074 0.0
C1222 C 0.02232 0.90757 0.17777 0.0
C1223 C 0.01187 0.89385 0.22307 0.0
H1224 H 0.04744 0.93062 0.16555 0.0
H1225 H 0.95089 0.79043 0.59093 0.0
H1226 H 0.70421 0.02608 0.2178 0.0
H1227 H 0.67301 0.02127 0.29041 0.0
H1228 H 0.67975 0.95724 0.29391 0.0
H1229 H 0.71064 0.96196 0.21746 0.0
H1230 H 0.64247 0.96186 0.26381 0.0
H1231 H 0.68479 0.99057 0.44708 0.0
H1232 H 0.7101 0.01512 0.50422 0.0
H1233 H 0.67061 0.0626 0.4769 0.0
H1234 H 0.64513 0.03839 0.41986 0.0
H1235 H 0.56133 0.9827 0.56724 0.0
H1236 H 0.59704 0.98093 0.52494 0.0
H1237 H 0.5779 0.98681 0.31355 0.0
H1238 H 0.54218 0.98821 0.35564 0.0
H1239 H 0.62309 0.00642 0.46325 0.0
H1240 H 0.60852 0.963 0.19745 0.0
H1241 H 0.58368 0.93654 0.14779 0.0
H1242 H 0.56903 0.91427 0.35266 0.0
H1243 H 0.59403 0.94033 0.40344 0.0
C1244 C 0.69932 0.01101 0.23522 0.0
C1245 C 0.70991 0.99439 0.21153 0.0
C1246 C 0.68147 0.00827 0.27734 0.0
C1247 C 0.67392 0.98888 0.2985 0.0
C1248 C 0.68518 0.97237 0.27842 0.0
C1249 C 0.70302 0.9751 0.23546 0.0
C1250 C 0.65336 0.98582 0.3356 0.0
C1251 C 0.63833 0.9715 0.30782 0.0
C1252 C 0.64783 0.9981 0.3939 0.0
C1253 C 0.6631 0.01267 0.42887 0.0
C1254 C 0.68156 0.00626 0.45312 0.0
C1255 C 0.69591 0.02012 0.4857 0.0
C1256 C 0.69198 0.04041 0.49434 0.0
C1257 C 0.67364 0.04688 0.47063 0.0
C1258 C 0.6592 0.03308 0.43835 0.0
C1259 C 0.56476 0.98354 0.51172 0.0
C1260 C 0.54896 0.98557 0.4647 0.0
C1261 C 0.58519 0.98253 0.48755 0.0
C1262 C 0.59025 0.98344 0.41581 0.0
C1263 C 0.57443 0.98559 0.36893 0.0
C1264 C 0.554 0.98651 0.39306 0.0
C1265 C 0.61212 0.98289 0.39015 0.0
C1266 C 0.62733 0.99657 0.4199 0.0
C1267 C 0.61789 0.96972 0.33464 0.0
C1268 C 0.60302 0.95378 0.30434 0.0
C1269 C 0.60008 0.9524 0.23189 0.0
C1270 C 0.58596 0.93747 0.20354 0.0
C1271 C 0.57472 0.9238 0.24709 0.0
C1272 C 0.57768 0.92493 0.31902 0.0
C1273 C 0.59181 0.93979 0.34763 0.0
H1274 H 0.56373 0.91232 0.22513 0.0
H1275 H 0.70314 0.05113 0.51936 0.0
H1276 H 0.48673 0.71364 0.27905 0.0
H1277 H 0.49125 0.68456 0.35121 0.0
H1278 H 0.54987 0.67732 0.24701 0.0
H1279 H 0.54543 0.70652 0.17567 0.0
H1280 H 0.5217 0.64332 0.23531 0.0
H1281 H 0.54854 0.689 0.41686 0.0
H1282 H 0.5482 0.71801 0.5004 0.0
H1283 H 0.49289 0.69094 0.59901 0.0
H1284 H 0.49271 0.66192 0.51533 0.0
H1285 H 0.5394 0.55315 0.40408 0.0
H1286 H 0.54304 0.5872 0.35727 0.0
H1287 H 0.49347 0.60432 0.49528 0.0
H1288 H 0.49078 0.57083 0.54506 0.0
H1289 H 0.51924 0.63435 0.49113 0.0
H1290 H 0.48949 0.59073 0.31037 0.0
H1291 H 0.48695 0.56182 0.22597 0.0
H1292 H 0.54306 0.58516 0.12279 0.0
H1293 H 0.54624 0.61392 0.20767 0.0
C1294 C 0.50108 0.70652 0.27447 0.0
C1295 C 0.51598 0.71263 0.22311 0.0
C1296 C 0.50357 0.68975 0.31512 0.0
C1297 C 0.52088 0.67866 0.30438 0.0
C1298 C 0.53642 0.68564 0.25637 0.0
C1299 C 0.53403 0.70251 0.21636 0.0
C1300 C 0.52151 0.65851 0.33614 0.0
C1301 C 0.52155 0.64136 0.29129 0.0
C1302 C 0.52045 0.65588 0.4091 0.0
C1303 C 0.52051 0.67337 0.45933 0.0
C1304 C 0.53619 0.68932 0.4559 0.0
C1305 C 0.53611 0.70575 0.50339 0.0
C1306 C 0.5205 0.70634 0.55486 0.0
C1307 C 0.50495 0.69048 0.55905 0.0
C1308 C 0.50495 0.67403 0.51163 0.0
C1309 C 0.52934 0.56423 0.42446 0.0
C1310 C 0.51476 0.55925 0.47807 0.0
C1311 C 0.53132 0.58371 0.39737 0.0
C1312 C 0.51824 0.59843 0.42143 0.0
C1313 C 0.50381 0.59342 0.47554 0.0
C1314 C 0.50222 0.57417 0.50388 0.0
C1315 C 0.51936 0.61895 0.39029 0.0
C1316 C 0.51954 0.63621 0.43511 0.0
C1317 C 0.5201 0.62167 0.31708 0.0
C1318 C 0.51821 0.60437 0.26593 0.0
C1319 C 0.50136 0.58961 0.27003 0.0
C1320 C 0.4998 0.57326 0.22208 0.0
C1321 C 0.51482 0.57166 0.16908 0.0
C1322 C 0.53145 0.5864 0.16395 0.0
C1323 C 0.53316 0.60271 0.21204 0.0
H1324 H 0.51356 0.55901 0.13194 0.0
H1325 H 0.52047 0.71907 0.5916 0.0
H1326 H 0.77782 0.53032 0.3071 0.0
H1327 H 0.80617 0.52504 0.38468 0.0
H1328 H 0.83477 0.4905 0.21956 0.0
H1329 H 0.80576 0.49403 0.14621 0.0
H1330 H 0.84607 0.47657 0.32333 0.0
H1331 H 0.84508 0.54691 0.26421 0.0
H1332 H 0.83068 0.58002 0.26137 0.0
H1333 H 0.82746 0.58318 0.48549 0.0
H1334 H 0.84163 0.54997 0.4896 0.0
H1335 H 0.95307 0.50129 0.38324 0.0
H1336 H 0.91844 0.50147 0.33658 0.0
H1337 H 0.89423 0.51583 0.54217 0.0
H1338 H 0.92871 0.51553 0.58941 0.0
H1339 H 0.87937 0.53905 0.43467 0.0
H1340 H 0.88661 0.46879 0.48255 0.0
H1341 H 0.90437 0.43747 0.47272 0.0
H1342 H 0.89949 0.43669 0.24975 0.0
H1343 H 0.88192 0.46815 0.25821 0.0
C1344 C 0.78973 0.52086 0.28894 0.0
C1345 C 0.78963 0.51274 0.22035 0.0
C1346 C 0.80627 0.51822 0.33263 0.0
C1347 C 0.82334 0.50808 0.30752 0.0
C1348 C 0.82214 0.49855 0.24104 0.0
C1349 C 0.80543 0.50057 0.19873 0.0
C1350 C 0.84303 0.50821 0.34696 0.0
C1351 C 0.85328 0.49038 0.34694 0.0
C1352 C 0.85271 0.52598 0.37951 0.0
C1353 C 0.84414 0.54587 0.37716 0.0
C1354 C 0.84117 0.55462 0.31284 0.0
C1355 C 0.83307 0.5734 0.31102 0.0
C1356 C 0.82809 0.58366 0.37321 0.0
C1357 C 0.83127 0.57519 0.43737 0.0
C1358 C 0.83932 0.55639 0.43948 0.0
C1359 C 0.94043 0.50462 0.41854 0.0
C1360 C 0.94375 0.50832 0.49022 0.0
C1361 C 0.92059 0.50463 0.3918 0.0
C1362 C 0.90365 0.50849 0.43595 0.0
C1363 C 0.90701 0.51276 0.50709 0.0
C1364 C 0.92678 0.51251 0.53402 0.0
C1365 C 0.8824 0.50772 0.40813 0.0
C1366 C 0.87193 0.52534 0.41102 0.0
C1367 C 0.87284 0.48999 0.37594 0.0
C1368 C 0.88307 0.47088 0.37103 0.0
C1369 C 0.88942 0.46199 0.43142 0.0
C1370 C 0.89944 0.44421 0.42609 0.0
C1371 C 0.90308 0.43511 0.36066 0.0
C1372 C 0.89666 0.44375 0.30041 0.0
C1373 C 0.88664 0.46154 0.30545 0.0
H1374 H 0.91086 0.42135 0.35664 0.0
H1375 H 0.82184 0.5982 0.37169 0.0
loop_
_geom_bond_atom_site_label_1
_geom_bond_atom_site_label_2
_geom_bond_distance
_geom_bond_site_symmetry_2
_ccdc_geom_bond_type
H0 C5 0.930 . S
H1 C8 0.930 1_556 S
H2 C10 0.930 . S
H3 C4 1.016 1_556 S
C4 H3 1.016 1_554 S
C4 N11 1.286 . S
C5 H0 0.930 . S
C5 C6 1.397 . S
C5 C7 1.361 . S
C6 C5 1.397 . S
C6 C10 1.390 . S
C7 C5 1.361 . S
C7 C8 1.393 . S
C7 N11 1.413 . S
C8 H1 0.930 1_554 S
C8 C7 1.393 . S
C8 C9 1.399 . S
C9 C8 1.399 . S
C9 C10 1.381 . S
C10 H2 0.930 . S
C10 C6 1.390 . S
C10 C9 1.381 . S
N11 C4 1.286 . S
N11 C7 1.413 . S
H12 C17 0.930 . S
H13 C20 0.930 . S
H14 C22 0.930 . S
H15 C16 1.032 . S
C16 H15 1.032 . S
C16 N23 1.269 1_656 S
C17 H12 0.930 . S
C17 C18 1.411 . S
C17 C19 1.361 . S
C18 C17 1.411 . S
C18 C22 1.381 1_455 S
C19 C17 1.361 . S
C19 C20 1.393 1_554 S
C19 N23 1.413 . S
C20 H13 0.930 . S
C20 C19 1.393 1_556 S
C20 C21 1.403 . S
C21 C20 1.403 . S
C21 C22 1.379 1_456 S
C22 H14 0.930 . S
C22 C18 1.381 1_655 S
C22 C21 1.379 1_654 S
N23 C16 1.269 1_454 S
N23 C19 1.413 . S
H24 C29 0.930 . S
H25 C32 0.930 . S
H26 C34 0.930 . S
H27 C28 1.016 . S
C28 H27 1.016 . S
C28 N35 1.286 1_556 S
C29 H24 0.930 . S
C29 C30 1.397 . S
C29 C31 1.361 . S
C30 C29 1.397 . S
C30 C34 1.390 . S
C31 C29 1.361 . S
C31 C32 1.393 1_554 S
C31 N35 1.413 . S
C32 H25 0.930 . S
C32 C31 1.393 1_556 S
C32 C33 1.399 . S
C33 C32 1.399 . S
C33 C34 1.381 1_556 S
C34 H26 0.930 . S
C34 C30 1.390 . S
C34 C33 1.381 1_554 S
N35 C28 1.286 1_554 S
N35 C31 1.413 . S
H36 C41 0.930 . S
H37 C44 0.930 . S
H38 C46 0.930 . S
H39 C40 1.016 . S
C40 H39 1.016 . S
C40 N47 1.286 . S
C41 H36 0.930 . S
C41 C42 1.397 . S
C41 C43 1.361 . S
C42 C41 1.397 . S
C42 C46 1.390 . S
C43 C41 1.361 . S
C43 C44 1.393 . S
C43 N47 1.413 . S
C44 H37 0.930 . S
C44 C43 1.393 . S
C44 C45 1.399 . S
C45 C44 1.399 . S
C45 C46 1.381 . S
C46 H38 0.930 . S
C46 C42 1.390 . S
C46 C45 1.381 . S
N47 C40 1.286 . S
N47 C43 1.413 . S
H48 C53 0.930 1_556 S
H49 C56 0.930 . S
H50 C58 0.930 . S
H51 C52 1.016 . S
C52 H51 1.016 . S
C52 N59 1.286 . S
C53 H48 0.930 1_554 S
C53 C54 1.397 . S
C53 C55 1.361 . S
C54 C53 1.397 . S
C54 C58 1.390 . S
C55 C53 1.361 . S
C55 C56 1.393 . S
C55 N59 1.413 . S
C56 H49 0.930 . S
C56 C55 1.393 . S
C56 C57 1.399 . S
C57 C56 1.399 . S
C57 C58 1.381 . S
C58 H50 0.930 . S
C58 C54 1.390 . S
C58 C57 1.381 . S
N59 C52 1.286 . S
N59 C55 1.413 . S
H60 C65 0.930 . S
H61 C68 0.930 . S
H62 C70 0.930 . S
H63 C64 1.023 . S
C64 H63 1.023 . S
C64 N71 1.273 1_655 S
C65 H60 0.930 . S
C65 C66 1.397 . S
C65 C67 1.361 . S
C66 C65 1.397 . S
C66 C70 1.390 1_455 S
C67 C65 1.361 . S
C67 C68 1.393 . S
C67 N71 1.413 . S
C68 H61 0.930 . S
C68 C67 1.393 . S
C68 C69 1.401 . S
C69 C68 1.401 . S
C69 C70 1.378 1_455 S
C70 H62 0.930 . S
C70 C66 1.390 1_655 S
C70 C69 1.378 1_655 S
N71 C64 1.273 1_455 S
N71 C67 1.413 . S
H72 C77 0.930 . S
H73 C80 0.930 . S
H74 C82 0.930 . S
H75 C76 1.016 . S
C76 H75 1.016 . S
C76 N83 1.286 . S
C77 H72 0.930 . S
C77 C78 1.397 . S
C77 C79 1.361 . S
C78 C77 1.397 . S
C78 C82 1.390 . S
C79 C77 1.361 . S
C79 C80 1.393 . S
C79 N83 1.413 . S
C80 H73 0.930 . S
C80 C79 1.393 . S
C80 C81 1.399 . S
C81 C80 1.399 . S
C81 C82 1.381 . S
C82 H74 0.930 . S
C82 C78 1.390 . S
C82 C81 1.381 . S
N83 C76 1.286 . S
N83 C79 1.413 . S
H84 C89 0.930 . S
H85 C92 0.930 . S
H86 C94 0.930 . S
H87 C88 1.016 . S
C88 H87 1.016 . S
C88 N95 1.286 . S
C89 H84 0.930 . S
C89 C90 1.397 . S
C89 C91 1.361 1_556 S
C90 C89 1.397 . S
C90 C94 1.390 1_556 S
C91 C89 1.361 1_554 S
C91 C92 1.393 . S
C91 N95 1.413 . S
C92 H85 0.930 . S
C92 C91 1.393 . S
C92 C93 1.399 . S
C93 C92 1.399 . S
C93 C94 1.381 . S
C94 H86 0.930 . S
C94 C90 1.390 1_554 S
C94 C93 1.381 . S
N95 C88 1.286 . S
N95 C91 1.413 . S
Dy96 O100 2.398 . S
Dy96 O101 2.491 1_455 S
Dy96 O102 2.403 . S
Dy96 O103 2.664 1_565 S
Dy96 O107 2.326 . S
Dy96 O111 2.310 1_455 S
Dy96 O112 2.351 1_565 S
C97 O108 1.185 . S
C97 O109 1.355 1_655 S
C98 O100 1.185 . S
C98 O101 1.355 1_455 S
Dy99 O103 2.310 1_655 S
Dy99 O106 2.351 1_545 S
Dy99 O108 2.398 . S
Dy99 O109 2.491 1_655 S
Dy99 O110 2.403 . S
Dy99 O111 2.664 1_545 S
Dy99 O113 2.326 . S
O100 Dy96 2.398 . S
O100 C98 1.185 . S
O101 Dy96 2.491 1_655 S
O101 C98 1.355 1_655 S
O102 Dy96 2.403 . S
O102 C104 1.254 1_565 S
O103 Dy96 2.664 1_545 S
O103 Dy99 2.310 1_455 S
O103 C104 1.268 . S
C104 O102 1.254 1_545 S
C104 O103 1.268 . S
C105 O110 1.254 1_565 S
C105 O111 1.268 . S
O106 Dy99 2.351 1_565 S
O106 C114 1.249 . S
O107 Dy96 2.326 . S
O107 C114 1.267 1_455 S
O108 C97 1.185 . S
O108 Dy99 2.398 . S
O109 C97 1.355 1_455 S
O109 Dy99 2.491 1_455 S
O110 Dy99 2.403 . S
O110 C105 1.254 1_545 S
O111 Dy96 2.310 1_655 S
O111 Dy99 2.664 1_565 S
O111 C105 1.268 . S
O112 Dy96 2.351 1_545 S
O112 C115 1.249 . S
O113 Dy99 2.326 . S
O113 C115 1.267 1_655 S
C114 O106 1.249 . S
C114 O107 1.267 1_655 S
C115 O112 1.249 . S
C115 O113 1.267 1_455 S
Dy116 O120 2.398 . S
Dy116 O121 2.491 1_565 S
Dy116 O122 2.403 . S
Dy116 O123 2.664 . S
Dy116 O127 2.326 1_565 S
Dy116 O131 2.310 1_565 S
Dy116 O132 2.351 . S
C117 O128 1.186 1_565 S
C117 O129 1.355 . S
C118 O120 1.185 1_545 S
C118 O121 1.355 . S
Dy119 O123 2.310 1_545 S
Dy119 O126 2.351 . S
Dy119 O128 2.398 . S
Dy119 O129 2.491 1_545 S
Dy119 O130 2.403 . S
Dy119 O131 2.664 . S
Dy119 O133 2.326 1_545 S
O120 Dy116 2.398 . S
O120 C118 1.185 1_565 S
O121 Dy116 2.491 1_545 S
O121 C118 1.355 . S
O122 Dy116 2.403 . S
O122 C124 1.254 . S
O123 Dy116 2.664 . S
O123 Dy119 2.310 1_565 S
O123 C124 1.268 . S
C124 O122 1.254 . S
C124 O123 1.268 . S
C125 O130 1.254 . S
C125 O131 1.268 . S
O126 Dy119 2.351 . S
O126 C134 1.249 . S
O127 Dy116 2.326 1_545 S
O127 C134 1.267 . S
O128 C117 1.186 1_545 S
O128 Dy119 2.398 . S
O129 C117 1.355 . S
O129 Dy119 2.491 1_565 S
O130 Dy119 2.403 . S
O130 C125 1.254 . S
O131 Dy116 2.310 1_545 S
O131 Dy119 2.664 . S
O131 C125 1.268 . S
O132 Dy116 2.351 . S
O132 C135 1.249 . S
O133 Dy119 2.326 1_565 S
O133 C135 1.267 . S
C134 O126 1.249 . S
C134 O127 1.267 . S
C135 O132 1.249 . S
C135 O133 1.267 . S
Dy136 O140 2.398 . S
Dy136 O141 2.491 . S
Dy136 O142 2.403 . S
Dy136 O143 2.664 . S
Dy136 O147 2.326 . S
Dy136 O151 2.310 . S
Dy136 O152 2.351 . S
C137 O148 1.185 . S
C137 O149 1.355 . S
C138 O140 1.185 . S
C138 O141 1.355 . S
Dy139 O143 2.310 . S
Dy139 O146 2.351 . S
Dy139 O148 2.398 . S
Dy139 O149 2.491 . S
Dy139 O150 2.403 . S
Dy139 O151 2.664 . S
Dy139 O153 2.326 . S
O140 Dy136 2.398 . S
O140 C138 1.185 . S
O141 Dy136 2.491 . S
O141 C138 1.355 . S
O142 Dy136 2.403 . S
O142 C144 1.254 . S
O143 Dy136 2.664 . S
O143 Dy139 2.310 . S
O143 C144 1.268 . S
C144 O142 1.254 . S
C144 O143 1.268 . S
C145 O150 1.254 . S
C145 O151 1.268 . S
O146 Dy139 2.351 . S
O146 C154 1.249 . S
O147 Dy136 2.326 . S
O147 C154 1.267 . S
O148 C137 1.185 . S
O148 Dy139 2.398 . S
O149 C137 1.355 . S
O149 Dy139 2.491 . S
O150 Dy139 2.403 . S
O150 C145 1.254 . S
O151 Dy136 2.310 . S
O151 Dy139 2.664 . S
O151 C145 1.268 . S
O152 Dy136 2.351 . S
O152 C155 1.249 . S
O153 Dy139 2.326 . S
O153 C155 1.267 . S
C154 O146 1.249 . S
C154 O147 1.267 . S
C155 O152 1.249 . S
C155 O153 1.267 . S
Dy156 O160 2.398 . S
Dy156 O161 2.491 . S
Dy156 O162 2.403 . S
Dy156 O163 2.664 1_655 S
Dy156 O167 2.326 . S
Dy156 O171 2.310 . S
Dy156 O172 2.351 1_655 S
C157 O168 1.185 . S
C157 O169 1.355 . S
C158 O160 1.185 . S
C158 O161 1.355 . S
Dy159 O163 2.310 . S
Dy159 O166 2.351 1_455 S
Dy159 O168 2.398 . S
Dy159 O169 2.491 . S
Dy159 O170 2.403 . S
Dy159 O171 2.664 1_455 S
Dy159 O173 2.326 . S
O160 Dy156 2.398 . S
O160 C158 1.185 . S
O161 Dy156 2.491 . S
O161 C158 1.355 . S
O162 Dy156 2.403 . S
O162 C164 1.254 . S
O163 Dy156 2.664 1_455 S
O163 Dy159 2.310 . S
O163 C164 1.268 1_455 S
C164 O162 1.254 . S
C164 O163 1.268 1_655 S
C165 O170 1.254 . S
C165 O171 1.268 1_455 S
O166 Dy159 2.351 1_655 S
O166 C174 1.249 . S
O167 Dy156 2.326 . S
O167 C174 1.267 . S
O168 C157 1.185 . S
O168 Dy159 2.398 . S
O169 C157 1.355 . S
O169 Dy159 2.491 . S
O170 Dy159 2.403 . S
O170 C165 1.254 . S
O171 Dy156 2.310 . S
O171 Dy159 2.664 1_655 S
O171 C165 1.268 1_655 S
O172 Dy156 2.351 1_455 S
O172 C175 1.249 . S
O173 Dy159 2.326 . S
O173 C175 1.267 . S
C174 O166 1.249 . S
C174 O167 1.267 . S
C175 O172 1.249 . S
C175 O173 1.267 . S
H176 C194 0.951 . S
H177 C196 0.951 . S
H178 C198 0.950 . S
H179 C199 0.950 . S
H180 C201 0.950 . S
H181 C204 0.950 . S
H182 C205 0.950 . S
H183 C207 0.950 . S
H184 C208 0.950 . S
H185 C209 0.951 . S
H186 C211 0.951 . S
H187 C213 0.950 . S
H188 C214 0.950 . S
H189 C216 0.950 . S
H190 C219 0.950 . S
H191 C220 0.950 . S
H192 C222 0.950 . S
H193 C223 0.950 1_545 S
C194 H176 0.951 . S
C194 C195 1.366 . S
C194 C196 1.388 . S
C195 C194 1.366 . S
C195 C199 1.385 . S
C196 H177 0.951 . S
C196 C194 1.388 . S
C196 C197 1.366 . S
C197 C196 1.366 . S
C197 C198 1.414 . S
C197 C200 1.499 . S
C198 H178 0.950 . S
C198 C197 1.414 . S
C198 C199 1.374 . S
C199 H179 0.950 . S
C199 C195 1.385 . S
C199 C198 1.374 . S
C200 C197 1.499 . S
C200 C201 1.373 . S
C200 C202 1.389 . S
C201 H180 0.950 . S
C201 C200 1.373 . S
C201 C217 1.377 . S
C202 C200 1.389 . S
C202 C203 1.524 . S
C202 C216 1.377 . S
C203 C202 1.524 . S
C203 C204 1.397 . S
C203 C208 1.363 . S
C204 H181 0.950 . S
C204 C203 1.397 . S
C204 C205 1.334 . S
C205 H182 0.950 . S
C205 C204 1.334 . S
C205 C206 1.287 . S
C206 C205 1.287 . S
C206 C207 1.524 . S
C206 H225 0.913 . S
C207 H183 0.950 . S
C207 C206 1.524 . S
C207 C208 1.415 . S
C208 H184 0.950 . S
C208 C203 1.363 . S
C208 C207 1.415 . S
C209 H185 0.951 . S
C209 C210 1.366 . S
C209 C211 1.388 . S
C210 C209 1.366 . S
C210 C214 1.385 . S
C211 H186 0.951 . S
C211 C209 1.388 . S
C211 C212 1.366 . S
C212 C211 1.366 . S
C212 C213 1.414 . S
C212 C215 1.499 . S
C213 H187 0.950 . S
C213 C212 1.414 . S
C213 C214 1.374 . S
C214 H188 0.950 . S
C214 C210 1.385 . S
C214 C213 1.374 . S
C215 C212 1.499 . S
C215 C216 1.373 . S
C215 C217 1.389 . S
C216 H189 0.950 . S
C216 C202 1.377 . S
C216 C215 1.373 . S
C217 C201 1.377 . S
C217 C215 1.389 . S
C217 C218 1.524 1_545 S
C218 C217 1.524 1_565 S
C218 C219 1.397 . S
C218 C223 1.363 . S
C219 H190 0.950 . S
C219 C218 1.397 . S
C219 C220 1.334 . S
C220 H191 0.950 . S
C220 C219 1.334 . S
C220 C221 1.287 . S
C221 C220 1.287 . S
C221 C222 1.524 . S
C221 H224 0.999 . S
C222 H192 0.950 . S
C222 C221 1.524 . S
C222 C223 1.415 . S
C223 H193 0.950 1_565 S
C223 C218 1.363 . S
C223 C222 1.415 . S
H224 C221 0.999 . S
H225 C206 0.913 . S
H226 C244 0.951 . S
H227 C246 0.951 . S
H228 C248 0.950 . S
H229 C249 0.950 . S
H230 C251 0.950 . S
H231 C254 0.950 . S
H232 C255 0.950 . S
H233 C257 0.950 . S
H234 C258 0.950 . S
H235 C259 0.951 . S
H236 C261 0.951 . S
H237 C263 0.950 . S
H238 C264 0.950 . S
H239 C266 0.950 . S
H240 C269 0.950 . S
H241 C270 0.950 . S
H242 C272 0.950 . S
H243 C273 0.950 . S
C244 H226 0.951 . S
C244 C245 1.366 . S
C244 C246 1.388 . S
C245 C244 1.366 . S
C245 C249 1.385 . S
C246 H227 0.951 . S
C246 C244 1.388 . S
C246 C247 1.366 . S
C247 C246 1.366 . S
C247 C248 1.414 . S
C247 C250 1.499 . S
C248 H228 0.950 . S
C248 C247 1.414 . S
C248 C249 1.374 . S
C249 H229 0.950 . S
C249 C245 1.385 . S
C249 C248 1.374 . S
C250 C247 1.499 . S
C250 C251 1.373 . S
C250 C252 1.389 . S
C251 H230 0.950 . S
C251 C250 1.373 . S
C251 C267 1.377 . S
C252 C250 1.389 . S
C252 C253 1.524 . S
C252 C266 1.377 . S
C253 C252 1.524 . S
C253 C254 1.397 . S
C253 C258 1.363 . S
C254 H231 0.950 . S
C254 C253 1.397 . S
C254 C255 1.334 . S
C255 H232 0.950 . S
C255 C254 1.334 . S
C255 C256 1.287 . S
C256 C255 1.287 . S
C256 C257 1.524 . S
C256 H275 0.913 1_554 S
C257 H233 0.950 . S
C257 C256 1.524 . S
C257 C258 1.415 . S
C258 H234 0.950 . S
C258 C253 1.363 . S
C258 C257 1.415 . S
C259 H235 0.951 . S
C259 C260 1.366 . S
C259 C261 1.388 . S
C260 C259 1.366 . S
C260 C264 1.385 . S
C261 H236 0.951 . S
C261 C259 1.388 . S
C261 C262 1.366 . S
C262 C261 1.366 . S
C262 C263 1.414 . S
C262 C265 1.499 . S
C263 H237 0.950 . S
C263 C262 1.414 . S
C263 C264 1.374 . S
C264 H238 0.950 . S
C264 C260 1.385 . S
C264 C263 1.374 . S
C265 C262 1.499 . S
C265 C266 1.373 . S
C265 C267 1.389 . S
C266 H239 0.950 . S
C266 C252 1.377 . S
C266 C265 1.373 . S
C267 C251 1.377 . S
C267 C265 1.389 . S
C267 C268 1.524 . S
C268 C267 1.524 . S
C268 C269 1.397 . S
C268 C273 1.363 . S
C269 H240 0.950 . S
C269 C268 1.397 . S
C269 C270 1.334 . S
C270 H241 0.950 . S
C270 C269 1.334 . S
C270 C271 1.287 . S
C271 C270 1.287 . S
C271 C272 1.524 . S
C271 H274 0.999 . S
C272 H242 0.950 . S
C272 C271 1.524 . S
C272 C273 1.415 . S
C273 H243 0.950 . S
C273 C268 1.363 . S
C273 C272 1.415 . S
H274 C271 0.999 . S
H275 C256 0.913 1_556 S
H276 C294 0.951 . S
H277 C296 0.951 . S
H278 C298 0.950 . S
H279 C299 0.950 . S
H280 C301 0.950 . S
H281 C304 0.950 . S
H282 C305 0.950 . S
H283 C307 0.950 . S
H284 C308 0.950 . S
H285 C309 0.951 . S
H286 C311 0.951 . S
H287 C313 0.950 . S
H288 C314 0.950 . S
H289 C316 0.950 . S
H290 C319 0.950 . S
H291 C320 0.950 . S
H292 C322 0.950 . S
H293 C323 0.950 . S
C294 H276 0.951 . S
C294 C295 1.366 . S
C294 C296 1.388 . S
C295 C294 1.366 . S
C295 C299 1.385 . S
C296 H277 0.951 . S
C296 C294 1.388 . S
C296 C297 1.366 . S
C297 C296 1.366 . S
C297 C298 1.414 . S
C297 C300 1.499 . S
C298 H278 0.950 . S
C298 C297 1.414 . S
C298 C299 1.374 . S
C299 H279 0.950 . S
C299 C295 1.385 . S
C299 C298 1.374 . S
C300 C297 1.499 . S
C300 C301 1.373 . S
C300 C302 1.389 . S
C301 H280 0.950 . S
C301 C300 1.373 . S
C301 C317 1.377 . S
C302 C300 1.389 . S
C302 C303 1.524 . S
C302 C316 1.377 . S
C303 C302 1.524 . S
C303 C304 1.397 . S
C303 C308 1.363 . S
C304 H281 0.950 . S
C304 C303 1.397 . S
C304 C305 1.334 . S
C305 H282 0.950 . S
C305 C304 1.334 . S
C305 C306 1.287 . S
C306 C305 1.287 . S
C306 C307 1.524 . S
C306 H325 0.913 . S
C307 H283 0.950 . S
C307 C306 1.524 . S
C307 C308 1.415 . S
C308 H284 0.950 . S
C308 C303 1.363 . S
C308 C307 1.415 . S
C309 H285 0.951 . S
C309 C310 1.366 . S
C309 C311 1.388 . S
C310 C309 1.366 . S
C310 C314 1.385 . S
C311 H286 0.951 . S
C311 C309 1.388 . S
C311 C312 1.366 . S
C312 C311 1.366 . S
C312 C313 1.414 . S
C312 C315 1.499 . S
C313 H287 0.950 . S
C313 C312 1.414 . S
C313 C314 1.374 . S
C314 H288 0.950 . S
C314 C310 1.385 . S
C314 C313 1.374 . S
C315 C312 1.499 . S
C315 C316 1.373 . S
C315 C317 1.389 . S
C316 H289 0.950 . S
C316 C302 1.377 . S
C316 C315 1.373 . S
C317 C301 1.377 . S
C317 C315 1.389 . S
C317 C318 1.524 . S
C318 C317 1.524 . S
C318 C319 1.397 . S
C318 C323 1.363 . S
C319 H290 0.950 . S
C319 C318 1.397 . S
C319 C320 1.334 . S
C320 H291 0.950 . S
C320 C319 1.334 . S
C320 C321 1.287 . S
C321 C320 1.287 . S
C321 C322 1.524 . S
C321 H324 0.999 . S
C322 H292 0.950 . S
C322 C321 1.524 . S
C322 C323 1.415 . S
C323 H293 0.950 . S
C323 C318 1.363 . S
C323 C322 1.415 . S
H324 C321 0.999 . S
H325 C306 0.913 . S
H326 C344 0.951 . S
H327 C346 0.951 . S
H328 C348 0.950 . S
H329 C349 0.950 . S
H330 C351 0.950 . S
H331 C354 0.950 . S
H332 C355 0.950 . S
H333 C357 0.950 . S
H334 C358 0.950 1_455 S
H335 C359 0.951 . S
H336 C361 0.951 . S
H337 C363 0.950 . S
H338 C364 0.950 . S
H339 C366 0.950 . S
H340 C369 0.950 . S
H341 C370 0.950 . S
H342 C372 0.950 . S
H343 C373 0.950 1_655 S
C344 H326 0.951 . S
C344 C345 1.365 . S
C344 C346 1.388 . S
C345 C344 1.365 . S
C345 C349 1.386 1_455 S
C346 H327 0.951 . S
C346 C344 1.388 . S
C346 C347 1.366 1_455 S
C347 C346 1.366 1_655 S
C347 C348 1.414 . S
C347 C350 1.499 . S
C348 H328 0.950 . S
C348 C347 1.414 . S
C348 C349 1.374 . S
C349 H329 0.950 . S
C349 C345 1.386 1_655 S
C349 C348 1.374 . S
C350 C347 1.499 . S
C350 C351 1.373 1_655 S
C350 C352 1.389 . S
C351 H330 0.950 . S
C351 C350 1.373 1_455 S
C351 C367 1.377 . S
C352 C350 1.389 . S
C352 C353 1.524 . S
C352 C366 1.377 . S
C353 C352 1.524 . S
C353 C354 1.397 . S
C353 C358 1.363 . S
C354 H331 0.950 . S
C354 C353 1.397 . S
C354 C355 1.334 . S
C355 H332 0.950 . S
C355 C354 1.334 . S
C355 C356 1.287 . S
C356 C355 1.287 . S
C356 C357 1.524 . S
C356 H375 0.913 . S
C357 H333 0.950 . S
C357 C356 1.524 . S
C357 C358 1.415 . S
C358 H334 0.950 1_655 S
C358 C353 1.363 . S
C358 C357 1.415 . S
C359 H335 0.951 . S
C359 C360 1.366 . S
C359 C361 1.388 . S
C360 C359 1.366 . S
C360 C364 1.385 1_655 S
C361 H336 0.951 . S
C361 C359 1.388 . S
C361 C362 1.362 1_655 S
C362 C361 1.362 1_455 S
C362 C363 1.417 . S
C362 C365 1.496 . S
C363 H337 0.950 . S
C363 C362 1.417 . S
C363 C364 1.374 . S
C364 H338 0.950 . S
C364 C360 1.385 1_455 S
C364 C363 1.374 . S
C365 C362 1.496 . S
C365 C366 1.368 1_455 S
C365 C367 1.397 . S
C366 H339 0.950 . S
C366 C352 1.377 . S
C366 C365 1.368 1_655 S
C367 C351 1.377 . S
C367 C365 1.397 . S
C367 C368 1.524 . S
C368 C367 1.524 . S
C368 C369 1.397 . S
C368 C373 1.363 . S
C369 H340 0.950 . S
C369 C368 1.397 . S
C369 C370 1.334 . S
C370 H341 0.950 . S
C370 C369 1.334 . S
C370 C371 1.287 . S
C371 C370 1.287 . S
C371 C372 1.524 . S
C371 H374 0.999 . S
C372 H342 0.950 . S
C372 C371 1.524 . S
C372 C373 1.415 . S
C373 H343 0.950 1_455 S
C373 C368 1.363 . S
C373 C372 1.415 . S
H374 C371 0.999 . S
H375 C356 0.913 . S
H376 C394 0.951 . S
H377 C396 0.951 . S
H378 C398 0.950 . S
H379 C399 0.950 1_554 S
H380 C401 0.950 . S
H381 C404 0.950 . S
H382 C405 0.950 . S
H383 C407 0.950 . S
H384 C408 0.950 . S
H385 C409 0.951 1_545 S
H386 C411 0.951 . S
H387 C413 0.950 . S
H388 C414 0.950 . S
H389 C416 0.950 . S
H390 C419 0.950 . S
H391 C420 0.950 . S
H392 C422 0.950 . S
H393 C423 0.950 . S
C394 H376 0.951 . S
C394 C395 1.366 . S
C394 C396 1.388 . S
C395 C394 1.366 . S
C395 C399 1.385 . S
C396 H377 0.951 . S
C396 C394 1.388 . S
C396 C397 1.366 . S
C397 C396 1.366 . S
C397 C398 1.414 . S
C397 C400 1.499 . S
C398 H378 0.950 . S
C398 C397 1.414 . S
C398 C399 1.374 . S
C399 H379 0.950 1_556 S
C399 C395 1.385 . S
C399 C398 1.374 . S
C400 C397 1.499 . S
C400 C401 1.373 . S
C400 C402 1.389 . S
C401 H380 0.950 . S
C401 C400 1.373 . S
C401 C417 1.377 . S
C402 C400 1.389 . S
C402 C403 1.524 . S
C402 C416 1.377 . S
C403 C402 1.524 . S
C403 C404 1.397 . S
C403 C408 1.363 . S
C404 H381 0.950 . S
C404 C403 1.397 . S
C404 C405 1.334 . S
C405 H382 0.950 . S
C405 C404 1.334 . S
C405 C406 1.287 . S
C406 C405 1.287 . S
C406 C407 1.524 . S
C406 H425 0.913 . S
C407 H383 0.950 . S
C407 C406 1.524 . S
C407 C408 1.415 . S
C408 H384 0.950 . S
C408 C403 1.363 . S
C408 C407 1.415 . S
C409 H385 0.951 1_565 S
C409 C410 1.366 . S
C409 C411 1.388 . S
C410 C409 1.366 . S
C410 C414 1.385 . S
C411 H386 0.951 . S
C411 C409 1.388 . S
C411 C412 1.366 . S
C412 C411 1.366 . S
C412 C413 1.414 . S
C412 C415 1.499 . S
C413 H387 0.950 . S
C413 C412 1.414 . S
C413 C414 1.374 . S
C414 H388 0.950 . S
C414 C410 1.385 . S
C414 C413 1.374 . S
C415 C412 1.499 . S
C415 C416 1.373 . S
C415 C417 1.389 . S
C416 H389 0.950 . S
C416 C402 1.377 . S
C416 C415 1.373 . S
C417 C401 1.377 . S
C417 C415 1.389 . S
C417 C418 1.524 1_565 S
C418 C417 1.524 1_545 S
C418 C419 1.397 . S
C418 C423 1.363 . S
C419 H390 0.950 . S
C419 C418 1.397 . S
C419 C420 1.334 . S
C420 H391 0.950 . S
C420 C419 1.334 . S
C420 C421 1.287 . S
C421 C420 1.287 . S
C421 C422 1.524 . S
C421 H424 0.999 . S
C422 H392 0.950 . S
C422 C421 1.524 . S
C422 C423 1.415 . S
C423 H393 0.950 . S
C423 C418 1.363 . S
C423 C422 1.415 . S
H424 C421 0.999 . S
H425 C406 0.913 . S
H426 C444 0.951 1_554 S
H427 C446 0.951 . S
H428 C448 0.950 . S
H429 C449 0.950 . S
H430 C451 0.950 . S
H431 C454 0.950 . S
H432 C455 0.950 . S
H433 C457 0.950 . S
H434 C458 0.950 . S
H435 C459 0.951 . S
H436 C461 0.951 . S
H437 C463 0.950 . S
H438 C464 0.950 . S
H439 C466 0.950 . S
H440 C469 0.950 . S
H441 C470 0.950 . S
H442 C472 0.950 . S
H443 C473 0.950 . S
C444 H426 0.951 1_556 S
C444 C445 1.366 1_556 S
C444 C446 1.388 . S
C445 C444 1.366 1_554 S
C445 C449 1.385 . S
C446 H427 0.951 . S
C446 C444 1.388 . S
C446 C447 1.366 . S
C447 C446 1.366 . S
C447 C448 1.414 . S
C447 C450 1.499 . S
C448 H428 0.950 . S
C448 C447 1.414 . S
C448 C449 1.374 1_556 S
C449 H429 0.950 . S
C449 C445 1.385 . S
C449 C448 1.374 1_554 S
C450 C447 1.499 . S
C450 C451 1.373 . S
C450 C452 1.389 . S
C451 H430 0.950 . S
C451 C450 1.373 . S
C451 C467 1.377 . S
C452 C450 1.389 . S
C452 C453 1.524 . S
C452 C466 1.377 . S
C453 C452 1.524 . S
C453 C454 1.397 1_556 S
C453 C458 1.363 . S
C454 H431 0.950 . S
C454 C453 1.397 1_554 S
C454 C455 1.334 . S
C455 H432 0.950 . S
C455 C454 1.334 . S
C455 C456 1.287 . S
C456 C455 1.287 . S
C456 C457 1.524 . S
C456 H475 0.913 . S
C457 H433 0.950 . S
C457 C456 1.524 . S
C457 C458 1.415 1_554 S
C458 H434 0.950 . S
C458 C453 1.363 . S
C458 C457 1.415 1_556 S
C459 H435 0.951 . S
C459 C460 1.366 . S
C459 C461 1.388 . S
C460 C459 1.366 . S
C460 C464 1.385 . S
C461 H436 0.951 . S
C461 C459 1.388 . S
C461 C462 1.366 . S
C462 C461 1.366 . S
C462 C463 1.414 . S
C462 C465 1.499 . S
C463 H437 0.950 . S
C463 C462 1.414 . S
C463 C464 1.374 . S
C464 H438 0.950 . S
C464 C460 1.385 . S
C464 C463 1.374 . S
C465 C462 1.499 . S
C465 C466 1.373 . S
C465 C467 1.389 . S
C466 H439 0.950 . S
C466 C452 1.377 . S
C466 C465 1.373 . S
C467 C451 1.377 . S
C467 C465 1.389 . S
C467 C468 1.524 . S
C468 C467 1.524 . S
C468 C469 1.397 . S
C468 C473 1.363 . S
C469 H440 0.950 . S
C469 C468 1.397 . S
C469 C470 1.334 . S
C470 H441 0.950 . S
C470 C469 1.334 . S
C470 C471 1.287 . S
C471 C470 1.287 . S
C471 C472 1.524 . S
C471 H474 0.999 . S
C472 H442 0.950 . S
C472 C471 1.524 . S
C472 C473 1.415 . S
C473 H443 0.950 . S
C473 C468 1.363 . S
C473 C472 1.415 . S
H474 C471 0.999 . S
H475 C456 0.913 . S
H476 C494 0.951 . S
H477 C496 0.951 . S
H478 C498 0.950 . S
H479 C499 0.950 . S
H480 C501 0.950 . S
H481 C504 0.950 . S
H482 C505 0.950 . S
H483 C507 0.950 . S
H484 C508 0.950 . S
H485 C509 0.951 . S
H486 C511 0.951 . S
H487 C513 0.950 . S
H488 C514 0.950 . S
H489 C516 0.950 . S
H490 C519 0.950 . S
H491 C520 0.950 . S
H492 C522 0.950 . S
H493 C523 0.950 . S
C494 H476 0.951 . S
C494 C495 1.366 . S
C494 C496 1.388 . S
C495 C494 1.366 . S
C495 C499 1.385 1_556 S
C496 H477 0.951 . S
C496 C494 1.388 . S
C496 C497 1.366 . S
C497 C496 1.366 . S
C497 C498 1.414 . S
C497 C500 1.499 . S
C498 H478 0.950 . S
C498 C497 1.414 . S
C498 C499 1.374 1_556 S
C499 H479 0.950 . S
C499 C495 1.385 1_554 S
C499 C498 1.374 1_554 S
C500 C497 1.499 . S
C500 C501 1.373 . S
C500 C502 1.389 . S
C501 H480 0.950 . S
C501 C500 1.373 . S
C501 C517 1.377 . S
C502 C500 1.389 . S
C502 C503 1.524 . S
C502 C516 1.377 . S
C503 C502 1.524 . S
C503 C504 1.397 . S
C503 C508 1.363 . S
C504 H481 0.950 . S
C504 C503 1.397 . S
C504 C505 1.334 . S
C505 H482 0.950 . S
C505 C504 1.334 . S
C505 C506 1.287 . S
C506 C505 1.287 . S
C506 C507 1.524 . S
C506 H525 0.913 . S
C507 H483 0.950 . S
C507 C506 1.524 . S
C507 C508 1.415 . S
C508 H484 0.950 . S
C508 C503 1.363 . S
C508 C507 1.415 . S
C509 H485 0.951 . S
C509 C510 1.366 . S
C509 C511 1.388 . S
C510 C509 1.366 . S
C510 C514 1.385 . S
C511 H486 0.951 . S
C511 C509 1.388 . S
C511 C512 1.366 . S
C512 C511 1.366 . S
C512 C513 1.414 . S
C512 C515 1.499 . S
C513 H487 0.950 . S
C513 C512 1.414 . S
C513 C514 1.374 . S
C514 H488 0.950 . S
C514 C510 1.385 . S
C514 C513 1.374 . S
C515 C512 1.499 . S
C515 C516 1.373 . S
C515 C517 1.389 . S
C516 H489 0.950 . S
C516 C502 1.377 . S
C516 C515 1.373 . S
C517 C501 1.377 . S
C517 C515 1.389 . S
C517 C518 1.524 . S
C518 C517 1.524 . S
C518 C519 1.397 . S
C518 C523 1.363 . S
C519 H490 0.950 . S
C519 C518 1.397 . S
C519 C520 1.334 . S
C520 H491 0.950 . S
C520 C519 1.334 . S
C520 C521 1.287 . S
C521 C520 1.287 . S
C521 C522 1.524 . S
C521 H524 0.999 . S
C522 H492 0.950 . S
C522 C521 1.524 . S
C522 C523 1.415 . S
C523 H493 0.950 . S
C523 C518 1.363 . S
C523 C522 1.415 . S
H524 C521 0.999 . S
H525 C506 0.913 . S
H526 C544 0.951 . S
H527 C546 0.951 . S
H528 C548 0.950 . S
H529 C549 0.950 1_554 S
H530 C551 0.951 . S
H531 C554 0.950 . S
H532 C555 0.950 . S
H533 C557 0.950 . S
H534 C558 0.950 . S
H535 C559 0.951 . S
H536 C561 0.951 . S
H537 C563 0.950 . S
H538 C564 0.950 . S
H539 C566 0.951 . S
H540 C569 0.950 . S
H541 C570 0.950 . S
H542 C572 0.950 1_554 S
H543 C573 0.950 . S
C544 H526 0.951 . S
C544 C545 1.368 1_455 S
C544 C546 1.388 . S
C545 C544 1.368 1_655 S
C545 C549 1.382 . S
C546 H527 0.951 . S
C546 C544 1.388 . S
C546 C547 1.348 1_455 S
C547 C546 1.348 1_655 S
C547 C548 1.433 . S
C547 C550 1.500 . S
C548 H528 0.950 . S
C548 C547 1.433 . S
C548 C549 1.374 . S
C549 H529 0.950 1_556 S
C549 C545 1.382 . S
C549 C548 1.374 . S
C550 C547 1.500 . S
C550 C551 1.364 1_655 S
C550 C552 1.389 . S
C551 H530 0.951 . S
C551 C550 1.364 1_455 S
C551 C567 1.379 . S
C552 C550 1.389 . S
C552 C553 1.538 . S
C552 C566 1.367 1_655 S
C553 C552 1.538 . S
C553 C554 1.397 . S
C553 C558 1.363 1_655 S
C554 H531 0.950 . S
C554 C553 1.397 . S
C554 C555 1.334 . S
C555 H532 0.950 . S
C555 C554 1.334 . S
C555 C556 1.287 . S
C556 C555 1.287 . S
C556 C557 1.524 1_655 S
C556 H575 0.913 . S
C557 H533 0.950 . S
C557 C556 1.524 1_455 S
C557 C558 1.415 . S
C558 H534 0.950 . S
C558 C553 1.363 1_455 S
C558 C557 1.415 . S
C559 H535 0.951 . S
C559 C560 1.331 1_655 S
C559 C561 1.388 . S
C560 C559 1.331 1_455 S
C560 C564 1.418 . S
C561 H536 0.951 . S
C561 C559 1.388 . S
C561 C562 1.366 1_655 S
C562 C561 1.366 1_455 S
C562 C563 1.414 . S
C562 C565 1.499 . S
C563 H537 0.950 . S
C563 C562 1.414 . S
C563 C564 1.374 . S
C564 H538 0.950 . S
C564 C560 1.418 . S
C564 C563 1.374 . S
C565 C562 1.499 . S
C565 C566 1.379 . S
C565 C567 1.389 . S
C566 H539 0.951 . S
C566 C552 1.367 1_455 S
C566 C565 1.379 . S
C567 C551 1.379 . S
C567 C565 1.389 . S
C567 C568 1.524 . S
C568 C567 1.524 . S
C568 C569 1.397 . S
C568 C573 1.363 1_455 S
C569 H540 0.950 . S
C569 C568 1.397 . S
C569 C570 1.334 . S
C570 H541 0.950 . S
C570 C569 1.334 . S
C570 C571 1.287 . S
C571 C570 1.287 . S
C571 C572 1.524 1_455 S
C571 H574 0.999 . S
C572 H542 0.950 1_556 S
C572 C571 1.524 1_655 S
C572 C573 1.415 . S
C573 H543 0.950 . S
C573 C568 1.363 1_655 S
C573 C572 1.415 . S
H574 C571 0.999 . S
H575 C556 0.913 . S
H576 C594 0.951 . S
H577 C596 0.951 . S
H578 C598 0.950 . S
H579 C599 0.950 . S
H580 C601 0.950 1_455 S
H581 C604 0.950 . S
H582 C605 0.950 . S
H583 C607 0.950 . S
H584 C608 0.950 1_455 S
H585 C609 0.951 . S
H586 C611 0.951 . S
H587 C613 0.950 . S
H588 C614 0.950 . S
H589 C616 0.950 . S
H590 C619 0.950 . S
H591 C620 0.950 . S
H592 C622 0.950 1_655 S
H593 C623 0.950 . S
C594 H576 0.951 . S
C594 C595 1.369 . S
C594 C596 1.388 . S
C595 C594 1.369 . S
C595 C599 1.381 1_455 S
C596 H577 0.951 . S
C596 C594 1.388 . S
C596 C597 1.366 1_455 S
C597 C596 1.366 1_655 S
C597 C598 1.414 . S
C597 C600 1.499 . S
C598 H578 0.950 . S
C598 C597 1.414 . S
C598 C599 1.374 . S
C599 H579 0.950 . S
C599 C595 1.381 1_655 S
C599 C598 1.374 . S
C600 C597 1.499 . S
C600 C601 1.373 . S
C600 C602 1.389 . S
C601 H580 0.950 1_655 S
C601 C600 1.373 . S
C601 C617 1.377 . S
C602 C600 1.389 . S
C602 C603 1.524 . S
C602 C616 1.377 . S
C603 C602 1.524 . S
C603 C604 1.397 . S
C603 C608 1.363 . S
C604 H581 0.950 . S
C604 C603 1.397 . S
C604 C605 1.334 . S
C605 H582 0.950 . S
C605 C604 1.334 . S
C605 C606 1.287 . S
C606 C605 1.287 . S
C606 C607 1.524 . S
C606 H625 0.913 . S
C607 H583 0.950 . S
C607 C606 1.524 . S
C607 C608 1.415 . S
C608 H584 0.950 1_655 S
C608 C603 1.363 . S
C608 C607 1.415 . S
C609 H585 0.951 . S
C609 C610 1.366 . S
C609 C611 1.388 . S
C610 C609 1.366 . S
C610 C614 1.385 1_655 S
C611 H586 0.951 . S
C611 C609 1.388 . S
C611 C612 1.366 . S
C612 C611 1.366 . S
C612 C613 1.414 1_655 S
C612 C615 1.499 . S
C613 H587 0.950 . S
C613 C612 1.414 1_455 S
C613 C614 1.374 . S
C614 H588 0.950 . S
C614 C610 1.385 1_455 S
C614 C613 1.374 . S
C615 C612 1.499 . S
C615 C616 1.373 . S
C615 C617 1.389 . S
C616 H589 0.950 . S
C616 C602 1.377 . S
C616 C615 1.373 . S
C617 C601 1.377 . S
C617 C615 1.389 . S
C617 C618 1.524 1_655 S
C618 C617 1.524 1_455 S
C618 C619 1.397 . S
C618 C623 1.363 1_455 S
C619 H590 0.950 . S
C619 C618 1.397 . S
C619 C620 1.334 . S
C620 H591 0.950 . S
C620 C619 1.334 . S
C620 C621 1.287 . S
C621 C620 1.287 . S
C621 C622 1.524 . S
C621 H624 0.999 . S
C622 H592 0.950 1_455 S
C622 C621 1.524 . S
C622 C623 1.415 1_455 S
C623 H593 0.950 . S
C623 C618 1.363 1_655 S
C623 C622 1.415 1_655 S
H624 C621 0.999 . S
H625 C606 0.913 . S
H626 C644 0.951 . S
H627 C646 0.951 . S
H628 C648 0.950 . S
H629 C649 0.950 . S
H630 C651 0.950 . S
H631 C654 0.950 . S
H632 C655 0.950 . S
H633 C657 0.950 . S
H634 C658 0.950 . S
H635 C659 0.951 . S
H636 C661 0.951 . S
H637 C663 0.950 . S
H638 C664 0.950 . S
H639 C666 0.950 . S
H640 C669 0.950 . S
H641 C670 0.950 . S
H642 C672 0.950 . S
H643 C673 0.950 . S
C644 H626 0.951 . S
C644 C645 1.366 . S
C644 C646 1.388 . S
C645 C644 1.366 . S
C645 C649 1.385 . S
C646 H627 0.951 . S
C646 C644 1.388 . S
C646 C647 1.366 . S
C647 C646 1.366 . S
C647 C648 1.414 . S
C647 C650 1.499 . S
C648 H628 0.950 . S
C648 C647 1.414 . S
C648 C649 1.374 . S
C649 H629 0.950 . S
C649 C645 1.385 . S
C649 C648 1.374 . S
C650 C647 1.499 . S
C650 C651 1.373 . S
C650 C652 1.389 . S
C651 H630 0.950 . S
C651 C650 1.373 . S
C651 C667 1.377 . S
C652 C650 1.389 . S
C652 C653 1.524 . S
C652 C666 1.377 . S
C653 C652 1.524 . S
C653 C654 1.397 . S
C653 C658 1.363 . S
C654 H631 0.950 . S
C654 C653 1.397 . S
C654 C655 1.334 . S
C655 H632 0.950 . S
C655 C654 1.334 . S
C655 C656 1.287 . S
C656 C655 1.287 . S
C656 C657 1.524 . S
C656 H675 0.913 . S
C657 H633 0.950 . S
C657 C656 1.524 . S
C657 C658 1.415 . S
C658 H634 0.950 . S
C658 C653 1.363 . S
C658 C657 1.415 . S
C659 H635 0.951 . S
C659 C660 1.366 . S
C659 C661 1.388 . S
C660 C659 1.366 . S
C660 C664 1.385 . S
C661 H636 0.951 . S
C661 C659 1.388 . S
C661 C662 1.366 . S
C662 C661 1.366 . S
C662 C663 1.414 . S
C662 C665 1.499 . S
C663 H637 0.950 . S
C663 C662 1.414 . S
C663 C664 1.374 . S
C664 H638 0.950 . S
C664 C660 1.385 . S
C664 C663 1.374 . S
C665 C662 1.499 . S
C665 C666 1.373 . S
C665 C667 1.389 . S
C666 H639 0.950 . S
C666 C652 1.377 . S
C666 C665 1.373 . S
C667 C651 1.377 . S
C667 C665 1.389 . S
C667 C668 1.524 1_545 S
C668 C667 1.524 1_565 S
C668 C669 1.397 . S
C668 C673 1.363 . S
C669 H640 0.950 . S
C669 C668 1.397 . S
C669 C670 1.334 . S
C670 H641 0.950 . S
C670 C669 1.334 . S
C670 C671 1.287 . S
C671 C670 1.287 . S
C671 C672 1.524 . S
C671 H674 0.999 . S
C672 H642 0.950 . S
C672 C671 1.524 . S
C672 C673 1.415 . S
C673 H643 0.950 . S
C673 C668 1.363 . S
C673 C672 1.415 . S
H674 C671 0.999 . S
H675 C656 0.913 . S
H676 C694 0.951 . S
H677 C696 0.951 . S
H678 C698 0.950 . S
H679 C699 0.950 . S
H680 C701 0.950 . S
H681 C704 0.950 . S
H682 C705 0.950 . S
H683 C707 0.950 . S
H684 C708 0.950 . S
H685 C709 0.951 . S
H686 C711 0.951 . S
H687 C713 0.950 . S
H688 C714 0.950 . S
H689 C716 0.950 . S
H690 C719 0.950 . S
H691 C720 0.950 . S
H692 C722 0.950 . S
H693 C723 0.950 . S
C694 H676 0.951 . S
C694 C695 1.366 . S
C694 C696 1.388 . S
C695 C694 1.366 . S
C695 C699 1.385 . S
C696 H677 0.951 . S
C696 C694 1.388 . S
C696 C697 1.366 . S
C697 C696 1.366 . S
C697 C698 1.414 . S
C697 C700 1.499 . S
C698 H678 0.950 . S
C698 C697 1.414 . S
C698 C699 1.374 . S
C699 H679 0.950 . S
C699 C695 1.385 . S
C699 C698 1.374 . S
C700 C697 1.499 . S
C700 C701 1.373 . S
C700 C702 1.389 . S
C701 H680 0.950 . S
C701 C700 1.373 . S
C701 C717 1.377 . S
C702 C700 1.389 . S
C702 C703 1.524 . S
C702 C716 1.377 . S
C703 C702 1.524 . S
C703 C704 1.397 . S
C703 C708 1.363 . S
C704 H681 0.950 . S
C704 C703 1.397 . S
C704 C705 1.334 . S
C705 H682 0.950 . S
C705 C704 1.334 . S
C705 C706 1.287 . S
C706 C705 1.287 . S
C706 C707 1.524 . S
C706 H725 0.913 . S
C707 H683 0.950 . S
C707 C706 1.524 . S
C707 C708 1.415 . S
C708 H684 0.950 . S
C708 C703 1.363 . S
C708 C707 1.415 . S
C709 H685 0.951 . S
C709 C710 1.366 . S
C709 C711 1.388 . S
C710 C709 1.366 . S
C710 C714 1.385 . S
C711 H686 0.951 . S
C711 C709 1.388 . S
C711 C712 1.366 . S
C712 C711 1.366 . S
C712 C713 1.414 . S
C712 C715 1.499 . S
C713 H687 0.950 . S
C713 C712 1.414 . S
C713 C714 1.374 . S
C714 H688 0.950 . S
C714 C710 1.385 . S
C714 C713 1.374 . S
C715 C712 1.499 . S
C715 C716 1.373 . S
C715 C717 1.389 . S
C716 H689 0.950 . S
C716 C702 1.377 . S
C716 C715 1.373 . S
C717 C701 1.377 . S
C717 C715 1.389 . S
C717 C718 1.524 . S
C718 C717 1.524 . S
C718 C719 1.397 . S
C718 C723 1.363 . S
C719 H690 0.950 . S
C719 C718 1.397 . S
C719 C720 1.334 . S
C720 H691 0.950 . S
C720 C719 1.334 . S
C720 C721 1.287 . S
C721 C720 1.287 . S
C721 C722 1.524 . S
C721 H724 0.999 . S
C722 H692 0.950 . S
C722 C721 1.524 . S
C722 C723 1.415 . S
C723 H693 0.950 . S
C723 C718 1.363 . S
C723 C722 1.415 . S
H724 C721 0.999 . S
H725 C706 0.913 . S
H726 C744 0.951 . S
H727 C746 0.951 . S
H728 C748 0.950 . S
H729 C749 0.950 . S
H730 C751 0.950 . S
H731 C754 0.950 . S
H732 C755 0.950 . S
H733 C757 0.950 . S
H734 C758 0.950 . S
H735 C759 0.951 . S
H736 C761 0.951 . S
H737 C763 0.950 . S
H738 C764 0.950 . S
H739 C766 0.950 . S
H740 C769 0.950 . S
H741 C770 0.950 . S
H742 C772 0.950 . S
H743 C773 0.950 . S
C744 H726 0.951 . S
C744 C745 1.366 . S
C744 C746 1.388 . S
C745 C744 1.366 . S
C745 C749 1.385 . S
C746 H727 0.951 . S
C746 C744 1.388 . S
C746 C747 1.366 . S
C747 C746 1.366 . S
C747 C748 1.414 . S
C747 C750 1.499 . S
C748 H728 0.950 . S
C748 C747 1.414 . S
C748 C749 1.374 . S
C749 H729 0.950 . S
C749 C745 1.385 . S
C749 C748 1.374 . S
C750 C747 1.499 . S
C750 C751 1.373 . S
C750 C752 1.389 . S
C751 H730 0.950 . S
C751 C750 1.373 . S
C751 C767 1.377 . S
C752 C750 1.389 . S
C752 C753 1.524 . S
C752 C766 1.377 . S
C753 C752 1.524 . S
C753 C754 1.397 . S
C753 C758 1.363 . S
C754 H731 0.950 . S
C754 C753 1.397 . S
C754 C755 1.334 . S
C755 H732 0.950 . S
C755 C754 1.334 . S
C755 C756 1.287 . S
C756 C755 1.287 . S
C756 C757 1.524 . S
C756 H775 0.913 1_554 S
C757 H733 0.950 . S
C757 C756 1.524 . S
C757 C758 1.415 . S
C758 H734 0.950 . S
C758 C753 1.363 . S
C758 C757 1.415 . S
C759 H735 0.951 . S
C759 C760 1.366 . S
C759 C761 1.388 . S
C760 C759 1.366 . S
C760 C764 1.385 . S
C761 H736 0.951 . S
C761 C759 1.388 . S
C761 C762 1.366 . S
C762 C761 1.366 . S
C762 C763 1.414 . S
C762 C765 1.499 . S
C763 H737 0.950 . S
C763 C762 1.414 . S
C763 C764 1.374 . S
C764 H738 0.950 . S
C764 C760 1.385 . S
C764 C763 1.374 . S
C765 C762 1.499 . S
C765 C766 1.373 . S
C765 C767 1.389 . S
C766 H739 0.950 . S
C766 C752 1.377 . S
C766 C765 1.373 . S
C767 C751 1.377 . S
C767 C765 1.389 . S
C767 C768 1.524 . S
C768 C767 1.524 . S
C768 C769 1.397 . S
C768 C773 1.363 . S
C769 H740 0.950 . S
C769 C768 1.397 . S
C769 C770 1.334 . S
C770 H741 0.950 . S
C770 C769 1.334 . S
C770 C771 1.287 . S
C771 C770 1.287 . S
C771 C772 1.524 . S
C771 H774 0.999 . S
C772 H742 0.950 . S
C772 C771 1.524 . S
C772 C773 1.415 . S
C773 H743 0.950 . S
C773 C768 1.363 . S
C773 C772 1.415 . S
H774 C771 0.999 . S
H775 C756 0.913 1_556 S
H776 C794 0.951 . S
H777 C796 0.951 . S
H778 C798 0.950 . S
H779 C799 0.950 . S
H780 C801 0.950 . S
H781 C804 0.950 . S
H782 C805 0.950 . S
H783 C807 0.950 . S
H784 C808 0.950 . S
H785 C809 0.959 . S
H786 C811 0.951 1_655 S
H787 C813 0.950 . S
H788 C814 0.950 . S
H789 C816 0.950 . S
H790 C819 0.950 . S
H791 C820 0.950 . S
H792 C822 0.950 . S
H793 C823 0.950 . S
C794 H776 0.951 . S
C794 C795 1.364 1_455 S
C794 C796 1.388 . S
C795 C794 1.364 1_655 S
C795 C799 1.387 1_556 S
C796 H777 0.951 . S
C796 C794 1.388 . S
C796 C797 1.366 . S
C797 C796 1.366 . S
C797 C798 1.414 1_455 S
C797 C800 1.499 . S
C798 H778 0.950 . S
C798 C797 1.414 1_655 S
C798 C799 1.374 1_556 S
C799 H779 0.950 . S
C799 C795 1.387 1_554 S
C799 C798 1.374 1_554 S
C800 C797 1.499 . S
C800 C801 1.373 1_455 S
C800 C802 1.389 . S
C801 H780 0.950 . S
C801 C800 1.373 1_655 S
C801 C817 1.377 . S
C802 C800 1.389 . S
C802 C803 1.524 . S
C802 C816 1.377 . S
C803 C802 1.524 . S
C803 C804 1.397 . S
C803 C808 1.363 . S
C804 H781 0.950 . S
C804 C803 1.397 . S
C804 C805 1.334 . S
C805 H782 0.950 . S
C805 C804 1.334 . S
C805 C806 1.287 . S
C806 C805 1.287 . S
C806 C807 1.524 . S
C806 H825 0.913 . S
C807 H783 0.950 . S
C807 C806 1.524 . S
C807 C808 1.415 . S
C808 H784 0.950 . S
C808 C803 1.363 . S
C808 C807 1.415 . S
C809 H785 0.959 . S
C809 C810 1.366 . S
C809 C811 1.388 . S
C810 C809 1.366 . S
C810 C814 1.385 . S
C811 H786 0.951 1_455 S
C811 C809 1.388 . S
C811 C812 1.366 . S
C812 C811 1.366 . S
C812 C813 1.414 . S
C812 C815 1.499 . S
C813 H787 0.950 . S
C813 C812 1.414 . S
C813 C814 1.374 . S
C814 H788 0.950 . S
C814 C810 1.385 . S
C814 C813 1.374 . S
C815 C812 1.499 . S
C815 C816 1.373 . S
C815 C817 1.389 1_455 S
C816 H789 0.950 . S
C816 C802 1.377 . S
C816 C815 1.373 . S
C817 C801 1.377 . S
C817 C815 1.389 1_655 S
C817 C818 1.524 . S
C818 C817 1.524 . S
C818 C819 1.397 . S
C818 C823 1.363 . S
C819 H790 0.950 . S
C819 C818 1.397 . S
C819 C820 1.334 . S
C820 H791 0.950 . S
C820 C819 1.334 . S
C820 C821 1.287 . S
C821 C820 1.287 . S
C821 C822 1.524 . S
C821 H824 0.999 . S
C822 H792 0.950 . S
C822 C821 1.524 . S
C822 C823 1.415 . S
C823 H793 0.950 . S
C823 C818 1.363 . S
C823 C822 1.415 . S
H824 C821 0.999 . S
H825 C806 0.913 . S
H826 C844 0.951 1_554 S
H827 C846 0.951 . S
H828 C848 0.950 . S
H829 C849 0.950 . S
H830 C851 0.950 . S
H831 C854 0.943 1_556 S
H832 C855 0.950 . S
H833 C857 0.950 . S
H834 C858 0.950 . S
H835 C859 0.951 . S
H836 C861 0.951 . S
H837 C863 0.950 . S
H838 C864 0.950 . S
H839 C866 0.950 . S
H840 C869 0.950 . S
H841 C870 0.950 . S
H842 C872 0.950 . S
H843 C873 0.950 . S
C844 H826 0.951 1_556 S
C844 C845 1.366 . S
C844 C846 1.388 . S
C845 C844 1.366 . S
C845 C849 1.385 . S
C846 H827 0.951 . S
C846 C844 1.388 . S
C846 C847 1.366 . S
C847 C846 1.366 . S
C847 C848 1.414 . S
C847 C850 1.499 . S
C848 H828 0.950 . S
C848 C847 1.414 . S
C848 C849 1.374 . S
C849 H829 0.950 . S
C849 C845 1.385 . S
C849 C848 1.374 . S
C850 C847 1.499 . S
C850 C851 1.373 . S
C850 C852 1.389 . S
C851 H830 0.950 . S
C851 C850 1.373 . S
C851 C867 1.377 . S
C852 C850 1.389 . S
C852 C853 1.524 . S
C852 C866 1.377 . S
C853 C852 1.524 . S
C853 C854 1.395 1_556 S
C853 C858 1.363 1_556 S
C854 H831 0.943 1_554 S
C854 C853 1.395 1_554 S
C854 C855 1.342 . S
C855 H832 0.950 . S
C855 C854 1.342 . S
C855 C856 1.287 . S
C856 C855 1.287 . S
C856 C857 1.524 . S
C856 H875 0.913 . S
C857 H833 0.950 . S
C857 C856 1.524 . S
C857 C858 1.415 . S
C858 H834 0.950 . S
C858 C853 1.363 1_554 S
C858 C857 1.415 . S
C859 H835 0.951 . S
C859 C860 1.366 . S
C859 C861 1.388 . S
C860 C859 1.366 . S
C860 C864 1.385 1_565 S
C861 H836 0.951 . S
C861 C859 1.388 . S
C861 C862 1.366 . S
C862 C861 1.366 . S
C862 C863 1.414 1_565 S
C862 C865 1.499 . S
C863 H837 0.950 . S
C863 C862 1.414 1_545 S
C863 C864 1.374 . S
C864 H838 0.950 . S
C864 C860 1.385 1_545 S
C864 C863 1.374 . S
C865 C862 1.499 . S
C865 C866 1.373 . S
C865 C867 1.389 . S
C866 H839 0.950 . S
C866 C852 1.377 . S
C866 C865 1.373 . S
C867 C851 1.377 . S
C867 C865 1.389 . S
C867 C868 1.524 . S
C868 C867 1.524 . S
C868 C869 1.397 1_565 S
C868 C873 1.363 . S
C869 H840 0.950 . S
C869 C868 1.397 1_545 S
C869 C870 1.334 . S
C870 H841 0.950 . S
C870 C869 1.334 . S
C870 C871 1.287 . S
C871 C870 1.287 . S
C871 C872 1.524 1_545 S
C871 H874 0.999 . S
C872 H842 0.950 . S
C872 C871 1.524 1_565 S
C872 C873 1.415 . S
C873 H843 0.950 . S
C873 C868 1.363 . S
C873 C872 1.415 . S
H874 C871 0.999 . S
H875 C856 0.913 . S
H876 C894 0.951 . S
H877 C896 0.951 . S
H878 C898 0.950 . S
H879 C899 0.950 . S
H880 C901 0.950 . S
H881 C904 0.950 . S
H882 C905 0.950 . S
H883 C907 0.950 . S
H884 C908 0.950 . S
H885 C909 0.951 . S
H886 C911 0.951 . S
H887 C913 0.950 . S
H888 C914 0.950 . S
H889 C916 0.950 . S
H890 C919 0.950 . S
H891 C920 0.950 . S
H892 C922 0.950 . S
H893 C923 0.950 1_554 S
C894 H876 0.951 . S
C894 C895 1.366 1_556 S
C894 C896 1.388 . S
C895 C894 1.366 1_554 S
C895 C899 1.385 . S
C896 H877 0.951 . S
C896 C894 1.388 . S
C896 C897 1.366 . S
C897 C896 1.366 . S
C897 C898 1.414 1_556 S
C897 C900 1.499 . S
C898 H878 0.950 . S
C898 C897 1.414 1_554 S
C898 C899 1.374 . S
C899 H879 0.950 . S
C899 C895 1.385 . S
C899 C898 1.374 . S
C900 C897 1.499 . S
C900 C901 1.373 . S
C900 C902 1.389 . S
C901 H880 0.950 . S
C901 C900 1.373 . S
C901 C917 1.377 . S
C902 C900 1.389 . S
C902 C903 1.524 . S
C902 C916 1.377 . S
C903 C902 1.524 . S
C903 C904 1.397 . S
C903 C908 1.363 . S
C904 H881 0.950 . S
C904 C903 1.397 . S
C904 C905 1.334 . S
C905 H882 0.950 . S
C905 C904 1.334 . S
C905 C906 1.287 . S
C906 C905 1.287 . S
C906 C907 1.524 . S
C906 H925 0.913 . S
C907 H883 0.950 . S
C907 C906 1.524 . S
C907 C908 1.415 . S
C908 H884 0.950 . S
C908 C903 1.363 . S
C908 C907 1.415 . S
C909 H885 0.951 . S
C909 C910 1.366 . S
C909 C911 1.388 . S
C910 C909 1.366 . S
C910 C914 1.385 . S
C911 H886 0.951 . S
C911 C909 1.388 . S
C911 C912 1.366 . S
C912 C911 1.366 . S
C912 C913 1.414 . S
C912 C915 1.499 . S
C913 H887 0.950 . S
C913 C912 1.414 . S
C913 C914 1.374 . S
C914 H888 0.950 . S
C914 C910 1.385 . S
C914 C913 1.374 . S
C915 C912 1.499 . S
C915 C916 1.373 . S
C915 C917 1.389 . S
C916 H889 0.950 . S
C916 C902 1.377 . S
C916 C915 1.373 . S
C917 C901 1.377 . S
C917 C915 1.389 . S
C917 C918 1.524 . S
C918 C917 1.524 . S
C918 C919 1.397 . S
C918 C923 1.363 . S
C919 H890 0.950 . S
C919 C918 1.397 . S
C919 C920 1.334 . S
C920 H891 0.950 . S
C920 C919 1.334 . S
C920 C921 1.287 . S
C921 C920 1.287 . S
C921 C922 1.524 1_556 S
C921 H924 0.999 . S
C922 H892 0.950 . S
C922 C921 1.524 1_554 S
C922 C923 1.415 1_554 S
C923 H893 0.950 1_556 S
C923 C918 1.363 . S
C923 C922 1.415 1_556 S
H924 C921 0.999 . S
H925 C906 0.913 . S
H926 C944 0.951 . S
H927 C946 0.951 . S
H928 C948 0.950 . S
H929 C949 0.950 . S
H930 C951 0.950 . S
H931 C954 0.950 . S
H932 C955 0.950 . S
H933 C957 0.950 . S
H934 C958 0.950 . S
H935 C959 0.951 . S
H936 C961 0.951 . S
H937 C963 0.950 . S
H938 C964 0.950 . S
H939 C966 0.950 . S
H940 C969 0.950 . S
H941 C970 0.950 . S
H942 C972 0.950 . S
H943 C973 0.950 . S
C944 H926 0.951 . S
C944 C945 1.366 . S
C944 C946 1.388 . S
C945 C944 1.366 . S
C945 C949 1.385 1_556 S
C946 H927 0.951 . S
C946 C944 1.388 . S
C946 C947 1.366 . S
C947 C946 1.366 . S
C947 C948 1.414 . S
C947 C950 1.499 . S
C948 H928 0.950 . S
C948 C947 1.414 . S
C948 C949 1.374 1_556 S
C949 H929 0.950 . S
C949 C945 1.385 1_554 S
C949 C948 1.374 1_554 S
C950 C947 1.499 . S
C950 C951 1.373 . S
C950 C952 1.389 . S
C951 H930 0.950 . S
C951 C950 1.373 . S
C951 C967 1.377 . S
C952 C950 1.389 . S
C952 C953 1.524 . S
C952 C966 1.377 . S
C953 C952 1.524 . S
C953 C954 1.397 . S
C953 C958 1.363 . S
C954 H931 0.950 . S
C954 C953 1.397 . S
C954 C955 1.334 . S
C955 H932 0.950 . S
C955 C954 1.334 . S
C955 C956 1.287 . S
C956 C955 1.287 . S
C956 C957 1.524 . S
C956 H975 0.913 . S
C957 H933 0.950 . S
C957 C956 1.524 . S
C957 C958 1.415 . S
C958 H934 0.950 . S
C958 C953 1.363 . S
C958 C957 1.415 . S
C959 H935 0.951 . S
C959 C960 1.366 . S
C959 C961 1.388 . S
C960 C959 1.366 . S
C960 C964 1.385 . S
C961 H936 0.951 . S
C961 C959 1.388 . S
C961 C962 1.366 . S
C962 C961 1.366 . S
C962 C963 1.414 . S
C962 C965 1.499 . S
C963 H937 0.950 . S
C963 C962 1.414 . S
C963 C964 1.374 . S
C964 H938 0.950 . S
C964 C960 1.385 . S
C964 C963 1.374 . S
C965 C962 1.499 . S
C965 C966 1.373 . S
C965 C967 1.389 . S
C966 H939 0.950 . S
C966 C952 1.377 . S
C966 C965 1.373 . S
C967 C951 1.377 . S
C967 C965 1.389 . S
C967 C968 1.524 . S
C968 C967 1.524 . S
C968 C969 1.397 . S
C968 C973 1.363 . S
C969 H940 0.950 . S
C969 C968 1.397 . S
C969 C970 1.334 . S
C970 H941 0.950 . S
C970 C969 1.334 . S
C970 C971 1.287 1_556 S
C971 C970 1.287 1_554 S
C971 C972 1.524 . S
C971 H974 0.999 . S
C972 H942 0.950 . S
C972 C971 1.524 . S
C972 C973 1.415 1_554 S
C973 H943 0.950 . S
C973 C968 1.363 . S
C973 C972 1.415 1_556 S
H974 C971 0.999 . S
H975 C956 0.913 . S
H976 C994 0.951 . S
H977 C996 0.951 . S
H978 C998 0.954 . S
H979 C999 0.950 . S
H980 C1001 0.950 . S
H981 C1004 0.950 . S
H982 C1005 0.950 . S
H983 C1007 0.950 . S
H984 C1008 0.950 . S
H985 C1009 0.951 . S
H986 C1011 0.951 . S
H987 C1013 0.950 . S
H988 C1014 0.950 . S
H989 C1016 0.950 . S
H990 C1019 0.950 . S
H991 C1020 0.950 . S
H992 C1022 0.950 . S
H993 C1023 0.950 . S
C994 H976 0.951 . S
C994 C995 1.355 1_655 S
C994 C996 1.388 . S
C995 C994 1.355 1_455 S
C995 C999 1.398 1_556 S
C996 H977 0.951 . S
C996 C994 1.388 . S
C996 C997 1.342 1_655 S
C997 C996 1.342 1_455 S
C997 C998 1.436 . S
C997 C1000 1.505 . S
C998 H978 0.954 . S
C998 C997 1.436 . S
C998 C999 1.374 1_556 S
C999 H979 0.950 . S
C999 C995 1.398 1_554 S
C999 C998 1.374 1_554 S
C1000 C997 1.505 . S
C1000 C1001 1.373 . S
C1000 C1002 1.389 1_455 S
C1001 H980 0.950 . S
C1001 C1000 1.373 . S
C1001 C1017 1.377 . S
C1002 C1000 1.389 1_655 S
C1002 C1003 1.524 . S
C1002 C1016 1.377 . S
C1003 C1002 1.524 . S
C1003 C1004 1.397 . S
C1003 C1008 1.363 . S
C1004 H981 0.950 . S
C1004 C1003 1.397 . S
C1004 C1005 1.334 . S
C1005 H982 0.950 . S
C1005 C1004 1.334 . S
C1005 C1006 1.287 . S
C1006 C1005 1.287 . S
C1006 C1007 1.524 . S
C1006 H1025 0.913 . S
C1007 H983 0.950 . S
C1007 C1006 1.524 . S
C1007 C1008 1.415 . S
C1008 H984 0.950 . S
C1008 C1003 1.363 . S
C1008 C1007 1.415 . S
C1009 H985 0.951 . S
C1009 C1010 1.366 . S
C1009 C1011 1.388 . S
C1010 C1009 1.366 . S
C1010 C1014 1.385 1_455 S
C1011 H986 0.951 . S
C1011 C1009 1.388 . S
C1011 C1012 1.366 . S
C1012 C1011 1.366 . S
C1012 C1013 1.414 1_455 S
C1012 C1015 1.499 . S
C1013 H987 0.950 . S
C1013 C1012 1.414 1_655 S
C1013 C1014 1.374 . S
C1014 H988 0.950 . S
C1014 C1010 1.385 1_655 S
C1014 C1013 1.374 . S
C1015 C1012 1.499 . S
C1015 C1016 1.373 1_455 S
C1015 C1017 1.389 . S
C1016 H989 0.950 . S
C1016 C1002 1.377 . S
C1016 C1015 1.373 1_655 S
C1017 C1001 1.377 . S
C1017 C1015 1.389 . S
C1017 C1018 1.524 . S
C1018 C1017 1.524 . S
C1018 C1019 1.397 . S
C1018 C1023 1.363 . S
C1019 H990 0.950 . S
C1019 C1018 1.397 . S
C1019 C1020 1.334 . S
C1020 H991 0.950 . S
C1020 C1019 1.334 . S
C1020 C1021 1.287 . S
C1021 C1020 1.287 . S
C1021 C1022 1.524 . S
C1021 H1024 0.999 . S
C1022 H992 0.950 . S
C1022 C1021 1.524 . S
C1022 C1023 1.415 . S
C1023 H993 0.950 . S
C1023 C1018 1.363 . S
C1023 C1022 1.415 . S
H1024 C1021 0.999 . S
H1025 C1006 0.913 . S
H1026 C1044 0.951 . S
H1027 C1046 0.951 . S
H1028 C1048 0.950 . S
H1029 C1049 0.950 . S
H1030 C1051 0.950 . S
H1031 C1054 0.950 . S
H1032 C1055 0.950 . S
H1033 C1057 0.950 . S
H1034 C1058 0.950 . S
H1035 C1059 0.951 . S
H1036 C1061 0.951 . S
H1037 C1063 0.950 . S
H1038 C1064 0.950 . S
H1039 C1066 0.950 . S
H1040 C1069 0.950 . S
H1041 C1070 0.950 . S
H1042 C1072 0.950 . S
H1043 C1073 0.950 1_545 S
C1044 H1026 0.951 . S
C1044 C1045 1.366 . S
C1044 C1046 1.388 . S
C1045 C1044 1.366 . S
C1045 C1049 1.385 1_554 S
C1046 H1027 0.951 . S
C1046 C1044 1.388 . S
C1046 C1047 1.366 1_554 S
C1047 C1046 1.366 1_556 S
C1047 C1048 1.414 . S
C1047 C1050 1.499 . S
C1048 H1028 0.950 . S
C1048 C1047 1.414 . S
C1048 C1049 1.374 . S
C1049 H1029 0.950 . S
C1049 C1045 1.385 1_556 S
C1049 C1048 1.374 . S
C1050 C1047 1.499 . S
C1050 C1051 1.373 . S
C1050 C1052 1.389 . S
C1051 H1030 0.950 . S
C1051 C1050 1.373 . S
C1051 C1067 1.377 . S
C1052 C1050 1.389 . S
C1052 C1053 1.524 . S
C1052 C1066 1.377 . S
C1053 C1052 1.524 . S
C1053 C1054 1.397 . S
C1053 C1058 1.363 1_556 S
C1054 H1031 0.950 . S
C1054 C1053 1.397 . S
C1054 C1055 1.334 . S
C1055 H1032 0.950 . S
C1055 C1054 1.334 . S
C1055 C1056 1.287 1_556 S
C1056 C1055 1.287 1_554 S
C1056 C1057 1.524 . S
C1056 H1075 0.913 . S
C1057 H1033 0.950 . S
C1057 C1056 1.524 . S
C1057 C1058 1.415 . S
C1058 H1034 0.950 . S
C1058 C1053 1.363 1_554 S
C1058 C1057 1.415 . S
C1059 H1035 0.951 . S
C1059 C1060 1.366 . S
C1059 C1061 1.388 . S
C1060 C1059 1.366 . S
C1060 C1064 1.385 . S
C1061 H1036 0.951 . S
C1061 C1059 1.388 . S
C1061 C1062 1.366 . S
C1062 C1061 1.366 . S
C1062 C1063 1.414 . S
C1062 C1065 1.499 . S
C1063 H1037 0.950 . S
C1063 C1062 1.414 . S
C1063 C1064 1.374 . S
C1064 H1038 0.950 . S
C1064 C1060 1.385 . S
C1064 C1063 1.374 . S
C1065 C1062 1.499 . S
C1065 C1066 1.373 . S
C1065 C1067 1.389 . S
C1066 H1039 0.950 . S
C1066 C1052 1.377 . S
C1066 C1065 1.373 . S
C1067 C1051 1.377 . S
C1067 C1065 1.389 . S
C1067 C1068 1.524 1_545 S
C1068 C1067 1.524 1_565 S
C1068 C1069 1.397 . S
C1068 C1073 1.363 . S
C1069 H1040 0.950 . S
C1069 C1068 1.397 . S
C1069 C1070 1.334 . S
C1070 H1041 0.950 . S
C1070 C1069 1.334 . S
C1070 C1071 1.287 . S
C1071 C1070 1.287 . S
C1071 C1072 1.524 . S
C1071 H1074 0.999 . S
C1072 H1042 0.950 . S
C1072 C1071 1.524 . S
C1072 C1073 1.415 . S
C1073 H1043 0.950 1_565 S
C1073 C1068 1.363 . S
C1073 C1072 1.415 . S
H1074 C1071 0.999 . S
H1075 C1056 0.913 . S
H1076 C1094 0.951 . S
H1077 C1096 0.951 . S
H1078 C1098 0.950 . S
H1079 C1099 0.950 1_554 S
H1080 C1101 0.950 . S
H1081 C1104 0.950 . S
H1082 C1105 0.950 . S
H1083 C1107 0.950 . S
H1084 C1108 0.950 . S
H1085 C1109 0.951 . S
H1086 C1111 0.951 . S
H1087 C1113 0.950 . S
H1088 C1114 0.950 . S
H1089 C1116 0.950 . S
H1090 C1119 0.950 . S
H1091 C1120 0.950 . S
H1092 C1122 0.950 . S
H1093 C1123 0.950 . S
C1094 H1076 0.951 . S
C1094 C1095 1.366 . S
C1094 C1096 1.388 . S
C1095 C1094 1.366 . S
C1095 C1099 1.385 . S
C1096 H1077 0.951 . S
C1096 C1094 1.388 . S
C1096 C1097 1.366 . S
C1097 C1096 1.366 . S
C1097 C1098 1.414 . S
C1097 C1100 1.499 . S
C1098 H1078 0.950 . S
C1098 C1097 1.414 . S
C1098 C1099 1.374 . S
C1099 H1079 0.950 1_556 S
C1099 C1095 1.385 . S
C1099 C1098 1.374 . S
C1100 C1097 1.499 . S
C1100 C1101 1.373 . S
C1100 C1102 1.389 . S
C1101 H1080 0.950 . S
C1101 C1100 1.373 . S
C1101 C1117 1.377 . S
C1102 C1100 1.389 . S
C1102 C1103 1.524 . S
C1102 C1116 1.377 . S
C1103 C1102 1.524 . S
C1103 C1104 1.397 . S
C1103 C1108 1.363 . S
C1104 H1081 0.950 . S
C1104 C1103 1.397 . S
C1104 C1105 1.334 . S
C1105 H1082 0.950 . S
C1105 C1104 1.334 . S
C1105 C1106 1.287 . S
C1106 C1105 1.287 . S
C1106 C1107 1.524 . S
C1106 H1125 0.913 . S
C1107 H1083 0.950 . S
C1107 C1106 1.524 . S
C1107 C1108 1.415 . S
C1108 H1084 0.950 . S
C1108 C1103 1.363 . S
C1108 C1107 1.415 . S
C1109 H1085 0.951 . S
C1109 C1110 1.366 . S
C1109 C1111 1.388 . S
C1110 C1109 1.366 . S
C1110 C1114 1.385 . S
C1111 H1086 0.951 . S
C1111 C1109 1.388 . S
C1111 C1112 1.366 . S
C1112 C1111 1.366 . S
C1112 C1113 1.414 . S
C1112 C1115 1.499 . S
C1113 H1087 0.950 . S
C1113 C1112 1.414 . S
C1113 C1114 1.374 . S
C1114 H1088 0.950 . S
C1114 C1110 1.385 . S
C1114 C1113 1.374 . S
C1115 C1112 1.499 . S
C1115 C1116 1.373 . S
C1115 C1117 1.389 . S
C1116 H1089 0.950 . S
C1116 C1102 1.377 . S
C1116 C1115 1.373 . S
C1117 C1101 1.377 . S
C1117 C1115 1.389 . S
C1117 C1118 1.524 . S
C1118 C1117 1.524 . S
C1118 C1119 1.397 . S
C1118 C1123 1.363 . S
C1119 H1090 0.950 . S
C1119 C1118 1.397 . S
C1119 C1120 1.334 . S
C1120 H1091 0.950 . S
C1120 C1119 1.334 . S
C1120 C1121 1.287 . S
C1121 C1120 1.287 . S
C1121 C1122 1.524 . S
C1121 H1124 0.999 . S
C1122 H1092 0.950 . S
C1122 C1121 1.524 . S
C1122 C1123 1.415 . S
C1123 H1093 0.950 . S
C1123 C1118 1.363 . S
C1123 C1122 1.415 . S
H1124 C1121 0.999 . S
H1125 C1106 0.913 . S
H1126 C1144 0.951 . S
H1127 C1146 0.951 . S
H1128 C1148 0.950 . S
H1129 C1149 0.950 1_554 S
H1130 C1151 0.950 . S
H1131 C1154 0.950 . S
H1132 C1155 0.950 . S
H1133 C1157 0.950 . S
H1134 C1158 0.950 . S
H1135 C1159 0.951 . S
H1136 C1161 0.951 . S
H1137 C1163 0.950 . S
H1138 C1164 0.950 . S
H1139 C1166 0.950 . S
H1140 C1169 0.950 . S
H1141 C1170 0.950 . S
H1142 C1172 0.950 . S
H1143 C1173 0.950 . S
C1144 H1126 0.951 . S
C1144 C1145 1.366 . S
C1144 C1146 1.388 . S
C1145 C1144 1.366 . S
C1145 C1149 1.385 . S
C1146 H1127 0.951 . S
C1146 C1144 1.388 . S
C1146 C1147 1.366 . S
C1147 C1146 1.366 . S
C1147 C1148 1.414 . S
C1147 C1150 1.499 . S
C1148 H1128 0.950 . S
C1148 C1147 1.414 . S
C1148 C1149 1.374 . S
C1149 H1129 0.950 1_556 S
C1149 C1145 1.385 . S
C1149 C1148 1.374 . S
C1150 C1147 1.499 . S
C1150 C1151 1.373 . S
C1150 C1152 1.389 . S
C1151 H1130 0.950 . S
C1151 C1150 1.373 . S
C1151 C1167 1.377 . S
C1152 C1150 1.389 . S
C1152 C1153 1.524 . S
C1152 C1166 1.377 . S
C1153 C1152 1.524 . S
C1153 C1154 1.397 . S
C1153 C1158 1.363 . S
C1154 H1131 0.950 . S
C1154 C1153 1.397 . S
C1154 C1155 1.334 . S
C1155 H1132 0.950 . S
C1155 C1154 1.334 . S
C1155 C1156 1.287 . S
C1156 C1155 1.287 . S
C1156 C1157 1.524 . S
C1156 H1175 0.913 . S
C1157 H1133 0.950 . S
C1157 C1156 1.524 . S
C1157 C1158 1.415 . S
C1158 H1134 0.950 . S
C1158 C1153 1.363 . S
C1158 C1157 1.415 . S
C1159 H1135 0.951 . S
C1159 C1160 1.366 . S
C1159 C1161 1.388 . S
C1160 C1159 1.366 . S
C1160 C1164 1.385 . S
C1161 H1136 0.951 . S
C1161 C1159 1.388 . S
C1161 C1162 1.366 . S
C1162 C1161 1.366 . S
C1162 C1163 1.414 . S
C1162 C1165 1.499 . S
C1163 H1137 0.950 . S
C1163 C1162 1.414 . S
C1163 C1164 1.374 . S
C1164 H1138 0.950 . S
C1164 C1160 1.385 . S
C1164 C1163 1.374 . S
C1165 C1162 1.499 . S
C1165 C1166 1.373 . S
C1165 C1167 1.389 . S
C1166 H1139 0.950 . S
C1166 C1152 1.377 . S
C1166 C1165 1.373 . S
C1167 C1151 1.377 . S
C1167 C1165 1.389 . S
C1167 C1168 1.524 . S
C1168 C1167 1.524 . S
C1168 C1169 1.397 . S
C1168 C1173 1.363 . S
C1169 H1140 0.950 . S
C1169 C1168 1.397 . S
C1169 C1170 1.334 . S
C1170 H1141 0.950 . S
C1170 C1169 1.334 . S
C1170 C1171 1.287 . S
C1171 C1170 1.287 . S
C1171 C1172 1.524 1_556 S
C1171 H1174 0.999 1_556 S
C1172 H1142 0.950 . S
C1172 C1171 1.524 1_554 S
C1172 C1173 1.415 1_554 S
C1173 H1143 0.950 . S
C1173 C1168 1.363 . S
C1173 C1172 1.415 1_556 S
H1174 C1171 0.999 1_554 S
H1175 C1156 0.913 . S
H1176 C1194 0.951 . S
H1177 C1196 0.951 . S
H1178 C1198 0.950 . S
H1179 C1199 0.950 . S
H1180 C1201 0.950 . S
H1181 C1204 0.950 . S
H1182 C1205 0.950 . S
H1183 C1207 0.950 . S
H1184 C1208 0.950 1_455 S
H1185 C1209 0.951 . S
H1186 C1211 0.951 . S
H1187 C1213 0.950 . S
H1188 C1214 0.950 . S
H1189 C1216 0.950 . S
H1190 C1219 0.950 . S
H1191 C1220 0.950 . S
H1192 C1222 0.950 . S
H1193 C1223 0.915 1_655 S
C1194 H1176 0.951 . S
C1194 C1195 1.354 1_455 S
C1194 C1196 1.388 . S
C1195 C1194 1.354 1_655 S
C1195 C1199 1.400 . S
C1196 H1177 0.951 . S
C1196 C1194 1.388 . S
C1196 C1197 1.366 1_455 S
C1197 C1196 1.366 1_655 S
C1197 C1198 1.414 . S
C1197 C1200 1.499 . S
C1198 H1178 0.950 . S
C1198 C1197 1.414 . S
C1198 C1199 1.374 . S
C1199 H1179 0.950 . S
C1199 C1195 1.400 . S
C1199 C1198 1.374 . S
C1200 C1197 1.499 . S
C1200 C1201 1.373 1_655 S
C1200 C1202 1.389 . S
C1201 H1180 0.950 . S
C1201 C1200 1.373 1_455 S
C1201 C1217 1.377 . S
C1202 C1200 1.389 . S
C1202 C1203 1.524 . S
C1202 C1216 1.377 . S
C1203 C1202 1.524 . S
C1203 C1204 1.397 . S
C1203 C1208 1.363 . S
C1204 H1181 0.950 . S
C1204 C1203 1.397 . S
C1204 C1205 1.334 . S
C1205 H1182 0.950 . S
C1205 C1204 1.334 . S
C1205 C1206 1.287 . S
C1206 C1205 1.287 . S
C1206 C1207 1.524 . S
C1206 H1225 0.913 . S
C1207 H1183 0.950 . S
C1207 C1206 1.524 . S
C1207 C1208 1.415 . S
C1208 H1184 0.950 1_655 S
C1208 C1203 1.363 . S
C1208 C1207 1.415 . S
C1209 H1185 0.951 . S
C1209 C1210 1.366 . S
C1209 C1211 1.388 . S
C1210 C1209 1.366 . S
C1210 C1214 1.385 1_655 S
C1211 H1186 0.951 . S
C1211 C1209 1.388 . S
C1211 C1212 1.366 . S
C1212 C1211 1.366 . S
C1212 C1213 1.414 1_655 S
C1212 C1215 1.499 . S
C1213 H1187 0.950 . S
C1213 C1212 1.414 1_455 S
C1213 C1214 1.374 . S
C1214 H1188 0.950 . S
C1214 C1210 1.385 1_455 S
C1214 C1213 1.374 . S
C1215 C1212 1.499 . S
C1215 C1216 1.373 . S
C1215 C1217 1.389 1_655 S
C1216 H1189 0.950 . S
C1216 C1202 1.377 . S
C1216 C1215 1.373 . S
C1217 C1201 1.377 . S
C1217 C1215 1.389 1_455 S
C1217 C1218 1.524 . S
C1218 C1217 1.524 . S
C1218 C1219 1.397 . S
C1218 C1223 1.386 . S
C1219 H1190 0.950 . S
C1219 C1218 1.397 . S
C1219 C1220 1.334 . S
C1220 H1191 0.950 . S
C1220 C1219 1.334 . S
C1220 C1221 1.287 . S
C1221 C1220 1.287 . S
C1221 C1222 1.524 . S
C1221 H1224 0.999 . S
C1222 H1192 0.950 . S
C1222 C1221 1.524 . S
C1222 C1223 1.429 . S
C1223 H1193 0.915 1_455 S
C1223 C1218 1.386 . S
C1223 C1222 1.429 . S
H1224 C1221 0.999 . S
H1225 C1206 0.913 . S
H1226 C1244 0.951 . S
H1227 C1246 0.951 . S
H1228 C1248 0.950 . S
H1229 C1249 0.950 . S
H1230 C1251 0.950 . S
H1231 C1254 0.950 . S
H1232 C1255 0.950 . S
H1233 C1257 0.950 . S
H1234 C1258 0.950 . S
H1235 C1259 0.951 . S
H1236 C1261 0.951 . S
H1237 C1263 0.950 . S
H1238 C1264 0.950 . S
H1239 C1266 0.950 . S
H1240 C1269 0.950 . S
H1241 C1270 0.950 . S
H1242 C1272 0.950 . S
H1243 C1273 0.950 . S
C1244 H1226 0.951 . S
C1244 C1245 1.366 . S
C1244 C1246 1.388 . S
C1245 C1244 1.366 . S
C1245 C1249 1.385 . S
C1246 H1227 0.951 . S
C1246 C1244 1.388 . S
C1246 C1247 1.366 . S
C1247 C1246 1.366 . S
C1247 C1248 1.414 . S
C1247 C1250 1.499 . S
C1248 H1228 0.950 . S
C1248 C1247 1.414 . S
C1248 C1249 1.374 . S
C1249 H1229 0.950 . S
C1249 C1245 1.385 . S
C1249 C1248 1.374 . S
C1250 C1247 1.499 . S
C1250 C1251 1.373 . S
C1250 C1252 1.389 . S
C1251 H1230 0.950 . S
C1251 C1250 1.373 . S
C1251 C1267 1.377 . S
C1252 C1250 1.389 . S
C1252 C1253 1.524 . S
C1252 C1266 1.377 . S
C1253 C1252 1.524 . S
C1253 C1254 1.397 1_565 S
C1253 C1258 1.363 . S
C1254 H1231 0.950 . S
C1254 C1253 1.397 1_545 S
C1254 C1255 1.334 . S
C1255 H1232 0.950 . S
C1255 C1254 1.334 . S
C1255 C1256 1.287 . S
C1256 C1255 1.287 . S
C1256 C1257 1.524 . S
C1256 H1275 0.913 . S
C1257 H1233 0.950 . S
C1257 C1256 1.524 . S
C1257 C1258 1.415 1_545 S
C1258 H1234 0.950 . S
C1258 C1253 1.363 . S
C1258 C1257 1.415 1_565 S
C1259 H1235 0.951 . S
C1259 C1260 1.366 . S
C1259 C1261 1.388 . S
C1260 C1259 1.366 . S
C1260 C1264 1.385 . S
C1261 H1236 0.951 . S
C1261 C1259 1.388 . S
C1261 C1262 1.366 . S
C1262 C1261 1.366 . S
C1262 C1263 1.414 . S
C1262 C1265 1.499 . S
C1263 H1237 0.950 . S
C1263 C1262 1.414 . S
C1263 C1264 1.374 . S
C1264 H1238 0.950 . S
C1264 C1260 1.385 . S
C1264 C1263 1.374 . S
C1265 C1262 1.499 . S
C1265 C1266 1.373 . S
C1265 C1267 1.389 . S
C1266 H1239 0.950 . S
C1266 C1252 1.377 . S
C1266 C1265 1.373 . S
C1267 C1251 1.377 . S
C1267 C1265 1.389 . S
C1267 C1268 1.524 . S
C1268 C1267 1.524 . S
C1268 C1269 1.397 . S
C1268 C1273 1.363 . S
C1269 H1240 0.950 . S
C1269 C1268 1.397 . S
C1269 C1270 1.334 . S
C1270 H1241 0.950 . S
C1270 C1269 1.334 . S
C1270 C1271 1.287 . S
C1271 C1270 1.287 . S
C1271 C1272 1.524 . S
C1271 H1274 0.999 . S
C1272 H1242 0.950 . S
C1272 C1271 1.524 . S
C1272 C1273 1.415 . S
C1273 H1243 0.950 . S
C1273 C1268 1.363 . S
C1273 C1272 1.415 . S
H1274 C1271 0.999 . S
H1275 C1256 0.913 . S
H1276 C1294 0.951 . S
H1277 C1296 0.951 . S
H1278 C1298 0.950 . S
H1279 C1299 0.950 . S
H1280 C1301 0.950 . S
H1281 C1304 0.950 . S
H1282 C1305 0.950 . S
H1283 C1307 0.950 . S
H1284 C1308 0.950 . S
H1285 C1309 0.951 . S
H1286 C1311 0.951 . S
H1287 C1313 0.950 . S
H1288 C1314 0.950 . S
H1289 C1316 0.950 . S
H1290 C1319 0.950 . S
H1291 C1320 0.950 . S
H1292 C1322 0.950 . S
H1293 C1323 0.950 . S
C1294 H1276 0.951 . S
C1294 C1295 1.366 . S
C1294 C1296 1.388 . S
C1295 C1294 1.366 . S
C1295 C1299 1.385 . S
C1296 H1277 0.951 . S
C1296 C1294 1.388 . S
C1296 C1297 1.366 . S
C1297 C1296 1.366 . S
C1297 C1298 1.414 . S
C1297 C1300 1.499 . S
C1298 H1278 0.950 . S
C1298 C1297 1.414 . S
C1298 C1299 1.374 . S
C1299 H1279 0.950 . S
C1299 C1295 1.385 . S
C1299 C1298 1.374 . S
C1300 C1297 1.499 . S
C1300 C1301 1.373 . S
C1300 C1302 1.389 . S
C1301 H1280 0.950 . S
C1301 C1300 1.373 . S
C1301 C1317 1.377 . S
C1302 C1300 1.389 . S
C1302 C1303 1.524 . S
C1302 C1316 1.377 . S
C1303 C1302 1.524 . S
C1303 C1304 1.397 . S
C1303 C1308 1.363 . S
C1304 H1281 0.950 . S
C1304 C1303 1.397 . S
C1304 C1305 1.334 . S
C1305 H1282 0.950 . S
C1305 C1304 1.334 . S
C1305 C1306 1.287 . S
C1306 C1305 1.287 . S
C1306 C1307 1.524 . S
C1306 H1325 0.913 . S
C1307 H1283 0.950 . S
C1307 C1306 1.524 . S
C1307 C1308 1.415 . S
C1308 H1284 0.950 . S
C1308 C1303 1.363 . S
C1308 C1307 1.415 . S
C1309 H1285 0.951 . S
C1309 C1310 1.366 . S
C1309 C1311 1.388 . S
C1310 C1309 1.366 . S
C1310 C1314 1.385 . S
C1311 H1286 0.951 . S
C1311 C1309 1.388 . S
C1311 C1312 1.366 . S
C1312 C1311 1.366 . S
C1312 C1313 1.414 . S
C1312 C1315 1.499 . S
C1313 H1287 0.950 . S
C1313 C1312 1.414 . S
C1313 C1314 1.374 . S
C1314 H1288 0.950 . S
C1314 C1310 1.385 . S
C1314 C1313 1.374 . S
C1315 C1312 1.499 . S
C1315 C1316 1.373 . S
C1315 C1317 1.389 . S
C1316 H1289 0.950 . S
C1316 C1302 1.377 . S
C1316 C1315 1.373 . S
C1317 C1301 1.377 . S
C1317 C1315 1.389 . S
C1317 C1318 1.524 . S
C1318 C1317 1.524 . S
C1318 C1319 1.397 . S
C1318 C1323 1.363 . S
C1319 H1290 0.950 . S
C1319 C1318 1.397 . S
C1319 C1320 1.334 . S
C1320 H1291 0.950 . S
C1320 C1319 1.334 . S
C1320 C1321 1.287 . S
C1321 C1320 1.287 . S
C1321 C1322 1.524 . S
C1321 H1324 0.999 . S
C1322 H1292 0.950 . S
C1322 C1321 1.524 . S
C1322 C1323 1.415 . S
C1323 H1293 0.950 . S
C1323 C1318 1.363 . S
C1323 C1322 1.415 . S
H1324 C1321 0.999 . S
H1325 C1306 0.913 . S
H1326 C1344 0.951 . S
H1327 C1346 0.951 . S
H1328 C1348 0.950 . S
H1329 C1349 0.950 . S
H1330 C1351 0.950 . S
H1331 C1354 0.950 . S
H1332 C1355 0.950 . S
H1333 C1357 0.950 . S
H1334 C1358 0.950 . S
H1335 C1359 0.951 . S
H1336 C1361 0.951 . S
H1337 C1363 0.950 . S
H1338 C1364 0.950 . S
H1339 C1366 0.950 . S
H1340 C1369 0.950 . S
H1341 C1370 0.950 . S
H1342 C1372 0.950 . S
H1343 C1373 0.950 . S
C1344 H1326 0.951 . S
C1344 C1345 1.366 . S
C1344 C1346 1.388 . S
C1345 C1344 1.366 . S
C1345 C1349 1.385 . S
C1346 H1327 0.951 . S
C1346 C1344 1.388 . S
C1346 C1347 1.366 . S
C1347 C1346 1.366 . S
C1347 C1348 1.414 . S
C1347 C1350 1.499 . S
C1348 H1328 0.950 . S
C1348 C1347 1.414 . S
C1348 C1349 1.374 . S
C1349 H1329 0.950 . S
C1349 C1345 1.385 . S
C1349 C1348 1.374 . S
C1350 C1347 1.499 . S
C1350 C1351 1.373 . S
C1350 C1352 1.389 . S
C1351 H1330 0.950 . S
C1351 C1350 1.373 . S
C1351 C1367 1.377 . S
C1352 C1350 1.389 . S
C1352 C1353 1.524 . S
C1352 C1366 1.377 . S
C1353 C1352 1.524 . S
C1353 C1354 1.397 . S
C1353 C1358 1.363 . S
C1354 H1331 0.950 . S
C1354 C1353 1.397 . S
C1354 C1355 1.334 . S
C1355 H1332 0.950 . S
C1355 C1354 1.334 . S
C1355 C1356 1.287 . S
C1356 C1355 1.287 . S
C1356 C1357 1.524 . S
C1356 H1375 0.913 . S
C1357 H1333 0.950 . S
C1357 C1356 1.524 . S
C1357 C1358 1.415 . S
C1358 H1334 0.950 . S
C1358 C1353 1.363 . S
C1358 C1357 1.415 . S
C1359 H1335 0.951 . S
C1359 C1360 1.366 . S
C1359 C1361 1.388 . S
C1360 C1359 1.366 . S
C1360 C1364 1.385 . S
C1361 H1336 0.951 . S
C1361 C1359 1.388 . S
C1361 C1362 1.366 . S
C1362 C1361 1.366 . S
C1362 C1363 1.414 . S
C1362 C1365 1.499 . S
C1363 H1337 0.950 . S
C1363 C1362 1.414 . S
C1363 C1364 1.374 . S
C1364 H1338 0.950 . S
C1364 C1360 1.385 . S
C1364 C1363 1.374 . S
C1365 C1362 1.499 . S
C1365 C1366 1.373 . S
C1365 C1367 1.389 . S
C1366 H1339 0.950 . S
C1366 C1352 1.377 . S
C1366 C1365 1.373 . S
C1367 C1351 1.377 . S
C1367 C1365 1.389 . S
C1367 C1368 1.524 . S
C1368 C1367 1.524 . S
C1368 C1369 1.397 . S
C1368 C1373 1.363 . S
C1369 H1340 0.950 . S
C1369 C1368 1.397 . S
C1369 C1370 1.334 . S
C1370 H1341 0.950 . S
C1370 C1369 1.334 . S
C1370 C1371 1.287 . S
C1371 C1370 1.287 . S
C1371 C1372 1.524 . S
C1371 H1374 0.999 . S
C1372 H1342 0.950 . S
C1372 C1371 1.524 . S
C1372 C1373 1.415 . S
C1373 H1343 0.950 . S
C1373 C1368 1.363 . S
C1373 C1372 1.415 . S
H1374 C1371 0.999 . S
H1375 C1356 0.913 . S
C195 C76 1.670 . S
C210 C104 1.710 . S
C260 C134 1.830 . S
C245 C88 1.768 . S
C310 C144 1.446 . S
C295 C52 1.393 . S
C360 C164 1.293 . S
C345 C64 1.262 1_455 S
C410 C105 1.716 . S
C395 C28 1.686 . S
C445 C40 1.776 . S
C460 C135 1.830 . S
C495 C4 1.395 1_556 S
C510 C145 1.446 . S
C545 C16 1.257 . S
C560 C165 1.308 . S
C610 C97 0.669 . S
C595 C69 0.677 . S
C660 C118 0.284 . S
C645 C81 0.411 . S
C710 C137 0.862 . S
C695 C93 0.857 . S
C745 C57 0.552 . S
C760 C157 0.530 . S
C795 C21 0.672 1_655 S
C810 C98 0.668 . S
C860 C117 0.284 . S
C845 C33 0.436 . S
C910 C138 0.862 . S
C895 C45 0.855 . S
C945 C9 0.553 1_556 S
C960 C158 0.544 . S
C995 C66 1.487 1_556 S
C1010 C115 1.551 . S
C1045 C78 1.321 . S
C1060 C125 1.383 . S
C1110 C155 1.784 . S
C1095 C90 1.699 . S
C1160 C175 1.792 . S
C1145 C54 1.710 1_556 S
C1195 C18 1.484 1_655 S
C1210 C114 1.552 . S
C1260 C124 1.384 . S
C1245 C30 1.310 . S
C1310 C154 1.784 . S
C1295 C42 1.689 . S
C1345 C6 1.715 . S
C1360 C174 1.798 . S
