# Generated by pormake.
# Topology nom, (4,4)-cn, num edge types: 1
# Building blocks:
#     Node 0, Type 0, BuildingBlock: MIFKUJ_clean_linker_1, # of connection points: 4
#     Node 1, Type 0, BuildingBlock: MIFKUJ_clean_linker_1, # of connection points: 4
#     Node 2, Type 0, BuildingBlock: MIFKUJ_clean_linker_1, # of connection points: 4
#     Node 3, Type 0, BuildingBlock: MIFKUJ_clean_linker_1, # of connection points: 4
#     Node 4, Type 0, BuildingBlock: MIFKUJ_clean_linker_1, # of connection points: 4
#     Node 5, Type 0, BuildingBlock: MIFKUJ_clean_linker_1, # of connection points: 4
#     Node 6, Type 1, BuildingBlock: AZAVOO_clean_sbu_0, # of connection points: 4
#     Node 7, Type 1, BuildingBlock: AZAVOO_clean_sbu_0, # of connection points: 4
#     Node 8, Type 1, BuildingBlock: AZAVOO_clean_sbu_0, # of connection points: 4
#     Node 9, Type 1, BuildingBlock: AZAVOO_clean_sbu_0, # of connection points: 4
#     Node 10, Type 1, BuildingBlock: AZAVOO_clean_sbu_0, # of connection points: 4
#     Node 11, Type 1, BuildingBlock: AZAVOO_clean_sbu_0, # of connection points: 4
#     Edge 12, Type (0, 1), BuildingBlock: KIFKEQ_clean_linker_1, # of connection points: 2
#     Edge 13, Type (0, 1), BuildingBlock: KIFKEQ_clean_linker_1, # of connection points: 2
#     Edge 14, Type (0, 1), BuildingBlock: KIFKEQ_clean_linker_1, # of connection points: 2
#     Edge 15, Type (0, 1), BuildingBlock: KIFKEQ_clean_linker_1, # of connection points: 2
#     Edge 16, Type (0, 1), BuildingBlock: KIFKEQ_clean_linker_1, # of connection points: 2
#     Edge 17, Type (0, 1), BuildingBlock: KIFKEQ_clean_linker_1, # of connection points: 2
#     Edge 18, Type (0, 1), BuildingBlock: KIFKEQ_clean_linker_1, # of connection points: 2
#     Edge 19, Type (0, 1), BuildingBlock: KIFKEQ_clean_linker_1, # of connection points: 2
#     Edge 20, Type (0, 1), BuildingBlock: KIFKEQ_clean_linker_1, # of connection points: 2
#     Edge 21, Type (0, 1), BuildingBlock: KIFKEQ_clean_linker_1, # of connection points: 2
#     Edge 22, Type (0, 1), BuildingBlock: KIFKEQ_clean_linker_1, # of connection points: 2
#     Edge 23, Type (0, 1), BuildingBlock: KIFKEQ_clean_linker_1, # of connection points: 2
#     Edge 24, Type (0, 1), BuildingBlock: KIFKEQ_clean_linker_1, # of connection points: 2
#     Edge 25, Type (0, 1), BuildingBlock: KIFKEQ_clean_linker_1, # of connection points: 2
#     Edge 26, Type (0, 1), BuildingBlock: KIFKEQ_clean_linker_1, # of connection points: 2
#     Edge 27, Type (0, 1), BuildingBlock: KIFKEQ_clean_linker_1, # of connection points: 2
#     Edge 28, Type (0, 1), BuildingBlock: KIFKEQ_clean_linker_1, # of connection points: 2
#     Edge 29, Type (0, 1), BuildingBlock: KIFKEQ_clean_linker_1, # of connection points: 2
#     Edge 30, Type (0, 1), BuildingBlock: KIFKEQ_clean_linker_1, # of connection points: 2
#     Edge 31, Type (0, 1), BuildingBlock: KIFKEQ_clean_linker_1, # of connection points: 2
#     Edge 32, Type (0, 1), BuildingBlock: KIFKEQ_clean_linker_1, # of connection points: 2
#     Edge 33, Type (0, 1), BuildingBlock: KIFKEQ_clean_linker_1, # of connection points: 2
#     Edge 34, Type (0, 1), BuildingBlock: KIFKEQ_clean_linker_1, # of connection points: 2
#     Edge 35, Type (0, 1), BuildingBlock: KIFKEQ_clean_linker_1, # of connection points: 2
# Relax obj value: 0.035
# Max RMSD: 0.156
# Mean RMSD: 0.123
data_MOF--net-nom--node1-AZAVOO_clean_sbu_0--node2-MIFKUJ_clean_linker_1--edge1-KIFKEQ_clean_linker_1
_symmetry_space_group_name_H-M    P1
_symmetry_Int_Tables_number       1
_symmetry_cell_setting            triclinic
loop_
_symmetry_equiv_pos_as_xyz
'x, y, z'
_cell_length_a     54.207497
_cell_length_b     54.66907
_cell_length_c     55.528561
_cell_angle_alpha  91.114002
_cell_angle_beta   91.087378
_cell_angle_gamma 119.95819
loop_
_atom_site_label
_atom_site_type_symbol
_atom_site_fract_x
_atom_site_fract_y
_atom_site_fract_z
_atom_type_partial_charge
H0 H 0.97263 0.4564 0.28155 0.0
H1 H 0.93631 0.43744 0.24898 0.0
H2 H 0.90348 0.49051 0.27442 0.0
H3 H 0.94038 0.50993 0.30663 0.0
H4 H 0.01549 0.51156 0.29098 0.0
H5 H 0.93286 0.43977 0.3342 0.0
H6 H 0.88345 0.41841 0.34661 0.0
H7 H 0.90115 0.49935 0.37684 0.0
H8 H 0.95054 0.52007 0.36517 0.0
H9 H 0.03923 0.56106 0.38657 0.0
H10 H 0.07547 0.57615 0.41939 0.0
H11 H 0.09731 0.51434 0.39437 0.0
H12 H 0.06167 0.49986 0.36124 0.0
H13 H 0.99175 0.50477 0.37738 0.0
H14 H 0.06842 0.57722 0.33903 0.0
H15 H 0.1168 0.60709 0.3258 0.0
H16 H 0.11147 0.53606 0.28545 0.0
H17 H 0.06262 0.50626 0.29861 0.0
C18 C 0.95909 0.48439 0.29667 0.0
C19 C 0.9576 0.46395 0.28011 0.0
C20 C 0.93666 0.45295 0.26162 0.0
C21 C 0.91684 0.46231 0.25917 0.0
C22 C 0.91848 0.48294 0.27572 0.0
C23 C 0.93942 0.49388 0.29426 0.0
C24 C 0.98155 0.49604 0.31617 0.0
C25 C 0.01026 0.50957 0.30986 0.0
C26 C 0.97489 0.49478 0.34081 0.0
C27 C 0.94519 0.48149 0.34867 0.0
C28 C 0.926 0.45277 0.34363 0.0
C29 C 0.89778 0.44066 0.35066 0.0
C30 C 0.88825 0.45714 0.36275 0.0
C31 C 0.90779 0.48585 0.36802 0.0
C32 C 0.93601 0.49782 0.3612 0.0
C33 C 0.04786 0.5294 0.37153 0.0
C34 C 0.05199 0.55095 0.38809 0.0
C35 C 0.07271 0.55961 0.40668 0.0
C36 C 0.08905 0.54634 0.4093 0.0
C37 C 0.08489 0.52481 0.3927 0.0
C38 C 0.06464 0.51659 0.37381 0.0
C39 C 0.02551 0.51961 0.35215 0.0
C40 C 0.99693 0.50644 0.35849 0.0
C41 C 0.0323 0.52194 0.32757 0.0
C42 C 0.06206 0.53944 0.32003 0.0
C43 C 0.07781 0.56796 0.32762 0.0
C44 C 0.10553 0.58501 0.32009 0.0
C45 C 0.11812 0.57394 0.30469 0.0
C46 C 0.10231 0.54529 0.29715 0.0
C47 C 0.07446 0.52822 0.30469 0.0
H48 H 0.42602 0.96211 0.52489 0.0
H49 H 0.39312 0.9131 0.53424 0.0
H50 H 0.45385 0.88958 0.50949 0.0
H51 H 0.48637 0.93876 0.49955 0.0
H52 H 0.48341 -0.00104 0.5418 0.0
H53 H 0.43024 0.95135 0.46611 0.0
H54 H 0.41569 0.91508 0.43393 0.0
H55 H 0.50408 0.94733 0.41752 0.0
H56 H 0.51843 0.98279 0.45021 0.0
H57 H 0.55559 0.07105 0.46474 0.0
H58 H 0.57376 0.11936 0.45132 0.0
H59 H 0.51011 0.12554 0.49252 0.0
H60 H 0.49231 0.07763 0.50587 0.0
H61 H 0.5051 0.02557 0.45663 0.0
H62 H 0.56144 0.06651 0.52799 0.0
H63 H 0.58446 0.10102 0.56158 0.0
H64 H 0.50201 0.08297 0.58573 0.0
H65 H 0.47892 0.04777 0.55242 0.0
C66 C 0.45854 0.95399 0.51151 0.0
C67 C 0.43229 0.94639 0.52164 0.0
C68 C 0.41355 0.91835 0.52704 0.0
C69 C 0.42084 0.89734 0.52268 0.0
C70 C 0.44738 0.90512 0.51276 0.0
C71 C 0.46607 0.93322 0.50722 0.0
C72 C 0.47745 0.9836 0.50488 0.0
C73 C 0.48798 0.00479 0.52317 0.0
C74 C 0.48469 0.99108 0.48071 0.0
C75 C 0.47545 0.96956 0.46075 0.0
C76 C 0.44646 0.95041 0.4557 0.0
C77 C 0.43818 0.92984 0.43717 0.0
C78 C 0.45873 0.92816 0.42323 0.0
C79 C 0.48771 0.94766 0.42818 0.0
C80 C 0.49596 0.96815 0.4467 0.0
C81 C 0.52284 0.07084 0.48656 0.0
C82 C 0.54578 0.08297 0.47103 0.0
C83 C 0.55605 0.11052 0.46332 0.0
C84 C 0.54343 0.12634 0.4709 0.0
C85 C 0.52072 0.11421 0.48672 0.0
C86 C 0.5105 0.08676 0.49438 0.0
C87 C 0.51025 0.04098 0.49347 0.0
C88 C 0.50084 0.01975 0.47529 0.0
C89 C 0.50494 0.03332 0.51777 0.0
C90 C 0.51851 0.05464 0.53777 0.0
C91 C 0.54832 0.07001 0.5405 0.0
C92 C 0.56143 0.08961 0.55965 0.0
C93 C 0.54494 0.09457 0.5761 0.0
C94 C 0.51511 0.07955 0.57315 0.0
C95 C 0.50196 0.05942 0.55428 0.0
H96 H 0.55217 0.57329 0.67872 0.0
H97 H 0.53922 0.5929 0.71311 0.0
H98 H 0.45034 0.53248 0.69808 0.0
H99 H 0.46344 0.51275 0.66402 0.0
H100 H 0.54008 0.51708 0.67374 0.0
H101 H 0.51691 0.58044 0.62848 0.0
H102 H 0.485 0.5979 0.61618 0.0
H103 H 0.42099 0.51298 0.59337 0.0
H104 H 0.45325 0.49603 0.60499 0.0
H105 H 0.49531 0.45449 0.58422 0.0
H106 H 0.50902 0.43296 0.55207 0.0
H107 H 0.5976 0.49546 0.56666 0.0
H108 H 0.58363 0.51554 0.59962 0.0
H109 H 0.50628 0.5106 0.58894 0.0
H110 H 0.51698 0.44465 0.63166 0.0
H111 H 0.53497 0.41537 0.64796 0.0
H112 H 0.60808 0.48987 0.67946 0.0
H113 H 0.58958 0.51917 0.66322 0.0
C114 C 0.50875 0.54176 0.66869 0.0
C115 C 0.52989 0.56445 0.68276 0.0
C116 C 0.52247 0.57568 0.70232 0.0
C117 C 0.49378 0.56415 0.70834 0.0
C118 C 0.47265 0.5416 0.69404 0.0
C119 C 0.48007 0.53051 0.67442 0.0
C120 C 0.5168 0.52863 0.64904 0.0
C121 C 0.53337 0.51635 0.65508 0.0
C122 C 0.50639 0.526 0.625 0.0
C123 C 0.48738 0.53694 0.61769 0.0
C124 C 0.49599 0.56567 0.62079 0.0
C125 C 0.47769 0.57558 0.6138 0.0
C126 C 0.45041 0.55689 0.60367 0.0
C127 C 0.44202 0.52813 0.60058 0.0
C128 C 0.46036 0.51833 0.60739 0.0
C129 C 0.53847 0.48654 0.59425 0.0
C130 C 0.51767 0.46335 0.58049 0.0
C131 C 0.5256 0.45119 0.56201 0.0
C132 C 0.5545 0.46243 0.55655 0.0
C133 C 0.57522 0.48573 0.57053 0.0
C134 C 0.56728 0.49748 0.58929 0.0
C135 C 0.53021 0.4998 0.61358 0.0
C136 C 0.51359 0.51196 0.60751 0.0
C137 C 0.53944 0.50122 0.63778 0.0
C138 C 0.55213 0.48415 0.64596 0.0
C139 C 0.53721 0.45479 0.64161 0.0
C140 C 0.54756 0.43804 0.65095 0.0
C141 C 0.57304 0.45026 0.66497 0.0
C142 C 0.58825 0.47977 0.66895 0.0
C143 C 0.5778 0.49656 0.6596 0.0
H144 H 0.03967 0.58318 0.78236 0.0
H145 H 0.07104 0.59539 0.7481 0.0
H146 H 0.09129 0.531 0.76738 0.0
H147 H 0.06041 0.51942 0.80178 0.0
H148 H 0.99176 0.52727 0.79168 0.0
H149 H 0.08617 0.59692 0.83147 0.0
H150 H 0.13623 0.61085 0.8403 0.0
H151 H 0.10912 0.52894 0.86952 0.0
H152 H 0.05943 0.51522 0.86081 0.0
H153 H 0.98647 0.48778 0.88773 0.0
H154 H 0.95496 0.4725 0.922 0.0
H155 H 0.91885 0.52313 0.89851 0.0
H156 H 0.95032 0.53824 0.86408 0.0
H157 H 0.02741 0.53902 0.87648 0.0
H158 H 0.94899 0.46505 0.84044 0.0
H159 H 0.90104 0.43044 0.82664 0.0
H160 H 0.89473 0.4947 0.78727 0.0
H161 H 0.94355 0.52943 0.80092 0.0
C162 C 0.04812 0.55074 0.79475 0.0
C163 C 0.051 0.57182 0.77918 0.0
C164 C 0.06877 0.57862 0.75955 0.0
C165 C 0.08375 0.56422 0.75502 0.0
C166 C 0.08051 0.54287 0.77058 0.0
C167 C 0.06283 0.53618 0.79024 0.0
C168 C 0.02891 0.5432 0.81526 0.0
C169 C -0.00047 0.53069 0.81029 0.0
C170 C 0.03899 0.54559 0.83934 0.0
C171 C 0.06919 0.55504 0.84545 0.0
C172 C 0.0911 0.5821 0.8399 0.0
C173 C 0.11957 0.59005 0.84504 0.0
C174 C 0.12642 0.57089 0.85549 0.0
C175 C 0.10439 0.544 0.86128 0.0
C176 C 0.07605 0.53622 0.85645 0.0
C177 C 0.97068 0.51411 0.87339 0.0
C178 C 0.97177 0.49559 0.88996 0.0
C179 C 0.95371 0.48679 0.90943 0.0
C180 C 0.93459 0.49673 0.91287 0.0
C181 C 0.93359 0.51537 0.89633 0.0
C182 C 0.95137 0.52384 0.87663 0.0
C183 C 0.99021 0.52377 0.853 0.0
C184 C 0.01959 0.53661 0.85796 0.0
C185 C 0.97999 0.51977 0.8288 0.0
C186 C 0.94966 0.49998 0.82213 0.0
C187 C 0.9371 0.47192 0.8293 0.0
C188 C 0.90958 0.45209 0.82135 0.0
C189 C 0.89382 0.45978 0.80599 0.0
C190 C 0.90633 0.48802 0.79895 0.0
C191 C 0.9341 0.50792 0.80687 0.0
H192 H 0.56688 0.06444 0.02462 0.0
H193 H 0.59882 0.11304 0.03855 0.0
H194 H 0.53768 0.13625 0.01291 0.0
H195 H 0.5062 0.08745 0.99817 0.0
H196 H 0.51035 0.02991 0.04014 0.0
H197 H 0.56057 0.06813 0.96523 0.0
H198 H 0.57554 0.09888 0.93062 0.0
H199 H 0.48756 0.07215 0.91278 0.0
H200 H 0.47275 0.04162 0.94755 0.0
H201 H 0.43573 0.95142 0.96114 0.0
H202 H 0.41983 0.90338 0.94577 0.0
H203 H 0.48554 0.90149 0.98967 0.0
H204 H 0.50092 0.94907 0.00513 0.0
H205 H 0.48495 0.99686 0.95473 0.0
H206 H 0.43238 0.95675 0.02391 0.0
H207 H 0.41255 0.92761 0.0589 0.0
H208 H 0.49785 0.95739 0.0879 0.0
H209 H 0.51738 0.98726 0.05326 0.0
C210 C 0.53425 0.07241 0.01036 0.0
C211 C 0.56045 0.08006 0.0219 0.0
C212 C 0.57856 0.10784 0.03006 0.0
C213 C 0.5707 0.12858 0.0272 0.0
C214 C 0.54453 0.12091 0.01527 0.0
C215 C 0.52648 0.09305 0.00687 0.0
C216 C 0.51472 0.04242 0.00327 0.0
C217 C 0.50493 0.02262 0.02145 0.0
C218 C 0.5063 0.0331 0.97905 0.0
C219 C 0.51559 0.05286 0.95902 0.0
C220 C 0.54457 0.06918 0.95402 0.0
C221 C 0.55305 0.08648 0.93413 0.0
C222 C 0.53268 0.0878 0.91899 0.0
C223 C 0.5037 0.07171 0.92425 0.0
C224 C 0.49523 0.05423 0.94402 0.0
C225 C 0.46936 0.95381 0.98445 0.0
C226 C 0.44638 0.94044 0.96771 0.0
C227 C 0.43744 0.91303 0.95885 0.0
C228 C 0.45148 0.89856 0.96639 0.0
C229 C 0.47389 0.91172 0.98375 0.0
C230 C 0.48273 0.93902 0.99264 0.0
C231 C 0.4815 0.98409 0.99159 0.0
C232 C 0.48987 0.00402 0.97347 0.0
C233 C 0.48802 0.99365 0.01593 0.0
C234 C 0.47632 0.97408 0.03602 0.0
C235 C 0.44677 0.95674 0.03773 0.0
C236 C 0.43548 0.94008 0.05775 0.0
C237 C 0.45358 0.94027 0.07635 0.0
C238 C 0.48325 0.9572 0.07422 0.0
C239 C 0.49448 0.97409 0.05433 0.0
H240 H 0.45636 0.45369 0.18658 0.0
H241 H 0.46977 0.43451 0.22077 0.0
H242 H 0.55858 0.49369 0.20952 0.0
H243 H 0.54503 0.51289 0.17558 0.0
H244 H 0.4711 0.51177 0.18191 0.0
H245 H 0.48957 0.44224 0.14216 0.0
H246 H 0.52134 0.42328 0.13533 0.0
H247 H 0.58279 0.50236 0.10522 0.0
H248 H 0.55153 0.52155 0.11312 0.0
H249 H 0.51169 0.557 0.08621 0.0
H250 H 0.49731 0.57427 0.05152 0.0
H251 H 0.41161 0.53581 0.07742 0.0
H252 H 0.42577 0.51741 0.11138 0.0
H253 H 0.49898 0.50803 0.09797 0.0
H254 H 0.49717 0.5813 0.14039 0.0
H255 H 0.48543 0.6148 0.15934 0.0
H256 H 0.41054 0.5456 0.1889 0.0
H257 H 0.42245 0.51201 0.16993 0.0
C258 C 0.49974 0.48447 0.17847 0.0
C259 C 0.4787 0.46245 0.19152 0.0
C260 C 0.48637 0.45148 0.21093 0.0
C261 C 0.5152 0.46266 0.2178 0.0
C262 C 0.53619 0.48487 0.20478 0.0
C263 C 0.52852 0.49568 0.18528 0.0
C264 C 0.49153 0.49637 0.15821 0.0
C265 C 0.47647 0.51036 0.1634 0.0
C266 C 0.50039 0.4961 0.13447 0.0
C267 C 0.5183 0.48345 0.12842 0.0
C268 C 0.50994 0.45551 0.13417 0.0
C269 C 0.52805 0.44462 0.13008 0.0
C270 C 0.55477 0.46138 0.11992 0.0
C271 C 0.56265 0.48906 0.11353 0.0
C272 C 0.54462 0.49996 0.11774 0.0
C273 C 0.46987 0.53589 0.10152 0.0
C274 C 0.48979 0.55229 0.08444 0.0
C275 C 0.4816 0.56243 0.06471 0.0
C276 C 0.45326 0.5564 0.06159 0.0
C277 C 0.43352 0.54055 0.07904 0.0
C278 C 0.44169 0.5303 0.09869 0.0
C279 C 0.47805 0.52335 0.12154 0.0
C280 C 0.49302 0.5091 0.11633 0.0
C281 C 0.47053 0.52469 0.1456 0.0
C282 C 0.46055 0.54417 0.15361 0.0
C283 C 0.47786 0.57327 0.15047 0.0
C284 C 0.47133 0.59239 0.16152 0.0
C285 C 0.44728 0.58272 0.17577 0.0
C286 C 0.42918 0.55353 0.17797 0.0
C287 C 0.43594 0.53439 0.16715 0.0
Mg288 Mg 0.617 0.36292 0.36459 0.0
O289 O 0.61084 0.38401 0.39844 0.0
O290 O 0.63188 0.43039 0.39226 0.0
Mg291 Mg 0.64924 0.43857 0.35433 0.0
C292 C 0.61811 0.40918 0.40548 0.0
C293 C 0.5867 0.3116 0.39997 0.0
O294 O 0.57073 0.32276 0.40491 0.0
O295 O 0.66388 0.38107 0.3745 0.0
O296 O 0.68266 0.42673 0.36628 0.0
O297 O 0.57616 0.35668 0.3482 0.0
O298 O 0.61835 0.3944 0.34365 0.0
C299 C 0.68523 0.40593 0.3732 0.0
C300 C 0.59124 0.38158 0.33955 0.0
O301 O 0.60621 0.32319 0.38482 0.0
Mg302 Mg 0.26711 0.64245 0.59607 0.0
O303 O 0.23669 0.62015 0.56343 0.0
O304 O 0.21236 0.57401 0.57071 0.0
Mg305 Mg 0.22501 0.56731 0.60851 0.0
C306 C 0.21831 0.59472 0.55715 0.0
C307 C 0.28389 0.69859 0.57046 0.0
O308 O 0.25848 0.69213 0.57774 0.0
O309 O 0.29558 0.62465 0.58561 0.0
O310 O 0.2698 0.57952 0.59579 0.0
O311 O 0.23402 0.6489 0.61356 0.0
O312 O 0.239 0.61162 0.61865 0.0
C313 C 0.29257 0.60012 0.58791 0.0
C314 C 0.22512 0.62456 0.62304 0.0
O315 O 0.29316 0.68177 0.57449 0.0
Mg316 Mg 0.63495 0.27114 0.76224 0.0
O317 O 0.62706 0.24175 0.7294 0.0
O318 O 0.64775 0.21615 0.73761 0.0
Mg319 Mg 0.6656 0.22672 0.77655 0.0
C320 C 0.63365 0.22312 0.72341 0.0
C321 C 0.61471 0.31307 0.75048 0.0
O322 O 0.61064 0.31013 0.77374 0.0
O323 O 0.68204 0.29859 0.75459 0.0
O324 O 0.69972 0.27166 0.76706 0.0
O325 O 0.59408 0.23852 0.77771 0.0
O326 O 0.63589 0.24194 0.78492 0.0
C327 C 0.70313 0.29494 0.75919 0.0
C328 C 0.60889 0.22878 0.78805 0.0
O329 O 0.62418 0.29892 0.73966 0.0
Mg330 Mg 0.39749 0.65684 0.86794 0.0
O331 O 0.40311 0.63351 0.89992 0.0
O332 O 0.38316 0.58799 0.88848 0.0
Mg333 Mg 0.36526 0.58206 0.84989 0.0
C334 C 0.39641 0.60806 0.90417 0.0
C335 C 0.42157 0.71943 0.88267 0.0
O336 O 0.42885 0.72082 0.86009 0.0
O337 O 0.35042 0.63844 0.87525 0.0
O338 O 0.33191 0.59341 0.86253 0.0
O339 O 0.43823 0.66357 0.85206 0.0
O340 O 0.39584 0.62668 0.84368 0.0
C341 C 0.32914 0.6137 0.87121 0.0
C342 C 0.42284 0.63952 0.84063 0.0
O343 O 0.4088 0.69541 0.89218 0.0
Mg344 Mg 0.74725 0.39524 0.06698 0.0
O345 O 0.77458 0.40063 0.10144 0.0
O346 O 0.80089 0.38093 0.0921 0.0
Mg347 Mg 0.79258 0.36524 0.05277 0.0
C348 C 0.79317 0.39362 0.10712 0.0
C349 C 0.69306 0.39628 0.07607 0.0
O350 O 0.68844 0.38231 0.0554 0.0
O351 O 0.71901 0.34806 0.07231 0.0
O352 O 0.74686 0.33089 0.06082 0.0
O353 O 0.78068 0.43672 0.05344 0.0
O354 O 0.7787 0.39601 0.04573 0.0
C355 C 0.72299 0.32733 0.06783 0.0
C356 C 0.79167 0.42294 0.0434 0.0
O357 O 0.7168 0.40494 0.08728 0.0
Mg358 Mg 0.36915 0.75926 0.23183 0.0
O359 O 0.39014 0.78636 0.26644 0.0
O360 O 0.43618 0.81432 0.25884 0.0
Mg361 Mg 0.44408 0.80728 0.21968 0.0
C362 C 0.41535 0.80551 0.27302 0.0
C363 C 0.30696 0.71714 0.23938 0.0
O364 O 0.30739 0.72492 0.21707 0.0
O365 O 0.3905 0.73305 0.23807 0.0
O366 O 0.43488 0.76231 0.22687 0.0
O367 O 0.3586 0.79119 0.21801 0.0
O368 O 0.39871 0.79138 0.21125 0.0
C369 C 0.41562 0.73814 0.23361 0.0
C370 C 0.38349 0.80323 0.20863 0.0
O371 O 0.33017 0.7282 0.25177 0.0
H372 H 0.13732 0.57506 0.25926 0.0
H373 H 0.16461 0.61543 0.33001 0.0
H374 H 0.18383 0.60805 0.244 0.0
H375 H 0.21061 0.64934 0.31446 0.0
H376 H 0.29914 0.69204 0.28297 0.0
H377 H 0.2545 0.65547 0.29897 0.0
H378 H 0.20918 0.65716 0.23472 0.0
H379 H 0.25373 0.693 0.21851 0.0
C380 C 0.15332 0.59079 0.27162 0.0
C381 C 0.14716 0.59269 0.29583 0.0
C382 C 0.17987 0.60997 0.2628 0.0
C383 C 0.20086 0.63156 0.27793 0.0
C384 C 0.19502 0.63289 0.30232 0.0
C385 C 0.16851 0.61365 0.31118 0.0
C386 C 0.27963 0.68456 0.27228 0.0
C387 C 0.27997 0.69541 0.24947 0.0
C388 C 0.25404 0.66368 0.28148 0.0
C389 C 0.22826 0.65328 0.26809 0.0
C390 C 0.22869 0.66426 0.24532 0.0
C391 C 0.25423 0.68501 0.2361 0.0
H392 H 0.54994 0.17325 0.49553 0.0
H393 H 0.55755 0.14372 0.42482 0.0
H394 H 0.56155 0.21879 0.47922 0.0
H395 H 0.56936 0.18925 0.40862 0.0
H396 H 0.61503 0.28271 0.39233 0.0
H397 H 0.60666 0.23916 0.41048 0.0
H398 H 0.53901 0.23741 0.45164 0.0
H399 H 0.54761 0.28132 0.43371 0.0
C400 C 0.5541 0.17647 0.47652 0.0
C401 C 0.55275 0.15481 0.46147 0.0
C402 C 0.56072 0.20254 0.46719 0.0
C403 C 0.56625 0.20757 0.44263 0.0
C404 C 0.56556 0.18615 0.42769 0.0
C405 C 0.55886 0.16007 0.437 0.0
C406 C 0.5984 0.27313 0.4053 0.0
C407 C 0.58189 0.28545 0.4115 0.0
C408 C 0.59354 0.24808 0.41562 0.0
C409 C 0.57212 0.23479 0.43242 0.0
C410 C 0.55588 0.24731 0.43892 0.0
C411 C 0.56068 0.27237 0.42854 0.0
H412 H 0.44217 0.59651 0.62754 0.0
H413 H 0.41287 0.53993 0.56478 0.0
H414 H 0.40614 0.60959 0.61872 0.0
H415 H 0.37625 0.55244 0.55653 0.0
H416 H 0.34901 0.64041 0.58737 0.0
H417 H 0.38971 0.63265 0.58736 0.0
H418 H 0.33234 0.54267 0.57974 0.0
H419 H 0.2917 0.55029 0.57988 0.0
C420 C 0.42845 0.58724 0.61162 0.0
C421 C 0.43029 0.56692 0.59702 0.0
C422 C 0.40778 0.59474 0.6066 0.0
C423 C 0.38834 0.58191 0.58701 0.0
C424 C 0.39078 0.5624 0.5719 0.0
C425 C 0.41165 0.55514 0.57675 0.0
C426 C 0.3451 0.61901 0.58519 0.0
C427 C 0.31712 0.59593 0.58382 0.0
C428 C 0.36839 0.6146 0.58535 0.0
C429 C 0.36414 0.58707 0.58371 0.0
C430 C 0.33625 0.56414 0.58088 0.0
C431 C 0.31298 0.5685 0.58108 0.0
H432 H 0.86947 0.45355 0.76063 0.0
H433 H 0.85258 0.41637 0.83073 0.0
H434 H 0.8237 0.4145 0.74505 0.0
H435 H 0.80782 0.37713 0.81482 0.0
H436 H 0.75269 0.29628 0.7719 0.0
H437 H 0.79888 0.33792 0.78072 0.0
H438 H 0.7669 0.39135 0.75566 0.0
H439 H 0.72012 0.34958 0.74699 0.0
C440 C 0.85594 0.43732 0.77278 0.0
C441 C 0.86493 0.43791 0.79687 0.0
C442 C 0.82989 0.41494 0.76379 0.0
C443 C 0.81266 0.39267 0.77866 0.0
C444 C 0.82109 0.3938 0.80288 0.0
C445 C 0.84677 0.41624 0.81194 0.0
C446 C 0.75546 0.31677 0.76776 0.0
C447 C 0.73245 0.31955 0.75912 0.0
C448 C 0.78194 0.34061 0.77292 0.0
C449 C 0.78616 0.36772 0.76924 0.0
C450 C 0.76404 0.37058 0.7587 0.0
C451 C 0.73731 0.34666 0.75377 0.0
H452 H 0.44926 0.85268 0.98791 0.0
H453 H 0.43795 0.88168 0.91894 0.0
H454 H 0.44241 0.80929 0.96835 0.0
H455 H 0.42965 0.83781 0.89965 0.0
H456 H 0.45117 0.77387 0.86837 0.0
H457 H 0.45717 0.81611 0.88924 0.0
H458 H 0.40798 0.76563 0.94792 0.0
H459 H 0.4026 0.72332 0.92725 0.0
C460 C 0.44509 0.84972 0.96861 0.0
C461 C 0.44432 0.8708 0.95501 0.0
C462 C 0.44086 0.8247 0.95743 0.0
C463 C 0.43573 0.82013 0.93238 0.0
C464 C 0.43408 0.84082 0.91892 0.0
C465 C 0.43839 0.86584 0.93006 0.0
C466 C 0.44173 0.77175 0.88577 0.0
C467 C 0.42635 0.7452 0.8961 0.0
C468 C 0.44497 0.79598 0.89767 0.0
C469 C 0.43279 0.79427 0.92016 0.0
C470 C 0.41782 0.76775 0.93071 0.0
C471 C 0.41467 0.74348 0.91883 0.0
H472 H 0.61276 0.48908 0.12698 0.0
H473 H 0.54131 0.40819 0.104 0.0
H474 H 0.64525 0.47174 0.11815 0.0
H475 H 0.57372 0.39038 0.09633 0.0
H476 H 0.64195 0.38258 0.05466 0.0
H477 H 0.60826 0.39694 0.06715 0.0
H478 H 0.66153 0.43993 0.13031 0.0
H479 H 0.69583 0.42613 0.11738 0.0
C480 C 0.60396 0.46755 0.12012 0.0
C481 C 0.57441 0.45014 0.11595 0.0
C482 C 0.62259 0.45746 0.1154 0.0
C483 C 0.61215 0.42967 0.10646 0.0
C484 C 0.58254 0.41202 0.1029 0.0
C485 C 0.56391 0.42214 0.10755 0.0
C486 C 0.64646 0.39494 0.07131 0.0
C487 C 0.6717 0.40334 0.08495 0.0
C488 C 0.62698 0.40302 0.07857 0.0
C489 C 0.63214 0.41963 0.09973 0.0
C490 C 0.65707 0.42746 0.11373 0.0
C491 C 0.67665 0.41941 0.10641 0.0
H492 H 0.40909 0.84908 0.49694 0.0
H493 H 0.38702 0.87796 0.56172 0.0
H494 H 0.37529 0.8002 0.50645 0.0
H495 H 0.35289 0.82933 0.57076 0.0
H496 H 0.27383 0.74254 0.56627 0.0
H497 H 0.3066 0.79003 0.55317 0.0
H498 H 0.36931 0.76546 0.53855 0.0
H499 H 0.33651 0.71781 0.55161 0.0
C500 C 0.39721 0.84505 0.51326 0.0
C501 C 0.40071 0.8675 0.52851 0.0
C502 C 0.37778 0.81707 0.51862 0.0
C503 C 0.36129 0.81102 0.53921 0.0
C504 C 0.36491 0.8334 0.5545 0.0
C505 C 0.38446 0.86128 0.54929 0.0
C506 C 0.29447 0.74713 0.56003 0.0
C507 C 0.30265 0.72645 0.56017 0.0
C508 C 0.31329 0.77438 0.55266 0.0
C509 C 0.34059 0.78149 0.54508 0.0
C510 C 0.34835 0.76053 0.54423 0.0
C511 C 0.32961 0.73329 0.5518 0.0
H512 H 0.57159 0.40304 0.64561 0.0
H513 H 0.59571 0.45578 0.71055 0.0
H514 H 0.5822 0.37018 0.66603 0.0
H515 H 0.60776 0.42372 0.73055 0.0
H516 H 0.59067 0.34321 0.76754 0.0
H517 H 0.58258 0.37723 0.74631 0.0
H518 H 0.61969 0.36378 0.68278 0.0
H519 H 0.62704 0.32909 0.70384 0.0
C520 C 0.57941 0.40776 0.66418 0.0
C521 C 0.58258 0.43194 0.67649 0.0
C522 C 0.5858 0.38907 0.67581 0.0
C523 C 0.59563 0.39419 0.7 0.0
C524 C 0.59976 0.41888 0.71204 0.0
C525 C 0.59325 0.43751 0.70045 0.0
C526 C 0.59707 0.34746 0.74903 0.0
C527 C 0.60945 0.33341 0.73737 0.0
C528 C 0.59265 0.36716 0.73691 0.0
C529 C 0.60065 0.37339 0.71287 0.0
C530 C 0.613 0.35927 0.70119 0.0
C531 C 0.61729 0.33944 0.71329 0.0
H532 H 0.15082 0.54022 0.84173 0.0
H533 H 0.1695 0.61816 0.87846 0.0
H534 H 0.1998 0.55142 0.84863 0.0
H535 H 0.21862 0.62912 0.88637 0.0
H536 H 0.31128 0.65238 0.86964 0.0
H537 H 0.26227 0.64275 0.86761 0.0
H538 H 0.23226 0.55427 0.87851 0.0
H539 H 0.28117 0.56379 0.87929 0.0
C540 C 0.16544 0.55964 0.85157 0.0
C541 C 0.15643 0.57829 0.85965 0.0
C542 C 0.1935 0.56601 0.85572 0.0
C543 C 0.21321 0.59103 0.86838 0.0
C544 C 0.20414 0.60978 0.87639 0.0
C545 C 0.17605 0.60354 0.87192 0.0
C546 C 0.29419 0.63096 0.87198 0.0
C547 C 0.30001 0.60878 0.87432 0.0
C548 C 0.26605 0.62542 0.87087 0.0
C549 C 0.24318 0.59762 0.87244 0.0
C550 C 0.24925 0.5758 0.87646 0.0
C551 C 0.2773 0.58126 0.87714 0.0
H552 H 0.60317 0.14559 0.06917 0.0
H553 H 0.58183 0.17835 0.0068 0.0
H554 H 0.63798 0.19357 0.08282 0.0
H555 H 0.61602 0.22637 0.02104 0.0
H556 H 0.66631 0.31039 0.06327 0.0
H557 H 0.62676 0.26211 0.05636 0.0
H558 H 0.68486 0.23026 0.065 0.0
H559 H 0.72439 0.27837 0.07167 0.0
C560 C 0.60582 0.16297 0.05837 0.0
C561 C 0.58994 0.158 0.03665 0.0
C562 C 0.62563 0.19044 0.06632 0.0
C563 C 0.62972 0.21363 0.05297 0.0
C564 C 0.61304 0.20886 0.03184 0.0
C565 C 0.59344 0.18133 0.02369 0.0
C566 C 0.67054 0.29304 0.06421 0.0
C567 C 0.6985 0.29818 0.0679 0.0
C568 C 0.64794 0.26547 0.06005 0.0
C569 C 0.65281 0.24253 0.05999 0.0
C570 C 0.68047 0.24755 0.06507 0.0
C571 C 0.70311 0.27509 0.06882 0.0
H572 H 0.4848 0.62704 0.2046 0.0
H573 H 0.39777 0.58435 0.17718 0.0
H574 H 0.47735 0.66268 0.22484 0.0
H575 H 0.39042 0.62056 0.19662 0.0
H576 H 0.37911 0.68212 0.24213 0.0
H577 H 0.38661 0.64255 0.23294 0.0
H578 H 0.47255 0.70107 0.21247 0.0
H579 H 0.46549 0.74035 0.22243 0.0
C580 C 0.46407 0.6254 0.20289 0.0
C581 C 0.44196 0.60324 0.18909 0.0
C582 C 0.45979 0.64579 0.21445 0.0
C583 C 0.43338 0.64472 0.21219 0.0
C584 C 0.41093 0.6219 0.19905 0.0
C585 C 0.41514 0.60125 0.18774 0.0
C586 C 0.39982 0.68654 0.23622 0.0
C587 C 0.42157 0.71446 0.23274 0.0
C588 C 0.40402 0.66382 0.23072 0.0
C589 C 0.43003 0.66854 0.22159 0.0
C590 C 0.45231 0.69653 0.21964 0.0
C591 C 0.44818 0.71917 0.22525 0.0
H592 H 0.86629 0.46815 0.40301 0.0
H593 H 0.84113 0.41883 0.33602 0.0
H594 H 0.81645 0.45303 0.4101 0.0
H595 H 0.79141 0.40301 0.34371 0.0
H596 H 0.70236 0.36662 0.37189 0.0
H597 H 0.75133 0.37559 0.3735 0.0
H598 H 0.78236 0.46453 0.38639 0.0
H599 H 0.73361 0.45575 0.38458 0.0
C600 C 0.85019 0.45391 0.38991 0.0
C601 C 0.85781 0.44501 0.36877 0.0
C602 C 0.82168 0.44514 0.39409 0.0
C603 C 0.80019 0.42693 0.37744 0.0
C604 C 0.80758 0.41679 0.35699 0.0
C605 C 0.8361 0.42585 0.35263 0.0
C606 C 0.7196 0.388 0.37553 0.0
C607 C 0.71419 0.41054 0.37787 0.0
C608 C 0.74757 0.39311 0.37635 0.0
C609 C 0.77053 0.42073 0.37996 0.0
C610 C 0.76502 0.443 0.38375 0.0
C611 C 0.73713 0.43799 0.38256 0.0
H612 H 0.13397 0.59836 0.42184 0.0
H613 H 0.08999 0.51168 0.4431 0.0
H614 H 0.16782 0.61089 0.45587 0.0
H615 H 0.12234 0.52412 0.47797 0.0
H616 H 0.19597 0.54685 0.52869 0.0
H617 H 0.16728 0.53612 0.49166 0.0
H618 H 0.17408 0.61837 0.49713 0.0
H619 H 0.20441 0.62959 0.53328 0.0
C620 C 0.1315 0.58208 0.434 0.0
C621 C 0.10957 0.55408 0.4299 0.0
C622 C 0.15074 0.58922 0.45361 0.0
C623 C 0.14804 0.56858 0.46987 0.0
C624 C 0.12576 0.54056 0.46567 0.0
C625 C 0.10699 0.53337 0.44578 0.0
C626 C 0.19152 0.56269 0.52179 0.0
C627 C 0.20234 0.589 0.53389 0.0
C628 C 0.17481 0.55649 0.50064 0.0
C629 C 0.16783 0.57616 0.49137 0.0
C630 C 0.17921 0.60275 0.50335 0.0
C631 C 0.19651 0.60919 0.52421 0.0
H632 H 0.54102 0.1412 0.58753 0.0
H633 H 0.5802 0.09341 0.6108 0.0
H634 H 0.56467 0.17499 0.6212 0.0
H635 H 0.60241 0.1258 0.64539 0.0
H636 H 0.65704 0.1983 0.69614 0.0
H637 H 0.63735 0.16966 0.65919 0.0
H638 H 0.56464 0.18214 0.66214 0.0
H639 H 0.58547 0.21227 0.69811 0.0
C640 C 0.55453 0.13786 0.60009 0.0
C641 C 0.5589 0.11485 0.59666 0.0
C642 C 0.56798 0.15709 0.6195 0.0
C643 C 0.5856 0.15333 0.63625 0.0
C644 C 0.58967 0.12999 0.63271 0.0
C645 C 0.57674 0.1112 0.613 0.0
C646 C 0.63702 0.19516 0.68865 0.0
C647 C 0.6228 0.20751 0.70001 0.0
C648 C 0.62551 0.17847 0.66756 0.0
C649 C 0.59907 0.17309 0.65762 0.0
C650 C 0.58519 0.18601 0.66885 0.0
C651 C 0.59707 0.20325 0.68962 0.0
H652 H 0.51363 0.61932 0.72249 0.0
H653 H 0.45623 0.53369 0.74266 0.0
H654 H 0.49857 0.63706 0.7566 0.0
H655 H 0.4415 0.5513 0.7769 0.0
H656 H 0.39443 0.59164 0.81242 0.0
H657 H 0.4135 0.57356 0.78235 0.0
H658 H 0.49854 0.64181 0.80035 0.0
H659 H 0.47917 0.66038 0.83049 0.0
C660 C 0.49808 0.60432 0.73441 0.0
C661 C 0.48584 0.57511 0.72973 0.0
C662 C 0.48953 0.61446 0.75401 0.0
C663 C 0.46867 0.59561 0.76941 0.0
C664 C 0.45718 0.56641 0.76513 0.0
C665 C 0.46559 0.5563 0.7455 0.0
C666 C 0.41725 0.60263 0.81034 0.0
C667 C 0.43528 0.62741 0.82399 0.0
C668 C 0.42824 0.59217 0.79306 0.0
C669 C 0.45759 0.60616 0.78893 0.0
C670 C 0.47578 0.63068 0.80291 0.0
C671 C 0.46473 0.64121 0.82029 0.0
H672 H 0.92587 0.5296 0.94531 0.0
H673 H 0.9006 0.44298 0.92705 0.0
H674 H 0.89484 0.51417 0.97976 0.0
H675 H 0.86871 0.42728 0.96069 0.0
H676 H 0.82941 0.4055 0.03211 0.0
H677 H 0.86651 0.42525 0.0027 0.0
H678 H 0.8466 0.49137 0.9898 0.0
H679 H 0.81039 0.4722 0.02014 0.0
C680 C 0.91345 0.50723 0.94862 0.0
C681 C 0.9156 0.48745 0.93361 0.0
C682 C 0.89562 0.49835 0.96829 0.0
C683 C 0.87928 0.46945 0.97317 0.0
C684 C 0.88145 0.44974 0.95796 0.0
C685 C 0.89956 0.45867 0.93853 0.0
C686 C 0.83321 0.42444 0.02323 0.0
C687 C 0.8168 0.43713 0.02826 0.0
C688 C 0.85437 0.4357 0.00619 0.0
C689 C 0.85926 0.45962 0.99343 0.0
C690 C 0.84368 0.47307 0.99934 0.0
C691 C 0.82283 0.46205 0.01672 0.0
H692 H 0.40706 0.88712 0.07827 0.0
H693 H 0.47295 0.95426 0.12337 0.0
H694 H 0.38871 0.85812 0.11342 0.0
H695 H 0.45504 0.92466 0.15834 0.0
H696 H 0.4382 0.84237 0.19873 0.0
H697 H 0.45374 0.87859 0.16873 0.0
H698 H 0.36641 0.85673 0.1544 0.0
H699 H 0.35076 0.82036 0.18465 0.0
C700 C 0.41741 0.89589 0.09569 0.0
C701 C 0.44164 0.92298 0.09791 0.0
C702 C 0.40685 0.87925 0.11582 0.0
C703 C 0.42047 0.88922 0.13854 0.0
C704 C 0.4443 0.91646 0.14095 0.0
C705 C 0.45466 0.93325 0.12088 0.0
C706 C 0.42234 0.84554 0.1895 0.0
C707 C 0.39326 0.82832 0.19383 0.0
C708 C 0.43127 0.86643 0.17243 0.0
C709 C 0.41122 0.87023 0.15914 0.0
C710 C 0.38224 0.85401 0.1643 0.0
C711 C 0.37334 0.83338 0.1817 0.0
H712 H 0.49526 0.40724 0.22761 0.0
H713 H 0.55381 0.49208 0.25435 0.0
H714 H 0.51161 0.38836 0.25971 0.0
H715 H 0.56983 0.4733 0.28673 0.0
H716 H 0.61856 0.43099 0.3161 0.0
H717 H 0.59803 0.45083 0.28911 0.0
H718 H 0.51371 0.382 0.30268 0.0
H719 H 0.5345 0.36169 0.32957 0.0
C720 C 0.51128 0.42181 0.24062 0.0
C721 C 0.5235 0.45112 0.23835 0.0
C722 C 0.52058 0.41101 0.25907 0.0
C723 C 0.54218 0.42932 0.27571 0.0
C724 C 0.55356 0.45862 0.27394 0.0
C725 C 0.5444 0.4694 0.25541 0.0
C726 C 0.59561 0.42025 0.31368 0.0
C727 C 0.57817 0.39475 0.32501 0.0
C728 C 0.5838 0.43172 0.29822 0.0
C729 C 0.5542 0.41803 0.29372 0.0
C730 C 0.53663 0.39289 0.30556 0.0
C731 C 0.54851 0.38135 0.32106 0.0
H732 H 0.48365 0.89688 0.41114 0.0
H733 H 0.41438 0.91051 0.39021 0.0
H734 H 0.47182 0.86405 0.37677 0.0
H735 H 0.40246 0.87752 0.35592 0.0
H736 H 0.37588 0.80096 0.30562 0.0
H737 H 0.38475 0.82756 0.34377 0.0
H738 H 0.47532 0.86867 0.33303 0.0
H739 H 0.46661 0.84203 0.29525 0.0
C740 C 0.4659 0.89288 0.3992 0.0
C741 C 0.45014 0.90655 0.40331 0.0
C742 C 0.45908 0.87402 0.37954 0.0
C743 C 0.43629 0.86829 0.36353 0.0
C744 C 0.41993 0.88121 0.36807 0.0
C745 C 0.42679 0.90015 0.38773 0.0
C746 C 0.3977 0.8154 0.31155 0.0
C747 C 0.42052 0.81943 0.29727 0.0
C748 C 0.40275 0.83078 0.33333 0.0
C749 C 0.43073 0.85031 0.34138 0.0
C750 C 0.45353 0.85359 0.32749 0.0
C751 C 0.44849 0.8384 0.30571 0.0
H752 H 0.60295 0.4584 0.55259 0.0
H753 H 0.52549 0.43985 0.51327 0.0
H754 H 0.61875 0.44348 0.51722 0.0
H755 H 0.54077 0.42336 0.47866 0.0
H756 H 0.57134 0.37298 0.43033 0.0
H757 H 0.5553 0.38299 0.46839 0.0
H758 H 0.6298 0.46613 0.4727 0.0
H759 H 0.6455 0.45654 0.43446 0.0
C760 C 0.58919 0.45109 0.53656 0.0
C761 C 0.56299 0.4507 0.53587 0.0
C762 C 0.59819 0.4423 0.51641 0.0
C763 C 0.58092 0.43228 0.49535 0.0
C764 C 0.5543 0.43073 0.49485 0.0
C765 C 0.54553 0.44008 0.51479 0.0
C766 C 0.58441 0.39327 0.43955 0.0
C767 C 0.60959 0.41405 0.42941 0.0
C768 C 0.57518 0.39899 0.46121 0.0
C769 C 0.59138 0.42528 0.47336 0.0
C770 C 0.61707 0.44563 0.4637 0.0
C771 C 0.62594 0.44019 0.4418 0.0
H772 H 0.13588 0.56787 0.7537 0.0
H773 H 0.07484 0.57714 0.70933 0.0
H774 H 0.16728 0.57989 0.71981 0.0
H775 H 0.10663 0.58963 0.67547 0.0
H776 H 0.1902 0.64562 0.63403 0.0
H777 H 0.15415 0.6293 0.6647 0.0
H778 H 0.16929 0.56056 0.67961 0.0
H779 H 0.20552 0.577 0.64921 0.0
C780 C 0.129 0.57216 0.73665 0.0
C781 C 0.1028 0.57148 0.73424 0.0
C782 C 0.14701 0.57905 0.71722 0.0
C783 C 0.13934 0.58557 0.69496 0.0
C784 C 0.11319 0.58493 0.69249 0.0
C785 C 0.09506 0.57788 0.71191 0.0
C786 C 0.18556 0.62681 0.64363 0.0
C787 C 0.20083 0.6127 0.63929 0.0
C788 C 0.16484 0.61741 0.66112 0.0
C789 C 0.15911 0.59381 0.6747 0.0
C790 C 0.17357 0.57906 0.66967 0.0
C791 C 0.19417 0.58837 0.65212 0.0
H792 H 0.5705 0.09172 0.88549 0.0
H793 H 0.51491 0.12401 0.90419 0.0
H794 H 0.58655 0.12224 0.85101 0.0
H795 H 0.53137 0.15506 0.87003 0.0
H796 H 0.55233 0.19499 0.7973 0.0
H797 H 0.53178 0.15785 0.82674 0.0
H798 H 0.61576 0.17148 0.84472 0.0
H799 H 0.63599 0.20778 0.8151 0.0
C800 C 0.56184 0.10547 0.88225 0.0
C801 C 0.54166 0.10569 0.89761 0.0
C802 C 0.571 0.12295 0.86251 0.0
C803 C 0.56038 0.14124 0.8578 0.0
C804 C 0.53969 0.14095 0.87289 0.0
C805 C 0.53036 0.12329 0.89254 0.0
C806 C 0.56628 0.1897 0.80731 0.0
C807 C 0.59577 0.20432 0.80386 0.0
C808 C 0.55455 0.16858 0.82429 0.0
C809 C 0.57213 0.16175 0.83819 0.0
C810 C 0.60149 0.17583 0.83412 0.0
C811 C 0.61315 0.19679 0.81713 0.0
H812 H 0.40345 0.52655 0.03498 0.0
H813 H 0.48221 0.60652 0.0383 0.0
H814 H 0.38898 0.54015 0.99826 0.0
H815 H 0.46828 0.61957 0.00078 0.0
H816 H 0.42244 0.64375 0.94367 0.0
H817 H 0.43527 0.63221 0.98251 0.0
H818 H 0.40188 0.54593 0.95689 0.0
H819 H 0.3885 0.55716 0.9185 0.0
C820 C 0.41762 0.54715 0.02801 0.0
C821 C 0.44404 0.56541 0.03966 0.0
C822 C 0.40947 0.5548 0.00672 0.0
C823 C 0.42756 0.58086 0.9964 0.0
C824 C 0.45373 0.59942 0.00829 0.0
C825 C 0.46187 0.59178 0.02966 0.0
C826 C 0.41777 0.6223 0.94635 0.0
C827 C 0.40435 0.60139 0.92791 0.0
C828 C 0.42526 0.61572 0.9686 0.0
C829 C 0.41951 0.5881 0.9729 0.0
C830 C 0.40616 0.56729 0.95441 0.0
C831 C 0.39864 0.57381 0.93227 0.0
H832 H 0.88481 0.4075 0.24246 0.0
H833 H 0.89948 0.49147 0.23036 0.0
H834 H 0.85172 0.38939 0.20771 0.0
H835 H 0.86645 0.47338 0.19549 0.0
H836 H 0.7901 0.42786 0.14262 0.0
H837 H 0.81685 0.44316 0.18119 0.0
H838 H 0.85608 0.39307 0.1646 0.0
H839 H 0.82922 0.37748 0.12659 0.0
C840 C 0.88099 0.42211 0.23236 0.0
C841 C 0.89503 0.45098 0.23906 0.0
C842 C 0.86199 0.41173 0.21244 0.0
C843 C 0.85658 0.42996 0.19865 0.0
C844 C 0.86986 0.45868 0.20585 0.0
C845 C 0.88885 0.46906 0.22583 0.0
C846 C 0.80419 0.41987 0.14735 0.0
C847 C 0.80752 0.40149 0.1314 0.0
C848 C 0.81967 0.42879 0.16939 0.0
C849 C 0.83866 0.41937 0.17601 0.0
C850 C 0.84138 0.40046 0.1603 0.0
C851 C 0.82606 0.39166 0.13834 0.0
loop_
_geom_bond_atom_site_label_1
_geom_bond_atom_site_label_2
_geom_bond_distance
_geom_bond_site_symmetry_2
_ccdc_geom_bond_type
H0 C19 0.949 . S
H1 C20 0.950 . S
H2 C22 0.950 . S
H3 C23 0.950 . S
H4 C25 0.950 . S
H5 C28 0.950 . S
H6 C29 0.950 . S
H7 C31 0.951 . S
H8 C32 0.949 . S
H9 C34 0.949 . S
H10 C35 0.950 . S
H11 C37 0.950 . S
H12 C38 0.950 . S
H13 C40 0.950 . S
H14 C43 0.950 . S
H15 C44 0.950 . S
H16 C46 0.951 . S
H17 C47 0.949 . S
C18 C19 1.376 . S
C18 C23 1.386 . S
C18 C24 1.483 . S
C19 H0 0.949 . S
C19 C18 1.376 . S
C19 C20 1.397 . S
C20 H1 0.950 . S
C20 C19 1.397 . S
C20 C21 1.391 . S
C21 C20 1.391 . S
C21 C22 1.405 . S
C22 H2 0.950 . S
C22 C21 1.405 . S
C22 C23 1.367 . S
C23 H3 0.950 . S
C23 C18 1.386 . S
C23 C22 1.367 . S
C24 C18 1.483 . S
C24 C25 1.382 1_655 S
C24 C26 1.403 . S
C25 H4 0.950 . S
C25 C24 1.382 1_455 S
C25 C41 1.411 . S
C26 C24 1.403 . S
C26 C27 1.489 . S
C26 C40 1.411 . S
C27 C26 1.489 . S
C27 C28 1.383 . S
C27 C32 1.382 . S
C28 H5 0.950 . S
C28 C27 1.383 . S
C28 C29 1.395 . S
C29 H6 0.950 . S
C29 C28 1.395 . S
C29 C30 1.288 . S
C30 C29 1.288 . S
C30 C31 1.392 . S
C31 H7 0.951 . S
C31 C30 1.392 . S
C31 C32 1.392 . S
C32 H8 0.949 . S
C32 C27 1.382 . S
C32 C31 1.392 . S
C33 C34 1.376 . S
C33 C38 1.386 . S
C33 C39 1.483 . S
C34 H9 0.949 . S
C34 C33 1.376 . S
C34 C35 1.397 . S
C35 H10 0.950 . S
C35 C34 1.397 . S
C35 C36 1.391 . S
C36 C35 1.391 . S
C36 C37 1.405 . S
C37 H11 0.950 . S
C37 C36 1.405 . S
C37 C38 1.367 . S
C38 H12 0.950 . S
C38 C33 1.386 . S
C38 C37 1.367 . S
C39 C33 1.483 . S
C39 C40 1.382 1_455 S
C39 C41 1.403 . S
C40 H13 0.950 . S
C40 C26 1.411 . S
C40 C39 1.382 1_655 S
C41 C25 1.411 . S
C41 C39 1.403 . S
C41 C42 1.489 . S
C42 C41 1.489 . S
C42 C43 1.383 . S
C42 C47 1.382 . S
C43 H14 0.950 . S
C43 C42 1.383 . S
C43 C44 1.395 . S
C44 H15 0.950 . S
C44 C43 1.395 . S
C44 C45 1.288 . S
C45 C44 1.288 . S
C45 C46 1.392 . S
C46 H16 0.951 . S
C46 C45 1.392 . S
C46 C47 1.392 . S
C47 H17 0.949 . S
C47 C42 1.382 . S
C47 C46 1.392 . S
H48 C67 0.949 . S
H49 C68 0.950 . S
H50 C70 0.950 . S
H51 C71 0.950 . S
H52 C73 0.950 1_565 S
H53 C76 0.950 . S
H54 C77 0.950 . S
H55 C79 0.951 . S
H56 C80 0.949 . S
H57 C82 0.949 . S
H58 C83 0.950 . S
H59 C85 0.950 . S
H60 C86 0.950 . S
H61 C88 0.950 . S
H62 C91 0.950 . S
H63 C92 0.950 . S
H64 C94 0.951 . S
H65 C95 0.949 . S
C66 C67 1.376 . S
C66 C71 1.386 . S
C66 C72 1.483 . S
C67 H48 0.949 . S
C67 C66 1.376 . S
C67 C68 1.397 . S
C68 H49 0.950 . S
C68 C67 1.397 . S
C68 C69 1.391 . S
C69 C68 1.391 . S
C69 C70 1.405 . S
C70 H50 0.950 . S
C70 C69 1.405 . S
C70 C71 1.367 . S
C71 H51 0.950 . S
C71 C66 1.386 . S
C71 C70 1.367 . S
C72 C66 1.483 . S
C72 C73 1.382 1_565 S
C72 C74 1.403 . S
C73 H52 0.950 1_545 S
C73 C72 1.382 1_545 S
C73 C89 1.411 . S
C74 C72 1.403 . S
C74 C75 1.489 . S
C74 C88 1.411 1_565 S
C75 C74 1.489 . S
C75 C76 1.383 . S
C75 C80 1.382 . S
C76 H53 0.950 . S
C76 C75 1.383 . S
C76 C77 1.395 . S
C77 H54 0.950 . S
C77 C76 1.395 . S
C77 C78 1.288 . S
C78 C77 1.288 . S
C78 C79 1.392 . S
C79 H55 0.951 . S
C79 C78 1.392 . S
C79 C80 1.392 . S
C80 H56 0.949 . S
C80 C75 1.382 . S
C80 C79 1.392 . S
C81 C82 1.376 . S
C81 C86 1.386 . S
C81 C87 1.483 . S
C82 H57 0.949 . S
C82 C81 1.376 . S
C82 C83 1.397 . S
C83 H58 0.950 . S
C83 C82 1.397 . S
C83 C84 1.391 . S
C84 C83 1.391 . S
C84 C85 1.405 . S
C85 H59 0.950 . S
C85 C84 1.405 . S
C85 C86 1.367 . S
C86 H60 0.950 . S
C86 C81 1.386 . S
C86 C85 1.367 . S
C87 C81 1.483 . S
C87 C88 1.382 . S
C87 C89 1.403 . S
C88 H61 0.950 . S
C88 C74 1.411 1_545 S
C88 C87 1.382 . S
C89 C73 1.411 . S
C89 C87 1.403 . S
C89 C90 1.489 . S
C90 C89 1.489 . S
C90 C91 1.383 . S
C90 C95 1.382 . S
C91 H62 0.950 . S
C91 C90 1.383 . S
C91 C92 1.395 . S
C92 H63 0.950 . S
C92 C91 1.395 . S
C92 C93 1.288 . S
C93 C92 1.288 . S
C93 C94 1.392 . S
C94 H64 0.951 . S
C94 C93 1.392 . S
C94 C95 1.392 . S
C95 H65 0.949 . S
C95 C90 1.382 . S
C95 C94 1.392 . S
H96 C115 0.949 . S
H97 C116 0.950 . S
H98 C118 0.950 . S
H99 C119 0.950 . S
H100 C121 0.950 . S
H101 C124 0.950 . S
H102 C125 0.950 . S
H103 C127 0.951 . S
H104 C128 0.949 . S
H105 C130 0.949 . S
H106 C131 0.950 . S
H107 C133 0.950 . S
H108 C134 0.950 . S
H109 C136 0.950 . S
H110 C139 0.950 . S
H111 C140 0.950 . S
H112 C142 0.951 . S
H113 C143 0.949 . S
C114 C115 1.376 . S
C114 C119 1.386 . S
C114 C120 1.483 . S
C115 H96 0.949 . S
C115 C114 1.376 . S
C115 C116 1.397 . S
C116 H97 0.950 . S
C116 C115 1.397 . S
C116 C117 1.391 . S
C117 C116 1.391 . S
C117 C118 1.405 . S
C118 H98 0.950 . S
C118 C117 1.405 . S
C118 C119 1.367 . S
C119 H99 0.950 . S
C119 C114 1.386 . S
C119 C118 1.367 . S
C120 C114 1.483 . S
C120 C121 1.382 . S
C120 C122 1.403 . S
C121 H100 0.950 . S
C121 C120 1.382 . S
C121 C137 1.411 . S
C122 C120 1.403 . S
C122 C123 1.489 . S
C122 C136 1.411 . S
C123 C122 1.489 . S
C123 C124 1.383 . S
C123 C128 1.382 . S
C124 H101 0.950 . S
C124 C123 1.383 . S
C124 C125 1.395 . S
C125 H102 0.950 . S
C125 C124 1.395 . S
C125 C126 1.288 . S
C126 C125 1.288 . S
C126 C127 1.392 . S
C127 H103 0.951 . S
C127 C126 1.392 . S
C127 C128 1.392 . S
C128 H104 0.949 . S
C128 C123 1.382 . S
C128 C127 1.392 . S
C129 C130 1.376 . S
C129 C134 1.386 . S
C129 C135 1.483 . S
C130 H105 0.949 . S
C130 C129 1.376 . S
C130 C131 1.397 . S
C131 H106 0.950 . S
C131 C130 1.397 . S
C131 C132 1.391 . S
C132 C131 1.391 . S
C132 C133 1.405 . S
C133 H107 0.950 . S
C133 C132 1.405 . S
C133 C134 1.367 . S
C134 H108 0.950 . S
C134 C129 1.386 . S
C134 C133 1.367 . S
C135 C129 1.483 . S
C135 C136 1.382 . S
C135 C137 1.403 . S
C136 H109 0.950 . S
C136 C122 1.411 . S
C136 C135 1.382 . S
C137 C121 1.411 . S
C137 C135 1.403 . S
C137 C138 1.489 . S
C138 C137 1.489 . S
C138 C139 1.383 . S
C138 C143 1.382 . S
C139 H110 0.950 . S
C139 C138 1.383 . S
C139 C140 1.395 . S
C140 H111 0.950 . S
C140 C139 1.395 . S
C140 C141 1.288 . S
C141 C140 1.288 . S
C141 C142 1.392 . S
C142 H112 0.951 . S
C142 C141 1.392 . S
C142 C143 1.392 . S
C143 H113 0.949 . S
C143 C138 1.382 . S
C143 C142 1.392 . S
H144 C163 0.949 . S
H145 C164 0.950 . S
H146 C166 0.950 . S
H147 C167 0.950 . S
H148 C169 0.953 . S
H149 C172 0.950 . S
H150 C173 0.950 . S
H151 C175 0.951 . S
H152 C176 0.949 . S
H153 C178 0.949 . S
H154 C179 0.950 . S
H155 C181 0.950 . S
H156 C182 0.950 . S
H157 C184 0.950 . S
H158 C187 0.950 . S
H159 C188 0.950 . S
H160 C190 0.951 . S
H161 C191 0.949 . S
C162 C163 1.376 . S
C162 C167 1.386 . S
C162 C168 1.483 . S
C163 H144 0.949 . S
C163 C162 1.376 . S
C163 C164 1.397 . S
C164 H145 0.950 . S
C164 C163 1.397 . S
C164 C165 1.391 . S
C165 C164 1.391 . S
C165 C166 1.405 . S
C166 H146 0.950 . S
C166 C165 1.405 . S
C166 C167 1.367 . S
C167 H147 0.950 . S
C167 C162 1.386 . S
C167 C166 1.367 . S
C168 C162 1.483 . S
C168 C169 1.375 1_455 S
C168 C170 1.403 . S
C169 H148 0.953 . S
C169 C168 1.375 1_655 S
C169 C185 1.416 . S
C170 C168 1.403 . S
C170 C171 1.489 . S
C170 C184 1.411 . S
C171 C170 1.489 . S
C171 C172 1.383 . S
C171 C176 1.382 . S
C172 H149 0.950 . S
C172 C171 1.383 . S
C172 C173 1.395 . S
C173 H150 0.950 . S
C173 C172 1.395 . S
C173 C174 1.288 . S
C174 C173 1.288 . S
C174 C175 1.392 . S
C175 H151 0.951 . S
C175 C174 1.392 . S
C175 C176 1.392 . S
C176 H152 0.949 . S
C176 C171 1.382 . S
C176 C175 1.392 . S
C177 C178 1.376 . S
C177 C182 1.386 . S
C177 C183 1.483 . S
C178 H153 0.949 . S
C178 C177 1.376 . S
C178 C179 1.397 . S
C179 H154 0.950 . S
C179 C178 1.397 . S
C179 C180 1.391 . S
C180 C179 1.391 . S
C180 C181 1.405 . S
C181 H155 0.950 . S
C181 C180 1.405 . S
C181 C182 1.367 . S
C182 H156 0.950 . S
C182 C177 1.386 . S
C182 C181 1.367 . S
C183 C177 1.483 . S
C183 C184 1.382 1_655 S
C183 C185 1.403 . S
C184 H157 0.950 . S
C184 C170 1.411 . S
C184 C183 1.382 1_455 S
C185 C169 1.416 . S
C185 C183 1.403 . S
C185 C186 1.489 . S
C186 C185 1.489 . S
C186 C187 1.383 . S
C186 C191 1.382 . S
C187 H158 0.950 . S
C187 C186 1.383 . S
C187 C188 1.395 . S
C188 H159 0.950 . S
C188 C187 1.395 . S
C188 C189 1.288 . S
C189 C188 1.288 . S
C189 C190 1.392 . S
C190 H160 0.951 . S
C190 C189 1.392 . S
C190 C191 1.392 . S
C191 H161 0.949 . S
C191 C186 1.382 . S
C191 C190 1.392 . S
H192 C211 0.949 . S
H193 C212 0.950 . S
H194 C214 0.950 . S
H195 C215 0.950 . S
H196 C217 0.950 . S
H197 C220 0.950 . S
H198 C221 0.950 . S
H199 C223 0.951 . S
H200 C224 0.949 . S
H201 C226 0.949 . S
H202 C227 0.950 . S
H203 C229 0.950 . S
H204 C230 0.950 . S
H205 C232 0.954 . S
H206 C235 0.950 . S
H207 C236 0.950 . S
H208 C238 0.951 . S
H209 C239 0.949 . S
C210 C211 1.376 . S
C210 C215 1.386 1_554 S
C210 C216 1.483 1_554 S
C211 H192 0.949 . S
C211 C210 1.376 . S
C211 C212 1.397 . S
C212 H193 0.950 . S
C212 C211 1.397 . S
C212 C213 1.391 . S
C213 C212 1.391 . S
C213 C214 1.405 . S
C214 H194 0.950 . S
C214 C213 1.405 . S
C214 C215 1.367 1_554 S
C215 H195 0.950 . S
C215 C210 1.386 1_556 S
C215 C214 1.367 1_556 S
C216 C210 1.483 1_556 S
C216 C217 1.382 1_556 S
C216 C218 1.403 . S
C217 H196 0.950 . S
C217 C216 1.382 1_554 S
C217 C233 1.411 1_545 S
C218 C216 1.403 . S
C218 C219 1.489 . S
C218 C232 1.411 . S
C219 C218 1.489 . S
C219 C220 1.383 . S
C219 C224 1.382 . S
C220 H197 0.950 . S
C220 C219 1.383 . S
C220 C221 1.395 . S
C221 H198 0.950 . S
C221 C220 1.395 . S
C221 C222 1.288 . S
C222 C221 1.288 . S
C222 C223 1.392 . S
C223 H199 0.951 . S
C223 C222 1.392 . S
C223 C224 1.392 . S
C224 H200 0.949 . S
C224 C219 1.382 . S
C224 C223 1.392 . S
C225 C226 1.376 . S
C225 C230 1.386 . S
C225 C231 1.483 . S
C226 H201 0.949 . S
C226 C225 1.376 . S
C226 C227 1.397 . S
C227 H202 0.950 . S
C227 C226 1.397 . S
C227 C228 1.391 . S
C228 C227 1.391 . S
C228 C229 1.405 . S
C229 H203 0.950 . S
C229 C228 1.405 . S
C229 C230 1.367 . S
C230 H204 0.950 . S
C230 C225 1.386 . S
C230 C229 1.367 . S
C231 C225 1.483 . S
C231 C232 1.382 1_565 S
C231 C233 1.403 1_556 S
C232 H205 0.954 . S
C232 C218 1.411 . S
C232 C231 1.382 1_545 S
C233 C217 1.411 1_565 S
C233 C231 1.403 1_554 S
C233 C234 1.489 . S
C234 C233 1.489 . S
C234 C235 1.383 . S
C234 C239 1.382 . S
C235 H206 0.950 . S
C235 C234 1.383 . S
C235 C236 1.395 . S
C236 H207 0.950 . S
C236 C235 1.395 . S
C236 C237 1.288 . S
C237 C236 1.288 . S
C237 C238 1.392 . S
C238 H208 0.951 . S
C238 C237 1.392 . S
C238 C239 1.392 . S
C239 H209 0.949 . S
C239 C234 1.382 . S
C239 C238 1.392 . S
H240 C259 0.949 . S
H241 C260 0.950 . S
H242 C262 0.950 . S
H243 C263 0.950 . S
H244 C265 0.950 . S
H245 C268 0.950 . S
H246 C269 0.950 . S
H247 C271 0.951 . S
H248 C272 0.949 . S
H249 C274 0.949 . S
H250 C275 0.950 . S
H251 C277 0.950 . S
H252 C278 0.950 . S
H253 C280 0.950 . S
H254 C283 0.950 . S
H255 C284 0.950 . S
H256 C286 0.951 . S
H257 C287 0.949 . S
C258 C259 1.376 . S
C258 C263 1.386 . S
C258 C264 1.483 . S
C259 H240 0.949 . S
C259 C258 1.376 . S
C259 C260 1.397 . S
C260 H241 0.950 . S
C260 C259 1.397 . S
C260 C261 1.391 . S
C261 C260 1.391 . S
C261 C262 1.405 . S
C262 H242 0.950 . S
C262 C261 1.405 . S
C262 C263 1.367 . S
C263 H243 0.950 . S
C263 C258 1.386 . S
C263 C262 1.367 . S
C264 C258 1.483 . S
C264 C265 1.382 . S
C264 C266 1.403 . S
C265 H244 0.950 . S
C265 C264 1.382 . S
C265 C281 1.411 . S
C266 C264 1.403 . S
C266 C267 1.489 . S
C266 C280 1.411 . S
C267 C266 1.489 . S
C267 C268 1.383 . S
C267 C272 1.382 . S
C268 H245 0.950 . S
C268 C267 1.383 . S
C268 C269 1.395 . S
C269 H246 0.950 . S
C269 C268 1.395 . S
C269 C270 1.288 . S
C270 C269 1.288 . S
C270 C271 1.392 . S
C271 H247 0.951 . S
C271 C270 1.392 . S
C271 C272 1.392 . S
C272 H248 0.949 . S
C272 C267 1.382 . S
C272 C271 1.392 . S
C273 C274 1.376 . S
C273 C278 1.386 . S
C273 C279 1.483 . S
C274 H249 0.949 . S
C274 C273 1.376 . S
C274 C275 1.397 . S
C275 H250 0.950 . S
C275 C274 1.397 . S
C275 C276 1.391 . S
C276 C275 1.391 . S
C276 C277 1.405 . S
C277 H251 0.950 . S
C277 C276 1.405 . S
C277 C278 1.367 . S
C278 H252 0.950 . S
C278 C273 1.386 . S
C278 C277 1.367 . S
C279 C273 1.483 . S
C279 C280 1.382 . S
C279 C281 1.403 . S
C280 H253 0.950 . S
C280 C266 1.411 . S
C280 C279 1.382 . S
C281 C265 1.411 . S
C281 C279 1.403 . S
C281 C282 1.489 . S
C282 C281 1.489 . S
C282 C283 1.383 . S
C282 C287 1.382 . S
C283 H254 0.950 . S
C283 C282 1.383 . S
C283 C284 1.395 . S
C284 H255 0.950 . S
C284 C283 1.395 . S
C284 C285 1.288 . S
C285 C284 1.288 . S
C285 C286 1.392 . S
C286 H256 0.951 . S
C286 C285 1.392 . S
C286 C287 1.392 . S
C287 H257 0.949 . S
C287 C282 1.382 . S
C287 C286 1.392 . S
Mg288 O289 2.028 . S
Mg288 O295 1.986 . S
Mg288 O297 2.114 . S
Mg288 O298 2.251 . S
Mg288 O301 2.010 . S
O289 Mg288 2.028 . S
O289 C292 1.250 . S
O290 Mg291 2.028 . S
O290 C292 1.248 . S
Mg291 O290 2.028 . S
Mg291 O296 2.032 . S
Mg291 O298 2.079 . S
C292 O289 1.250 . S
C292 O290 1.248 . S
C293 O294 1.264 . S
C293 O301 1.249 . S
O294 C293 1.264 . S
O295 Mg288 1.986 . S
O295 C299 1.246 . S
O296 Mg291 2.032 . S
O296 C299 1.259 . S
O297 Mg288 2.114 . S
O297 C300 1.252 . S
O298 Mg288 2.251 . S
O298 Mg291 2.079 . S
O298 C300 1.273 . S
C299 O295 1.246 . S
C299 O296 1.259 . S
C300 O297 1.252 . S
C300 O298 1.273 . S
O301 Mg288 2.010 . S
O301 C293 1.249 . S
Mg302 O303 2.028 . S
Mg302 O309 1.986 . S
Mg302 O311 2.114 . S
Mg302 O312 2.251 . S
Mg302 O315 2.010 . S
O303 Mg302 2.028 . S
O303 C306 1.250 . S
O304 Mg305 2.028 . S
O304 C306 1.248 . S
Mg305 O304 2.028 . S
Mg305 O310 2.032 . S
Mg305 O312 2.079 . S
C306 O303 1.250 . S
C306 O304 1.248 . S
C307 O308 1.264 . S
C307 O315 1.249 . S
O308 C307 1.264 . S
O309 Mg302 1.986 . S
O309 C313 1.246 . S
O310 Mg305 2.032 . S
O310 C313 1.259 . S
O311 Mg302 2.114 . S
O311 C314 1.252 . S
O312 Mg302 2.251 . S
O312 Mg305 2.079 . S
O312 C314 1.273 . S
C313 O309 1.246 . S
C313 O310 1.259 . S
C314 O311 1.252 . S
C314 O312 1.273 . S
O315 Mg302 2.010 . S
O315 C307 1.249 . S
Mg316 O317 2.028 . S
Mg316 O323 1.986 . S
Mg316 O325 2.114 . S
Mg316 O326 2.251 . S
Mg316 O329 2.010 . S
O317 Mg316 2.028 . S
O317 C320 1.250 . S
O318 Mg319 2.028 . S
O318 C320 1.248 . S
Mg319 O318 2.028 . S
Mg319 O324 2.032 . S
Mg319 O326 2.079 . S
C320 O317 1.250 . S
C320 O318 1.248 . S
C321 O322 1.264 . S
C321 O329 1.249 . S
O322 C321 1.264 . S
O323 Mg316 1.986 . S
O323 C327 1.246 . S
O324 Mg319 2.032 . S
O324 C327 1.259 . S
O325 Mg316 2.114 . S
O325 C328 1.252 . S
O326 Mg316 2.251 . S
O326 Mg319 2.079 . S
O326 C328 1.273 . S
C327 O323 1.246 . S
C327 O324 1.259 . S
C328 O325 1.252 . S
C328 O326 1.273 . S
O329 Mg316 2.010 . S
O329 C321 1.249 . S
Mg330 O331 2.028 . S
Mg330 O337 1.986 . S
Mg330 O339 2.114 . S
Mg330 O340 2.251 . S
Mg330 O343 2.010 . S
O331 Mg330 2.028 . S
O331 C334 1.250 . S
O332 Mg333 2.028 . S
O332 C334 1.248 . S
Mg333 O332 2.028 . S
Mg333 O338 2.032 . S
Mg333 O340 2.079 . S
C334 O331 1.250 . S
C334 O332 1.248 . S
C335 O336 1.264 . S
C335 O343 1.249 . S
O336 C335 1.264 . S
O337 Mg330 1.986 . S
O337 C341 1.246 . S
O338 Mg333 2.032 . S
O338 C341 1.259 . S
O339 Mg330 2.114 . S
O339 C342 1.252 . S
O340 Mg330 2.251 . S
O340 Mg333 2.079 . S
O340 C342 1.273 . S
C341 O337 1.246 . S
C341 O338 1.259 . S
C342 O339 1.252 . S
C342 O340 1.273 . S
O343 Mg330 2.010 . S
O343 C335 1.249 . S
Mg344 O345 2.028 . S
Mg344 O351 1.986 . S
Mg344 O353 2.114 . S
Mg344 O354 2.251 . S
Mg344 O357 2.010 . S
O345 Mg344 2.028 . S
O345 C348 1.250 . S
O346 Mg347 2.028 . S
O346 C348 1.248 . S
Mg347 O346 2.028 . S
Mg347 O352 2.032 . S
Mg347 O354 2.079 . S
C348 O345 1.250 . S
C348 O346 1.248 . S
C349 O350 1.264 . S
C349 O357 1.249 . S
O350 C349 1.264 . S
O351 Mg344 1.986 . S
O351 C355 1.246 . S
O352 Mg347 2.032 . S
O352 C355 1.259 . S
O353 Mg344 2.114 . S
O353 C356 1.252 . S
O354 Mg344 2.251 . S
O354 Mg347 2.079 . S
O354 C356 1.273 . S
C355 O351 1.246 . S
C355 O352 1.259 . S
C356 O353 1.252 . S
C356 O354 1.273 . S
O357 Mg344 2.010 . S
O357 C349 1.249 . S
Mg358 O359 2.028 . S
Mg358 O365 1.986 . S
Mg358 O367 2.114 . S
Mg358 O368 2.251 . S
Mg358 O371 2.010 . S
O359 Mg358 2.028 . S
O359 C362 1.250 . S
O360 Mg361 2.028 . S
O360 C362 1.248 . S
Mg361 O360 2.028 . S
Mg361 O366 2.032 . S
Mg361 O368 2.079 . S
C362 O359 1.250 . S
C362 O360 1.248 . S
C363 O364 1.264 . S
C363 O371 1.249 . S
O364 C363 1.264 . S
O365 Mg358 1.986 . S
O365 C369 1.246 . S
O366 Mg361 2.032 . S
O366 C369 1.259 . S
O367 Mg358 2.114 . S
O367 C370 1.252 . S
O368 Mg358 2.251 . S
O368 Mg361 2.079 . S
O368 C370 1.273 . S
C369 O365 1.246 . S
C369 O366 1.259 . S
C370 O367 1.252 . S
C370 O368 1.273 . S
O371 Mg358 2.010 . S
O371 C363 1.249 . S
H372 C380 0.950 . S
H373 C385 0.950 . S
H374 C382 0.950 . S
H375 C384 0.950 . S
H376 C386 0.950 . S
H377 C388 0.950 . S
H378 C390 0.950 . S
H379 C391 0.950 . S
C380 H372 0.950 . S
C380 C381 1.386 . S
C380 C382 1.391 . S
C381 C380 1.386 . S
C381 C385 1.393 . S
C382 H374 0.950 . S
C382 C380 1.391 . S
C382 C383 1.400 . S
C383 C382 1.400 . S
C383 C384 1.398 . S
C383 C389 1.491 . S
C384 H375 0.950 . S
C384 C383 1.398 . S
C384 C385 1.391 . S
C385 H373 0.950 . S
C385 C381 1.393 . S
C385 C384 1.391 . S
C386 H376 0.950 . S
C386 C387 1.386 . S
C386 C388 1.391 . S
C387 C386 1.386 . S
C387 C391 1.393 . S
C388 H377 0.950 . S
C388 C386 1.391 . S
C388 C389 1.400 . S
C389 C383 1.491 . S
C389 C388 1.400 . S
C389 C390 1.398 . S
C390 H378 0.950 . S
C390 C389 1.398 . S
C390 C391 1.391 . S
C391 H379 0.950 . S
C391 C387 1.393 . S
C391 C390 1.391 . S
H392 C400 0.950 . S
H393 C405 0.950 . S
H394 C402 0.950 . S
H395 C404 0.950 . S
H396 C406 0.950 . S
H397 C408 0.950 . S
H398 C410 0.950 . S
H399 C411 0.950 . S
C400 H392 0.950 . S
C400 C401 1.386 . S
C400 C402 1.391 . S
C401 C400 1.386 . S
C401 C405 1.393 . S
C402 H394 0.950 . S
C402 C400 1.391 . S
C402 C403 1.400 . S
C403 C402 1.400 . S
C403 C404 1.398 . S
C403 C409 1.491 . S
C404 H395 0.950 . S
C404 C403 1.398 . S
C404 C405 1.391 . S
C405 H393 0.950 . S
C405 C401 1.393 . S
C405 C404 1.391 . S
C406 H396 0.950 . S
C406 C407 1.386 . S
C406 C408 1.391 . S
C407 C406 1.386 . S
C407 C411 1.393 . S
C408 H397 0.950 . S
C408 C406 1.391 . S
C408 C409 1.400 . S
C409 C403 1.491 . S
C409 C408 1.400 . S
C409 C410 1.398 . S
C410 H398 0.950 . S
C410 C409 1.398 . S
C410 C411 1.391 . S
C411 H399 0.950 . S
C411 C407 1.393 . S
C411 C410 1.391 . S
H412 C420 0.950 . S
H413 C425 0.950 . S
H414 C422 0.950 . S
H415 C424 0.950 . S
H416 C426 0.950 . S
H417 C428 0.950 . S
H418 C430 0.950 . S
H419 C431 0.950 . S
C420 H412 0.950 . S
C420 C421 1.386 . S
C420 C422 1.391 . S
C421 C420 1.386 . S
C421 C425 1.393 . S
C422 H414 0.950 . S
C422 C420 1.391 . S
C422 C423 1.400 . S
C423 C422 1.400 . S
C423 C424 1.398 . S
C423 C429 1.491 . S
C424 H415 0.950 . S
C424 C423 1.398 . S
C424 C425 1.391 . S
C425 H413 0.950 . S
C425 C421 1.393 . S
C425 C424 1.391 . S
C426 H416 0.950 . S
C426 C427 1.386 . S
C426 C428 1.391 . S
C427 C426 1.386 . S
C427 C431 1.393 . S
C428 H417 0.950 . S
C428 C426 1.391 . S
C428 C429 1.400 . S
C429 C423 1.491 . S
C429 C428 1.400 . S
C429 C430 1.398 . S
C430 H418 0.950 . S
C430 C429 1.398 . S
C430 C431 1.391 . S
C431 H419 0.950 . S
C431 C427 1.393 . S
C431 C430 1.391 . S
H432 C440 0.950 . S
H433 C445 0.950 . S
H434 C442 0.950 . S
H435 C444 0.950 . S
H436 C446 0.950 . S
H437 C448 0.950 . S
H438 C450 0.950 . S
H439 C451 0.950 . S
C440 H432 0.950 . S
C440 C441 1.386 . S
C440 C442 1.391 . S
C441 C440 1.386 . S
C441 C445 1.393 . S
C442 H434 0.950 . S
C442 C440 1.391 . S
C442 C443 1.400 . S
C443 C442 1.400 . S
C443 C444 1.398 . S
C443 C449 1.491 . S
C444 H435 0.950 . S
C444 C443 1.398 . S
C444 C445 1.391 . S
C445 H433 0.950 . S
C445 C441 1.393 . S
C445 C444 1.391 . S
C446 H436 0.950 . S
C446 C447 1.386 . S
C446 C448 1.391 . S
C447 C446 1.386 . S
C447 C451 1.393 . S
C448 H437 0.950 . S
C448 C446 1.391 . S
C448 C449 1.400 . S
C449 C443 1.491 . S
C449 C448 1.400 . S
C449 C450 1.398 . S
C450 H438 0.950 . S
C450 C449 1.398 . S
C450 C451 1.391 . S
C451 H439 0.950 . S
C451 C447 1.393 . S
C451 C450 1.391 . S
H452 C460 0.950 . S
H453 C465 0.950 . S
H454 C462 0.950 . S
H455 C464 0.950 . S
H456 C466 0.950 . S
H457 C468 0.950 . S
H458 C470 0.950 . S
H459 C471 0.950 . S
C460 H452 0.950 . S
C460 C461 1.386 . S
C460 C462 1.391 . S
C461 C460 1.386 . S
C461 C465 1.393 . S
C462 H454 0.950 . S
C462 C460 1.391 . S
C462 C463 1.400 . S
C463 C462 1.400 . S
C463 C464 1.398 . S
C463 C469 1.491 . S
C464 H455 0.950 . S
C464 C463 1.398 . S
C464 C465 1.391 . S
C465 H453 0.950 . S
C465 C461 1.393 . S
C465 C464 1.391 . S
C466 H456 0.950 . S
C466 C467 1.386 . S
C466 C468 1.391 . S
C467 C466 1.386 . S
C467 C471 1.393 . S
C468 H457 0.950 . S
C468 C466 1.391 . S
C468 C469 1.400 . S
C469 C463 1.491 . S
C469 C468 1.400 . S
C469 C470 1.398 . S
C470 H458 0.950 . S
C470 C469 1.398 . S
C470 C471 1.391 . S
C471 H459 0.950 . S
C471 C467 1.393 . S
C471 C470 1.391 . S
H472 C480 0.950 . S
H473 C485 0.950 . S
H474 C482 0.950 . S
H475 C484 0.950 . S
H476 C486 0.950 . S
H477 C488 0.950 . S
H478 C490 0.950 . S
H479 C491 0.950 . S
C480 H472 0.950 . S
C480 C481 1.386 . S
C480 C482 1.391 . S
C481 C480 1.386 . S
C481 C485 1.393 . S
C482 H474 0.950 . S
C482 C480 1.391 . S
C482 C483 1.400 . S
C483 C482 1.400 . S
C483 C484 1.398 . S
C483 C489 1.491 . S
C484 H475 0.950 . S
C484 C483 1.398 . S
C484 C485 1.391 . S
C485 H473 0.950 . S
C485 C481 1.393 . S
C485 C484 1.391 . S
C486 H476 0.950 . S
C486 C487 1.386 . S
C486 C488 1.391 . S
C487 C486 1.386 . S
C487 C491 1.393 . S
C488 H477 0.950 . S
C488 C486 1.391 . S
C488 C489 1.400 . S
C489 C483 1.491 . S
C489 C488 1.400 . S
C489 C490 1.398 . S
C490 H478 0.950 . S
C490 C489 1.398 . S
C490 C491 1.391 . S
C491 H479 0.950 . S
C491 C487 1.393 . S
C491 C490 1.391 . S
H492 C500 0.950 . S
H493 C505 0.950 . S
H494 C502 0.950 . S
H495 C504 0.950 . S
H496 C506 0.950 . S
H497 C508 0.950 . S
H498 C510 0.950 . S
H499 C511 0.950 . S
C500 H492 0.950 . S
C500 C501 1.386 . S
C500 C502 1.391 . S
C501 C500 1.386 . S
C501 C505 1.393 . S
C502 H494 0.950 . S
C502 C500 1.391 . S
C502 C503 1.400 . S
C503 C502 1.400 . S
C503 C504 1.398 . S
C503 C509 1.491 . S
C504 H495 0.950 . S
C504 C503 1.398 . S
C504 C505 1.391 . S
C505 H493 0.950 . S
C505 C501 1.393 . S
C505 C504 1.391 . S
C506 H496 0.950 . S
C506 C507 1.386 . S
C506 C508 1.391 . S
C507 C506 1.386 . S
C507 C511 1.393 . S
C508 H497 0.950 . S
C508 C506 1.391 . S
C508 C509 1.400 . S
C509 C503 1.491 . S
C509 C508 1.400 . S
C509 C510 1.398 . S
C510 H498 0.950 . S
C510 C509 1.398 . S
C510 C511 1.391 . S
C511 H499 0.950 . S
C511 C507 1.393 . S
C511 C510 1.391 . S
H512 C520 0.950 . S
H513 C525 0.950 . S
H514 C522 0.950 . S
H515 C524 0.950 . S
H516 C526 0.950 . S
H517 C528 0.950 . S
H518 C530 0.950 . S
H519 C531 0.950 . S
C520 H512 0.950 . S
C520 C521 1.386 . S
C520 C522 1.391 . S
C521 C520 1.386 . S
C521 C525 1.393 . S
C522 H514 0.950 . S
C522 C520 1.391 . S
C522 C523 1.400 . S
C523 C522 1.400 . S
C523 C524 1.398 . S
C523 C529 1.491 . S
C524 H515 0.950 . S
C524 C523 1.398 . S
C524 C525 1.391 . S
C525 H513 0.950 . S
C525 C521 1.393 . S
C525 C524 1.391 . S
C526 H516 0.950 . S
C526 C527 1.386 . S
C526 C528 1.391 . S
C527 C526 1.386 . S
C527 C531 1.393 . S
C528 H517 0.950 . S
C528 C526 1.391 . S
C528 C529 1.400 . S
C529 C523 1.491 . S
C529 C528 1.400 . S
C529 C530 1.398 . S
C530 H518 0.950 . S
C530 C529 1.398 . S
C530 C531 1.391 . S
C531 H519 0.950 . S
C531 C527 1.393 . S
C531 C530 1.391 . S
H532 C540 0.950 . S
H533 C545 0.950 . S
H534 C542 0.950 . S
H535 C544 0.950 . S
H536 C546 0.950 . S
H537 C548 0.950 . S
H538 C550 0.950 . S
H539 C551 0.950 . S
C540 H532 0.950 . S
C540 C541 1.386 . S
C540 C542 1.391 . S
C541 C540 1.386 . S
C541 C545 1.393 . S
C542 H534 0.950 . S
C542 C540 1.391 . S
C542 C543 1.400 . S
C543 C542 1.400 . S
C543 C544 1.398 . S
C543 C549 1.491 . S
C544 H535 0.950 . S
C544 C543 1.398 . S
C544 C545 1.391 . S
C545 H533 0.950 . S
C545 C541 1.393 . S
C545 C544 1.391 . S
C546 H536 0.950 . S
C546 C547 1.386 . S
C546 C548 1.391 . S
C547 C546 1.386 . S
C547 C551 1.393 . S
C548 H537 0.950 . S
C548 C546 1.391 . S
C548 C549 1.400 . S
C549 C543 1.491 . S
C549 C548 1.400 . S
C549 C550 1.398 . S
C550 H538 0.950 . S
C550 C549 1.398 . S
C550 C551 1.391 . S
C551 H539 0.950 . S
C551 C547 1.393 . S
C551 C550 1.391 . S
H552 C560 0.950 . S
H553 C565 0.950 . S
H554 C562 0.950 . S
H555 C564 0.950 . S
H556 C566 0.950 . S
H557 C568 0.950 . S
H558 C570 0.950 . S
H559 C571 0.950 . S
C560 H552 0.950 . S
C560 C561 1.386 . S
C560 C562 1.391 . S
C561 C560 1.386 . S
C561 C565 1.393 . S
C562 H554 0.950 . S
C562 C560 1.391 . S
C562 C563 1.400 . S
C563 C562 1.400 . S
C563 C564 1.398 . S
C563 C569 1.491 . S
C564 H555 0.950 . S
C564 C563 1.398 . S
C564 C565 1.391 . S
C565 H553 0.950 . S
C565 C561 1.393 . S
C565 C564 1.391 . S
C566 H556 0.950 . S
C566 C567 1.386 . S
C566 C568 1.391 . S
C567 C566 1.386 . S
C567 C571 1.393 . S
C568 H557 0.950 . S
C568 C566 1.391 . S
C568 C569 1.400 . S
C569 C563 1.491 . S
C569 C568 1.400 . S
C569 C570 1.398 . S
C570 H558 0.950 . S
C570 C569 1.398 . S
C570 C571 1.391 . S
C571 H559 0.950 . S
C571 C567 1.393 . S
C571 C570 1.391 . S
H572 C580 0.950 . S
H573 C585 0.950 . S
H574 C582 0.950 . S
H575 C584 0.950 . S
H576 C586 0.950 . S
H577 C588 0.950 . S
H578 C590 0.950 . S
H579 C591 0.950 . S
C580 H572 0.950 . S
C580 C581 1.386 . S
C580 C582 1.391 . S
C581 C580 1.386 . S
C581 C585 1.393 . S
C582 H574 0.950 . S
C582 C580 1.391 . S
C582 C583 1.400 . S
C583 C582 1.400 . S
C583 C584 1.398 . S
C583 C589 1.491 . S
C584 H575 0.950 . S
C584 C583 1.398 . S
C584 C585 1.391 . S
C585 H573 0.950 . S
C585 C581 1.393 . S
C585 C584 1.391 . S
C586 H576 0.950 . S
C586 C587 1.386 . S
C586 C588 1.391 . S
C587 C586 1.386 . S
C587 C591 1.393 . S
C588 H577 0.950 . S
C588 C586 1.391 . S
C588 C589 1.400 . S
C589 C583 1.491 . S
C589 C588 1.400 . S
C589 C590 1.398 . S
C590 H578 0.950 . S
C590 C589 1.398 . S
C590 C591 1.391 . S
C591 H579 0.950 . S
C591 C587 1.393 . S
C591 C590 1.391 . S
H592 C600 0.950 . S
H593 C605 0.950 . S
H594 C602 0.950 . S
H595 C604 0.950 . S
H596 C606 0.950 . S
H597 C608 0.950 . S
H598 C610 0.950 . S
H599 C611 0.950 . S
C600 H592 0.950 . S
C600 C601 1.386 . S
C600 C602 1.391 . S
C601 C600 1.386 . S
C601 C605 1.393 . S
C602 H594 0.950 . S
C602 C600 1.391 . S
C602 C603 1.400 . S
C603 C602 1.400 . S
C603 C604 1.398 . S
C603 C609 1.491 . S
C604 H595 0.950 . S
C604 C603 1.398 . S
C604 C605 1.391 . S
C605 H593 0.950 . S
C605 C601 1.393 . S
C605 C604 1.391 . S
C606 H596 0.950 . S
C606 C607 1.386 . S
C606 C608 1.391 . S
C607 C606 1.386 . S
C607 C611 1.393 . S
C608 H597 0.950 . S
C608 C606 1.391 . S
C608 C609 1.400 . S
C609 C603 1.491 . S
C609 C608 1.400 . S
C609 C610 1.398 . S
C610 H598 0.950 . S
C610 C609 1.398 . S
C610 C611 1.391 . S
C611 H599 0.950 . S
C611 C607 1.393 . S
C611 C610 1.391 . S
H612 C620 0.950 . S
H613 C625 0.950 . S
H614 C622 0.950 . S
H615 C624 0.950 . S
H616 C626 0.950 . S
H617 C628 0.950 . S
H618 C630 0.950 . S
H619 C631 0.950 . S
C620 H612 0.950 . S
C620 C621 1.386 . S
C620 C622 1.391 . S
C621 C620 1.386 . S
C621 C625 1.393 . S
C622 H614 0.950 . S
C622 C620 1.391 . S
C622 C623 1.400 . S
C623 C622 1.400 . S
C623 C624 1.398 . S
C623 C629 1.491 . S
C624 H615 0.950 . S
C624 C623 1.398 . S
C624 C625 1.391 . S
C625 H613 0.950 . S
C625 C621 1.393 . S
C625 C624 1.391 . S
C626 H616 0.950 . S
C626 C627 1.386 . S
C626 C628 1.391 . S
C627 C626 1.386 . S
C627 C631 1.393 . S
C628 H617 0.950 . S
C628 C626 1.391 . S
C628 C629 1.400 . S
C629 C623 1.491 . S
C629 C628 1.400 . S
C629 C630 1.398 . S
C630 H618 0.950 . S
C630 C629 1.398 . S
C630 C631 1.391 . S
C631 H619 0.950 . S
C631 C627 1.393 . S
C631 C630 1.391 . S
H632 C640 0.950 . S
H633 C645 0.950 . S
H634 C642 0.950 . S
H635 C644 0.950 . S
H636 C646 0.950 . S
H637 C648 0.950 . S
H638 C650 0.950 . S
H639 C651 0.950 . S
C640 H632 0.950 . S
C640 C641 1.386 . S
C640 C642 1.391 . S
C641 C640 1.386 . S
C641 C645 1.393 . S
C642 H634 0.950 . S
C642 C640 1.391 . S
C642 C643 1.400 . S
C643 C642 1.400 . S
C643 C644 1.398 . S
C643 C649 1.491 . S
C644 H635 0.950 . S
C644 C643 1.398 . S
C644 C645 1.391 . S
C645 H633 0.950 . S
C645 C641 1.393 . S
C645 C644 1.391 . S
C646 H636 0.950 . S
C646 C647 1.386 . S
C646 C648 1.391 . S
C647 C646 1.386 . S
C647 C651 1.393 . S
C648 H637 0.950 . S
C648 C646 1.391 . S
C648 C649 1.400 . S
C649 C643 1.491 . S
C649 C648 1.400 . S
C649 C650 1.398 . S
C650 H638 0.950 . S
C650 C649 1.398 . S
C650 C651 1.391 . S
C651 H639 0.950 . S
C651 C647 1.393 . S
C651 C650 1.391 . S
H652 C660 0.950 . S
H653 C665 0.950 . S
H654 C662 0.950 . S
H655 C664 0.950 . S
H656 C666 0.950 . S
H657 C668 0.950 . S
H658 C670 0.950 . S
H659 C671 0.950 . S
C660 H652 0.950 . S
C660 C661 1.386 . S
C660 C662 1.391 . S
C661 C660 1.386 . S
C661 C665 1.393 . S
C662 H654 0.950 . S
C662 C660 1.391 . S
C662 C663 1.400 . S
C663 C662 1.400 . S
C663 C664 1.398 . S
C663 C669 1.491 . S
C664 H655 0.950 . S
C664 C663 1.398 . S
C664 C665 1.391 . S
C665 H653 0.950 . S
C665 C661 1.393 . S
C665 C664 1.391 . S
C666 H656 0.950 . S
C666 C667 1.386 . S
C666 C668 1.391 . S
C667 C666 1.386 . S
C667 C671 1.393 . S
C668 H657 0.950 . S
C668 C666 1.391 . S
C668 C669 1.400 . S
C669 C663 1.491 . S
C669 C668 1.400 . S
C669 C670 1.398 . S
C670 H658 0.950 . S
C670 C669 1.398 . S
C670 C671 1.391 . S
C671 H659 0.950 . S
C671 C667 1.393 . S
C671 C670 1.391 . S
H672 C680 0.950 . S
H673 C685 0.950 . S
H674 C682 0.950 . S
H675 C684 0.950 . S
H676 C686 0.950 . S
H677 C688 0.950 . S
H678 C690 0.952 . S
H679 C691 0.950 . S
C680 H672 0.950 . S
C680 C681 1.386 . S
C680 C682 1.391 . S
C681 C680 1.386 . S
C681 C685 1.393 . S
C682 H674 0.950 . S
C682 C680 1.391 . S
C682 C683 1.400 . S
C683 C682 1.400 . S
C683 C684 1.398 . S
C683 C689 1.491 . S
C684 H675 0.950 . S
C684 C683 1.398 . S
C684 C685 1.391 . S
C685 H673 0.950 . S
C685 C681 1.393 . S
C685 C684 1.391 . S
C686 H676 0.950 . S
C686 C687 1.386 1_556 S
C686 C688 1.391 . S
C687 C686 1.386 1_554 S
C687 C691 1.393 . S
C688 H677 0.950 . S
C688 C686 1.391 . S
C688 C689 1.400 . S
C689 C683 1.491 . S
C689 C688 1.400 . S
C689 C690 1.398 . S
C690 H678 0.952 . S
C690 C689 1.398 . S
C690 C691 1.391 1_556 S
C691 H679 0.950 . S
C691 C687 1.393 . S
C691 C690 1.391 1_554 S
H692 C700 0.950 . S
H693 C705 0.950 . S
H694 C702 0.950 . S
H695 C704 0.950 . S
H696 C706 0.950 . S
H697 C708 0.950 . S
H698 C710 0.950 . S
H699 C711 0.950 . S
C700 H692 0.950 . S
C700 C701 1.386 . S
C700 C702 1.391 . S
C701 C700 1.386 . S
C701 C705 1.393 . S
C702 H694 0.950 . S
C702 C700 1.391 . S
C702 C703 1.400 . S
C703 C702 1.400 . S
C703 C704 1.398 . S
C703 C709 1.491 . S
C704 H695 0.950 . S
C704 C703 1.398 . S
C704 C705 1.391 . S
C705 H693 0.950 . S
C705 C701 1.393 . S
C705 C704 1.391 . S
C706 H696 0.950 . S
C706 C707 1.386 . S
C706 C708 1.391 . S
C707 C706 1.386 . S
C707 C711 1.393 . S
C708 H697 0.950 . S
C708 C706 1.391 . S
C708 C709 1.400 . S
C709 C703 1.491 . S
C709 C708 1.400 . S
C709 C710 1.398 . S
C710 H698 0.950 . S
C710 C709 1.398 . S
C710 C711 1.391 . S
C711 H699 0.950 . S
C711 C707 1.393 . S
C711 C710 1.391 . S
H712 C720 0.950 . S
H713 C725 0.950 . S
H714 C722 0.950 . S
H715 C724 0.950 . S
H716 C726 0.950 . S
H717 C728 0.950 . S
H718 C730 0.950 . S
H719 C731 0.950 . S
C720 H712 0.950 . S
C720 C721 1.386 . S
C720 C722 1.391 . S
C721 C720 1.386 . S
C721 C725 1.393 . S
C722 H714 0.950 . S
C722 C720 1.391 . S
C722 C723 1.400 . S
C723 C722 1.400 . S
C723 C724 1.398 . S
C723 C729 1.491 . S
C724 H715 0.950 . S
C724 C723 1.398 . S
C724 C725 1.391 . S
C725 H713 0.950 . S
C725 C721 1.393 . S
C725 C724 1.391 . S
C726 H716 0.950 . S
C726 C727 1.386 . S
C726 C728 1.391 . S
C727 C726 1.386 . S
C727 C731 1.393 . S
C728 H717 0.950 . S
C728 C726 1.391 . S
C728 C729 1.400 . S
C729 C723 1.491 . S
C729 C728 1.400 . S
C729 C730 1.398 . S
C730 H718 0.950 . S
C730 C729 1.398 . S
C730 C731 1.391 . S
C731 H719 0.950 . S
C731 C727 1.393 . S
C731 C730 1.391 . S
H732 C740 0.950 . S
H733 C745 0.950 . S
H734 C742 0.950 . S
H735 C744 0.950 . S
H736 C746 0.950 . S
H737 C748 0.950 . S
H738 C750 0.950 . S
H739 C751 0.950 . S
C740 H732 0.950 . S
C740 C741 1.386 . S
C740 C742 1.391 . S
C741 C740 1.386 . S
C741 C745 1.393 . S
C742 H734 0.950 . S
C742 C740 1.391 . S
C742 C743 1.400 . S
C743 C742 1.400 . S
C743 C744 1.398 . S
C743 C749 1.491 . S
C744 H735 0.950 . S
C744 C743 1.398 . S
C744 C745 1.391 . S
C745 H733 0.950 . S
C745 C741 1.393 . S
C745 C744 1.391 . S
C746 H736 0.950 . S
C746 C747 1.386 . S
C746 C748 1.391 . S
C747 C746 1.386 . S
C747 C751 1.393 . S
C748 H737 0.950 . S
C748 C746 1.391 . S
C748 C749 1.400 . S
C749 C743 1.491 . S
C749 C748 1.400 . S
C749 C750 1.398 . S
C750 H738 0.950 . S
C750 C749 1.398 . S
C750 C751 1.391 . S
C751 H739 0.950 . S
C751 C747 1.393 . S
C751 C750 1.391 . S
H752 C760 0.950 . S
H753 C765 0.950 . S
H754 C762 0.950 . S
H755 C764 0.950 . S
H756 C766 0.950 . S
H757 C768 0.950 . S
H758 C770 0.950 . S
H759 C771 0.950 . S
C760 H752 0.950 . S
C760 C761 1.386 . S
C760 C762 1.391 . S
C761 C760 1.386 . S
C761 C765 1.393 . S
C762 H754 0.950 . S
C762 C760 1.391 . S
C762 C763 1.400 . S
C763 C762 1.400 . S
C763 C764 1.398 . S
C763 C769 1.491 . S
C764 H755 0.950 . S
C764 C763 1.398 . S
C764 C765 1.391 . S
C765 H753 0.950 . S
C765 C761 1.393 . S
C765 C764 1.391 . S
C766 H756 0.950 . S
C766 C767 1.386 . S
C766 C768 1.391 . S
C767 C766 1.386 . S
C767 C771 1.393 . S
C768 H757 0.950 . S
C768 C766 1.391 . S
C768 C769 1.400 . S
C769 C763 1.491 . S
C769 C768 1.400 . S
C769 C770 1.398 . S
C770 H758 0.950 . S
C770 C769 1.398 . S
C770 C771 1.391 . S
C771 H759 0.950 . S
C771 C767 1.393 . S
C771 C770 1.391 . S
H772 C780 0.950 . S
H773 C785 0.950 . S
H774 C782 0.950 . S
H775 C784 0.950 . S
H776 C786 0.950 . S
H777 C788 0.950 . S
H778 C790 0.950 . S
H779 C791 0.950 . S
C780 H772 0.950 . S
C780 C781 1.386 . S
C780 C782 1.391 . S
C781 C780 1.386 . S
C781 C785 1.393 . S
C782 H774 0.950 . S
C782 C780 1.391 . S
C782 C783 1.400 . S
C783 C782 1.400 . S
C783 C784 1.398 . S
C783 C789 1.491 . S
C784 H775 0.950 . S
C784 C783 1.398 . S
C784 C785 1.391 . S
C785 H773 0.950 . S
C785 C781 1.393 . S
C785 C784 1.391 . S
C786 H776 0.950 . S
C786 C787 1.386 . S
C786 C788 1.391 . S
C787 C786 1.386 . S
C787 C791 1.393 . S
C788 H777 0.950 . S
C788 C786 1.391 . S
C788 C789 1.400 . S
C789 C783 1.491 . S
C789 C788 1.400 . S
C789 C790 1.398 . S
C790 H778 0.950 . S
C790 C789 1.398 . S
C790 C791 1.391 . S
C791 H779 0.950 . S
C791 C787 1.393 . S
C791 C790 1.391 . S
H792 C800 0.950 . S
H793 C805 0.950 . S
H794 C802 0.950 . S
H795 C804 0.950 . S
H796 C806 0.950 . S
H797 C808 0.950 . S
H798 C810 0.950 . S
H799 C811 0.950 . S
C800 H792 0.950 . S
C800 C801 1.386 . S
C800 C802 1.391 . S
C801 C800 1.386 . S
C801 C805 1.393 . S
C802 H794 0.950 . S
C802 C800 1.391 . S
C802 C803 1.400 . S
C803 C802 1.400 . S
C803 C804 1.398 . S
C803 C809 1.491 . S
C804 H795 0.950 . S
C804 C803 1.398 . S
C804 C805 1.391 . S
C805 H793 0.950 . S
C805 C801 1.393 . S
C805 C804 1.391 . S
C806 H796 0.950 . S
C806 C807 1.386 . S
C806 C808 1.391 . S
C807 C806 1.386 . S
C807 C811 1.393 . S
C808 H797 0.950 . S
C808 C806 1.391 . S
C808 C809 1.400 . S
C809 C803 1.491 . S
C809 C808 1.400 . S
C809 C810 1.398 . S
C810 H798 0.950 . S
C810 C809 1.398 . S
C810 C811 1.391 . S
C811 H799 0.950 . S
C811 C807 1.393 . S
C811 C810 1.391 . S
H812 C820 0.950 . S
H813 C825 0.950 . S
H814 C822 0.950 1_556 S
H815 C824 0.950 . S
H816 C826 0.950 . S
H817 C828 0.950 1_554 S
H818 C830 0.950 . S
H819 C831 0.950 . S
C820 H812 0.950 . S
C820 C821 1.386 . S
C820 C822 1.391 . S
C821 C820 1.386 . S
C821 C825 1.393 . S
C822 H814 0.950 1_554 S
C822 C820 1.391 . S
C822 C823 1.400 . S
C823 C822 1.400 . S
C823 C824 1.398 . S
C823 C829 1.491 1_554 S
C824 H815 0.950 . S
C824 C823 1.398 . S
C824 C825 1.391 . S
C825 H813 0.950 . S
C825 C821 1.393 . S
C825 C824 1.391 . S
C826 H816 0.950 . S
C826 C827 1.386 . S
C826 C828 1.391 . S
C827 C826 1.386 . S
C827 C831 1.393 . S
C828 H817 0.950 1_556 S
C828 C826 1.391 . S
C828 C829 1.400 . S
C829 C823 1.491 1_556 S
C829 C828 1.400 . S
C829 C830 1.398 . S
C830 H818 0.950 . S
C830 C829 1.398 . S
C830 C831 1.391 . S
C831 H819 0.950 . S
C831 C827 1.393 . S
C831 C830 1.391 . S
H832 C840 0.950 . S
H833 C845 0.950 . S
H834 C842 0.950 . S
H835 C844 0.950 . S
H836 C846 0.950 . S
H837 C848 0.950 . S
H838 C850 0.950 . S
H839 C851 0.950 . S
C840 H832 0.950 . S
C840 C841 1.386 . S
C840 C842 1.391 . S
C841 C840 1.386 . S
C841 C845 1.393 . S
C842 H834 0.950 . S
C842 C840 1.391 . S
C842 C843 1.400 . S
C843 C842 1.400 . S
C843 C844 1.398 . S
C843 C849 1.491 . S
C844 H835 0.950 . S
C844 C843 1.398 . S
C844 C845 1.391 . S
C845 H833 0.950 . S
C845 C841 1.393 . S
C845 C844 1.391 . S
C846 H836 0.950 . S
C846 C847 1.386 . S
C846 C848 1.391 . S
C847 C846 1.386 . S
C847 C851 1.393 . S
C848 H837 0.950 . S
C848 C846 1.391 . S
C848 C849 1.400 . S
C849 C843 1.491 . S
C849 C848 1.400 . S
C849 C850 1.398 . S
C850 H838 0.950 . S
C850 C849 1.398 . S
C850 C851 1.391 . S
C851 H839 0.950 . S
C851 C847 1.393 . S
C851 C850 1.391 . S
C387 C363 1.259 . S
C381 C45 1.531 . S
C401 C84 1.567 . S
C407 C293 1.311 . S
C421 C126 1.509 . S
C427 C313 1.540 . S
C441 C189 1.473 . S
C447 C327 1.472 . S
C467 C335 1.285 . S
C461 C228 1.511 . S
C481 C270 1.496 . S
C487 C349 1.272 . S
C501 C69 1.541 . S
C507 C307 1.327 . S
C521 C141 1.515 . S
C527 C321 1.272 . S
C541 C174 1.438 . S
C547 C341 1.466 . S
C567 C355 1.517 . S
C561 C213 1.478 . S
C587 C369 1.516 . S
C581 C285 1.511 . S
C607 C299 1.538 . S
C601 C30 1.483 . S
C621 C36 1.461 . S
C627 C306 1.439 . S
C641 C93 1.469 . S
C647 C320 1.451 . S
C667 C342 1.460 . S
C661 C117 1.455 . S
C681 C180 1.464 . S
C687 C356 1.464 . S
C707 C370 1.433 . S
C701 C237 1.432 . S
C727 C300 1.418 . S
C721 C261 1.413 . S
C747 C362 1.414 . S
C741 C78 1.445 . S
C761 C132 1.455 . S
C767 C292 1.420 . S
C787 C314 1.451 . S
C781 C165 1.451 . S
C801 C222 1.445 . S
C807 C328 1.454 . S
C821 C276 1.503 . S
C827 C334 1.478 . S
C841 C21 1.481 . S
C847 C348 1.450 . S
