# Generated by pormake.
# Topology ptr, (4,4)-cn, num edge types: 1
# Building blocks:
#     Node 0, Type 0, BuildingBlock: CEKHIL_clean_sbu_0, # of connection points: 4
#     Node 1, Type 0, BuildingBlock: CEKHIL_clean_sbu_0, # of connection points: 4
#     Node 2, Type 0, BuildingBlock: CEKHIL_clean_sbu_0, # of connection points: 4
#     Node 3, Type 0, BuildingBlock: CEKHIL_clean_sbu_0, # of connection points: 4
#     Node 4, Type 0, BuildingBlock: CEKHIL_clean_sbu_0, # of connection points: 4
#     Node 5, Type 0, BuildingBlock: CEKHIL_clean_sbu_0, # of connection points: 4
#     Node 6, Type 0, BuildingBlock: CEKHIL_clean_sbu_0, # of connection points: 4
#     Node 7, Type 0, BuildingBlock: CEKHIL_clean_sbu_0, # of connection points: 4
#     Node 8, Type 0, BuildingBlock: CEKHIL_clean_sbu_0, # of connection points: 4
#     Node 9, Type 0, BuildingBlock: CEKHIL_clean_sbu_0, # of connection points: 4
#     Node 10, Type 0, BuildingBlock: CEKHIL_clean_sbu_0, # of connection points: 4
#     Node 11, Type 0, BuildingBlock: CEKHIL_clean_sbu_0, # of connection points: 4
#     Node 12, Type 0, BuildingBlock: CEKHIL_clean_sbu_0, # of connection points: 4
#     Node 13, Type 0, BuildingBlock: CEKHIL_clean_sbu_0, # of connection points: 4
#     Node 14, Type 0, BuildingBlock: CEKHIL_clean_sbu_0, # of connection points: 4
#     Node 15, Type 0, BuildingBlock: CEKHIL_clean_sbu_0, # of connection points: 4
#     Node 16, Type 0, BuildingBlock: CEKHIL_clean_sbu_0, # of connection points: 4
#     Node 17, Type 0, BuildingBlock: CEKHIL_clean_sbu_0, # of connection points: 4
#     Node 18, Type 1, BuildingBlock: NAHDIM_clean_linker_0, # of connection points: 4
#     Node 19, Type 1, BuildingBlock: NAHDIM_clean_linker_0, # of connection points: 4
#     Node 20, Type 1, BuildingBlock: NAHDIM_clean_linker_0, # of connection points: 4
#     Node 21, Type 1, BuildingBlock: NAHDIM_clean_linker_0, # of connection points: 4
#     Node 22, Type 1, BuildingBlock: NAHDIM_clean_linker_0, # of connection points: 4
#     Node 23, Type 1, BuildingBlock: NAHDIM_clean_linker_0, # of connection points: 4
#     Node 24, Type 1, BuildingBlock: NAHDIM_clean_linker_0, # of connection points: 4
#     Node 25, Type 1, BuildingBlock: NAHDIM_clean_linker_0, # of connection points: 4
#     Node 26, Type 1, BuildingBlock: NAHDIM_clean_linker_0, # of connection points: 4
#     Node 27, Type 1, BuildingBlock: NAHDIM_clean_linker_0, # of connection points: 4
#     Node 28, Type 1, BuildingBlock: NAHDIM_clean_linker_0, # of connection points: 4
#     Node 29, Type 1, BuildingBlock: NAHDIM_clean_linker_0, # of connection points: 4
#     Node 30, Type 1, BuildingBlock: NAHDIM_clean_linker_0, # of connection points: 4
#     Node 31, Type 1, BuildingBlock: NAHDIM_clean_linker_0, # of connection points: 4
#     Node 32, Type 1, BuildingBlock: NAHDIM_clean_linker_0, # of connection points: 4
#     Node 33, Type 1, BuildingBlock: NAHDIM_clean_linker_0, # of connection points: 4
#     Node 34, Type 1, BuildingBlock: NAHDIM_clean_linker_0, # of connection points: 4
#     Node 35, Type 1, BuildingBlock: NAHDIM_clean_linker_0, # of connection points: 4
#     Edge 36, Type (0, 1), BuildingBlock: TEMPAE_clean_linker_10, # of connection points: 2
#     Edge 37, Type (0, 1), BuildingBlock: TEMPAE_clean_linker_10, # of connection points: 2
#     Edge 38, Type (0, 1), BuildingBlock: TEMPAE_clean_linker_10, # of connection points: 2
#     Edge 39, Type (0, 1), BuildingBlock: TEMPAE_clean_linker_10, # of connection points: 2
#     Edge 40, Type (0, 1), BuildingBlock: TEMPAE_clean_linker_10, # of connection points: 2
#     Edge 41, Type (0, 1), BuildingBlock: TEMPAE_clean_linker_10, # of connection points: 2
#     Edge 42, Type (0, 1), BuildingBlock: TEMPAE_clean_linker_10, # of connection points: 2
#     Edge 43, Type (0, 1), BuildingBlock: TEMPAE_clean_linker_10, # of connection points: 2
#     Edge 44, Type (0, 1), BuildingBlock: TEMPAE_clean_linker_10, # of connection points: 2
#     Edge 45, Type (0, 1), BuildingBlock: TEMPAE_clean_linker_10, # of connection points: 2
#     Edge 46, Type (0, 1), BuildingBlock: TEMPAE_clean_linker_10, # of connection points: 2
#     Edge 47, Type (0, 1), BuildingBlock: TEMPAE_clean_linker_10, # of connection points: 2
#     Edge 48, Type (0, 1), BuildingBlock: TEMPAE_clean_linker_10, # of connection points: 2
#     Edge 49, Type (0, 1), BuildingBlock: TEMPAE_clean_linker_10, # of connection points: 2
#     Edge 50, Type (0, 1), BuildingBlock: TEMPAE_clean_linker_10, # of connection points: 2
#     Edge 51, Type (0, 1), BuildingBlock: TEMPAE_clean_linker_10, # of connection points: 2
#     Edge 52, Type (0, 1), BuildingBlock: TEMPAE_clean_linker_10, # of connection points: 2
#     Edge 53, Type (0, 1), BuildingBlock: TEMPAE_clean_linker_10, # of connection points: 2
#     Edge 54, Type (0, 1), BuildingBlock: TEMPAE_clean_linker_10, # of connection points: 2
#     Edge 55, Type (0, 1), BuildingBlock: TEMPAE_clean_linker_10, # of connection points: 2
#     Edge 56, Type (0, 1), BuildingBlock: TEMPAE_clean_linker_10, # of connection points: 2
#     Edge 57, Type (0, 1), BuildingBlock: TEMPAE_clean_linker_10, # of connection points: 2
#     Edge 58, Type (0, 1), BuildingBlock: TEMPAE_clean_linker_10, # of connection points: 2
#     Edge 59, Type (0, 1), BuildingBlock: TEMPAE_clean_linker_10, # of connection points: 2
#     Edge 60, Type (0, 1), BuildingBlock: TEMPAE_clean_linker_10, # of connection points: 2
#     Edge 61, Type (0, 1), BuildingBlock: TEMPAE_clean_linker_10, # of connection points: 2
#     Edge 62, Type (0, 1), BuildingBlock: TEMPAE_clean_linker_10, # of connection points: 2
#     Edge 63, Type (0, 1), BuildingBlock: TEMPAE_clean_linker_10, # of connection points: 2
#     Edge 64, Type (0, 1), BuildingBlock: TEMPAE_clean_linker_10, # of connection points: 2
#     Edge 65, Type (0, 1), BuildingBlock: TEMPAE_clean_linker_10, # of connection points: 2
#     Edge 66, Type (0, 1), BuildingBlock: TEMPAE_clean_linker_10, # of connection points: 2
#     Edge 67, Type (0, 1), BuildingBlock: TEMPAE_clean_linker_10, # of connection points: 2
#     Edge 68, Type (0, 1), BuildingBlock: TEMPAE_clean_linker_10, # of connection points: 2
#     Edge 69, Type (0, 1), BuildingBlock: TEMPAE_clean_linker_10, # of connection points: 2
#     Edge 70, Type (0, 1), BuildingBlock: TEMPAE_clean_linker_10, # of connection points: 2
#     Edge 71, Type (0, 1), BuildingBlock: TEMPAE_clean_linker_10, # of connection points: 2
#     Edge 72, Type (0, 1), BuildingBlock: TEMPAE_clean_linker_10, # of connection points: 2
#     Edge 73, Type (0, 1), BuildingBlock: TEMPAE_clean_linker_10, # of connection points: 2
#     Edge 74, Type (0, 1), BuildingBlock: TEMPAE_clean_linker_10, # of connection points: 2
#     Edge 75, Type (0, 1), BuildingBlock: TEMPAE_clean_linker_10, # of connection points: 2
#     Edge 76, Type (0, 1), BuildingBlock: TEMPAE_clean_linker_10, # of connection points: 2
#     Edge 77, Type (0, 1), BuildingBlock: TEMPAE_clean_linker_10, # of connection points: 2
#     Edge 78, Type (0, 1), BuildingBlock: TEMPAE_clean_linker_10, # of connection points: 2
#     Edge 79, Type (0, 1), BuildingBlock: TEMPAE_clean_linker_10, # of connection points: 2
#     Edge 80, Type (0, 1), BuildingBlock: TEMPAE_clean_linker_10, # of connection points: 2
#     Edge 81, Type (0, 1), BuildingBlock: TEMPAE_clean_linker_10, # of connection points: 2
#     Edge 82, Type (0, 1), BuildingBlock: TEMPAE_clean_linker_10, # of connection points: 2
#     Edge 83, Type (0, 1), BuildingBlock: TEMPAE_clean_linker_10, # of connection points: 2
#     Edge 84, Type (0, 1), BuildingBlock: TEMPAE_clean_linker_10, # of connection points: 2
#     Edge 85, Type (0, 1), BuildingBlock: TEMPAE_clean_linker_10, # of connection points: 2
#     Edge 86, Type (0, 1), BuildingBlock: TEMPAE_clean_linker_10, # of connection points: 2
#     Edge 87, Type (0, 1), BuildingBlock: TEMPAE_clean_linker_10, # of connection points: 2
#     Edge 88, Type (0, 1), BuildingBlock: TEMPAE_clean_linker_10, # of connection points: 2
#     Edge 89, Type (0, 1), BuildingBlock: TEMPAE_clean_linker_10, # of connection points: 2
#     Edge 90, Type (0, 1), BuildingBlock: TEMPAE_clean_linker_10, # of connection points: 2
#     Edge 91, Type (0, 1), BuildingBlock: TEMPAE_clean_linker_10, # of connection points: 2
#     Edge 92, Type (0, 1), BuildingBlock: TEMPAE_clean_linker_10, # of connection points: 2
#     Edge 93, Type (0, 1), BuildingBlock: TEMPAE_clean_linker_10, # of connection points: 2
#     Edge 94, Type (0, 1), BuildingBlock: TEMPAE_clean_linker_10, # of connection points: 2
#     Edge 95, Type (0, 1), BuildingBlock: TEMPAE_clean_linker_10, # of connection points: 2
#     Edge 96, Type (0, 1), BuildingBlock: TEMPAE_clean_linker_10, # of connection points: 2
#     Edge 97, Type (0, 1), BuildingBlock: TEMPAE_clean_linker_10, # of connection points: 2
#     Edge 98, Type (0, 1), BuildingBlock: TEMPAE_clean_linker_10, # of connection points: 2
#     Edge 99, Type (0, 1), BuildingBlock: TEMPAE_clean_linker_10, # of connection points: 2
#     Edge 100, Type (0, 1), BuildingBlock: TEMPAE_clean_linker_10, # of connection points: 2
#     Edge 101, Type (0, 1), BuildingBlock: TEMPAE_clean_linker_10, # of connection points: 2
#     Edge 102, Type (0, 1), BuildingBlock: TEMPAE_clean_linker_10, # of connection points: 2
#     Edge 103, Type (0, 1), BuildingBlock: TEMPAE_clean_linker_10, # of connection points: 2
#     Edge 104, Type (0, 1), BuildingBlock: TEMPAE_clean_linker_10, # of connection points: 2
#     Edge 105, Type (0, 1), BuildingBlock: TEMPAE_clean_linker_10, # of connection points: 2
#     Edge 106, Type (0, 1), BuildingBlock: TEMPAE_clean_linker_10, # of connection points: 2
#     Edge 107, Type (0, 1), BuildingBlock: TEMPAE_clean_linker_10, # of connection points: 2
# Relax obj value: 0.030
# Max RMSD: 0.167
# Mean RMSD: 0.058
data_MOF--net-ptr--node1-CEKHIL_clean_sbu_0--node2-NAHDIM_clean_linker_0--edge1-TEMPAE_clean_linker_10
_symmetry_space_group_name_H-M    P1
_symmetry_Int_Tables_number       1
_symmetry_cell_setting            triclinic
loop_
_symmetry_equiv_pos_as_xyz
'x, y, z'
_cell_length_a     95.839213
_cell_length_b     94.202919
_cell_length_c     81.27604
_cell_angle_alpha  91.821176
_cell_angle_beta   89.841837
_cell_angle_gamma 121.1252
loop_
_atom_site_label
_atom_site_type_symbol
_atom_site_fract_x
_atom_site_fract_y
_atom_site_fract_z
_atom_type_partial_charge
Co0 Co 0.00389 0.33478 0.01098 0.0
O1 O 0.00662 0.32316 0.0284 0.0
O2 O 0.02655 0.34639 0.01818 0.0
C3 C 0.98908 0.31233 0.99427 0.0
O4 O 0.00551 0.3499 0.99268 0.0
Co5 Co 0.96958 0.32765 0.002 0.0
O6 O 0.98041 0.33949 0.98177 0.0
C7 C 0.98649 0.34869 0.03136 0.0
C8 C 0.02193 0.33459 0.02858 0.0
C9 C 0.99577 0.34943 0.98149 0.0
O10 O 0.99905 0.34782 0.02758 0.0
O11 O 0.97303 0.3409 0.02317 0.0
O12 O 0.00488 0.31994 0.99464 0.0
O13 O 0.98262 0.31756 0.00507 0.0
Co14 Co 0.66447 0.66069 0.01745 0.0
O15 O 0.67905 0.67492 0.00102 0.0
O16 O 0.67528 0.65038 0.00703 0.0
C17 C 0.67257 0.68091 0.0371 0.0
O18 O 0.65117 0.64274 0.03372 0.0
Co19 Co 0.63753 0.6654 0.03266 0.0
O20 O 0.63565 0.64933 0.04899 0.0
C21 C 0.63317 0.65078 0.99892 0.0
C22 C 0.68289 0.66368 0.99851 0.0
C23 C 0.64153 0.64015 0.0458 0.0
O24 O 0.64618 0.65017 0.00069 0.0
O25 O 0.6283 0.65735 0.00978 0.0
O26 O 0.6807 0.6735 0.03463 0.0
O27 O 0.66041 0.67653 0.02714 0.0
Co28 Co 0.33499 0.00375 0.00495 0.0
O29 O 0.32372 0.00811 0.9882 0.0
O30 O 0.34636 0.0273 0.0011 0.0
C31 C 0.31268 0.98715 0.01953 0.0
O32 O 0.34973 0.00401 0.02317 0.0
Co33 Co 0.3281 0.96837 0.00986 0.0
O34 O 0.33951 0.97792 0.03129 0.0
C35 C 0.34908 0.98775 0.9826 0.0
C36 C 0.33485 0.02365 0.99033 0.0
C37 C 0.34927 0.99351 0.03324 0.0
O38 O 0.34808 0.00027 0.98761 0.0
O39 O 0.34141 0.97362 0.9893 0.0
O40 O 0.32009 0.00316 0.02153 0.0
O41 O 0.31811 0.98166 0.0079 0.0
Co42 Co 0.00314 0.6712 0.01545 0.0
O43 O 0.9994 0.68322 0.99909 0.0
O44 O 0.98001 0.66067 0.0108 0.0
C45 C 0.02048 0.69406 0.03068 0.0
O46 O 0.00207 0.65572 0.0331 0.0
Co47 Co 0.03694 0.67618 0.02178 0.0
O48 O 0.02715 0.66228 0.04106 0.0
C49 C 0.01766 0.6561 0.99274 0.0
C50 C 0.98399 0.67248 0.00057 0.0
C51 C 0.01173 0.65381 0.0425 0.0
O52 O 0.00557 0.65742 0.99752 0.0
O53 O 0.03149 0.6633 0.00024 0.0
O54 O 0.00484 0.68689 0.03258 0.0
O55 O 0.02522 0.68774 0.0192 0.0
Co56 Co 0.34742 0.34945 0.99254 0.0
O57 O 0.33373 0.33347 0.00824 0.0
O58 O 0.33483 0.35716 0.00434 0.0
C59 C 0.34052 0.3302 0.97191 0.0
O60 O 0.35921 0.36867 0.97702 0.0
Co61 Co 0.37622 0.34925 0.97703 0.0
O62 O 0.3777 0.36623 0.96229 0.0
C63 C 0.37923 0.36145 0.01128 0.0
C64 C 0.32841 0.34329 0.01202 0.0
C65 C 0.36981 0.37342 0.96553 0.0
O66 O 0.36542 0.36045 0.0096 0.0
O67 O 0.38542 0.35672 -1e-05 0.0
O68 O 0.33173 0.33674 0.97517 0.0
O69 O 0.35308 0.3351 0.98155 0.0
Co70 Co 0.66407 0.99963 0.00756 0.0
O71 O 0.67719 0.99525 0.02179 0.0
O72 O 0.65329 0.97596 0.01106 0.0
C73 C 0.68495 0.01679 0.99164 0.0
O74 O 0.64775 0.99965 0.99156 0.0
Co75 Co 0.6706 0.03526 0.00589 0.0
O76 O 0.65437 0.02593 0.98754 0.0
C77 C 0.6546 0.01568 0.03477 0.0
C78 C 0.66608 0.9797 0.02 0.0
C79 C 0.64566 0.01038 0.98429 0.0
O80 O 0.65269 0.00264 0.02707 0.0
O81 O 0.66298 0.03027 0.02917 0.0
O82 O 0.67742 0.00083 0.98893 0.0
O83 O 0.68043 0.02175 0.00446 0.0
Co84 Co 0.67016 0.67421 0.33781 0.0
O85 O 0.66923 0.65988 0.35467 0.0
O86 O 0.69118 0.68385 0.34878 0.0
C87 C 0.65759 0.65378 0.31835 0.0
O88 O 0.67617 0.69208 0.32101 0.0
Co89 Co 0.63932 0.6705 0.32169 0.0
O90 O 0.65443 0.68561 0.30515 0.0
C91 C 0.64999 0.68667 0.35476 0.0
C92 C 0.68454 0.67063 0.3575 0.0
C93 C 0.66962 0.69454 0.30846 0.0
O94 O 0.66282 0.68558 0.35406 0.0
O95 O 0.63892 0.68089 0.3435 0.0
O96 O 0.67315 0.66077 0.32112 0.0
O97 O 0.64995 0.65864 0.32792 0.0
Co98 Co 0.32657 0.99017 0.35368 0.0
O99 O 0.34121 0.99997 0.33559 0.0
O100 O 0.3345 0.976 0.34643 0.0
C101 C 0.33731 0.01349 0.36974 0.0
O102 O 0.31286 0.97632 0.37254 0.0
Co103 Co 0.30272 0.00125 0.36515 0.0
O104 O 0.29676 0.98513 0.38286 0.0
C105 C 0.29706 0.98271 0.33359 0.0
C106 C 0.34292 0.98716 0.33574 0.0
C107 C 0.30239 0.9755 0.38297 0.0
O108 O 0.30747 0.97869 0.33777 0.0
O109 O 0.29478 0.99304 0.34199 0.0
O110 O 0.34401 0.0045 0.36935 0.0
O111 O 0.32517 0.00876 0.35968 0.0
Co112 Co 0.01431 0.33935 0.34132 0.0
O113 O 0.00328 0.34287 0.32343 0.0
O114 O 0.02708 0.36191 0.33455 0.0
C115 C 0.99189 0.32536 0.35677 0.0
O116 O 0.02936 0.34146 0.36008 0.0
Co117 Co 0.00643 0.30518 0.35305 0.0
O118 O 0.01935 0.31755 0.37306 0.0
C119 C 0.02541 0.31855 0.32272 0.0
C120 C 0.01557 0.35806 0.32379 0.0
C121 C 0.02946 0.33304 0.37216 0.0
O122 O 0.02578 0.33231 0.32516 0.0
O123 O 0.01785 0.30611 0.33198 0.0
O124 O 0.99999 0.3415 0.35711 0.0
O125 O 0.99713 0.31831 0.34674 0.0
Co126 Co 0.66609 0.98424 0.34393 0.0
O127 O 0.66461 0.99675 0.32651 0.0
O128 O 0.64539 0.97116 0.33242 0.0
C129 C 0.67539 0.0054 0.36278 0.0
O130 O 0.66248 0.96777 0.36149 0.0
Co131 Co 0.6985 0.99401 0.36131 0.0
O132 O 0.68464 0.97769 0.3778 0.0
C133 C 0.69167 0.97931 0.32755 0.0
C134 C 0.65002 0.98416 0.3237 0.0
C135 C 0.66976 0.96704 0.37443 0.0
O136 O 0.67669 0.97532 0.32875 0.0
O137 O 0.70256 0.98808 0.33856 0.0
O138 O 0.65988 0.99599 0.35961 0.0
O139 O 0.6848 0.00224 0.354 0.0
Co140 Co 0.01596 0.68688 0.34014 0.0
O141 O 0.00102 0.67054 0.35494 0.0
O142 O 0.00263 0.69443 0.35053 0.0
C143 C 0.0109 0.66822 0.31946 0.0
O144 O 0.02869 0.7063 0.32501 0.0
Co145 Co 0.04602 0.68713 0.32667 0.0
O146 O 0.04718 0.70324 0.31091 0.0
C147 C 0.04685 0.69922 0.36072 0.0
C148 C 0.99539 0.68028 0.35773 0.0
C149 C 0.03933 0.71058 0.31358 0.0
O150 O 0.03287 0.69771 0.35835 0.0
O151 O 0.05385 0.69496 0.34991 0.0
O152 O 0.00147 0.67419 0.3218 0.0
O153 O 0.02269 0.67311 0.33008 0.0
Co154 Co 0.32584 0.33623 0.34182 0.0
O155 O 0.34062 0.33623 0.35773 0.0
O156 O 0.31621 0.31457 0.3512 0.0
C157 C 0.34531 0.34914 0.32285 0.0
O158 O 0.30769 0.33096 0.32536 0.0
Co159 Co 0.32973 0.36835 0.32875 0.0
O160 O 0.31348 0.35361 0.31166 0.0
C161 C 0.31778 0.35828 0.36238 0.0
C162 C 0.32984 0.32068 0.35946 0.0
C163 C 0.30481 0.33804 0.31369 0.0
O164 O 0.3159 0.3439 0.35928 0.0
O165 O 0.3245 0.37019 0.3524 0.0
O166 O 0.33801 0.33317 0.32421 0.0
O167 O 0.3411 0.35682 0.3333 0.0
Co168 Co 0.33891 0.01475 0.66938 0.0
O169 O 0.3422 0.00467 0.68823 0.0
O170 O 0.36047 0.02889 0.67831 0.0
C171 C 0.32747 0.99171 0.65292 0.0
O172 O 0.34133 0.02925 0.65029 0.0
Co173 Co 0.30584 0.00481 0.65348 0.0
O174 O 0.31839 0.01954 0.6354 0.0
C175 C 0.31613 0.02462 0.68481 0.0
C176 C 0.35692 0.01758 0.68896 0.0
C177 C 0.33354 0.02981 0.63774 0.0
O178 O 0.33014 0.0259 0.68403 0.0
O179 O 0.30458 0.01617 0.6743 0.0
O180 O 0.34322 0.00075 0.65475 0.0
O181 O 0.31906 0.99626 0.66167 0.0
Co182 Co 0.99236 0.32239 0.67665 0.0
O183 O 0.00721 0.33732 0.6607 0.0
O184 O 0.00853 0.31669 0.67142 0.0
C185 C 0.99252 0.34215 0.69317 0.0
O186 O 0.98007 0.30485 0.69369 0.0
Co187 Co 0.95891 0.31894 0.68427 0.0
O188 O 0.95795 0.3051 0.70251 0.0
C189 C 0.96315 0.30383 0.65358 0.0
C190 C 0.01467 0.32913 0.66167 0.0
C191 C 0.96775 0.2998 0.70322 0.0
O192 O 0.97745 0.3073 0.65821 0.0
O193 O 0.95454 0.30835 0.6617 0.0
O194 O 0.00416 0.33899 0.69441 0.0
O195 O 0.982 0.33417 0.68148 0.0
Co196 Co 0.67607 0.67102 0.6745 0.0
O197 O 0.66338 0.67281 0.65724 0.0
O198 O 0.68691 0.69353 0.66716 0.0
C199 C 0.65478 0.65664 0.69129 0.0
O200 O 0.69237 0.67439 0.69246 0.0
Co201 Co 0.67 0.6372 0.68574 0.0
O202 O 0.68436 0.65039 0.70478 0.0
C203 C 0.68569 0.65033 0.65389 0.0
C204 C 0.6745 0.68846 0.65719 0.0
C205 C 0.69368 0.66606 0.70395 0.0
O206 O 0.68766 0.66462 0.65779 0.0
O207 O 0.67762 0.63751 0.66259 0.0
O208 O 0.66211 0.67271 0.69108 0.0
O209 O 0.65989 0.64982 0.68081 0.0
Co210 Co 0.33478 0.32339 0.67828 0.0
O211 O 0.33605 0.33783 0.66147 0.0
O212 O 0.31429 0.3133 0.66613 0.0
C213 C 0.34555 0.34355 0.69824 0.0
O214 O 0.32865 0.30549 0.69502 0.0
Co215 Co 0.36576 0.32851 0.69527 0.0
O216 O 0.35059 0.31106 0.71017 0.0
C217 C 0.35821 0.31582 0.66095 0.0
C218 C 0.32096 0.32686 0.6579 0.0
C219 C 0.33535 0.30242 0.707 0.0
O220 O 0.34366 0.31304 0.6626 0.0
O221 O 0.3694 0.3235 0.67198 0.0
O222 O 0.33012 0.33589 0.69451 0.0
O223 O 0.35417 0.33949 0.68919 0.0
Co224 Co 0.68106 0.02003 0.65936 0.0
O225 O 0.6671 0.00662 0.67664 0.0
O226 O 0.66965 0.03015 0.6689 0.0
C227 C 0.67334 0.99842 0.64131 0.0
O228 O 0.69324 0.03697 0.64177 0.0
Co229 Co 0.7089 0.01654 0.64536 0.0
O230 O 0.71107 0.03222 0.62854 0.0
C231 C 0.71287 0.0325 0.67815 0.0
C232 C 0.66274 0.01753 0.6784 0.0
C233 C 0.70368 0.04014 0.63034 0.0
O234 O 0.69949 0.03229 0.67588 0.0
O235 O 0.71831 0.02601 0.66787 0.0
O236 O 0.66481 0.0055 0.64293 0.0
O237 O 0.68593 0.00416 0.65104 0.0
Co238 Co 0.98075 0.66528 0.67737 0.0
O239 O 0.9905 0.66086 0.69574 0.0
O240 O 0.96614 0.64322 0.68474 0.0
C241 C 0.00309 0.67595 0.66159 0.0
O242 O 0.96678 0.66454 0.65817 0.0
Co243 Co 0.99335 0.70042 0.66476 0.0
O244 O 0.9787 0.68877 0.64548 0.0
C245 C 0.97602 0.69044 0.69634 0.0
C246 C 0.97748 0.64615 0.6954 0.0
C247 C 0.96756 0.67355 0.64623 0.0
O248 O 0.97124 0.67514 0.69289 0.0
O249 O 0.98604 0.7024 0.68747 0.0
O250 O 0.9933 0.65999 0.66213 0.0
O251 O 0.99963 0.68483 0.67124 0.0
C252 C 0.22898 0.28126 0.09212 0.0
C253 C 0.22832 0.29468 0.08256 0.0
C254 C 0.21378 0.30433 0.10038 0.0
C255 C 0.21547 0.31799 0.10944 0.0
C256 C 0.20206 0.31745 0.11704 0.0
C257 C 0.1866 0.3027 0.1158 0.0
C258 C 0.18476 0.28875 0.10672 0.0
C259 C 0.19834 0.28972 0.09901 0.0
C260 C 0.20441 0.33268 0.12634 0.0
C261 C 0.16843 0.27282 0.10518 0.0
C262 C 0.0844 0.31387 0.06716 0.0
C263 C 0.09351 0.30629 0.07361 0.0
C264 C 0.11828 0.31412 0.08936 0.0
C265 C 0.11403 0.29773 0.09232 0.0
C266 C 0.12392 0.29451 0.10233 0.0
C267 C 0.13825 0.30792 0.10965 0.0
C268 C 0.14265 0.32442 0.10658 0.0
C269 C 0.13261 0.32728 0.0964 0.0
C270 C 0.11899 0.27677 0.10521 0.0
C271 C 0.15786 0.339 0.1142 0.0
C272 C 0.09915 0.29975 0.2131 0.0
C273 C 0.0952 0.28423 0.2061 0.0
C274 C 0.10713 0.28216 0.1982 0.0
C275 C 0.12319 0.29592 0.19702 0.0
C276 C 0.12707 0.31159 0.20378 0.0
C277 C 0.11503 0.31322 0.21189 0.0
C278 C 0.10262 0.26532 0.19105 0.0
C279 C 0.14394 0.32664 0.20242 0.0
C280 C 0.18921 0.25862 0.25146 0.0
C281 C 0.20281 0.27367 0.24276 0.0
C282 C 0.18981 0.28632 0.22766 0.0
C283 C 0.18002 0.27294 0.21669 0.0
C284 C 0.17014 0.27425 0.2048 0.0
C285 C 0.1707 0.2895 0.20337 0.0
C286 C 0.18125 0.30321 0.21387 0.0
C287 C 0.19036 0.30129 0.22608 0.0
C288 C 0.15878 0.25922 0.19411 0.0
C289 C 0.1826 0.31984 0.21275 0.0
C290 C 0.17229 0.30196 0.12374 0.0
C291 C 0.16198 0.30472 0.114 0.0
C292 C 0.14854 0.3047 0.12071 0.0
C293 C 0.14519 0.30182 0.13763 0.0
C294 C 0.13191 0.30199 0.14483 0.0
C295 C 0.12882 0.29935 0.16152 0.0
C296 C 0.13885 0.29638 0.17166 0.0
C297 C 0.13599 0.29406 0.1887 0.0
C298 C 0.1462 0.29116 0.19845 0.0
C299 C 0.15955 0.29094 0.19176 0.0
C300 C 0.1627 0.2934 0.17474 0.0
C301 C 0.17619 0.29361 0.1676 0.0
C302 C 0.17922 0.29615 0.15086 0.0
C303 C 0.16908 0.29893 0.14068 0.0
C304 C 0.15546 0.29886 0.14763 0.0
C305 C 0.15225 0.29605 0.16466 0.0
C306 C 0.06288 0.29186 0.20684 0.0
C307 C 0.07159 0.29181 0.2226 0.0
O308 O 0.22736 0.30584 0.09333 0.0
O309 O 0.19842 0.28533 0.24036 0.0
O310 O 0.08824 0.30248 0.22112 0.0
O311 O 0.10885 0.31773 0.07998 0.0
H312 H 0.21747 0.28867 0.07416 0.0
H313 H 0.21774 0.27407 0.09934 0.0
H314 H 0.23958 0.2869 0.1008 0.0
H315 H 0.22999 0.27248 0.08346 0.0
H316 H 0.2274 0.32919 0.11043 0.0
H317 H 0.19674 0.27899 0.09207 0.0
H318 H 0.19546 0.33588 0.12188 0.0
H319 H 0.2169 0.34357 0.125 0.0
H320 H 0.20217 0.33008 0.13961 0.0
H321 H 0.16925 0.26268 0.09878 0.0
H322 H 0.1598 0.27498 0.09819 0.0
H323 H 0.16328 0.26872 0.11759 0.0
H324 H 0.09353 0.29666 0.06528 0.0
H325 H 0.08288 0.31066 0.05356 0.0
H326 H 0.09361 0.32743 0.06563 0.0
H327 H 0.06454 0.30553 0.08298 0.0
H328 H 0.10302 0.28738 0.08689 0.0
H329 H 0.13581 0.33987 0.09404 0.0
H330 H 0.12921 0.27485 0.10211 0.0
H331 H 0.10807 0.26774 0.09778 0.0
H332 H 0.11629 0.27414 0.11843 0.0
H333 H 0.15925 0.35106 0.1111 0.0
H334 H 0.16872 0.33876 0.10982 0.0
H335 H 0.15758 0.33808 0.12779 0.0
H336 H 0.06884 0.27902 0.22472 0.0
H337 H 0.08293 0.27368 0.20675 0.0
H338 H 0.11794 0.32514 0.21725 0.0
H339 H 0.10455 0.26605 0.17755 0.0
H340 H 0.08972 0.25572 0.19338 0.0
H341 H 0.11067 0.26136 0.19641 0.0
H342 H 0.14466 0.33816 0.20729 0.0
H343 H 0.14774 0.32834 0.18936 0.0
H344 H 0.15273 0.32477 0.20941 0.0
H345 H 0.20517 0.26944 0.23068 0.0
H346 H 0.19314 0.24966 0.25396 0.0
H347 H 0.17801 0.25211 0.24367 0.0
H348 H 0.18608 0.26247 0.26328 0.0
H349 H 0.17964 0.26132 0.21762 0.0
H350 H 0.198 0.31156 0.23456 0.0
H351 H 0.1629 0.26134 0.18118 0.0
H352 H 0.14626 0.25711 0.19433 0.0
H353 H 0.15831 0.24782 0.19812 0.0
H354 H 0.19447 0.33005 0.21781 0.0
H355 H 0.1728 0.3197 0.22016 0.0
H356 H 0.18123 0.32254 0.19986 0.0
H357 H 0.16453 0.30705 0.10102 0.0
H358 H 0.1238 0.30426 0.13766 0.0
H359 H 0.11846 0.29969 0.16638 0.0
H360 H 0.14403 0.28963 0.21157 0.0
H361 H 0.18455 0.2918 0.17487 0.0
H362 H 0.1897 0.29604 0.14603 0.0
H363 H 0.04953 0.28307 0.2076 0.0
H364 H 0.06738 0.28795 0.19606 0.0
H365 H 0.06518 0.30451 0.20482 0.0
C366 C 0.71895 0.91729 0.0677 0.0
C367 C 0.70245 0.91062 0.07601 0.0
C368 C 0.70536 0.9035 0.10342 0.0
C369 C 0.69096 0.89085 0.11001 0.0
C370 C 0.69127 0.87956 0.12064 0.0
C371 C 0.70635 0.88098 0.12456 0.0
C372 C 0.72097 0.894 0.11809 0.0
C373 C 0.7203 0.90529 0.10773 0.0
C374 C 0.67547 0.86594 0.12744 0.0
C375 C 0.73721 0.89575 0.1218 0.0
C376 C 0.69848 0.76576 0.08187 0.0
C377 C 0.70478 0.78283 0.0887 0.0
C378 C 0.69613 0.79801 0.10675 0.0
C379 C 0.71177 0.81219 0.10884 0.0
C380 C 0.71409 0.82612 0.11801 0.0
C381 C 0.70049 0.82593 0.12509 0.0
C382 C 0.68472 0.81175 0.12288 0.0
C383 C 0.68279 0.7979 0.11384 0.0
C384 C 0.73107 0.84107 0.12015 0.0
C385 C 0.66996 0.81126 0.13008 0.0
C386 C 0.70637 0.8059 0.23123 0.0
C387 C 0.72119 0.81604 0.22332 0.0
C388 C 0.72378 0.82993 0.2148 0.0
C389 C 0.71116 0.83352 0.2139 0.0
C390 C 0.69634 0.82347 0.22209 0.0
C391 C 0.69423 0.80989 0.23079 0.0
C392 C 0.7399 0.84064 0.20658 0.0
C393 C 0.68263 0.8269 0.2214 0.0
C394 C 0.75232 0.96724 0.22607 0.0
C395 C 0.73767 0.95007 0.22946 0.0
C396 C 0.73707 0.92388 0.22659 0.0
C397 C 0.74773 0.91828 0.22311 0.0
C398 C 0.74205 0.90253 0.21579 0.0
C399 C 0.72518 0.89194 0.21239 0.0
C400 C 0.71417 0.89713 0.21693 0.0
C401 C 0.72027 0.91318 0.22379 0.0
C402 C 0.75415 0.89738 0.21131 0.0
C403 C 0.69604 0.88587 0.21423 0.0
C404 C 0.70661 0.86818 0.13449 0.0
C405 C 0.70339 0.85351 0.12629 0.0
C406 C 0.70287 0.84062 0.1348 0.0
C407 C 0.70523 0.84211 0.15206 0.0
C408 C 0.7041 0.82907 0.16107 0.0
C409 C 0.70639 0.83064 0.17806 0.0
C410 C 0.71042 0.84551 0.18665 0.0
C411 C 0.71316 0.84737 0.20389 0.0
C412 C 0.71761 0.86249 0.21196 0.0
C413 C 0.71927 0.87586 0.20329 0.0
C414 C 0.71608 0.87406 0.18612 0.0
C415 C 0.71724 0.88711 0.17704 0.0
C416 C 0.71384 0.88512 0.1602 0.0
C417 C 0.70977 0.87024 0.15166 0.0
C418 C 0.70889 0.85706 0.1605 0.0
C419 C 0.71176 0.85887 0.17778 0.0
C420 C 0.7054 0.76966 0.24902 0.0
C421 C 0.71213 0.78438 0.23853 0.0
O422 O 0.70482 0.91399 0.09283 0.0
O423 O 0.74343 0.93962 0.23269 0.0
O424 O 0.70325 0.79222 0.2394 0.0
O425 O 0.69342 0.78425 0.09805 0.0
H426 H 0.69497 0.89694 0.07353 0.0
H427 H 0.7251 0.91088 0.07226 0.0
H428 H 0.72694 0.93083 0.07038 0.0
H429 H 0.71731 0.91501 0.05415 0.0
H430 H 0.6795 0.88975 0.10665 0.0
H431 H 0.73138 0.91532 0.10268 0.0
H432 H 0.67282 0.85377 0.12212 0.0
H433 H 0.66504 0.86752 0.12456 0.0
H434 H 0.67657 0.86563 0.141 0.0
H435 H 0.74739 0.90626 0.11539 0.0
H436 H 0.73685 0.88413 0.11801 0.0
H437 H 0.73975 0.89773 0.13526 0.0
H438 H 0.71098 0.79288 0.07968 0.0
H439 H 0.71311 0.75836 0.09339 0.0
H440 H 0.69823 0.7669 0.06815 0.0
H441 H 0.68483 0.7589 0.08311 0.0
H442 H 0.72223 0.81244 0.10344 0.0
H443 H 0.67078 0.78691 0.11214 0.0
H444 H 0.73166 0.85191 0.11444 0.0
H445 H 0.74046 0.83899 0.11448 0.0
H446 H 0.73405 0.84424 0.13346 0.0
H447 H 0.65844 0.79961 0.12657 0.0
H448 H 0.66924 0.82196 0.12587 0.0
H449 H 0.67112 0.81238 0.14371 0.0
H450 H 0.71496 0.78233 0.22566 0.0
H451 H 0.73078 0.8132 0.22379 0.0
H452 H 0.68289 0.80206 0.23704 0.0
H453 H 0.7381 0.83909 0.19301 0.0
H454 H 0.7491 0.83741 0.21005 0.0
H455 H 0.74476 0.85393 0.20991 0.0
H456 H 0.67159 0.81746 0.2278 0.0
H457 H 0.67931 0.82716 0.20838 0.0
H458 H 0.6867 0.83929 0.22721 0.0
H459 H 0.72985 0.94566 0.21811 0.0
H460 H 0.74828 0.97588 0.2226 0.0
H461 H 0.7594 0.96627 0.2157 0.0
H462 H 0.76045 0.97248 0.23712 0.0
H463 H 0.76064 0.92659 0.22561 0.0
H464 H 0.71194 0.91732 0.22703 0.0
H465 H 0.75279 0.89357 0.19806 0.0
H466 H 0.75166 0.88651 0.21851 0.0
H467 H 0.76695 0.90749 0.2138 0.0
H468 H 0.68902 0.89062 0.22084 0.0
H469 H 0.69198 0.87321 0.21841 0.0
H470 H 0.6931 0.88482 0.20089 0.0
H471 H 0.70133 0.85215 0.11305 0.0
H472 H 0.70127 0.81742 0.1551 0.0
H473 H 0.70514 0.82009 0.18434 0.0
H474 H 0.71993 0.86391 0.22515 0.0
H475 H 0.72062 0.89898 0.18286 0.0
H476 H 0.71468 0.89549 0.15391 0.0
H477 H 0.72377 0.77636 0.26673 0.0
H478 H 0.7013 0.75882 0.24006 0.0
H479 H 0.69267 0.76638 0.25231 0.0
C480 C 0.19413 0.90601 0.06488 0.0
C481 C 0.20591 0.91932 0.07747 0.0
C482 C 0.194 0.90374 0.10238 0.0
C483 C 0.18238 0.90831 0.10545 0.0
C484 C 0.16919 0.89902 0.1158 0.0
C485 C 0.16742 0.8847 0.12301 0.0
C486 C 0.17932 0.88029 0.12023 0.0
C487 C 0.19265 0.89011 0.11021 0.0
C488 C 0.15694 0.9043 0.11873 0.0
C489 C 0.17768 0.86491 0.12738 0.0
C490 C 0.08368 0.82416 0.05034 0.0
C491 C 0.08467 0.8149 0.06503 0.0
C492 C 0.08776 0.8253 0.09324 0.0
C493 C 0.09676 0.81878 0.09967 0.0
C494 C 0.10761 0.8268 0.11297 0.0
C495 C 0.10944 0.84162 0.11994 0.0
C496 C 0.09935 0.84743 0.11437 0.0
C497 C 0.08846 0.83904 0.10113 0.0
C498 C 0.11784 0.82 0.11891 0.0
C499 C 0.10085 0.86308 0.1217 0.0
C500 C 0.07785 0.82054 0.22709 0.0
C501 C 0.08623 0.81331 0.22007 0.0
C502 C 0.10078 0.82297 0.21154 0.0
C503 C 0.10684 0.8401 0.20972 0.0
C504 C 0.09845 0.84738 0.21696 0.0
C505 C 0.08422 0.83752 0.2258 0.0
C506 C 0.10973 0.81491 0.20457 0.0
C507 C 0.1045 0.86559 0.21546 0.0
C508 C 0.2211 0.94557 0.22549 0.0
C509 C 0.21503 0.93437 0.24042 0.0
C510 C 0.19472 0.90696 0.22846 0.0
C511 C 0.19157 0.89103 0.22438 0.0
C512 C 0.17702 0.87919 0.2163 0.0
C513 C 0.16536 0.88347 0.21217 0.0
C514 C 0.16822 0.89939 0.21667 0.0
C515 C 0.18283 0.91096 0.22478 0.0
C516 C 0.17432 0.86231 0.21168 0.0
C517 C 0.15603 0.90435 0.21241 0.0
C518 C 0.15247 0.87367 0.1323 0.0
C519 C 0.13828 0.86318 0.12318 0.0
C520 C 0.12365 0.85239 0.13086 0.0
C521 C 0.12305 0.85186 0.14821 0.0
C522 C 0.10854 0.84119 0.15634 0.0
C523 C 0.10813 0.8408 0.17347 0.0
C524 C 0.12229 0.8509 0.18309 0.0
C525 C 0.12207 0.85054 0.20051 0.0
C526 C 0.13638 0.86095 0.20963 0.0
C527 C 0.15089 0.87192 0.20185 0.0
C528 C 0.15136 0.87243 0.18449 0.0
C529 C 0.16577 0.88346 0.17633 0.0
C530 C 0.16613 0.88399 0.15926 0.0
C531 C 0.15215 0.87342 0.14967 0.0
C532 C 0.13741 0.86235 0.15765 0.0
C533 C 0.13703 0.86183 0.17509 0.0
C534 C 0.03523 0.79409 0.23229 0.0
C535 C 0.05175 0.79526 0.23211 0.0
O536 O 0.20647 0.91195 0.09178 0.0
O537 O 0.20941 0.91804 0.23558 0.0
O538 O 0.06381 0.81163 0.23547 0.0
O539 O 0.07904 0.81912 0.07897 0.0
H540 H 0.20172 0.92812 0.0803 0.0
H541 H 0.18161 0.89921 0.06984 0.0
H542 H 0.19802 0.89697 0.06198 0.0
H543 H 0.1937 0.91178 0.05333 0.0
H544 H 0.18351 0.9191 0.09984 0.0
H545 H 0.20174 0.88676 0.10786 0.0
H546 H 0.14546 0.89559 0.11191 0.0
H547 H 0.16139 0.91704 0.11452 0.0
H548 H 0.15405 0.90384 0.13201 0.0
H549 H 0.18716 0.8624 0.1228 0.0
H550 H 0.16548 0.85397 0.12426 0.0
H551 H 0.17877 0.86639 0.14099 0.0
H552 H 0.09789 0.81928 0.06646 0.0
H553 H 0.08715 0.82012 0.03884 0.0
H554 H 0.09226 0.8377 0.0524 0.0
H555 H 0.07124 0.82207 0.04878 0.0
H556 H 0.0957 0.80773 0.09398 0.0
H557 H 0.08121 0.84379 0.09624 0.0
H558 H 0.11772 0.81971 0.13256 0.0
H559 H 0.13067 0.82827 0.11518 0.0
H560 H 0.11349 0.8073 0.11375 0.0
H561 H 0.0911 0.86508 0.11713 0.0
H562 H 0.11286 0.8739 0.11852 0.0
H563 H 0.10031 0.86258 0.13533 0.0
H564 H 0.05322 0.79125 0.2195 0.0
H565 H 0.08157 0.80022 0.22151 0.0
H566 H 0.07776 0.843 0.23148 0.0
H567 H 0.10909 0.81458 0.19092 0.0
H568 H 0.1045 0.80201 0.20868 0.0
H569 H 0.12281 0.82228 0.2083 0.0
H570 H 0.09524 0.86868 0.21937 0.0
H571 H 0.10793 0.86939 0.20257 0.0
H572 H 0.11553 0.87295 0.22338 0.0
H573 H 0.20499 0.93548 0.24596 0.0
H574 H 0.22754 0.95886 0.22959 0.0
H575 H 0.21067 0.94312 0.21749 0.0
H576 H 0.22938 0.9432 0.2179 0.0
H577 H 0.20073 0.88799 0.2273 0.0
H578 H 0.18487 0.92313 0.22787 0.0
H579 H 0.17396 0.86072 0.19806 0.0
H580 H 0.16238 0.85249 0.2163 0.0
H581 H 0.18407 0.86053 0.21668 0.0
H582 H 0.15973 0.91697 0.21736 0.0
H583 H 0.14394 0.89533 0.21739 0.0
H584 H 0.15465 0.90409 0.19883 0.0
H585 H 0.13864 0.86339 0.10983 0.0
H586 H 0.09732 0.83307 0.14953 0.0
H587 H 0.09658 0.83242 0.17907 0.0
H588 H 0.13612 0.86079 0.22297 0.0
H589 H 0.17696 0.89183 0.18303 0.0
H590 H 0.17753 0.89276 0.15366 0.0
H591 H 0.03295 0.79783 0.24464 0.0
H592 H 0.02526 0.78121 0.22909 0.0
H593 H 0.03505 0.80245 0.22307 0.0
C594 C 0.30252 0.11099 0.95528 0.0
C595 C 0.30005 0.09778 0.94218 0.0
C596 C 0.30243 0.1131 0.91742 0.0
C597 C 0.28602 0.1085 0.91563 0.0
C598 C 0.28152 0.11723 0.90535 0.0
C599 C 0.2937 0.13103 0.89694 0.0
C600 C 0.31022 0.13557 0.89858 0.0
C601 C 0.3143 0.12629 0.90854 0.0
C602 C 0.26374 0.1118 0.90365 0.0
C603 C 0.32363 0.15046 0.89018 0.0
C604 C 0.25829 0.20233 0.95477 0.0
C605 C 0.27345 0.20886 0.94401 0.0
C606 C 0.27166 0.19411 0.91829 0.0
C607 C 0.28775 0.19784 0.91661 0.0
C608 C 0.29135 0.18791 0.90637 0.0
C609 C 0.2785 0.17367 0.89809 0.0
C610 C 0.26219 0.16977 0.90005 0.0
C611 C 0.25907 0.18036 0.90976 0.0
C612 C 0.3089 0.19265 0.90446 0.0
C613 C 0.24802 0.15433 0.89209 0.0
C614 C 0.26459 0.18893 0.79086 0.0
C615 C 0.28052 0.19611 0.79719 0.0
C616 C 0.28531 0.18656 0.8058 0.0
C617 C 0.27375 0.16965 0.80852 0.0
C618 C 0.25773 0.1624 0.80193 0.0
C619 C 0.25348 0.1721 0.79291 0.0
C620 C 0.3027 0.19454 0.81192 0.0
C621 C 0.24505 0.14444 0.80451 0.0
C622 C 0.28891 0.06828 0.79661 0.0
C623 C 0.28633 0.07465 0.78046 0.0
C624 C 0.29204 0.10245 0.78947 0.0
C625 C 0.30444 0.11911 0.79089 0.0
C626 C 0.30229 0.13073 0.79997 0.0
C627 C 0.28717 0.12557 0.80754 0.0
C628 C 0.27434 0.10881 0.80573 0.0
C629 C 0.27697 0.09736 0.7969 0.0
C630 C 0.31624 0.14848 0.80168 0.0
C631 C 0.25789 0.10298 0.81322 0.0
C632 C 0.28925 0.14129 0.88726 0.0
C633 C 0.28607 0.15231 0.89597 0.0
C634 C 0.28206 0.16261 0.88785 0.0
C635 C 0.28132 0.16207 0.87044 0.0
C636 C 0.27767 0.17249 0.86182 0.0
C637 C 0.27651 0.17154 0.84471 0.0
C638 C 0.27939 0.16043 0.83551 0.0
C639 C 0.27836 0.15944 0.81809 0.0
C640 C 0.28114 0.14811 0.80939 0.0
C641 C 0.28485 0.13762 0.81758 0.0
C642 C 0.28607 0.13852 0.83496 0.0
C643 C 0.28994 0.12824 0.84358 0.0
C644 C 0.29086 0.12902 0.86069 0.0
C645 C 0.28819 0.14028 0.86986 0.0
C646 C 0.28429 0.15078 0.86143 0.0
C647 C 0.28329 0.14994 0.84395 0.0
C648 C 0.24787 0.21435 0.78668 0.0
C649 C 0.26359 0.21389 0.78649 0.0
O650 O 0.30735 0.10527 0.92761 0.0
O651 O 0.29524 0.09186 0.78087 0.0
O652 O 0.25964 0.19781 0.78246 0.0
O653 O 0.26799 0.20372 0.9279 0.0
H654 H 0.28679 0.08905 0.94005 0.0
H655 H 0.29677 0.11793 0.95112 0.0
H656 H 0.31573 0.11992 0.95757 0.0
H657 H 0.29677 0.10512 0.96701 0.0
H658 H 0.27661 0.09808 0.92209 0.0
H659 H 0.32691 0.12969 0.90992 0.0
H660 H 0.26159 0.12101 0.91017 0.0
H661 H 0.25561 0.09947 0.90892 0.0
H662 H 0.26036 0.11125 0.89049 0.0
H663 H 0.33594 0.15341 0.89418 0.0
H664 H 0.32254 0.16149 0.89278 0.0
H665 H 0.32247 0.14804 0.87666 0.0
H666 H 0.28046 0.20321 0.94832 0.0
H667 H 0.26147 0.20308 0.96801 0.0
H668 H 0.24956 0.18903 0.95154 0.0
H669 H 0.25208 0.20937 0.95279 0.0
H670 H 0.2975 0.20865 0.92309 0.0
H671 H 0.24669 0.17766 0.91118 0.0
H672 H 0.31162 0.19191 0.89127 0.0
H673 H 0.31103 0.18381 0.91111 0.0
H674 H 0.31753 0.20538 0.90949 0.0
H675 H 0.2362 0.15141 0.89748 0.0
H676 H 0.24951 0.14349 0.89346 0.0
H677 H 0.24753 0.15616 0.87874 0.0
H678 H 0.26903 0.21761 0.79915 0.0
H679 H 0.28925 0.20906 0.79516 0.0
H680 H 0.24128 0.16667 0.78776 0.0
H681 H 0.30309 0.19618 0.82552 0.0
H682 H 0.3107 0.20689 0.80663 0.0
H683 H 0.30766 0.18645 0.8088 0.0
H684 H 0.23268 0.14132 0.80046 0.0
H685 H 0.24465 0.14157 0.81771 0.0
H686 H 0.24834 0.13636 0.7974 0.0
H687 H 0.27316 0.07008 0.77865 0.0
H688 H 0.28174 0.0545 0.79646 0.0
H689 H 0.2848 0.07287 0.80719 0.0
H690 H 0.30202 0.07263 0.79851 0.0
H691 H 0.31599 0.12294 0.78506 0.0
H692 H 0.26716 0.08456 0.79587 0.0
H693 H 0.31881 0.15238 0.8149 0.0
H694 H 0.31281 0.15673 0.79576 0.0
H695 H 0.32755 0.15027 0.79593 0.0
H696 H 0.24864 0.09012 0.80903 0.0
H697 H 0.25347 0.11138 0.81002 0.0
H698 H 0.25901 0.10334 0.82684 0.0
H699 H 0.28669 0.15286 0.90933 0.0
H700 H 0.27555 0.18145 0.86821 0.0
H701 H 0.27339 0.17969 0.83879 0.0
H702 H 0.2802 0.1473 0.79605 0.0
H703 H 0.29224 0.11941 0.83719 0.0
H704 H 0.29372 0.1207 0.86666 0.0
H705 H 0.24192 0.21092 0.77429 0.0
H706 H 0.25044 0.22692 0.79047 0.0
H707 H 0.23928 0.2054 0.79562 0.0
C708 C 0.80922 0.08815 0.96064 0.0
C709 C 0.79745 0.08687 0.94712 0.0
C710 C 0.80825 0.09027 0.91961 0.0
C711 C 0.8045 0.10178 0.91374 0.0
C712 C 0.81415 0.11297 0.90178 0.0
C713 C 0.82771 0.11251 0.89556 0.0
C714 C 0.83068 0.10003 0.9005 0.0
C715 C 0.82075 0.0889 0.91239 0.0
C716 C 0.81034 0.1258 0.89638 0.0
C717 C 0.84493 0.09907 0.89394 0.0
C718 C 0.92696 0.22656 0.94849 0.0
C719 C 0.91683 0.20971 0.94068 0.0
C720 C 0.89599 0.19538 0.91909 0.0
C721 C 0.89811 0.1817 0.91737 0.0
C722 C 0.8883 0.1684 0.90638 0.0
C723 C 0.87597 0.16864 0.89712 0.0
C724 C 0.87386 0.18243 0.89874 0.0
C725 C 0.88404 0.19569 0.90961 0.0
C726 C 0.89093 0.15394 0.9049 0.0
C727 C 0.86061 0.18296 0.88929 0.0
C728 C 0.90928 0.19143 0.79414 0.0
C729 C 0.90874 0.17637 0.79607 0.0
C730 C 0.89521 0.16287 0.8032 0.0
C731 C 0.88186 0.16436 0.80821 0.0
C732 C 0.88206 0.17924 0.80557 0.0
C733 C 0.89589 0.19265 0.79879 0.0
C734 C 0.89537 0.14716 0.80583 0.0
C735 C 0.86786 0.18113 0.81033 0.0
C736 C 0.76384 0.04973 0.79929 0.0
C737 C 0.77232 0.06439 0.78784 0.0
C738 C 0.80188 0.08265 0.79153 0.0
C739 C 0.81548 0.0818 0.79598 0.0
C740 C 0.82931 0.09557 0.8033 0.0
C741 C 0.82945 0.11053 0.80616 0.0
C742 C 0.81619 0.11183 0.80061 0.0
C743 C 0.8026 0.09792 0.79317 0.0
C744 C 0.84347 0.09393 0.80861 0.0
C745 C 0.81616 0.12776 0.80304 0.0
C746 C 0.84005 0.12642 0.88587 0.0
C747 C 0.85177 0.14055 0.89471 0.0
C748 C 0.86443 0.15392 0.88676 0.0
C749 C 0.86572 0.15312 0.86947 0.0
C750 C 0.87884 0.16592 0.86116 0.0
C751 C 0.87986 0.16509 0.84412 0.0
C752 C 0.86761 0.15156 0.8347 0.0
C753 C 0.86826 0.15086 0.81731 0.0
C754 C 0.8558 0.1373 0.80833 0.0
C755 C 0.84268 0.12428 0.8163 0.0
C756 C 0.84195 0.12465 0.83369 0.0
C757 C 0.82902 0.11164 0.84211 0.0
C758 C 0.82843 0.1121 0.85922 0.0
C759 C 0.84056 0.12573 0.86852 0.0
C760 C 0.85356 0.13909 0.8603 0.0
C761 C 0.85439 0.13842 0.84288 0.0
C762 C 0.94883 0.20888 0.79363 0.0
C763 C 0.93602 0.20639 0.78073 0.0
O764 O 0.80042 0.08082 0.9326 0.0
O765 O 0.78836 0.06856 0.78574 0.0
O766 O 0.92249 0.20519 0.78828 0.0
O767 O 0.90512 0.20841 0.92974 0.0
H768 H 0.80012 0.09978 0.94588 0.0
H769 H 0.82184 0.09805 0.95772 0.0
H770 H 0.80914 0.07637 0.96152 0.0
H771 H 0.80599 0.09142 0.97274 0.0
H772 H 0.79431 0.1023 0.91883 0.0
H773 H 0.82329 0.07972 0.9168 0.0
H774 H 0.81971 0.13817 0.90158 0.0
H775 H 0.79817 0.12306 0.90054 0.0
H776 H 0.81077 0.12648 0.88275 0.0
H777 H 0.84514 0.08817 0.89845 0.0
H778 H 0.8565 0.11052 0.89775 0.0
H779 H 0.84442 0.09833 0.88028 0.0
H780 H 0.91192 0.19925 0.94929 0.0
H781 H 0.95037 0.23474 0.93948 0.0
H782 H 0.92407 0.22485 0.96198 0.0
H783 H 0.92031 0.23334 0.94639 0.0
H784 H 0.90732 0.18125 0.92462 0.0
H785 H 0.88251 0.20629 0.91099 0.0
H786 H 0.88057 0.14296 0.91056 0.0
H787 H 0.90239 0.15663 0.91113 0.0
H788 H 0.89131 0.15062 0.89173 0.0
H789 H 0.85999 0.19414 0.89265 0.0
H790 H 0.8486 0.17174 0.89166 0.0
H791 H 0.86285 0.18293 0.87589 0.0
H792 H 0.93241 0.19481 0.77335 0.0
H793 H 0.91893 0.17513 0.79244 0.0
H794 H 0.89636 0.20426 0.79715 0.0
H795 H 0.89381 0.1443 0.8191 0.0
H796 H 0.90685 0.1481 0.80165 0.0
H797 H 0.88497 0.13662 0.799 0.0
H798 H 0.86886 0.19243 0.80524 0.0
H799 H 0.86737 0.18201 0.82394 0.0
H800 H 0.85621 0.17011 0.80592 0.0
H801 H 0.77155 0.07455 0.79427 0.0
H802 H 0.75061 0.04523 0.79997 0.0
H803 H 0.76922 0.05377 0.81188 0.0
H804 H 0.76544 0.03933 0.7951 0.0
H805 H 0.815 0.07009 0.79425 0.0
H806 H 0.79257 0.09903 0.78878 0.0
H807 H 0.84418 0.09431 0.82227 0.0
H808 H 0.85508 0.10452 0.80422 0.0
H809 H 0.84228 0.08216 0.80389 0.0
H810 H 0.80507 0.12689 0.79769 0.0
H811 H 0.82707 0.13806 0.79725 0.0
H812 H 0.81686 0.13097 0.81639 0.0
H813 H 0.85106 0.14112 0.90803 0.0
H814 H 0.88851 0.1767 0.86776 0.0
H815 H 0.89031 0.17529 0.83842 0.0
H816 H 0.85626 0.13694 0.795 0.0
H817 H 0.81924 0.10089 0.8356 0.0
H818 H 0.81826 0.10174 0.86507 0.0
H819 H 0.96006 0.21092 0.78747 0.0
H820 H 0.95202 0.21966 0.8021 0.0
H821 H 0.94416 0.19775 0.80117 0.0
C822 C 0.80087 0.70252 0.95625 0.0
C823 C 0.79091 0.70606 0.94406 0.0
C824 C 0.80404 0.70418 0.91884 0.0
C825 C 0.81753 0.72047 0.91922 0.0
C826 C 0.83119 0.72465 0.90954 0.0
C827 C 0.83146 0.71225 0.8995 0.0
C828 C 0.81777 0.69589 0.89891 0.0
C829 C 0.80409 0.69218 0.90835 0.0
C830 C 0.84548 0.74228 0.91029 0.0
C831 C 0.81774 0.68221 0.8887 0.0
C832 C 0.8968 0.70377 0.96368 0.0
C833 C 0.9045 0.69905 0.94961 0.0
C834 C 0.90406 0.71409 0.92611 0.0
C835 C 0.89372 0.70093 0.91522 0.0
C836 C 0.88433 0.70291 0.90334 0.0
C837 C 0.88551 0.71846 0.9022 0.0
C838 C 0.89681 0.73207 0.91237 0.0
C839 C 0.90607 0.72972 0.92416 0.0
C840 C 0.87262 0.6882 0.89249 0.0
C841 C 0.89858 0.74887 0.91125 0.0
C842 C 0.92415 0.73894 0.79968 0.0
C843 C 0.91209 0.72264 0.80326 0.0
C844 C 0.89741 0.71931 0.81048 0.0
C845 C 0.89491 0.73258 0.81437 0.0
C846 C 0.90682 0.74892 0.81022 0.0
C847 C 0.92122 0.75184 0.80271 0.0
C848 C 0.88468 0.70164 0.81414 0.0
C849 C 0.9045 0.76334 0.81403 0.0
C850 C 0.78014 0.71523 0.80358 0.0
C851 C 0.78764 0.71889 0.78637 0.0
C852 C 0.81113 0.71591 0.79269 0.0
C853 C 0.81526 0.70375 0.79357 0.0
C854 C 0.82881 0.70652 0.80284 0.0
C855 C 0.8388 0.72209 0.81104 0.0
C856 C 0.83518 0.7348 0.80951 0.0
C857 C 0.82125 0.73152 0.80051 0.0
C858 C 0.83226 0.69266 0.80412 0.0
C859 C 0.84589 0.75175 0.81759 0.0
C860 C 0.84646 0.71616 0.8905 0.0
C861 C 0.85911 0.71665 0.89947 0.0
C862 C 0.87348 0.71979 0.89191 0.0
C863 C 0.8755 0.72283 0.8749 0.0
C864 C 0.88995 0.72641 0.86696 0.0
C865 C 0.8916 0.7289 0.8501 0.0
C866 C 0.87878 0.72765 0.84051 0.0
C867 C 0.88008 0.72947 0.82326 0.0
C868 C 0.86705 0.72804 0.81409 0.0
C869 C 0.85262 0.72477 0.82167 0.0
C870 C 0.85114 0.72307 0.83893 0.0
C871 C 0.83684 0.71987 0.84699 0.0
C872 C 0.83543 0.71802 0.86394 0.0
C873 C 0.84806 0.71879 0.87341 0.0
C874 C 0.86264 0.7221 0.86558 0.0
C875 C 0.86423 0.72439 0.84834 0.0
C876 C 0.9647 0.74833 0.80145 0.0
C877 C 0.94728 0.73492 0.7964 0.0
O878 O 0.7909 0.69945 0.92856 0.0
O879 O 0.7973 0.71198 0.78424 0.0
O880 O 0.93864 0.74266 0.79314 0.0
O881 O 0.91193 0.71194 0.93878 0.0
H882 H 0.79629 0.71969 0.94345 0.0
H883 H 0.81374 0.70843 0.95233 0.0
H884 H 0.79571 0.68894 0.95692 0.0
H885 H 0.80085 0.70766 0.96874 0.0
H886 H 0.81752 0.72997 0.92702 0.0
H887 H 0.79357 0.67968 0.90809 0.0
H888 H 0.85586 0.74272 0.91682 0.0
H889 H 0.84252 0.7509 0.91686 0.0
H890 H 0.8495 0.7467 0.89767 0.0
H891 H 0.80686 0.66984 0.89095 0.0
H892 H 0.82887 0.68179 0.89145 0.0
H893 H 0.81788 0.68471 0.87543 0.0
H894 H 0.89433 0.68772 0.94342 0.0
H895 H 0.89177 0.69403 0.97301 0.0
H896 H 0.88664 0.70493 0.95874 0.0
H897 H 0.90581 0.71585 0.96972 0.0
H898 H 0.89279 0.68903 0.91613 0.0
H899 H 0.91435 0.7399 0.93241 0.0
H900 H 0.87494 0.69144 0.87935 0.0
H901 H 0.85992 0.6849 0.89507 0.0
H902 H 0.87364 0.67715 0.89443 0.0
H903 H 0.90915 0.7586 0.91863 0.0
H904 H 0.88733 0.74821 0.91579 0.0
H905 H 0.90007 0.75254 0.89821 0.0
H906 H 0.94199 0.72663 0.80701 0.0
H907 H 0.91408 0.71253 0.80031 0.0
H908 H 0.93053 0.76432 0.79962 0.0
H909 H 0.88385 0.70014 0.82766 0.0
H910 H 0.88758 0.69258 0.80851 0.0
H911 H 0.87254 0.69867 0.80951 0.0
H912 H 0.91526 0.7754 0.8107 0.0
H913 H 0.90217 0.76388 0.82737 0.0
H914 H 0.89367 0.76154 0.80716 0.0
H915 H 0.79515 0.73253 0.78492 0.0
H916 H 0.77233 0.72065 0.80542 0.0
H917 H 0.78983 0.72077 0.81326 0.0
H918 H 0.77265 0.70162 0.80521 0.0
H919 H 0.80746 0.69182 0.78735 0.0
H920 H 0.81839 0.74117 0.79961 0.0
H921 H 0.83333 0.69039 0.81726 0.0
H922 H 0.84407 0.69631 0.79825 0.0
H923 H 0.82261 0.6809 0.79806 0.0
H924 H 0.84274 0.76088 0.81343 0.0
H925 H 0.8589 0.75642 0.81488 0.0
H926 H 0.84452 0.75087 0.83115 0.0
H927 H 0.85759 0.71419 0.91252 0.0
H928 H 0.90011 0.7273 0.87372 0.0
H929 H 0.90302 0.73163 0.84466 0.0
H930 H 0.86807 0.72921 0.80084 0.0
H931 H 0.82656 0.71878 0.84032 0.0
H932 H 0.82419 0.71571 0.86948 0.0
H933 H 0.97193 0.74266 0.80486 0.0
H934 H 0.96446 0.75566 0.8123 0.0
H935 H 0.97082 0.75687 0.79121 0.0
C936 C 0.87293 0.61674 0.39047 0.0
C937 C 0.88183 0.63312 0.40057 0.0
C938 C 0.86785 0.63075 0.42594 0.0
C939 C 0.86956 0.64615 0.4297 0.0
C940 C 0.85771 0.64724 0.43891 0.0
C941 C 0.84377 0.63253 0.44415 0.0
C942 C 0.842 0.61692 0.44018 0.0
C943 C 0.85429 0.61627 0.43137 0.0
C944 C 0.8601 0.6641 0.44303 0.0
C945 C 0.82711 0.60093 0.4451 0.0
C946 C 0.74371 0.64701 0.39924 0.0
C947 C 0.75307 0.63973 0.40573 0.0
C948 C 0.7763 0.64711 0.42393 0.0
C949 C 0.77277 0.63073 0.42539 0.0
C950 C 0.78286 0.62733 0.43487 0.0
C951 C 0.79679 0.64055 0.44296 0.0
C952 C 0.80043 0.65704 0.44144 0.0
C953 C 0.79007 0.66007 0.43199 0.0
C954 C 0.77862 0.6096 0.4363 0.0
C955 C 0.81527 0.67143 0.44979 0.0
C956 C 0.76298 0.63176 0.54757 0.0
C957 C 0.76148 0.61646 0.54312 0.0
C958 C 0.77408 0.61584 0.53491 0.0
C959 C 0.78857 0.63079 0.5313 0.0
C960 C 0.79028 0.64619 0.53608 0.0
C961 C 0.77738 0.64645 0.54402 0.0
C962 C 0.77182 0.5992 0.52992 0.0
C963 C 0.80565 0.66236 0.53261 0.0
C964 C 0.88523 0.60662 0.54211 0.0
C965 C 0.88524 0.62084 0.55188 0.0
C966 C 0.85881 0.61844 0.54945 0.0
C967 C 0.84302 0.60534 0.54584 0.0
C968 C 0.83187 0.60796 0.53731 0.0
C969 C 0.83656 0.62422 0.53278 0.0
C970 C 0.85226 0.63767 0.53728 0.0
C971 C 0.86327 0.63461 0.54547 0.0
C972 C 0.81521 0.59333 0.53288 0.0
C973 C 0.85748 0.65524 0.53322 0.0
C974 C 0.83096 0.63347 0.45359 0.0
C975 C 0.81999 0.63613 0.4449 0.0
C976 C 0.80763 0.63716 0.45295 0.0
C977 C 0.80593 0.63526 0.47017 0.0
C978 C 0.7934 0.63583 0.4786 0.0
C979 C 0.79192 0.6341 0.49555 0.0
C980 C 0.80299 0.63185 0.50477 0.0
C981 C 0.8017 0.63028 0.52205 0.0
C982 C 0.81285 0.62794 0.53082 0.0
C983 C 0.8253 0.62703 0.52278 0.0
C984 C 0.8268 0.6286 0.5055 0.0
C985 C 0.83915 0.62772 0.497 0.0
C986 C 0.84065 0.62947 0.48005 0.0
C987 C 0.82966 0.63186 0.47086 0.0
C988 C 0.81706 0.63271 0.47916 0.0
C989 C 0.81563 0.63107 0.49649 0.0
C990 C 0.72362 0.61187 0.54692 0.0
C991 C 0.73634 0.62021 0.56094 0.0
O992 O 0.87931 0.62972 0.41713 0.0
O993 O 0.86942 0.61515 0.55694 0.0
O994 O 0.7509 0.633 0.55507 0.0
O995 O 0.76679 0.65091 0.41495 0.0
H996 H 0.87672 0.64088 0.39696 0.0
H997 H 0.85972 0.61004 0.39326 0.0
H998 H 0.87784 0.60871 0.3935 0.0
H999 H 0.87427 0.61904 0.37708 0.0
H1000 H 0.88024 0.65729 0.42551 0.0
H1001 H 0.85319 0.60444 0.42836 0.0
H1002 H 0.8509 0.6655 0.43618 0.0
H1003 H 0.87244 0.67434 0.43975 0.0
H1004 H 0.85825 0.6653 0.45638 0.0
H1005 H 0.8266 0.58987 0.43918 0.0
H1006 H 0.81586 0.60086 0.44173 0.0
H1007 H 0.82724 0.59987 0.45865 0.0
H1008 H 0.75555 0.63227 0.39655 0.0
H1009 H 0.7447 0.64638 0.38546 0.0
H1010 H 0.75199 0.66091 0.40039 0.0
H1011 H 0.7214 0.63421 0.41133 0.0
H1012 H 0.76215 0.62053 0.41924 0.0
H1013 H 0.7927 0.67265 0.4308 0.0
H1014 H 0.78858 0.60818 0.43112 0.0
H1015 H 0.76704 0.60064 0.42974 0.0
H1016 H 0.77751 0.60644 0.44947 0.0
H1017 H 0.81674 0.68358 0.44689 0.0
H1018 H 0.82638 0.67141 0.44595 0.0
H1019 H 0.81431 0.67009 0.46334 0.0
H1020 H 0.73831 0.61061 0.56622 0.0
H1021 H 0.75051 0.60492 0.54577 0.0
H1022 H 0.77849 0.65819 0.54751 0.0
H1023 H 0.7739 0.59871 0.51652 0.0
H1024 H 0.75945 0.58873 0.53273 0.0
H1025 H 0.78096 0.59751 0.53651 0.0
H1026 H 0.80565 0.67321 0.53839 0.0
H1027 H 0.80694 0.66396 0.51911 0.0
H1028 H 0.81645 0.66218 0.53723 0.0
H1029 H 0.8894 0.63125 0.54334 0.0
H1030 H 0.89699 0.61114 0.53576 0.0
H1031 H 0.8755 0.60155 0.53244 0.0
H1032 H 0.88285 0.59642 0.55033 0.0
H1033 H 0.83963 0.59294 0.54925 0.0
H1034 H 0.87533 0.64485 0.54884 0.0
H1035 H 0.81274 0.59297 0.51948 0.0
H1036 H 0.80581 0.59469 0.53953 0.0
H1037 H 0.81392 0.58134 0.53612 0.0
H1038 H 0.86916 0.66447 0.53945 0.0
H1039 H 0.84793 0.65801 0.53689 0.0
H1040 H 0.85904 0.65669 0.51973 0.0
H1041 H 0.82113 0.63748 0.43167 0.0
H1042 H 0.78456 0.6376 0.47217 0.0
H1043 H 0.78199 0.63461 0.50135 0.0
H1044 H 0.81177 0.62671 0.54406 0.0
H1045 H 0.84788 0.62573 0.50336 0.0
H1046 H 0.85051 0.62888 0.47423 0.0
H1047 H 0.71163 0.60249 0.55189 0.0
H1048 H 0.72219 0.62113 0.5402 0.0
H1049 H 0.72735 0.60542 0.5379 0.0
C1050 C 0.38093 0.25166 0.39225 0.0
C1051 C 0.36758 0.24804 0.40471 0.0
C1052 C 0.37398 0.24098 0.4308 0.0
C1053 C 0.35907 0.22776 0.43593 0.0
C1054 C 0.35858 0.21594 0.44636 0.0
C1055 C 0.37336 0.21734 0.45154 0.0
C1056 C 0.38845 0.23085 0.4465 0.0
C1057 C 0.38855 0.24271 0.43641 0.0
C1058 C 0.34229 0.20186 0.45169 0.0
C1059 C 0.40441 0.23255 0.45149 0.0
C1060 C 0.36426 0.1012 0.4095 0.0
C1061 C 0.37044 0.11843 0.41586 0.0
C1062 C 0.36206 0.13372 0.43414 0.0
C1063 C 0.37767 0.14799 0.43594 0.0
C1064 C 0.38004 0.16199 0.44505 0.0
C1065 C 0.36651 0.16181 0.4523 0.0
C1066 C 0.35075 0.14757 0.45029 0.0
C1067 C 0.34878 0.13362 0.44139 0.0
C1068 C 0.39703 0.17698 0.44696 0.0
C1069 C 0.33601 0.14709 0.45753 0.0
C1070 C 0.36729 0.13965 0.55791 0.0
C1071 C 0.38242 0.14974 0.5505 0.0
C1072 C 0.3857 0.16413 0.5425 0.0
C1073 C 0.37342 0.16818 0.54143 0.0
C1074 C 0.35831 0.15821 0.54919 0.0
C1075 C 0.35555 0.1442 0.55752 0.0
C1076 C 0.40218 0.17481 0.5349 0.0
C1077 C 0.34494 0.16215 0.54836 0.0
C1078 C 0.41112 0.30034 0.55398 0.0
C1079 C 0.39692 0.28344 0.55889 0.0
C1080 C 0.39742 0.25783 0.55517 0.0
C1081 C 0.40866 0.25298 0.55174 0.0
C1082 C 0.40373 0.23752 0.54405 0.0
C1083 C 0.38704 0.22649 0.54016 0.0
C1084 C 0.37545 0.23096 0.54451 0.0
C1085 C 0.38078 0.24668 0.55187 0.0
C1086 C 0.41643 0.23315 0.53975 0.0
C1087 C 0.35749 0.21922 0.54115 0.0
C1088 C 0.37292 0.20424 0.46157 0.0
C1089 C 0.37 0.18968 0.45335 0.0
C1090 C 0.36893 0.17657 0.46195 0.0
C1091 C 0.37056 0.17782 0.4793 0.0
C1092 C 0.36902 0.16465 0.48839 0.0
C1093 C 0.37046 0.16593 0.50546 0.0
C1094 C 0.37407 0.18066 0.5141 0.0
C1095 C 0.37595 0.18223 0.53144 0.0
C1096 C 0.37994 0.19719 0.53959 0.0
C1097 C 0.3819 0.21066 0.53089 0.0
C1098 C 0.3796 0.20916 0.51358 0.0
C1099 C 0.38106 0.22231 0.50447 0.0
C1100 C 0.37859 0.22064 0.48748 0.0
C1101 C 0.37512 0.20597 0.47887 0.0
C1102 C 0.37382 0.19265 0.48777 0.0
C1103 C 0.37582 0.19416 0.50517 0.0
C1104 C 0.36511 0.10253 0.57486 0.0
C1105 C 0.37172 0.11701 0.56406 0.0
O1106 O 0.37452 0.25216 0.42038 0.0
O1107 O 0.40306 0.27326 0.56185 0.0
O1108 O 0.36351 0.12551 0.56555 0.0
O1109 O 0.3593 0.11985 0.42561 0.0
H1110 H 0.35823 0.23455 0.40355 0.0
H1111 H 0.38678 0.24445 0.39511 0.0
H1112 H 0.39042 0.26508 0.39273 0.0
H1113 H 0.37571 0.248 0.37956 0.0
H1114 H 0.34784 0.22674 0.43175 0.0
H1115 H 0.39999 0.25309 0.43239 0.0
H1116 H 0.34015 0.19002 0.44598 0.0
H1117 H 0.33207 0.20352 0.44807 0.0
H1118 H 0.34227 0.20077 0.46526 0.0
H1119 H 0.415 0.2431 0.44556 0.0
H1120 H 0.40427 0.22095 0.44813 0.0
H1121 H 0.40611 0.2345 0.46504 0.0
H1122 H 0.37605 0.12819 0.40649 0.0
H1123 H 0.37983 0.09474 0.4206 0.0
H1124 H 0.36337 0.10184 0.39577 0.0
H1125 H 0.35068 0.09411 0.41134 0.0
H1126 H 0.38807 0.14825 0.43039 0.0
H1127 H 0.33679 0.12258 0.43991 0.0
H1128 H 0.39761 0.18762 0.44079 0.0
H1129 H 0.40641 0.17474 0.44157 0.0
H1130 H 0.40002 0.18058 0.4602 0.0
H1131 H 0.32445 0.13567 0.45362 0.0
H1132 H 0.33553 0.15808 0.4538 0.0
H1133 H 0.33694 0.14763 0.47117 0.0
H1134 H 0.37364 0.11451 0.55099 0.0
H1135 H 0.39171 0.14649 0.55093 0.0
H1136 H 0.34399 0.13642 0.56342 0.0
H1137 H 0.40097 0.17309 0.5213 0.0
H1138 H 0.4112 0.1716 0.53913 0.0
H1139 H 0.40694 0.18813 0.53797 0.0
H1140 H 0.33358 0.15263 0.55425 0.0
H1141 H 0.34214 0.16306 0.53532 0.0
H1142 H 0.34911 0.17436 0.55464 0.0
H1143 H 0.38809 0.2784 0.54832 0.0
H1144 H 0.40671 0.30873 0.55064 0.0
H1145 H 0.41728 0.29873 0.5431 0.0
H1146 H 0.42017 0.30626 0.56426 0.0
H1147 H 0.42143 0.2616 0.55463 0.0
H1148 H 0.37198 0.25019 0.55512 0.0
H1149 H 0.41575 0.23005 0.52637 0.0
H1150 H 0.41396 0.22201 0.54645 0.0
H1151 H 0.42899 0.24342 0.54295 0.0
H1152 H 0.34992 0.22366 0.54709 0.0
H1153 H 0.35366 0.20673 0.54564 0.0
H1154 H 0.35508 0.21791 0.52768 0.0
H1155 H 0.36857 0.18855 0.44004 0.0
H1156 H 0.36653 0.15312 0.48241 0.0
H1157 H 0.36887 0.15526 0.51177 0.0
H1158 H 0.3816 0.19838 0.55287 0.0
H1159 H 0.38397 0.23401 0.51037 0.0
H1160 H 0.37964 0.23108 0.48116 0.0
H1161 H 0.38438 0.10891 0.59139 0.0
H1162 H 0.36008 0.0914 0.56612 0.0
H1163 H 0.35278 0.09988 0.57898 0.0
C1164 C 0.87402 0.23555 0.38856 0.0
C1165 C 0.88038 0.24954 0.40184 0.0
C1166 C 0.86558 0.23306 0.42537 0.0
C1167 C 0.85266 0.23602 0.42613 0.0
C1168 C 0.83856 0.22564 0.43498 0.0
C1169 C 0.83729 0.21193 0.44304 0.0
C1170 C 0.85021 0.20878 0.44204 0.0
C1171 C 0.86434 0.21962 0.43349 0.0
C1172 C 0.82511 0.22949 0.43595 0.0
C1173 C 0.84917 0.19407 0.45013 0.0
C1174 C 0.71407 0.12104 0.43025 0.0
C1175 C 0.72567 0.11854 0.41917 0.0
C1176 C 0.75264 0.13519 0.43297 0.0
C1177 C 0.76468 0.13397 0.44125 0.0
C1178 C 0.77883 0.14812 0.44741 0.0
C1179 C 0.78079 0.16394 0.44552 0.0
C1180 C 0.76894 0.16537 0.43664 0.0
C1181 C 0.75498 0.15096 0.43032 0.0
C1182 C 0.79142 0.14608 0.45639 0.0
C1183 C 0.77078 0.18208 0.43432 0.0
C1184 C 0.75166 0.15657 0.55048 0.0
C1185 C 0.76053 0.14969 0.54399 0.0
C1186 C 0.7752 0.15958 0.53574 0.0
C1187 C 0.78078 0.17656 0.53351 0.0
C1188 C 0.77204 0.18358 0.5405 0.0
C1189 C 0.75773 0.17351 0.54916 0.0
C1190 C 0.78458 0.15181 0.52923 0.0
C1191 C 0.77761 0.20161 0.5385 0.0
C1192 C 0.90587 0.26815 0.53292 0.0
C1193 C 0.89814 0.26462 0.54993 0.0
C1194 C 0.8716 0.23866 0.54532 0.0
C1195 C 0.86441 0.22145 0.54443 0.0
C1196 C 0.84875 0.21116 0.53763 0.0
C1197 C 0.83988 0.21832 0.53202 0.0
C1198 C 0.84664 0.23566 0.53383 0.0
C1199 C 0.86257 0.24572 0.54019 0.0
C1200 C 0.84192 0.1927 0.53597 0.0
C1201 C 0.83726 0.24363 0.52853 0.0
C1202 C 0.8228 0.20141 0.45315 0.0
C1203 C 0.80865 0.1888 0.44519 0.0
C1204 C 0.7946 0.17864 0.45407 0.0
C1205 C 0.7944 0.18142 0.47124 0.0
C1206 C 0.78015 0.17214 0.48036 0.0
C1207 C 0.78031 0.17426 0.49738 0.0
C1208 C 0.79482 0.18543 0.50601 0.0
C1209 C 0.79539 0.18685 0.52343 0.0
C1210 C 0.81012 0.19796 0.53156 0.0
C1211 C 0.82431 0.20783 0.52276 0.0
C1212 C 0.82388 0.20681 0.50535 0.0
C1213 C 0.83787 0.21676 0.4961 0.0
C1214 C 0.8374 0.21544 0.47901 0.0
C1215 C 0.82312 0.20361 0.47048 0.0
C1216 C 0.80885 0.19356 0.47954 0.0
C1217 C 0.80915 0.19537 0.49698 0.0
C1218 C 0.70889 0.13083 0.55272 0.0
C1219 C 0.72511 0.13136 0.55316 0.0
O1220 O 0.87949 0.24303 0.41715 0.0
O1221 O 0.88718 0.24777 0.55122 0.0
O1222 O 0.73729 0.14723 0.55818 0.0
O1223 O 0.73894 0.12078 0.42819 0.0
H1224 H 0.87283 0.25535 0.40153 0.0
H1225 H 0.86115 0.22595 0.39098 0.0
H1226 H 0.88147 0.22961 0.38851 0.0
H1227 H 0.8744 0.24039 0.37617 0.0
H1228 H 0.85367 0.24665 0.42027 0.0
H1229 H 0.87441 0.21748 0.43285 0.0
H1230 H 0.81379 0.21903 0.43023 0.0
H1231 H 0.82825 0.24103 0.42962 0.0
H1232 H 0.82249 0.23083 0.44904 0.0
H1233 H 0.85904 0.19192 0.4461 0.0
H1234 H 0.83721 0.18267 0.44728 0.0
H1235 H 0.85017 0.19621 0.46369 0.0
H1236 H 0.72992 0.12759 0.40914 0.0
H1237 H 0.70319 0.11864 0.42303 0.0
H1238 H 0.72019 0.13396 0.43536 0.0
H1239 H 0.71003 0.11253 0.4407 0.0
H1240 H 0.76284 0.12177 0.44307 0.0
H1241 H 0.74589 0.15215 0.42371 0.0
H1242 H 0.79083 0.1483 0.4698 0.0
H1243 H 0.80388 0.1553 0.4523 0.0
H1244 H 0.78942 0.13343 0.4544 0.0
H1245 H 0.76041 0.18113 0.42725 0.0
H1246 H 0.78224 0.19018 0.42772 0.0
H1247 H 0.77168 0.18818 0.44652 0.0
H1248 H 0.72736 0.12843 0.54038 0.0
H1249 H 0.75606 0.13664 0.54549 0.0
H1250 H 0.75087 0.1787 0.55446 0.0
H1251 H 0.7828 0.14982 0.51569 0.0
H1252 H 0.78046 0.13963 0.53472 0.0
H1253 H 0.79784 0.16014 0.53179 0.0
H1254 H 0.76873 0.2048 0.54349 0.0
H1255 H 0.77947 0.20462 0.52527 0.0
H1256 H 0.78948 0.20953 0.54501 0.0
H1257 H 0.89186 0.27167 0.55178 0.0
H1258 H 0.91482 0.28163 0.53192 0.0
H1259 H 0.8963 0.26436 0.52324 0.0
H1260 H 0.91216 0.26114 0.53067 0.0
H1261 H 0.87139 0.21611 0.5486 0.0
H1262 H 0.86773 0.25899 0.54098 0.0
H1263 H 0.83874 0.18846 0.52288 0.0
H1264 H 0.83055 0.18604 0.54313 0.0
H1265 H 0.85063 0.18917 0.54042 0.0
H1266 H 0.84287 0.25661 0.53344 0.0
H1267 H 0.82445 0.23638 0.53272 0.0
H1268 H 0.83697 0.24375 0.51489 0.0
H1269 H 0.8087 0.18663 0.43201 0.0
H1270 H 0.7687 0.1631 0.47443 0.0
H1271 H 0.76896 0.16676 0.50371 0.0
H1272 H 0.8106 0.19875 0.54492 0.0
H1273 H 0.84939 0.22572 0.50194 0.0
H1274 H 0.84853 0.22355 0.47261 0.0
H1275 H 0.70588 0.13356 0.56519 0.0
H1276 H 0.6989 0.11842 0.54822 0.0
H1277 H 0.70971 0.14023 0.54422 0.0
C1278 C 0.04175 0.45575 0.24301 0.0
C1279 C 0.0275 0.45103 0.25476 0.0
C1280 C 0.00951 0.45772 0.23951 0.0
C1281 C 0.99417 0.45092 0.23203 0.0
C1282 C 0.98941 0.46098 0.22446 0.0
C1283 C 0.00056 0.47829 0.22387 0.0
C1284 C 0.01602 0.48534 0.23172 0.0
C1285 C 0.02023 0.47503 0.23971 0.0
C1286 C 0.97255 0.45302 0.21685 0.0
C1287 C 0.02826 0.50373 0.2314 0.0
C1288 C 0.95639 0.55766 0.24199 0.0
C1289 C 0.96994 0.56065 0.25416 0.0
C1290 C 0.98376 0.54788 0.23981 0.0
C1291 C 0.99826 0.55151 0.23224 0.0
C1292 C 1.0001 0.53897 0.22483 0.0
C1293 C 0.98689 0.52235 0.22468 0.0
C1294 C 0.97233 0.51845 0.23281 0.0
C1295 C 0.97094 0.53126 0.24045 0.0
C1296 C 0.01606 0.54359 0.21677 0.0
C1297 C 0.9581 0.50084 0.23298 0.0
C1298 C 0.96899 0.53521 0.11979 0.0
C1299 C 0.98464 0.54344 0.12695 0.0
C1300 C 0.99064 0.53453 0.13476 0.0
C1301 C 0.98054 0.51707 0.13582 0.0
C1302 C 0.96489 0.50874 0.12819 0.0
C1303 C 0.95945 0.51794 0.12 0.0
C1304 C 0.00769 0.54379 0.14201 0.0
C1305 C 0.95378 0.49017 0.12894 0.0
C1306 C 0.0323 0.43643 0.12812 0.0
C1307 C 0.01693 0.43559 0.12162 0.0
C1308 C 0.0144 0.46007 0.12137 0.0
C1309 C 0.02449 0.47727 0.12316 0.0
C1310 C 0.01863 0.487 0.13005 0.0
C1311 C 0.00216 0.47927 0.13485 0.0
C1312 C 0.99156 0.46202 0.13181 0.0
C1313 C 0.99782 0.45256 0.12514 0.0
C1314 C 0.03021 0.5054 0.13292 0.0
C1315 C 0.97379 0.4535 0.13625 0.0
C1316 C 0.99628 0.48886 0.21448 0.0
C1317 C 0.99238 0.49935 0.22323 0.0
C1318 C 0.98814 0.50943 0.21501 0.0
C1319 C 0.98682 0.5084 0.19764 0.0
C1320 C 0.98129 0.51735 0.18907 0.0
C1321 C 0.98065 0.51678 0.17195 0.0
C1322 C 0.98595 0.50761 0.16271 0.0
C1323 C 0.98608 0.50756 0.14528 0.0
C1324 C 0.99139 0.49822 0.13652 0.0
C1325 C 0.99653 0.48885 0.14471 0.0
C1326 C 0.99651 0.48878 0.16212 0.0
C1327 C 0.00178 0.47962 0.17074 0.0
C1328 C 0.00167 0.47957 0.18784 0.0
C1329 C 0.99641 0.48878 0.19704 0.0
C1330 C 0.99138 0.49837 0.18861 0.0
C1331 C 0.99124 0.49822 0.17113 0.0
C1332 C 0.9453 0.55248 0.12223 0.0
C1333 C 0.96293 0.55729 0.11913 0.0
O1334 O 0.01346 0.44709 0.24607 0.0
O1335 O 0.02109 0.45109 0.11618 0.0
O1336 O 0.96292 0.54359 0.11232 0.0
O1337 O 0.98273 0.56089 0.24594 0.0
H1338 H 0.03096 0.46181 0.26337 0.0
H1339 H 0.04545 0.46759 0.23707 0.0
H1340 H 0.03834 0.44609 0.23309 0.0
H1341 H 0.05251 0.45739 0.24992 0.0
H1342 H 0.98588 0.43761 0.23209 0.0
H1343 H 0.032 0.48064 0.24579 0.0
H1344 H 0.96693 0.46053 0.21988 0.0
H1345 H 0.96441 0.44022 0.2211 0.0
H1346 H 0.97339 0.45238 0.20326 0.0
H1347 H 0.04041 0.50697 0.23629 0.0
H1348 H 0.0238 0.51055 0.23897 0.0
H1349 H 0.02968 0.50809 0.21862 0.0
H1350 H 0.96489 0.55061 0.26321 0.0
H1351 H 0.94646 0.55809 0.24863 0.0
H1352 H 0.95106 0.5453 0.23567 0.0
H1353 H 0.96121 0.5672 0.23245 0.0
H1354 H 0.00813 0.56433 0.23198 0.0
H1355 H 0.95973 0.52818 0.24655 0.0
H1356 H 0.02005 0.5349 0.22019 0.0
H1357 H 0.02587 0.55645 0.22028 0.0
H1358 H 0.0144 0.54267 0.20319 0.0
H1359 H 0.94745 0.49986 0.2395 0.0
H1360 H 0.96184 0.49293 0.23911 0.0
H1361 H 0.95433 0.49586 0.22015 0.0
H1362 H 0.96949 0.5611 0.13126 0.0
H1363 H 0.9922 0.55681 0.12627 0.0
H1364 H 0.94748 0.51172 0.11417 0.0
H1365 H 0.00707 0.54459 0.15562 0.0
H1366 H 0.01494 0.55661 0.1375 0.0
H1367 H 0.01416 0.53711 0.13898 0.0
H1368 H 0.94142 0.48582 0.12382 0.0
H1369 H 0.95261 0.48629 0.14188 0.0
H1370 H 0.95913 0.48393 0.12182 0.0
H1371 H 0.00841 0.43205 0.13215 0.0
H1372 H 0.02929 0.42419 0.13274 0.0
H1373 H 0.03772 0.44577 0.13846 0.0
H1374 H 0.04149 0.44004 0.11827 0.0
H1375 H 0.0372 0.48295 0.11988 0.0
H1376 H 0.98982 0.4393 0.12307 0.0
H1377 H 0.03126 0.50855 0.14632 0.0
H1378 H 0.02534 0.51238 0.12686 0.0
H1379 H 0.04257 0.50957 0.12814 0.0
H1380 H 0.96672 0.44059 0.13103 0.0
H1381 H 0.96831 0.46058 0.13175 0.0
H1382 H 0.9727 0.4531 0.14985 0.0
H1383 H 0.99305 0.49998 0.23658 0.0
H1384 H 0.97728 0.52482 0.19552 0.0
H1385 H 0.97616 0.52383 0.16607 0.0
H1386 H 0.99151 0.49824 0.12318 0.0
H1387 H 0.00607 0.47235 0.16438 0.0
H1388 H 0.00592 0.47233 0.19375 0.0
H1389 H 0.93819 0.54875 0.11047 0.0
H1390 H 0.94487 0.56304 0.12815 0.0
H1391 H 0.9395 0.54188 0.13059 0.0
C1392 C 0.4702 0.41607 0.2906 0.0
C1393 C 0.45788 0.41519 0.27797 0.0
C1394 C 0.47148 0.42316 0.25183 0.0
C1395 C 0.4691 0.43611 0.24769 0.0
C1396 C 0.48011 0.44871 0.23754 0.0
C1397 C 0.49374 0.4483 0.23143 0.0
C1398 C 0.49578 0.43488 0.23505 0.0
C1399 C 0.48445 0.42233 0.24507 0.0
C1400 C 0.47733 0.46261 0.23357 0.0
C1401 C 0.51014 0.43404 0.22866 0.0
C1402 C 0.60075 0.5674 0.27387 0.0
C1403 C 0.5909 0.55029 0.26659 0.0
C1404 C 0.56539 0.53298 0.25109 0.0
C1405 C 0.56842 0.5202 0.24701 0.0
C1406 C 0.55699 0.50608 0.23774 0.0
C1407 C 0.54229 0.50473 0.23248 0.0
C1408 C 0.53917 0.51751 0.23666 0.0
C1409 C 0.55081 0.5315 0.24589 0.0
C1410 C 0.56065 0.49265 0.23345 0.0
C1411 C 0.52355 0.5164 0.23133 0.0
C1412 C 0.56592 0.53158 0.12707 0.0
C1413 C 0.56935 0.51945 0.1318 0.0
C1414 C 0.5576 0.50526 0.13978 0.0
C1415 C 0.54223 0.50328 0.14329 0.0
C1416 C 0.53873 0.51542 0.13844 0.0
C1417 C 0.55061 0.52935 0.13027 0.0
C1418 C 0.56165 0.49247 0.14468 0.0
C1419 C 0.52253 0.51378 0.1421 0.0
C1420 C 0.42942 0.38493 0.13452 0.0
C1421 C 0.43702 0.39889 0.1222 0.0
C1422 C 0.46625 0.41864 0.12693 0.0
C1423 C 0.48039 0.41874 0.13125 0.0
C1424 C 0.4937 0.43282 0.13884 0.0
C1425 C 0.49276 0.44713 0.14215 0.0
C1426 C 0.47887 0.44746 0.13692 0.0
C1427 C 0.46584 0.43328 0.12915 0.0
C1428 C 0.50855 0.43223 0.14378 0.0
C1429 C 0.47767 0.46269 0.13983 0.0
C1430 C 0.50618 0.46227 0.22182 0.0
C1431 C 0.51826 0.47629 0.23057 0.0
C1432 C 0.53023 0.49005 0.2224 0.0
C1433 C 0.53036 0.48984 0.205 0.0
C1434 C 0.54231 0.50344 0.1964 0.0
C1435 C 0.54225 0.50317 0.17928 0.0
C1436 C 0.53027 0.48927 0.17009 0.0
C1437 C 0.53006 0.48892 0.15268 0.0
C1438 C 0.51789 0.47497 0.1439 0.0
C1439 C 0.50575 0.46131 0.15209 0.0
C1440 C 0.50577 0.46142 0.16951 0.0
C1441 C 0.49365 0.44794 0.17814 0.0
C1442 C 0.49377 0.44816 0.19526 0.0
C1443 C 0.50596 0.4619 0.20442 0.0
C1444 C 0.51817 0.4757 0.19599 0.0
C1445 C 0.51811 0.47544 0.17851 0.0
C1446 C 0.60122 0.56538 0.10597 0.0
C1447 C 0.59312 0.55073 0.11654 0.0
O1448 O 0.46156 0.4115 0.26251 0.0
O1449 O 0.45342 0.40429 0.12055 0.0
O1450 O 0.57694 0.54555 0.11943 0.0
O1451 O 0.57616 0.54692 0.2599 0.0
H1452 H 0.45934 0.42771 0.27848 0.0
H1453 H 0.48258 0.42655 0.28784 0.0
H1454 H 0.47059 0.40449 0.29005 0.0
H1455 H 0.4671 0.41828 0.30324 0.0
H1456 H 0.45869 0.4364 0.25246 0.0
H1457 H 0.48602 0.41213 0.2482 0.0
H1458 H 0.48715 0.47439 0.23943 0.0
H1459 H 0.46539 0.46033 0.23801 0.0
H1460 H 0.4779 0.46426 0.22007 0.0
H1461 H 0.51016 0.42294 0.23286 0.0
H1462 H 0.52168 0.44534 0.23286 0.0
H1463 H 0.50994 0.43373 0.215 0.0
H1464 H 0.58966 0.54028 0.27455 0.0
H1465 H 0.60145 0.56566 0.28742 0.0
H1466 H 0.59228 0.57229 0.2753 0.0
H1467 H 0.6214 0.57858 0.25908 0.0
H1468 H 0.57967 0.52119 0.25094 0.0
H1469 H 0.54859 0.54142 0.2491 0.0
H1470 H 0.55098 0.48069 0.23835 0.0
H1471 H 0.57264 0.49552 0.23849 0.0
H1472 H 0.56061 0.49096 0.21987 0.0
H1473 H 0.52285 0.52727 0.23583 0.0
H1474 H 0.51294 0.50495 0.23602 0.0
H1475 H 0.52258 0.51557 0.21768 0.0
H1476 H 0.60002 0.5516 0.12794 0.0
H1477 H 0.58115 0.52099 0.12932 0.0
H1478 H 0.54808 0.53875 0.12653 0.0
H1479 H 0.56187 0.49208 0.15831 0.0
H1480 H 0.57366 0.49518 0.14 0.0
H1481 H 0.55209 0.47997 0.13993 0.0
H1482 H 0.52193 0.52461 0.13803 0.0
H1483 H 0.52026 0.51251 0.15553 0.0
H1484 H 0.51262 0.50239 0.13579 0.0
H1485 H 0.43515 0.40874 0.12762 0.0
H1486 H 0.41598 0.37928 0.13477 0.0
H1487 H 0.43442 0.39009 0.14706 0.0
H1488 H 0.4323 0.37516 0.13149 0.0
H1489 H 0.48079 0.40754 0.12909 0.0
H1490 H 0.45544 0.43379 0.12484 0.0
H1491 H 0.50936 0.43234 0.15741 0.0
H1492 H 0.51977 0.44338 0.13951 0.0
H1493 H 0.50817 0.42095 0.13868 0.0
H1494 H 0.46578 0.46076 0.13558 0.0
H1495 H 0.48757 0.47321 0.1332 0.0
H1496 H 0.47932 0.46627 0.15315 0.0
H1497 H 0.51826 0.47655 0.24393 0.0
H1498 H 0.55183 0.51447 0.20281 0.0
H1499 H 0.55173 0.51403 0.17336 0.0
H1500 H 0.51774 0.47483 0.13055 0.0
H1501 H 0.48391 0.43703 0.17178 0.0
H1502 H 0.48415 0.43743 0.20123 0.0
H1503 H 0.61094 0.57557 0.11413 0.0
H1504 H 0.59323 0.57091 0.10587 0.0
H1505 H 0.60663 0.55628 0.08456 0.0
C1506 C 0.43679 0.97319 0.28523 0.0
C1507 C 0.43514 0.98648 0.2766 0.0
C1508 C 0.44579 0.98687 0.24948 0.0
C1509 C 0.45902 0.00318 0.24868 0.0
C1510 C 0.47231 0.00688 0.2386 0.0
C1511 C 0.47234 0.99395 0.22926 0.0
C1512 C 0.45875 0.97757 0.22969 0.0
C1513 C 0.44549 0.9743 0.23964 0.0
C1514 C 0.48644 0.02454 0.23812 0.0
C1515 C 0.45843 0.96348 0.22001 0.0
C1516 C 0.56683 0.01636 0.28545 0.0
C1517 C 0.56408 0.00137 0.27479 0.0
C1518 C 0.55302 0.00417 0.24934 0.0
C1519 C 0.53937 0.98869 0.24512 0.0
C1520 C 0.5266 0.9875 0.23558 0.0
C1521 C 0.52749 0.00218 0.23046 0.0
C1522 C 0.54124 0.01786 0.23495 0.0
C1523 C 0.55403 0.01862 0.24407 0.0
C1524 C 0.51223 0.97059 0.23089 0.0
C1525 C 0.54244 0.03381 0.23021 0.0
C1526 C 0.56386 0.02137 0.12924 0.0
C1527 C 0.55111 0.005 0.13121 0.0
C1528 C 0.53623 0.00169 0.13784 0.0
C1529 C 0.53422 0.01508 0.14277 0.0
C1530 C 0.54685 0.03158 0.1401 0.0
C1531 C 0.56146 0.03448 0.13311 0.0
C1532 C 0.52279 0.98393 0.13994 0.0
C1533 C 0.5451 0.04614 0.1451 0.0
C1534 C 0.4251 0.01172 0.137 0.0
C1535 C 0.43417 0.01824 0.12081 0.0
C1536 C 0.45486 0.0105 0.1246 0.0
C1537 C 0.45695 0.99694 0.12264 0.0
C1538 C 0.46928 0.99632 0.13125 0.0
C1539 C 0.48011 0.00991 0.14173 0.0
C1540 C 0.47857 0.02406 0.14315 0.0
C1541 C 0.46581 0.02412 0.13476 0.0
C1542 C 0.47055 0.98104 0.12938 0.0
C1543 C 0.49032 0.03909 0.15363 0.0
C1544 C 0.48697 0.99741 0.21979 0.0
C1545 C 0.4999 0.99806 0.22841 0.0
C1546 C 0.51407 0.00116 0.2204 0.0
C1547 C 0.5154 0.00356 0.20325 0.0
C1548 C 0.52934 0.00636 0.19475 0.0
C1549 C 0.53074 0.00916 0.17798 0.0
C1550 C 0.51815 0.00903 0.16898 0.0
C1551 C 0.51951 0.0119 0.15192 0.0
C1552 C 0.50693 0.01204 0.1434 0.0
C1553 C 0.49283 0.00918 0.15145 0.0
C1554 C 0.4911 0.00593 0.16846 0.0
C1555 C 0.47694 0.00262 0.17689 0.0
C1556 C 0.47555 0.99985 0.1937 0.0
C1557 C 0.48819 0.00011 0.2027 0.0
C1558 C 0.50248 0.0032 0.19441 0.0
C1559 C 0.5039 0.00602 0.17726 0.0
C1560 C 0.59948 0.03042 0.14246 0.0
C1561 C 0.58773 0.01856 0.12898 0.0
O1562 O 0.43325 0.98297 0.25978 0.0
O1563 O 0.44213 0.00987 0.11652 0.0
O1564 O 0.57847 0.02488 0.12325 0.0
O1565 O 0.56543 0.00535 0.25837 0.0
H1566 H 0.44641 0.9987 0.27929 0.0
H1567 H 0.4477 0.97312 0.28071 0.0
H1568 H 0.42585 0.9607 0.28273 0.0
H1569 H 0.43827 0.97581 0.29875 0.0
H1570 H 0.45895 0.01299 0.25592 0.0
H1571 H 0.43509 0.96179 0.24027 0.0
H1572 H 0.49735 0.02544 0.24393 0.0
H1573 H 0.48381 0.03339 0.24472 0.0
H1574 H 0.48946 0.02828 0.22517 0.0
H1575 H 0.44723 0.95134 0.2222 0.0
H1576 H 0.46923 0.96269 0.22337 0.0
H1577 H 0.45912 0.96585 0.20665 0.0
H1578 H 0.55164 0.99069 0.27715 0.0
H1579 H 0.56537 0.01345 0.29871 0.0
H1580 H 0.55775 0.01978 0.2821 0.0
H1581 H 0.57925 0.0272 0.28356 0.0
H1582 H 0.53886 0.97757 0.24915 0.0
H1583 H 0.56472 0.0305 0.24744 0.0
H1584 H 0.50984 0.96957 0.21741 0.0
H1585 H 0.50118 0.96888 0.23715 0.0
H1586 H 0.51418 0.96042 0.23437 0.0
H1587 H 0.55261 0.04481 0.2368 0.0
H1588 H 0.53087 0.03341 0.2329 0.0
H1589 H 0.54452 0.0354 0.21678 0.0
H1590 H 0.57983 0.00624 0.13441 0.0
H1591 H 0.55275 0.99482 0.1275 0.0
H1592 H 0.57132 0.04706 0.13119 0.0
H1593 H 0.52142 0.98119 0.15322 0.0
H1594 H 0.52534 0.97501 0.13338 0.0
H1595 H 0.51101 0.98198 0.13531 0.0
H1596 H 0.55622 0.05822 0.14255 0.0
H1597 H 0.54251 0.04582 0.15846 0.0
H1598 H 0.53462 0.04528 0.13835 0.0
H1599 H 0.44315 0.03176 0.12229 0.0
H1600 H 0.41872 0.01835 0.14068 0.0
H1601 H 0.43379 0.01375 0.14709 0.0
H1602 H 0.41601 0.99822 0.13565 0.0
H1603 H 0.44853 0.98656 0.11465 0.0
H1604 H 0.46457 0.03487 0.13614 0.0
H1605 H 0.47072 0.97631 0.14167 0.0
H1606 H 0.48215 0.98427 0.12328 0.0
H1607 H 0.46029 0.97097 0.12193 0.0
H1608 H 0.48917 0.05 0.15129 0.0
H1609 H 0.50308 0.04246 0.15129 0.0
H1610 H 0.48788 0.0362 0.16683 0.0
H1611 H 0.49895 0.9962 0.24157 0.0
H1612 H 0.53939 0.00651 0.20098 0.0
H1613 H 0.54187 0.01145 0.17219 0.0
H1614 H 0.50818 0.01448 0.13036 0.0
H1615 H 0.46678 0.00219 0.17061 0.0
H1616 H 0.46444 0.99753 0.19957 0.0
H1617 H 0.60681 0.0255 0.14761 0.0
H1618 H 0.59247 0.03181 0.15265 0.0
H1619 H 0.60783 0.04284 0.13748 0.0
C1620 C 0.56677 0.97705 0.7636 0.0
C1621 C 0.56726 0.98973 0.75185 0.0
C1622 C 0.55595 0.00358 0.76867 0.0
C1623 C 0.55985 0.01821 0.77741 0.0
C1624 C 0.54801 0.01959 0.78631 0.0
C1625 C 0.53184 0.00589 0.78656 0.0
C1626 C 0.5277 0.99109 0.77755 0.0
C1627 C 0.53976 0.9901 0.76863 0.0
C1628 C 0.5528 0.03564 0.7956 0.0
C1629 C 0.51056 0.97627 0.7775 0.0
C1630 C 0.46674 0.03757 0.73433 0.0
C1631 C 0.4533 0.02329 0.74391 0.0
C1632 C 0.46576 0.02327 0.76972 0.0
C1633 C 0.46232 0.00694 0.77049 0.0
C1634 C 0.47243 0.00331 0.77959 0.0
C1635 C 0.48633 0.01634 0.78796 0.0
C1636 C 0.48969 0.03282 0.78735 0.0
C1637 C 0.47916 0.03603 0.77841 0.0
C1638 C 0.46829 0.98555 0.78024 0.0
C1639 C 0.50445 0.04701 0.79602 0.0
C1640 C 0.45669 0.0095 0.89261 0.0
C1641 C 0.4517 0.99414 0.88467 0.0
C1642 C 0.46299 0.99135 0.87638 0.0
C1643 C 0.47954 0.00426 0.87595 0.0
C1644 C 0.48468 0.01954 0.8845 0.0
C1645 C 0.47317 0.02187 0.89292 0.0
C1646 C 0.4572 0.97472 0.86785 0.0
C1647 C 0.50224 0.03352 0.8844 0.0
C1648 C 0.56375 0.95959 0.88169 0.0
C1649 C 0.56441 0.97474 0.88996 0.0
C1650 C 0.54014 0.97682 0.88802 0.0
C1651 C 0.52371 0.966 0.88401 0.0
C1652 C 0.51444 0.97175 0.8766 0.0
C1653 C 0.52172 0.98887 0.87364 0.0
C1654 C 0.53813 3e-05 0.87858 0.0
C1655 C 0.54723 0.99385 0.88561 0.0
C1656 C 0.49695 0.95949 0.87164 0.0
C1657 C 0.54609 0.01844 0.87625 0.0
C1658 C 0.51935 0.00694 0.7965 0.0
C1659 C 0.50918 0.01124 0.78862 0.0
C1660 C 0.49731 0.01264 0.79732 0.0
C1661 C 0.49575 0.01009 0.81444 0.0
C1662 C 0.48426 0.01184 0.82364 0.0
C1663 C 0.48292 0.00945 0.84051 0.0
C1664 C 0.49276 0.0048 0.84877 0.0
C1665 C 0.49131 0.0021 0.86588 0.0
C1666 C 0.50108 0.99722 0.87366 0.0
C1667 C 0.51233 0.9949 0.8648 0.0
C1668 C 0.51409 0.99776 0.84771 0.0
C1669 C 0.52531 0.99561 0.8384 0.0
C1670 C 0.52713 0.9987 0.82167 0.0
C1671 C 0.51759 0.00376 0.8135 0.0
C1672 C 0.5059 0.00557 0.82254 0.0
C1673 C 0.50428 0.00275 0.8397 0.0
C1674 C 0.43426 0.02495 0.88471 0.0
C1675 C 0.43134 0.00959 0.89362 0.0
O1676 O 0.56819 0.00305 0.76066 0.0
O1677 O 0.54876 0.97047 0.89439 0.0
O1678 O 0.44595 0.01262 0.90036 0.0
O1679 O 0.45628 0.02696 0.76064 0.0
H1680 H 0.55605 0.98362 0.74396 0.0
H1681 H 0.55576 0.97187 0.77133 0.0
H1682 H 0.57768 0.98293 0.7719 0.0
H1683 H 0.5664 0.96659 0.75648 0.0
H1684 H 0.57231 0.02858 0.77732 0.0
H1685 H 0.53639 0.9787 0.76183 0.0
H1686 H 0.54459 0.0401 0.79202 0.0
H1687 H 0.5656 0.04549 0.79329 0.0
H1688 H 0.55141 0.03347 0.80901 0.0
H1689 H 0.50946 0.96536 0.7706 0.0
H1690 H 0.50214 0.97957 0.7718 0.0
H1691 H 0.50656 0.97275 0.79034 0.0
H1692 H 0.45349 0.01184 0.74052 0.0
H1693 H 0.46467 0.03482 0.72086 0.0
H1694 H 0.47878 0.03929 0.73759 0.0
H1695 H 0.46705 0.04932 0.73735 0.0
H1696 H 0.45164 0.99705 0.76407 0.0
H1697 H 0.4816 0.04859 0.7778 0.0
H1698 H 0.47793 0.98427 0.77404 0.0
H1699 H 0.45639 0.97672 0.77415 0.0
H1700 H 0.4679 0.98208 0.79324 0.0
H1701 H 0.50594 0.05923 0.79343 0.0
H1702 H 0.51562 0.04709 0.79215 0.0
H1703 H 0.50335 0.04533 0.80951 0.0
H1704 H 0.4264 0.99905 0.88442 0.0
H1705 H 0.43904 0.98428 0.88506 0.0
H1706 H 0.47691 0.03358 0.89936 0.0
H1707 H 0.45827 0.97622 0.85433 0.0
H1708 H 0.44432 0.96549 0.87067 0.0
H1709 H 0.46501 0.96982 0.87158 0.0
H1710 H 0.50423 0.04471 0.89148 0.0
H1711 H 0.50612 0.03694 0.87152 0.0
H1712 H 0.51013 0.02937 0.88976 0.0
H1713 H 0.56934 0.98467 0.88076 0.0
H1714 H 0.57611 0.96273 0.87773 0.0
H1715 H 0.55564 0.95547 0.87062 0.0
H1716 H 0.55894 0.94918 0.89027 0.0
H1717 H 0.51832 0.95291 0.88621 0.0
H1718 H 0.55982 0.00231 0.88931 0.0
H1719 H 0.49499 0.96062 0.8584 0.0
H1720 H 0.48874 0.9623 0.87881 0.0
H1721 H 0.49346 0.94647 0.87377 0.0
H1722 H 0.55809 0.02564 0.88274 0.0
H1723 H 0.53805 0.02291 0.88082 0.0
H1724 H 0.54798 0.02095 0.86293 0.0
H1725 H 0.51043 0.01341 0.77552 0.0
H1726 H 0.47624 0.01523 0.81794 0.0
H1727 H 0.47398 0.01118 0.84695 0.0
H1728 H 0.4998 0.99503 0.88676 0.0
H1729 H 0.53291 0.99162 0.84395 0.0
H1730 H 0.53605 0.99695 0.81519 0.0
H1731 H 0.42269 0.02274 0.87916 0.0
H1732 H 0.44312 0.02774 0.87468 0.0
H1733 H 0.43925 0.03589 0.8934 0.0
C1734 C 0.9716 0.53863 0.73769 0.0
C1735 C 0.97449 0.55093 0.75198 0.0
C1736 C 0.99008 0.5447 0.77131 0.0
C1737 C 0.97684 0.53223 0.77989 0.0
C1738 C 0.97889 0.52177 0.79019 0.0
C1739 C 0.99444 0.52365 0.79187 0.0
C1740 C 0.00788 0.5364 0.7836 0.0
C1741 C 0.00554 0.54691 0.77358 0.0
C1742 C 0.96437 0.50854 0.79916 0.0
C1743 C 0.02461 0.53869 0.78509 0.0
C1744 C 0.95434 0.41684 0.73981 0.0
C1745 C 0.97079 0.42407 0.74872 0.0
C1746 C 0.975 0.43848 0.7752 0.0
C1747 C 0.99129 0.45127 0.77372 0.0
C1748 C 0.99749 0.46611 0.78313 0.0
C1749 C 0.98712 0.46813 0.79413 0.0
C1750 C 0.97085 0.45497 0.79605 0.0
C1751 C 0.96509 0.44016 0.78672 0.0
C1752 C 0.01499 0.47975 0.78109 0.0
C1753 C 0.95939 0.45674 0.80754 0.0
C1754 C 0.01446 0.45867 0.89632 0.0
C1755 C 0.02728 0.46913 0.88603 0.0
C1756 C 0.02709 0.482 0.87798 0.0
C1757 C 0.01359 0.48415 0.87988 0.0
C1758 C 0.00088 0.4739 0.89058 0.0
C1759 C 0.00165 0.46147 0.89886 0.0
C1760 C 0.04119 0.49309 0.86719 0.0
C1761 C 0.98632 0.47582 0.89302 0.0
C1762 C 0.01257 0.59649 0.87478 0.0
C1763 C 0.0096 0.58758 0.89103 0.0
C1764 C 0.01973 0.56844 0.88945 0.0
C1765 C 0.03338 0.56825 0.8837 0.0
C1766 C 0.03216 0.55339 0.87809 0.0
C1767 C 0.01688 0.53842 0.87836 0.0
C1768 C 0.00334 0.53835 0.88542 0.0
C1769 C 0.00494 0.55336 0.89106 0.0
C1770 C 0.04693 0.55382 0.87104 0.0
C1771 C 0.98699 0.52251 0.88633 0.0
C1772 C 0.99639 0.51176 0.80172 0.0
C1773 C 0.99237 0.4966 0.7941 0.0
C1774 C 0.99292 0.48435 0.8028 0.0
C1775 C 0.99801 0.48735 0.81949 0.0
C1776 C 0.99894 0.47538 0.82851 0.0
C1777 C 0.00359 0.47831 0.84506 0.0
C1778 C 0.00763 0.49341 0.8532 0.0
C1779 C 0.01237 0.49653 0.87005 0.0
C1780 C 0.01569 0.51143 0.87788 0.0
C1781 C 0.01446 0.52338 0.86929 0.0
C1782 C 0.0102 0.52068 0.85234 0.0
C1783 C 0.00911 0.53259 0.8433 0.0
C1784 C 0.00474 0.52977 0.8267 0.0
C1785 C 0.00115 0.51488 0.81851 0.0
C1786 C 0.00207 0.50266 0.8274 0.0
C1787 C 0.00674 0.50563 0.8443 0.0
C1788 C 0.01305 0.42728 0.88241 0.0
C1789 C 0.02096 0.43673 0.89872 0.0
O1790 O 0.98847 0.55474 0.76077 0.0
O1791 O 0.02133 0.58336 0.89332 0.0
O1792 O 0.01388 0.44572 0.90392 0.0
O1793 O 0.96846 0.42448 0.76552 0.0
H1794 H 0.9637 0.54508 0.76 0.0
H1795 H 0.96926 0.52672 0.74255 0.0
H1796 H 0.98242 0.5436 0.72966 0.0
H1797 H 0.96082 0.53607 0.73018 0.0
H1798 H 0.96485 0.53054 0.77879 0.0
H1799 H 0.01572 0.55662 0.76707 0.0
H1800 H 0.96134 0.49611 0.79429 0.0
H1801 H 0.95344 0.50964 0.79777 0.0
H1802 H 0.96734 0.50931 0.81248 0.0
H1803 H 0.03378 0.54906 0.7777 0.0
H1804 H 0.02412 0.52709 0.78095 0.0
H1805 H 0.02869 0.54119 0.79819 0.0
H1806 H 0.97876 0.43685 0.7442 0.0
H1807 H 0.95587 0.41651 0.72627 0.0
H1808 H 0.94906 0.42471 0.74265 0.0
H1809 H 0.94566 0.40406 0.74381 0.0
H1810 H 0.9991 0.44968 0.76516 0.0
H1811 H 0.95259 0.43007 0.78786 0.0
H1812 H 0.01535 0.49035 0.77508 0.0
H1813 H 0.02194 0.47557 0.77347 0.0
H1814 H 0.02111 0.48431 0.79332 0.0
H1815 H 0.94685 0.4457 0.80685 0.0
H1816 H 0.95885 0.46786 0.80452 0.0
H1817 H 0.96401 0.45854 0.8204 0.0
H1818 H 0.03425 0.44527 0.89703 0.0
H1819 H 0.03747 0.46736 0.88424 0.0
H1820 H 0.99192 0.45346 0.90698 0.0
H1821 H 0.0374 0.48976 0.85406 0.0
H1822 H 0.05193 0.49182 0.86935 0.0
H1823 H 0.04488 0.50628 0.8694 0.0
H1824 H 0.97665 0.46568 0.90025 0.0
H1825 H 0.98106 0.47602 0.88093 0.0
H1826 H 0.99025 0.48781 0.89965 0.0
H1827 H 0.99716 0.57645 0.88978 0.0
H1828 H 0.00421 0.60129 0.8735 0.0
H1829 H 0.01017 0.58761 0.8643 0.0
H1830 H 0.02538 0.6069 0.87395 0.0
H1831 H 0.04487 0.5799 0.88296 0.0
H1832 H 0.99458 0.55318 0.89658 0.0
H1833 H 0.04526 0.55146 0.85751 0.0
H1834 H 0.04833 0.54386 0.87626 0.0
H1835 H 0.05829 0.56597 0.87353 0.0
H1836 H 0.97786 0.52438 0.89293 0.0
H1837 H 0.98834 0.51303 0.89271 0.0
H1838 H 0.98226 0.51752 0.87369 0.0
H1839 H 0.98834 0.49414 0.78131 0.0
H1840 H 0.99602 0.46356 0.82289 0.0
H1841 H 0.0039 0.46854 0.85139 0.0
H1842 H 0.01903 0.51366 0.89085 0.0
H1843 H 0.01163 0.54427 0.84892 0.0
H1844 H 0.00411 0.53938 0.82039 0.0
H1845 H 0.99973 0.41876 0.88389 0.0
H1846 H 0.01855 0.41994 0.87819 0.0
H1847 H 0.01498 0.43608 0.87265 0.0
C1848 C 0.54129 0.56619 0.73447 0.0
C1849 C 0.54763 0.58192 0.74547 0.0
C1850 C 0.5343 0.56913 0.77093 0.0
C1851 C 0.52171 0.57256 0.77153 0.0
C1852 C 0.50766 0.5628 0.78069 0.0
C1853 C 0.50613 0.54923 0.78927 0.0
C1854 C 0.51891 0.54584 0.78877 0.0
C1855 C 0.53299 0.55607 0.77984 0.0
C1856 C 0.49441 0.56694 0.78116 0.0
C1857 C 0.51761 0.5313 0.79748 0.0
C1858 C 0.38491 0.45602 0.76983 0.0
C1859 C 0.39725 0.45472 0.7588 0.0
C1860 C 0.42343 0.47181 0.77388 0.0
C1861 C 0.43532 0.47094 0.78288 0.0
C1862 C 0.44863 0.4852 0.79009 0.0
C1863 C 0.44995 0.50075 0.78841 0.0
C1864 C 0.43827 0.50187 0.77885 0.0
C1865 C 0.42513 0.48737 0.77157 0.0
C1866 C 0.46107 0.48355 0.79987 0.0
C1867 C 0.43945 0.51831 0.77676 0.0
C1868 C 0.41379 0.49219 0.89189 0.0
C1869 C 0.42255 0.48505 0.88576 0.0
C1870 C 0.43757 0.49478 0.87801 0.0
C1871 C 0.44358 0.51187 0.87584 0.0
C1872 C 0.43485 0.5191 0.88233 0.0
C1873 C 0.42021 0.50919 0.89056 0.0
C1874 C 0.44691 0.48675 0.87211 0.0
C1875 C 0.44084 0.53724 0.88037 0.0
C1876 C 0.569 0.59484 0.88388 0.0
C1877 C 0.56016 0.59705 0.89856 0.0
C1878 C 0.53269 0.57277 0.89512 0.0
C1879 C 0.526 0.5557 0.89292 0.0
C1880 C 0.5112 0.54582 0.88434 0.0
C1881 C 0.50271 0.55322 0.87829 0.0
C1882 C 0.50896 0.57036 0.88133 0.0
C1883 C 0.52401 0.58002 0.88962 0.0
C1884 C 0.50486 0.52756 0.88141 0.0
C1885 C 0.49986 0.57848 0.87558 0.0
C1886 C 0.49107 0.5385 0.79854 0.0
C1887 C 0.47752 0.52596 0.78976 0.0
C1888 C 0.46294 0.51548 0.79769 0.0
C1889 C 0.46152 0.5179 0.81472 0.0
C1890 C 0.44668 0.5083 0.82284 0.0
C1891 C 0.44564 0.51009 0.83977 0.0
C1892 C 0.45952 0.52114 0.84932 0.0
C1893 C 0.45889 0.52218 0.8667 0.0
C1894 C 0.47306 0.53306 0.87576 0.0
C1895 C 0.48783 0.54315 0.86794 0.0
C1896 C 0.48858 0.54264 0.85058 0.0
C1897 C 0.50317 0.55294 0.8423 0.0
C1898 C 0.50388 0.55203 0.82522 0.0
C1899 C 0.49022 0.54032 0.81581 0.0
C1900 C 0.47536 0.52997 0.8239 0.0
C1901 C 0.47445 0.53135 0.84127 0.0
C1902 C 0.37071 0.46663 0.89469 0.0
C1903 C 0.38698 0.46727 0.89428 0.0
O1904 O 0.54781 0.57813 0.7618 0.0
O1905 O 0.54733 0.58171 0.90298 0.0
O1906 O 0.39923 0.48308 0.89933 0.0
O1907 O 0.41052 0.45727 0.76802 0.0
H1908 H 0.53946 0.58691 0.74385 0.0
H1909 H 0.52865 0.55678 0.73787 0.0
H1910 H 0.54915 0.56082 0.73591 0.0
H1911 H 0.54109 0.56901 0.72133 0.0
H1912 H 0.5229 0.58299 0.76506 0.0
H1913 H 0.54285 0.55361 0.77935 0.0
H1914 H 0.48322 0.5567 0.77501 0.0
H1915 H 0.49799 0.57865 0.77493 0.0
H1916 H 0.49133 0.56811 0.79413 0.0
H1917 H 0.52781 0.52933 0.79445 0.0
H1918 H 0.50591 0.5198 0.79411 0.0
H1919 H 0.51771 0.53345 0.81099 0.0
H1920 H 0.4014 0.46415 0.74915 0.0
H1921 H 0.37407 0.45345 0.76243 0.0
H1922 H 0.39037 0.46867 0.77552 0.0
H1923 H 0.38091 0.44704 0.77986 0.0
H1924 H 0.43398 0.45892 0.78445 0.0
H1925 H 0.41615 0.4883 0.76442 0.0
H1926 H 0.45988 0.48576 0.81316 0.0
H1927 H 0.4736 0.493 0.79622 0.0
H1928 H 0.45947 0.47105 0.79817 0.0
H1929 H 0.42942 0.51714 0.7689 0.0
H1930 H 0.45129 0.52714 0.77113 0.0
H1931 H 0.43911 0.52368 0.789 0.0
H1932 H 0.3889 0.46463 0.88126 0.0
H1933 H 0.41778 0.47194 0.88723 0.0
H1934 H 0.41341 0.51458 0.89555 0.0
H1935 H 0.44551 0.48474 0.85855 0.0
H1936 H 0.44241 0.47455 0.87771 0.0
H1937 H 0.46011 0.49491 0.87506 0.0
H1938 H 0.43175 0.54051 0.88448 0.0
H1939 H 0.44374 0.54053 0.86729 0.0
H1940 H 0.45222 0.5449 0.88774 0.0
H1941 H 0.5556 0.60525 0.89502 0.0
H1942 H 0.57938 0.60705 0.88029 0.0
H1943 H 0.56049 0.58921 0.87316 0.0
H1944 H 0.57365 0.58661 0.88698 0.0
H1945 H 0.5327 0.55022 0.89752 0.0
H1946 H 0.52877 0.59312 0.89195 0.0
H1947 H 0.50307 0.5244 0.868 0.0
H1948 H 0.49282 0.52016 0.88729 0.0
H1949 H 0.51324 0.52386 0.88642 0.0
H1950 H 0.50534 0.59141 0.88058 0.0
H1951 H 0.48693 0.57118 0.87935 0.0
H1952 H 0.49999 0.57869 0.86194 0.0
H1953 H 0.47848 0.52405 0.77666 0.0
H1954 H 0.4357 0.49929 0.81618 0.0
H1955 H 0.43388 0.50241 0.84531 0.0
H1956 H 0.47264 0.53351 0.8891 0.0
H1957 H 0.51422 0.56187 0.8489 0.0
H1958 H 0.5154 0.56034 0.81954 0.0
H1959 H 0.36803 0.46908 0.90743 0.0
H1960 H 0.36064 0.45428 0.89016 0.0
H1961 H 0.37122 0.47618 0.88662 0.0
C1962 C 0.64978 0.78025 0.62065 0.0
C1963 C 0.64186 0.76463 0.60933 0.0
C1964 C 0.64046 0.77699 0.58392 0.0
C1965 C 0.62404 0.77258 0.58378 0.0
C1966 C 0.61881 0.78124 0.57432 0.0
C1967 C 0.63028 0.79472 0.56503 0.0
C1968 C 0.64683 0.79912 0.56513 0.0
C1969 C 0.6516 0.78992 0.5743 0.0
C1970 C 0.60103 0.77598 0.57426 0.0
C1971 C 0.65954 0.81367 0.55575 0.0
C1972 C 0.60408 0.86645 0.62449 0.0
C1973 C 0.61727 0.87668 0.61197 0.0
C1974 C 0.61258 0.86096 0.58629 0.0
C1975 C 0.62824 0.86435 0.58242 0.0
C1976 C 0.63039 0.85335 0.57223 0.0
C1977 C 0.61656 0.83853 0.56604 0.0
C1978 C 0.60072 0.83517 0.56985 0.0
C1979 C 0.59896 0.84666 0.57967 0.0
C1980 C 0.64745 0.85752 0.56817 0.0
C1981 C 0.58568 0.81935 0.5638 0.0
C1982 C 0.60229 0.8537 0.45998 0.0
C1983 C 0.61814 0.85952 0.46588 0.0
C1984 C 0.62188 0.84896 0.47407 0.0
C1985 C 0.60937 0.83237 0.47672 0.0
C1986 C 0.59346 0.82641 0.4704 0.0
C1987 C 0.59021 0.83712 0.46184 0.0
C1988 C 0.63916 0.85556 0.47993 0.0
C1989 C 0.57983 0.80881 0.47289 0.0
C1990 C 0.61792 0.72648 0.46651 0.0
C1991 C 0.61797 0.73431 0.45025 0.0
C1992 C 0.62486 0.76248 0.45942 0.0
C1993 C 0.63768 0.77893 0.46119 0.0
C1994 C 0.63564 0.79097 0.46958 0.0
C1995 C 0.62026 0.78643 0.47616 0.0
C1996 C 0.60705 0.76991 0.47398 0.0
C1997 C 0.60951 0.75805 0.46576 0.0
C1998 C 0.65 0.80845 0.47172 0.0
C1999 C 0.59042 0.76475 0.48059 0.0
C2000 C 0.62508 0.80447 0.55552 0.0
C2001 C 0.62275 0.81613 0.56415 0.0
C2002 C 0.61869 0.82637 0.55596 0.0
C2003 C 0.61703 0.8251 0.5386 0.0
C2004 C 0.61339 0.83549 0.52991 0.0
C2005 C 0.6118 0.83415 0.51283 0.0
C2006 C 0.61404 0.82254 0.50374 0.0
C2007 C 0.61284 0.82134 0.48633 0.0
C2008 C 0.61491 0.80949 0.47772 0.0
C2009 C 0.61822 0.79875 0.48602 0.0
C2010 C 0.61968 0.7999 0.50339 0.0
C2011 C 0.6232 0.78942 0.5121 0.0
C2012 C 0.62477 0.79075 0.52917 0.0
C2013 C 0.62302 0.80269 0.5382 0.0
C2014 C 0.61917 0.81319 0.5297 0.0
C2015 C 0.61761 0.81186 0.51226 0.0
C2016 C 0.58704 0.87937 0.46167 0.0
C2017 C 0.6028 0.87966 0.45742 0.0
O2018 O 0.64594 0.76901 0.59311 0.0
O2019 O 0.62799 0.75143 0.45166 0.0
O2020 O 0.59838 0.8637 0.45214 0.0
O2021 O 0.61033 0.87134 0.59636 0.0
H2022 H 0.62842 0.75809 0.61072 0.0
H2023 H 0.64527 0.78854 0.61735 0.0
H2024 H 0.66326 0.78712 0.61945 0.0
H2025 H 0.64666 0.77692 0.6337 0.0
H2026 H 0.61523 0.76222 0.59078 0.0
H2027 H 0.66422 0.79314 0.57443 0.0
H2028 H 0.59959 0.78571 0.58069 0.0
H2029 H 0.59336 0.76409 0.58049 0.0
H2030 H 0.59646 0.77461 0.56142 0.0
H2031 H 0.67212 0.8169 0.559 0.0
H2032 H 0.65847 0.82474 0.55824 0.0
H2033 H 0.65755 0.81063 0.54234 0.0
H2034 H 0.6273 0.87417 0.61383 0.0
H2035 H 0.60952 0.86821 0.63699 0.0
H2036 H 0.59811 0.85303 0.62105 0.0
H2037 H 0.5946 0.86989 0.62474 0.0
H2038 H 0.63877 0.87566 0.58728 0.0
H2039 H 0.58692 0.84426 0.58269 0.0
H2040 H 0.64852 0.85601 0.5547 0.0
H2041 H 0.6501 0.84881 0.57436 0.0
H2042 H 0.65679 0.87039 0.57223 0.0
H2043 H 0.57438 0.81777 0.56937 0.0
H2044 H 0.58669 0.80847 0.56667 0.0
H2045 H 0.58455 0.81946 0.55023 0.0
H2046 H 0.61039 0.88345 0.46889 0.0
H2047 H 0.62761 0.87225 0.46391 0.0
H2048 H 0.57808 0.83272 0.45698 0.0
H2049 H 0.6398 0.85711 0.49355 0.0
H2050 H 0.64785 0.86776 0.4747 0.0
H2051 H 0.64307 0.84664 0.47654 0.0
H2052 H 0.56785 0.80657 0.46856 0.0
H2053 H 0.57898 0.80593 0.48614 0.0
H2054 H 0.58246 0.80009 0.46604 0.0
H2055 H 0.60534 0.73097 0.44702 0.0
H2056 H 0.61313 0.73097 0.47654 0.0
H2057 H 0.60999 0.71275 0.46535 0.0
H2058 H 0.63048 0.72975 0.46997 0.0
H2059 H 0.64945 0.78226 0.45622 0.0
H2060 H 0.59939 0.74541 0.46449 0.0
H2061 H 0.65241 0.81197 0.48503 0.0
H2062 H 0.64712 0.8172 0.46599 0.0
H2063 H 0.66123 0.80993 0.4661 0.0
H2064 H 0.58105 0.75188 0.47657 0.0
H2065 H 0.58653 0.77333 0.47646 0.0
H2066 H 0.59099 0.76554 0.49425 0.0
H2067 H 0.62429 0.81739 0.57744 0.0
H2068 H 0.61174 0.8448 0.53622 0.0
H2069 H 0.60886 0.84241 0.50685 0.0
H2070 H 0.61395 0.8086 0.46438 0.0
H2071 H 0.62484 0.78009 0.50582 0.0
H2072 H 0.62744 0.78232 0.53519 0.0
H2073 H 0.58006 0.87819 0.45029 0.0
H2074 H 0.58965 0.89069 0.46891 0.0
H2075 H 0.57926 0.86862 0.4694 0.0
C2076 C 0.11006 0.71829 0.58757 0.0
C2077 C 0.10996 0.72978 0.60134 0.0
C2078 C 0.1266 0.75756 0.5898 0.0
C2079 C 0.12586 0.77072 0.58336 0.0
C2080 C 0.13966 0.7843 0.57676 0.0
C2081 C 0.15455 0.78455 0.57638 0.0
C2082 C 0.1556 0.77162 0.5835 0.0
C2083 C 0.14163 0.7583 0.59028 0.0
C2084 C 0.13818 0.79809 0.56968 0.0
C2085 C 0.17134 0.77161 0.5834 0.0
C2086 C 0.26998 0.90764 0.60293 0.0
C2087 C 0.25954 0.89136 0.59413 0.0
C2088 C 0.23176 0.86797 0.59338 0.0
C2089 C 0.23475 0.85583 0.5869 0.0
C2090 C 0.22216 0.84113 0.57939 0.0
C2091 C 0.20643 0.83889 0.57768 0.0
C2092 C 0.20328 0.8509 0.58468 0.0
C2093 C 0.21596 0.86515 0.59276 0.0
C2094 C 0.22583 0.8282 0.57298 0.0
C2095 C 0.18668 0.84896 0.58321 0.0
C2096 C 0.23358 0.86343 0.47356 0.0
C2097 C 0.23437 0.84905 0.47535 0.0
C2098 C 0.22176 0.83513 0.48296 0.0
C2099 C 0.20791 0.83544 0.48852 0.0
C2100 C 0.20671 0.84956 0.48598 0.0
C2101 C 0.21968 0.86344 0.47873 0.0
C2102 C 0.2234 0.82024 0.48545 0.0
C2103 C 0.19191 0.85015 0.49128 0.0
C2104 C 0.09488 0.7132 0.48286 0.0
C2105 C 0.10281 0.72854 0.47225 0.0
C2106 C 0.13204 0.74904 0.47502 0.0
C2107 C 0.14668 0.75016 0.47933 0.0
C2108 C 0.15991 0.76507 0.48577 0.0
C2109 C 0.15837 0.77917 0.48787 0.0
C2110 C 0.14405 0.77847 0.48233 0.0
C2111 C 0.13106 0.76343 0.4758 0.0
C2112 C 0.17521 0.76554 0.4911 0.0
C2113 C 0.14221 0.79342 0.48396 0.0
C2114 C 0.16849 0.79755 0.56719 0.0
C2115 C 0.18081 0.81141 0.57593 0.0
C2116 C 0.19362 0.82453 0.56773 0.0
C2117 C 0.1941 0.82392 0.55031 0.0
C2118 C 0.20641 0.83716 0.5416 0.0
C2119 C 0.20691 0.83632 0.52451 0.0
C2120 C 0.19496 0.82234 0.51539 0.0
C2121 C 0.19522 0.82148 0.49798 0.0
C2122 C 0.18324 0.8073 0.48931 0.0
C2123 C 0.17085 0.79392 0.4976 0.0
C2124 C 0.17027 0.79466 0.51499 0.0
C2125 C 0.15782 0.78152 0.52368 0.0
C2126 C 0.15727 0.78239 0.54075 0.0
C2127 C 0.16915 0.79644 0.54984 0.0
C2128 C 0.18191 0.80973 0.54137 0.0
C2129 C 0.1824 0.8089 0.52391 0.0
C2130 C 0.2729 0.88322 0.47334 0.0
C2131 C 0.26009 0.88005 0.4601 0.0
O2132 O 0.11244 0.74439 0.59501 0.0
O2133 O 0.11917 0.7339 0.47036 0.0
O2134 O 0.24592 0.87761 0.46727 0.0
O2135 O 0.24384 0.88253 0.60017 0.0
H2136 H 0.11977 0.73265 0.61049 0.0
H2137 H 0.12218 0.72398 0.58176 0.0
H2138 H 0.10087 0.71578 0.57784 0.0
H2139 H 0.10731 0.70632 0.59268 0.0
H2140 H 0.11427 0.77015 0.58323 0.0
H2141 H 0.14254 0.74841 0.59557 0.0
H2142 H 0.14849 0.81036 0.57404 0.0
H2143 H 0.12654 0.79725 0.57306 0.0
H2144 H 0.13872 0.79743 0.55605 0.0
H2145 H 0.17019 0.76064 0.58942 0.0
H2146 H 0.18106 0.78303 0.58987 0.0
H2147 H 0.17526 0.77172 0.57051 0.0
H2148 H 0.25977 0.8917 0.58041 0.0
H2149 H 0.28826 0.9051 0.61389 0.0
H2150 H 0.26159 0.91036 0.61026 0.0
H2151 H 0.27263 0.91714 0.59345 0.0
H2152 H 0.24687 0.85773 0.58776 0.0
H2153 H 0.21376 0.87452 0.59801 0.0
H2154 H 0.21563 0.81552 0.57552 0.0
H2155 H 0.23722 0.82995 0.57854 0.0
H2156 H 0.22736 0.82911 0.55944 0.0
H2157 H 0.18668 0.86018 0.58788 0.0
H2158 H 0.17778 0.83823 0.59037 0.0
H2159 H 0.18244 0.8464 0.57016 0.0
H2160 H 0.25743 0.86882 0.45258 0.0
H2161 H 0.24489 0.84865 0.4712 0.0
H2162 H 0.21908 0.8745 0.47716 0.0
H2163 H 0.22232 0.81744 0.49872 0.0
H2164 H 0.23522 0.82218 0.481 0.0
H2165 H 0.21336 0.80923 0.47876 0.0
H2166 H 0.19177 0.86089 0.48622 0.0
H2167 H 0.19183 0.85116 0.50491 0.0
H2168 H 0.18059 0.83854 0.48724 0.0
H2169 H 0.10117 0.73789 0.47927 0.0
H2170 H 0.08152 0.70798 0.48354 0.0
H2171 H 0.10009 0.71675 0.49556 0.0
H2172 H 0.09717 0.70347 0.47794 0.0
H2173 H 0.14749 0.73911 0.47827 0.0
H2174 H 0.12014 0.76297 0.47155 0.0
H2175 H 0.17622 0.76654 0.50475 0.0
H2176 H 0.18611 0.77664 0.48627 0.0
H2177 H 0.17527 0.75425 0.48683 0.0
H2178 H 0.13061 0.79109 0.47838 0.0
H2179 H 0.15255 0.80412 0.47796 0.0
H2180 H 0.14256 0.79693 0.49719 0.0
H2181 H 0.18032 0.81205 0.58926 0.0
H2182 H 0.21582 0.84836 0.54787 0.0
H2183 H 0.21679 0.84685 0.51855 0.0
H2184 H 0.18351 0.8067 0.47597 0.0
H2185 H 0.14828 0.7704 0.51741 0.0
H2186 H 0.1474 0.77186 0.54671 0.0
H2187 H 0.28463 0.88647 0.4675 0.0
H2188 H 0.26888 0.87197 0.48053 0.0
H2189 H 0.27496 0.89343 0.4821 0.0
C2190 C 0.13513 0.36994 0.62521 0.0
C2191 C 0.12563 0.37269 0.61176 0.0
C2192 C 0.13898 0.36871 0.58764 0.0
C2193 C 0.15329 0.38447 0.58829 0.0
C2194 C 0.16677 0.38773 0.5787 0.0
C2195 C 0.16602 0.37494 0.56841 0.0
C2196 C 0.15158 0.35911 0.56762 0.0
C2197 C 0.13816 0.35632 0.57705 0.0
C2198 C 0.18191 0.4048 0.5797 0.0
C2199 C 0.15043 0.34505 0.55707 0.0
C2200 C 0.27924 0.39043 0.58919 0.0
C2201 C 0.26566 0.37733 0.59977 0.0
C2202 C 0.24092 0.37018 0.58373 0.0
C2203 C 0.22859 0.35793 0.57356 0.0
C2204 C 0.21706 0.36055 0.56592 0.0
C2205 C 0.21804 0.37598 0.56839 0.0
C2206 C 0.23022 0.38834 0.579 0.0
C2207 C 0.24149 0.38529 0.58668 0.0
C2208 C 0.20399 0.3469 0.555 0.0
C2209 C 0.2315 0.40487 0.58197 0.0
C2210 C 0.255 0.39667 0.46566 0.0
C2211 C 0.24233 0.381 0.47014 0.0
C2212 C 0.22853 0.37922 0.47813 0.0
C2213 C 0.22757 0.39348 0.48194 0.0
C2214 C 0.24016 0.40923 0.47702 0.0
C2215 C 0.25362 0.41057 0.4687 0.0
C2216 C 0.21505 0.36211 0.48257 0.0
C2217 C 0.23952 0.42467 0.48078 0.0
C2218 C 0.1144 0.38 0.47368 0.0
C2219 C 0.1218 0.38417 0.45644 0.0
C2220 C 0.14535 0.38112 0.46219 0.0
C2221 C 0.14925 0.36879 0.46274 0.0
C2222 C 0.16274 0.37122 0.47186 0.0
C2223 C 0.17292 0.38668 0.48021 0.0
C2224 C 0.16953 0.39957 0.47901 0.0
C2225 C 0.15561 0.39659 0.47018 0.0
C2226 C 0.16594 0.35716 0.47276 0.0
C2227 C 0.18049 0.4164 0.4872 0.0
C2228 C 0.18058 0.37795 0.55903 0.0
C2229 C 0.19265 0.37677 0.56739 0.0
C2230 C 0.20662 0.37926 0.55936 0.0
C2231 C 0.20888 0.38347 0.54262 0.0
C2232 C 0.22313 0.38677 0.53439 0.0
C2233 C 0.22487 0.38999 0.5177 0.0
C2234 C 0.21234 0.38978 0.50854 0.0
C2235 C 0.21354 0.39191 0.49134 0.0
C2236 C 0.20082 0.3916 0.4826 0.0
C2237 C 0.18676 0.389 0.49054 0.0
C2238 C 0.18539 0.38694 0.50777 0.0
C2239 C 0.17144 0.38432 0.5162 0.0
C2240 C 0.17005 0.38189 0.53307 0.0
C2241 C 0.18228 0.38138 0.54207 0.0
C2242 C 0.1965 0.38414 0.53385 0.0
C2243 C 0.19815 0.38715 0.51674 0.0
C2244 C 0.29319 0.40573 0.4712 0.0
C2245 C 0.27762 0.39193 0.46258 0.0
O2246 O 0.12582 0.36484 0.59709 0.0
O2247 O 0.1316 0.37749 0.4538 0.0
O2248 O 0.26841 0.39869 0.4579 0.0
O2249 O 0.25198 0.36688 0.59017 0.0
H2250 H 0.13123 0.38621 0.60995 0.0
H2251 H 0.14806 0.37531 0.62174 0.0
H2252 H 0.12971 0.35647 0.62709 0.0
H2253 H 0.13495 0.3761 0.63704 0.0
H2254 H 0.15406 0.39428 0.59623 0.0
H2255 H 0.12706 0.34423 0.57658 0.0
H2256 H 0.19196 0.40409 0.58559 0.0
H2257 H 0.18001 0.41384 0.58694 0.0
H2258 H 0.18585 0.40947 0.56713 0.0
H2259 H 0.13889 0.33313 0.55897 0.0
H2260 H 0.16085 0.34343 0.55984 0.0
H2261 H 0.15109 0.34803 0.54389 0.0
H2262 H 0.26243 0.38364 0.60954 0.0
H2263 H 0.29032 0.39847 0.59689 0.0
H2264 H 0.27539 0.39848 0.58362 0.0
H2265 H 0.2824 0.38441 0.57907 0.0
H2266 H 0.22815 0.34627 0.57148 0.0
H2267 H 0.25077 0.39484 0.59474 0.0
H2268 H 0.20626 0.35062 0.54199 0.0
H2269 H 0.19184 0.34485 0.55825 0.0
H2270 H 0.20369 0.33501 0.55597 0.0
H2271 H 0.24206 0.41345 0.59005 0.0
H2272 H 0.22018 0.40294 0.58778 0.0
H2273 H 0.2327 0.41081 0.57004 0.0
H2274 H 0.27097 0.38196 0.47152 0.0
H2275 H 0.24312 0.37015 0.46716 0.0
H2276 H 0.26337 0.42256 0.4649 0.0
H2277 H 0.21512 0.36088 0.4961 0.0
H2278 H 0.21646 0.35218 0.47654 0.0
H2279 H 0.203 0.36017 0.47898 0.0
H2280 H 0.2508 0.43611 0.4771 0.0
H2281 H 0.23769 0.42572 0.49416 0.0
H2282 H 0.22898 0.42379 0.47414 0.0
H2283 H 0.12917 0.39786 0.45531 0.0
H2284 H 0.10645 0.38519 0.47591 0.0
H2285 H 0.12415 0.38543 0.48331 0.0
H2286 H 0.10709 0.36633 0.475 0.0
H2287 H 0.14134 0.35698 0.45635 0.0
H2288 H 0.15288 0.40636 0.4695 0.0
H2289 H 0.16755 0.35497 0.48577 0.0
H2290 H 0.17739 0.36053 0.46626 0.0
H2291 H 0.15591 0.34542 0.46703 0.0
H2292 H 0.1775 0.42572 0.48324 0.0
H2293 H 0.19344 0.4209 0.48437 0.0
H2294 H 0.17919 0.41543 0.50076 0.0
H2295 H 0.19101 0.37353 0.58023 0.0
H2296 H 0.23306 0.38682 0.54075 0.0
H2297 H 0.23608 0.39238 0.51202 0.0
H2298 H 0.20165 0.39284 0.46935 0.0
H2299 H 0.16142 0.38411 0.50986 0.0
H2300 H 0.15908 0.38003 0.53889 0.0
H2301 H 0.30071 0.41563 0.46249 0.0
H2302 H 0.30054 0.40078 0.4762 0.0
H2303 H 0.28995 0.4113 0.48166 0.0
C2304 C 0.00076 0.36471 0.05713 0.0
C2305 C 0.98816 0.35981 0.04549 0.0
C2306 C 0.00366 0.37643 0.06975 0.0
C2307 C 0.99381 0.38357 0.07071 0.0
C2308 C 0.98071 0.3783 0.05936 0.0
C2309 C 0.97797 0.36639 0.04691 0.0
C2310 C 0.01762 0.38156 0.08174 0.0
C2311 C 0.97 0.38569 0.06 0.0
C2312 C 0.99724 0.40628 0.11129 0.0
C2313 C 0.00927 0.4226 0.10779 0.0
C2314 C 0.99145 0.39353 0.0991 0.0
C2315 C 0.99793 0.3972 0.08308 0.0
C2316 C 0.00966 0.41376 0.07933 0.0
C2317 C 0.01529 0.42624 0.09177 0.0
C2318 C 0.97904 0.37601 0.10361 0.0
C2319 C 0.01684 0.41818 0.06238 0.0
H2320 H 0.00857 0.35955 0.05624 0.0
H2321 H 0.96824 0.36269 0.03793 0.0
H2322 H 0.027 0.39482 0.08027 0.0
H2323 H 0.01327 0.38024 0.09458 0.0
H2324 H 0.02348 0.37408 0.07991 0.0
H2325 H 0.95962 0.37941 0.05108 0.0
H2326 H 0.96512 0.38487 0.07256 0.0
H2327 H 0.97734 0.39904 0.0572 0.0
H2328 H 0.99275 0.40341 0.12373 0.0
H2329 H 0.02479 0.43877 0.08908 0.0
H2330 H 0.98482 0.36841 0.10346 0.0
H2331 H 0.96887 0.37025 0.09446 0.0
H2332 H 0.97396 0.37551 0.11603 0.0
H2333 H 0.02441 0.41258 0.05994 0.0
H2334 H 0.02459 0.43181 0.06103 0.0
H2335 H 0.00701 0.41305 0.05285 0.0
C2336 C 0.62958 0.62415 0.07127 0.0
C2337 C 0.63606 0.6252 0.05555 0.0
C2338 C 0.62329 0.60956 0.08011 0.0
C2339 C 0.62322 0.59566 0.07293 0.0
C2340 C 0.62997 0.59672 0.05722 0.0
C2341 C 0.63648 0.61154 0.04877 0.0
C2342 C 0.61646 0.60894 0.09698 0.0
C2343 C 0.62972 0.58197 0.04905 0.0
C2344 C 0.61807 0.55461 0.1033 0.0
C2345 C 0.59537 0.54279 0.10276 0.0
C2346 C 0.6274 0.57427 0.09343 0.0
C2347 C 0.61521 0.57975 0.08129 0.0
C2348 C 0.59368 0.56558 0.07749 0.0
C2349 C 0.58324 0.54566 0.0868 0.0
C2350 C 0.64525 0.58619 0.09556 0.0
C2351 C 0.58447 0.57037 0.06651 0.0
H2352 H 0.62934 0.6347 0.07663 0.0
H2353 H 0.64134 0.6122 0.03657 0.0
H2354 H 0.60319 0.59971 0.09676 0.0
H2355 H 0.62231 0.60493 0.10599 0.0
H2356 H 0.61838 0.62115 0.10127 0.0
H2357 H 0.63587 0.58493 0.03696 0.0
H2358 H 0.63579 0.57743 0.05714 0.0
H2359 H 0.6169 0.57168 0.04713 0.0
H2360 H 0.62492 0.5518 0.1118 0.0
H2361 H 0.57015 0.53757 0.08564 0.0
H2362 H 0.64737 0.5985 0.09967 0.0
H2363 H 0.65127 0.58768 0.08354 0.0
H2364 H 0.65056 0.58166 0.10464 0.0
H2365 H 0.58524 0.5818 0.07167 0.0
H2366 H 0.57153 0.56023 0.0653 0.0
H2367 H 0.5902 0.57325 0.05424 0.0
C2368 C 0.37744 0.01242 0.04445 0.0
C2369 C 0.36142 0.99941 0.0468 0.0
C2370 C 0.38964 0.01663 0.05643 0.0
C2371 C 0.38556 0.00793 0.07126 0.0
C2372 C 0.36919 0.9954 0.07404 0.0
C2373 C 0.35737 0.99112 0.06166 0.0
C2374 C 0.40701 0.02978 0.05285 0.0
C2375 C 0.36426 0.98616 0.08988 0.0
C2376 C 0.41724 0.00355 0.09478 0.0
C2377 C 0.42216 0.01593 0.10729 0.0
C2378 C 0.40575 0.00123 0.08269 0.0
C2379 C 0.39853 0.01109 0.08342 0.0
C2380 C 0.40333 0.02351 0.09603 0.0
C2381 C 0.41523 0.02592 0.10767 0.0
C2382 C 0.40121 0.98808 0.06921 0.0
C2383 C 0.39559 0.03396 0.09749 0.0
H2384 H 0.38062 0.01873 0.03289 0.0
H2385 H 0.34494 0.98113 0.06352 0.0
H2386 H 0.41219 0.03928 0.06304 0.0
H2387 H 0.41459 0.02402 0.05194 0.0
H2388 H 0.40801 0.03605 0.04118 0.0
H2389 H 0.35082 0.97804 0.0908 0.0
H2390 H 0.36976 0.97834 0.09066 0.0
H2391 H 0.36887 0.99504 0.10062 0.0
H2392 H 0.42231 0.9956 0.09436 0.0
H2393 H 0.41891 0.03542 0.11735 0.0
H2394 H 0.40261 0.99353 0.05697 0.0
H2395 H 0.38823 0.97818 0.0703 0.0
H2396 H 0.40879 0.98231 0.06969 0.0
H2397 H 0.39722 0.0406 0.08595 0.0
H2398 H 0.40082 0.04323 0.10791 0.0
H2399 H 0.38228 0.02585 0.0993 0.0
C2400 C 0.36526 0.00329 0.95829 0.0
C2401 C 0.36017 0.99004 0.96884 0.0
C2402 C 0.37638 0.0061 0.94572 0.0
C2403 C 0.38278 0.99556 0.94382 0.0
C2404 C 0.37758 0.98206 0.95432 0.0
C2405 C 0.36624 0.97938 0.96662 0.0
C2406 C 0.38143 0.02046 0.93459 0.0
C2407 C 0.38429 0.97069 0.9528 0.0
C2408 C 0.40226 0.99474 0.90329 0.0
C2409 C 0.41888 0.00544 0.90698 0.0
C2410 C 0.39037 0.99137 0.91517 0.0
C2411 C 0.39522 0.9989 0.93112 0.0
C2412 C 0.41198 0.00977 0.9349 0.0
C2413 C 0.42359 0.01308 0.92273 0.0
C2414 C 0.3726 0.97992 0.91058 0.0
C2415 C 0.41764 0.01799 0.9518 0.0
H2416 H 0.36054 0.01151 0.95985 0.0
H2417 H 0.36247 0.96919 0.97479 0.0
H2418 H 0.39469 0.0295 0.93613 0.0
H2419 H 0.37922 0.01599 0.92152 0.0
H2420 H 0.37476 0.02701 0.93719 0.0
H2421 H 0.37879 0.96059 0.96174 0.0
H2422 H 0.38203 0.96504 0.94018 0.0
H2423 H 0.39769 0.97793 0.9549 0.0
H2424 H 0.39856 0.98913 0.89102 0.0
H2425 H 0.43639 0.02169 0.92553 0.0
H2426 H 0.36593 0.98659 0.91224 0.0
H2427 H 0.367 0.96926 0.91885 0.0
H2428 H 0.37086 0.97506 0.89765 0.0
H2429 H 0.41251 0.02598 0.95456 0.0
H2430 H 0.43114 0.02573 0.9529 0.0
H2431 H 0.41313 0.00843 0.96128 0.0
C2432 C 0.99432 0.35793 0.95313 0.0
C2433 C 0.0022 0.36184 0.96855 0.0
C2434 C 0.99874 0.37012 0.94143 0.0
C2435 C 0.01107 0.38671 0.94542 0.0
C2436 C 0.01949 0.39061 0.96074 0.0
C2437 C 0.01508 0.37806 0.97207 0.0
C2438 C 0.98975 0.36535 0.92507 0.0
C2439 C 0.0325 0.4082 0.96556 0.0
C2440 C 0.02863 0.41733 0.91098 0.0
C2441 C 0.0189 0.42448 0.91162 0.0
C2442 C 0.02632 0.4051 0.92194 0.0
C2443 C 0.01419 0.40011 0.93407 0.0
C2444 C 0.00451 0.40746 0.935 0.0
C2445 C 0.00677 0.41932 0.9236 0.0
C2446 C 0.03655 0.39721 0.92027 0.0
C2447 C 0.99159 0.40262 0.9479 0.0
H2448 H 0.98443 0.34536 0.95034 0.0
H2449 H 0.02109 0.38114 0.98405 0.0
H2450 H 0.98198 0.37087 0.9244 0.0
H2451 H 0.99851 0.37029 0.91482 0.0
H2452 H 0.98186 0.35168 0.92317 0.0
H2453 H 0.03873 0.40898 0.97735 0.0
H2454 H 0.04175 0.41361 0.9558 0.0
H2455 H 0.02689 0.41595 0.96689 0.0
H2456 H 0.03783 0.42111 0.9016 0.0
H2457 H 0.99895 0.42447 0.92407 0.0
H2458 H 0.02856 0.38372 0.91741 0.0
H2459 H 0.043 0.39856 0.93206 0.0
H2460 H 0.04572 0.40275 0.91041 0.0
H2461 H 0.98187 0.38943 0.94587 0.0
H2462 H 0.98591 0.41034 0.94771 0.0
H2463 H 0.99694 0.40387 0.96034 0.0
C2464 C 0.60709 0.6399 0.98304 0.0
C2465 C 0.6232 0.6434 0.98369 0.0
C2466 C 0.59737 0.63266 0.96885 0.0
C2467 C 0.60396 0.629 0.95489 0.0
C2468 C 0.62028 0.63272 0.95534 0.0
C2469 C 0.62969 0.63978 0.96979 0.0
C2470 C 0.57994 0.62868 0.96889 0.0
C2471 C 0.62777 0.6292 0.94059 0.0
C2472 C 0.5738 0.59575 0.92475 0.0
C2473 C 0.57189 0.60527 0.91301 0.0
C2474 C 0.58432 0.60334 0.93837 0.0
C2475 C 0.59355 0.62086 0.94001 0.0
C2476 C 0.5923 0.63055 0.92779 0.0
C2477 C 0.58143 0.62262 0.91446 0.0
C2478 C 0.58524 0.5926 0.95121 0.0
C2479 C 0.60225 0.64927 0.92895 0.0
H2480 H 0.60195 0.64258 0.99374 0.0
H2481 H 0.64216 0.64257 0.97014 0.0
H2482 H 0.57791 0.63511 0.95881 0.0
H2483 H 0.57151 0.61516 0.96662 0.0
H2484 H 0.57671 0.63241 0.98073 0.0
H2485 H 0.64083 0.63345 0.94272 0.0
H2486 H 0.62106 0.61568 0.93755 0.0
H2487 H 0.62675 0.63542 0.92969 0.0
H2488 H 0.56684 0.58233 0.92345 0.0
H2489 H 0.58027 0.62998 0.90517 0.0
H2490 H 0.58129 0.59508 0.96326 0.0
H2491 H 0.598 0.59567 0.95282 0.0
H2492 H 0.57747 0.57915 0.94795 0.0
H2493 H 0.59864 0.65383 0.93995 0.0
H2494 H 0.60063 0.65495 0.9179 0.0
H2495 H 0.61537 0.65361 0.93047 0.0
C2496 C 0.00616 0.64519 0.96451 0.0
C2497 C 0.01554 0.64568 0.97794 0.0
C2498 C 0.00471 0.63588 0.95009 0.0
C2499 C 0.01243 0.62649 0.94936 0.0
C2500 C 0.02151 0.62658 0.96311 0.0
C2501 C 0.02317 0.63639 0.97715 0.0
C2502 C 0.99527 0.63641 0.93552 0.0
C2503 C 0.02952 0.61634 0.96298 0.0
C2504 C 0.99777 0.59111 0.91753 0.0
C2505 C 0.01002 0.59809 0.90572 0.0
C2506 C 0.99829 0.60025 0.93172 0.0
C2507 C 0.01134 0.61682 0.93411 0.0
C2508 C 0.02373 0.62398 0.92224 0.0
C2509 C 0.02309 0.61443 0.90835 0.0
C2510 C 0.98508 0.59206 0.94433 0.0
C2511 C 0.03776 0.64167 0.92429 0.0
H2512 H 0.00034 0.65247 0.96511 0.0
H2513 H 0.03029 0.63664 0.98763 0.0
H2514 H 0.0034 0.64128 0.92477 0.0
H2515 H 0.98524 0.6237 0.93197 0.0
H2516 H 0.99 0.64432 0.93809 0.0
H2517 H 0.03537 0.61708 0.97501 0.0
H2518 H 0.02036 0.60315 0.95992 0.0
H2519 H 0.03893 0.62067 0.95335 0.0
H2520 H 0.98786 0.57836 0.91576 0.0
H2521 H 0.03289 0.61975 0.8996 0.0
H2522 H 0.97904 0.5993 0.94643 0.0
H2523 H 0.99054 0.59184 0.95627 0.0
H2524 H 0.97567 0.57914 0.94051 0.0
H2525 H 0.03309 0.65017 0.92636 0.0
H2526 H 0.04578 0.64572 0.9134 0.0
H2527 H 0.04523 0.64296 0.93528 0.0
C2528 C 0.36199 0.39331 0.9555 0.0
C2529 C 0.37312 0.38786 0.95578 0.0
C2530 C 0.36477 0.40663 0.94586 0.0
C2531 C 0.37914 0.41486 0.93648 0.0
C2532 C 0.39059 0.40967 0.93701 0.0
C2533 C 0.38739 0.39617 0.94654 0.0
C2534 C 0.35216 0.41166 0.94544 0.0
C2535 C 0.40617 0.41829 0.92738 0.0
C2536 C 0.37868 0.43767 0.89901 0.0
C2537 C 0.38625 0.45411 0.90515 0.0
C2538 C 0.37635 0.42481 0.90905 0.0
C2539 C 0.38189 0.42849 0.92564 0.0
C2540 C 0.38979 0.4451 0.93188 0.0
C2541 C 0.39167 0.45769 0.92163 0.0
C2542 C 0.36765 0.40723 0.902 0.0
C2543 C 0.39607 0.44953 0.94943 0.0
H2544 H 0.35092 0.38694 0.96255 0.0
H2545 H 0.39614 0.39215 0.94679 0.0
H2546 H 0.35779 0.42495 0.94919 0.0
H2547 H 0.34735 0.41013 0.93269 0.0
H2548 H 0.34178 0.40419 0.95367 0.0
H2549 H 0.4142 0.41329 0.92977 0.0
H2550 H 0.40328 0.41685 0.91401 0.0
H2551 H 0.41299 0.43179 0.93057 0.0
H2552 H 0.37424 0.43485 0.88637 0.0
H2553 H 0.39725 0.47031 0.92657 0.0
H2554 H 0.35647 0.39939 0.9091 0.0
H2555 H 0.37555 0.4019 0.90309 0.0
H2556 H 0.36414 0.40647 0.88884 0.0
H2557 H 0.38575 0.44341 0.95803 0.0
H2558 H 0.40269 0.46313 0.95213 0.0
H2559 H 0.4044 0.44493 0.95195 0.0
C2560 C 0.628 0.99003 0.962 0.0
C2561 C 0.63273 0.00456 0.97148 0.0
C2562 C 0.61649 0.985 0.94911 0.0
C2563 C 0.60928 0.99453 0.9459 0.0
C2564 C 0.61364 0.00891 0.95578 0.0
C2565 C 0.62545 0.01386 0.96833 0.0
C2566 C 0.61239 0.96977 0.93864 0.0
C2567 C 0.60597 0.01919 0.95298 0.0
C2568 C 0.59242 0.99181 0.90293 0.0
C2569 C 0.57571 0.98061 0.90488 0.0
C2570 C 0.60345 0.99648 0.91618 0.0
C2571 C 0.59764 0.98981 0.93181 0.0
C2572 C 0.58077 0.97855 0.93392 0.0
C2573 C 0.57003 0.97392 0.92037 0.0
C2574 C 0.62138 0.00833 0.91338 0.0
C2575 C 0.57409 0.97131 0.95043 0.0
H2576 H 0.63368 0.98287 0.96433 0.0
H2577 H 0.62895 0.02501 0.97573 0.0
H2578 H 0.59907 0.96076 0.93868 0.0
H2579 H 0.6158 0.97327 0.92569 0.0
H2580 H 0.6188 0.96353 0.94296 0.0
H2581 H 0.60996 0.02944 0.96238 0.0
H2582 H 0.60924 0.02462 0.94064 0.0
H2583 H 0.59249 0.01123 0.95322 0.0
H2584 H 0.59688 0.99672 0.89089 0.0
H2585 H 0.55719 0.96494 0.92188 0.0
H2586 H 0.62839 0.00234 0.91641 0.0
H2587 H 0.62595 0.0195 0.92165 0.0
H2588 H 0.62392 0.01236 0.90046 0.0
H2589 H 0.57935 0.96385 0.95436 0.0
H2590 H 0.56059 0.96326 0.95017 0.0
H2591 H 0.57768 0.98141 0.95988 0.0
C2592 C 0.65255 0.02593 0.06276 0.0
C2593 C 0.64561 0.01375 0.05008 0.0
C2594 C 0.64341 0.02539 0.07649 0.0
C2595 C 0.62679 0.01269 0.07722 0.0
C2596 C 0.6199 2e-05 0.06471 0.0
C2597 C 0.6295 0.00057 0.05138 0.0
C2598 C 0.65135 0.03881 0.08985 0.0
C2599 C 0.60214 0.9865 0.06484 0.0
C2600 C 0.60413 0.00669 0.11727 0.0
C2601 C 0.5972 0.01649 0.11508 0.0
C2602 C 0.61378 0.00527 0.10507 0.0
C2603 C 0.6163 0.01361 0.09019 0.0
C2604 C 0.60915 0.02332 0.08777 0.0
C2605 C 0.59994 0.02488 0.10034 0.0
C2606 C 0.62157 0.99518 0.10825 0.0
C2607 C 0.61135 0.0322 0.07195 0.0
H2608 H 0.66506 0.03605 0.0618 0.0
H2609 H 0.6241 0.99123 0.04148 0.0
H2610 H 0.64635 0.04711 0.0894 0.0
H2611 H 0.64863 0.03329 0.10216 0.0
H2612 H 0.66479 0.04645 0.08852 0.0
H2613 H 0.599 0.97686 0.05495 0.0
H2614 H 0.59897 0.98045 0.07688 0.0
H2615 H 0.59446 0.99202 0.06311 0.0
H2616 H 0.60222 0.00038 0.12872 0.0
H2617 H 0.59491 0.03272 0.09856 0.0
H2618 H 0.63504 0.00327 0.10787 0.0
H2619 H 0.61791 0.98535 0.09847 0.0
H2620 H 0.6182 0.98925 0.12038 0.0
H2621 H 0.62439 0.04178 0.07048 0.0
H2622 H 0.60411 0.03834 0.0716 0.0
H2623 H 0.60768 0.02331 0.06126 0.0
C2624 C 0.01474 0.63594 0.06265 0.0
C2625 C 0.00472 0.6405 0.05468 0.0
C2626 C 0.00821 0.62264 0.07333 0.0
C2627 C 0.99127 0.61376 0.07628 0.0
C2628 C 0.98112 0.61853 0.06862 0.0
C2629 C 0.98795 0.63178 0.05785 0.0
C2630 C 0.01941 0.61787 0.08116 0.0
C2631 C 0.96302 0.60949 0.07165 0.0
C2632 C 0.97163 0.56957 0.09079 0.0
C2633 C 0.97097 0.57187 0.10786 0.0
C2634 C 0.97837 0.58313 0.0804 0.0
C2635 C 0.98415 0.5993 0.08717 0.0
C2636 C 0.98327 0.60166 0.10434 0.0
C2637 C 0.97677 0.58794 0.11447 0.0
C2638 C 0.97927 0.58013 0.06217 0.0
C2639 C 0.98904 0.61866 0.11199 0.0
H2640 H 0.0277 0.64252 0.06028 0.0
H2641 H 0.98011 0.63523 0.05182 0.0
H2642 H 0.01853 0.61824 0.09476 0.0
H2643 H 0.01563 0.60495 0.07728 0.0
H2644 H 0.03235 0.62618 0.07777 0.0
H2645 H 0.95693 0.61517 0.06532 0.0
H2646 H 0.95729 0.59635 0.06726 0.0
H2647 H 0.96074 0.60945 0.08505 0.0
H2648 H 0.96686 0.55718 0.0855 0.0
H2649 H 0.97598 0.5897 0.12761 0.0
H2650 H 0.99208 0.58761 0.0581 0.0
H2651 H 0.97208 0.58419 0.05519 0.0
H2652 H 0.9746 0.56687 0.0589 0.0
H2653 H 0.00217 0.62711 0.10951 0.0
H2654 H 0.98726 0.61835 0.12551 0.0
H2655 H 0.98234 0.62404 0.10635 0.0
C2656 C 0.40516 0.376 0.02792 0.0
C2657 C 0.38811 0.36792 0.02718 0.0
C2658 C 0.41364 0.38184 0.04303 0.0
C2659 C 0.4048 0.37911 0.05776 0.0
C2660 C 0.38758 0.37096 0.05707 0.0
C2661 C 0.37945 0.36566 0.04176 0.0
C2662 C 0.43203 0.39088 0.04324 0.0
C2663 C 0.3777 0.36748 0.07253 0.0
C2664 C 0.4249 0.37844 0.09768 0.0
C2665 C 0.42872 0.3936 0.1054 0.0
C2666 C 0.41702 0.37353 0.08223 0.0
C2667 C 0.4135 0.38435 0.07397 0.0
C2668 C 0.41802 0.4 0.08131 0.0
C2669 C 0.42552 0.4044 0.09696 0.0
C2670 C 0.41225 0.35667 0.07487 0.0
C2671 C 0.41488 0.41206 0.07267 0.0
H2672 H 0.41189 0.37789 0.01665 0.0
H2673 H 0.36625 0.35929 0.04125 0.0
H2674 H 0.43713 0.40314 0.04976 0.0
H2675 H 0.43623 0.38373 0.05008 0.0
H2676 H 0.43709 0.39283 0.03065 0.0
H2677 H 0.36439 0.36099 0.06987 0.0
H2678 H 0.38011 0.3597 0.08065 0.0
H2679 H 0.3814 0.37925 0.07949 0.0
H2680 H 0.42789 0.37027 0.10377 0.0
H2681 H 0.4289 0.41635 0.10264 0.0
H2682 H 0.41824 0.35802 0.06284 0.0
H2683 H 0.39889 0.34928 0.07254 0.0
H2684 H 0.41564 0.34963 0.083 0.0
H2685 H 0.42043 0.41452 0.0603 0.0
H2686 H 0.41987 0.42405 0.07971 0.0
H2687 H 0.40158 0.4066 0.07083 0.0
C2688 C 0.64337 0.70684 0.3672 0.0
C2689 C 0.64769 0.6949 0.36929 0.0
C2690 C 0.63988 0.71396 0.38079 0.0
C2691 C 0.64011 0.7085 0.39677 0.0
C2692 C 0.64468 0.69658 0.39895 0.0
C2693 C 0.6487 0.6901 0.38515 0.0
C2694 C 0.63556 0.72702 0.37801 0.0
C2695 C 0.64463 0.69012 0.41573 0.0
C2696 C 0.64064 0.73496 0.43333 0.0
C2697 C 0.62394 0.72757 0.43656 0.0
C2698 C 0.64612 0.7288 0.42052 0.0
C2699 C 0.63468 0.71467 0.41101 0.0
C2700 C 0.61788 0.70675 0.41466 0.0
C2701 C 0.61272 0.71331 0.42737 0.0
C2702 C 0.66411 0.73765 0.41692 0.0
C2703 C 0.60533 0.69146 0.40499 0.0
H2704 H 0.64271 0.71058 0.35489 0.0
H2705 H 0.6519 0.68073 0.38667 0.0
H2706 H 0.62262 0.72213 0.38114 0.0
H2707 H 0.64311 0.7381 0.38618 0.0
H2708 H 0.63739 0.73095 0.36504 0.0
H2709 H 0.64931 0.68151 0.41545 0.0
H2710 H 0.65214 0.70055 0.4246 0.0
H2711 H 0.632 0.68344 0.42044 0.0
H2712 H 0.64941 0.74571 0.44069 0.0
H2713 H 0.59986 0.70734 0.43011 0.0
H2714 H 0.66623 0.74238 0.40426 0.0
H2715 H 0.66856 0.7289 0.41743 0.0
H2716 H 0.67146 0.74824 0.42572 0.0
H2717 H 0.60508 0.69454 0.39197 0.0
H2718 H 0.59289 0.68622 0.41001 0.0
H2719 H 0.60863 0.68177 0.40503 0.0
C2720 C 0.27999 0.95425 0.39994 0.0
C2721 C 0.29634 0.96245 0.39522 0.0
C2722 C 0.27382 0.94094 0.41059 0.0
C2723 C 0.28439 0.93609 0.41704 0.0
C2724 C 0.30104 0.94471 0.41273 0.0
C2725 C 0.30676 0.95762 0.40165 0.0
C2726 C 0.2559 0.93176 0.41457 0.0
C2727 C 0.31279 0.94022 0.41971 0.0
C2728 C 0.27134 0.91057 0.45543 0.0
C2729 C 0.26644 0.89466 0.44892 0.0
C2730 C 0.27736 0.92421 0.44523 0.0
C2731 C 0.27799 0.92177 0.42803 0.0
C2732 C 0.27263 0.90567 0.42132 0.0
C2733 C 0.26703 0.89233 0.43186 0.0
C2734 C 0.28321 0.94123 0.45287 0.0
C2735 C 0.27276 0.90252 0.40301 0.0
H2736 H 0.27189 0.95787 0.39482 0.0
H2737 H 0.31944 0.96404 0.39808 0.0
H2738 H 0.25017 0.91854 0.41047 0.0
H2739 H 0.25428 0.93204 0.42807 0.0
H2740 H 0.24933 0.93711 0.40857 0.0
H2741 H 0.32553 0.94876 0.41585 0.0
H2742 H 0.31245 0.94053 0.43336 0.0
H2743 H 0.30913 0.9274 0.41563 0.0
H2744 H 0.27054 0.91239 0.46855 0.0
H2745 H 0.26302 0.88002 0.42674 0.0
H2746 H 0.27596 0.9463 0.44791 0.0
H2747 H 0.29611 0.94984 0.44961 0.0
H2748 H 0.28227 0.94107 0.46649 0.0
H2749 H 0.26564 0.90692 0.39644 0.0
H2750 H 0.2676 0.88917 0.39971 0.0
H2751 H 0.28543 0.90961 0.39848 0.0
C2752 C 0.05768 0.35514 0.38076 0.0
C2753 C 0.04253 0.34148 0.38485 0.0
C2754 C 0.07058 0.36268 0.39231 0.0
C2755 C 0.06812 0.3567 0.40846 0.0
C2756 C 0.05267 0.34329 0.41282 0.0
C2757 C 0.04011 0.33568 0.40089 0.0
C2758 C 0.08699 0.37667 0.38705 0.0
C2759 C 0.04946 0.33685 0.43004 0.0
C2760 C 0.10437 0.3631 0.4336 0.0
C2761 C 0.1082 0.37721 0.4435 0.0
C2762 C 0.0916 0.35657 0.42193 0.0
C2763 C 0.08197 0.36388 0.42051 0.0
C2764 C 0.08556 0.37793 0.43059 0.0
C2765 C 0.09876 0.38456 0.44179 0.0
C2766 C 0.08841 0.34181 0.41112 0.0
C2767 C 0.0753 0.38581 0.42972 0.0
H2768 H 0.05965 0.35959 0.36834 0.0
H2769 H 0.02837 0.32522 0.40413 0.0
H2770 H 0.09106 0.38779 0.39526 0.0
H2771 H 0.0962 0.37295 0.38814 0.0
H2772 H 0.08677 0.38013 0.37415 0.0
H2773 H 0.03645 0.32725 0.4318 0.0
H2774 H 0.05701 0.33138 0.4327 0.0
H2775 H 0.05298 0.3472 0.43918 0.0
H2776 H 0.11135 0.3571 0.43486 0.0
H2777 H 0.10159 0.39537 0.44946 0.0
H2778 H 0.08861 0.3447 0.39796 0.0
H2779 H 0.07613 0.33106 0.41355 0.0
H2780 H 0.09754 0.33812 0.41318 0.0
H2781 H 0.07563 0.3902 0.41715 0.0
H2782 H 0.07951 0.39648 0.43864 0.0
H2783 H 0.0624 0.37647 0.43228 0.0
C2784 C 0.04198 0.30807 0.30952 0.0
C2785 C 0.03372 0.31666 0.30827 0.0
C2786 C 0.04898 0.3051 0.29566 0.0
C2787 C 0.04714 0.31034 0.2801 0.0
C2788 C 0.03893 0.31918 0.27881 0.0
C2789 C 0.03254 0.32249 0.29301 0.0
C2790 C 0.05811 0.29612 0.29764 0.0
C2791 C 0.03634 0.32457 0.26237 0.0
C2792 C 0.07486 0.3127 0.24542 0.0
C2793 C 0.06537 0.29706 0.23741 0.0
C2794 C 0.0691 0.31717 0.25936 0.0
C2795 C 0.0533 0.30599 0.26512 0.0
C2796 C 0.04348 0.29043 0.25682 0.0
C2797 C 0.04971 0.28609 0.24321 0.0
C2798 C 0.08007 0.33372 0.26812 0.0
C2799 C 0.0264 0.27831 0.26237 0.0
H2800 H 0.04298 0.30368 0.32138 0.0
H2801 H 0.02599 0.329 0.29205 0.0
H2802 H 0.05149 0.28388 0.291 0.0
H2803 H 0.07037 0.30329 0.29214 0.0
H2804 H 0.05959 0.29411 0.31076 0.0
H2805 H 0.03008 0.33171 0.26354 0.0
H2806 H 0.04819 0.33233 0.25629 0.0
H2807 H 0.02889 0.31349 0.25417 0.0
H2808 H 0.0869 0.32143 0.24101 0.0
H2809 H 0.04231 0.27406 0.23701 0.0
H2810 H 0.08213 0.33177 0.28107 0.0
H2811 H 0.07415 0.34119 0.26845 0.0
H2812 H 0.09208 0.34097 0.26213 0.0
H2813 H 0.02683 0.27421 0.2749 0.0
H2814 H 0.02001 0.26718 0.25397 0.0
H2815 H 0.01915 0.28444 0.26304 0.0
C2816 C 0.6958 0.72102 0.30293 0.0
C2817 C 0.67977 0.70901 0.29812 0.0
C2818 C 0.70491 0.7355 0.29402 0.0
C2819 C 0.69788 0.73797 0.27995 0.0
C2820 C 0.682 0.72565 0.27466 0.0
C2821 C 0.67312 0.71133 0.28379 0.0
C2822 C 0.72186 0.74842 0.29996 0.0
C2823 C 0.67418 0.72776 0.25959 0.0
C2824 C 0.71469 0.79049 0.26937 0.0
C2825 C 0.72515 0.7908 0.24992 0.0
C2826 C 0.70409 0.77065 0.27887 0.0
C2827 C 0.70667 0.75385 0.27152 0.0
C2828 C 0.72069 0.75641 0.25534 0.0
C2829 C 0.73186 0.77579 0.24501 0.0
C2830 C 0.69304 0.76808 0.29287 0.0
C2831 C 0.72281 0.74231 0.25026 0.0
H2832 H 0.70109 0.71938 0.31394 0.0
H2833 H 0.66082 0.70208 0.27984 0.0
H2834 H 0.73065 0.75141 0.28983 0.0
H2835 H 0.72217 0.76003 0.30366 0.0
H2836 H 0.72594 0.74428 0.31061 0.0
H2837 H 0.66211 0.71658 0.25653 0.0
H2838 H 0.67251 0.73848 0.2617 0.0
H2839 H 0.68225 0.73039 0.24887 0.0
H2840 H 0.71232 0.80023 0.27279 0.0
H2841 H 0.7391 0.77699 0.23433 0.0
H2842 H 0.6973 0.76454 0.30381 0.0
H2843 H 0.6806 0.75767 0.28962 0.0
H2844 H 0.69277 0.77952 0.29576 0.0
H2845 H 0.72745 0.73879 0.26091 0.0
H2846 H 0.73141 0.74576 0.2399 0.0
H2847 H 0.71078 0.73141 0.24658 0.0
C2848 C 0.28155 0.98376 0.30969 0.0
C2849 C 0.28688 0.97492 0.31864 0.0
C2850 C 0.27085 0.97633 0.29621 0.0
C2851 C 0.26502 0.95951 0.29179 0.0
C2852 C 0.27069 0.95061 0.30048 0.0
C2853 C 0.28174 0.95851 0.31374 0.0
C2854 C 0.26539 0.98636 0.28702 0.0
C2855 C 0.26452 0.93258 0.29629 0.0
C2856 C 0.22384 0.93887 0.27024 0.0
C2857 C 0.22814 0.93975 0.25364 0.0
C2858 C 0.23565 0.94444 0.28284 0.0
C2859 C 0.25221 0.95113 0.27875 0.0
C2860 C 0.25654 0.95116 0.26209 0.0
C2861 C 0.2444 0.94515 0.24974 0.0
C2862 C 0.23047 0.94377 0.30051 0.0
C2863 C 0.27409 0.95827 0.25724 0.0
H2864 H 0.28569 0.99653 0.31334 0.0
H2865 H 0.28579 0.95164 0.3207 0.0
H2866 H 0.26722 0.98558 0.27361 0.0
H2867 H 0.25217 0.98121 0.28889 0.0
H2868 H 0.27208 0.99964 0.29117 0.0
H2869 H 0.2712 0.92788 0.30321 0.0
H2870 H 0.25139 0.925 0.29925 0.0
H2871 H 0.26562 0.9307 0.28292 0.0
H2872 H 0.21121 0.93414 0.27337 0.0
H2873 H 0.24779 0.94519 0.23702 0.0
H2874 H 0.23517 0.95655 0.30557 0.0
H2875 H 0.23572 0.93806 0.30816 0.0
H2876 H 0.217 0.9366 0.30171 0.0
H2877 H 0.28103 0.97185 0.26 0.0
H2878 H 0.27528 0.95608 0.24394 0.0
H2879 H 0.27982 0.95281 0.26451 0.0
C2880 C 0.68589 0.95879 0.30426 0.0
C2881 C 0.69677 0.97371 0.31276 0.0
C2882 C 0.69098 0.95321 0.29057 0.0
C2883 C 0.70719 0.96303 0.28504 0.0
C2884 C 0.71809 0.97827 0.29338 0.0
C2885 C 0.71281 0.98331 0.30725 0.0
C2886 C 0.67915 0.93672 0.28221 0.0
C2887 C 0.73535 0.98931 0.28765 0.0
C2888 C 0.72911 0.94632 0.25955 0.0
C2889 C 0.72803 0.95127 0.24373 0.0
C2890 C 0.72143 0.94908 0.27294 0.0
C2891 C 0.71295 0.95751 0.27058 0.0
C2892 C 0.71143 0.96212 0.25458 0.0
C2893 C 0.71882 0.95876 0.24134 0.0
C2894 C 0.72297 0.94361 0.28976 0.0
C2895 C 0.70282 0.97146 0.25159 0.0
H2896 H 0.67351 0.95129 0.30857 0.0
H2897 H 0.72121 0.99494 0.31368 0.0
H2898 H 0.67762 0.9384 0.26903 0.0
H2899 H 0.68407 0.92835 0.28268 0.0
H2900 H 0.66699 0.93057 0.28803 0.0
H2901 H 0.74205 0.0011 0.29509 0.0
H2902 H 0.74213 0.98273 0.28843 0.0
H2903 H 0.73528 0.9923 0.27457 0.0
H2904 H 0.73622 0.94057 0.26161 0.0
H2905 H 0.718 0.96263 0.22914 0.0
H2906 H 0.71093 0.93704 0.29575 0.0
H2907 H 0.73118 0.95464 0.2977 0.0
H2908 H 0.728 0.93529 0.28915 0.0
H2909 H 0.69048 0.96493 0.25696 0.0
H2910 H 0.70164 0.97303 0.23827 0.0
H2911 H 0.70973 0.98394 0.25778 0.0
C2912 C 0.03116 0.72961 0.30189 0.0
C2913 C 0.04242 0.72437 0.30288 0.0
C2914 C 0.03339 0.74181 0.29091 0.0
C2915 C 0.04733 0.74911 0.28084 0.0
C2916 C 0.05901 0.74429 0.28219 0.0
C2917 C 0.05637 0.73191 0.29309 0.0
C2918 C 0.02056 0.74649 0.28969 0.0
C2919 C 0.07415 0.75198 0.27186 0.0
C2920 C 0.04449 0.76678 0.24049 0.0
C2921 C 0.05199 0.78376 0.24461 0.0
C2922 C 0.04296 0.75541 0.25214 0.0
C2923 C 0.04926 0.76117 0.2683 0.0
C2924 C 0.05711 0.77833 0.27249 0.0
C2925 C 0.05817 0.7894 0.26067 0.0
C2926 C 0.03427 0.73718 0.24725 0.0
C2927 C 0.0642 0.78496 0.28953 0.0
H2928 H 0.02033 0.72382 0.30935 0.0
H2929 H 0.06521 0.72805 0.29387 0.0
H2930 H 0.02618 0.76008 0.29168 0.0
H2931 H 0.015 0.74323 0.27715 0.0
H2932 H 0.01073 0.74011 0.29879 0.0
H2933 H 0.08258 0.74767 0.27516 0.0
H2934 H 0.0707 0.74879 0.25865 0.0
H2935 H 0.08076 0.7657 0.27335 0.0
H2936 H 0.03945 0.76236 0.22819 0.0
H2937 H 0.06371 0.80245 0.26407 0.0
H2938 H 0.02351 0.73014 0.25515 0.0
H2939 H 0.04245 0.73229 0.24917 0.0
H2940 H 0.0301 0.73474 0.23417 0.0
H2941 H 0.05433 0.77984 0.2987 0.0
H2942 H 0.07071 0.79873 0.29055 0.0
H2943 H 0.07282 0.78093 0.29281 0.0
C2944 C 0.28722 0.33496 0.28939 0.0
C2945 C 0.29057 0.32777 0.30252 0.0
C2946 C 0.27345 0.32553 0.27915 0.0
C2947 C 0.26272 0.30852 0.28211 0.0
C2948 C 0.26622 0.30107 0.29505 0.0
C2949 C 0.2801 0.31077 0.30508 0.0
C2950 C 0.27015 0.33391 0.26543 0.0
C2951 C 0.25505 0.28296 0.29859 0.0
C2952 C 0.21884 0.29029 0.2681 0.0
C2953 C 0.21823 0.28191 0.25329 0.0
C2954 C 0.23315 0.29872 0.27771 0.0
C2955 C 0.24728 0.29884 0.27237 0.0
C2956 C 0.2467 0.29015 0.25759 0.0
C2957 C 0.23215 0.28174 0.24822 0.0
C2958 C 0.23322 0.30775 0.29343 0.0
C2959 C 0.26153 0.29001 0.25152 0.0
H2960 H 0.29526 0.34803 0.2872 0.0
H2961 H 0.28257 0.30505 0.31512 0.0
H2962 H 0.26845 0.32701 0.25356 0.0
H2963 H 0.2587 0.3338 0.26784 0.0
H2964 H 0.28018 0.34697 0.26413 0.0
H2965 H 0.26002 0.2788 0.30842 0.0
H2966 H 0.24301 0.28078 0.3025 0.0
H2967 H 0.25296 0.27516 0.28729 0.0
H2968 H 0.20811 0.29047 0.27204 0.0
H2969 H 0.23172 0.27525 0.23681 0.0
H2970 H 0.2421 0.32124 0.29252 0.0
H2971 H 0.23716 0.30338 0.30396 0.0
H2972 H 0.22105 0.30595 0.29613 0.0
H2973 H 0.2714 0.30284 0.24899 0.0
H2974 H 0.25891 0.28216 0.24012 0.0
H2975 H 0.26619 0.28536 0.26115 0.0
C2976 C 0.29727 0.34888 0.38489 0.0
C2977 C 0.3117 0.36136 0.37801 0.0
C2978 C 0.29071 0.3523 0.39892 0.0
C2979 C 0.29905 0.36843 0.40642 0.0
C2980 C 0.31399 0.38084 0.39988 0.0
C2981 C 0.32 0.37722 0.38563 0.0
C2982 C 0.27457 0.33886 0.4053 0.0
C2983 C 0.32351 0.39807 0.40776 0.0
C2984 C 0.2778 0.38616 0.43161 0.0
C2985 C 0.28178 0.38454 0.4478 0.0
C2986 C 0.2826 0.38013 0.41807 0.0
C2987 C 0.29198 0.3727 0.42071 0.0
C2988 C 0.29565 0.3706 0.43697 0.0
C2989 C 0.29027 0.37628 0.45029 0.0
C2990 C 0.27804 0.38218 0.40091 0.0
C2991 C 0.3059 0.36305 0.4403 0.0
H2992 H 0.29078 0.33664 0.37894 0.0
H2993 H 0.33126 0.38684 0.38041 0.0
H2994 H 0.27565 0.33718 0.41858 0.0
H2995 H 0.26537 0.34257 0.40404 0.0
H2996 H 0.27001 0.32677 0.39857 0.0
H2997 H 0.33549 0.40589 0.40188 0.0
H2998 H 0.3164 0.4043 0.40682 0.0
H2999 H 0.32561 0.39735 0.42105 0.0
H3000 H 0.2711 0.39231 0.42939 0.0
H3001 H 0.29315 0.37473 0.46275 0.0
H3002 H 0.27265 0.37026 0.3937 0.0
H3003 H 0.28914 0.39136 0.39445 0.0
H3004 H 0.26921 0.38648 0.401 0.0
H3005 H 0.30071 0.35082 0.43374 0.0
H3006 H 0.30686 0.3614 0.45364 0.0
H3007 H 0.31836 0.37117 0.43556 0.0
C3008 C 0.66761 0.95266 0.40063 0.0
C3009 C 0.66038 0.95342 0.38594 0.0
C3010 C 0.65865 0.94032 0.41198 0.0
C3011 C 0.64204 0.92843 0.40859 0.0
C3012 C 0.63475 0.9289 0.39366 0.0
C3013 C 0.64399 0.94137 0.38253 0.0
C3014 C 0.66688 0.9402 0.42775 0.0
C3015 C 0.61706 0.91644 0.38962 0.0
C3016 C 0.62109 0.88859 0.43228 0.0
C3017 C 0.61271 0.89218 0.44437 0.0
C3018 C 0.63072 0.90026 0.4206 0.0
C3019 C 0.63209 0.91596 0.42098 0.0
C3020 C 0.62402 0.91985 0.4333 0.0
C3021 C 0.61475 0.90809 0.445 0.0
C3022 C 0.63949 0.89582 0.40788 0.0
C3023 C 0.62517 0.93647 0.43411 0.0
H3024 H 0.68026 0.96187 0.40342 0.0
H3025 H 0.63826 0.94177 0.37122 0.0
H3026 H 0.66102 0.94253 0.43844 0.0
H3027 H 0.66543 0.92784 0.42923 0.0
H3028 H 0.68009 0.94975 0.42814 0.0
H3029 H 0.61337 0.9181 0.37722 0.0
H3030 H 0.61472 0.90364 0.39015 0.0
H3031 H 0.60919 0.91766 0.3989 0.0
H3032 H 0.62025 0.87667 0.43194 0.0
H3033 H 0.60909 0.91146 0.45464 0.0
H3034 H 0.6528 0.90483 0.40882 0.0
H3035 H 0.63545 0.89659 0.39534 0.0
H3036 H 0.63728 0.88313 0.40932 0.0
H3037 H 0.63805 0.94656 0.436 0.0
H3038 H 0.61782 0.93741 0.44421 0.0
H3039 H 0.62089 0.93859 0.42229 0.0
C3040 C 0.04586 0.70068 0.39134 0.0
C3041 C 0.05499 0.70552 0.37693 0.0
C3042 C 0.0536 0.70508 0.40688 0.0
C3043 C 0.07082 0.71501 0.40798 0.0
C3044 C 0.08003 0.72062 0.39345 0.0
C3045 C 0.07201 0.71556 0.37807 0.0
C3046 C 0.0434 0.69849 0.42207 0.0
C3047 C 0.09836 0.73167 0.39412 0.0
C3048 C 0.08956 0.73556 0.44961 0.0
C3049 C 0.0946 0.72504 0.45547 0.0
C3050 C 0.08203 0.73262 0.43406 0.0
C3051 C 0.07925 0.71868 0.42426 0.0
C3052 C 0.08451 0.70815 0.43001 0.0
C3053 C 0.09242 0.71166 0.44539 0.0
C3054 C 0.07709 0.74444 0.42812 0.0
C3055 C 0.08161 0.69304 0.42 0.0
H3056 H 0.0327 0.69279 0.39044 0.0
H3057 H 0.07905 0.71941 0.3669 0.0
H3058 H 0.0466 0.69025 0.42838 0.0
H3059 H 0.046 0.70884 0.43087 0.0
H3060 H 0.03012 0.69137 0.41915 0.0
H3061 H 0.10352 0.73637 0.38185 0.0
H3062 H 0.10204 0.74243 0.40277 0.0
H3063 H 0.10385 0.72468 0.3988 0.0
H3064 H 0.09154 0.74613 0.45721 0.0
H3065 H 0.09676 0.70379 0.44958 0.0
H3066 H 0.06368 0.7378 0.42622 0.0
H3067 H 0.08272 0.7493 0.41606 0.0
H3068 H 0.08075 0.75509 0.43693 0.0
H3069 H 0.0684 0.68484 0.41714 0.0
H3070 H 0.08592 0.68578 0.42651 0.0
H3071 H 0.08799 0.69685 0.40811 0.0
C3072 C 0.30392 0.04058 0.69611 0.0
C3073 C 0.313 0.03301 0.69867 0.0
C3074 C 0.30029 0.04807 0.70927 0.0
C3075 C 0.30537 0.04742 0.72543 0.0
C3076 C 0.31454 0.03975 0.72807 0.0
C3077 C 0.3185 0.03288 0.71458 0.0
C3078 C 0.29093 0.05658 0.70591 0.0
C3079 C 0.31974 0.03837 0.74517 0.0
C3080 C 0.30678 0.07738 0.75874 0.0
C3081 C 0.29149 0.06785 0.76605 0.0
C3082 C 0.31139 0.07094 0.7454 0.0
C3083 C 0.30072 0.05441 0.73961 0.0
C3084 C 0.28551 0.04457 0.74725 0.0
C3085 C 0.28104 0.05145 0.76028 0.0
C3086 C 0.32759 0.0819 0.73738 0.0
C3087 C 0.27398 0.02674 0.74168 0.0
H3088 H 0.29979 0.04077 0.68376 0.0
H3089 H 0.32538 0.02686 0.71654 0.0
H3090 H 0.27894 0.05 0.712 0.0
H3091 H 0.29766 0.06948 0.71113 0.0
H3092 H 0.28883 0.05695 0.69253 0.0
H3093 H 0.32688 0.0321 0.7451 0.0
H3094 H 0.32724 0.05087 0.75115 0.0
H3095 H 0.30883 0.03126 0.75285 0.0
H3096 H 0.31513 0.08994 0.7633 0.0
H3097 H 0.26936 0.04398 0.76609 0.0
H3098 H 0.32565 0.08286 0.7241 0.0
H3099 H 0.33531 0.07635 0.73824 0.0
H3100 H 0.33432 0.0946 0.74313 0.0
H3101 H 0.27007 0.02618 0.72872 0.0
H3102 H 0.26294 0.02056 0.7494 0.0
H3103 H 0.28027 0.01964 0.74213 0.0
C3104 C 0.94847 0.27675 0.72092 0.0
C3105 C 0.96429 0.2867 0.71495 0.0
C3106 C 0.94472 0.26385 0.73152 0.0
C3107 C 0.95716 0.26099 0.73655 0.0
C3108 C 0.97321 0.27111 0.73079 0.0
C3109 C 0.97656 0.28376 0.71991 0.0
C3110 C 0.92738 0.25315 0.7372 0.0
C3111 C 0.98684 0.2686 0.73615 0.0
C3112 C 0.94816 0.23693 0.7756 0.0
C3113 C 0.94287 0.22084 0.76933 0.0
C3114 C 0.95354 0.25025 0.76511 0.0
C3115 C 0.95323 0.24737 0.74788 0.0
C3116 C 0.94809 0.23122 0.74146 0.0
C3117 C 0.94304 0.21816 0.75227 0.0
C3118 C 0.95909 0.26733 0.77243 0.0
C3119 C 0.94735 0.22761 0.72315 0.0
H3120 H 0.93888 0.27883 0.71702 0.0
H3121 H 0.98883 0.29145 0.71541 0.0
H3122 H 0.92271 0.23996 0.73364 0.0
H3123 H 0.92697 0.254 0.75082 0.0
H3124 H 0.91908 0.25682 0.7319 0.0
H3125 H 0.99871 0.27771 0.73076 0.0
H3126 H 0.98812 0.26976 0.74977 0.0
H3127 H 0.98392 0.25591 0.73244 0.0
H3128 H 0.94779 0.23903 0.78874 0.0
H3129 H 0.93883 0.20574 0.74735 0.0
H3130 H 0.95035 0.27114 0.7689 0.0
H3131 H 0.97115 0.27655 0.76753 0.0
H3132 H 0.96 0.26778 0.78608 0.0
H3133 H 0.93832 0.22995 0.71727 0.0
H3134 H 0.94385 0.21458 0.72018 0.0
H3135 H 0.95933 0.23602 0.71759 0.0
C3136 C 0.72233 0.68799 0.71127 0.0
C3137 C 0.70717 0.67486 0.71612 0.0
C3138 C 0.73561 0.69576 0.72237 0.0
C3139 C 0.73352 0.69062 0.73884 0.0
C3140 C 0.71805 0.67778 0.74394 0.0
C3141 C 0.70513 0.66985 0.73243 0.0
C3142 C 0.75201 0.70907 0.71633 0.0
C3143 C 0.7152 0.67229 0.76151 0.0
C3144 C 0.76981 0.6972 0.76412 0.0
C3145 C 0.77409 0.71181 0.77335 0.0
C3146 C 0.75693 0.69048 0.75254 0.0
C3147 C 0.74767 0.69814 0.75055 0.0
C3148 C 0.75178 0.71274 0.75992 0.0
C3149 C 0.76506 0.71951 0.77103 0.0
C3150 C 0.75318 0.6751 0.7425 0.0
C3151 C 0.74194 0.72103 0.75847 0.0
H3152 H 0.72396 0.69179 0.69861 0.0
H3153 H 0.69336 0.65979 0.73622 0.0
H3154 H 0.75659 0.72067 0.7239 0.0
H3155 H 0.76098 0.70506 0.71766 0.0
H3156 H 0.75153 0.71183 0.70322 0.0
H3157 H 0.70218 0.66308 0.76379 0.0
H3158 H 0.72255 0.66666 0.76446 0.0
H3159 H 0.71922 0.68316 0.7701 0.0
H3160 H 0.77648 0.69094 0.76588 0.0
H3161 H 0.76823 0.7307 0.77822 0.0
H3162 H 0.75307 0.6773 0.72918 0.0
H3163 H 0.74089 0.66468 0.7455 0.0
H3164 H 0.76219 0.67128 0.74476 0.0
H3165 H 0.74202 0.72466 0.7456 0.0
H3166 H 0.74666 0.73225 0.76672 0.0
H3167 H 0.72905 0.71217 0.76157 0.0
C3168 C 0.70974 0.65997 0.63565 0.0
C3169 C 0.6934 0.64844 0.63894 0.0
C3170 C 0.71772 0.65703 0.62263 0.0
C3171 C 0.70896 0.64248 0.61245 0.0
C3172 C 0.6922 0.6313 0.61524 0.0
C3173 C 0.6847 0.63428 0.62864 0.0
C3174 C 0.7357 0.66901 0.62032 0.0
C3175 C 0.68229 0.61591 0.6044 0.0
C3176 C 0.72529 0.63829 0.57106 0.0
C3177 C 0.73029 0.62706 0.5745 0.0
C3178 C 0.7186 0.64372 0.58335 0.0
C3179 C 0.71742 0.63824 0.59959 0.0
C3180 C 0.72336 0.6277 0.60334 0.0
C3181 C 0.7296 0.62215 0.59074 0.0
C3182 C 0.7122 0.65476 0.57882 0.0
C3183 C 0.72271 0.62192 0.6206 0.0
H3184 H 0.71648 0.67084 0.64375 0.0
H3185 H 0.67202 0.62543 0.63116 0.0
H3186 H 0.74256 0.66281 0.62312 0.0
H3187 H 0.73817 0.67277 0.60735 0.0
H3188 H 0.74045 0.68032 0.62844 0.0
H3189 H 0.66909 0.6094 0.60722 0.0
H3190 H 0.68386 0.61916 0.59124 0.0
H3191 H 0.68665 0.60719 0.60609 0.0
H3192 H 0.72622 0.64252 0.55864 0.0
H3193 H 0.73376 0.61375 0.59356 0.0
H3194 H 0.71762 0.66602 0.58705 0.0
H3195 H 0.69881 0.64806 0.58051 0.0
H3196 H 0.71482 0.65864 0.56586 0.0
H3197 H 0.72818 0.63267 0.6295 0.0
H3198 H 0.72921 0.61506 0.62178 0.0
H3199 H 0.70982 0.61363 0.6241 0.0
C3200 C 0.35887 0.05567 0.62942 0.0
C3201 C 0.34241 0.04362 0.62632 0.0
C3202 C 0.36714 0.06959 0.61965 0.0
C3203 C 0.35882 0.07149 0.60639 0.0
C3204 C 0.34242 0.05918 0.60279 0.0
C3205 C 0.33437 0.04537 0.61281 0.0
C3206 C 0.38463 0.08256 0.62387 0.0
C3207 C 0.33329 0.0608 0.58861 0.0
C3208 C 0.37633 0.12386 0.59473 0.0
C3209 C 0.38534 0.12319 0.57462 0.0
C3210 C 0.3657 0.10433 0.60477 0.0
C3211 C 0.36699 0.08684 0.59711 0.0
C3212 C 0.37976 0.08837 0.58003 0.0
C3213 C 0.39088 0.10739 0.56913 0.0
C3214 C 0.35585 0.10265 0.6196 0.0
C3215 C 0.38098 0.07376 0.57476 0.0
H3216 H 0.36527 0.05448 0.63976 0.0
H3217 H 0.32169 0.03613 0.61023 0.0
H3218 H 0.39237 0.08478 0.61293 0.0
H3219 H 0.38549 0.09447 0.6274 0.0
H3220 H 0.38961 0.07892 0.63415 0.0
H3221 H 0.32087 0.04971 0.58683 0.0
H3222 H 0.33218 0.07185 0.59087 0.0
H3223 H 0.34019 0.06268 0.57708 0.0
H3224 H 0.37472 0.13406 0.59841 0.0
H3225 H 0.39737 0.10802 0.558 0.0
H3226 H 0.36074 0.09932 0.63019 0.0
H3227 H 0.3431 0.0924 0.61733 0.0
H3228 H 0.35616 0.1144 0.62251 0.0
H3229 H 0.38652 0.0706 0.58489 0.0
H3230 H 0.38847 0.07644 0.56356 0.0
H3231 H 0.36856 0.06291 0.57235 0.0
C3232 C 0.93929 0.28411 0.63628 0.0
C3233 C 0.95619 0.29486 0.63774 0.0
C3234 C 0.9317 0.27812 0.62086 0.0
C3235 C 0.94125 0.28319 0.60652 0.0
C3236 C 0.95847 0.29305 0.60797 0.0
C3237 C 0.96579 0.29874 0.62366 0.0
C3238 C 0.91333 0.26738 0.61991 0.0
C3239 C 0.96905 0.29865 0.59296 0.0
C3240 C 0.91715 0.26021 0.56785 0.0
C3241 C 0.91114 0.27033 0.56325 0.0
C3242 C 0.92788 0.2647 0.58136 0.0
C3243 C 0.93288 0.27977 0.59026 0.0
C3244 C 0.92792 0.29065 0.5848 0.0
C3245 C 0.91712 0.2858 0.57134 0.0
C3246 C 0.93303 0.25286 0.58671 0.0
C3247 C 0.93318 0.30696 0.59381 0.0
H3248 H 0.93189 0.28097 0.64722 0.0
H3249 H 0.97887 0.30712 0.6248 0.0
H3250 H 0.90823 0.27453 0.61467 0.0
H3251 H 0.90953 0.25634 0.61165 0.0
H3252 H 0.90789 0.26312 0.63218 0.0
H3253 H 0.98205 0.30345 0.59612 0.0
H3254 H 0.96485 0.28834 0.58363 0.0
H3255 H 0.96819 0.30871 0.58725 0.0
H3256 H 0.91292 0.24845 0.56129 0.0
H3257 H 0.91285 0.29384 0.5675 0.0
H3258 H 0.92646 0.24677 0.59805 0.0
H3259 H 0.94626 0.25961 0.58969 0.0
H3260 H 0.93027 0.24306 0.57711 0.0
H3261 H 0.92735 0.30457 0.60604 0.0
H3262 H 0.92976 0.31477 0.58696 0.0
H3263 H 0.94657 0.31404 0.59594 0.0
C3264 C 0.37806 0.31942 0.63927 0.0
C3265 C 0.36237 0.31003 0.64566 0.0
C3266 C 0.38242 0.31417 0.62486 0.0
C3267 C 0.37096 0.29889 0.61692 0.0
C3268 C 0.3551 0.28929 0.62337 0.0
C3269 C 0.3509 0.29512 0.63755 0.0
C3270 C 0.3993 0.32501 0.61813 0.0
C3271 C 0.34271 0.27273 0.61549 0.0
C3272 C 0.3795 0.29323 0.57233 0.0
C3273 C 0.38858 0.28548 0.57393 0.0
C3274 C 0.37326 0.29725 0.58616 0.0
C3275 C 0.37579 0.29302 0.60198 0.0
C3276 C 0.38416 0.28439 0.60361 0.0
C3277 C 0.3907 0.28097 0.58962 0.0
C3278 C 0.36474 0.3068 0.58393 0.0
C3279 C 0.38674 0.27929 0.62022 0.0
H3280 H 0.38689 0.33104 0.64544 0.0
H3281 H 0.3388 0.28779 0.64256 0.0
H3282 H 0.40607 0.31839 0.61832 0.0
H3283 H 0.39847 0.32777 0.60512 0.0
H3284 H 0.40645 0.33693 0.62529 0.0
H3285 H 0.33092 0.26678 0.62202 0.0
H3286 H 0.34046 0.27427 0.60248 0.0
H3287 H 0.34753 0.26426 0.61544 0.0
H3288 H 0.37784 0.29673 0.56024 0.0
H3289 H 0.3977 0.27502 0.59108 0.0
H3290 H 0.37211 0.31933 0.5899 0.0
H3291 H 0.35272 0.3005 0.58998 0.0
H3292 H 0.36287 0.30822 0.57074 0.0
H3293 H 0.39541 0.29048 0.62773 0.0
H3294 H 0.39168 0.27093 0.61917 0.0
H3295 H 0.37509 0.27291 0.62696 0.0
C3296 C 0.69661 0.05933 0.61715 0.0
C3297 C 0.70748 0.05372 0.61908 0.0
C3298 C 0.70002 0.07211 0.60644 0.0
C3299 C 0.7148 0.07968 0.59767 0.0
C3300 C 0.72593 0.07422 0.59972 0.0
C3301 C 0.72207 0.0612 0.61027 0.0
C3302 C 0.68771 0.0774 0.60438 0.0
C3303 C 0.74193 0.08216 0.59079 0.0
C3304 C 0.71657 0.10186 0.55881 0.0
C3305 C 0.72397 0.1184 0.5646 0.0
C3306 C 0.71369 0.08916 0.56939 0.0
C3307 C 0.71847 0.09313 0.58617 0.0
C3308 C 0.72627 0.10986 0.59204 0.0
C3309 C 0.72871 0.12227 0.58124 0.0
C3310 C 0.7051 0.07145 0.56271 0.0
C3311 C 0.73176 0.1146 0.6098 0.0
H3312 H 0.68528 0.05356 0.62383 0.0
H3313 H 0.73061 0.05704 0.6118 0.0
H3314 H 0.69333 0.09076 0.60785 0.0
H3315 H 0.6838 0.0758 0.59127 0.0
H3316 H 0.67674 0.07018 0.61198 0.0
H3317 H 0.74947 0.0768 0.59409 0.0
H3318 H 0.73966 0.08054 0.57729 0.0
H3319 H 0.74901 0.0957 0.59373 0.0
H3320 H 0.71263 0.09881 0.54603 0.0
H3321 H 0.73415 0.13497 0.5859 0.0
H3322 H 0.69343 0.06394 0.5692 0.0
H3323 H 0.71264 0.0659 0.56499 0.0
H3324 H 0.70246 0.0705 0.54928 0.0
H3325 H 0.72101 0.10896 0.61791 0.0
H3326 H 0.73861 0.12825 0.61215 0.0
H3327 H 0.73962 0.10971 0.61332 0.0
C3328 C 0.95713 0.67397 0.61808 0.0
C3329 C 0.95499 0.66588 0.6329 0.0
C3330 C 0.94555 0.6666 0.6052 0.0
C3331 C 0.93141 0.65082 0.60723 0.0
C3332 C 0.92903 0.6427 0.62224 0.0
C3333 C 0.94087 0.65028 0.63486 0.0
C3334 C 0.94858 0.67558 0.58932 0.0
C3335 C 0.91404 0.62593 0.62492 0.0
C3336 C 0.89531 0.638 0.57842 0.0
C3337 C 0.89685 0.62758 0.56675 0.0
C3338 C 0.90627 0.64543 0.59178 0.0
C3339 C 0.91933 0.64261 0.59346 0.0
C3340 C 0.9211 0.63224 0.58176 0.0
C3341 C 0.90997 0.62497 0.56852 0.0
C3342 C 0.904 0.65646 0.604 0.0
C3343 C 0.93493 0.62899 0.5831 0.0
H3344 H 0.968 0.68597 0.6164 0.0
H3345 H 0.93903 0.64396 0.64629 0.0
H3346 H 0.94934 0.66802 0.579 0.0
H3347 H 0.93827 0.67734 0.58647 0.0
H3348 H 0.96002 0.68791 0.58981 0.0
H3349 H 0.91374 0.62152 0.6375 0.0
H3350 H 0.90289 0.6265 0.62292 0.0
H3351 H 0.91361 0.61666 0.61585 0.0
H3352 H 0.88554 0.64049 0.577 0.0
H3353 H 0.91178 0.61736 0.55957 0.0
H3354 H 0.91475 0.66925 0.6039 0.0
H3355 H 0.90311 0.65196 0.61663 0.0
H3356 H 0.8929 0.65694 0.60126 0.0
H3357 H 0.94678 0.64084 0.5824 0.0
H3358 H 0.93439 0.62029 0.57322 0.0
H3359 H 0.93466 0.62372 0.59519 0.0
C3360 C 0.95437 0.68398 0.71727 0.0
C3361 C 0.97003 0.69474 0.71135 0.0
C3362 C 0.94852 0.6886 0.73109 0.0
C3363 C 0.95877 0.70411 0.73935 0.0
C3364 C 0.97475 0.71476 0.73366 0.0
C3365 C 0.98009 0.71003 0.71963 0.0
C3366 C 0.9313 0.67711 0.73661 0.0
C3367 C 0.98623 0.73123 0.74233 0.0
C3368 C 0.94438 0.72794 0.76553 0.0
C3369 C 0.94754 0.72492 0.78151 0.0
C3370 C 0.94675 0.72015 0.7517 0.0
C3371 C 0.95295 0.70956 0.75385 0.0
C3372 C 0.95556 0.70597 0.76993 0.0
C3373 C 0.95266 0.71357 0.78355 0.0
C3374 C 0.94346 0.724 0.73476 0.0
C3375 C 0.96248 0.69503 0.77277 0.0
H3376 H 0.94653 0.67219 0.71083 0.0
H3377 H 0.99228 0.7183 0.71521 0.0
H3378 H 0.93129 0.67411 0.74969 0.0
H3379 H 0.92421 0.68337 0.73573 0.0
H3380 H 0.925 0.66534 0.72908 0.0
H3381 H 0.99853 0.73765 0.73681 0.0
H3382 H 0.98118 0.73948 0.74175 0.0
H3383 H 0.98752 0.72938 0.75552 0.0
H3384 H 0.94049 0.73674 0.76374 0.0
H3385 H 0.95519 0.71128 0.79587 0.0
H3386 H 0.93666 0.71246 0.727 0.0
H3387 H 0.9552 0.7322 0.72866 0.0
H3388 H 0.93638 0.73034 0.73523 0.0
H3389 H 0.9557 0.68327 0.76533 0.0
H3390 H 0.96213 0.69203 0.78593 0.0
H3391 H 0.97535 0.70144 0.76876 0.0
C3392 C 0.30813 0.28213 0.71853 0.0
C3393 C 0.32495 0.28842 0.71771 0.0
C3394 C 0.29832 0.2695 0.72932 0.0
C3395 C 0.30545 0.26279 0.73931 0.0
C3396 C 0.32232 0.26874 0.73818 0.0
C3397 C 0.33189 0.28157 0.72751 0.0
C3398 C 0.28042 0.26365 0.73035 0.0
C3399 C 0.33031 0.2617 0.74842 0.0
C3400 C 0.28427 0.24309 0.77899 0.0
C3401 C 0.27541 0.22617 0.77437 0.0
C3402 C 0.29414 0.2551 0.76774 0.0
C3403 C 0.29538 0.25007 0.75147 0.0
C3404 C 0.28674 0.23299 0.74678 0.0
C3405 C 0.27665 0.22125 0.75821 0.0
C3406 C 0.30291 0.2732 0.77315 0.0
C3407 C 0.28798 0.22714 0.72963 0.0
H3408 H 0.30269 0.28739 0.71106 0.0
H3409 H 0.34485 0.28625 0.72685 0.0
H3410 H 0.27295 0.25005 0.72788 0.0
H3411 H 0.2776 0.26616 0.74297 0.0
H3412 H 0.27668 0.26986 0.72148 0.0
H3413 H 0.34335 0.26698 0.74537 0.0
H3414 H 0.32951 0.26434 0.76168 0.0
H3415 H 0.32381 0.24802 0.74653 0.0
H3416 H 0.28312 0.24693 0.79139 0.0
H3417 H 0.26964 0.20824 0.75442 0.0
H3418 H 0.29883 0.27993 0.76541 0.0
H3419 H 0.31622 0.27894 0.77144 0.0
H3420 H 0.3007 0.27503 0.78626 0.0
H3421 H 0.28294 0.23193 0.72054 0.0
H3422 H 0.28129 0.21339 0.72823 0.0
H3423 H 0.30095 0.23211 0.72655 0.0
C3424 C 0.73902 0.04784 0.69421 0.0
C3425 C 0.72197 0.03965 0.6938 0.0
C3426 C 0.74773 0.05334 0.70921 0.0
C3427 C 0.73911 0.05002 0.72415 0.0
C3428 C 0.72189 0.04204 0.72376 0.0
C3429 C 0.71353 0.03718 0.70855 0.0
C3430 C 0.76612 0.0623 0.70909 0.0
C3431 C 0.71224 0.0379 0.73942 0.0
C3432 C 0.75957 0.04596 0.76213 0.0
C3433 C 0.76385 0.06063 0.77117 0.0
C3434 C 0.75138 0.04231 0.74689 0.0
C3435 C 0.748 0.05392 0.74018 0.0
C3436 C 0.75298 0.0691 0.74886 0.0
C3437 C 0.76076 0.07223 0.7643 0.0
C3438 C 0.74614 0.0259 0.73809 0.0
C3439 C 0.75007 0.08203 0.74185 0.0
H3440 H 0.74555 0.04985 0.68278 0.0
H3441 H 0.70032 0.03069 0.70823 0.0
H3442 H 0.77142 0.07384 0.71691 0.0
H3443 H 0.77028 0.05436 0.71431 0.0
H3444 H 0.771 0.06555 0.69646 0.0
H3445 H 0.69896 0.03219 0.73699 0.0
H3446 H 0.71416 0.02912 0.74645 0.0
H3447 H 0.71654 0.04923 0.74736 0.0
H3448 H 0.76245 0.0372 0.76702 0.0
H3449 H 0.76444 0.08379 0.77103 0.0
H3450 H 0.75206 0.02803 0.72593 0.0
H3451 H 0.73277 0.01898 0.7358 0.0
H3452 H 0.74927 0.01802 0.74521 0.0
H3453 H 0.75545 0.08531 0.72944 0.0
H3454 H 0.75539 0.09351 0.74979 0.0
H3455 H 0.7368 0.07695 0.7404 0.0
C3456 C 0.02773 0.32526 0.05449 0.0
C3457 C 0.0334 0.33337 0.03963 0.0
C3458 C 0.03739 0.32142 0.06404 0.0
C3459 C 0.05293 0.32544 0.0584 0.0
C3460 C 0.05911 0.33445 0.0439 0.0
C3461 C 0.0493 0.33849 0.0347 0.0
C3462 C 0.03062 0.31229 0.07976 0.0
C3463 C 0.07565 0.3389 0.0376 0.0
C3464 C 0.08465 0.32038 0.0949 0.0
C3465 C 0.08136 0.30052 0.08558 0.0
C3466 C 0.07544 0.32965 0.08351 0.0
C3467 C 0.06153 0.31833 0.06653 0.0
C3468 C 0.05536 0.29713 0.06098 0.0
C3469 C 0.06387 0.2868 0.07159 0.0
C3470 C 0.07914 0.34666 0.0883 0.0
C3471 C 0.04305 0.28806 0.04753 0.0
H3472 H 0.01549 0.32148 0.05841 0.0
H3473 H 0.05367 0.34472 0.02318 0.0
H3474 H 0.02785 0.29934 0.07802 0.0
H3475 H 0.0398 0.31826 0.0899 0.0
H3476 H 0.0193 0.31194 0.0835 0.0
H3477 H 0.0794 0.34733 0.0271 0.0
H3478 H 0.08495 0.34494 0.04763 0.0
H3479 H 0.07536 0.3274 0.0335 0.0
H3480 H 0.09388 0.32737 0.10432 0.0
H3481 H 0.06133 0.27464 0.06747 0.0
H3482 H 0.06768 0.34616 0.09169 0.0
H3483 H 0.08421 0.35474 0.07759 0.0
H3484 H 0.08795 0.35188 0.0988 0.0
H3485 H 0.03119 0.28643 0.05132 0.0
H3486 H 0.04161 0.27575 0.04481 0.0
H3487 H 0.04691 0.29556 0.03636 0.0
C3488 C 0.67107 0.70483 0.04872 0.0
C3489 C 0.67805 0.69494 0.04908 0.0
C3490 C 0.67736 0.71938 0.05858 0.0
C3491 C 0.69081 0.724 0.0692 0.0
C3492 C 0.69736 0.71362 0.07029 0.0
C3493 C 0.69099 0.69924 0.06009 0.0
C3494 C 0.67002 0.7301 0.05707 0.0
C3495 C 0.71125 0.71784 0.08204 0.0
C3496 C 0.72645 0.77754 0.08033 0.0
C3497 C 0.71493 0.77932 0.09793 0.0
C3498 C 0.71653 0.75748 0.06983 0.0
C3499 C 0.69862 0.74007 0.07836 0.0
C3500 C 0.69065 0.74157 0.09809 0.0
C3501 C 0.6997 0.7611 0.10951 0.0
C3502 C 0.72281 0.75545 0.05367 0.0
C3503 C 0.67656 0.72655 0.10507 0.0
H3504 H 0.66103 0.70154 0.04027 0.0
H3505 H 0.69632 0.69153 0.06053 0.0
H3506 H 0.66648 0.73252 0.06936 0.0
H3507 H 0.6792 0.7422 0.05204 0.0
H3508 H 0.65908 0.7243 0.04883 0.0
H3509 H 0.71392 0.70771 0.08255 0.0
H3510 H 0.7224 0.72926 0.07816 0.0
H3511 H 0.70832 0.72041 0.0946 0.0
H3512 H 0.73617 0.78837 0.0746 0.0
H3513 H 0.69435 0.7625 0.12073 0.0
H3514 H 0.71252 0.74879 0.0447 0.0
H3515 H 0.72839 0.74778 0.05517 0.0
H3516 H 0.73206 0.76771 0.04901 0.0
H3517 H 0.66537 0.72319 0.09792 0.0
H3518 H 0.6749 0.72896 0.11816 0.0
H3519 H 0.67856 0.71597 0.10387 0.0
C3520 C 0.29584 0.98162 0.04458 0.0
C3521 C 0.29831 0.97606 0.02928 0.0
C3522 C 0.28156 0.97185 0.05339 0.0
C3523 C 0.26929 0.95636 0.04649 0.0
C3524 C 0.27193 0.9505 0.03122 0.0
C3525 C 0.28653 0.96035 0.02289 0.0
C3526 C 0.27938 0.97834 0.06982 0.0
C3527 C 0.25901 0.9342 0.02331 0.0
C3528 C 0.23492 0.92547 0.07318 0.0
C3529 C 0.22273 0.92916 0.07009 0.0
C3530 C 0.25024 0.93439 0.06579 0.0
C3531 C 0.25325 0.94689 0.05465 0.0
C3532 C 0.2409 0.95043 0.05124 0.0
C3533 C 0.22586 0.9416 0.05908 0.0
C3534 C 0.26321 0.93048 0.06992 0.0
C3535 C 0.24351 0.96343 0.03918 0.0
H3536 H 0.30503 0.99371 0.04961 0.0
H3537 H 0.28841 0.95608 0.01101 0.0
H3538 H 0.26955 0.98119 0.0688 0.0
H3539 H 0.27562 0.96876 0.07921 0.0
H3540 H 0.2907 0.98976 0.07423 0.0
H3541 H 0.26333 0.93097 0.0119 0.0
H3542 H 0.25507 0.92403 0.03201 0.0
H3543 H 0.24812 0.93491 0.02018 0.0
H3544 H 0.23252 0.91565 0.08139 0.0
H3545 H 0.21637 0.94426 0.05645 0.0
H3546 H 0.27434 0.94186 0.07472 0.0
H3547 H 0.26669 0.92617 0.05865 0.0
H3548 H 0.25912 0.92077 0.07924 0.0
H3549 H 0.25376 0.97574 0.04348 0.0
H3550 H 0.23249 0.96434 0.03756 0.0
H3551 H 0.24686 0.96049 0.02701 0.0
C3552 C 0.3253 0.03246 0.96649 0.0
C3553 C 0.33352 0.03646 0.98171 0.0
C3554 C 0.32175 0.04352 0.95913 0.0
C3555 C 0.32615 0.05874 0.96743 0.0
C3556 C 0.3351 0.06315 0.98248 0.0
C3557 C 0.33886 0.052 0.98936 0.0
C3558 C 0.31257 0.03853 0.94287 0.0
C3559 C 0.33975 0.07912 0.99185 0.0
C3560 C 0.32291 0.09148 0.94432 0.0
C3561 C 0.30713 0.08775 0.9484 0.0
C3562 C 0.32931 0.08216 0.95039 0.0
C3563 C 0.31991 0.06915 0.96118 0.0
C3564 C 0.30421 0.06568 0.96573 0.0
C3565 C 0.29801 0.07496 0.95923 0.0
C3566 C 0.34601 0.08607 0.9451 0.0
C3567 C 0.2939 0.05212 0.97745 0.0
H3568 H 0.32128 0.02048 0.96051 0.0
H3569 H 0.34512 0.05504 0.00119 0.0
H3570 H 0.29998 0.03584 0.9448 0.0
H3571 H 0.31848 0.04883 0.93421 0.0
H3572 H 0.31188 0.02734 0.93707 0.0
H3573 H 0.34809 0.08151 0.00243 0.0
H3574 H 0.34569 0.08979 0.98363 0.0
H3575 H 0.32858 0.07848 0.99661 0.0
H3576 H 0.33023 0.1016 0.93627 0.0
H3577 H 0.28596 0.07227 0.96267 0.0
H3578 H 0.34509 0.07502 0.93873 0.0
H3579 H 0.35409 0.08911 0.95604 0.0
H3580 H 0.3518 0.09663 0.93671 0.0
H3581 H 0.29099 0.03992 0.972 0.0
H3582 H 0.28229 0.05153 0.98035 0.0
H3583 H 0.30077 0.05412 0.98911 0.0
C3584 C 0.98724 0.29305 0.97159 0.0
C3585 C 0.97932 0.29776 0.98311 0.0
C3586 C 0.97852 0.27847 0.96185 0.0
C3587 C 0.96149 0.26837 0.96366 0.0
C3588 C 0.95331 0.27327 0.97483 0.0
C3589 C 0.96233 0.28799 0.98446 0.0
C3590 C 0.98761 0.27362 0.94995 0.0
C3591 C 0.93512 0.26274 0.97691 0.0
C3592 C 0.93588 0.23247 0.92168 0.0
C3593 C 0.93158 0.21383 0.93313 0.0
C3594 C 0.94522 0.25152 0.93394 0.0
C3595 C 0.95261 0.2523 0.95456 0.0
C3596 C 0.95209 0.23466 0.96335 0.0
C3597 C 0.94298 0.21505 0.95211 0.0
C3598 C 0.94698 0.26678 0.92693 0.0
C3599 C 0.95929 0.23634 0.98005 0.0
H3600 H 0.00036 0.3006 0.97041 0.0
H3601 H 0.95615 0.29159 0.99331 0.0
H3602 H 0.98652 0.26187 0.95374 0.0
H3603 H 0.98214 0.27137 0.93742 0.0
H3604 H 0.00076 0.28328 0.94938 0.0
H3605 H 0.93042 0.26871 0.98544 0.0
H3606 H 0.92884 0.26029 0.96478 0.0
H3607 H 0.93199 0.25058 0.98179 0.0
H3608 H 0.93032 0.23146 0.9098 0.0
H3609 H 0.94132 0.20405 0.95777 0.0
H3610 H 0.96011 0.27633 0.92617 0.0
H3611 H 0.9413 0.27183 0.9353 0.0
H3612 H 0.94119 0.264 0.91451 0.0
H3613 H 0.97256 0.24556 0.97984 0.0
H3614 H 0.95722 0.22422 0.98394 0.0
H3615 H 0.95376 0.24111 0.98895 0.0
C3616 C 0.70057 0.67746 0.97461 0.0
C3617 C 0.69654 0.66686 0.98779 0.0
C3618 C 0.71489 0.68253 0.96577 0.0
C3619 C 0.72566 0.6773 0.97065 0.0
C3620 C 0.72132 0.66608 0.98356 0.0
C3621 C 0.70664 0.66078 0.99183 0.0
C3622 C 0.71885 0.69406 0.95172 0.0
C3623 C 0.73265 0.66054 0.98939 0.0
C3624 C 0.7607 0.68356 0.94365 0.0
C3625 C 0.77362 0.69871 0.95015 0.0
C3626 C 0.7449 0.67666 0.94988 0.0
C3627 C 0.74209 0.68474 0.9633 0.0
C3628 C 0.75509 0.69989 0.97003 0.0
C3629 C 0.77063 0.70676 0.96326 0.0
C3630 C 0.73124 0.66068 0.94216 0.0
C3631 C 0.75266 0.70872 0.9846 0.0
H3632 H 0.69267 0.68208 0.97143 0.0
H3633 H 0.70359 0.65269 0.00213 0.0
H3634 H 0.72911 0.70661 0.95539 0.0
H3635 H 0.72277 0.68965 0.94084 0.0
H3636 H 0.70827 0.69513 0.94807 0.0
H3637 H 0.72697 0.6509 0.99878 0.0
H3638 H 0.73644 0.65555 0.9789 0.0
H3639 H 0.74386 0.67136 0.99485 0.0
H3640 H 0.76289 0.67706 0.9337 0.0
H3641 H 0.78062 0.71833 0.96842 0.0
H3642 H 0.72101 0.6623 0.93849 0.0
H3643 H 0.72645 0.65075 0.95124 0.0
H3644 H 0.73524 0.6565 0.93115 0.0
H3645 H 0.74349 0.71206 0.98148 0.0
H3646 H 0.76414 0.7202 0.98859 0.0
H3647 H 0.74791 0.70034 0.99514 0.0
C3648 C 0.95649 0.66921 0.99862 0.0
C3649 C 0.97172 0.67444 0.9917 0.0
C3650 C 0.94554 0.6729 0.99128 0.0
C3651 C 0.94978 0.68161 0.97643 0.0
C3652 C 0.96486 0.68623 0.96901 0.0
C3653 C 0.97576 0.6828 0.97688 0.0
C3654 C 0.92971 0.66807 -0.00027 0.0
C3655 C 0.96965 0.69511 0.95297 0.0
C3656 C 0.91525 0.67966 0.95166 0.0
C3657 C 0.91682 0.69496 0.956 0.0
C3658 C 0.92609 0.67528 0.95794 0.0
C3659 C 0.9387 0.68639 0.969 0.0
C3660 C 0.94062 0.70204 0.97311 0.0
C3661 C 0.92983 0.70625 0.96634 0.0
C3662 C 0.92395 0.65871 0.95286 0.0
C3663 C 0.95386 0.71419 0.98495 0.0
H3664 H 0.95343 0.66289 0.01018 0.0
H3665 H 0.98752 0.68678 0.97147 0.0
H3666 H 0.9294 0.6794 0.0032 0.0
H3667 H 0.91925 0.66039 0.99122 0.0
H3668 H 0.92807 0.66103 0.01101 0.0
H3669 H 0.9811 0.69646 0.94808 0.0
H3670 H 0.95979 0.68828 0.94359 0.0
H3671 H 0.97139 0.70765 0.95477 0.0
H3672 H 0.90542 0.67102 0.94342 0.0
H3673 H 0.93138 0.71827 0.96939 0.0
H3674 H 0.92103 0.65091 0.96377 0.0
H3675 H 0.93549 0.66047 0.94779 0.0
H3676 H 0.91408 0.65188 0.94348 0.0
H3677 H 0.9525 0.70838 0.99697 0.0
H3678 H 0.95358 0.72576 0.98703 0.0
H3679 H 0.966 0.71753 0.98018 0.0
C3680 C 0.31758 0.30723 0.95552 0.0
C3681 C 0.33339 0.31437 0.96217 0.0
C3682 C 0.30883 0.29055 0.95005 0.0
C3683 C 0.3162 0.28089 0.95096 0.0
C3684 C 0.33274 0.2885 0.95604 0.0
C3685 C 0.34113 0.30517 0.96169 0.0
C3686 C 0.29121 0.28293 0.94479 0.0
C3687 C 0.34118 0.27874 0.95675 0.0
C3688 C 0.28822 0.23579 0.96118 0.0
C3689 C 0.28457 0.2277 0.94559 0.0
C3690 C 0.29841 0.25305 0.96301 0.0
C3691 C 0.30592 0.26251 0.94902 0.0
C3692 C 0.30311 0.25444 0.93336 0.0
C3693 C 0.2924 0.23718 0.9318 0.0
C3694 C 0.30093 0.26118 0.97996 0.0
C3695 C 0.31141 0.26405 0.91826 0.0
H3696 H 0.31155 0.3143 0.95566 0.0
H3697 H 0.35342 0.31067 0.96664 0.0
H3698 H 0.28857 0.27523 0.9333 0.0
H3699 H 0.28324 0.27465 0.95448 0.0
H3700 H 0.28794 0.29247 0.94276 0.0
H3701 H 0.35463 0.28699 0.95783 0.0
H3702 H 0.33691 0.27078 0.96761 0.0
H3703 H 0.33819 0.27046 0.94563 0.0
H3704 H 0.28302 0.2287 0.97207 0.0
H3705 H 0.29024 0.23117 0.91972 0.0
H3706 H 0.29719 0.27054 0.97987 0.0
H3707 H 0.31403 0.2678 0.98351 0.0
H3708 H 0.29387 0.25209 0.98951 0.0
H3709 H 0.30739 0.27292 0.91581 0.0
H3710 H 0.30873 0.25582 0.90714 0.0
H3711 H 0.3248 0.27145 0.92035 0.0
C3712 C 0.70238 0.02405 0.9668 0.0
C3713 C 0.69987 0.02812 0.98281 0.0
C3714 C 0.71738 0.03381 0.95909 0.0
C3715 C 0.73027 0.04753 0.9679 0.0
C3716 C 0.72761 0.05193 0.98391 0.0
C3717 C 0.71233 0.04232 0.99107 0.0
C3718 C 0.7196 0.02912 0.94176 0.0
C3719 C 0.74115 0.06624 0.99386 0.0
C3720 C 0.77398 0.06052 0.95868 0.0
C3721 C 0.77972 0.07594 0.9516 0.0
C3722 C 0.75779 0.05098 0.96376 0.0
C3723 C 0.7469 0.05663 0.961 0.0
C3724 C 0.75229 0.07154 0.95271 0.0
C3725 C 0.76868 0.08107 0.94821 0.0
C3726 C 0.75252 0.0352 0.97269 0.0
C3727 C 0.74087 0.07762 0.949 0.0
H3728 H 0.69268 0.01311 0.96039 0.0
H3729 H 0.71043 0.04539 0.00352 0.0
H3730 H 0.72559 0.04024 0.93411 0.0
H3731 H 0.72762 0.02387 0.94198 0.0
H3732 H 0.70781 0.01976 0.9358 0.0
H3733 H 0.73693 0.06831 0.00595 0.0
H3734 H 0.75111 0.06376 0.99607 0.0
H3735 H 0.74639 0.07783 0.98696 0.0
H3736 H 0.78221 0.05609 0.96069 0.0
H3737 H 0.77294 0.09272 0.94224 0.0
H3738 H 0.74188 0.02456 0.96629 0.0
H3739 H 0.74867 0.0363 0.98532 0.0
H3740 H 0.76241 0.03239 0.97359 0.0
H3741 H 0.72947 0.06751 0.94307 0.0
H3742 H 0.74646 0.08837 0.94083 0.0
H3743 H 0.73744 0.08143 0.96064 0.0
C3744 C 0.65643 0.95357 0.03524 0.0
C3745 C 0.66878 0.96713 0.02708 0.0
C3746 C 0.65985 0.94277 0.04352 0.0
C3747 C 0.67583 0.94543 0.04312 0.0
C3748 C 0.68806 0.95867 0.03416 0.0
C3749 C 0.68444 0.9695 0.0265 0.0
C3750 C 0.64662 0.92901 0.05326 0.0
C3751 C 0.70512 0.96168 0.03299 0.0
C3752 C 0.69435 0.93248 0.07621 0.0
C3753 C 0.69353 0.91842 0.06872 0.0
C3754 C 0.68753 0.94066 0.06849 0.0
C3755 C 0.68022 0.93503 0.05265 0.0
C3756 C 0.679 0.92064 0.0452 0.0
C3757 C 0.68559 0.91247 0.05337 0.0
C3758 C 0.68888 0.95584 0.07695 0.0
C3759 C 0.67168 0.91448 0.02817 0.0
H3760 H 0.64436 0.95186 0.03576 0.0
H3761 H 0.69395 0.97994 0.02004 0.0
H3762 H 0.64539 0.91696 0.04965 0.0
H3763 H 0.64996 0.93136 0.06655 0.0
H3764 H 0.63462 0.92796 0.05152 0.0
H3765 H 0.71278 0.97164 0.02439 0.0
H3766 H 0.71113 0.96528 0.04532 0.0
H3767 H 0.7047 0.95014 0.02877 0.0
H3768 H 0.70066 0.93736 0.08793 0.0
H3769 H 0.68513 0.90175 0.04747 0.0
H3770 H 0.677 0.95521 0.07643 0.0
H3771 H 0.69787 0.9671 0.07049 0.0
H3772 H 0.69285 0.95726 0.09003 0.0
H3773 H 0.65969 0.91353 0.02719 0.0
H3774 H 0.67007 0.90218 0.02485 0.0
H3775 H 0.67978 0.92349 0.01901 0.0
C3776 C 0.02926 0.715 0.05388 0.0
C3777 C 0.03154 0.71075 0.03786 0.0
C3778 C 0.03851 0.73147 0.06003 0.0
C3779 C 0.04965 0.74397 0.04958 0.0
C3780 C 0.05215 0.73961 0.03347 0.0
C3781 C 0.04328 0.72297 0.02794 0.0
C3782 C 0.03605 0.73554 0.07751 0.0
C3783 C 0.06351 0.75262 0.02176 0.0
C3784 C 0.05876 0.78797 0.05666 0.0
C3785 C 0.07511 0.79625 0.06195 0.0
C3786 C 0.05026 0.77089 0.05273 0.0
C3787 C 0.05802 0.76173 0.055 0.0
C3788 C 0.07414 0.76981 0.06142 0.0
C3789 C 0.08259 0.78703 0.06451 0.0
C3790 C 0.03322 0.7628 0.04552 0.0
C3791 C 0.08256 0.76035 0.0647 0.0
H3792 H 0.02015 0.70548 0.06153 0.0
H3793 H 0.04485 0.71968 0.01545 0.0
H3794 H 0.04799 0.74357 0.08386 0.0
H3795 H 0.02962 0.74251 0.0775 0.0
H3796 H 0.02877 0.72419 0.08468 0.0
H3797 H 0.06414 0.74714 0.00968 0.0
H3798 H 0.05931 0.76142 0.01963 0.0
H3799 H 0.07597 0.75991 0.02717 0.0
H3800 H 0.05274 0.79491 0.05511 0.0
H3801 H 0.09515 0.7933 0.0688 0.0
H3802 H 0.02454 0.75252 0.05326 0.0
H3803 H 0.03284 0.75736 0.03309 0.0
H3804 H 0.02897 0.77171 0.04445 0.0
H3805 H 0.07451 0.74915 0.07175 0.0
H3806 H 0.09422 0.76804 0.07168 0.0
H3807 H 0.08521 0.75608 0.05287 0.0
C3808 C 0.30901 0.32339 0.03207 0.0
C3809 C 0.31494 0.33821 0.02375 0.0
C3810 C 0.29532 0.31741 0.04211 0.0
C3811 C 0.28733 0.32646 0.04388 0.0
C3812 C 0.29352 0.3417 0.03591 0.0
C3813 C 0.3073 0.34742 0.02594 0.0
C3814 C 0.28915 0.30115 0.05044 0.0
C3815 C 0.28531 0.35168 0.03755 0.0
C3816 C 0.24276 0.30073 0.05529 0.0
C3817 C 0.24349 0.30394 0.07233 0.0
C3818 C 0.25688 0.30846 0.04579 0.0
C3819 C 0.27211 0.31953 0.05354 0.0
C3820 C 0.2729 0.32302 0.0707 0.0
C3821 C 0.25858 0.31516 0.07989 0.0
C3822 C 0.25555 0.30442 0.02752 0.0
C3823 C 0.28893 0.33464 0.07942 0.0
H3824 H 0.31488 0.31623 0.0305 0.0
H3825 H 0.31181 0.35887 0.01952 0.0
H3826 H 0.28813 0.30279 0.06388 0.0
H3827 H 0.27678 0.29188 0.04564 0.0
H3828 H 0.29722 0.29605 0.04845 0.0
H3829 H 0.29219 0.36373 0.03139 0.0
H3830 H 0.27287 0.34449 0.03201 0.0
H3831 H 0.28397 0.35411 0.05073 0.0
H3832 H 0.23115 0.29196 0.04943 0.0
H3833 H 0.25919 0.31755 0.09308 0.0
H3834 H 0.26217 0.29791 0.02452 0.0
H3835 H 0.26132 0.316 0.02055 0.0
H3836 H 0.24269 0.29643 0.02322 0.0
H3837 H 0.2969 0.32932 0.0787 0.0
H3838 H 0.28731 0.33689 0.0926 0.0
H3839 H 0.29537 0.34671 0.07331 0.0
C3840 C 0.68609 0.65545 0.38128 0.0
C3841 C 0.69409 0.66708 0.3691 0.0
C3842 C 0.69451 0.65017 0.39099 0.0
C3843 C 0.71122 0.65639 0.38819 0.0
C3844 C 0.71955 0.66866 0.37644 0.0
C3845 C 0.7109 0.67401 0.36709 0.0
C3846 C 0.68539 0.63752 0.40388 0.0
C3847 C 0.73736 0.67548 0.37314 0.0
C3848 C 0.73873 0.64795 0.42703 0.0
C3849 C 0.73914 0.63084 0.41531 0.0
C3850 C 0.72985 0.65772 0.41593 0.0
C3851 C 0.71939 0.64887 0.39645 0.0
C3852 C 0.71632 0.6295 0.38787 0.0
C3853 C 0.72472 0.6188 0.39803 0.0
C3854 C 0.73092 0.67303 0.42301 0.0
C3855 C 0.70692 0.62238 0.37215 0.0
H3856 H 0.67312 0.6502 0.38298 0.0
H3857 H 0.71712 0.68296 0.35765 0.0
H3858 H 0.68433 0.62558 0.40007 0.0
H3859 H 0.69222 0.6417 0.41578 0.0
H3860 H 0.67294 0.6353 0.40579 0.0
H3861 H 0.74238 0.68584 0.36449 0.0
H3862 H 0.74451 0.67995 0.38484 0.0
H3863 H 0.73896 0.66543 0.36778 0.0
H3864 H 0.74602 0.65368 0.4381 0.0
H3865 H 0.72421 0.60802 0.39229 0.0
H3866 H 0.71846 0.6709 0.42432 0.0
H3867 H 0.73755 0.68328 0.41441 0.0
H3868 H 0.73731 0.67653 0.43516 0.0
H3869 H 0.69403 0.61865 0.37411 0.0
H3870 H 0.70755 0.61144 0.36779 0.0
H3871 H 0.71188 0.63202 0.36274 0.0
C3872 C 0.33688 0.03876 0.37881 0.0
C3873 C 0.34376 0.02883 0.38011 0.0
C3874 C 0.34353 0.05401 0.38755 0.0
C3875 C 0.3573 0.05938 0.39791 0.0
C3876 C 0.36399 0.04918 0.39971 0.0
C3877 C 0.35717 0.03401 0.39071 0.0
C3878 C 0.33604 0.06451 0.38533 0.0
C3879 C 0.37842 0.05437 0.41102 0.0
C3880 C 0.39219 0.11351 0.40675 0.0
C3881 C 0.38124 0.11557 0.42476 0.0
C3882 C 0.38227 0.09313 0.39693 0.0
C3883 C 0.36503 0.07581 0.40638 0.0
C3884 C 0.35776 0.07776 0.42637 0.0
C3885 C 0.36685 0.09762 0.43717 0.0
C3886 C 0.38801 0.09069 0.38061 0.0
C3887 C 0.34421 0.06282 0.43405 0.0
H3888 H 0.32648 0.03481 0.37066 0.0
H3889 H 0.36248 0.02633 0.39183 0.0
H3890 H 0.33258 0.0674 0.39746 0.0
H3891 H 0.34511 0.07641 0.37986 0.0
H3892 H 0.32503 0.05829 0.3772 0.0
H3893 H 0.38161 0.04463 0.41178 0.0
H3894 H 0.38917 0.06584 0.40658 0.0
H3895 H 0.37577 0.05726 0.42358 0.0
H3896 H 0.40146 0.12424 0.4005 0.0
H3897 H 0.36187 0.09924 0.44855 0.0
H3898 H 0.37755 0.08469 0.37178 0.0
H3899 H 0.39272 0.08221 0.38182 0.0
H3900 H 0.39773 0.10273 0.37596 0.0
H3901 H 0.33304 0.05786 0.4263 0.0
H3902 H 0.34191 0.06597 0.44664 0.0
H3903 H 0.34736 0.05304 0.43449 0.0
C3904 C 0.96738 0.29817 0.36289 0.0
C3905 C 0.97684 0.31534 0.36618 0.0
C3906 C 0.95229 0.28843 0.37035 0.0
C3907 C 0.94659 0.29597 0.38164 0.0
C3908 C 0.95639 0.31318 0.3856 0.0
C3909 C 0.97138 0.32273 0.37769 0.0
C3910 C 0.94216 0.27016 0.36562 0.0
C3911 C 0.95087 0.32155 0.39788 0.0
C3912 C 0.90058 0.27315 0.38482 0.0
C3913 C 0.89779 0.26291 0.39812 0.0
C3914 C 0.91644 0.28444 0.37973 0.0
C3915 C 0.92992 0.28586 0.38839 0.0
C3916 C 0.92726 0.27623 0.40238 0.0
C3917 C 0.91123 0.26465 0.40691 0.0
C3918 C 0.91871 0.29416 0.36451 0.0
C3919 C 0.94133 0.27769 0.41217 0.0
H3920 H 0.97152 0.29235 0.35403 0.0
H3921 H 0.9787 0.33598 0.38035 0.0
H3922 H 0.93908 0.26264 0.37673 0.0
H3923 H 0.93051 0.26738 0.3598 0.0
H3924 H 0.94852 0.26617 0.35689 0.0
H3925 H 0.96057 0.33461 0.40084 0.0
H3926 H 0.94009 0.3215 0.39287 0.0
H3927 H 0.9471 0.31464 0.40945 0.0
H3928 H 0.89025 0.27184 0.378 0.0
H3929 H 0.90931 0.25681 0.41717 0.0
H3930 H 0.92418 0.29021 0.35468 0.0
H3931 H 0.92723 0.30759 0.36715 0.0
H3932 H 0.90702 0.29235 0.35974 0.0
H3933 H 0.94725 0.27214 0.4049 0.0
H3934 H 0.93734 0.27127 0.42402 0.0
H3935 H 0.95067 0.29093 0.4148 0.0
C3936 C 0.00213 0.36986 0.30747 0.0
C3937 C 0.01639 0.37058 0.31274 0.0
C3938 C 0.00289 0.38241 0.29791 0.0
C3939 C 0.01827 0.39564 0.29309 0.0
C3940 C 0.03267 0.39607 0.29795 0.0
C3941 C 0.03156 0.38368 0.30795 0.0
C3942 C 0.98731 0.38176 0.29337 0.0
C3943 C 0.04927 0.4097 0.29268 0.0
C3944 C 0.02076 0.42128 0.25682 0.0
C3945 C 0.02417 0.43625 0.26471 0.0
C3946 C 0.01869 0.40791 0.26589 0.0
C3947 C 0.01943 0.40928 0.2833 0.0
C3948 C 0.02199 0.42401 0.29136 0.0
C3949 C 0.02447 0.43737 0.28197 0.0
C3950 C 0.01626 0.39252 0.25683 0.0
C3951 C 0.02239 0.42579 0.30991 0.0
H3952 H 0.9904 0.35979 0.31131 0.0
H3953 H 0.04259 0.38416 0.31193 0.0
H3954 H 0.98757 0.39291 0.29864 0.0
H3955 H 0.98617 0.38193 0.27981 0.0
H3956 H 0.97634 0.37053 0.29791 0.0
H3957 H 0.05916 0.40765 0.29664 0.0
H3958 H 0.04952 0.41054 0.27908 0.0
H3959 H 0.05183 0.42182 0.29798 0.0
H3960 H 0.02006 0.42016 0.2435 0.0
H3961 H 0.02679 0.44877 0.28815 0.0
H3962 H 0.00485 0.38143 0.2608 0.0
H3963 H 0.02645 0.39063 0.25988 0.0
H3964 H 0.01566 0.39329 0.24326 0.0
H3965 H 0.01131 0.41516 0.31507 0.0
H3966 H 0.02317 0.43748 0.31425 0.0
H3967 H 0.03307 0.42563 0.31492 0.0
C3968 C 0.63231 0.62802 0.30866 0.0
C3969 C 0.64884 0.6397 0.30644 0.0
C3970 C 0.6242 0.61353 0.29862 0.0
C3971 C 0.63274 0.61093 0.28583 0.0
C3972 C 0.64918 0.62312 0.28296 0.0
C3973 C 0.65715 0.63727 0.29349 0.0
C3974 C 0.60674 0.60073 0.30222 0.0
C3975 C 0.65838 0.62115 0.26884 0.0
C3976 C 0.62005 0.55987 0.26984 0.0
C3977 C 0.60359 0.55635 0.25519 0.0
C3978 C 0.6293 0.57937 0.28135 0.0
C3979 C 0.62485 0.59517 0.27608 0.0
C3980 C 0.6121 0.5927 0.25856 0.0
C3981 C 0.60226 0.57362 0.24632 0.0
C3982 C 0.64028 0.5822 0.29562 0.0
C3983 C 0.60977 0.60655 0.25404 0.0
H3984 H 0.62587 0.62983 0.31872 0.0
H3985 H 0.66989 0.6464 0.29164 0.0
H3986 H 0.59902 0.5979 0.29103 0.0
H3987 H 0.60597 0.58909 0.30582 0.0
H3988 H 0.60169 0.60491 0.31231 0.0
H3989 H 0.67042 0.63257 0.26712 0.0
H3990 H 0.66036 0.61078 0.27114 0.0
H3991 H 0.65111 0.61801 0.25725 0.0
H3992 H 0.62139 0.54978 0.27382 0.0
H3993 H 0.59366 0.57148 0.23657 0.0
H3994 H 0.63817 0.58901 0.30576 0.0
H3995 H 0.65313 0.58991 0.29179 0.0
H3996 H 0.63821 0.5702 0.29988 0.0
H3997 H 0.60091 0.60699 0.26253 0.0
H3998 H 0.60498 0.60461 0.24124 0.0
H3999 H 0.62148 0.61855 0.25544 0.0
C4000 C 0.35953 0.97451 0.32838 0.0
C4001 C 0.35473 0.98589 0.32501 0.0
C4002 C 0.37194 0.97428 0.31941 0.0
C4003 C 0.37954 0.98553 0.30661 0.0
C4004 C 0.37423 0.99654 0.30266 0.0
C4005 C 0.36197 0.99669 0.31202 0.0
C4006 C 0.37737 0.96247 0.32411 0.0
C4007 C 0.38186 0.00851 0.28891 0.0
C4008 C 0.42295 0.99748 0.29706 0.0
C4009 C 0.42071 0.98708 0.28335 0.0
C4010 C 0.40967 0.99733 0.30453 0.0
C4011 C 0.39374 0.98648 0.29812 0.0
C4012 C 0.39139 0.97609 0.28414 0.0
C4013 C 0.40489 0.97635 0.27703 0.0
C4014 C 0.41266 0.00845 0.31956 0.0
C4015 C 0.37459 0.96445 0.2769 0.0
H4016 H 0.354 0.96617 0.33843 0.0
H4017 H 0.35821 0.00543 0.3093 0.0
H4018 H 0.37703 0.95494 0.31318 0.0
H4019 H 0.39018 0.96964 0.32871 0.0
H4020 H 0.36967 0.95396 0.3338 0.0
H4021 H 0.37538 0.01519 0.28645 0.0
H4022 H 0.39476 0.0178 0.29214 0.0
H4023 H 0.38186 0.00182 0.27742 0.0
H4024 H 0.43512 0.00553 0.30216 0.0
H4025 H 0.40305 0.96801 0.26666 0.0
H4026 H 0.40632 0.00078 0.33026 0.0
H4027 H 0.40759 0.0165 0.3175 0.0
H4028 H 0.42583 0.01646 0.32273 0.0
H4029 H 0.36708 0.95491 0.28589 0.0
H4030 H 0.37497 0.95808 0.26531 0.0
H4031 H 0.36839 0.97137 0.27434 0.0
C4032 C 0.63958 0.00115 0.31263 0.0
C4033 C 0.63842 0.98573 0.31319 0.0
C4034 C 0.6274 0.00271 0.30497 0.0
C4035 C 0.61404 0.98861 0.29711 0.0
C4036 C 0.61333 0.9732 0.29675 0.0
C4037 C 0.62537 0.97184 0.30516 0.0
C4038 C 0.62837 0.01924 0.30613 0.0
C4039 C 0.59963 0.95808 0.28789 0.0
C4040 C 0.57508 0.98963 0.29489 0.0
C4041 C 0.57633 0.99649 0.2795 0.0
C4042 C 0.58703 0.98655 0.30058 0.0
C4043 C 0.60033 0.9899 0.29039 0.0
C4044 C 0.60122 0.99593 0.27447 0.0
C4045 C 0.58939 0.99946 0.26931 0.0
C4046 C 0.58584 0.98053 0.31782 0.0
C4047 C 0.61495 0.99917 0.26307 0.0
H4048 H 0.64957 0.01186 0.31904 0.0
H4049 H 0.62452 0.95993 0.30557 0.0
H4050 H 0.62787 0.02343 0.29367 0.0
H4051 H 0.61774 0.01794 0.31297 0.0
H4052 H 0.6397 0.02903 0.3125 0.0
H4053 H 0.60205 0.94775 0.28682 0.0
H4054 H 0.58812 0.95369 0.29466 0.0
H4055 H 0.59774 0.96121 0.27537 0.0
H4056 H 0.56499 0.98725 0.30275 0.0
H4057 H 0.59055 0.00474 0.25738 0.0
H4058 H 0.59642 0.98999 0.32536 0.0
H4059 H 0.58627 0.96899 0.31758 0.0
H4060 H 0.57447 0.97806 0.32397 0.0
H4061 H 0.62646 0.01017 0.26772 0.0
H4062 H 0.61262 0.0015 0.25034 0.0
H4063 H 0.6168 0.98847 0.26266 0.0
C4064 C 0.01583 0.64678 0.30662 0.0
C4065 C 0.00635 0.65416 0.3077 0.0
C4066 C 0.01049 0.63207 0.29722 0.0
C4067 C 0.9953 0.62456 0.28874 0.0
C4068 C 0.98599 0.63232 0.28925 0.0
C4069 C 0.99166 0.64706 0.29869 0.0
C4070 C 0.02081 0.62422 0.29685 0.0
C4071 C 0.96975 0.62471 0.28033 0.0
C4072 C 0.9861 0.59203 0.25493 0.0
C4073 C 0.97646 0.57724 0.2632 0.0
C4074 C 0.99232 0.60753 0.26308 0.0
C4075 C 0.98882 0.60825 0.2799 0.0
C4076 C 0.97901 0.59337 0.28829 0.0
C4077 C 0.97289 0.57803 0.27981 0.0
C4078 C 0.00267 0.62311 0.25372 0.0
C4079 C 0.97499 0.59367 0.30623 0.0
H4080 H 0.02722 0.65224 0.31353 0.0
H4081 H 0.98426 0.6527 0.29947 0.0
H4082 H 0.01426 0.6121 0.30289 0.0
H4083 H 0.023 0.62176 0.28395 0.0
H4084 H 0.03277 0.63215 0.30323 0.0
H4085 H 0.96448 0.6328 0.28117 0.0
H4086 H 0.97107 0.62226 0.26715 0.0
H4087 H 0.96101 0.61262 0.28567 0.0
H4088 H 0.98879 0.59144 0.24205 0.0
H4089 H 0.96536 0.56663 0.28619 0.0
H4090 H 0.01487 0.63063 0.2597 0.0
H4091 H 0.997 0.63083 0.25396 0.0
H4092 H 0.00426 0.62039 0.24068 0.0
H4093 H 0.9864 0.60032 0.31374 0.0
H4094 H 0.96726 0.581 0.31096 0.0
H4095 H 0.96852 0.60052 0.308 0.0
C4096 C 0.37153 0.37484 0.31716 0.0
C4097 C 0.35996 0.35832 0.31274 0.0
C4098 C 0.38671 0.38314 0.30955 0.0
C4099 C 0.39022 0.37488 0.29683 0.0
C4100 C 0.37817 0.35856 0.29155 0.0
C4101 C 0.36324 0.35034 0.29978 0.0
C4102 C 0.39931 0.40042 0.31577 0.0
C4103 C 0.38127 0.34956 0.27766 0.0
C4104 C 0.42805 0.40428 0.27341 0.0
C4105 C 0.44011 0.40289 0.28168 0.0
C4106 C 0.41154 0.39442 0.27741 0.0
C4107 C 0.40698 0.38301 0.29014 0.0
C4108 C 0.4189 0.38076 0.29782 0.0
C4109 C 0.43528 0.39053 0.29334 0.0
C4110 C 0.3991 0.39679 0.26856 0.0
C4111 C 0.41453 0.36873 0.31151 0.0
H4112 H 0.36909 0.38104 0.32722 0.0
H4113 H 0.35425 0.33759 0.29628 0.0
H4114 H 0.40998 0.40036 0.32098 0.0
H4115 H 0.40374 0.40909 0.30548 0.0
H4116 H 0.39447 0.40526 0.32543 0.0
H4117 H 0.36987 0.3382 0.27328 0.0
H4118 H 0.38692 0.3578 0.26715 0.0
H4119 H 0.38991 0.34589 0.2819 0.0
H4120 H 0.43164 0.4135 0.26412 0.0
H4121 H 0.44424 0.3888 0.29952 0.0
H4122 H 0.39492 0.40333 0.27693 0.0
H4123 H 0.38825 0.38461 0.26493 0.0
H4124 H 0.40416 0.40419 0.25739 0.0
H4125 H 0.41032 0.37295 0.3223 0.0
H4126 H 0.42501 0.36764 0.31547 0.0
H4127 H 0.40438 0.35625 0.30755 0.0
C4128 C 0.3492 0.31157 0.36523 0.0
C4129 C 0.3341 0.31002 0.36825 0.0
C4130 C 0.35338 0.30088 0.37227 0.0
C4131 C 0.34245 0.28879 0.38318 0.0
C4132 C 0.32737 0.28755 0.38673 0.0
C4133 C 0.32318 0.29797 0.37886 0.0
C4134 C 0.3693 0.30222 0.36765 0.0
C4135 C 0.31573 0.27527 0.39879 0.0
C4136 C 0.34848 0.25238 0.38741 0.0
C4137 C 0.35944 0.25772 0.4008 0.0
C4138 C 0.34223 0.26202 0.38198 0.0
C4139 C 0.34681 0.27725 0.39036 0.0
C4140 C 0.35716 0.2823 0.40444 0.0
C4141 C 0.3636 0.27264 0.40932 0.0
C4142 C 0.33158 0.25639 0.36665 0.0
C4143 C 0.36203 0.29828 0.41391 0.0
H4144 H 0.35751 0.32078 0.3568 0.0
H4145 H 0.31152 0.29687 0.38117 0.0
H4146 H 0.37712 0.30515 0.37877 0.0
H4147 H 0.36694 0.29017 0.36233 0.0
H4148 H 0.37615 0.31195 0.35857 0.0
H4149 H 0.30505 0.27665 0.40105 0.0
H4150 H 0.31128 0.26243 0.39407 0.0
H4151 H 0.32213 0.2769 0.41069 0.0
H4152 H 0.34534 0.24093 0.38074 0.0
H4153 H 0.37217 0.277 0.4196 0.0
H4154 H 0.33817 0.26505 0.35665 0.0
H4155 H 0.32029 0.25662 0.3689 0.0
H4156 H 0.32815 0.24367 0.36232 0.0
H4157 H 0.37065 0.30898 0.40656 0.0
H4158 H 0.36802 0.29916 0.4259 0.0
H4159 H 0.35121 0.29939 0.41621 0.0
C4160 C 0.67165 0.02549 0.3802 0.0
C4161 C 0.68205 0.02059 0.37342 0.0
C4162 C 0.67797 0.04095 0.38851 0.0
C4163 C 0.69506 0.05169 0.39008 0.0
C4164 C 0.70559 0.0465 0.38384 0.0
C4165 C 0.69895 0.03101 0.37559 0.0
C4166 C 0.66637 0.04604 0.39507 0.0
C4167 C 0.72389 0.05757 0.38538 0.0
C4168 C 0.71295 0.09821 0.39486 0.0
C4169 C 0.71694 0.10108 0.41169 0.0
C4170 C 0.70556 0.08213 0.38771 0.0
C4171 C 0.70202 0.06862 0.39767 0.0
C4172 C 0.70562 0.07138 0.41475 0.0
C4173 C 0.71302 0.08757 0.42156 0.0
C4174 C 0.70186 0.07964 0.36944 0.0
C4175 C 0.70196 0.05729 0.42578 0.0
H4176 H 0.65857 0.01749 0.37856 0.0
H4177 H 0.70704 0.02726 0.37041 0.0
H4178 H 0.66911 0.04999 0.40825 0.0
H4179 H 0.66797 0.05682 0.38831 0.0
H4180 H 0.65343 0.03585 0.39378 0.0
H4181 H 0.73034 0.05134 0.38065 0.0
H4182 H 0.72799 0.06897 0.3784 0.0
H4183 H 0.72756 0.0615 0.39845 0.0
H4184 H 0.71585 0.10859 0.38723 0.0
H4185 H 0.71602 0.08976 0.4346 0.0
H4186 H 0.68875 0.07039 0.36717 0.0
H4187 H 0.70893 0.07467 0.3634 0.0
H4188 H 0.70487 0.09135 0.36353 0.0
H4189 H 0.6889 0.04746 0.42464 0.0
H4190 H 0.70488 0.06144 0.43892 0.0
H4191 H 0.70915 0.05161 0.42188 0.0
C4192 C 0.96823 0.65759 0.36615 0.0
C4193 C 0.98017 0.67451 0.36686 0.0
C4194 C 0.95283 0.65182 0.37291 0.0
C4195 C 0.94949 0.66319 0.38114 0.0
C4196 C 0.96181 0.68019 0.38267 0.0
C4197 C 0.97694 0.68573 0.37519 0.0
C4198 C 0.9399 0.63368 0.37056 0.0
C4199 C 0.95888 0.69256 0.39187 0.0
C4200 C 0.90491 0.65032 0.38162 0.0
C4201 C 0.89986 0.64245 0.39668 0.0
C4202 C 0.92114 0.65759 0.37665 0.0
C4203 C 0.93274 0.65729 0.38715 0.0
C4204 C 0.92792 0.65002 0.4027 0.0
C4205 C 0.91148 0.64241 0.40717 0.0
C4206 C 0.92568 0.66484 0.35979 0.0
C4207 C 0.94001 0.64981 0.4144 0.0
H4208 H 0.97065 0.64892 0.35954 0.0
H4209 H 0.98622 0.69881 0.3758 0.0
H4210 H 0.93518 0.62811 0.38264 0.0
H4211 H 0.92947 0.63242 0.36336 0.0
H4212 H 0.94455 0.62645 0.364 0.0
H4213 H 0.97023 0.70487 0.39355 0.0
H4214 H 0.94982 0.69416 0.38504 0.0
H4215 H 0.95376 0.68791 0.40416 0.0
H4216 H 0.89595 0.65026 0.37346 0.0
H4217 H 0.90773 0.63625 0.41877 0.0
H4218 H 0.92967 0.65768 0.35208 0.0
H4219 H 0.93605 0.67784 0.36077 0.0
H4220 H 0.91536 0.66466 0.35339 0.0
H4221 H 0.94379 0.64123 0.40941 0.0
H4222 H 0.93484 0.64571 0.42679 0.0
H4223 H 0.95114 0.66233 0.41568 0.0
C4224 C 0.38591 0.03137 0.69821 0.0
C4225 C 0.36962 0.0188 0.70023 0.0
C4226 C 0.39853 0.0317 0.70719 0.0
C4227 C 0.39477 0.0193 0.71871 0.0
C4228 C 0.37828 0.00709 0.72149 0.0
C4229 C 0.36587 0.0069 0.71209 0.0
C4230 C 0.41596 0.04484 0.70371 0.0
C4231 C 0.3738 0.9939 0.73393 0.0
C4232 C 0.42872 0.01055 0.72502 0.0
C4233 C 0.43683 0.02057 0.739 0.0
C4234 C 0.41455 0.00941 0.71875 0.0
C4235 C 0.40826 0.01847 0.72671 0.0
C4236 C 0.41599 0.02808 0.74123 0.0
C4237 C 0.43033 0.02923 0.74707 0.0
C4238 C 0.40685 0.99923 0.70309 0.0
C4239 C 0.40952 0.03774 0.75017 0.0
H4240 H 0.38893 0.04064 0.68908 0.0
H4241 H 0.35329 0.99721 0.71378 0.0
H4242 H 0.42244 0.05153 0.71529 0.0
H4243 H 0.42247 0.0389 0.69843 0.0
H4244 H 0.41677 0.05405 0.69495 0.0
H4245 H 0.36046 0.98659 0.73606 0.0
H4246 H 0.37774 0.98527 0.72951 0.0
H4247 H 0.3802 0.9996 0.74584 0.0
H4248 H 0.43386 0.00407 0.71862 0.0
H4249 H 0.43667 0.03723 0.75772 0.0
H4250 H 0.40809 0.00755 0.69309 0.0
H4251 H 0.39364 0.99047 0.70478 0.0
H4252 H 0.41257 0.99204 0.69906 0.0
H4253 H 0.4117 0.04836 0.74274 0.0
H4254 H 0.41548 0.04264 0.76243 0.0
H4255 H 0.39616 0.02983 0.75182 0.0
C4256 C 0.97762 0.35601 0.70223 0.0
C4257 C 0.99102 0.354 0.70424 0.0
C4258 C 0.97619 0.36784 0.71165 0.0
C4259 C 0.98845 0.37796 0.72347 0.0
C4260 C 0.00179 0.3757 0.72597 0.0
C4261 C 0.00295 0.36372 0.71626 0.0
C4262 C 0.96173 0.36981 0.70859 0.0
C4263 C 0.01499 0.3862 0.73856 0.0
C4264 C 0.98877 0.41779 0.73122 0.0
C4265 C 0.97822 0.41366 0.74456 0.0
C4266 C 0.99346 0.40682 0.7251 0.0
C4267 C 0.98737 0.39131 0.73246 0.0
C4268 C 0.9777 0.3876 0.74669 0.0
C4269 C 0.97309 0.39875 0.75248 0.0
C4270 C 0.00375 0.41123 0.70987 0.0
C4271 C 0.97111 0.37128 0.75499 0.0
H4272 H 0.96831 0.3485 0.69302 0.0
H4273 H 0.01331 0.36218 0.71787 0.0
H4274 H 0.95506 0.36834 0.72019 0.0
H4275 H 0.96599 0.38246 0.70428 0.0
H4276 H 0.95307 0.36064 0.69923 0.0
H4277 H 0.02357 0.38172 0.74025 0.0
H4278 H 0.02202 0.39921 0.73461 0.0
H4279 H 0.00956 0.38627 0.75062 0.0
H4280 H 0.99265 0.42924 0.72501 0.0
H4281 H 0.96481 0.39544 0.76271 0.0
H4282 H 0.99599 0.40373 0.69915 0.0
H4283 H 0.0135 0.40831 0.71125 0.0
H4284 H 0.00945 0.42457 0.70712 0.0
H4285 H 0.96091 0.3613 0.74745 0.0
H4286 H 0.96648 0.37158 0.76747 0.0
H4287 H 0.98063 0.36799 0.75605 0.0
C4288 C 0.63562 0.65402 0.71369 0.0
C4289 C 0.64059 0.64654 0.70176 0.0
C4290 C 0.62133 0.64448 0.72266 0.0
C4291 C 0.61172 0.62713 0.7194 0.0
C4292 C 0.61698 0.61949 0.70771 0.0
C4293 C 0.6314 0.62927 0.69914 0.0
C4294 C 0.61628 0.65301 0.73527 0.0
C4295 C 0.60701 0.60106 0.70373 0.0
C4296 C 0.57869 0.59719 0.74779 0.0
C4297 C 0.56455 0.595 0.74011 0.0
C4298 C 0.59422 0.60833 0.74172 0.0
C4299 C 0.59563 0.61702 0.72732 0.0
C4300 C 0.58144 0.61499 0.71964 0.0
C4301 C 0.56611 0.60411 0.72619 0.0
C4302 C 0.6091 0.61038 0.7504 0.0
C4303 C 0.58237 0.62375 0.70406 0.0
H4304 H 0.64274 0.66736 0.71583 0.0
H4305 H 0.63518 0.62339 0.68994 0.0
H4306 H 0.60496 0.65235 0.73101 0.0
H4307 H 0.61355 0.64661 0.74711 0.0
H4308 H 0.62583 0.66626 0.73748 0.0
H4309 H 0.6131 0.59696 0.69476 0.0
H4310 H 0.6047 0.59401 0.71509 0.0
H4311 H 0.59498 0.59778 0.69849 0.0
H4312 H 0.57763 0.59003 0.75839 0.0
H4313 H 0.55522 0.60226 0.7201 0.0
H4314 H 0.61834 0.62374 0.75246 0.0
H4315 H 0.61473 0.60488 0.74259 0.0
H4316 H 0.6061 0.6043 0.76245 0.0
H4317 H 0.59077 0.63733 0.70589 0.0
H4318 H 0.57026 0.6214 0.70003 0.0
H4319 H 0.58735 0.61948 0.69401 0.0
C4320 C 0.66037 0.69412 0.63486 0.0
C4321 C 0.67219 0.70013 0.64751 0.0
C4322 C 0.65642 0.7047 0.62706 0.0
C4323 C 0.66426 0.72162 0.63226 0.0
C4324 C 0.6767 0.7279 0.64454 0.0
C4325 C 0.68062 0.71709 0.65192 0.0
C4326 C 0.64335 0.69761 0.61377 0.0
C4327 C 0.68519 0.74581 0.65058 0.0
C4328 C 0.66046 0.75272 0.60682 0.0
C4329 C 0.64743 0.75297 0.6145 0.0
C4330 C 0.66587 0.74232 0.61222 0.0
C4331 C 0.65844 0.73236 0.62595 0.0
C4332 C 0.64547 0.73276 0.63389 0.0
C4333 C 0.64008 0.74297 0.62801 0.0
C4334 C 0.67956 0.74202 0.60329 0.0
C4335 C 0.63742 0.72256 0.64877 0.0
H4336 H 0.6539 0.68103 0.63133 0.0
H4337 H 0.68972 0.72178 0.66173 0.0
H4338 H 0.63236 0.69743 0.61837 0.0
H4339 H 0.64757 0.70551 0.60286 0.0
H4340 H 0.63981 0.68476 0.60982 0.0
H4341 H 0.69546 0.74904 0.65923 0.0
H4342 H 0.68995 0.75419 0.64007 0.0
H4343 H 0.67633 0.74819 0.657 0.0
H4344 H 0.66646 0.76065 0.59658 0.0
H4345 H 0.63022 0.74336 0.63415 0.0
H4346 H 0.67564 0.72913 0.5992 0.0
H4347 H 0.69018 0.74642 0.61175 0.0
H4348 H 0.68354 0.74993 0.59238 0.0
H4349 H 0.63203 0.70918 0.64555 0.0
H4350 H 0.62765 0.72447 0.65366 0.0
H4351 H 0.64664 0.72585 0.65868 0.0
C4352 C 0.32699 0.96675 0.6411 0.0
C4353 C 0.3195 0.97611 0.64292 0.0
C4354 C 0.31874 0.95094 0.63331 0.0
C4355 C 0.30293 0.9447 0.62661 0.0
C4356 C 0.29563 0.95445 0.62775 0.0
C4357 C 0.3039 0.96995 0.63617 0.0
C4358 C 0.32671 0.94068 0.63284 0.0
C4359 C 0.27911 0.94855 0.6201 0.0
C4360 C 0.28886 0.90277 0.59019 0.0
C4361 C 0.27042 0.88756 0.60141 0.0
C4362 C 0.29929 0.92353 0.59916 0.0
C4363 C 0.29376 0.92771 0.61929 0.0
C4364 C 0.27857 0.91132 0.63165 0.0
C4365 C 0.26745 0.89018 0.62369 0.0
C4366 C 0.31223 0.93726 0.58952 0.0
C4367 C 0.27539 0.91509 0.64872 0.0
H4368 H 0.33901 0.97146 0.64646 0.0
H4369 H 0.29816 0.97727 0.63747 0.0
H4370 H 0.31822 0.92811 0.63742 0.0
H4371 H 0.32969 0.93917 0.61996 0.0
H4372 H 0.33814 0.9465 0.64036 0.0
H4373 H 0.27582 0.95826 0.62075 0.0
H4374 H 0.27894 0.94475 0.607 0.0
H4375 H 0.26967 0.93754 0.62654 0.0
H4376 H 0.29099 0.90038 0.5776 0.0
H4377 H 0.25758 0.88045 0.63045 0.0
H4378 H 0.32329 0.93631 0.5896 0.0
H4379 H 0.31527 0.94954 0.59483 0.0
H4380 H 0.30805 0.93586 0.57654 0.0
H4381 H 0.28662 0.92572 0.65436 0.0
H4382 H 0.27084 0.90398 0.65629 0.0
H4383 H 0.26588 0.91843 0.64827 0.0
C4384 C 0.04105 0.33012 0.65869 0.0
C4385 C 0.02994 0.33428 0.6528 0.0
C4386 C 0.05623 0.33607 0.65125 0.0
C4387 C 0.06018 0.34605 0.63733 0.0
C4388 C 0.04874 0.34976 0.63095 0.0
C4389 C 0.03382 0.34402 0.63891 0.0
C4390 C 0.06823 0.33213 0.65864 0.0
C4391 C 0.05235 0.36 0.61587 0.0
C4392 C 0.10507 0.37526 0.62893 0.0
C4393 C 0.10823 0.36603 0.61726 0.0
C4394 C 0.08946 0.36898 0.63543 0.0
C4395 C 0.07658 0.35316 0.62991 0.0
C4396 C 0.07955 0.34391 0.61784 0.0
C4397 C 0.0954 0.35031 0.61188 0.0
C4398 C 0.08688 0.37907 0.64856 0.0
C4399 C 0.06605 0.32715 0.61142 0.0
H4400 H 0.03813 0.32269 0.6695 0.0
H4401 H 0.02519 0.34715 0.63427 0.0
H4402 H 0.0719 0.32593 0.64926 0.0
H4403 H 0.07943 0.34381 0.66275 0.0
H4404 H 0.06317 0.32399 0.66933 0.0
H4405 H 0.04168 0.36069 0.61173 0.0
H4406 H 0.06267 0.3728 0.61855 0.0
H4407 H 0.05608 0.35468 0.60562 0.0
H4408 H 0.11499 0.38729 0.63328 0.0
H4409 H 0.09771 0.34291 0.60308 0.0
H4410 H 0.08274 0.37203 0.66004 0.0
H4411 H 0.07718 0.38138 0.64459 0.0
H4412 H 0.09814 0.3912 0.6514 0.0
H4413 H 0.06169 0.31819 0.62145 0.0
H4414 H 0.07007 0.32216 0.60108 0.0
H4415 H 0.05553 0.328 0.60714 0.0
C4416 C 0.31981 0.34485 0.63687 0.0
C4417 C 0.31156 0.33083 0.64652 0.0
C4418 C 0.31133 0.35077 0.62823 0.0
C4419 C 0.29416 0.3425 0.62929 0.0
C4420 C 0.28565 0.32777 0.63822 0.0
C4421 C 0.29448 0.32207 0.64673 0.0
C4422 C 0.32086 0.36642 0.61872 0.0
C4423 C 0.26733 0.31859 0.63957 0.0
C4424 C 0.27697 0.37047 0.62431 0.0
C4425 C 0.27165 0.36714 0.60783 0.0
C4426 C 0.28373 0.36204 0.63162 0.0
C4427 C 0.28538 0.35011 0.62216 0.0
C4428 C 0.27976 0.34646 0.6056 0.0
C4429 C 0.27302 0.35507 0.59861 0.0
C4430 C 0.28961 0.36631 0.64931 0.0
C4431 C 0.28139 0.33389 0.59511 0.0
H4432 H 0.33302 0.35161 0.63657 0.0
H4433 H 0.28804 0.31126 0.6542 0.0
H4434 H 0.31577 0.36453 0.60606 0.0
H4435 H 0.31985 0.37656 0.62481 0.0
H4436 H 0.33398 0.37052 0.61792 0.0
H4437 H 0.26244 0.30642 0.64538 0.0
H4438 H 0.26376 0.3262 0.64709 0.0
H4439 H 0.26154 0.3165 0.62723 0.0
H4440 H 0.2761 0.37992 0.6314 0.0
H4441 H 0.26912 0.35262 0.5858 0.0
H4442 H 0.30305 0.37206 0.64988 0.0
H4443 H 0.28421 0.35489 0.65651 0.0
H4444 H 0.28648 0.37507 0.65527 0.0
H4445 H 0.29448 0.33847 0.59307 0.0
H4446 H 0.27518 0.33146 0.58293 0.0
H4447 H 0.27621 0.32201 0.6015 0.0
C4448 C 0.65149 0.97476 0.62432 0.0
C4449 C 0.66675 0.98225 0.63232 0.0
C4450 C 0.6436 0.95812 0.61865 0.0
C4451 C 0.65116 0.9488 0.62106 0.0
C4452 C 0.66709 0.95668 0.62797 0.0
C4453 C 0.67472 0.97333 0.63349 0.0
C4454 C 0.6267 0.95022 0.61115 0.0
C4455 C 0.67563 0.94721 0.63068 0.0
C4456 C 0.62447 0.90297 0.62923 0.0
C4457 C 0.62481 0.89542 0.61413 0.0
C4458 C 0.63264 0.92028 0.63141 0.0
C4459 C 0.64171 0.93045 0.61834 0.0
C4460 C 0.64219 0.92306 0.6031 0.0
C4461 C 0.63384 0.90568 0.60122 0.0
C4462 C 0.63184 0.92769 0.6479 0.0
C4463 C 0.65182 0.9335 0.5889 0.0
H4464 H 0.64531 0.98162 0.62325 0.0
H4465 H 0.68657 0.97908 0.63953 0.0
H4466 H 0.62563 0.94277 0.59986 0.0
H4467 H 0.61766 0.94165 0.62001 0.0
H4468 H 0.6235 0.95959 0.60801 0.0
H4469 H 0.68865 0.95555 0.63427 0.0
H4470 H 0.66947 0.93829 0.6406 0.0
H4471 H 0.67491 0.93992 0.61938 0.0
H4472 H 0.61802 0.8955 0.63957 0.0
H4473 H 0.63459 0.9001 0.58965 0.0
H4474 H 0.62732 0.93629 0.64627 0.0
H4475 H 0.64423 0.93503 0.65353 0.0
H4476 H 0.62375 0.91809 0.65663 0.0
H4477 H 0.6482 0.94265 0.58626 0.0
H4478 H 0.65009 0.92588 0.57752 0.0
H4479 H 0.66499 0.94062 0.59223 0.0
C4480 C 0.02822 0.7008 0.65162 0.0
C4481 C 0.01788 0.68351 0.65145 0.0
C4482 C 0.04292 0.70819 0.64304 0.0
C4483 C 0.04736 0.69803 0.63409 0.0
C4484 C 0.03679 0.68058 0.63356 0.0
C4485 C 0.02215 0.67352 0.64226 0.0
C4486 C 0.05385 0.72685 0.64386 0.0
C4487 C 0.0411 0.66936 0.62406 0.0
C4488 C 0.07959 0.71847 0.60149 0.0
C4489 C 0.09366 0.72128 0.60982 0.0
C4490 C 0.0644 0.7107 0.60915 0.0
C4491 C 0.06325 0.7057 0.62557 0.0
C4492 C 0.07737 0.70837 0.63401 0.0
C4493 C 0.0924 0.71606 0.62599 0.0
C4494 C 0.0496 0.70797 0.59972 0.0
C4495 C 0.07662 0.70327 0.65157 0.0
H4496 H 0.02496 0.7086 0.65868 0.0
H4497 H 0.0142 0.66014 0.64209 0.0
H4498 H 0.06571 0.73037 0.6497 0.0
H4499 H 0.05641 0.73171 0.63125 0.0
H4500 H 0.04838 0.733 0.65097 0.0
H4501 H 0.03128 0.6561 0.62438 0.0
H4502 H 0.04351 0.67299 0.61104 0.0
H4503 H 0.05244 0.67074 0.62928 0.0
H4504 H 0.08053 0.72246 0.58895 0.0
H4505 H 0.10322 0.71813 0.63243 0.0
H4506 H 0.04443 0.7148 0.60603 0.0
H4507 H 0.04001 0.69461 0.59939 0.0
H4508 H 0.05248 0.71216 0.58687 0.0
H4509 H 0.07226 0.70985 0.65965 0.0
H4510 H 0.08866 0.70602 0.65631 0.0
H4511 H 0.06777 0.68978 0.65247 0.0
C4512 C 0.96818 0.61648 0.69893 0.0
C4513 C 0.97647 0.63283 0.70531 0.0
C4514 C 0.96851 0.60383 0.70722 0.0
C4515 C 0.97689 0.60756 0.72255 0.0
C4516 C 0.98483 0.62397 0.72933 0.0
C4517 C 0.98478 0.63651 0.72046 0.0
C4518 C 0.96025 0.58657 0.69938 0.0
C4519 C 0.99346 0.6283 0.74586 0.0
C4520 C 0.96374 0.57016 0.74862 0.0
C4521 C 0.97607 0.56661 0.74558 0.0
C4522 C 0.96424 0.58387 0.74177 0.0
C4523 C 0.97723 0.59416 0.73139 0.0
C4524 C 0.98995 0.59093 0.72859 0.0
C4525 C 0.98927 0.57724 0.73582 0.0
C4526 C 0.95057 0.58705 0.74524 0.0
C4527 C 0.00393 0.60153 0.71745 0.0
H4528 H 0.96197 0.61368 0.68708 0.0
H4529 H 0.9912 0.64919 0.72538 0.0
H4530 H 0.96928 0.58268 0.69753 0.0
H4531 H 0.95075 0.57759 0.70762 0.0
H4532 H 0.95446 0.5858 0.68729 0.0
H4533 H 0.99805 0.64138 0.74991 0.0
H4534 H 0.98508 0.62001 0.75531 0.0
H4535 H 0.00392 0.62636 0.74525 0.0
H4536 H 0.95351 0.562 0.75616 0.0
H4537 H 0.99883 0.57455 0.73348 0.0
H4538 H 0.94339 0.58493 0.73378 0.0
H4539 H 0.9556 0.60015 0.74941 0.0
H4540 H 0.9422 0.57884 0.75476 0.0
H4541 H 0.99923 0.60048 0.70473 0.0
H4542 H 0.01323 0.59785 0.71717 0.0
H4543 H 0.00993 0.61477 0.72152 0.0
C4544 C 0.37013 0.36839 0.71089 0.0
C4545 C 0.35312 0.35829 0.70956 0.0
C4546 C 0.37743 0.38366 0.71972 0.0
C4547 C 0.36747 0.38887 0.72741 0.0
C4548 C 0.35031 0.37836 0.72675 0.0
C4549 C 0.34334 0.36318 0.71783 0.0
C4550 C 0.39579 0.39452 0.72024 0.0
C4551 C 0.33929 0.38344 0.7349 0.0
C4552 C 0.38637 0.42392 0.75978 0.0
C4553 C 0.38936 0.43759 0.75063 0.0
C4554 C 0.37928 0.40799 0.75239 0.0
C4555 C 0.37496 0.40565 0.73548 0.0
C4556 C 0.37771 0.41934 0.72622 0.0
C4557 C 0.38484 0.43516 0.73394 0.0
C4558 C 0.37647 0.39369 0.76267 0.0
C4559 C 0.37317 0.41729 0.70816 0.0
H4560 H 0.37775 0.36466 0.70454 0.0
H4561 H 0.33018 0.35538 0.7169 0.0
H4562 H 0.39959 0.40603 0.71356 0.0
H4563 H 0.40024 0.39827 0.73315 0.0
H4564 H 0.4018 0.3882 0.71457 0.0
H4565 H 0.32626 0.37337 0.73419 0.0
H4566 H 0.34287 0.38705 0.74803 0.0
H4567 H 0.34058 0.39445 0.72885 0.0
H4568 H 0.3897 0.42576 0.77275 0.0
H4569 H 0.38697 0.44566 0.72689 0.0
H4570 H 0.38315 0.38793 0.75741 0.0
H4571 H 0.36333 0.38398 0.76244 0.0
H4572 H 0.38051 0.39761 0.77568 0.0
H4573 H 0.37974 0.41222 0.70126 0.0
H4574 H 0.37611 0.42919 0.70273 0.0
H4575 H 0.35993 0.40827 0.70641 0.0
C4576 C 0.64376 0.02583 0.69036 0.0
C4577 C 0.64994 0.0152 0.69014 0.0
C4578 C 0.63079 0.02295 0.70062 0.0
C4579 C 0.62391 0.00917 0.71093 0.0
C4580 C 0.63042 0.99868 0.7111 0.0
C4581 C 0.64333 0.0018 0.70068 0.0
C4582 C 0.62415 0.03439 0.7001 0.0
C4583 C 0.6235 0.98391 0.722 0.0
C4584 C 0.59772 0.00689 0.74715 0.0
C4585 C 0.58195 0.99589 0.74086 0.0
C4586 C 0.61149 0.01165 0.73743 0.0
C4587 C 0.60945 0.00522 0.72106 0.0
C4588 C 0.59356 0.99434 0.71455 0.0
C4589 C 0.58001 0.98973 0.72456 0.0
C4590 C 0.62824 0.02319 0.74483 0.0
C4591 C 0.59087 0.98724 0.69714 0.0
H4592 H 0.64881 0.03621 0.68225 0.0
H4593 H 0.64809 0.99357 0.70063 0.0
H4594 H 0.61135 0.02738 0.69548 0.0
H4595 H 0.62406 0.03928 0.71267 0.0
H4596 H 0.63136 0.04503 0.69204 0.0
H4597 H 0.63046 0.97746 0.72127 0.0
H4598 H 0.62352 0.98789 0.735 0.0
H4599 H 0.61064 0.97491 0.71834 0.0
H4600 H 0.59926 0.01151 0.7598 0.0
H4601 H 0.56787 0.98108 0.71972 0.0
H4602 H 0.63524 0.034 0.73696 0.0
H4603 H 0.63507 0.01664 0.74541 0.0
H4604 H 0.62771 0.02777 0.75745 0.0
H4605 H 0.59707 0.99739 0.68835 0.0
H4606 H 0.57773 0.97965 0.69368 0.0
H4607 H 0.59628 0.97933 0.69576 0.0
loop_
_geom_bond_atom_site_label_1
_geom_bond_atom_site_label_2
_geom_bond_distance
_geom_bond_site_symmetry_2
_ccdc_geom_bond_type
Co0 O1 2.216 . S
Co0 O2 2.091 . S
Co0 O4 2.004 1_554 S
Co0 O10 2.021 . S
Co0 O12 2.137 1_454 S
Co0 O13 2.244 1_455 S
O1 Co0 2.216 . S
O1 C8 1.247 . S
O2 Co0 2.091 . S
O2 C8 1.261 . S
C3 O12 1.246 . S
C3 O13 1.273 1_556 S
O4 Co0 2.004 1_556 S
O4 C9 1.259 . S
Co5 O6 2.087 . S
Co5 O11 2.011 1_556 S
Co5 O13 2.133 1_556 S
O6 Co5 2.087 . S
O6 C9 1.235 1_655 S
C7 O10 1.238 1_655 S
C7 O11 1.241 . S
C8 O1 1.247 . S
C8 O2 1.261 . S
C9 O4 1.259 . S
C9 O6 1.235 1_455 S
O10 Co0 2.021 . S
O10 C7 1.238 1_455 S
O11 Co5 2.011 1_554 S
O11 C7 1.241 . S
O12 Co0 2.137 1_656 S
O12 C3 1.246 . S
O13 Co0 2.244 1_655 S
O13 C3 1.273 1_554 S
O13 Co5 2.133 1_554 S
Co14 O15 2.216 1_554 S
Co14 O16 2.091 . S
Co14 O18 2.004 . S
Co14 O24 2.021 1_554 S
Co14 O26 2.137 . S
Co14 O27 2.244 . S
O15 Co14 2.216 1_556 S
O15 C22 1.247 . S
O16 Co14 2.091 . S
O16 C22 1.261 1_554 S
C17 O26 1.247 . S
C17 O27 1.272 . S
O18 Co14 2.004 . S
O18 C23 1.259 . S
Co19 O20 2.061 . S
Co19 O25 2.052 . S
Co19 O27 2.135 . S
O20 Co19 2.061 . S
O20 C23 1.235 . S
C21 O24 1.238 . S
C21 O25 1.241 1_556 S
C22 O15 1.247 . S
C22 O16 1.261 1_556 S
C23 O18 1.259 . S
C23 O20 1.235 . S
O24 Co14 2.021 1_556 S
O24 C21 1.238 . S
O25 Co19 2.052 . S
O25 C21 1.241 1_554 S
O26 Co14 2.137 . S
O26 C17 1.247 . S
O27 Co14 2.244 . S
O27 C17 1.272 . S
O27 Co19 2.135 . S
Co28 O29 2.216 1_554 S
Co28 O30 2.091 . S
Co28 O32 2.004 . S
Co28 O38 2.021 1_554 S
Co28 O40 2.137 . S
Co28 O41 2.244 1_545 S
O29 Co28 2.216 1_556 S
O29 C36 1.247 . S
O30 Co28 2.091 . S
O30 C36 1.261 1_554 S
C31 O40 1.247 1_565 S
C31 O41 1.272 . S
O32 Co28 2.004 . S
O32 C37 1.259 . S
Co33 O34 2.061 . S
Co33 O39 2.052 1_554 S
Co33 O41 2.135 . S
O34 Co33 2.061 . S
O34 C37 1.235 1_565 S
C35 O38 1.238 1_565 S
C35 O39 1.241 . S
C36 O29 1.247 . S
C36 O30 1.261 1_556 S
C37 O32 1.259 . S
C37 O34 1.235 1_545 S
O38 Co28 2.021 1_556 S
O38 C35 1.238 1_545 S
O39 Co33 2.052 1_556 S
O39 C35 1.241 . S
O40 Co28 2.137 . S
O40 C31 1.247 1_545 S
O41 Co28 2.244 1_565 S
O41 C31 1.272 . S
O41 Co33 2.135 . S
Co42 O43 2.216 1_554 S
Co42 O44 2.091 . S
Co42 O46 2.004 . S
Co42 O52 2.021 1_554 S
Co42 O54 2.137 1_655 S
Co42 O55 2.244 1_655 S
O43 Co42 2.216 1_556 S
O43 C50 1.247 . S
O44 Co42 2.091 . S
O44 C50 1.261 1_554 S
C45 O54 1.247 . S
C45 O55 1.272 . S
O46 Co42 2.004 . S
O46 C51 1.259 . S
Co47 O48 2.061 . S
Co47 O53 2.052 1_554 S
Co47 O55 2.135 . S
O48 Co47 2.061 . S
O48 C51 1.235 1_455 S
C49 O52 1.238 1_455 S
C49 O53 1.241 . S
C50 O43 1.247 . S
C50 O44 1.261 1_556 S
C51 O46 1.259 . S
C51 O48 1.235 1_655 S
O52 Co42 2.021 1_556 S
O52 C49 1.238 1_655 S
O53 Co47 2.052 1_556 S
O53 C49 1.241 . S
O54 Co42 2.137 1_455 S
O54 C45 1.247 . S
O55 Co42 2.244 1_455 S
O55 C45 1.272 . S
O55 Co47 2.135 . S
Co56 O57 2.216 . S
Co56 O58 2.091 . S
Co56 O60 2.004 1_554 S
Co56 O66 2.021 . S
Co56 O68 2.137 1_554 S
Co56 O69 2.244 1_554 S
O57 Co56 2.216 . S
O57 C64 1.247 . S
O58 Co56 2.091 . S
O58 C64 1.261 . S
C59 O68 1.247 . S
C59 O69 1.272 . S
O60 Co56 2.004 1_556 S
O60 C65 1.259 . S
Co61 O62 2.061 . S
Co61 O67 2.052 1_556 S
Co61 O69 2.135 . S
O62 Co61 2.061 . S
O62 C65 1.235 . S
C63 O66 1.238 . S
C63 O67 1.241 . S
C64 O57 1.247 . S
C64 O58 1.261 . S
C65 O60 1.259 . S
C65 O62 1.235 . S
O66 Co56 2.021 . S
O66 C63 1.238 . S
O67 Co61 2.052 1_554 S
O67 C63 1.241 . S
O68 Co56 2.137 1_556 S
O68 C59 1.247 . S
O69 Co56 2.244 1_556 S
O69 C59 1.272 . S
O69 Co61 2.135 . S
Co70 O71 2.216 . S
Co70 O72 2.091 . S
Co70 O74 2.004 1_554 S
Co70 O80 2.021 . S
Co70 O82 2.137 1_564 S
Co70 O83 2.244 1_565 S
O71 Co70 2.216 . S
O71 C78 1.247 . S
O72 Co70 2.091 . S
O72 C78 1.261 . S
C73 O82 1.247 . S
C73 O83 1.272 1_556 S
O74 Co70 2.004 1_556 S
O74 C79 1.259 . S
Co75 O76 2.061 1_554 S
Co75 O81 2.052 . S
Co75 O83 2.135 . S
O76 Co75 2.061 1_556 S
O76 C79 1.235 1_545 S
C77 O80 1.238 1_545 S
C77 O81 1.241 . S
C78 O71 1.247 . S
C78 O72 1.261 . S
C79 O74 1.259 . S
C79 O76 1.235 1_565 S
O80 Co70 2.021 . S
O80 C77 1.238 1_565 S
O81 Co75 2.052 . S
O81 C77 1.241 . S
O82 Co70 2.137 1_546 S
O82 C73 1.247 . S
O83 Co70 2.244 1_545 S
O83 C73 1.272 1_554 S
O83 Co75 2.135 . S
Co84 O85 2.216 . S
Co84 O86 2.091 . S
Co84 O88 2.004 . S
Co84 O94 2.021 . S
Co84 O96 2.137 . S
Co84 O97 2.244 . S
O85 Co84 2.216 . S
O85 C92 1.247 . S
O86 Co84 2.091 . S
O86 C92 1.261 . S
C87 O96 1.247 . S
C87 O97 1.272 . S
O88 Co84 2.004 . S
O88 C93 1.259 . S
Co89 O90 2.061 . S
Co89 O95 2.052 . S
Co89 O97 2.135 . S
O90 Co89 2.061 . S
O90 C93 1.235 . S
C91 O94 1.238 . S
C91 O95 1.241 . S
C92 O85 1.247 . S
C92 O86 1.261 . S
C93 O88 1.259 . S
C93 O90 1.235 . S
O94 Co84 2.021 . S
O94 C91 1.238 . S
O95 Co89 2.052 . S
O95 C91 1.241 . S
O96 Co84 2.137 . S
O96 C87 1.247 . S
O97 Co84 2.244 . S
O97 C87 1.272 . S
O97 Co89 2.135 . S
Co98 O99 2.216 . S
Co98 O100 2.091 . S
Co98 O102 2.004 . S
Co98 O108 2.021 . S
Co98 O110 2.137 1_565 S
Co98 O111 2.239 1_565 S
O99 Co98 2.216 . S
O99 C106 1.247 . S
O100 Co98 2.091 . S
O100 C106 1.261 . S
C101 O110 1.247 . S
C101 O111 1.272 . S
O102 Co98 2.004 . S
O102 C107 1.259 . S
Co103 O104 2.061 . S
Co103 O109 2.052 . S
Co103 O111 2.134 1_565 S
O104 Co103 2.061 . S
O104 C107 1.235 . S
C105 O108 1.238 . S
C105 O109 1.241 . S
C106 O99 1.247 . S
C106 O100 1.261 . S
C107 O102 1.259 . S
C107 O104 1.235 . S
O108 Co98 2.021 . S
O108 C105 1.238 . S
O109 Co103 2.052 . S
O109 C105 1.241 . S
O110 Co98 2.137 1_545 S
O110 C101 1.247 . S
O111 Co98 2.239 1_545 S
O111 C101 1.272 . S
O111 Co103 2.134 1_545 S
Co112 O113 2.216 . S
Co112 O114 2.091 . S
Co112 O116 2.004 . S
Co112 O122 2.021 . S
Co112 O124 2.137 . S
Co112 O125 2.244 . S
O113 Co112 2.216 . S
O113 C120 1.247 . S
O114 Co112 2.091 . S
O114 C120 1.261 . S
C115 O124 1.267 1_655 S
C115 O125 1.207 1_655 S
O116 Co112 2.004 . S
O116 C121 1.259 . S
Co117 O118 2.061 . S
Co117 O123 2.052 . S
Co117 O125 2.135 . S
O118 Co117 2.061 . S
O118 C121 1.235 . S
C119 O122 1.238 . S
C119 O123 1.241 . S
C120 O113 1.247 . S
C120 O114 1.261 . S
C121 O116 1.259 . S
C121 O118 1.235 . S
O122 Co112 2.021 . S
O122 C119 1.238 . S
O123 Co117 2.052 . S
O123 C119 1.241 . S
O124 Co112 2.137 . S
O124 C115 1.267 1_455 S
O125 Co112 2.244 . S
O125 C115 1.207 1_455 S
O125 Co117 2.135 . S
Co126 O127 2.216 . S
Co126 O128 2.091 . S
Co126 O130 2.004 . S
Co126 O136 2.021 . S
Co126 O138 2.137 1_565 S
Co126 O139 2.234 1_565 S
O127 Co126 2.216 . S
O127 C134 1.247 . S
O128 Co126 2.091 . S
O128 C134 1.261 . S
C129 O138 1.247 . S
C129 O139 1.332 . S
O130 Co126 2.004 . S
O130 C135 1.259 . S
Co131 O132 2.061 . S
Co131 O137 2.052 . S
Co131 O139 2.067 1_565 S
O132 Co131 2.061 . S
O132 C135 1.235 . S
C133 O136 1.238 . S
C133 O137 1.241 . S
C134 O127 1.247 . S
C134 O128 1.261 . S
C135 O130 1.259 . S
C135 O132 1.235 . S
O136 Co126 2.021 . S
O136 C133 1.238 . S
O137 Co131 2.052 . S
O137 C133 1.241 . S
O138 Co126 2.137 1_545 S
O138 C129 1.247 . S
O139 Co126 2.234 1_545 S
O139 C129 1.332 . S
O139 Co131 2.067 1_545 S
Co140 O141 2.216 1_455 S
Co140 O142 2.091 1_455 S
Co140 O144 2.004 . S
Co140 O150 2.021 . S
Co140 O152 2.137 1_455 S
Co140 O153 2.244 . S
O141 Co140 2.216 1_655 S
O141 C148 1.247 . S
O142 Co140 2.091 1_655 S
O142 C148 1.261 . S
C143 O152 1.247 1_455 S
C143 O153 1.272 . S
O144 Co140 2.004 . S
O144 C149 1.259 . S
Co145 O146 2.061 . S
Co145 O151 2.052 . S
Co145 O153 2.135 . S
O146 Co145 2.061 . S
O146 C149 1.235 . S
C147 O150 1.238 . S
C147 O151 1.241 . S
C148 O141 1.247 . S
C148 O142 1.261 . S
C149 O144 1.259 . S
C149 O146 1.235 . S
O150 Co140 2.021 . S
O150 C147 1.238 . S
O151 Co145 2.052 . S
O151 C147 1.241 . S
O152 Co140 2.137 1_655 S
O152 C143 1.247 1_655 S
O153 Co140 2.244 . S
O153 C143 1.272 . S
O153 Co145 2.135 . S
Co154 O155 2.216 . S
Co154 O156 2.091 . S
Co154 O158 2.004 . S
Co154 O164 2.021 . S
Co154 O166 2.137 . S
Co154 O167 2.244 . S
O155 Co154 2.216 . S
O155 C162 1.247 . S
O156 Co154 2.091 . S
O156 C162 1.261 . S
C157 O166 1.247 . S
C157 O167 1.272 . S
O158 Co154 2.004 . S
O158 C163 1.259 . S
Co159 O160 2.061 . S
Co159 O165 2.052 . S
Co159 O167 2.135 . S
O160 Co159 2.061 . S
O160 C163 1.235 . S
C161 O164 1.238 . S
C161 O165 1.241 . S
C162 O155 1.247 . S
C162 O156 1.261 . S
C163 O158 1.259 . S
C163 O160 1.235 . S
O164 Co154 2.021 . S
O164 C161 1.238 . S
O165 Co159 2.052 . S
O165 C161 1.241 . S
O166 Co154 2.137 . S
O166 C157 1.247 . S
O167 Co154 2.244 . S
O167 C157 1.272 . S
O167 Co159 2.135 . S
Co168 O169 2.216 . S
Co168 O170 2.091 . S
Co168 O172 2.004 . S
Co168 O178 2.021 . S
Co168 O180 2.097 1_545 S
Co168 O181 2.244 . S
O169 Co168 2.216 . S
O169 C176 1.247 . S
O170 Co168 2.091 . S
O170 C176 1.261 . S
C171 O180 1.236 . S
C171 O181 1.272 1_565 S
O172 Co168 2.004 . S
O172 C177 1.259 . S
Co173 O174 2.061 . S
Co173 O179 2.052 . S
Co173 O181 2.135 . S
O174 Co173 2.061 . S
O174 C177 1.235 . S
C175 O178 1.238 . S
C175 O179 1.241 . S
C176 O169 1.247 . S
C176 O170 1.261 . S
C177 O172 1.259 . S
C177 O174 1.235 . S
O178 Co168 2.021 . S
O178 C175 1.238 . S
O179 Co173 2.052 . S
O179 C175 1.241 . S
O180 Co168 2.097 1_565 S
O180 C171 1.236 . S
O181 Co168 2.244 . S
O181 C171 1.272 1_545 S
O181 Co173 2.135 . S
Co182 O183 2.216 1_655 S
Co182 O184 2.091 1_655 S
Co182 O186 2.004 . S
Co182 O192 2.021 . S
Co182 O194 2.137 1_655 S
Co182 O195 2.244 . S
O183 Co182 2.216 1_455 S
O183 C190 1.247 . S
O184 Co182 2.091 1_455 S
O184 C190 1.261 . S
C185 O194 1.247 1_655 S
C185 O195 1.272 . S
O186 Co182 2.004 . S
O186 C191 1.259 . S
Co187 O188 2.061 . S
Co187 O193 2.052 . S
Co187 O195 2.135 . S
O188 Co187 2.061 . S
O188 C191 1.235 . S
C189 O192 1.238 . S
C189 O193 1.241 . S
C190 O183 1.247 . S
C190 O184 1.261 . S
C191 O186 1.259 . S
C191 O188 1.235 . S
O192 Co182 2.021 . S
O192 C189 1.238 . S
O193 Co187 2.052 . S
O193 C189 1.241 . S
O194 Co182 2.137 1_455 S
O194 C185 1.247 1_455 S
O195 Co182 2.244 . S
O195 C185 1.272 . S
O195 Co187 2.135 . S
Co196 O197 2.216 . S
Co196 O198 2.091 . S
Co196 O200 2.004 . S
Co196 O206 2.021 . S
Co196 O208 2.137 . S
Co196 O209 2.244 . S
O197 Co196 2.216 . S
O197 C204 1.247 . S
O198 Co196 2.091 . S
O198 C204 1.261 . S
C199 O208 1.247 . S
C199 O209 1.272 . S
O200 Co196 2.004 . S
O200 C205 1.259 . S
Co201 O202 2.061 . S
Co201 O207 2.052 . S
Co201 O209 2.135 . S
O202 Co201 2.061 . S
O202 C205 1.235 . S
C203 O206 1.238 . S
C203 O207 1.241 . S
C204 O197 1.247 . S
C204 O198 1.261 . S
C205 O200 1.259 . S
C205 O202 1.235 . S
O206 Co196 2.021 . S
O206 C203 1.238 . S
O207 Co201 2.052 . S
O207 C203 1.241 . S
O208 Co196 2.137 . S
O208 C199 1.247 . S
O209 Co196 2.244 . S
O209 C199 1.272 . S
O209 Co201 2.135 . S
Co210 O211 2.216 . S
Co210 O212 2.091 . S
Co210 O214 2.004 . S
Co210 O220 2.021 . S
Co210 O222 2.137 . S
Co210 O223 2.244 . S
O211 Co210 2.216 . S
O211 C218 1.247 . S
O212 Co210 2.091 . S
O212 C218 1.261 . S
C213 O222 1.247 . S
C213 O223 1.272 . S
O214 Co210 2.004 . S
O214 C219 1.259 . S
Co215 O216 2.061 . S
Co215 O221 2.052 . S
Co215 O223 2.135 . S
O216 Co215 2.061 . S
O216 C219 1.235 . S
C217 O220 1.238 . S
C217 O221 1.241 . S
C218 O211 1.247 . S
C218 O212 1.261 . S
C219 O214 1.259 . S
C219 O216 1.235 . S
O220 Co210 2.021 . S
O220 C217 1.238 . S
O221 Co215 2.052 . S
O221 C217 1.241 . S
O222 Co210 2.137 . S
O222 C213 1.247 . S
O223 Co210 2.244 . S
O223 C213 1.272 . S
O223 Co215 2.135 . S
Co224 O225 2.216 . S
Co224 O226 2.091 . S
Co224 O228 2.004 . S
Co224 O234 2.021 . S
Co224 O236 2.154 . S
Co224 O237 2.244 . S
O225 Co224 2.216 . S
O225 C232 1.247 . S
O226 Co224 2.091 . S
O226 C232 1.261 . S
C227 O236 1.225 1_565 S
C227 O237 1.272 1_565 S
O228 Co224 2.004 . S
O228 C233 1.259 . S
Co229 O230 2.061 . S
Co229 O235 2.052 . S
Co229 O237 2.135 . S
O230 Co229 2.061 . S
O230 C233 1.235 . S
C231 O234 1.238 . S
C231 O235 1.241 . S
C232 O225 1.247 . S
C232 O226 1.261 . S
C233 O228 1.259 . S
C233 O230 1.235 . S
O234 Co224 2.021 . S
O234 C231 1.238 . S
O235 Co229 2.052 . S
O235 C231 1.241 . S
O236 Co224 2.154 . S
O236 C227 1.225 1_545 S
O237 Co224 2.244 . S
O237 C227 1.272 1_545 S
O237 Co229 2.135 . S
Co238 O239 2.216 . S
Co238 O240 2.091 . S
Co238 O242 2.004 . S
Co238 O248 2.021 . S
Co238 O250 2.137 . S
Co238 O251 2.244 . S
O239 Co238 2.216 . S
O239 C246 1.247 . S
O240 Co238 2.091 . S
O240 C246 1.261 . S
C241 O250 1.247 1_455 S
C241 O251 1.272 1_455 S
O242 Co238 2.004 . S
O242 C247 1.259 . S
Co243 O244 2.061 . S
Co243 O249 2.052 . S
Co243 O251 2.135 . S
O244 Co243 2.061 . S
O244 C247 1.235 . S
C245 O248 1.238 . S
C245 O249 1.241 . S
C246 O239 1.247 . S
C246 O240 1.261 . S
C247 O242 1.259 . S
C247 O244 1.235 . S
O248 Co238 2.021 . S
O248 C245 1.238 . S
O249 Co243 2.052 . S
O249 C245 1.241 . S
O250 Co238 2.137 . S
O250 C241 1.247 1_655 S
O251 Co238 2.244 . S
O251 C241 1.272 1_655 S
O251 Co243 2.135 . S
C252 C253 1.560 . S
C252 H313 0.959 . S
C252 H314 0.959 . S
C252 H315 0.960 . S
C253 C252 1.560 . S
C253 O308 1.426 . S
C253 H312 0.980 . S
C254 C255 1.407 . S
C254 C259 1.418 . S
C254 O308 1.334 . S
C255 C254 1.407 . S
C255 C256 1.360 . S
C255 H316 0.929 . S
C256 C255 1.360 . S
C256 C257 1.401 . S
C256 C260 1.527 . S
C257 C256 1.401 . S
C257 C258 1.405 . S
C257 C290 1.587 . S
C258 C257 1.405 . S
C258 C259 1.332 . S
C258 C261 1.496 . S
C259 C254 1.418 . S
C259 C258 1.332 . S
C259 H317 0.929 . S
C260 C256 1.527 . S
C260 H318 0.959 . S
C260 H319 0.961 . S
C260 H320 0.961 . S
C261 C258 1.496 . S
C261 H321 0.960 . S
C261 H322 0.960 . S
C261 H323 0.961 . S
C262 C263 1.517 . S
C262 H325 0.961 . S
C262 H326 0.960 . S
C262 H327 0.959 . S
C263 C262 1.517 . S
C263 O311 1.468 . S
C263 H324 0.980 . S
C264 C265 1.349 . S
C264 C269 1.367 . S
C264 O311 1.408 . S
C265 C264 1.349 . S
C265 C266 1.407 . S
C265 H328 0.930 . S
C266 C265 1.407 . S
C266 C267 1.449 . S
C266 C270 1.535 . S
C267 C266 1.449 . S
C267 C268 1.384 . S
C267 C292 1.553 . S
C268 C267 1.384 . S
C268 C269 1.364 . S
C268 C271 1.450 . S
C269 C264 1.367 . S
C269 C268 1.364 . S
C269 H329 0.931 . S
C270 C266 1.535 . S
C270 H330 0.959 . S
C270 H331 0.961 . S
C270 H332 0.959 . S
C271 C268 1.450 . S
C271 H333 0.960 . S
C271 H334 0.960 . S
C271 H335 0.960 . S
C272 C273 1.309 . S
C272 C277 1.304 . S
C272 O310 1.435 . S
C273 C272 1.309 . S
C273 C274 1.476 . S
C273 H337 0.930 . S
C274 C273 1.476 . S
C274 C275 1.400 . S
C274 C278 1.567 . S
C275 C274 1.400 . S
C275 C276 1.373 . S
C275 C297 1.432 . S
C276 C275 1.373 . S
C276 C277 1.339 . S
C276 C279 1.530 . S
C277 C272 1.304 . S
C277 C276 1.339 . S
C277 H338 0.930 . S
C278 C274 1.567 . S
C278 H339 0.961 . S
C278 H340 0.960 . S
C278 H341 0.958 . S
C279 C276 1.530 . S
C279 H342 0.961 . S
C279 H343 0.960 . S
C279 H344 0.960 . S
C280 C281 1.530 . S
C280 H346 0.961 . S
C280 H347 0.961 . S
C280 H348 0.959 . S
C281 C280 1.530 . S
C281 O309 1.412 . S
C281 H345 0.980 . S
C282 C283 1.288 . S
C282 C287 1.377 . S
C282 O309 1.393 . S
C283 C282 1.288 . S
C283 C284 1.369 . S
C283 H349 0.932 . S
C284 C283 1.369 . S
C284 C285 1.398 . S
C284 C288 1.527 . S
C285 C284 1.398 . S
C285 C286 1.380 . S
C285 C299 1.497 . S
C286 C285 1.380 . S
C286 C287 1.383 . S
C286 C289 1.603 . S
C287 C282 1.377 . S
C287 C286 1.383 . S
C287 H350 0.929 . S
C288 C284 1.527 . S
C288 H351 0.961 . S
C288 H352 0.959 . S
C288 H353 0.959 . S
C289 C286 1.603 . S
C289 H354 0.960 . S
C289 H355 0.962 . S
C289 H356 0.961 . S
C290 C257 1.587 . S
C290 C291 1.360 . S
C290 C303 1.412 . S
C291 C290 1.360 . S
C291 C292 1.365 . S
C291 H357 0.929 . S
C292 C267 1.553 . S
C292 C291 1.365 . S
C292 C293 1.404 . S
C293 C292 1.404 . S
C293 C294 1.395 . S
C293 C304 1.451 . S
C294 C293 1.395 . S
C294 C295 1.322 . S
C294 H358 0.930 . S
C295 C294 1.322 . S
C295 C296 1.459 . S
C295 H359 0.929 . S
C296 C295 1.459 . S
C296 C297 1.445 . S
C296 C305 1.395 . S
C297 C275 1.432 . S
C297 C296 1.445 . S
C297 C298 1.370 . S
C298 C297 1.370 . S
C298 C299 1.438 . S
C298 H360 0.930 . S
C299 C285 1.497 . S
C299 C298 1.438 . S
C299 C300 1.360 . S
C300 C299 1.360 . S
C300 C301 1.401 . S
C300 C305 1.446 . S
C301 C300 1.401 . S
C301 C302 1.347 . S
C301 H361 0.929 . S
C302 C301 1.347 . S
C302 C303 1.455 . S
C302 H362 0.930 . S
C303 C290 1.412 . S
C303 C302 1.455 . S
C303 C304 1.331 . S
C304 C293 1.451 . S
C304 C303 1.331 . S
C304 C305 1.497 . S
C305 C296 1.395 . S
C305 C300 1.446 . S
C305 C304 1.497 . S
C306 C307 1.582 . S
C306 H363 0.962 . S
C306 H364 0.959 . S
C306 H365 0.958 . S
C307 C306 1.582 . S
C307 O310 1.458 . S
C307 H336 0.980 . S
O308 C253 1.426 . S
O308 C254 1.334 . S
O309 C281 1.412 . S
O309 C282 1.393 . S
O310 C272 1.435 . S
O310 C307 1.458 . S
O311 C263 1.468 . S
O311 C264 1.408 . S
H312 C253 0.980 . S
H313 C252 0.959 . S
H314 C252 0.959 . S
H315 C252 0.960 . S
H316 C255 0.929 . S
H317 C259 0.929 . S
H318 C260 0.959 . S
H319 C260 0.961 . S
H320 C260 0.961 . S
H321 C261 0.960 . S
H322 C261 0.960 . S
H323 C261 0.961 . S
H324 C263 0.980 . S
H325 C262 0.961 . S
H326 C262 0.960 . S
H327 C262 0.959 . S
H328 C265 0.930 . S
H329 C269 0.931 . S
H330 C270 0.959 . S
H331 C270 0.961 . S
H332 C270 0.959 . S
H333 C271 0.960 . S
H334 C271 0.960 . S
H335 C271 0.960 . S
H336 C307 0.980 . S
H337 C273 0.930 . S
H338 C277 0.930 . S
H339 C278 0.961 . S
H340 C278 0.960 . S
H341 C278 0.958 . S
H342 C279 0.961 . S
H343 C279 0.960 . S
H344 C279 0.960 . S
H345 C281 0.980 . S
H346 C280 0.961 . S
H347 C280 0.961 . S
H348 C280 0.959 . S
H349 C283 0.932 . S
H350 C287 0.929 . S
H351 C288 0.961 . S
H352 C288 0.959 . S
H353 C288 0.959 . S
H354 C289 0.960 . S
H355 C289 0.962 . S
H356 C289 0.961 . S
H357 C291 0.929 . S
H358 C294 0.930 . S
H359 C295 0.929 . S
H360 C298 0.930 . S
H361 C301 0.929 . S
H362 C302 0.930 . S
H363 C306 0.962 . S
H364 C306 0.959 . S
H365 C306 0.958 . S
C366 C367 1.560 . S
C366 H427 0.959 . S
C366 H428 0.959 . S
C366 H429 0.960 . S
C367 C366 1.560 . S
C367 O422 1.426 . S
C367 H426 0.980 . S
C368 C369 1.407 . S
C368 C373 1.418 . S
C368 O422 1.334 . S
C369 C368 1.407 . S
C369 C370 1.360 . S
C369 H430 0.929 . S
C370 C369 1.360 . S
C370 C371 1.401 . S
C370 C374 1.527 . S
C371 C370 1.401 . S
C371 C372 1.405 . S
C371 C404 1.587 . S
C372 C371 1.405 . S
C372 C373 1.332 . S
C372 C375 1.496 . S
C373 C368 1.418 . S
C373 C372 1.332 . S
C373 H431 0.929 . S
C374 C370 1.527 . S
C374 H432 0.959 . S
C374 H433 0.961 . S
C374 H434 0.961 . S
C375 C372 1.496 . S
C375 H435 0.960 . S
C375 H436 0.960 . S
C375 H437 0.961 . S
C376 C377 1.517 . S
C376 H439 0.961 . S
C376 H440 0.960 . S
C376 H441 0.959 . S
C377 C376 1.517 . S
C377 O425 1.468 . S
C377 H438 0.980 . S
C378 C379 1.349 . S
C378 C383 1.367 . S
C378 O425 1.408 . S
C379 C378 1.349 . S
C379 C380 1.407 . S
C379 H442 0.930 . S
C380 C379 1.407 . S
C380 C381 1.449 . S
C380 C384 1.535 . S
C381 C380 1.449 . S
C381 C382 1.384 . S
C381 C406 1.553 . S
C382 C381 1.384 . S
C382 C383 1.364 . S
C382 C385 1.450 . S
C383 C378 1.367 . S
C383 C382 1.364 . S
C383 H443 0.931 . S
C384 C380 1.535 . S
C384 H444 0.959 . S
C384 H445 0.961 . S
C384 H446 0.959 . S
C385 C382 1.450 . S
C385 H447 0.960 . S
C385 H448 0.960 . S
C385 H449 0.960 . S
C386 C387 1.309 . S
C386 C391 1.304 . S
C386 O424 1.435 . S
C387 C386 1.309 . S
C387 C388 1.476 . S
C387 H451 0.930 . S
C388 C387 1.476 . S
C388 C389 1.400 . S
C388 C392 1.567 . S
C389 C388 1.400 . S
C389 C390 1.373 . S
C389 C411 1.432 . S
C390 C389 1.373 . S
C390 C391 1.339 . S
C390 C393 1.530 . S
C391 C386 1.304 . S
C391 C390 1.339 . S
C391 H452 0.930 . S
C392 C388 1.567 . S
C392 H453 0.961 . S
C392 H454 0.960 . S
C392 H455 0.958 . S
C393 C390 1.530 . S
C393 H456 0.961 . S
C393 H457 0.960 . S
C393 H458 0.960 . S
C394 C395 1.530 . S
C394 H460 0.961 . S
C394 H461 0.961 . S
C394 H462 0.959 . S
C395 C394 1.530 . S
C395 O423 1.412 . S
C395 H459 0.980 . S
C396 C397 1.288 . S
C396 C401 1.377 . S
C396 O423 1.393 . S
C397 C396 1.288 . S
C397 C398 1.369 . S
C397 H463 0.932 . S
C398 C397 1.369 . S
C398 C399 1.398 . S
C398 C402 1.527 . S
C399 C398 1.398 . S
C399 C400 1.380 . S
C399 C413 1.497 . S
C400 C399 1.380 . S
C400 C401 1.383 . S
C400 C403 1.603 . S
C401 C396 1.377 . S
C401 C400 1.383 . S
C401 H464 0.929 . S
C402 C398 1.527 . S
C402 H465 0.961 . S
C402 H466 0.959 . S
C402 H467 0.959 . S
C403 C400 1.603 . S
C403 H468 0.960 . S
C403 H469 0.962 . S
C403 H470 0.961 . S
C404 C371 1.587 . S
C404 C405 1.360 . S
C404 C417 1.412 . S
C405 C404 1.360 . S
C405 C406 1.365 . S
C405 H471 0.929 . S
C406 C381 1.553 . S
C406 C405 1.365 . S
C406 C407 1.404 . S
C407 C406 1.404 . S
C407 C408 1.395 . S
C407 C418 1.451 . S
C408 C407 1.395 . S
C408 C409 1.322 . S
C408 H472 0.930 . S
C409 C408 1.322 . S
C409 C410 1.459 . S
C409 H473 0.929 . S
C410 C409 1.459 . S
C410 C411 1.445 . S
C410 C419 1.395 . S
C411 C389 1.432 . S
C411 C410 1.445 . S
C411 C412 1.370 . S
C412 C411 1.370 . S
C412 C413 1.438 . S
C412 H474 0.930 . S
C413 C399 1.497 . S
C413 C412 1.438 . S
C413 C414 1.360 . S
C414 C413 1.360 . S
C414 C415 1.401 . S
C414 C419 1.446 . S
C415 C414 1.401 . S
C415 C416 1.347 . S
C415 H475 0.929 . S
C416 C415 1.347 . S
C416 C417 1.455 . S
C416 H476 0.930 . S
C417 C404 1.412 . S
C417 C416 1.455 . S
C417 C418 1.331 . S
C418 C407 1.451 . S
C418 C417 1.331 . S
C418 C419 1.497 . S
C419 C410 1.395 . S
C419 C414 1.446 . S
C419 C418 1.497 . S
C420 C421 1.582 . S
C420 H477 0.962 . S
C420 H478 0.959 . S
C420 H479 0.958 . S
C421 C420 1.582 . S
C421 O424 1.458 . S
C421 H450 0.980 . S
O422 C367 1.426 . S
O422 C368 1.334 . S
O423 C395 1.412 . S
O423 C396 1.393 . S
O424 C386 1.435 . S
O424 C421 1.458 . S
O425 C377 1.468 . S
O425 C378 1.408 . S
H426 C367 0.980 . S
H427 C366 0.959 . S
H428 C366 0.959 . S
H429 C366 0.960 . S
H430 C369 0.929 . S
H431 C373 0.929 . S
H432 C374 0.959 . S
H433 C374 0.961 . S
H434 C374 0.961 . S
H435 C375 0.960 . S
H436 C375 0.960 . S
H437 C375 0.961 . S
H438 C377 0.980 . S
H439 C376 0.961 . S
H440 C376 0.960 . S
H441 C376 0.959 . S
H442 C379 0.930 . S
H443 C383 0.931 . S
H444 C384 0.959 . S
H445 C384 0.961 . S
H446 C384 0.959 . S
H447 C385 0.960 . S
H448 C385 0.960 . S
H449 C385 0.960 . S
H450 C421 0.980 . S
H451 C387 0.930 . S
H452 C391 0.930 . S
H453 C392 0.961 . S
H454 C392 0.960 . S
H455 C392 0.958 . S
H456 C393 0.961 . S
H457 C393 0.960 . S
H458 C393 0.960 . S
H459 C395 0.980 . S
H460 C394 0.961 . S
H461 C394 0.961 . S
H462 C394 0.959 . S
H463 C397 0.932 . S
H464 C401 0.929 . S
H465 C402 0.961 . S
H466 C402 0.959 . S
H467 C402 0.959 . S
H468 C403 0.960 . S
H469 C403 0.962 . S
H470 C403 0.961 . S
H471 C405 0.929 . S
H472 C408 0.930 . S
H473 C409 0.929 . S
H474 C412 0.930 . S
H475 C415 0.929 . S
H476 C416 0.930 . S
H477 C420 0.962 . S
H478 C420 0.959 . S
H479 C420 0.958 . S
C480 C481 1.560 . S
C480 H541 0.959 . S
C480 H542 0.959 . S
C480 H543 0.960 . S
C481 C480 1.560 . S
C481 O536 1.426 . S
C481 H540 0.980 . S
C482 C483 1.407 . S
C482 C487 1.418 . S
C482 O536 1.334 . S
C483 C482 1.407 . S
C483 C484 1.360 . S
C483 H544 0.929 . S
C484 C483 1.360 . S
C484 C485 1.401 . S
C484 C488 1.527 . S
C485 C484 1.401 . S
C485 C486 1.405 . S
C485 C518 1.587 . S
C486 C485 1.405 . S
C486 C487 1.332 . S
C486 C489 1.496 . S
C487 C482 1.418 . S
C487 C486 1.332 . S
C487 H545 0.929 . S
C488 C484 1.527 . S
C488 H546 0.959 . S
C488 H547 0.961 . S
C488 H548 0.961 . S
C489 C486 1.496 . S
C489 H549 0.960 . S
C489 H550 0.960 . S
C489 H551 0.961 . S
C490 C491 1.517 . S
C490 H553 0.961 . S
C490 H554 0.960 . S
C490 H555 0.959 . S
C491 C490 1.517 . S
C491 O539 1.468 . S
C491 H552 0.980 . S
C492 C493 1.349 . S
C492 C497 1.367 . S
C492 O539 1.408 . S
C493 C492 1.349 . S
C493 C494 1.407 . S
C493 H556 0.930 . S
C494 C493 1.407 . S
C494 C495 1.449 . S
C494 C498 1.535 . S
C495 C494 1.449 . S
C495 C496 1.384 . S
C495 C520 1.553 . S
C496 C495 1.384 . S
C496 C497 1.364 . S
C496 C499 1.450 . S
C497 C492 1.367 . S
C497 C496 1.364 . S
C497 H557 0.931 . S
C498 C494 1.535 . S
C498 H558 0.959 . S
C498 H559 0.961 . S
C498 H560 0.959 . S
C499 C496 1.450 . S
C499 H561 0.960 . S
C499 H562 0.960 . S
C499 H563 0.960 . S
C500 C501 1.309 . S
C500 C505 1.304 . S
C500 O538 1.435 . S
C501 C500 1.309 . S
C501 C502 1.476 . S
C501 H565 0.930 . S
C502 C501 1.476 . S
C502 C503 1.400 . S
C502 C506 1.567 . S
C503 C502 1.400 . S
C503 C504 1.373 . S
C503 C525 1.432 . S
C504 C503 1.373 . S
C504 C505 1.339 . S
C504 C507 1.530 . S
C505 C500 1.304 . S
C505 C504 1.339 . S
C505 H566 0.930 . S
C506 C502 1.567 . S
C506 H567 0.961 . S
C506 H568 0.960 . S
C506 H569 0.958 . S
C507 C504 1.530 . S
C507 H570 0.961 . S
C507 H571 0.960 . S
C507 H572 0.960 . S
C508 C509 1.530 . S
C508 H574 0.961 . S
C508 H575 0.961 . S
C508 H576 0.959 . S
C509 C508 1.530 . S
C509 O537 1.412 . S
C509 H573 0.980 . S
C510 C511 1.288 . S
C510 C515 1.377 . S
C510 O537 1.393 . S
C511 C510 1.288 . S
C511 C512 1.369 . S
C511 H577 0.932 . S
C512 C511 1.369 . S
C512 C513 1.398 . S
C512 C516 1.527 . S
C513 C512 1.398 . S
C513 C514 1.380 . S
C513 C527 1.497 . S
C514 C513 1.380 . S
C514 C515 1.383 . S
C514 C517 1.603 . S
C515 C510 1.377 . S
C515 C514 1.383 . S
C515 H578 0.929 . S
C516 C512 1.527 . S
C516 H579 0.961 . S
C516 H580 0.959 . S
C516 H581 0.959 . S
C517 C514 1.603 . S
C517 H582 0.960 . S
C517 H583 0.962 . S
C517 H584 0.961 . S
C518 C485 1.587 . S
C518 C519 1.360 . S
C518 C531 1.412 . S
C519 C518 1.360 . S
C519 C520 1.365 . S
C519 H585 0.929 . S
C520 C495 1.553 . S
C520 C519 1.365 . S
C520 C521 1.404 . S
C521 C520 1.404 . S
C521 C522 1.395 . S
C521 C532 1.451 . S
C522 C521 1.395 . S
C522 C523 1.322 . S
C522 H586 0.930 . S
C523 C522 1.322 . S
C523 C524 1.459 . S
C523 H587 0.929 . S
C524 C523 1.459 . S
C524 C525 1.445 . S
C524 C533 1.395 . S
C525 C503 1.432 . S
C525 C524 1.445 . S
C525 C526 1.370 . S
C526 C525 1.370 . S
C526 C527 1.438 . S
C526 H588 0.930 . S
C527 C513 1.497 . S
C527 C526 1.438 . S
C527 C528 1.360 . S
C528 C527 1.360 . S
C528 C529 1.401 . S
C528 C533 1.446 . S
C529 C528 1.401 . S
C529 C530 1.347 . S
C529 H589 0.929 . S
C530 C529 1.347 . S
C530 C531 1.455 . S
C530 H590 0.930 . S
C531 C518 1.412 . S
C531 C530 1.455 . S
C531 C532 1.331 . S
C532 C521 1.451 . S
C532 C531 1.331 . S
C532 C533 1.497 . S
C533 C524 1.395 . S
C533 C528 1.446 . S
C533 C532 1.497 . S
C534 C535 1.582 . S
C534 H591 0.962 . S
C534 H592 0.959 . S
C534 H593 0.958 . S
C535 C534 1.582 . S
C535 O538 1.458 . S
C535 H564 0.980 . S
O536 C481 1.426 . S
O536 C482 1.334 . S
O537 C509 1.412 . S
O537 C510 1.393 . S
O538 C500 1.435 . S
O538 C535 1.458 . S
O539 C491 1.468 . S
O539 C492 1.408 . S
H540 C481 0.980 . S
H541 C480 0.959 . S
H542 C480 0.959 . S
H543 C480 0.960 . S
H544 C483 0.929 . S
H545 C487 0.929 . S
H546 C488 0.959 . S
H547 C488 0.961 . S
H548 C488 0.961 . S
H549 C489 0.960 . S
H550 C489 0.960 . S
H551 C489 0.961 . S
H552 C491 0.980 . S
H553 C490 0.961 . S
H554 C490 0.960 . S
H555 C490 0.959 . S
H556 C493 0.930 . S
H557 C497 0.931 . S
H558 C498 0.959 . S
H559 C498 0.961 . S
H560 C498 0.959 . S
H561 C499 0.960 . S
H562 C499 0.960 . S
H563 C499 0.960 . S
H564 C535 0.980 . S
H565 C501 0.930 . S
H566 C505 0.930 . S
H567 C506 0.961 . S
H568 C506 0.960 . S
H569 C506 0.958 . S
H570 C507 0.961 . S
H571 C507 0.960 . S
H572 C507 0.960 . S
H573 C509 0.980 . S
H574 C508 0.961 . S
H575 C508 0.961 . S
H576 C508 0.959 . S
H577 C511 0.932 . S
H578 C515 0.929 . S
H579 C516 0.961 . S
H580 C516 0.959 . S
H581 C516 0.959 . S
H582 C517 0.960 . S
H583 C517 0.962 . S
H584 C517 0.961 . S
H585 C519 0.929 . S
H586 C522 0.930 . S
H587 C523 0.929 . S
H588 C526 0.930 . S
H589 C529 0.929 . S
H590 C530 0.930 . S
H591 C534 0.962 . S
H592 C534 0.959 . S
H593 C534 0.958 . S
C594 C595 1.560 . S
C594 H655 0.959 . S
C594 H656 0.959 . S
C594 H657 0.960 . S
C595 C594 1.560 . S
C595 O650 1.426 . S
C595 H654 0.980 . S
C596 C597 1.407 . S
C596 C601 1.418 . S
C596 O650 1.334 . S
C597 C596 1.407 . S
C597 C598 1.360 . S
C597 H658 0.929 . S
C598 C597 1.360 . S
C598 C599 1.401 . S
C598 C602 1.527 . S
C599 C598 1.401 . S
C599 C600 1.405 . S
C599 C632 1.587 . S
C600 C599 1.405 . S
C600 C601 1.332 . S
C600 C603 1.496 . S
C601 C596 1.418 . S
C601 C600 1.332 . S
C601 H659 0.929 . S
C602 C598 1.527 . S
C602 H660 0.959 . S
C602 H661 0.961 . S
C602 H662 0.961 . S
C603 C600 1.496 . S
C603 H663 0.960 . S
C603 H664 0.960 . S
C603 H665 0.961 . S
C604 C605 1.517 . S
C604 H667 0.961 . S
C604 H668 0.960 . S
C604 H669 0.959 . S
C605 C604 1.517 . S
C605 O653 1.468 . S
C605 H666 0.980 . S
C606 C607 1.349 . S
C606 C611 1.367 . S
C606 O653 1.408 . S
C607 C606 1.349 . S
C607 C608 1.407 . S
C607 H670 0.930 . S
C608 C607 1.407 . S
C608 C609 1.449 . S
C608 C612 1.535 . S
C609 C608 1.449 . S
C609 C610 1.384 . S
C609 C634 1.553 . S
C610 C609 1.384 . S
C610 C611 1.364 . S
C610 C613 1.450 . S
C611 C606 1.367 . S
C611 C610 1.364 . S
C611 H671 0.931 . S
C612 C608 1.535 . S
C612 H672 0.959 . S
C612 H673 0.961 . S
C612 H674 0.959 . S
C613 C610 1.450 . S
C613 H675 0.960 . S
C613 H676 0.960 . S
C613 H677 0.960 . S
C614 C615 1.309 . S
C614 C619 1.304 . S
C614 O652 1.435 . S
C615 C614 1.309 . S
C615 C616 1.476 . S
C615 H679 0.930 . S
C616 C615 1.476 . S
C616 C617 1.400 . S
C616 C620 1.567 . S
C617 C616 1.400 . S
C617 C618 1.373 . S
C617 C639 1.432 . S
C618 C617 1.373 . S
C618 C619 1.339 . S
C618 C621 1.530 . S
C619 C614 1.304 . S
C619 C618 1.339 . S
C619 H680 0.930 . S
C620 C616 1.567 . S
C620 H681 0.961 . S
C620 H682 0.960 . S
C620 H683 0.958 . S
C621 C618 1.530 . S
C621 H684 0.961 . S
C621 H685 0.960 . S
C621 H686 0.960 . S
C622 C623 1.530 . S
C622 H688 0.961 . S
C622 H689 0.961 . S
C622 H690 0.959 . S
C623 C622 1.530 . S
C623 O651 1.412 . S
C623 H687 0.980 . S
C624 C625 1.288 . S
C624 C629 1.377 . S
C624 O651 1.393 . S
C625 C624 1.288 . S
C625 C626 1.369 . S
C625 H691 0.932 . S
C626 C625 1.369 . S
C626 C627 1.398 . S
C626 C630 1.527 . S
C627 C626 1.398 . S
C627 C628 1.380 . S
C627 C641 1.497 . S
C628 C627 1.380 . S
C628 C629 1.383 . S
C628 C631 1.603 . S
C629 C624 1.377 . S
C629 C628 1.383 . S
C629 H692 0.929 . S
C630 C626 1.527 . S
C630 H693 0.961 . S
C630 H694 0.959 . S
C630 H695 0.959 . S
C631 C628 1.603 . S
C631 H696 0.960 . S
C631 H697 0.962 . S
C631 H698 0.961 . S
C632 C599 1.587 . S
C632 C633 1.360 . S
C632 C645 1.412 . S
C633 C632 1.360 . S
C633 C634 1.365 . S
C633 H699 0.929 . S
C634 C609 1.553 . S
C634 C633 1.365 . S
C634 C635 1.404 . S
C635 C634 1.404 . S
C635 C636 1.395 . S
C635 C646 1.451 . S
C636 C635 1.395 . S
C636 C637 1.322 . S
C636 H700 0.930 . S
C637 C636 1.322 . S
C637 C638 1.459 . S
C637 H701 0.929 . S
C638 C637 1.459 . S
C638 C639 1.445 . S
C638 C647 1.395 . S
C639 C617 1.432 . S
C639 C638 1.445 . S
C639 C640 1.370 . S
C640 C639 1.370 . S
C640 C641 1.438 . S
C640 H702 0.930 . S
C641 C627 1.497 . S
C641 C640 1.438 . S
C641 C642 1.360 . S
C642 C641 1.360 . S
C642 C643 1.401 . S
C642 C647 1.446 . S
C643 C642 1.401 . S
C643 C644 1.347 . S
C643 H703 0.929 . S
C644 C643 1.347 . S
C644 C645 1.455 . S
C644 H704 0.930 . S
C645 C632 1.412 . S
C645 C644 1.455 . S
C645 C646 1.331 . S
C646 C635 1.451 . S
C646 C645 1.331 . S
C646 C647 1.497 . S
C647 C638 1.395 . S
C647 C642 1.446 . S
C647 C646 1.497 . S
C648 C649 1.582 . S
C648 H705 0.962 . S
C648 H706 0.959 . S
C648 H707 0.958 . S
C649 C648 1.582 . S
C649 O652 1.458 . S
C649 H678 0.980 . S
O650 C595 1.426 . S
O650 C596 1.334 . S
O651 C623 1.412 . S
O651 C624 1.393 . S
O652 C614 1.435 . S
O652 C649 1.458 . S
O653 C605 1.468 . S
O653 C606 1.408 . S
H654 C595 0.980 . S
H655 C594 0.959 . S
H656 C594 0.959 . S
H657 C594 0.960 . S
H658 C597 0.929 . S
H659 C601 0.929 . S
H660 C602 0.959 . S
H661 C602 0.961 . S
H662 C602 0.961 . S
H663 C603 0.960 . S
H664 C603 0.960 . S
H665 C603 0.961 . S
H666 C605 0.980 . S
H667 C604 0.961 . S
H668 C604 0.960 . S
H669 C604 0.959 . S
H670 C607 0.930 . S
H671 C611 0.931 . S
H672 C612 0.959 . S
H673 C612 0.961 . S
H674 C612 0.959 . S
H675 C613 0.960 . S
H676 C613 0.960 . S
H677 C613 0.960 . S
H678 C649 0.980 . S
H679 C615 0.930 . S
H680 C619 0.930 . S
H681 C620 0.961 . S
H682 C620 0.960 . S
H683 C620 0.958 . S
H684 C621 0.961 . S
H685 C621 0.960 . S
H686 C621 0.960 . S
H687 C623 0.980 . S
H688 C622 0.961 . S
H689 C622 0.961 . S
H690 C622 0.959 . S
H691 C625 0.932 . S
H692 C629 0.929 . S
H693 C630 0.961 . S
H694 C630 0.959 . S
H695 C630 0.959 . S
H696 C631 0.960 . S
H697 C631 0.962 . S
H698 C631 0.961 . S
H699 C633 0.929 . S
H700 C636 0.930 . S
H701 C637 0.929 . S
H702 C640 0.930 . S
H703 C643 0.929 . S
H704 C644 0.930 . S
H705 C648 0.962 . S
H706 C648 0.959 . S
H707 C648 0.958 . S
C708 C709 1.560 . S
C708 H769 0.959 . S
C708 H770 0.959 . S
C708 H771 0.960 . S
C709 C708 1.560 . S
C709 O764 1.426 . S
C709 H768 0.980 . S
C710 C711 1.407 . S
C710 C715 1.418 . S
C710 O764 1.334 . S
C711 C710 1.407 . S
C711 C712 1.360 . S
C711 H772 0.929 . S
C712 C711 1.360 . S
C712 C713 1.401 . S
C712 C716 1.527 . S
C713 C712 1.401 . S
C713 C714 1.405 . S
C713 C746 1.587 . S
C714 C713 1.405 . S
C714 C715 1.332 . S
C714 C717 1.496 . S
C715 C710 1.418 . S
C715 C714 1.332 . S
C715 H773 0.929 . S
C716 C712 1.527 . S
C716 H774 0.959 . S
C716 H775 0.961 . S
C716 H776 0.961 . S
C717 C714 1.496 . S
C717 H777 0.960 . S
C717 H778 0.960 . S
C717 H779 0.961 . S
C718 C719 1.517 . S
C718 H781 0.961 . S
C718 H782 0.960 . S
C718 H783 0.959 . S
C719 C718 1.517 . S
C719 O767 1.468 . S
C719 H780 0.980 . S
C720 C721 1.349 . S
C720 C725 1.367 . S
C720 O767 1.408 . S
C721 C720 1.349 . S
C721 C722 1.407 . S
C721 H784 0.930 . S
C722 C721 1.407 . S
C722 C723 1.449 . S
C722 C726 1.535 . S
C723 C722 1.449 . S
C723 C724 1.384 . S
C723 C748 1.553 . S
C724 C723 1.384 . S
C724 C725 1.364 . S
C724 C727 1.450 . S
C725 C720 1.367 . S
C725 C724 1.364 . S
C725 H785 0.931 . S
C726 C722 1.535 . S
C726 H786 0.959 . S
C726 H787 0.961 . S
C726 H788 0.959 . S
C727 C724 1.450 . S
C727 H789 0.960 . S
C727 H790 0.960 . S
C727 H791 0.960 . S
C728 C729 1.309 . S
C728 C733 1.304 . S
C728 O766 1.435 . S
C729 C728 1.309 . S
C729 C730 1.476 . S
C729 H793 0.930 . S
C730 C729 1.476 . S
C730 C731 1.400 . S
C730 C734 1.567 . S
C731 C730 1.400 . S
C731 C732 1.373 . S
C731 C753 1.432 . S
C732 C731 1.373 . S
C732 C733 1.339 . S
C732 C735 1.530 . S
C733 C728 1.304 . S
C733 C732 1.339 . S
C733 H794 0.930 . S
C734 C730 1.567 . S
C734 H795 0.961 . S
C734 H796 0.960 . S
C734 H797 0.958 . S
C735 C732 1.530 . S
C735 H798 0.961 . S
C735 H799 0.960 . S
C735 H800 0.960 . S
C736 C737 1.530 . S
C736 H802 0.961 . S
C736 H803 0.961 . S
C736 H804 0.959 . S
C737 C736 1.530 . S
C737 O765 1.412 . S
C737 H801 0.980 . S
C738 C739 1.288 . S
C738 C743 1.377 . S
C738 O765 1.393 . S
C739 C738 1.288 . S
C739 C740 1.369 . S
C739 H805 0.932 . S
C740 C739 1.369 . S
C740 C741 1.398 . S
C740 C744 1.527 . S
C741 C740 1.398 . S
C741 C742 1.380 . S
C741 C755 1.497 . S
C742 C741 1.380 . S
C742 C743 1.383 . S
C742 C745 1.603 . S
C743 C738 1.377 . S
C743 C742 1.383 . S
C743 H806 0.929 . S
C744 C740 1.527 . S
C744 H807 0.961 . S
C744 H808 0.959 . S
C744 H809 0.959 . S
C745 C742 1.603 . S
C745 H810 0.960 . S
C745 H811 0.962 . S
C745 H812 0.961 . S
C746 C713 1.587 . S
C746 C747 1.360 . S
C746 C759 1.412 . S
C747 C746 1.360 . S
C747 C748 1.365 . S
C747 H813 0.929 . S
C748 C723 1.553 . S
C748 C747 1.365 . S
C748 C749 1.404 . S
C749 C748 1.404 . S
C749 C750 1.395 . S
C749 C760 1.451 . S
C750 C749 1.395 . S
C750 C751 1.322 . S
C750 H814 0.930 . S
C751 C750 1.322 . S
C751 C752 1.459 . S
C751 H815 0.929 . S
C752 C751 1.459 . S
C752 C753 1.445 . S
C752 C761 1.395 . S
C753 C731 1.432 . S
C753 C752 1.445 . S
C753 C754 1.370 . S
C754 C753 1.370 . S
C754 C755 1.438 . S
C754 H816 0.930 . S
C755 C741 1.497 . S
C755 C754 1.438 . S
C755 C756 1.360 . S
C756 C755 1.360 . S
C756 C757 1.401 . S
C756 C761 1.446 . S
C757 C756 1.401 . S
C757 C758 1.347 . S
C757 H817 0.929 . S
C758 C757 1.347 . S
C758 C759 1.455 . S
C758 H818 0.930 . S
C759 C746 1.412 . S
C759 C758 1.455 . S
C759 C760 1.331 . S
C760 C749 1.451 . S
C760 C759 1.331 . S
C760 C761 1.497 . S
C761 C752 1.395 . S
C761 C756 1.446 . S
C761 C760 1.497 . S
C762 C763 1.582 . S
C762 H819 0.962 . S
C762 H820 0.959 . S
C762 H821 0.958 . S
C763 C762 1.582 . S
C763 O766 1.458 . S
C763 H792 0.980 . S
O764 C709 1.426 . S
O764 C710 1.334 . S
O765 C737 1.412 . S
O765 C738 1.393 . S
O766 C728 1.435 . S
O766 C763 1.458 . S
O767 C719 1.468 . S
O767 C720 1.408 . S
H768 C709 0.980 . S
H769 C708 0.959 . S
H770 C708 0.959 . S
H771 C708 0.960 . S
H772 C711 0.929 . S
H773 C715 0.929 . S
H774 C716 0.959 . S
H775 C716 0.961 . S
H776 C716 0.961 . S
H777 C717 0.960 . S
H778 C717 0.960 . S
H779 C717 0.961 . S
H780 C719 0.980 . S
H781 C718 0.961 . S
H782 C718 0.960 . S
H783 C718 0.959 . S
H784 C721 0.930 . S
H785 C725 0.931 . S
H786 C726 0.959 . S
H787 C726 0.961 . S
H788 C726 0.959 . S
H789 C727 0.960 . S
H790 C727 0.960 . S
H791 C727 0.960 . S
H792 C763 0.980 . S
H793 C729 0.930 . S
H794 C733 0.930 . S
H795 C734 0.961 . S
H796 C734 0.960 . S
H797 C734 0.958 . S
H798 C735 0.961 . S
H799 C735 0.960 . S
H800 C735 0.960 . S
H801 C737 0.980 . S
H802 C736 0.961 . S
H803 C736 0.961 . S
H804 C736 0.959 . S
H805 C739 0.932 . S
H806 C743 0.929 . S
H807 C744 0.961 . S
H808 C744 0.959 . S
H809 C744 0.959 . S
H810 C745 0.960 . S
H811 C745 0.962 . S
H812 C745 0.961 . S
H813 C747 0.929 . S
H814 C750 0.930 . S
H815 C751 0.929 . S
H816 C754 0.930 . S
H817 C757 0.929 . S
H818 C758 0.930 . S
H819 C762 0.962 . S
H820 C762 0.959 . S
H821 C762 0.958 . S
C822 C823 1.560 . S
C822 H883 0.959 . S
C822 H884 0.959 . S
C822 H885 0.960 . S
C823 C822 1.560 . S
C823 O878 1.426 . S
C823 H882 0.980 . S
C824 C825 1.407 . S
C824 C829 1.418 . S
C824 O878 1.334 . S
C825 C824 1.407 . S
C825 C826 1.360 . S
C825 H886 0.929 . S
C826 C825 1.360 . S
C826 C827 1.401 . S
C826 C830 1.527 . S
C827 C826 1.401 . S
C827 C828 1.405 . S
C827 C860 1.587 . S
C828 C827 1.405 . S
C828 C829 1.332 . S
C828 C831 1.496 . S
C829 C824 1.418 . S
C829 C828 1.332 . S
C829 H887 0.929 . S
C830 C826 1.527 . S
C830 H888 0.959 . S
C830 H889 0.961 . S
C830 H890 0.961 . S
C831 C828 1.496 . S
C831 H891 0.960 . S
C831 H892 0.960 . S
C831 H893 0.961 . S
C832 C833 1.517 . S
C832 H895 0.961 . S
C832 H896 0.960 . S
C832 H897 0.959 . S
C833 C832 1.517 . S
C833 O881 1.468 . S
C833 H894 0.980 . S
C834 C835 1.349 . S
C834 C839 1.367 . S
C834 O881 1.408 . S
C835 C834 1.349 . S
C835 C836 1.407 . S
C835 H898 0.930 . S
C836 C835 1.407 . S
C836 C837 1.449 . S
C836 C840 1.535 . S
C837 C836 1.449 . S
C837 C838 1.384 . S
C837 C862 1.553 . S
C838 C837 1.384 . S
C838 C839 1.364 . S
C838 C841 1.450 . S
C839 C834 1.367 . S
C839 C838 1.364 . S
C839 H899 0.931 . S
C840 C836 1.535 . S
C840 H900 0.959 . S
C840 H901 0.961 . S
C840 H902 0.959 . S
C841 C838 1.450 . S
C841 H903 0.960 . S
C841 H904 0.960 . S
C841 H905 0.960 . S
C842 C843 1.309 . S
C842 C847 1.304 . S
C842 O880 1.435 . S
C843 C842 1.309 . S
C843 C844 1.476 . S
C843 H907 0.930 . S
C844 C843 1.476 . S
C844 C845 1.400 . S
C844 C848 1.567 . S
C845 C844 1.400 . S
C845 C846 1.373 . S
C845 C867 1.432 . S
C846 C845 1.373 . S
C846 C847 1.339 . S
C846 C849 1.530 . S
C847 C842 1.304 . S
C847 C846 1.339 . S
C847 H908 0.930 . S
C848 C844 1.567 . S
C848 H909 0.961 . S
C848 H910 0.960 . S
C848 H911 0.958 . S
C849 C846 1.530 . S
C849 H912 0.961 . S
C849 H913 0.960 . S
C849 H914 0.960 . S
C850 C851 1.530 . S
C850 H916 0.961 . S
C850 H917 0.961 . S
C850 H918 0.959 . S
C851 C850 1.530 . S
C851 O879 1.412 . S
C851 H915 0.980 . S
C852 C853 1.288 . S
C852 C857 1.377 . S
C852 O879 1.393 . S
C853 C852 1.288 . S
C853 C854 1.369 . S
C853 H919 0.932 . S
C854 C853 1.369 . S
C854 C855 1.398 . S
C854 C858 1.527 . S
C855 C854 1.398 . S
C855 C856 1.380 . S
C855 C869 1.497 . S
C856 C855 1.380 . S
C856 C857 1.383 . S
C856 C859 1.603 . S
C857 C852 1.377 . S
C857 C856 1.383 . S
C857 H920 0.929 . S
C858 C854 1.527 . S
C858 H921 0.961 . S
C858 H922 0.959 . S
C858 H923 0.959 . S
C859 C856 1.603 . S
C859 H924 0.960 . S
C859 H925 0.962 . S
C859 H926 0.961 . S
C860 C827 1.587 . S
C860 C861 1.360 . S
C860 C873 1.412 . S
C861 C860 1.360 . S
C861 C862 1.365 . S
C861 H927 0.929 . S
C862 C837 1.553 . S
C862 C861 1.365 . S
C862 C863 1.404 . S
C863 C862 1.404 . S
C863 C864 1.395 . S
C863 C874 1.451 . S
C864 C863 1.395 . S
C864 C865 1.322 . S
C864 H928 0.930 . S
C865 C864 1.322 . S
C865 C866 1.459 . S
C865 H929 0.929 . S
C866 C865 1.459 . S
C866 C867 1.445 . S
C866 C875 1.395 . S
C867 C845 1.432 . S
C867 C866 1.445 . S
C867 C868 1.370 . S
C868 C867 1.370 . S
C868 C869 1.438 . S
C868 H930 0.930 . S
C869 C855 1.497 . S
C869 C868 1.438 . S
C869 C870 1.360 . S
C870 C869 1.360 . S
C870 C871 1.401 . S
C870 C875 1.446 . S
C871 C870 1.401 . S
C871 C872 1.347 . S
C871 H931 0.929 . S
C872 C871 1.347 . S
C872 C873 1.455 . S
C872 H932 0.930 . S
C873 C860 1.412 . S
C873 C872 1.455 . S
C873 C874 1.331 . S
C874 C863 1.451 . S
C874 C873 1.331 . S
C874 C875 1.497 . S
C875 C866 1.395 . S
C875 C870 1.446 . S
C875 C874 1.497 . S
C876 C877 1.582 . S
C876 H933 0.962 . S
C876 H934 0.959 . S
C876 H935 0.958 . S
C877 C876 1.582 . S
C877 O880 1.458 . S
C877 H906 0.980 . S
O878 C823 1.426 . S
O878 C824 1.334 . S
O879 C851 1.412 . S
O879 C852 1.393 . S
O880 C842 1.435 . S
O880 C877 1.458 . S
O881 C833 1.468 . S
O881 C834 1.408 . S
H882 C823 0.980 . S
H883 C822 0.959 . S
H884 C822 0.959 . S
H885 C822 0.960 . S
H886 C825 0.929 . S
H887 C829 0.929 . S
H888 C830 0.959 . S
H889 C830 0.961 . S
H890 C830 0.961 . S
H891 C831 0.960 . S
H892 C831 0.960 . S
H893 C831 0.961 . S
H894 C833 0.980 . S
H895 C832 0.961 . S
H896 C832 0.960 . S
H897 C832 0.959 . S
H898 C835 0.930 . S
H899 C839 0.931 . S
H900 C840 0.959 . S
H901 C840 0.961 . S
H902 C840 0.959 . S
H903 C841 0.960 . S
H904 C841 0.960 . S
H905 C841 0.960 . S
H906 C877 0.980 . S
H907 C843 0.930 . S
H908 C847 0.930 . S
H909 C848 0.961 . S
H910 C848 0.960 . S
H911 C848 0.958 . S
H912 C849 0.961 . S
H913 C849 0.960 . S
H914 C849 0.960 . S
H915 C851 0.980 . S
H916 C850 0.961 . S
H917 C850 0.961 . S
H918 C850 0.959 . S
H919 C853 0.932 . S
H920 C857 0.929 . S
H921 C858 0.961 . S
H922 C858 0.959 . S
H923 C858 0.959 . S
H924 C859 0.960 . S
H925 C859 0.962 . S
H926 C859 0.961 . S
H927 C861 0.929 . S
H928 C864 0.930 . S
H929 C865 0.929 . S
H930 C868 0.930 . S
H931 C871 0.929 . S
H932 C872 0.930 . S
H933 C876 0.962 . S
H934 C876 0.959 . S
H935 C876 0.958 . S
C936 C937 1.560 . S
C936 H997 0.959 . S
C936 H998 0.959 . S
C936 H999 0.960 . S
C937 C936 1.560 . S
C937 O992 1.426 . S
C937 H996 0.980 . S
C938 C939 1.407 . S
C938 C943 1.418 . S
C938 O992 1.334 . S
C939 C938 1.407 . S
C939 C940 1.360 . S
C939 H1000 0.929 . S
C940 C939 1.360 . S
C940 C941 1.401 . S
C940 C944 1.527 . S
C941 C940 1.401 . S
C941 C942 1.405 . S
C941 C974 1.587 . S
C942 C941 1.405 . S
C942 C943 1.332 . S
C942 C945 1.496 . S
C943 C938 1.418 . S
C943 C942 1.332 . S
C943 H1001 0.929 . S
C944 C940 1.527 . S
C944 H1002 0.959 . S
C944 H1003 0.961 . S
C944 H1004 0.961 . S
C945 C942 1.496 . S
C945 H1005 0.960 . S
C945 H1006 0.960 . S
C945 H1007 0.961 . S
C946 C947 1.517 . S
C946 H1009 0.961 . S
C946 H1010 0.960 . S
C946 H1011 0.959 . S
C947 C946 1.517 . S
C947 O995 1.468 . S
C947 H1008 0.980 . S
C948 C949 1.349 . S
C948 C953 1.367 . S
C948 O995 1.408 . S
C949 C948 1.349 . S
C949 C950 1.407 . S
C949 H1012 0.930 . S
C950 C949 1.407 . S
C950 C951 1.449 . S
C950 C954 1.535 . S
C951 C950 1.449 . S
C951 C952 1.384 . S
C951 C976 1.553 . S
C952 C951 1.384 . S
C952 C953 1.364 . S
C952 C955 1.450 . S
C953 C948 1.367 . S
C953 C952 1.364 . S
C953 H1013 0.931 . S
C954 C950 1.535 . S
C954 H1014 0.959 . S
C954 H1015 0.961 . S
C954 H1016 0.959 . S
C955 C952 1.450 . S
C955 H1017 0.960 . S
C955 H1018 0.960 . S
C955 H1019 0.960 . S
C956 C957 1.309 . S
C956 C961 1.304 . S
C956 O994 1.435 . S
C957 C956 1.309 . S
C957 C958 1.476 . S
C957 H1021 0.930 . S
C958 C957 1.476 . S
C958 C959 1.400 . S
C958 C962 1.567 . S
C959 C958 1.400 . S
C959 C960 1.373 . S
C959 C981 1.432 . S
C960 C959 1.373 . S
C960 C961 1.339 . S
C960 C963 1.530 . S
C961 C956 1.304 . S
C961 C960 1.339 . S
C961 H1022 0.930 . S
C962 C958 1.567 . S
C962 H1023 0.961 . S
C962 H1024 0.960 . S
C962 H1025 0.958 . S
C963 C960 1.530 . S
C963 H1026 0.961 . S
C963 H1027 0.960 . S
C963 H1028 0.960 . S
C964 C965 1.530 . S
C964 H1030 0.961 . S
C964 H1031 0.961 . S
C964 H1032 0.959 . S
C965 C964 1.530 . S
C965 O993 1.412 . S
C965 H1029 0.980 . S
C966 C967 1.288 . S
C966 C971 1.377 . S
C966 O993 1.393 . S
C967 C966 1.288 . S
C967 C968 1.369 . S
C967 H1033 0.932 . S
C968 C967 1.369 . S
C968 C969 1.398 . S
C968 C972 1.527 . S
C969 C968 1.398 . S
C969 C970 1.380 . S
C969 C983 1.497 . S
C970 C969 1.380 . S
C970 C971 1.383 . S
C970 C973 1.603 . S
C971 C966 1.377 . S
C971 C970 1.383 . S
C971 H1034 0.929 . S
C972 C968 1.527 . S
C972 H1035 0.961 . S
C972 H1036 0.959 . S
C972 H1037 0.959 . S
C973 C970 1.603 . S
C973 H1038 0.960 . S
C973 H1039 0.962 . S
C973 H1040 0.961 . S
C974 C941 1.587 . S
C974 C975 1.360 . S
C974 C987 1.412 . S
C975 C974 1.360 . S
C975 C976 1.365 . S
C975 H1041 0.929 . S
C976 C951 1.553 . S
C976 C975 1.365 . S
C976 C977 1.404 . S
C977 C976 1.404 . S
C977 C978 1.395 . S
C977 C988 1.451 . S
C978 C977 1.395 . S
C978 C979 1.322 . S
C978 H1042 0.930 . S
C979 C978 1.322 . S
C979 C980 1.459 . S
C979 H1043 0.929 . S
C980 C979 1.459 . S
C980 C981 1.445 . S
C980 C989 1.395 . S
C981 C959 1.432 . S
C981 C980 1.445 . S
C981 C982 1.370 . S
C982 C981 1.370 . S
C982 C983 1.438 . S
C982 H1044 0.930 . S
C983 C969 1.497 . S
C983 C982 1.438 . S
C983 C984 1.360 . S
C984 C983 1.360 . S
C984 C985 1.401 . S
C984 C989 1.446 . S
C985 C984 1.401 . S
C985 C986 1.347 . S
C985 H1045 0.929 . S
C986 C985 1.347 . S
C986 C987 1.455 . S
C986 H1046 0.930 . S
C987 C974 1.412 . S
C987 C986 1.455 . S
C987 C988 1.331 . S
C988 C977 1.451 . S
C988 C987 1.331 . S
C988 C989 1.497 . S
C989 C980 1.395 . S
C989 C984 1.446 . S
C989 C988 1.497 . S
C990 C991 1.582 . S
C990 H1047 0.962 . S
C990 H1048 0.959 . S
C990 H1049 0.958 . S
C991 C990 1.582 . S
C991 O994 1.458 . S
C991 H1020 0.980 . S
O992 C937 1.426 . S
O992 C938 1.334 . S
O993 C965 1.412 . S
O993 C966 1.393 . S
O994 C956 1.435 . S
O994 C991 1.458 . S
O995 C947 1.468 . S
O995 C948 1.408 . S
H996 C937 0.980 . S
H997 C936 0.959 . S
H998 C936 0.959 . S
H999 C936 0.960 . S
H1000 C939 0.929 . S
H1001 C943 0.929 . S
H1002 C944 0.959 . S
H1003 C944 0.961 . S
H1004 C944 0.961 . S
H1005 C945 0.960 . S
H1006 C945 0.960 . S
H1007 C945 0.961 . S
H1008 C947 0.980 . S
H1009 C946 0.961 . S
H1010 C946 0.960 . S
H1011 C946 0.959 . S
H1012 C949 0.930 . S
H1013 C953 0.931 . S
H1014 C954 0.959 . S
H1015 C954 0.961 . S
H1016 C954 0.959 . S
H1017 C955 0.960 . S
H1018 C955 0.960 . S
H1019 C955 0.960 . S
H1020 C991 0.980 . S
H1021 C957 0.930 . S
H1022 C961 0.930 . S
H1023 C962 0.961 . S
H1024 C962 0.960 . S
H1025 C962 0.958 . S
H1026 C963 0.961 . S
H1027 C963 0.960 . S
H1028 C963 0.960 . S
H1029 C965 0.980 . S
H1030 C964 0.961 . S
H1031 C964 0.961 . S
H1032 C964 0.959 . S
H1033 C967 0.932 . S
H1034 C971 0.929 . S
H1035 C972 0.961 . S
H1036 C972 0.959 . S
H1037 C972 0.959 . S
H1038 C973 0.960 . S
H1039 C973 0.962 . S
H1040 C973 0.961 . S
H1041 C975 0.929 . S
H1042 C978 0.930 . S
H1043 C979 0.929 . S
H1044 C982 0.930 . S
H1045 C985 0.929 . S
H1046 C986 0.930 . S
H1047 C990 0.962 . S
H1048 C990 0.959 . S
H1049 C990 0.958 . S
C1050 C1051 1.560 . S
C1050 H1111 0.959 . S
C1050 H1112 0.959 . S
C1050 H1113 0.960 . S
C1051 C1050 1.560 . S
C1051 O1106 1.426 . S
C1051 H1110 0.980 . S
C1052 C1053 1.407 . S
C1052 C1057 1.418 . S
C1052 O1106 1.334 . S
C1053 C1052 1.407 . S
C1053 C1054 1.360 . S
C1053 H1114 0.929 . S
C1054 C1053 1.360 . S
C1054 C1055 1.401 . S
C1054 C1058 1.527 . S
C1055 C1054 1.401 . S
C1055 C1056 1.405 . S
C1055 C1088 1.587 . S
C1056 C1055 1.405 . S
C1056 C1057 1.332 . S
C1056 C1059 1.496 . S
C1057 C1052 1.418 . S
C1057 C1056 1.332 . S
C1057 H1115 0.929 . S
C1058 C1054 1.527 . S
C1058 H1116 0.959 . S
C1058 H1117 0.961 . S
C1058 H1118 0.961 . S
C1059 C1056 1.496 . S
C1059 H1119 0.960 . S
C1059 H1120 0.960 . S
C1059 H1121 0.961 . S
C1060 C1061 1.517 . S
C1060 H1123 0.961 . S
C1060 H1124 0.960 . S
C1060 H1125 0.959 . S
C1061 C1060 1.517 . S
C1061 O1109 1.468 . S
C1061 H1122 0.980 . S
C1062 C1063 1.349 . S
C1062 C1067 1.367 . S
C1062 O1109 1.408 . S
C1063 C1062 1.349 . S
C1063 C1064 1.407 . S
C1063 H1126 0.930 . S
C1064 C1063 1.407 . S
C1064 C1065 1.449 . S
C1064 C1068 1.535 . S
C1065 C1064 1.449 . S
C1065 C1066 1.384 . S
C1065 C1090 1.553 . S
C1066 C1065 1.384 . S
C1066 C1067 1.364 . S
C1066 C1069 1.450 . S
C1067 C1062 1.367 . S
C1067 C1066 1.364 . S
C1067 H1127 0.931 . S
C1068 C1064 1.535 . S
C1068 H1128 0.959 . S
C1068 H1129 0.961 . S
C1068 H1130 0.959 . S
C1069 C1066 1.450 . S
C1069 H1131 0.960 . S
C1069 H1132 0.960 . S
C1069 H1133 0.960 . S
C1070 C1071 1.309 . S
C1070 C1075 1.304 . S
C1070 O1108 1.435 . S
C1071 C1070 1.309 . S
C1071 C1072 1.476 . S
C1071 H1135 0.930 . S
C1072 C1071 1.476 . S
C1072 C1073 1.400 . S
C1072 C1076 1.567 . S
C1073 C1072 1.400 . S
C1073 C1074 1.373 . S
C1073 C1095 1.432 . S
C1074 C1073 1.373 . S
C1074 C1075 1.339 . S
C1074 C1077 1.530 . S
C1075 C1070 1.304 . S
C1075 C1074 1.339 . S
C1075 H1136 0.930 . S
C1076 C1072 1.567 . S
C1076 H1137 0.961 . S
C1076 H1138 0.960 . S
C1076 H1139 0.958 . S
C1077 C1074 1.530 . S
C1077 H1140 0.961 . S
C1077 H1141 0.960 . S
C1077 H1142 0.960 . S
C1078 C1079 1.530 . S
C1078 H1144 0.961 . S
C1078 H1145 0.961 . S
C1078 H1146 0.959 . S
C1079 C1078 1.530 . S
C1079 O1107 1.412 . S
C1079 H1143 0.980 . S
C1080 C1081 1.288 . S
C1080 C1085 1.377 . S
C1080 O1107 1.393 . S
C1081 C1080 1.288 . S
C1081 C1082 1.369 . S
C1081 H1147 0.932 . S
C1082 C1081 1.369 . S
C1082 C1083 1.398 . S
C1082 C1086 1.527 . S
C1083 C1082 1.398 . S
C1083 C1084 1.380 . S
C1083 C1097 1.497 . S
C1084 C1083 1.380 . S
C1084 C1085 1.383 . S
C1084 C1087 1.603 . S
C1085 C1080 1.377 . S
C1085 C1084 1.383 . S
C1085 H1148 0.929 . S
C1086 C1082 1.527 . S
C1086 H1149 0.961 . S
C1086 H1150 0.959 . S
C1086 H1151 0.959 . S
C1087 C1084 1.603 . S
C1087 H1152 0.960 . S
C1087 H1153 0.962 . S
C1087 H1154 0.961 . S
C1088 C1055 1.587 . S
C1088 C1089 1.360 . S
C1088 C1101 1.412 . S
C1089 C1088 1.360 . S
C1089 C1090 1.365 . S
C1089 H1155 0.929 . S
C1090 C1065 1.553 . S
C1090 C1089 1.365 . S
C1090 C1091 1.404 . S
C1091 C1090 1.404 . S
C1091 C1092 1.395 . S
C1091 C1102 1.451 . S
C1092 C1091 1.395 . S
C1092 C1093 1.322 . S
C1092 H1156 0.930 . S
C1093 C1092 1.322 . S
C1093 C1094 1.459 . S
C1093 H1157 0.929 . S
C1094 C1093 1.459 . S
C1094 C1095 1.445 . S
C1094 C1103 1.395 . S
C1095 C1073 1.432 . S
C1095 C1094 1.445 . S
C1095 C1096 1.370 . S
C1096 C1095 1.370 . S
C1096 C1097 1.438 . S
C1096 H1158 0.930 . S
C1097 C1083 1.497 . S
C1097 C1096 1.438 . S
C1097 C1098 1.360 . S
C1098 C1097 1.360 . S
C1098 C1099 1.401 . S
C1098 C1103 1.446 . S
C1099 C1098 1.401 . S
C1099 C1100 1.347 . S
C1099 H1159 0.929 . S
C1100 C1099 1.347 . S
C1100 C1101 1.455 . S
C1100 H1160 0.930 . S
C1101 C1088 1.412 . S
C1101 C1100 1.455 . S
C1101 C1102 1.331 . S
C1102 C1091 1.451 . S
C1102 C1101 1.331 . S
C1102 C1103 1.497 . S
C1103 C1094 1.395 . S
C1103 C1098 1.446 . S
C1103 C1102 1.497 . S
C1104 C1105 1.582 . S
C1104 H1161 0.962 . S
C1104 H1162 0.959 . S
C1104 H1163 0.958 . S
C1105 C1104 1.582 . S
C1105 O1108 1.458 . S
C1105 H1134 0.980 . S
O1106 C1051 1.426 . S
O1106 C1052 1.334 . S
O1107 C1079 1.412 . S
O1107 C1080 1.393 . S
O1108 C1070 1.435 . S
O1108 C1105 1.458 . S
O1109 C1061 1.468 . S
O1109 C1062 1.408 . S
H1110 C1051 0.980 . S
H1111 C1050 0.959 . S
H1112 C1050 0.959 . S
H1113 C1050 0.960 . S
H1114 C1053 0.929 . S
H1115 C1057 0.929 . S
H1116 C1058 0.959 . S
H1117 C1058 0.961 . S
H1118 C1058 0.961 . S
H1119 C1059 0.960 . S
H1120 C1059 0.960 . S
H1121 C1059 0.961 . S
H1122 C1061 0.980 . S
H1123 C1060 0.961 . S
H1124 C1060 0.960 . S
H1125 C1060 0.959 . S
H1126 C1063 0.930 . S
H1127 C1067 0.931 . S
H1128 C1068 0.959 . S
H1129 C1068 0.961 . S
H1130 C1068 0.959 . S
H1131 C1069 0.960 . S
H1132 C1069 0.960 . S
H1133 C1069 0.960 . S
H1134 C1105 0.980 . S
H1135 C1071 0.930 . S
H1136 C1075 0.930 . S
H1137 C1076 0.961 . S
H1138 C1076 0.960 . S
H1139 C1076 0.958 . S
H1140 C1077 0.961 . S
H1141 C1077 0.960 . S
H1142 C1077 0.960 . S
H1143 C1079 0.980 . S
H1144 C1078 0.961 . S
H1145 C1078 0.961 . S
H1146 C1078 0.959 . S
H1147 C1081 0.932 . S
H1148 C1085 0.929 . S
H1149 C1086 0.961 . S
H1150 C1086 0.959 . S
H1151 C1086 0.959 . S
H1152 C1087 0.960 . S
H1153 C1087 0.962 . S
H1154 C1087 0.961 . S
H1155 C1089 0.929 . S
H1156 C1092 0.930 . S
H1157 C1093 0.929 . S
H1158 C1096 0.930 . S
H1159 C1099 0.929 . S
H1160 C1100 0.930 . S
H1161 C1104 0.962 . S
H1162 C1104 0.959 . S
H1163 C1104 0.958 . S
C1164 C1165 1.560 . S
C1164 H1225 0.959 . S
C1164 H1226 0.959 . S
C1164 H1227 0.960 . S
C1165 C1164 1.560 . S
C1165 O1220 1.426 . S
C1165 H1224 0.980 . S
C1166 C1167 1.407 . S
C1166 C1171 1.418 . S
C1166 O1220 1.334 . S
C1167 C1166 1.407 . S
C1167 C1168 1.360 . S
C1167 H1228 0.929 . S
C1168 C1167 1.360 . S
C1168 C1169 1.401 . S
C1168 C1172 1.527 . S
C1169 C1168 1.401 . S
C1169 C1170 1.405 . S
C1169 C1202 1.587 . S
C1170 C1169 1.405 . S
C1170 C1171 1.332 . S
C1170 C1173 1.496 . S
C1171 C1166 1.418 . S
C1171 C1170 1.332 . S
C1171 H1229 0.929 . S
C1172 C1168 1.527 . S
C1172 H1230 0.959 . S
C1172 H1231 0.961 . S
C1172 H1232 0.961 . S
C1173 C1170 1.496 . S
C1173 H1233 0.960 . S
C1173 H1234 0.960 . S
C1173 H1235 0.961 . S
C1174 C1175 1.517 . S
C1174 H1237 0.961 . S
C1174 H1238 0.960 . S
C1174 H1239 0.959 . S
C1175 C1174 1.517 . S
C1175 O1223 1.468 . S
C1175 H1236 0.980 . S
C1176 C1177 1.349 . S
C1176 C1181 1.367 . S
C1176 O1223 1.408 . S
C1177 C1176 1.349 . S
C1177 C1178 1.407 . S
C1177 H1240 0.930 . S
C1178 C1177 1.407 . S
C1178 C1179 1.449 . S
C1178 C1182 1.535 . S
C1179 C1178 1.449 . S
C1179 C1180 1.384 . S
C1179 C1204 1.553 . S
C1180 C1179 1.384 . S
C1180 C1181 1.364 . S
C1180 C1183 1.450 . S
C1181 C1176 1.367 . S
C1181 C1180 1.364 . S
C1181 H1241 0.931 . S
C1182 C1178 1.535 . S
C1182 H1242 0.959 . S
C1182 H1243 0.961 . S
C1182 H1244 0.959 . S
C1183 C1180 1.450 . S
C1183 H1245 0.960 . S
C1183 H1246 0.960 . S
C1183 H1247 0.960 . S
C1184 C1185 1.309 . S
C1184 C1189 1.304 . S
C1184 O1222 1.435 . S
C1185 C1184 1.309 . S
C1185 C1186 1.476 . S
C1185 H1249 0.930 . S
C1186 C1185 1.476 . S
C1186 C1187 1.400 . S
C1186 C1190 1.567 . S
C1187 C1186 1.400 . S
C1187 C1188 1.373 . S
C1187 C1209 1.432 . S
C1188 C1187 1.373 . S
C1188 C1189 1.339 . S
C1188 C1191 1.530 . S
C1189 C1184 1.304 . S
C1189 C1188 1.339 . S
C1189 H1250 0.930 . S
C1190 C1186 1.567 . S
C1190 H1251 0.961 . S
C1190 H1252 0.960 . S
C1190 H1253 0.958 . S
C1191 C1188 1.530 . S
C1191 H1254 0.961 . S
C1191 H1255 0.960 . S
C1191 H1256 0.960 . S
C1192 C1193 1.530 . S
C1192 H1258 0.961 . S
C1192 H1259 0.961 . S
C1192 H1260 0.959 . S
C1193 C1192 1.530 . S
C1193 O1221 1.412 . S
C1193 H1257 0.980 . S
C1194 C1195 1.288 . S
C1194 C1199 1.377 . S
C1194 O1221 1.393 . S
C1195 C1194 1.288 . S
C1195 C1196 1.369 . S
C1195 H1261 0.932 . S
C1196 C1195 1.369 . S
C1196 C1197 1.398 . S
C1196 C1200 1.527 . S
C1197 C1196 1.398 . S
C1197 C1198 1.380 . S
C1197 C1211 1.497 . S
C1198 C1197 1.380 . S
C1198 C1199 1.383 . S
C1198 C1201 1.603 . S
C1199 C1194 1.377 . S
C1199 C1198 1.383 . S
C1199 H1262 0.929 . S
C1200 C1196 1.527 . S
C1200 H1263 0.961 . S
C1200 H1264 0.959 . S
C1200 H1265 0.959 . S
C1201 C1198 1.603 . S
C1201 H1266 0.960 . S
C1201 H1267 0.962 . S
C1201 H1268 0.961 . S
C1202 C1169 1.587 . S
C1202 C1203 1.360 . S
C1202 C1215 1.412 . S
C1203 C1202 1.360 . S
C1203 C1204 1.365 . S
C1203 H1269 0.929 . S
C1204 C1179 1.553 . S
C1204 C1203 1.365 . S
C1204 C1205 1.404 . S
C1205 C1204 1.404 . S
C1205 C1206 1.395 . S
C1205 C1216 1.451 . S
C1206 C1205 1.395 . S
C1206 C1207 1.322 . S
C1206 H1270 0.930 . S
C1207 C1206 1.322 . S
C1207 C1208 1.459 . S
C1207 H1271 0.929 . S
C1208 C1207 1.459 . S
C1208 C1209 1.445 . S
C1208 C1217 1.395 . S
C1209 C1187 1.432 . S
C1209 C1208 1.445 . S
C1209 C1210 1.370 . S
C1210 C1209 1.370 . S
C1210 C1211 1.438 . S
C1210 H1272 0.930 . S
C1211 C1197 1.497 . S
C1211 C1210 1.438 . S
C1211 C1212 1.360 . S
C1212 C1211 1.360 . S
C1212 C1213 1.401 . S
C1212 C1217 1.446 . S
C1213 C1212 1.401 . S
C1213 C1214 1.347 . S
C1213 H1273 0.929 . S
C1214 C1213 1.347 . S
C1214 C1215 1.455 . S
C1214 H1274 0.930 . S
C1215 C1202 1.412 . S
C1215 C1214 1.455 . S
C1215 C1216 1.331 . S
C1216 C1205 1.451 . S
C1216 C1215 1.331 . S
C1216 C1217 1.497 . S
C1217 C1208 1.395 . S
C1217 C1212 1.446 . S
C1217 C1216 1.497 . S
C1218 C1219 1.582 . S
C1218 H1275 0.962 . S
C1218 H1276 0.959 . S
C1218 H1277 0.958 . S
C1219 C1218 1.582 . S
C1219 O1222 1.458 . S
C1219 H1248 0.980 . S
O1220 C1165 1.426 . S
O1220 C1166 1.334 . S
O1221 C1193 1.412 . S
O1221 C1194 1.393 . S
O1222 C1184 1.435 . S
O1222 C1219 1.458 . S
O1223 C1175 1.468 . S
O1223 C1176 1.408 . S
H1224 C1165 0.980 . S
H1225 C1164 0.959 . S
H1226 C1164 0.959 . S
H1227 C1164 0.960 . S
H1228 C1167 0.929 . S
H1229 C1171 0.929 . S
H1230 C1172 0.959 . S
H1231 C1172 0.961 . S
H1232 C1172 0.961 . S
H1233 C1173 0.960 . S
H1234 C1173 0.960 . S
H1235 C1173 0.961 . S
H1236 C1175 0.980 . S
H1237 C1174 0.961 . S
H1238 C1174 0.960 . S
H1239 C1174 0.959 . S
H1240 C1177 0.930 . S
H1241 C1181 0.931 . S
H1242 C1182 0.959 . S
H1243 C1182 0.961 . S
H1244 C1182 0.959 . S
H1245 C1183 0.960 . S
H1246 C1183 0.960 . S
H1247 C1183 0.960 . S
H1248 C1219 0.980 . S
H1249 C1185 0.930 . S
H1250 C1189 0.930 . S
H1251 C1190 0.961 . S
H1252 C1190 0.960 . S
H1253 C1190 0.958 . S
H1254 C1191 0.961 . S
H1255 C1191 0.960 . S
H1256 C1191 0.960 . S
H1257 C1193 0.980 . S
H1258 C1192 0.961 . S
H1259 C1192 0.961 . S
H1260 C1192 0.959 . S
H1261 C1195 0.932 . S
H1262 C1199 0.929 . S
H1263 C1200 0.961 . S
H1264 C1200 0.959 . S
H1265 C1200 0.959 . S
H1266 C1201 0.960 . S
H1267 C1201 0.962 . S
H1268 C1201 0.961 . S
H1269 C1203 0.929 . S
H1270 C1206 0.930 . S
H1271 C1207 0.929 . S
H1272 C1210 0.930 . S
H1273 C1213 0.929 . S
H1274 C1214 0.930 . S
H1275 C1218 0.962 . S
H1276 C1218 0.959 . S
H1277 C1218 0.958 . S
C1278 C1279 1.560 . S
C1278 H1339 0.959 . S
C1278 H1340 0.959 . S
C1278 H1341 0.960 . S
C1279 C1278 1.560 . S
C1279 O1334 1.426 . S
C1279 H1338 0.980 . S
C1280 C1281 1.407 1_455 S
C1280 C1285 1.418 . S
C1280 O1334 1.334 . S
C1281 C1280 1.407 1_655 S
C1281 C1282 1.360 . S
C1281 H1342 0.929 . S
C1282 C1281 1.360 . S
C1282 C1283 1.401 1_655 S
C1282 C1286 1.527 . S
C1283 C1282 1.401 1_455 S
C1283 C1284 1.405 . S
C1283 C1316 1.587 1_455 S
C1284 C1283 1.405 . S
C1284 C1285 1.332 . S
C1284 C1287 1.496 . S
C1285 C1280 1.418 . S
C1285 C1284 1.332 . S
C1285 H1343 0.929 . S
C1286 C1282 1.527 . S
C1286 H1344 0.959 . S
C1286 H1345 0.961 . S
C1286 H1346 0.961 . S
C1287 C1284 1.496 . S
C1287 H1347 0.960 . S
C1287 H1348 0.960 . S
C1287 H1349 0.961 . S
C1288 C1289 1.517 . S
C1288 H1351 0.961 . S
C1288 H1352 0.960 . S
C1288 H1353 0.959 . S
C1289 C1288 1.517 . S
C1289 O1337 1.468 . S
C1289 H1350 0.980 1_655 S
C1290 C1291 1.349 . S
C1290 C1295 1.367 . S
C1290 O1337 1.408 . S
C1291 C1290 1.349 . S
C1291 C1292 1.374 1_655 S
C1291 H1354 0.930 1_655 S
C1292 C1291 1.374 1_455 S
C1292 C1293 1.422 1_455 S
C1292 C1296 1.591 . S
C1293 C1292 1.422 1_655 S
C1293 C1294 1.384 . S
C1293 C1318 1.553 . S
C1294 C1293 1.384 . S
C1294 C1295 1.364 . S
C1294 C1297 1.450 . S
C1295 C1290 1.367 . S
C1295 C1294 1.364 . S
C1295 H1355 0.931 . S
C1296 C1292 1.591 . S
C1296 H1356 0.959 . S
C1296 H1357 0.961 . S
C1296 H1358 0.959 . S
C1297 C1294 1.450 . S
C1297 H1359 0.960 . S
C1297 H1360 0.960 . S
C1297 H1361 0.960 . S
C1298 C1299 1.309 . S
C1298 C1303 1.304 . S
C1298 O1336 1.435 . S
C1299 C1298 1.309 . S
C1299 C1300 1.472 . S
C1299 H1363 0.930 1_655 S
C1300 C1299 1.472 . S
C1300 C1301 1.398 . S
C1300 C1304 1.572 1_655 S
C1301 C1300 1.398 . S
C1301 C1302 1.373 . S
C1301 C1323 1.432 . S
C1302 C1301 1.373 . S
C1302 C1303 1.339 . S
C1302 C1305 1.530 . S
C1303 C1298 1.304 . S
C1303 C1302 1.339 . S
C1303 H1364 0.930 . S
C1304 C1300 1.572 1_455 S
C1304 H1365 0.961 . S
C1304 H1366 0.960 . S
C1304 H1367 0.958 . S
C1305 C1302 1.530 . S
C1305 H1368 0.961 . S
C1305 H1369 0.960 . S
C1305 H1370 0.960 . S
C1306 C1307 1.547 . S
C1306 H1372 0.961 . S
C1306 H1373 0.961 . S
C1306 H1374 0.959 . S
C1307 C1306 1.547 . S
C1307 O1335 1.415 . S
C1307 H1371 0.976 1_455 S
C1308 C1309 1.288 . S
C1308 C1313 1.377 1_455 S
C1308 O1335 1.393 . S
C1309 C1308 1.288 . S
C1309 C1310 1.369 . S
C1309 H1375 0.932 . S
C1310 C1309 1.369 . S
C1310 C1311 1.398 1_455 S
C1310 C1314 1.527 . S
C1311 C1310 1.398 1_655 S
C1311 C1312 1.380 . S
C1311 C1325 1.497 . S
C1312 C1311 1.380 . S
C1312 C1313 1.383 . S
C1312 C1315 1.603 . S
C1313 C1308 1.377 1_655 S
C1313 C1312 1.383 . S
C1313 H1376 0.929 . S
C1314 C1310 1.527 . S
C1314 H1377 0.961 . S
C1314 H1378 0.959 . S
C1314 H1379 0.959 . S
C1315 C1312 1.603 . S
C1315 H1380 0.960 . S
C1315 H1381 0.962 . S
C1315 H1382 0.961 . S
C1316 C1283 1.587 1_655 S
C1316 C1317 1.360 . S
C1316 C1329 1.412 . S
C1317 C1316 1.360 . S
C1317 C1318 1.365 . S
C1317 H1383 0.929 . S
C1318 C1293 1.553 . S
C1318 C1317 1.365 . S
C1318 C1319 1.404 . S
C1319 C1318 1.404 . S
C1319 C1320 1.395 . S
C1319 C1330 1.451 . S
C1320 C1319 1.395 . S
C1320 C1321 1.322 . S
C1320 H1384 0.930 . S
C1321 C1320 1.322 . S
C1321 C1322 1.459 . S
C1321 H1385 0.929 . S
C1322 C1321 1.459 . S
C1322 C1323 1.445 . S
C1322 C1331 1.395 . S
C1323 C1301 1.432 . S
C1323 C1322 1.445 . S
C1323 C1324 1.370 . S
C1324 C1323 1.370 . S
C1324 C1325 1.438 . S
C1324 H1386 0.930 . S
C1325 C1311 1.497 . S
C1325 C1324 1.438 . S
C1325 C1326 1.360 . S
C1326 C1325 1.360 . S
C1326 C1327 1.401 . S
C1326 C1331 1.446 . S
C1327 C1326 1.401 . S
C1327 C1328 1.347 . S
C1327 H1387 0.929 . S
C1328 C1327 1.347 . S
C1328 C1329 1.455 . S
C1328 H1388 0.930 . S
C1329 C1316 1.412 . S
C1329 C1328 1.455 . S
C1329 C1330 1.331 . S
C1330 C1319 1.451 . S
C1330 C1329 1.331 . S
C1330 C1331 1.497 . S
C1331 C1322 1.395 . S
C1331 C1326 1.446 . S
C1331 C1330 1.497 . S
C1332 C1333 1.582 . S
C1332 H1389 0.962 . S
C1332 H1390 0.959 . S
C1332 H1391 0.958 . S
C1333 C1332 1.582 . S
C1333 O1336 1.458 . S
C1333 H1362 0.980 . S
O1334 C1279 1.426 . S
O1334 C1280 1.334 . S
O1335 C1307 1.415 . S
O1335 C1308 1.393 . S
O1336 C1298 1.435 . S
O1336 C1333 1.458 . S
O1337 C1289 1.468 . S
O1337 C1290 1.408 . S
H1338 C1279 0.980 . S
H1339 C1278 0.959 . S
H1340 C1278 0.959 . S
H1341 C1278 0.960 . S
H1342 C1281 0.929 . S
H1343 C1285 0.929 . S
H1344 C1286 0.959 . S
H1345 C1286 0.961 . S
H1346 C1286 0.961 . S
H1347 C1287 0.960 . S
H1348 C1287 0.960 . S
H1349 C1287 0.961 . S
H1350 C1289 0.980 1_455 S
H1351 C1288 0.961 . S
H1352 C1288 0.960 . S
H1353 C1288 0.959 . S
H1354 C1291 0.930 1_455 S
H1355 C1295 0.931 . S
H1356 C1296 0.959 . S
H1357 C1296 0.961 . S
H1358 C1296 0.959 . S
H1359 C1297 0.960 . S
H1360 C1297 0.960 . S
H1361 C1297 0.960 . S
H1362 C1333 0.980 . S
H1363 C1299 0.930 1_455 S
H1364 C1303 0.930 . S
H1365 C1304 0.961 . S
H1366 C1304 0.960 . S
H1367 C1304 0.958 . S
H1368 C1305 0.961 . S
H1369 C1305 0.960 . S
H1370 C1305 0.960 . S
H1371 C1307 0.976 1_655 S
H1372 C1306 0.961 . S
H1373 C1306 0.961 . S
H1374 C1306 0.959 . S
H1375 C1309 0.932 . S
H1376 C1313 0.929 . S
H1377 C1314 0.961 . S
H1378 C1314 0.959 . S
H1379 C1314 0.959 . S
H1380 C1315 0.960 . S
H1381 C1315 0.962 . S
H1382 C1315 0.961 . S
H1383 C1317 0.929 . S
H1384 C1320 0.930 . S
H1385 C1321 0.929 . S
H1386 C1324 0.930 . S
H1387 C1327 0.929 . S
H1388 C1328 0.930 . S
H1389 C1332 0.962 . S
H1390 C1332 0.959 . S
H1391 C1332 0.958 . S
C1392 C1393 1.560 . S
C1392 H1453 0.959 . S
C1392 H1454 0.959 . S
C1392 H1455 0.960 . S
C1393 C1392 1.560 . S
C1393 O1448 1.426 . S
C1393 H1452 0.980 . S
C1394 C1395 1.407 . S
C1394 C1399 1.418 . S
C1394 O1448 1.334 . S
C1395 C1394 1.407 . S
C1395 C1396 1.360 . S
C1395 H1456 0.929 . S
C1396 C1395 1.360 . S
C1396 C1397 1.401 . S
C1396 C1400 1.527 . S
C1397 C1396 1.401 . S
C1397 C1398 1.405 . S
C1397 C1430 1.587 . S
C1398 C1397 1.405 . S
C1398 C1399 1.332 . S
C1398 C1401 1.496 . S
C1399 C1394 1.418 . S
C1399 C1398 1.332 . S
C1399 H1457 0.929 . S
C1400 C1396 1.527 . S
C1400 H1458 0.959 . S
C1400 H1459 0.961 . S
C1400 H1460 0.961 . S
C1401 C1398 1.496 . S
C1401 H1461 0.960 . S
C1401 H1462 0.960 . S
C1401 H1463 0.961 . S
C1402 C1403 1.517 . S
C1402 H1465 0.961 . S
C1402 H1466 0.960 . S
C1402 H1467 0.959 . S
C1403 C1402 1.517 . S
C1403 O1451 1.468 . S
C1403 H1464 0.980 . S
C1404 C1405 1.349 . S
C1404 C1409 1.367 . S
C1404 O1451 1.408 . S
C1405 C1404 1.349 . S
C1405 C1406 1.407 . S
C1405 H1468 0.930 . S
C1406 C1405 1.407 . S
C1406 C1407 1.449 . S
C1406 C1410 1.535 . S
C1407 C1406 1.449 . S
C1407 C1408 1.384 . S
C1407 C1432 1.553 . S
C1408 C1407 1.384 . S
C1408 C1409 1.364 . S
C1408 C1411 1.450 . S
C1409 C1404 1.367 . S
C1409 C1408 1.364 . S
C1409 H1469 0.931 . S
C1410 C1406 1.535 . S
C1410 H1470 0.959 . S
C1410 H1471 0.961 . S
C1410 H1472 0.959 . S
C1411 C1408 1.450 . S
C1411 H1473 0.960 . S
C1411 H1474 0.960 . S
C1411 H1475 0.960 . S
C1412 C1413 1.309 . S
C1412 C1417 1.304 . S
C1412 O1450 1.435 . S
C1413 C1412 1.309 . S
C1413 C1414 1.476 . S
C1413 H1477 0.930 . S
C1414 C1413 1.476 . S
C1414 C1415 1.400 . S
C1414 C1418 1.567 . S
C1415 C1414 1.400 . S
C1415 C1416 1.373 . S
C1415 C1437 1.432 . S
C1416 C1415 1.373 . S
C1416 C1417 1.339 . S
C1416 C1419 1.530 . S
C1417 C1412 1.304 . S
C1417 C1416 1.339 . S
C1417 H1478 0.930 . S
C1418 C1414 1.567 . S
C1418 H1479 0.961 . S
C1418 H1480 0.960 . S
C1418 H1481 0.958 . S
C1419 C1416 1.530 . S
C1419 H1482 0.961 . S
C1419 H1483 0.960 . S
C1419 H1484 0.960 . S
C1420 C1421 1.530 . S
C1420 H1486 0.961 . S
C1420 H1487 0.961 . S
C1420 H1488 0.959 . S
C1421 C1420 1.530 . S
C1421 O1449 1.412 . S
C1421 H1485 0.980 . S
C1422 C1423 1.288 . S
C1422 C1427 1.377 . S
C1422 O1449 1.393 . S
C1423 C1422 1.288 . S
C1423 C1424 1.369 . S
C1423 H1489 0.932 . S
C1424 C1423 1.369 . S
C1424 C1425 1.398 . S
C1424 C1428 1.527 . S
C1425 C1424 1.398 . S
C1425 C1426 1.380 . S
C1425 C1439 1.497 . S
C1426 C1425 1.380 . S
C1426 C1427 1.383 . S
C1426 C1429 1.603 . S
C1427 C1422 1.377 . S
C1427 C1426 1.383 . S
C1427 H1490 0.929 . S
C1428 C1424 1.527 . S
C1428 H1491 0.961 . S
C1428 H1492 0.959 . S
C1428 H1493 0.959 . S
C1429 C1426 1.603 . S
C1429 H1494 0.960 . S
C1429 H1495 0.962 . S
C1429 H1496 0.961 . S
C1430 C1397 1.587 . S
C1430 C1431 1.360 . S
C1430 C1443 1.412 . S
C1431 C1430 1.360 . S
C1431 C1432 1.365 . S
C1431 H1497 0.929 . S
C1432 C1407 1.553 . S
C1432 C1431 1.365 . S
C1432 C1433 1.404 . S
C1433 C1432 1.404 . S
C1433 C1434 1.395 . S
C1433 C1444 1.451 . S
C1434 C1433 1.395 . S
C1434 C1435 1.322 . S
C1434 H1498 0.930 . S
C1435 C1434 1.322 . S
C1435 C1436 1.459 . S
C1435 H1499 0.929 . S
C1436 C1435 1.459 . S
C1436 C1437 1.445 . S
C1436 C1445 1.395 . S
C1437 C1415 1.432 . S
C1437 C1436 1.445 . S
C1437 C1438 1.370 . S
C1438 C1437 1.370 . S
C1438 C1439 1.438 . S
C1438 H1500 0.930 . S
C1439 C1425 1.497 . S
C1439 C1438 1.438 . S
C1439 C1440 1.360 . S
C1440 C1439 1.360 . S
C1440 C1441 1.401 . S
C1440 C1445 1.446 . S
C1441 C1440 1.401 . S
C1441 C1442 1.347 . S
C1441 H1501 0.929 . S
C1442 C1441 1.347 . S
C1442 C1443 1.455 . S
C1442 H1502 0.930 . S
C1443 C1430 1.412 . S
C1443 C1442 1.455 . S
C1443 C1444 1.331 . S
C1444 C1433 1.451 . S
C1444 C1443 1.331 . S
C1444 C1445 1.497 . S
C1445 C1436 1.395 . S
C1445 C1440 1.446 . S
C1445 C1444 1.497 . S
C1446 C1447 1.582 . S
C1446 H1503 0.962 . S
C1446 H1504 0.959 . S
C1446 H1505 0.958 . S
C1447 C1446 1.582 . S
C1447 O1450 1.458 . S
C1447 H1476 0.980 . S
O1448 C1393 1.426 . S
O1448 C1394 1.334 . S
O1449 C1421 1.412 . S
O1449 C1422 1.393 . S
O1450 C1412 1.435 . S
O1450 C1447 1.458 . S
O1451 C1403 1.468 . S
O1451 C1404 1.408 . S
H1452 C1393 0.980 . S
H1453 C1392 0.959 . S
H1454 C1392 0.959 . S
H1455 C1392 0.960 . S
H1456 C1395 0.929 . S
H1457 C1399 0.929 . S
H1458 C1400 0.959 . S
H1459 C1400 0.961 . S
H1460 C1400 0.961 . S
H1461 C1401 0.960 . S
H1462 C1401 0.960 . S
H1463 C1401 0.961 . S
H1464 C1403 0.980 . S
H1465 C1402 0.961 . S
H1466 C1402 0.960 . S
H1467 C1402 0.959 . S
H1468 C1405 0.930 . S
H1469 C1409 0.931 . S
H1470 C1410 0.959 . S
H1471 C1410 0.961 . S
H1472 C1410 0.959 . S
H1473 C1411 0.960 . S
H1474 C1411 0.960 . S
H1475 C1411 0.960 . S
H1476 C1447 0.980 . S
H1477 C1413 0.930 . S
H1478 C1417 0.930 . S
H1479 C1418 0.961 . S
H1480 C1418 0.960 . S
H1481 C1418 0.958 . S
H1482 C1419 0.961 . S
H1483 C1419 0.960 . S
H1484 C1419 0.960 . S
H1485 C1421 0.980 . S
H1486 C1420 0.961 . S
H1487 C1420 0.961 . S
H1488 C1420 0.959 . S
H1489 C1423 0.932 . S
H1490 C1427 0.929 . S
H1491 C1428 0.961 . S
H1492 C1428 0.959 . S
H1493 C1428 0.959 . S
H1494 C1429 0.960 . S
H1495 C1429 0.962 . S
H1496 C1429 0.961 . S
H1497 C1431 0.929 . S
H1498 C1434 0.930 . S
H1499 C1435 0.929 . S
H1500 C1438 0.930 . S
H1501 C1441 0.929 . S
H1502 C1442 0.930 . S
H1503 C1446 0.962 . S
H1504 C1446 0.959 . S
H1505 C1446 0.958 . S
C1506 C1507 1.560 . S
C1506 H1567 0.959 . S
C1506 H1568 0.959 . S
C1506 H1569 0.960 . S
C1507 C1506 1.560 . S
C1507 O1562 1.426 . S
C1507 H1566 0.980 . S
C1508 C1509 1.407 1_565 S
C1508 C1513 1.418 . S
C1508 O1562 1.334 . S
C1509 C1508 1.407 1_545 S
C1509 C1510 1.360 . S
C1509 H1570 0.929 . S
C1510 C1509 1.360 . S
C1510 C1511 1.401 1_545 S
C1510 C1514 1.527 . S
C1511 C1510 1.401 1_565 S
C1511 C1512 1.405 . S
C1511 C1544 1.587 1_565 S
C1512 C1511 1.405 . S
C1512 C1513 1.332 . S
C1512 C1515 1.496 . S
C1513 C1508 1.418 . S
C1513 C1512 1.332 . S
C1513 H1571 0.929 . S
C1514 C1510 1.527 . S
C1514 H1572 0.959 . S
C1514 H1573 0.961 . S
C1514 H1574 0.961 . S
C1515 C1512 1.496 . S
C1515 H1575 0.960 . S
C1515 H1576 0.960 . S
C1515 H1577 0.961 . S
C1516 C1517 1.517 . S
C1516 H1579 0.961 1_545 S
C1516 H1580 0.960 . S
C1516 H1581 0.959 . S
C1517 C1516 1.517 . S
C1517 O1565 1.468 . S
C1517 H1578 0.980 1_545 S
C1518 C1519 1.363 . S
C1518 C1523 1.367 . S
C1518 O1565 1.408 . S
C1519 C1518 1.363 . S
C1519 C1520 1.416 1_545 S
C1519 H1582 0.908 1_545 S
C1520 C1519 1.416 1_565 S
C1520 C1521 1.449 1_565 S
C1520 C1524 1.535 . S
C1521 C1520 1.449 1_545 S
C1521 C1522 1.384 . S
C1521 C1546 1.553 . S
C1522 C1521 1.384 . S
C1522 C1523 1.364 . S
C1522 C1525 1.450 . S
C1523 C1518 1.367 . S
C1523 C1522 1.364 . S
C1523 H1583 0.931 . S
C1524 C1520 1.535 . S
C1524 H1584 0.959 . S
C1524 H1585 0.961 . S
C1524 H1586 0.959 . S
C1525 C1522 1.450 . S
C1525 H1587 0.960 . S
C1525 H1588 0.960 . S
C1525 H1589 0.960 . S
C1526 C1527 1.309 . S
C1526 C1531 1.304 . S
C1526 O1564 1.435 . S
C1527 C1526 1.309 . S
C1527 C1528 1.492 1_545 S
C1527 H1591 0.930 1_545 S
C1528 C1527 1.492 1_565 S
C1528 C1529 1.348 1_565 S
C1528 C1532 1.603 . S
C1529 C1528 1.348 1_545 S
C1529 C1530 1.373 . S
C1529 C1551 1.432 . S
C1530 C1529 1.373 . S
C1530 C1531 1.339 . S
C1530 C1533 1.530 . S
C1531 C1526 1.304 . S
C1531 C1530 1.339 . S
C1531 H1592 0.930 . S
C1532 C1528 1.603 . S
C1532 H1593 0.961 . S
C1532 H1594 0.960 . S
C1532 H1595 0.958 . S
C1533 C1530 1.530 . S
C1533 H1596 0.961 . S
C1533 H1597 0.960 . S
C1533 H1598 0.960 . S
C1534 C1535 1.530 1_565 S
C1534 H1600 0.961 . S
C1534 H1601 0.961 . S
C1534 H1602 0.959 . S
C1535 C1534 1.530 1_545 S
C1535 O1563 1.412 1_545 S
C1535 H1599 0.980 . S
C1536 C1537 1.288 . S
C1536 C1541 1.377 1_565 S
C1536 O1563 1.393 . S
C1537 C1536 1.288 . S
C1537 C1538 1.369 . S
C1537 H1603 0.932 . S
C1538 C1537 1.369 . S
C1538 C1539 1.398 1_565 S
C1538 C1542 1.527 . S
C1539 C1538 1.398 1_545 S
C1539 C1540 1.380 . S
C1539 C1553 1.497 . S
C1540 C1539 1.380 . S
C1540 C1541 1.383 . S
C1540 C1543 1.603 . S
C1541 C1536 1.377 1_545 S
C1541 C1540 1.383 . S
C1541 H1604 0.929 . S
C1542 C1538 1.527 . S
C1542 H1605 0.961 . S
C1542 H1606 0.959 . S
C1542 H1607 0.959 . S
C1543 C1540 1.603 . S
C1543 H1608 0.960 . S
C1543 H1609 0.962 . S
C1543 H1610 0.961 . S
C1544 C1511 1.587 1_545 S
C1544 C1545 1.360 . S
C1544 C1557 1.412 . S
C1545 C1544 1.360 . S
C1545 C1546 1.365 . S
C1545 H1611 0.929 . S
C1546 C1521 1.553 . S
C1546 C1545 1.365 . S
C1546 C1547 1.404 . S
C1547 C1546 1.404 . S
C1547 C1548 1.395 . S
C1547 C1558 1.451 . S
C1548 C1547 1.395 . S
C1548 C1549 1.322 . S
C1548 H1612 0.930 . S
C1549 C1548 1.322 . S
C1549 C1550 1.459 . S
C1549 H1613 0.929 . S
C1550 C1549 1.459 . S
C1550 C1551 1.445 . S
C1550 C1559 1.395 . S
C1551 C1529 1.432 . S
C1551 C1550 1.445 . S
C1551 C1552 1.370 . S
C1552 C1551 1.370 . S
C1552 C1553 1.438 . S
C1552 H1614 0.930 . S
C1553 C1539 1.497 . S
C1553 C1552 1.438 . S
C1553 C1554 1.360 . S
C1554 C1553 1.360 . S
C1554 C1555 1.401 . S
C1554 C1559 1.446 . S
C1555 C1554 1.401 . S
C1555 C1556 1.347 . S
C1555 H1615 0.929 . S
C1556 C1555 1.347 . S
C1556 C1557 1.455 . S
C1556 H1616 0.930 . S
C1557 C1544 1.412 . S
C1557 C1556 1.455 . S
C1557 C1558 1.331 . S
C1558 C1547 1.451 . S
C1558 C1557 1.331 . S
C1558 C1559 1.497 . S
C1559 C1550 1.395 . S
C1559 C1554 1.446 . S
C1559 C1558 1.497 . S
C1560 C1561 1.582 . S
C1560 H1617 0.962 . S
C1560 H1618 0.959 . S
C1560 H1619 0.958 . S
C1561 C1560 1.582 . S
C1561 O1564 1.458 . S
C1561 H1590 0.980 . S
O1562 C1507 1.426 . S
O1562 C1508 1.334 . S
O1563 C1535 1.412 1_565 S
O1563 C1536 1.393 . S
O1564 C1526 1.435 . S
O1564 C1561 1.458 . S
O1565 C1517 1.468 . S
O1565 C1518 1.408 . S
H1566 C1507 0.980 . S
H1567 C1506 0.959 . S
H1568 C1506 0.959 . S
H1569 C1506 0.960 . S
H1570 C1509 0.929 . S
H1571 C1513 0.929 . S
H1572 C1514 0.959 . S
H1573 C1514 0.961 . S
H1574 C1514 0.961 . S
H1575 C1515 0.960 . S
H1576 C1515 0.960 . S
H1577 C1515 0.961 . S
H1578 C1517 0.980 1_565 S
H1579 C1516 0.961 1_565 S
H1580 C1516 0.960 . S
H1581 C1516 0.959 . S
H1582 C1519 0.908 1_565 S
H1583 C1523 0.931 . S
H1584 C1524 0.959 . S
H1585 C1524 0.961 . S
H1586 C1524 0.959 . S
H1587 C1525 0.960 . S
H1588 C1525 0.960 . S
H1589 C1525 0.960 . S
H1590 C1561 0.980 . S
H1591 C1527 0.930 1_565 S
H1592 C1531 0.930 . S
H1593 C1532 0.961 . S
H1594 C1532 0.960 . S
H1595 C1532 0.958 . S
H1596 C1533 0.961 . S
H1597 C1533 0.960 . S
H1598 C1533 0.960 . S
H1599 C1535 0.980 . S
H1600 C1534 0.961 . S
H1601 C1534 0.961 . S
H1602 C1534 0.959 . S
H1603 C1537 0.932 . S
H1604 C1541 0.929 . S
H1605 C1542 0.961 . S
H1606 C1542 0.959 . S
H1607 C1542 0.959 . S
H1608 C1543 0.960 . S
H1609 C1543 0.962 . S
H1610 C1543 0.961 . S
H1611 C1545 0.929 . S
H1612 C1548 0.930 . S
H1613 C1549 0.929 . S
H1614 C1552 0.930 . S
H1615 C1555 0.929 . S
H1616 C1556 0.930 . S
H1617 C1560 0.962 . S
H1618 C1560 0.959 . S
H1619 C1560 0.958 . S
C1620 C1621 1.560 . S
C1620 H1681 0.959 . S
C1620 H1682 0.959 . S
C1620 H1683 0.960 . S
C1621 C1620 1.560 . S
C1621 O1676 1.426 . S
C1621 H1680 0.980 1_565 S
C1622 C1623 1.407 1_565 S
C1622 C1627 1.418 . S
C1622 O1676 1.334 . S
C1623 C1622 1.407 1_545 S
C1623 C1624 1.360 . S
C1623 H1684 0.929 . S
C1624 C1623 1.360 . S
C1624 C1625 1.401 . S
C1624 C1628 1.527 . S
C1625 C1624 1.401 . S
C1625 C1626 1.405 1_545 S
C1625 C1658 1.587 . S
C1626 C1625 1.405 1_565 S
C1626 C1627 1.332 . S
C1626 C1629 1.496 . S
C1627 C1622 1.418 . S
C1627 C1626 1.332 . S
C1627 H1685 0.929 . S
C1628 C1624 1.527 . S
C1628 H1686 0.959 . S
C1628 H1687 0.961 . S
C1628 H1688 0.961 . S
C1629 C1626 1.496 . S
C1629 H1689 0.960 . S
C1629 H1690 0.960 . S
C1629 H1691 0.961 . S
C1630 C1631 1.517 . S
C1630 H1693 0.961 . S
C1630 H1694 0.960 . S
C1630 H1695 0.959 . S
C1631 C1630 1.517 . S
C1631 O1679 1.468 . S
C1631 H1692 0.980 . S
C1632 C1633 1.349 . S
C1632 C1637 1.367 . S
C1632 O1679 1.408 . S
C1633 C1632 1.349 . S
C1633 C1634 1.407 . S
C1633 H1696 0.932 . S
C1634 C1633 1.407 . S
C1634 C1635 1.449 . S
C1634 C1638 1.535 1_545 S
C1635 C1634 1.449 . S
C1635 C1636 1.384 . S
C1635 C1660 1.553 . S
C1636 C1635 1.384 . S
C1636 C1637 1.364 . S
C1636 C1639 1.450 . S
C1637 C1632 1.367 . S
C1637 C1636 1.364 . S
C1637 H1697 0.931 . S
C1638 C1634 1.535 1_565 S
C1638 H1698 0.959 . S
C1638 H1699 0.961 . S
C1638 H1700 0.959 . S
C1639 C1636 1.450 . S
C1639 H1701 0.960 . S
C1639 H1702 0.960 . S
C1639 H1703 0.960 . S
C1640 C1641 1.309 1_545 S
C1640 C1645 1.304 . S
C1640 O1678 1.435 . S
C1641 C1640 1.309 1_565 S
C1641 C1642 1.476 . S
C1641 H1705 0.930 . S
C1642 C1641 1.476 . S
C1642 C1643 1.400 1_565 S
C1642 C1646 1.567 . S
C1643 C1642 1.400 1_545 S
C1643 C1644 1.373 . S
C1643 C1665 1.432 . S
C1644 C1643 1.373 . S
C1644 C1645 1.339 . S
C1644 C1647 1.530 . S
C1645 C1640 1.304 . S
C1645 C1644 1.339 . S
C1645 H1706 0.930 . S
C1646 C1642 1.567 . S
C1646 H1707 0.961 . S
C1646 H1708 0.960 . S
C1646 H1709 0.958 . S
C1647 C1644 1.530 . S
C1647 H1710 0.961 . S
C1647 H1711 0.960 . S
C1647 H1712 0.960 . S
C1648 C1649 1.530 . S
C1648 H1714 0.961 . S
C1648 H1715 0.961 . S
C1648 H1716 0.959 . S
C1649 C1648 1.530 . S
C1649 O1677 1.412 . S
C1649 H1713 0.980 . S
C1650 C1651 1.288 . S
C1650 C1655 1.377 1_565 S
C1650 O1677 1.393 . S
C1651 C1650 1.288 . S
C1651 C1652 1.369 . S
C1651 H1717 0.932 . S
C1652 C1651 1.369 . S
C1652 C1653 1.398 . S
C1652 C1656 1.527 . S
C1653 C1652 1.398 . S
C1653 C1654 1.380 1_565 S
C1653 C1667 1.497 1_565 S
C1654 C1653 1.380 1_545 S
C1654 C1655 1.383 . S
C1654 C1657 1.603 . S
C1655 C1650 1.377 1_545 S
C1655 C1654 1.383 . S
C1655 H1718 0.929 . S
C1656 C1652 1.527 . S
C1656 H1719 0.961 . S
C1656 H1720 0.959 . S
C1656 H1721 0.959 . S
C1657 C1654 1.603 . S
C1657 H1722 0.960 . S
C1657 H1723 0.962 . S
C1657 H1724 0.961 . S
C1658 C1625 1.587 . S
C1658 C1659 1.360 . S
C1658 C1671 1.412 . S
C1659 C1658 1.360 . S
C1659 C1660 1.365 . S
C1659 H1725 0.929 . S
C1660 C1635 1.553 . S
C1660 C1659 1.365 . S
C1660 C1661 1.404 . S
C1661 C1660 1.404 . S
C1661 C1662 1.395 . S
C1661 C1672 1.451 . S
C1662 C1661 1.395 . S
C1662 C1663 1.322 . S
C1662 H1726 0.930 . S
C1663 C1662 1.322 . S
C1663 C1664 1.459 . S
C1663 H1727 0.929 . S
C1664 C1663 1.459 . S
C1664 C1665 1.445 . S
C1664 C1673 1.395 . S
C1665 C1643 1.432 . S
C1665 C1664 1.445 . S
C1665 C1666 1.370 . S
C1666 C1665 1.370 . S
C1666 C1667 1.438 . S
C1666 H1728 0.930 . S
C1667 C1653 1.497 1_545 S
C1667 C1666 1.438 . S
C1667 C1668 1.360 . S
C1668 C1667 1.360 . S
C1668 C1669 1.401 . S
C1668 C1673 1.446 . S
C1669 C1668 1.401 . S
C1669 C1670 1.347 . S
C1669 H1729 0.953 . S
C1670 C1669 1.347 . S
C1670 C1671 1.455 . S
C1670 H1730 0.930 . S
C1671 C1658 1.412 . S
C1671 C1670 1.455 . S
C1671 C1672 1.331 . S
C1672 C1661 1.451 . S
C1672 C1671 1.331 . S
C1672 C1673 1.497 . S
C1673 C1664 1.395 . S
C1673 C1668 1.446 . S
C1673 C1672 1.497 . S
C1674 C1675 1.582 . S
C1674 H1731 0.962 . S
C1674 H1732 0.959 . S
C1674 H1733 0.958 . S
C1675 C1674 1.582 . S
C1675 O1678 1.458 . S
C1675 H1704 0.980 1_545 S
O1676 C1621 1.426 . S
O1676 C1622 1.334 . S
O1677 C1649 1.412 . S
O1677 C1650 1.393 . S
O1678 C1640 1.435 . S
O1678 C1675 1.458 . S
O1679 C1631 1.468 . S
O1679 C1632 1.408 . S
H1680 C1621 0.980 1_545 S
H1681 C1620 0.959 . S
H1682 C1620 0.959 . S
H1683 C1620 0.960 . S
H1684 C1623 0.929 . S
H1685 C1627 0.929 . S
H1686 C1628 0.959 . S
H1687 C1628 0.961 . S
H1688 C1628 0.961 . S
H1689 C1629 0.960 . S
H1690 C1629 0.960 . S
H1691 C1629 0.961 . S
H1692 C1631 0.980 . S
H1693 C1630 0.961 . S
H1694 C1630 0.960 . S
H1695 C1630 0.959 . S
H1696 C1633 0.932 . S
H1697 C1637 0.931 . S
H1698 C1638 0.959 . S
H1699 C1638 0.961 . S
H1700 C1638 0.959 . S
H1701 C1639 0.960 . S
H1702 C1639 0.960 . S
H1703 C1639 0.960 . S
H1704 C1675 0.980 1_565 S
H1705 C1641 0.930 . S
H1706 C1645 0.930 . S
H1707 C1646 0.961 . S
H1708 C1646 0.960 . S
H1709 C1646 0.958 . S
H1710 C1647 0.961 . S
H1711 C1647 0.960 . S
H1712 C1647 0.960 . S
H1713 C1649 0.980 . S
H1714 C1648 0.961 . S
H1715 C1648 0.961 . S
H1716 C1648 0.959 . S
H1717 C1651 0.932 . S
H1718 C1655 0.929 . S
H1719 C1656 0.961 . S
H1720 C1656 0.959 . S
H1721 C1656 0.959 . S
H1722 C1657 0.960 . S
H1723 C1657 0.962 . S
H1724 C1657 0.961 . S
H1725 C1659 0.929 . S
H1726 C1662 0.930 . S
H1727 C1663 0.929 . S
H1728 C1666 0.930 . S
H1729 C1669 0.953 . S
H1730 C1670 0.930 . S
H1731 C1674 0.962 . S
H1732 C1674 0.959 . S
H1733 C1674 0.958 . S
C1734 C1735 1.560 . S
C1734 H1795 0.959 . S
C1734 H1796 0.959 . S
C1734 H1797 0.960 . S
C1735 C1734 1.560 . S
C1735 O1790 1.426 . S
C1735 H1794 0.980 1_455 S
C1736 C1737 1.407 1_455 S
C1736 C1741 1.418 . S
C1736 O1790 1.334 . S
C1737 C1736 1.407 1_655 S
C1737 C1738 1.360 . S
C1737 H1798 0.929 . S
C1738 C1737 1.360 . S
C1738 C1739 1.401 . S
C1738 C1742 1.527 . S
C1739 C1738 1.401 . S
C1739 C1740 1.405 1_655 S
C1739 C1772 1.587 . S
C1740 C1739 1.405 1_455 S
C1740 C1741 1.332 . S
C1740 C1743 1.496 . S
C1741 C1736 1.418 . S
C1741 C1740 1.332 . S
C1741 H1799 0.929 . S
C1742 C1738 1.527 . S
C1742 H1800 0.959 . S
C1742 H1801 0.961 . S
C1742 H1802 0.961 . S
C1743 C1740 1.496 . S
C1743 H1803 0.960 . S
C1743 H1804 0.960 . S
C1743 H1805 0.961 . S
C1744 C1745 1.517 . S
C1744 H1807 0.961 . S
C1744 H1808 0.960 . S
C1744 H1809 0.959 . S
C1745 C1744 1.517 . S
C1745 O1793 1.468 . S
C1745 H1806 0.980 . S
C1746 C1747 1.349 . S
C1746 C1751 1.367 . S
C1746 O1793 1.408 . S
C1747 C1746 1.349 . S
C1747 C1748 1.407 . S
C1747 H1810 0.896 1_655 S
C1748 C1747 1.407 . S
C1748 C1749 1.449 . S
C1748 C1752 1.535 1_655 S
C1749 C1748 1.449 . S
C1749 C1750 1.384 . S
C1749 C1774 1.553 . S
C1750 C1749 1.384 . S
C1750 C1751 1.364 . S
C1750 C1753 1.450 . S
C1751 C1746 1.367 . S
C1751 C1750 1.364 . S
C1751 H1811 0.931 . S
C1752 C1748 1.535 1_455 S
C1752 H1812 0.959 . S
C1752 H1813 0.961 . S
C1752 H1814 0.959 . S
C1753 C1750 1.450 . S
C1753 H1815 0.960 . S
C1753 H1816 0.960 . S
C1753 H1817 0.960 . S
C1754 C1755 1.309 1_655 S
C1754 C1759 1.304 . S
C1754 O1792 1.435 . S
C1755 C1754 1.309 1_455 S
C1755 C1756 1.476 . S
C1755 H1819 0.930 . S
C1756 C1755 1.476 . S
C1756 C1757 1.400 1_455 S
C1756 C1760 1.567 . S
C1757 C1756 1.400 1_655 S
C1757 C1758 1.373 . S
C1757 C1779 1.432 . S
C1758 C1757 1.373 . S
C1758 C1759 1.339 . S
C1758 C1761 1.530 . S
C1759 C1754 1.304 . S
C1759 C1758 1.339 . S
C1759 H1820 0.930 . S
C1760 C1756 1.567 . S
C1760 H1821 0.961 . S
C1760 H1822 0.960 . S
C1760 H1823 0.958 . S
C1761 C1758 1.530 . S
C1761 H1824 0.961 . S
C1761 H1825 0.960 . S
C1761 H1826 0.960 . S
C1762 C1763 1.530 . S
C1762 H1828 0.961 . S
C1762 H1829 0.961 . S
C1762 H1830 0.959 . S
C1763 C1762 1.530 . S
C1763 O1791 1.412 . S
C1763 H1827 0.966 1_455 S
C1764 C1765 1.288 . S
C1764 C1769 1.377 1_455 S
C1764 O1791 1.393 . S
C1765 C1764 1.288 . S
C1765 C1766 1.369 . S
C1765 H1831 0.932 . S
C1766 C1765 1.369 . S
C1766 C1767 1.398 . S
C1766 C1770 1.527 . S
C1767 C1766 1.398 . S
C1767 C1768 1.380 1_455 S
C1767 C1781 1.497 1_455 S
C1768 C1767 1.380 1_655 S
C1768 C1769 1.383 . S
C1768 C1771 1.603 . S
C1769 C1764 1.377 1_655 S
C1769 C1768 1.383 . S
C1769 H1832 0.929 . S
C1770 C1766 1.527 . S
C1770 H1833 0.961 . S
C1770 H1834 0.959 . S
C1770 H1835 0.959 . S
C1771 C1768 1.603 . S
C1771 H1836 0.960 . S
C1771 H1837 0.962 . S
C1771 H1838 0.961 . S
C1772 C1739 1.587 . S
C1772 C1773 1.360 . S
C1772 C1785 1.412 . S
C1773 C1772 1.360 . S
C1773 C1774 1.365 . S
C1773 H1839 0.929 . S
C1774 C1749 1.553 . S
C1774 C1773 1.365 . S
C1774 C1775 1.404 . S
C1775 C1774 1.404 . S
C1775 C1776 1.395 . S
C1775 C1786 1.451 . S
C1776 C1775 1.395 . S
C1776 C1777 1.322 . S
C1776 H1840 0.930 . S
C1777 C1776 1.322 . S
C1777 C1778 1.459 . S
C1777 H1841 0.929 . S
C1778 C1777 1.459 . S
C1778 C1779 1.445 . S
C1778 C1787 1.395 . S
C1779 C1757 1.432 . S
C1779 C1778 1.445 . S
C1779 C1780 1.370 . S
C1780 C1779 1.370 . S
C1780 C1781 1.438 . S
C1780 H1842 0.930 . S
C1781 C1767 1.497 1_655 S
C1781 C1780 1.438 . S
C1781 C1782 1.360 . S
C1782 C1781 1.360 . S
C1782 C1783 1.401 . S
C1782 C1787 1.446 . S
C1783 C1782 1.401 . S
C1783 C1784 1.347 . S
C1783 H1843 0.929 . S
C1784 C1783 1.347 . S
C1784 C1785 1.455 . S
C1784 H1844 0.930 . S
C1785 C1772 1.412 . S
C1785 C1784 1.455 . S
C1785 C1786 1.331 . S
C1786 C1775 1.451 . S
C1786 C1785 1.331 . S
C1786 C1787 1.497 . S
C1787 C1778 1.395 . S
C1787 C1782 1.446 . S
C1787 C1786 1.497 . S
C1788 C1789 1.582 1_655 S
C1788 H1845 0.917 1_655 S
C1788 H1846 0.959 . S
C1788 H1847 0.958 . S
C1789 C1788 1.582 1_455 S
C1789 O1792 1.458 1_455 S
C1789 H1818 0.980 . S
O1790 C1735 1.426 . S
O1790 C1736 1.334 . S
O1791 C1763 1.412 . S
O1791 C1764 1.393 . S
O1792 C1754 1.435 . S
O1792 C1789 1.458 1_655 S
O1793 C1745 1.468 . S
O1793 C1746 1.408 . S
H1794 C1735 0.980 1_655 S
H1795 C1734 0.959 . S
H1796 C1734 0.959 . S
H1797 C1734 0.960 . S
H1798 C1737 0.929 . S
H1799 C1741 0.929 . S
H1800 C1742 0.959 . S
H1801 C1742 0.961 . S
H1802 C1742 0.961 . S
H1803 C1743 0.960 . S
H1804 C1743 0.960 . S
H1805 C1743 0.961 . S
H1806 C1745 0.980 . S
H1807 C1744 0.961 . S
H1808 C1744 0.960 . S
H1809 C1744 0.959 . S
H1810 C1747 0.896 1_455 S
H1811 C1751 0.931 . S
H1812 C1752 0.959 . S
H1813 C1752 0.961 . S
H1814 C1752 0.959 . S
H1815 C1753 0.960 . S
H1816 C1753 0.960 . S
H1817 C1753 0.960 . S
H1818 C1789 0.980 . S
H1819 C1755 0.930 . S
H1820 C1759 0.930 . S
H1821 C1760 0.961 . S
H1822 C1760 0.960 . S
H1823 C1760 0.958 . S
H1824 C1761 0.961 . S
H1825 C1761 0.960 . S
H1826 C1761 0.960 . S
H1827 C1763 0.966 1_655 S
H1828 C1762 0.961 . S
H1829 C1762 0.961 . S
H1830 C1762 0.959 . S
H1831 C1765 0.932 . S
H1832 C1769 0.929 . S
H1833 C1770 0.961 . S
H1834 C1770 0.959 . S
H1835 C1770 0.959 . S
H1836 C1771 0.960 . S
H1837 C1771 0.962 . S
H1838 C1771 0.961 . S
H1839 C1773 0.929 . S
H1840 C1776 0.930 . S
H1841 C1777 0.929 . S
H1842 C1780 0.930 . S
H1843 C1783 0.929 . S
H1844 C1784 0.930 . S
H1845 C1788 0.917 1_455 S
H1846 C1788 0.959 . S
H1847 C1788 0.958 . S
C1848 C1849 1.560 . S
C1848 H1909 0.959 . S
C1848 H1910 0.959 . S
C1848 H1911 0.960 . S
C1849 C1848 1.560 . S
C1849 O1904 1.426 . S
C1849 H1908 0.980 . S
C1850 C1851 1.407 . S
C1850 C1855 1.418 . S
C1850 O1904 1.334 . S
C1851 C1850 1.407 . S
C1851 C1852 1.360 . S
C1851 H1912 0.929 . S
C1852 C1851 1.360 . S
C1852 C1853 1.401 . S
C1852 C1856 1.527 . S
C1853 C1852 1.401 . S
C1853 C1854 1.405 . S
C1853 C1886 1.587 . S
C1854 C1853 1.405 . S
C1854 C1855 1.332 . S
C1854 C1857 1.496 . S
C1855 C1850 1.418 . S
C1855 C1854 1.332 . S
C1855 H1913 0.929 . S
C1856 C1852 1.527 . S
C1856 H1914 0.959 . S
C1856 H1915 0.961 . S
C1856 H1916 0.961 . S
C1857 C1854 1.496 . S
C1857 H1917 0.960 . S
C1857 H1918 0.960 . S
C1857 H1919 0.961 . S
C1858 C1859 1.517 . S
C1858 H1921 0.961 . S
C1858 H1922 0.960 . S
C1858 H1923 0.959 . S
C1859 C1858 1.517 . S
C1859 O1907 1.468 . S
C1859 H1920 0.980 . S
C1860 C1861 1.349 . S
C1860 C1865 1.367 . S
C1860 O1907 1.408 . S
C1861 C1860 1.349 . S
C1861 C1862 1.407 . S
C1861 H1924 0.930 . S
C1862 C1861 1.407 . S
C1862 C1863 1.449 . S
C1862 C1866 1.535 . S
C1863 C1862 1.449 . S
C1863 C1864 1.384 . S
C1863 C1888 1.553 . S
C1864 C1863 1.384 . S
C1864 C1865 1.364 . S
C1864 C1867 1.450 . S
C1865 C1860 1.367 . S
C1865 C1864 1.364 . S
C1865 H1925 0.931 . S
C1866 C1862 1.535 . S
C1866 H1926 0.959 . S
C1866 H1927 0.961 . S
C1866 H1928 0.959 . S
C1867 C1864 1.450 . S
C1867 H1929 0.960 . S
C1867 H1930 0.960 . S
C1867 H1931 0.960 . S
C1868 C1869 1.309 . S
C1868 C1873 1.304 . S
C1868 O1906 1.435 . S
C1869 C1868 1.309 . S
C1869 C1870 1.476 . S
C1869 H1933 0.930 . S
C1870 C1869 1.476 . S
C1870 C1871 1.400 . S
C1870 C1874 1.567 . S
C1871 C1870 1.400 . S
C1871 C1872 1.373 . S
C1871 C1893 1.432 . S
C1872 C1871 1.373 . S
C1872 C1873 1.339 . S
C1872 C1875 1.530 . S
C1873 C1868 1.304 . S
C1873 C1872 1.339 . S
C1873 H1934 0.930 . S
C1874 C1870 1.567 . S
C1874 H1935 0.961 . S
C1874 H1936 0.960 . S
C1874 H1937 0.958 . S
C1875 C1872 1.530 . S
C1875 H1938 0.961 . S
C1875 H1939 0.960 . S
C1875 H1940 0.960 . S
C1876 C1877 1.530 . S
C1876 H1942 0.961 . S
C1876 H1943 0.961 . S
C1876 H1944 0.959 . S
C1877 C1876 1.530 . S
C1877 O1905 1.412 . S
C1877 H1941 0.980 . S
C1878 C1879 1.288 . S
C1878 C1883 1.377 . S
C1878 O1905 1.393 . S
C1879 C1878 1.288 . S
C1879 C1880 1.369 . S
C1879 H1945 0.932 . S
C1880 C1879 1.369 . S
C1880 C1881 1.398 . S
C1880 C1884 1.527 . S
C1881 C1880 1.398 . S
C1881 C1882 1.380 . S
C1881 C1895 1.497 . S
C1882 C1881 1.380 . S
C1882 C1883 1.383 . S
C1882 C1885 1.603 . S
C1883 C1878 1.377 . S
C1883 C1882 1.383 . S
C1883 H1946 0.929 . S
C1884 C1880 1.527 . S
C1884 H1947 0.961 . S
C1884 H1948 0.959 . S
C1884 H1949 0.959 . S
C1885 C1882 1.603 . S
C1885 H1950 0.960 . S
C1885 H1951 0.962 . S
C1885 H1952 0.961 . S
C1886 C1853 1.587 . S
C1886 C1887 1.360 . S
C1886 C1899 1.412 . S
C1887 C1886 1.360 . S
C1887 C1888 1.365 . S
C1887 H1953 0.929 . S
C1888 C1863 1.553 . S
C1888 C1887 1.365 . S
C1888 C1889 1.404 . S
C1889 C1888 1.404 . S
C1889 C1890 1.395 . S
C1889 C1900 1.451 . S
C1890 C1889 1.395 . S
C1890 C1891 1.322 . S
C1890 H1954 0.930 . S
C1891 C1890 1.322 . S
C1891 C1892 1.459 . S
C1891 H1955 0.929 . S
C1892 C1891 1.459 . S
C1892 C1893 1.445 . S
C1892 C1901 1.395 . S
C1893 C1871 1.432 . S
C1893 C1892 1.445 . S
C1893 C1894 1.370 . S
C1894 C1893 1.370 . S
C1894 C1895 1.438 . S
C1894 H1956 0.930 . S
C1895 C1881 1.497 . S
C1895 C1894 1.438 . S
C1895 C1896 1.360 . S
C1896 C1895 1.360 . S
C1896 C1897 1.401 . S
C1896 C1901 1.446 . S
C1897 C1896 1.401 . S
C1897 C1898 1.347 . S
C1897 H1957 0.929 . S
C1898 C1897 1.347 . S
C1898 C1899 1.455 . S
C1898 H1958 0.930 . S
C1899 C1886 1.412 . S
C1899 C1898 1.455 . S
C1899 C1900 1.331 . S
C1900 C1889 1.451 . S
C1900 C1899 1.331 . S
C1900 C1901 1.497 . S
C1901 C1892 1.395 . S
C1901 C1896 1.446 . S
C1901 C1900 1.497 . S
C1902 C1903 1.582 . S
C1902 H1959 0.962 . S
C1902 H1960 0.959 . S
C1902 H1961 0.958 . S
C1903 C1902 1.582 . S
C1903 O1906 1.458 . S
C1903 H1932 0.980 . S
O1904 C1849 1.426 . S
O1904 C1850 1.334 . S
O1905 C1877 1.412 . S
O1905 C1878 1.393 . S
O1906 C1868 1.435 . S
O1906 C1903 1.458 . S
O1907 C1859 1.468 . S
O1907 C1860 1.408 . S
H1908 C1849 0.980 . S
H1909 C1848 0.959 . S
H1910 C1848 0.959 . S
H1911 C1848 0.960 . S
H1912 C1851 0.929 . S
H1913 C1855 0.929 . S
H1914 C1856 0.959 . S
H1915 C1856 0.961 . S
H1916 C1856 0.961 . S
H1917 C1857 0.960 . S
H1918 C1857 0.960 . S
H1919 C1857 0.961 . S
H1920 C1859 0.980 . S
H1921 C1858 0.961 . S
H1922 C1858 0.960 . S
H1923 C1858 0.959 . S
H1924 C1861 0.930 . S
H1925 C1865 0.931 . S
H1926 C1866 0.959 . S
H1927 C1866 0.961 . S
H1928 C1866 0.959 . S
H1929 C1867 0.960 . S
H1930 C1867 0.960 . S
H1931 C1867 0.960 . S
H1932 C1903 0.980 . S
H1933 C1869 0.930 . S
H1934 C1873 0.930 . S
H1935 C1874 0.961 . S
H1936 C1874 0.960 . S
H1937 C1874 0.958 . S
H1938 C1875 0.961 . S
H1939 C1875 0.960 . S
H1940 C1875 0.960 . S
H1941 C1877 0.980 . S
H1942 C1876 0.961 . S
H1943 C1876 0.961 . S
H1944 C1876 0.959 . S
H1945 C1879 0.932 . S
H1946 C1883 0.929 . S
H1947 C1884 0.961 . S
H1948 C1884 0.959 . S
H1949 C1884 0.959 . S
H1950 C1885 0.960 . S
H1951 C1885 0.962 . S
H1952 C1885 0.961 . S
H1953 C1887 0.929 . S
H1954 C1890 0.930 . S
H1955 C1891 0.929 . S
H1956 C1894 0.930 . S
H1957 C1897 0.929 . S
H1958 C1898 0.930 . S
H1959 C1902 0.962 . S
H1960 C1902 0.959 . S
H1961 C1902 0.958 . S
C1962 C1963 1.560 . S
C1962 H2023 0.959 . S
C1962 H2024 0.959 . S
C1962 H2025 0.960 . S
C1963 C1962 1.560 . S
C1963 O2018 1.426 . S
C1963 H2022 0.980 . S
C1964 C1965 1.407 . S
C1964 C1969 1.418 . S
C1964 O2018 1.334 . S
C1965 C1964 1.407 . S
C1965 C1966 1.360 . S
C1965 H2026 0.929 . S
C1966 C1965 1.360 . S
C1966 C1967 1.401 . S
C1966 C1970 1.527 . S
C1967 C1966 1.401 . S
C1967 C1968 1.405 . S
C1967 C2000 1.587 . S
C1968 C1967 1.405 . S
C1968 C1969 1.332 . S
C1968 C1971 1.496 . S
C1969 C1964 1.418 . S
C1969 C1968 1.332 . S
C1969 H2027 0.929 . S
C1970 C1966 1.527 . S
C1970 H2028 0.959 . S
C1970 H2029 0.961 . S
C1970 H2030 0.961 . S
C1971 C1968 1.496 . S
C1971 H2031 0.960 . S
C1971 H2032 0.960 . S
C1971 H2033 0.961 . S
C1972 C1973 1.517 . S
C1972 H2035 0.961 . S
C1972 H2036 0.960 . S
C1972 H2037 0.959 . S
C1973 C1972 1.517 . S
C1973 O2021 1.468 . S
C1973 H2034 0.980 . S
C1974 C1975 1.349 . S
C1974 C1979 1.367 . S
C1974 O2021 1.408 . S
C1975 C1974 1.349 . S
C1975 C1976 1.407 . S
C1975 H2038 0.930 . S
C1976 C1975 1.407 . S
C1976 C1977 1.449 . S
C1976 C1980 1.535 . S
C1977 C1976 1.449 . S
C1977 C1978 1.384 . S
C1977 C2002 1.553 . S
C1978 C1977 1.384 . S
C1978 C1979 1.364 . S
C1978 C1981 1.450 . S
C1979 C1974 1.367 . S
C1979 C1978 1.364 . S
C1979 H2039 0.931 . S
C1980 C1976 1.535 . S
C1980 H2040 0.959 . S
C1980 H2041 0.961 . S
C1980 H2042 0.959 . S
C1981 C1978 1.450 . S
C1981 H2043 0.960 . S
C1981 H2044 0.960 . S
C1981 H2045 0.960 . S
C1982 C1983 1.309 . S
C1982 C1987 1.304 . S
C1982 O2020 1.435 . S
C1983 C1982 1.309 . S
C1983 C1984 1.476 . S
C1983 H2047 0.930 . S
C1984 C1983 1.476 . S
C1984 C1985 1.400 . S
C1984 C1988 1.567 . S
C1985 C1984 1.400 . S
C1985 C1986 1.373 . S
C1985 C2007 1.432 . S
C1986 C1985 1.373 . S
C1986 C1987 1.339 . S
C1986 C1989 1.530 . S
C1987 C1982 1.304 . S
C1987 C1986 1.339 . S
C1987 H2048 0.930 . S
C1988 C1984 1.567 . S
C1988 H2049 0.961 . S
C1988 H2050 0.960 . S
C1988 H2051 0.958 . S
C1989 C1986 1.530 . S
C1989 H2052 0.961 . S
C1989 H2053 0.960 . S
C1989 H2054 0.960 . S
C1990 C1991 1.530 . S
C1990 H2056 0.961 . S
C1990 H2057 0.961 . S
C1990 H2058 0.959 . S
C1991 C1990 1.530 . S
C1991 O2019 1.412 . S
C1991 H2055 0.980 . S
C1992 C1993 1.288 . S
C1992 C1997 1.377 . S
C1992 O2019 1.393 . S
C1993 C1992 1.288 . S
C1993 C1994 1.369 . S
C1993 H2059 0.932 . S
C1994 C1993 1.369 . S
C1994 C1995 1.398 . S
C1994 C1998 1.527 . S
C1995 C1994 1.398 . S
C1995 C1996 1.380 . S
C1995 C2009 1.497 . S
C1996 C1995 1.380 . S
C1996 C1997 1.383 . S
C1996 C1999 1.603 . S
C1997 C1992 1.377 . S
C1997 C1996 1.383 . S
C1997 H2060 0.929 . S
C1998 C1994 1.527 . S
C1998 H2061 0.961 . S
C1998 H2062 0.959 . S
C1998 H2063 0.959 . S
C1999 C1996 1.603 . S
C1999 H2064 0.960 . S
C1999 H2065 0.962 . S
C1999 H2066 0.961 . S
C2000 C1967 1.587 . S
C2000 C2001 1.360 . S
C2000 C2013 1.412 . S
C2001 C2000 1.360 . S
C2001 C2002 1.365 . S
C2001 H2067 0.929 . S
C2002 C1977 1.553 . S
C2002 C2001 1.365 . S
C2002 C2003 1.404 . S
C2003 C2002 1.404 . S
C2003 C2004 1.395 . S
C2003 C2014 1.451 . S
C2004 C2003 1.395 . S
C2004 C2005 1.322 . S
C2004 H2068 0.930 . S
C2005 C2004 1.322 . S
C2005 C2006 1.459 . S
C2005 H2069 0.929 . S
C2006 C2005 1.459 . S
C2006 C2007 1.445 . S
C2006 C2015 1.395 . S
C2007 C1985 1.432 . S
C2007 C2006 1.445 . S
C2007 C2008 1.370 . S
C2008 C2007 1.370 . S
C2008 C2009 1.438 . S
C2008 H2070 0.930 . S
C2009 C1995 1.497 . S
C2009 C2008 1.438 . S
C2009 C2010 1.360 . S
C2010 C2009 1.360 . S
C2010 C2011 1.401 . S
C2010 C2015 1.446 . S
C2011 C2010 1.401 . S
C2011 C2012 1.347 . S
C2011 H2071 0.929 . S
C2012 C2011 1.347 . S
C2012 C2013 1.455 . S
C2012 H2072 0.930 . S
C2013 C2000 1.412 . S
C2013 C2012 1.455 . S
C2013 C2014 1.331 . S
C2014 C2003 1.451 . S
C2014 C2013 1.331 . S
C2014 C2015 1.497 . S
C2015 C2006 1.395 . S
C2015 C2010 1.446 . S
C2015 C2014 1.497 . S
C2016 C2017 1.582 . S
C2016 H2073 0.962 . S
C2016 H2074 0.959 . S
C2016 H2075 0.958 . S
C2017 C2016 1.582 . S
C2017 O2020 1.458 . S
C2017 H2046 0.980 . S
O2018 C1963 1.426 . S
O2018 C1964 1.334 . S
O2019 C1991 1.412 . S
O2019 C1992 1.393 . S
O2020 C1982 1.435 . S
O2020 C2017 1.458 . S
O2021 C1973 1.468 . S
O2021 C1974 1.408 . S
H2022 C1963 0.980 . S
H2023 C1962 0.959 . S
H2024 C1962 0.959 . S
H2025 C1962 0.960 . S
H2026 C1965 0.929 . S
H2027 C1969 0.929 . S
H2028 C1970 0.959 . S
H2029 C1970 0.961 . S
H2030 C1970 0.961 . S
H2031 C1971 0.960 . S
H2032 C1971 0.960 . S
H2033 C1971 0.961 . S
H2034 C1973 0.980 . S
H2035 C1972 0.961 . S
H2036 C1972 0.960 . S
H2037 C1972 0.959 . S
H2038 C1975 0.930 . S
H2039 C1979 0.931 . S
H2040 C1980 0.959 . S
H2041 C1980 0.961 . S
H2042 C1980 0.959 . S
H2043 C1981 0.960 . S
H2044 C1981 0.960 . S
H2045 C1981 0.960 . S
H2046 C2017 0.980 . S
H2047 C1983 0.930 . S
H2048 C1987 0.930 . S
H2049 C1988 0.961 . S
H2050 C1988 0.960 . S
H2051 C1988 0.958 . S
H2052 C1989 0.961 . S
H2053 C1989 0.960 . S
H2054 C1989 0.960 . S
H2055 C1991 0.980 . S
H2056 C1990 0.961 . S
H2057 C1990 0.961 . S
H2058 C1990 0.959 . S
H2059 C1993 0.932 . S
H2060 C1997 0.929 . S
H2061 C1998 0.961 . S
H2062 C1998 0.959 . S
H2063 C1998 0.959 . S
H2064 C1999 0.960 . S
H2065 C1999 0.962 . S
H2066 C1999 0.961 . S
H2067 C2001 0.929 . S
H2068 C2004 0.930 . S
H2069 C2005 0.929 . S
H2070 C2008 0.930 . S
H2071 C2011 0.929 . S
H2072 C2012 0.930 . S
H2073 C2016 0.962 . S
H2074 C2016 0.959 . S
H2075 C2016 0.958 . S
C2076 C2077 1.560 . S
C2076 H2137 0.959 . S
C2076 H2138 0.959 . S
C2076 H2139 0.960 . S
C2077 C2076 1.560 . S
C2077 O2132 1.426 . S
C2077 H2136 0.980 . S
C2078 C2079 1.407 . S
C2078 C2083 1.418 . S
C2078 O2132 1.334 . S
C2079 C2078 1.407 . S
C2079 C2080 1.360 . S
C2079 H2140 0.929 . S
C2080 C2079 1.360 . S
C2080 C2081 1.401 . S
C2080 C2084 1.527 . S
C2081 C2080 1.401 . S
C2081 C2082 1.405 . S
C2081 C2114 1.587 . S
C2082 C2081 1.405 . S
C2082 C2083 1.332 . S
C2082 C2085 1.496 . S
C2083 C2078 1.418 . S
C2083 C2082 1.332 . S
C2083 H2141 0.929 . S
C2084 C2080 1.527 . S
C2084 H2142 0.959 . S
C2084 H2143 0.961 . S
C2084 H2144 0.961 . S
C2085 C2082 1.496 . S
C2085 H2145 0.960 . S
C2085 H2146 0.960 . S
C2085 H2147 0.961 . S
C2086 C2087 1.517 . S
C2086 H2149 0.961 . S
C2086 H2150 0.960 . S
C2086 H2151 0.959 . S
C2087 C2086 1.517 . S
C2087 O2135 1.468 . S
C2087 H2148 0.980 . S
C2088 C2089 1.349 . S
C2088 C2093 1.367 . S
C2088 O2135 1.408 . S
C2089 C2088 1.349 . S
C2089 C2090 1.407 . S
C2089 H2152 0.930 . S
C2090 C2089 1.407 . S
C2090 C2091 1.449 . S
C2090 C2094 1.535 . S
C2091 C2090 1.449 . S
C2091 C2092 1.384 . S
C2091 C2116 1.553 . S
C2092 C2091 1.384 . S
C2092 C2093 1.364 . S
C2092 C2095 1.450 . S
C2093 C2088 1.367 . S
C2093 C2092 1.364 . S
C2093 H2153 0.931 . S
C2094 C2090 1.535 . S
C2094 H2154 0.959 . S
C2094 H2155 0.961 . S
C2094 H2156 0.959 . S
C2095 C2092 1.450 . S
C2095 H2157 0.960 . S
C2095 H2158 0.960 . S
C2095 H2159 0.960 . S
C2096 C2097 1.309 . S
C2096 C2101 1.304 . S
C2096 O2134 1.435 . S
C2097 C2096 1.309 . S
C2097 C2098 1.476 . S
C2097 H2161 0.930 . S
C2098 C2097 1.476 . S
C2098 C2099 1.400 . S
C2098 C2102 1.567 . S
C2099 C2098 1.400 . S
C2099 C2100 1.373 . S
C2099 C2121 1.432 . S
C2100 C2099 1.373 . S
C2100 C2101 1.339 . S
C2100 C2103 1.530 . S
C2101 C2096 1.304 . S
C2101 C2100 1.339 . S
C2101 H2162 0.930 . S
C2102 C2098 1.567 . S
C2102 H2163 0.961 . S
C2102 H2164 0.960 . S
C2102 H2165 0.958 . S
C2103 C2100 1.530 . S
C2103 H2166 0.961 . S
C2103 H2167 0.960 . S
C2103 H2168 0.960 . S
C2104 C2105 1.530 . S
C2104 H2170 0.961 . S
C2104 H2171 0.961 . S
C2104 H2172 0.959 . S
C2105 C2104 1.530 . S
C2105 O2133 1.412 . S
C2105 H2169 0.980 . S
C2106 C2107 1.288 . S
C2106 C2111 1.377 . S
C2106 O2133 1.393 . S
C2107 C2106 1.288 . S
C2107 C2108 1.369 . S
C2107 H2173 0.932 . S
C2108 C2107 1.369 . S
C2108 C2109 1.398 . S
C2108 C2112 1.527 . S
C2109 C2108 1.398 . S
C2109 C2110 1.380 . S
C2109 C2123 1.497 . S
C2110 C2109 1.380 . S
C2110 C2111 1.383 . S
C2110 C2113 1.603 . S
C2111 C2106 1.377 . S
C2111 C2110 1.383 . S
C2111 H2174 0.929 . S
C2112 C2108 1.527 . S
C2112 H2175 0.961 . S
C2112 H2176 0.959 . S
C2112 H2177 0.959 . S
C2113 C2110 1.603 . S
C2113 H2178 0.960 . S
C2113 H2179 0.962 . S
C2113 H2180 0.961 . S
C2114 C2081 1.587 . S
C2114 C2115 1.360 . S
C2114 C2127 1.412 . S
C2115 C2114 1.360 . S
C2115 C2116 1.365 . S
C2115 H2181 0.929 . S
C2116 C2091 1.553 . S
C2116 C2115 1.365 . S
C2116 C2117 1.404 . S
C2117 C2116 1.404 . S
C2117 C2118 1.395 . S
C2117 C2128 1.451 . S
C2118 C2117 1.395 . S
C2118 C2119 1.322 . S
C2118 H2182 0.930 . S
C2119 C2118 1.322 . S
C2119 C2120 1.459 . S
C2119 H2183 0.929 . S
C2120 C2119 1.459 . S
C2120 C2121 1.445 . S
C2120 C2129 1.395 . S
C2121 C2099 1.432 . S
C2121 C2120 1.445 . S
C2121 C2122 1.370 . S
C2122 C2121 1.370 . S
C2122 C2123 1.438 . S
C2122 H2184 0.930 . S
C2123 C2109 1.497 . S
C2123 C2122 1.438 . S
C2123 C2124 1.360 . S
C2124 C2123 1.360 . S
C2124 C2125 1.401 . S
C2124 C2129 1.446 . S
C2125 C2124 1.401 . S
C2125 C2126 1.347 . S
C2125 H2185 0.929 . S
C2126 C2125 1.347 . S
C2126 C2127 1.455 . S
C2126 H2186 0.930 . S
C2127 C2114 1.412 . S
C2127 C2126 1.455 . S
C2127 C2128 1.331 . S
C2128 C2117 1.451 . S
C2128 C2127 1.331 . S
C2128 C2129 1.497 . S
C2129 C2120 1.395 . S
C2129 C2124 1.446 . S
C2129 C2128 1.497 . S
C2130 C2131 1.582 . S
C2130 H2187 0.962 . S
C2130 H2188 0.959 . S
C2130 H2189 0.958 . S
C2131 C2130 1.582 . S
C2131 O2134 1.458 . S
C2131 H2160 0.980 . S
O2132 C2077 1.426 . S
O2132 C2078 1.334 . S
O2133 C2105 1.412 . S
O2133 C2106 1.393 . S
O2134 C2096 1.435 . S
O2134 C2131 1.458 . S
O2135 C2087 1.468 . S
O2135 C2088 1.408 . S
H2136 C2077 0.980 . S
H2137 C2076 0.959 . S
H2138 C2076 0.959 . S
H2139 C2076 0.960 . S
H2140 C2079 0.929 . S
H2141 C2083 0.929 . S
H2142 C2084 0.959 . S
H2143 C2084 0.961 . S
H2144 C2084 0.961 . S
H2145 C2085 0.960 . S
H2146 C2085 0.960 . S
H2147 C2085 0.961 . S
H2148 C2087 0.980 . S
H2149 C2086 0.961 . S
H2150 C2086 0.960 . S
H2151 C2086 0.959 . S
H2152 C2089 0.930 . S
H2153 C2093 0.931 . S
H2154 C2094 0.959 . S
H2155 C2094 0.961 . S
H2156 C2094 0.959 . S
H2157 C2095 0.960 . S
H2158 C2095 0.960 . S
H2159 C2095 0.960 . S
H2160 C2131 0.980 . S
H2161 C2097 0.930 . S
H2162 C2101 0.930 . S
H2163 C2102 0.961 . S
H2164 C2102 0.960 . S
H2165 C2102 0.958 . S
H2166 C2103 0.961 . S
H2167 C2103 0.960 . S
H2168 C2103 0.960 . S
H2169 C2105 0.980 . S
H2170 C2104 0.961 . S
H2171 C2104 0.961 . S
H2172 C2104 0.959 . S
H2173 C2107 0.932 . S
H2174 C2111 0.929 . S
H2175 C2112 0.961 . S
H2176 C2112 0.959 . S
H2177 C2112 0.959 . S
H2178 C2113 0.960 . S
H2179 C2113 0.962 . S
H2180 C2113 0.961 . S
H2181 C2115 0.929 . S
H2182 C2118 0.930 . S
H2183 C2119 0.929 . S
H2184 C2122 0.930 . S
H2185 C2125 0.929 . S
H2186 C2126 0.930 . S
H2187 C2130 0.962 . S
H2188 C2130 0.959 . S
H2189 C2130 0.958 . S
C2190 C2191 1.560 . S
C2190 H2251 0.959 . S
C2190 H2252 0.959 . S
C2190 H2253 0.960 . S
C2191 C2190 1.560 . S
C2191 O2246 1.426 . S
C2191 H2250 0.980 . S
C2192 C2193 1.407 . S
C2192 C2197 1.418 . S
C2192 O2246 1.334 . S
C2193 C2192 1.407 . S
C2193 C2194 1.360 . S
C2193 H2254 0.929 . S
C2194 C2193 1.360 . S
C2194 C2195 1.401 . S
C2194 C2198 1.527 . S
C2195 C2194 1.401 . S
C2195 C2196 1.405 . S
C2195 C2228 1.587 . S
C2196 C2195 1.405 . S
C2196 C2197 1.332 . S
C2196 C2199 1.496 . S
C2197 C2192 1.418 . S
C2197 C2196 1.332 . S
C2197 H2255 0.929 . S
C2198 C2194 1.527 . S
C2198 H2256 0.959 . S
C2198 H2257 0.961 . S
C2198 H2258 0.961 . S
C2199 C2196 1.496 . S
C2199 H2259 0.960 . S
C2199 H2260 0.960 . S
C2199 H2261 0.961 . S
C2200 C2201 1.517 . S
C2200 H2263 0.961 . S
C2200 H2264 0.960 . S
C2200 H2265 0.959 . S
C2201 C2200 1.517 . S
C2201 O2249 1.468 . S
C2201 H2262 0.980 . S
C2202 C2203 1.349 . S
C2202 C2207 1.367 . S
C2202 O2249 1.408 . S
C2203 C2202 1.349 . S
C2203 C2204 1.407 . S
C2203 H2266 0.930 . S
C2204 C2203 1.407 . S
C2204 C2205 1.449 . S
C2204 C2208 1.535 . S
C2205 C2204 1.449 . S
C2205 C2206 1.384 . S
C2205 C2230 1.553 . S
C2206 C2205 1.384 . S
C2206 C2207 1.364 . S
C2206 C2209 1.450 . S
C2207 C2202 1.367 . S
C2207 C2206 1.364 . S
C2207 H2267 0.931 . S
C2208 C2204 1.535 . S
C2208 H2268 0.959 . S
C2208 H2269 0.961 . S
C2208 H2270 0.959 . S
C2209 C2206 1.450 . S
C2209 H2271 0.960 . S
C2209 H2272 0.960 . S
C2209 H2273 0.960 . S
C2210 C2211 1.309 . S
C2210 C2215 1.304 . S
C2210 O2248 1.435 . S
C2211 C2210 1.309 . S
C2211 C2212 1.476 . S
C2211 H2275 0.930 . S
C2212 C2211 1.476 . S
C2212 C2213 1.400 . S
C2212 C2216 1.567 . S
C2213 C2212 1.400 . S
C2213 C2214 1.373 . S
C2213 C2235 1.432 . S
C2214 C2213 1.373 . S
C2214 C2215 1.339 . S
C2214 C2217 1.530 . S
C2215 C2210 1.304 . S
C2215 C2214 1.339 . S
C2215 H2276 0.930 . S
C2216 C2212 1.567 . S
C2216 H2277 0.961 . S
C2216 H2278 0.960 . S
C2216 H2279 0.958 . S
C2217 C2214 1.530 . S
C2217 H2280 0.961 . S
C2217 H2281 0.960 . S
C2217 H2282 0.960 . S
C2218 C2219 1.530 . S
C2218 H2284 0.961 . S
C2218 H2285 0.961 . S
C2218 H2286 0.959 . S
C2219 C2218 1.530 . S
C2219 O2247 1.412 . S
C2219 H2283 0.980 . S
C2220 C2221 1.288 . S
C2220 C2225 1.377 . S
C2220 O2247 1.393 . S
C2221 C2220 1.288 . S
C2221 C2222 1.369 . S
C2221 H2287 0.932 . S
C2222 C2221 1.369 . S
C2222 C2223 1.398 . S
C2222 C2226 1.527 . S
C2223 C2222 1.398 . S
C2223 C2224 1.380 . S
C2223 C2237 1.497 . S
C2224 C2223 1.380 . S
C2224 C2225 1.383 . S
C2224 C2227 1.603 . S
C2225 C2220 1.377 . S
C2225 C2224 1.383 . S
C2225 H2288 0.929 . S
C2226 C2222 1.527 . S
C2226 H2289 0.961 . S
C2226 H2290 0.959 . S
C2226 H2291 0.959 . S
C2227 C2224 1.603 . S
C2227 H2292 0.960 . S
C2227 H2293 0.962 . S
C2227 H2294 0.961 . S
C2228 C2195 1.587 . S
C2228 C2229 1.360 . S
C2228 C2241 1.412 . S
C2229 C2228 1.360 . S
C2229 C2230 1.365 . S
C2229 H2295 0.929 . S
C2230 C2205 1.553 . S
C2230 C2229 1.365 . S
C2230 C2231 1.404 . S
C2231 C2230 1.404 . S
C2231 C2232 1.395 . S
C2231 C2242 1.451 . S
C2232 C2231 1.395 . S
C2232 C2233 1.322 . S
C2232 H2296 0.930 . S
C2233 C2232 1.322 . S
C2233 C2234 1.459 . S
C2233 H2297 0.929 . S
C2234 C2233 1.459 . S
C2234 C2235 1.445 . S
C2234 C2243 1.395 . S
C2235 C2213 1.432 . S
C2235 C2234 1.445 . S
C2235 C2236 1.370 . S
C2236 C2235 1.370 . S
C2236 C2237 1.438 . S
C2236 H2298 0.930 . S
C2237 C2223 1.497 . S
C2237 C2236 1.438 . S
C2237 C2238 1.360 . S
C2238 C2237 1.360 . S
C2238 C2239 1.401 . S
C2238 C2243 1.446 . S
C2239 C2238 1.401 . S
C2239 C2240 1.347 . S
C2239 H2299 0.929 . S
C2240 C2239 1.347 . S
C2240 C2241 1.455 . S
C2240 H2300 0.930 . S
C2241 C2228 1.412 . S
C2241 C2240 1.455 . S
C2241 C2242 1.331 . S
C2242 C2231 1.451 . S
C2242 C2241 1.331 . S
C2242 C2243 1.497 . S
C2243 C2234 1.395 . S
C2243 C2238 1.446 . S
C2243 C2242 1.497 . S
C2244 C2245 1.582 . S
C2244 H2301 0.962 . S
C2244 H2302 0.959 . S
C2244 H2303 0.958 . S
C2245 C2244 1.582 . S
C2245 O2248 1.458 . S
C2245 H2274 0.980 . S
O2246 C2191 1.426 . S
O2246 C2192 1.334 . S
O2247 C2219 1.412 . S
O2247 C2220 1.393 . S
O2248 C2210 1.435 . S
O2248 C2245 1.458 . S
O2249 C2201 1.468 . S
O2249 C2202 1.408 . S
H2250 C2191 0.980 . S
H2251 C2190 0.959 . S
H2252 C2190 0.959 . S
H2253 C2190 0.960 . S
H2254 C2193 0.929 . S
H2255 C2197 0.929 . S
H2256 C2198 0.959 . S
H2257 C2198 0.961 . S
H2258 C2198 0.961 . S
H2259 C2199 0.960 . S
H2260 C2199 0.960 . S
H2261 C2199 0.961 . S
H2262 C2201 0.980 . S
H2263 C2200 0.961 . S
H2264 C2200 0.960 . S
H2265 C2200 0.959 . S
H2266 C2203 0.930 . S
H2267 C2207 0.931 . S
H2268 C2208 0.959 . S
H2269 C2208 0.961 . S
H2270 C2208 0.959 . S
H2271 C2209 0.960 . S
H2272 C2209 0.960 . S
H2273 C2209 0.960 . S
H2274 C2245 0.980 . S
H2275 C2211 0.930 . S
H2276 C2215 0.930 . S
H2277 C2216 0.961 . S
H2278 C2216 0.960 . S
H2279 C2216 0.958 . S
H2280 C2217 0.961 . S
H2281 C2217 0.960 . S
H2282 C2217 0.960 . S
H2283 C2219 0.980 . S
H2284 C2218 0.961 . S
H2285 C2218 0.961 . S
H2286 C2218 0.959 . S
H2287 C2221 0.932 . S
H2288 C2225 0.929 . S
H2289 C2226 0.961 . S
H2290 C2226 0.959 . S
H2291 C2226 0.959 . S
H2292 C2227 0.960 . S
H2293 C2227 0.962 . S
H2294 C2227 0.961 . S
H2295 C2229 0.929 . S
H2296 C2232 0.930 . S
H2297 C2233 0.929 . S
H2298 C2236 0.930 . S
H2299 C2239 0.929 . S
H2300 C2240 0.930 . S
H2301 C2244 0.962 . S
H2302 C2244 0.959 . S
H2303 C2244 0.958 . S
C2304 C2305 1.358 1_455 S
C2304 C2306 1.394 . S
C2304 H2320 0.931 . S
C2305 C2304 1.358 1_655 S
C2305 C2309 1.438 . S
C2306 C2304 1.394 . S
C2306 C2307 1.359 1_455 S
C2306 C2310 1.531 . S
C2307 C2306 1.359 1_655 S
C2307 C2308 1.415 . S
C2307 C2315 1.509 . S
C2308 C2307 1.415 . S
C2308 C2309 1.392 . S
C2308 C2311 1.511 . S
C2309 C2305 1.438 . S
C2309 C2308 1.392 . S
C2309 H2321 0.929 . S
C2310 C2306 1.531 . S
C2310 H2322 0.960 . S
C2310 H2323 0.962 . S
C2310 H2324 0.960 . S
C2311 C2308 1.511 . S
C2311 H2325 0.961 . S
C2311 H2326 0.961 . S
C2311 H2327 0.961 . S
C2312 C2313 1.370 . S
C2312 C2314 1.363 . S
C2312 H2328 0.931 . S
C2313 C2312 1.370 . S
C2313 C2317 1.408 1_655 S
C2314 C2312 1.363 . S
C2314 C2315 1.370 . S
C2314 C2318 1.524 . S
C2315 C2307 1.509 . S
C2315 C2314 1.370 . S
C2315 C2316 1.403 1_655 S
C2316 C2315 1.403 1_455 S
C2316 C2317 1.404 . S
C2316 C2319 1.539 . S
C2317 C2313 1.408 1_455 S
C2317 C2316 1.404 . S
C2317 H2329 0.930 . S
C2318 C2314 1.524 . S
C2318 H2330 0.956 . S
C2318 H2331 0.961 . S
C2318 H2332 0.961 . S
C2319 C2316 1.539 . S
C2319 H2333 0.958 . S
C2319 H2334 0.961 . S
C2319 H2335 0.960 . S
H2320 C2304 0.931 . S
H2321 C2309 0.929 . S
H2322 C2310 0.960 . S
H2323 C2310 0.962 . S
H2324 C2310 0.960 . S
H2325 C2311 0.961 . S
H2326 C2311 0.961 . S
H2327 C2311 0.961 . S
H2328 C2312 0.931 . S
H2329 C2317 0.930 . S
H2330 C2318 0.956 . S
H2331 C2318 0.961 . S
H2332 C2318 0.961 . S
H2333 C2319 0.958 . S
H2334 C2319 0.961 . S
H2335 C2319 0.960 . S
C2336 C2337 1.391 . S
C2336 C2338 1.394 . S
C2336 H2352 0.931 . S
C2337 C2336 1.391 . S
C2337 C2341 1.376 . S
C2338 C2336 1.394 . S
C2338 C2339 1.369 . S
C2338 C2342 1.531 . S
C2339 C2338 1.369 . S
C2339 C2340 1.410 . S
C2339 C2347 1.503 . S
C2340 C2339 1.410 . S
C2340 C2341 1.392 . S
C2340 C2343 1.511 . S
C2341 C2337 1.376 . S
C2341 C2340 1.392 . S
C2341 H2353 0.929 . S
C2342 C2338 1.531 . S
C2342 H2354 0.960 . S
C2342 H2355 0.962 . S
C2342 H2356 0.960 . S
C2343 C2340 1.511 . S
C2343 H2357 0.961 . S
C2343 H2358 0.961 . S
C2343 H2359 0.961 . S
C2344 C2345 1.370 . S
C2344 C2346 1.363 . S
C2344 H2360 0.931 . S
C2345 C2344 1.370 . S
C2345 C2349 1.408 . S
C2346 C2344 1.363 . S
C2346 C2347 1.370 . S
C2346 C2350 1.524 . S
C2347 C2339 1.503 . S
C2347 C2346 1.370 . S
C2347 C2348 1.403 . S
C2348 C2347 1.403 . S
C2348 C2349 1.404 . S
C2348 C2351 1.539 . S
C2349 C2345 1.408 . S
C2349 C2348 1.404 . S
C2349 H2361 0.930 . S
C2350 C2346 1.524 . S
C2350 H2362 0.956 . S
C2350 H2363 0.961 . S
C2350 H2364 0.961 . S
C2351 C2348 1.539 . S
C2351 H2365 0.958 . S
C2351 H2366 0.961 . S
C2351 H2367 0.960 . S
H2352 C2336 0.931 . S
H2353 C2341 0.929 . S
H2354 C2342 0.960 . S
H2355 C2342 0.962 . S
H2356 C2342 0.960 . S
H2357 C2343 0.961 . S
H2358 C2343 0.961 . S
H2359 C2343 0.961 . S
H2360 C2344 0.931 . S
H2361 C2349 0.930 . S
H2362 C2350 0.956 . S
H2363 C2350 0.961 . S
H2364 C2350 0.961 . S
H2365 C2351 0.958 . S
H2366 C2351 0.961 . S
H2367 C2351 0.960 . S
C2368 C2369 1.391 . S
C2368 C2370 1.394 . S
C2368 H2384 0.931 . S
C2369 C2368 1.391 . S
C2369 C2373 1.376 . S
C2370 C2368 1.394 . S
C2370 C2371 1.369 . S
C2370 C2374 1.531 . S
C2371 C2370 1.369 . S
C2371 C2372 1.410 . S
C2371 C2379 1.503 . S
C2372 C2371 1.410 . S
C2372 C2373 1.392 . S
C2372 C2375 1.511 1_545 S
C2373 C2369 1.376 . S
C2373 C2372 1.392 . S
C2373 H2385 0.929 1_545 S
C2374 C2370 1.531 . S
C2374 H2386 0.960 . S
C2374 H2387 0.962 . S
C2374 H2388 0.960 . S
C2375 C2372 1.511 1_565 S
C2375 H2389 0.961 . S
C2375 H2390 0.961 . S
C2375 H2391 0.961 . S
C2376 C2377 1.370 . S
C2376 C2378 1.363 . S
C2376 H2392 0.931 1_545 S
C2377 C2376 1.370 . S
C2377 C2381 1.408 . S
C2378 C2376 1.363 . S
C2378 C2379 1.370 . S
C2378 C2382 1.524 1_545 S
C2379 C2371 1.503 . S
C2379 C2378 1.370 . S
C2379 C2380 1.403 . S
C2380 C2379 1.403 . S
C2380 C2381 1.404 . S
C2380 C2383 1.539 . S
C2381 C2377 1.408 . S
C2381 C2380 1.404 . S
C2381 H2393 0.930 . S
C2382 C2378 1.524 1_565 S
C2382 H2394 0.919 1_565 S
C2382 H2395 0.961 . S
C2382 H2396 0.961 . S
C2383 C2380 1.539 . S
C2383 H2397 0.958 . S
C2383 H2398 0.961 . S
C2383 H2399 0.960 . S
H2384 C2368 0.931 . S
H2385 C2373 0.929 1_565 S
H2386 C2374 0.960 . S
H2387 C2374 0.962 . S
H2388 C2374 0.960 . S
H2389 C2375 0.961 . S
H2390 C2375 0.961 . S
H2391 C2375 0.961 . S
H2392 C2376 0.931 1_565 S
H2393 C2381 0.930 . S
H2394 C2382 0.919 1_545 S
H2395 C2382 0.961 . S
H2396 C2382 0.961 . S
H2397 C2383 0.958 . S
H2398 C2383 0.961 . S
H2399 C2383 0.960 . S
C2400 C2401 1.405 . S
C2400 C2402 1.394 . S
C2400 H2416 0.931 . S
C2401 C2400 1.405 . S
C2401 C2405 1.354 1_545 S
C2402 C2400 1.394 . S
C2402 C2403 1.418 . S
C2402 C2406 1.531 . S
C2403 C2402 1.418 . S
C2403 C2404 1.382 1_545 S
C2403 C2411 1.480 1_545 S
C2404 C2403 1.382 1_565 S
C2404 C2405 1.392 . S
C2404 C2407 1.511 . S
C2405 C2401 1.354 1_565 S
C2405 C2404 1.392 . S
C2405 H2417 0.929 . S
C2406 C2402 1.531 . S
C2406 H2418 0.960 . S
C2406 H2419 0.962 . S
C2406 H2420 0.960 . S
C2407 C2404 1.511 . S
C2407 H2421 0.961 . S
C2407 H2422 0.961 . S
C2407 H2423 0.961 . S
C2408 C2409 1.370 . S
C2408 C2410 1.363 . S
C2408 H2424 0.931 . S
C2409 C2408 1.370 . S
C2409 C2413 1.408 1_565 S
C2410 C2408 1.363 . S
C2410 C2411 1.370 . S
C2410 C2414 1.524 . S
C2411 C2403 1.480 1_565 S
C2411 C2410 1.370 . S
C2411 C2412 1.403 1_565 S
C2412 C2411 1.403 1_545 S
C2412 C2413 1.404 . S
C2412 C2415 1.539 . S
C2413 C2409 1.408 1_545 S
C2413 C2412 1.404 . S
C2413 H2425 0.930 . S
C2414 C2410 1.524 . S
C2414 H2426 0.956 . S
C2414 H2427 0.961 . S
C2414 H2428 0.961 . S
C2415 C2412 1.539 . S
C2415 H2429 0.958 . S
C2415 H2430 0.961 . S
C2415 H2431 0.960 . S
H2416 C2400 0.931 . S
H2417 C2405 0.929 . S
H2418 C2406 0.960 . S
H2419 C2406 0.962 . S
H2420 C2406 0.960 . S
H2421 C2407 0.961 . S
H2422 C2407 0.961 . S
H2423 C2407 0.961 . S
H2424 C2408 0.931 . S
H2425 C2413 0.930 . S
H2426 C2414 0.956 . S
H2427 C2414 0.961 . S
H2428 C2414 0.961 . S
H2429 C2415 0.958 . S
H2430 C2415 0.961 . S
H2431 C2415 0.960 . S
C2432 C2433 1.391 1_655 S
C2432 C2434 1.394 . S
C2432 H2448 0.931 . S
C2433 C2432 1.391 1_455 S
C2433 C2437 1.376 . S
C2434 C2432 1.394 . S
C2434 C2435 1.369 1_655 S
C2434 C2438 1.531 . S
C2435 C2434 1.369 1_455 S
C2435 C2436 1.410 . S
C2435 C2443 1.503 . S
C2436 C2435 1.410 . S
C2436 C2437 1.392 . S
C2436 C2439 1.511 . S
C2437 C2433 1.376 . S
C2437 C2436 1.392 . S
C2437 H2449 0.929 . S
C2438 C2434 1.531 . S
C2438 H2450 0.960 . S
C2438 H2451 0.962 . S
C2438 H2452 0.960 . S
C2439 C2436 1.511 . S
C2439 H2453 0.961 . S
C2439 H2454 0.961 . S
C2439 H2455 0.961 . S
C2440 C2441 1.370 . S
C2440 C2442 1.363 . S
C2440 H2456 0.931 . S
C2441 C2440 1.370 . S
C2441 C2445 1.408 . S
C2442 C2440 1.363 . S
C2442 C2443 1.370 . S
C2442 C2446 1.524 . S
C2443 C2435 1.503 . S
C2443 C2442 1.370 . S
C2443 C2444 1.403 . S
C2444 C2443 1.403 . S
C2444 C2445 1.404 . S
C2444 C2447 1.539 . S
C2445 C2441 1.408 . S
C2445 C2444 1.404 . S
C2445 H2457 0.930 . S
C2446 C2442 1.524 . S
C2446 H2458 0.956 . S
C2446 H2459 0.961 . S
C2446 H2460 0.961 . S
C2447 C2444 1.539 . S
C2447 H2461 0.958 1_455 S
C2447 H2462 0.961 . S
C2447 H2463 0.960 . S
H2448 C2432 0.931 . S
H2449 C2437 0.929 . S
H2450 C2438 0.960 . S
H2451 C2438 0.962 . S
H2452 C2438 0.960 . S
H2453 C2439 0.961 . S
H2454 C2439 0.961 . S
H2455 C2439 0.961 . S
H2456 C2440 0.931 . S
H2457 C2445 0.930 . S
H2458 C2446 0.956 . S
H2459 C2446 0.961 . S
H2460 C2446 0.961 . S
H2461 C2447 0.958 1_655 S
H2462 C2447 0.961 . S
H2463 C2447 0.960 . S
C2464 C2465 1.391 . S
C2464 C2466 1.394 . S
C2464 H2480 0.931 . S
C2465 C2464 1.391 . S
C2465 C2469 1.376 . S
C2466 C2464 1.394 . S
C2466 C2467 1.369 . S
C2466 C2470 1.531 . S
C2467 C2466 1.369 . S
C2467 C2468 1.410 . S
C2467 C2475 1.503 . S
C2468 C2467 1.410 . S
C2468 C2469 1.392 . S
C2468 C2471 1.511 . S
C2469 C2465 1.376 . S
C2469 C2468 1.392 . S
C2469 H2481 0.929 . S
C2470 C2466 1.531 . S
C2470 H2482 0.960 . S
C2470 H2483 0.962 . S
C2470 H2484 0.960 . S
C2471 C2468 1.511 . S
C2471 H2485 0.961 . S
C2471 H2486 0.961 . S
C2471 H2487 0.961 . S
C2472 C2473 1.370 . S
C2472 C2474 1.363 . S
C2472 H2488 0.931 . S
C2473 C2472 1.370 . S
C2473 C2477 1.408 . S
C2474 C2472 1.363 . S
C2474 C2475 1.370 . S
C2474 C2478 1.524 . S
C2475 C2467 1.503 . S
C2475 C2474 1.370 . S
C2475 C2476 1.403 . S
C2476 C2475 1.403 . S
C2476 C2477 1.404 . S
C2476 C2479 1.539 . S
C2477 C2473 1.408 . S
C2477 C2476 1.404 . S
C2477 H2489 0.930 . S
C2478 C2474 1.524 . S
C2478 H2490 0.956 . S
C2478 H2491 0.961 . S
C2478 H2492 0.961 . S
C2479 C2476 1.539 . S
C2479 H2493 0.958 . S
C2479 H2494 0.961 . S
C2479 H2495 0.960 . S
H2480 C2464 0.931 . S
H2481 C2469 0.929 . S
H2482 C2470 0.960 . S
H2483 C2470 0.962 . S
H2484 C2470 0.960 . S
H2485 C2471 0.961 . S
H2486 C2471 0.961 . S
H2487 C2471 0.961 . S
H2488 C2472 0.931 . S
H2489 C2477 0.930 . S
H2490 C2478 0.956 . S
H2491 C2478 0.961 . S
H2492 C2478 0.961 . S
H2493 C2479 0.958 . S
H2494 C2479 0.961 . S
H2495 C2479 0.960 . S
C2496 C2497 1.391 . S
C2496 C2498 1.394 . S
C2496 H2512 0.931 . S
C2497 C2496 1.391 . S
C2497 C2501 1.376 . S
C2498 C2496 1.394 . S
C2498 C2499 1.369 . S
C2498 C2502 1.531 . S
C2499 C2498 1.369 . S
C2499 C2500 1.410 . S
C2499 C2507 1.503 . S
C2500 C2499 1.410 . S
C2500 C2501 1.392 . S
C2500 C2503 1.511 . S
C2501 C2497 1.376 . S
C2501 C2500 1.392 . S
C2501 H2513 0.929 . S
C2502 C2498 1.531 . S
C2502 H2514 0.960 . S
C2502 H2515 0.962 1_455 S
C2502 H2516 0.960 . S
C2503 C2500 1.511 . S
C2503 H2517 0.961 . S
C2503 H2518 0.961 . S
C2503 H2519 0.961 . S
C2504 C2505 1.370 1_655 S
C2504 C2506 1.363 . S
C2504 H2520 0.931 . S
C2505 C2504 1.370 1_455 S
C2505 C2509 1.408 . S
C2506 C2504 1.363 . S
C2506 C2507 1.370 1_655 S
C2506 C2510 1.524 . S
C2507 C2499 1.503 . S
C2507 C2506 1.370 1_455 S
C2507 C2508 1.403 . S
C2508 C2507 1.403 . S
C2508 C2509 1.404 . S
C2508 C2511 1.539 . S
C2509 C2505 1.408 . S
C2509 C2508 1.404 . S
C2509 H2521 0.930 . S
C2510 C2506 1.524 . S
C2510 H2522 0.956 . S
C2510 H2523 0.961 . S
C2510 H2524 0.961 . S
C2511 C2508 1.539 . S
C2511 H2525 0.958 . S
C2511 H2526 0.961 . S
C2511 H2527 0.960 . S
H2512 C2496 0.931 . S
H2513 C2501 0.929 . S
H2514 C2502 0.960 . S
H2515 C2502 0.962 1_655 S
H2516 C2502 0.960 . S
H2517 C2503 0.961 . S
H2518 C2503 0.961 . S
H2519 C2503 0.961 . S
H2520 C2504 0.931 . S
H2521 C2509 0.930 . S
H2522 C2510 0.956 . S
H2523 C2510 0.961 . S
H2524 C2510 0.961 . S
H2525 C2511 0.958 . S
H2526 C2511 0.961 . S
H2527 C2511 0.960 . S
C2528 C2529 1.391 . S
C2528 C2530 1.394 . S
C2528 H2544 0.931 . S
C2529 C2528 1.391 . S
C2529 C2533 1.376 . S
C2530 C2528 1.394 . S
C2530 C2531 1.369 . S
C2530 C2534 1.531 . S
C2531 C2530 1.369 . S
C2531 C2532 1.410 . S
C2531 C2539 1.503 . S
C2532 C2531 1.410 . S
C2532 C2533 1.392 . S
C2532 C2535 1.511 . S
C2533 C2529 1.376 . S
C2533 C2532 1.392 . S
C2533 H2545 0.929 . S
C2534 C2530 1.531 . S
C2534 H2546 0.960 . S
C2534 H2547 0.962 . S
C2534 H2548 0.960 . S
C2535 C2532 1.511 . S
C2535 H2549 0.961 . S
C2535 H2550 0.961 . S
C2535 H2551 0.961 . S
C2536 C2537 1.370 . S
C2536 C2538 1.363 . S
C2536 H2552 0.931 . S
C2537 C2536 1.370 . S
C2537 C2541 1.408 . S
C2538 C2536 1.363 . S
C2538 C2539 1.370 . S
C2538 C2542 1.524 . S
C2539 C2531 1.503 . S
C2539 C2538 1.370 . S
C2539 C2540 1.403 . S
C2540 C2539 1.403 . S
C2540 C2541 1.404 . S
C2540 C2543 1.539 . S
C2541 C2537 1.408 . S
C2541 C2540 1.404 . S
C2541 H2553 0.930 . S
C2542 C2538 1.524 . S
C2542 H2554 0.956 . S
C2542 H2555 0.961 . S
C2542 H2556 0.961 . S
C2543 C2540 1.539 . S
C2543 H2557 0.958 . S
C2543 H2558 0.961 . S
C2543 H2559 0.960 . S
H2544 C2528 0.931 . S
H2545 C2533 0.929 . S
H2546 C2534 0.960 . S
H2547 C2534 0.962 . S
H2548 C2534 0.960 . S
H2549 C2535 0.961 . S
H2550 C2535 0.961 . S
H2551 C2535 0.961 . S
H2552 C2536 0.931 . S
H2553 C2541 0.930 . S
H2554 C2542 0.956 . S
H2555 C2542 0.961 . S
H2556 C2542 0.961 . S
H2557 C2543 0.958 . S
H2558 C2543 0.961 . S
H2559 C2543 0.960 . S
C2560 C2561 1.391 . S
C2560 C2562 1.394 . S
C2560 H2576 0.931 . S
C2561 C2560 1.391 . S
C2561 C2565 1.376 . S
C2562 C2560 1.394 . S
C2562 C2563 1.369 . S
C2562 C2566 1.531 . S
C2563 C2562 1.369 . S
C2563 C2564 1.410 . S
C2563 C2571 1.503 . S
C2564 C2563 1.410 . S
C2564 C2565 1.392 . S
C2564 C2567 1.511 . S
C2565 C2561 1.376 . S
C2565 C2564 1.392 . S
C2565 H2577 0.929 . S
C2566 C2562 1.531 . S
C2566 H2578 0.960 . S
C2566 H2579 0.962 . S
C2566 H2580 0.960 . S
C2567 C2564 1.511 . S
C2567 H2581 0.933 1_565 S
C2567 H2582 0.941 1_565 S
C2567 H2583 0.961 . S
C2568 C2569 1.370 1_545 S
C2568 C2570 1.363 . S
C2568 H2584 0.931 . S
C2569 C2568 1.370 1_565 S
C2569 C2573 1.408 . S
C2570 C2568 1.363 . S
C2570 C2571 1.370 1_545 S
C2570 C2574 1.524 . S
C2571 C2563 1.503 . S
C2571 C2570 1.370 1_565 S
C2571 C2572 1.403 . S
C2572 C2571 1.403 . S
C2572 C2573 1.404 . S
C2572 C2575 1.539 . S
C2573 C2569 1.408 . S
C2573 C2572 1.404 . S
C2573 H2585 0.930 . S
C2574 C2570 1.524 . S
C2574 H2586 0.956 . S
C2574 H2587 0.961 . S
C2574 H2588 0.961 . S
C2575 C2572 1.539 . S
C2575 H2589 0.958 . S
C2575 H2590 0.961 . S
C2575 H2591 0.960 . S
H2576 C2560 0.931 . S
H2577 C2565 0.929 . S
H2578 C2566 0.960 . S
H2579 C2566 0.962 . S
H2580 C2566 0.960 . S
H2581 C2567 0.933 1_545 S
H2582 C2567 0.941 1_545 S
H2583 C2567 0.961 . S
H2584 C2568 0.931 . S
H2585 C2573 0.930 . S
H2586 C2574 0.956 . S
H2587 C2574 0.961 . S
H2588 C2574 0.961 . S
H2589 C2575 0.958 . S
H2590 C2575 0.961 . S
H2591 C2575 0.960 . S
C2592 C2593 1.391 . S
C2592 C2594 1.394 . S
C2592 H2608 0.931 . S
C2593 C2592 1.391 . S
C2593 C2597 1.376 . S
C2594 C2592 1.394 . S
C2594 C2595 1.369 . S
C2594 C2598 1.531 . S
C2595 C2594 1.369 . S
C2595 C2596 1.410 . S
C2595 C2603 1.503 . S
C2596 C2595 1.410 . S
C2596 C2597 1.392 . S
C2596 C2599 1.511 1_545 S
C2597 C2593 1.376 . S
C2597 C2596 1.392 . S
C2597 H2609 0.922 1_545 S
C2598 C2594 1.531 . S
C2598 H2610 0.960 . S
C2598 H2611 0.962 . S
C2598 H2612 0.960 . S
C2599 C2596 1.511 1_565 S
C2599 H2613 0.961 . S
C2599 H2614 0.961 . S
C2599 H2615 0.961 1_565 S
C2600 C2601 1.370 1_565 S
C2600 C2602 1.363 . S
C2600 H2616 0.931 . S
C2601 C2600 1.370 1_545 S
C2601 C2605 1.408 . S
C2602 C2600 1.363 . S
C2602 C2603 1.370 1_565 S
C2602 C2606 1.524 . S
C2603 C2595 1.503 . S
C2603 C2602 1.370 1_545 S
C2603 C2604 1.403 . S
C2604 C2603 1.403 . S
C2604 C2605 1.404 . S
C2604 C2607 1.539 . S
C2605 C2601 1.408 . S
C2605 C2604 1.404 . S
C2605 H2617 0.930 . S
C2606 C2602 1.524 . S
C2606 H2618 0.956 . S
C2606 H2619 0.961 . S
C2606 H2620 0.961 . S
C2607 C2604 1.539 . S
C2607 H2621 0.958 . S
C2607 H2622 0.961 . S
C2607 H2623 0.960 . S
H2608 C2592 0.931 . S
H2609 C2597 0.922 1_565 S
H2610 C2598 0.960 . S
H2611 C2598 0.962 . S
H2612 C2598 0.960 . S
H2613 C2599 0.961 . S
H2614 C2599 0.961 . S
H2615 C2599 0.961 1_545 S
H2616 C2600 0.931 . S
H2617 C2605 0.930 . S
H2618 C2606 0.956 . S
H2619 C2606 0.961 . S
H2620 C2606 0.961 . S
H2621 C2607 0.958 . S
H2622 C2607 0.961 . S
H2623 C2607 0.960 . S
C2624 C2625 1.391 1_455 S
C2624 C2626 1.394 . S
C2624 H2640 0.931 . S
C2625 C2624 1.391 1_655 S
C2625 C2629 1.376 . S
C2626 C2624 1.394 . S
C2626 C2627 1.369 1_455 S
C2626 C2630 1.531 . S
C2627 C2626 1.369 1_655 S
C2627 C2628 1.410 . S
C2627 C2635 1.503 . S
C2628 C2627 1.410 . S
C2628 C2629 1.392 . S
C2628 C2631 1.511 . S
C2629 C2625 1.376 . S
C2629 C2628 1.392 . S
C2629 H2641 0.929 . S
C2630 C2626 1.531 . S
C2630 H2642 0.960 . S
C2630 H2643 0.962 . S
C2630 H2644 0.960 . S
C2631 C2628 1.511 . S
C2631 H2645 0.961 . S
C2631 H2646 0.961 . S
C2631 H2647 0.961 . S
C2632 C2633 1.370 1_455 S
C2632 C2634 1.374 . S
C2632 H2648 0.931 . S
C2633 C2632 1.370 1_655 S
C2633 C2637 1.408 . S
C2634 C2632 1.374 . S
C2634 C2635 1.353 1_455 S
C2634 C2638 1.531 . S
C2635 C2627 1.503 . S
C2635 C2634 1.353 1_655 S
C2635 C2636 1.403 . S
C2636 C2635 1.403 . S
C2636 C2637 1.404 . S
C2636 C2639 1.539 . S
C2637 C2633 1.408 . S
C2637 C2636 1.404 . S
C2637 H2649 0.930 . S
C2638 C2634 1.531 . S
C2638 H2650 0.956 . S
C2638 H2651 0.961 1_455 S
C2638 H2652 0.961 . S
C2639 C2636 1.539 . S
C2639 H2653 0.958 . S
C2639 H2654 0.961 . S
C2639 H2655 0.960 . S
H2640 C2624 0.931 . S
H2641 C2629 0.929 . S
H2642 C2630 0.960 . S
H2643 C2630 0.962 . S
H2644 C2630 0.960 . S
H2645 C2631 0.961 . S
H2646 C2631 0.961 . S
H2647 C2631 0.961 . S
H2648 C2632 0.931 . S
H2649 C2637 0.930 . S
H2650 C2638 0.956 . S
H2651 C2638 0.961 1_655 S
H2652 C2638 0.961 . S
H2653 C2639 0.958 . S
H2654 C2639 0.961 . S
H2655 C2639 0.960 . S
C2656 C2657 1.391 . S
C2656 C2658 1.394 . S
C2656 H2672 0.931 . S
C2657 C2656 1.391 . S
C2657 C2661 1.376 . S
C2658 C2656 1.394 . S
C2658 C2659 1.369 . S
C2658 C2662 1.531 . S
C2659 C2658 1.369 . S
C2659 C2660 1.410 . S
C2659 C2667 1.503 . S
C2660 C2659 1.410 . S
C2660 C2661 1.392 . S
C2660 C2663 1.511 . S
C2661 C2657 1.376 . S
C2661 C2660 1.392 . S
C2661 H2673 0.929 . S
C2662 C2658 1.531 . S
C2662 H2674 0.960 . S
C2662 H2675 0.962 . S
C2662 H2676 0.960 . S
C2663 C2660 1.511 . S
C2663 H2677 0.961 . S
C2663 H2678 0.961 . S
C2663 H2679 0.961 . S
C2664 C2665 1.370 . S
C2664 C2666 1.363 . S
C2664 H2680 0.931 . S
C2665 C2664 1.370 . S
C2665 C2669 1.408 . S
C2666 C2664 1.363 . S
C2666 C2667 1.370 . S
C2666 C2670 1.524 . S
C2667 C2659 1.503 . S
C2667 C2666 1.370 . S
C2667 C2668 1.403 . S
C2668 C2667 1.403 . S
C2668 C2669 1.404 . S
C2668 C2671 1.539 . S
C2669 C2665 1.408 . S
C2669 C2668 1.404 . S
C2669 H2681 0.930 . S
C2670 C2666 1.524 . S
C2670 H2682 0.956 . S
C2670 H2683 0.961 . S
C2670 H2684 0.961 . S
C2671 C2668 1.539 . S
C2671 H2685 0.958 . S
C2671 H2686 0.961 . S
C2671 H2687 0.960 . S
H2672 C2656 0.931 . S
H2673 C2661 0.929 . S
H2674 C2662 0.960 . S
H2675 C2662 0.962 . S
H2676 C2662 0.960 . S
H2677 C2663 0.961 . S
H2678 C2663 0.961 . S
H2679 C2663 0.961 . S
H2680 C2664 0.931 . S
H2681 C2669 0.930 . S
H2682 C2670 0.956 . S
H2683 C2670 0.961 . S
H2684 C2670 0.961 . S
H2685 C2671 0.958 . S
H2686 C2671 0.961 . S
H2687 C2671 0.960 . S
C2688 C2689 1.391 . S
C2688 C2690 1.394 . S
C2688 H2704 0.931 . S
C2689 C2688 1.391 . S
C2689 C2693 1.376 . S
C2690 C2688 1.394 . S
C2690 C2691 1.369 . S
C2690 C2694 1.531 . S
C2691 C2690 1.369 . S
C2691 C2692 1.410 . S
C2691 C2699 1.503 . S
C2692 C2691 1.410 . S
C2692 C2693 1.392 . S
C2692 C2695 1.511 . S
C2693 C2689 1.376 . S
C2693 C2692 1.392 . S
C2693 H2705 0.929 . S
C2694 C2690 1.531 . S
C2694 H2706 0.960 . S
C2694 H2707 0.962 . S
C2694 H2708 0.960 . S
C2695 C2692 1.511 . S
C2695 H2709 0.961 . S
C2695 H2710 0.961 . S
C2695 H2711 0.961 . S
C2696 C2697 1.370 . S
C2696 C2698 1.363 . S
C2696 H2712 0.931 . S
C2697 C2696 1.370 . S
C2697 C2701 1.408 . S
C2698 C2696 1.363 . S
C2698 C2699 1.370 . S
C2698 C2702 1.524 . S
C2699 C2691 1.503 . S
C2699 C2698 1.370 . S
C2699 C2700 1.403 . S
C2700 C2699 1.403 . S
C2700 C2701 1.404 . S
C2700 C2703 1.539 . S
C2701 C2697 1.408 . S
C2701 C2700 1.404 . S
C2701 H2713 0.930 . S
C2702 C2698 1.524 . S
C2702 H2714 0.956 . S
C2702 H2715 0.961 . S
C2702 H2716 0.961 . S
C2703 C2700 1.539 . S
C2703 H2717 0.958 . S
C2703 H2718 0.961 . S
C2703 H2719 0.960 . S
H2704 C2688 0.931 . S
H2705 C2693 0.929 . S
H2706 C2694 0.960 . S
H2707 C2694 0.962 . S
H2708 C2694 0.960 . S
H2709 C2695 0.961 . S
H2710 C2695 0.961 . S
H2711 C2695 0.961 . S
H2712 C2696 0.931 . S
H2713 C2701 0.930 . S
H2714 C2702 0.956 . S
H2715 C2702 0.961 . S
H2716 C2702 0.961 . S
H2717 C2703 0.958 . S
H2718 C2703 0.961 . S
H2719 C2703 0.960 . S
C2720 C2721 1.391 . S
C2720 C2722 1.394 . S
C2720 H2736 0.931 . S
C2721 C2720 1.391 . S
C2721 C2725 1.376 . S
C2722 C2720 1.394 . S
C2722 C2723 1.369 . S
C2722 C2726 1.531 . S
C2723 C2722 1.369 . S
C2723 C2724 1.410 . S
C2723 C2731 1.503 . S
C2724 C2723 1.410 . S
C2724 C2725 1.392 . S
C2724 C2727 1.511 . S
C2725 C2721 1.376 . S
C2725 C2724 1.392 . S
C2725 H2737 0.929 . S
C2726 C2722 1.531 . S
C2726 H2738 0.960 . S
C2726 H2739 0.962 . S
C2726 H2740 0.960 . S
C2727 C2724 1.511 . S
C2727 H2741 0.961 . S
C2727 H2742 0.961 . S
C2727 H2743 0.961 . S
C2728 C2729 1.370 . S
C2728 C2730 1.363 . S
C2728 H2744 0.931 . S
C2729 C2728 1.370 . S
C2729 C2733 1.408 . S
C2730 C2728 1.363 . S
C2730 C2731 1.370 . S
C2730 C2734 1.524 . S
C2731 C2723 1.503 . S
C2731 C2730 1.370 . S
C2731 C2732 1.403 . S
C2732 C2731 1.403 . S
C2732 C2733 1.404 . S
C2732 C2735 1.539 . S
C2733 C2729 1.408 . S
C2733 C2732 1.404 . S
C2733 H2745 0.930 . S
C2734 C2730 1.524 . S
C2734 H2746 0.956 . S
C2734 H2747 0.961 . S
C2734 H2748 0.961 . S
C2735 C2732 1.539 . S
C2735 H2749 0.958 . S
C2735 H2750 0.961 . S
C2735 H2751 0.960 . S
H2736 C2720 0.931 . S
H2737 C2725 0.929 . S
H2738 C2726 0.960 . S
H2739 C2726 0.962 . S
H2740 C2726 0.960 . S
H2741 C2727 0.961 . S
H2742 C2727 0.961 . S
H2743 C2727 0.961 . S
H2744 C2728 0.931 . S
H2745 C2733 0.930 . S
H2746 C2734 0.956 . S
H2747 C2734 0.961 . S
H2748 C2734 0.961 . S
H2749 C2735 0.958 . S
H2750 C2735 0.961 . S
H2751 C2735 0.960 . S
C2752 C2753 1.391 . S
C2752 C2754 1.394 . S
C2752 H2768 0.931 . S
C2753 C2752 1.391 . S
C2753 C2757 1.376 . S
C2754 C2752 1.394 . S
C2754 C2755 1.369 . S
C2754 C2758 1.531 . S
C2755 C2754 1.369 . S
C2755 C2756 1.410 . S
C2755 C2763 1.503 . S
C2756 C2755 1.410 . S
C2756 C2757 1.392 . S
C2756 C2759 1.511 . S
C2757 C2753 1.376 . S
C2757 C2756 1.392 . S
C2757 H2769 0.929 . S
C2758 C2754 1.531 . S
C2758 H2770 0.960 . S
C2758 H2771 0.962 . S
C2758 H2772 0.960 . S
C2759 C2756 1.511 . S
C2759 H2773 0.961 . S
C2759 H2774 0.961 . S
C2759 H2775 0.961 . S
C2760 C2761 1.370 . S
C2760 C2762 1.363 . S
C2760 H2776 0.931 . S
C2761 C2760 1.370 . S
C2761 C2765 1.408 . S
C2762 C2760 1.363 . S
C2762 C2763 1.370 . S
C2762 C2766 1.524 . S
C2763 C2755 1.503 . S
C2763 C2762 1.370 . S
C2763 C2764 1.403 . S
C2764 C2763 1.403 . S
C2764 C2765 1.404 . S
C2764 C2767 1.539 . S
C2765 C2761 1.408 . S
C2765 C2764 1.404 . S
C2765 H2777 0.930 . S
C2766 C2762 1.524 . S
C2766 H2778 0.956 . S
C2766 H2779 0.961 . S
C2766 H2780 0.961 . S
C2767 C2764 1.539 . S
C2767 H2781 0.958 . S
C2767 H2782 0.961 . S
C2767 H2783 0.960 . S
H2768 C2752 0.931 . S
H2769 C2757 0.929 . S
H2770 C2758 0.960 . S
H2771 C2758 0.962 . S
H2772 C2758 0.960 . S
H2773 C2759 0.961 . S
H2774 C2759 0.961 . S
H2775 C2759 0.961 . S
H2776 C2760 0.931 . S
H2777 C2765 0.930 . S
H2778 C2766 0.956 . S
H2779 C2766 0.961 . S
H2780 C2766 0.961 . S
H2781 C2767 0.958 . S
H2782 C2767 0.961 . S
H2783 C2767 0.960 . S
C2784 C2785 1.391 . S
C2784 C2786 1.394 . S
C2784 H2800 0.931 . S
C2785 C2784 1.391 . S
C2785 C2789 1.376 . S
C2786 C2784 1.394 . S
C2786 C2787 1.369 . S
C2786 C2790 1.531 . S
C2787 C2786 1.369 . S
C2787 C2788 1.410 . S
C2787 C2795 1.503 . S
C2788 C2787 1.410 . S
C2788 C2789 1.392 . S
C2788 C2791 1.511 . S
C2789 C2785 1.376 . S
C2789 C2788 1.392 . S
C2789 H2801 0.929 . S
C2790 C2786 1.531 . S
C2790 H2802 0.960 . S
C2790 H2803 0.962 . S
C2790 H2804 0.960 . S
C2791 C2788 1.511 . S
C2791 H2805 0.961 . S
C2791 H2806 0.961 . S
C2791 H2807 0.961 . S
C2792 C2793 1.370 . S
C2792 C2794 1.363 . S
C2792 H2808 0.931 . S
C2793 C2792 1.370 . S
C2793 C2797 1.408 . S
C2794 C2792 1.363 . S
C2794 C2795 1.370 . S
C2794 C2798 1.524 . S
C2795 C2787 1.503 . S
C2795 C2794 1.370 . S
C2795 C2796 1.403 . S
C2796 C2795 1.403 . S
C2796 C2797 1.404 . S
C2796 C2799 1.539 . S
C2797 C2793 1.408 . S
C2797 C2796 1.404 . S
C2797 H2809 0.930 . S
C2798 C2794 1.524 . S
C2798 H2810 0.956 . S
C2798 H2811 0.961 . S
C2798 H2812 0.961 . S
C2799 C2796 1.539 . S
C2799 H2813 0.958 . S
C2799 H2814 0.961 . S
C2799 H2815 0.960 . S
H2800 C2784 0.931 . S
H2801 C2789 0.929 . S
H2802 C2790 0.960 . S
H2803 C2790 0.962 . S
H2804 C2790 0.960 . S
H2805 C2791 0.961 . S
H2806 C2791 0.961 . S
H2807 C2791 0.961 . S
H2808 C2792 0.931 . S
H2809 C2797 0.930 . S
H2810 C2798 0.956 . S
H2811 C2798 0.961 . S
H2812 C2798 0.961 . S
H2813 C2799 0.958 . S
H2814 C2799 0.961 . S
H2815 C2799 0.960 . S
C2816 C2817 1.391 . S
C2816 C2818 1.394 . S
C2816 H2832 0.931 . S
C2817 C2816 1.391 . S
C2817 C2821 1.376 . S
C2818 C2816 1.394 . S
C2818 C2819 1.369 . S
C2818 C2822 1.531 . S
C2819 C2818 1.369 . S
C2819 C2820 1.410 . S
C2819 C2827 1.503 . S
C2820 C2819 1.410 . S
C2820 C2821 1.392 . S
C2820 C2823 1.511 . S
C2821 C2817 1.376 . S
C2821 C2820 1.392 . S
C2821 H2833 0.929 . S
C2822 C2818 1.531 . S
C2822 H2834 0.960 . S
C2822 H2835 0.962 . S
C2822 H2836 0.960 . S
C2823 C2820 1.511 . S
C2823 H2837 0.961 . S
C2823 H2838 0.961 . S
C2823 H2839 0.961 . S
C2824 C2825 1.370 . S
C2824 C2826 1.363 . S
C2824 H2840 0.931 . S
C2825 C2824 1.370 . S
C2825 C2829 1.408 . S
C2826 C2824 1.363 . S
C2826 C2827 1.370 . S
C2826 C2830 1.524 . S
C2827 C2819 1.503 . S
C2827 C2826 1.370 . S
C2827 C2828 1.403 . S
C2828 C2827 1.403 . S
C2828 C2829 1.404 . S
C2828 C2831 1.539 . S
C2829 C2825 1.408 . S
C2829 C2828 1.404 . S
C2829 H2841 0.930 . S
C2830 C2826 1.524 . S
C2830 H2842 0.956 . S
C2830 H2843 0.961 . S
C2830 H2844 0.961 . S
C2831 C2828 1.539 . S
C2831 H2845 0.958 . S
C2831 H2846 0.961 . S
C2831 H2847 0.960 . S
H2832 C2816 0.931 . S
H2833 C2821 0.929 . S
H2834 C2822 0.960 . S
H2835 C2822 0.962 . S
H2836 C2822 0.960 . S
H2837 C2823 0.961 . S
H2838 C2823 0.961 . S
H2839 C2823 0.961 . S
H2840 C2824 0.931 . S
H2841 C2829 0.930 . S
H2842 C2830 0.956 . S
H2843 C2830 0.961 . S
H2844 C2830 0.961 . S
H2845 C2831 0.958 . S
H2846 C2831 0.961 . S
H2847 C2831 0.960 . S
C2848 C2849 1.391 . S
C2848 C2850 1.394 . S
C2848 H2864 0.931 . S
C2849 C2848 1.391 . S
C2849 C2853 1.376 . S
C2850 C2848 1.394 . S
C2850 C2851 1.369 . S
C2850 C2854 1.531 . S
C2851 C2850 1.369 . S
C2851 C2852 1.410 . S
C2851 C2859 1.503 . S
C2852 C2851 1.410 . S
C2852 C2853 1.392 . S
C2852 C2855 1.511 . S
C2853 C2849 1.376 . S
C2853 C2852 1.392 . S
C2853 H2865 0.929 . S
C2854 C2850 1.531 . S
C2854 H2866 0.960 . S
C2854 H2867 0.962 . S
C2854 H2868 0.960 . S
C2855 C2852 1.511 . S
C2855 H2869 0.961 . S
C2855 H2870 0.961 . S
C2855 H2871 0.961 . S
C2856 C2857 1.370 . S
C2856 C2858 1.363 . S
C2856 H2872 0.931 . S
C2857 C2856 1.370 . S
C2857 C2861 1.408 . S
C2858 C2856 1.363 . S
C2858 C2859 1.370 . S
C2858 C2862 1.524 . S
C2859 C2851 1.503 . S
C2859 C2858 1.370 . S
C2859 C2860 1.403 . S
C2860 C2859 1.403 . S
C2860 C2861 1.404 . S
C2860 C2863 1.539 . S
C2861 C2857 1.408 . S
C2861 C2860 1.404 . S
C2861 H2873 0.930 . S
C2862 C2858 1.524 . S
C2862 H2874 0.956 . S
C2862 H2875 0.961 . S
C2862 H2876 0.961 . S
C2863 C2860 1.539 . S
C2863 H2877 0.958 . S
C2863 H2878 0.961 . S
C2863 H2879 0.960 . S
H2864 C2848 0.931 . S
H2865 C2853 0.929 . S
H2866 C2854 0.960 . S
H2867 C2854 0.962 . S
H2868 C2854 0.960 . S
H2869 C2855 0.961 . S
H2870 C2855 0.961 . S
H2871 C2855 0.961 . S
H2872 C2856 0.931 . S
H2873 C2861 0.930 . S
H2874 C2862 0.956 . S
H2875 C2862 0.961 . S
H2876 C2862 0.961 . S
H2877 C2863 0.958 . S
H2878 C2863 0.961 . S
H2879 C2863 0.960 . S
C2880 C2881 1.391 . S
C2880 C2882 1.394 . S
C2880 H2896 0.931 . S
C2881 C2880 1.391 . S
C2881 C2885 1.376 . S
C2882 C2880 1.394 . S
C2882 C2883 1.369 . S
C2882 C2886 1.531 . S
C2883 C2882 1.369 . S
C2883 C2884 1.410 . S
C2883 C2891 1.503 . S
C2884 C2883 1.410 . S
C2884 C2885 1.392 . S
C2884 C2887 1.511 . S
C2885 C2881 1.376 . S
C2885 C2884 1.392 . S
C2885 H2897 0.929 . S
C2886 C2882 1.531 . S
C2886 H2898 0.960 . S
C2886 H2899 0.962 . S
C2886 H2900 0.960 . S
C2887 C2884 1.511 . S
C2887 H2901 0.961 . S
C2887 H2902 0.961 . S
C2887 H2903 0.961 . S
C2888 C2889 1.370 . S
C2888 C2890 1.363 . S
C2888 H2904 0.931 . S
C2889 C2888 1.370 . S
C2889 C2893 1.408 . S
C2890 C2888 1.363 . S
C2890 C2891 1.370 . S
C2890 C2894 1.524 . S
C2891 C2883 1.503 . S
C2891 C2890 1.370 . S
C2891 C2892 1.403 . S
C2892 C2891 1.403 . S
C2892 C2893 1.404 . S
C2892 C2895 1.539 . S
C2893 C2889 1.408 . S
C2893 C2892 1.404 . S
C2893 H2905 0.930 . S
C2894 C2890 1.524 . S
C2894 H2906 0.956 . S
C2894 H2907 0.961 . S
C2894 H2908 0.961 . S
C2895 C2892 1.539 . S
C2895 H2909 0.958 . S
C2895 H2910 0.961 . S
C2895 H2911 0.960 . S
H2896 C2880 0.931 . S
H2897 C2885 0.929 . S
H2898 C2886 0.960 . S
H2899 C2886 0.962 . S
H2900 C2886 0.960 . S
H2901 C2887 0.961 . S
H2902 C2887 0.961 . S
H2903 C2887 0.961 . S
H2904 C2888 0.931 . S
H2905 C2893 0.930 . S
H2906 C2894 0.956 . S
H2907 C2894 0.961 . S
H2908 C2894 0.961 . S
H2909 C2895 0.958 . S
H2910 C2895 0.961 . S
H2911 C2895 0.960 . S
C2912 C2913 1.391 . S
C2912 C2914 1.394 . S
C2912 H2928 0.931 . S
C2913 C2912 1.391 . S
C2913 C2917 1.376 . S
C2914 C2912 1.394 . S
C2914 C2915 1.369 . S
C2914 C2918 1.531 . S
C2915 C2914 1.369 . S
C2915 C2916 1.410 . S
C2915 C2923 1.503 . S
C2916 C2915 1.410 . S
C2916 C2917 1.392 . S
C2916 C2919 1.511 . S
C2917 C2913 1.376 . S
C2917 C2916 1.392 . S
C2917 H2929 0.929 . S
C2918 C2914 1.531 . S
C2918 H2930 0.960 . S
C2918 H2931 0.962 . S
C2918 H2932 0.960 . S
C2919 C2916 1.511 . S
C2919 H2933 0.961 . S
C2919 H2934 0.961 . S
C2919 H2935 0.961 . S
C2920 C2921 1.370 . S
C2920 C2922 1.363 . S
C2920 H2936 0.931 . S
C2921 C2920 1.370 . S
C2921 C2925 1.408 . S
C2922 C2920 1.363 . S
C2922 C2923 1.370 . S
C2922 C2926 1.524 . S
C2923 C2915 1.503 . S
C2923 C2922 1.370 . S
C2923 C2924 1.403 . S
C2924 C2923 1.403 . S
C2924 C2925 1.404 . S
C2924 C2927 1.539 . S
C2925 C2921 1.408 . S
C2925 C2924 1.404 . S
C2925 H2937 0.930 . S
C2926 C2922 1.524 . S
C2926 H2938 0.956 . S
C2926 H2939 0.961 . S
C2926 H2940 0.961 . S
C2927 C2924 1.539 . S
C2927 H2941 0.958 . S
C2927 H2942 0.961 . S
C2927 H2943 0.960 . S
H2928 C2912 0.931 . S
H2929 C2917 0.929 . S
H2930 C2918 0.960 . S
H2931 C2918 0.962 . S
H2932 C2918 0.960 . S
H2933 C2919 0.961 . S
H2934 C2919 0.961 . S
H2935 C2919 0.961 . S
H2936 C2920 0.931 . S
H2937 C2925 0.930 . S
H2938 C2926 0.956 . S
H2939 C2926 0.961 . S
H2940 C2926 0.961 . S
H2941 C2927 0.958 . S
H2942 C2927 0.961 . S
H2943 C2927 0.960 . S
C2944 C2945 1.391 . S
C2944 C2946 1.394 . S
C2944 H2960 0.931 . S
C2945 C2944 1.391 . S
C2945 C2949 1.376 . S
C2946 C2944 1.394 . S
C2946 C2947 1.369 . S
C2946 C2950 1.531 . S
C2947 C2946 1.369 . S
C2947 C2948 1.410 . S
C2947 C2955 1.503 . S
C2948 C2947 1.410 . S
C2948 C2949 1.392 . S
C2948 C2951 1.511 . S
C2949 C2945 1.376 . S
C2949 C2948 1.392 . S
C2949 H2961 0.929 . S
C2950 C2946 1.531 . S
C2950 H2962 0.960 . S
C2950 H2963 0.962 . S
C2950 H2964 0.960 . S
C2951 C2948 1.511 . S
C2951 H2965 0.961 . S
C2951 H2966 0.961 . S
C2951 H2967 0.961 . S
C2952 C2953 1.370 . S
C2952 C2954 1.363 . S
C2952 H2968 0.931 . S
C2953 C2952 1.370 . S
C2953 C2957 1.408 . S
C2954 C2952 1.363 . S
C2954 C2955 1.370 . S
C2954 C2958 1.524 . S
C2955 C2947 1.503 . S
C2955 C2954 1.370 . S
C2955 C2956 1.403 . S
C2956 C2955 1.403 . S
C2956 C2957 1.404 . S
C2956 C2959 1.539 . S
C2957 C2953 1.408 . S
C2957 C2956 1.404 . S
C2957 H2969 0.930 . S
C2958 C2954 1.524 . S
C2958 H2970 0.956 . S
C2958 H2971 0.961 . S
C2958 H2972 0.961 . S
C2959 C2956 1.539 . S
C2959 H2973 0.958 . S
C2959 H2974 0.961 . S
C2959 H2975 0.960 . S
H2960 C2944 0.931 . S
H2961 C2949 0.929 . S
H2962 C2950 0.960 . S
H2963 C2950 0.962 . S
H2964 C2950 0.960 . S
H2965 C2951 0.961 . S
H2966 C2951 0.961 . S
H2967 C2951 0.961 . S
H2968 C2952 0.931 . S
H2969 C2957 0.930 . S
H2970 C2958 0.956 . S
H2971 C2958 0.961 . S
H2972 C2958 0.961 . S
H2973 C2959 0.958 . S
H2974 C2959 0.961 . S
H2975 C2959 0.960 . S
C2976 C2977 1.391 . S
C2976 C2978 1.394 . S
C2976 H2992 0.931 . S
C2977 C2976 1.391 . S
C2977 C2981 1.376 . S
C2978 C2976 1.394 . S
C2978 C2979 1.369 . S
C2978 C2982 1.531 . S
C2979 C2978 1.369 . S
C2979 C2980 1.410 . S
C2979 C2987 1.503 . S
C2980 C2979 1.410 . S
C2980 C2981 1.392 . S
C2980 C2983 1.511 . S
C2981 C2977 1.376 . S
C2981 C2980 1.392 . S
C2981 H2993 0.929 . S
C2982 C2978 1.531 . S
C2982 H2994 0.960 . S
C2982 H2995 0.962 . S
C2982 H2996 0.960 . S
C2983 C2980 1.511 . S
C2983 H2997 0.961 . S
C2983 H2998 0.961 . S
C2983 H2999 0.961 . S
C2984 C2985 1.370 . S
C2984 C2986 1.363 . S
C2984 H3000 0.931 . S
C2985 C2984 1.370 . S
C2985 C2989 1.408 . S
C2986 C2984 1.363 . S
C2986 C2987 1.370 . S
C2986 C2990 1.524 . S
C2987 C2979 1.503 . S
C2987 C2986 1.370 . S
C2987 C2988 1.403 . S
C2988 C2987 1.403 . S
C2988 C2989 1.404 . S
C2988 C2991 1.539 . S
C2989 C2985 1.408 . S
C2989 C2988 1.404 . S
C2989 H3001 0.930 . S
C2990 C2986 1.524 . S
C2990 H3002 0.956 . S
C2990 H3003 0.961 . S
C2990 H3004 0.961 . S
C2991 C2988 1.539 . S
C2991 H3005 0.958 . S
C2991 H3006 0.961 . S
C2991 H3007 0.960 . S
H2992 C2976 0.931 . S
H2993 C2981 0.929 . S
H2994 C2982 0.960 . S
H2995 C2982 0.962 . S
H2996 C2982 0.960 . S
H2997 C2983 0.961 . S
H2998 C2983 0.961 . S
H2999 C2983 0.961 . S
H3000 C2984 0.931 . S
H3001 C2989 0.930 . S
H3002 C2990 0.956 . S
H3003 C2990 0.961 . S
H3004 C2990 0.961 . S
H3005 C2991 0.958 . S
H3006 C2991 0.961 . S
H3007 C2991 0.960 . S
C3008 C3009 1.391 . S
C3008 C3010 1.394 . S
C3008 H3024 0.931 . S
C3009 C3008 1.391 . S
C3009 C3013 1.376 . S
C3010 C3008 1.394 . S
C3010 C3011 1.369 . S
C3010 C3014 1.531 . S
C3011 C3010 1.369 . S
C3011 C3012 1.410 . S
C3011 C3019 1.503 . S
C3012 C3011 1.410 . S
C3012 C3013 1.392 . S
C3012 C3015 1.511 . S
C3013 C3009 1.376 . S
C3013 C3012 1.392 . S
C3013 H3025 0.929 . S
C3014 C3010 1.531 . S
C3014 H3026 0.960 . S
C3014 H3027 0.962 . S
C3014 H3028 0.960 . S
C3015 C3012 1.511 . S
C3015 H3029 0.961 . S
C3015 H3030 0.961 . S
C3015 H3031 0.961 . S
C3016 C3017 1.370 . S
C3016 C3018 1.363 . S
C3016 H3032 0.931 . S
C3017 C3016 1.370 . S
C3017 C3021 1.408 . S
C3018 C3016 1.363 . S
C3018 C3019 1.370 . S
C3018 C3022 1.524 . S
C3019 C3011 1.503 . S
C3019 C3018 1.370 . S
C3019 C3020 1.403 . S
C3020 C3019 1.403 . S
C3020 C3021 1.404 . S
C3020 C3023 1.539 . S
C3021 C3017 1.408 . S
C3021 C3020 1.404 . S
C3021 H3033 0.930 . S
C3022 C3018 1.524 . S
C3022 H3034 0.956 . S
C3022 H3035 0.961 . S
C3022 H3036 0.961 . S
C3023 C3020 1.539 . S
C3023 H3037 0.958 . S
C3023 H3038 0.961 . S
C3023 H3039 0.960 . S
H3024 C3008 0.931 . S
H3025 C3013 0.929 . S
H3026 C3014 0.960 . S
H3027 C3014 0.962 . S
H3028 C3014 0.960 . S
H3029 C3015 0.961 . S
H3030 C3015 0.961 . S
H3031 C3015 0.961 . S
H3032 C3016 0.931 . S
H3033 C3021 0.930 . S
H3034 C3022 0.956 . S
H3035 C3022 0.961 . S
H3036 C3022 0.961 . S
H3037 C3023 0.958 . S
H3038 C3023 0.961 . S
H3039 C3023 0.960 . S
C3040 C3041 1.391 . S
C3040 C3042 1.394 . S
C3040 H3056 0.931 . S
C3041 C3040 1.391 . S
C3041 C3045 1.376 . S
C3042 C3040 1.394 . S
C3042 C3043 1.369 . S
C3042 C3046 1.531 . S
C3043 C3042 1.369 . S
C3043 C3044 1.410 . S
C3043 C3051 1.503 . S
C3044 C3043 1.410 . S
C3044 C3045 1.392 . S
C3044 C3047 1.511 . S
C3045 C3041 1.376 . S
C3045 C3044 1.392 . S
C3045 H3057 0.929 . S
C3046 C3042 1.531 . S
C3046 H3058 0.960 . S
C3046 H3059 0.962 . S
C3046 H3060 0.960 . S
C3047 C3044 1.511 . S
C3047 H3061 0.961 . S
C3047 H3062 0.961 . S
C3047 H3063 0.961 . S
C3048 C3049 1.370 . S
C3048 C3050 1.363 . S
C3048 H3064 0.931 . S
C3049 C3048 1.370 . S
C3049 C3053 1.408 . S
C3050 C3048 1.363 . S
C3050 C3051 1.370 . S
C3050 C3054 1.524 . S
C3051 C3043 1.503 . S
C3051 C3050 1.370 . S
C3051 C3052 1.403 . S
C3052 C3051 1.403 . S
C3052 C3053 1.404 . S
C3052 C3055 1.539 . S
C3053 C3049 1.408 . S
C3053 C3052 1.404 . S
C3053 H3065 0.930 . S
C3054 C3050 1.524 . S
C3054 H3066 0.956 . S
C3054 H3067 0.961 . S
C3054 H3068 0.961 . S
C3055 C3052 1.539 . S
C3055 H3069 0.958 . S
C3055 H3070 0.961 . S
C3055 H3071 0.960 . S
H3056 C3040 0.931 . S
H3057 C3045 0.929 . S
H3058 C3046 0.960 . S
H3059 C3046 0.962 . S
H3060 C3046 0.960 . S
H3061 C3047 0.961 . S
H3062 C3047 0.961 . S
H3063 C3047 0.961 . S
H3064 C3048 0.931 . S
H3065 C3053 0.930 . S
H3066 C3054 0.956 . S
H3067 C3054 0.961 . S
H3068 C3054 0.961 . S
H3069 C3055 0.958 . S
H3070 C3055 0.961 . S
H3071 C3055 0.960 . S
C3072 C3073 1.391 . S
C3072 C3074 1.394 . S
C3072 H3088 0.931 . S
C3073 C3072 1.391 . S
C3073 C3077 1.376 . S
C3074 C3072 1.394 . S
C3074 C3075 1.369 . S
C3074 C3078 1.531 . S
C3075 C3074 1.369 . S
C3075 C3076 1.410 . S
C3075 C3083 1.503 . S
C3076 C3075 1.410 . S
C3076 C3077 1.392 . S
C3076 C3079 1.511 . S
C3077 C3073 1.376 . S
C3077 C3076 1.392 . S
C3077 H3089 0.929 . S
C3078 C3074 1.531 . S
C3078 H3090 0.960 . S
C3078 H3091 0.962 . S
C3078 H3092 0.960 . S
C3079 C3076 1.511 . S
C3079 H3093 0.961 . S
C3079 H3094 0.961 . S
C3079 H3095 0.961 . S
C3080 C3081 1.370 . S
C3080 C3082 1.363 . S
C3080 H3096 0.931 . S
C3081 C3080 1.370 . S
C3081 C3085 1.408 . S
C3082 C3080 1.363 . S
C3082 C3083 1.370 . S
C3082 C3086 1.524 . S
C3083 C3075 1.503 . S
C3083 C3082 1.370 . S
C3083 C3084 1.403 . S
C3084 C3083 1.403 . S
C3084 C3085 1.404 . S
C3084 C3087 1.539 . S
C3085 C3081 1.408 . S
C3085 C3084 1.404 . S
C3085 H3097 0.930 . S
C3086 C3082 1.524 . S
C3086 H3098 0.956 . S
C3086 H3099 0.961 . S
C3086 H3100 0.961 . S
C3087 C3084 1.539 . S
C3087 H3101 0.958 . S
C3087 H3102 0.961 . S
C3087 H3103 0.960 . S
H3088 C3072 0.931 . S
H3089 C3077 0.929 . S
H3090 C3078 0.960 . S
H3091 C3078 0.962 . S
H3092 C3078 0.960 . S
H3093 C3079 0.961 . S
H3094 C3079 0.961 . S
H3095 C3079 0.961 . S
H3096 C3080 0.931 . S
H3097 C3085 0.930 . S
H3098 C3086 0.956 . S
H3099 C3086 0.961 . S
H3100 C3086 0.961 . S
H3101 C3087 0.958 . S
H3102 C3087 0.961 . S
H3103 C3087 0.960 . S
C3104 C3105 1.391 . S
C3104 C3106 1.394 . S
C3104 H3120 0.931 . S
C3105 C3104 1.391 . S
C3105 C3109 1.376 . S
C3106 C3104 1.394 . S
C3106 C3107 1.369 . S
C3106 C3110 1.531 . S
C3107 C3106 1.369 . S
C3107 C3108 1.410 . S
C3107 C3115 1.503 . S
C3108 C3107 1.410 . S
C3108 C3109 1.392 . S
C3108 C3111 1.511 . S
C3109 C3105 1.376 . S
C3109 C3108 1.392 . S
C3109 H3121 0.929 . S
C3110 C3106 1.531 . S
C3110 H3122 0.960 . S
C3110 H3123 0.962 . S
C3110 H3124 0.960 . S
C3111 C3108 1.511 . S
C3111 H3125 0.961 . S
C3111 H3126 0.961 . S
C3111 H3127 0.961 . S
C3112 C3113 1.370 . S
C3112 C3114 1.363 . S
C3112 H3128 0.931 . S
C3113 C3112 1.370 . S
C3113 C3117 1.408 . S
C3114 C3112 1.363 . S
C3114 C3115 1.370 . S
C3114 C3118 1.524 . S
C3115 C3107 1.503 . S
C3115 C3114 1.370 . S
C3115 C3116 1.403 . S
C3116 C3115 1.403 . S
C3116 C3117 1.404 . S
C3116 C3119 1.539 . S
C3117 C3113 1.408 . S
C3117 C3116 1.404 . S
C3117 H3129 0.930 . S
C3118 C3114 1.524 . S
C3118 H3130 0.956 . S
C3118 H3131 0.961 . S
C3118 H3132 0.961 . S
C3119 C3116 1.539 . S
C3119 H3133 0.958 . S
C3119 H3134 0.961 . S
C3119 H3135 0.960 . S
H3120 C3104 0.931 . S
H3121 C3109 0.929 . S
H3122 C3110 0.960 . S
H3123 C3110 0.962 . S
H3124 C3110 0.960 . S
H3125 C3111 0.961 . S
H3126 C3111 0.961 . S
H3127 C3111 0.961 . S
H3128 C3112 0.931 . S
H3129 C3117 0.930 . S
H3130 C3118 0.956 . S
H3131 C3118 0.961 . S
H3132 C3118 0.961 . S
H3133 C3119 0.958 . S
H3134 C3119 0.961 . S
H3135 C3119 0.960 . S
C3136 C3137 1.391 . S
C3136 C3138 1.394 . S
C3136 H3152 0.931 . S
C3137 C3136 1.391 . S
C3137 C3141 1.376 . S
C3138 C3136 1.394 . S
C3138 C3139 1.369 . S
C3138 C3142 1.531 . S
C3139 C3138 1.369 . S
C3139 C3140 1.410 . S
C3139 C3147 1.503 . S
C3140 C3139 1.410 . S
C3140 C3141 1.392 . S
C3140 C3143 1.511 . S
C3141 C3137 1.376 . S
C3141 C3140 1.392 . S
C3141 H3153 0.929 . S
C3142 C3138 1.531 . S
C3142 H3154 0.960 . S
C3142 H3155 0.962 . S
C3142 H3156 0.960 . S
C3143 C3140 1.511 . S
C3143 H3157 0.961 . S
C3143 H3158 0.961 . S
C3143 H3159 0.961 . S
C3144 C3145 1.370 . S
C3144 C3146 1.363 . S
C3144 H3160 0.931 . S
C3145 C3144 1.370 . S
C3145 C3149 1.408 . S
C3146 C3144 1.363 . S
C3146 C3147 1.370 . S
C3146 C3150 1.524 . S
C3147 C3139 1.503 . S
C3147 C3146 1.370 . S
C3147 C3148 1.403 . S
C3148 C3147 1.403 . S
C3148 C3149 1.404 . S
C3148 C3151 1.539 . S
C3149 C3145 1.408 . S
C3149 C3148 1.404 . S
C3149 H3161 0.930 . S
C3150 C3146 1.524 . S
C3150 H3162 0.956 . S
C3150 H3163 0.961 . S
C3150 H3164 0.961 . S
C3151 C3148 1.539 . S
C3151 H3165 0.958 . S
C3151 H3166 0.961 . S
C3151 H3167 0.960 . S
H3152 C3136 0.931 . S
H3153 C3141 0.929 . S
H3154 C3142 0.960 . S
H3155 C3142 0.962 . S
H3156 C3142 0.960 . S
H3157 C3143 0.961 . S
H3158 C3143 0.961 . S
H3159 C3143 0.961 . S
H3160 C3144 0.931 . S
H3161 C3149 0.930 . S
H3162 C3150 0.956 . S
H3163 C3150 0.961 . S
H3164 C3150 0.961 . S
H3165 C3151 0.958 . S
H3166 C3151 0.961 . S
H3167 C3151 0.960 . S
C3168 C3169 1.391 . S
C3168 C3170 1.394 . S
C3168 H3184 0.931 . S
C3169 C3168 1.391 . S
C3169 C3173 1.376 . S
C3170 C3168 1.394 . S
C3170 C3171 1.369 . S
C3170 C3174 1.531 . S
C3171 C3170 1.369 . S
C3171 C3172 1.410 . S
C3171 C3179 1.503 . S
C3172 C3171 1.410 . S
C3172 C3173 1.392 . S
C3172 C3175 1.511 . S
C3173 C3169 1.376 . S
C3173 C3172 1.392 . S
C3173 H3185 0.929 . S
C3174 C3170 1.531 . S
C3174 H3186 0.960 . S
C3174 H3187 0.962 . S
C3174 H3188 0.960 . S
C3175 C3172 1.511 . S
C3175 H3189 0.961 . S
C3175 H3190 0.961 . S
C3175 H3191 0.961 . S
C3176 C3177 1.370 . S
C3176 C3178 1.363 . S
C3176 H3192 0.931 . S
C3177 C3176 1.370 . S
C3177 C3181 1.408 . S
C3178 C3176 1.363 . S
C3178 C3179 1.370 . S
C3178 C3182 1.524 . S
C3179 C3171 1.503 . S
C3179 C3178 1.370 . S
C3179 C3180 1.403 . S
C3180 C3179 1.403 . S
C3180 C3181 1.404 . S
C3180 C3183 1.539 . S
C3181 C3177 1.408 . S
C3181 C3180 1.404 . S
C3181 H3193 0.930 . S
C3182 C3178 1.524 . S
C3182 H3194 0.956 . S
C3182 H3195 0.961 . S
C3182 H3196 0.961 . S
C3183 C3180 1.539 . S
C3183 H3197 0.958 . S
C3183 H3198 0.961 . S
C3183 H3199 0.960 . S
H3184 C3168 0.931 . S
H3185 C3173 0.929 . S
H3186 C3174 0.960 . S
H3187 C3174 0.962 . S
H3188 C3174 0.960 . S
H3189 C3175 0.961 . S
H3190 C3175 0.961 . S
H3191 C3175 0.961 . S
H3192 C3176 0.931 . S
H3193 C3181 0.930 . S
H3194 C3182 0.956 . S
H3195 C3182 0.961 . S
H3196 C3182 0.961 . S
H3197 C3183 0.958 . S
H3198 C3183 0.961 . S
H3199 C3183 0.960 . S
C3200 C3201 1.391 . S
C3200 C3202 1.394 . S
C3200 H3216 0.931 . S
C3201 C3200 1.391 . S
C3201 C3205 1.376 . S
C3202 C3200 1.394 . S
C3202 C3203 1.369 . S
C3202 C3206 1.531 . S
C3203 C3202 1.369 . S
C3203 C3204 1.410 . S
C3203 C3211 1.503 . S
C3204 C3203 1.410 . S
C3204 C3205 1.392 . S
C3204 C3207 1.511 . S
C3205 C3201 1.376 . S
C3205 C3204 1.392 . S
C3205 H3217 0.929 . S
C3206 C3202 1.531 . S
C3206 H3218 0.960 . S
C3206 H3219 0.962 . S
C3206 H3220 0.960 . S
C3207 C3204 1.511 . S
C3207 H3221 0.961 . S
C3207 H3222 0.961 . S
C3207 H3223 0.961 . S
C3208 C3209 1.370 . S
C3208 C3210 1.363 . S
C3208 H3224 0.931 . S
C3209 C3208 1.370 . S
C3209 C3213 1.408 . S
C3210 C3208 1.363 . S
C3210 C3211 1.370 . S
C3210 C3214 1.524 . S
C3211 C3203 1.503 . S
C3211 C3210 1.370 . S
C3211 C3212 1.403 . S
C3212 C3211 1.403 . S
C3212 C3213 1.404 . S
C3212 C3215 1.539 . S
C3213 C3209 1.408 . S
C3213 C3212 1.404 . S
C3213 H3225 0.930 . S
C3214 C3210 1.524 . S
C3214 H3226 0.956 . S
C3214 H3227 0.961 . S
C3214 H3228 0.961 . S
C3215 C3212 1.539 . S
C3215 H3229 0.958 . S
C3215 H3230 0.961 . S
C3215 H3231 0.960 . S
H3216 C3200 0.931 . S
H3217 C3205 0.929 . S
H3218 C3206 0.960 . S
H3219 C3206 0.962 . S
H3220 C3206 0.960 . S
H3221 C3207 0.961 . S
H3222 C3207 0.961 . S
H3223 C3207 0.961 . S
H3224 C3208 0.931 . S
H3225 C3213 0.930 . S
H3226 C3214 0.956 . S
H3227 C3214 0.961 . S
H3228 C3214 0.961 . S
H3229 C3215 0.958 . S
H3230 C3215 0.961 . S
H3231 C3215 0.960 . S
C3232 C3233 1.391 . S
C3232 C3234 1.394 . S
C3232 H3248 0.931 . S
C3233 C3232 1.391 . S
C3233 C3237 1.376 . S
C3234 C3232 1.394 . S
C3234 C3235 1.369 . S
C3234 C3238 1.531 . S
C3235 C3234 1.369 . S
C3235 C3236 1.410 . S
C3235 C3243 1.503 . S
C3236 C3235 1.410 . S
C3236 C3237 1.392 . S
C3236 C3239 1.511 . S
C3237 C3233 1.376 . S
C3237 C3236 1.392 . S
C3237 H3249 0.929 . S
C3238 C3234 1.531 . S
C3238 H3250 0.960 . S
C3238 H3251 0.962 . S
C3238 H3252 0.960 . S
C3239 C3236 1.511 . S
C3239 H3253 0.961 . S
C3239 H3254 0.961 . S
C3239 H3255 0.961 . S
C3240 C3241 1.370 . S
C3240 C3242 1.363 . S
C3240 H3256 0.931 . S
C3241 C3240 1.370 . S
C3241 C3245 1.408 . S
C3242 C3240 1.363 . S
C3242 C3243 1.370 . S
C3242 C3246 1.524 . S
C3243 C3235 1.503 . S
C3243 C3242 1.370 . S
C3243 C3244 1.403 . S
C3244 C3243 1.403 . S
C3244 C3245 1.404 . S
C3244 C3247 1.539 . S
C3245 C3241 1.408 . S
C3245 C3244 1.404 . S
C3245 H3257 0.930 . S
C3246 C3242 1.524 . S
C3246 H3258 0.956 . S
C3246 H3259 0.961 . S
C3246 H3260 0.961 . S
C3247 C3244 1.539 . S
C3247 H3261 0.958 . S
C3247 H3262 0.961 . S
C3247 H3263 0.960 . S
H3248 C3232 0.931 . S
H3249 C3237 0.929 . S
H3250 C3238 0.960 . S
H3251 C3238 0.962 . S
H3252 C3238 0.960 . S
H3253 C3239 0.961 . S
H3254 C3239 0.961 . S
H3255 C3239 0.961 . S
H3256 C3240 0.931 . S
H3257 C3245 0.930 . S
H3258 C3246 0.956 . S
H3259 C3246 0.961 . S
H3260 C3246 0.961 . S
H3261 C3247 0.958 . S
H3262 C3247 0.961 . S
H3263 C3247 0.960 . S
C3264 C3265 1.391 . S
C3264 C3266 1.394 . S
C3264 H3280 0.931 . S
C3265 C3264 1.391 . S
C3265 C3269 1.376 . S
C3266 C3264 1.394 . S
C3266 C3267 1.369 . S
C3266 C3270 1.531 . S
C3267 C3266 1.369 . S
C3267 C3268 1.410 . S
C3267 C3275 1.503 . S
C3268 C3267 1.410 . S
C3268 C3269 1.392 . S
C3268 C3271 1.511 . S
C3269 C3265 1.376 . S
C3269 C3268 1.392 . S
C3269 H3281 0.929 . S
C3270 C3266 1.531 . S
C3270 H3282 0.960 . S
C3270 H3283 0.962 . S
C3270 H3284 0.960 . S
C3271 C3268 1.511 . S
C3271 H3285 0.961 . S
C3271 H3286 0.961 . S
C3271 H3287 0.961 . S
C3272 C3273 1.370 . S
C3272 C3274 1.363 . S
C3272 H3288 0.931 . S
C3273 C3272 1.370 . S
C3273 C3277 1.408 . S
C3274 C3272 1.363 . S
C3274 C3275 1.370 . S
C3274 C3278 1.524 . S
C3275 C3267 1.503 . S
C3275 C3274 1.370 . S
C3275 C3276 1.403 . S
C3276 C3275 1.403 . S
C3276 C3277 1.404 . S
C3276 C3279 1.539 . S
C3277 C3273 1.408 . S
C3277 C3276 1.404 . S
C3277 H3289 0.930 . S
C3278 C3274 1.524 . S
C3278 H3290 0.956 . S
C3278 H3291 0.961 . S
C3278 H3292 0.961 . S
C3279 C3276 1.539 . S
C3279 H3293 0.958 . S
C3279 H3294 0.961 . S
C3279 H3295 0.960 . S
H3280 C3264 0.931 . S
H3281 C3269 0.929 . S
H3282 C3270 0.960 . S
H3283 C3270 0.962 . S
H3284 C3270 0.960 . S
H3285 C3271 0.961 . S
H3286 C3271 0.961 . S
H3287 C3271 0.961 . S
H3288 C3272 0.931 . S
H3289 C3277 0.930 . S
H3290 C3278 0.956 . S
H3291 C3278 0.961 . S
H3292 C3278 0.961 . S
H3293 C3279 0.958 . S
H3294 C3279 0.961 . S
H3295 C3279 0.960 . S
C3296 C3297 1.391 . S
C3296 C3298 1.394 . S
C3296 H3312 0.931 . S
C3297 C3296 1.391 . S
C3297 C3301 1.376 . S
C3298 C3296 1.394 . S
C3298 C3299 1.369 . S
C3298 C3302 1.531 . S
C3299 C3298 1.369 . S
C3299 C3300 1.410 . S
C3299 C3307 1.503 . S
C3300 C3299 1.410 . S
C3300 C3301 1.392 . S
C3300 C3303 1.511 . S
C3301 C3297 1.376 . S
C3301 C3300 1.392 . S
C3301 H3313 0.929 . S
C3302 C3298 1.531 . S
C3302 H3314 0.960 . S
C3302 H3315 0.962 . S
C3302 H3316 0.960 . S
C3303 C3300 1.511 . S
C3303 H3317 0.961 . S
C3303 H3318 0.961 . S
C3303 H3319 0.961 . S
C3304 C3305 1.370 . S
C3304 C3306 1.363 . S
C3304 H3320 0.931 . S
C3305 C3304 1.370 . S
C3305 C3309 1.408 . S
C3306 C3304 1.363 . S
C3306 C3307 1.370 . S
C3306 C3310 1.524 . S
C3307 C3299 1.503 . S
C3307 C3306 1.370 . S
C3307 C3308 1.403 . S
C3308 C3307 1.403 . S
C3308 C3309 1.404 . S
C3308 C3311 1.539 . S
C3309 C3305 1.408 . S
C3309 C3308 1.404 . S
C3309 H3321 0.930 . S
C3310 C3306 1.524 . S
C3310 H3322 0.956 . S
C3310 H3323 0.961 . S
C3310 H3324 0.961 . S
C3311 C3308 1.539 . S
C3311 H3325 0.958 . S
C3311 H3326 0.961 . S
C3311 H3327 0.960 . S
H3312 C3296 0.931 . S
H3313 C3301 0.929 . S
H3314 C3302 0.960 . S
H3315 C3302 0.962 . S
H3316 C3302 0.960 . S
H3317 C3303 0.961 . S
H3318 C3303 0.961 . S
H3319 C3303 0.961 . S
H3320 C3304 0.931 . S
H3321 C3309 0.930 . S
H3322 C3310 0.956 . S
H3323 C3310 0.961 . S
H3324 C3310 0.961 . S
H3325 C3311 0.958 . S
H3326 C3311 0.961 . S
H3327 C3311 0.960 . S
C3328 C3329 1.391 . S
C3328 C3330 1.394 . S
C3328 H3344 0.931 . S
C3329 C3328 1.391 . S
C3329 C3333 1.376 . S
C3330 C3328 1.394 . S
C3330 C3331 1.369 . S
C3330 C3334 1.531 . S
C3331 C3330 1.369 . S
C3331 C3332 1.410 . S
C3331 C3339 1.503 . S
C3332 C3331 1.410 . S
C3332 C3333 1.392 . S
C3332 C3335 1.511 . S
C3333 C3329 1.376 . S
C3333 C3332 1.392 . S
C3333 H3345 0.929 . S
C3334 C3330 1.531 . S
C3334 H3346 0.960 . S
C3334 H3347 0.962 . S
C3334 H3348 0.960 . S
C3335 C3332 1.511 . S
C3335 H3349 0.961 . S
C3335 H3350 0.961 . S
C3335 H3351 0.961 . S
C3336 C3337 1.370 . S
C3336 C3338 1.363 . S
C3336 H3352 0.931 . S
C3337 C3336 1.370 . S
C3337 C3341 1.408 . S
C3338 C3336 1.363 . S
C3338 C3339 1.370 . S
C3338 C3342 1.524 . S
C3339 C3331 1.503 . S
C3339 C3338 1.370 . S
C3339 C3340 1.403 . S
C3340 C3339 1.403 . S
C3340 C3341 1.404 . S
C3340 C3343 1.539 . S
C3341 C3337 1.408 . S
C3341 C3340 1.404 . S
C3341 H3353 0.930 . S
C3342 C3338 1.524 . S
C3342 H3354 0.956 . S
C3342 H3355 0.961 . S
C3342 H3356 0.961 . S
C3343 C3340 1.539 . S
C3343 H3357 0.958 . S
C3343 H3358 0.961 . S
C3343 H3359 0.960 . S
H3344 C3328 0.931 . S
H3345 C3333 0.929 . S
H3346 C3334 0.960 . S
H3347 C3334 0.962 . S
H3348 C3334 0.960 . S
H3349 C3335 0.961 . S
H3350 C3335 0.961 . S
H3351 C3335 0.961 . S
H3352 C3336 0.931 . S
H3353 C3341 0.930 . S
H3354 C3342 0.956 . S
H3355 C3342 0.961 . S
H3356 C3342 0.961 . S
H3357 C3343 0.958 . S
H3358 C3343 0.961 . S
H3359 C3343 0.960 . S
C3360 C3361 1.391 . S
C3360 C3362 1.394 . S
C3360 H3376 0.931 . S
C3361 C3360 1.391 . S
C3361 C3365 1.376 . S
C3362 C3360 1.394 . S
C3362 C3363 1.369 . S
C3362 C3366 1.531 . S
C3363 C3362 1.369 . S
C3363 C3364 1.410 . S
C3363 C3371 1.503 . S
C3364 C3363 1.410 . S
C3364 C3365 1.392 . S
C3364 C3367 1.511 . S
C3365 C3361 1.376 . S
C3365 C3364 1.392 . S
C3365 H3377 0.929 . S
C3366 C3362 1.531 . S
C3366 H3378 0.960 . S
C3366 H3379 0.962 . S
C3366 H3380 0.960 . S
C3367 C3364 1.511 . S
C3367 H3381 0.961 . S
C3367 H3382 0.961 . S
C3367 H3383 0.961 . S
C3368 C3369 1.370 . S
C3368 C3370 1.363 . S
C3368 H3384 0.931 . S
C3369 C3368 1.370 . S
C3369 C3373 1.408 . S
C3370 C3368 1.363 . S
C3370 C3371 1.370 . S
C3370 C3374 1.524 . S
C3371 C3363 1.503 . S
C3371 C3370 1.370 . S
C3371 C3372 1.403 . S
C3372 C3371 1.403 . S
C3372 C3373 1.404 . S
C3372 C3375 1.539 . S
C3373 C3369 1.408 . S
C3373 C3372 1.404 . S
C3373 H3385 0.930 . S
C3374 C3370 1.524 . S
C3374 H3386 0.956 . S
C3374 H3387 0.961 . S
C3374 H3388 0.961 . S
C3375 C3372 1.539 . S
C3375 H3389 0.958 . S
C3375 H3390 0.961 . S
C3375 H3391 0.960 . S
H3376 C3360 0.931 . S
H3377 C3365 0.929 . S
H3378 C3366 0.960 . S
H3379 C3366 0.962 . S
H3380 C3366 0.960 . S
H3381 C3367 0.961 . S
H3382 C3367 0.961 . S
H3383 C3367 0.961 . S
H3384 C3368 0.931 . S
H3385 C3373 0.930 . S
H3386 C3374 0.956 . S
H3387 C3374 0.961 . S
H3388 C3374 0.961 . S
H3389 C3375 0.958 . S
H3390 C3375 0.961 . S
H3391 C3375 0.960 . S
C3392 C3393 1.391 . S
C3392 C3394 1.394 . S
C3392 H3408 0.931 . S
C3393 C3392 1.391 . S
C3393 C3397 1.376 . S
C3394 C3392 1.394 . S
C3394 C3395 1.369 . S
C3394 C3398 1.531 . S
C3395 C3394 1.369 . S
C3395 C3396 1.410 . S
C3395 C3403 1.503 . S
C3396 C3395 1.410 . S
C3396 C3397 1.392 . S
C3396 C3399 1.511 . S
C3397 C3393 1.376 . S
C3397 C3396 1.392 . S
C3397 H3409 0.929 . S
C3398 C3394 1.531 . S
C3398 H3410 0.960 . S
C3398 H3411 0.962 . S
C3398 H3412 0.960 . S
C3399 C3396 1.511 . S
C3399 H3413 0.961 . S
C3399 H3414 0.961 . S
C3399 H3415 0.961 . S
C3400 C3401 1.370 . S
C3400 C3402 1.363 . S
C3400 H3416 0.931 . S
C3401 C3400 1.370 . S
C3401 C3405 1.408 . S
C3402 C3400 1.363 . S
C3402 C3403 1.370 . S
C3402 C3406 1.524 . S
C3403 C3395 1.503 . S
C3403 C3402 1.370 . S
C3403 C3404 1.403 . S
C3404 C3403 1.403 . S
C3404 C3405 1.404 . S
C3404 C3407 1.539 . S
C3405 C3401 1.408 . S
C3405 C3404 1.404 . S
C3405 H3417 0.930 . S
C3406 C3402 1.524 . S
C3406 H3418 0.956 . S
C3406 H3419 0.961 . S
C3406 H3420 0.961 . S
C3407 C3404 1.539 . S
C3407 H3421 0.958 . S
C3407 H3422 0.961 . S
C3407 H3423 0.960 . S
H3408 C3392 0.931 . S
H3409 C3397 0.929 . S
H3410 C3398 0.960 . S
H3411 C3398 0.962 . S
H3412 C3398 0.960 . S
H3413 C3399 0.961 . S
H3414 C3399 0.961 . S
H3415 C3399 0.961 . S
H3416 C3400 0.931 . S
H3417 C3405 0.930 . S
H3418 C3406 0.956 . S
H3419 C3406 0.961 . S
H3420 C3406 0.961 . S
H3421 C3407 0.958 . S
H3422 C3407 0.961 . S
H3423 C3407 0.960 . S
C3424 C3425 1.391 . S
C3424 C3426 1.394 . S
C3424 H3440 0.931 . S
C3425 C3424 1.391 . S
C3425 C3429 1.376 . S
C3426 C3424 1.394 . S
C3426 C3427 1.369 . S
C3426 C3430 1.531 . S
C3427 C3426 1.369 . S
C3427 C3428 1.410 . S
C3427 C3435 1.503 . S
C3428 C3427 1.410 . S
C3428 C3429 1.392 . S
C3428 C3431 1.511 . S
C3429 C3425 1.376 . S
C3429 C3428 1.392 . S
C3429 H3441 0.929 . S
C3430 C3426 1.531 . S
C3430 H3442 0.960 . S
C3430 H3443 0.962 . S
C3430 H3444 0.960 . S
C3431 C3428 1.511 . S
C3431 H3445 0.961 . S
C3431 H3446 0.961 . S
C3431 H3447 0.961 . S
C3432 C3433 1.370 . S
C3432 C3434 1.363 . S
C3432 H3448 0.931 . S
C3433 C3432 1.370 . S
C3433 C3437 1.408 . S
C3434 C3432 1.363 . S
C3434 C3435 1.370 . S
C3434 C3438 1.524 . S
C3435 C3427 1.503 . S
C3435 C3434 1.370 . S
C3435 C3436 1.403 . S
C3436 C3435 1.403 . S
C3436 C3437 1.404 . S
C3436 C3439 1.539 . S
C3437 C3433 1.408 . S
C3437 C3436 1.404 . S
C3437 H3449 0.930 . S
C3438 C3434 1.524 . S
C3438 H3450 0.956 . S
C3438 H3451 0.961 . S
C3438 H3452 0.961 . S
C3439 C3436 1.539 . S
C3439 H3453 0.958 . S
C3439 H3454 0.961 . S
C3439 H3455 0.960 . S
H3440 C3424 0.931 . S
H3441 C3429 0.929 . S
H3442 C3430 0.960 . S
H3443 C3430 0.962 . S
H3444 C3430 0.960 . S
H3445 C3431 0.961 . S
H3446 C3431 0.961 . S
H3447 C3431 0.961 . S
H3448 C3432 0.931 . S
H3449 C3437 0.930 . S
H3450 C3438 0.956 . S
H3451 C3438 0.961 . S
H3452 C3438 0.961 . S
H3453 C3439 0.958 . S
H3454 C3439 0.961 . S
H3455 C3439 0.960 . S
C3456 C3457 1.391 . S
C3456 C3458 1.394 . S
C3456 H3472 0.931 . S
C3457 C3456 1.391 . S
C3457 C3461 1.376 . S
C3458 C3456 1.394 . S
C3458 C3459 1.369 . S
C3458 C3462 1.531 . S
C3459 C3458 1.369 . S
C3459 C3460 1.410 . S
C3459 C3467 1.503 . S
C3460 C3459 1.410 . S
C3460 C3461 1.392 . S
C3460 C3463 1.511 . S
C3461 C3457 1.376 . S
C3461 C3460 1.392 . S
C3461 H3473 0.929 . S
C3462 C3458 1.531 . S
C3462 H3474 0.960 . S
C3462 H3475 0.962 . S
C3462 H3476 0.960 . S
C3463 C3460 1.511 . S
C3463 H3477 0.961 . S
C3463 H3478 0.961 . S
C3463 H3479 0.961 . S
C3464 C3465 1.370 . S
C3464 C3466 1.363 . S
C3464 H3480 0.931 . S
C3465 C3464 1.370 . S
C3465 C3469 1.408 . S
C3466 C3464 1.363 . S
C3466 C3467 1.370 . S
C3466 C3470 1.524 . S
C3467 C3459 1.503 . S
C3467 C3466 1.370 . S
C3467 C3468 1.403 . S
C3468 C3467 1.403 . S
C3468 C3469 1.404 . S
C3468 C3471 1.539 . S
C3469 C3465 1.408 . S
C3469 C3468 1.404 . S
C3469 H3481 0.930 . S
C3470 C3466 1.524 . S
C3470 H3482 0.956 . S
C3470 H3483 0.961 . S
C3470 H3484 0.961 . S
C3471 C3468 1.539 . S
C3471 H3485 0.958 . S
C3471 H3486 0.961 . S
C3471 H3487 0.960 . S
H3472 C3456 0.931 . S
H3473 C3461 0.929 . S
H3474 C3462 0.960 . S
H3475 C3462 0.962 . S
H3476 C3462 0.960 . S
H3477 C3463 0.961 . S
H3478 C3463 0.961 . S
H3479 C3463 0.961 . S
H3480 C3464 0.931 . S
H3481 C3469 0.930 . S
H3482 C3470 0.956 . S
H3483 C3470 0.961 . S
H3484 C3470 0.961 . S
H3485 C3471 0.958 . S
H3486 C3471 0.961 . S
H3487 C3471 0.960 . S
C3488 C3489 1.391 . S
C3488 C3490 1.394 . S
C3488 H3504 0.931 . S
C3489 C3488 1.391 . S
C3489 C3493 1.376 . S
C3490 C3488 1.394 . S
C3490 C3491 1.369 . S
C3490 C3494 1.531 . S
C3491 C3490 1.369 . S
C3491 C3492 1.410 . S
C3491 C3499 1.503 . S
C3492 C3491 1.410 . S
C3492 C3493 1.392 . S
C3492 C3495 1.511 . S
C3493 C3489 1.376 . S
C3493 C3492 1.392 . S
C3493 H3505 0.929 . S
C3494 C3490 1.531 . S
C3494 H3506 0.960 . S
C3494 H3507 0.962 . S
C3494 H3508 0.960 . S
C3495 C3492 1.511 . S
C3495 H3509 0.961 . S
C3495 H3510 0.961 . S
C3495 H3511 0.961 . S
C3496 C3497 1.370 . S
C3496 C3498 1.363 . S
C3496 H3512 0.931 . S
C3497 C3496 1.370 . S
C3497 C3501 1.408 . S
C3498 C3496 1.363 . S
C3498 C3499 1.370 . S
C3498 C3502 1.524 . S
C3499 C3491 1.503 . S
C3499 C3498 1.370 . S
C3499 C3500 1.403 . S
C3500 C3499 1.403 . S
C3500 C3501 1.404 . S
C3500 C3503 1.539 . S
C3501 C3497 1.408 . S
C3501 C3500 1.404 . S
C3501 H3513 0.930 . S
C3502 C3498 1.524 . S
C3502 H3514 0.956 . S
C3502 H3515 0.961 . S
C3502 H3516 0.961 . S
C3503 C3500 1.539 . S
C3503 H3517 0.958 . S
C3503 H3518 0.961 . S
C3503 H3519 0.960 . S
H3504 C3488 0.931 . S
H3505 C3493 0.929 . S
H3506 C3494 0.960 . S
H3507 C3494 0.962 . S
H3508 C3494 0.960 . S
H3509 C3495 0.961 . S
H3510 C3495 0.961 . S
H3511 C3495 0.961 . S
H3512 C3496 0.931 . S
H3513 C3501 0.930 . S
H3514 C3502 0.956 . S
H3515 C3502 0.961 . S
H3516 C3502 0.961 . S
H3517 C3503 0.958 . S
H3518 C3503 0.961 . S
H3519 C3503 0.960 . S
C3520 C3521 1.391 . S
C3520 C3522 1.394 . S
C3520 H3536 0.931 . S
C3521 C3520 1.391 . S
C3521 C3525 1.376 . S
C3522 C3520 1.394 . S
C3522 C3523 1.369 . S
C3522 C3526 1.531 . S
C3523 C3522 1.369 . S
C3523 C3524 1.410 . S
C3523 C3531 1.503 . S
C3524 C3523 1.410 . S
C3524 C3525 1.392 . S
C3524 C3527 1.511 . S
C3525 C3521 1.376 . S
C3525 C3524 1.392 . S
C3525 H3537 0.929 . S
C3526 C3522 1.531 . S
C3526 H3538 0.960 . S
C3526 H3539 0.962 . S
C3526 H3540 0.960 . S
C3527 C3524 1.511 . S
C3527 H3541 0.961 . S
C3527 H3542 0.961 . S
C3527 H3543 0.961 . S
C3528 C3529 1.370 . S
C3528 C3530 1.363 . S
C3528 H3544 0.931 . S
C3529 C3528 1.370 . S
C3529 C3533 1.408 . S
C3530 C3528 1.363 . S
C3530 C3531 1.370 . S
C3530 C3534 1.524 . S
C3531 C3523 1.503 . S
C3531 C3530 1.370 . S
C3531 C3532 1.403 . S
C3532 C3531 1.403 . S
C3532 C3533 1.404 . S
C3532 C3535 1.539 . S
C3533 C3529 1.408 . S
C3533 C3532 1.404 . S
C3533 H3545 0.930 . S
C3534 C3530 1.524 . S
C3534 H3546 0.956 . S
C3534 H3547 0.961 . S
C3534 H3548 0.961 . S
C3535 C3532 1.539 . S
C3535 H3549 0.958 . S
C3535 H3550 0.961 . S
C3535 H3551 0.960 . S
H3536 C3520 0.931 . S
H3537 C3525 0.929 . S
H3538 C3526 0.960 . S
H3539 C3526 0.962 . S
H3540 C3526 0.960 . S
H3541 C3527 0.961 . S
H3542 C3527 0.961 . S
H3543 C3527 0.961 . S
H3544 C3528 0.931 . S
H3545 C3533 0.930 . S
H3546 C3534 0.956 . S
H3547 C3534 0.961 . S
H3548 C3534 0.961 . S
H3549 C3535 0.958 . S
H3550 C3535 0.961 . S
H3551 C3535 0.960 . S
C3552 C3553 1.391 . S
C3552 C3554 1.394 . S
C3552 H3568 0.931 . S
C3553 C3552 1.391 . S
C3553 C3557 1.376 . S
C3554 C3552 1.394 . S
C3554 C3555 1.369 . S
C3554 C3558 1.531 . S
C3555 C3554 1.369 . S
C3555 C3556 1.410 . S
C3555 C3563 1.503 . S
C3556 C3555 1.410 . S
C3556 C3557 1.392 . S
C3556 C3559 1.511 . S
C3557 C3553 1.376 . S
C3557 C3556 1.392 . S
C3557 H3569 0.929 1_556 S
C3558 C3554 1.531 . S
C3558 H3570 0.960 . S
C3558 H3571 0.962 . S
C3558 H3572 0.960 . S
C3559 C3556 1.511 . S
C3559 H3573 0.943 1_556 S
C3559 H3574 0.961 . S
C3559 H3575 0.961 . S
C3560 C3561 1.370 . S
C3560 C3562 1.363 . S
C3560 H3576 0.931 . S
C3561 C3560 1.370 . S
C3561 C3565 1.408 . S
C3562 C3560 1.363 . S
C3562 C3563 1.370 . S
C3562 C3566 1.524 . S
C3563 C3555 1.503 . S
C3563 C3562 1.370 . S
C3563 C3564 1.403 . S
C3564 C3563 1.403 . S
C3564 C3565 1.404 . S
C3564 C3567 1.539 . S
C3565 C3561 1.408 . S
C3565 C3564 1.404 . S
C3565 H3577 0.930 . S
C3566 C3562 1.524 . S
C3566 H3578 0.956 . S
C3566 H3579 0.961 . S
C3566 H3580 0.961 . S
C3567 C3564 1.539 . S
C3567 H3581 0.958 . S
C3567 H3582 0.961 . S
C3567 H3583 0.960 . S
H3568 C3552 0.931 . S
H3569 C3557 0.929 1_554 S
H3570 C3558 0.960 . S
H3571 C3558 0.962 . S
H3572 C3558 0.960 . S
H3573 C3559 0.943 1_554 S
H3574 C3559 0.961 . S
H3575 C3559 0.961 . S
H3576 C3560 0.931 . S
H3577 C3565 0.930 . S
H3578 C3566 0.956 . S
H3579 C3566 0.961 . S
H3580 C3566 0.961 . S
H3581 C3567 0.958 . S
H3582 C3567 0.961 . S
H3583 C3567 0.960 . S
C3584 C3585 1.391 . S
C3584 C3586 1.394 . S
C3584 H3600 0.931 . S
C3585 C3584 1.391 . S
C3585 C3589 1.376 . S
C3586 C3584 1.394 . S
C3586 C3587 1.369 . S
C3586 C3590 1.531 . S
C3587 C3586 1.369 . S
C3587 C3588 1.410 . S
C3587 C3595 1.503 . S
C3588 C3587 1.410 . S
C3588 C3589 1.392 . S
C3588 C3591 1.511 . S
C3589 C3585 1.376 . S
C3589 C3588 1.392 . S
C3589 H3601 0.929 . S
C3590 C3586 1.531 . S
C3590 H3602 0.960 . S
C3590 H3603 0.962 . S
C3590 H3604 0.960 . S
C3591 C3588 1.511 . S
C3591 H3605 0.961 . S
C3591 H3606 0.961 . S
C3591 H3607 0.961 . S
C3592 C3593 1.370 . S
C3592 C3594 1.363 . S
C3592 H3608 0.931 . S
C3593 C3592 1.370 . S
C3593 C3597 1.408 . S
C3594 C3592 1.363 . S
C3594 C3595 1.370 . S
C3594 C3598 1.524 . S
C3595 C3587 1.503 . S
C3595 C3594 1.370 . S
C3595 C3596 1.403 . S
C3596 C3595 1.403 . S
C3596 C3597 1.404 . S
C3596 C3599 1.539 . S
C3597 C3593 1.408 . S
C3597 C3596 1.404 . S
C3597 H3609 0.930 . S
C3598 C3594 1.524 . S
C3598 H3610 0.956 . S
C3598 H3611 0.961 . S
C3598 H3612 0.961 . S
C3599 C3596 1.539 . S
C3599 H3613 0.958 . S
C3599 H3614 0.961 . S
C3599 H3615 0.960 . S
H3600 C3584 0.931 . S
H3601 C3589 0.929 . S
H3602 C3590 0.960 . S
H3603 C3590 0.962 . S
H3604 C3590 0.960 . S
H3605 C3591 0.961 . S
H3606 C3591 0.961 . S
H3607 C3591 0.961 . S
H3608 C3592 0.931 . S
H3609 C3597 0.930 . S
H3610 C3598 0.956 . S
H3611 C3598 0.961 . S
H3612 C3598 0.961 . S
H3613 C3599 0.958 . S
H3614 C3599 0.961 . S
H3615 C3599 0.960 . S
C3616 C3617 1.391 . S
C3616 C3618 1.394 . S
C3616 H3632 0.931 . S
C3617 C3616 1.391 . S
C3617 C3621 1.376 . S
C3618 C3616 1.394 . S
C3618 C3619 1.369 . S
C3618 C3622 1.531 . S
C3619 C3618 1.369 . S
C3619 C3620 1.410 . S
C3619 C3627 1.503 . S
C3620 C3619 1.410 . S
C3620 C3621 1.392 . S
C3620 C3623 1.511 . S
C3621 C3617 1.376 . S
C3621 C3620 1.392 . S
C3621 H3633 0.929 1_556 S
C3622 C3618 1.531 . S
C3622 H3634 0.960 . S
C3622 H3635 0.962 . S
C3622 H3636 0.960 . S
C3623 C3620 1.511 . S
C3623 H3637 0.961 1_556 S
C3623 H3638 0.961 . S
C3623 H3639 0.961 1_556 S
C3624 C3625 1.370 . S
C3624 C3626 1.363 . S
C3624 H3640 0.931 . S
C3625 C3624 1.370 . S
C3625 C3629 1.408 . S
C3626 C3624 1.363 . S
C3626 C3627 1.370 . S
C3626 C3630 1.524 . S
C3627 C3619 1.503 . S
C3627 C3626 1.370 . S
C3627 C3628 1.403 . S
C3628 C3627 1.403 . S
C3628 C3629 1.404 . S
C3628 C3631 1.539 . S
C3629 C3625 1.408 . S
C3629 C3628 1.404 . S
C3629 H3641 0.930 . S
C3630 C3626 1.524 . S
C3630 H3642 0.956 . S
C3630 H3643 0.961 . S
C3630 H3644 0.961 . S
C3631 C3628 1.539 . S
C3631 H3645 0.958 . S
C3631 H3646 0.961 . S
C3631 H3647 0.960 . S
H3632 C3616 0.931 . S
H3633 C3621 0.929 1_554 S
H3634 C3622 0.960 . S
H3635 C3622 0.962 . S
H3636 C3622 0.960 . S
H3637 C3623 0.961 1_554 S
H3638 C3623 0.961 . S
H3639 C3623 0.961 1_554 S
H3640 C3624 0.931 . S
H3641 C3629 0.930 . S
H3642 C3630 0.956 . S
H3643 C3630 0.961 . S
H3644 C3630 0.961 . S
H3645 C3631 0.958 . S
H3646 C3631 0.961 . S
H3647 C3631 0.960 . S
C3648 C3649 1.391 . S
C3648 C3650 1.394 . S
C3648 H3664 0.931 . S
C3649 C3648 1.391 . S
C3649 C3653 1.376 . S
C3650 C3648 1.394 . S
C3650 C3651 1.369 . S
C3650 C3654 1.531 . S
C3651 C3650 1.369 . S
C3651 C3652 1.410 . S
C3651 C3659 1.503 . S
C3652 C3651 1.410 . S
C3652 C3653 1.392 . S
C3652 C3655 1.511 . S
C3653 C3649 1.376 . S
C3653 C3652 1.392 . S
C3653 H3665 0.929 . S
C3654 C3650 1.531 . S
C3654 H3666 0.960 . S
C3654 H3667 0.962 . S
C3654 H3668 0.960 . S
C3655 C3652 1.511 . S
C3655 H3669 0.961 . S
C3655 H3670 0.961 . S
C3655 H3671 0.961 . S
C3656 C3657 1.370 . S
C3656 C3658 1.363 . S
C3656 H3672 0.931 . S
C3657 C3656 1.370 . S
C3657 C3661 1.408 . S
C3658 C3656 1.363 . S
C3658 C3659 1.370 . S
C3658 C3662 1.524 . S
C3659 C3651 1.503 . S
C3659 C3658 1.370 . S
C3659 C3660 1.403 . S
C3660 C3659 1.403 . S
C3660 C3661 1.404 . S
C3660 C3663 1.539 . S
C3661 C3657 1.408 . S
C3661 C3660 1.404 . S
C3661 H3673 0.930 . S
C3662 C3658 1.524 . S
C3662 H3674 0.956 . S
C3662 H3675 0.961 . S
C3662 H3676 0.961 . S
C3663 C3660 1.539 . S
C3663 H3677 0.958 . S
C3663 H3678 0.961 . S
C3663 H3679 0.960 . S
H3664 C3648 0.931 . S
H3665 C3653 0.929 . S
H3666 C3654 0.960 . S
H3667 C3654 0.962 . S
H3668 C3654 0.960 . S
H3669 C3655 0.961 . S
H3670 C3655 0.961 . S
H3671 C3655 0.961 . S
H3672 C3656 0.931 . S
H3673 C3661 0.930 . S
H3674 C3662 0.956 . S
H3675 C3662 0.961 . S
H3676 C3662 0.961 . S
H3677 C3663 0.958 . S
H3678 C3663 0.961 . S
H3679 C3663 0.960 . S
C3680 C3681 1.391 . S
C3680 C3682 1.394 . S
C3680 H3696 0.931 . S
C3681 C3680 1.391 . S
C3681 C3685 1.376 . S
C3682 C3680 1.394 . S
C3682 C3683 1.369 . S
C3682 C3686 1.531 . S
C3683 C3682 1.369 . S
C3683 C3684 1.410 . S
C3683 C3691 1.503 . S
C3684 C3683 1.410 . S
C3684 C3685 1.392 . S
C3684 C3687 1.511 . S
C3685 C3681 1.376 . S
C3685 C3684 1.392 . S
C3685 H3697 0.929 . S
C3686 C3682 1.531 . S
C3686 H3698 0.960 . S
C3686 H3699 0.962 . S
C3686 H3700 0.960 . S
C3687 C3684 1.511 . S
C3687 H3701 0.961 . S
C3687 H3702 0.961 . S
C3687 H3703 0.961 . S
C3688 C3689 1.370 . S
C3688 C3690 1.363 . S
C3688 H3704 0.931 . S
C3689 C3688 1.370 . S
C3689 C3693 1.408 . S
C3690 C3688 1.363 . S
C3690 C3691 1.370 . S
C3690 C3694 1.524 . S
C3691 C3683 1.503 . S
C3691 C3690 1.370 . S
C3691 C3692 1.403 . S
C3692 C3691 1.403 . S
C3692 C3693 1.404 . S
C3692 C3695 1.539 . S
C3693 C3689 1.408 . S
C3693 C3692 1.404 . S
C3693 H3705 0.930 . S
C3694 C3690 1.524 . S
C3694 H3706 0.956 . S
C3694 H3707 0.961 . S
C3694 H3708 0.961 . S
C3695 C3692 1.539 . S
C3695 H3709 0.958 . S
C3695 H3710 0.961 . S
C3695 H3711 0.960 . S
H3696 C3680 0.931 . S
H3697 C3685 0.929 . S
H3698 C3686 0.960 . S
H3699 C3686 0.962 . S
H3700 C3686 0.960 . S
H3701 C3687 0.961 . S
H3702 C3687 0.961 . S
H3703 C3687 0.961 . S
H3704 C3688 0.931 . S
H3705 C3693 0.930 . S
H3706 C3694 0.956 . S
H3707 C3694 0.961 . S
H3708 C3694 0.961 . S
H3709 C3695 0.958 . S
H3710 C3695 0.961 . S
H3711 C3695 0.960 . S
C3712 C3713 1.391 . S
C3712 C3714 1.394 . S
C3712 H3728 0.931 . S
C3713 C3712 1.391 . S
C3713 C3717 1.376 . S
C3714 C3712 1.394 . S
C3714 C3715 1.369 . S
C3714 C3718 1.531 . S
C3715 C3714 1.369 . S
C3715 C3716 1.410 . S
C3715 C3723 1.503 . S
C3716 C3715 1.410 . S
C3716 C3717 1.392 . S
C3716 C3719 1.511 . S
C3717 C3713 1.376 . S
C3717 C3716 1.392 . S
C3717 H3729 0.929 1_556 S
C3718 C3714 1.531 . S
C3718 H3730 0.960 . S
C3718 H3731 0.962 . S
C3718 H3732 0.960 . S
C3719 C3716 1.511 . S
C3719 H3733 0.961 1_556 S
C3719 H3734 0.961 . S
C3719 H3735 0.961 . S
C3720 C3721 1.370 . S
C3720 C3722 1.363 . S
C3720 H3736 0.931 . S
C3721 C3720 1.370 . S
C3721 C3725 1.408 . S
C3722 C3720 1.363 . S
C3722 C3723 1.370 . S
C3722 C3726 1.524 . S
C3723 C3715 1.503 . S
C3723 C3722 1.370 . S
C3723 C3724 1.403 . S
C3724 C3723 1.403 . S
C3724 C3725 1.404 . S
C3724 C3727 1.539 . S
C3725 C3721 1.408 . S
C3725 C3724 1.404 . S
C3725 H3737 0.930 . S
C3726 C3722 1.524 . S
C3726 H3738 0.956 . S
C3726 H3739 0.961 . S
C3726 H3740 0.961 . S
C3727 C3724 1.539 . S
C3727 H3741 0.958 . S
C3727 H3742 0.961 . S
C3727 H3743 0.960 . S
H3728 C3712 0.931 . S
H3729 C3717 0.929 1_554 S
H3730 C3718 0.960 . S
H3731 C3718 0.962 . S
H3732 C3718 0.960 . S
H3733 C3719 0.961 1_554 S
H3734 C3719 0.961 . S
H3735 C3719 0.961 . S
H3736 C3720 0.931 . S
H3737 C3725 0.930 . S
H3738 C3726 0.956 . S
H3739 C3726 0.961 . S
H3740 C3726 0.961 . S
H3741 C3727 0.958 . S
H3742 C3727 0.961 . S
H3743 C3727 0.960 . S
C3744 C3745 1.391 . S
C3744 C3746 1.394 . S
C3744 H3760 0.931 . S
C3745 C3744 1.391 . S
C3745 C3749 1.376 . S
C3746 C3744 1.394 . S
C3746 C3747 1.369 . S
C3746 C3750 1.531 . S
C3747 C3746 1.369 . S
C3747 C3748 1.410 . S
C3747 C3755 1.503 . S
C3748 C3747 1.410 . S
C3748 C3749 1.392 . S
C3748 C3751 1.511 . S
C3749 C3745 1.376 . S
C3749 C3748 1.392 . S
C3749 H3761 0.929 . S
C3750 C3746 1.531 . S
C3750 H3762 0.960 . S
C3750 H3763 0.962 . S
C3750 H3764 0.960 . S
C3751 C3748 1.511 . S
C3751 H3765 0.961 . S
C3751 H3766 0.961 . S
C3751 H3767 0.961 . S
C3752 C3753 1.370 . S
C3752 C3754 1.363 . S
C3752 H3768 0.931 . S
C3753 C3752 1.370 . S
C3753 C3757 1.408 . S
C3754 C3752 1.363 . S
C3754 C3755 1.370 . S
C3754 C3758 1.524 . S
C3755 C3747 1.503 . S
C3755 C3754 1.370 . S
C3755 C3756 1.403 . S
C3756 C3755 1.403 . S
C3756 C3757 1.404 . S
C3756 C3759 1.539 . S
C3757 C3753 1.408 . S
C3757 C3756 1.404 . S
C3757 H3769 0.930 . S
C3758 C3754 1.524 . S
C3758 H3770 0.956 . S
C3758 H3771 0.961 . S
C3758 H3772 0.961 . S
C3759 C3756 1.539 . S
C3759 H3773 0.958 . S
C3759 H3774 0.961 . S
C3759 H3775 0.960 . S
H3760 C3744 0.931 . S
H3761 C3749 0.929 . S
H3762 C3750 0.960 . S
H3763 C3750 0.962 . S
H3764 C3750 0.960 . S
H3765 C3751 0.961 . S
H3766 C3751 0.961 . S
H3767 C3751 0.961 . S
H3768 C3752 0.931 . S
H3769 C3757 0.930 . S
H3770 C3758 0.956 . S
H3771 C3758 0.961 . S
H3772 C3758 0.961 . S
H3773 C3759 0.958 . S
H3774 C3759 0.961 . S
H3775 C3759 0.960 . S
C3776 C3777 1.391 . S
C3776 C3778 1.394 . S
C3776 H3792 0.931 . S
C3777 C3776 1.391 . S
C3777 C3781 1.376 . S
C3778 C3776 1.394 . S
C3778 C3779 1.369 . S
C3778 C3782 1.531 . S
C3779 C3778 1.369 . S
C3779 C3780 1.410 . S
C3779 C3787 1.503 . S
C3780 C3779 1.410 . S
C3780 C3781 1.392 . S
C3780 C3783 1.511 . S
C3781 C3777 1.376 . S
C3781 C3780 1.392 . S
C3781 H3793 0.929 . S
C3782 C3778 1.531 . S
C3782 H3794 0.960 . S
C3782 H3795 0.962 . S
C3782 H3796 0.960 . S
C3783 C3780 1.511 . S
C3783 H3797 0.961 . S
C3783 H3798 0.961 . S
C3783 H3799 0.961 . S
C3784 C3785 1.370 . S
C3784 C3786 1.363 . S
C3784 H3800 0.931 . S
C3785 C3784 1.370 . S
C3785 C3789 1.408 . S
C3786 C3784 1.363 . S
C3786 C3787 1.370 . S
C3786 C3790 1.524 . S
C3787 C3779 1.503 . S
C3787 C3786 1.370 . S
C3787 C3788 1.403 . S
C3788 C3787 1.403 . S
C3788 C3789 1.404 . S
C3788 C3791 1.539 . S
C3789 C3785 1.408 . S
C3789 C3788 1.404 . S
C3789 H3801 0.930 . S
C3790 C3786 1.524 . S
C3790 H3802 0.956 . S
C3790 H3803 0.961 . S
C3790 H3804 0.961 . S
C3791 C3788 1.539 . S
C3791 H3805 0.958 . S
C3791 H3806 0.961 . S
C3791 H3807 0.960 . S
H3792 C3776 0.931 . S
H3793 C3781 0.929 . S
H3794 C3782 0.960 . S
H3795 C3782 0.962 . S
H3796 C3782 0.960 . S
H3797 C3783 0.961 . S
H3798 C3783 0.961 . S
H3799 C3783 0.961 . S
H3800 C3784 0.931 . S
H3801 C3789 0.930 . S
H3802 C3790 0.956 . S
H3803 C3790 0.961 . S
H3804 C3790 0.961 . S
H3805 C3791 0.958 . S
H3806 C3791 0.961 . S
H3807 C3791 0.960 . S
C3808 C3809 1.391 . S
C3808 C3810 1.394 . S
C3808 H3824 0.931 . S
C3809 C3808 1.391 . S
C3809 C3813 1.376 . S
C3810 C3808 1.394 . S
C3810 C3811 1.369 . S
C3810 C3814 1.531 . S
C3811 C3810 1.369 . S
C3811 C3812 1.410 . S
C3811 C3819 1.503 . S
C3812 C3811 1.410 . S
C3812 C3813 1.392 . S
C3812 C3815 1.511 . S
C3813 C3809 1.376 . S
C3813 C3812 1.392 . S
C3813 H3825 0.929 . S
C3814 C3810 1.531 . S
C3814 H3826 0.960 . S
C3814 H3827 0.962 . S
C3814 H3828 0.960 . S
C3815 C3812 1.511 . S
C3815 H3829 0.961 . S
C3815 H3830 0.961 . S
C3815 H3831 0.961 . S
C3816 C3817 1.370 . S
C3816 C3818 1.363 . S
C3816 H3832 0.931 . S
C3817 C3816 1.370 . S
C3817 C3821 1.408 . S
C3818 C3816 1.363 . S
C3818 C3819 1.370 . S
C3818 C3822 1.524 . S
C3819 C3811 1.503 . S
C3819 C3818 1.370 . S
C3819 C3820 1.403 . S
C3820 C3819 1.403 . S
C3820 C3821 1.404 . S
C3820 C3823 1.539 . S
C3821 C3817 1.408 . S
C3821 C3820 1.404 . S
C3821 H3833 0.930 . S
C3822 C3818 1.524 . S
C3822 H3834 0.956 . S
C3822 H3835 0.961 . S
C3822 H3836 0.961 . S
C3823 C3820 1.539 . S
C3823 H3837 0.958 . S
C3823 H3838 0.961 . S
C3823 H3839 0.960 . S
H3824 C3808 0.931 . S
H3825 C3813 0.929 . S
H3826 C3814 0.960 . S
H3827 C3814 0.962 . S
H3828 C3814 0.960 . S
H3829 C3815 0.961 . S
H3830 C3815 0.961 . S
H3831 C3815 0.961 . S
H3832 C3816 0.931 . S
H3833 C3821 0.930 . S
H3834 C3822 0.956 . S
H3835 C3822 0.961 . S
H3836 C3822 0.961 . S
H3837 C3823 0.958 . S
H3838 C3823 0.961 . S
H3839 C3823 0.960 . S
C3840 C3841 1.391 . S
C3840 C3842 1.394 . S
C3840 H3856 0.931 . S
C3841 C3840 1.391 . S
C3841 C3845 1.376 . S
C3842 C3840 1.394 . S
C3842 C3843 1.369 . S
C3842 C3846 1.531 . S
C3843 C3842 1.369 . S
C3843 C3844 1.410 . S
C3843 C3851 1.503 . S
C3844 C3843 1.410 . S
C3844 C3845 1.392 . S
C3844 C3847 1.511 . S
C3845 C3841 1.376 . S
C3845 C3844 1.392 . S
C3845 H3857 0.929 . S
C3846 C3842 1.531 . S
C3846 H3858 0.960 . S
C3846 H3859 0.962 . S
C3846 H3860 0.960 . S
C3847 C3844 1.511 . S
C3847 H3861 0.961 . S
C3847 H3862 0.961 . S
C3847 H3863 0.961 . S
C3848 C3849 1.370 . S
C3848 C3850 1.363 . S
C3848 H3864 0.931 . S
C3849 C3848 1.370 . S
C3849 C3853 1.408 . S
C3850 C3848 1.363 . S
C3850 C3851 1.370 . S
C3850 C3854 1.524 . S
C3851 C3843 1.503 . S
C3851 C3850 1.370 . S
C3851 C3852 1.403 . S
C3852 C3851 1.403 . S
C3852 C3853 1.404 . S
C3852 C3855 1.539 . S
C3853 C3849 1.408 . S
C3853 C3852 1.404 . S
C3853 H3865 0.930 . S
C3854 C3850 1.524 . S
C3854 H3866 0.956 . S
C3854 H3867 0.961 . S
C3854 H3868 0.961 . S
C3855 C3852 1.539 . S
C3855 H3869 0.958 . S
C3855 H3870 0.961 . S
C3855 H3871 0.960 . S
H3856 C3840 0.931 . S
H3857 C3845 0.929 . S
H3858 C3846 0.960 . S
H3859 C3846 0.962 . S
H3860 C3846 0.960 . S
H3861 C3847 0.961 . S
H3862 C3847 0.961 . S
H3863 C3847 0.961 . S
H3864 C3848 0.931 . S
H3865 C3853 0.930 . S
H3866 C3854 0.956 . S
H3867 C3854 0.961 . S
H3868 C3854 0.961 . S
H3869 C3855 0.958 . S
H3870 C3855 0.961 . S
H3871 C3855 0.960 . S
C3872 C3873 1.391 . S
C3872 C3874 1.394 . S
C3872 H3888 0.931 . S
C3873 C3872 1.391 . S
C3873 C3877 1.376 . S
C3874 C3872 1.394 . S
C3874 C3875 1.369 . S
C3874 C3878 1.531 . S
C3875 C3874 1.369 . S
C3875 C3876 1.410 . S
C3875 C3883 1.503 . S
C3876 C3875 1.410 . S
C3876 C3877 1.392 . S
C3876 C3879 1.511 . S
C3877 C3873 1.376 . S
C3877 C3876 1.392 . S
C3877 H3889 0.929 . S
C3878 C3874 1.531 . S
C3878 H3890 0.960 . S
C3878 H3891 0.962 . S
C3878 H3892 0.960 . S
C3879 C3876 1.511 . S
C3879 H3893 0.961 . S
C3879 H3894 0.961 . S
C3879 H3895 0.961 . S
C3880 C3881 1.370 . S
C3880 C3882 1.363 . S
C3880 H3896 0.931 . S
C3881 C3880 1.370 . S
C3881 C3885 1.408 . S
C3882 C3880 1.363 . S
C3882 C3883 1.370 . S
C3882 C3886 1.524 . S
C3883 C3875 1.503 . S
C3883 C3882 1.370 . S
C3883 C3884 1.403 . S
C3884 C3883 1.403 . S
C3884 C3885 1.404 . S
C3884 C3887 1.539 . S
C3885 C3881 1.408 . S
C3885 C3884 1.404 . S
C3885 H3897 0.930 . S
C3886 C3882 1.524 . S
C3886 H3898 0.956 . S
C3886 H3899 0.961 . S
C3886 H3900 0.961 . S
C3887 C3884 1.539 . S
C3887 H3901 0.958 . S
C3887 H3902 0.961 . S
C3887 H3903 0.960 . S
H3888 C3872 0.931 . S
H3889 C3877 0.929 . S
H3890 C3878 0.960 . S
H3891 C3878 0.962 . S
H3892 C3878 0.960 . S
H3893 C3879 0.961 . S
H3894 C3879 0.961 . S
H3895 C3879 0.961 . S
H3896 C3880 0.931 . S
H3897 C3885 0.930 . S
H3898 C3886 0.956 . S
H3899 C3886 0.961 . S
H3900 C3886 0.961 . S
H3901 C3887 0.958 . S
H3902 C3887 0.961 . S
H3903 C3887 0.960 . S
C3904 C3905 1.391 . S
C3904 C3906 1.394 . S
C3904 H3920 0.931 . S
C3905 C3904 1.391 . S
C3905 C3909 1.376 . S
C3906 C3904 1.394 . S
C3906 C3907 1.369 . S
C3906 C3910 1.531 . S
C3907 C3906 1.369 . S
C3907 C3908 1.410 . S
C3907 C3915 1.503 . S
C3908 C3907 1.410 . S
C3908 C3909 1.392 . S
C3908 C3911 1.511 . S
C3909 C3905 1.376 . S
C3909 C3908 1.392 . S
C3909 H3921 0.929 . S
C3910 C3906 1.531 . S
C3910 H3922 0.960 . S
C3910 H3923 0.962 . S
C3910 H3924 0.960 . S
C3911 C3908 1.511 . S
C3911 H3925 0.961 . S
C3911 H3926 0.961 . S
C3911 H3927 0.961 . S
C3912 C3913 1.370 . S
C3912 C3914 1.363 . S
C3912 H3928 0.931 . S
C3913 C3912 1.370 . S
C3913 C3917 1.408 . S
C3914 C3912 1.363 . S
C3914 C3915 1.370 . S
C3914 C3918 1.524 . S
C3915 C3907 1.503 . S
C3915 C3914 1.370 . S
C3915 C3916 1.403 . S
C3916 C3915 1.403 . S
C3916 C3917 1.404 . S
C3916 C3919 1.539 . S
C3917 C3913 1.408 . S
C3917 C3916 1.404 . S
C3917 H3929 0.930 . S
C3918 C3914 1.524 . S
C3918 H3930 0.956 . S
C3918 H3931 0.961 . S
C3918 H3932 0.961 . S
C3919 C3916 1.539 . S
C3919 H3933 0.958 . S
C3919 H3934 0.961 . S
C3919 H3935 0.960 . S
H3920 C3904 0.931 . S
H3921 C3909 0.929 . S
H3922 C3910 0.960 . S
H3923 C3910 0.962 . S
H3924 C3910 0.960 . S
H3925 C3911 0.961 . S
H3926 C3911 0.961 . S
H3927 C3911 0.961 . S
H3928 C3912 0.931 . S
H3929 C3917 0.930 . S
H3930 C3918 0.956 . S
H3931 C3918 0.961 . S
H3932 C3918 0.961 . S
H3933 C3919 0.958 . S
H3934 C3919 0.961 . S
H3935 C3919 0.960 . S
C3936 C3937 1.391 . S
C3936 C3938 1.394 . S
C3936 H3952 0.931 . S
C3937 C3936 1.391 . S
C3937 C3941 1.376 . S
C3938 C3936 1.394 . S
C3938 C3939 1.369 . S
C3938 C3942 1.531 1_455 S
C3939 C3938 1.369 . S
C3939 C3940 1.410 . S
C3939 C3947 1.503 . S
C3940 C3939 1.410 . S
C3940 C3941 1.392 . S
C3940 C3943 1.511 . S
C3941 C3937 1.376 . S
C3941 C3940 1.392 . S
C3941 H3953 0.929 . S
C3942 C3938 1.531 1_655 S
C3942 H3954 0.960 1_655 S
C3942 H3955 0.962 . S
C3942 H3956 0.960 . S
C3943 C3940 1.511 . S
C3943 H3957 0.961 . S
C3943 H3958 0.961 . S
C3943 H3959 0.961 . S
C3944 C3945 1.368 1_655 S
C3944 C3946 1.354 1_655 S
C3944 H3960 0.943 . S
C3945 C3944 1.368 1_455 S
C3945 C3949 1.408 . S
C3946 C3944 1.354 1_455 S
C3946 C3947 1.370 . S
C3946 C3950 1.524 1_455 S
C3947 C3939 1.503 . S
C3947 C3946 1.370 . S
C3947 C3948 1.403 . S
C3948 C3947 1.403 . S
C3948 C3949 1.404 . S
C3948 C3951 1.539 . S
C3949 C3945 1.408 . S
C3949 C3948 1.404 . S
C3949 H3961 0.930 . S
C3950 C3946 1.524 1_655 S
C3950 H3962 0.956 . S
C3950 H3963 0.961 . S
C3950 H3964 0.961 . S
C3951 C3948 1.539 . S
C3951 H3965 0.958 . S
C3951 H3966 0.961 . S
C3951 H3967 0.960 . S
H3952 C3936 0.931 . S
H3953 C3941 0.929 . S
H3954 C3942 0.960 1_455 S
H3955 C3942 0.962 . S
H3956 C3942 0.960 . S
H3957 C3943 0.961 . S
H3958 C3943 0.961 . S
H3959 C3943 0.961 . S
H3960 C3944 0.943 . S
H3961 C3949 0.930 . S
H3962 C3950 0.956 . S
H3963 C3950 0.961 . S
H3964 C3950 0.961 . S
H3965 C3951 0.958 . S
H3966 C3951 0.961 . S
H3967 C3951 0.960 . S
C3968 C3969 1.391 . S
C3968 C3970 1.394 . S
C3968 H3984 0.931 . S
C3969 C3968 1.391 . S
C3969 C3973 1.376 . S
C3970 C3968 1.394 . S
C3970 C3971 1.369 . S
C3970 C3974 1.531 . S
C3971 C3970 1.369 . S
C3971 C3972 1.410 . S
C3971 C3979 1.503 . S
C3972 C3971 1.410 . S
C3972 C3973 1.392 . S
C3972 C3975 1.511 . S
C3973 C3969 1.376 . S
C3973 C3972 1.392 . S
C3973 H3985 0.929 . S
C3974 C3970 1.531 . S
C3974 H3986 0.960 . S
C3974 H3987 0.962 . S
C3974 H3988 0.960 . S
C3975 C3972 1.511 . S
C3975 H3989 0.961 . S
C3975 H3990 0.961 . S
C3975 H3991 0.961 . S
C3976 C3977 1.370 . S
C3976 C3978 1.363 . S
C3976 H3992 0.931 . S
C3977 C3976 1.370 . S
C3977 C3981 1.408 . S
C3978 C3976 1.363 . S
C3978 C3979 1.370 . S
C3978 C3982 1.524 . S
C3979 C3971 1.503 . S
C3979 C3978 1.370 . S
C3979 C3980 1.403 . S
C3980 C3979 1.403 . S
C3980 C3981 1.404 . S
C3980 C3983 1.539 . S
C3981 C3977 1.408 . S
C3981 C3980 1.404 . S
C3981 H3993 0.930 . S
C3982 C3978 1.524 . S
C3982 H3994 0.956 . S
C3982 H3995 0.961 . S
C3982 H3996 0.961 . S
C3983 C3980 1.539 . S
C3983 H3997 0.958 . S
C3983 H3998 0.961 . S
C3983 H3999 0.960 . S
H3984 C3968 0.931 . S
H3985 C3973 0.929 . S
H3986 C3974 0.960 . S
H3987 C3974 0.962 . S
H3988 C3974 0.960 . S
H3989 C3975 0.961 . S
H3990 C3975 0.961 . S
H3991 C3975 0.961 . S
H3992 C3976 0.931 . S
H3993 C3981 0.930 . S
H3994 C3982 0.956 . S
H3995 C3982 0.961 . S
H3996 C3982 0.961 . S
H3997 C3983 0.958 . S
H3998 C3983 0.961 . S
H3999 C3983 0.960 . S
C4000 C4001 1.391 . S
C4000 C4002 1.394 . S
C4000 H4016 0.931 . S
C4001 C4000 1.391 . S
C4001 C4005 1.376 . S
C4002 C4000 1.394 . S
C4002 C4003 1.369 . S
C4002 C4006 1.531 . S
C4003 C4002 1.369 . S
C4003 C4004 1.410 . S
C4003 C4011 1.503 . S
C4004 C4003 1.410 . S
C4004 C4005 1.392 . S
C4004 C4007 1.511 . S
C4005 C4001 1.376 . S
C4005 C4004 1.392 . S
C4005 H4017 0.929 . S
C4006 C4002 1.531 . S
C4006 H4018 0.960 . S
C4006 H4019 0.962 . S
C4006 H4020 0.960 . S
C4007 C4004 1.511 . S
C4007 H4021 0.961 . S
C4007 H4022 0.961 . S
C4007 H4023 0.961 . S
C4008 C4009 1.370 1_545 S
C4008 C4010 1.363 . S
C4008 H4024 0.931 . S
C4009 C4008 1.370 1_565 S
C4009 C4013 1.408 . S
C4010 C4008 1.363 . S
C4010 C4011 1.370 1_545 S
C4010 C4014 1.524 . S
C4011 C4003 1.503 . S
C4011 C4010 1.370 1_565 S
C4011 C4012 1.403 . S
C4012 C4011 1.403 . S
C4012 C4013 1.404 . S
C4012 C4015 1.539 . S
C4013 C4009 1.408 . S
C4013 C4012 1.404 . S
C4013 H4025 0.930 . S
C4014 C4010 1.524 . S
C4014 H4026 0.956 . S
C4014 H4027 0.961 . S
C4014 H4028 0.961 . S
C4015 C4012 1.539 . S
C4015 H4029 0.958 . S
C4015 H4030 0.961 . S
C4015 H4031 0.960 . S
H4016 C4000 0.931 . S
H4017 C4005 0.929 . S
H4018 C4006 0.960 . S
H4019 C4006 0.962 . S
H4020 C4006 0.960 . S
H4021 C4007 0.961 . S
H4022 C4007 0.961 . S
H4023 C4007 0.961 . S
H4024 C4008 0.931 . S
H4025 C4013 0.930 . S
H4026 C4014 0.956 . S
H4027 C4014 0.961 . S
H4028 C4014 0.961 . S
H4029 C4015 0.958 . S
H4030 C4015 0.961 . S
H4031 C4015 0.960 . S
C4032 C4033 1.391 1_545 S
C4032 C4034 1.394 . S
C4032 H4048 0.931 . S
C4033 C4032 1.391 1_565 S
C4033 C4037 1.376 . S
C4034 C4032 1.394 . S
C4034 C4035 1.369 1_545 S
C4034 C4038 1.531 . S
C4035 C4034 1.369 1_565 S
C4035 C4036 1.410 . S
C4035 C4043 1.503 . S
C4036 C4035 1.410 . S
C4036 C4037 1.392 . S
C4036 C4039 1.511 . S
C4037 C4033 1.376 . S
C4037 C4036 1.392 . S
C4037 H4049 0.929 . S
C4038 C4034 1.531 . S
C4038 H4050 0.960 . S
C4038 H4051 0.962 . S
C4038 H4052 0.960 . S
C4039 C4036 1.511 . S
C4039 H4053 0.961 . S
C4039 H4054 0.961 . S
C4039 H4055 0.961 . S
C4040 C4041 1.370 . S
C4040 C4042 1.363 . S
C4040 H4056 0.931 . S
C4041 C4040 1.370 . S
C4041 C4045 1.408 1_565 S
C4042 C4040 1.363 . S
C4042 C4043 1.370 . S
C4042 C4046 1.524 . S
C4043 C4035 1.503 . S
C4043 C4042 1.370 . S
C4043 C4044 1.403 1_565 S
C4044 C4043 1.403 1_545 S
C4044 C4045 1.404 . S
C4044 C4047 1.539 . S
C4045 C4041 1.408 1_545 S
C4045 C4044 1.404 . S
C4045 H4057 0.930 . S
C4046 C4042 1.524 . S
C4046 H4058 0.956 . S
C4046 H4059 0.961 . S
C4046 H4060 0.961 . S
C4047 C4044 1.539 . S
C4047 H4061 0.958 . S
C4047 H4062 0.961 . S
C4047 H4063 0.960 . S
H4048 C4032 0.931 . S
H4049 C4037 0.929 . S
H4050 C4038 0.960 . S
H4051 C4038 0.962 . S
H4052 C4038 0.960 . S
H4053 C4039 0.961 . S
H4054 C4039 0.961 . S
H4055 C4039 0.961 . S
H4056 C4040 0.931 . S
H4057 C4045 0.930 . S
H4058 C4046 0.956 . S
H4059 C4046 0.961 . S
H4060 C4046 0.961 . S
H4061 C4047 0.958 . S
H4062 C4047 0.961 . S
H4063 C4047 0.960 . S
C4064 C4065 1.391 . S
C4064 C4066 1.394 . S
C4064 H4080 0.931 . S
C4065 C4064 1.391 . S
C4065 C4069 1.376 1_455 S
C4066 C4064 1.394 . S
C4066 C4067 1.369 . S
C4066 C4070 1.531 . S
C4067 C4066 1.369 . S
C4067 C4068 1.410 1_455 S
C4067 C4075 1.503 . S
C4068 C4067 1.410 1_655 S
C4068 C4069 1.392 . S
C4068 C4071 1.511 . S
C4069 C4065 1.376 1_655 S
C4069 C4068 1.392 . S
C4069 H4081 0.929 . S
C4070 C4066 1.531 . S
C4070 H4082 0.960 . S
C4070 H4083 0.962 . S
C4070 H4084 0.960 . S
C4071 C4068 1.511 . S
C4071 H4085 0.961 . S
C4071 H4086 0.961 . S
C4071 H4087 0.961 . S
C4072 C4073 1.365 . S
C4072 C4074 1.363 . S
C4072 H4088 0.931 . S
C4073 C4072 1.365 . S
C4073 C4077 1.404 . S
C4074 C4072 1.363 . S
C4074 C4075 1.370 . S
C4074 C4078 1.524 . S
C4075 C4067 1.503 . S
C4075 C4074 1.370 . S
C4075 C4076 1.403 . S
C4076 C4075 1.403 . S
C4076 C4077 1.385 . S
C4076 C4079 1.539 . S
C4077 C4073 1.404 . S
C4077 C4076 1.385 . S
C4077 H4089 0.959 1_455 S
C4078 C4074 1.524 . S
C4078 H4090 0.956 . S
C4078 H4091 0.961 1_455 S
C4078 H4092 0.961 . S
C4079 C4076 1.539 . S
C4079 H4093 0.958 . S
C4079 H4094 0.961 1_455 S
C4079 H4095 0.960 1_455 S
H4080 C4064 0.931 . S
H4081 C4069 0.929 . S
H4082 C4070 0.960 . S
H4083 C4070 0.962 . S
H4084 C4070 0.960 . S
H4085 C4071 0.961 . S
H4086 C4071 0.961 . S
H4087 C4071 0.961 . S
H4088 C4072 0.931 . S
H4089 C4077 0.959 1_655 S
H4090 C4078 0.956 . S
H4091 C4078 0.961 1_655 S
H4092 C4078 0.961 . S
H4093 C4079 0.958 . S
H4094 C4079 0.961 1_655 S
H4095 C4079 0.960 1_655 S
C4096 C4097 1.391 . S
C4096 C4098 1.394 . S
C4096 H4112 0.931 . S
C4097 C4096 1.391 . S
C4097 C4101 1.376 . S
C4098 C4096 1.394 . S
C4098 C4099 1.369 . S
C4098 C4102 1.531 . S
C4099 C4098 1.369 . S
C4099 C4100 1.410 . S
C4099 C4107 1.503 . S
C4100 C4099 1.410 . S
C4100 C4101 1.392 . S
C4100 C4103 1.511 . S
C4101 C4097 1.376 . S
C4101 C4100 1.392 . S
C4101 H4113 0.929 . S
C4102 C4098 1.531 . S
C4102 H4114 0.960 . S
C4102 H4115 0.962 . S
C4102 H4116 0.960 . S
C4103 C4100 1.511 . S
C4103 H4117 0.961 . S
C4103 H4118 0.961 . S
C4103 H4119 0.961 . S
C4104 C4105 1.370 . S
C4104 C4106 1.363 . S
C4104 H4120 0.931 . S
C4105 C4104 1.370 . S
C4105 C4109 1.408 . S
C4106 C4104 1.363 . S
C4106 C4107 1.370 . S
C4106 C4110 1.524 . S
C4107 C4099 1.503 . S
C4107 C4106 1.370 . S
C4107 C4108 1.403 . S
C4108 C4107 1.403 . S
C4108 C4109 1.404 . S
C4108 C4111 1.539 . S
C4109 C4105 1.408 . S
C4109 C4108 1.404 . S
C4109 H4121 0.930 . S
C4110 C4106 1.524 . S
C4110 H4122 0.956 . S
C4110 H4123 0.961 . S
C4110 H4124 0.961 . S
C4111 C4108 1.539 . S
C4111 H4125 0.958 . S
C4111 H4126 0.961 . S
C4111 H4127 0.960 . S
H4112 C4096 0.931 . S
H4113 C4101 0.929 . S
H4114 C4102 0.960 . S
H4115 C4102 0.962 . S
H4116 C4102 0.960 . S
H4117 C4103 0.961 . S
H4118 C4103 0.961 . S
H4119 C4103 0.961 . S
H4120 C4104 0.931 . S
H4121 C4109 0.930 . S
H4122 C4110 0.956 . S
H4123 C4110 0.961 . S
H4124 C4110 0.961 . S
H4125 C4111 0.958 . S
H4126 C4111 0.961 . S
H4127 C4111 0.960 . S
C4128 C4129 1.391 . S
C4128 C4130 1.394 . S
C4128 H4144 0.931 . S
C4129 C4128 1.391 . S
C4129 C4133 1.376 . S
C4130 C4128 1.394 . S
C4130 C4131 1.369 . S
C4130 C4134 1.531 . S
C4131 C4130 1.369 . S
C4131 C4132 1.410 . S
C4131 C4139 1.503 . S
C4132 C4131 1.410 . S
C4132 C4133 1.392 . S
C4132 C4135 1.511 . S
C4133 C4129 1.376 . S
C4133 C4132 1.392 . S
C4133 H4145 0.929 . S
C4134 C4130 1.531 . S
C4134 H4146 0.960 . S
C4134 H4147 0.962 . S
C4134 H4148 0.960 . S
C4135 C4132 1.511 . S
C4135 H4149 0.961 . S
C4135 H4150 0.961 . S
C4135 H4151 0.961 . S
C4136 C4137 1.370 . S
C4136 C4138 1.363 . S
C4136 H4152 0.931 . S
C4137 C4136 1.370 . S
C4137 C4141 1.408 . S
C4138 C4136 1.363 . S
C4138 C4139 1.370 . S
C4138 C4142 1.524 . S
C4139 C4131 1.503 . S
C4139 C4138 1.370 . S
C4139 C4140 1.403 . S
C4140 C4139 1.403 . S
C4140 C4141 1.404 . S
C4140 C4143 1.539 . S
C4141 C4137 1.408 . S
C4141 C4140 1.404 . S
C4141 H4153 0.930 . S
C4142 C4138 1.524 . S
C4142 H4154 0.956 . S
C4142 H4155 0.961 . S
C4142 H4156 0.961 . S
C4143 C4140 1.539 . S
C4143 H4157 0.958 . S
C4143 H4158 0.961 . S
C4143 H4159 0.960 . S
H4144 C4128 0.931 . S
H4145 C4133 0.929 . S
H4146 C4134 0.960 . S
H4147 C4134 0.962 . S
H4148 C4134 0.960 . S
H4149 C4135 0.961 . S
H4150 C4135 0.961 . S
H4151 C4135 0.961 . S
H4152 C4136 0.931 . S
H4153 C4141 0.930 . S
H4154 C4142 0.956 . S
H4155 C4142 0.961 . S
H4156 C4142 0.961 . S
H4157 C4143 0.958 . S
H4158 C4143 0.961 . S
H4159 C4143 0.960 . S
C4160 C4161 1.391 . S
C4160 C4162 1.394 . S
C4160 H4176 0.931 . S
C4161 C4160 1.391 . S
C4161 C4165 1.376 . S
C4162 C4160 1.394 . S
C4162 C4163 1.369 . S
C4162 C4166 1.531 . S
C4163 C4162 1.369 . S
C4163 C4164 1.410 . S
C4163 C4171 1.503 . S
C4164 C4163 1.410 . S
C4164 C4165 1.392 . S
C4164 C4167 1.511 . S
C4165 C4161 1.376 . S
C4165 C4164 1.392 . S
C4165 H4177 0.929 . S
C4166 C4162 1.531 . S
C4166 H4178 0.960 . S
C4166 H4179 0.962 . S
C4166 H4180 0.960 . S
C4167 C4164 1.511 . S
C4167 H4181 0.961 . S
C4167 H4182 0.961 . S
C4167 H4183 0.961 . S
C4168 C4169 1.370 . S
C4168 C4170 1.363 . S
C4168 H4184 0.931 . S
C4169 C4168 1.370 . S
C4169 C4173 1.408 . S
C4170 C4168 1.363 . S
C4170 C4171 1.370 . S
C4170 C4174 1.524 . S
C4171 C4163 1.503 . S
C4171 C4170 1.370 . S
C4171 C4172 1.403 . S
C4172 C4171 1.403 . S
C4172 C4173 1.404 . S
C4172 C4175 1.539 . S
C4173 C4169 1.408 . S
C4173 C4172 1.404 . S
C4173 H4185 0.930 . S
C4174 C4170 1.524 . S
C4174 H4186 0.956 . S
C4174 H4187 0.961 . S
C4174 H4188 0.961 . S
C4175 C4172 1.539 . S
C4175 H4189 0.958 . S
C4175 H4190 0.961 . S
C4175 H4191 0.960 . S
H4176 C4160 0.931 . S
H4177 C4165 0.929 . S
H4178 C4166 0.960 . S
H4179 C4166 0.962 . S
H4180 C4166 0.960 . S
H4181 C4167 0.961 . S
H4182 C4167 0.961 . S
H4183 C4167 0.961 . S
H4184 C4168 0.931 . S
H4185 C4173 0.930 . S
H4186 C4174 0.956 . S
H4187 C4174 0.961 . S
H4188 C4174 0.961 . S
H4189 C4175 0.958 . S
H4190 C4175 0.961 . S
H4191 C4175 0.960 . S
C4192 C4193 1.391 . S
C4192 C4194 1.394 . S
C4192 H4208 0.931 . S
C4193 C4192 1.391 . S
C4193 C4197 1.376 . S
C4194 C4192 1.394 . S
C4194 C4195 1.369 . S
C4194 C4198 1.531 . S
C4195 C4194 1.369 . S
C4195 C4196 1.410 . S
C4195 C4203 1.503 . S
C4196 C4195 1.410 . S
C4196 C4197 1.392 . S
C4196 C4199 1.511 . S
C4197 C4193 1.376 . S
C4197 C4196 1.392 . S
C4197 H4209 0.929 . S
C4198 C4194 1.531 . S
C4198 H4210 0.960 . S
C4198 H4211 0.962 . S
C4198 H4212 0.960 . S
C4199 C4196 1.511 . S
C4199 H4213 0.961 . S
C4199 H4214 0.961 . S
C4199 H4215 0.961 . S
C4200 C4201 1.370 . S
C4200 C4202 1.363 . S
C4200 H4216 0.931 . S
C4201 C4200 1.370 . S
C4201 C4205 1.408 . S
C4202 C4200 1.363 . S
C4202 C4203 1.370 . S
C4202 C4206 1.524 . S
C4203 C4195 1.503 . S
C4203 C4202 1.370 . S
C4203 C4204 1.403 . S
C4204 C4203 1.403 . S
C4204 C4205 1.404 . S
C4204 C4207 1.539 . S
C4205 C4201 1.408 . S
C4205 C4204 1.404 . S
C4205 H4217 0.930 . S
C4206 C4202 1.524 . S
C4206 H4218 0.956 . S
C4206 H4219 0.961 . S
C4206 H4220 0.961 . S
C4207 C4204 1.539 . S
C4207 H4221 0.958 . S
C4207 H4222 0.961 . S
C4207 H4223 0.960 . S
H4208 C4192 0.931 . S
H4209 C4197 0.929 . S
H4210 C4198 0.960 . S
H4211 C4198 0.962 . S
H4212 C4198 0.960 . S
H4213 C4199 0.961 . S
H4214 C4199 0.961 . S
H4215 C4199 0.961 . S
H4216 C4200 0.931 . S
H4217 C4205 0.930 . S
H4218 C4206 0.956 . S
H4219 C4206 0.961 . S
H4220 C4206 0.961 . S
H4221 C4207 0.958 . S
H4222 C4207 0.961 . S
H4223 C4207 0.960 . S
C4224 C4225 1.391 . S
C4224 C4226 1.394 . S
C4224 H4240 0.931 . S
C4225 C4224 1.391 . S
C4225 C4229 1.376 . S
C4226 C4224 1.394 . S
C4226 C4227 1.369 . S
C4226 C4230 1.531 . S
C4227 C4226 1.369 . S
C4227 C4228 1.410 . S
C4227 C4235 1.503 . S
C4228 C4227 1.410 . S
C4228 C4229 1.392 . S
C4228 C4231 1.511 1_545 S
C4229 C4225 1.376 . S
C4229 C4228 1.392 . S
C4229 H4241 0.929 1_545 S
C4230 C4226 1.531 . S
C4230 H4242 0.960 . S
C4230 H4243 0.962 . S
C4230 H4244 0.960 . S
C4231 C4228 1.511 1_565 S
C4231 H4245 0.961 . S
C4231 H4246 0.961 . S
C4231 H4247 0.961 . S
C4232 C4233 1.366 1_565 S
C4232 C4234 1.357 1_565 S
C4232 H4248 0.942 . S
C4233 C4232 1.366 1_545 S
C4233 C4237 1.408 . S
C4234 C4232 1.357 1_545 S
C4234 C4235 1.370 . S
C4234 C4238 1.524 1_545 S
C4235 C4227 1.503 . S
C4235 C4234 1.370 . S
C4235 C4236 1.403 . S
C4236 C4235 1.403 . S
C4236 C4237 1.404 . S
C4236 C4239 1.539 . S
C4237 C4233 1.408 . S
C4237 C4236 1.404 . S
C4237 H4249 0.930 . S
C4238 C4234 1.524 1_565 S
C4238 H4250 0.956 . S
C4238 H4251 0.961 . S
C4238 H4252 0.961 . S
C4239 C4236 1.539 . S
C4239 H4253 0.958 . S
C4239 H4254 0.961 . S
C4239 H4255 0.960 . S
H4240 C4224 0.931 . S
H4241 C4229 0.929 1_565 S
H4242 C4230 0.960 . S
H4243 C4230 0.962 . S
H4244 C4230 0.960 . S
H4245 C4231 0.961 . S
H4246 C4231 0.961 . S
H4247 C4231 0.961 . S
H4248 C4232 0.942 . S
H4249 C4237 0.930 . S
H4250 C4238 0.956 . S
H4251 C4238 0.961 . S
H4252 C4238 0.961 . S
H4253 C4239 0.958 . S
H4254 C4239 0.961 . S
H4255 C4239 0.960 . S
C4256 C4257 1.391 . S
C4256 C4258 1.394 . S
C4256 H4272 0.931 . S
C4257 C4256 1.391 . S
C4257 C4261 1.376 1_655 S
C4258 C4256 1.394 . S
C4258 C4259 1.369 . S
C4258 C4262 1.531 . S
C4259 C4258 1.369 . S
C4259 C4260 1.410 1_655 S
C4259 C4267 1.503 . S
C4260 C4259 1.410 1_455 S
C4260 C4261 1.392 . S
C4260 C4263 1.511 . S
C4261 C4257 1.376 1_455 S
C4261 C4260 1.392 . S
C4261 H4273 0.929 . S
C4262 C4258 1.531 . S
C4262 H4274 0.960 . S
C4262 H4275 0.962 . S
C4262 H4276 0.960 . S
C4263 C4260 1.511 . S
C4263 H4277 0.961 . S
C4263 H4278 0.961 . S
C4263 H4279 0.961 . S
C4264 C4265 1.370 . S
C4264 C4266 1.363 . S
C4264 H4280 0.931 . S
C4265 C4264 1.370 . S
C4265 C4269 1.408 . S
C4266 C4264 1.363 . S
C4266 C4267 1.370 . S
C4266 C4270 1.524 . S
C4267 C4259 1.503 . S
C4267 C4266 1.370 . S
C4267 C4268 1.403 . S
C4268 C4267 1.403 . S
C4268 C4269 1.404 . S
C4268 C4271 1.539 . S
C4269 C4265 1.408 . S
C4269 C4268 1.404 . S
C4269 H4281 0.930 . S
C4270 C4266 1.524 . S
C4270 H4282 0.956 . S
C4270 H4283 0.961 1_655 S
C4270 H4284 0.978 1_655 S
C4271 C4268 1.539 . S
C4271 H4285 0.958 . S
C4271 H4286 0.961 . S
C4271 H4287 0.960 . S
H4272 C4256 0.931 . S
H4273 C4261 0.929 . S
H4274 C4262 0.960 . S
H4275 C4262 0.962 . S
H4276 C4262 0.960 . S
H4277 C4263 0.961 . S
H4278 C4263 0.961 . S
H4279 C4263 0.961 . S
H4280 C4264 0.931 . S
H4281 C4269 0.930 . S
H4282 C4270 0.956 . S
H4283 C4270 0.961 1_455 S
H4284 C4270 0.978 1_455 S
H4285 C4271 0.958 . S
H4286 C4271 0.961 . S
H4287 C4271 0.960 . S
C4288 C4289 1.391 . S
C4288 C4290 1.394 . S
C4288 H4304 0.931 . S
C4289 C4288 1.391 . S
C4289 C4293 1.376 . S
C4290 C4288 1.394 . S
C4290 C4291 1.369 . S
C4290 C4294 1.531 . S
C4291 C4290 1.369 . S
C4291 C4292 1.410 . S
C4291 C4299 1.503 . S
C4292 C4291 1.410 . S
C4292 C4293 1.392 . S
C4292 C4295 1.511 . S
C4293 C4289 1.376 . S
C4293 C4292 1.392 . S
C4293 H4305 0.929 . S
C4294 C4290 1.531 . S
C4294 H4306 0.960 . S
C4294 H4307 0.962 . S
C4294 H4308 0.960 . S
C4295 C4292 1.511 . S
C4295 H4309 0.961 . S
C4295 H4310 0.961 . S
C4295 H4311 0.961 . S
C4296 C4297 1.370 . S
C4296 C4298 1.363 . S
C4296 H4312 0.931 . S
C4297 C4296 1.370 . S
C4297 C4301 1.408 . S
C4298 C4296 1.363 . S
C4298 C4299 1.370 . S
C4298 C4302 1.524 . S
C4299 C4291 1.503 . S
C4299 C4298 1.370 . S
C4299 C4300 1.403 . S
C4300 C4299 1.403 . S
C4300 C4301 1.404 . S
C4300 C4303 1.539 . S
C4301 C4297 1.408 . S
C4301 C4300 1.404 . S
C4301 H4313 0.930 . S
C4302 C4298 1.524 . S
C4302 H4314 0.956 . S
C4302 H4315 0.961 . S
C4302 H4316 0.961 . S
C4303 C4300 1.539 . S
C4303 H4317 0.958 . S
C4303 H4318 0.961 . S
C4303 H4319 0.960 . S
H4304 C4288 0.931 . S
H4305 C4293 0.929 . S
H4306 C4294 0.960 . S
H4307 C4294 0.962 . S
H4308 C4294 0.960 . S
H4309 C4295 0.961 . S
H4310 C4295 0.961 . S
H4311 C4295 0.961 . S
H4312 C4296 0.931 . S
H4313 C4301 0.930 . S
H4314 C4302 0.956 . S
H4315 C4302 0.961 . S
H4316 C4302 0.961 . S
H4317 C4303 0.958 . S
H4318 C4303 0.961 . S
H4319 C4303 0.960 . S
C4320 C4321 1.391 . S
C4320 C4322 1.394 . S
C4320 H4336 0.931 . S
C4321 C4320 1.391 . S
C4321 C4325 1.376 . S
C4322 C4320 1.394 . S
C4322 C4323 1.369 . S
C4322 C4326 1.531 . S
C4323 C4322 1.369 . S
C4323 C4324 1.410 . S
C4323 C4331 1.503 . S
C4324 C4323 1.410 . S
C4324 C4325 1.392 . S
C4324 C4327 1.511 . S
C4325 C4321 1.376 . S
C4325 C4324 1.392 . S
C4325 H4337 0.929 . S
C4326 C4322 1.531 . S
C4326 H4338 0.960 . S
C4326 H4339 0.962 . S
C4326 H4340 0.960 . S
C4327 C4324 1.511 . S
C4327 H4341 0.961 . S
C4327 H4342 0.961 . S
C4327 H4343 0.961 . S
C4328 C4329 1.370 . S
C4328 C4330 1.363 . S
C4328 H4344 0.931 . S
C4329 C4328 1.370 . S
C4329 C4333 1.408 . S
C4330 C4328 1.363 . S
C4330 C4331 1.370 . S
C4330 C4334 1.524 . S
C4331 C4323 1.503 . S
C4331 C4330 1.370 . S
C4331 C4332 1.403 . S
C4332 C4331 1.403 . S
C4332 C4333 1.404 . S
C4332 C4335 1.539 . S
C4333 C4329 1.408 . S
C4333 C4332 1.404 . S
C4333 H4345 0.930 . S
C4334 C4330 1.524 . S
C4334 H4346 0.956 . S
C4334 H4347 0.961 . S
C4334 H4348 0.961 . S
C4335 C4332 1.539 . S
C4335 H4349 0.958 . S
C4335 H4350 0.961 . S
C4335 H4351 0.960 . S
H4336 C4320 0.931 . S
H4337 C4325 0.929 . S
H4338 C4326 0.960 . S
H4339 C4326 0.962 . S
H4340 C4326 0.960 . S
H4341 C4327 0.961 . S
H4342 C4327 0.961 . S
H4343 C4327 0.961 . S
H4344 C4328 0.931 . S
H4345 C4333 0.930 . S
H4346 C4334 0.956 . S
H4347 C4334 0.961 . S
H4348 C4334 0.961 . S
H4349 C4335 0.958 . S
H4350 C4335 0.961 . S
H4351 C4335 0.960 . S
C4352 C4353 1.391 . S
C4352 C4354 1.394 . S
C4352 H4368 0.931 . S
C4353 C4352 1.391 . S
C4353 C4357 1.376 . S
C4354 C4352 1.394 . S
C4354 C4355 1.369 . S
C4354 C4358 1.531 . S
C4355 C4354 1.369 . S
C4355 C4356 1.410 . S
C4355 C4363 1.503 . S
C4356 C4355 1.410 . S
C4356 C4357 1.392 . S
C4356 C4359 1.511 . S
C4357 C4353 1.376 . S
C4357 C4356 1.392 . S
C4357 H4369 0.929 . S
C4358 C4354 1.531 . S
C4358 H4370 0.960 . S
C4358 H4371 0.962 . S
C4358 H4372 0.960 . S
C4359 C4356 1.511 . S
C4359 H4373 0.961 . S
C4359 H4374 0.961 . S
C4359 H4375 0.961 . S
C4360 C4361 1.370 . S
C4360 C4362 1.363 . S
C4360 H4376 0.931 . S
C4361 C4360 1.370 . S
C4361 C4365 1.408 . S
C4362 C4360 1.363 . S
C4362 C4363 1.370 . S
C4362 C4366 1.524 . S
C4363 C4355 1.503 . S
C4363 C4362 1.370 . S
C4363 C4364 1.403 . S
C4364 C4363 1.403 . S
C4364 C4365 1.404 . S
C4364 C4367 1.539 . S
C4365 C4361 1.408 . S
C4365 C4364 1.404 . S
C4365 H4377 0.930 . S
C4366 C4362 1.524 . S
C4366 H4378 0.956 . S
C4366 H4379 0.961 . S
C4366 H4380 0.961 . S
C4367 C4364 1.539 . S
C4367 H4381 0.958 . S
C4367 H4382 0.961 . S
C4367 H4383 0.960 . S
H4368 C4352 0.931 . S
H4369 C4357 0.929 . S
H4370 C4358 0.960 . S
H4371 C4358 0.962 . S
H4372 C4358 0.960 . S
H4373 C4359 0.961 . S
H4374 C4359 0.961 . S
H4375 C4359 0.961 . S
H4376 C4360 0.931 . S
H4377 C4365 0.930 . S
H4378 C4366 0.956 . S
H4379 C4366 0.961 . S
H4380 C4366 0.961 . S
H4381 C4367 0.958 . S
H4382 C4367 0.961 . S
H4383 C4367 0.960 . S
C4384 C4385 1.391 . S
C4384 C4386 1.394 . S
C4384 H4400 0.931 . S
C4385 C4384 1.391 . S
C4385 C4389 1.376 . S
C4386 C4384 1.394 . S
C4386 C4387 1.369 . S
C4386 C4390 1.531 . S
C4387 C4386 1.369 . S
C4387 C4388 1.410 . S
C4387 C4395 1.503 . S
C4388 C4387 1.410 . S
C4388 C4389 1.392 . S
C4388 C4391 1.511 . S
C4389 C4385 1.376 . S
C4389 C4388 1.392 . S
C4389 H4401 0.929 . S
C4390 C4386 1.531 . S
C4390 H4402 0.960 . S
C4390 H4403 0.962 . S
C4390 H4404 0.960 . S
C4391 C4388 1.511 . S
C4391 H4405 0.961 . S
C4391 H4406 0.961 . S
C4391 H4407 0.961 . S
C4392 C4393 1.370 . S
C4392 C4394 1.363 . S
C4392 H4408 0.931 . S
C4393 C4392 1.370 . S
C4393 C4397 1.408 . S
C4394 C4392 1.363 . S
C4394 C4395 1.370 . S
C4394 C4398 1.524 . S
C4395 C4387 1.503 . S
C4395 C4394 1.370 . S
C4395 C4396 1.403 . S
C4396 C4395 1.403 . S
C4396 C4397 1.404 . S
C4396 C4399 1.539 . S
C4397 C4393 1.408 . S
C4397 C4396 1.404 . S
C4397 H4409 0.930 . S
C4398 C4394 1.524 . S
C4398 H4410 0.956 . S
C4398 H4411 0.961 . S
C4398 H4412 0.961 . S
C4399 C4396 1.539 . S
C4399 H4413 0.958 . S
C4399 H4414 0.961 . S
C4399 H4415 0.960 . S
H4400 C4384 0.931 . S
H4401 C4389 0.929 . S
H4402 C4390 0.960 . S
H4403 C4390 0.962 . S
H4404 C4390 0.960 . S
H4405 C4391 0.961 . S
H4406 C4391 0.961 . S
H4407 C4391 0.961 . S
H4408 C4392 0.931 . S
H4409 C4397 0.930 . S
H4410 C4398 0.956 . S
H4411 C4398 0.961 . S
H4412 C4398 0.961 . S
H4413 C4399 0.958 . S
H4414 C4399 0.961 . S
H4415 C4399 0.960 . S
C4416 C4417 1.391 . S
C4416 C4418 1.394 . S
C4416 H4432 0.931 . S
C4417 C4416 1.391 . S
C4417 C4421 1.376 . S
C4418 C4416 1.394 . S
C4418 C4419 1.369 . S
C4418 C4422 1.531 . S
C4419 C4418 1.369 . S
C4419 C4420 1.410 . S
C4419 C4427 1.503 . S
C4420 C4419 1.410 . S
C4420 C4421 1.392 . S
C4420 C4423 1.511 . S
C4421 C4417 1.376 . S
C4421 C4420 1.392 . S
C4421 H4433 0.929 . S
C4422 C4418 1.531 . S
C4422 H4434 0.960 . S
C4422 H4435 0.962 . S
C4422 H4436 0.960 . S
C4423 C4420 1.511 . S
C4423 H4437 0.961 . S
C4423 H4438 0.961 . S
C4423 H4439 0.961 . S
C4424 C4425 1.370 . S
C4424 C4426 1.363 . S
C4424 H4440 0.931 . S
C4425 C4424 1.370 . S
C4425 C4429 1.408 . S
C4426 C4424 1.363 . S
C4426 C4427 1.370 . S
C4426 C4430 1.524 . S
C4427 C4419 1.503 . S
C4427 C4426 1.370 . S
C4427 C4428 1.403 . S
C4428 C4427 1.403 . S
C4428 C4429 1.404 . S
C4428 C4431 1.539 . S
C4429 C4425 1.408 . S
C4429 C4428 1.404 . S
C4429 H4441 0.930 . S
C4430 C4426 1.524 . S
C4430 H4442 0.956 . S
C4430 H4443 0.961 . S
C4430 H4444 0.961 . S
C4431 C4428 1.539 . S
C4431 H4445 0.958 . S
C4431 H4446 0.961 . S
C4431 H4447 0.960 . S
H4432 C4416 0.931 . S
H4433 C4421 0.929 . S
H4434 C4422 0.960 . S
H4435 C4422 0.962 . S
H4436 C4422 0.960 . S
H4437 C4423 0.961 . S
H4438 C4423 0.961 . S
H4439 C4423 0.961 . S
H4440 C4424 0.931 . S
H4441 C4429 0.930 . S
H4442 C4430 0.956 . S
H4443 C4430 0.961 . S
H4444 C4430 0.961 . S
H4445 C4431 0.958 . S
H4446 C4431 0.961 . S
H4447 C4431 0.960 . S
C4448 C4449 1.391 . S
C4448 C4450 1.394 . S
C4448 H4464 0.931 . S
C4449 C4448 1.391 . S
C4449 C4453 1.376 . S
C4450 C4448 1.394 . S
C4450 C4451 1.369 . S
C4450 C4454 1.531 . S
C4451 C4450 1.369 . S
C4451 C4452 1.410 . S
C4451 C4459 1.503 . S
C4452 C4451 1.410 . S
C4452 C4453 1.392 . S
C4452 C4455 1.511 . S
C4453 C4449 1.376 . S
C4453 C4452 1.392 . S
C4453 H4465 0.929 . S
C4454 C4450 1.531 . S
C4454 H4466 0.960 . S
C4454 H4467 0.962 . S
C4454 H4468 0.960 . S
C4455 C4452 1.511 . S
C4455 H4469 0.961 . S
C4455 H4470 0.961 . S
C4455 H4471 0.961 . S
C4456 C4457 1.370 . S
C4456 C4458 1.363 . S
C4456 H4472 0.931 . S
C4457 C4456 1.370 . S
C4457 C4461 1.408 . S
C4458 C4456 1.363 . S
C4458 C4459 1.370 . S
C4458 C4462 1.524 . S
C4459 C4451 1.503 . S
C4459 C4458 1.370 . S
C4459 C4460 1.403 . S
C4460 C4459 1.403 . S
C4460 C4461 1.404 . S
C4460 C4463 1.539 . S
C4461 C4457 1.408 . S
C4461 C4460 1.404 . S
C4461 H4473 0.930 . S
C4462 C4458 1.524 . S
C4462 H4474 0.956 . S
C4462 H4475 0.961 . S
C4462 H4476 0.961 . S
C4463 C4460 1.539 . S
C4463 H4477 0.958 . S
C4463 H4478 0.961 . S
C4463 H4479 0.960 . S
H4464 C4448 0.931 . S
H4465 C4453 0.929 . S
H4466 C4454 0.960 . S
H4467 C4454 0.962 . S
H4468 C4454 0.960 . S
H4469 C4455 0.961 . S
H4470 C4455 0.961 . S
H4471 C4455 0.961 . S
H4472 C4456 0.931 . S
H4473 C4461 0.930 . S
H4474 C4462 0.956 . S
H4475 C4462 0.961 . S
H4476 C4462 0.961 . S
H4477 C4463 0.958 . S
H4478 C4463 0.961 . S
H4479 C4463 0.960 . S
C4480 C4481 1.391 . S
C4480 C4482 1.394 . S
C4480 H4496 0.931 . S
C4481 C4480 1.391 . S
C4481 C4485 1.376 . S
C4482 C4480 1.394 . S
C4482 C4483 1.369 . S
C4482 C4486 1.531 . S
C4483 C4482 1.369 . S
C4483 C4484 1.410 . S
C4483 C4491 1.503 . S
C4484 C4483 1.410 . S
C4484 C4485 1.392 . S
C4484 C4487 1.511 . S
C4485 C4481 1.376 . S
C4485 C4484 1.392 . S
C4485 H4497 0.929 . S
C4486 C4482 1.531 . S
C4486 H4498 0.960 . S
C4486 H4499 0.962 . S
C4486 H4500 0.960 . S
C4487 C4484 1.511 . S
C4487 H4501 0.961 . S
C4487 H4502 0.961 . S
C4487 H4503 0.961 . S
C4488 C4489 1.370 . S
C4488 C4490 1.363 . S
C4488 H4504 0.931 . S
C4489 C4488 1.370 . S
C4489 C4493 1.408 . S
C4490 C4488 1.363 . S
C4490 C4491 1.370 . S
C4490 C4494 1.524 . S
C4491 C4483 1.503 . S
C4491 C4490 1.370 . S
C4491 C4492 1.403 . S
C4492 C4491 1.403 . S
C4492 C4493 1.404 . S
C4492 C4495 1.539 . S
C4493 C4489 1.408 . S
C4493 C4492 1.404 . S
C4493 H4505 0.930 . S
C4494 C4490 1.524 . S
C4494 H4506 0.956 . S
C4494 H4507 0.961 . S
C4494 H4508 0.961 . S
C4495 C4492 1.539 . S
C4495 H4509 0.958 . S
C4495 H4510 0.961 . S
C4495 H4511 0.960 . S
H4496 C4480 0.931 . S
H4497 C4485 0.929 . S
H4498 C4486 0.960 . S
H4499 C4486 0.962 . S
H4500 C4486 0.960 . S
H4501 C4487 0.961 . S
H4502 C4487 0.961 . S
H4503 C4487 0.961 . S
H4504 C4488 0.931 . S
H4505 C4493 0.930 . S
H4506 C4494 0.956 . S
H4507 C4494 0.961 . S
H4508 C4494 0.961 . S
H4509 C4495 0.958 . S
H4510 C4495 0.961 . S
H4511 C4495 0.960 . S
C4512 C4513 1.391 . S
C4512 C4514 1.394 . S
C4512 H4528 0.931 . S
C4513 C4512 1.391 . S
C4513 C4517 1.376 . S
C4514 C4512 1.394 . S
C4514 C4515 1.369 . S
C4514 C4518 1.525 . S
C4515 C4514 1.369 . S
C4515 C4516 1.410 . S
C4515 C4523 1.503 . S
C4516 C4515 1.410 . S
C4516 C4517 1.392 . S
C4516 C4519 1.511 . S
C4517 C4513 1.376 . S
C4517 C4516 1.392 . S
C4517 H4529 0.929 . S
C4518 C4514 1.525 . S
C4518 H4530 0.966 1_655 S
C4518 H4531 0.958 . S
C4518 H4532 0.963 1_655 S
C4519 C4516 1.511 . S
C4519 H4533 0.961 . S
C4519 H4534 0.961 . S
C4519 H4535 0.995 . S
C4520 C4521 1.370 . S
C4520 C4522 1.363 . S
C4520 H4536 0.931 . S
C4521 C4520 1.370 . S
C4521 C4525 1.408 1_655 S
C4522 C4520 1.363 . S
C4522 C4523 1.370 . S
C4522 C4526 1.524 . S
C4523 C4515 1.503 . S
C4523 C4522 1.370 . S
C4523 C4524 1.403 1_655 S
C4524 C4523 1.403 1_455 S
C4524 C4525 1.404 . S
C4524 C4527 1.539 . S
C4525 C4521 1.408 1_455 S
C4525 C4524 1.404 . S
C4525 H4537 0.930 . S
C4526 C4522 1.524 . S
C4526 H4538 0.956 . S
C4526 H4539 0.961 . S
C4526 H4540 0.961 . S
C4527 C4524 1.539 . S
C4527 H4541 0.958 . S
C4527 H4542 0.961 . S
C4527 H4543 0.960 . S
H4528 C4512 0.931 . S
H4529 C4517 0.929 . S
H4530 C4518 0.966 1_455 S
H4531 C4518 0.958 . S
H4532 C4518 0.963 1_455 S
H4533 C4519 0.961 . S
H4534 C4519 0.961 . S
H4535 C4519 0.995 . S
H4536 C4520 0.931 . S
H4537 C4525 0.930 . S
H4538 C4526 0.956 . S
H4539 C4526 0.961 . S
H4540 C4526 0.961 . S
H4541 C4527 0.958 . S
H4542 C4527 0.961 . S
H4543 C4527 0.960 . S
C4544 C4545 1.391 . S
C4544 C4546 1.394 . S
C4544 H4560 0.931 . S
C4545 C4544 1.391 . S
C4545 C4549 1.376 . S
C4546 C4544 1.394 . S
C4546 C4547 1.369 . S
C4546 C4550 1.531 . S
C4547 C4546 1.369 . S
C4547 C4548 1.410 . S
C4547 C4555 1.503 . S
C4548 C4547 1.410 . S
C4548 C4549 1.392 . S
C4548 C4551 1.511 . S
C4549 C4545 1.376 . S
C4549 C4548 1.392 . S
C4549 H4561 0.929 . S
C4550 C4546 1.531 . S
C4550 H4562 0.960 . S
C4550 H4563 0.962 . S
C4550 H4564 0.960 . S
C4551 C4548 1.511 . S
C4551 H4565 0.961 . S
C4551 H4566 0.961 . S
C4551 H4567 0.961 . S
C4552 C4553 1.370 . S
C4552 C4554 1.363 . S
C4552 H4568 0.931 . S
C4553 C4552 1.370 . S
C4553 C4557 1.408 . S
C4554 C4552 1.363 . S
C4554 C4555 1.370 . S
C4554 C4558 1.524 . S
C4555 C4547 1.503 . S
C4555 C4554 1.370 . S
C4555 C4556 1.403 . S
C4556 C4555 1.403 . S
C4556 C4557 1.404 . S
C4556 C4559 1.539 . S
C4557 C4553 1.408 . S
C4557 C4556 1.404 . S
C4557 H4569 0.930 . S
C4558 C4554 1.524 . S
C4558 H4570 0.956 . S
C4558 H4571 0.961 . S
C4558 H4572 0.961 . S
C4559 C4556 1.539 . S
C4559 H4573 0.958 . S
C4559 H4574 0.961 . S
C4559 H4575 0.960 . S
H4560 C4544 0.931 . S
H4561 C4549 0.929 . S
H4562 C4550 0.960 . S
H4563 C4550 0.962 . S
H4564 C4550 0.960 . S
H4565 C4551 0.961 . S
H4566 C4551 0.961 . S
H4567 C4551 0.961 . S
H4568 C4552 0.931 . S
H4569 C4557 0.930 . S
H4570 C4558 0.956 . S
H4571 C4558 0.961 . S
H4572 C4558 0.961 . S
H4573 C4559 0.958 . S
H4574 C4559 0.961 . S
H4575 C4559 0.960 . S
C4576 C4577 1.391 . S
C4576 C4578 1.394 . S
C4576 H4592 0.931 . S
C4577 C4576 1.391 . S
C4577 C4581 1.376 1_545 S
C4578 C4576 1.394 . S
C4578 C4579 1.369 . S
C4578 C4582 1.531 . S
C4579 C4578 1.369 . S
C4579 C4580 1.410 1_545 S
C4579 C4587 1.503 . S
C4580 C4579 1.410 1_565 S
C4580 C4581 1.392 . S
C4580 C4583 1.511 . S
C4581 C4577 1.376 1_565 S
C4581 C4580 1.392 . S
C4581 H4593 0.929 . S
C4582 C4578 1.531 . S
C4582 H4594 0.960 . S
C4582 H4595 0.962 . S
C4582 H4596 0.960 . S
C4583 C4580 1.511 . S
C4583 H4597 0.961 . S
C4583 H4598 0.961 . S
C4583 H4599 0.961 . S
C4584 C4585 1.383 . S
C4584 C4586 1.363 . S
C4584 H4600 0.931 . S
C4585 C4584 1.383 . S
C4585 C4589 1.376 1_545 S
C4586 C4584 1.363 . S
C4586 C4587 1.370 . S
C4586 C4590 1.524 . S
C4587 C4579 1.503 . S
C4587 C4586 1.370 . S
C4587 C4588 1.403 1_545 S
C4588 C4587 1.403 1_565 S
C4588 C4589 1.404 . S
C4588 C4591 1.539 . S
C4589 C4585 1.376 1_565 S
C4589 C4588 1.404 . S
C4589 H4601 0.930 . S
C4590 C4586 1.524 . S
C4590 H4602 0.956 . S
C4590 H4603 0.961 . S
C4590 H4604 0.961 . S
C4591 C4588 1.539 . S
C4591 H4605 0.958 . S
C4591 H4606 0.961 . S
C4591 H4607 0.960 . S
H4592 C4576 0.931 . S
H4593 C4581 0.929 . S
H4594 C4582 0.960 . S
H4595 C4582 0.962 . S
H4596 C4582 0.960 . S
H4597 C4583 0.961 . S
H4598 C4583 0.961 . S
H4599 C4583 0.961 . S
H4600 C4584 0.931 . S
H4601 C4589 0.930 . S
H4602 C4590 0.956 . S
H4603 C4590 0.961 . S
H4604 C4590 0.961 . S
H4605 C4591 0.958 . S
H4606 C4591 0.961 . S
H4607 C4591 0.960 . S
C2305 C7 1.287 . S
C2313 C1307 1.070 1_655 S
C2337 C23 1.746 . S
C2345 C1447 1.101 . S
C2377 C1535 1.130 . S
C2369 C37 1.367 . S
C2401 C35 1.423 1_545 S
C2409 C1675 1.047 1_565 S
C2433 C9 1.368 . S
C2441 C1789 1.073 . S
C2465 C21 1.748 . S
C2473 C1877 1.301 . S
C2497 C49 1.286 . S
C2505 C1763 1.044 . S
C2537 C1903 1.422 . S
C2529 C65 1.639 . S
C2569 C1649 1.142 . S
C2561 C79 1.388 . S
C2593 C77 1.379 . S
C2601 C1561 1.035 . S
C2633 C1333 1.047 . S
C2625 C51 1.402 . S
C2657 C63 1.645 . S
C2665 C1421 1.537 . S
C2689 C91 1.763 . S
C2697 C1991 1.385 . S
C2721 C107 1.842 . S
C2729 C2131 1.231 . S
C2761 C2219 1.307 . S
C2753 C121 1.809 . S
C2785 C119 1.802 . S
C2793 C307 1.233 . S
C2817 C93 1.887 . S
C2825 C421 1.194 . S
C2849 C105 1.825 . S
C2857 C509 1.359 . S
C2881 C133 1.543 . S
C2889 C395 1.413 . S
C2913 C149 1.717 . S
C2921 C535 1.516 . S
C2953 C281 1.540 . S
C2945 C163 1.725 . S
C2985 C2245 1.668 . S
C2977 C161 1.884 . S
C3017 C2017 1.488 . S
C3009 C135 1.743 . S
C3049 C2105 1.630 . S
C3041 C147 1.696 . S
C3073 C175 1.609 . S
C3081 C623 1.249 . S
C3105 C191 1.829 . S
C3113 C763 1.217 . S
C3137 C205 1.835 . S
C3145 C851 1.350 . S
C3169 C203 1.951 . S
C3177 C991 1.368 . S
C3209 C1105 1.168 . S
C3201 C177 1.869 . S
C3241 C1193 1.418 . S
C3233 C189 1.812 . S
C3273 C1079 1.603 . S
C3265 C217 1.673 . S
C3305 C1219 1.525 . S
C3297 C233 1.739 . S
C3329 C247 1.686 . S
C3337 C965 1.512 . S
C3369 C877 1.530 . S
C3361 C245 1.734 . S
C3393 C219 1.771 . S
C3401 C649 1.553 . S
C3433 C737 1.622 . S
C3425 C231 1.724 . S
C3465 C263 1.038 . S
C3457 C8 1.832 . S
C3489 C17 1.623 . S
C3497 C377 0.945 . S
C3529 C481 1.297 . S
C3521 C31 1.731 . S
C3561 C595 1.255 . S
C3553 C36 1.687 . S
C3593 C719 0.976 . S
C3585 C3 1.787 . S
C3625 C823 1.216 . S
C3617 C22 1.653 . S
C3649 C50 1.943 . S
C3657 C833 1.472 . S
C3681 C59 1.735 . S
C3689 C605 1.362 . S
C3713 C73 1.856 . S
C3721 C709 1.644 . S
C3745 C78 1.841 . S
C3753 C367 1.625 . S
C3785 C491 1.496 . S
C3777 C45 1.896 . S
C3809 C64 1.782 . S
C3817 C253 1.595 . S
C3849 C947 0.995 . S
C3841 C92 1.747 . S
C3873 C101 1.810 . S
C3881 C1061 1.094 . S
C3905 C115 1.857 . S
C3913 C1165 1.398 . S
C3945 C1279 1.022 . S
C3937 C120 1.264 . S
C3969 C87 1.715 . S
C3977 C1403 0.946 . S
C4001 C106 1.315 . S
C4009 C1507 1.073 . S
C4033 C134 1.453 . S
C4041 C1517 0.926 1_565 S
C4065 C143 1.354 . S
C4073 C1289 0.868 1_455 S
C4105 C1393 1.569 . S
C4097 C157 1.764 . S
C4129 C162 1.739 . S
C4137 C1051 1.573 . S
C4161 C129 1.923 . S
C4169 C1175 1.533 . S
C4201 C937 1.725 . S
C4193 C148 1.931 . S
C4233 C1631 0.936 . S
C4225 C176 1.446 . S
C4257 C185 1.331 . S
C4265 C1745 0.919 . S
C4289 C199 1.678 . S
C4297 C1849 1.226 . S
C4329 C1963 1.190 . S
C4321 C204 1.610 . S
C4361 C2087 1.066 . S
C4353 C171 1.831 . S
C4385 C190 1.837 . S
C4393 C2191 1.348 . S
C4417 C218 1.873 . S
C4425 C2201 1.446 . S
C4449 C227 1.917 . S
C4457 C1973 1.509 . S
C4489 C2077 1.661 . S
C4481 C241 1.877 . S
C4521 C1735 1.062 1_655 S
C4513 C246 1.279 . S
C4553 C1859 1.374 . S
C4545 C213 1.797 . S
C4577 C232 1.351 . S
C4585 C1621 1.100 1_545 S
