# Generated by pormake.
# Topology nom, (4,4)-cn, num edge types: 1
# Building blocks:
#     Node 0, Type 0, BuildingBlock: GIZVER_clean_linker_0, # of connection points: 4
#     Node 1, Type 0, BuildingBlock: GIZVER_clean_linker_0, # of connection points: 4
#     Node 2, Type 0, BuildingBlock: GIZVER_clean_linker_0, # of connection points: 4
#     Node 3, Type 0, BuildingBlock: GIZVER_clean_linker_0, # of connection points: 4
#     Node 4, Type 0, BuildingBlock: GIZVER_clean_linker_0, # of connection points: 4
#     Node 5, Type 0, BuildingBlock: GIZVER_clean_linker_0, # of connection points: 4
#     Node 6, Type 1, BuildingBlock: KUFVIS_clean_sbu_0, # of connection points: 4
#     Node 7, Type 1, BuildingBlock: KUFVIS_clean_sbu_0, # of connection points: 4
#     Node 8, Type 1, BuildingBlock: KUFVIS_clean_sbu_0, # of connection points: 4
#     Node 9, Type 1, BuildingBlock: KUFVIS_clean_sbu_0, # of connection points: 4
#     Node 10, Type 1, BuildingBlock: KUFVIS_clean_sbu_0, # of connection points: 4
#     Node 11, Type 1, BuildingBlock: KUFVIS_clean_sbu_0, # of connection points: 4
#     Edge 12, Type (0, 1), BuildingBlock: TEMPAE_clean_linker_10, # of connection points: 2
#     Edge 13, Type (0, 1), BuildingBlock: TEMPAE_clean_linker_10, # of connection points: 2
#     Edge 14, Type (0, 1), BuildingBlock: TEMPAE_clean_linker_10, # of connection points: 2
#     Edge 15, Type (0, 1), BuildingBlock: TEMPAE_clean_linker_10, # of connection points: 2
#     Edge 16, Type (0, 1), BuildingBlock: TEMPAE_clean_linker_10, # of connection points: 2
#     Edge 17, Type (0, 1), BuildingBlock: TEMPAE_clean_linker_10, # of connection points: 2
#     Edge 18, Type (0, 1), BuildingBlock: TEMPAE_clean_linker_10, # of connection points: 2
#     Edge 19, Type (0, 1), BuildingBlock: TEMPAE_clean_linker_10, # of connection points: 2
#     Edge 20, Type (0, 1), BuildingBlock: TEMPAE_clean_linker_10, # of connection points: 2
#     Edge 21, Type (0, 1), BuildingBlock: TEMPAE_clean_linker_10, # of connection points: 2
#     Edge 22, Type (0, 1), BuildingBlock: TEMPAE_clean_linker_10, # of connection points: 2
#     Edge 23, Type (0, 1), BuildingBlock: TEMPAE_clean_linker_10, # of connection points: 2
#     Edge 24, Type (0, 1), BuildingBlock: TEMPAE_clean_linker_10, # of connection points: 2
#     Edge 25, Type (0, 1), BuildingBlock: TEMPAE_clean_linker_10, # of connection points: 2
#     Edge 26, Type (0, 1), BuildingBlock: TEMPAE_clean_linker_10, # of connection points: 2
#     Edge 27, Type (0, 1), BuildingBlock: TEMPAE_clean_linker_10, # of connection points: 2
#     Edge 28, Type (0, 1), BuildingBlock: TEMPAE_clean_linker_10, # of connection points: 2
#     Edge 29, Type (0, 1), BuildingBlock: TEMPAE_clean_linker_10, # of connection points: 2
#     Edge 30, Type (0, 1), BuildingBlock: TEMPAE_clean_linker_10, # of connection points: 2
#     Edge 31, Type (0, 1), BuildingBlock: TEMPAE_clean_linker_10, # of connection points: 2
#     Edge 32, Type (0, 1), BuildingBlock: TEMPAE_clean_linker_10, # of connection points: 2
#     Edge 33, Type (0, 1), BuildingBlock: TEMPAE_clean_linker_10, # of connection points: 2
#     Edge 34, Type (0, 1), BuildingBlock: TEMPAE_clean_linker_10, # of connection points: 2
#     Edge 35, Type (0, 1), BuildingBlock: TEMPAE_clean_linker_10, # of connection points: 2
# Relax obj value: 0.005
# Max RMSD: 0.073
# Mean RMSD: 0.051
data_MOF--net-nom--node1-KUFVIS_clean_sbu_0--node2-GIZVER_clean_linker_0--edge1-TEMPAE_clean_linker_10
_symmetry_space_group_name_H-M    P1
_symmetry_Int_Tables_number       1
_symmetry_cell_setting            triclinic
loop_
_symmetry_equiv_pos_as_xyz
'x, y, z'
_cell_length_a     46.503435
_cell_length_b     46.980776
_cell_length_c     46.914303
_cell_angle_alpha  90.581438
_cell_angle_beta   90.550893
_cell_angle_gamma 120.06148
loop_
_atom_site_label
_atom_site_type_symbol
_atom_site_fract_x
_atom_site_fract_y
_atom_site_fract_z
_atom_type_partial_charge
H0 H 0.97544 0.58766 0.33816 0.0
H1 H 1.00362 0.58751 0.25078 0.0
H2 H 0.91234 0.50764 0.28123 0.0
H3 H 0.01851 0.63858 0.31608 0.0
H4 H 0.02812 0.6388 0.27935 0.0
H5 H 0.04148 0.61544 0.35227 0.0
H6 H 0.13842 0.63163 0.33265 0.0
H7 H 0.07665 0.63547 0.26583 0.0
C8 C 0.97108 0.57545 0.31754 0.0
C9 C 0.94181 0.54506 0.31262 0.0
C10 C 0.99406 0.59063 0.29541 0.0
C11 C 0.98705 0.57537 0.2683 0.0
C12 C 0.95757 0.54558 0.2633 0.0
C13 C 0.93559 0.53024 0.28555 0.0
C14 C 0.02371 0.62483 0.2994 0.0
C15 C 0.05485 0.6242 0.30786 0.0
C16 C 0.06014 0.61963 0.33661 0.0
C17 C 0.09039 0.62268 0.34547 0.0
C18 C 0.11483 0.62876 0.32549 0.0
C19 C 0.11008 0.63311 0.29674 0.0
C20 C 0.08004 0.63102 0.28789 0.0
H21 H 0.41066 0.97574 0.5092 0.0
H22 H 0.43793 1.00601 0.42231 0.0
H23 H 0.42099 0.91189 0.44913 0.0
H24 H 0.40532 0.02128 0.48927 0.0
H25 H 0.41331 0.03133 0.45259 0.0
H26 H 0.4529 0.04158 0.52454 0.0
H27 H 0.53569 0.13612 0.50516 0.0
H28 H 0.46576 0.07803 0.43874 0.0
C29 C 0.41733 0.97145 0.48818 0.0
C30 C 0.41628 0.94152 0.482 0.0
C31 C 0.42592 0.99532 0.4668 0.0
C32 C 0.43282 0.9886 0.4392 0.0
C33 C 0.43071 0.95842 0.4329 0.0
C34 C 0.42325 0.9355 0.4544 0.0
C35 C 0.42336 0.0258 0.47207 0.0
C36 C 0.45644 0.05547 0.48033 0.0
C37 C 0.46749 0.05989 0.50891 0.0
C38 C 0.49594 0.089 0.51773 0.0
C39 C 0.51426 0.11321 0.49788 0.0
C40 C 0.50377 0.10953 0.46936 0.0
C41 C 0.47469 0.08056 0.46056 0.0
H42 H 0.41921 0.48883 0.61145 0.0
H43 H 0.43648 0.46036 0.69408 0.0
H44 H 0.42614 0.54555 0.6863 0.0
H45 H 0.41296 0.43548 0.61735 0.0
H46 H 0.41027 0.42041 0.65238 0.0
H47 H 0.46266 0.45357 0.58988 0.0
H48 H 0.53518 0.43031 0.62151 0.0
H49 H 0.46042 0.42541 0.67756 0.0
C50 C 0.42488 0.49416 0.634 0.0
C51 C 0.42261 0.52021 0.64678 0.0
C52 C 0.43088 0.47283 0.65088 0.0
C53 C 0.43474 0.47807 0.68061 0.0
C54 C 0.43331 0.50447 0.69321 0.0
C55 C 0.42861 0.52603 0.67615 0.0
C56 C 0.4264 0.44106 0.63824 0.0
C57 C 0.45886 0.44138 0.63462 0.0
C58 C 0.47364 0.44752 0.60761 0.0
C59 C 0.50088 0.4431 0.60291 0.0
C60 C 0.51457 0.43444 0.6255 0.0
C61 C 0.50046 0.42835 0.65252 0.0
C62 C 0.47239 0.43162 0.65706 0.0
H63 H 0.95758 0.44018 0.77169 0.0
H64 H 0.99471 0.45293 0.85814 0.0
H65 H 0.89841 0.44082 0.84119 0.0
H66 H 1.00282 0.43055 0.78343 0.0
H67 H 0.01531 0.4315 0.81949 0.0
H68 H 0.0273 0.48142 0.75501 0.0
H69 H 0.12645 0.55377 0.78136 0.0
H70 H 0.06287 0.47991 0.83991 0.0
C71 C 0.95505 0.44379 0.79418 0.0
C72 C 0.92534 0.44124 0.80399 0.0
C73 C 0.98058 0.4487 0.81357 0.0
C74 C 0.97608 0.45104 0.84296 0.0
C75 C 0.94661 0.44876 0.8529 0.0
C76 C 0.92193 0.4447 0.83327 0.0
C77 C 1.00963 0.44544 0.80354 0.0
C78 C 0.04059 0.47825 0.7987 0.0
C79 C 0.04621 0.49272 0.77165 0.0
C80 C 0.07707 0.52028 0.76542 0.0
C81 C 0.10201 0.53364 0.78655 0.0
C82 C 0.09728 0.51909 0.81325 0.0
C83 C 0.0662 0.49195 0.81963 0.0
H84 H 0.60502 0.0579 0.0063 0.0
H85 H 0.56901 0.02671 0.9202 0.0
H86 H 0.5869 0.12037 0.95222 0.0
H87 H 0.61008 0.0141 0.98331 0.0
H88 H 0.59899 1.00393 0.94674 0.0
H89 H 0.56763 0.98842 0.02105 0.0
H90 H 0.4877 0.89178 -0.00102 0.0
H91 H 0.5461 0.95693 0.9328 0.0
C92 C 0.59524 0.06148 0.98645 0.0
C93 C 0.59531 0.09108 0.98217 0.0
C94 C 0.58479 0.03756 0.96438 0.0
C95 C 0.57503 0.04401 0.93781 0.0
C96 C 0.57562 0.07385 0.93326 0.0
C97 C 0.5846 0.09655 0.95592 0.0
C98 C 0.59003 1.00841 0.96728 0.0
C99 C 0.55898 0.97727 0.97582 0.0
C100 C 0.55183 0.97052 0.00494 0.0
C101 C 0.52645 0.93945 0.01328 0.0
C102 C 0.5068 0.91602 0.99244 0.0
C103 C 0.51361 0.92202 0.96347 0.0
C104 C 0.53975 0.95274 0.95513 0.0
H105 H 0.62358 0.56544 0.10815 0.0
H106 H 0.61207 0.57545 0.19818 0.0
H107 H 0.61893 0.49318 0.16608 0.0
H108 H 0.63636 0.61872 0.12974 0.0
H109 H 0.63218 0.62265 0.16701 0.0
H110 H 0.58538 0.59294 0.09752 0.0
H111 H 0.51046 0.61502 0.1239 0.0
H112 H 0.58326 0.6219 0.18482 0.0
C113 C 0.61951 0.55557 0.12944 0.0
C114 C 0.62013 0.52638 0.13432 0.0
C115 C 0.61545 0.57293 0.15238 0.0
C116 C 0.61294 0.56114 0.18028 0.0
C117 C 0.61491 0.53276 0.18531 0.0
C118 C 0.61697 0.51488 0.16215 0.0
C119 C 0.61964 0.60668 0.14797 0.0
C120 C 0.58706 0.60566 0.14223 0.0
C121 C 0.57345 0.59898 0.11438 0.0
C122 C 0.54606 0.60268 0.10783 0.0
C123 C 0.5312 0.61146 0.12928 0.0
C124 C 0.54421 0.61819 0.15705 0.0
C125 C 0.57226 0.61534 0.16359 0.0
Mn126 Mn 0.64767 0.40057 0.40949 0.0
Mn127 Mn 0.69004 0.47982 0.43287 0.0
C128 C 0.62245 0.42088 0.43951 0.0
C129 C 0.63138 0.34479 0.41399 0.0
C130 C 0.65782 0.45929 0.3741 0.0
O131 O 0.69584 0.4146 0.39967 0.0
O132 O 0.7212 0.46599 0.41846 0.0
C133 C 0.72387 0.46984 0.48233 0.0
N134 N 0.70453 0.4814 0.47138 0.0
C135 C 0.70225 0.50406 0.51693 0.0
C136 C 0.72244 0.49271 0.52868 0.0
C137 C 0.7331 0.47532 0.51133 0.0
C138 C 0.69352 0.49748 0.488 0.0
H139 H 0.73212 0.45653 0.46902 0.0
C140 C 0.72187 0.44208 0.40585 0.0
O141 O 0.63034 0.35701 0.38957 0.0
O142 O 0.64366 0.36535 0.4354 0.0
N143 N 0.66401 0.49753 0.44767 0.0
C144 C 0.64366 0.5057 0.43326 0.0
C145 C 0.63083 0.52324 0.44749 0.0
C146 C 0.63953 0.53269 0.47619 0.0
C147 C 0.66032 0.52383 0.49065 0.0
C148 C 0.67248 0.50649 0.47532 0.0
H149 H 0.63753 0.49919 0.411 0.0
O150 O 0.60483 0.39456 0.42408 0.0
O151 O 0.65456 0.4341 0.43784 0.0
O152 O 0.64597 0.42843 0.37699 0.0
O153 O 0.6753 0.48061 0.39338 0.0
C154 C 0.66964 0.53167 0.5196 0.0
C155 C 0.6903 0.52149 0.53281 0.0
H156 H 0.72974 0.49703 0.551 0.0
H157 H 0.74851 0.46629 0.52027 0.0
H158 H 0.6147 0.52991 0.43624 0.0
H159 H 0.63019 0.54689 0.48688 0.0
H160 H 0.66083 0.54526 0.53199 0.0
H161 H 0.69682 0.52716 0.5552 0.0
Mn162 Mn 0.26012 0.65502 0.55222 0.0
Mn163 Mn 0.21748 0.5752 0.53049 0.0
C164 C 0.21429 0.63612 0.52176 0.0
C165 C 0.30163 0.71009 0.54673 0.0
C166 C 0.2073 0.59875 0.58753 0.0
O167 O 0.29304 0.63951 0.56204 0.0
O168 O 0.2609 0.58667 0.54819 0.0
C169 C 0.26368 0.58068 0.48498 0.0
N170 N 0.23238 0.57177 0.49345 0.0
C171 C 0.20974 0.54987 0.44676 0.0
C172 C 0.2417 0.55868 0.43757 0.0
C173 C 0.26881 0.57431 0.45673 0.0
C174 C 0.20624 0.55724 0.47505 0.0
H175 H 0.28456 0.59248 0.49966 0.0
C176 C 0.28793 0.61027 0.5588 0.0
O177 O 0.28867 0.69884 0.57137 0.0
O178 O 0.29191 0.68891 0.52576 0.0
N179 N 0.17502 0.55972 0.51248 0.0
C180 C 0.14587 0.55319 0.52459 0.0
C181 C 0.11627 0.53719 0.50841 0.0
C182 C 0.11682 0.52749 0.48012 0.0
C183 C 0.14709 0.53452 0.46804 0.0
C184 C 0.17577 0.55038 0.48527 0.0
H185 H 0.14514 0.55973 0.54654 0.0
O186 O 0.22422 0.66255 0.53719 0.0
O187 O 0.23173 0.62157 0.52403 0.0
O188 O 0.23031 0.62866 0.58535 0.0
O189 O 0.19989 0.57671 0.56823 0.0
C190 C 0.14989 0.52615 0.43968 0.0
C191 C 0.18124 0.5341 0.42897 0.0
H192 H 0.24573 0.55363 0.41584 0.0
H193 H 0.29357 0.58126 0.44979 0.0
H194 H 0.09298 0.53185 0.51786 0.0
H195 H 0.0938 0.51442 0.46796 0.0
H196 H 0.12813 0.51379 0.42585 0.0
H197 H 0.18314 0.52792 0.40702 0.0
Mn198 Mn 0.6214 0.26213 0.72508 0.0
Mn199 Mn 0.66751 0.22767 0.7062 0.0
C200 C 0.59973 0.21736 0.69395 0.0
C201 C 0.60418 0.30074 0.71889 0.0
C202 C 0.6305 0.21336 0.76156 0.0
O203 O 0.66821 0.29744 0.73732 0.0
O204 O 0.6961 0.27188 0.72389 0.0
C205 C 0.70558 0.27458 0.66083 0.0
N206 N 0.68555 0.24311 0.6694 0.0
C207 C 0.6876 0.22151 0.62323 0.0
C208 C 0.70841 0.25368 0.61395 0.0
C209 C 0.71729 0.28034 0.63281 0.0
C210 C 0.67639 0.21733 0.65129 0.0
H211 H 0.71258 0.29512 0.67527 0.0
C212 C 0.69489 0.29634 0.73469 0.0
O213 O 0.60181 0.28701 0.74329 0.0
O214 O 0.61754 0.29283 0.69839 0.0
N215 N 0.64414 0.185 0.68845 0.0
C216 C 0.62333 0.15554 0.70053 0.0
C217 C 0.61222 0.12637 0.68455 0.0
C218 C 0.62313 0.12773 0.65654 0.0
C219 C 0.64455 0.15828 0.64453 0.0
C220 C 0.65487 0.18652 0.66152 0.0
H221 H 0.61549 0.15428 0.72227 0.0
O222 O 0.58031 0.22474 0.70787 0.0
O223 O 0.63153 0.23698 0.69785 0.0
O224 O 0.61906 0.23274 0.75804 0.0
O225 O 0.64894 0.20958 0.74375 0.0
C226 C 0.65625 0.16183 0.61645 0.0
C227 C 0.67748 0.19344 0.60571 0.0
H228 H 0.71763 0.25821 0.59239 0.0
H229 H 0.73326 0.30525 0.6258 0.0
H230 H 0.59567 0.10286 0.69394 0.0
H231 H 0.61507 0.10511 0.64452 0.0
H232 H 0.6489 0.14044 0.60285 0.0
H233 H 0.68592 0.19587 0.58396 0.0
Mn234 Mn 0.38993 0.62992 0.91281 0.0
Mn235 Mn 0.35083 0.55246 0.93806 0.0
C236 C 0.41801 0.61265 0.94264 0.0
C237 C 0.40489 0.68547 0.91532 0.0
C238 C 0.37982 0.56892 0.8792 0.0
O239 O 0.34123 0.61515 0.90486 0.0
O240 O 0.31848 0.56379 0.9214 0.0
C241 C 0.31644 0.56506 0.98516 0.0
N242 N 0.33654 0.55366 0.97588 0.0
C243 C 0.33987 0.5351 0.02275 0.0
C244 C 0.31911 0.54653 0.03282 0.0
C245 C 0.3075 0.56175 0.01396 0.0
C246 C 0.34833 0.53955 0.99395 0.0
H247 H 0.30724 0.5765 0.97068 0.0
C248 C 0.31609 0.58707 0.90979 0.0
O249 O 0.40448 0.67129 0.89132 0.0
O250 O 0.39558 0.66711 0.9377 0.0
N251 N 0.3778 0.53697 0.95516 0.0
C252 C 0.39849 0.5283 0.94228 0.0
C253 C 0.41144 0.51185 0.95791 0.0
C254 C 0.40276 0.50424 0.98654 0.0
C255 C 0.38217 0.51418 -0.00041 0.0
C256 C 0.36962 0.53008 0.98282 0.0
H257 H 0.40494 0.53377 0.92022 0.0
O258 O 0.4341 0.63757 0.92613 0.0
O259 O 0.38575 0.59892 0.94203 0.0
O260 O 0.38906 0.59948 0.88072 0.0
O261 O 0.36551 0.549 0.89949 0.0
C262 C 0.37336 0.5087 0.0285 0.0
C263 C 0.35251 0.51947 0.04015 0.0
H264 H 0.31197 0.54381 0.05497 0.0
H265 H 0.29152 0.5707 0.02157 0.0
H266 H 0.4277 0.50463 0.94782 0.0
H267 H 0.41202 0.49068 -0.00174 0.0
H268 H 0.38276 0.49653 0.04204 0.0
H269 H 0.34628 0.51553 0.0625 0.0
Mn270 Mn 0.77136 0.3894 0.0683 0.0
Mn271 Mn 0.80973 0.34943 0.09354 0.0
C272 C 0.81746 0.41619 0.09846 0.0
C273 C 0.7313 0.40556 0.07198 0.0
C274 C 0.82225 0.37954 0.03497 0.0
O275 O 0.73696 0.34143 0.05928 0.0
O276 O 0.76553 0.31814 0.07642 0.0
C277 C 0.76203 0.31697 0.14009 0.0
N278 N 0.79391 0.33528 0.13118 0.0
C279 C 0.81532 0.3388 0.17878 0.0
C280 C 0.78275 0.31929 0.18833 0.0
C281 C 0.75597 0.30858 0.16893 0.0
C282 C 0.81976 0.34666 0.14985 0.0
H283 H 0.74138 0.30913 0.12537 0.0
C284 C 0.73984 0.31635 0.06445 0.0
O285 O 0.74433 0.40536 0.04767 0.0
O286 O 0.74034 0.39485 0.0937 0.0
N287 N 0.85256 0.37505 0.11144 0.0
C288 C 0.88245 0.39388 0.09892 0.0
C289 C 0.91184 0.40635 0.11527 0.0
C290 C 0.91026 0.3987 0.14424 0.0
C291 C 0.8793 0.37921 0.15675 0.0
C292 C 0.85088 0.36721 0.13928 0.0
H293 H 0.8839 0.39874 0.07652 0.0
O294 O 0.80848 0.43268 0.0823 0.0
O295 O 0.7986 0.38436 0.09741 0.0
O296 O 0.80071 0.38876 0.03624 0.0
O297 O 0.82813 0.36488 0.05512 0.0
C298 C 0.87554 0.37086 0.18578 0.0
C299 C 0.84353 0.35099 0.19686 0.0
H300 H 0.77799 0.31268 0.21054 0.0
H301 H 0.73072 0.29391 0.17619 0.0
H302 H 0.93567 0.42128 0.10544 0.0
H303 H 0.93304 0.4076 0.15659 0.0
H304 H 0.89706 0.37983 0.19983 0.0
H305 H 0.8409 0.34518 0.21931 0.0
Mn306 Mn 0.40278 0.77776 0.23676 0.0
Mn307 Mn 0.48231 0.81806 0.26144 0.0
C308 C 0.42151 0.82397 0.26606 0.0
C309 C 0.34664 0.73749 0.24092 0.0
C310 C 0.46226 0.82646 0.20178 0.0
O311 O 0.41818 0.74451 0.22879 0.0
O312 O 0.46989 0.7731 0.24789 0.0
C313 C 0.47222 0.77664 0.31173 0.0
N314 N 0.48353 0.80686 0.30028 0.0
C315 C 0.50491 0.83363 0.34581 0.0
C316 C 0.49401 0.80283 0.35803 0.0
C317 C 0.47734 0.77419 0.34095 0.0
C318 C 0.4988 0.83449 0.31665 0.0
H319 H 0.45928 0.75462 0.29869 0.0
C320 C 0.44622 0.74743 0.2357 0.0
O321 O 0.35927 0.74974 0.21642 0.0
O322 O 0.36708 0.74714 0.26261 0.0
N323 N 0.4985 0.86186 0.27569 0.0
C324 C 0.50558 0.88941 0.26096 0.0
C325 C 0.52162 0.92015 0.27506 0.0
C326 C 0.53071 0.92229 0.30397 0.0
C327 C 0.52306 0.89359 0.31871 0.0
C328 C 0.5071 0.86368 0.30354 0.0
H329 H 0.49921 0.88799 0.2386 0.0
O330 O 0.39534 0.81406 0.2499 0.0
O331 O 0.43562 0.80606 0.26533 0.0
O332 O 0.43121 0.80633 0.20418 0.0
O333 O 0.48355 0.83204 0.22163 0.0
C334 C 0.53065 0.89347 0.34786 0.0
C335 C 0.52128 0.86349 0.36147 0.0
H336 H 0.498 0.80086 0.38053 0.0
H337 H 0.46854 0.75031 0.35026 0.0
H338 H 0.52733 0.94219 0.26358 0.0
H339 H 0.54359 0.94611 0.31462 0.0
H340 H 0.54335 0.91625 0.36011 0.0
H341 H 0.52662 0.86366 0.38401 0.0
C342 C 0.15214 0.62296 0.27346 0.0
C343 C 0.13875 0.64356 0.27766 0.0
C344 C 0.18436 0.63531 0.26289 0.0
C345 C 0.20395 0.66927 0.25707 0.0
C346 C 0.18958 0.68964 0.2594 0.0
C347 C 0.15704 0.67646 0.26953 0.0
C348 C 0.19829 0.61252 0.26016 0.0
C349 C 0.20956 0.726 0.25367 0.0
C350 C 0.29699 0.71081 0.27218 0.0
C351 C 0.31015 0.71677 0.24469 0.0
C352 C 0.26254 0.69499 0.27638 0.0
C353 C 0.24047 0.68429 0.2525 0.0
C354 C 0.25352 0.68897 0.22468 0.0
C355 C 0.28821 0.7054 0.22109 0.0
C356 C 0.24982 0.69073 0.30645 0.0
C357 C 0.23087 0.67731 0.19872 0.0
H358 H 0.1381 0.59758 0.28009 0.0
H359 H 0.14693 0.69252 0.27331 0.0
H360 H 0.2122 0.61696 0.24007 0.0
H361 H 0.21596 0.61731 0.27809 0.0
H362 H 0.17847 0.58625 0.26063 0.0
H363 H 0.19379 0.73759 0.25311 0.0
H364 H 0.22879 0.73834 0.27071 0.0
H365 H 0.22262 0.73044 0.23313 0.0
H366 H 0.31368 0.71961 0.29056 0.0
H367 H 0.29814 0.70986 0.19976 0.0
H368 H 0.23235 0.66436 0.31047 0.0
H369 H 0.23587 0.704 0.30929 0.0
H370 H 0.27019 0.70012 0.32271 0.0
H371 H 0.21167 0.65102 0.20078 0.0
H372 H 0.24467 0.68028 0.17874 0.0
H373 H 0.21769 0.69143 0.19696 0.0
C374 C 0.55561 0.15259 0.44678 0.0
C375 C 0.52133 0.13852 0.45081 0.0
C376 C 0.57466 0.1847 0.43648 0.0
C377 C 0.55919 0.20349 0.43074 0.0
C378 C 0.52418 0.18853 0.43297 0.0
C379 C 0.50564 0.15611 0.44281 0.0
C380 C 0.61172 0.19928 0.43382 0.0
C381 C 0.50663 0.20764 0.42736 0.0
C382 C 0.60948 0.29581 0.4455 0.0
C383 C 0.61589 0.30869 0.41795 0.0
C384 C 0.59142 0.26171 0.44984 0.0
C385 C 0.57986 0.23971 0.42606 0.0
C386 C 0.58734 0.2525 0.39818 0.0
C387 C 0.60499 0.28683 0.39444 0.0
C388 C 0.58384 0.24926 0.47996 0.0
C389 C 0.57615 0.22994 0.3723 0.0
H390 H 0.56781 0.1391 0.45324 0.0
H391 H 0.47925 0.1455 0.44643 0.0
H392 H 0.62051 0.21299 0.41368 0.0
H393 H 0.62462 0.21699 0.45169 0.0
H394 H 0.61905 0.18013 0.43441 0.0
H395 H 0.47917 0.19157 0.42687 0.0
H396 H 0.51347 0.22663 0.44439 0.0
H397 H 0.5145 0.22059 0.4068 0.0
H398 H 0.6176 0.31245 0.4638 0.0
H399 H 0.60986 0.29654 0.37307 0.0
H400 H 0.59363 0.23245 0.48408 0.0
H401 H 0.55654 0.23497 0.48282 0.0
H402 H 0.59474 0.26953 0.49613 0.0
H403 H 0.5843 0.21151 0.37431 0.0
H404 H 0.58605 0.24358 0.35223 0.0
H405 H 0.54862 0.2162 0.37077 0.0
C406 C 0.41939 0.55239 0.60516 0.0
C407 C 0.40755 0.53724 0.63141 0.0
C408 C 0.40465 0.56855 0.59129 0.0
C409 C 0.37717 0.56894 0.60379 0.0
C410 C 0.36534 0.55372 0.63033 0.0
C411 C 0.3806 0.53811 0.6437 0.0
C412 C 0.4181 0.58473 0.56313 0.0
C413 C 0.33578 0.55293 0.64427 0.0
C414 C 0.34203 0.62405 0.58371 0.0
C415 C 0.31377 0.60207 0.56761 0.0
C416 C 0.36446 0.61448 0.59406 0.0
C417 C 0.35833 0.58218 0.58829 0.0
C418 C 0.33092 0.56065 0.57073 0.0
C419 C 0.30919 0.57086 0.56056 0.0
C420 C 0.39373 0.63831 0.61236 0.0
C421 C 0.32316 0.52592 0.56418 0.0
H422 H 0.44024 0.5518 0.59565 0.0
H423 H 0.37091 0.52589 0.66374 0.0
H424 H 0.39936 0.57143 0.54594 0.0
H425 H 0.42298 0.6104 0.56372 0.0
H426 H 0.44139 0.58499 0.55758 0.0
H427 H 0.33072 0.54144 0.66558 0.0
H428 H 0.33995 0.57823 0.64677 0.0
H429 H 0.31331 0.53883 0.63052 0.0
H430 H 0.34608 0.6483 0.58904 0.0
H431 H 0.28786 0.55374 0.54769 0.0
H432 H 0.41661 0.63834 0.60582 0.0
H433 H 0.38916 0.63053 0.6349 0.0
H434 H 0.39806 0.66377 0.61119 0.0
H435 H 0.34556 0.52584 0.55641 0.0
H436 H 0.30294 0.51342 0.54793 0.0
H437 H 0.3154 0.51134 0.58396 0.0
C438 C 0.87363 0.44141 0.78864 0.0
C439 C 0.89521 0.42886 0.78534 0.0
C440 C 0.84089 0.42422 0.77784 0.0
C441 C 0.82955 0.39388 0.7632 0.0
C442 C 0.85219 0.38275 0.75742 0.0
C443 C 0.88475 0.40035 0.7686 0.0
C444 C 0.81774 0.43718 0.7842 0.0
C445 C 0.84127 0.35076 0.7415 0.0
C446 C 0.74037 0.32477 0.77048 0.0
C447 C 0.72676 0.32476 0.74381 0.0
C448 C 0.77343 0.34818 0.7775 0.0
C449 C 0.79339 0.37178 0.7571 0.0
C450 C 0.7792 0.37258 0.73049 0.0
C451 C 0.74595 0.34895 0.72414 0.0
C452 C 0.78747 0.34663 0.80623 0.0
C453 C 0.79956 0.39722 0.70818 0.0
H454 H 0.88172 0.46365 0.80132 0.0
H455 H 0.90111 0.39031 0.76612 0.0
H456 H 0.80266 0.43523 0.76504 0.0
H457 H 0.80029 0.42213 0.80104 0.0
H458 H 0.83143 0.46323 0.79174 0.0
H459 H 0.86266 0.34774 0.73554 0.0
H460 H 0.82455 0.32989 0.75511 0.0
H461 H 0.82707 0.34928 0.72186 0.0
H462 H 0.72551 0.30563 0.78542 0.0
H463 H 0.73537 0.34849 0.70332 0.0
H464 H 0.79933 0.3711 0.81706 0.0
H465 H 0.80697 0.33987 0.80335 0.0
H466 H 0.76812 0.32835 0.82034 0.0
H467 H 0.81334 0.42238 0.71764 0.0
H468 H 0.78395 0.39712 0.69006 0.0
H469 H 0.81824 0.39134 0.69977 0.0
C470 C 0.51527 0.87902 0.93364 0.0
C471 C 0.4971 0.89335 0.94367 0.0
C472 C 0.49908 0.84605 0.92417 0.0
C473 C 0.46389 0.82722 0.92439 0.0
C474 C 0.44549 0.84277 0.93157 0.0
C475 C 0.46233 0.87558 0.94148 0.0
C476 C 0.51976 0.83051 0.91691 0.0
C477 C 0.408 0.82395 0.93141 0.0
C478 C 0.42263 0.74009 0.89294 0.0
C479 C 0.41766 0.72139 0.91747 0.0
C480 C 0.43679 0.77449 0.89479 0.0
C481 C 0.44683 0.79061 0.92174 0.0
C482 C 0.44143 0.77174 0.94659 0.0
C483 C 0.42665 0.73741 0.94416 0.0
C484 C 0.44142 0.79362 0.86792 0.0
C485 C 0.45205 0.7879 0.97576 0.0
H486 H 0.54214 0.89257 0.93583 0.0
H487 H 0.44829 0.88659 0.94955 0.0
H488 H 0.51844 0.81436 0.93455 0.0
H489 H 0.51001 0.81494 0.89734 0.0
H490 H 0.54625 0.84923 0.91373 0.0
H491 H 0.39759 0.84069 0.93209 0.0
H492 H 0.39802 0.80779 0.91218 0.0
H493 H 0.39922 0.80801 0.95035 0.0
H494 H 0.41562 0.72784 0.87224 0.0
H495 H 0.42305 0.72319 0.9632 0.0
H496 H 0.4683 0.81009 0.86417 0.0
H497 H 0.43013 0.80945 0.87025 0.0
H498 H 0.43015 0.77727 0.84891 0.0
H499 H 0.47921 0.80547 0.97627 0.0
H500 H 0.44623 0.76976 0.99292 0.0
H501 H 0.43948 0.80214 0.98049 0.0
C502 C 0.61035 0.4767 0.10655 0.0
C503 C 0.63035 0.51048 0.11234 0.0
C504 C 0.62372 0.45855 0.09422 0.0
C505 C 0.65807 0.47448 0.0882 0.0
C506 C 0.67759 0.50914 0.09157 0.0
C507 C 0.66339 0.52677 0.10345 0.0
C508 C 0.60176 0.42184 0.0903 0.0
C509 C 0.71432 0.5272 0.08563 0.0
C510 C 0.7029 0.42708 0.10306 0.0
C511 C 0.70983 0.42039 0.07557 0.0
C512 C 0.68576 0.44425 0.10729 0.0
C513 C 0.67465 0.45462 0.08343 0.0
C514 C 0.6804 0.44686 0.05557 0.0
C515 C 0.69822 0.43011 0.05196 0.0
C516 C 0.68044 0.45216 0.13742 0.0
C517 C 0.66834 0.45682 0.02963 0.0
H518 H 0.58485 0.46404 0.11368 0.0
H519 H 0.67901 0.55279 0.10836 0.0
H520 H 0.60724 0.41329 0.07002 0.0
H521 H 0.60661 0.4092 0.10796 0.0
H522 H 0.57499 0.41433 0.09037 0.0
H523 H 0.72478 0.55425 0.08515 0.0
H524 H 0.72756 0.52171 0.10259 0.0
H525 H 0.71933 0.5189 0.06502 0.0
H526 H 0.71186 0.41982 0.12145 0.0
H527 H 0.70342 0.42499 0.03064 0.0
H528 H 0.65352 0.44176 0.14121 0.0
H529 H 0.69259 0.47921 0.1406 0.0
H530 H 0.69057 0.4423 0.15363 0.0
H531 H 0.64156 0.44871 0.0315 0.0
H532 H 0.67203 0.44632 0.00961 0.0
H533 H 0.68192 0.48401 0.02812 0.0
C534 C 0.37024 0.89732 0.5095 0.0
C535 C 0.40388 0.91404 0.50236 0.0
C536 C 0.35541 0.86559 0.52099 0.0
C537 C 0.37483 0.85045 0.52569 0.0
C538 C 0.40947 0.86856 0.52089 0.0
C539 C 0.4235 0.89999 0.509 0.0
C540 C 0.3184 0.84719 0.52561 0.0
C541 C 0.43128 0.85377 0.5261 0.0
C542 C 0.33446 0.76871 0.56475 0.0
C543 C 0.32339 0.74592 0.54192 0.0
C544 C 0.35205 0.80284 0.55996 0.0
C545 C 0.35826 0.81446 0.53166 0.0
C546 C 0.34782 0.79151 0.50861 0.0
C547 C 0.33078 0.75764 0.51402 0.0
C548 C 0.36334 0.82644 0.58512 0.0
C549 C 0.35374 0.80271 0.47807 0.0
H550 H 0.35494 0.90791 0.50391 0.0
H551 H 0.44947 0.91281 0.50321 0.0
H552 H 0.30609 0.82755 0.50904 0.0
H553 H 0.31259 0.83514 0.54664 0.0
H554 H 0.30762 0.86359 0.52443 0.0
H555 H 0.4581 0.87267 0.52605 0.0
H556 H 0.42547 0.84096 0.54679 0.0
H557 H 0.42654 0.83524 0.50912 0.0
H558 H 0.3289 0.75989 0.58638 0.0
H559 H 0.32224 0.74029 0.49622 0.0
H560 H 0.34985 0.84033 0.585 0.0
H561 H 0.39022 0.84465 0.58359 0.0
H562 H 0.35892 0.81362 0.60576 0.0
H563 H 0.34128 0.8171 0.47347 0.0
H564 H 0.3443 0.78179 0.46258 0.0
H565 H 0.3807 0.81912 0.47462 0.0
C566 C 0.49347 0.38051 0.68018 0.0
C567 C 0.5129 0.41388 0.6738 0.0
C568 C 0.50798 0.36326 0.69214 0.0
C569 C 0.54265 0.37997 0.69808 0.0
C570 C 0.56164 0.4144 0.69426 0.0
C571 C 0.54658 0.43089 0.68188 0.0
C572 C 0.48681 0.32657 0.69572 0.0
C573 C 0.59847 0.43334 0.70082 0.0
C574 C 0.5789 0.33374 0.7369 0.0
C575 C 0.59028 0.3227 0.71407 0.0
C576 C 0.56388 0.35295 0.7322 0.0
C577 C 0.55972 0.36085 0.70399 0.0
C578 C 0.57153 0.35006 0.68092 0.0
C579 C 0.58684 0.33135 0.68626 0.0
C580 C 0.55218 0.36449 0.75736 0.0
C581 C 0.56743 0.35773 0.65045 0.0
H582 H 0.46755 0.36726 0.67348 0.0
H583 H 0.56165 0.45667 0.67668 0.0
H584 H 0.49287 0.31375 0.67886 0.0
H585 H 0.49204 0.3191 0.7166 0.0
H586 H 0.45985 0.31813 0.6941 0.0
H587 H 0.6083 0.46031 0.70154 0.0
H588 H 0.60409 0.4258 0.72151 0.0
H589 H 0.61182 0.42793 0.68407 0.0
H590 H 0.58154 0.32722 0.75847 0.0
H591 H 0.59543 0.32282 0.66849 0.0
H592 H 0.52482 0.3536 0.75602 0.0
H593 H 0.56331 0.39161 0.75698 0.0
H594 H 0.55873 0.35767 0.77803 0.0
H595 H 0.54069 0.34762 0.64524 0.0
H596 H 0.57781 0.34737 0.63494 0.0
H597 H 0.58002 0.38474 0.64767 0.0
C598 C 0.15312 0.5256 0.82023 0.0
C599 C 0.12696 0.5286 0.83151 0.0
C600 C 0.18287 0.53657 0.83557 0.0
C601 C 0.18673 0.55113 0.86294 0.0
C602 C 0.16018 0.55383 0.8747 0.0
C603 C 0.13037 0.5423 0.85884 0.0
C604 C 0.21026 0.53272 0.82234 0.0
C605 C 0.16351 0.56937 0.90374 0.0
C606 C 0.25445 0.54931 0.90691 0.0
C607 C 0.28229 0.57997 0.90089 0.0
C608 C 0.22275 0.54041 0.89616 0.0
C609 C 0.21855 0.56272 0.87906 0.0
C610 C 0.24605 0.59446 0.87435 0.0
C611 C 0.27763 0.6027 0.88526 0.0
C612 C 0.1942 0.50627 0.90161 0.0
C613 C 0.24249 0.61907 0.85646 0.0
H614 H 0.15031 0.51481 0.79911 0.0
H615 H 0.11014 0.54475 0.86741 0.0
H616 H 0.23288 0.55717 0.82016 0.0
H617 H 0.21689 0.51791 0.83634 0.0
H618 H 0.20308 0.52057 0.80095 0.0
H619 H 0.14043 0.56914 0.91005 0.0
H620 H 0.16967 0.55621 0.92002 0.0
H621 H 0.18425 0.59521 0.90382 0.0
H622 H 0.2575 0.53162 0.91928 0.0
H623 H 0.29881 0.62655 0.8807 0.0
H624 H 0.18722 0.49147 0.88153 0.0
H625 H 0.17205 0.50733 0.90864 0.0
H626 H 0.20058 0.49334 0.91801 0.0
H627 H 0.23848 0.61083 0.83379 0.0
H628 H 0.26488 0.64397 0.85801 0.0
H629 H 0.22053 0.62073 0.86307 0.0
C630 C 0.64777 0.13605 0.00313 0.0
C631 C 0.61302 0.1196 0.0019 0.0
C632 C 0.66607 0.16776 0.01525 0.0
C633 C 0.64912 0.18305 0.02703 0.0
C634 C 0.61392 0.16562 0.02741 0.0
C635 C 0.59625 0.13428 0.01433 0.0
C636 C 0.70353 0.18563 0.01391 0.0
C637 C 0.59494 0.18056 0.04059 0.0
C638 C 0.70433 0.25675 0.07457 0.0
C639 C 0.71274 0.28307 0.05619 0.0
C640 C 0.68185 0.22423 0.06601 0.0
C641 C 0.66848 0.21767 0.03794 0.0
C642 C 0.6761 0.24426 0.01953 0.0
C643 C 0.69777 0.27676 0.02907 0.0
C644 C 0.67352 0.19681 0.08665 0.0
C645 C 0.66297 0.23828 0.98921 0.0
H646 H 0.66066 0.12498 0.99283 0.0
H647 H 0.56935 0.12172 0.01287 0.0
H648 H 0.71238 0.20806 0.00096 0.0
H649 H 0.71462 0.19368 0.03558 0.0
H650 H 0.71288 0.17011 0.0044 0.0
H651 H 0.56804 0.16235 0.04235 0.0
H652 H 0.60517 0.19079 0.06214 0.0
H653 H 0.59764 0.20118 0.02738 0.0
H654 H 0.71583 0.2615 0.09557 0.0
H655 H 0.70454 0.29704 0.01475 0.0
H656 H 0.68534 0.18247 0.07979 0.0
H657 H 0.64628 0.17966 0.08686 0.0
H658 H 0.68227 0.20625 0.10871 0.0
H659 H 0.67312 0.22491 0.97716 0.0
H660 H 0.66981 0.26155 0.97809 0.0
H661 H 0.63553 0.22259 0.98877 0.0
C662 C 0.49851 0.6141 0.18731 0.0
C663 C 0.53083 0.63301 0.17707 0.0
C664 C 0.48206 0.62916 0.19996 0.0
C665 C 0.49796 0.66394 0.20148 0.0
C666 C 0.53114 0.68301 0.19211 0.0
C667 C 0.54725 0.66726 0.18023 0.0
C668 C 0.44714 0.60789 0.21043 0.0
C669 C 0.54892 0.72014 0.19293 0.0
C670 C 0.44785 0.70793 0.20051 0.0
C671 C 0.45341 0.72095 0.22829 0.0
C672 C 0.46117 0.68821 0.19171 0.0
C673 C 0.47966 0.68068 0.21143 0.0
C674 C 0.48312 0.69183 0.24006 0.0
C675 C 0.4705 0.7123 0.248 0.0
C676 C 0.45736 0.67731 0.16085 0.0
C677 C 0.50161 0.68351 0.26201 0.0
H678 H 0.48562 0.58761 0.18427 0.0
H679 H 0.57191 0.68184 0.17159 0.0
H680 H 0.44449 0.61626 0.23194 0.0
H681 H 0.42938 0.61004 0.19591 0.0
H682 H 0.44009 0.58156 0.21136 0.0
H683 H 0.57497 0.73133 0.18565 0.0
H684 H 0.53548 0.7288 0.17906 0.0
H685 H 0.54914 0.72923 0.21489 0.0
H686 H 0.43506 0.71497 0.18516 0.0
H687 H 0.47486 0.72234 0.26951 0.0
H688 H 0.4474 0.6504 0.15922 0.0
H689 H 0.48208 0.6895 0.15071 0.0
H690 H 0.44062 0.68342 0.14865 0.0
H691 H 0.49323 0.65686 0.261 0.0
H692 H 0.49808 0.69008 0.284 0.0
H693 H 0.52857 0.69709 0.25747 0.0
C694 C 0.8964 0.54561 0.33976 0.0
C695 C 0.91487 0.53028 0.3337 0.0
C696 C 0.86581 0.52863 0.35366 0.0
C697 C 0.85372 0.49572 0.36218 0.0
C698 C 0.87339 0.48088 0.35765 0.0
C699 C 0.90349 0.49816 0.34304 0.0
C700 C 0.8455 0.54529 0.35768 0.0
C701 C 0.86199 0.44627 0.36711 0.0
C702 C 0.78265 0.46573 0.41425 0.0
C703 C 0.75481 0.44882 0.39608 0.0
C704 C 0.81505 0.47911 0.40389 0.0
C705 C 0.81979 0.47655 0.37442 0.0
C706 C 0.79171 0.45807 0.35622 0.0
C707 C 0.75951 0.44405 0.36737 0.0
C708 C 0.84418 0.49755 0.42423 0.0
C709 C 0.79557 0.45514 0.32459 0.0
H710 H 0.90486 0.57016 0.33195 0.0
H711 H 0.9176 0.48617 0.33796 0.0
H712 H 0.82182 0.53168 0.34534 0.0
H713 H 0.83909 0.54492 0.38042 0.0
H714 H 0.8588 0.57123 0.35061 0.0
H715 H 0.88196 0.43994 0.36543 0.0
H716 H 0.85352 0.44305 0.38948 0.0
H717 H 0.84054 0.42858 0.35366 0.0
H718 H 0.77908 0.46955 0.43646 0.0
H719 H 0.73804 0.43149 0.35321 0.0
H720 H 0.85613 0.52432 0.42035 0.0
H721 H 0.86314 0.4902 0.42068 0.0
H722 H 0.83651 0.49318 0.44686 0.0
H723 H 0.80604 0.47975 0.31489 0.0
H724 H 0.77153 0.43815 0.3137 0.0
H725 H 0.81322 0.44624 0.32057 0.0
C726 C 0.08552 0.59344 0.39067 0.0
C727 C 0.09861 0.62285 0.37582 0.0
C728 C 0.09882 0.59255 0.41742 0.0
C729 C 0.1258 0.62173 0.42925 0.0
C730 C 0.13707 0.65196 0.4152 0.0
C731 C 0.12347 0.65208 0.3885 0.0
C732 C 0.08575 0.55988 0.4316 0.0
C733 C 0.16522 0.68382 0.4273 0.0
C734 C 0.1605 0.62962 0.50438 0.0
C735 C 0.18923 0.62801 0.49905 0.0
C736 C 0.13838 0.62575 0.48207 0.0
C737 C 0.14549 0.62046 0.45387 0.0
C738 C 0.17407 0.61789 0.44864 0.0
C739 C 0.19592 0.62236 0.47124 0.0
C740 C 0.10837 0.62894 0.48844 0.0
C741 C 0.18237 0.61184 0.41896 0.0
H742 H 0.06636 0.57087 0.38061 0.0
H743 H 0.13342 0.6748 0.3768 0.0
H744 H 0.10169 0.54949 0.42572 0.0
H745 H 0.08629 0.56256 0.45514 0.0
H746 H 0.05992 0.54214 0.42443 0.0
H747 H 0.1679 0.70555 0.41579 0.0
H748 H 0.16127 0.68662 0.4502 0.0
H749 H 0.18889 0.68359 0.42565 0.0
H750 H 0.15572 0.63457 0.52592 0.0
H751 H 0.2188 0.62235 0.46703 0.0
H752 H 0.08574 0.60838 0.47828 0.0
H753 H 0.11176 0.65212 0.47936 0.0
H754 H 0.1043 0.62923 0.51171 0.0
H755 H 0.16062 0.59007 0.40902 0.0
H756 H 0.2039 0.60772 0.41892 0.0
H757 H 0.18834 0.6333 0.40546 0.0
C758 C 0.52461 0.08784 0.56243 0.0
C759 C 0.5043 0.09723 0.5481 0.0
C760 C 0.53876 0.10188 0.58916 0.0
C761 C 0.53278 0.12615 0.60132 0.0
C762 C 0.51025 0.13378 0.58765 0.0
C763 C 0.49634 0.11924 0.56112 0.0
C764 C 0.56198 0.09249 0.60319 0.0
C765 C 0.50275 0.15915 0.59995 0.0
C766 C 0.55731 0.1615 0.67648 0.0
C767 C 0.58561 0.1919 0.67134 0.0
C768 C 0.54093 0.13864 0.65415 0.0
C769 C 0.55295 0.14677 0.62607 0.0
C770 C 0.58227 0.17709 0.62107 0.0
C771 C 0.59791 0.19951 0.64373 0.0
C772 C 0.5098 0.10666 0.66037 0.0
C773 C 0.59616 0.18661 0.59152 0.0
H774 H 0.53084 0.07095 0.55206 0.0
H775 H 0.48068 0.12649 0.54972 0.0
H776 H 0.58788 0.11173 0.59891 0.0
H777 H 0.55863 0.09078 0.62659 0.0
H778 H 0.5582 0.06865 0.59474 0.0
H779 H 0.48196 0.15948 0.58839 0.0
H780 H 0.49631 0.15436 0.62277 0.0
H781 H 0.52514 0.18393 0.59866 0.0
H782 H 0.5476 0.15594 0.69788 0.0
H783 H 0.61917 0.2235 0.63969 0.0
H784 H 0.51013 0.08576 0.64948 0.0
H785 H 0.48785 0.10755 0.65206 0.0
H786 H 0.50668 0.10186 0.68359 0.0
H787 H 0.59906 0.16666 0.58163 0.0
H788 H 0.62064 0.20968 0.59168 0.0
H789 H 0.57862 0.19015 0.57785 0.0
C790 C 0.39518 0.49032 0.73335 0.0
C791 C 0.42797 0.50553 0.72395 0.0
C792 C 0.38771 0.4981 0.76012 0.0
C793 C 0.41382 0.52124 0.77805 0.0
C794 C 0.44726 0.53471 0.76948 0.0
C795 C 0.45395 0.52708 0.74218 0.0
C796 C 0.35172 0.4837 0.7681 0.0
C797 C 0.47579 0.55875 0.78837 0.0
C798 C 0.39369 0.57312 0.82745 0.0
C799 C 0.38771 0.55626 0.85315 0.0
C800 C 0.4022 0.56193 0.80286 0.0
C801 C 0.40579 0.53375 0.80423 0.0
C802 C 0.40023 0.51686 0.83018 0.0
C803 C 0.39062 0.52794 0.85418 0.0
C804 C 0.40694 0.58005 0.77532 0.0
C805 C 0.40461 0.48722 0.83263 0.0
H806 H 0.37517 0.47418 0.7188 0.0
H807 H 0.47923 0.53918 0.73455 0.0
H808 H 0.3475 0.47343 0.78982 0.0
H809 H 0.34519 0.50342 0.7683 0.0
H810 H 0.33463 0.464 0.75292 0.0
H811 H 0.50008 0.56288 0.78064 0.0
H812 H 0.47651 0.58271 0.78889 0.0
H813 H 0.47241 0.54979 0.81056 0.0
H814 H 0.39128 0.59488 0.82644 0.0
H815 H 0.386 0.51466 0.87388 0.0
H816 H 0.38963 0.56298 0.75864 0.0
H817 H 0.43256 0.58942 0.76761 0.0
H818 H 0.40258 0.60113 0.77773 0.0
H819 H 0.38639 0.46703 0.81847 0.0
H820 H 0.4013 0.47806 0.85477 0.0
H821 H 0.42977 0.49347 0.82551 0.0
C822 C 0.93751 0.41842 0.89823 0.0
C823 C 0.9381 0.4445 0.88348 0.0
C824 C 0.92129 0.40829 0.9244 0.0
C825 C 0.90561 0.42485 0.9361 0.0
C826 C 0.9083 0.45272 0.92227 0.0
C827 C 0.92438 0.4621 0.89603 0.0
C828 C 0.91901 0.37851 0.93852 0.0
C829 C 0.89244 0.47143 0.93428 0.0
C830 C 0.82979 0.37845 0.98251 0.0
C831 C 0.84361 0.38916 0.00982 0.0
C832 C 0.8499 0.38923 0.95832 0.0
C833 C 0.88445 0.41176 0.96165 0.0
C834 C 0.8984 0.42264 0.98927 0.0
C835 C 0.87776 0.4112 0.01302 0.0
C836 C 0.83413 0.37692 0.9292 0.0
C837 C 0.93491 0.44712 0.9937 0.0
H838 H 0.94764 0.40446 0.88833 0.0
H839 H 0.92477 0.48221 0.88455 0.0
H840 H 0.92611 0.38379 0.96141 0.0
H841 H 0.89293 0.35792 0.93732 0.0
H842 H 0.93515 0.37036 0.92823 0.0
H843 H 0.89981 0.49448 0.9226 0.0
H844 H 0.865 0.45577 0.93291 0.0
H845 H 0.89936 0.47768 0.95712 0.0
H846 H 0.80327 0.36171 0.98011 0.0
H847 H 0.8882 0.42063 0.034 0.0
H848 H 0.84696 0.36579 0.91774 0.0
H849 H 0.83688 0.39781 0.91635 0.0
H850 H 0.80728 0.35834 0.93036 0.0
H851 H 0.95017 0.43816 0.9831 0.0
H852 H 0.94216 0.45177 0.01665 0.0
H853 H 0.94098 0.4708 0.98381 0.0
C854 C 0.5145 0.94351 0.06483 0.0
C855 C 0.52321 0.92868 0.04318 0.0
C856 C 0.50673 0.92975 0.09216 0.0
C857 C 0.50793 0.90072 0.0977 0.0
C858 C 0.51847 0.88682 0.0762 0.0
C859 C 0.52598 0.90099 0.04926 0.0
C860 C 0.49576 0.94532 0.11463 0.0
C861 C 0.52027 0.85602 0.08119 0.0
C862 C 0.50732 0.87067 0.17273 0.0
C863 C 0.47403 0.84561 0.17517 0.0
C864 C 0.51852 0.88959 0.14803 0.0
C865 C 0.49597 0.88326 0.12513 0.0
C866 C 0.46231 0.8583 0.12753 0.0
C867 C 0.45176 0.83982 0.15248 0.0
C868 C 0.5546 0.91597 0.14623 0.0
C869 C 0.43752 0.85065 0.10349 0.0
H870 H 0.51234 0.9649 0.06003 0.0
H871 H 0.53307 0.88976 0.03249 0.0
H872 H 0.46903 0.92878 0.11899 0.0
H873 H 0.50969 0.94874 0.13491 0.0
H874 H 0.49938 0.96951 0.10796 0.0
H875 H 0.53112 0.8497 0.06287 0.0
H876 H 0.53544 0.85904 0.10058 0.0
H877 H 0.49495 0.83502 0.08477 0.0
H878 H 0.52475 0.87563 0.19017 0.0
H879 H 0.42597 0.8207 0.1541 0.0
H880 H 0.55665 0.93976 0.14048 0.0
H881 H 0.56673 0.90942 0.12918 0.0
H882 H 0.56843 0.91935 0.16659 0.0
H883 H 0.4373 0.87327 0.09731 0.0
H884 H 0.41192 0.83166 0.10927 0.0
H885 H 0.44491 0.84173 0.08448 0.0
C886 C 0.59884 0.52053 0.23672 0.0
C887 C 0.62025 0.52425 0.21447 0.0
C888 C 0.60346 0.51078 0.26386 0.0
C889 C 0.63027 0.50503 0.2687 0.0
C890 C 0.65244 0.50972 0.24645 0.0
C891 C 0.64717 0.51929 0.21968 0.0
C892 C 0.57934 0.50596 0.28714 0.0
C893 C 0.6815 0.50418 0.25074 0.0
C894 C 0.66325 0.5048 0.34296 0.0
C895 C 0.65002 0.47101 0.34742 0.0
C896 C 0.65606 0.51622 0.31787 0.0
C897 C 0.63506 0.49333 0.29672 0.0
C898 C 0.621 0.45921 0.30132 0.0
C899 C 0.62869 0.44846 0.32655 0.0
C900 C 0.67169 0.55281 0.31365 0.0
C901 C 0.59848 0.43404 0.27925 0.0
H902 H 0.57811 0.52446 0.23269 0.0
H903 H 0.66418 0.52284 0.20263 0.0
H904 H 0.56616 0.47985 0.29364 0.0
H905 H 0.59293 0.52101 0.30624 0.0
H906 H 0.56062 0.51269 0.2803 0.0
H907 H 0.69689 0.50975 0.23139 0.0
H908 H 0.69756 0.51982 0.26867 0.0
H909 H 0.67237 0.4782 0.25643 0.0
H910 H 0.67956 0.52249 0.35897 0.0
H911 H 0.61805 0.4223 0.32982 0.0
H912 H 0.65237 0.55913 0.30797 0.0
H913 H 0.68923 0.56039 0.29568 0.0
H914 H 0.68545 0.56729 0.33297 0.0
H915 H 0.57794 0.43846 0.27318 0.0
H916 H 0.58762 0.40845 0.28694 0.0
H917 H 0.61269 0.43641 0.25968 0.0
C918 C 0.40284 0.92329 0.39051 0.0
C919 C 0.432 0.94825 0.4034 0.0
C920 C 0.40391 0.90786 0.36519 0.0
C921 C 0.43501 0.91744 0.35274 0.0
C922 C 0.46426 0.94443 0.3646 0.0
C923 C 0.46242 0.95951 0.38999 0.0
C924 C 0.37198 0.87975 0.35296 0.0
C925 C 0.4978 0.95582 0.35189 0.0
C926 C 0.43403 0.84485 0.31606 0.0
C927 C 0.42987 0.8502 0.28746 0.0
C928 C 0.43823 0.8679 0.33729 0.0
C929 C 0.43686 0.89635 0.32978 0.0
C930 C 0.43312 0.90208 0.30078 0.0
C931 C 0.4295 0.87879 0.27992 0.0
C932 C 0.44256 0.86101 0.36792 0.0
C933 C 0.43108 0.93182 0.29195 0.0
H934 H 0.37933 0.91473 0.4011 0.0
H935 H 0.48493 0.97874 0.40022 0.0
H936 H 0.37035 0.88243 0.32963 0.0
H937 H 0.37152 0.8562 0.35647 0.0
H938 H 0.3497 0.87822 0.36299 0.0
H939 H 0.51621 0.98127 0.35898 0.0
H940 H 0.50689 0.93928 0.35899 0.0
H941 H 0.49627 0.95484 0.32828 0.0
H942 H 0.43296 0.82209 0.32195 0.0
H943 H 0.42561 0.88252 0.25777 0.0
H944 H 0.42049 0.85654 0.38027 0.0
H945 H 0.46452 0.88266 0.37776 0.0
H946 H 0.44577 0.83922 0.36989 0.0
H947 H 0.40723 0.92921 0.29913 0.0
H948 H 0.4325 0.93491 0.26846 0.0
H949 H 0.45138 0.95447 0.30222 0.0
C950 C 0.53338 0.47221 0.56012 0.0
C951 C 0.51284 0.44283 0.574 0.0
C952 C 0.55038 0.47225 0.53548 0.0
C953 C 0.54678 0.44225 0.52481 0.0
C954 C 0.5241 0.41231 0.5378 0.0
C955 C 0.50755 0.41302 0.56234 0.0
C956 C 0.57386 0.50464 0.52224 0.0
C957 C 0.51883 0.37965 0.52686 0.0
C958 C 0.57728 0.43207 0.45266 0.0
C959 C 0.60591 0.4311 0.46053 0.0
C960 C 0.55869 0.43762 0.47313 0.0
C961 C 0.56887 0.44194 0.50215 0.0
C962 C 0.59836 0.44189 0.51 0.0
C963 C 0.61616 0.43583 0.48914 0.0
C964 C 0.52724 0.43707 0.4639 0.0
C965 C 0.61031 0.44675 0.54064 0.0
H966 H 0.53756 0.49523 0.5694 0.0
H967 H 0.49158 0.39033 0.57328 0.0
H968 H 0.5995 0.51218 0.52941 0.0
H969 H 0.57268 0.50244 0.49866 0.0
H970 H 0.56844 0.52426 0.52873 0.0
H971 H 0.49772 0.35853 0.53737 0.0
H972 H 0.51404 0.37722 0.50351 0.0
H973 H 0.54163 0.37823 0.53087 0.0
H974 H 0.56907 0.42777 0.43052 0.0
H975 H 0.63758 0.43382 0.49533 0.0
H976 H 0.5264 0.45844 0.4732 0.0
H977 H 0.50542 0.4145 0.47187 0.0
H978 H 0.5249 0.43738 0.44033 0.0
H979 H 0.6118 0.46933 0.5498 0.0
H980 H 0.63509 0.44879 0.54284 0.0
H981 H 0.59234 0.4257 0.55345 0.0
C982 C 0.08504 0.50961 0.71486 0.0
C983 C 0.08649 0.53173 0.73586 0.0
C984 C 0.10225 0.52098 0.68927 0.0
C985 C 0.12103 0.55526 0.68453 0.0
C986 C 0.1203 0.57752 0.70469 0.0
C987 C 0.1032 0.56548 0.73023 0.0
C988 C 0.10241 0.49644 0.66833 0.0
C989 C 0.13942 0.61418 0.70019 0.0
C990 C 0.19796 0.58571 0.63909 0.0
C991 C 0.18615 0.58942 0.61271 0.0
C992 C 0.17699 0.57477 0.66273 0.0
C993 C 0.14368 0.56787 0.65982 0.0
C994 C 0.13204 0.57246 0.63325 0.0
C995 C 0.15344 0.58305 0.60994 0.0
C996 C 0.19028 0.56998 0.69067 0.0
C997 C 0.09697 0.56591 0.62939 0.0
H998 H 0.07258 0.48355 0.71937 0.0
H999 H 0.1044 0.58258 0.74654 0.0
H1000 H 0.09696 0.50125 0.64641 0.0
H1001 H 0.12749 0.49905 0.66824 0.0
H1002 H 0.08401 0.47068 0.67375 0.0
H1003 H 0.13276 0.6277 0.71589 0.0
H1004 H 0.16644 0.62328 0.70234 0.0
H1005 H 0.13476 0.62004 0.67838 0.0
H1006 H 0.22332 0.59066 0.64103 0.0
H1007 H 0.14463 0.58648 0.58952 0.0
H1008 H 0.17536 0.54393 0.69712 0.0
H1009 H 0.18798 0.58527 0.70768 0.0
H1010 H 0.21674 0.57657 0.68942 0.0
H1011 H 0.07902 0.53969 0.63354 0.0
H1012 H 0.09214 0.57171 0.60758 0.0
H1013 H 0.0921 0.58081 0.64503 0.0
C1014 C 0.55736 0.10272 0.89936 0.0
C1015 C 0.57385 0.08503 0.90414 0.0
C1016 C 0.56301 0.12131 0.87467 0.0
C1017 C 0.58562 0.12209 0.85427 0.0
C1018 C 0.60017 0.1021 0.85786 0.0
C1019 C 0.5941 0.08378 0.88278 0.0
C1020 C 0.54669 0.14196 0.87148 0.0
C1021 C 0.62415 0.102 0.83645 0.0
C1022 C 0.59076 0.15956 0.78178 0.0
C1023 C 0.61848 0.19098 0.7857 0.0
C1024 C 0.5795 0.13687 0.80397 0.0
C1025 C 0.59644 0.14603 0.83065 0.0
C1026 C 0.62428 0.17808 0.83473 0.0
C1027 C 0.63502 0.20024 0.81208 0.0
C1028 C 0.54979 0.10305 0.79879 0.0
C1029 C 0.64295 0.18878 0.86289 0.0
H1030 H 0.54154 0.10358 0.91577 0.0
H1031 H 0.60724 0.0705 0.88647 0.0
H1032 H 0.56564 0.16832 0.87453 0.0
H1033 H 0.53587 0.13895 0.84973 0.0
H1034 H 0.52678 0.13554 0.88727 0.0
H1035 H 0.63019 0.08231 0.84059 0.0
H1036 H 0.61377 0.09862 0.81449 0.0
H1037 H 0.64757 0.12607 0.8374 0.0
H1038 H 0.57804 0.15267 0.76121 0.0
H1039 H 0.65652 0.22463 0.81485 0.0
H1040 H 0.53028 0.09821 0.81454 0.0
H1041 H 0.5571 0.08411 0.80174 0.0
H1042 H 0.53899 0.10008 0.77699 0.0
H1043 H 0.62576 0.18626 0.88019 0.0
H1044 H 0.66366 0.21468 0.86272 0.0
H1045 H 0.65329 0.17266 0.86809 0.0
C1046 C 0.51425 0.57132 0.0645 0.0
C1047 C 0.53464 0.60148 0.07826 0.0
C1048 C 0.49677 0.56971 0.0394 0.0
C1049 C 0.4997 0.59895 0.02815 0.0
C1050 C 0.5225 0.6297 0.04091 0.0
C1051 C 0.53957 0.63055 0.06594 0.0
C1052 C 0.47316 0.53645 0.02658 0.0
C1053 C 0.52705 0.66159 0.02939 0.0
C1054 C 0.46514 0.60418 0.95591 0.0
C1055 C 0.43649 0.60482 0.96381 0.0
C1056 C 0.48514 0.60041 0.97643 0.0
C1057 C 0.47638 0.59764 0.00551 0.0
C1058 C 0.44693 0.59744 0.0134 0.0
C1059 C 0.42768 0.60164 0.99249 0.0
C1060 C 0.51634 0.60086 0.9672 0.0
C1061 C 0.43644 0.59412 0.0441 0.0
H1062 H 0.51033 0.54887 0.07433 0.0
H1063 H 0.55541 0.65387 0.07684 0.0
H1064 H 0.44815 0.52797 0.03534 0.0
H1065 H 0.4717 0.5375 0.00305 0.0
H1066 H 0.4806 0.51808 0.03212 0.0
H1067 H 0.54855 0.6834 0.03961 0.0
H1068 H 0.53077 0.66262 0.00602 0.0
H1069 H 0.50434 0.66307 0.03328 0.0
H1070 H 0.47216 0.60717 0.9337 0.0
H1071 H 0.40617 0.60332 -0.00134 0.0
H1072 H 0.51745 0.5797 0.97626 0.0
H1073 H 0.53841 0.62362 0.97547 0.0
H1074 H 0.51795 0.59998 0.94362 0.0
H1075 H 0.43588 0.57228 0.05353 0.0
H1076 H 0.41155 0.59168 0.04635 0.0
H1077 H 0.45477 0.61605 0.05662 0.0
C1078 C 0.92301 0.53773 0.22048 0.0
C1079 C 0.9466 0.53232 0.23426 0.0
C1080 C 0.90647 0.51992 0.19572 0.0
C1081 C 0.91365 0.49603 0.18469 0.0
C1082 C 0.93926 0.49229 0.19754 0.0
C1083 C 0.95532 0.51037 0.22243 0.0
C1084 C 0.87968 0.52509 0.18257 0.0
C1085 C 0.94809 0.46757 0.18642 0.0
C1086 C 0.83801 0.42551 0.14857 0.0
C1087 C 0.84413 0.43371 0.11986 0.0
C1088 C 0.86161 0.44437 0.16975 0.0
C1089 C 0.89159 0.47273 0.16201 0.0
C1090 C 0.8982 0.48064 0.13288 0.0
C1091 C 0.87418 0.46113 0.11211 0.0
C1092 C 0.85374 0.43482 0.20053 0.0
C1093 C 0.92982 0.51059 0.12378 0.0
H1094 H 0.91628 0.55468 0.23 0.0
H1095 H 0.97341 0.50613 0.23344 0.0
H1096 H 0.883 0.52825 0.15922 0.0
H1097 H 0.855 0.50308 0.18609 0.0
H1098 H 0.87963 0.5469 0.19187 0.0
H1099 H 0.97314 0.4732 0.194 0.0
H1100 H 0.92968 0.44296 0.19427 0.0
H1101 H 0.94742 0.46665 0.16279 0.0
H1102 H 0.81427 0.40489 0.15453 0.0
H1103 H 0.87857 0.46763 0.08983 0.0
H1104 H 0.85054 0.45374 0.21212 0.0
H1105 H 0.87463 0.43368 0.21099 0.0
H1106 H 0.83071 0.41063 0.20273 0.0
H1107 H 0.93302 0.51104 0.10032 0.0
H1108 H 0.9517 0.51146 0.13436 0.0
H1109 H 0.92943 0.53312 0.13045 0.0
loop_
_geom_bond_atom_site_label_1
_geom_bond_atom_site_label_2
_geom_bond_distance
_geom_bond_site_symmetry_2
_ccdc_geom_bond_type
H0 C8 0.930 . S
H1 C11 0.930 . S
H2 C13 0.930 . S
H3 C14 0.970 1_655 S
H4 C14 0.970 . S
H5 C16 0.930 . S
H6 C18 0.930 . S
H7 C20 0.930 . S
C8 H0 0.930 . S
C8 C9 1.382 . S
C8 C10 1.426 . S
C9 C8 1.382 . S
C9 C13 1.389 . S
C10 C8 1.426 . S
C10 C11 1.375 . S
C10 C14 1.532 1_655 S
C11 H1 0.930 . S
C11 C10 1.375 . S
C11 C12 1.416 . S
C12 C11 1.416 . S
C12 C13 1.371 . S
C13 H2 0.930 . S
C13 C9 1.389 . S
C13 C12 1.371 . S
C14 H3 0.970 1_455 S
C14 H4 0.970 . S
C14 C10 1.532 1_455 S
C14 C15 1.499 . S
C15 C14 1.499 . S
C15 C16 1.370 . S
C15 C20 1.415 . S
C16 H5 0.930 . S
C16 C15 1.370 . S
C16 C17 1.407 . S
C17 C16 1.407 . S
C17 C18 1.365 . S
C18 H6 0.930 . S
C18 C17 1.365 . S
C18 C19 1.393 . S
C19 C18 1.393 . S
C19 C20 1.387 . S
C20 H7 0.930 . S
C20 C15 1.415 . S
C20 C19 1.387 . S
H21 C29 0.930 . S
H22 C32 0.930 . S
H23 C34 0.930 . S
H24 C35 0.970 . S
H25 C35 0.970 . S
H26 C37 0.930 . S
H27 C39 0.930 . S
H28 C41 0.930 . S
C29 H21 0.930 . S
C29 C30 1.382 . S
C29 C31 1.426 . S
C30 C29 1.382 . S
C30 C34 1.389 . S
C31 C29 1.426 . S
C31 C32 1.375 . S
C31 C35 1.532 1_565 S
C32 H22 0.930 . S
C32 C31 1.375 . S
C32 C33 1.416 . S
C33 C32 1.416 . S
C33 C34 1.371 . S
C34 H23 0.930 . S
C34 C30 1.389 . S
C34 C33 1.371 . S
C35 H24 0.970 . S
C35 H25 0.970 . S
C35 C31 1.532 1_545 S
C35 C36 1.499 . S
C36 C35 1.499 . S
C36 C37 1.370 . S
C36 C41 1.415 . S
C37 H26 0.930 . S
C37 C36 1.370 . S
C37 C38 1.407 . S
C38 C37 1.407 . S
C38 C39 1.365 . S
C39 H27 0.930 . S
C39 C38 1.365 . S
C39 C40 1.393 . S
C40 C39 1.393 . S
C40 C41 1.387 . S
C41 H28 0.930 . S
C41 C36 1.415 . S
C41 C40 1.387 . S
H42 C50 0.930 . S
H43 C53 0.930 . S
H44 C55 0.930 . S
H45 C56 0.970 . S
H46 C56 0.970 . S
H47 C58 0.930 . S
H48 C60 0.930 . S
H49 C62 0.930 . S
C50 H42 0.930 . S
C50 C51 1.382 . S
C50 C52 1.426 . S
C51 C50 1.382 . S
C51 C55 1.389 . S
C52 C50 1.426 . S
C52 C53 1.375 . S
C52 C56 1.532 . S
C53 H43 0.930 . S
C53 C52 1.375 . S
C53 C54 1.416 . S
C54 C53 1.416 . S
C54 C55 1.371 . S
C55 H44 0.930 . S
C55 C51 1.389 . S
C55 C54 1.371 . S
C56 H45 0.970 . S
C56 H46 0.970 . S
C56 C52 1.532 . S
C56 C57 1.499 . S
C57 C56 1.499 . S
C57 C58 1.370 . S
C57 C62 1.415 . S
C58 H47 0.930 . S
C58 C57 1.370 . S
C58 C59 1.407 . S
C59 C58 1.407 . S
C59 C60 1.365 . S
C60 H48 0.930 . S
C60 C59 1.365 . S
C60 C61 1.393 . S
C61 C60 1.393 . S
C61 C62 1.387 . S
C62 H49 0.930 . S
C62 C57 1.415 . S
C62 C61 1.387 . S
H63 C71 0.930 . S
H64 C74 0.930 . S
H65 C76 0.930 . S
H66 C77 0.970 . S
H67 C77 0.970 . S
H68 C79 0.930 . S
H69 C81 0.930 . S
H70 C83 0.930 . S
C71 H63 0.930 . S
C71 C72 1.382 . S
C71 C73 1.426 . S
C72 C71 1.382 . S
C72 C76 1.389 . S
C73 C71 1.426 . S
C73 C74 1.375 . S
C73 C77 1.532 1_655 S
C74 H64 0.930 . S
C74 C73 1.375 . S
C74 C75 1.416 . S
C75 C74 1.416 . S
C75 C76 1.371 . S
C76 H65 0.930 . S
C76 C72 1.389 . S
C76 C75 1.371 . S
C77 H66 0.970 . S
C77 H67 0.970 . S
C77 C73 1.532 1_455 S
C77 C78 1.499 . S
C78 C77 1.499 . S
C78 C79 1.370 . S
C78 C83 1.415 . S
C79 H68 0.930 . S
C79 C78 1.370 . S
C79 C80 1.407 . S
C80 C79 1.407 . S
C80 C81 1.365 . S
C81 H69 0.930 . S
C81 C80 1.365 . S
C81 C82 1.393 . S
C82 C81 1.393 . S
C82 C83 1.387 . S
C83 H70 0.930 . S
C83 C78 1.415 . S
C83 C82 1.387 . S
H84 C92 0.930 . S
H85 C95 0.930 . S
H86 C97 0.930 . S
H87 C98 0.970 1_554 S
H88 C98 0.970 . S
H89 C100 0.930 . S
H90 C102 0.930 . S
H91 C104 0.930 . S
C92 H84 0.930 . S
C92 C93 1.382 1_554 S
C92 C94 1.426 1_554 S
C93 C92 1.382 1_556 S
C93 C97 1.389 . S
C94 C92 1.426 1_556 S
C94 C95 1.375 . S
C94 C98 1.532 . S
C95 H85 0.930 . S
C95 C94 1.375 . S
C95 C96 1.416 . S
C96 C95 1.416 . S
C96 C97 1.371 . S
C97 H86 0.930 . S
C97 C93 1.389 . S
C97 C96 1.371 . S
C98 H87 0.970 1_556 S
C98 H88 0.970 . S
C98 C94 1.532 . S
C98 C99 1.499 1_545 S
C99 C98 1.499 1_565 S
C99 C100 1.370 1_556 S
C99 C104 1.415 . S
C100 H89 0.930 . S
C100 C99 1.370 1_554 S
C100 C101 1.407 . S
C101 C100 1.407 . S
C101 C102 1.365 . S
C102 H90 0.930 . S
C102 C101 1.365 . S
C102 C103 1.393 1_554 S
C103 C102 1.393 1_556 S
C103 C104 1.387 . S
C104 H91 0.930 . S
C104 C99 1.415 . S
C104 C103 1.387 . S
H105 C113 0.930 . S
H106 C116 0.930 . S
H107 C118 0.930 . S
H108 C119 0.970 . S
H109 C119 0.970 . S
H110 C121 0.930 . S
H111 C123 0.930 . S
H112 C125 0.930 . S
C113 H105 0.930 . S
C113 C114 1.382 . S
C113 C115 1.426 . S
C114 C113 1.382 . S
C114 C118 1.389 . S
C115 C113 1.426 . S
C115 C116 1.375 . S
C115 C119 1.532 . S
C116 H106 0.930 . S
C116 C115 1.375 . S
C116 C117 1.416 . S
C117 C116 1.416 . S
C117 C118 1.371 . S
C118 H107 0.930 . S
C118 C114 1.389 . S
C118 C117 1.371 . S
C119 H108 0.970 . S
C119 H109 0.970 . S
C119 C115 1.532 . S
C119 C120 1.499 . S
C120 C119 1.499 . S
C120 C121 1.370 . S
C120 C125 1.415 . S
C121 H110 0.930 . S
C121 C120 1.370 . S
C121 C122 1.407 . S
C122 C121 1.407 . S
C122 C123 1.365 . S
C123 H111 0.930 . S
C123 C122 1.365 . S
C123 C124 1.393 . S
C124 C123 1.393 . S
C124 C125 1.387 . S
C125 H112 0.930 . S
C125 C120 1.415 . S
C125 C124 1.387 . S
Mn126 O131 2.095 . S
Mn126 O141 2.162 . S
Mn126 O142 2.297 . S
Mn126 O150 2.385 . S
Mn126 O151 2.209 . S
Mn126 O152 2.094 . S
Mn127 O132 2.121 . S
Mn127 N134 2.257 . S
Mn127 N143 2.282 . S
Mn127 O151 2.215 . S
Mn127 O153 2.117 . S
C128 O150 1.234 . S
C128 O151 1.283 . S
C129 O141 1.281 . S
C129 O142 1.236 . S
C130 O152 1.240 . S
C130 O153 1.264 . S
O131 Mn126 2.095 . S
O131 C140 1.250 . S
O132 Mn127 2.121 . S
O132 C140 1.258 . S
C133 N134 1.326 . S
C133 C137 1.460 . S
C133 H139 0.929 . S
N134 Mn127 2.257 . S
N134 C133 1.326 . S
N134 C138 1.362 . S
C135 C136 1.258 . S
C135 C138 1.431 . S
C135 C155 1.449 . S
C136 C135 1.258 . S
C136 C137 1.477 . S
C136 H156 0.931 . S
C137 C133 1.460 . S
C137 C136 1.477 . S
C137 H157 0.930 . S
C138 N134 1.362 . S
C138 C135 1.431 . S
C138 C148 1.476 . S
H139 C133 0.929 . S
C140 O131 1.250 . S
C140 O132 1.258 . S
O141 Mn126 2.162 . S
O141 C129 1.281 . S
O142 Mn126 2.297 . S
O142 C129 1.236 . S
N143 Mn127 2.282 . S
N143 C144 1.328 . S
N143 C148 1.318 . S
C144 N143 1.328 . S
C144 C145 1.457 . S
C144 H149 0.929 . S
C145 C144 1.457 . S
C145 C146 1.291 . S
C145 H158 0.931 . S
C146 C145 1.291 . S
C146 C147 1.373 . S
C146 H159 0.929 . S
C147 C146 1.373 . S
C147 C148 1.396 . S
C147 C154 1.403 . S
C148 C138 1.476 . S
C148 N143 1.318 . S
C148 C147 1.396 . S
H149 C144 0.929 . S
O150 Mn126 2.385 . S
O150 C128 1.234 . S
O151 Mn126 2.209 . S
O151 Mn127 2.215 . S
O151 C128 1.283 . S
O152 Mn126 2.094 . S
O152 C130 1.240 . S
O153 Mn127 2.117 . S
O153 C130 1.264 . S
C154 C147 1.403 . S
C154 C155 1.399 . S
C154 H160 0.929 . S
C155 C135 1.449 . S
C155 C154 1.399 . S
C155 H161 0.930 . S
H156 C136 0.931 . S
H157 C137 0.930 . S
H158 C145 0.931 . S
H159 C146 0.929 . S
H160 C154 0.929 . S
H161 C155 0.930 . S
Mn162 O167 2.095 . S
Mn162 O177 2.162 . S
Mn162 O178 2.297 . S
Mn162 O186 2.385 . S
Mn162 O187 2.209 . S
Mn162 O188 2.094 . S
Mn163 O168 2.121 . S
Mn163 N170 2.257 . S
Mn163 N179 2.282 . S
Mn163 O187 2.215 . S
Mn163 O189 2.117 . S
C164 O186 1.234 . S
C164 O187 1.283 . S
C165 O177 1.281 . S
C165 O178 1.236 . S
C166 O188 1.240 . S
C166 O189 1.264 . S
O167 Mn162 2.095 . S
O167 C176 1.250 . S
O168 Mn163 2.121 . S
O168 C176 1.258 . S
C169 N170 1.326 . S
C169 C173 1.460 . S
C169 H175 0.929 . S
N170 Mn163 2.257 . S
N170 C169 1.326 . S
N170 C174 1.362 . S
C171 C172 1.258 . S
C171 C174 1.431 . S
C171 C191 1.449 . S
C172 C171 1.258 . S
C172 C173 1.477 . S
C172 H192 0.931 . S
C173 C169 1.460 . S
C173 C172 1.477 . S
C173 H193 0.930 . S
C174 N170 1.362 . S
C174 C171 1.431 . S
C174 C184 1.476 . S
H175 C169 0.929 . S
C176 O167 1.250 . S
C176 O168 1.258 . S
O177 Mn162 2.162 . S
O177 C165 1.281 . S
O178 Mn162 2.297 . S
O178 C165 1.236 . S
N179 Mn163 2.282 . S
N179 C180 1.328 . S
N179 C184 1.318 . S
C180 N179 1.328 . S
C180 C181 1.457 . S
C180 H185 0.929 . S
C181 C180 1.457 . S
C181 C182 1.291 . S
C181 H194 0.931 . S
C182 C181 1.291 . S
C182 C183 1.373 . S
C182 H195 0.929 . S
C183 C182 1.373 . S
C183 C184 1.396 . S
C183 C190 1.403 . S
C184 C174 1.476 . S
C184 N179 1.318 . S
C184 C183 1.396 . S
H185 C180 0.929 . S
O186 Mn162 2.385 . S
O186 C164 1.234 . S
O187 Mn162 2.209 . S
O187 Mn163 2.215 . S
O187 C164 1.283 . S
O188 Mn162 2.094 . S
O188 C166 1.240 . S
O189 Mn163 2.117 . S
O189 C166 1.264 . S
C190 C183 1.403 . S
C190 C191 1.399 . S
C190 H196 0.929 . S
C191 C171 1.449 . S
C191 C190 1.399 . S
C191 H197 0.930 . S
H192 C172 0.931 . S
H193 C173 0.930 . S
H194 C181 0.931 . S
H195 C182 0.929 . S
H196 C190 0.929 . S
H197 C191 0.930 . S
Mn198 O203 2.095 . S
Mn198 O213 2.162 . S
Mn198 O214 2.297 . S
Mn198 O222 2.385 . S
Mn198 O223 2.209 . S
Mn198 O224 2.094 . S
Mn199 O204 2.121 . S
Mn199 N206 2.257 . S
Mn199 N215 2.282 . S
Mn199 O223 2.215 . S
Mn199 O225 2.117 . S
C200 O222 1.234 . S
C200 O223 1.283 . S
C201 O213 1.281 . S
C201 O214 1.236 . S
C202 O224 1.240 . S
C202 O225 1.264 . S
O203 Mn198 2.095 . S
O203 C212 1.250 . S
O204 Mn199 2.121 . S
O204 C212 1.258 . S
C205 N206 1.326 . S
C205 C209 1.460 . S
C205 H211 0.929 . S
N206 Mn199 2.257 . S
N206 C205 1.326 . S
N206 C210 1.362 . S
C207 C208 1.258 . S
C207 C210 1.431 . S
C207 C227 1.449 . S
C208 C207 1.258 . S
C208 C209 1.477 . S
C208 H228 0.931 . S
C209 C205 1.460 . S
C209 C208 1.477 . S
C209 H229 0.930 . S
C210 N206 1.362 . S
C210 C207 1.431 . S
C210 C220 1.476 . S
H211 C205 0.929 . S
C212 O203 1.250 . S
C212 O204 1.258 . S
O213 Mn198 2.162 . S
O213 C201 1.281 . S
O214 Mn198 2.297 . S
O214 C201 1.236 . S
N215 Mn199 2.282 . S
N215 C216 1.328 . S
N215 C220 1.318 . S
C216 N215 1.328 . S
C216 C217 1.457 . S
C216 H221 0.929 . S
C217 C216 1.457 . S
C217 C218 1.291 . S
C217 H230 0.931 . S
C218 C217 1.291 . S
C218 C219 1.373 . S
C218 H231 0.929 . S
C219 C218 1.373 . S
C219 C220 1.396 . S
C219 C226 1.403 . S
C220 C210 1.476 . S
C220 N215 1.318 . S
C220 C219 1.396 . S
H221 C216 0.929 . S
O222 Mn198 2.385 . S
O222 C200 1.234 . S
O223 Mn198 2.209 . S
O223 Mn199 2.215 . S
O223 C200 1.283 . S
O224 Mn198 2.094 . S
O224 C202 1.240 . S
O225 Mn199 2.117 . S
O225 C202 1.264 . S
C226 C219 1.403 . S
C226 C227 1.399 . S
C226 H232 0.929 . S
C227 C207 1.449 . S
C227 C226 1.399 . S
C227 H233 0.930 . S
H228 C208 0.931 . S
H229 C209 0.930 . S
H230 C217 0.931 . S
H231 C218 0.929 . S
H232 C226 0.929 . S
H233 C227 0.930 . S
Mn234 O239 2.095 . S
Mn234 O249 2.162 . S
Mn234 O250 2.297 . S
Mn234 O258 2.385 . S
Mn234 O259 2.209 . S
Mn234 O260 2.094 . S
Mn235 O240 2.121 . S
Mn235 N242 2.257 . S
Mn235 N251 2.282 . S
Mn235 O259 2.215 . S
Mn235 O261 2.117 . S
C236 O258 1.234 . S
C236 O259 1.283 . S
C237 O249 1.281 . S
C237 O250 1.236 . S
C238 O260 1.240 . S
C238 O261 1.264 . S
O239 Mn234 2.095 . S
O239 C248 1.250 . S
O240 Mn235 2.121 . S
O240 C248 1.258 . S
C241 N242 1.326 . S
C241 C245 1.460 . S
C241 H247 0.929 . S
N242 Mn235 2.257 . S
N242 C241 1.326 . S
N242 C246 1.362 . S
C243 C244 1.258 . S
C243 C246 1.431 . S
C243 C263 1.449 . S
C244 C243 1.258 . S
C244 C245 1.477 . S
C244 H264 0.931 1_556 S
C245 C241 1.460 . S
C245 C244 1.477 . S
C245 H265 0.930 . S
C246 N242 1.362 . S
C246 C243 1.431 . S
C246 C256 1.476 . S
H247 C241 0.929 . S
C248 O239 1.250 . S
C248 O240 1.258 . S
O249 Mn234 2.162 . S
O249 C237 1.281 . S
O250 Mn234 2.297 . S
O250 C237 1.236 . S
N251 Mn235 2.282 . S
N251 C252 1.328 . S
N251 C256 1.318 . S
C252 N251 1.328 . S
C252 C253 1.457 . S
C252 H257 0.929 . S
C253 C252 1.457 . S
C253 C254 1.291 . S
C253 H266 0.931 . S
C254 C253 1.291 . S
C254 C255 1.373 . S
C254 H267 0.929 . S
C255 C254 1.373 . S
C255 C256 1.396 . S
C255 C262 1.403 . S
C256 C246 1.476 . S
C256 N251 1.318 . S
C256 C255 1.396 . S
H257 C252 0.929 . S
O258 Mn234 2.385 . S
O258 C236 1.234 . S
O259 Mn234 2.209 . S
O259 Mn235 2.215 . S
O259 C236 1.283 . S
O260 Mn234 2.094 . S
O260 C238 1.240 . S
O261 Mn235 2.117 . S
O261 C238 1.264 . S
C262 C255 1.403 . S
C262 C263 1.399 . S
C262 H268 0.929 . S
C263 C243 1.449 . S
C263 C262 1.399 . S
C263 H269 0.930 1_556 S
H264 C244 0.931 1_554 S
H265 C245 0.930 . S
H266 C253 0.931 . S
H267 C254 0.929 . S
H268 C262 0.929 . S
H269 C263 0.930 1_554 S
Mn270 O275 2.095 . S
Mn270 O285 2.162 . S
Mn270 O286 2.297 . S
Mn270 O294 2.385 . S
Mn270 O295 2.209 . S
Mn270 O296 2.094 . S
Mn271 O276 2.121 . S
Mn271 N278 2.257 . S
Mn271 N287 2.282 . S
Mn271 O295 2.215 . S
Mn271 O297 2.117 . S
C272 O294 1.234 . S
C272 O295 1.283 . S
C273 O285 1.281 . S
C273 O286 1.236 . S
C274 O296 1.240 . S
C274 O297 1.264 . S
O275 Mn270 2.095 . S
O275 C284 1.250 . S
O276 Mn271 2.121 . S
O276 C284 1.258 . S
C277 N278 1.326 . S
C277 C281 1.460 . S
C277 H283 0.929 . S
N278 Mn271 2.257 . S
N278 C277 1.326 . S
N278 C282 1.362 . S
C279 C280 1.258 . S
C279 C282 1.431 . S
C279 C299 1.449 . S
C280 C279 1.258 . S
C280 C281 1.477 . S
C280 H300 0.931 . S
C281 C277 1.460 . S
C281 C280 1.477 . S
C281 H301 0.930 . S
C282 N278 1.362 . S
C282 C279 1.431 . S
C282 C292 1.476 . S
H283 C277 0.929 . S
C284 O275 1.250 . S
C284 O276 1.258 . S
O285 Mn270 2.162 . S
O285 C273 1.281 . S
O286 Mn270 2.297 . S
O286 C273 1.236 . S
N287 Mn271 2.282 . S
N287 C288 1.328 . S
N287 C292 1.318 . S
C288 N287 1.328 . S
C288 C289 1.457 . S
C288 H293 0.929 . S
C289 C288 1.457 . S
C289 C290 1.291 . S
C289 H302 0.931 . S
C290 C289 1.291 . S
C290 C291 1.373 . S
C290 H303 0.929 . S
C291 C290 1.373 . S
C291 C292 1.396 . S
C291 C298 1.403 . S
C292 C282 1.476 . S
C292 N287 1.318 . S
C292 C291 1.396 . S
H293 C288 0.929 . S
O294 Mn270 2.385 . S
O294 C272 1.234 . S
O295 Mn270 2.209 . S
O295 Mn271 2.215 . S
O295 C272 1.283 . S
O296 Mn270 2.094 . S
O296 C274 1.240 . S
O297 Mn271 2.117 . S
O297 C274 1.264 . S
C298 C291 1.403 . S
C298 C299 1.399 . S
C298 H304 0.929 . S
C299 C279 1.449 . S
C299 C298 1.399 . S
C299 H305 0.930 . S
H300 C280 0.931 . S
H301 C281 0.930 . S
H302 C289 0.931 . S
H303 C290 0.929 . S
H304 C298 0.929 . S
H305 C299 0.930 . S
Mn306 O311 2.095 . S
Mn306 O321 2.162 . S
Mn306 O322 2.297 . S
Mn306 O330 2.385 . S
Mn306 O331 2.209 . S
Mn306 O332 2.094 . S
Mn307 O312 2.121 . S
Mn307 N314 2.257 . S
Mn307 N323 2.282 . S
Mn307 O331 2.215 . S
Mn307 O333 2.117 . S
C308 O330 1.234 . S
C308 O331 1.283 . S
C309 O321 1.281 . S
C309 O322 1.236 . S
C310 O332 1.240 . S
C310 O333 1.264 . S
O311 Mn306 2.095 . S
O311 C320 1.250 . S
O312 Mn307 2.121 . S
O312 C320 1.258 . S
C313 N314 1.326 . S
C313 C317 1.460 . S
C313 H319 0.929 . S
N314 Mn307 2.257 . S
N314 C313 1.326 . S
N314 C318 1.362 . S
C315 C316 1.258 . S
C315 C318 1.431 . S
C315 C335 1.449 . S
C316 C315 1.258 . S
C316 C317 1.477 . S
C316 H336 0.931 . S
C317 C313 1.460 . S
C317 C316 1.477 . S
C317 H337 0.930 . S
C318 N314 1.362 . S
C318 C315 1.431 . S
C318 C328 1.476 . S
H319 C313 0.929 . S
C320 O311 1.250 . S
C320 O312 1.258 . S
O321 Mn306 2.162 . S
O321 C309 1.281 . S
O322 Mn306 2.297 . S
O322 C309 1.236 . S
N323 Mn307 2.282 . S
N323 C324 1.328 . S
N323 C328 1.318 . S
C324 N323 1.328 . S
C324 C325 1.457 . S
C324 H329 0.929 . S
C325 C324 1.457 . S
C325 C326 1.291 . S
C325 H338 0.931 . S
C326 C325 1.291 . S
C326 C327 1.373 . S
C326 H339 0.929 . S
C327 C326 1.373 . S
C327 C328 1.396 . S
C327 C334 1.403 . S
C328 C318 1.476 . S
C328 N323 1.318 . S
C328 C327 1.396 . S
H329 C324 0.929 . S
O330 Mn306 2.385 . S
O330 C308 1.234 . S
O331 Mn306 2.209 . S
O331 Mn307 2.215 . S
O331 C308 1.283 . S
O332 Mn306 2.094 . S
O332 C310 1.240 . S
O333 Mn307 2.117 . S
O333 C310 1.264 . S
C334 C327 1.403 . S
C334 C335 1.399 . S
C334 H340 0.929 . S
C335 C315 1.449 . S
C335 C334 1.399 . S
C335 H341 0.930 . S
H336 C316 0.931 . S
H337 C317 0.930 . S
H338 C325 0.931 . S
H339 C326 0.929 . S
H340 C334 0.929 . S
H341 C335 0.930 . S
C342 C343 1.391 . S
C342 C344 1.394 . S
C342 H358 0.931 . S
C343 C342 1.391 . S
C343 C347 1.376 . S
C344 C342 1.394 . S
C344 C345 1.369 . S
C344 C348 1.531 . S
C345 C344 1.369 . S
C345 C346 1.410 . S
C345 C353 1.503 . S
C346 C345 1.410 . S
C346 C347 1.392 . S
C346 C349 1.511 . S
C347 C343 1.376 . S
C347 C346 1.392 . S
C347 H359 0.929 . S
C348 C344 1.531 . S
C348 H360 0.960 . S
C348 H361 0.962 . S
C348 H362 0.960 . S
C349 C346 1.511 . S
C349 H363 0.961 . S
C349 H364 0.961 . S
C349 H365 0.961 . S
C350 C351 1.370 . S
C350 C352 1.363 . S
C350 H366 0.931 . S
C351 C350 1.370 . S
C351 C355 1.408 . S
C352 C350 1.363 . S
C352 C353 1.370 . S
C352 C356 1.524 . S
C353 C345 1.503 . S
C353 C352 1.370 . S
C353 C354 1.403 . S
C354 C353 1.403 . S
C354 C355 1.404 . S
C354 C357 1.539 . S
C355 C351 1.408 . S
C355 C354 1.404 . S
C355 H367 0.930 . S
C356 C352 1.524 . S
C356 H368 0.956 . S
C356 H369 0.961 . S
C356 H370 0.961 . S
C357 C354 1.539 . S
C357 H371 0.958 . S
C357 H372 0.961 . S
C357 H373 0.960 . S
H358 C342 0.931 . S
H359 C347 0.929 . S
H360 C348 0.960 . S
H361 C348 0.962 . S
H362 C348 0.960 . S
H363 C349 0.961 . S
H364 C349 0.961 . S
H365 C349 0.961 . S
H366 C350 0.931 . S
H367 C355 0.930 . S
H368 C356 0.956 . S
H369 C356 0.961 . S
H370 C356 0.961 . S
H371 C357 0.958 . S
H372 C357 0.961 . S
H373 C357 0.960 . S
C374 C375 1.391 . S
C374 C376 1.394 . S
C374 H390 0.931 . S
C375 C374 1.391 . S
C375 C379 1.376 . S
C376 C374 1.394 . S
C376 C377 1.369 . S
C376 C380 1.531 . S
C377 C376 1.369 . S
C377 C378 1.410 . S
C377 C385 1.503 . S
C378 C377 1.410 . S
C378 C379 1.392 . S
C378 C381 1.511 . S
C379 C375 1.376 . S
C379 C378 1.392 . S
C379 H391 0.929 . S
C380 C376 1.531 . S
C380 H392 0.960 . S
C380 H393 0.962 . S
C380 H394 0.960 . S
C381 C378 1.511 . S
C381 H395 0.961 . S
C381 H396 0.961 . S
C381 H397 0.961 . S
C382 C383 1.370 . S
C382 C384 1.363 . S
C382 H398 0.931 . S
C383 C382 1.370 . S
C383 C387 1.408 . S
C384 C382 1.363 . S
C384 C385 1.370 . S
C384 C388 1.524 . S
C385 C377 1.503 . S
C385 C384 1.370 . S
C385 C386 1.403 . S
C386 C385 1.403 . S
C386 C387 1.404 . S
C386 C389 1.539 . S
C387 C383 1.408 . S
C387 C386 1.404 . S
C387 H399 0.930 . S
C388 C384 1.524 . S
C388 H400 0.956 . S
C388 H401 0.961 . S
C388 H402 0.961 . S
C389 C386 1.539 . S
C389 H403 0.958 . S
C389 H404 0.961 . S
C389 H405 0.960 . S
H390 C374 0.931 . S
H391 C379 0.929 . S
H392 C380 0.960 . S
H393 C380 0.962 . S
H394 C380 0.960 . S
H395 C381 0.961 . S
H396 C381 0.961 . S
H397 C381 0.961 . S
H398 C382 0.931 . S
H399 C387 0.930 . S
H400 C388 0.956 . S
H401 C388 0.961 . S
H402 C388 0.961 . S
H403 C389 0.958 . S
H404 C389 0.961 . S
H405 C389 0.960 . S
C406 C407 1.391 . S
C406 C408 1.394 . S
C406 H422 0.931 . S
C407 C406 1.391 . S
C407 C411 1.376 . S
C408 C406 1.394 . S
C408 C409 1.369 . S
C408 C412 1.531 . S
C409 C408 1.369 . S
C409 C410 1.410 . S
C409 C417 1.503 . S
C410 C409 1.410 . S
C410 C411 1.392 . S
C410 C413 1.511 . S
C411 C407 1.376 . S
C411 C410 1.392 . S
C411 H423 0.929 . S
C412 C408 1.531 . S
C412 H424 0.960 . S
C412 H425 0.962 . S
C412 H426 0.960 . S
C413 C410 1.511 . S
C413 H427 0.961 . S
C413 H428 0.961 . S
C413 H429 0.961 . S
C414 C415 1.370 . S
C414 C416 1.363 . S
C414 H430 0.931 . S
C415 C414 1.370 . S
C415 C419 1.408 . S
C416 C414 1.363 . S
C416 C417 1.370 . S
C416 C420 1.524 . S
C417 C409 1.503 . S
C417 C416 1.370 . S
C417 C418 1.403 . S
C418 C417 1.403 . S
C418 C419 1.404 . S
C418 C421 1.539 . S
C419 C415 1.408 . S
C419 C418 1.404 . S
C419 H431 0.930 . S
C420 C416 1.524 . S
C420 H432 0.956 . S
C420 H433 0.961 . S
C420 H434 0.961 . S
C421 C418 1.539 . S
C421 H435 0.958 . S
C421 H436 0.961 . S
C421 H437 0.960 . S
H422 C406 0.931 . S
H423 C411 0.929 . S
H424 C412 0.960 . S
H425 C412 0.962 . S
H426 C412 0.960 . S
H427 C413 0.961 . S
H428 C413 0.961 . S
H429 C413 0.961 . S
H430 C414 0.931 . S
H431 C419 0.930 . S
H432 C420 0.956 . S
H433 C420 0.961 . S
H434 C420 0.961 . S
H435 C421 0.958 . S
H436 C421 0.961 . S
H437 C421 0.960 . S
C438 C439 1.391 . S
C438 C440 1.394 . S
C438 H454 0.931 . S
C439 C438 1.391 . S
C439 C443 1.376 . S
C440 C438 1.394 . S
C440 C441 1.369 . S
C440 C444 1.531 . S
C441 C440 1.369 . S
C441 C442 1.410 . S
C441 C449 1.503 . S
C442 C441 1.410 . S
C442 C443 1.392 . S
C442 C445 1.511 . S
C443 C439 1.376 . S
C443 C442 1.392 . S
C443 H455 0.929 . S
C444 C440 1.531 . S
C444 H456 0.960 . S
C444 H457 0.962 . S
C444 H458 0.960 . S
C445 C442 1.511 . S
C445 H459 0.961 . S
C445 H460 0.961 . S
C445 H461 0.961 . S
C446 C447 1.370 . S
C446 C448 1.363 . S
C446 H462 0.931 . S
C447 C446 1.370 . S
C447 C451 1.408 . S
C448 C446 1.363 . S
C448 C449 1.370 . S
C448 C452 1.524 . S
C449 C441 1.503 . S
C449 C448 1.370 . S
C449 C450 1.403 . S
C450 C449 1.403 . S
C450 C451 1.404 . S
C450 C453 1.539 . S
C451 C447 1.408 . S
C451 C450 1.404 . S
C451 H463 0.930 . S
C452 C448 1.524 . S
C452 H464 0.956 . S
C452 H465 0.961 . S
C452 H466 0.961 . S
C453 C450 1.539 . S
C453 H467 0.958 . S
C453 H468 0.961 . S
C453 H469 0.960 . S
H454 C438 0.931 . S
H455 C443 0.929 . S
H456 C444 0.960 . S
H457 C444 0.962 . S
H458 C444 0.960 . S
H459 C445 0.961 . S
H460 C445 0.961 . S
H461 C445 0.961 . S
H462 C446 0.931 . S
H463 C451 0.930 . S
H464 C452 0.956 . S
H465 C452 0.961 . S
H466 C452 0.961 . S
H467 C453 0.958 . S
H468 C453 0.961 . S
H469 C453 0.960 . S
C470 C471 1.391 . S
C470 C472 1.394 . S
C470 H486 0.931 . S
C471 C470 1.391 . S
C471 C475 1.376 . S
C472 C470 1.394 . S
C472 C473 1.369 . S
C472 C476 1.531 . S
C473 C472 1.369 . S
C473 C474 1.410 . S
C473 C481 1.503 . S
C474 C473 1.410 . S
C474 C475 1.392 . S
C474 C477 1.511 . S
C475 C471 1.376 . S
C475 C474 1.392 . S
C475 H487 0.929 . S
C476 C472 1.531 . S
C476 H488 0.960 . S
C476 H489 0.962 . S
C476 H490 0.960 . S
C477 C474 1.511 . S
C477 H491 0.961 . S
C477 H492 0.961 . S
C477 H493 0.961 . S
C478 C479 1.370 . S
C478 C480 1.363 . S
C478 H494 0.931 . S
C479 C478 1.370 . S
C479 C483 1.408 . S
C480 C478 1.363 . S
C480 C481 1.370 . S
C480 C484 1.524 . S
C481 C473 1.503 . S
C481 C480 1.370 . S
C481 C482 1.403 . S
C482 C481 1.403 . S
C482 C483 1.404 . S
C482 C485 1.539 . S
C483 C479 1.408 . S
C483 C482 1.404 . S
C483 H495 0.930 . S
C484 C480 1.524 . S
C484 H496 0.956 . S
C484 H497 0.961 . S
C484 H498 0.961 . S
C485 C482 1.539 . S
C485 H499 0.958 1_556 S
C485 H500 0.961 1_556 S
C485 H501 0.960 . S
H486 C470 0.931 . S
H487 C475 0.929 . S
H488 C476 0.960 . S
H489 C476 0.962 . S
H490 C476 0.960 . S
H491 C477 0.961 . S
H492 C477 0.961 . S
H493 C477 0.961 . S
H494 C478 0.931 . S
H495 C483 0.930 . S
H496 C484 0.956 . S
H497 C484 0.961 . S
H498 C484 0.961 . S
H499 C485 0.958 1_554 S
H500 C485 0.961 1_554 S
H501 C485 0.960 . S
C502 C503 1.391 . S
C502 C504 1.394 . S
C502 H518 0.931 . S
C503 C502 1.391 . S
C503 C507 1.376 . S
C504 C502 1.394 . S
C504 C505 1.369 . S
C504 C508 1.531 . S
C505 C504 1.369 . S
C505 C506 1.410 . S
C505 C513 1.503 . S
C506 C505 1.410 . S
C506 C507 1.392 . S
C506 C509 1.511 . S
C507 C503 1.376 . S
C507 C506 1.392 . S
C507 H519 0.929 . S
C508 C504 1.531 . S
C508 H520 0.960 . S
C508 H521 0.962 . S
C508 H522 0.960 . S
C509 C506 1.511 . S
C509 H523 0.961 . S
C509 H524 0.961 . S
C509 H525 0.961 . S
C510 C511 1.370 . S
C510 C512 1.363 . S
C510 H526 0.931 . S
C511 C510 1.370 . S
C511 C515 1.408 . S
C512 C510 1.363 . S
C512 C513 1.370 . S
C512 C516 1.524 . S
C513 C505 1.503 . S
C513 C512 1.370 . S
C513 C514 1.403 . S
C514 C513 1.403 . S
C514 C515 1.404 . S
C514 C517 1.539 . S
C515 C511 1.408 . S
C515 C514 1.404 . S
C515 H527 0.930 . S
C516 C512 1.524 . S
C516 H528 0.956 . S
C516 H529 0.961 . S
C516 H530 0.961 . S
C517 C514 1.539 . S
C517 H531 0.958 . S
C517 H532 0.961 . S
C517 H533 0.960 . S
H518 C502 0.931 . S
H519 C507 0.929 . S
H520 C508 0.960 . S
H521 C508 0.962 . S
H522 C508 0.960 . S
H523 C509 0.961 . S
H524 C509 0.961 . S
H525 C509 0.961 . S
H526 C510 0.931 . S
H527 C515 0.930 . S
H528 C516 0.956 . S
H529 C516 0.961 . S
H530 C516 0.961 . S
H531 C517 0.958 . S
H532 C517 0.961 . S
H533 C517 0.960 . S
C534 C535 1.391 . S
C534 C536 1.394 . S
C534 H550 0.931 . S
C535 C534 1.391 . S
C535 C539 1.376 . S
C536 C534 1.394 . S
C536 C537 1.369 . S
C536 C540 1.531 . S
C537 C536 1.369 . S
C537 C538 1.410 . S
C537 C545 1.503 . S
C538 C537 1.410 . S
C538 C539 1.392 . S
C538 C541 1.511 . S
C539 C535 1.376 . S
C539 C538 1.392 . S
C539 H551 0.929 . S
C540 C536 1.531 . S
C540 H552 0.960 . S
C540 H553 0.962 . S
C540 H554 0.960 . S
C541 C538 1.511 . S
C541 H555 0.961 . S
C541 H556 0.961 . S
C541 H557 0.961 . S
C542 C543 1.370 . S
C542 C544 1.363 . S
C542 H558 0.931 . S
C543 C542 1.370 . S
C543 C547 1.408 . S
C544 C542 1.363 . S
C544 C545 1.370 . S
C544 C548 1.524 . S
C545 C537 1.503 . S
C545 C544 1.370 . S
C545 C546 1.403 . S
C546 C545 1.403 . S
C546 C547 1.404 . S
C546 C549 1.539 . S
C547 C543 1.408 . S
C547 C546 1.404 . S
C547 H559 0.930 . S
C548 C544 1.524 . S
C548 H560 0.956 . S
C548 H561 0.961 . S
C548 H562 0.961 . S
C549 C546 1.539 . S
C549 H563 0.958 . S
C549 H564 0.961 . S
C549 H565 0.960 . S
H550 C534 0.931 . S
H551 C539 0.929 . S
H552 C540 0.960 . S
H553 C540 0.962 . S
H554 C540 0.960 . S
H555 C541 0.961 . S
H556 C541 0.961 . S
H557 C541 0.961 . S
H558 C542 0.931 . S
H559 C547 0.930 . S
H560 C548 0.956 . S
H561 C548 0.961 . S
H562 C548 0.961 . S
H563 C549 0.958 . S
H564 C549 0.961 . S
H565 C549 0.960 . S
C566 C567 1.391 . S
C566 C568 1.394 . S
C566 H582 0.931 . S
C567 C566 1.391 . S
C567 C571 1.376 . S
C568 C566 1.394 . S
C568 C569 1.369 . S
C568 C572 1.531 . S
C569 C568 1.369 . S
C569 C570 1.410 . S
C569 C577 1.503 . S
C570 C569 1.410 . S
C570 C571 1.392 . S
C570 C573 1.511 . S
C571 C567 1.376 . S
C571 C570 1.392 . S
C571 H583 0.929 . S
C572 C568 1.531 . S
C572 H584 0.960 . S
C572 H585 0.962 . S
C572 H586 0.960 . S
C573 C570 1.511 . S
C573 H587 0.961 . S
C573 H588 0.961 . S
C573 H589 0.961 . S
C574 C575 1.370 . S
C574 C576 1.363 . S
C574 H590 0.931 . S
C575 C574 1.370 . S
C575 C579 1.408 . S
C576 C574 1.363 . S
C576 C577 1.370 . S
C576 C580 1.524 . S
C577 C569 1.503 . S
C577 C576 1.370 . S
C577 C578 1.403 . S
C578 C577 1.403 . S
C578 C579 1.404 . S
C578 C581 1.539 . S
C579 C575 1.408 . S
C579 C578 1.404 . S
C579 H591 0.930 . S
C580 C576 1.524 . S
C580 H592 0.956 . S
C580 H593 0.961 . S
C580 H594 0.961 . S
C581 C578 1.539 . S
C581 H595 0.958 . S
C581 H596 0.961 . S
C581 H597 0.960 . S
H582 C566 0.931 . S
H583 C571 0.929 . S
H584 C572 0.960 . S
H585 C572 0.962 . S
H586 C572 0.960 . S
H587 C573 0.961 . S
H588 C573 0.961 . S
H589 C573 0.961 . S
H590 C574 0.931 . S
H591 C579 0.930 . S
H592 C580 0.956 . S
H593 C580 0.961 . S
H594 C580 0.961 . S
H595 C581 0.958 . S
H596 C581 0.961 . S
H597 C581 0.960 . S
C598 C599 1.391 . S
C598 C600 1.394 . S
C598 H614 0.931 . S
C599 C598 1.391 . S
C599 C603 1.376 . S
C600 C598 1.394 . S
C600 C601 1.369 . S
C600 C604 1.531 . S
C601 C600 1.369 . S
C601 C602 1.410 . S
C601 C609 1.503 . S
C602 C601 1.410 . S
C602 C603 1.392 . S
C602 C605 1.511 . S
C603 C599 1.376 . S
C603 C602 1.392 . S
C603 H615 0.929 . S
C604 C600 1.531 . S
C604 H616 0.960 . S
C604 H617 0.962 . S
C604 H618 0.960 . S
C605 C602 1.511 . S
C605 H619 0.961 . S
C605 H620 0.961 . S
C605 H621 0.961 . S
C606 C607 1.370 . S
C606 C608 1.363 . S
C606 H622 0.931 . S
C607 C606 1.370 . S
C607 C611 1.408 . S
C608 C606 1.363 . S
C608 C609 1.370 . S
C608 C612 1.524 . S
C609 C601 1.503 . S
C609 C608 1.370 . S
C609 C610 1.403 . S
C610 C609 1.403 . S
C610 C611 1.404 . S
C610 C613 1.539 . S
C611 C607 1.408 . S
C611 C610 1.404 . S
C611 H623 0.930 . S
C612 C608 1.524 . S
C612 H624 0.956 . S
C612 H625 0.961 . S
C612 H626 0.961 . S
C613 C610 1.539 . S
C613 H627 0.958 . S
C613 H628 0.961 . S
C613 H629 0.960 . S
H614 C598 0.931 . S
H615 C603 0.929 . S
H616 C604 0.960 . S
H617 C604 0.962 . S
H618 C604 0.960 . S
H619 C605 0.961 . S
H620 C605 0.961 . S
H621 C605 0.961 . S
H622 C606 0.931 . S
H623 C611 0.930 . S
H624 C612 0.956 . S
H625 C612 0.961 . S
H626 C612 0.961 . S
H627 C613 0.958 . S
H628 C613 0.961 . S
H629 C613 0.960 . S
C630 C631 1.391 1_556 S
C630 C632 1.394 1_556 S
C630 H646 0.931 . S
C631 C630 1.391 1_554 S
C631 C635 1.376 . S
C632 C630 1.394 1_554 S
C632 C633 1.369 . S
C632 C636 1.531 1_554 S
C633 C632 1.369 . S
C633 C634 1.410 . S
C633 C641 1.503 . S
C634 C633 1.410 . S
C634 C635 1.392 . S
C634 C637 1.511 . S
C635 C631 1.376 . S
C635 C634 1.392 . S
C635 H647 0.929 . S
C636 C632 1.531 1_556 S
C636 H648 0.960 . S
C636 H649 0.962 . S
C636 H650 0.960 . S
C637 C634 1.511 . S
C637 H651 0.961 . S
C637 H652 0.961 . S
C637 H653 0.961 . S
C638 C639 1.370 . S
C638 C640 1.363 . S
C638 H654 0.931 . S
C639 C638 1.370 . S
C639 C643 1.408 . S
C640 C638 1.363 . S
C640 C641 1.370 . S
C640 C644 1.524 . S
C641 C633 1.503 . S
C641 C640 1.370 . S
C641 C642 1.403 . S
C642 C641 1.403 . S
C642 C643 1.404 . S
C642 C645 1.539 1_554 S
C643 C639 1.408 . S
C643 C642 1.404 . S
C643 H655 0.930 . S
C644 C640 1.524 . S
C644 H656 0.956 . S
C644 H657 0.961 . S
C644 H658 0.961 . S
C645 C642 1.539 1_556 S
C645 H659 0.958 . S
C645 H660 0.961 . S
C645 H661 0.960 . S
H646 C630 0.931 . S
H647 C635 0.929 . S
H648 C636 0.960 . S
H649 C636 0.962 . S
H650 C636 0.960 . S
H651 C637 0.961 . S
H652 C637 0.961 . S
H653 C637 0.961 . S
H654 C638 0.931 . S
H655 C643 0.930 . S
H656 C644 0.956 . S
H657 C644 0.961 . S
H658 C644 0.961 . S
H659 C645 0.958 . S
H660 C645 0.961 . S
H661 C645 0.960 . S
C662 C663 1.391 . S
C662 C664 1.394 . S
C662 H678 0.931 . S
C663 C662 1.391 . S
C663 C667 1.376 . S
C664 C662 1.394 . S
C664 C665 1.369 . S
C664 C668 1.531 . S
C665 C664 1.369 . S
C665 C666 1.410 . S
C665 C673 1.503 . S
C666 C665 1.410 . S
C666 C667 1.392 . S
C666 C669 1.511 . S
C667 C663 1.376 . S
C667 C666 1.392 . S
C667 H679 0.929 . S
C668 C664 1.531 . S
C668 H680 0.960 . S
C668 H681 0.962 . S
C668 H682 0.960 . S
C669 C666 1.511 . S
C669 H683 0.961 . S
C669 H684 0.961 . S
C669 H685 0.961 . S
C670 C671 1.370 . S
C670 C672 1.363 . S
C670 H686 0.931 . S
C671 C670 1.370 . S
C671 C675 1.408 . S
C672 C670 1.363 . S
C672 C673 1.370 . S
C672 C676 1.524 . S
C673 C665 1.503 . S
C673 C672 1.370 . S
C673 C674 1.403 . S
C674 C673 1.403 . S
C674 C675 1.404 . S
C674 C677 1.539 . S
C675 C671 1.408 . S
C675 C674 1.404 . S
C675 H687 0.930 . S
C676 C672 1.524 . S
C676 H688 0.956 . S
C676 H689 0.961 . S
C676 H690 0.961 . S
C677 C674 1.539 . S
C677 H691 0.958 . S
C677 H692 0.961 . S
C677 H693 0.960 . S
H678 C662 0.931 . S
H679 C667 0.929 . S
H680 C668 0.960 . S
H681 C668 0.962 . S
H682 C668 0.960 . S
H683 C669 0.961 . S
H684 C669 0.961 . S
H685 C669 0.961 . S
H686 C670 0.931 . S
H687 C675 0.930 . S
H688 C676 0.956 . S
H689 C676 0.961 . S
H690 C676 0.961 . S
H691 C677 0.958 . S
H692 C677 0.961 . S
H693 C677 0.960 . S
C694 C695 1.391 . S
C694 C696 1.394 . S
C694 H710 0.931 . S
C695 C694 1.391 . S
C695 C699 1.376 . S
C696 C694 1.394 . S
C696 C697 1.369 . S
C696 C700 1.531 . S
C697 C696 1.369 . S
C697 C698 1.410 . S
C697 C705 1.503 . S
C698 C697 1.410 . S
C698 C699 1.392 . S
C698 C701 1.511 . S
C699 C695 1.376 . S
C699 C698 1.392 . S
C699 H711 0.929 . S
C700 C696 1.531 . S
C700 H712 0.960 . S
C700 H713 0.962 . S
C700 H714 0.960 . S
C701 C698 1.511 . S
C701 H715 0.961 . S
C701 H716 0.961 . S
C701 H717 0.961 . S
C702 C703 1.370 . S
C702 C704 1.363 . S
C702 H718 0.931 . S
C703 C702 1.370 . S
C703 C707 1.408 . S
C704 C702 1.363 . S
C704 C705 1.370 . S
C704 C708 1.524 . S
C705 C697 1.503 . S
C705 C704 1.370 . S
C705 C706 1.403 . S
C706 C705 1.403 . S
C706 C707 1.404 . S
C706 C709 1.539 . S
C707 C703 1.408 . S
C707 C706 1.404 . S
C707 H719 0.930 . S
C708 C704 1.524 . S
C708 H720 0.956 . S
C708 H721 0.961 . S
C708 H722 0.961 . S
C709 C706 1.539 . S
C709 H723 0.958 . S
C709 H724 0.961 . S
C709 H725 0.960 . S
H710 C694 0.931 . S
H711 C699 0.929 . S
H712 C700 0.960 . S
H713 C700 0.962 . S
H714 C700 0.960 . S
H715 C701 0.961 . S
H716 C701 0.961 . S
H717 C701 0.961 . S
H718 C702 0.931 . S
H719 C707 0.930 . S
H720 C708 0.956 . S
H721 C708 0.961 . S
H722 C708 0.961 . S
H723 C709 0.958 . S
H724 C709 0.961 . S
H725 C709 0.960 . S
C726 C727 1.391 . S
C726 C728 1.394 . S
C726 H742 0.931 . S
C727 C726 1.391 . S
C727 C731 1.376 . S
C728 C726 1.394 . S
C728 C729 1.369 . S
C728 C732 1.531 . S
C729 C728 1.369 . S
C729 C730 1.410 . S
C729 C737 1.503 . S
C730 C729 1.410 . S
C730 C731 1.392 . S
C730 C733 1.511 . S
C731 C727 1.376 . S
C731 C730 1.392 . S
C731 H743 0.929 . S
C732 C728 1.531 . S
C732 H744 0.960 . S
C732 H745 0.962 . S
C732 H746 0.960 . S
C733 C730 1.511 . S
C733 H747 0.961 . S
C733 H748 0.961 . S
C733 H749 0.961 . S
C734 C735 1.370 . S
C734 C736 1.363 . S
C734 H750 0.931 . S
C735 C734 1.370 . S
C735 C739 1.408 . S
C736 C734 1.363 . S
C736 C737 1.370 . S
C736 C740 1.524 . S
C737 C729 1.503 . S
C737 C736 1.370 . S
C737 C738 1.403 . S
C738 C737 1.403 . S
C738 C739 1.404 . S
C738 C741 1.539 . S
C739 C735 1.408 . S
C739 C738 1.404 . S
C739 H751 0.930 . S
C740 C736 1.524 . S
C740 H752 0.956 . S
C740 H753 0.961 . S
C740 H754 0.961 . S
C741 C738 1.539 . S
C741 H755 0.958 . S
C741 H756 0.961 . S
C741 H757 0.960 . S
H742 C726 0.931 . S
H743 C731 0.929 . S
H744 C732 0.960 . S
H745 C732 0.962 . S
H746 C732 0.960 . S
H747 C733 0.961 . S
H748 C733 0.961 . S
H749 C733 0.961 . S
H750 C734 0.931 . S
H751 C739 0.930 . S
H752 C740 0.956 . S
H753 C740 0.961 . S
H754 C740 0.961 . S
H755 C741 0.958 . S
H756 C741 0.961 . S
H757 C741 0.960 . S
C758 C759 1.391 . S
C758 C760 1.394 . S
C758 H774 0.931 . S
C759 C758 1.391 . S
C759 C763 1.376 . S
C760 C758 1.394 . S
C760 C761 1.369 . S
C760 C764 1.531 . S
C761 C760 1.369 . S
C761 C762 1.410 . S
C761 C769 1.503 . S
C762 C761 1.410 . S
C762 C763 1.392 . S
C762 C765 1.511 . S
C763 C759 1.376 . S
C763 C762 1.392 . S
C763 H775 0.929 . S
C764 C760 1.531 . S
C764 H776 0.960 . S
C764 H777 0.962 . S
C764 H778 0.960 . S
C765 C762 1.511 . S
C765 H779 0.961 . S
C765 H780 0.961 . S
C765 H781 0.961 . S
C766 C767 1.370 . S
C766 C768 1.363 . S
C766 H782 0.931 . S
C767 C766 1.370 . S
C767 C771 1.408 . S
C768 C766 1.363 . S
C768 C769 1.370 . S
C768 C772 1.524 . S
C769 C761 1.503 . S
C769 C768 1.370 . S
C769 C770 1.403 . S
C770 C769 1.403 . S
C770 C771 1.404 . S
C770 C773 1.539 . S
C771 C767 1.408 . S
C771 C770 1.404 . S
C771 H783 0.930 . S
C772 C768 1.524 . S
C772 H784 0.956 . S
C772 H785 0.961 . S
C772 H786 0.961 . S
C773 C770 1.539 . S
C773 H787 0.958 . S
C773 H788 0.961 . S
C773 H789 0.960 . S
H774 C758 0.931 . S
H775 C763 0.929 . S
H776 C764 0.960 . S
H777 C764 0.962 . S
H778 C764 0.960 . S
H779 C765 0.961 . S
H780 C765 0.961 . S
H781 C765 0.961 . S
H782 C766 0.931 . S
H783 C771 0.930 . S
H784 C772 0.956 . S
H785 C772 0.961 . S
H786 C772 0.961 . S
H787 C773 0.958 . S
H788 C773 0.961 . S
H789 C773 0.960 . S
C790 C791 1.391 . S
C790 C792 1.394 . S
C790 H806 0.931 . S
C791 C790 1.391 . S
C791 C795 1.376 . S
C792 C790 1.394 . S
C792 C793 1.369 . S
C792 C796 1.531 . S
C793 C792 1.369 . S
C793 C794 1.410 . S
C793 C801 1.503 . S
C794 C793 1.410 . S
C794 C795 1.392 . S
C794 C797 1.511 . S
C795 C791 1.376 . S
C795 C794 1.392 . S
C795 H807 0.929 . S
C796 C792 1.531 . S
C796 H808 0.960 . S
C796 H809 0.962 . S
C796 H810 0.960 . S
C797 C794 1.511 . S
C797 H811 0.961 . S
C797 H812 0.961 . S
C797 H813 0.961 . S
C798 C799 1.370 . S
C798 C800 1.363 . S
C798 H814 0.931 . S
C799 C798 1.370 . S
C799 C803 1.408 . S
C800 C798 1.363 . S
C800 C801 1.370 . S
C800 C804 1.524 . S
C801 C793 1.503 . S
C801 C800 1.370 . S
C801 C802 1.403 . S
C802 C801 1.403 . S
C802 C803 1.404 . S
C802 C805 1.539 . S
C803 C799 1.408 . S
C803 C802 1.404 . S
C803 H815 0.930 . S
C804 C800 1.524 . S
C804 H816 0.956 . S
C804 H817 0.961 . S
C804 H818 0.961 . S
C805 C802 1.539 . S
C805 H819 0.958 . S
C805 H820 0.961 . S
C805 H821 0.960 . S
H806 C790 0.931 . S
H807 C795 0.929 . S
H808 C796 0.960 . S
H809 C796 0.962 . S
H810 C796 0.960 . S
H811 C797 0.961 . S
H812 C797 0.961 . S
H813 C797 0.961 . S
H814 C798 0.931 . S
H815 C803 0.930 . S
H816 C804 0.956 . S
H817 C804 0.961 . S
H818 C804 0.961 . S
H819 C805 0.958 . S
H820 C805 0.961 . S
H821 C805 0.960 . S
C822 C823 1.391 . S
C822 C824 1.394 . S
C822 H838 0.931 . S
C823 C822 1.391 . S
C823 C827 1.376 . S
C824 C822 1.394 . S
C824 C825 1.369 . S
C824 C828 1.531 . S
C825 C824 1.369 . S
C825 C826 1.410 . S
C825 C833 1.503 . S
C826 C825 1.410 . S
C826 C827 1.392 . S
C826 C829 1.511 . S
C827 C823 1.376 . S
C827 C826 1.392 . S
C827 H839 0.929 . S
C828 C824 1.531 . S
C828 H840 0.960 . S
C828 H841 0.962 . S
C828 H842 0.960 . S
C829 C826 1.511 . S
C829 H843 0.961 . S
C829 H844 0.961 . S
C829 H845 0.961 . S
C830 C831 1.347 1_556 S
C830 C832 1.363 . S
C830 H846 0.931 . S
C831 C830 1.347 1_554 S
C831 C835 1.415 . S
C832 C830 1.363 . S
C832 C833 1.370 . S
C832 C836 1.524 . S
C833 C825 1.503 . S
C833 C832 1.370 . S
C833 C834 1.403 . S
C834 C833 1.403 . S
C834 C835 1.404 1_556 S
C834 C837 1.539 . S
C835 C831 1.415 . S
C835 C834 1.404 1_554 S
C835 H847 0.930 . S
C836 C832 1.524 . S
C836 H848 0.956 . S
C836 H849 0.961 . S
C836 H850 0.961 . S
C837 C834 1.539 . S
C837 H851 0.958 1_556 S
C837 H852 0.961 1_556 S
C837 H853 0.960 . S
H838 C822 0.931 . S
H839 C827 0.929 . S
H840 C828 0.960 . S
H841 C828 0.962 . S
H842 C828 0.960 . S
H843 C829 0.961 . S
H844 C829 0.961 . S
H845 C829 0.961 . S
H846 C830 0.931 . S
H847 C835 0.930 . S
H848 C836 0.956 . S
H849 C836 0.961 . S
H850 C836 0.961 . S
H851 C837 0.958 1_554 S
H852 C837 0.961 1_554 S
H853 C837 0.960 . S
C854 C855 1.391 . S
C854 C856 1.394 . S
C854 H870 0.931 . S
C855 C854 1.391 . S
C855 C859 1.376 . S
C856 C854 1.394 . S
C856 C857 1.369 . S
C856 C860 1.531 . S
C857 C856 1.369 . S
C857 C858 1.410 . S
C857 C865 1.503 . S
C858 C857 1.410 . S
C858 C859 1.392 . S
C858 C861 1.511 . S
C859 C855 1.376 . S
C859 C858 1.392 . S
C859 H871 0.929 . S
C860 C856 1.531 . S
C860 H872 0.960 . S
C860 H873 0.962 . S
C860 H874 0.960 . S
C861 C858 1.511 . S
C861 H875 0.961 . S
C861 H876 0.961 . S
C861 H877 0.961 . S
C862 C863 1.370 . S
C862 C864 1.363 . S
C862 H878 0.931 . S
C863 C862 1.370 . S
C863 C867 1.408 . S
C864 C862 1.363 . S
C864 C865 1.370 . S
C864 C868 1.524 . S
C865 C857 1.503 . S
C865 C864 1.370 . S
C865 C866 1.403 . S
C866 C865 1.403 . S
C866 C867 1.404 . S
C866 C869 1.539 . S
C867 C863 1.408 . S
C867 C866 1.404 . S
C867 H879 0.930 . S
C868 C864 1.524 . S
C868 H880 0.956 . S
C868 H881 0.961 . S
C868 H882 0.961 . S
C869 C866 1.539 . S
C869 H883 0.958 . S
C869 H884 0.961 . S
C869 H885 0.960 . S
H870 C854 0.931 . S
H871 C859 0.929 . S
H872 C860 0.960 . S
H873 C860 0.962 . S
H874 C860 0.960 . S
H875 C861 0.961 . S
H876 C861 0.961 . S
H877 C861 0.961 . S
H878 C862 0.931 . S
H879 C867 0.930 . S
H880 C868 0.956 . S
H881 C868 0.961 . S
H882 C868 0.961 . S
H883 C869 0.958 . S
H884 C869 0.961 . S
H885 C869 0.960 . S
C886 C887 1.391 . S
C886 C888 1.394 . S
C886 H902 0.931 . S
C887 C886 1.391 . S
C887 C891 1.376 . S
C888 C886 1.394 . S
C888 C889 1.369 . S
C888 C892 1.531 . S
C889 C888 1.369 . S
C889 C890 1.410 . S
C889 C897 1.503 . S
C890 C889 1.410 . S
C890 C891 1.392 . S
C890 C893 1.511 . S
C891 C887 1.376 . S
C891 C890 1.392 . S
C891 H903 0.929 . S
C892 C888 1.531 . S
C892 H904 0.960 . S
C892 H905 0.962 . S
C892 H906 0.960 . S
C893 C890 1.511 . S
C893 H907 0.961 . S
C893 H908 0.961 . S
C893 H909 0.961 . S
C894 C895 1.370 . S
C894 C896 1.363 . S
C894 H910 0.931 . S
C895 C894 1.370 . S
C895 C899 1.408 . S
C896 C894 1.363 . S
C896 C897 1.370 . S
C896 C900 1.524 . S
C897 C889 1.503 . S
C897 C896 1.370 . S
C897 C898 1.403 . S
C898 C897 1.403 . S
C898 C899 1.404 . S
C898 C901 1.539 . S
C899 C895 1.408 . S
C899 C898 1.404 . S
C899 H911 0.930 . S
C900 C896 1.524 . S
C900 H912 0.956 . S
C900 H913 0.961 . S
C900 H914 0.961 . S
C901 C898 1.539 . S
C901 H915 0.958 . S
C901 H916 0.961 . S
C901 H917 0.960 . S
H902 C886 0.931 . S
H903 C891 0.929 . S
H904 C892 0.960 . S
H905 C892 0.962 . S
H906 C892 0.960 . S
H907 C893 0.961 . S
H908 C893 0.961 . S
H909 C893 0.961 . S
H910 C894 0.931 . S
H911 C899 0.930 . S
H912 C900 0.956 . S
H913 C900 0.961 . S
H914 C900 0.961 . S
H915 C901 0.958 . S
H916 C901 0.961 . S
H917 C901 0.960 . S
C918 C919 1.391 . S
C918 C920 1.394 . S
C918 H934 0.931 . S
C919 C918 1.391 . S
C919 C923 1.376 . S
C920 C918 1.394 . S
C920 C921 1.369 . S
C920 C924 1.531 . S
C921 C920 1.369 . S
C921 C922 1.410 . S
C921 C929 1.503 . S
C922 C921 1.410 . S
C922 C923 1.392 . S
C922 C925 1.511 . S
C923 C919 1.376 . S
C923 C922 1.392 . S
C923 H935 0.929 . S
C924 C920 1.531 . S
C924 H936 0.960 . S
C924 H937 0.962 . S
C924 H938 0.960 . S
C925 C922 1.511 . S
C925 H939 0.961 . S
C925 H940 0.961 . S
C925 H941 0.961 . S
C926 C927 1.370 . S
C926 C928 1.363 . S
C926 H942 0.931 . S
C927 C926 1.370 . S
C927 C931 1.408 . S
C928 C926 1.363 . S
C928 C929 1.370 . S
C928 C932 1.524 . S
C929 C921 1.503 . S
C929 C928 1.370 . S
C929 C930 1.403 . S
C930 C929 1.403 . S
C930 C931 1.404 . S
C930 C933 1.539 . S
C931 C927 1.408 . S
C931 C930 1.404 . S
C931 H943 0.930 . S
C932 C928 1.524 . S
C932 H944 0.956 . S
C932 H945 0.961 . S
C932 H946 0.961 . S
C933 C930 1.539 . S
C933 H947 0.958 . S
C933 H948 0.961 . S
C933 H949 0.960 . S
H934 C918 0.931 . S
H935 C923 0.929 . S
H936 C924 0.960 . S
H937 C924 0.962 . S
H938 C924 0.960 . S
H939 C925 0.961 . S
H940 C925 0.961 . S
H941 C925 0.961 . S
H942 C926 0.931 . S
H943 C931 0.930 . S
H944 C932 0.956 . S
H945 C932 0.961 . S
H946 C932 0.961 . S
H947 C933 0.958 . S
H948 C933 0.961 . S
H949 C933 0.960 . S
C950 C951 1.391 . S
C950 C952 1.394 . S
C950 H966 0.931 . S
C951 C950 1.391 . S
C951 C955 1.376 . S
C952 C950 1.394 . S
C952 C953 1.369 . S
C952 C956 1.531 . S
C953 C952 1.369 . S
C953 C954 1.410 . S
C953 C961 1.503 . S
C954 C953 1.410 . S
C954 C955 1.392 . S
C954 C957 1.511 . S
C955 C951 1.376 . S
C955 C954 1.392 . S
C955 H967 0.929 . S
C956 C952 1.531 . S
C956 H968 0.960 . S
C956 H969 0.962 . S
C956 H970 0.960 . S
C957 C954 1.511 . S
C957 H971 0.961 . S
C957 H972 0.961 . S
C957 H973 0.961 . S
C958 C959 1.370 . S
C958 C960 1.363 . S
C958 H974 0.931 . S
C959 C958 1.370 . S
C959 C963 1.408 . S
C960 C958 1.363 . S
C960 C961 1.370 . S
C960 C964 1.524 . S
C961 C953 1.503 . S
C961 C960 1.370 . S
C961 C962 1.403 . S
C962 C961 1.403 . S
C962 C963 1.404 . S
C962 C965 1.539 . S
C963 C959 1.408 . S
C963 C962 1.404 . S
C963 H975 0.930 . S
C964 C960 1.524 . S
C964 H976 0.956 . S
C964 H977 0.961 . S
C964 H978 0.961 . S
C965 C962 1.539 . S
C965 H979 0.958 . S
C965 H980 0.961 . S
C965 H981 0.960 . S
H966 C950 0.931 . S
H967 C955 0.929 . S
H968 C956 0.960 . S
H969 C956 0.962 . S
H970 C956 0.960 . S
H971 C957 0.961 . S
H972 C957 0.961 . S
H973 C957 0.961 . S
H974 C958 0.931 . S
H975 C963 0.930 . S
H976 C964 0.956 . S
H977 C964 0.961 . S
H978 C964 0.961 . S
H979 C965 0.958 . S
H980 C965 0.961 . S
H981 C965 0.960 . S
C982 C983 1.391 . S
C982 C984 1.394 . S
C982 H998 0.931 . S
C983 C982 1.391 . S
C983 C987 1.376 . S
C984 C982 1.394 . S
C984 C985 1.369 . S
C984 C988 1.531 . S
C985 C984 1.369 . S
C985 C986 1.410 . S
C985 C993 1.503 . S
C986 C985 1.410 . S
C986 C987 1.392 . S
C986 C989 1.511 . S
C987 C983 1.376 . S
C987 C986 1.392 . S
C987 H999 0.929 . S
C988 C984 1.531 . S
C988 H1000 0.960 . S
C988 H1001 0.962 . S
C988 H1002 0.960 . S
C989 C986 1.511 . S
C989 H1003 0.961 . S
C989 H1004 0.961 . S
C989 H1005 0.961 . S
C990 C991 1.370 . S
C990 C992 1.363 . S
C990 H1006 0.931 . S
C991 C990 1.370 . S
C991 C995 1.408 . S
C992 C990 1.363 . S
C992 C993 1.370 . S
C992 C996 1.524 . S
C993 C985 1.503 . S
C993 C992 1.370 . S
C993 C994 1.403 . S
C994 C993 1.403 . S
C994 C995 1.404 . S
C994 C997 1.539 . S
C995 C991 1.408 . S
C995 C994 1.404 . S
C995 H1007 0.930 . S
C996 C992 1.524 . S
C996 H1008 0.956 . S
C996 H1009 0.961 . S
C996 H1010 0.961 . S
C997 C994 1.539 . S
C997 H1011 0.958 . S
C997 H1012 0.961 . S
C997 H1013 0.960 . S
H998 C982 0.931 . S
H999 C987 0.929 . S
H1000 C988 0.960 . S
H1001 C988 0.962 . S
H1002 C988 0.960 . S
H1003 C989 0.961 . S
H1004 C989 0.961 . S
H1005 C989 0.961 . S
H1006 C990 0.931 . S
H1007 C995 0.930 . S
H1008 C996 0.956 . S
H1009 C996 0.961 . S
H1010 C996 0.961 . S
H1011 C997 0.958 . S
H1012 C997 0.961 . S
H1013 C997 0.960 . S
C1014 C1015 1.391 . S
C1014 C1016 1.394 . S
C1014 H1030 0.931 . S
C1015 C1014 1.391 . S
C1015 C1019 1.376 . S
C1016 C1014 1.394 . S
C1016 C1017 1.369 . S
C1016 C1020 1.531 . S
C1017 C1016 1.369 . S
C1017 C1018 1.410 . S
C1017 C1025 1.503 . S
C1018 C1017 1.410 . S
C1018 C1019 1.392 . S
C1018 C1021 1.511 . S
C1019 C1015 1.376 . S
C1019 C1018 1.392 . S
C1019 H1031 0.929 . S
C1020 C1016 1.531 . S
C1020 H1032 0.960 . S
C1020 H1033 0.962 . S
C1020 H1034 0.960 . S
C1021 C1018 1.511 . S
C1021 H1035 0.961 . S
C1021 H1036 0.961 . S
C1021 H1037 0.961 . S
C1022 C1023 1.370 . S
C1022 C1024 1.363 . S
C1022 H1038 0.931 . S
C1023 C1022 1.370 . S
C1023 C1027 1.408 . S
C1024 C1022 1.363 . S
C1024 C1025 1.370 . S
C1024 C1028 1.524 . S
C1025 C1017 1.503 . S
C1025 C1024 1.370 . S
C1025 C1026 1.403 . S
C1026 C1025 1.403 . S
C1026 C1027 1.404 . S
C1026 C1029 1.539 . S
C1027 C1023 1.408 . S
C1027 C1026 1.404 . S
C1027 H1039 0.930 . S
C1028 C1024 1.524 . S
C1028 H1040 0.956 . S
C1028 H1041 0.961 . S
C1028 H1042 0.961 . S
C1029 C1026 1.539 . S
C1029 H1043 0.958 . S
C1029 H1044 0.961 . S
C1029 H1045 0.960 . S
H1030 C1014 0.931 . S
H1031 C1019 0.929 . S
H1032 C1020 0.960 . S
H1033 C1020 0.962 . S
H1034 C1020 0.960 . S
H1035 C1021 0.961 . S
H1036 C1021 0.961 . S
H1037 C1021 0.961 . S
H1038 C1022 0.931 . S
H1039 C1027 0.930 . S
H1040 C1028 0.956 . S
H1041 C1028 0.961 . S
H1042 C1028 0.961 . S
H1043 C1029 0.958 . S
H1044 C1029 0.961 . S
H1045 C1029 0.960 . S
C1046 C1047 1.391 . S
C1046 C1048 1.394 . S
C1046 H1062 0.931 . S
C1047 C1046 1.391 . S
C1047 C1051 1.376 . S
C1048 C1046 1.394 . S
C1048 C1049 1.369 . S
C1048 C1052 1.531 . S
C1049 C1048 1.369 . S
C1049 C1050 1.410 . S
C1049 C1057 1.503 . S
C1050 C1049 1.410 . S
C1050 C1051 1.392 . S
C1050 C1053 1.511 . S
C1051 C1047 1.376 . S
C1051 C1050 1.392 . S
C1051 H1063 0.929 . S
C1052 C1048 1.531 . S
C1052 H1064 0.960 1_554 S
C1052 H1065 0.962 . S
C1052 H1066 0.960 . S
C1053 C1050 1.511 . S
C1053 H1067 0.961 . S
C1053 H1068 0.961 . S
C1053 H1069 0.961 . S
C1054 C1055 1.370 . S
C1054 C1056 1.363 1_556 S
C1054 H1070 0.931 . S
C1055 C1054 1.370 . S
C1055 C1059 1.408 . S
C1056 C1054 1.363 1_554 S
C1056 C1057 1.370 . S
C1056 C1060 1.524 . S
C1057 C1049 1.503 . S
C1057 C1056 1.370 . S
C1057 C1058 1.403 1_554 S
C1058 C1057 1.403 1_556 S
C1058 C1059 1.404 . S
C1058 C1061 1.539 . S
C1059 C1055 1.408 . S
C1059 C1058 1.404 . S
C1059 H1071 0.930 . S
C1060 C1056 1.524 . S
C1060 H1072 0.956 . S
C1060 H1073 0.961 . S
C1060 H1074 0.961 . S
C1061 C1058 1.539 . S
C1061 H1075 0.958 . S
C1061 H1076 0.961 . S
C1061 H1077 0.960 1_556 S
H1062 C1046 0.931 . S
H1063 C1051 0.929 . S
H1064 C1052 0.960 1_556 S
H1065 C1052 0.962 . S
H1066 C1052 0.960 . S
H1067 C1053 0.961 . S
H1068 C1053 0.961 . S
H1069 C1053 0.961 . S
H1070 C1054 0.931 . S
H1071 C1059 0.930 . S
H1072 C1060 0.956 . S
H1073 C1060 0.961 . S
H1074 C1060 0.961 . S
H1075 C1061 0.958 . S
H1076 C1061 0.961 . S
H1077 C1061 0.960 1_554 S
C1078 C1079 1.391 . S
C1078 C1080 1.394 . S
C1078 H1094 0.931 . S
C1079 C1078 1.391 . S
C1079 C1083 1.376 . S
C1080 C1078 1.394 . S
C1080 C1081 1.369 . S
C1080 C1084 1.531 . S
C1081 C1080 1.369 . S
C1081 C1082 1.410 . S
C1081 C1089 1.503 . S
C1082 C1081 1.410 . S
C1082 C1083 1.392 . S
C1082 C1085 1.511 . S
C1083 C1079 1.376 . S
C1083 C1082 1.392 . S
C1083 H1095 0.929 . S
C1084 C1080 1.531 . S
C1084 H1096 0.960 . S
C1084 H1097 0.962 . S
C1084 H1098 0.960 . S
C1085 C1082 1.511 . S
C1085 H1099 0.961 . S
C1085 H1100 0.961 . S
C1085 H1101 0.961 . S
C1086 C1087 1.370 . S
C1086 C1088 1.363 . S
C1086 H1102 0.931 . S
C1087 C1086 1.370 . S
C1087 C1091 1.408 . S
C1088 C1086 1.363 . S
C1088 C1089 1.370 . S
C1088 C1092 1.524 . S
C1089 C1081 1.503 . S
C1089 C1088 1.370 . S
C1089 C1090 1.403 . S
C1090 C1089 1.403 . S
C1090 C1091 1.404 . S
C1090 C1093 1.539 . S
C1091 C1087 1.408 . S
C1091 C1090 1.404 . S
C1091 H1103 0.930 . S
C1092 C1088 1.524 . S
C1092 H1104 0.956 . S
C1092 H1105 0.961 . S
C1092 H1106 0.961 . S
C1093 C1090 1.539 . S
C1093 H1107 0.958 . S
C1093 H1108 0.961 . S
C1093 H1109 0.960 . S
H1094 C1078 0.931 . S
H1095 C1083 0.929 . S
H1096 C1084 0.960 . S
H1097 C1084 0.962 . S
H1098 C1084 0.960 . S
H1099 C1085 0.961 . S
H1100 C1085 0.961 . S
H1101 C1085 0.961 . S
H1102 C1086 0.931 . S
H1103 C1091 0.930 . S
H1104 C1092 0.956 . S
H1105 C1092 0.961 . S
H1106 C1092 0.961 . S
H1107 C1093 0.958 . S
H1108 C1093 0.961 . S
H1109 C1093 0.960 . S
C351 C309 1.584 . S
C343 C19 1.530 . S
C375 C40 1.554 . S
C383 C129 1.617 . S
C407 C51 1.450 . S
C415 C176 1.554 . S
C439 C72 1.488 . S
C447 C212 1.515 . S
C479 C237 1.569 . S
C471 C103 1.451 . S
C503 C114 1.505 . S
C511 C273 1.583 . S
C535 C30 1.463 . S
C543 C165 1.622 . S
C567 C61 1.461 . S
C575 C201 1.569 . S
C599 C82 1.475 . S
C607 C248 1.505 . S
C639 C284 1.539 . S
C631 C93 1.456 1_554 S
C671 C320 1.535 . S
C663 C124 1.511 . S
C703 C140 1.556 . S
C695 C9 1.463 . S
C727 C17 1.393 . S
C735 C164 1.504 . S
C759 C38 1.396 . S
C767 C200 1.518 . S
C799 C238 1.505 . S
C791 C54 1.410 . S
C823 C75 1.467 . S
C831 C274 1.535 . S
C863 C310 1.494 . S
C855 C101 1.396 . S
C895 C130 1.481 . S
C887 C117 1.366 . S
C927 C308 1.488 . S
C919 C33 1.427 . S
C951 C59 1.430 . S
C959 C128 1.506 . S
C991 C166 1.501 . S
C983 C80 1.460 . S
C1015 C96 1.379 . S
C1023 C202 1.510 . S
C1047 C122 1.493 . S
C1055 C236 1.542 . S
C1079 C12 1.485 . S
C1087 C272 1.526 . S
