# Generated by pormake.
# Topology tsx, (6,3)-cn, num edge types: 1
# Building blocks:
#     Node 0, Type 0, BuildingBlock: LEVNOQ01_clean_sbu_1, # of connection points: 6
#     Node 1, Type 0, BuildingBlock: LEVNOQ01_clean_sbu_1, # of connection points: 6
#     Node 2, Type 1, BuildingBlock: BELTOD_clean_linker_0, # of connection points: 3
#     Node 3, Type 1, BuildingBlock: BELTOD_clean_linker_0, # of connection points: 3
#     Node 4, Type 1, BuildingBlock: BELTOD_clean_linker_0, # of connection points: 3
#     Node 5, Type 1, BuildingBlock: BELTOD_clean_linker_0, # of connection points: 3
#     Edge 6, Type (0, 1), BuildingBlock: XIVTED_clean_linker_0, # of connection points: 2
#     Edge 7, Type (0, 1), BuildingBlock: XIVTED_clean_linker_0, # of connection points: 2
#     Edge 8, Type (0, 1), BuildingBlock: XIVTED_clean_linker_0, # of connection points: 2
#     Edge 9, Type (0, 1), BuildingBlock: XIVTED_clean_linker_0, # of connection points: 2
#     Edge 10, Type (0, 1), BuildingBlock: XIVTED_clean_linker_0, # of connection points: 2
#     Edge 11, Type (0, 1), BuildingBlock: XIVTED_clean_linker_0, # of connection points: 2
#     Edge 12, Type (0, 1), BuildingBlock: XIVTED_clean_linker_0, # of connection points: 2
#     Edge 13, Type (0, 1), BuildingBlock: XIVTED_clean_linker_0, # of connection points: 2
#     Edge 14, Type (0, 1), BuildingBlock: XIVTED_clean_linker_0, # of connection points: 2
#     Edge 15, Type (0, 1), BuildingBlock: XIVTED_clean_linker_0, # of connection points: 2
#     Edge 16, Type (0, 1), BuildingBlock: XIVTED_clean_linker_0, # of connection points: 2
#     Edge 17, Type (0, 1), BuildingBlock: XIVTED_clean_linker_0, # of connection points: 2
# Relax obj value: 0.118
# Max RMSD: 0.151
# Mean RMSD: 0.110
data_MOF--net-tsx--node1-LEVNOQ01_clean_sbu_1--node2-BELTOD_clean_linker_0--edge1-XIVTED_clean_linker_0
_symmetry_space_group_name_H-M    P1
_symmetry_Int_Tables_number       1
_symmetry_cell_setting            triclinic
loop_
_symmetry_equiv_pos_as_xyz
'x, y, z'
_cell_length_a     20.675607
_cell_length_b     25.876318
_cell_length_c     41.27838
_cell_angle_alpha  97.845508
_cell_angle_beta   91.647637
_cell_angle_gamma 90.842559
loop_
_atom_site_label
_atom_site_type_symbol
_atom_site_fract_x
_atom_site_fract_y
_atom_site_fract_z
_atom_type_partial_charge
O0 O 0.1553 0.01419 0.06321 0.0
Mg1 Mg 0.17794 0.01522 0.01326 0.0
O2 O 0.04824 0.01794 0.05734 0.0
Mg3 Mg 0.02614 0.01602 0.00111 0.0
O4 O 0.11689 0.0654 0.99482 0.0
O5 O 0.22352 0.0789 -0.00159 0.0
O6 O 0.0086 0.01365 0.94466 0.0
O7 O 0.97743 0.09894 0.01236 0.0
Mg8 Mg 0.88087 0.01383 0.98242 0.0
O9 O 0.93422 0.96585 0.00778 0.0
O10 O 0.90374 0.00725 0.93246 0.0
O11 O 0.87107 0.08842 0.00793 0.0
O12 O 0.82722 0.95627 -0.00206 0.0
C13 C 0.129 0.91483 0.98049 0.0
C14 C 0.09939 0.01609 0.07539 0.0
C15 C 0.16677 0.09454 0.99095 0.0
C16 C 0.96175 0.00972 0.92357 0.0
C17 C 0.9205 0.11742 0.01527 0.0
C18 C 0.88022 0.94047 0.01028 0.0
O19 O 0.17922 0.9437 0.98277 0.0
O20 O 0.07414 0.93312 0.9893 0.0
O21 O 0.65671 0.51427 0.56442 0.0
Mg22 Mg 0.67947 0.51545 0.51452 0.0
O23 O 0.54974 0.51847 0.55839 0.0
Mg24 Mg 0.52812 0.51677 0.50216 0.0
O25 O 0.61913 0.56614 0.49606 0.0
O26 O 0.72593 0.57884 0.49992 0.0
O27 O 0.51093 0.51471 0.44579 0.0
O28 O 0.47954 0.59982 0.51342 0.0
Mg29 Mg 0.38285 0.51504 0.48337 0.0
O30 O 0.43599 0.46668 0.50855 0.0
O31 O 0.40609 0.50898 0.43344 0.0
O32 O 0.37313 0.58944 0.50918 0.0
O33 O 0.32901 0.45732 0.49859 0.0
C34 C 0.63079 0.41529 0.48155 0.0
C35 C 0.60072 0.51636 0.5765 0.0
C36 C 0.66946 0.59495 0.49237 0.0
C37 C 0.4642 0.51123 0.42465 0.0
C38 C 0.42265 0.61836 0.51646 0.0
C39 C 0.38191 0.44132 0.51092 0.0
O40 O 0.68107 0.44408 0.48395 0.0
O41 O 0.57593 0.43368 0.49028 0.0
P42 P 0.11494 0.07678 0.43377 0.0
H43 H 0.06028 0.14184 0.48934 0.0
H44 H 0.95009 0.17116 0.49947 0.0
H45 H 0.87916 0.06043 0.41785 0.0
H46 H 0.98969 0.03111 0.408 0.0
H47 H 0.248 0.07171 0.45823 0.0
H48 H 0.30889 0.00425 0.48071 0.0
H49 H 0.13781 0.90443 0.47039 0.0
H50 H 0.07657 0.97342 0.4493 0.0
H51 H 0.07056 0.13801 0.38404 0.0
H52 H 0.15103 -0.01426 0.38646 0.0
O53 O 0.15466 0.13359 0.44388 0.0
H54 H 0.06273 0.12148 0.32433 0.0
H55 H 0.14272 0.96864 0.32671 0.0
C56 C 0.03329 0.08547 0.44737 0.0
C57 C 0.02081 0.12275 0.47427 0.0
C58 C 0.9576 0.13933 0.4801 0.0
C59 C 0.90597 0.11886 0.459 0.0
C60 C 0.91807 0.07764 0.43412 0.0
C61 C 0.98126 0.06081 0.4285 0.0
C62 C 0.15757 0.02779 0.45251 0.0
C63 C 0.22334 0.03557 0.46126 0.0
C64 C 0.25841 -0.00342 0.47376 0.0
C65 C 0.22859 0.94857 0.47735 0.0
C66 C 0.16228 0.94115 0.46864 0.0
C67 C 0.12711 0.98046 0.45639 0.0
C68 C 0.11198 0.06342 0.38969 0.0
C69 C 0.08668 0.10102 0.37166 0.0
C70 C 0.08161 0.09129 0.33754 0.0
C71 C 0.10195 0.04367 0.32069 0.0
C72 C 0.12723 0.00593 0.3389 0.0
C73 C 0.13195 0.01565 0.37313 0.0
P74 P 0.0865 0.96018 0.57311 0.0
H75 H 0.0597 0.88653 0.51425 0.0
H76 H 0.9593 0.85275 0.48666 0.0
H77 H 0.85183 0.96554 0.54984 0.0
H78 H 0.95339 -0.00116 0.57765 0.0
H79 H 0.22309 0.97743 0.56037 0.0
H80 H 0.28423 0.05535 0.55106 0.0
H81 H 0.10599 0.14001 0.54871 0.0
H82 H 0.04519 0.062 0.55825 0.0
H83 H 0.99756 0.91087 0.61345 0.0
H84 H 0.13823 0.03734 0.62719 0.0
O85 O 0.13352 0.90803 0.56958 0.0
H86 H 0.97747 0.92404 0.67195 0.0
H87 H 0.11795 0.05104 0.68575 0.0
C88 C 0.01372 0.94403 0.54856 0.0
C89 C 0.01472 0.90471 0.52174 0.0
C90 C 0.95702 0.88574 0.50576 0.0
C91 C 0.89709 0.90594 0.51628 0.0
C92 C 0.89694 0.94847 0.5415 0.0
C93 C 0.95494 0.96757 0.55739 0.0
C94 C 0.12959 0.01399 0.55989 0.0
C95 C 0.19702 0.01245 0.55719 0.0
C96 C 0.23198 0.05699 0.55182 0.0
C97 C 0.19998 0.10391 0.5495 0.0
C98 C 0.13204 0.10455 0.55081 0.0
C99 C 0.09717 0.05995 0.55602 0.0
C100 C 0.06805 0.97397 0.61577 0.0
C101 C 0.02321 0.94215 0.62897 0.0
C102 C 0.01177 0.94975 0.66244 0.0
C103 C 0.04581 -0.01116 0.68351 0.0
C104 C 0.09115 0.02046 0.67021 0.0
C105 C 0.10231 0.01297 0.63664 0.0
P106 P 0.61439 0.57793 0.93479 0.0
H107 H 0.55867 0.64364 0.98979 0.0
H108 H 0.44811 0.67236 -0.00049 0.0
H109 H 0.3788 0.56047 0.91813 0.0
H110 H 0.4897 0.53174 0.90868 0.0
H111 H 0.74765 0.57071 0.95845 0.0
H112 H 0.80701 0.50248 0.98105 0.0
H113 H 0.63311 0.40594 0.97219 0.0
H114 H 0.57358 0.47562 0.95099 0.0
H115 H 0.57287 0.64 0.88494 0.0
H116 H 0.64876 0.48627 0.88763 0.0
O117 O 0.65449 0.63448 0.94526 0.0
H118 H 0.56529 0.62339 0.82522 0.0
H119 H 0.64071 0.46911 0.82788 0.0
C120 C 0.5325 0.58672 0.94797 0.0
C121 C 0.51948 0.6242 0.97467 0.0
C122 C 0.45607 0.64042 0.98028 0.0
C123 C 0.40478 0.61939 0.95914 0.0
C124 C 0.41744 0.57807 0.93442 0.0
C125 C 0.48083 0.5616 0.92904 0.0
C126 C 0.65602 0.52848 0.95352 0.0
C127 C 0.7221 0.53512 0.96184 0.0
C128 C 0.75626 0.4957 0.97439 0.0
C129 C 0.72514 0.44842 0.97846 0.0
C130 C 0.65858 0.44211 0.97009 0.0
C131 C 0.62437 0.48182 0.95778 0.0
C132 C 0.61211 0.56471 0.89072 0.0
C133 C 0.58811 0.6027 0.87263 0.0
C134 C 0.58317 0.59294 0.8385 0.0
C135 C 0.60227 0.54487 0.82173 0.0
C136 C 0.62623 0.50674 0.84001 0.0
C137 C 0.63083 0.51651 0.87423 0.0
P138 P 0.58269 0.46129 0.0739 0.0
H139 H 0.55666 0.38433 0.01649 0.0
H140 H 0.45664 0.35004 0.9888 0.0
H141 H 0.34918 0.46802 0.04802 0.0
H142 H 0.45034 0.50171 0.07605 0.0
H143 H 0.71954 0.47775 0.06126 0.0
H144 H 0.78131 0.55524 0.05172 0.0
H145 H 0.60372 0.64062 0.04883 0.0
H146 H 0.54228 0.56305 0.05854 0.0
H147 H 0.48996 0.41475 0.11369 0.0
H148 H 0.63532 0.53772 0.12804 0.0
O149 O 0.62976 0.40922 0.07143 0.0
H150 H 0.46863 0.42874 0.17203 0.0
H151 H 0.61388 0.55218 0.18648 0.0
C152 C 0.51062 0.44451 0.0489 0.0
C153 C 0.5118 0.40351 0.02308 0.0
C154 C 0.45431 0.38422 0.00702 0.0
C155 C 0.39441 0.40579 0.01644 0.0
C156 C 0.39422 0.44987 0.04056 0.0
C157 C 0.45201 0.46924 0.05655 0.0
C158 C 0.62631 0.5147 0.06051 0.0
C159 C 0.69374 0.51283 0.0579 0.0
C160 C 0.72906 0.55712 0.05241 0.0
C161 C 0.69743 0.60413 0.04988 0.0
C162 C 0.62949 0.60508 0.05108 0.0
C163 C 0.59425 0.56072 0.05639 0.0
C164 C 0.56287 0.47614 0.11631 0.0
C165 C 0.51632 0.44554 0.12928 0.0
C166 C 0.50419 0.45357 0.16267 0.0
C167 C 0.53927 0.49183 0.18388 0.0
C168 C 0.58623 0.52229 0.17081 0.0
C169 C 0.59806 0.51438 0.13731 0.0
H170 H 0.21763 0.13053 0.93855 0.0
H171 H 0.28664 0.38981 0.05138 0.0
H172 H 0.10959 0.17823 0.02478 0.0
H173 H 0.36243 0.3559 0.9546 0.0
H174 H 0.20131 0.32456 0.03603 0.0
H175 H 0.24828 0.22141 0.93653 0.0
C176 C 0.19807 0.16064 0.95624 0.0
C177 C 0.16133 0.14722 0.98189 0.0
C178 C 0.23556 0.3322 0.01782 0.0
C179 C 0.19922 0.2509 0.98105 0.0
C180 C 0.28434 0.36987 0.02654 0.0
C181 C 0.33318 0.37742 0.00456 0.0
C182 C 0.23615 0.30123 0.9871 0.0
C183 C 0.32726 0.35011 0.97275 0.0
C184 C 0.21605 0.21256 0.95532 0.0
C185 C 0.1379 0.18731 0.00455 0.0
N186 N 0.28072 0.31239 0.96524 0.0
N187 N 0.15884 0.23734 0.0042 0.0
H188 H 0.10544 0.83761 0.01749 0.0
H189 H 0.33417 0.64498 0.90699 0.0
H190 H 0.1789 0.86598 0.92481 0.0
H191 H 0.33275 0.65674 0.01226 0.0
H192 H 0.24387 0.70487 0.90838 0.0
H193 H 0.15524 0.7511 0.0101 0.0
C194 C 0.12961 0.82461 0.99496 0.0
C195 C 0.13815 0.85853 0.97163 0.0
C196 C 0.26239 0.6934 0.93111 0.0
C197 C 0.19531 0.76072 0.96321 0.0
C198 C 0.31366 0.65887 0.93037 0.0
C199 C 0.34161 0.64622 0.95962 0.0
C200 C 0.23854 0.71532 0.96128 0.0
C201 C 0.31333 0.66612 0.98918 0.0
C202 C 0.15857 0.77567 0.99095 0.0
C203 C 0.17115 0.84065 0.94323 0.0
N204 N 0.26376 0.70021 0.98931 0.0
N205 N 0.19901 0.79311 0.93992 0.0
H206 H 0.94462 0.84922 0.99445 0.0
H207 H 0.67891 0.69902 0.08531 0.0
H208 H 0.80368 0.92322 0.05937 0.0
H209 H 0.80293 0.62023 0.01285 0.0
H210 H 0.7386 0.78006 0.083 0.0
H211 H 0.91007 0.76388 0.00878 0.0
C212 C 0.90823 0.84755 0.01267 0.0
C213 C 0.8768 0.89289 0.02588 0.0
C214 C 0.7531 0.74514 0.0676 0.0
C215 C 0.83615 0.79631 0.04167 0.0
C216 C 0.71855 0.6989 0.0687 0.0
C217 C 0.7351 0.65306 0.04874 0.0
C218 C 0.80454 0.74598 0.04617 0.0
C219 C 0.7883 0.65486 0.02846 0.0
C220 C 0.88792 0.79895 0.02051 0.0
C221 C 0.82902 0.88894 0.04877 0.0
N222 N 0.82077 0.70077 0.0274 0.0
N223 N 0.80972 0.8415 0.05569 0.0
H224 H 0.99042 0.19765 0.99518 0.0
H225 H 0.68332 0.3794 0.0184 0.0
H226 H 0.82296 0.16508 0.04939 0.0
H227 H 0.85107 0.41892 0.96646 0.0
H228 H 0.74158 0.30723 0.03664 0.0
H229 H 0.9504 0.28595 0.99248 0.0
C230 C 0.94655 0.20975 0.00756 0.0
C231 C 0.90959 0.17403 0.0223 0.0
C232 C 0.76613 0.33197 0.02156 0.0
C233 C 0.8627 0.27396 0.01856 0.0
C234 C 0.73259 0.37325 0.01104 0.0
C235 C 0.76197 0.40563 0.99091 0.0
C236 C 0.82959 0.322 0.01145 0.0
C237 C 0.82639 0.39548 0.98223 0.0
C238 C 0.92324 0.25988 0.00565 0.0
C239 C 0.85256 0.19135 0.03751 0.0
N240 N 0.85774 0.35424 0.99223 0.0
N241 N 0.83044 0.23971 0.03484 0.0
H242 H 0.6068 0.67777 0.52413 0.0
H243 H 0.86354 0.86041 0.45366 0.0
H244 H 0.72688 0.63198 0.44199 0.0
H245 H 0.79144 0.88544 0.55156 0.0
H246 H 0.77887 0.79379 0.43853 0.0
H247 H 0.63824 0.7693 0.52253 0.0
C248 C 0.63718 0.68733 0.50475 0.0
C249 C 0.66479 0.64767 0.48327 0.0
C250 C 0.78063 0.81489 0.46308 0.0
C251 C 0.70193 0.75133 0.48171 0.0
C252 C 0.82912 0.85278 0.4718 0.0
C253 C 0.83603 0.87748 0.50422 0.0
C254 C 0.7388 0.80152 0.48696 0.0
C255 C 0.78863 0.86713 0.52636 0.0
C256 C 0.65572 0.73941 0.50407 0.0
C257 C 0.70486 0.6617 0.459 0.0
N258 N 0.74292 0.82912 0.51752 0.0
N259 N 0.72316 0.71234 0.4592 0.0
H260 H 0.60803 0.33802 0.51863 0.0
H261 H 0.83524 0.14534 0.40713 0.0
H262 H 0.6799 0.3665 0.42565 0.0
H263 H 0.83472 0.1564 0.51239 0.0
H264 H 0.74535 0.20566 0.40891 0.0
H265 H 0.65798 0.25157 0.51102 0.0
C266 C 0.63187 0.32505 0.49599 0.0
C267 C 0.63987 0.35898 0.47261 0.0
C268 C 0.76399 0.19396 0.43155 0.0
C269 C 0.69727 0.26124 0.46397 0.0
C270 C 0.81502 0.15918 0.43059 0.0
C271 C 0.84309 0.14615 0.45972 0.0
C272 C 0.74047 0.21578 0.46183 0.0
C273 C 0.81519 0.16604 0.48939 0.0
C274 C 0.66093 0.27615 0.49186 0.0
C275 C 0.67251 0.34115 0.44409 0.0
N276 N 0.76584 0.20036 0.48973 0.0
N277 N 0.70049 0.29365 0.44067 0.0
H278 H 0.44661 0.35022 0.49499 0.0
H279 H 0.18093 0.19861 0.58509 0.0
H280 H 0.30471 0.42348 0.55962 0.0
H281 H 0.30527 0.12064 0.51246 0.0
H282 H 0.2402 0.27991 0.58295 0.0
H283 H 0.4121 0.26466 0.509 0.0
C284 C 0.41 0.34834 0.51308 0.0
C285 C 0.37831 0.39355 0.52631 0.0
C286 C 0.25485 0.24511 0.56747 0.0
C287 C 0.33773 0.29671 0.54173 0.0
C288 C 0.22054 0.19873 0.56848 0.0
C289 C 0.23731 0.15303 0.54843 0.0
C290 C 0.30629 0.24624 0.54607 0.0
C291 C 0.29047 0.15514 0.52815 0.0
C292 C 0.38972 0.29962 0.52073 0.0
C293 C 0.33026 0.38932 0.54902 0.0
N294 N 0.32272 0.20119 0.5272 0.0
N295 N 0.31101 0.34176 0.55576 0.0
H296 H 0.32816 0.66628 0.55272 0.0
H297 H 0.35554 0.92207 0.46559 0.0
H298 H 0.4893 0.69815 0.49406 0.0
H299 H 0.18867 0.87735 0.51643 0.0
H300 H 0.41476 0.84975 0.484 0.0
H301 H 0.28869 0.75387 0.54976 0.0
C302 C 0.35628 0.69244 0.54001 0.0
C303 C 0.41182 0.67496 0.52347 0.0
C304 C 0.36544 0.85626 0.49148 0.0
C305 C 0.36562 0.77475 0.51884 0.0
C306 C 0.33152 0.89774 0.48109 0.0
C307 C 0.26665 0.90617 0.48952 0.0
C308 C 0.33446 0.82289 0.51051 0.0
C309 C 0.23816 0.87247 0.50915 0.0
C310 C 0.3334 0.7423 0.53803 0.0
C311 C 0.44644 0.7103 0.5073 0.0
N312 N 0.27204 0.83238 0.51883 0.0
N313 N 0.42202 0.7583 0.5048 0.0
H314 H 0.99398 0.03732 0.11436 0.0
H315 H 0.1921 -0.00183 0.27904 0.0
H316 H 0.19491 -0.00527 0.11832 0.0
H317 H 1.00374 0.06786 0.27922 0.0
H318 H 0.18803 -0.01292 0.21934 0.0
H319 H 0.9912 0.04004 0.17404 0.0
C320 C 0.03734 0.02832 0.12768 0.0
C321 C 0.09487 0.01615 0.11124 0.0
C322 C 0.14744 0.00468 0.23239 0.0
C323 C 0.09193 0.01893 0.17939 0.0
C324 C 0.14955 0.01067 0.26654 0.0
C325 C 0.09834 0.03421 0.28426 0.0
C326 C 0.0936 0.02214 0.21566 0.0
C327 C 0.04477 0.05022 0.26659 0.0
C328 C 0.03576 0.02999 0.16173 0.0
C329 C 0.14956 0.00477 0.12984 0.0
N330 N 0.04383 0.04398 0.2333 0.0
N331 N 0.1467 0.00647 0.16278 0.0
H332 H 0.87336 0.00119 0.87251 0.0
H333 H 0.13612 0.00654 0.73414 0.0
H334 H 0.07902 0.01532 0.89404 0.0
H335 H 0.93055 -0.01377 0.71437 0.0
H336 H 0.11677 0.01388 0.79282 0.0
H337 H 0.89413 -0.00113 0.81463 0.0
C338 C 0.923 0.00379 0.86511 0.0
C339 C 0.97453 0.00831 0.88829 0.0
C340 C 0.07592 0.00793 0.77563 0.0
C341 C 0.9987 0.00572 0.82166 0.0
C342 C 0.08687 0.00408 0.74214 0.0
C343 C 0.03487 -0.00443 0.71926 0.0
C344 C 0.01248 0.0034 0.78637 0.0
C345 C 0.97218 -0.00798 0.73105 0.0
C346 C 0.93482 0.00249 0.83195 0.0
C347 C 0.03778 0.01166 0.87707 0.0
N348 N 0.96281 -0.00411 0.76372 0.0
N349 N 0.04809 0.01025 0.84453 0.0
H350 H 0.49541 0.53872 0.61534 0.0
H351 H 0.69147 0.49764 0.78022 0.0
H352 H 0.69548 0.49384 0.6195 0.0
H353 H 0.50501 0.57042 0.78019 0.0
H354 H 0.68748 0.48618 0.7205 0.0
H355 H 0.49224 0.54161 0.67502 0.0
C356 C 0.53849 0.52924 0.6287 0.0
C357 C 0.59591 0.5164 0.61233 0.0
C358 C 0.64729 0.50454 0.73352 0.0
C359 C 0.59253 0.51938 0.68046 0.0
C360 C 0.64935 0.51075 0.76766 0.0
C361 C 0.59866 0.53526 0.78532 0.0
C362 C 0.59403 0.52276 0.71673 0.0
C363 C 0.54564 0.55202 0.7676 0.0
C364 C 0.5367 0.53101 0.66275 0.0
C365 C 0.65024 0.50442 0.63097 0.0
N366 N 0.54473 0.54555 0.73431 0.0
N367 N 0.64718 0.50623 0.66391 0.0
H368 H 0.58181 0.51637 0.39549 0.0
H369 H 0.42342 0.49234 0.21439 0.0
H370 H 0.37625 0.504 0.37341 0.0
H371 H 0.62931 0.50646 0.23469 0.0
H372 H 0.4058 0.49864 0.27297 0.0
H373 H 0.60093 0.51461 0.33707 0.0
C374 C 0.54071 0.51327 0.37842 0.0
C375 C 0.47731 0.51018 0.38944 0.0
C376 C 0.45488 0.50053 0.26469 0.0
C377 C 0.49887 0.50827 0.32258 0.0
C378 C 0.46496 0.49672 0.2312 0.0
C379 C 0.52794 0.49862 0.21958 0.0
C380 C 0.50815 0.50609 0.28688 0.0
C381 C 0.57989 0.50525 0.24257 0.0
C382 C 0.55167 0.51235 0.34507 0.0
C383 C 0.42598 0.50637 0.36615 0.0
N384 N 0.56887 0.50849 0.27511 0.0
N385 N 0.43792 0.50546 0.33391 0.0
loop_
_geom_bond_atom_site_label_1
_geom_bond_atom_site_label_2
_geom_bond_distance
_geom_bond_site_symmetry_2
_ccdc_geom_bond_type
O0 Mg1 1.990 . S
O0 C14 1.253 . S
Mg1 O0 1.990 . S
Mg1 O4 2.180 . S
Mg1 O5 2.117 . S
Mg1 O19 2.030 1_545 S
O2 Mg3 2.083 . S
O2 C14 1.260 . S
Mg3 O2 2.083 . S
Mg3 O4 2.100 . S
Mg3 O6 2.067 1_554 S
Mg3 O7 2.072 . S
Mg3 O9 2.097 1_444 S
Mg3 O20 2.079 1_544 S
O4 Mg1 2.180 . S
O4 Mg3 2.100 . S
O4 C15 1.279 . S
O5 Mg1 2.117 . S
O5 C15 1.250 . S
O6 Mg3 2.067 1_556 S
O6 C16 1.264 . S
O7 Mg3 2.072 . S
O7 C17 1.253 1_454 S
Mg8 O9 2.180 1_545 S
Mg8 O10 2.030 . S
Mg8 O11 1.990 . S
Mg8 O12 2.117 1_545 S
O9 Mg3 2.097 1_666 S
O9 Mg8 2.180 1_565 S
O9 C18 1.279 1_556 S
O10 Mg8 2.030 . S
O10 C16 1.248 1_655 S
O11 Mg8 1.990 . S
O11 C17 1.262 . S
O12 Mg8 2.117 1_565 S
O12 C18 1.250 1_556 S
C13 O19 1.248 . S
C13 O20 1.264 1_554 S
C14 O0 1.253 . S
C14 O2 1.260 . S
C15 O4 1.279 . S
C15 O5 1.250 . S
C16 O6 1.264 . S
C16 O10 1.248 1_455 S
C17 O7 1.253 1_656 S
C17 O11 1.262 . S
C18 O9 1.279 1_554 S
C18 O12 1.250 1_554 S
O19 Mg1 2.030 1_565 S
O19 C13 1.248 . S
O20 Mg3 2.079 1_566 S
O20 C13 1.264 1_556 S
O21 Mg22 1.990 . S
O21 C35 1.253 . S
Mg22 O21 1.990 . S
Mg22 O25 2.180 . S
Mg22 O26 2.117 . S
Mg22 O40 2.030 . S
O23 Mg24 2.072 . S
O23 C35 1.260 . S
Mg24 O23 2.072 . S
Mg24 O25 2.099 . S
Mg24 O27 2.079 . S
Mg24 O28 2.072 . S
Mg24 O30 2.099 . S
Mg24 O41 2.079 . S
O25 Mg22 2.180 . S
O25 Mg24 2.099 . S
O25 C36 1.279 . S
O26 Mg22 2.117 . S
O26 C36 1.250 . S
O27 Mg24 2.079 . S
O27 C37 1.264 . S
O28 Mg24 2.072 . S
O28 C38 1.260 . S
Mg29 O30 2.180 . S
Mg29 O31 2.030 . S
Mg29 O32 1.990 . S
Mg29 O33 2.117 . S
O30 Mg24 2.099 . S
O30 Mg29 2.180 . S
O30 C39 1.279 . S
O31 Mg29 2.030 . S
O31 C37 1.248 . S
O32 Mg29 1.990 . S
O32 C38 1.253 . S
O33 Mg29 2.117 . S
O33 C39 1.250 . S
C34 O40 1.248 . S
C34 O41 1.264 . S
C35 O21 1.253 . S
C35 O23 1.260 . S
C36 O25 1.279 . S
C36 O26 1.250 . S
C37 O27 1.264 . S
C37 O31 1.248 . S
C38 O28 1.260 . S
C38 O32 1.253 . S
C39 O30 1.279 . S
C39 O33 1.250 . S
O40 Mg22 2.030 . S
O40 C34 1.248 . S
O41 Mg24 2.079 . S
O41 C34 1.264 . S
P42 O53 1.490 . S
P42 C56 1.812 . S
P42 C62 1.803 1_545 S
P42 C68 1.819 . S
H43 C57 0.941 . S
H44 C58 0.940 . S
H45 C60 0.940 . S
H46 C61 0.940 . S
H47 C63 0.939 . S
H48 C64 0.942 . S
H49 C66 0.940 . S
H50 C67 0.939 . S
H51 C69 0.941 . S
H52 C73 0.939 . S
O53 P42 1.490 . S
H54 C70 0.939 . S
H55 C72 0.940 . S
C56 P42 1.812 . S
C56 C57 1.389 . S
C56 C61 1.391 1_455 S
C57 H43 0.941 . S
C57 C56 1.389 . S
C57 C58 1.397 1_455 S
C58 H44 0.940 . S
C58 C57 1.397 1_655 S
C58 C59 1.378 . S
C59 C58 1.378 . S
C59 C60 1.378 . S
C60 H45 0.940 . S
C60 C59 1.378 . S
C60 C61 1.396 . S
C61 H46 0.940 . S
C61 C56 1.391 1_655 S
C61 C60 1.396 . S
C62 P42 1.803 1_565 S
C62 C63 1.378 . S
C62 C67 1.400 . S
C63 H47 0.939 . S
C63 C62 1.378 . S
C63 C64 1.361 . S
C64 H48 0.942 . S
C64 C63 1.361 . S
C64 C65 1.369 . S
C65 C64 1.369 . S
C65 C66 1.404 . S
C66 H49 0.940 . S
C66 C65 1.404 . S
C66 C67 1.389 . S
C67 H50 0.939 . S
C67 C62 1.400 . S
C67 C66 1.389 . S
C68 P42 1.819 . S
C68 C69 1.391 . S
C68 C73 1.391 1_545 S
C69 H51 0.941 . S
C69 C68 1.391 . S
C69 C70 1.396 . S
C70 H54 0.939 . S
C70 C69 1.396 . S
C70 C71 1.397 . S
C71 C70 1.397 . S
C71 C72 1.385 1_545 S
C72 H55 0.940 . S
C72 C71 1.385 1_565 S
C72 C73 1.388 . S
C73 H52 0.939 . S
C73 C68 1.391 1_565 S
C73 C72 1.388 . S
P74 O85 1.490 1_545 S
P74 C88 1.797 1_445 S
P74 C94 1.803 . S
P74 C100 1.819 . S
H75 C89 0.941 . S
H76 C90 0.939 . S
H77 C92 0.940 1_545 S
H78 C93 0.940 . S
H79 C95 0.939 . S
H80 C96 0.942 . S
H81 C98 0.940 . S
H82 C99 0.955 . S
H83 C101 0.941 1_565 S
H84 C105 0.939 . S
O85 P74 1.490 1_565 S
H86 C102 0.939 1_565 S
H87 C104 0.940 . S
C88 P74 1.797 1_665 S
C88 C89 1.400 1_655 S
C88 C93 1.395 1_565 S
C89 H75 0.941 . S
C89 C88 1.400 1_455 S
C89 C90 1.397 1_455 S
C90 H76 0.939 . S
C90 C89 1.397 1_655 S
C90 C91 1.378 . S
C91 C90 1.378 . S
C91 C92 1.378 . S
C92 H77 0.940 1_565 S
C92 C91 1.378 . S
C92 C93 1.396 1_565 S
C93 H78 0.940 . S
C93 C88 1.395 1_545 S
C93 C92 1.396 1_545 S
C94 P74 1.803 . S
C94 C95 1.378 . S
C94 C99 1.400 . S
C95 H79 0.939 . S
C95 C94 1.378 . S
C95 C96 1.361 . S
C96 H80 0.942 . S
C96 C95 1.361 . S
C96 C97 1.369 . S
C97 C96 1.369 . S
C97 C98 1.404 . S
C98 H81 0.940 . S
C98 C97 1.404 . S
C98 C99 1.389 . S
C99 H82 0.955 . S
C99 C94 1.400 . S
C99 C98 1.389 . S
C100 P74 1.819 . S
C100 C101 1.391 . S
C100 C105 1.391 . S
C101 H83 0.941 1_545 S
C101 C100 1.391 . S
C101 C102 1.396 . S
C102 H86 0.939 1_545 S
C102 C101 1.396 . S
C102 C103 1.397 . S
C103 C102 1.397 . S
C103 C104 1.385 . S
C104 H87 0.940 . S
C104 C103 1.385 . S
C104 C105 1.388 . S
C105 H84 0.939 . S
C105 C100 1.391 . S
C105 C104 1.388 . S
P106 O117 1.490 . S
P106 C120 1.812 . S
P106 C126 1.803 . S
P106 C132 1.819 . S
H107 C121 0.941 . S
H108 C122 0.939 1_554 S
H109 C124 0.940 . S
H110 C125 0.940 . S
H111 C127 0.939 . S
H112 C128 0.942 . S
H113 C130 0.940 . S
H114 C131 0.939 . S
H115 C133 0.941 . S
H116 C137 0.939 . S
O117 P106 1.490 . S
H118 C134 0.939 . S
H119 C136 0.940 . S
C120 P106 1.812 . S
C120 C121 1.389 . S
C120 C125 1.391 . S
C121 H107 0.941 . S
C121 C120 1.389 . S
C121 C122 1.397 . S
C122 H108 0.939 1_556 S
C122 C121 1.397 . S
C122 C123 1.378 . S
C123 C122 1.378 . S
C123 C124 1.378 . S
C124 H109 0.940 . S
C124 C123 1.378 . S
C124 C125 1.396 . S
C125 H110 0.940 . S
C125 C120 1.391 . S
C125 C124 1.396 . S
C126 P106 1.803 . S
C126 C127 1.378 . S
C126 C131 1.400 . S
C127 H111 0.939 . S
C127 C126 1.378 . S
C127 C128 1.361 . S
C128 H112 0.942 . S
C128 C127 1.361 . S
C128 C129 1.369 . S
C129 C128 1.369 . S
C129 C130 1.404 . S
C130 H113 0.940 . S
C130 C129 1.404 . S
C130 C131 1.389 . S
C131 H114 0.939 . S
C131 C126 1.400 . S
C131 C130 1.389 . S
C132 P106 1.819 . S
C132 C133 1.391 . S
C132 C137 1.391 . S
C133 H115 0.941 . S
C133 C132 1.391 . S
C133 C134 1.396 . S
C134 H118 0.939 . S
C134 C133 1.396 . S
C134 C135 1.397 . S
C135 C134 1.397 . S
C135 C136 1.385 . S
C136 H119 0.940 . S
C136 C135 1.385 . S
C136 C137 1.388 . S
C137 H116 0.939 . S
C137 C132 1.391 . S
C137 C136 1.388 . S
P138 O149 1.490 . S
P138 C152 1.812 . S
P138 C158 1.803 . S
P138 C164 1.819 . S
H139 C153 0.941 . S
H140 C154 0.939 . S
H141 C156 0.940 . S
H142 C157 0.940 . S
H143 C159 0.939 . S
H144 C160 0.942 . S
H145 C162 0.940 . S
H146 C163 0.939 . S
H147 C165 0.941 . S
H148 C169 0.939 . S
O149 P138 1.490 . S
H150 C166 0.939 . S
H151 C168 0.940 . S
C152 P138 1.812 . S
C152 C153 1.389 . S
C152 C157 1.391 . S
C153 H139 0.941 . S
C153 C152 1.389 . S
C153 C154 1.397 . S
C154 H140 0.939 . S
C154 C153 1.397 . S
C154 C155 1.378 . S
C155 C154 1.378 . S
C155 C156 1.378 . S
C156 H141 0.940 . S
C156 C155 1.378 . S
C156 C157 1.396 . S
C157 H142 0.940 . S
C157 C152 1.391 . S
C157 C156 1.396 . S
C158 P138 1.803 . S
C158 C159 1.378 . S
C158 C163 1.400 . S
C159 H143 0.939 . S
C159 C158 1.378 . S
C159 C160 1.361 . S
C160 H144 0.942 . S
C160 C159 1.361 . S
C160 C161 1.369 . S
C161 C160 1.369 . S
C161 C162 1.404 . S
C162 H145 0.940 . S
C162 C161 1.404 . S
C162 C163 1.389 . S
C163 H146 0.939 . S
C163 C158 1.400 . S
C163 C162 1.389 . S
C164 P138 1.819 . S
C164 C165 1.391 . S
C164 C169 1.391 . S
C165 H147 0.941 . S
C165 C164 1.391 . S
C165 C166 1.396 . S
C166 H150 0.939 . S
C166 C165 1.396 . S
C166 C167 1.397 . S
C167 C166 1.397 . S
C167 C168 1.385 . S
C168 H151 0.940 . S
C168 C167 1.385 . S
C168 C169 1.388 . S
C169 H148 0.939 . S
C169 C164 1.391 . S
C169 C168 1.388 . S
H170 C176 0.930 . S
H171 C180 0.930 . S
H172 C185 0.929 . S
H173 C183 0.929 . S
H174 C178 0.929 . S
H175 C184 0.929 . S
C176 H170 0.930 . S
C176 C177 1.367 1_556 S
C176 C184 1.378 . S
C177 C176 1.367 1_554 S
C177 C185 1.433 . S
C178 H174 0.929 . S
C178 C180 1.378 . S
C178 C182 1.350 . S
C179 C182 1.463 . S
C179 C184 1.350 1_554 S
C179 N187 1.427 . S
C180 H171 0.930 . S
C180 C178 1.378 . S
C180 C181 1.367 . S
C181 C180 1.367 . S
C181 C183 1.433 1_554 S
C182 C178 1.350 . S
C182 C179 1.463 . S
C182 N186 1.427 1_554 S
C183 H173 0.929 . S
C183 C181 1.433 1_556 S
C183 N186 1.384 . S
C184 H175 0.929 . S
C184 C176 1.378 . S
C184 C179 1.350 1_556 S
C185 H172 0.929 . S
C185 C177 1.433 . S
C185 N187 1.384 . S
N186 C182 1.427 1_556 S
N186 C183 1.384 . S
N187 C179 1.427 . S
N187 C185 1.384 . S
H188 C194 0.930 . S
H189 C198 0.930 . S
H190 C203 0.929 . S
H191 C201 0.929 . S
H192 C196 0.929 . S
H193 C202 0.929 . S
C194 H188 0.930 . S
C194 C195 1.367 . S
C194 C202 1.378 . S
C195 C194 1.367 . S
C195 C203 1.433 1_554 S
C196 H192 0.929 . S
C196 C198 1.378 . S
C196 C200 1.350 . S
C197 C200 1.463 . S
C197 C202 1.350 1_556 S
C197 N205 1.427 . S
C198 H189 0.930 . S
C198 C196 1.378 . S
C198 C199 1.367 . S
C199 C198 1.367 . S
C199 C201 1.433 1_556 S
C200 C196 1.350 . S
C200 C197 1.463 . S
C200 N204 1.427 1_556 S
C201 H191 0.929 . S
C201 C199 1.433 1_554 S
C201 N204 1.384 . S
C202 H193 0.929 . S
C202 C194 1.378 . S
C202 C197 1.350 1_554 S
C203 H190 0.929 . S
C203 C195 1.433 1_556 S
C203 N205 1.384 . S
N204 C200 1.427 1_554 S
N204 C201 1.384 . S
N205 C197 1.427 . S
N205 C203 1.384 . S
H206 C212 0.930 . S
H207 C216 0.930 . S
H208 C221 0.929 . S
H209 C219 0.929 1_556 S
H210 C214 0.929 . S
H211 C220 0.929 . S
C212 H206 0.930 . S
C212 C213 1.367 1_556 S
C212 C220 1.378 . S
C213 C212 1.367 1_554 S
C213 C221 1.433 . S
C214 H210 0.929 . S
C214 C216 1.378 . S
C214 C218 1.350 . S
C215 C218 1.463 . S
C215 C220 1.350 1_554 S
C215 N223 1.427 . S
C216 H207 0.930 . S
C216 C214 1.378 . S
C216 C217 1.367 . S
C217 C216 1.367 . S
C217 C219 1.433 . S
C218 C214 1.350 . S
C218 C215 1.463 . S
C218 N222 1.427 . S
C219 H209 0.929 1_554 S
C219 C217 1.433 . S
C219 N222 1.384 . S
C220 H211 0.929 . S
C220 C212 1.378 . S
C220 C215 1.350 1_556 S
C221 H208 0.929 . S
C221 C213 1.433 . S
C221 N223 1.384 . S
N222 C218 1.427 . S
N222 C219 1.384 . S
N223 C215 1.427 . S
N223 C221 1.384 . S
H224 C230 0.930 . S
H225 C234 0.930 . S
H226 C239 0.929 . S
H227 C237 0.929 . S
H228 C232 0.929 . S
H229 C238 0.929 . S
C230 H224 0.930 . S
C230 C231 1.367 . S
C230 C238 1.378 . S
C231 C230 1.367 . S
C231 C239 1.433 1_556 S
C232 H228 0.929 . S
C232 C234 1.378 . S
C232 C236 1.350 1_554 S
C233 C236 1.463 . S
C233 C238 1.350 . S
C233 N241 1.427 1_556 S
C234 H225 0.930 . S
C234 C232 1.378 . S
C234 C235 1.367 1_554 S
C235 C234 1.367 1_556 S
C235 C237 1.433 . S
C236 C232 1.350 1_556 S
C236 C233 1.463 . S
C236 N240 1.427 . S
C237 H227 0.929 . S
C237 C235 1.433 . S
C237 N240 1.384 . S
C238 H229 0.929 . S
C238 C230 1.378 . S
C238 C233 1.350 . S
C239 H226 0.929 . S
C239 C231 1.433 1_554 S
C239 N241 1.384 . S
N240 C236 1.427 . S
N240 C237 1.384 . S
N241 C233 1.427 1_554 S
N241 C239 1.384 . S
H242 C248 0.930 . S
H243 C252 0.930 . S
H244 C257 0.929 . S
H245 C255 0.929 . S
H246 C250 0.929 . S
H247 C256 0.929 . S
C248 H242 0.930 . S
C248 C249 1.367 . S
C248 C256 1.378 . S
C249 C248 1.367 . S
C249 C257 1.433 . S
C250 H246 0.929 . S
C250 C252 1.378 . S
C250 C254 1.350 . S
C251 C254 1.463 . S
C251 C256 1.350 . S
C251 N259 1.427 . S
C252 H243 0.930 . S
C252 C250 1.378 . S
C252 C253 1.367 . S
C253 C252 1.367 . S
C253 C255 1.433 . S
C254 C250 1.350 . S
C254 C251 1.463 . S
C254 N258 1.427 . S
C255 H245 0.929 . S
C255 C253 1.433 . S
C255 N258 1.384 . S
C256 H247 0.929 . S
C256 C248 1.378 . S
C256 C251 1.350 . S
C257 H244 0.929 . S
C257 C249 1.433 . S
C257 N259 1.384 . S
N258 C254 1.427 . S
N258 C255 1.384 . S
N259 C251 1.427 . S
N259 C257 1.384 . S
H260 C266 0.930 . S
H261 C270 0.930 . S
H262 C275 0.929 . S
H263 C273 0.929 . S
H264 C268 0.929 . S
H265 C274 0.929 . S
C266 H260 0.930 . S
C266 C267 1.367 . S
C266 C274 1.378 . S
C267 C266 1.367 . S
C267 C275 1.433 . S
C268 H264 0.929 . S
C268 C270 1.378 . S
C268 C272 1.350 . S
C269 C272 1.463 . S
C269 C274 1.350 . S
C269 N277 1.427 . S
C270 H261 0.930 . S
C270 C268 1.378 . S
C270 C271 1.367 . S
C271 C270 1.367 . S
C271 C273 1.433 . S
C272 C268 1.350 . S
C272 C269 1.463 . S
C272 N276 1.427 . S
C273 H263 0.929 . S
C273 C271 1.433 . S
C273 N276 1.384 . S
C274 H265 0.929 . S
C274 C266 1.378 . S
C274 C269 1.350 . S
C275 H262 0.929 . S
C275 C267 1.433 . S
C275 N277 1.384 . S
N276 C272 1.427 . S
N276 C273 1.384 . S
N277 C269 1.427 . S
N277 C275 1.384 . S
H278 C284 0.930 . S
H279 C288 0.930 . S
H280 C293 0.929 . S
H281 C291 0.929 . S
H282 C286 0.929 . S
H283 C292 0.929 . S
C284 H278 0.930 . S
C284 C285 1.367 . S
C284 C292 1.378 . S
C285 C284 1.367 . S
C285 C293 1.433 . S
C286 H282 0.929 . S
C286 C288 1.378 . S
C286 C290 1.350 . S
C287 C290 1.463 . S
C287 C292 1.350 . S
C287 N295 1.427 . S
C288 H279 0.930 . S
C288 C286 1.378 . S
C288 C289 1.367 . S
C289 C288 1.367 . S
C289 C291 1.433 . S
C290 C286 1.350 . S
C290 C287 1.463 . S
C290 N294 1.427 . S
C291 H281 0.929 . S
C291 C289 1.433 . S
C291 N294 1.384 . S
C292 H283 0.929 . S
C292 C284 1.378 . S
C292 C287 1.350 . S
C293 H280 0.929 . S
C293 C285 1.433 . S
C293 N295 1.384 . S
N294 C290 1.427 . S
N294 C291 1.384 . S
N295 C287 1.427 . S
N295 C293 1.384 . S
H296 C302 0.930 . S
H297 C306 0.930 . S
H298 C311 0.929 . S
H299 C309 0.929 . S
H300 C304 0.929 . S
H301 C310 0.929 . S
C302 H296 0.930 . S
C302 C303 1.367 . S
C302 C310 1.378 . S
C303 C302 1.367 . S
C303 C311 1.433 . S
C304 H300 0.929 . S
C304 C306 1.378 . S
C304 C308 1.350 . S
C305 C308 1.463 . S
C305 C310 1.350 . S
C305 N313 1.427 . S
C306 H297 0.930 . S
C306 C304 1.378 . S
C306 C307 1.367 . S
C307 C306 1.367 . S
C307 C309 1.433 . S
C308 C304 1.350 . S
C308 C305 1.463 . S
C308 N312 1.427 . S
C309 H299 0.929 . S
C309 C307 1.433 . S
C309 N312 1.384 . S
C310 H301 0.929 . S
C310 C302 1.378 . S
C310 C305 1.350 . S
C311 H298 0.929 . S
C311 C303 1.433 . S
C311 N313 1.384 . S
N312 C308 1.427 . S
N312 C309 1.384 . S
N313 C305 1.427 . S
N313 C311 1.384 . S
H314 C320 0.930 1_655 S
H315 C324 0.930 . S
H316 C329 0.929 . S
H317 C327 0.929 1_655 S
H318 C322 0.929 . S
H319 C328 0.929 1_655 S
C320 H314 0.930 1_455 S
C320 C321 1.367 . S
C320 C328 1.378 . S
C321 C320 1.367 . S
C321 C329 1.433 1_545 S
C322 H318 0.929 . S
C322 C324 1.378 . S
C322 C326 1.350 1_565 S
C323 C326 1.463 . S
C323 C328 1.350 . S
C323 N331 1.427 1_545 S
C324 H315 0.930 . S
C324 C322 1.378 . S
C324 C325 1.367 . S
C325 C324 1.367 . S
C325 C327 1.433 1_565 S
C326 C322 1.350 1_545 S
C326 C323 1.463 . S
C326 N330 1.427 . S
C327 H317 0.929 1_455 S
C327 C325 1.433 1_545 S
C327 N330 1.384 . S
C328 H319 0.929 1_455 S
C328 C320 1.378 . S
C328 C323 1.350 . S
C329 H316 0.929 . S
C329 C321 1.433 1_565 S
C329 N331 1.384 . S
N330 C326 1.427 . S
N330 C327 1.384 . S
N331 C323 1.427 1_565 S
N331 C329 1.384 . S
H332 C338 0.930 1_565 S
H333 C342 0.930 . S
H334 C347 0.929 . S
H335 C345 0.929 . S
H336 C340 0.929 . S
H337 C346 0.929 . S
C338 H332 0.930 1_545 S
C338 C339 1.367 1_655 S
C338 C346 1.378 . S
C339 C338 1.367 1_455 S
C339 C347 1.433 . S
C340 H336 0.929 . S
C340 C342 1.378 . S
C340 C344 1.350 . S
C341 C344 1.463 . S
C341 C346 1.350 1_455 S
C341 N349 1.427 . S
C342 H333 0.930 . S
C342 C340 1.378 . S
C342 C343 1.367 . S
C343 C342 1.367 . S
C343 C345 1.433 1_455 S
C344 C340 1.350 . S
C344 C341 1.463 . S
C344 N348 1.427 1_455 S
C345 H335 0.929 . S
C345 C343 1.433 1_655 S
C345 N348 1.384 . S
C346 H337 0.929 . S
C346 C338 1.378 . S
C346 C341 1.350 1_655 S
C347 H334 0.929 . S
C347 C339 1.433 . S
C347 N349 1.384 . S
N348 C344 1.427 1_655 S
N348 C345 1.384 . S
N349 C341 1.427 . S
N349 C347 1.384 . S
H350 C356 0.930 . S
H351 C360 0.930 . S
H352 C365 0.929 . S
H353 C363 0.929 . S
H354 C358 0.929 . S
H355 C364 0.929 . S
C356 H350 0.930 . S
C356 C357 1.367 . S
C356 C364 1.378 . S
C357 C356 1.367 . S
C357 C365 1.433 . S
C358 H354 0.929 . S
C358 C360 1.378 . S
C358 C362 1.350 . S
C359 C362 1.463 . S
C359 C364 1.350 . S
C359 N367 1.427 . S
C360 H351 0.930 . S
C360 C358 1.378 . S
C360 C361 1.367 . S
C361 C360 1.367 . S
C361 C363 1.433 . S
C362 C358 1.350 . S
C362 C359 1.463 . S
C362 N366 1.427 . S
C363 H353 0.929 . S
C363 C361 1.433 . S
C363 N366 1.384 . S
C364 H355 0.929 . S
C364 C356 1.378 . S
C364 C359 1.350 . S
C365 H352 0.929 . S
C365 C357 1.433 . S
C365 N367 1.384 . S
N366 C362 1.427 . S
N366 C363 1.384 . S
N367 C359 1.427 . S
N367 C365 1.384 . S
H368 C374 0.930 . S
H369 C378 0.930 . S
H370 C383 0.929 . S
H371 C381 0.929 . S
H372 C376 0.929 . S
H373 C382 0.929 . S
C374 H368 0.930 . S
C374 C375 1.367 . S
C374 C382 1.378 . S
C375 C374 1.367 . S
C375 C383 1.433 . S
C376 H372 0.929 . S
C376 C378 1.378 . S
C376 C380 1.350 . S
C377 C380 1.463 . S
C377 C382 1.350 . S
C377 N385 1.427 . S
C378 H369 0.930 . S
C378 C376 1.378 . S
C378 C379 1.367 . S
C379 C378 1.367 . S
C379 C381 1.433 . S
C380 C376 1.350 . S
C380 C377 1.463 . S
C380 N384 1.427 . S
C381 H371 0.929 . S
C381 C379 1.433 . S
C381 N384 1.384 . S
C382 H373 0.929 . S
C382 C374 1.378 . S
C382 C377 1.350 . S
C383 H370 0.929 . S
C383 C375 1.433 . S
C383 N385 1.384 . S
N384 C380 1.427 . S
N384 C381 1.384 . S
N385 C377 1.427 . S
N385 C383 1.384 . S
C181 C155 1.394 . S
C177 C15 1.292 . S
C195 C13 1.482 . S
C199 C123 1.448 . S
C213 C18 1.279 . S
C217 C161 1.423 . S
C231 C17 1.328 . S
C235 C129 1.355 . S
C249 C36 1.272 . S
C253 C91 1.404 . S
C267 C34 1.480 . S
C271 C59 1.448 . S
C289 C97 1.423 . S
C285 C39 1.278 . S
C307 C65 1.352 . S
C303 C38 1.336 . S
C321 C14 1.509 . S
C325 C71 1.521 1_565 S
C339 C16 1.369 . S
C343 C103 1.375 . S
C361 C135 1.520 . S
C357 C35 1.510 . S
C375 C37 1.381 . S
C379 C167 1.376 . S
