# Generated by pormake.
# Topology pyr, (3,6)-cn, num edge types: 1
# Building blocks:
#     Node 0, Type 0, BuildingBlock: VETTIZ_charged_linker_0, # of connection points: 3
#     Node 1, Type 0, BuildingBlock: VETTIZ_charged_linker_0, # of connection points: 3
#     Node 2, Type 0, BuildingBlock: VETTIZ_charged_linker_0, # of connection points: 3
#     Node 3, Type 0, BuildingBlock: VETTIZ_charged_linker_0, # of connection points: 3
#     Node 4, Type 0, BuildingBlock: VETTIZ_charged_linker_0, # of connection points: 3
#     Node 5, Type 0, BuildingBlock: VETTIZ_charged_linker_0, # of connection points: 3
#     Node 6, Type 0, BuildingBlock: VETTIZ_charged_linker_0, # of connection points: 3
#     Node 7, Type 0, BuildingBlock: VETTIZ_charged_linker_0, # of connection points: 3
#     Node 8, Type 1, BuildingBlock: PAMTUU_clean_sbu_0, # of connection points: 6
#     Node 9, Type 1, BuildingBlock: PAMTUU_clean_sbu_0, # of connection points: 6
#     Node 10, Type 1, BuildingBlock: PAMTUU_clean_sbu_0, # of connection points: 6
#     Node 11, Type 1, BuildingBlock: PAMTUU_clean_sbu_0, # of connection points: 6
#     Edge 12, Type (0, 1), BuildingBlock: KIFKEQ_clean_linker_1, # of connection points: 2
#     Edge 13, Type (0, 1), BuildingBlock: KIFKEQ_clean_linker_1, # of connection points: 2
#     Edge 14, Type (0, 1), BuildingBlock: KIFKEQ_clean_linker_1, # of connection points: 2
#     Edge 15, Type (0, 1), BuildingBlock: KIFKEQ_clean_linker_1, # of connection points: 2
#     Edge 16, Type (0, 1), BuildingBlock: KIFKEQ_clean_linker_1, # of connection points: 2
#     Edge 17, Type (0, 1), BuildingBlock: KIFKEQ_clean_linker_1, # of connection points: 2
#     Edge 18, Type (0, 1), BuildingBlock: KIFKEQ_clean_linker_1, # of connection points: 2
#     Edge 19, Type (0, 1), BuildingBlock: KIFKEQ_clean_linker_1, # of connection points: 2
#     Edge 20, Type (0, 1), BuildingBlock: KIFKEQ_clean_linker_1, # of connection points: 2
#     Edge 21, Type (0, 1), BuildingBlock: KIFKEQ_clean_linker_1, # of connection points: 2
#     Edge 22, Type (0, 1), BuildingBlock: KIFKEQ_clean_linker_1, # of connection points: 2
#     Edge 23, Type (0, 1), BuildingBlock: KIFKEQ_clean_linker_1, # of connection points: 2
#     Edge 24, Type (0, 1), BuildingBlock: KIFKEQ_clean_linker_1, # of connection points: 2
#     Edge 25, Type (0, 1), BuildingBlock: KIFKEQ_clean_linker_1, # of connection points: 2
#     Edge 26, Type (0, 1), BuildingBlock: KIFKEQ_clean_linker_1, # of connection points: 2
#     Edge 27, Type (0, 1), BuildingBlock: KIFKEQ_clean_linker_1, # of connection points: 2
#     Edge 28, Type (0, 1), BuildingBlock: KIFKEQ_clean_linker_1, # of connection points: 2
#     Edge 29, Type (0, 1), BuildingBlock: KIFKEQ_clean_linker_1, # of connection points: 2
#     Edge 30, Type (0, 1), BuildingBlock: KIFKEQ_clean_linker_1, # of connection points: 2
#     Edge 31, Type (0, 1), BuildingBlock: KIFKEQ_clean_linker_1, # of connection points: 2
#     Edge 32, Type (0, 1), BuildingBlock: KIFKEQ_clean_linker_1, # of connection points: 2
#     Edge 33, Type (0, 1), BuildingBlock: KIFKEQ_clean_linker_1, # of connection points: 2
#     Edge 34, Type (0, 1), BuildingBlock: KIFKEQ_clean_linker_1, # of connection points: 2
#     Edge 35, Type (0, 1), BuildingBlock: KIFKEQ_clean_linker_1, # of connection points: 2
# Relax obj value: 0.086
# Max RMSD: 0.124
# Mean RMSD: 0.052
data_MOF--net-pyr--node1-PAMTUU_clean_sbu_0--node2-VETTIZ_charged_linker_0--edge1-KIFKEQ_clean_linker_1
_symmetry_space_group_name_H-M    P1
_symmetry_Int_Tables_number       1
_symmetry_cell_setting            triclinic
loop_
_symmetry_equiv_pos_as_xyz
'x, y, z'
_cell_length_a     47.311466
_cell_length_b     47.756499
_cell_length_c     45.292889
_cell_angle_alpha  90.113451
_cell_angle_beta   89.561735
_cell_angle_gamma 100.60462
loop_
_atom_site_label
_atom_site_type_symbol
_atom_site_fract_x
_atom_site_fract_y
_atom_site_fract_z
_atom_type_partial_charge
C0 C 0.30095 0.23516 0.32177 0.0
C1 C 0.27663 0.24302 0.33514 0.0
C2 C 0.26584 0.26628 0.32348 0.0
C3 C 0.29906 0.26879 0.28219 0.0
C4 C 0.31135 0.24778 0.29504 0.0
C5 C 0.33296 0.23774 0.27502 0.0
H6 H 0.38362 0.2266 0.13707 0.0
C7 C 0.31071 0.27336 0.25189 0.0
C8 C 0.3306 0.25529 0.24752 0.0
H9 H 0.40579 0.18639 0.21704 0.0
H10 H 0.37822 0.21415 0.24588 0.0
H11 H 0.39024 0.29096 0.16637 0.0
H12 H 0.3172 0.22357 0.15266 0.0
H13 H 0.30764 0.25603 0.14231 0.0
H14 H 0.33615 0.24354 0.12271 0.0
H15 H 0.37565 0.28212 0.13035 0.0
H16 H 0.3614 0.30646 0.15434 0.0
C17 C 0.36302 0.24567 0.28938 0.0
C18 C 0.32275 0.20535 0.26953 0.0
C19 C 0.26558 0.33498 0.18244 0.0
C20 C 0.26754 0.33965 0.15185 0.0
C21 C 0.28747 0.32744 0.13519 0.0
C22 C 0.30487 0.31046 0.14889 0.0
C23 C 0.30192 0.30528 0.17944 0.0
C24 C 0.2827 0.31776 0.19565 0.0
C25 C 0.28089 0.30873 0.22741 0.0
C26 C 0.30278 0.28925 0.22792 0.0
C27 C 0.31497 0.28713 0.19979 0.0
C28 C 0.29047 0.33552 0.24674 0.0
C29 C 0.24979 0.29255 0.23381 0.0
C30 C 0.38243 0.22375 0.16079 0.0
C31 C 0.3967 0.20402 0.17471 0.0
C32 C 0.3952 0.2015 0.20572 0.0
C33 C 0.37894 0.21747 0.22246 0.0
C34 C 0.36357 0.23588 0.20813 0.0
C35 C 0.36615 0.23953 0.17793 0.0
C36 C 0.34889 0.26085 0.16683 0.0
C37 C 0.33507 0.26876 0.19532 0.0
C38 C 0.34337 0.25357 0.21927 0.0
C39 C 0.36995 0.28645 0.15354 0.0
C40 C 0.32633 0.24546 0.1448 0.0
H41 H 0.26719 0.2961 0.28875 0.0
H42 H 0.31018 0.21781 0.33056 0.0
H43 H 0.29902 0.20031 0.2666 0.0
H44 H 0.33168 0.19749 0.24929 0.0
H45 H 0.32816 0.19263 0.28848 0.0
H46 H 0.36448 0.26481 0.30374 0.0
H47 H 0.3678 0.22801 0.30328 0.0
H48 H 0.38042 0.25156 0.27282 0.0
H49 H 0.24993 0.34339 0.19574 0.0
H50 H 0.28936 0.33081 0.11156 0.0
H51 H 0.31945 0.3015 0.13507 0.0
H52 H 0.30951 0.34957 0.23677 0.0
H53 H 0.27302 0.34812 0.24882 0.0
H54 H 0.29726 0.33037 0.26906 0.0
H55 H 0.23843 0.2844 0.21323 0.0
H56 H 0.24932 0.27326 0.2474 0.0
H57 H 0.23663 0.30657 0.24485 0.0
H58 H 0.24719 0.27293 0.33326 0.0
C59 C 0.27716 0.2794 0.29724 0.0
C60 C 0.14415 0.83322 0.68696 0.0
C61 C 0.13043 0.85307 0.70165 0.0
C62 C 0.13301 0.85592 0.73252 0.0
C63 C 0.16407 0.82093 0.73339 0.0
C64 C 0.16085 0.81743 0.70324 0.0
C65 C 0.17816 0.79647 0.69107 0.0
H66 H 0.27536 0.71121 0.71499 0.0
C67 C 0.18375 0.8024 0.7436 0.0
C68 C 0.1918 0.78764 0.71902 0.0
H69 H 0.24045 0.73164 0.63158 0.0
H70 H 0.20928 0.75891 0.65698 0.0
H71 H 0.28339 0.77409 0.73959 0.0
H72 H 0.21641 0.70089 0.7528 0.0
H73 H 0.22052 0.7192 0.78662 0.0
H74 H 0.25021 0.70468 0.77147 0.0
H75 H 0.28851 0.74307 0.75969 0.0
H76 H 0.27519 0.77172 0.77745 0.0
C77 C 0.20088 0.81253 0.66923 0.0
C78 C 0.15717 0.77129 0.67721 0.0
C79 C 0.22172 0.81235 0.84821 0.0
C80 C 0.24182 0.79941 0.86333 0.0
C81 C 0.25048 0.77529 0.85062 0.0
C82 C 0.24143 0.76596 0.82231 0.0
C83 C 0.22362 0.78092 0.80641 0.0
C84 C 0.21288 0.80272 0.81995 0.0
C85 C 0.19325 0.81541 0.80006 0.0
C86 C 0.19543 0.79875 0.77179 0.0
C87 C 0.21367 0.77898 0.7755 0.0
C88 C 0.20588 0.84754 0.79617 0.0
C89 C 0.16249 0.80908 0.81354 0.0
C90 C 0.26053 0.72104 0.70226 0.0
C91 C 0.26017 0.71918 0.67132 0.0
C92 C 0.24112 0.73289 0.65545 0.0
C93 C 0.22312 0.74873 0.67024 0.0
C94 C 0.22459 0.75131 0.70118 0.0
C95 C 0.24291 0.73734 0.71663 0.0
C96 C 0.24318 0.74386 0.7491 0.0
C97 C 0.22187 0.76398 0.75071 0.0
C98 C 0.21104 0.76831 0.7226 0.0
C99 C 0.2741 0.75882 0.75718 0.0
C100 C 0.23224 0.71578 0.76609 0.0
H101 H 0.15103 0.84333 0.77183 0.0
H102 H 0.14278 0.83075 0.6632 0.0
H103 H 0.13764 0.76527 0.69131 0.0
H104 H 0.16644 0.75177 0.67524 0.0
H105 H 0.15009 0.77704 0.65506 0.0
H106 H 0.20796 0.83512 0.67606 0.0
H107 H 0.19205 0.81259 0.64658 0.0
H108 H 0.22087 0.80371 0.66847 0.0
H109 H 0.21446 0.83083 0.85721 0.0
H110 H 0.26522 0.76431 0.8621 0.0
H111 H 0.24961 0.74818 0.81341 0.0
H112 H 0.2296 0.85088 0.79289 0.0
H113 H 0.20152 0.85988 0.81597 0.0
H114 H 0.19759 0.85706 0.77665 0.0
H115 H 0.15934 0.79002 0.82814 0.0
H116 H 0.14569 0.80385 0.79648 0.0
H117 H 0.15806 0.82727 0.827 0.0
H118 H 0.12232 0.87078 0.74436 0.0
C119 C 0.1496 0.83988 0.74846 0.0
C120 C 0.63879 0.27717 0.90837 0.0
C121 C 0.61258 0.26051 0.89922 0.0
C122 C 0.59764 0.27121 0.87607 0.0
C123 C 0.63464 0.31409 0.87229 0.0
C124 C 0.64916 0.30359 0.89492 0.0
C125 C 0.67625 0.32369 0.90311 0.0
H126 H 0.76722 0.44984 0.88819 0.0
C127 C 0.65161 0.34245 0.86335 0.0
C128 C 0.67594 0.34799 0.88162 0.0
H129 H 0.77191 0.38055 0.9484 0.0
H130 H 0.72935 0.35322 0.9276 0.0
H131 H 0.69647 0.44537 0.89071 0.0
H132 H 0.75175 0.40884 0.83167 0.0
H133 H 0.72354 0.41739 0.81059 0.0
H134 H 0.74806 0.44546 0.82885 0.0
H135 H 0.72225 0.46626 0.86643 0.0
H136 H 0.68689 0.45068 0.85382 0.0
C137 C 0.67307 0.33303 0.93563 0.0
C138 C 0.70202 0.30846 0.89719 0.0
C139 C 0.61824 0.40036 0.7792 0.0
C140 C 0.63029 0.42658 0.76548 0.0
C141 C 0.65697 0.44124 0.77628 0.0
C142 C 0.67085 0.4307 0.80005 0.0
C143 C 0.65844 0.40481 0.81346 0.0
C144 C 0.6327 0.38986 0.8028 0.0
C145 C 0.62337 0.36206 0.81919 0.0
C146 C 0.64765 0.36286 0.84136 0.0
C147 C 0.66808 0.38825 0.83807 0.0
C148 C 0.59432 0.36284 0.83471 0.0
C149 C 0.62226 0.33735 0.79688 0.0
C150 C 0.75911 0.42875 0.89684 0.0
C151 C 0.77293 0.41788 0.92075 0.0
C152 C 0.7615 0.39013 0.93087 0.0
C153 C 0.7367 0.37402 0.9185 0.0
C154 C 0.72275 0.38535 0.89536 0.0
C155 C 0.73411 0.41212 0.88454 0.0
C156 C 0.71657 0.41996 0.85904 0.0
C157 C 0.69245 0.39388 0.85713 0.0
C158 C 0.69631 0.37377 0.87859 0.0
C159 C 0.70495 0.4471 0.86768 0.0
C160 C 0.73585 0.42334 0.831 0.0
H161 H 0.59594 0.30464 0.84535 0.0
H162 H 0.65133 0.2698 0.92562 0.0
H163 H 0.69783 0.29385 0.87789 0.0
H164 H 0.72201 0.32337 0.8913 0.0
H165 H 0.70613 0.29553 0.91651 0.0
H166 H 0.65032 0.33421 0.94099 0.0
H167 H 0.67994 0.31772 0.95125 0.0
H168 H 0.68511 0.35464 0.94034 0.0
H169 H 0.59784 0.38826 0.77201 0.0
H170 H 0.66764 0.46086 0.76608 0.0
H171 H 0.69093 0.44313 0.80699 0.0
H172 H 0.59435 0.38417 0.84466 0.0
H173 H 0.57629 0.35849 0.81879 0.0
H174 H 0.58981 0.34759 0.85316 0.0
H175 H 0.64108 0.34154 0.78158 0.0
H176 H 0.62333 0.31685 0.80756 0.0
H177 H 0.60246 0.33477 0.78335 0.0
H178 H 0.57724 0.2593 0.86859 0.0
C179 C 0.60847 0.29775 0.86264 0.0
C180 C 0.911 0.77333 0.3958 0.0
C181 C 0.89977 0.78756 0.41931 0.0
C182 C 0.87394 0.77423 0.43296 0.0
C183 C 0.87027 0.73397 0.39958 0.0
C184 C 0.89572 0.74669 0.38611 0.0
C185 C 0.9035 0.72881 0.36071 0.0
H186 H 0.86617 0.61248 0.27168 0.0
C187 C 0.85905 0.70695 0.38399 0.0
C188 C 0.87821 0.70376 0.36089 0.0
H189 H 0.94456 0.67564 0.26878 0.0
H190 H 0.9281 0.69992 0.31032 0.0
H191 H 0.8665 0.60589 0.34419 0.0
H192 H 0.82275 0.6547 0.28568 0.0
H193 H 0.79847 0.64028 0.31366 0.0
H194 H 0.81266 0.61668 0.28874 0.0
H195 H 0.83887 0.58956 0.31936 0.0
H196 H 0.83026 0.60191 0.35532 0.0
C197 C 0.93216 0.71928 0.36815 0.0
C198 C 0.9046 0.74658 0.33208 0.0
C199 C 0.76591 0.64576 0.42052 0.0
C200 C 0.74825 0.62103 0.40973 0.0
C201 C 0.7564 0.60863 0.38345 0.0
C202 C 0.78205 0.62039 0.36852 0.0
C203 C 0.79964 0.6451 0.37972 0.0
C204 C 0.79111 0.65755 0.40508 0.0
C205 C 0.8111 0.68479 0.41272 0.0
C206 C 0.83371 0.68618 0.3885 0.0
C207 C 0.82714 0.66278 0.3693 0.0
C208 C 0.82379 0.68114 0.44361 0.0
C209 C 0.79405 0.70958 0.41048 0.0
C210 C 0.88008 0.63133 0.28001 0.0
C211 C 0.90675 0.64204 0.26618 0.0
C212 C 0.92365 0.66701 0.27809 0.0
C213 C 0.91417 0.68108 0.30256 0.0
C214 C 0.88748 0.67018 0.31584 0.0
C215 C 0.87109 0.64547 0.30473 0.0
C216 C 0.84376 0.6363 0.32229 0.0
C217 C 0.84635 0.65956 0.34564 0.0
C218 C 0.87194 0.67966 0.34165 0.0
C219 C 0.84458 0.60679 0.33597 0.0
C220 C 0.81791 0.63675 0.30165 0.0
H221 H 0.83987 0.73887 0.43495 0.0
H222 H 0.93079 0.78301 0.38481 0.0
H223 H 0.88602 0.75784 0.33125 0.0
H224 H 0.90315 0.73347 0.31189 0.0
H225 H 0.92461 0.76289 0.33096 0.0
H226 H 0.93334 0.71476 0.39216 0.0
H227 H 0.95087 0.73613 0.36239 0.0
H228 H 0.93454 0.69924 0.35704 0.0
H229 H 0.75985 0.65614 0.44027 0.0
H230 H 0.74302 0.58963 0.37465 0.0
H231 H 0.78715 0.60987 0.34875 0.0
H232 H 0.82925 0.65956 0.44589 0.0
H233 H 0.80812 0.68365 0.46136 0.0
H234 H 0.84408 0.69615 0.44772 0.0
H235 H 0.77529 0.70418 0.39551 0.0
H236 H 0.80702 0.72909 0.40076 0.0
H237 H 0.78569 0.7148 0.4324 0.0
H238 H 0.86505 0.78438 0.45135 0.0
C239 C 0.8593 0.74766 0.42338 0.0
C240 C 0.75115 0.72989 0.91294 0.0
C241 C 0.77185 0.71531 0.90095 0.0
C242 C 0.77429 0.7131 0.87005 0.0
C243 C 0.73733 0.74134 0.86353 0.0
C244 C 0.73389 0.74242 0.89381 0.0
C245 C 0.71067 0.75865 0.90248 0.0
H246 H 0.61868 0.84432 0.86161 0.0
C247 C 0.7173 0.75759 0.84979 0.0
C248 C 0.70099 0.7672 0.87238 0.0
H249 H 0.637 0.8185 0.94983 0.0
H250 H 0.66686 0.78714 0.92985 0.0
H251 H 0.61192 0.78445 0.83076 0.0
H252 H 0.68503 0.85239 0.83937 0.0
H253 H 0.68211 0.84158 0.80222 0.0
H254 H 0.6532 0.85534 0.81914 0.0
H255 H 0.61694 0.81486 0.8068 0.0
H256 H 0.63245 0.78387 0.79835 0.0
C257 C 0.68652 0.73803 0.91883 0.0
C258 C 0.72473 0.7848 0.92096 0.0
C259 C 0.73193 0.78765 0.74278 0.0
C260 C 0.71856 0.80541 0.72492 0.0
C261 C 0.69206 0.81203 0.73436 0.0
C262 C 0.68089 0.80392 0.76242 0.0
C263 C 0.69644 0.7892 0.78132 0.0
C264 C 0.72046 0.77973 0.77077 0.0
C265 C 0.73322 0.76287 0.79349 0.0
C266 C 0.71419 0.76587 0.8201 0.0
C267 C 0.69313 0.78186 0.81296 0.0
C268 C 0.72961 0.73155 0.78269 0.0
C269 C 0.76486 0.77753 0.79859 0.0
C270 C 0.62914 0.83194 0.87665 0.0
C271 C 0.62564 0.83418 0.90735 0.0
C272 C 0.63913 0.81713 0.92607 0.0
C273 C 0.65675 0.79912 0.91444 0.0
C274 C 0.66126 0.79837 0.88377 0.0
C275 C 0.64711 0.8142 0.86542 0.0
C276 C 0.65511 0.8116 0.83351 0.0
C277 C 0.67637 0.79146 0.83567 0.0
C278 C 0.68015 0.78403 0.86521 0.0
C279 C 0.62777 0.7982 0.81625 0.0
C280 C 0.66952 0.84169 0.8227 0.0
H281 H 0.76037 0.72397 0.82805 0.0
H282 H 0.74853 0.73155 0.93663 0.0
H283 H 0.74609 0.79447 0.91155 0.0
H284 H 0.71226 0.80215 0.92111 0.0
H285 H 0.72807 0.77859 0.94411 0.0
H286 H 0.68418 0.71607 0.90972 0.0
H287 H 0.69124 0.73695 0.94274 0.0
H288 H 0.66513 0.74382 0.9161 0.0
H289 H 0.75209 0.78178 0.73619 0.0
H290 H 0.68067 0.82474 0.72063 0.0
H291 H 0.66133 0.81064 0.76888 0.0
H292 H 0.71293 0.72663 0.7653 0.0
H293 H 0.75 0.72693 0.77324 0.0
H294 H 0.72214 0.71612 0.80062 0.0
H295 H 0.7664 0.80092 0.80126 0.0
H296 H 0.77425 0.7702 0.81868 0.0
H297 H 0.7787 0.77388 0.77958 0.0
H298 H 0.79019 0.70214 0.86029 0.0
C299 C 0.7571 0.72593 0.85133 0.0
C300 C 0.8819 0.22027 0.41938 0.0
C301 C 0.89846 0.2023 0.40549 0.0
C302 C 0.89923 0.20115 0.37441 0.0
C303 C 0.86509 0.2331 0.37169 0.0
C304 C 0.86557 0.23556 0.40208 0.0
C305 C 0.84614 0.25505 0.41317 0.0
H306 H 0.74384 0.33309 0.38322 0.0
C307 C 0.8442 0.2498 0.36033 0.0
C308 C 0.83337 0.26319 0.38444 0.0
H309 H 0.77977 0.31946 0.46828 0.0
H310 H 0.8122 0.29209 0.44509 0.0
H311 H 0.73678 0.27319 0.36287 0.0
H312 H 0.80524 0.34357 0.34531 0.0
H313 H 0.79671 0.32528 0.31179 0.0
H314 H 0.76951 0.34038 0.33097 0.0
H315 H 0.73451 0.29778 0.33354 0.0
H316 H 0.74968 0.26614 0.32784 0.0
C317 C 0.82306 0.23761 0.43365 0.0
C318 C 0.86496 0.28104 0.42822 0.0
C319 C 0.81059 0.23568 0.25443 0.0
C320 C 0.78744 0.2438 0.23942 0.0
C321 C 0.7738 0.26487 0.25211 0.0
C322 C 0.78151 0.27588 0.28019 0.0
C323 C 0.80276 0.26542 0.29604 0.0
C324 C 0.81756 0.24636 0.28278 0.0
C325 C 0.83851 0.23655 0.30345 0.0
C326 C 0.83296 0.25205 0.33163 0.0
C327 C 0.81198 0.26884 0.32713 0.0
C328 C 0.8299 0.20374 0.30668 0.0
C329 C 0.86934 0.24697 0.29127 0.0
C330 C 0.75911 0.32474 0.39682 0.0
C331 C 0.75945 0.32864 0.42757 0.0
C332 C 0.77906 0.31664 0.44455 0.0
C333 C 0.79788 0.30084 0.43102 0.0
C334 C 0.7968 0.29665 0.40025 0.0
C335 C 0.77774 0.30874 0.38374 0.0
C336 C 0.77839 0.30112 0.35161 0.0
C337 C 0.8015 0.28297 0.35131 0.0
C338 C 0.81218 0.28027 0.37983 0.0
C339 C 0.74837 0.28383 0.34327 0.0
C340 C 0.78775 0.32895 0.33375 0.0
H341 H 0.88377 0.21429 0.33395 0.0
H342 H 0.88133 0.22205 0.44321 0.0
H343 H 0.88601 0.28709 0.41661 0.0
H344 H 0.85524 0.30035 0.4275 0.0
H345 H 0.86941 0.27625 0.45154 0.0
H346 H 0.81567 0.21583 0.42462 0.0
H347 H 0.8318 0.23534 0.45604 0.0
H348 H 0.80343 0.24684 0.43576 0.0
H349 H 0.82194 0.21998 0.24509 0.0
H350 H 0.75583 0.27155 0.24127 0.0
H351 H 0.76959 0.29104 0.28906 0.0
H352 H 0.80612 0.19726 0.30857 0.0
H353 H 0.83708 0.19269 0.28718 0.0
H354 H 0.83843 0.19529 0.32666 0.0
H355 H 0.87067 0.26675 0.27798 0.0
H356 H 0.88527 0.25284 0.30905 0.0
H357 H 0.87632 0.23065 0.27682 0.0
H358 H 0.91172 0.18744 0.36317 0.0
C359 C 0.88277 0.21655 0.35747 0.0
C360 C 0.40503 0.65865 0.30799 0.0
C361 C 0.39231 0.63299 0.32215 0.0
C362 C 0.36616 0.61785 0.31077 0.0
C363 C 0.36598 0.65333 0.27222 0.0
C364 C 0.39146 0.66848 0.28335 0.0
C365 C 0.40149 0.69578 0.26634 0.0
H366 H 0.38046 0.78323 0.15264 0.0
C367 C 0.35743 0.66914 0.2464 0.0
C368 C 0.37826 0.69423 0.24292 0.0
H369 H 0.44871 0.79809 0.2169 0.0
H370 H 0.42959 0.75283 0.24015 0.0
H371 H 0.33065 0.76165 0.19861 0.0
H372 H 0.38177 0.7187 0.14173 0.0
H373 H 0.34719 0.69778 0.14149 0.0
H374 H 0.35248 0.73403 0.12826 0.0
H375 H 0.32519 0.75869 0.1595 0.0
H376 H 0.30721 0.73189 0.1847 0.0
C377 C 0.40153 0.72114 0.28765 0.0
C378 C 0.43121 0.69463 0.25251 0.0
C379 C 0.26681 0.62889 0.18677 0.0
C380 C 0.25464 0.63868 0.16118 0.0
C381 C 0.26831 0.66471 0.14861 0.0
C382 C 0.29341 0.6805 0.16076 0.0
C383 C 0.30545 0.67045 0.186 0.0
C384 C 0.29228 0.64502 0.19865 0.0
C385 C 0.30877 0.63779 0.22526 0.0
C386 C 0.33381 0.66309 0.22638 0.0
C387 C 0.33151 0.68212 0.2033 0.0
C388 C 0.28894 0.63679 0.25271 0.0
C389 C 0.31916 0.6095 0.2188 0.0
C390 C 0.39124 0.77715 0.17195 0.0
C391 C 0.41617 0.79478 0.18283 0.0
C392 C 0.42964 0.78511 0.20767 0.0
C393 C 0.41835 0.75881 0.22136 0.0
C394 C 0.39316 0.74172 0.21029 0.0
C395 C 0.38019 0.75116 0.18592 0.0
C396 C 0.3536 0.73075 0.17693 0.0
C397 C 0.35238 0.7075 0.19997 0.0
C398 C 0.37563 0.71374 0.21958 0.0
C399 C 0.3277 0.74639 0.17979 0.0
C400 C 0.3587 0.71977 0.14541 0.0
H401 H 0.33332 0.61505 0.27863 0.0
H402 H 0.42486 0.67111 0.31622 0.0
H403 H 0.43141 0.67323 0.24284 0.0
H404 H 0.43689 0.70987 0.2342 0.0
H405 H 0.44839 0.69879 0.2694 0.0
H406 H 0.38259 0.71694 0.30277 0.0
H407 H 0.42119 0.72485 0.30143 0.0
H408 H 0.39982 0.74106 0.27608 0.0
H409 H 0.25702 0.60895 0.19701 0.0
H410 H 0.25934 0.6732 0.12938 0.0
H411 H 0.30243 0.70006 0.1499 0.0
H412 H 0.27575 0.65379 0.25156 0.0
H413 H 0.27397 0.61599 0.25429 0.0
H414 H 0.30099 0.64081 0.27353 0.0
H415 H 0.32664 0.60888 0.1955 0.0
H416 H 0.33775 0.60669 0.23228 0.0
H417 H 0.30151 0.59094 0.22228 0.0
H418 H 0.35591 0.59796 0.32081 0.0
C419 C 0.35308 0.62776 0.28605 0.0
C420 C 0.11221 0.27066 0.6995 0.0
C421 C 0.12212 0.25636 0.67522 0.0
C422 C 0.14642 0.27035 0.65936 0.0
C423 C 0.15142 0.31102 0.69228 0.0
C424 C 0.12724 0.29793 0.70764 0.0
C425 C 0.12028 0.31632 0.73297 0.0
H426 H 0.15506 0.43915 0.81291 0.0
C427 C 0.16261 0.33881 0.70642 0.0
C428 C 0.14448 0.34226 0.73035 0.0
H429 H 0.08247 0.37056 0.82593 0.0
H430 H 0.09807 0.34512 0.78463 0.0
H431 H 0.15083 0.44035 0.74085 0.0
H432 H 0.20163 0.39876 0.79943 0.0
H433 H 0.22366 0.4136 0.76987 0.0
H434 H 0.20839 0.43671 0.79442 0.0
H435 H 0.17953 0.45983 0.76254 0.0
H436 H 0.18627 0.44518 0.72703 0.0
C437 C 0.09048 0.3241 0.7272 0.0
C438 C 0.12203 0.29988 0.76209 0.0
C439 C 0.25404 0.39943 0.66523 0.0
C440 C 0.27078 0.4258 0.6733 0.0
C441 C 0.26154 0.44049 0.69764 0.0
C442 C 0.23639 0.42907 0.71359 0.0
C443 C 0.22007 0.40258 0.70528 0.0
C444 C 0.22908 0.38833 0.6814 0.0
C445 C 0.20941 0.36042 0.67561 0.0
C446 C 0.18709 0.36009 0.69996 0.0
C447 C 0.19328 0.38482 0.71735 0.0
C448 C 0.19622 0.3619 0.64451 0.0
C449 C 0.22705 0.33632 0.67952 0.0
C450 C 0.14232 0.41879 0.80677 0.0
C451 C 0.11742 0.407 0.82308 0.0
C452 C 0.10193 0.38012 0.8143 0.0
C453 C 0.11092 0.36538 0.79007 0.0
C454 C 0.1358 0.37743 0.77412 0.0
C455 C 0.15105 0.40374 0.78259 0.0
C456 C 0.17707 0.41327 0.76317 0.0
C457 C 0.17483 0.38855 0.74154 0.0
C458 C 0.15056 0.36746 0.74804 0.0
C459 C 0.17354 0.44123 0.74761 0.0
C460 C 0.20424 0.41598 0.78257 0.0
H461 H 0.17936 0.30644 0.65461 0.0
H462 H 0.09358 0.26069 0.71217 0.0
H463 H 0.14067 0.28868 0.76153 0.0
H464 H 0.1255 0.31394 0.78159 0.0
H465 H 0.10227 0.28362 0.76567 0.0
H466 H 0.08784 0.32837 0.70333 0.0
H467 H 0.07289 0.30643 0.73383 0.0
H468 H 0.08745 0.34378 0.73861 0.0
H469 H 0.26003 0.38765 0.64646 0.0
H470 H 0.27402 0.46066 0.70471 0.0
H471 H 0.23069 0.44127 0.7319 0.0
H472 H 0.19358 0.384 0.63914 0.0
H473 H 0.21015 0.35502 0.62712 0.0
H474 H 0.17431 0.34911 0.64277 0.0
H475 H 0.24328 0.34171 0.69728 0.0
H476 H 0.21379 0.31591 0.6866 0.0
H477 H 0.23876 0.33286 0.65888 0.0
H478 H 0.15419 0.26046 0.64014 0.0
C479 C 0.16101 0.29734 0.66771 0.0
Tb480 Tb 0.03803 0.02559 0.52842 0.0
Tb481 Tb 0.98116 1.01656 0.5713 0.0
C482 C 0.98739 0.97401 0.51923 0.0
C483 C 0.10018 0.05671 0.48061 0.0
C484 C 0.13613 0.10193 0.4517 0.0
C485 C 0.13591 0.07357 0.4431 0.0
C486 C 0.11808 0.05116 0.45747 0.0
C487 C 0.10004 0.08496 0.4892 0.0
C488 C 0.11803 0.10745 0.47491 0.0
C489 C 0.08228 0.03275 0.49586 0.0
O490 O 1.00632 0.04544 0.50579 0.0
O491 O 0.98031 0.05487 0.5462 0.0
O492 O 0.01305 0.04915 0.59298 0.0
O493 O 0.04145 0.06534 0.55282 0.0
O494 O 0.93723 1.01752 0.57531 0.0
O495 O 0.96142 1.00694 0.61267 0.0
O496 O 1.00395 0.98254 0.58248 0.0
O497 O 0.04873 1.00572 0.56884 0.0
O498 O 0.01541 0.98246 0.51963 0.0
O499 O 0.97016 0.98824 0.53343 0.0
C500 C 0.98805 0.05935 0.51854 0.0
O501 O 0.08291 0.0337 0.52458 0.0
O502 O 0.05623 1.02489 0.48599 0.0
C503 C 0.0328 0.0685 0.58012 0.0
C504 C 0.91306 0.98394 0.60849 0.0
C505 C 0.86738 0.93799 0.61786 0.0
C506 C 0.8645 0.96589 0.62552 0.0
C507 C 0.88718 0.98865 0.62087 0.0
C508 C 0.91614 0.9562 0.60067 0.0
C509 C 0.89348 0.93332 0.60549 0.0
C510 C 0.93601 1.00836 0.60244 0.0
C511 C 0.03201 0.98555 0.58363 0.0
H512 H 0.14991 0.06866 0.42555 0.0
H513 H 0.11846 0.02946 0.45068 0.0
H514 H 0.08618 0.08956 0.50702 0.0
H515 H 0.11763 0.1291 0.48181 0.0
H516 H 0.84484 0.97008 0.63555 0.0
H517 H 0.88445 1.00999 0.62684 0.0
H518 H 0.93595 0.9523 0.59069 0.0
H519 H 0.89623 0.91206 0.59927 0.0
Tb520 Tb 0.54408 0.03095 0.05793 0.0
Tb521 Tb 0.48776 1.01829 1.01489 0.0
C522 C 0.53977 0.98849 1.00607 0.0
C523 C 0.61033 0.06743 0.09653 0.0
C524 C 0.65374 0.1138 0.11236 0.0
C525 C 0.65787 0.09615 0.08845 0.0
C526 C 0.63643 0.07316 0.08068 0.0
C527 C 0.60602 0.08537 0.12011 0.0
C528 C 0.62745 0.10833 0.12789 0.0
C529 C 0.58844 0.04205 0.08936 0.0
O530 O 0.55521 0.05954 1.02003 0.0
O531 O 0.51038 0.06017 1.0009 0.0
O532 O 0.47552 0.0375 0.05551 0.0
O533 O 0.51943 0.06409 0.06597 0.0
O534 O 0.46699 0.99604 0.97889 0.0
O535 O 0.44758 0.02709 1.00221 0.0
O536 O 0.48251 0.98109 0.04378 0.0
O537 O 0.51328 0.99853 0.08153 0.0
O538 O 0.54512 0.99193 1.03422 0.0
O539 O 0.5236 1.00399 0.99271 0.0
C540 C 0.53796 0.07101 1.00293 0.0
O541 O 0.56238 0.04142 0.09947 0.0
O542 O 0.58842 0.03263 0.06228 0.0
C543 C 0.49136 0.05976 0.06798 0.0
C544 C 0.41681 0.98722 0.98224 0.0
C545 C 0.36762 0.94423 0.97773 0.0
C546 C 0.37309 0.96641 0.95686 0.0
C547 C 0.39751 0.98769 0.9591 0.0
C548 C 0.41086 0.966 1.00395 0.0
C549 C 0.38644 0.9446 1.00169 0.0
C550 C 0.44418 1.00742 0.98195 0.0
C551 C 0.49266 0.97894 0.07055 0.0
H552 H 0.67781 0.09991 0.07595 0.0
H553 H 0.64052 0.05962 0.06253 0.0
H554 H 0.58631 0.08137 0.13301 0.0
H555 H 0.62379 0.12117 0.14678 0.0
H556 H 0.35933 0.96654 0.93788 0.0
H557 H 0.40191 1.00388 0.94211 0.0
H558 H 0.42558 0.96547 1.02203 0.0
H559 H 0.3827 0.92794 1.01822 0.0
Tb560 Tb 0.50971 0.49749 0.52472 0.0
Tb561 Tb 0.51024 0.55741 0.55933 0.0
C562 C 0.48177 0.54679 0.49752 0.0
C563 C 0.53911 0.43839 0.49196 0.0
C564 C 0.58927 0.41458 0.48549 0.0
C565 C 0.58455 0.43685 0.46703 0.0
C566 C 0.55977 0.44856 0.47015 0.0
C567 C 0.54338 0.41553 0.50986 0.0
C568 C 0.56822 0.40373 0.50666 0.0
C569 C 0.51414 0.4526 0.49702 0.0
O570 O 0.55424 0.51969 0.52413 0.0
O571 O 0.54563 0.56512 0.52738 0.0
O572 O 0.53947 0.5363 0.58496 0.0
O573 O 0.5237 0.49026 0.56949 0.0
O574 O 0.51108 0.60151 0.55624 0.0
O575 O 0.51009 0.58085 0.59858 0.0
O576 O 0.47414 0.5277 0.57788 0.0
O577 O 0.46557 0.49419 0.54096 0.0
O578 O 0.49802 0.52768 0.49258 0.0
O579 O 0.47813 0.55554 0.52455 0.0
C580 C 0.56231 0.54713 0.51972 0.0
O581 O 0.50448 0.45271 0.52403 0.0
O582 O 0.51548 0.47736 0.48453 0.0
C583 C 0.53783 0.50861 0.58831 0.0
C584 C 0.48158 0.61636 0.5929 0.0
C585 C 0.43128 0.63872 0.60432 0.0
C586 C 0.43426 0.61204 0.61568 0.0
C587 C 0.45903 0.60093 0.60994 0.0
C588 C 0.47897 0.64325 0.58204 0.0
C589 C 0.45405 0.65432 0.58763 0.0
C590 C 0.50677 0.60379 0.58451 0.0
C591 C 0.45758 0.50593 0.56524 0.0
H592 H 0.60004 0.44525 0.45006 0.0
H593 H 0.5571 0.46592 0.45572 0.0
H594 H 0.5278 0.40712 0.52675 0.0
H595 H 0.57127 0.38659 0.52122 0.0
H596 H 0.41743 0.59967 0.6291 0.0
H597 H 0.4603 0.58006 0.61854 0.0
H598 H 0.49596 0.65543 0.56865 0.0
H599 H 0.45239 0.67479 0.57827 0.0
Tb600 Tb 0.0138 0.55843 1.02352 0.0
Tb601 Tb 0.01236 0.49914 0.05995 0.0
C602 C 0.04046 0.50815 0.99677 0.0
C603 C 0.98805 0.62025 0.99517 0.0
C604 C 0.93934 0.64554 0.98753 0.0
C605 C 0.96389 0.65351 0.9695 0.0
C606 C 0.98805 0.64088 0.97327 0.0
C607 C 0.96404 0.61296 1.01387 0.0
C608 C 0.93993 0.62554 1.01014 0.0
C609 C 0.01171 0.60434 0.99691 0.0
O610 O 0.96925 0.53631 1.02069 0.0
O611 O 0.97512 0.49064 1.03091 0.0
O612 O 0.98287 0.52035 0.08518 0.0
O613 O 0.99828 0.5659 0.06784 0.0
O614 O 1.00881 0.45468 0.05844 0.0
O615 O 0.01693 0.47745 0.09946 0.0
O616 O 0.04784 0.52986 0.07795 0.0
O617 O 0.05795 0.56033 1.03874 0.0
O618 O 0.02569 0.52831 0.9915 0.0
O619 O 0.04327 0.49931 1.02383 0.0
C620 C 0.95989 0.50863 1.02011 0.0
O621 O 0.023 0.6032 1.02292 0.0
O622 O 1.00656 0.5794 0.98437 0.0
C623 C 0.98409 0.54806 0.08723 0.0
C624 C 0.04344 0.44176 0.08943 0.0
C625 C 0.09468 0.42037 0.09607 0.0
C626 C 0.0686 0.4057 0.10821 0.0
C627 C 0.04312 0.41634 0.10485 0.0
C628 C 0.06934 0.45636 0.07726 0.0
C629 C 0.09464 0.44571 0.08037 0.0
C630 C 0.01718 0.45354 0.08567 0.0
C631 C 0.06531 0.55015 0.06396 0.0
H632 H 0.96396 0.66858 0.95165 0.0
H633 H 1.00632 0.64652 0.95849 0.0
H634 H 0.96362 0.5969 1.03081 0.0
H635 H 0.92152 0.61919 1.02458 0.0
H636 H 0.06796 0.38632 0.12075 0.0
H637 H 0.02329 0.40487 0.11443 0.0
H638 H 0.07002 0.4761 0.06534 0.0
H639 H 0.11415 0.45732 0.07033 0.0
H640 H 0.24648 0.25725 0.38369 0.0
H641 H 0.26683 0.18509 0.33555 0.0
H642 H 0.21164 0.22473 0.41373 0.0
H643 H 0.23337 0.15311 0.36609 0.0
H644 H 0.14506 0.10865 0.39261 0.0
H645 H 0.18029 0.14433 0.36742 0.0
H646 H 0.20636 0.18415 0.45103 0.0
H647 H 0.17083 0.1482 0.47642 0.0
C648 C 0.24395 0.23454 0.37986 0.0
C649 C 0.25947 0.22386 0.35715 0.0
C650 C 0.22415 0.21596 0.39715 0.0
C651 C 0.21949 0.18647 0.39184 0.0
C652 C 0.23613 0.17579 0.37029 0.0
C653 C 0.25575 0.1942 0.3531 0.0
C654 C 0.15829 0.12501 0.40563 0.0
C655 C 0.15553 0.12541 0.43648 0.0
C656 C 0.17848 0.14541 0.39124 0.0
C657 C 0.19643 0.16666 0.40736 0.0
C658 C 0.19279 0.16797 0.4381 0.0
C659 C 0.17248 0.14746 0.45258 0.0
H660 H 0.29857 0.8048 0.87716 0.0
H661 H 0.21905 0.82679 0.90894 0.0
H662 H 0.32495 0.83547 0.91401 0.0
H663 H 0.24589 0.85822 0.94582 0.0
H664 H 0.31288 0.94448 0.95862 0.0
H665 H 0.279 0.90415 0.93919 0.0
H666 H 0.33544 0.84732 0.96569 0.0
H667 H 0.36981 0.8878 0.98413 0.0
C668 C 0.2865 0.81538 0.89265 0.0
C669 C 0.25663 0.81345 0.8898 0.0
C670 C 0.30174 0.8331 0.91387 0.0
C671 C 0.28756 0.84948 0.93272 0.0
C672 C 0.25745 0.84614 0.93131 0.0
C673 C 0.24212 0.8282 0.91014 0.0
C674 C 0.31781 0.92331 0.96074 0.0
C675 C 0.34426 0.91941 0.9724 0.0
C676 C 0.29824 0.90013 0.94993 0.0
C677 C 0.30473 0.87257 0.95055 0.0
C678 C 0.33004 0.86837 0.96453 0.0
C679 C 0.34962 0.89156 0.97534 0.0
H680 H 0.63241 0.48312 0.75004 0.0
H681 H 0.59436 0.39796 0.72243 0.0
H682 H 0.61202 0.50252 0.70769 0.0
H683 H 0.57157 0.41759 0.68152 0.0
H684 H 0.55406 0.45662 0.59377 0.0
H685 H 0.57599 0.43739 0.63565 0.0
H686 H 0.57382 0.51492 0.68443 0.0
H687 H 0.55344 0.53462 0.64165 0.0
C688 C 0.6197 0.46832 0.73506 0.0
C689 C 0.61568 0.43866 0.74001 0.0
C690 C 0.60734 0.47967 0.71074 0.0
C691 C 0.58987 0.46193 0.69053 0.0
C692 C 0.58525 0.43227 0.69586 0.0
C693 C 0.59804 0.42087 0.71995 0.0
C694 C 0.5584 0.46965 0.6134 0.0
C695 C 0.55198 0.4973 0.61412 0.0
C696 C 0.57082 0.45845 0.63777 0.0
C697 C 0.57681 0.47424 0.66411 0.0
C698 C 0.57027 0.50198 0.66471 0.0
C699 C 0.55834 0.51338 0.64007 0.0
H700 H 0.8968 0.5845 0.25216 0.0
H701 H 0.94004 0.66618 0.21916 0.0
H702 H 0.91268 0.5614 0.20884 0.0
H703 H 0.95789 0.6429 0.17734 0.0
H704 H 0.96738 0.5998 0.09062 0.0
H705 H 0.9472 0.62124 0.13258 0.0
H706 H 0.95044 0.54607 0.18457 0.0
H707 H 0.96929 0.52409 0.14178 0.0
C708 C 0.90968 0.59767 0.23578 0.0
C709 C 0.91694 0.62746 0.23959 0.0
C710 C 0.91927 0.58423 0.21095 0.0
C711 C 0.93673 0.60003 0.18914 0.0
C712 C 0.9441 0.62978 0.19308 0.0
C713 C 0.93422 0.64322 0.21765 0.0
C714 C 0.9636 0.58772 0.11095 0.0
C715 C 0.97007 0.56018 0.11273 0.0
C716 C 0.95222 0.60019 0.13529 0.0
C717 C 0.94738 0.58578 0.16254 0.0
C718 C 0.95341 0.55793 0.1641 0.0
C719 C 0.96438 0.54525 0.1395 0.0
H720 H 0.37932 0.17615 0.12331 0.0
H721 H 0.44818 0.18845 0.18683 0.0
H722 H 0.40249 0.14196 0.09666 0.0
H723 H 0.47062 0.1534 0.16104 0.0
H724 H 0.5177 0.11008 0.09211 0.0
H725 H 0.4954 0.14614 0.11603 0.0
H726 H 0.41158 0.0939 0.10327 0.0
H727 H 0.43389 0.05797 0.07851 0.0
C728 C 0.39954 0.17177 0.13142 0.0
C729 C 0.4119 0.18498 0.1572 0.0
C730 C 0.41259 0.15187 0.1164 0.0
C731 C 0.43828 0.14478 0.12684 0.0
C732 C 0.45096 0.15852 0.15225 0.0
C733 C 0.43796 0.17842 0.1672 0.0
C734 C 0.4945 0.10618 0.09443 0.0
C735 C 0.47757 0.08107 0.08346 0.0
C736 C 0.48173 0.12686 0.10826 0.0
C737 C 0.45172 0.12292 0.1116 0.0
C738 C 0.43474 0.09777 0.10068 0.0
C739 C 0.44754 0.07707 0.08672 0.0
H740 H 0.09133 0.83836 0.65736 0.0
H741 H 0.13427 0.91029 0.70798 0.0
H742 H 0.06636 0.87011 0.62918 0.0
H743 H 0.10919 0.94178 0.68019 0.0
H744 H 0.08832 0.99137 0.59902 0.0
H745 H 0.111 0.9587 0.6277 0.0
H746 H 0.02908 0.90213 0.63754 0.0
H747 H 1.00614 0.93493 0.60865 0.0
C748 C 0.09537 0.86091 0.66246 0.0
C749 C 0.11468 0.87187 0.68487 0.0
C750 C 0.08093 0.879 0.64654 0.0
C751 C 0.08589 0.90838 0.65251 0.0
C752 C 0.10512 0.91925 0.67499 0.0
C753 C 0.11928 0.90119 0.69105 0.0
C754 C 0.07506 0.97201 0.60729 0.0
C755 C 0.0454 0.96578 0.6016 0.0
C756 C 0.08806 0.95336 0.62384 0.0
C757 C 0.07178 0.92793 0.63489 0.0
C758 C 0.04215 0.92153 0.6291 0.0
C759 C 0.02902 0.94038 0.61276 0.0
H760 H 0.78665 0.41924 0.97961 0.0
H761 H 0.81877 0.45511 0.8957 0.0
H762 H 0.83093 0.44202 1.00321 0.0
H763 H 0.86301 0.47881 0.91986 0.0
H764 H 0.92786 0.53614 0.98325 0.0
H765 H 0.88238 0.51641 0.95897 0.0
H766 H 0.88233 0.43542 1.00102 0.0
H767 H 0.92771 0.45489 1.02501 0.0
C768 C 0.80315 0.43191 0.96605 0.0
C769 C 0.7991 0.4347 0.93545 0.0
C770 C 0.82859 0.4451 0.97973 0.0
C771 C 0.85076 0.46197 0.96343 0.0
C772 C 0.84635 0.466 0.93311 0.0
C773 C 0.82089 0.45245 0.91926 0.0
C774 C 0.91809 0.51415 0.98744 0.0
C775 C 0.93153 0.49716 1.00623 0.0
C776 C 0.8921 0.5028 0.97332 0.0
C777 C 0.87862 0.47432 0.97804 0.0
C778 C 0.89193 0.4575 0.99707 0.0
C779 C 0.91806 0.46867 1.01078 0.0
H780 H 0.69364 0.60958 0.38789 0.0
H781 H 0.7419 0.60503 0.46759 0.0
H782 H 0.64877 0.59163 0.41494 0.0
H783 H 0.69714 0.58629 0.49442 0.0
H784 H 0.6097 0.52171 0.51601 0.0
H785 H 0.65498 0.53892 0.48953 0.0
H786 H 0.62268 0.61322 0.46137 0.0
H787 H 0.57778 0.59657 0.48848 0.0
C788 C 0.69464 0.60442 0.41109 0.0
C789 C 0.72121 0.60867 0.42565 0.0
C790 C 0.66901 0.59432 0.42658 0.0
C791 C 0.66951 0.58759 0.45677 0.0
C792 C 0.69615 0.5912 0.47116 0.0
C793 C 0.7217 0.60198 0.45585 0.0
C794 C 0.61233 0.54181 0.50435 0.0
C795 C 0.59017 0.55784 0.50451 0.0
C796 C 0.63825 0.55165 0.48923 0.0
C797 C 0.64227 0.57734 0.47332 0.0
C798 C 0.62009 0.59327 0.47332 0.0
C799 C 0.59447 0.58381 0.48901 0.0
H800 H 0.25259 0.38937 0.16996 0.0
H801 H 0.2356 0.32475 0.10231 0.0
H802 H 0.21226 0.40992 0.15299 0.0
H803 H 0.19572 0.34601 0.08444 0.0
H804 H 0.10339 0.36516 0.09434 0.0
H805 H 0.14798 0.34798 0.10341 0.0
H806 H 0.19272 0.43471 0.11464 0.0
H807 H 0.14795 0.45174 0.10723 0.0
C808 C 0.24055 0.37994 0.15102 0.0
C809 C 0.24703 0.3553 0.13765 0.0
C810 C 0.21756 0.39184 0.14113 0.0
C811 C 0.20056 0.37943 0.11753 0.0
C812 C 0.20812 0.35578 0.10299 0.0
C813 C 0.23119 0.34384 0.11294 0.0
C814 C 0.12271 0.38053 0.09894 0.0
C815 C 0.12202 0.4098 0.10024 0.0
C816 C 0.14838 0.37073 0.10365 0.0
C817 C 0.17395 0.38999 0.10971 0.0
C818 C 0.17337 0.41929 0.11031 0.0
C819 C 0.14772 0.42907 0.10576 0.0
H820 H 0.61667 0.24564 0.95768 0.0
H821 H 0.58217 0.21102 0.87451 0.0
H822 H 0.59976 0.19985 0.98128 0.0
H823 H 0.56466 0.16527 0.89847 0.0
H824 H 0.51132 0.09726 0.96006 0.0
H825 H 0.52909 0.14222 0.93482 0.0
H826 H 0.60875 0.15092 0.98273 0.0
H827 H 0.59092 0.10598 1.00815 0.0
C828 C 0.60572 0.22828 0.94423 0.0
C829 C 0.60111 0.23235 0.91392 0.0
C830 C 0.59594 0.20188 0.9579 0.0
C831 C 0.58092 0.17862 0.94186 0.0
C832 C 0.57589 0.1827 0.91167 0.0
C833 C 0.58589 0.20909 0.89791 0.0
C834 C 0.53271 0.10862 0.96517 0.0
C835 C 0.54961 0.09779 0.98627 0.0
C836 C 0.54298 0.13444 0.95052 0.0
C837 C 0.57038 0.15043 0.95669 0.0
C838 C 0.58741 0.13946 0.97759 0.0
C839 C 0.57724 0.11349 0.99205 0.0
H840 H 0.95653 0.80572 0.43404 0.0
H841 H 0.87532 0.83416 0.4292 0.0
H842 H 0.97809 0.85083 0.45735 0.0
H843 H 0.89679 0.87944 0.45141 0.0
H844 H 0.93241 0.94328 0.52236 0.0
H845 H 0.91256 0.89919 0.49693 0.0
H846 H 0.99428 0.90045 0.45315 0.0
H847 H 0.01438 0.94405 0.47952 0.0
C848 C 0.94345 0.82185 0.43743 0.0
C849 C 0.91417 0.81624 0.42999 0.0
C850 C 0.95578 0.84779 0.45081 0.0
C851 C 0.93919 0.86892 0.4568 0.0
C852 C 0.91018 0.86359 0.44807 0.0
C853 C 0.89786 0.83764 0.43506 0.0
C854 C 0.94615 0.93424 0.50724 0.0
C855 C 0.97501 0.94738 0.50301 0.0
C856 C 0.9347 0.90891 0.49242 0.0
C857 C 0.95165 0.89604 0.47265 0.0
C858 C 0.98055 0.90931 0.4684 0.0
C859 C 0.99207 0.93452 0.48344 0.0
H860 H 0.29565 0.73971 0.62549 0.0
H861 H 0.27319 0.66707 0.68322 0.0
H862 H 0.33561 0.7195 0.60523 0.0
H863 H 0.31321 0.64699 0.66321 0.0
H864 H 0.37573 0.60934 0.60505 0.0
H865 H 0.33209 0.62747 0.61712 0.0
H866 H 0.38225 0.71201 0.62752 0.0
H867 H 0.42602 0.69389 0.61616 0.0
C868 C 0.29889 0.71914 0.63337 0.0
C869 C 0.28141 0.70496 0.65596 0.0
C870 C 0.32191 0.70774 0.62201 0.0
C871 C 0.32763 0.68179 0.6328 0.0
C872 C 0.30922 0.66693 0.65433 0.0
C873 C 0.28643 0.67847 0.66589 0.0
C874 C 0.37752 0.63177 0.61008 0.0
C875 C 0.40448 0.6501 0.60991 0.0
C876 C 0.35248 0.64215 0.61683 0.0
C877 C 0.35378 0.67113 0.62326 0.0
C878 C 0.38055 0.68963 0.62224 0.0
C879 C 0.40563 0.67922 0.61573 0.0
H880 H 0.72035 0.86058 0.7085 0.0
H881 H 0.75378 0.78524 0.6843 0.0
H882 H 0.75353 0.88858 0.67447 0.0
H883 H 0.78775 0.81381 0.6503 0.0
H884 H 0.87049 0.88671 0.64299 0.0
H885 H 0.83059 0.85065 0.66046 0.0
H886 H 0.77031 0.89888 0.62403 0.0
H887 H 0.81028 0.93508 0.60677 0.0
C888 C 0.73404 0.84968 0.69517 0.0
C889 C 0.73445 0.82059 0.69942 0.0
C890 C 0.75324 0.86587 0.67561 0.0
C891 C 0.77347 0.85348 0.65986 0.0
C892 C 0.77266 0.82402 0.66249 0.0
C893 C 0.75324 0.80769 0.68199 0.0
C894 C 0.84873 0.88922 0.63804 0.0
C895 C 0.84346 0.91393 0.62399 0.0
C896 C 0.82585 0.8685 0.64795 0.0
C897 C 0.79728 0.87208 0.6439 0.0
C898 C 0.79208 0.89578 0.62792 0.0
C899 C 0.81494 0.91652 0.61812 0.0
H900 H 0.7632 0.26344 0.19019 0.0
H901 H 0.78174 0.18664 0.22998 0.0
H902 H 0.73454 0.23462 0.15252 0.0
H903 H 0.75387 0.15831 0.19237 0.0
H904 H 0.71075 0.11116 0.1169 0.0
H905 H 0.74835 0.14562 0.1402 0.0
H906 H 0.68765 0.20156 0.15569 0.0
H907 H 0.65027 0.16756 0.13136 0.0
C908 C 0.7616 0.24053 0.19066 0.0
C909 C 0.7747 0.22742 0.21327 0.0
C910 C 0.74524 0.22406 0.16906 0.0
C911 C 0.74187 0.1942 0.16954 0.0
C912 C 0.7564 0.18129 0.19105 0.0
C913 C 0.77253 0.19765 0.21267 0.0
C914 C 0.70561 0.13117 0.12448 0.0
C915 C 0.67742 0.13648 0.12261 0.0
C916 C 0.72712 0.1508 0.13805 0.0
C917 C 0.7209 0.17615 0.15007 0.0
C918 C 0.6932 0.18231 0.14649 0.0
C919 C 0.67168 0.16266 0.13291 0.0
H920 H 0.44944 0.6306 0.33134 0.0
H921 H 0.36598 0.60966 0.3731 0.0
H922 H 0.4709 0.61034 0.37347 0.0
H923 H 0.38733 0.5893 0.41502 0.0
H924 H 0.44071 0.58096 0.49888 0.0
H925 H 0.41975 0.60247 0.45736 0.0
H926 H 0.47155 0.56339 0.39664 0.0
H927 H 0.49243 0.5418 0.4381 0.0
C928 C 0.43566 0.62188 0.34956 0.0
C929 C 0.40588 0.62177 0.34858 0.0
C930 C 0.44795 0.60998 0.37367 0.0
C931 C 0.43092 0.59799 0.39781 0.0
C932 C 0.40125 0.59843 0.39706 0.0
C933 C 0.38893 0.60995 0.37281 0.0
C934 C 0.4476 0.57683 0.47669 0.0
C935 C 0.46828 0.55945 0.47204 0.0
C936 C 0.43547 0.58914 0.45279 0.0
C937 C 0.4439 0.58482 0.42344 0.0
C938 C 0.46468 0.56753 0.41883 0.0
C939 C 0.47652 0.55492 0.4427 0.0
H940 H 0.11836 0.46463 0.82956 0.0
H941 H 0.09393 0.38473 0.87574 0.0
H942 H 0.10179 0.48961 0.87148 0.0
H943 H 0.07638 0.40953 0.91711 0.0
H944 H 0.0714 0.46473 0.99869 0.0
H945 H 0.09112 0.4413 0.95751 0.0
H946 H 0.05863 0.49678 0.89636 0.0
H947 H 0.03938 0.52055 0.93756 0.0
C948 C 0.10956 0.45233 0.84865 0.0
C949 C 0.10753 0.42252 0.84902 0.0
C950 C 0.09971 0.46668 0.87266 0.0
C951 C 0.08758 0.45172 0.89788 0.0
C952 C 0.08581 0.42195 0.89834 0.0
C953 C 0.09559 0.4076 0.87433 0.0
C954 C 0.06859 0.4721 0.97649 0.0
C955 C 0.05372 0.49464 0.97162 0.0
C956 C 0.07976 0.45846 0.95276 0.0
C957 C 0.07647 0.46693 0.92337 0.0
C958 C 0.06197 0.48978 0.91858 0.0
C959 C 0.05075 0.50338 0.9423 0.0
H960 H 0.58922 0.82873 0.95529 0.0
H961 H 0.62638 0.88846 0.88776 0.0
H962 H 0.56639 0.86549 0.97779 0.0
H963 H 0.60319 0.9249 0.91 0.0
H964 H 0.53717 0.97647 0.94666 0.0
H965 H 0.55516 0.93786 0.92122 0.0
H966 H 0.58525 0.91056 1.00424 0.0
H967 H 0.56734 0.94866 1.02955 0.0
C968 C 0.59245 0.84962 0.94519 0.0
C969 C 0.60972 0.85563 0.91979 0.0
C970 C 0.57932 0.87064 0.95803 0.0
C971 C 0.58311 0.89808 0.94568 0.0
C972 C 0.59959 0.90385 0.91978 0.0
C973 C 0.61284 0.8829 0.90703 0.0
C974 C 0.54763 0.9622 0.95942 0.0
C975 C 0.5509 0.96571 0.99009 0.0
C976 C 0.55795 0.94016 0.94487 0.0
C977 C 0.57141 0.92109 0.96081 0.0
C978 C 0.57455 0.92461 0.99144 0.0
C979 C 0.5645 0.94667 1.00588 0.0
H980 H 0.95272 0.19097 0.39727 0.0
H981 H 0.87745 0.17029 0.45319 0.0
H982 H 0.97571 0.15737 0.42468 0.0
H983 H 0.90008 0.1365 0.48023 0.0
H984 H 0.95753 0.09788 0.54062 0.0
H985 H 0.93788 0.13387 0.51401 0.0
H986 H 0.97212 0.10671 0.43226 0.0
H987 H 0.99266 0.07104 0.45917 0.0
C988 C 0.94111 0.17923 0.41542 0.0
C989 C 0.91334 0.18336 0.42318 0.0
C990 C 0.95421 0.1599 0.43103 0.0
C991 C 0.93975 0.1442 0.45466 0.0
C992 C 0.91208 0.14859 0.46252 0.0
C993 C 0.89908 0.16799 0.44704 0.0
C994 C 0.96093 0.09952 0.51696 0.0
C995 C 0.97652 0.08141 0.50199 0.0
C996 C 0.94952 0.12013 0.50167 0.0
C997 C 0.95319 0.12307 0.47095 0.0
C998 C 0.96914 0.10523 0.45597 0.0
C999 C 0.98076 0.08465 0.47135 0.0
H1000 H 0.20463 0.61141 0.18819 0.0
H1001 H 0.24368 0.62944 0.10228 0.0
H1002 H 0.15952 0.58946 0.16474 0.0
H1003 H 0.19895 0.60741 0.07888 0.0
H1004 H 0.10613 0.59593 0.04596 0.0
H1005 H 0.15168 0.61566 0.06959 0.0
H1006 H 0.13491 0.5502 0.13643 0.0
H1007 H 0.08921 0.53092 0.11322 0.0
C1008 C 0.20376 0.61032 0.16433 0.0
C1009 C 0.22782 0.62252 0.14722 0.0
C1010 C 0.17782 0.59773 0.15079 0.0
C1011 C 0.17524 0.59688 0.11975 0.0
C1012 C 0.19968 0.60824 0.10275 0.0
C1013 C 0.22548 0.62083 0.11624 0.0
C1014 C 0.11217 0.58568 0.06564 0.0
C1015 C 0.09377 0.56184 0.07761 0.0
C1016 C 0.13846 0.59693 0.07919 0.0
C1017 C 0.14723 0.58463 0.1051 0.0
C1018 C 0.12888 0.56063 0.11687 0.0
C1019 C 0.10261 0.54943 0.10336 0.0
H1020 H 0.29182 0.48167 0.65842 0.0
H1021 H 0.31107 0.39704 0.6499 0.0
H1022 H 0.33572 0.50094 0.63115 0.0
H1023 H 0.35482 0.41631 0.62249 0.0
H1024 H 0.41857 0.45746 0.55105 0.0
H1025 H 0.373 0.4384 0.57591 0.0
H1026 H 0.38726 0.50912 0.63691 0.0
H1027 H 0.43225 0.52829 0.61199 0.0
C1028 C 0.30547 0.46715 0.65096 0.0
C1029 C 0.29773 0.43773 0.65651 0.0
C1030 C 0.33069 0.47822 0.63522 0.0
C1031 C 0.34894 0.46022 0.62451 0.0
C1032 C 0.34113 0.4308 0.62991 0.0
C1033 C 0.31595 0.41973 0.6457 0.0
C1034 C 0.4119 0.46902 0.56965 0.0
C1035 C 0.42925 0.49443 0.57944 0.0
C1036 C 0.38582 0.45799 0.58407 0.0
C1037 C 0.37634 0.47217 0.60852 0.0
C1038 C 0.39356 0.49775 0.61798 0.0
C1039 C 0.41959 0.50867 0.60372 0.0
H1040 H 0.80328 0.7416 0.94684 0.0
H1041 H 0.78637 0.6628 0.89772 0.0
H1042 H 0.84174 0.72469 0.97349 0.0
H1043 H 0.82492 0.6461 0.92385 0.0
H1044 H 0.88446 0.61531 0.98698 0.0
H1045 H 0.84087 0.63174 0.97216 0.0
H1046 H 0.89006 0.71625 0.95784 0.0
H1047 H 0.93362 0.70002 0.97353 0.0
C1048 C 0.80742 0.72045 0.94219 0.0
C1049 C 0.79202 0.70355 0.92011 0.0
C1050 C 0.82957 0.7109 0.95722 0.0
C1051 C 0.83647 0.68416 0.95062 0.0
C1052 C 0.82 0.6667 0.92962 0.0
C1053 C 0.79807 0.67633 0.91449 0.0
C1054 C 0.88589 0.63756 0.98134 0.0
C1055 C 0.91253 0.65636 0.98129 0.0
C1056 C 0.86095 0.64689 0.9726 0.0
C1057 C 0.86207 0.67522 0.96366 0.0
C1058 C 0.88847 0.69434 0.96483 0.0
C1059 C 0.91346 0.68498 0.97349 0.0
H1060 H 0.47281 0.82153 0.17472 0.0
H1061 H 0.38581 0.83257 0.15776 0.0
H1062 H 0.49107 0.86631 0.14916 0.0
H1063 H 0.40409 0.87682 0.13183 0.0
H1064 H 0.44694 0.93623 0.05799 0.0
H1065 H 0.42909 0.89299 0.08591 0.0
H1066 H 0.49437 0.91855 0.15162 0.0
H1067 H 0.5124 0.96197 0.12356 0.0
C1068 C 0.4575 0.83352 0.16586 0.0
C1069 C 0.42771 0.82296 0.16825 0.0
C1070 C 0.46803 0.85928 0.15109 0.0
C1071 C 0.44912 0.87523 0.13811 0.0
C1072 C 0.41938 0.86494 0.14096 0.0
C1073 C 0.40887 0.83937 0.15586 0.0
C1074 C 0.45748 0.93285 0.07846 0.0
C1075 C 0.48113 0.95289 0.08844 0.0
C1076 C 0.44711 0.90797 0.0946 0.0
C1077 C 0.46019 0.90212 0.12116 0.0
C1078 C 0.48387 0.92212 0.13117 0.0
C1079 C 0.49409 0.94719 0.11514 0.0
H1080 H 0.14791 0.21243 0.65721 0.0
H1081 H 0.06404 0.23357 0.67205 0.0
H1082 H 0.12572 0.16691 0.63612 0.0
H1083 H 0.04166 0.18737 0.65117 0.0
H1084 H 0.01411 0.08927 0.63223 0.0
H1085 H 0.03454 0.13363 0.65781 0.0
H1086 H 0.09966 0.15254 0.58985 0.0
H1087 H 0.07949 0.10856 0.56444 0.0
C1088 C 0.12467 0.2074 0.656 0.0
C1089 C 0.10784 0.22706 0.66587 0.0
C1090 C 0.11194 0.18119 0.64389 0.0
C1091 C 0.08191 0.1736 0.64146 0.0
C1092 C 0.06487 0.19253 0.65272 0.0
C1093 C 0.0777 0.21899 0.66475 0.0
C1094 C 0.03285 0.10285 0.62281 0.0
C1095 C 0.04517 0.09517 0.59628 0.0
C1096 C 0.04444 0.12838 0.63739 0.0
C1097 C 0.06886 0.14662 0.62601 0.0
C1098 C 0.0811 0.13886 0.59951 0.0
C1099 C 0.0694 0.11362 0.58482 0.0
H1100 H 0.7259 0.31297 0.47643 0.0
H1101 H 0.74473 0.37851 0.40988 0.0
H1102 H 0.68662 0.33502 0.49532 0.0
H1103 H 0.70516 0.40002 0.42808 0.0
H1104 H 0.64401 0.44416 0.47807 0.0
H1105 H 0.68766 0.42508 0.46899 0.0
H1106 H 0.63898 0.3395 0.47693 0.0
H1107 H 0.5953 0.35863 0.48614 0.0
C1108 C 0.72196 0.33235 0.46618 0.0
C1109 C 0.73825 0.34393 0.44157 0.0
C1110 C 0.69928 0.34478 0.47677 0.0
C1111 C 0.69261 0.36914 0.46307 0.0
C1112 C 0.70983 0.38142 0.43933 0.0
C1113 C 0.73236 0.36896 0.42871 0.0
C1114 C 0.64264 0.42126 0.47791 0.0
C1115 C 0.61614 0.40288 0.48244 0.0
C1116 C 0.66766 0.41034 0.47277 0.0
C1117 C 0.66677 0.38078 0.472 0.0
C1118 C 0.64047 0.36239 0.4777 0.0
C1119 C 0.61542 0.37334 0.4829 0.0
loop_
_geom_bond_atom_site_label_1
_geom_bond_atom_site_label_2
_geom_bond_distance
_geom_bond_site_symmetry_2
_ccdc_geom_bond_type
C0 C1 1.391 . S
C0 C4 1.391 . S
C0 H42 0.948 . S
C1 C0 1.391 . S
C1 C2 1.391 . S
C2 C1 1.391 . S
C2 H58 0.947 . S
C2 C59 1.392 . S
C3 C4 1.391 . S
C3 C7 1.397 . S
C3 C59 1.419 . S
C4 C0 1.391 . S
C4 C3 1.391 . S
C4 C5 1.399 . S
C5 C4 1.399 . S
C5 C8 1.396 . S
C5 C17 1.453 . S
C5 C18 1.684 . S
H6 C30 0.948 . S
C7 C3 1.397 . S
C7 C8 1.394 . S
C7 C26 1.723 . S
C8 C5 1.396 . S
C8 C7 1.394 . S
C8 C38 1.723 . S
H9 C32 0.947 . S
H10 C33 0.948 . S
H11 C39 0.982 . S
H12 C40 0.979 . S
H13 C40 0.980 . S
H14 C40 0.983 . S
H15 C39 0.979 . S
H16 C39 0.977 . S
C17 C5 1.453 . S
C17 H46 0.982 . S
C17 H47 0.979 . S
C17 H48 0.977 . S
C18 C5 1.684 . S
C18 H43 0.979 . S
C18 H44 0.980 . S
C18 H45 0.983 . S
C19 C20 1.391 . S
C19 C24 1.391 . S
C19 H49 0.948 . S
C20 C19 1.391 . S
C20 C21 1.391 . S
C21 C20 1.391 . S
C21 C22 1.392 . S
C21 H50 0.947 . S
C22 C21 1.392 . S
C22 C23 1.419 . S
C22 H51 0.948 . S
C23 C22 1.419 . S
C23 C24 1.391 . S
C23 C27 1.397 . S
C24 C19 1.391 . S
C24 C23 1.391 . S
C24 C25 1.399 . S
C25 C24 1.399 . S
C25 C26 1.396 . S
C25 C28 1.453 . S
C25 C29 1.684 . S
C26 C7 1.723 . S
C26 C25 1.396 . S
C26 C27 1.394 . S
C27 C23 1.397 . S
C27 C26 1.394 . S
C27 C37 1.723 . S
C28 C25 1.453 . S
C28 H52 0.982 . S
C28 H53 0.979 . S
C28 H54 0.977 . S
C29 C25 1.684 . S
C29 H55 0.979 . S
C29 H56 0.980 . S
C29 H57 0.983 . S
C30 H6 0.948 . S
C30 C31 1.391 . S
C30 C35 1.391 . S
C31 C30 1.391 . S
C31 C32 1.391 . S
C32 H9 0.947 . S
C32 C31 1.391 . S
C32 C33 1.392 . S
C33 H10 0.948 . S
C33 C32 1.392 . S
C33 C34 1.419 . S
C34 C33 1.419 . S
C34 C35 1.391 . S
C34 C38 1.397 . S
C35 C30 1.391 . S
C35 C34 1.391 . S
C35 C36 1.399 . S
C36 C35 1.399 . S
C36 C37 1.396 . S
C36 C39 1.453 . S
C36 C40 1.684 . S
C37 C27 1.723 . S
C37 C36 1.396 . S
C37 C38 1.394 . S
C38 C8 1.723 . S
C38 C34 1.397 . S
C38 C37 1.394 . S
C39 H11 0.982 . S
C39 H15 0.979 . S
C39 H16 0.977 . S
C39 C36 1.453 . S
C40 H12 0.979 . S
C40 H13 0.980 . S
C40 H14 0.983 . S
C40 C36 1.684 . S
H41 C59 0.948 . S
H42 C0 0.948 . S
H43 C18 0.979 . S
H44 C18 0.980 . S
H45 C18 0.983 . S
H46 C17 0.982 . S
H47 C17 0.979 . S
H48 C17 0.977 . S
H49 C19 0.948 . S
H50 C21 0.947 . S
H51 C22 0.948 . S
H52 C28 0.982 . S
H53 C28 0.979 . S
H54 C28 0.977 . S
H55 C29 0.979 . S
H56 C29 0.980 . S
H57 C29 0.983 . S
H58 C2 0.947 . S
C59 C2 1.392 . S
C59 C3 1.419 . S
C59 H41 0.948 . S
C60 C61 1.391 . S
C60 C64 1.391 . S
C60 H102 0.948 . S
C61 C60 1.391 . S
C61 C62 1.391 . S
C62 C61 1.391 . S
C62 H118 0.947 . S
C62 C119 1.392 . S
C63 C64 1.391 . S
C63 C67 1.397 . S
C63 C119 1.419 . S
C64 C60 1.391 . S
C64 C63 1.391 . S
C64 C65 1.399 . S
C65 C64 1.399 . S
C65 C68 1.396 . S
C65 C77 1.453 . S
C65 C78 1.684 . S
H66 C90 0.948 . S
C67 C63 1.397 . S
C67 C68 1.394 . S
C67 C86 1.723 . S
C68 C65 1.396 . S
C68 C67 1.394 . S
C68 C98 1.723 . S
H69 C92 0.947 . S
H70 C93 0.948 . S
H71 C99 0.982 . S
H72 C100 0.979 . S
H73 C100 0.980 . S
H74 C100 0.983 . S
H75 C99 0.979 . S
H76 C99 0.977 . S
C77 C65 1.453 . S
C77 H106 0.982 . S
C77 H107 0.979 . S
C77 H108 0.977 . S
C78 C65 1.684 . S
C78 H103 0.979 . S
C78 H104 0.980 . S
C78 H105 0.983 . S
C79 C80 1.391 . S
C79 C84 1.391 . S
C79 H109 0.948 . S
C80 C79 1.391 . S
C80 C81 1.391 . S
C81 C80 1.391 . S
C81 C82 1.392 . S
C81 H110 0.947 . S
C82 C81 1.392 . S
C82 C83 1.419 . S
C82 H111 0.948 . S
C83 C82 1.419 . S
C83 C84 1.391 . S
C83 C87 1.397 . S
C84 C79 1.391 . S
C84 C83 1.391 . S
C84 C85 1.399 . S
C85 C84 1.399 . S
C85 C86 1.396 . S
C85 C88 1.453 . S
C85 C89 1.684 . S
C86 C67 1.723 . S
C86 C85 1.396 . S
C86 C87 1.394 . S
C87 C83 1.397 . S
C87 C86 1.394 . S
C87 C97 1.723 . S
C88 C85 1.453 . S
C88 H112 0.982 . S
C88 H113 0.979 . S
C88 H114 0.977 . S
C89 C85 1.684 . S
C89 H115 0.979 . S
C89 H116 0.980 . S
C89 H117 0.983 . S
C90 H66 0.948 . S
C90 C91 1.391 . S
C90 C95 1.391 . S
C91 C90 1.391 . S
C91 C92 1.391 . S
C92 H69 0.947 . S
C92 C91 1.391 . S
C92 C93 1.392 . S
C93 H70 0.948 . S
C93 C92 1.392 . S
C93 C94 1.419 . S
C94 C93 1.419 . S
C94 C95 1.391 . S
C94 C98 1.397 . S
C95 C90 1.391 . S
C95 C94 1.391 . S
C95 C96 1.399 . S
C96 C95 1.399 . S
C96 C97 1.396 . S
C96 C99 1.453 . S
C96 C100 1.684 . S
C97 C87 1.723 . S
C97 C96 1.396 . S
C97 C98 1.394 . S
C98 C68 1.723 . S
C98 C94 1.397 . S
C98 C97 1.394 . S
C99 H71 0.982 . S
C99 H75 0.979 . S
C99 H76 0.977 . S
C99 C96 1.453 . S
C100 H72 0.979 . S
C100 H73 0.980 . S
C100 H74 0.983 . S
C100 C96 1.684 . S
H101 C119 0.948 . S
H102 C60 0.948 . S
H103 C78 0.979 . S
H104 C78 0.980 . S
H105 C78 0.983 . S
H106 C77 0.982 . S
H107 C77 0.979 . S
H108 C77 0.977 . S
H109 C79 0.948 . S
H110 C81 0.947 . S
H111 C82 0.948 . S
H112 C88 0.982 . S
H113 C88 0.979 . S
H114 C88 0.977 . S
H115 C89 0.979 . S
H116 C89 0.980 . S
H117 C89 0.983 . S
H118 C62 0.947 . S
C119 C62 1.392 . S
C119 C63 1.419 . S
C119 H101 0.948 . S
C120 C121 1.391 . S
C120 C124 1.391 . S
C120 H162 0.948 . S
C121 C120 1.391 . S
C121 C122 1.391 . S
C122 C121 1.391 . S
C122 H178 0.947 . S
C122 C179 1.392 . S
C123 C124 1.391 . S
C123 C127 1.397 . S
C123 C179 1.419 . S
C124 C120 1.391 . S
C124 C123 1.391 . S
C124 C125 1.399 . S
C125 C124 1.399 . S
C125 C128 1.396 . S
C125 C137 1.453 . S
C125 C138 1.684 . S
H126 C150 0.948 . S
C127 C123 1.397 . S
C127 C128 1.394 . S
C127 C146 1.723 . S
C128 C125 1.396 . S
C128 C127 1.394 . S
C128 C158 1.723 . S
H129 C152 0.947 . S
H130 C153 0.948 . S
H131 C159 0.982 . S
H132 C160 0.979 . S
H133 C160 0.980 . S
H134 C160 0.983 . S
H135 C159 0.979 . S
H136 C159 0.977 . S
C137 C125 1.453 . S
C137 H166 0.982 . S
C137 H167 0.979 . S
C137 H168 0.977 . S
C138 C125 1.684 . S
C138 H163 0.979 . S
C138 H164 0.980 . S
C138 H165 0.983 . S
C139 C140 1.391 . S
C139 C144 1.391 . S
C139 H169 0.948 . S
C140 C139 1.391 . S
C140 C141 1.391 . S
C141 C140 1.391 . S
C141 C142 1.392 . S
C141 H170 0.947 . S
C142 C141 1.392 . S
C142 C143 1.419 . S
C142 H171 0.948 . S
C143 C142 1.419 . S
C143 C144 1.391 . S
C143 C147 1.397 . S
C144 C139 1.391 . S
C144 C143 1.391 . S
C144 C145 1.399 . S
C145 C144 1.399 . S
C145 C146 1.396 . S
C145 C148 1.453 . S
C145 C149 1.684 . S
C146 C127 1.723 . S
C146 C145 1.396 . S
C146 C147 1.394 . S
C147 C143 1.397 . S
C147 C146 1.394 . S
C147 C157 1.723 . S
C148 C145 1.453 . S
C148 H172 0.982 . S
C148 H173 0.979 . S
C148 H174 0.977 . S
C149 C145 1.684 . S
C149 H175 0.979 . S
C149 H176 0.980 . S
C149 H177 0.983 . S
C150 H126 0.948 . S
C150 C151 1.391 . S
C150 C155 1.391 . S
C151 C150 1.391 . S
C151 C152 1.391 . S
C152 H129 0.947 . S
C152 C151 1.391 . S
C152 C153 1.392 . S
C153 H130 0.948 . S
C153 C152 1.392 . S
C153 C154 1.419 . S
C154 C153 1.419 . S
C154 C155 1.391 . S
C154 C158 1.397 . S
C155 C150 1.391 . S
C155 C154 1.391 . S
C155 C156 1.399 . S
C156 C155 1.399 . S
C156 C157 1.396 . S
C156 C159 1.453 . S
C156 C160 1.684 . S
C157 C147 1.723 . S
C157 C156 1.396 . S
C157 C158 1.394 . S
C158 C128 1.723 . S
C158 C154 1.397 . S
C158 C157 1.394 . S
C159 H131 0.982 . S
C159 H135 0.979 . S
C159 H136 0.977 . S
C159 C156 1.453 . S
C160 H132 0.979 . S
C160 H133 0.980 . S
C160 H134 0.983 . S
C160 C156 1.684 . S
H161 C179 0.948 . S
H162 C120 0.948 . S
H163 C138 0.979 . S
H164 C138 0.980 . S
H165 C138 0.983 . S
H166 C137 0.982 . S
H167 C137 0.979 . S
H168 C137 0.977 . S
H169 C139 0.948 . S
H170 C141 0.947 . S
H171 C142 0.948 . S
H172 C148 0.982 . S
H173 C148 0.979 . S
H174 C148 0.977 . S
H175 C149 0.979 . S
H176 C149 0.980 . S
H177 C149 0.983 . S
H178 C122 0.947 . S
C179 C122 1.392 . S
C179 C123 1.419 . S
C179 H161 0.948 . S
C180 C181 1.391 . S
C180 C184 1.391 . S
C180 H222 0.948 . S
C181 C180 1.391 . S
C181 C182 1.391 . S
C182 C181 1.391 . S
C182 H238 0.947 . S
C182 C239 1.392 . S
C183 C184 1.391 . S
C183 C187 1.397 . S
C183 C239 1.419 . S
C184 C180 1.391 . S
C184 C183 1.391 . S
C184 C185 1.399 . S
C185 C184 1.399 . S
C185 C188 1.396 . S
C185 C197 1.453 . S
C185 C198 1.684 . S
H186 C210 0.948 . S
C187 C183 1.397 . S
C187 C188 1.394 . S
C187 C206 1.723 . S
C188 C185 1.396 . S
C188 C187 1.394 . S
C188 C218 1.723 . S
H189 C212 0.947 . S
H190 C213 0.948 . S
H191 C219 0.982 . S
H192 C220 0.979 . S
H193 C220 0.980 . S
H194 C220 0.983 . S
H195 C219 0.979 . S
H196 C219 0.977 . S
C197 C185 1.453 . S
C197 H226 0.982 . S
C197 H227 0.979 . S
C197 H228 0.977 . S
C198 C185 1.684 . S
C198 H223 0.979 . S
C198 H224 0.980 . S
C198 H225 0.983 . S
C199 C200 1.391 . S
C199 C204 1.391 . S
C199 H229 0.948 . S
C200 C199 1.391 . S
C200 C201 1.391 . S
C201 C200 1.391 . S
C201 C202 1.392 . S
C201 H230 0.947 . S
C202 C201 1.392 . S
C202 C203 1.419 . S
C202 H231 0.948 . S
C203 C202 1.419 . S
C203 C204 1.391 . S
C203 C207 1.397 . S
C204 C199 1.391 . S
C204 C203 1.391 . S
C204 C205 1.399 . S
C205 C204 1.399 . S
C205 C206 1.396 . S
C205 C208 1.453 . S
C205 C209 1.684 . S
C206 C187 1.723 . S
C206 C205 1.396 . S
C206 C207 1.394 . S
C207 C203 1.397 . S
C207 C206 1.394 . S
C207 C217 1.723 . S
C208 C205 1.453 . S
C208 H232 0.982 . S
C208 H233 0.979 . S
C208 H234 0.977 . S
C209 C205 1.684 . S
C209 H235 0.979 . S
C209 H236 0.980 . S
C209 H237 0.983 . S
C210 H186 0.948 . S
C210 C211 1.391 . S
C210 C215 1.391 . S
C211 C210 1.391 . S
C211 C212 1.391 . S
C212 H189 0.947 . S
C212 C211 1.391 . S
C212 C213 1.392 . S
C213 H190 0.948 . S
C213 C212 1.392 . S
C213 C214 1.419 . S
C214 C213 1.419 . S
C214 C215 1.391 . S
C214 C218 1.397 . S
C215 C210 1.391 . S
C215 C214 1.391 . S
C215 C216 1.399 . S
C216 C215 1.399 . S
C216 C217 1.396 . S
C216 C219 1.453 . S
C216 C220 1.684 . S
C217 C207 1.723 . S
C217 C216 1.396 . S
C217 C218 1.394 . S
C218 C188 1.723 . S
C218 C214 1.397 . S
C218 C217 1.394 . S
C219 H191 0.982 . S
C219 H195 0.979 . S
C219 H196 0.977 . S
C219 C216 1.453 . S
C220 H192 0.979 . S
C220 H193 0.980 . S
C220 H194 0.983 . S
C220 C216 1.684 . S
H221 C239 0.948 . S
H222 C180 0.948 . S
H223 C198 0.979 . S
H224 C198 0.980 . S
H225 C198 0.983 . S
H226 C197 0.982 . S
H227 C197 0.979 . S
H228 C197 0.977 . S
H229 C199 0.948 . S
H230 C201 0.947 . S
H231 C202 0.948 . S
H232 C208 0.982 . S
H233 C208 0.979 . S
H234 C208 0.977 . S
H235 C209 0.979 . S
H236 C209 0.980 . S
H237 C209 0.983 . S
H238 C182 0.947 . S
C239 C182 1.392 . S
C239 C183 1.419 . S
C239 H221 0.948 . S
C240 C241 1.391 . S
C240 C244 1.391 . S
C240 H282 0.948 . S
C241 C240 1.391 . S
C241 C242 1.391 . S
C242 C241 1.391 . S
C242 H298 0.947 . S
C242 C299 1.392 . S
C243 C244 1.391 . S
C243 C247 1.397 . S
C243 C299 1.419 . S
C244 C240 1.391 . S
C244 C243 1.391 . S
C244 C245 1.399 . S
C245 C244 1.399 . S
C245 C248 1.396 . S
C245 C257 1.453 . S
C245 C258 1.684 . S
H246 C270 0.948 . S
C247 C243 1.397 . S
C247 C248 1.394 . S
C247 C266 1.723 . S
C248 C245 1.396 . S
C248 C247 1.394 . S
C248 C278 1.723 . S
H249 C272 0.947 . S
H250 C273 0.948 . S
H251 C279 0.982 . S
H252 C280 0.979 . S
H253 C280 0.980 . S
H254 C280 0.983 . S
H255 C279 0.979 . S
H256 C279 0.977 . S
C257 C245 1.453 . S
C257 H286 0.982 . S
C257 H287 0.979 . S
C257 H288 0.977 . S
C258 C245 1.684 . S
C258 H283 0.979 . S
C258 H284 0.980 . S
C258 H285 0.983 . S
C259 C260 1.391 . S
C259 C264 1.391 . S
C259 H289 0.948 . S
C260 C259 1.391 . S
C260 C261 1.391 . S
C261 C260 1.391 . S
C261 C262 1.392 . S
C261 H290 0.947 . S
C262 C261 1.392 . S
C262 C263 1.419 . S
C262 H291 0.948 . S
C263 C262 1.419 . S
C263 C264 1.391 . S
C263 C267 1.397 . S
C264 C259 1.391 . S
C264 C263 1.391 . S
C264 C265 1.399 . S
C265 C264 1.399 . S
C265 C266 1.396 . S
C265 C268 1.453 . S
C265 C269 1.684 . S
C266 C247 1.723 . S
C266 C265 1.396 . S
C266 C267 1.394 . S
C267 C263 1.397 . S
C267 C266 1.394 . S
C267 C277 1.723 . S
C268 C265 1.453 . S
C268 H292 0.982 . S
C268 H293 0.979 . S
C268 H294 0.977 . S
C269 C265 1.684 . S
C269 H295 0.979 . S
C269 H296 0.980 . S
C269 H297 0.983 . S
C270 H246 0.948 . S
C270 C271 1.391 . S
C270 C275 1.391 . S
C271 C270 1.391 . S
C271 C272 1.391 . S
C272 H249 0.947 . S
C272 C271 1.391 . S
C272 C273 1.392 . S
C273 H250 0.948 . S
C273 C272 1.392 . S
C273 C274 1.419 . S
C274 C273 1.419 . S
C274 C275 1.391 . S
C274 C278 1.397 . S
C275 C270 1.391 . S
C275 C274 1.391 . S
C275 C276 1.399 . S
C276 C275 1.399 . S
C276 C277 1.396 . S
C276 C279 1.453 . S
C276 C280 1.684 . S
C277 C267 1.723 . S
C277 C276 1.396 . S
C277 C278 1.394 . S
C278 C248 1.723 . S
C278 C274 1.397 . S
C278 C277 1.394 . S
C279 H251 0.982 . S
C279 H255 0.979 . S
C279 H256 0.977 . S
C279 C276 1.453 . S
C280 H252 0.979 . S
C280 H253 0.980 . S
C280 H254 0.983 . S
C280 C276 1.684 . S
H281 C299 0.948 . S
H282 C240 0.948 . S
H283 C258 0.979 . S
H284 C258 0.980 . S
H285 C258 0.983 . S
H286 C257 0.982 . S
H287 C257 0.979 . S
H288 C257 0.977 . S
H289 C259 0.948 . S
H290 C261 0.947 . S
H291 C262 0.948 . S
H292 C268 0.982 . S
H293 C268 0.979 . S
H294 C268 0.977 . S
H295 C269 0.979 . S
H296 C269 0.980 . S
H297 C269 0.983 . S
H298 C242 0.947 . S
C299 C242 1.392 . S
C299 C243 1.419 . S
C299 H281 0.948 . S
C300 C301 1.391 . S
C300 C304 1.391 . S
C300 H342 0.948 . S
C301 C300 1.391 . S
C301 C302 1.391 . S
C302 C301 1.391 . S
C302 H358 0.947 . S
C302 C359 1.392 . S
C303 C304 1.391 . S
C303 C307 1.397 . S
C303 C359 1.419 . S
C304 C300 1.391 . S
C304 C303 1.391 . S
C304 C305 1.399 . S
C305 C304 1.399 . S
C305 C308 1.396 . S
C305 C317 1.453 . S
C305 C318 1.684 . S
H306 C330 0.948 . S
C307 C303 1.397 . S
C307 C308 1.394 . S
C307 C326 1.723 . S
C308 C305 1.396 . S
C308 C307 1.394 . S
C308 C338 1.723 . S
H309 C332 0.947 . S
H310 C333 0.948 . S
H311 C339 0.982 . S
H312 C340 0.979 . S
H313 C340 0.980 . S
H314 C340 0.983 . S
H315 C339 0.979 . S
H316 C339 0.977 . S
C317 C305 1.453 . S
C317 H346 0.982 . S
C317 H347 0.979 . S
C317 H348 0.977 . S
C318 C305 1.684 . S
C318 H343 0.979 . S
C318 H344 0.980 . S
C318 H345 0.983 . S
C319 C320 1.391 . S
C319 C324 1.391 . S
C319 H349 0.948 . S
C320 C319 1.391 . S
C320 C321 1.391 . S
C321 C320 1.391 . S
C321 C322 1.392 . S
C321 H350 0.947 . S
C322 C321 1.392 . S
C322 C323 1.419 . S
C322 H351 0.948 . S
C323 C322 1.419 . S
C323 C324 1.391 . S
C323 C327 1.397 . S
C324 C319 1.391 . S
C324 C323 1.391 . S
C324 C325 1.399 . S
C325 C324 1.399 . S
C325 C326 1.396 . S
C325 C328 1.453 . S
C325 C329 1.684 . S
C326 C307 1.723 . S
C326 C325 1.396 . S
C326 C327 1.394 . S
C327 C323 1.397 . S
C327 C326 1.394 . S
C327 C337 1.723 . S
C328 C325 1.453 . S
C328 H352 0.982 . S
C328 H353 0.979 . S
C328 H354 0.977 . S
C329 C325 1.684 . S
C329 H355 0.979 . S
C329 H356 0.980 . S
C329 H357 0.983 . S
C330 H306 0.948 . S
C330 C331 1.391 . S
C330 C335 1.391 . S
C331 C330 1.391 . S
C331 C332 1.391 . S
C332 H309 0.947 . S
C332 C331 1.391 . S
C332 C333 1.392 . S
C333 H310 0.948 . S
C333 C332 1.392 . S
C333 C334 1.419 . S
C334 C333 1.419 . S
C334 C335 1.391 . S
C334 C338 1.397 . S
C335 C330 1.391 . S
C335 C334 1.391 . S
C335 C336 1.399 . S
C336 C335 1.399 . S
C336 C337 1.396 . S
C336 C339 1.453 . S
C336 C340 1.684 . S
C337 C327 1.723 . S
C337 C336 1.396 . S
C337 C338 1.394 . S
C338 C308 1.723 . S
C338 C334 1.397 . S
C338 C337 1.394 . S
C339 H311 0.982 . S
C339 H315 0.979 . S
C339 H316 0.977 . S
C339 C336 1.453 . S
C340 H312 0.979 . S
C340 H313 0.980 . S
C340 H314 0.983 . S
C340 C336 1.684 . S
H341 C359 0.948 . S
H342 C300 0.948 . S
H343 C318 0.979 . S
H344 C318 0.980 . S
H345 C318 0.983 . S
H346 C317 0.982 . S
H347 C317 0.979 . S
H348 C317 0.977 . S
H349 C319 0.948 . S
H350 C321 0.947 . S
H351 C322 0.948 . S
H352 C328 0.982 . S
H353 C328 0.979 . S
H354 C328 0.977 . S
H355 C329 0.979 . S
H356 C329 0.980 . S
H357 C329 0.983 . S
H358 C302 0.947 . S
C359 C302 1.392 . S
C359 C303 1.419 . S
C359 H341 0.948 . S
C360 C361 1.391 . S
C360 C364 1.391 . S
C360 H402 0.948 . S
C361 C360 1.391 . S
C361 C362 1.391 . S
C362 C361 1.391 . S
C362 H418 0.947 . S
C362 C419 1.392 . S
C363 C364 1.391 . S
C363 C367 1.397 . S
C363 C419 1.419 . S
C364 C360 1.391 . S
C364 C363 1.391 . S
C364 C365 1.399 . S
C365 C364 1.399 . S
C365 C368 1.396 . S
C365 C377 1.453 . S
C365 C378 1.684 . S
H366 C390 0.948 . S
C367 C363 1.397 . S
C367 C368 1.394 . S
C367 C386 1.723 . S
C368 C365 1.396 . S
C368 C367 1.394 . S
C368 C398 1.723 . S
H369 C392 0.947 . S
H370 C393 0.948 . S
H371 C399 0.982 . S
H372 C400 0.979 . S
H373 C400 0.980 . S
H374 C400 0.983 . S
H375 C399 0.979 . S
H376 C399 0.977 . S
C377 C365 1.453 . S
C377 H406 0.982 . S
C377 H407 0.979 . S
C377 H408 0.977 . S
C378 C365 1.684 . S
C378 H403 0.979 . S
C378 H404 0.980 . S
C378 H405 0.983 . S
C379 C380 1.391 . S
C379 C384 1.391 . S
C379 H409 0.948 . S
C380 C379 1.391 . S
C380 C381 1.391 . S
C381 C380 1.391 . S
C381 C382 1.392 . S
C381 H410 0.947 . S
C382 C381 1.392 . S
C382 C383 1.419 . S
C382 H411 0.948 . S
C383 C382 1.419 . S
C383 C384 1.391 . S
C383 C387 1.397 . S
C384 C379 1.391 . S
C384 C383 1.391 . S
C384 C385 1.399 . S
C385 C384 1.399 . S
C385 C386 1.396 . S
C385 C388 1.453 . S
C385 C389 1.684 . S
C386 C367 1.723 . S
C386 C385 1.396 . S
C386 C387 1.394 . S
C387 C383 1.397 . S
C387 C386 1.394 . S
C387 C397 1.723 . S
C388 C385 1.453 . S
C388 H412 0.982 . S
C388 H413 0.979 . S
C388 H414 0.977 . S
C389 C385 1.684 . S
C389 H415 0.979 . S
C389 H416 0.980 . S
C389 H417 0.983 . S
C390 H366 0.948 . S
C390 C391 1.391 . S
C390 C395 1.391 . S
C391 C390 1.391 . S
C391 C392 1.391 . S
C392 H369 0.947 . S
C392 C391 1.391 . S
C392 C393 1.392 . S
C393 H370 0.948 . S
C393 C392 1.392 . S
C393 C394 1.419 . S
C394 C393 1.419 . S
C394 C395 1.391 . S
C394 C398 1.397 . S
C395 C390 1.391 . S
C395 C394 1.391 . S
C395 C396 1.399 . S
C396 C395 1.399 . S
C396 C397 1.396 . S
C396 C399 1.453 . S
C396 C400 1.684 . S
C397 C387 1.723 . S
C397 C396 1.396 . S
C397 C398 1.394 . S
C398 C368 1.723 . S
C398 C394 1.397 . S
C398 C397 1.394 . S
C399 H371 0.982 . S
C399 H375 0.979 . S
C399 H376 0.977 . S
C399 C396 1.453 . S
C400 H372 0.979 . S
C400 H373 0.980 . S
C400 H374 0.983 . S
C400 C396 1.684 . S
H401 C419 0.948 . S
H402 C360 0.948 . S
H403 C378 0.979 . S
H404 C378 0.980 . S
H405 C378 0.983 . S
H406 C377 0.982 . S
H407 C377 0.979 . S
H408 C377 0.977 . S
H409 C379 0.948 . S
H410 C381 0.947 . S
H411 C382 0.948 . S
H412 C388 0.982 . S
H413 C388 0.979 . S
H414 C388 0.977 . S
H415 C389 0.979 . S
H416 C389 0.980 . S
H417 C389 0.983 . S
H418 C362 0.947 . S
C419 C362 1.392 . S
C419 C363 1.419 . S
C419 H401 0.948 . S
C420 C421 1.391 . S
C420 C424 1.391 . S
C420 H462 0.948 . S
C421 C420 1.391 . S
C421 C422 1.391 . S
C422 C421 1.391 . S
C422 H478 0.947 . S
C422 C479 1.392 . S
C423 C424 1.391 . S
C423 C427 1.397 . S
C423 C479 1.419 . S
C424 C420 1.391 . S
C424 C423 1.391 . S
C424 C425 1.399 . S
C425 C424 1.399 . S
C425 C428 1.396 . S
C425 C437 1.453 . S
C425 C438 1.684 . S
H426 C450 0.948 . S
C427 C423 1.397 . S
C427 C428 1.394 . S
C427 C446 1.723 . S
C428 C425 1.396 . S
C428 C427 1.394 . S
C428 C458 1.723 . S
H429 C452 0.947 . S
H430 C453 0.948 . S
H431 C459 0.982 . S
H432 C460 0.979 . S
H433 C460 0.980 . S
H434 C460 0.983 . S
H435 C459 0.979 . S
H436 C459 0.977 . S
C437 C425 1.453 . S
C437 H466 0.982 . S
C437 H467 0.979 . S
C437 H468 0.977 . S
C438 C425 1.684 . S
C438 H463 0.979 . S
C438 H464 0.980 . S
C438 H465 0.983 . S
C439 C440 1.391 . S
C439 C444 1.391 . S
C439 H469 0.948 . S
C440 C439 1.391 . S
C440 C441 1.391 . S
C441 C440 1.391 . S
C441 C442 1.392 . S
C441 H470 0.947 . S
C442 C441 1.392 . S
C442 C443 1.419 . S
C442 H471 0.948 . S
C443 C442 1.419 . S
C443 C444 1.391 . S
C443 C447 1.397 . S
C444 C439 1.391 . S
C444 C443 1.391 . S
C444 C445 1.399 . S
C445 C444 1.399 . S
C445 C446 1.396 . S
C445 C448 1.453 . S
C445 C449 1.684 . S
C446 C427 1.723 . S
C446 C445 1.396 . S
C446 C447 1.394 . S
C447 C443 1.397 . S
C447 C446 1.394 . S
C447 C457 1.723 . S
C448 C445 1.453 . S
C448 H472 0.982 . S
C448 H473 0.979 . S
C448 H474 0.977 . S
C449 C445 1.684 . S
C449 H475 0.979 . S
C449 H476 0.980 . S
C449 H477 0.983 . S
C450 H426 0.948 . S
C450 C451 1.391 . S
C450 C455 1.391 . S
C451 C450 1.391 . S
C451 C452 1.391 . S
C452 H429 0.947 . S
C452 C451 1.391 . S
C452 C453 1.392 . S
C453 H430 0.948 . S
C453 C452 1.392 . S
C453 C454 1.419 . S
C454 C453 1.419 . S
C454 C455 1.391 . S
C454 C458 1.397 . S
C455 C450 1.391 . S
C455 C454 1.391 . S
C455 C456 1.399 . S
C456 C455 1.399 . S
C456 C457 1.396 . S
C456 C459 1.453 . S
C456 C460 1.684 . S
C457 C447 1.723 . S
C457 C456 1.396 . S
C457 C458 1.394 . S
C458 C428 1.723 . S
C458 C454 1.397 . S
C458 C457 1.394 . S
C459 H431 0.982 . S
C459 H435 0.979 . S
C459 H436 0.977 . S
C459 C456 1.453 . S
C460 H432 0.979 . S
C460 H433 0.980 . S
C460 H434 0.983 . S
C460 C456 1.684 . S
H461 C479 0.948 . S
H462 C420 0.948 . S
H463 C438 0.979 . S
H464 C438 0.980 . S
H465 C438 0.983 . S
H466 C437 0.982 . S
H467 C437 0.979 . S
H468 C437 0.977 . S
H469 C439 0.948 . S
H470 C441 0.947 . S
H471 C442 0.948 . S
H472 C448 0.982 . S
H473 C448 0.979 . S
H474 C448 0.977 . S
H475 C449 0.979 . S
H476 C449 0.980 . S
H477 C449 0.983 . S
H478 C422 0.947 . S
C479 C422 1.392 . S
C479 C423 1.419 . S
C479 H461 0.948 . S
Tb480 C489 2.764 . S
Tb480 O490 2.325 1_455 S
Tb480 O493 2.303 . S
Tb480 O497 2.322 1_545 S
Tb480 O498 2.349 1_545 S
Tb480 O501 2.415 . S
Tb480 O502 2.399 . S
Tb481 O491 2.322 1_565 S
Tb481 O492 2.349 1_565 S
Tb481 O494 2.415 . S
Tb481 O495 2.399 . S
Tb481 O496 2.325 1_655 S
Tb481 O499 2.303 . S
Tb481 C510 2.764 . S
C482 O498 1.261 1_655 S
C482 O499 1.257 . S
C483 C486 1.358 . S
C483 C487 1.332 . S
C483 C489 1.504 . S
C484 C485 1.373 . S
C484 C488 1.308 . S
C485 C484 1.373 . S
C485 C486 1.429 . S
C485 H512 0.932 . S
C486 C483 1.358 . S
C486 C485 1.429 . S
C486 H513 0.930 . S
C487 C483 1.332 . S
C487 C488 1.394 . S
C487 H514 0.932 . S
C488 C484 1.308 . S
C488 C487 1.394 . S
C488 H515 0.929 . S
C489 Tb480 2.764 . S
C489 C483 1.504 . S
C489 O501 1.239 . S
C489 O502 1.263 . S
O490 Tb480 2.325 1_655 S
O490 C500 1.236 . S
O491 Tb481 2.322 1_545 S
O491 C500 1.257 . S
O492 Tb481 2.349 1_545 S
O492 C503 1.261 1_655 S
O493 Tb480 2.303 . S
O493 C503 1.257 . S
O494 Tb481 2.415 . S
O494 C510 1.239 . S
O495 Tb481 2.399 . S
O495 C510 1.263 . S
O496 Tb481 2.325 1_455 S
O496 C511 1.236 . S
O497 Tb480 2.322 1_565 S
O497 C511 1.257 . S
O498 Tb480 2.349 1_565 S
O498 C482 1.261 1_455 S
O499 Tb481 2.303 . S
O499 C482 1.257 . S
C500 O490 1.236 . S
C500 O491 1.257 . S
O501 Tb480 2.415 . S
O501 C489 1.239 . S
O502 Tb480 2.399 . S
O502 C489 1.263 . S
C503 O492 1.261 1_455 S
C503 O493 1.257 . S
C504 C507 1.358 . S
C504 C508 1.332 . S
C504 C510 1.504 . S
C505 C506 1.373 . S
C505 C509 1.308 . S
C506 C505 1.373 . S
C506 C507 1.429 . S
C506 H516 0.932 . S
C507 C504 1.358 . S
C507 C506 1.429 . S
C507 H517 0.930 . S
C508 C504 1.332 . S
C508 C509 1.394 . S
C508 H518 0.932 . S
C509 C505 1.308 . S
C509 C508 1.394 . S
C509 H519 0.929 . S
C510 Tb481 2.764 . S
C510 O494 1.239 . S
C510 O495 1.263 . S
C510 C504 1.504 . S
C511 O496 1.236 . S
C511 O497 1.257 . S
H512 C485 0.932 . S
H513 C486 0.930 . S
H514 C487 0.932 . S
H515 C488 0.929 . S
H516 C506 0.932 . S
H517 C507 0.930 . S
H518 C508 0.932 . S
H519 C509 0.929 . S
Tb520 C529 2.764 . S
Tb520 O530 2.325 1_554 S
Tb520 O533 2.303 . S
Tb520 O537 2.322 1_545 S
Tb520 O538 2.324 1_544 S
Tb520 O541 2.415 . S
Tb520 O542 2.399 . S
Tb521 O531 2.322 1_565 S
Tb521 O532 2.349 1_566 S
Tb521 O534 2.415 . S
Tb521 O535 2.399 . S
Tb521 O536 2.325 1_556 S
Tb521 O539 2.303 . S
Tb521 C550 2.764 . S
C522 O538 1.293 . S
C522 O539 1.257 . S
C523 C526 1.358 . S
C523 C527 1.332 . S
C523 C529 1.504 . S
C524 C525 1.373 . S
C524 C528 1.308 . S
C525 C524 1.373 . S
C525 C526 1.429 . S
C525 H552 0.932 . S
C526 C523 1.358 . S
C526 C525 1.429 . S
C526 H553 0.930 . S
C527 C523 1.332 . S
C527 C528 1.394 . S
C527 H554 0.932 . S
C528 C524 1.308 . S
C528 C527 1.394 . S
C528 H555 0.929 . S
C529 Tb520 2.764 . S
C529 C523 1.504 . S
C529 O541 1.239 . S
C529 O542 1.263 . S
O530 Tb520 2.325 1_556 S
O530 C540 1.236 . S
O531 Tb521 2.322 1_545 S
O531 C540 1.257 . S
O532 Tb521 2.349 1_544 S
O532 C543 1.261 . S
O533 Tb520 2.303 . S
O533 C543 1.257 . S
O534 Tb521 2.415 . S
O534 C550 1.239 . S
O535 Tb521 2.399 . S
O535 C550 1.263 . S
O536 Tb521 2.325 1_554 S
O536 C551 1.236 . S
O537 Tb520 2.322 1_565 S
O537 C551 1.257 . S
O538 Tb520 2.324 1_566 S
O538 C522 1.293 . S
O539 Tb521 2.303 . S
O539 C522 1.257 . S
C540 O530 1.236 . S
C540 O531 1.257 . S
O541 Tb520 2.415 . S
O541 C529 1.239 . S
O542 Tb520 2.399 . S
O542 C529 1.263 . S
C543 O532 1.261 . S
C543 O533 1.257 . S
C544 C547 1.358 . S
C544 C548 1.332 . S
C544 C550 1.504 . S
C545 C546 1.373 . S
C545 C549 1.308 . S
C546 C545 1.373 . S
C546 C547 1.429 . S
C546 H556 0.932 . S
C547 C544 1.358 . S
C547 C546 1.429 . S
C547 H557 0.930 . S
C548 C544 1.332 . S
C548 C549 1.394 . S
C548 H558 0.932 . S
C549 C545 1.308 . S
C549 C548 1.394 . S
C549 H559 0.929 . S
C550 Tb521 2.764 . S
C550 O534 1.239 . S
C550 O535 1.263 . S
C550 C544 1.504 . S
C551 O536 1.236 . S
C551 O537 1.257 . S
H552 C525 0.932 . S
H553 C526 0.930 . S
H554 C527 0.932 . S
H555 C528 0.929 . S
H556 C546 0.932 . S
H557 C547 0.930 . S
H558 C548 0.932 . S
H559 C549 0.929 . S
Tb560 C569 2.764 . S
Tb560 O570 2.325 . S
Tb560 O573 2.303 . S
Tb560 O577 2.322 . S
Tb560 O578 2.349 . S
Tb560 O581 2.415 . S
Tb560 O582 2.399 . S
Tb561 O571 2.322 . S
Tb561 O572 2.349 . S
Tb561 O574 2.415 . S
Tb561 O575 2.399 . S
Tb561 O576 2.325 . S
Tb561 O579 2.303 . S
Tb561 C590 2.764 . S
C562 O578 1.261 . S
C562 O579 1.257 . S
C563 C566 1.358 . S
C563 C567 1.332 . S
C563 C569 1.504 . S
C564 C565 1.373 . S
C564 C568 1.308 . S
C565 C564 1.373 . S
C565 C566 1.429 . S
C565 H592 0.932 . S
C566 C563 1.358 . S
C566 C565 1.429 . S
C566 H593 0.930 . S
C567 C563 1.332 . S
C567 C568 1.394 . S
C567 H594 0.932 . S
C568 C564 1.308 . S
C568 C567 1.394 . S
C568 H595 0.929 . S
C569 Tb560 2.764 . S
C569 C563 1.504 . S
C569 O581 1.239 . S
C569 O582 1.263 . S
O570 Tb560 2.325 . S
O570 C580 1.236 . S
O571 Tb561 2.322 . S
O571 C580 1.257 . S
O572 Tb561 2.349 . S
O572 C583 1.261 . S
O573 Tb560 2.303 . S
O573 C583 1.257 . S
O574 Tb561 2.415 . S
O574 C590 1.239 . S
O575 Tb561 2.399 . S
O575 C590 1.263 . S
O576 Tb561 2.325 . S
O576 C591 1.236 . S
O577 Tb560 2.322 . S
O577 C591 1.257 . S
O578 Tb560 2.349 . S
O578 C562 1.261 . S
O579 Tb561 2.303 . S
O579 C562 1.257 . S
C580 O570 1.236 . S
C580 O571 1.257 . S
O581 Tb560 2.415 . S
O581 C569 1.239 . S
O582 Tb560 2.399 . S
O582 C569 1.263 . S
C583 O572 1.261 . S
C583 O573 1.257 . S
C584 C587 1.358 . S
C584 C588 1.332 . S
C584 C590 1.504 . S
C585 C586 1.373 . S
C585 C589 1.308 . S
C586 C585 1.373 . S
C586 C587 1.429 . S
C586 H596 0.932 . S
C587 C584 1.358 . S
C587 C586 1.429 . S
C587 H597 0.930 . S
C588 C584 1.332 . S
C588 C589 1.394 . S
C588 H598 0.932 . S
C589 C585 1.308 . S
C589 C588 1.394 . S
C589 H599 0.929 . S
C590 Tb561 2.764 . S
C590 O574 1.239 . S
C590 O575 1.263 . S
C590 C584 1.504 . S
C591 O576 1.236 . S
C591 O577 1.257 . S
H592 C565 0.932 . S
H593 C566 0.930 . S
H594 C567 0.932 . S
H595 C568 0.929 . S
H596 C586 0.932 . S
H597 C587 0.930 . S
H598 C588 0.932 . S
H599 C589 0.929 . S
Tb600 C609 2.764 . S
Tb600 O610 2.325 . S
Tb600 O613 2.303 1_556 S
Tb600 O617 2.334 1_655 S
Tb600 O618 2.349 1_655 S
Tb600 O621 2.415 . S
Tb600 O622 2.399 . S
Tb601 O611 2.338 1_455 S
Tb601 O612 2.349 1_455 S
Tb601 O614 2.415 . S
Tb601 O615 2.399 . S
Tb601 O616 2.325 . S
Tb601 O619 2.303 1_554 S
Tb601 C630 2.764 . S
C602 O618 1.261 . S
C602 O619 1.257 . S
C603 C606 1.358 . S
C603 C607 1.332 . S
C603 C609 1.504 . S
C604 C605 1.373 . S
C604 C608 1.308 . S
C605 C604 1.373 . S
C605 C606 1.429 . S
C605 H632 0.932 . S
C606 C603 1.358 . S
C606 C605 1.429 . S
C606 H633 0.930 . S
C607 C603 1.332 . S
C607 C608 1.394 . S
C607 H634 0.932 . S
C608 C604 1.308 . S
C608 C607 1.394 . S
C608 H635 0.929 . S
C609 Tb600 2.764 . S
C609 C603 1.504 . S
C609 O621 1.239 . S
C609 O622 1.263 . S
O610 Tb600 2.325 . S
O610 C620 1.236 . S
O611 Tb601 2.338 1_655 S
O611 C620 1.233 1_554 S
O612 Tb601 2.349 1_655 S
O612 C623 1.261 . S
O613 Tb600 2.303 1_554 S
O613 C623 1.257 . S
O614 Tb601 2.415 . S
O614 C630 1.239 . S
O615 Tb601 2.399 . S
O615 C630 1.263 . S
O616 Tb601 2.325 . S
O616 C631 1.236 . S
O617 Tb600 2.334 1_455 S
O617 C631 1.240 1_556 S
O618 Tb600 2.349 1_455 S
O618 C602 1.261 . S
O619 Tb601 2.303 1_556 S
O619 C602 1.257 . S
C620 O610 1.236 . S
C620 O611 1.233 1_556 S
O621 Tb600 2.415 . S
O621 C609 1.239 . S
O622 Tb600 2.399 . S
O622 C609 1.263 . S
C623 O612 1.261 . S
C623 O613 1.257 . S
C624 C627 1.358 . S
C624 C628 1.332 . S
C624 C630 1.504 . S
C625 C626 1.373 . S
C625 C629 1.308 . S
C626 C625 1.373 . S
C626 C627 1.429 . S
C626 H636 0.932 . S
C627 C624 1.358 . S
C627 C626 1.429 . S
C627 H637 0.930 . S
C628 C624 1.332 . S
C628 C629 1.394 . S
C628 H638 0.932 . S
C629 C625 1.308 . S
C629 C628 1.394 . S
C629 H639 0.929 . S
C630 Tb601 2.764 . S
C630 O614 1.239 . S
C630 O615 1.263 . S
C630 C624 1.504 . S
C631 O616 1.236 . S
C631 O617 1.240 1_554 S
H632 C605 0.932 . S
H633 C606 0.930 . S
H634 C607 0.932 . S
H635 C608 0.929 . S
H636 C626 0.932 . S
H637 C627 0.930 . S
H638 C628 0.932 . S
H639 C629 0.929 . S
H640 C648 0.950 . S
H641 C653 0.950 . S
H642 C650 0.950 . S
H643 C652 0.950 . S
H644 C654 0.950 . S
H645 C656 0.950 . S
H646 C658 0.950 . S
H647 C659 0.950 . S
C648 H640 0.950 . S
C648 C649 1.386 . S
C648 C650 1.391 . S
C649 C648 1.386 . S
C649 C653 1.393 . S
C650 H642 0.950 . S
C650 C648 1.391 . S
C650 C651 1.400 . S
C651 C650 1.400 . S
C651 C652 1.398 . S
C651 C657 1.491 . S
C652 H643 0.950 . S
C652 C651 1.398 . S
C652 C653 1.391 . S
C653 H641 0.950 . S
C653 C649 1.393 . S
C653 C652 1.391 . S
C654 H644 0.950 . S
C654 C655 1.386 . S
C654 C656 1.391 . S
C655 C654 1.386 . S
C655 C659 1.393 . S
C656 H645 0.950 . S
C656 C654 1.391 . S
C656 C657 1.400 . S
C657 C651 1.491 . S
C657 C656 1.400 . S
C657 C658 1.398 . S
C658 H646 0.950 . S
C658 C657 1.398 . S
C658 C659 1.391 . S
C659 H647 0.950 . S
C659 C655 1.393 . S
C659 C658 1.391 . S
H660 C668 0.950 . S
H661 C673 0.950 . S
H662 C670 0.950 . S
H663 C672 0.950 . S
H664 C674 0.950 . S
H665 C676 0.950 . S
H666 C678 0.950 . S
H667 C679 0.950 . S
C668 H660 0.950 . S
C668 C669 1.386 . S
C668 C670 1.391 . S
C669 C668 1.386 . S
C669 C673 1.393 . S
C670 H662 0.950 . S
C670 C668 1.391 . S
C670 C671 1.400 . S
C671 C670 1.400 . S
C671 C672 1.398 . S
C671 C677 1.491 . S
C672 H663 0.950 . S
C672 C671 1.398 . S
C672 C673 1.391 . S
C673 H661 0.950 . S
C673 C669 1.393 . S
C673 C672 1.391 . S
C674 H664 0.950 . S
C674 C675 1.386 . S
C674 C676 1.391 . S
C675 C674 1.386 . S
C675 C679 1.393 . S
C676 H665 0.950 . S
C676 C674 1.391 . S
C676 C677 1.400 . S
C677 C671 1.491 . S
C677 C676 1.400 . S
C677 C678 1.398 . S
C678 H666 0.950 . S
C678 C677 1.398 . S
C678 C679 1.391 . S
C679 H667 0.950 . S
C679 C675 1.393 . S
C679 C678 1.391 . S
H680 C688 0.950 . S
H681 C693 0.950 . S
H682 C690 0.950 . S
H683 C692 0.950 . S
H684 C694 0.950 . S
H685 C696 0.950 . S
H686 C698 0.950 . S
H687 C699 0.950 . S
C688 H680 0.950 . S
C688 C689 1.386 . S
C688 C690 1.391 . S
C689 C688 1.386 . S
C689 C693 1.393 . S
C690 H682 0.950 . S
C690 C688 1.391 . S
C690 C691 1.400 . S
C691 C690 1.400 . S
C691 C692 1.398 . S
C691 C697 1.491 . S
C692 H683 0.950 . S
C692 C691 1.398 . S
C692 C693 1.391 . S
C693 H681 0.950 . S
C693 C689 1.393 . S
C693 C692 1.391 . S
C694 H684 0.950 . S
C694 C695 1.386 . S
C694 C696 1.391 . S
C695 C694 1.386 . S
C695 C699 1.393 . S
C696 H685 0.950 . S
C696 C694 1.391 . S
C696 C697 1.400 . S
C697 C691 1.491 . S
C697 C696 1.400 . S
C697 C698 1.398 . S
C698 H686 0.950 . S
C698 C697 1.398 . S
C698 C699 1.391 . S
C699 H687 0.950 . S
C699 C695 1.393 . S
C699 C698 1.391 . S
H700 C708 0.950 . S
H701 C713 0.950 . S
H702 C710 0.950 . S
H703 C712 0.950 . S
H704 C714 0.950 . S
H705 C716 0.950 . S
H706 C718 0.950 . S
H707 C719 0.950 . S
C708 H700 0.950 . S
C708 C709 1.386 . S
C708 C710 1.391 . S
C709 C708 1.386 . S
C709 C713 1.393 . S
C710 H702 0.950 . S
C710 C708 1.391 . S
C710 C711 1.400 . S
C711 C710 1.400 . S
C711 C712 1.398 . S
C711 C717 1.491 . S
C712 H703 0.950 . S
C712 C711 1.398 . S
C712 C713 1.391 . S
C713 H701 0.950 . S
C713 C709 1.393 . S
C713 C712 1.391 . S
C714 H704 0.950 . S
C714 C715 1.386 . S
C714 C716 1.391 . S
C715 C714 1.386 . S
C715 C719 1.393 . S
C716 H705 0.950 . S
C716 C714 1.391 . S
C716 C717 1.400 . S
C717 C711 1.491 . S
C717 C716 1.400 . S
C717 C718 1.398 . S
C718 H706 0.950 . S
C718 C717 1.398 . S
C718 C719 1.391 . S
C719 H707 0.950 . S
C719 C715 1.393 . S
C719 C718 1.391 . S
H720 C728 0.950 . S
H721 C733 0.950 . S
H722 C730 0.950 . S
H723 C732 0.950 . S
H724 C734 0.950 . S
H725 C736 0.950 . S
H726 C738 0.950 . S
H727 C739 0.950 . S
C728 H720 0.950 . S
C728 C729 1.386 . S
C728 C730 1.391 . S
C729 C728 1.386 . S
C729 C733 1.393 . S
C730 H722 0.950 . S
C730 C728 1.391 . S
C730 C731 1.400 . S
C731 C730 1.400 . S
C731 C732 1.398 . S
C731 C737 1.491 . S
C732 H723 0.950 . S
C732 C731 1.398 . S
C732 C733 1.391 . S
C733 H721 0.950 . S
C733 C729 1.393 . S
C733 C732 1.391 . S
C734 H724 0.950 . S
C734 C735 1.386 . S
C734 C736 1.391 . S
C735 C734 1.386 . S
C735 C739 1.393 . S
C736 H725 0.950 . S
C736 C734 1.391 . S
C736 C737 1.400 . S
C737 C731 1.491 . S
C737 C736 1.400 . S
C737 C738 1.398 . S
C738 H726 0.950 . S
C738 C737 1.398 . S
C738 C739 1.391 . S
C739 H727 0.950 . S
C739 C735 1.393 . S
C739 C738 1.391 . S
H740 C748 0.950 . S
H741 C753 0.950 . S
H742 C750 0.950 . S
H743 C752 0.950 . S
H744 C754 0.950 . S
H745 C756 0.950 . S
H746 C758 0.950 . S
H747 C759 0.950 1_655 S
C748 H740 0.950 . S
C748 C749 1.386 . S
C748 C750 1.391 . S
C749 C748 1.386 . S
C749 C753 1.393 . S
C750 H742 0.950 . S
C750 C748 1.391 . S
C750 C751 1.400 . S
C751 C750 1.400 . S
C751 C752 1.398 . S
C751 C757 1.491 . S
C752 H743 0.950 . S
C752 C751 1.398 . S
C752 C753 1.391 . S
C753 H741 0.950 . S
C753 C749 1.393 . S
C753 C752 1.391 . S
C754 H744 0.950 . S
C754 C755 1.386 . S
C754 C756 1.391 . S
C755 C754 1.386 . S
C755 C759 1.393 . S
C756 H745 0.950 . S
C756 C754 1.391 . S
C756 C757 1.400 . S
C757 C751 1.491 . S
C757 C756 1.400 . S
C757 C758 1.398 . S
C758 H746 0.950 . S
C758 C757 1.398 . S
C758 C759 1.391 . S
C759 H747 0.950 1_455 S
C759 C755 1.393 . S
C759 C758 1.391 . S
H760 C768 0.950 . S
H761 C773 0.950 . S
H762 C770 0.950 . S
H763 C772 0.950 . S
H764 C774 0.950 . S
H765 C776 0.950 . S
H766 C778 0.950 . S
H767 C779 0.950 1_554 S
C768 H760 0.950 . S
C768 C769 1.386 . S
C768 C770 1.391 . S
C769 C768 1.386 . S
C769 C773 1.393 . S
C770 H762 0.950 . S
C770 C768 1.391 . S
C770 C771 1.400 . S
C771 C770 1.400 . S
C771 C772 1.398 . S
C771 C777 1.491 . S
C772 H763 0.950 . S
C772 C771 1.398 . S
C772 C773 1.391 . S
C773 H761 0.950 . S
C773 C769 1.393 . S
C773 C772 1.391 . S
C774 H764 0.950 . S
C774 C775 1.386 . S
C774 C776 1.391 . S
C775 C774 1.386 . S
C775 C779 1.393 . S
C776 H765 0.950 . S
C776 C774 1.391 . S
C776 C777 1.400 . S
C777 C771 1.491 . S
C777 C776 1.400 . S
C777 C778 1.398 . S
C778 H766 0.950 . S
C778 C777 1.398 . S
C778 C779 1.391 . S
C779 H767 0.950 1_556 S
C779 C775 1.393 . S
C779 C778 1.391 . S
H780 C788 0.950 . S
H781 C793 0.950 . S
H782 C790 0.950 . S
H783 C792 0.950 . S
H784 C794 0.950 . S
H785 C796 0.950 . S
H786 C798 0.950 . S
H787 C799 0.950 . S
C788 H780 0.950 . S
C788 C789 1.386 . S
C788 C790 1.391 . S
C789 C788 1.386 . S
C789 C793 1.393 . S
C790 H782 0.950 . S
C790 C788 1.391 . S
C790 C791 1.400 . S
C791 C790 1.400 . S
C791 C792 1.398 . S
C791 C797 1.491 . S
C792 H783 0.950 . S
C792 C791 1.398 . S
C792 C793 1.391 . S
C793 H781 0.950 . S
C793 C789 1.393 . S
C793 C792 1.391 . S
C794 H784 0.950 . S
C794 C795 1.386 . S
C794 C796 1.391 . S
C795 C794 1.386 . S
C795 C799 1.393 . S
C796 H785 0.950 . S
C796 C794 1.391 . S
C796 C797 1.400 . S
C797 C791 1.491 . S
C797 C796 1.400 . S
C797 C798 1.398 . S
C798 H786 0.950 . S
C798 C797 1.398 . S
C798 C799 1.391 . S
C799 H787 0.950 . S
C799 C795 1.393 . S
C799 C798 1.391 . S
H800 C808 0.950 . S
H801 C813 0.950 . S
H802 C810 0.950 . S
H803 C812 0.950 . S
H804 C814 0.950 . S
H805 C816 0.950 . S
H806 C818 0.950 . S
H807 C819 0.950 . S
C808 H800 0.950 . S
C808 C809 1.386 . S
C808 C810 1.391 . S
C809 C808 1.386 . S
C809 C813 1.393 . S
C810 H802 0.950 . S
C810 C808 1.391 . S
C810 C811 1.400 . S
C811 C810 1.400 . S
C811 C812 1.398 . S
C811 C817 1.491 . S
C812 H803 0.950 . S
C812 C811 1.398 . S
C812 C813 1.391 . S
C813 H801 0.950 . S
C813 C809 1.393 . S
C813 C812 1.391 . S
C814 H804 0.950 . S
C814 C815 1.386 . S
C814 C816 1.391 . S
C815 C814 1.386 . S
C815 C819 1.393 . S
C816 H805 0.950 . S
C816 C814 1.391 . S
C816 C817 1.400 . S
C817 C811 1.491 . S
C817 C816 1.400 . S
C817 C818 1.398 . S
C818 H806 0.950 . S
C818 C817 1.398 . S
C818 C819 1.391 . S
C819 H807 0.950 . S
C819 C815 1.393 . S
C819 C818 1.391 . S
H820 C828 0.950 . S
H821 C833 0.950 . S
H822 C830 0.950 . S
H823 C832 0.950 . S
H824 C834 0.950 . S
H825 C836 0.950 . S
H826 C838 0.950 . S
H827 C839 0.950 . S
C828 H820 0.950 . S
C828 C829 1.386 . S
C828 C830 1.391 . S
C829 C828 1.386 . S
C829 C833 1.393 . S
C830 H822 0.950 . S
C830 C828 1.391 . S
C830 C831 1.400 . S
C831 C830 1.400 . S
C831 C832 1.398 . S
C831 C837 1.491 . S
C832 H823 0.950 . S
C832 C831 1.398 . S
C832 C833 1.391 . S
C833 H821 0.950 . S
C833 C829 1.393 . S
C833 C832 1.391 . S
C834 H824 0.950 . S
C834 C835 1.386 . S
C834 C836 1.391 . S
C835 C834 1.386 . S
C835 C839 1.393 . S
C836 H825 0.950 . S
C836 C834 1.391 . S
C836 C837 1.400 . S
C837 C831 1.491 . S
C837 C836 1.400 . S
C837 C838 1.398 . S
C838 H826 0.950 . S
C838 C837 1.398 . S
C838 C839 1.391 . S
C839 H827 0.950 . S
C839 C835 1.393 . S
C839 C838 1.391 . S
H840 C848 0.950 . S
H841 C853 0.950 . S
H842 C850 0.950 . S
H843 C852 0.950 . S
H844 C854 0.950 . S
H845 C856 0.950 . S
H846 C858 0.950 . S
H847 C859 0.950 1_455 S
C848 H840 0.950 . S
C848 C849 1.386 . S
C848 C850 1.391 . S
C849 C848 1.386 . S
C849 C853 1.393 . S
C850 H842 0.950 . S
C850 C848 1.391 . S
C850 C851 1.400 . S
C851 C850 1.400 . S
C851 C852 1.398 . S
C851 C857 1.491 . S
C852 H843 0.950 . S
C852 C851 1.398 . S
C852 C853 1.391 . S
C853 H841 0.950 . S
C853 C849 1.393 . S
C853 C852 1.391 . S
C854 H844 0.950 . S
C854 C855 1.386 . S
C854 C856 1.391 . S
C855 C854 1.386 . S
C855 C859 1.393 . S
C856 H845 0.950 . S
C856 C854 1.391 . S
C856 C857 1.400 . S
C857 C851 1.491 . S
C857 C856 1.400 . S
C857 C858 1.398 . S
C858 H846 0.950 . S
C858 C857 1.398 . S
C858 C859 1.391 . S
C859 H847 0.950 1_655 S
C859 C855 1.393 . S
C859 C858 1.391 . S
H860 C868 0.950 . S
H861 C873 0.950 . S
H862 C870 0.950 . S
H863 C872 0.950 . S
H864 C874 0.950 . S
H865 C876 0.950 . S
H866 C878 0.950 . S
H867 C879 0.950 . S
C868 H860 0.950 . S
C868 C869 1.386 . S
C868 C870 1.391 . S
C869 C868 1.386 . S
C869 C873 1.393 . S
C870 H862 0.950 . S
C870 C868 1.391 . S
C870 C871 1.400 . S
C871 C870 1.400 . S
C871 C872 1.398 . S
C871 C877 1.491 . S
C872 H863 0.950 . S
C872 C871 1.398 . S
C872 C873 1.391 . S
C873 H861 0.950 . S
C873 C869 1.393 . S
C873 C872 1.391 . S
C874 H864 0.950 . S
C874 C875 1.386 . S
C874 C876 1.391 . S
C875 C874 1.386 . S
C875 C879 1.393 . S
C876 H865 0.950 . S
C876 C874 1.391 . S
C876 C877 1.400 . S
C877 C871 1.491 . S
C877 C876 1.400 . S
C877 C878 1.398 . S
C878 H866 0.950 . S
C878 C877 1.398 . S
C878 C879 1.391 . S
C879 H867 0.950 . S
C879 C875 1.393 . S
C879 C878 1.391 . S
H880 C888 0.950 . S
H881 C893 0.950 . S
H882 C890 0.950 . S
H883 C892 0.950 . S
H884 C894 0.950 . S
H885 C896 0.950 . S
H886 C898 0.950 . S
H887 C899 0.950 . S
C888 H880 0.950 . S
C888 C889 1.386 . S
C888 C890 1.391 . S
C889 C888 1.386 . S
C889 C893 1.393 . S
C890 H882 0.950 . S
C890 C888 1.391 . S
C890 C891 1.400 . S
C891 C890 1.400 . S
C891 C892 1.398 . S
C891 C897 1.491 . S
C892 H883 0.950 . S
C892 C891 1.398 . S
C892 C893 1.391 . S
C893 H881 0.950 . S
C893 C889 1.393 . S
C893 C892 1.391 . S
C894 H884 0.950 . S
C894 C895 1.386 . S
C894 C896 1.391 . S
C895 C894 1.386 . S
C895 C899 1.393 . S
C896 H885 0.950 . S
C896 C894 1.391 . S
C896 C897 1.400 . S
C897 C891 1.491 . S
C897 C896 1.400 . S
C897 C898 1.398 . S
C898 H886 0.950 . S
C898 C897 1.398 . S
C898 C899 1.391 . S
C899 H887 0.950 . S
C899 C895 1.393 . S
C899 C898 1.391 . S
H900 C908 0.950 . S
H901 C913 0.950 . S
H902 C910 0.950 . S
H903 C912 0.950 . S
H904 C914 0.950 . S
H905 C916 0.950 . S
H906 C918 0.950 . S
H907 C919 0.950 . S
C908 H900 0.950 . S
C908 C909 1.386 . S
C908 C910 1.391 . S
C909 C908 1.386 . S
C909 C913 1.393 . S
C910 H902 0.950 . S
C910 C908 1.391 . S
C910 C911 1.400 . S
C911 C910 1.400 . S
C911 C912 1.398 . S
C911 C917 1.491 . S
C912 H903 0.950 . S
C912 C911 1.398 . S
C912 C913 1.391 . S
C913 H901 0.950 . S
C913 C909 1.393 . S
C913 C912 1.391 . S
C914 H904 0.950 . S
C914 C915 1.386 . S
C914 C916 1.391 . S
C915 C914 1.386 . S
C915 C919 1.393 . S
C916 H905 0.950 . S
C916 C914 1.391 . S
C916 C917 1.400 . S
C917 C911 1.491 . S
C917 C916 1.400 . S
C917 C918 1.398 . S
C918 H906 0.950 . S
C918 C917 1.398 . S
C918 C919 1.391 . S
C919 H907 0.950 . S
C919 C915 1.393 . S
C919 C918 1.391 . S
H920 C928 0.950 . S
H921 C933 0.950 . S
H922 C930 0.950 . S
H923 C932 0.950 . S
H924 C934 0.950 . S
H925 C936 0.950 . S
H926 C938 0.950 . S
H927 C939 0.950 . S
C928 H920 0.950 . S
C928 C929 1.386 . S
C928 C930 1.391 . S
C929 C928 1.386 . S
C929 C933 1.393 . S
C930 H922 0.950 . S
C930 C928 1.391 . S
C930 C931 1.400 . S
C931 C930 1.400 . S
C931 C932 1.398 . S
C931 C937 1.491 . S
C932 H923 0.950 . S
C932 C931 1.398 . S
C932 C933 1.391 . S
C933 H921 0.950 . S
C933 C929 1.393 . S
C933 C932 1.391 . S
C934 H924 0.950 . S
C934 C935 1.386 . S
C934 C936 1.391 . S
C935 C934 1.386 . S
C935 C939 1.393 . S
C936 H925 0.950 . S
C936 C934 1.391 . S
C936 C937 1.400 . S
C937 C931 1.491 . S
C937 C936 1.400 . S
C937 C938 1.398 . S
C938 H926 0.950 . S
C938 C937 1.398 . S
C938 C939 1.391 . S
C939 H927 0.950 . S
C939 C935 1.393 . S
C939 C938 1.391 . S
H940 C948 0.950 . S
H941 C953 0.950 . S
H942 C950 0.950 . S
H943 C952 0.950 . S
H944 C954 0.950 . S
H945 C956 0.950 . S
H946 C958 0.950 . S
H947 C959 0.950 . S
C948 H940 0.950 . S
C948 C949 1.386 . S
C948 C950 1.391 . S
C949 C948 1.386 . S
C949 C953 1.393 . S
C950 H942 0.950 . S
C950 C948 1.391 . S
C950 C951 1.400 . S
C951 C950 1.400 . S
C951 C952 1.398 . S
C951 C957 1.491 . S
C952 H943 0.950 . S
C952 C951 1.398 . S
C952 C953 1.391 . S
C953 H941 0.950 . S
C953 C949 1.393 . S
C953 C952 1.391 . S
C954 H944 0.950 . S
C954 C955 1.386 . S
C954 C956 1.391 . S
C955 C954 1.386 . S
C955 C959 1.393 . S
C956 H945 0.950 . S
C956 C954 1.391 . S
C956 C957 1.400 . S
C957 C951 1.491 . S
C957 C956 1.400 . S
C957 C958 1.398 . S
C958 H946 0.950 . S
C958 C957 1.398 . S
C958 C959 1.391 . S
C959 H947 0.950 . S
C959 C955 1.393 . S
C959 C958 1.391 . S
H960 C968 0.950 . S
H961 C973 0.950 . S
H962 C970 0.950 . S
H963 C972 0.950 . S
H964 C974 0.950 . S
H965 C976 0.950 . S
H966 C978 0.950 . S
H967 C979 0.950 . S
C968 H960 0.950 . S
C968 C969 1.386 . S
C968 C970 1.391 . S
C969 C968 1.386 . S
C969 C973 1.393 . S
C970 H962 0.950 . S
C970 C968 1.391 . S
C970 C971 1.400 . S
C971 C970 1.400 . S
C971 C972 1.398 . S
C971 C977 1.491 . S
C972 H963 0.950 . S
C972 C971 1.398 . S
C972 C973 1.391 . S
C973 H961 0.950 . S
C973 C969 1.393 . S
C973 C972 1.391 . S
C974 H964 0.950 . S
C974 C975 1.386 . S
C974 C976 1.391 . S
C975 C974 1.386 . S
C975 C979 1.393 . S
C976 H965 0.950 . S
C976 C974 1.391 . S
C976 C977 1.400 . S
C977 C971 1.491 . S
C977 C976 1.400 . S
C977 C978 1.398 . S
C978 H966 0.950 . S
C978 C977 1.398 . S
C978 C979 1.391 . S
C979 H967 0.950 . S
C979 C975 1.393 . S
C979 C978 1.391 . S
H980 C988 0.950 . S
H981 C993 0.950 . S
H982 C990 0.950 . S
H983 C992 0.950 . S
H984 C994 0.950 . S
H985 C996 0.950 . S
H986 C998 0.950 . S
H987 C999 0.950 1_455 S
C988 H980 0.950 . S
C988 C989 1.386 . S
C988 C990 1.391 . S
C989 C988 1.386 . S
C989 C993 1.393 . S
C990 H982 0.950 . S
C990 C988 1.391 . S
C990 C991 1.400 . S
C991 C990 1.400 . S
C991 C992 1.398 . S
C991 C997 1.491 . S
C992 H983 0.950 . S
C992 C991 1.398 . S
C992 C993 1.391 . S
C993 H981 0.950 . S
C993 C989 1.393 . S
C993 C992 1.391 . S
C994 H984 0.950 . S
C994 C995 1.386 . S
C994 C996 1.391 . S
C995 C994 1.386 . S
C995 C999 1.393 . S
C996 H985 0.950 . S
C996 C994 1.391 . S
C996 C997 1.400 . S
C997 C991 1.491 . S
C997 C996 1.400 . S
C997 C998 1.398 . S
C998 H986 0.950 . S
C998 C997 1.398 . S
C998 C999 1.391 . S
C999 H987 0.950 1_655 S
C999 C995 1.393 . S
C999 C998 1.391 . S
H1000 C1008 0.950 . S
H1001 C1013 0.950 . S
H1002 C1010 0.950 . S
H1003 C1012 0.950 . S
H1004 C1014 0.950 1_556 S
H1005 C1016 0.950 . S
H1006 C1018 0.950 . S
H1007 C1019 0.950 . S
C1008 H1000 0.950 . S
C1008 C1009 1.386 . S
C1008 C1010 1.391 . S
C1009 C1008 1.386 . S
C1009 C1013 1.393 . S
C1010 H1002 0.950 . S
C1010 C1008 1.391 . S
C1010 C1011 1.400 . S
C1011 C1010 1.400 . S
C1011 C1012 1.398 . S
C1011 C1017 1.491 . S
C1012 H1003 0.950 . S
C1012 C1011 1.398 . S
C1012 C1013 1.391 . S
C1013 H1001 0.950 . S
C1013 C1009 1.393 . S
C1013 C1012 1.391 . S
C1014 H1004 0.950 1_554 S
C1014 C1015 1.386 . S
C1014 C1016 1.391 . S
C1015 C1014 1.386 . S
C1015 C1019 1.393 . S
C1016 H1005 0.950 . S
C1016 C1014 1.391 . S
C1016 C1017 1.400 . S
C1017 C1011 1.491 . S
C1017 C1016 1.400 . S
C1017 C1018 1.398 . S
C1018 H1006 0.950 . S
C1018 C1017 1.398 . S
C1018 C1019 1.391 . S
C1019 H1007 0.950 . S
C1019 C1015 1.393 . S
C1019 C1018 1.391 . S
H1020 C1028 0.950 . S
H1021 C1033 0.950 . S
H1022 C1030 0.950 . S
H1023 C1032 0.950 . S
H1024 C1034 0.950 . S
H1025 C1036 0.950 . S
H1026 C1038 0.950 . S
H1027 C1039 0.950 . S
C1028 H1020 0.950 . S
C1028 C1029 1.386 . S
C1028 C1030 1.391 . S
C1029 C1028 1.386 . S
C1029 C1033 1.393 . S
C1030 H1022 0.950 . S
C1030 C1028 1.391 . S
C1030 C1031 1.400 . S
C1031 C1030 1.400 . S
C1031 C1032 1.398 . S
C1031 C1037 1.491 . S
C1032 H1023 0.950 . S
C1032 C1031 1.398 . S
C1032 C1033 1.391 . S
C1033 H1021 0.950 . S
C1033 C1029 1.393 . S
C1033 C1032 1.391 . S
C1034 H1024 0.950 . S
C1034 C1035 1.386 . S
C1034 C1036 1.391 . S
C1035 C1034 1.386 . S
C1035 C1039 1.393 . S
C1036 H1025 0.950 . S
C1036 C1034 1.391 . S
C1036 C1037 1.400 . S
C1037 C1031 1.491 . S
C1037 C1036 1.400 . S
C1037 C1038 1.398 . S
C1038 H1026 0.950 . S
C1038 C1037 1.398 . S
C1038 C1039 1.391 . S
C1039 H1027 0.950 . S
C1039 C1035 1.393 . S
C1039 C1038 1.391 . S
H1040 C1048 0.950 . S
H1041 C1053 0.950 . S
H1042 C1050 0.950 . S
H1043 C1052 0.950 . S
H1044 C1054 0.950 . S
H1045 C1056 0.950 . S
H1046 C1058 0.950 . S
H1047 C1059 0.950 . S
C1048 H1040 0.950 . S
C1048 C1049 1.386 . S
C1048 C1050 1.391 . S
C1049 C1048 1.386 . S
C1049 C1053 1.393 . S
C1050 H1042 0.950 . S
C1050 C1048 1.391 . S
C1050 C1051 1.400 . S
C1051 C1050 1.400 . S
C1051 C1052 1.398 . S
C1051 C1057 1.491 . S
C1052 H1043 0.950 . S
C1052 C1051 1.398 . S
C1052 C1053 1.391 . S
C1053 H1041 0.950 . S
C1053 C1049 1.393 . S
C1053 C1052 1.391 . S
C1054 H1044 0.950 . S
C1054 C1055 1.386 . S
C1054 C1056 1.391 . S
C1055 C1054 1.386 . S
C1055 C1059 1.393 . S
C1056 H1045 0.950 . S
C1056 C1054 1.391 . S
C1056 C1057 1.400 . S
C1057 C1051 1.491 . S
C1057 C1056 1.400 . S
C1057 C1058 1.398 . S
C1058 H1046 0.950 . S
C1058 C1057 1.398 . S
C1058 C1059 1.391 . S
C1059 H1047 0.950 . S
C1059 C1055 1.393 . S
C1059 C1058 1.391 . S
H1060 C1068 0.950 . S
H1061 C1073 0.950 . S
H1062 C1070 0.950 . S
H1063 C1072 0.950 . S
H1064 C1074 0.950 . S
H1065 C1076 0.950 . S
H1066 C1078 0.950 . S
H1067 C1079 0.950 . S
C1068 H1060 0.950 . S
C1068 C1069 1.386 . S
C1068 C1070 1.391 . S
C1069 C1068 1.386 . S
C1069 C1073 1.393 . S
C1070 H1062 0.950 . S
C1070 C1068 1.391 . S
C1070 C1071 1.400 . S
C1071 C1070 1.400 . S
C1071 C1072 1.398 . S
C1071 C1077 1.491 . S
C1072 H1063 0.950 . S
C1072 C1071 1.398 . S
C1072 C1073 1.391 . S
C1073 H1061 0.950 . S
C1073 C1069 1.393 . S
C1073 C1072 1.391 . S
C1074 H1064 0.950 . S
C1074 C1075 1.386 . S
C1074 C1076 1.391 . S
C1075 C1074 1.386 . S
C1075 C1079 1.393 . S
C1076 H1065 0.950 . S
C1076 C1074 1.391 . S
C1076 C1077 1.400 . S
C1077 C1071 1.491 . S
C1077 C1076 1.400 . S
C1077 C1078 1.398 . S
C1078 H1066 0.950 . S
C1078 C1077 1.398 . S
C1078 C1079 1.391 . S
C1079 H1067 0.950 . S
C1079 C1075 1.393 . S
C1079 C1078 1.391 . S
H1080 C1088 0.950 . S
H1081 C1093 0.950 . S
H1082 C1090 0.950 . S
H1083 C1092 0.950 . S
H1084 C1094 0.950 1_655 S
H1085 C1096 0.950 . S
H1086 C1098 0.950 . S
H1087 C1099 0.950 . S
C1088 H1080 0.950 . S
C1088 C1089 1.386 . S
C1088 C1090 1.391 . S
C1089 C1088 1.386 . S
C1089 C1093 1.393 . S
C1090 H1082 0.950 . S
C1090 C1088 1.391 . S
C1090 C1091 1.400 . S
C1091 C1090 1.400 . S
C1091 C1092 1.398 . S
C1091 C1097 1.491 . S
C1092 H1083 0.950 . S
C1092 C1091 1.398 . S
C1092 C1093 1.391 . S
C1093 H1081 0.950 . S
C1093 C1089 1.393 . S
C1093 C1092 1.391 . S
C1094 H1084 0.950 1_455 S
C1094 C1095 1.386 . S
C1094 C1096 1.391 . S
C1095 C1094 1.386 . S
C1095 C1099 1.393 . S
C1096 H1085 0.950 . S
C1096 C1094 1.391 . S
C1096 C1097 1.400 . S
C1097 C1091 1.491 . S
C1097 C1096 1.400 . S
C1097 C1098 1.398 . S
C1098 H1086 0.950 . S
C1098 C1097 1.398 . S
C1098 C1099 1.391 . S
C1099 H1087 0.950 . S
C1099 C1095 1.393 . S
C1099 C1098 1.391 . S
H1100 C1108 0.950 . S
H1101 C1113 0.950 . S
H1102 C1110 0.950 . S
H1103 C1112 0.950 . S
H1104 C1114 0.950 . S
H1105 C1116 0.950 . S
H1106 C1118 0.950 . S
H1107 C1119 0.950 . S
C1108 H1100 0.950 . S
C1108 C1109 1.386 . S
C1108 C1110 1.391 . S
C1109 C1108 1.386 . S
C1109 C1113 1.393 . S
C1110 H1102 0.950 . S
C1110 C1108 1.391 . S
C1110 C1111 1.400 . S
C1111 C1110 1.400 . S
C1111 C1112 1.398 . S
C1111 C1117 1.491 . S
C1112 H1103 0.950 . S
C1112 C1111 1.398 . S
C1112 C1113 1.391 . S
C1113 H1101 0.950 . S
C1113 C1109 1.393 . S
C1113 C1112 1.391 . S
C1114 H1104 0.950 . S
C1114 C1115 1.386 . S
C1114 C1116 1.391 . S
C1115 C1114 1.386 . S
C1115 C1119 1.393 . S
C1116 H1105 0.950 . S
C1116 C1114 1.391 . S
C1116 C1117 1.400 . S
C1117 C1111 1.491 . S
C1117 C1116 1.400 . S
C1117 C1118 1.398 . S
C1118 H1106 0.950 . S
C1118 C1117 1.398 . S
C1118 C1119 1.391 . S
C1119 H1107 0.950 . S
C1119 C1115 1.393 . S
C1119 C1118 1.391 . S
C649 C1 0.876 . S
C655 C484 0.929 . S
C669 C80 1.187 . S
C675 C545 1.236 . S
C695 C583 2.501 . S
C689 C140 2.521 . S
C709 C211 2.317 . S
C715 C623 2.289 . S
C735 C543 1.286 . S
C729 C31 1.206 . S
C755 C511 2.138 . S
C749 C61 2.044 . S
C775 C620 1.734 . S
C769 C151 1.679 . S
C795 C580 1.850 . S
C789 C200 1.847 . S
C809 C20 1.097 . S
C815 C625 1.119 . S
C835 C540 2.394 . S
C829 C121 2.361 . S
C849 C181 2.131 . S
C855 C482 2.152 . S
C869 C91 1.577 . S
C875 C585 1.569 . S
C895 C505 0.918 . S
C889 C260 0.898 . S
C909 C320 1.195 . S
C915 C524 1.238 . S
C929 C361 2.557 . S
C935 C562 2.502 . S
C949 C451 2.320 . S
C955 C602 2.305 . S
C969 C271 1.214 . S
C975 C522 1.292 . S
C995 C500 2.136 . S
C989 C301 2.055 . S
C1015 C631 1.732 . S
C1009 C380 1.693 . S
C1035 C591 1.854 . S
C1029 C440 1.843 . S
C1049 C241 1.054 . S
C1055 C604 1.123 . S
C1075 C551 2.390 . S
C1069 C391 2.385 . S
C1095 C503 2.152 . S
C1089 C421 2.132 . S
C1109 C331 1.585 . S
C1115 C564 1.585 . S
