# Generated by pormake.
# Topology hwx, (6,3)-cn, num edge types: 1
# Building blocks:
#     Node 0, Type 0, BuildingBlock: OJICUG_clean_sbu_0, # of connection points: 6
#     Node 1, Type 0, BuildingBlock: OJICUG_clean_sbu_0, # of connection points: 6
#     Node 2, Type 0, BuildingBlock: OJICUG_clean_sbu_0, # of connection points: 6
#     Node 3, Type 0, BuildingBlock: OJICUG_clean_sbu_0, # of connection points: 6
#     Node 4, Type 1, BuildingBlock: BETDIP_clean_linker_0, # of connection points: 3
#     Node 5, Type 1, BuildingBlock: BETDIP_clean_linker_0, # of connection points: 3
#     Node 6, Type 1, BuildingBlock: BETDIP_clean_linker_0, # of connection points: 3
#     Node 7, Type 1, BuildingBlock: BETDIP_clean_linker_0, # of connection points: 3
#     Node 8, Type 1, BuildingBlock: BETDIP_clean_linker_0, # of connection points: 3
#     Node 9, Type 1, BuildingBlock: BETDIP_clean_linker_0, # of connection points: 3
#     Node 10, Type 1, BuildingBlock: BETDIP_clean_linker_0, # of connection points: 3
#     Node 11, Type 1, BuildingBlock: BETDIP_clean_linker_0, # of connection points: 3
#     Edge 12, Type (0, 1), BuildingBlock: XUDNAN_clean_linker_2, # of connection points: 2
#     Edge 13, Type (0, 1), BuildingBlock: XUDNAN_clean_linker_2, # of connection points: 2
#     Edge 14, Type (0, 1), BuildingBlock: XUDNAN_clean_linker_2, # of connection points: 2
#     Edge 15, Type (0, 1), BuildingBlock: XUDNAN_clean_linker_2, # of connection points: 2
#     Edge 16, Type (0, 1), BuildingBlock: XUDNAN_clean_linker_2, # of connection points: 2
#     Edge 17, Type (0, 1), BuildingBlock: XUDNAN_clean_linker_2, # of connection points: 2
#     Edge 18, Type (0, 1), BuildingBlock: XUDNAN_clean_linker_2, # of connection points: 2
#     Edge 19, Type (0, 1), BuildingBlock: XUDNAN_clean_linker_2, # of connection points: 2
#     Edge 20, Type (0, 1), BuildingBlock: XUDNAN_clean_linker_2, # of connection points: 2
#     Edge 21, Type (0, 1), BuildingBlock: XUDNAN_clean_linker_2, # of connection points: 2
#     Edge 22, Type (0, 1), BuildingBlock: XUDNAN_clean_linker_2, # of connection points: 2
#     Edge 23, Type (0, 1), BuildingBlock: XUDNAN_clean_linker_2, # of connection points: 2
#     Edge 24, Type (0, 1), BuildingBlock: XUDNAN_clean_linker_2, # of connection points: 2
#     Edge 25, Type (0, 1), BuildingBlock: XUDNAN_clean_linker_2, # of connection points: 2
#     Edge 26, Type (0, 1), BuildingBlock: XUDNAN_clean_linker_2, # of connection points: 2
#     Edge 27, Type (0, 1), BuildingBlock: XUDNAN_clean_linker_2, # of connection points: 2
#     Edge 28, Type (0, 1), BuildingBlock: XUDNAN_clean_linker_2, # of connection points: 2
#     Edge 29, Type (0, 1), BuildingBlock: XUDNAN_clean_linker_2, # of connection points: 2
#     Edge 30, Type (0, 1), BuildingBlock: XUDNAN_clean_linker_2, # of connection points: 2
#     Edge 31, Type (0, 1), BuildingBlock: XUDNAN_clean_linker_2, # of connection points: 2
#     Edge 32, Type (0, 1), BuildingBlock: XUDNAN_clean_linker_2, # of connection points: 2
#     Edge 33, Type (0, 1), BuildingBlock: XUDNAN_clean_linker_2, # of connection points: 2
#     Edge 34, Type (0, 1), BuildingBlock: XUDNAN_clean_linker_2, # of connection points: 2
#     Edge 35, Type (0, 1), BuildingBlock: XUDNAN_clean_linker_2, # of connection points: 2
# Relax obj value: 0.006
# Max RMSD: 0.045
# Mean RMSD: 0.041
data_MOF--net-hwx--node1-OJICUG_clean_sbu_0--node2-BETDIP_clean_linker_0--edge1-XUDNAN_clean_linker_2
_symmetry_space_group_name_H-M    P1
_symmetry_Int_Tables_number       1
_symmetry_cell_setting            triclinic
loop_
_symmetry_equiv_pos_as_xyz
'x, y, z'
_cell_length_a     53.037264
_cell_length_b     53.012933
_cell_length_c     20.247801
_cell_angle_alpha  91.676232
_cell_angle_beta   91.492657
_cell_angle_gamma 89.964454
loop_
_atom_site_label
_atom_site_type_symbol
_atom_site_fract_x
_atom_site_fract_y
_atom_site_fract_z
_atom_type_partial_charge
Sc0 Sc 0.22338 0.22127 0.09409 0.0
Sc1 Sc 0.17991 0.18999 0.98457 0.0
Sc2 Sc 0.22603 0.23085 0.92393 0.0
O3 O 0.20976 0.21396 0.00083 0.0
C4 C 0.22542 0.27577 0.03123 0.0
C5 C 0.16353 0.22298 0.11016 0.0
C6 C 0.16799 0.23227 0.87933 0.0
C7 C 0.21006 0.16268 0.10053 0.0
C8 C 0.27405 0.21712 0.01469 0.0
C9 C 0.21748 0.17408 0.87028 0.0
O10 O 0.22627 0.26091 0.07923 0.0
O11 O 0.15819 0.20838 0.0608 0.0
O12 O 0.19059 0.23995 0.87725 0.0
O13 O 0.22165 0.18249 0.12079 0.0
O14 O 0.26343 0.22363 0.96097 0.0
O15 O 0.19899 0.16956 0.90692 0.0
O16 O 0.26225 0.21489 0.0681 0.0
O17 O 0.19443 0.16244 0.05192 0.0
O18 O 0.22891 0.19519 0.87066 0.0
O19 O 0.18596 0.22901 0.12792 0.0
O20 O 0.22485 0.26799 0.97117 0.0
O21 O 0.16134 0.21429 0.91514 0.0
Sc22 Sc 0.28113 0.71778 0.442 0.0
Sc23 Sc 0.32006 0.68358 0.55195 0.0
Sc24 Sc 0.27574 0.72702 0.61375 0.0
O25 O 0.29232 0.70946 0.5358 0.0
C26 C 0.28084 0.77208 0.51342 0.0
C27 C 0.34136 0.7137 0.43272 0.0
C28 C 0.33285 0.7255 0.66455 0.0
C29 C 0.28964 0.65864 0.42763 0.0
C30 C 0.22854 0.71686 0.51616 0.0
C31 C 0.2804 0.66977 0.65937 0.0
O32 O 0.28299 0.75775 0.46246 0.0
O33 O 0.34471 0.70166 0.48552 0.0
O34 O 0.31132 0.73595 0.66213 0.0
O35 O 0.27833 0.6788 0.41195 0.0
O36 O 0.23864 0.72001 0.57332 0.0
O37 O 0.29779 0.6635 0.62015 0.0
O38 O 0.24116 0.71662 0.46348 0.0
O39 O 0.30585 0.6578 0.47494 0.0
O40 O 0.27163 0.69207 0.66447 0.0
O41 O 0.31969 0.7196 0.40929 0.0
O42 O 0.27745 0.7637 0.57073 0.0
O43 O 0.33815 0.70575 0.63066 0.0
Sc44 Sc 0.77342 0.77155 0.90347 0.0
Sc45 Sc 0.81537 0.81763 0.97022 0.0
Sc46 Sc 0.77685 0.78314 0.07546 0.0
O47 O 0.78858 0.79075 0.98319 0.0
C48 C 0.72521 0.78323 0.99049 0.0
C49 C 0.77684 0.82819 0.85202 0.0
C50 C 0.78396 0.843 0.08717 0.0
C51 C 0.83095 0.77439 0.86521 0.0
C52 C 0.7769 0.72776 0.00859 0.0
C53 C 0.83688 0.78873 0.09565 0.0
O54 O 0.73584 0.77842 0.93603 0.0
O55 O 0.79339 0.8357 0.89459 0.0
O56 O 0.77429 0.82239 0.10458 0.0
O57 O 0.8098 0.76313 0.86392 0.0
O58 O 0.7778 0.74289 0.0584 0.0
O59 O 0.83966 0.80213 0.04525 0.0
O60 O 0.77526 0.73531 0.94962 0.0
O61 O 0.83518 0.79477 0.8983 0.0
O62 O 0.81544 0.78075 0.1132 0.0
O63 O 0.76901 0.8055 0.84769 0.0
O64 O 0.7372 0.78493 0.04583 0.0
O65 O 0.79931 0.84413 0.04022 0.0
Sc66 Sc 0.72305 0.27368 0.59999 0.0
Sc67 Sc 0.69181 0.32191 0.51267 0.0
Sc68 Sc 0.72437 0.27437 0.42612 0.0
O69 O 0.71311 0.28997 0.5131 0.0
C70 C 0.77336 0.26721 0.51963 0.0
C71 C 0.72899 0.3329 0.63526 0.0
C72 C 0.73209 0.33277 0.4023 0.0
C73 C 0.66614 0.28968 0.6243 0.0
C74 C 0.71043 0.22557 0.50493 0.0
C75 C 0.66765 0.29096 0.39075 0.0
O76 O 0.76193 0.27003 0.57377 0.0
O77 O 0.71541 0.34001 0.58684 0.0
O78 O 0.73797 0.30975 0.39289 0.0
O79 O 0.6851 0.27547 0.63418 0.0
O80 O 0.71215 0.23759 0.45193 0.0
O81 O 0.66613 0.30689 0.43843 0.0
O82 O 0.71491 0.23555 0.56207 0.0
O83 O 0.66626 0.30773 0.58427 0.0
O84 O 0.68778 0.27886 0.37837 0.0
O85 O 0.73251 0.30978 0.64858 0.0
O86 O 0.76211 0.2676 0.46344 0.0
O87 O 0.71479 0.33992 0.44095 0.0
H88 H 0.22491 0.50279 0.90753 0.0
H89 H 0.23862 0.49934 0.11796 0.0
H90 H 0.2526 0.56797 0.01754 0.0
H91 H 0.20487 0.47196 0.10502 0.0
C92 C 0.21172 0.46055 0.06377 0.0
C93 C 0.23102 0.51168 0.95411 0.0
C94 C 0.23889 0.53691 0.95632 0.0
C95 C 0.23054 0.49805 0.01237 0.0
C96 C 0.23852 0.50976 0.07278 0.0
C97 C 0.2462 0.53509 0.07523 0.0
C98 C 0.24651 0.54842 0.01655 0.0
N99 N 0.22231 0.47254 0.00916 0.0
H100 H 0.99497 0.7203 0.59672 0.0
H101 H 0.99841 0.73111 0.3869 0.0
H102 H 0.93002 0.74716 0.48993 0.0
H103 H 0.0403 0.73187 0.4051 0.0
C104 C 0.04474 0.72227 0.45054 0.0
C105 C 0.98606 0.72578 0.55052 0.0
C106 C 0.9609 0.73369 0.5494 0.0
C107 C 8e-05 0.72559 0.49272 0.0
C108 C 0.98823 0.73225 0.43245 0.0
C109 C 0.96268 0.73957 0.43072 0.0
C110 C 0.94947 0.74079 0.4899 0.0
N111 N 0.02585 0.71833 0.4978 0.0
H112 H 0.78296 0.49481 0.15181 0.0
H113 H 0.77097 0.49405 0.9405 0.0
H114 H 0.7853 0.42489 0.04083 0.0
H115 H 0.7776 0.53527 0.94846 0.0
C116 C 0.77654 0.5419 -0.00051 0.0
C117 C 0.78194 0.48459 0.10466 0.0
C118 C 0.7845 0.45832 0.10254 0.0
C119 C 0.77825 0.49784 0.04626 0.0
C120 C 0.77552 0.48429 0.98533 0.0
C121 C 0.7775 0.45773 0.98293 0.0
C122 C 0.78305 0.44521 0.04169 0.0
N123 N 0.77671 0.52461 0.05194 0.0
H124 H 0.0004 0.2565 0.38262 0.0
H125 H 0.00823 0.26002 0.5952 0.0
H126 H 0.07153 0.27639 0.47565 0.0
H127 H 0.95896 0.25904 0.40116 0.0
C128 C 0.95533 0.25393 0.45152 0.0
C129 C 0.01152 0.26041 0.42726 0.0
C130 C 0.03694 0.26731 0.4222 0.0
C131 C 0.00099 0.25833 0.49014 0.0
C132 C 0.01627 0.26215 0.54699 0.0
C133 C 0.04161 0.26906 0.54221 0.0
C134 C 0.05169 0.27189 0.47972 0.0
N135 N 0.97529 0.25231 0.49923 0.0
H136 H 0.72423 0.99547 0.60448 0.0
H137 H 0.73405 0.00376 0.39537 0.0
H138 H 0.74375 0.93126 0.48221 0.0
H139 H 0.69932 0.03063 0.4167 0.0
C140 C 0.70749 0.0414 0.45846 0.0
C141 C 0.72879 0.98744 0.55642 0.0
C142 C 0.73394 0.96158 0.54914 0.0
C143 C 0.72822 0.00272 0.50086 0.0
C144 C 0.73401 0.99207 0.43833 0.0
C145 C 0.73945 0.96621 0.43101 0.0
C146 C 0.73939 0.95123 0.48687 0.0
N147 N 0.72119 0.02852 0.50846 0.0
H148 H 0.50237 0.23342 0.88848 0.0
H149 H 0.50442 0.23235 0.1014 0.0
H150 H 0.56979 0.25495 -0.00202 0.0
H151 H 0.46286 0.2336 0.09114 0.0
C152 C 0.45741 0.22514 0.04346 0.0
C153 C 0.51252 0.23631 0.93525 0.0
C154 C 0.53779 0.2441 0.9362 0.0
C155 C 0.50013 0.23232 0.99444 0.0
C156 C 0.51336 0.23594 0.05524 0.0
C157 C 0.53863 0.24383 0.05665 0.0
C158 C 0.55059 0.24788 0.99702 0.0
N159 N 0.4745 0.2245 0.99048 0.0
H160 H 0.25463 0.0011 0.38445 0.0
H161 H 0.26542 0.0045 0.59633 0.0
H162 H 0.23819 0.06937 0.4951 0.0
H163 H 0.26414 0.96236 0.58688 0.0
C164 C 0.26955 0.95666 0.53733 0.0
C165 C 0.2534 0.01145 0.43124 0.0
C166 C 0.24575 0.03675 0.43251 0.0
C167 C 0.26002 0.99939 0.48987 0.0
C168 C 0.25944 0.01304 0.55065 0.0
C169 C 0.25134 0.03823 0.55225 0.0
C170 C 0.24432 0.04983 0.49341 0.0
N171 N 0.26771 0.97378 0.4848 0.0
H172 H 0.50424 0.76331 0.15625 0.0
H173 H 0.49804 0.77852 0.94855 0.0
H174 H 0.43259 0.75673 0.05079 0.0
H175 H 0.52835 0.80749 0.9798 0.0
C176 C 0.54072 0.7962 0.01075 0.0
C177 C 0.49278 0.76464 0.11145 0.0
C178 C 0.46689 0.75853 0.11139 0.0
C179 C 0.50406 0.77273 0.05367 0.0
C180 C 0.48954 0.77353 0.99442 0.0
C181 C 0.46395 0.76728 0.99385 0.0
C182 C 0.4527 0.76038 0.05214 0.0
N183 N 0.53007 0.77941 0.05588 0.0
H184 H 0.11975 0.20147 0.15101 0.0
H185 H 0.16105 0.27201 0.15021 0.0
H186 H 0.12722 0.29315 0.21227 0.0
H187 H 0.05445 0.2286 0.14597 0.0
H188 H 0.04306 0.20614 0.20333 0.0
H189 H 0.06796 0.19741 0.14814 0.0
H190 H 0.09657 0.18517 0.24794 0.0
H191 H 0.07169 0.19353 0.30302 0.0
H192 H 0.10231 0.20798 0.31445 0.0
H193 H 0.09221 0.30557 0.28364 0.0
H194 H 0.06117 0.30721 0.37236 0.0
H195 H 0.04275 0.22858 0.33237 0.0
C196 C 0.12126 0.22149 0.16276 0.0
C197 C 0.14277 0.23525 0.14561 0.0
C198 C 0.14464 0.26122 0.16314 0.0
C199 C 0.12541 0.27342 0.19765 0.0
C200 C 0.10452 0.25934 0.21466 0.0
C201 C 0.10241 0.23387 0.19859 0.0
C202 C 0.07987 0.2224 0.23112 0.0
C203 C 0.06017 0.21309 0.17901 0.0
C204 C 0.08811 0.20102 0.27685 0.0
C205 C 0.07027 0.24516 0.27003 0.0
C206 C 0.08436 0.26643 0.2581 0.0
C207 C 0.08072 0.28922 0.29253 0.0
C208 C 0.06304 0.29002 0.3426 0.0
C209 C 0.04941 0.26815 0.35804 0.0
C210 C 0.05239 0.24572 0.31978 0.0
H211 H 0.30327 0.62795 0.70948 0.0
H212 H 0.23145 0.66693 0.69625 0.0
H213 H 0.21154 0.63304 0.75799 0.0
H214 H 0.27906 0.5632 0.69859 0.0
H215 H 0.30158 0.55199 0.75919 0.0
H216 H 0.30968 0.57783 0.70782 0.0
H217 H 0.32016 0.60586 0.81205 0.0
H218 H 0.31247 0.58002 0.86348 0.0
H219 H 0.29681 0.60997 0.87461 0.0
H220 H 0.19992 0.59617 0.82516 0.0
H221 H 0.19872 0.56198 0.90587 0.0
H222 H 0.27832 0.54812 0.8797 0.0
C223 C 0.28329 0.62916 0.71903 0.0
C224 C 0.26882 0.64991 0.69797 0.0
C225 C 0.24286 0.65119 0.71235 0.0
C226 C 0.23135 0.63192 0.74668 0.0
C227 C 0.24613 0.61165 0.76667 0.0
C228 C 0.27162 0.61033 0.75426 0.0
C229 C 0.28378 0.58789 0.78688 0.0
C230 C 0.29413 0.56912 0.73501 0.0
C231 C 0.30452 0.59645 0.83725 0.0
C232 C 0.26125 0.57706 0.82062 0.0
C233 C 0.23958 0.59071 0.80706 0.0
C234 C 0.21666 0.58512 0.83546 0.0
C235 C 0.21607 0.56564 0.88072 0.0
C236 C 0.23829 0.55229 0.89721 0.0
C237 C 0.261 0.5577 0.86598 0.0
H238 H 0.84054 0.75722 0.20123 0.0
H239 H 0.88522 0.80559 0.08014 0.0
H240 H 0.92318 0.79556 0.14706 0.0
H241 H 0.87046 0.77389 0.35381 0.0
H242 H 0.86912 0.74262 0.38621 0.0
H243 H 0.84578 0.7524 0.32617 0.0
H244 H 0.85679 0.71391 0.25034 0.0
H245 H 0.88024 0.70404 0.3102 0.0
H246 H 0.88895 0.7091 0.22615 0.0
H247 H 0.95594 0.7824 0.23196 0.0
H248 H 0.98029 0.76768 0.32942 0.0
H249 H 0.91454 0.72669 0.39119 0.0
C250 C 0.8583 0.76561 0.18839 0.0
C251 C 0.85978 0.78223 0.13533 0.0
C252 C 0.8835 0.79277 0.12044 0.0
C253 C 0.90524 0.78715 0.15807 0.0
C254 C 0.90307 0.77079 0.21014 0.0
C255 C 0.88022 0.76011 0.22516 0.0
C256 C 0.88278 0.74384 0.28509 0.0
C257 C 0.86605 0.75379 0.34111 0.0
C258 C 0.87684 0.71607 0.26683 0.0
C259 C 0.9105 0.74751 0.30229 0.0
C260 C 0.92197 0.76296 0.25831 0.0
C261 C 0.94723 0.77003 0.26632 0.0
C262 C 0.96097 0.76147 0.32157 0.0
C263 C 0.94933 0.74612 0.36807 0.0
C264 C 0.92394 0.73863 0.35698 0.0
H265 H 0.73047 0.33659 0.77031 0.0
H266 H 0.75289 0.37473 0.59476 0.0
H267 H 0.76914 0.41064 0.66415 0.0
H268 H 0.70727 0.39152 0.85148 0.0
H269 H 0.71725 0.38244 0.93318 0.0
H270 H 0.71003 0.3586 0.87044 0.0
H271 H 0.75443 0.339 0.88771 0.0
H272 H 0.76172 0.36272 0.95084 0.0
H273 H 0.78199 0.35858 0.88126 0.0
H274 H 0.78209 0.44292 0.75348 0.0
H275 H 0.78955 0.46924 0.85503 0.0
H276 H 0.75408 0.41157 0.96932 0.0
C277 C 0.73936 0.35227 0.74684 0.0
C278 C 0.74088 0.35284 0.67755 0.0
C279 C 0.75182 0.37397 0.64803 0.0
C280 C 0.76108 0.3944 0.68696 0.0
C281 C 0.75886 0.39356 0.75523 0.0
C282 C 0.74814 0.37309 0.78488 0.0
C283 C 0.74623 0.37769 0.85863 0.0
C284 C 0.71855 0.37756 0.87963 0.0
C285 C 0.76204 0.35835 0.89685 0.0
C286 C 0.75756 0.40386 0.86576 0.0
C287 C 0.76502 0.41263 0.80586 0.0
C288 C 0.77625 0.43627 0.80073 0.0
C289 C 0.78021 0.4512 0.85863 0.0
C290 C 0.77267 0.44253 0.92068 0.0
C291 C 0.7608 0.41866 0.92338 0.0
H292 H 0.66306 0.26029 0.27924 0.0
H293 H 0.6199 0.30904 0.4105 0.0
H294 H 0.58123 0.29895 0.34501 0.0
H295 H 0.63125 0.27716 0.13102 0.0
H296 H 0.6324 0.2459 0.09379 0.0
H297 H 0.65638 0.25588 0.15338 0.0
H298 H 0.64653 0.21725 0.22408 0.0
H299 H 0.62233 0.20727 0.16487 0.0
H300 H 0.61477 0.21228 0.25053 0.0
H301 H 0.54748 0.2849 0.26288 0.0
H302 H 0.52197 0.27032 0.16514 0.0
H303 H 0.58703 0.23041 0.08917 0.0
C304 C 0.64549 0.2688 0.29448 0.0
C305 C 0.64459 0.28547 0.35009 0.0
C306 C 0.62116 0.29627 0.36799 0.0
C307 C 0.59902 0.29054 0.33138 0.0
C308 C 0.60058 0.27394 0.27712 0.0
C309 C 0.62323 0.26334 0.2585 0.0
C310 C 0.62 0.24705 0.1963 0.0
C311 C 0.63594 0.25711 0.14033 0.0
C312 C 0.62628 0.21932 0.20978 0.0
C313 C 0.5921 0.25056 0.18217 0.0
C314 C 0.58114 0.26587 0.22977 0.0
C315 C 0.55577 0.27269 0.22558 0.0
C316 C 0.54139 0.2642 0.17021 0.0
C317 C 0.55254 0.24925 0.11979 0.0
C318 C 0.57804 0.24188 0.12696 0.0
H319 H 0.19056 0.13801 0.79946 0.0
H320 H 0.26672 0.16328 0.84819 0.0
H321 H 0.28377 0.12727 0.78303 0.0
H322 H 0.20234 0.07022 0.79709 0.0
H323 H 0.1818 0.06404 0.72613 0.0
H324 H 0.17549 0.09031 0.78181 0.0
H325 H 0.17601 0.12093 0.68428 0.0
H326 H 0.18191 0.09473 0.62835 0.0
H327 H 0.20305 0.12138 0.63215 0.0
H328 H 0.2925 0.08906 0.71104 0.0
H329 H 0.2922 0.05544 0.6233 0.0
H330 H 0.21055 0.05692 0.61562 0.0
C331 C 0.21081 0.13577 0.79672 0.0
C332 C 0.22738 0.15322 0.82894 0.0
C333 C 0.25376 0.15009 0.82346 0.0
C334 C 0.2636 0.12959 0.78722 0.0
C335 C 0.24677 0.11261 0.75616 0.0
C336 C 0.22094 0.11575 0.75948 0.0
C337 C 0.20699 0.09632 0.7162 0.0
C338 C 0.19069 0.07921 0.75782 0.0
C339 C 0.19106 0.10911 0.66204 0.0
C340 C 0.229 0.08194 0.68749 0.0
C341 C 0.25179 0.09124 0.71237 0.0
C342 C 0.27479 0.08149 0.69154 0.0
C343 C 0.27448 0.06234 0.64224 0.0
C344 C 0.25137 0.05354 0.61403 0.0
C345 C 0.2284 0.0631 0.63774 0.0
H346 H 0.35122 0.70395 0.30336 0.0
H347 H 0.38195 0.73983 0.48278 0.0
H348 H 0.41956 0.75322 0.42237 0.0
H349 H 0.41205 0.6801 0.24608 0.0
H350 H 0.40373 0.68451 0.16031 0.0
H351 H 0.37955 0.67776 0.21814 0.0
H352 H 0.35547 0.7182 0.18458 0.0
H353 H 0.37952 0.72501 0.12665 0.0
H354 H 0.37155 0.74818 0.18961 0.0
H355 H 0.45161 0.76606 0.33842 0.0
H356 H 0.4765 0.77506 0.24048 0.0
H357 H 0.42752 0.72516 0.1211 0.0
C358 C 0.36593 0.71461 0.32968 0.0
C359 C 0.36379 0.72121 0.39714 0.0
C360 C 0.38343 0.73476 0.4308 0.0
C361 C 0.40478 0.74238 0.39699 0.0
C362 C 0.40639 0.7356 0.33018 0.0
C363 C 0.38767 0.72164 0.29725 0.0
C364 C 0.39406 0.71645 0.22585 0.0
C365 C 0.39756 0.68802 0.2118 0.0
C366 C 0.37396 0.72764 0.17894 0.0
C367 C 0.41883 0.73044 0.22306 0.0
C368 C 0.42565 0.74146 0.28348 0.0
C369 C 0.44675 0.75707 0.29113 0.0
C370 C 0.46092 0.76192 0.23517 0.0
C371 C 0.45406 0.75098 0.1725 0.0
C372 C 0.43318 0.73434 0.16759 0.0
H373 H 0.79539 0.87467 0.82084 0.0
H374 H 0.73169 0.82429 0.78417 0.0
H375 H 0.71132 0.85605 0.71397 0.0
H376 H 0.7598 0.93388 0.82339 0.0
H377 H 0.78363 0.95079 0.78079 0.0
H378 H 0.79249 0.92502 0.8327 0.0
H379 H 0.81489 0.90278 0.73473 0.0
H380 H 0.80642 0.92862 0.68297 0.0
H381 H 0.79758 0.89685 0.65804 0.0
H382 H 0.69882 0.8919 0.64361 0.0
H383 H 0.69702 0.92785 0.56852 0.0
H384 H 0.76874 0.95502 0.64902 0.0
C385 C 0.77707 0.87039 0.79846 0.0
C386 C 0.76512 0.84698 0.80811 0.0
C387 C 0.74129 0.842 0.77722 0.0
C388 C 0.72944 0.86003 0.73778 0.0
C389 C 0.74167 0.88293 0.72957 0.0
C390 C 0.76506 0.88809 0.75842 0.0
C391 C 0.77495 0.91339 0.73752 0.0
C392 C 0.77788 0.93186 0.79717 0.0
C393 C 0.79993 0.91021 0.70114 0.0
C394 C 0.75371 0.92139 0.69122 0.0
C395 C 0.73449 0.90372 0.68837 0.0
C396 C 0.71353 0.90606 0.64612 0.0
C397 C 0.71257 0.92654 0.60404 0.0
C398 C 0.73244 0.94432 0.60456 0.0
C399 C 0.75298 0.94205 0.64957 0.0
H400 H 0.86767 0.79923 0.80087 0.0
H401 H 0.84037 0.72434 0.84179 0.0
H402 H 0.87462 0.70552 0.77588 0.0
H403 H 0.88037 0.78552 0.63403 0.0
H404 H 0.90785 0.80545 0.63217 0.0
H405 H 0.88327 0.81273 0.68922 0.0
H406 H 0.91601 0.8122 0.78656 0.0
H407 H 0.94069 0.8047 0.72967 0.0
H408 H 0.93531 0.7846 0.7982 0.0
H409 H 0.91072 0.69497 0.70159 0.0
H410 H 0.94255 0.69367 0.61391 0.0
H411 H 0.9443 0.77534 0.61625 0.0
C412 C 0.8692 0.77887 0.79683 0.0
C413 C 0.85162 0.76318 0.82685 0.0
C414 C 0.85374 0.73664 0.81913 0.0
C415 C 0.87322 0.72581 0.78228 0.0
C416 C 0.89022 0.7418 0.75296 0.0
C417 C 0.88819 0.76778 0.75911 0.0
C418 C 0.90718 0.78078 0.71718 0.0
C419 C 0.89386 0.79707 0.66507 0.0
C420 C 0.92591 0.7965 0.76051 0.0
C421 C 0.91994 0.7581 0.68563 0.0
C422 C 0.91029 0.73577 0.70801 0.0
C423 C 0.91857 0.71232 0.68413 0.0
C424 C 0.93668 0.71172 0.63478 0.0
C425 C 0.9459 0.7344 0.60956 0.0
C426 C 0.93773 0.7578 0.63592 0.0
H427 H 0.71728 0.38072 0.37075 0.0
H428 H 0.7796 0.32794 0.35526 0.0
H429 H 0.80344 0.35893 0.29349 0.0
H430 H 0.71974 0.40103 0.21076 0.0
H431 H 0.71163 0.43344 0.22946 0.0
H432 H 0.70134 0.40897 0.28208 0.0
H433 H 0.72286 0.43222 0.38294 0.0
H434 H 0.73347 0.45667 0.33017 0.0
H435 H 0.75593 0.43992 0.38088 0.0
H436 H 0.81822 0.39259 0.22198 0.0
H437 H 0.82133 0.42532 0.13815 0.0
H438 H 0.74986 0.45666 0.19872 0.0
C439 C 0.73618 0.37595 0.35563 0.0
C440 C 0.74662 0.35197 0.36795 0.0
C441 C 0.77117 0.34617 0.34612 0.0
C442 C 0.78499 0.36375 0.31162 0.0
C443 C 0.77405 0.38709 0.29939 0.0
C444 C 0.75016 0.39322 0.32046 0.0
C445 C 0.74155 0.41831 0.29387 0.0
C446 C 0.71714 0.41524 0.25152 0.0
C447 C 0.73827 0.43794 0.35035 0.0
C448 C 0.76386 0.42475 0.25222 0.0
C449 C 0.78266 0.40676 0.25744 0.0
C450 C 0.80395 0.40713 0.21857 0.0
C451 C 0.80562 0.42576 0.17129 0.0
C452 C 0.78609 0.44366 0.1633 0.0
C453 C 0.76541 0.44368 0.20574 0.0
H454 H 0.12162 0.21385 0.839 0.0
H455 H 0.17122 0.27843 0.8235 0.0
H456 H 0.14059 0.29786 0.74678 0.0
H457 H 0.10462 0.20923 0.67354 0.0
H458 H 0.07237 0.20001 0.68521 0.0
H459 H 0.09616 0.19302 0.74682 0.0
H460 H 0.07016 0.21662 0.83599 0.0
H461 H 0.04625 0.22375 0.7744 0.0
H462 H 0.0608 0.24887 0.82368 0.0
H463 H 0.10752 0.30793 0.66261 0.0
H464 H 0.07481 0.30717 0.57343 0.0
H465 H 0.04681 0.23604 0.64251 0.0
C466 C 0.12575 0.23236 0.82072 0.0
C467 C 0.14875 0.24466 0.83738 0.0
C468 C 0.15373 0.26862 0.81129 0.0
C469 C 0.13637 0.27991 0.76809 0.0
C470 C 0.11409 0.26705 0.75165 0.0
C471 C 0.1087 0.24382 0.77715 0.0
C472 C 0.08469 0.2328 0.74628 0.0
C473 C 0.08978 0.20727 0.71085 0.0
C474 C 0.06427 0.23038 0.7982 0.0
C475 C 0.07796 0.25304 0.69766 0.0
C476 C 0.09492 0.27284 0.70243 0.0
C477 C 0.09386 0.29277 0.6591 0.0
C478 C 0.07533 0.29214 0.60855 0.0
C479 C 0.05826 0.27165 0.60166 0.0
C480 C 0.05924 0.25222 0.6478 0.0
H481 H 0.25701 0.65363 0.32129 0.0
H482 H 0.31008 0.61118 0.44153 0.0
H483 H 0.30246 0.5735 0.36889 0.0
H484 H 0.21278 0.60214 0.28357 0.0
H485 H 0.20674 0.6124 0.20055 0.0
H486 H 0.21488 0.63515 0.26544 0.0
H487 H 0.252 0.65097 0.19678 0.0
H488 H 0.24407 0.62824 0.13189 0.0
H489 H 0.27541 0.62876 0.1685 0.0
H490 H 0.29093 0.54122 0.27762 0.0
H491 H 0.277 0.51775 0.17547 0.0
H492 H 0.23156 0.58192 0.11788 0.0
C493 C 0.26685 0.63638 0.33316 0.0
C494 C 0.28415 0.63542 0.38729 0.0
C495 C 0.2967 0.61241 0.40044 0.0
C496 C 0.29246 0.59088 0.35954 0.0
C497 C 0.27554 0.59268 0.30602 0.0
C498 C 0.26289 0.61486 0.29305 0.0
C499 C 0.24669 0.61245 0.23072 0.0
C500 C 0.21861 0.61572 0.24602 0.0
C501 C 0.25506 0.63121 0.17894 0.0
C502 C 0.25257 0.58557 0.2097 0.0
C503 C 0.26904 0.57432 0.25389 0.0
C504 C 0.27783 0.54978 0.24306 0.0
C505 C 0.26978 0.53657 0.18512 0.0
C506 C 0.2533 0.54808 0.13878 0.0
C507 C 0.24436 0.57272 0.1521 0.0
H508 H 0.3724 0.7019 0.72637 0.0
H509 H 0.33813 0.77538 0.70003 0.0
H510 H 0.37165 0.795 0.77142 0.0
H511 H 0.3872 0.71171 0.89619 0.0
H512 H 0.41629 0.69413 0.89419 0.0
H513 H 0.39116 0.6865 0.83564 0.0
H514 H 0.4217 0.69265 0.73942 0.0
H515 H 0.44687 0.70059 0.79786 0.0
H516 H 0.43832 0.72213 0.73375 0.0
H517 H 0.40776 0.80631 0.84976 0.0
H518 H 0.44098 0.80765 0.93841 0.0
H519 H 0.45042 0.72675 0.91666 0.0
C520 C 0.37217 0.72216 0.73494 0.0
C521 C 0.35282 0.73718 0.7074 0.0
C522 C 0.35279 0.76355 0.72085 0.0
C523 C 0.37185 0.77487 0.76082 0.0
C524 C 0.39066 0.75953 0.78733 0.0
C525 C 0.39078 0.7337 0.77558 0.0
C526 C 0.41172 0.72115 0.81478 0.0
C527 C 0.40094 0.70227 0.86306 0.0
C528 C 0.43078 0.70838 0.76868 0.0
C529 C 0.42318 0.7439 0.85105 0.0
C530 C 0.41107 0.76594 0.8337 0.0
C531 C 0.41758 0.78924 0.86316 0.0
C532 C 0.43649 0.78989 0.91299 0.0
C533 C 0.44837 0.76738 0.93274 0.0
C534 C 0.44193 0.74423 0.9008 0.0
H535 H 0.74872 0.84896 0.1829 0.0
H536 H 0.80497 0.8902 0.07738 0.0
H537 H 0.79627 0.92831 0.14625 0.0
H538 H 0.70459 0.90208 0.20695 0.0
H539 H 0.69653 0.89208 0.28806 0.0
H540 H 0.70531 0.86904 0.22557 0.0
H541 H 0.7404 0.85221 0.30425 0.0
H542 H 0.73177 0.87515 0.36679 0.0
H543 H 0.76378 0.87378 0.33907 0.0
H544 H 0.78437 0.96068 0.23511 0.0
H545 H 0.77068 0.98377 0.33616 0.0
H546 H 0.72154 0.92136 0.37958 0.0
C547 C 0.759 0.86606 0.17341 0.0
C548 C 0.77756 0.8665 0.12465 0.0
C549 C 0.7906 0.88935 0.11427 0.0
C550 C 0.78575 0.91114 0.15305 0.0
C551 C 0.76761 0.90987 0.20146 0.0
C552 C 0.75433 0.88792 0.2113 0.0
C553 C 0.73696 0.89086 0.26904 0.0
C554 C 0.7092 0.88837 0.246 0.0
C555 C 0.74364 0.87189 0.32295 0.0
C556 C 0.74316 0.91761 0.2917 0.0
C557 C 0.76064 0.92845 0.25181 0.0
C558 C 0.77038 0.95251 0.26605 0.0
C559 C 0.76244 0.96554 0.32333 0.0
C560 C 0.74511 0.95433 0.36574 0.0
C561 C 0.73493 0.93037 0.34835 0.0
H562 H 0.66026 0.25729 0.72565 0.0
H563 H 0.61904 0.3103 0.60395 0.0
H564 H 0.58015 0.30106 0.66339 0.0
H565 H 0.6098 0.21134 0.73815 0.0
H566 H 0.61793 0.20475 0.8229 0.0
H567 H 0.64205 0.2143 0.76776 0.0
H568 H 0.65458 0.2513 0.84866 0.0
H569 H 0.63068 0.24174 0.90417 0.0
H570 H 0.63079 0.2735 0.87472 0.0
H571 H 0.5461 0.28728 0.74022 0.0
H572 H 0.52096 0.27259 0.83314 0.0
H573 H 0.58484 0.22871 0.90249 0.0
C574 C 0.64306 0.26685 0.71093 0.0
C575 C 0.64275 0.28449 0.65996 0.0
C576 C 0.6198 0.29674 0.64293 0.0
C577 C 0.59757 0.2915 0.6761 0.0
C578 C 0.59859 0.27395 0.72602 0.0
C579 C 0.6208 0.26192 0.7435 0.0
C580 C 0.61735 0.24497 0.8013 0.0
C581 C 0.62206 0.21719 0.7813 0.0
C582 C 0.63435 0.25339 0.8607 0.0
C583 C 0.58983 0.24969 0.81458 0.0
C584 C 0.57917 0.26618 0.77019 0.0
C585 C 0.55419 0.27417 0.77485 0.0
C586 C 0.54001 0.26563 0.82742 0.0
C587 C 0.551 0.24952 0.8747 0.0
C588 C 0.57599 0.24101 0.86693 0.0
H589 H 0.2411 0.15648 0.20865 0.0
H590 H 0.18896 0.11575 0.07531 0.0
H591 H 0.19495 0.0775 0.14098 0.0
H592 H 0.28391 0.10389 0.24045 0.0
H593 H 0.28892 0.11358 0.32585 0.0
H594 H 0.28218 0.13683 0.26467 0.0
H595 H 0.24434 0.15304 0.33256 0.0
H596 H 0.25089 0.12983 0.39372 0.0
H597 H 0.22009 0.13117 0.35421 0.0
H598 H 0.20461 0.04452 0.22673 0.0
H599 H 0.21645 0.02032 0.32583 0.0
H600 H 0.26206 0.08332 0.40035 0.0
C601 C 0.23113 0.13948 0.19245 0.0
C602 C 0.21456 0.13917 0.1367 0.0
C603 C 0.2018 0.11648 0.1178 0.0
C604 C 0.20513 0.09464 0.15467 0.0
C605 C 0.22135 0.0958 0.20996 0.0
C606 C 0.23419 0.11766 0.22851 0.0
C607 C 0.24941 0.11461 0.29182 0.0
C608 C 0.27779 0.11739 0.27996 0.0
C609 C 0.24065 0.13326 0.34626 0.0
C610 C 0.24271 0.08778 0.30701 0.0
C611 C 0.22674 0.07705 0.25903 0.0
C612 C 0.21731 0.05265 0.26425 0.0
C613 C 0.22416 0.03904 0.32046 0.0
C614 C 0.24004 0.05005 0.37067 0.0
C615 C 0.24969 0.07454 0.36299 0.0
H616 H 0.23145 0.31607 0.94908 0.0
H617 H 0.21357 0.29729 0.15016 0.0
H618 H 0.20744 0.34217 0.17808 0.0
H619 H 0.26621 0.37318 0.99357 0.0
H620 H 0.25474 0.39012 0.92296 0.0
H621 H 0.25764 0.35626 0.91775 0.0
H622 H 0.21052 0.3526 0.88171 0.0
H623 H 0.20743 0.38644 0.88715 0.0
H624 H 0.18685 0.36684 0.93313 0.0
H625 H 0.20193 0.38839 0.18472 0.0
H626 H 0.20035 0.4345 0.17123 0.0
H627 H 0.22307 0.42437 0.96777 0.0
C628 C 0.22634 0.32143 -0.00101 0.0
C629 C 0.22309 0.30307 0.04736 0.0
C630 C 0.21641 0.31091 0.11221 0.0
C631 C 0.21273 0.33639 0.12864 0.0
C632 C 0.21594 0.35394 0.07993 0.0
C633 C 0.22282 0.34695 0.01662 0.0
C634 C 0.22544 0.36988 0.97427 0.0
C635 C 0.25263 0.37251 0.95077 0.0
C636 C 0.20642 0.36887 0.9156 0.0
C637 C 0.21892 0.39073 0.02384 0.0
C638 C 0.2133 0.38099 0.08425 0.0
C639 C 0.2064 0.39631 0.13779 0.0
C640 C 0.20549 0.42241 0.12965 0.0
C641 C 0.21167 0.43288 0.06876 0.0
C642 C 0.21835 0.41683 0.01502 0.0
H643 H 0.19462 0.72942 0.41636 0.0
H644 H 0.20013 0.69517 0.60837 0.0
H645 H 0.15401 0.69004 0.60794 0.0
H646 H 0.13987 0.76514 0.44961 0.0
H647 H 0.12587 0.7614 0.36783 0.0
H648 H 0.15961 0.76015 0.37926 0.0
H649 H 0.16037 0.71617 0.32009 0.0
H650 H 0.12659 0.71732 0.30833 0.0
H651 H 0.14105 0.69113 0.34967 0.0
H652 H 0.10768 0.69067 0.59096 0.0
H653 H 0.06323 0.69816 0.55963 0.0
H654 H 0.08649 0.73305 0.37963 0.0
C655 C 0.18609 0.72045 0.45765 0.0
C656 C 0.20096 0.71263 0.51233 0.0
C657 C 0.18911 0.7014 0.5661 0.0
C658 C 0.16293 0.69828 0.5662 0.0
C659 C 0.14875 0.70656 0.51229 0.0
C660 C 0.1598 0.71745 0.45898 0.0
C661 C 0.13987 0.72623 0.40959 0.0
C662 C 0.1414 0.75493 0.40111 0.0
C663 C 0.14211 0.71185 0.34297 0.0
C664 C 0.11599 0.71894 0.44417 0.0
C665 C 0.12166 0.70735 0.50295 0.0
C666 C 0.10295 0.69959 0.54485 0.0
C667 C 0.07772 0.70399 0.52663 0.0
C668 C 0.0714 0.71623 0.46717 0.0
C669 C 0.09082 0.72353 0.42516 0.0
H670 H 0.77701 0.68842 0.91601 0.0
H671 H 0.77789 0.70452 0.12779 0.0
H672 H 0.77784 0.65896 0.148 0.0
H673 H 0.73582 0.63477 0.91714 0.0
H674 H 0.75219 0.61733 0.85366 0.0
H675 H 0.75257 0.65132 0.85527 0.0
H676 H 0.80143 0.65096 0.85814 0.0
H677 H 0.80122 0.61697 0.85635 0.0
H678 H 0.8181 0.63408 0.92179 0.0
H679 H 0.777 0.61182 0.14593 0.0
H680 H 0.77646 0.56601 0.12156 0.0
H681 H 0.77653 0.57999 0.91136 0.0
C682 C 0.77723 0.68242 0.96668 0.0
C683 C 0.77741 0.70021 0.02025 0.0
C684 C 0.77774 0.6914 0.08577 0.0
C685 C 0.7777 0.6655 0.09787 0.0
C686 C 0.77738 0.64855 0.04403 0.0
C687 C 0.77725 0.65659 0.97974 0.0
C688 C 0.77697 0.63435 0.93085 0.0
C689 C 0.75295 0.63446 0.88663 0.0
C690 C 0.80086 0.63408 0.88935 0.0
C691 C 0.77687 0.61259 0.97779 0.0
C692 C 0.77709 0.62124 0.04284 0.0
C693 C 0.77689 0.60479 0.0952 0.0
C694 C 0.77656 0.57877 0.08078 0.0
C695 C 0.77647 0.56943 0.01447 0.0
C696 C 0.7766 0.58663 0.96247 0.0
H697 H 0.80624 0.27018 0.41761 0.0
H698 H 0.80298 0.25513 0.62702 0.0
H699 H 0.84897 0.24817 0.63081 0.0
H700 H 0.85444 0.22429 0.37753 0.0
H701 H 0.86956 0.2443 0.31997 0.0
H702 H 0.8362 0.24725 0.33293 0.0
H703 H 0.8419 0.29482 0.3627 0.0
H704 H 0.87524 0.29206 0.34959 0.0
H705 H 0.86414 0.30439 0.42748 0.0
H706 H 0.89508 0.24328 0.6125 0.0
H707 H 0.93882 0.24285 0.57477 0.0
H708 H 0.91246 0.2618 0.37754 0.0
C709 C 0.81513 0.26524 0.46422 0.0
C710 C 0.80095 0.2631 0.52199 0.0
C711 C 0.81342 0.25692 0.58213 0.0
C712 C 0.83952 0.25282 0.58475 0.0
C713 C 0.85288 0.25506 0.52691 0.0
C714 C 0.84118 0.26125 0.46785 0.0
C715 C 0.86005 0.26338 0.41341 0.0
C716 C 0.85474 0.24362 0.35768 0.0
C717 C 0.86035 0.29026 0.38676 0.0
C718 C 0.88425 0.25754 0.45126 0.0
C719 C 0.87962 0.25262 0.51651 0.0
C720 C 0.89896 0.24707 0.56153 0.0
C721 C 0.92376 0.24688 0.53952 0.0
C722 C 0.92899 0.25235 0.47314 0.0
C723 C 0.90893 0.25747 0.42843 0.0
H724 H 0.72742 0.18566 0.57847 0.0
H725 H 0.67782 0.20486 0.41369 0.0
H726 H 0.66911 0.15976 0.391 0.0
H727 H 0.75543 0.1338 0.49937 0.0
H728 H 0.75798 0.1144 0.57088 0.0
H729 H 0.75775 0.14824 0.58104 0.0
H730 H 0.71977 0.14566 0.6584 0.0
H731 H 0.71999 0.11174 0.64891 0.0
H732 H 0.69162 0.12915 0.63012 0.0
H733 H 0.66892 0.11336 0.37837 0.0
H734 H 0.67687 0.0675 0.37734 0.0
H735 H 0.72707 0.07715 0.54887 0.0
C736 C 0.71419 0.18031 0.53891 0.0
C737 C 0.7031 0.19871 0.49813 0.0
C738 C 0.68645 0.19104 0.44555 0.0
C739 C 0.68132 0.16548 0.43239 0.0
C740 C 0.69306 0.14775 0.47212 0.0
C741 C 0.70907 0.1547 0.52449 0.0
C742 C 0.72077 0.13161 0.55574 0.0
C743 C 0.74969 0.13205 0.55147 0.0
C744 C 0.71254 0.12941 0.62756 0.0
C745 C 0.70929 0.11073 0.51167 0.0
C746 C 0.69316 0.12057 0.46428 0.0
C747 C 0.68122 0.10536 0.41576 0.0
C748 C 0.6859 0.07938 0.41544 0.0
C749 C 0.70239 0.06882 0.46315 0.0
C750 C 0.71412 0.08469 0.51225 0.0
H751 H 0.31023 0.22647 0.11225 0.0
H752 H 0.2992 0.19608 0.91229 0.0
H753 H 0.34508 0.19057 0.90279 0.0
H754 H 0.36265 0.26284 0.07905 0.0
H755 H 0.37933 0.25797 0.15634 0.0
H756 H 0.34547 0.25598 0.15207 0.0
H757 H 0.34746 0.21095 0.19835 0.0
H758 H 0.3814 0.21286 0.20314 0.0
H759 H 0.36624 0.18711 0.15758 0.0
H760 H 0.39161 0.19233 0.90973 0.0
H761 H 0.43652 0.20179 0.9324 0.0
H762 H 0.41835 0.23197 0.12701 0.0
C763 C 0.31752 0.21804 0.06727 0.0
C764 C 0.30126 0.21155 0.01313 0.0
C765 C 0.31141 0.20118 0.95429 0.0
C766 C 0.33741 0.19785 0.94853 0.0
C767 C 0.35305 0.20504 0.002 0.0
C768 C 0.34358 0.21488 0.06035 0.0
C769 C 0.36476 0.22328 0.10773 0.0
C770 C 0.36293 0.2517 0.12475 0.0
C771 C 0.36497 0.20761 0.17042 0.0
C772 C 0.38745 0.21733 0.06602 0.0
C773 C 0.38023 0.20647 0.00563 0.0
C774 C 0.39759 0.20054 0.95713 0.0
C775 C 0.42305 0.20609 0.97039 0.0
C776 C 0.43084 0.21762 0.03149 0.0
C777 C 0.41285 0.22295 0.08015 0.0
H778 H 0.27239 0.80964 0.60692 0.0
H779 H 0.29251 0.79721 0.4018 0.0
H780 H 0.29414 0.84317 0.38773 0.0
H781 H 0.23189 0.86168 0.5801 0.0
H782 H 0.24111 0.87848 0.65557 0.0
H783 H 0.24295 0.84457 0.65085 0.0
H784 H 0.29027 0.84673 0.68588 0.0
H785 H 0.28859 0.88068 0.69067 0.0
H786 H 0.31155 0.86532 0.63917 0.0
H787 H 0.29195 0.89018 0.3942 0.0
H788 H 0.28523 0.93533 0.42023 0.0
H789 H 0.26642 0.91748 0.62095 0.0
C790 C 0.27734 0.81652 0.55913 0.0
C791 C 0.28233 0.79973 0.50549 0.0
C792 C 0.28856 0.80963 0.44368 0.0
C793 C 0.28963 0.83573 0.4352 0.0
C794 C 0.28447 0.8517 0.48895 0.0
C795 C 0.27845 0.84252 0.54971 0.0
C796 C 0.27279 0.86378 0.59872 0.0
C797 C 0.24557 0.86202 0.62269 0.0
C798 C 0.29195 0.86414 0.65705 0.0
C799 C 0.2762 0.88633 0.55564 0.0
C800 C 0.28312 0.87892 0.49266 0.0
C801 C 0.28666 0.89625 0.44341 0.0
C802 C 0.28274 0.92186 0.4587 0.0
C803 C 0.27527 0.92984 0.52267 0.0
C804 C 0.27227 0.91185 0.57183 0.0
H805 H 0.68842 0.77053 0.07802 0.0
H806 H 0.70063 0.80861 0.89469 0.0
H807 H 0.65519 0.81771 0.88421 0.0
H808 H 0.63096 0.74051 0.02341 0.0
H809 H 0.6159 0.74343 0.10206 0.0
H810 H 0.64976 0.74159 0.09892 0.0
H811 H 0.65367 0.78364 0.16685 0.0
H812 H 0.6198 0.7856 0.17026 0.0
H813 H 0.63749 0.81129 0.13794 0.0
H814 H 0.60904 0.82235 0.89164 0.0
H815 H 0.56354 0.81986 0.91297 0.0
H816 H 0.57976 0.77666 0.08785 0.0
C817 C 0.68146 0.78104 0.03625 0.0
C818 C 0.69797 0.78897 0.98725 0.0
C819 C 0.68824 0.80229 0.93258 0.0
C820 C 0.6625 0.80766 0.92635 0.0
C821 C 0.64663 0.79936 0.97483 0.0
C822 C 0.65558 0.78617 0.02849 0.0
C823 C 0.634 0.77812 0.07105 0.0
C824 C 0.63258 0.7492 0.074 0.0
C825 C 0.63639 0.7904 0.14065 0.0
C826 C 0.61165 0.7887 0.0325 0.0
C827 C 0.61952 0.80118 0.97773 0.0
C828 C 0.60259 0.81262 0.93431 0.0
C829 C 0.57683 0.81112 0.94682 0.0
C830 C 0.5682 0.79801 0.00168 0.0
C831 C 0.58585 0.78673 0.04532 0.0
loop_
_geom_bond_atom_site_label_1
_geom_bond_atom_site_label_2
_geom_bond_distance
_geom_bond_site_symmetry_2
_ccdc_geom_bond_type
Sc0 O3 2.025 . S
Sc0 O10 2.105 . S
Sc0 O13 2.105 . S
Sc0 O16 2.105 . S
Sc0 O19 2.105 . S
Sc1 O3 2.025 . S
Sc1 O11 2.105 . S
Sc1 O15 2.105 1_554 S
Sc1 O17 2.105 . S
Sc1 O21 2.105 1_554 S
Sc2 O3 2.025 1_556 S
Sc2 O12 2.105 . S
Sc2 O14 2.105 . S
Sc2 O18 2.105 . S
Sc2 O20 2.105 . S
O3 Sc0 2.025 . S
O3 Sc1 2.025 . S
O3 Sc2 2.025 1_554 S
C4 O10 1.268 . S
C4 O20 1.268 1_554 S
C5 O11 1.268 . S
C5 O19 1.268 . S
C6 O12 1.268 . S
C6 O21 1.268 . S
C7 O13 1.268 . S
C7 O17 1.268 . S
C8 O14 1.268 1_554 S
C8 O16 1.268 . S
C9 O15 1.268 . S
C9 O18 1.268 . S
O10 Sc0 2.105 . S
O10 C4 1.268 . S
O11 Sc1 2.105 . S
O11 C5 1.268 . S
O12 Sc2 2.105 . S
O12 C6 1.268 . S
O13 Sc0 2.105 . S
O13 C7 1.268 . S
O14 Sc2 2.105 . S
O14 C8 1.268 1_556 S
O15 Sc1 2.105 1_556 S
O15 C9 1.268 . S
O16 Sc0 2.105 . S
O16 C8 1.268 . S
O17 Sc1 2.105 . S
O17 C7 1.268 . S
O18 Sc2 2.105 . S
O18 C9 1.268 . S
O19 Sc0 2.105 . S
O19 C5 1.268 . S
O20 Sc2 2.105 . S
O20 C4 1.268 1_556 S
O21 Sc1 2.105 1_556 S
O21 C6 1.268 . S
Sc22 O25 2.025 . S
Sc22 O32 2.105 . S
Sc22 O35 2.105 . S
Sc22 O38 2.105 . S
Sc22 O41 2.105 . S
Sc23 O25 2.025 . S
Sc23 O33 2.105 . S
Sc23 O37 2.105 . S
Sc23 O39 2.105 . S
Sc23 O43 2.105 . S
Sc24 O25 2.025 . S
Sc24 O34 2.105 . S
Sc24 O36 2.105 . S
Sc24 O40 2.105 . S
Sc24 O42 2.105 . S
O25 Sc22 2.025 . S
O25 Sc23 2.025 . S
O25 Sc24 2.025 . S
C26 O32 1.268 . S
C26 O42 1.268 . S
C27 O33 1.268 . S
C27 O41 1.268 . S
C28 O34 1.268 . S
C28 O43 1.268 . S
C29 O35 1.268 . S
C29 O39 1.268 . S
C30 O36 1.268 . S
C30 O38 1.268 . S
C31 O37 1.268 . S
C31 O40 1.268 . S
O32 Sc22 2.105 . S
O32 C26 1.268 . S
O33 Sc23 2.105 . S
O33 C27 1.268 . S
O34 Sc24 2.105 . S
O34 C28 1.268 . S
O35 Sc22 2.105 . S
O35 C29 1.268 . S
O36 Sc24 2.105 . S
O36 C30 1.268 . S
O37 Sc23 2.105 . S
O37 C31 1.268 . S
O38 Sc22 2.105 . S
O38 C30 1.268 . S
O39 Sc23 2.105 . S
O39 C29 1.268 . S
O40 Sc24 2.105 . S
O40 C31 1.268 . S
O41 Sc22 2.105 . S
O41 C27 1.268 . S
O42 Sc24 2.105 . S
O42 C26 1.268 . S
O43 Sc23 2.105 . S
O43 C28 1.268 . S
Sc44 O47 2.025 1_556 S
Sc44 O54 2.105 . S
Sc44 O57 2.105 . S
Sc44 O60 2.105 . S
Sc44 O63 2.105 . S
Sc45 O47 2.025 . S
Sc45 O55 2.105 1_554 S
Sc45 O59 2.105 . S
Sc45 O61 2.105 1_554 S
Sc45 O65 2.105 . S
Sc46 O47 2.025 . S
Sc46 O56 2.105 . S
Sc46 O58 2.105 . S
Sc46 O62 2.105 . S
Sc46 O64 2.105 . S
O47 Sc44 2.025 1_554 S
O47 Sc45 2.025 . S
O47 Sc46 2.025 . S
C48 O54 1.268 1_554 S
C48 O64 1.268 . S
C49 O55 1.268 . S
C49 O63 1.268 . S
C50 O56 1.268 . S
C50 O65 1.268 . S
C51 O57 1.268 . S
C51 O61 1.268 . S
C52 O58 1.268 . S
C52 O60 1.268 1_554 S
C53 O59 1.268 . S
C53 O62 1.268 . S
O54 Sc44 2.105 . S
O54 C48 1.268 1_556 S
O55 Sc45 2.105 1_556 S
O55 C49 1.268 . S
O56 Sc46 2.105 . S
O56 C50 1.268 . S
O57 Sc44 2.105 . S
O57 C51 1.268 . S
O58 Sc46 2.105 . S
O58 C52 1.268 . S
O59 Sc45 2.105 . S
O59 C53 1.268 . S
O60 Sc44 2.105 . S
O60 C52 1.268 1_556 S
O61 Sc45 2.105 1_556 S
O61 C51 1.268 . S
O62 Sc46 2.105 . S
O62 C53 1.268 . S
O63 Sc44 2.105 . S
O63 C49 1.268 . S
O64 Sc46 2.105 . S
O64 C48 1.268 . S
O65 Sc45 2.105 . S
O65 C50 1.268 . S
Sc66 O69 2.025 . S
Sc66 O76 2.105 . S
Sc66 O79 2.105 . S
Sc66 O82 2.105 . S
Sc66 O85 2.105 . S
Sc67 O69 2.025 . S
Sc67 O77 2.105 . S
Sc67 O81 2.105 . S
Sc67 O83 2.105 . S
Sc67 O87 2.105 . S
Sc68 O69 2.025 . S
Sc68 O78 2.105 . S
Sc68 O80 2.105 . S
Sc68 O84 2.105 . S
Sc68 O86 2.105 . S
O69 Sc66 2.025 . S
O69 Sc67 2.025 . S
O69 Sc68 2.025 . S
C70 O76 1.268 . S
C70 O86 1.268 . S
C71 O77 1.268 . S
C71 O85 1.268 . S
C72 O78 1.268 . S
C72 O87 1.268 . S
C73 O79 1.268 . S
C73 O83 1.268 . S
C74 O80 1.268 . S
C74 O82 1.268 . S
C75 O81 1.268 . S
C75 O84 1.268 . S
O76 Sc66 2.105 . S
O76 C70 1.268 . S
O77 Sc67 2.105 . S
O77 C71 1.268 . S
O78 Sc68 2.105 . S
O78 C72 1.268 . S
O79 Sc66 2.105 . S
O79 C73 1.268 . S
O80 Sc68 2.105 . S
O80 C74 1.268 . S
O81 Sc67 2.105 . S
O81 C75 1.268 . S
O82 Sc66 2.105 . S
O82 C74 1.268 . S
O83 Sc67 2.105 . S
O83 C73 1.268 . S
O84 Sc68 2.105 . S
O84 C75 1.268 . S
O85 Sc66 2.105 . S
O85 C71 1.268 . S
O86 Sc68 2.105 . S
O86 C70 1.268 . S
O87 Sc67 2.105 . S
O87 C72 1.268 . S
H88 C93 0.930 . S
H89 C96 0.930 . S
H90 C98 0.931 . S
H91 C92 1.016 . S
C92 H91 1.016 . S
C92 N99 1.286 1_554 S
C93 H88 0.930 . S
C93 C94 1.397 . S
C93 C95 1.361 . S
C94 C93 1.397 . S
C94 C98 1.378 1_556 S
C95 C93 1.361 . S
C95 C96 1.393 1_556 S
C95 N99 1.413 . S
C96 H89 0.930 . S
C96 C95 1.393 1_554 S
C96 C97 1.399 . S
C97 C96 1.399 . S
C97 C98 1.393 . S
C98 H90 0.931 . S
C98 C94 1.378 1_554 S
C98 C97 1.393 . S
N99 C92 1.286 1_556 S
N99 C95 1.413 . S
H100 C105 0.930 . S
H101 C108 0.930 . S
H102 C110 0.930 . S
H103 C104 1.016 . S
C104 H103 1.016 . S
C104 N111 1.286 . S
C105 H100 0.930 . S
C105 C106 1.397 . S
C105 C107 1.369 . S
C106 C105 1.397 . S
C106 C110 1.390 . S
C107 C105 1.369 . S
C107 C108 1.399 . S
C107 N111 1.400 1_655 S
C108 H101 0.930 . S
C108 C107 1.399 . S
C108 C109 1.399 . S
C109 C108 1.399 . S
C109 C110 1.381 . S
C110 H102 0.930 . S
C110 C106 1.390 . S
C110 C109 1.381 . S
N111 C104 1.286 . S
N111 C107 1.400 1_455 S
H112 C117 0.930 . S
H113 C120 0.930 . S
H114 C122 0.930 . S
H115 C116 1.016 1_556 S
C116 H115 1.016 1_554 S
C116 N123 1.286 . S
C117 H112 0.930 . S
C117 C118 1.397 . S
C117 C119 1.361 . S
C118 C117 1.397 . S
C118 C122 1.390 . S
C119 C117 1.361 . S
C119 C120 1.393 1_554 S
C119 N123 1.413 . S
C120 H113 0.930 . S
C120 C119 1.393 1_556 S
C120 C121 1.399 . S
C121 C120 1.399 . S
C121 C122 1.381 1_556 S
C122 H114 0.930 . S
C122 C118 1.390 . S
C122 C121 1.381 1_554 S
N123 C116 1.286 . S
N123 C119 1.413 . S
H124 C129 0.930 . S
H125 C132 0.930 . S
H126 C134 0.930 . S
H127 C128 1.016 . S
C128 H127 1.016 . S
C128 N135 1.286 . S
C129 H124 0.930 . S
C129 C130 1.397 . S
C129 C131 1.361 . S
C130 C129 1.397 . S
C130 C134 1.390 . S
C131 C129 1.361 . S
C131 C132 1.393 . S
C131 N135 1.413 1_455 S
C132 H125 0.930 . S
C132 C131 1.393 . S
C132 C133 1.399 . S
C133 C132 1.399 . S
C133 C134 1.381 . S
C134 H126 0.930 . S
C134 C130 1.390 . S
C134 C133 1.381 . S
N135 C128 1.286 . S
N135 C131 1.413 1_655 S
H136 C141 0.930 . S
H137 C144 0.930 . S
H138 C146 0.930 . S
H139 C140 1.016 . S
C140 H139 1.016 . S
C140 N147 1.286 . S
C141 H136 0.930 . S
C141 C142 1.397 . S
C141 C143 1.361 . S
C142 C141 1.397 . S
C142 C146 1.390 . S
C143 C141 1.361 . S
C143 C144 1.393 . S
C143 N147 1.413 1_565 S
C144 H137 0.930 . S
C144 C143 1.393 . S
C144 C145 1.399 . S
C145 C144 1.399 . S
C145 C146 1.381 . S
C146 H138 0.930 . S
C146 C142 1.390 . S
C146 C145 1.381 . S
N147 C140 1.286 . S
N147 C143 1.413 1_545 S
H148 C153 0.930 . S
H149 C156 0.930 . S
H150 C158 0.931 . S
H151 C152 1.016 . S
C152 H151 1.016 . S
C152 N159 1.286 1_554 S
C153 H148 0.930 . S
C153 C154 1.397 . S
C153 C155 1.361 . S
C154 C153 1.397 . S
C154 C158 1.382 1_556 S
C155 C153 1.361 . S
C155 C156 1.393 1_556 S
C155 N159 1.413 . S
C156 H149 0.930 . S
C156 C155 1.393 1_554 S
C156 C157 1.399 . S
C157 C156 1.399 . S
C157 C158 1.388 . S
C158 H150 0.931 . S
C158 C154 1.382 1_554 S
C158 C157 1.388 . S
N159 C152 1.286 1_556 S
N159 C155 1.413 . S
H160 C165 0.930 . S
H161 C168 0.930 . S
H162 C170 0.930 . S
H163 C164 1.016 . S
C164 H163 1.016 . S
C164 N171 1.286 . S
C165 H160 0.930 . S
C165 C166 1.397 . S
C165 C167 1.374 . S
C166 C165 1.397 . S
C166 C170 1.390 . S
C167 C165 1.374 . S
C167 C168 1.402 . S
C167 N171 1.392 1_545 S
C168 H161 0.930 . S
C168 C167 1.402 . S
C168 C169 1.399 . S
C169 C168 1.399 . S
C169 C170 1.381 . S
C170 H162 0.930 . S
C170 C166 1.390 . S
C170 C169 1.381 . S
N171 C164 1.286 . S
N171 C167 1.392 1_565 S
H172 C177 0.930 . S
H173 C180 0.930 . S
H174 C182 0.930 . S
H175 C176 1.016 1_556 S
C176 H175 1.016 1_554 S
C176 N183 1.286 . S
C177 H172 0.930 . S
C177 C178 1.397 . S
C177 C179 1.361 . S
C178 C177 1.397 . S
C178 C182 1.390 . S
C179 C177 1.361 . S
C179 C180 1.393 1_554 S
C179 N183 1.413 . S
C180 H173 0.930 . S
C180 C179 1.393 1_556 S
C180 C181 1.399 . S
C181 C180 1.399 . S
C181 C182 1.381 1_556 S
C182 H174 0.930 . S
C182 C178 1.390 . S
C182 C181 1.381 1_554 S
N183 C176 1.286 . S
N183 C179 1.413 . S
H184 C196 0.930 . S
H185 C198 0.930 . S
H186 C199 0.930 . S
H187 C203 0.959 . S
H188 C203 0.959 . S
H189 C203 0.961 . S
H190 C204 0.960 . S
H191 C204 0.961 . S
H192 C204 0.959 . S
H193 C207 0.929 . S
H194 C208 0.931 . S
H195 C210 0.930 . S
C196 H184 0.930 . S
C196 C197 1.399 . S
C196 C201 1.399 . S
C197 C196 1.399 . S
C197 C198 1.376 . S
C198 H185 0.930 . S
C198 C197 1.376 . S
C198 C199 1.388 . S
C199 H186 0.930 . S
C199 C198 1.388 . S
C199 C200 1.390 . S
C200 C199 1.390 . S
C200 C201 1.394 . S
C200 C206 1.465 . S
C201 C196 1.399 . S
C201 C200 1.394 . S
C201 C202 1.516 . S
C202 C201 1.516 . S
C202 C203 1.502 . S
C202 C204 1.561 . S
C202 C205 1.526 . S
C203 H187 0.959 . S
C203 H188 0.959 . S
C203 H189 0.961 . S
C203 C202 1.502 . S
C204 H190 0.960 . S
C204 H191 0.961 . S
C204 H192 0.959 . S
C204 C202 1.561 . S
C205 C202 1.526 . S
C205 C206 1.396 . S
C205 C210 1.390 . S
C206 C200 1.465 . S
C206 C205 1.396 . S
C206 C207 1.399 . S
C207 H193 0.929 . S
C207 C206 1.399 . S
C207 C208 1.385 . S
C208 H194 0.931 . S
C208 C207 1.385 . S
C208 C209 1.389 . S
C209 C208 1.389 . S
C209 C210 1.387 . S
C210 H195 0.930 . S
C210 C205 1.390 . S
C210 C209 1.387 . S
H211 C223 0.930 . S
H212 C225 0.930 . S
H213 C226 0.930 . S
H214 C230 0.959 . S
H215 C230 0.959 . S
H216 C230 0.961 . S
H217 C231 0.960 . S
H218 C231 0.961 . S
H219 C231 0.959 . S
H220 C234 0.929 . S
H221 C235 0.931 . S
H222 C237 0.930 . S
C223 H211 0.930 . S
C223 C224 1.399 . S
C223 C228 1.399 . S
C224 C223 1.399 . S
C224 C225 1.376 . S
C225 H212 0.930 . S
C225 C224 1.376 . S
C225 C226 1.388 . S
C226 H213 0.930 . S
C226 C225 1.388 . S
C226 C227 1.390 . S
C227 C226 1.390 . S
C227 C228 1.394 . S
C227 C233 1.465 . S
C228 C223 1.399 . S
C228 C227 1.394 . S
C228 C229 1.516 . S
C229 C228 1.516 . S
C229 C230 1.502 . S
C229 C231 1.561 . S
C229 C232 1.526 . S
C230 H214 0.959 . S
C230 H215 0.959 . S
C230 H216 0.961 . S
C230 C229 1.502 . S
C231 H217 0.960 . S
C231 H218 0.961 . S
C231 H219 0.959 . S
C231 C229 1.561 . S
C232 C229 1.526 . S
C232 C233 1.396 . S
C232 C237 1.390 . S
C233 C227 1.465 . S
C233 C232 1.396 . S
C233 C234 1.399 . S
C234 H220 0.929 . S
C234 C233 1.399 . S
C234 C235 1.385 . S
C235 H221 0.931 . S
C235 C234 1.385 . S
C235 C236 1.389 . S
C236 C235 1.389 . S
C236 C237 1.387 . S
C237 H222 0.930 . S
C237 C232 1.390 . S
C237 C236 1.387 . S
H238 C250 0.930 . S
H239 C252 0.930 . S
H240 C253 0.930 . S
H241 C257 0.959 . S
H242 C257 0.959 . S
H243 C257 0.961 . S
H244 C258 0.960 . S
H245 C258 0.961 . S
H246 C258 0.959 . S
H247 C261 0.929 . S
H248 C262 0.931 . S
H249 C264 0.930 . S
C250 H238 0.930 . S
C250 C251 1.399 . S
C250 C255 1.399 . S
C251 C250 1.399 . S
C251 C252 1.376 . S
C252 H239 0.930 . S
C252 C251 1.376 . S
C252 C253 1.388 . S
C253 H240 0.930 . S
C253 C252 1.388 . S
C253 C254 1.390 . S
C254 C253 1.390 . S
C254 C255 1.394 . S
C254 C260 1.465 . S
C255 C250 1.399 . S
C255 C254 1.394 . S
C255 C256 1.516 . S
C256 C255 1.516 . S
C256 C257 1.502 . S
C256 C258 1.561 . S
C256 C259 1.526 . S
C257 H241 0.959 . S
C257 H242 0.959 . S
C257 H243 0.961 . S
C257 C256 1.502 . S
C258 H244 0.960 . S
C258 H245 0.961 . S
C258 H246 0.959 . S
C258 C256 1.561 . S
C259 C256 1.526 . S
C259 C260 1.396 . S
C259 C264 1.390 . S
C260 C254 1.465 . S
C260 C259 1.396 . S
C260 C261 1.399 . S
C261 H247 0.929 . S
C261 C260 1.399 . S
C261 C262 1.385 . S
C262 H248 0.931 . S
C262 C261 1.385 . S
C262 C263 1.389 . S
C263 C262 1.389 . S
C263 C264 1.387 . S
C264 H249 0.930 . S
C264 C259 1.390 . S
C264 C263 1.387 . S
H265 C277 0.930 . S
H266 C279 0.930 . S
H267 C280 0.930 . S
H268 C284 0.959 . S
H269 C284 0.959 . S
H270 C284 0.961 . S
H271 C285 0.960 . S
H272 C285 0.961 . S
H273 C285 0.959 . S
H274 C288 0.929 . S
H275 C289 0.931 . S
H276 C291 0.930 . S
C277 H265 0.930 . S
C277 C278 1.399 . S
C277 C282 1.399 . S
C278 C277 1.399 . S
C278 C279 1.376 . S
C279 H266 0.930 . S
C279 C278 1.376 . S
C279 C280 1.388 . S
C280 H267 0.930 . S
C280 C279 1.388 . S
C280 C281 1.390 . S
C281 C280 1.390 . S
C281 C282 1.394 . S
C281 C287 1.465 . S
C282 C277 1.399 . S
C282 C281 1.394 . S
C282 C283 1.516 . S
C283 C282 1.516 . S
C283 C284 1.502 . S
C283 C285 1.561 . S
C283 C286 1.526 . S
C284 H268 0.959 . S
C284 H269 0.959 . S
C284 H270 0.961 . S
C284 C283 1.502 . S
C285 H271 0.960 . S
C285 H272 0.961 . S
C285 H273 0.959 . S
C285 C283 1.561 . S
C286 C283 1.526 . S
C286 C287 1.396 . S
C286 C291 1.390 . S
C287 C281 1.465 . S
C287 C286 1.396 . S
C287 C288 1.399 . S
C288 H274 0.929 . S
C288 C287 1.399 . S
C288 C289 1.385 . S
C289 H275 0.931 . S
C289 C288 1.385 . S
C289 C290 1.389 . S
C290 C289 1.389 . S
C290 C291 1.387 . S
C291 H276 0.930 . S
C291 C286 1.390 . S
C291 C290 1.387 . S
H292 C304 0.930 . S
H293 C306 0.930 . S
H294 C307 0.930 . S
H295 C311 0.959 . S
H296 C311 0.959 . S
H297 C311 0.961 . S
H298 C312 0.960 . S
H299 C312 0.961 . S
H300 C312 0.959 . S
H301 C315 0.929 . S
H302 C316 0.931 . S
H303 C318 0.930 . S
C304 H292 0.930 . S
C304 C305 1.399 . S
C304 C309 1.399 . S
C305 C304 1.399 . S
C305 C306 1.376 . S
C306 H293 0.930 . S
C306 C305 1.376 . S
C306 C307 1.388 . S
C307 H294 0.930 . S
C307 C306 1.388 . S
C307 C308 1.390 . S
C308 C307 1.390 . S
C308 C309 1.394 . S
C308 C314 1.465 . S
C309 C304 1.399 . S
C309 C308 1.394 . S
C309 C310 1.516 . S
C310 C309 1.516 . S
C310 C311 1.502 . S
C310 C312 1.561 . S
C310 C313 1.526 . S
C311 H295 0.959 . S
C311 H296 0.959 . S
C311 H297 0.961 . S
C311 C310 1.502 . S
C312 H298 0.960 . S
C312 H299 0.961 . S
C312 H300 0.959 . S
C312 C310 1.561 . S
C313 C310 1.526 . S
C313 C314 1.396 . S
C313 C318 1.390 . S
C314 C308 1.465 . S
C314 C313 1.396 . S
C314 C315 1.399 . S
C315 H301 0.929 . S
C315 C314 1.399 . S
C315 C316 1.385 . S
C316 H302 0.931 . S
C316 C315 1.385 . S
C316 C317 1.389 . S
C317 C316 1.389 . S
C317 C318 1.387 . S
C318 H303 0.930 . S
C318 C313 1.390 . S
C318 C317 1.387 . S
H319 C331 0.930 . S
H320 C333 0.930 . S
H321 C334 0.930 . S
H322 C338 0.959 . S
H323 C338 0.959 . S
H324 C338 0.961 . S
H325 C339 0.960 . S
H326 C339 0.961 . S
H327 C339 0.959 . S
H328 C342 0.929 . S
H329 C343 0.931 . S
H330 C345 0.930 . S
C331 H319 0.930 . S
C331 C332 1.399 . S
C331 C336 1.399 . S
C332 C331 1.399 . S
C332 C333 1.376 . S
C333 H320 0.930 . S
C333 C332 1.376 . S
C333 C334 1.388 . S
C334 H321 0.930 . S
C334 C333 1.388 . S
C334 C335 1.390 . S
C335 C334 1.390 . S
C335 C336 1.394 . S
C335 C341 1.465 . S
C336 C331 1.399 . S
C336 C335 1.394 . S
C336 C337 1.516 . S
C337 C336 1.516 . S
C337 C338 1.502 . S
C337 C339 1.561 . S
C337 C340 1.526 . S
C338 H322 0.959 . S
C338 H323 0.959 . S
C338 H324 0.961 . S
C338 C337 1.502 . S
C339 H325 0.960 . S
C339 H326 0.961 . S
C339 H327 0.959 . S
C339 C337 1.561 . S
C340 C337 1.526 . S
C340 C341 1.396 . S
C340 C345 1.390 . S
C341 C335 1.465 . S
C341 C340 1.396 . S
C341 C342 1.399 . S
C342 H328 0.929 . S
C342 C341 1.399 . S
C342 C343 1.385 . S
C343 H329 0.931 . S
C343 C342 1.385 . S
C343 C344 1.389 . S
C344 C343 1.389 . S
C344 C345 1.387 . S
C345 H330 0.930 . S
C345 C340 1.390 . S
C345 C344 1.387 . S
H346 C358 0.930 . S
H347 C360 0.930 . S
H348 C361 0.930 . S
H349 C365 0.959 . S
H350 C365 0.959 . S
H351 C365 0.961 . S
H352 C366 0.960 . S
H353 C366 0.961 . S
H354 C366 0.959 . S
H355 C369 0.929 . S
H356 C370 0.931 . S
H357 C372 0.930 . S
C358 H346 0.930 . S
C358 C359 1.399 . S
C358 C363 1.399 . S
C359 C358 1.399 . S
C359 C360 1.376 . S
C360 H347 0.930 . S
C360 C359 1.376 . S
C360 C361 1.388 . S
C361 H348 0.930 . S
C361 C360 1.388 . S
C361 C362 1.390 . S
C362 C361 1.390 . S
C362 C363 1.394 . S
C362 C368 1.465 . S
C363 C358 1.399 . S
C363 C362 1.394 . S
C363 C364 1.516 . S
C364 C363 1.516 . S
C364 C365 1.502 . S
C364 C366 1.561 . S
C364 C367 1.526 . S
C365 H349 0.959 . S
C365 H350 0.959 . S
C365 H351 0.961 . S
C365 C364 1.502 . S
C366 H352 0.960 . S
C366 H353 0.961 . S
C366 H354 0.959 . S
C366 C364 1.561 . S
C367 C364 1.526 . S
C367 C368 1.396 . S
C367 C372 1.390 . S
C368 C362 1.465 . S
C368 C367 1.396 . S
C368 C369 1.399 . S
C369 H355 0.929 . S
C369 C368 1.399 . S
C369 C370 1.385 . S
C370 H356 0.931 . S
C370 C369 1.385 . S
C370 C371 1.389 . S
C371 C370 1.389 . S
C371 C372 1.387 . S
C372 H357 0.930 . S
C372 C367 1.390 . S
C372 C371 1.387 . S
H373 C385 0.930 . S
H374 C387 0.930 . S
H375 C388 0.930 . S
H376 C392 0.959 . S
H377 C392 0.959 . S
H378 C392 0.961 . S
H379 C393 0.960 . S
H380 C393 0.961 . S
H381 C393 0.959 . S
H382 C396 0.929 . S
H383 C397 0.931 . S
H384 C399 0.930 . S
C385 H373 0.930 . S
C385 C386 1.399 . S
C385 C390 1.399 . S
C386 C385 1.399 . S
C386 C387 1.376 . S
C387 H374 0.930 . S
C387 C386 1.376 . S
C387 C388 1.388 . S
C388 H375 0.930 . S
C388 C387 1.388 . S
C388 C389 1.390 . S
C389 C388 1.390 . S
C389 C390 1.394 . S
C389 C395 1.465 . S
C390 C385 1.399 . S
C390 C389 1.394 . S
C390 C391 1.516 . S
C391 C390 1.516 . S
C391 C392 1.502 . S
C391 C393 1.561 . S
C391 C394 1.526 . S
C392 H376 0.959 . S
C392 H377 0.959 . S
C392 H378 0.961 . S
C392 C391 1.502 . S
C393 H379 0.960 . S
C393 H380 0.961 . S
C393 H381 0.959 . S
C393 C391 1.561 . S
C394 C391 1.526 . S
C394 C395 1.396 . S
C394 C399 1.390 . S
C395 C389 1.465 . S
C395 C394 1.396 . S
C395 C396 1.399 . S
C396 H382 0.929 . S
C396 C395 1.399 . S
C396 C397 1.385 . S
C397 H383 0.931 . S
C397 C396 1.385 . S
C397 C398 1.389 . S
C398 C397 1.389 . S
C398 C399 1.387 . S
C399 H384 0.930 . S
C399 C394 1.390 . S
C399 C398 1.387 . S
H400 C412 0.930 . S
H401 C414 0.930 . S
H402 C415 0.930 . S
H403 C419 0.959 . S
H404 C419 0.959 . S
H405 C419 0.961 . S
H406 C420 0.960 . S
H407 C420 0.961 . S
H408 C420 0.959 . S
H409 C423 0.929 . S
H410 C424 0.931 . S
H411 C426 0.930 . S
C412 H400 0.930 . S
C412 C413 1.399 . S
C412 C417 1.399 . S
C413 C412 1.399 . S
C413 C414 1.376 . S
C414 H401 0.930 . S
C414 C413 1.376 . S
C414 C415 1.388 . S
C415 H402 0.930 . S
C415 C414 1.388 . S
C415 C416 1.390 . S
C416 C415 1.390 . S
C416 C417 1.394 . S
C416 C422 1.465 . S
C417 C412 1.399 . S
C417 C416 1.394 . S
C417 C418 1.516 . S
C418 C417 1.516 . S
C418 C419 1.502 . S
C418 C420 1.561 . S
C418 C421 1.526 . S
C419 H403 0.959 . S
C419 H404 0.959 . S
C419 H405 0.961 . S
C419 C418 1.502 . S
C420 H406 0.960 . S
C420 H407 0.961 . S
C420 H408 0.959 . S
C420 C418 1.561 . S
C421 C418 1.526 . S
C421 C422 1.396 . S
C421 C426 1.390 . S
C422 C416 1.465 . S
C422 C421 1.396 . S
C422 C423 1.399 . S
C423 H409 0.929 . S
C423 C422 1.399 . S
C423 C424 1.385 . S
C424 H410 0.931 . S
C424 C423 1.385 . S
C424 C425 1.389 . S
C425 C424 1.389 . S
C425 C426 1.387 . S
C426 H411 0.930 . S
C426 C421 1.390 . S
C426 C425 1.387 . S
H427 C439 0.930 . S
H428 C441 0.930 . S
H429 C442 0.930 . S
H430 C446 0.959 . S
H431 C446 0.959 . S
H432 C446 0.961 . S
H433 C447 0.960 . S
H434 C447 0.961 . S
H435 C447 0.959 . S
H436 C450 0.929 . S
H437 C451 0.931 . S
H438 C453 0.930 . S
C439 H427 0.930 . S
C439 C440 1.399 . S
C439 C444 1.399 . S
C440 C439 1.399 . S
C440 C441 1.376 . S
C441 H428 0.930 . S
C441 C440 1.376 . S
C441 C442 1.388 . S
C442 H429 0.930 . S
C442 C441 1.388 . S
C442 C443 1.390 . S
C443 C442 1.390 . S
C443 C444 1.394 . S
C443 C449 1.465 . S
C444 C439 1.399 . S
C444 C443 1.394 . S
C444 C445 1.516 . S
C445 C444 1.516 . S
C445 C446 1.502 . S
C445 C447 1.561 . S
C445 C448 1.526 . S
C446 H430 0.959 . S
C446 H431 0.959 . S
C446 H432 0.961 . S
C446 C445 1.502 . S
C447 H433 0.960 . S
C447 H434 0.961 . S
C447 H435 0.959 . S
C447 C445 1.561 . S
C448 C445 1.526 . S
C448 C449 1.396 . S
C448 C453 1.390 . S
C449 C443 1.465 . S
C449 C448 1.396 . S
C449 C450 1.399 . S
C450 H436 0.929 . S
C450 C449 1.399 . S
C450 C451 1.385 . S
C451 H437 0.931 . S
C451 C450 1.385 . S
C451 C452 1.389 . S
C452 C451 1.389 . S
C452 C453 1.387 . S
C453 H438 0.930 . S
C453 C448 1.390 . S
C453 C452 1.387 . S
H454 C466 0.930 . S
H455 C468 0.930 . S
H456 C469 0.930 . S
H457 C473 0.959 . S
H458 C473 0.959 . S
H459 C473 0.961 . S
H460 C474 0.960 . S
H461 C474 0.961 . S
H462 C474 0.959 . S
H463 C477 0.929 . S
H464 C478 0.931 . S
H465 C480 0.930 . S
C466 H454 0.930 . S
C466 C467 1.399 . S
C466 C471 1.399 . S
C467 C466 1.399 . S
C467 C468 1.376 . S
C468 H455 0.930 . S
C468 C467 1.376 . S
C468 C469 1.388 . S
C469 H456 0.930 . S
C469 C468 1.388 . S
C469 C470 1.390 . S
C470 C469 1.390 . S
C470 C471 1.394 . S
C470 C476 1.465 . S
C471 C466 1.399 . S
C471 C470 1.394 . S
C471 C472 1.516 . S
C472 C471 1.516 . S
C472 C473 1.502 . S
C472 C474 1.561 . S
C472 C475 1.526 . S
C473 H457 0.959 . S
C473 H458 0.959 . S
C473 H459 0.961 . S
C473 C472 1.502 . S
C474 H460 0.960 . S
C474 H461 0.961 . S
C474 H462 0.959 . S
C474 C472 1.561 . S
C475 C472 1.526 . S
C475 C476 1.396 . S
C475 C480 1.390 . S
C476 C470 1.465 . S
C476 C475 1.396 . S
C476 C477 1.399 . S
C477 H463 0.929 . S
C477 C476 1.399 . S
C477 C478 1.385 . S
C478 H464 0.931 . S
C478 C477 1.385 . S
C478 C479 1.389 . S
C479 C478 1.389 . S
C479 C480 1.387 . S
C480 H465 0.930 . S
C480 C475 1.390 . S
C480 C479 1.387 . S
H481 C493 0.930 . S
H482 C495 0.930 . S
H483 C496 0.930 . S
H484 C500 0.959 . S
H485 C500 0.959 . S
H486 C500 0.961 . S
H487 C501 0.960 . S
H488 C501 0.961 . S
H489 C501 0.959 . S
H490 C504 0.929 . S
H491 C505 0.931 . S
H492 C507 0.930 . S
C493 H481 0.930 . S
C493 C494 1.399 . S
C493 C498 1.399 . S
C494 C493 1.399 . S
C494 C495 1.376 . S
C495 H482 0.930 . S
C495 C494 1.376 . S
C495 C496 1.388 . S
C496 H483 0.930 . S
C496 C495 1.388 . S
C496 C497 1.390 . S
C497 C496 1.390 . S
C497 C498 1.394 . S
C497 C503 1.465 . S
C498 C493 1.399 . S
C498 C497 1.394 . S
C498 C499 1.516 . S
C499 C498 1.516 . S
C499 C500 1.502 . S
C499 C501 1.561 . S
C499 C502 1.526 . S
C500 H484 0.959 . S
C500 H485 0.959 . S
C500 H486 0.961 . S
C500 C499 1.502 . S
C501 H487 0.960 . S
C501 H488 0.961 . S
C501 H489 0.959 . S
C501 C499 1.561 . S
C502 C499 1.526 . S
C502 C503 1.396 . S
C502 C507 1.390 . S
C503 C497 1.465 . S
C503 C502 1.396 . S
C503 C504 1.399 . S
C504 H490 0.929 . S
C504 C503 1.399 . S
C504 C505 1.385 . S
C505 H491 0.931 . S
C505 C504 1.385 . S
C505 C506 1.389 . S
C506 C505 1.389 . S
C506 C507 1.387 . S
C507 H492 0.930 . S
C507 C502 1.390 . S
C507 C506 1.387 . S
H508 C520 0.930 . S
H509 C522 0.930 . S
H510 C523 0.930 . S
H511 C527 0.959 . S
H512 C527 0.959 . S
H513 C527 0.961 . S
H514 C528 0.960 . S
H515 C528 0.961 . S
H516 C528 0.959 . S
H517 C531 0.929 . S
H518 C532 0.931 . S
H519 C534 0.930 . S
C520 H508 0.930 . S
C520 C521 1.399 . S
C520 C525 1.399 . S
C521 C520 1.399 . S
C521 C522 1.376 . S
C522 H509 0.930 . S
C522 C521 1.376 . S
C522 C523 1.388 . S
C523 H510 0.930 . S
C523 C522 1.388 . S
C523 C524 1.390 . S
C524 C523 1.390 . S
C524 C525 1.394 . S
C524 C530 1.465 . S
C525 C520 1.399 . S
C525 C524 1.394 . S
C525 C526 1.516 . S
C526 C525 1.516 . S
C526 C527 1.502 . S
C526 C528 1.561 . S
C526 C529 1.526 . S
C527 H511 0.959 . S
C527 H512 0.959 . S
C527 H513 0.961 . S
C527 C526 1.502 . S
C528 H514 0.960 . S
C528 H515 0.961 . S
C528 H516 0.959 . S
C528 C526 1.561 . S
C529 C526 1.526 . S
C529 C530 1.396 . S
C529 C534 1.390 . S
C530 C524 1.465 . S
C530 C529 1.396 . S
C530 C531 1.399 . S
C531 H517 0.929 . S
C531 C530 1.399 . S
C531 C532 1.385 . S
C532 H518 0.931 . S
C532 C531 1.385 . S
C532 C533 1.389 . S
C533 C532 1.389 . S
C533 C534 1.387 . S
C534 H519 0.930 . S
C534 C529 1.390 . S
C534 C533 1.387 . S
H535 C547 0.930 . S
H536 C549 0.930 . S
H537 C550 0.930 . S
H538 C554 0.959 . S
H539 C554 0.959 . S
H540 C554 0.961 . S
H541 C555 0.960 . S
H542 C555 0.961 . S
H543 C555 0.959 . S
H544 C558 0.929 . S
H545 C559 0.931 . S
H546 C561 0.930 . S
C547 H535 0.930 . S
C547 C548 1.399 . S
C547 C552 1.399 . S
C548 C547 1.399 . S
C548 C549 1.376 . S
C549 H536 0.930 . S
C549 C548 1.376 . S
C549 C550 1.388 . S
C550 H537 0.930 . S
C550 C549 1.388 . S
C550 C551 1.390 . S
C551 C550 1.390 . S
C551 C552 1.394 . S
C551 C557 1.465 . S
C552 C547 1.399 . S
C552 C551 1.394 . S
C552 C553 1.516 . S
C553 C552 1.516 . S
C553 C554 1.502 . S
C553 C555 1.561 . S
C553 C556 1.526 . S
C554 H538 0.959 . S
C554 H539 0.959 . S
C554 H540 0.961 . S
C554 C553 1.502 . S
C555 H541 0.960 . S
C555 H542 0.961 . S
C555 H543 0.959 . S
C555 C553 1.561 . S
C556 C553 1.526 . S
C556 C557 1.396 . S
C556 C561 1.390 . S
C557 C551 1.465 . S
C557 C556 1.396 . S
C557 C558 1.399 . S
C558 H544 0.929 . S
C558 C557 1.399 . S
C558 C559 1.385 . S
C559 H545 0.931 . S
C559 C558 1.385 . S
C559 C560 1.389 . S
C560 C559 1.389 . S
C560 C561 1.387 . S
C561 H546 0.930 . S
C561 C556 1.390 . S
C561 C560 1.387 . S
H562 C574 0.930 . S
H563 C576 0.930 . S
H564 C577 0.930 . S
H565 C581 0.959 . S
H566 C581 0.959 . S
H567 C581 0.961 . S
H568 C582 0.960 . S
H569 C582 0.961 . S
H570 C582 0.959 . S
H571 C585 0.929 . S
H572 C586 0.931 . S
H573 C588 0.930 . S
C574 H562 0.930 . S
C574 C575 1.399 . S
C574 C579 1.399 . S
C575 C574 1.399 . S
C575 C576 1.376 . S
C576 H563 0.930 . S
C576 C575 1.376 . S
C576 C577 1.388 . S
C577 H564 0.930 . S
C577 C576 1.388 . S
C577 C578 1.390 . S
C578 C577 1.390 . S
C578 C579 1.394 . S
C578 C584 1.465 . S
C579 C574 1.399 . S
C579 C578 1.394 . S
C579 C580 1.516 . S
C580 C579 1.516 . S
C580 C581 1.502 . S
C580 C582 1.561 . S
C580 C583 1.526 . S
C581 H565 0.959 . S
C581 H566 0.959 . S
C581 H567 0.961 . S
C581 C580 1.502 . S
C582 H568 0.960 . S
C582 H569 0.961 . S
C582 H570 0.959 . S
C582 C580 1.561 . S
C583 C580 1.526 . S
C583 C584 1.396 . S
C583 C588 1.390 . S
C584 C578 1.465 . S
C584 C583 1.396 . S
C584 C585 1.399 . S
C585 H571 0.929 . S
C585 C584 1.399 . S
C585 C586 1.385 . S
C586 H572 0.931 . S
C586 C585 1.385 . S
C586 C587 1.389 . S
C587 C586 1.389 . S
C587 C588 1.387 . S
C588 H573 0.930 . S
C588 C583 1.390 . S
C588 C587 1.387 . S
H589 C601 0.930 . S
H590 C603 0.930 . S
H591 C604 0.930 . S
H592 C608 0.959 . S
H593 C608 0.959 . S
H594 C608 0.961 . S
H595 C609 0.960 . S
H596 C609 0.961 . S
H597 C609 0.959 . S
H598 C612 0.929 . S
H599 C613 0.931 . S
H600 C615 0.930 . S
C601 H589 0.930 . S
C601 C602 1.399 . S
C601 C606 1.399 . S
C602 C601 1.399 . S
C602 C603 1.376 . S
C603 H590 0.930 . S
C603 C602 1.376 . S
C603 C604 1.388 . S
C604 H591 0.930 . S
C604 C603 1.388 . S
C604 C605 1.390 . S
C605 C604 1.390 . S
C605 C606 1.394 . S
C605 C611 1.465 . S
C606 C601 1.399 . S
C606 C605 1.394 . S
C606 C607 1.516 . S
C607 C606 1.516 . S
C607 C608 1.502 . S
C607 C609 1.561 . S
C607 C610 1.526 . S
C608 H592 0.959 . S
C608 H593 0.959 . S
C608 H594 0.961 . S
C608 C607 1.502 . S
C609 H595 0.960 . S
C609 H596 0.961 . S
C609 H597 0.959 . S
C609 C607 1.561 . S
C610 C607 1.526 . S
C610 C611 1.396 . S
C610 C615 1.390 . S
C611 C605 1.465 . S
C611 C610 1.396 . S
C611 C612 1.399 . S
C612 H598 0.929 . S
C612 C611 1.399 . S
C612 C613 1.385 . S
C613 H599 0.931 . S
C613 C612 1.385 . S
C613 C614 1.389 . S
C614 C613 1.389 . S
C614 C615 1.387 . S
C615 H600 0.930 . S
C615 C610 1.390 . S
C615 C614 1.387 . S
H616 C628 0.930 . S
H617 C630 0.930 . S
H618 C631 0.930 . S
H619 C635 0.959 . S
H620 C635 0.959 . S
H621 C635 0.961 . S
H622 C636 0.960 . S
H623 C636 0.961 . S
H624 C636 0.959 . S
H625 C639 0.929 . S
H626 C640 0.931 . S
H627 C642 0.930 . S
C628 H616 0.930 . S
C628 C629 1.399 1_556 S
C628 C633 1.399 . S
C629 C628 1.399 1_554 S
C629 C630 1.376 . S
C630 H617 0.930 . S
C630 C629 1.376 . S
C630 C631 1.388 . S
C631 H618 0.930 . S
C631 C630 1.388 . S
C631 C632 1.390 . S
C632 C631 1.390 . S
C632 C633 1.394 1_554 S
C632 C638 1.465 . S
C633 C628 1.399 . S
C633 C632 1.394 1_556 S
C633 C634 1.516 . S
C634 C633 1.516 . S
C634 C635 1.502 . S
C634 C636 1.561 . S
C634 C637 1.526 . S
C635 H619 0.959 . S
C635 H620 0.959 . S
C635 H621 0.961 . S
C635 C634 1.502 . S
C636 H622 0.960 . S
C636 H623 0.961 . S
C636 H624 0.959 . S
C636 C634 1.561 . S
C637 C634 1.526 . S
C637 C638 1.396 1_556 S
C637 C642 1.390 . S
C638 C632 1.465 . S
C638 C637 1.396 1_554 S
C638 C639 1.399 . S
C639 H625 0.929 . S
C639 C638 1.399 . S
C639 C640 1.385 . S
C640 H626 0.931 . S
C640 C639 1.385 . S
C640 C641 1.389 . S
C641 C640 1.389 . S
C641 C642 1.387 1_554 S
C642 H627 0.930 . S
C642 C637 1.390 . S
C642 C641 1.387 1_556 S
H643 C655 0.930 . S
H644 C657 0.930 . S
H645 C658 0.930 . S
H646 C662 0.959 . S
H647 C662 0.959 . S
H648 C662 0.961 . S
H649 C663 0.960 . S
H650 C663 0.961 . S
H651 C663 0.959 . S
H652 C666 0.929 . S
H653 C667 0.931 . S
H654 C669 0.930 . S
C655 H643 0.930 . S
C655 C656 1.399 . S
C655 C660 1.399 . S
C656 C655 1.399 . S
C656 C657 1.376 . S
C657 H644 0.930 . S
C657 C656 1.376 . S
C657 C658 1.388 . S
C658 H645 0.930 . S
C658 C657 1.388 . S
C658 C659 1.390 . S
C659 C658 1.390 . S
C659 C660 1.394 . S
C659 C665 1.465 . S
C660 C655 1.399 . S
C660 C659 1.394 . S
C660 C661 1.516 . S
C661 C660 1.516 . S
C661 C662 1.502 . S
C661 C663 1.561 . S
C661 C664 1.526 . S
C662 H646 0.959 . S
C662 H647 0.959 . S
C662 H648 0.961 . S
C662 C661 1.502 . S
C663 H649 0.960 . S
C663 H650 0.961 . S
C663 H651 0.959 . S
C663 C661 1.561 . S
C664 C661 1.526 . S
C664 C665 1.396 . S
C664 C669 1.390 . S
C665 C659 1.465 . S
C665 C664 1.396 . S
C665 C666 1.399 . S
C666 H652 0.929 . S
C666 C665 1.399 . S
C666 C667 1.385 . S
C667 H653 0.931 . S
C667 C666 1.385 . S
C667 C668 1.389 . S
C668 C667 1.389 . S
C668 C669 1.387 . S
C669 H654 0.930 . S
C669 C664 1.390 . S
C669 C668 1.387 . S
H670 C682 0.930 . S
H671 C684 0.930 . S
H672 C685 0.930 . S
H673 C689 0.959 . S
H674 C689 0.959 . S
H675 C689 0.961 . S
H676 C690 0.960 . S
H677 C690 0.961 . S
H678 C690 0.959 . S
H679 C693 0.929 . S
H680 C694 0.931 . S
H681 C696 0.930 . S
C682 H670 0.930 . S
C682 C683 1.399 1_556 S
C682 C687 1.399 . S
C683 C682 1.399 1_554 S
C683 C684 1.376 . S
C684 H671 0.930 . S
C684 C683 1.376 . S
C684 C685 1.388 . S
C685 H672 0.930 . S
C685 C684 1.388 . S
C685 C686 1.390 . S
C686 C685 1.390 . S
C686 C687 1.394 1_554 S
C686 C692 1.465 . S
C687 C682 1.399 . S
C687 C686 1.394 1_556 S
C687 C688 1.516 . S
C688 C687 1.516 . S
C688 C689 1.502 . S
C688 C690 1.561 . S
C688 C691 1.526 . S
C689 H673 0.959 . S
C689 H674 0.959 . S
C689 H675 0.961 . S
C689 C688 1.502 . S
C690 H676 0.960 . S
C690 H677 0.961 . S
C690 H678 0.959 . S
C690 C688 1.561 . S
C691 C688 1.526 . S
C691 C692 1.396 1_556 S
C691 C696 1.390 . S
C692 C686 1.465 . S
C692 C691 1.396 1_554 S
C692 C693 1.399 . S
C693 H679 0.929 . S
C693 C692 1.399 . S
C693 C694 1.385 . S
C694 H680 0.931 . S
C694 C693 1.385 . S
C694 C695 1.389 . S
C695 C694 1.389 . S
C695 C696 1.387 1_554 S
C696 H681 0.930 . S
C696 C691 1.390 . S
C696 C695 1.387 1_556 S
H697 C709 0.930 . S
H698 C711 0.930 . S
H699 C712 0.930 . S
H700 C716 0.959 . S
H701 C716 0.959 . S
H702 C716 0.961 . S
H703 C717 0.960 . S
H704 C717 0.961 . S
H705 C717 0.959 . S
H706 C720 0.929 . S
H707 C721 0.931 . S
H708 C723 0.930 . S
C709 H697 0.930 . S
C709 C710 1.399 . S
C709 C714 1.399 . S
C710 C709 1.399 . S
C710 C711 1.376 . S
C711 H698 0.930 . S
C711 C710 1.376 . S
C711 C712 1.388 . S
C712 H699 0.930 . S
C712 C711 1.388 . S
C712 C713 1.390 . S
C713 C712 1.390 . S
C713 C714 1.394 . S
C713 C719 1.465 . S
C714 C709 1.399 . S
C714 C713 1.394 . S
C714 C715 1.516 . S
C715 C714 1.516 . S
C715 C716 1.502 . S
C715 C717 1.561 . S
C715 C718 1.526 . S
C716 H700 0.959 . S
C716 H701 0.959 . S
C716 H702 0.961 . S
C716 C715 1.502 . S
C717 H703 0.960 . S
C717 H704 0.961 . S
C717 H705 0.959 . S
C717 C715 1.561 . S
C718 C715 1.526 . S
C718 C719 1.396 . S
C718 C723 1.390 . S
C719 C713 1.465 . S
C719 C718 1.396 . S
C719 C720 1.399 . S
C720 H706 0.929 . S
C720 C719 1.399 . S
C720 C721 1.385 . S
C721 H707 0.931 . S
C721 C720 1.385 . S
C721 C722 1.389 . S
C722 C721 1.389 . S
C722 C723 1.387 . S
C723 H708 0.930 . S
C723 C718 1.390 . S
C723 C722 1.387 . S
H724 C736 0.930 . S
H725 C738 0.930 . S
H726 C739 0.930 . S
H727 C743 0.959 . S
H728 C743 0.959 . S
H729 C743 0.961 . S
H730 C744 0.960 . S
H731 C744 0.961 . S
H732 C744 0.959 . S
H733 C747 0.929 . S
H734 C748 0.931 . S
H735 C750 0.930 . S
C736 H724 0.930 . S
C736 C737 1.399 . S
C736 C741 1.399 . S
C737 C736 1.399 . S
C737 C738 1.376 . S
C738 H725 0.930 . S
C738 C737 1.376 . S
C738 C739 1.388 . S
C739 H726 0.930 . S
C739 C738 1.388 . S
C739 C740 1.390 . S
C740 C739 1.390 . S
C740 C741 1.394 . S
C740 C746 1.465 . S
C741 C736 1.399 . S
C741 C740 1.394 . S
C741 C742 1.516 . S
C742 C741 1.516 . S
C742 C743 1.502 . S
C742 C744 1.561 . S
C742 C745 1.526 . S
C743 H727 0.959 . S
C743 H728 0.959 . S
C743 H729 0.961 . S
C743 C742 1.502 . S
C744 H730 0.960 . S
C744 H731 0.961 . S
C744 H732 0.959 . S
C744 C742 1.561 . S
C745 C742 1.526 . S
C745 C746 1.396 . S
C745 C750 1.390 . S
C746 C740 1.465 . S
C746 C745 1.396 . S
C746 C747 1.399 . S
C747 H733 0.929 . S
C747 C746 1.399 . S
C747 C748 1.385 . S
C748 H734 0.931 . S
C748 C747 1.385 . S
C748 C749 1.389 . S
C749 C748 1.389 . S
C749 C750 1.387 . S
C750 H735 0.930 . S
C750 C745 1.390 . S
C750 C749 1.387 . S
H751 C763 0.930 . S
H752 C765 0.930 . S
H753 C766 0.930 . S
H754 C770 0.959 . S
H755 C770 0.959 . S
H756 C770 0.961 . S
H757 C771 0.960 . S
H758 C771 0.961 . S
H759 C771 0.959 . S
H760 C774 0.929 . S
H761 C775 0.931 . S
H762 C777 0.930 . S
C763 H751 0.930 . S
C763 C764 1.399 . S
C763 C768 1.399 . S
C764 C763 1.399 . S
C764 C765 1.376 1_554 S
C765 H752 0.930 . S
C765 C764 1.376 1_556 S
C765 C766 1.388 . S
C766 H753 0.930 . S
C766 C765 1.388 . S
C766 C767 1.390 . S
C767 C766 1.390 . S
C767 C768 1.394 1_556 S
C767 C773 1.465 . S
C768 C763 1.399 . S
C768 C767 1.394 1_554 S
C768 C769 1.516 . S
C769 C768 1.516 . S
C769 C770 1.502 . S
C769 C771 1.561 . S
C769 C772 1.526 . S
C770 H754 0.959 . S
C770 H755 0.959 . S
C770 H756 0.961 . S
C770 C769 1.502 . S
C771 H757 0.960 . S
C771 H758 0.961 . S
C771 H759 0.959 . S
C771 C769 1.561 . S
C772 C769 1.526 . S
C772 C773 1.396 1_554 S
C772 C777 1.390 . S
C773 C767 1.465 . S
C773 C772 1.396 1_556 S
C773 C774 1.399 . S
C774 H760 0.929 . S
C774 C773 1.399 . S
C774 C775 1.385 . S
C775 H761 0.931 . S
C775 C774 1.385 . S
C775 C776 1.377 1_556 S
C776 C775 1.377 1_554 S
C776 C777 1.398 . S
C777 H762 0.930 . S
C777 C772 1.390 . S
C777 C776 1.398 . S
H778 C790 0.930 . S
H779 C792 0.930 . S
H780 C793 0.930 . S
H781 C797 0.959 . S
H782 C797 0.959 . S
H783 C797 0.961 . S
H784 C798 0.960 . S
H785 C798 0.961 . S
H786 C798 0.959 . S
H787 C801 0.929 . S
H788 C802 0.931 . S
H789 C804 0.930 . S
C790 H778 0.930 . S
C790 C791 1.399 . S
C790 C795 1.399 . S
C791 C790 1.399 . S
C791 C792 1.376 . S
C792 H779 0.930 . S
C792 C791 1.376 . S
C792 C793 1.388 . S
C793 H780 0.930 . S
C793 C792 1.388 . S
C793 C794 1.390 . S
C794 C793 1.390 . S
C794 C795 1.394 . S
C794 C800 1.465 . S
C795 C790 1.399 . S
C795 C794 1.394 . S
C795 C796 1.516 . S
C796 C795 1.516 . S
C796 C797 1.502 . S
C796 C798 1.561 . S
C796 C799 1.526 . S
C797 H781 0.959 . S
C797 H782 0.959 . S
C797 H783 0.961 . S
C797 C796 1.502 . S
C798 H784 0.960 . S
C798 H785 0.961 . S
C798 H786 0.959 . S
C798 C796 1.561 . S
C799 C796 1.526 . S
C799 C800 1.396 . S
C799 C804 1.390 . S
C800 C794 1.465 . S
C800 C799 1.396 . S
C800 C801 1.399 . S
C801 H787 0.929 . S
C801 C800 1.399 . S
C801 C802 1.385 . S
C802 H788 0.931 . S
C802 C801 1.385 . S
C802 C803 1.389 . S
C803 C802 1.389 . S
C803 C804 1.387 . S
C804 H789 0.930 . S
C804 C799 1.390 . S
C804 C803 1.387 . S
H805 C817 0.930 . S
H806 C819 0.930 . S
H807 C820 0.930 . S
H808 C824 0.959 . S
H809 C824 0.959 . S
H810 C824 0.961 . S
H811 C825 0.960 . S
H812 C825 0.961 . S
H813 C825 0.959 . S
H814 C828 0.929 . S
H815 C829 0.931 . S
H816 C831 0.930 . S
C817 H805 0.930 . S
C817 C818 1.399 . S
C817 C822 1.399 . S
C818 C817 1.399 . S
C818 C819 1.376 1_554 S
C819 H806 0.930 . S
C819 C818 1.376 1_556 S
C819 C820 1.388 . S
C820 H807 0.930 . S
C820 C819 1.388 . S
C820 C821 1.390 . S
C821 C820 1.390 . S
C821 C822 1.394 1_556 S
C821 C827 1.465 . S
C822 C817 1.399 . S
C822 C821 1.394 1_554 S
C822 C823 1.516 . S
C823 C822 1.516 . S
C823 C824 1.502 . S
C823 C825 1.561 . S
C823 C826 1.526 . S
C824 H808 0.959 . S
C824 H809 0.959 . S
C824 H810 0.961 . S
C824 C823 1.502 . S
C825 H811 0.960 . S
C825 H812 0.961 . S
C825 H813 0.959 . S
C825 C823 1.561 . S
C826 C823 1.526 . S
C826 C827 1.396 1_554 S
C826 C831 1.390 . S
C827 C821 1.465 . S
C827 C826 1.396 1_556 S
C827 C828 1.399 . S
C828 H814 0.929 . S
C828 C827 1.399 . S
C828 C829 1.385 . S
C829 H815 0.931 . S
C829 C828 1.385 . S
C829 C830 1.389 1_556 S
C830 C829 1.389 1_554 S
C830 C831 1.387 . S
C831 H816 0.930 . S
C831 C826 1.390 . S
C831 C830 1.387 . S
C197 C5 1.451 . S
C209 C130 1.460 . S
C224 C31 1.467 . S
C236 C94 1.473 . S
C263 C109 1.468 . S
C251 C53 1.483 . S
C278 C71 1.487 . S
C290 C121 1.482 . S
C317 C157 1.448 . S
C305 C75 1.460 . S
C344 C169 1.493 . S
C332 C9 1.498 . S
C371 C178 1.472 . S
C359 C27 1.465 . S
C398 C142 1.442 . S
C386 C49 1.419 . S
C413 C51 1.469 . S
C425 C106 1.469 . S
C440 C72 1.458 . S
C452 C118 1.458 . S
C467 C6 1.493 . S
C479 C133 1.470 . S
C506 C97 1.482 . S
C494 C29 1.470 . S
C521 C28 1.489 . S
C533 C181 1.474 . S
C560 C145 1.467 . S
C548 C50 1.461 . S
C587 C154 1.438 . S
C575 C73 1.434 . S
C602 C7 1.431 . S
C614 C166 1.443 . S
C641 C92 1.500 . S
C629 C4 1.514 . S
C668 C104 1.517 . S
C656 C30 1.511 . S
C683 C52 1.512 . S
C695 C116 1.517 . S
C710 C70 1.516 . S
C722 C128 1.508 . S
C749 C140 1.497 . S
C737 C74 1.513 . S
C764 C8 1.509 . S
C776 C152 1.520 . S
C791 C26 1.513 . S
C803 C164 1.517 . S
C818 C48 1.513 . S
C830 C176 1.497 . S
