# Generated by pormake.
# Topology ctn, (3,4)-cn, num edge types: 1
# Building blocks:
#     Node 0, Type 0, BuildingBlock: BETDIP_clean_linker_0, # of connection points: 3
#     Node 1, Type 0, BuildingBlock: BETDIP_clean_linker_0, # of connection points: 3
#     Node 2, Type 0, BuildingBlock: BETDIP_clean_linker_0, # of connection points: 3
#     Node 3, Type 0, BuildingBlock: BETDIP_clean_linker_0, # of connection points: 3
#     Node 4, Type 0, BuildingBlock: BETDIP_clean_linker_0, # of connection points: 3
#     Node 5, Type 0, BuildingBlock: BETDIP_clean_linker_0, # of connection points: 3
#     Node 6, Type 0, BuildingBlock: BETDIP_clean_linker_0, # of connection points: 3
#     Node 7, Type 0, BuildingBlock: BETDIP_clean_linker_0, # of connection points: 3
#     Node 8, Type 0, BuildingBlock: BETDIP_clean_linker_0, # of connection points: 3
#     Node 9, Type 0, BuildingBlock: BETDIP_clean_linker_0, # of connection points: 3
#     Node 10, Type 0, BuildingBlock: BETDIP_clean_linker_0, # of connection points: 3
#     Node 11, Type 0, BuildingBlock: BETDIP_clean_linker_0, # of connection points: 3
#     Node 12, Type 0, BuildingBlock: BETDIP_clean_linker_0, # of connection points: 3
#     Node 13, Type 0, BuildingBlock: BETDIP_clean_linker_0, # of connection points: 3
#     Node 14, Type 0, BuildingBlock: BETDIP_clean_linker_0, # of connection points: 3
#     Node 15, Type 0, BuildingBlock: BETDIP_clean_linker_0, # of connection points: 3
#     Node 16, Type 1, BuildingBlock: NAHDIM_clean_sbu_0, # of connection points: 4
#     Node 17, Type 1, BuildingBlock: NAHDIM_clean_sbu_0, # of connection points: 4
#     Node 18, Type 1, BuildingBlock: NAHDIM_clean_sbu_0, # of connection points: 4
#     Node 19, Type 1, BuildingBlock: NAHDIM_clean_sbu_0, # of connection points: 4
#     Node 20, Type 1, BuildingBlock: NAHDIM_clean_sbu_0, # of connection points: 4
#     Node 21, Type 1, BuildingBlock: NAHDIM_clean_sbu_0, # of connection points: 4
#     Node 22, Type 1, BuildingBlock: NAHDIM_clean_sbu_0, # of connection points: 4
#     Node 23, Type 1, BuildingBlock: NAHDIM_clean_sbu_0, # of connection points: 4
#     Node 24, Type 1, BuildingBlock: NAHDIM_clean_sbu_0, # of connection points: 4
#     Node 25, Type 1, BuildingBlock: NAHDIM_clean_sbu_0, # of connection points: 4
#     Node 26, Type 1, BuildingBlock: NAHDIM_clean_sbu_0, # of connection points: 4
#     Node 27, Type 1, BuildingBlock: NAHDIM_clean_sbu_0, # of connection points: 4
#     Edge 28, Type (0, 1), BuildingBlock: OJICUG_clean_linker_0, # of connection points: 2
#     Edge 29, Type (0, 1), BuildingBlock: OJICUG_clean_linker_0, # of connection points: 2
#     Edge 30, Type (0, 1), BuildingBlock: OJICUG_clean_linker_0, # of connection points: 2
#     Edge 31, Type (0, 1), BuildingBlock: OJICUG_clean_linker_0, # of connection points: 2
#     Edge 32, Type (0, 1), BuildingBlock: OJICUG_clean_linker_0, # of connection points: 2
#     Edge 33, Type (0, 1), BuildingBlock: OJICUG_clean_linker_0, # of connection points: 2
#     Edge 34, Type (0, 1), BuildingBlock: OJICUG_clean_linker_0, # of connection points: 2
#     Edge 35, Type (0, 1), BuildingBlock: OJICUG_clean_linker_0, # of connection points: 2
#     Edge 36, Type (0, 1), BuildingBlock: OJICUG_clean_linker_0, # of connection points: 2
#     Edge 37, Type (0, 1), BuildingBlock: OJICUG_clean_linker_0, # of connection points: 2
#     Edge 38, Type (0, 1), BuildingBlock: OJICUG_clean_linker_0, # of connection points: 2
#     Edge 39, Type (0, 1), BuildingBlock: OJICUG_clean_linker_0, # of connection points: 2
#     Edge 40, Type (0, 1), BuildingBlock: OJICUG_clean_linker_0, # of connection points: 2
#     Edge 41, Type (0, 1), BuildingBlock: OJICUG_clean_linker_0, # of connection points: 2
#     Edge 42, Type (0, 1), BuildingBlock: OJICUG_clean_linker_0, # of connection points: 2
#     Edge 43, Type (0, 1), BuildingBlock: OJICUG_clean_linker_0, # of connection points: 2
#     Edge 44, Type (0, 1), BuildingBlock: OJICUG_clean_linker_0, # of connection points: 2
#     Edge 45, Type (0, 1), BuildingBlock: OJICUG_clean_linker_0, # of connection points: 2
#     Edge 46, Type (0, 1), BuildingBlock: OJICUG_clean_linker_0, # of connection points: 2
#     Edge 47, Type (0, 1), BuildingBlock: OJICUG_clean_linker_0, # of connection points: 2
#     Edge 48, Type (0, 1), BuildingBlock: OJICUG_clean_linker_0, # of connection points: 2
#     Edge 49, Type (0, 1), BuildingBlock: OJICUG_clean_linker_0, # of connection points: 2
#     Edge 50, Type (0, 1), BuildingBlock: OJICUG_clean_linker_0, # of connection points: 2
#     Edge 51, Type (0, 1), BuildingBlock: OJICUG_clean_linker_0, # of connection points: 2
#     Edge 52, Type (0, 1), BuildingBlock: OJICUG_clean_linker_0, # of connection points: 2
#     Edge 53, Type (0, 1), BuildingBlock: OJICUG_clean_linker_0, # of connection points: 2
#     Edge 54, Type (0, 1), BuildingBlock: OJICUG_clean_linker_0, # of connection points: 2
#     Edge 55, Type (0, 1), BuildingBlock: OJICUG_clean_linker_0, # of connection points: 2
#     Edge 56, Type (0, 1), BuildingBlock: OJICUG_clean_linker_0, # of connection points: 2
#     Edge 57, Type (0, 1), BuildingBlock: OJICUG_clean_linker_0, # of connection points: 2
#     Edge 58, Type (0, 1), BuildingBlock: OJICUG_clean_linker_0, # of connection points: 2
#     Edge 59, Type (0, 1), BuildingBlock: OJICUG_clean_linker_0, # of connection points: 2
#     Edge 60, Type (0, 1), BuildingBlock: OJICUG_clean_linker_0, # of connection points: 2
#     Edge 61, Type (0, 1), BuildingBlock: OJICUG_clean_linker_0, # of connection points: 2
#     Edge 62, Type (0, 1), BuildingBlock: OJICUG_clean_linker_0, # of connection points: 2
#     Edge 63, Type (0, 1), BuildingBlock: OJICUG_clean_linker_0, # of connection points: 2
#     Edge 64, Type (0, 1), BuildingBlock: OJICUG_clean_linker_0, # of connection points: 2
#     Edge 65, Type (0, 1), BuildingBlock: OJICUG_clean_linker_0, # of connection points: 2
#     Edge 66, Type (0, 1), BuildingBlock: OJICUG_clean_linker_0, # of connection points: 2
#     Edge 67, Type (0, 1), BuildingBlock: OJICUG_clean_linker_0, # of connection points: 2
#     Edge 68, Type (0, 1), BuildingBlock: OJICUG_clean_linker_0, # of connection points: 2
#     Edge 69, Type (0, 1), BuildingBlock: OJICUG_clean_linker_0, # of connection points: 2
#     Edge 70, Type (0, 1), BuildingBlock: OJICUG_clean_linker_0, # of connection points: 2
#     Edge 71, Type (0, 1), BuildingBlock: OJICUG_clean_linker_0, # of connection points: 2
#     Edge 72, Type (0, 1), BuildingBlock: OJICUG_clean_linker_0, # of connection points: 2
#     Edge 73, Type (0, 1), BuildingBlock: OJICUG_clean_linker_0, # of connection points: 2
#     Edge 74, Type (0, 1), BuildingBlock: OJICUG_clean_linker_0, # of connection points: 2
#     Edge 75, Type (0, 1), BuildingBlock: OJICUG_clean_linker_0, # of connection points: 2
# Relax obj value: 0.073
# Max RMSD: 0.190
# Mean RMSD: 0.115
data_MOF--net-ctn--node1-NAHDIM_clean_sbu_0--node2-BETDIP_clean_linker_0--edge1-OJICUG_clean_linker_0
_symmetry_space_group_name_H-M    P1
_symmetry_Int_Tables_number       1
_symmetry_cell_setting            triclinic
loop_
_symmetry_equiv_pos_as_xyz
'x, y, z'
_cell_length_a     37.560647
_cell_length_b     38.249516
_cell_length_c     41.890092
_cell_angle_alpha  95.3063
_cell_angle_beta   94.143292
_cell_angle_gamma 95.87829
loop_
_atom_site_label
_atom_site_type_symbol
_atom_site_fract_x
_atom_site_fract_y
_atom_site_fract_z
_atom_type_partial_charge
H0 H 0.00774 0.05812 0.06808 0.0
H1 H 0.0976 0.03218 0.01627 0.0
H2 H 0.07998 0.98774 0.10476 0.0
H3 H 0.0722 0.05636 0.97682 0.0
C4 C 0.05437 0.07451 0.98643 0.0
C5 C 0.03114 0.04393 0.06602 0.0
C6 C 0.04131 0.02268 0.09006 0.0
C7 C 0.05078 0.0473 0.03914 0.0
C8 C 0.08131 0.02924 0.03629 0.0
C9 C 0.0916 0.00735 0.05963 0.0
C10 C 0.07135 0.00385 0.08632 0.0
N11 N 0.03985 0.07039 0.01646 0.0
H12 H 0.25411 0.66833 0.18257 0.0
H13 H 0.34704 0.73877 0.21964 0.0
H14 H 0.31392 0.64939 0.26996 0.0
H15 H 0.35117 0.73611 0.16205 0.0
C16 C 0.32401 0.74271 0.15688 0.0
C17 C 0.27635 0.67561 0.20074 0.0
C18 C 0.28119 0.65498 0.22646 0.0
C19 C 0.30031 0.70533 0.19789 0.0
C20 C 0.32874 0.71538 0.22154 0.0
C21 C 0.33371 0.69552 0.24772 0.0
C22 C 0.30997 0.66511 0.25001 0.0
N23 N 0.29512 0.72507 0.17123 0.0
H24 H 0.95871 0.50901 0.98273 0.0
H25 H 0.02551 0.46549 0.05256 0.0
H26 H 0.978 0.56063 0.07922 0.0
H27 H 0.00337 0.41418 0.0228 0.0
C28 C 0.00318 0.42136 0.99831 0.0
C29 C 0.97139 0.51059 0.00697 0.0
C30 C 0.96627 0.53858 0.02976 0.0
C31 C 0.99156 0.48362 0.0153 0.0
C32 C 0.00809 0.48519 0.04662 0.0
C33 C 0.00336 0.51275 0.07007 0.0
C34 C 0.98213 0.53935 0.06142 0.0
N35 N 0.99508 0.45552 0.99147 0.0
H36 H 0.7114 0.77249 0.15669 0.0
H37 H 0.73864 0.86417 0.22494 0.0
H38 H 0.79591 0.85205 0.14035 0.0
H39 H 0.71175 0.83062 0.25882 0.0
C40 C 0.69118 0.81245 0.24471 0.0
C41 C 0.72792 0.7972 0.16421 0.0
C42 C 0.75427 0.80997 0.14474 0.0
C43 C 0.72245 0.81602 0.19343 0.0
C44 C 0.74325 0.84858 0.20306 0.0
C45 C 0.76946 0.86189 0.18369 0.0
C46 C 0.77487 0.84236 0.15474 0.0
N47 N 0.69512 0.80174 0.21185 0.0
H48 H 0.01419 0.95879 0.43691 0.0
H49 H 0.10673 -0.00051 0.50055 0.0
H50 H 0.07751 0.05503 0.42016 0.0
H51 H 0.09653 0.95366 0.5254 0.0
C52 C 0.07101 0.9387 0.51698 0.0
C53 C 0.03654 0.97898 0.44364 0.0
C54 C 0.04265 0.00742 0.42494 0.0
C55 C 0.05911 0.97584 0.47102 0.0
C56 C 0.08868 0.00136 0.4797 0.0
C57 C 0.09571 0.02968 0.4612 0.0
C58 C 0.07262 0.0326 0.43386 0.0
N59 N 0.05068 0.94689 0.48921 0.0
H60 H 0.21935 0.7562 0.83853 0.0
H61 H 0.25879 0.67652 0.7761 0.0
H62 H 0.32075 0.71878 0.86438 0.0
H63 H 0.22558 0.70486 0.73788 0.0
C64 C 0.20184 0.70945 0.75034 0.0
C65 C 0.23996 0.73903 0.83355 0.0
C66 C 0.27052 0.74031 0.85505 0.0
C67 C 0.23611 0.71696 0.80485 0.0
C68 C 0.26261 0.6948 0.7977 0.0
C69 C 0.29318 0.69493 0.81925 0.0
C70 C 0.29713 0.71813 0.84777 0.0
N71 N 0.2046 0.71723 0.78424 0.0
H72 H 0.00659 0.5968 0.47875 0.0
H73 H 0.94782 0.49447 0.45116 0.0
H74 H 0.92684 0.55448 0.53786 0.0
H75 H 0.98856 0.48779 0.41695 0.0
C76 C 1.00094 0.51339 0.41203 0.0
C77 C 0.98622 0.57606 0.48326 0.0
C78 C 0.96769 0.57938 0.51115 0.0
C79 C 0.97968 0.54557 0.4615 0.0
C80 C 0.95392 0.5181 0.46768 0.0
C81 C 0.93488 0.52143 0.49522 0.0
C82 C 0.94165 0.55211 0.51662 0.0
N83 N 0.9994 0.54393 0.43375 0.0
H84 H 0.7765 0.83053 0.74706 0.0
H85 H 0.82217 0.7566 0.80445 0.0
H86 H 0.73294 0.80891 0.83632 0.0
H87 H 0.87287 0.77682 0.78068 0.0
C88 C 0.86259 0.77944 0.75621 0.0
C89 C 0.77632 0.81644 0.76835 0.0
C90 C 0.7512 0.82237 0.79092 0.0
C91 C 0.80252 0.79373 0.77351 0.0
C92 C 0.80301 0.7755 0.80117 0.0
C93 C 0.77779 0.78054 0.82399 0.0
C94 C 0.75218 0.80437 0.81875 0.0
N95 N 0.82764 0.7896 0.75007 0.0
H96 H 0.28041 0.33818 0.25592 0.0
H97 H 0.31916 0.26069 0.31345 0.0
H98 H 0.23418 0.31936 0.34475 0.0
H99 H 0.33549 0.23762 0.26622 0.0
C100 C 0.34469 0.26076 0.25464 0.0
C101 C 0.27881 0.32394 0.27707 0.0
C102 C 0.25401 0.3317 0.29955 0.0
C103 C 0.30201 0.29817 0.28164 0.0
C104 C 0.30098 0.28031 0.30947 0.0
C105 C 0.27658 0.28768 0.33244 0.0
C106 C 0.25311 0.31343 0.32722 0.0
N107 N 0.32695 0.29178 0.25839 0.0
H108 H 0.45252 0.0102 0.47765 0.0
H109 H 0.5217 0.96495 0.5443 0.0
H110 H 0.47451 0.05906 0.57503 0.0
H111 H 0.49279 0.91388 0.51519 0.0
C112 C 0.49558 0.92159 0.49109 0.0
C113 C 0.46598 0.01115 0.50155 0.0
C114 C 0.46128 0.03838 0.52531 0.0
C115 C 0.48656 0.98404 0.50863 0.0
C116 C 0.50405 0.98483 0.53944 0.0
C117 C 0.49991 0.01163 0.56374 0.0
C118 C 0.47822 0.03835 0.5565 0.0
N119 N 0.48952 0.95631 0.48429 0.0
H120 H 0.21502 0.27451 0.66496 0.0
H121 H 0.24323 0.36625 0.73302 0.0
H122 H 0.29928 0.35384 0.64772 0.0
H123 H 0.21387 0.33425 0.76664 0.0
C124 C 0.19425 0.31506 0.75254 0.0
C125 C 0.2317 0.29917 0.67235 0.0
C126 C 0.2578 0.3118 0.65261 0.0
C127 C 0.22652 0.31808 0.70158 0.0
C128 C 0.24748 0.35061 0.71106 0.0
C129 C 0.27337 0.36385 0.69133 0.0
C130 C 0.27847 0.34418 0.66236 0.0
N131 N 0.1992 0.30384 0.72002 0.0
H132 H 0.75417 0.16648 0.69118 0.0
H133 H 0.84419 0.23737 0.7344 0.0
H134 H 0.81413 0.14108 0.77612 0.0
H135 H 0.84968 0.23943 0.67713 0.0
C136 C 0.82221 0.24465 0.67107 0.0
C137 C 0.77593 0.17294 0.70993 0.0
C138 C 0.78131 0.14984 0.73358 0.0
C139 C 0.79885 0.204 0.70974 0.0
C140 C 0.82669 0.21296 0.73413 0.0
C141 C 0.8322 0.19048 0.7582 0.0
C142 C 0.8096 0.15875 0.75781 0.0
N143 N 0.7935 0.22572 0.68459 0.0
H144 H 0.5123 0.5625 0.56805 0.0
H145 H 0.59337 0.52854 0.50915 0.0
H146 H 0.5808 0.48628 0.59961 0.0
H147 H 0.59334 0.58168 0.49254 0.0
C148 C 0.5657 0.58767 0.49244 0.0
C149 C 0.5342 0.54658 0.56442 0.0
C150 C 0.54383 0.52369 0.58725 0.0
C151 C 0.55268 0.54943 0.53682 0.0
C152 C 0.58026 0.52806 0.53127 0.0
C153 C 0.59086 0.50539 0.55385 0.0
C154 C 0.57232 0.50314 0.58174 0.0
N155 N 0.54295 0.57404 0.51514 0.0
H156 H 0.52133 0.45546 0.93239 0.0
H157 H 0.61232 0.49167 -0.00047 0.0
H158 H 0.5962 0.54241 0.91317 0.0
H159 H 0.5848 0.45999 0.03297 0.0
C160 C 0.56484 0.44046 0.01976 0.0
C161 C 0.54554 0.47336 0.93915 0.0
C162 C 0.55662 0.49896 0.91892 0.0
C163 C 0.56485 0.47088 0.96849 0.0
C164 C 0.5962 0.49408 0.97759 0.0
C165 C 0.60766 0.52012 0.95783 0.0
C166 C 0.58763 0.5224 0.92854 0.0
N167 N 0.55202 0.44424 0.98764 0.0
H168 H 0.71545 0.26302 0.33689 0.0
H169 H 0.74724 0.18264 0.26973 0.0
H170 H 0.80648 0.20877 0.36226 0.0
H171 H 0.70358 0.19754 0.23596 0.0
C172 C 0.68834 0.2165 0.24823 0.0
C173 C 0.7333 0.24321 0.33107 0.0
C174 C 0.76137 0.23809 0.35335 0.0
C175 C 0.72809 0.22382 0.30096 0.0
C176 C 0.75136 0.19842 0.29273 0.0
C177 C 0.77968 0.19261 0.31492 0.0
C178 C 0.78463 0.21282 0.34511 0.0
N179 N 0.69871 0.23103 0.28032 0.0
H180 H 0.50262 0.10349 0.95428 0.0
H181 H 0.44466 -0.00037 0.9407 0.0
H182 H 0.43458 0.06789 0.02597 0.0
H183 H 0.48206 0.98911 0.90336 0.0
C184 C 0.49319 0.01391 0.89558 0.0
C185 C 0.48442 0.0833 0.96295 0.0
C186 C 0.4699 0.08974 0.99258 0.0
C187 C 0.47605 0.05092 0.94425 0.0
C188 C 0.45219 0.02461 0.95506 0.0
C189 C 0.43686 0.03096 0.98435 0.0
C190 C 0.4457 0.06352 0.00295 0.0
N191 N 0.49212 0.04634 0.91474 0.0
C192 C 0.21982 0.939 0.04008 0.0
O193 O 0.25125 0.95802 0.04414 0.0
O194 O 0.25782 0.85022 0.98179 0.0
Zn195 Zn 0.2643 0.88426 0.02256 0.0
O196 O 0.3039 0.92329 0.018 0.0
C197 C 0.29733 0.83222 0.05658 0.0
O198 O 0.31197 0.82633 0.02935 0.0
O199 O 0.21823 0.90622 0.03063 0.0
C200 C 0.33723 0.92266 0.02546 0.0
O201 O 0.34844 0.89514 0.03799 0.0
C202 C 0.28366 0.84657 0.9641 0.0
O203 O 0.31421 0.86657 0.97144 0.0
O204 O 0.27643 0.85624 0.0596 0.0
C205 C 0.16344 0.44285 0.27848 0.0
O206 O 0.16148 0.46777 0.30189 0.0
O207 O 0.08819 0.49052 0.28449 0.0
Zn208 Zn 0.12016 0.48801 0.24795 0.0
O209 O 0.15739 0.53039 0.25184 0.0
C210 C 0.08089 0.51462 0.19545 0.0
O211 O 0.0914 0.5447 0.21296 0.0
O212 O 0.14691 0.445 0.25123 0.0
C213 C 0.17796 0.5326 0.22915 0.0
O214 O 0.17369 0.50771 0.20495 0.0
C215 C 0.08473 0.51889 0.30175 0.0
O216 O 0.10206 0.54871 0.29539 0.0
O217 O 0.08989 0.48607 0.20548 0.0
C218 C 0.86666 0.63373 0.98631 0.0
O219 O 0.8675 0.64425 0.95737 0.0
O220 O 0.80495 0.69302 0.95009 0.0
Zn221 Zn 0.79786 0.66508 0.98864 0.0
O222 O 0.75575 0.62797 0.97642 0.0
C223 C 0.78634 0.73011 0.02796 0.0
O224 O 0.79534 0.74633 0.00295 0.0
O225 O 0.84063 0.64032 0.00285 0.0
C226 C 0.73479 0.6179 0.99709 0.0
O227 O 0.74136 0.63125 0.02723 0.0
C228 C 0.77633 0.70129 0.93585 0.0
O229 O 0.74541 0.69171 0.94705 0.0
O230 O 0.78598 0.69676 0.02679 0.0
C231 C 0.87146 0.08285 0.28589 0.0
O232 O 0.87288 0.05751 0.3049 0.0
O233 O 0.9524 0.03639 0.29193 0.0
Zn234 Zn 0.91799 0.04 0.25318 0.0
O235 O 0.88295 0.99598 0.24464 0.0
C236 C 0.96047 0.01727 0.20286 0.0
O237 O 0.95559 0.98781 0.21659 0.0
O238 O 0.88941 0.08182 0.26126 0.0
C239 C 0.86265 0.9918 0.21867 0.0
O240 O 0.86525 0.01623 0.19862 0.0
C241 C 0.94397 0.01684 0.31377 0.0
O242 O 0.91225 0.99835 0.31107 0.0
O243 O 0.94668 0.04427 0.21438 0.0
C244 C 0.3597 0.1347 0.48828 0.0
O245 O 0.36137 0.1489 0.46097 0.0
O246 O 0.29912 0.19577 0.45568 0.0
Zn247 Zn 0.29152 0.16662 0.49316 0.0
O248 O 0.24711 0.13228 0.48058 0.0
C249 C 0.28558 0.23162 0.53456 0.0
O250 O 0.29518 0.24789 0.50976 0.0
O251 O 0.33321 0.13913 0.5049 0.0
C252 C 0.22399 0.12545 0.50047 0.0
O253 O 0.22984 0.13992 0.53032 0.0
C254 C 0.27108 0.20656 0.44272 0.0
O255 O 0.2401 0.19851 0.45443 0.0
O256 O 0.28287 0.19809 0.53261 0.0
C257 C 0.38907 0.58884 0.79124 0.0
O258 O 0.39704 0.5679 0.81325 0.0
O259 O 0.46086 0.53679 0.79303 0.0
Zn260 Zn 0.4265 0.54027 0.75451 0.0
O261 O 0.39026 0.497 0.7475 0.0
C262 C 0.4652 0.51639 0.70122 0.0
O263 O 0.45779 0.48594 0.71278 0.0
O264 O 0.39948 0.58276 0.76322 0.0
C265 C 0.36827 0.49318 0.7226 0.0
O266 O 0.36993 0.51752 0.70241 0.0
C267 C 0.46868 0.50712 0.80111 0.0
O268 O 0.45445 0.47808 0.78365 0.0
O269 O 0.45437 0.54394 0.71506 0.0
C270 C 0.71179 0.42782 0.52638 0.0
O271 O 0.73813 0.4432 0.51193 0.0
O272 O 0.7526 0.33948 0.48616 0.0
Zn273 Zn 0.7594 0.37356 0.52679 0.0
O274 O 0.79961 0.41193 0.52237 0.0
C275 C 0.792 0.3227 0.56314 0.0
O276 O 0.80678 0.31505 0.53628 0.0
O277 O 0.71402 0.39677 0.53435 0.0
C278 C 0.83296 0.41082 0.52927 0.0
O279 O 0.84405 0.38311 0.54155 0.0
C280 C 0.77892 0.33424 0.46944 0.0
O281 O 0.81041 0.352 0.47817 0.0
O282 O 0.77095 0.34668 0.56468 0.0
C283 C 0.65895 0.93178 0.76914 0.0
O284 O 0.65586 0.95612 0.79276 0.0
O285 O 0.58575 0.98133 0.77313 0.0
Zn286 Zn 0.61927 0.97898 0.73801 0.0
O287 O 0.65724 0.02079 0.74497 0.0
C288 C 0.58219 0.00861 0.68602 0.0
O289 O 0.5936 0.03808 0.70412 0.0
O290 O 0.6445 0.93507 0.74129 0.0
C291 C 0.67944 0.02481 0.72378 0.0
O292 O 0.67661 0.00184 0.69813 0.0
C293 C 0.5786 0.01068 0.78645 0.0
O294 O 0.59316 0.04016 0.77676 0.0
O295 O 0.59037 0.9794 0.69521 0.0
C296 C 0.02436 0.19168 0.91489 0.0
O297 O 0.99752 0.20986 0.9216 0.0
O298 O 0.9863 0.22686 0.84101 0.0
Zn299 Zn 0.03153 0.24244 0.87021 0.0
O300 O 0.02362 0.28133 0.90387 0.0
C301 C 0.07479 0.25242 0.81563 0.0
O302 O 0.04923 0.23051 0.79931 0.0
O303 O 0.04398 0.20075 0.89291 0.0
C304 C 0.02227 0.31297 0.89734 0.0
O305 O 0.02545 0.32051 0.86763 0.0
C306 C 0.95606 0.23716 0.8468 0.0
O307 O 0.95392 0.25973 0.87201 0.0
O308 O 0.0727 0.26045 0.84551 0.0
C309 C 0.52299 0.69036 0.40861 0.0
O310 O 0.49155 0.70239 0.41012 0.0
O311 O 0.485 0.72551 0.3371 0.0
Zn312 Zn 0.5304 0.74309 0.3655 0.0
O313 O 0.52126 0.78248 0.39814 0.0
C314 C 0.57186 0.75291 0.30976 0.0
O315 O 0.54552 0.7316 0.29385 0.0
O316 O 0.54498 0.70358 0.39014 0.0
C317 C 0.52535 0.81481 0.39294 0.0
O318 O 0.53555 0.82325 0.36504 0.0
C319 C 0.45928 0.74444 0.33411 0.0
O320 O 0.46261 0.77642 0.34914 0.0
O321 O 0.57083 0.76077 0.3398 0.0
C322 C 0.02403 0.8209 0.58614 0.0
O323 O 0.9951 0.79953 0.57555 0.0
O324 O 0.99376 0.77653 0.66326 0.0
Zn325 Zn 0.03064 0.7696 0.63135 0.0
O326 O 0.01238 0.73031 0.59738 0.0
C327 C 0.07358 0.74286 0.6811 0.0
O328 O 0.04271 0.73951 0.69397 0.0
O329 O 0.04321 0.81381 0.61044 0.0
C330 C 0.00371 0.69983 0.60595 0.0
O331 O 0.00572 0.69545 0.63673 0.0
C332 C 0.96012 0.77316 0.65579 0.0
O333 O 0.94799 0.76644 0.6254 0.0
O334 O 0.07523 0.75566 0.65424 0.0
C335 C 0.5118 0.31986 0.08287 0.0
O336 O 0.48484 0.2976 0.06924 0.0
O337 O 0.47377 0.27656 0.159 0.0
Zn338 Zn 0.51241 0.26903 0.12918 0.0
O339 O 0.49351 0.23023 0.09509 0.0
C340 C 0.5653 0.26494 0.18163 0.0
O341 O 0.54735 0.28854 0.19624 0.0
O342 O 0.52753 0.3134 0.10921 0.0
C343 C 0.51554 0.21666 0.07737 0.0
O344 O 0.54957 0.22945 0.08123 0.0
C345 C 0.46108 0.25018 0.17256 0.0
O346 O 0.47417 0.21984 0.16695 0.0
O347 O 0.55528 0.25299 0.15277 0.0
C348 C 0.24526 0.7706 0.90269 0.0
C349 C 0.27465 0.76579 0.88437 0.0
H350 H 0.22493 0.79991 0.94213 0.0
C351 C 0.30719 0.78719 0.89294 0.0
H352 H 0.21993 0.75424 0.89685 0.0
C353 C 0.31002 0.81343 0.91881 0.0
C354 C 0.28042 0.81872 0.93675 0.0
H355 H 0.33015 0.78438 0.87906 0.0
H356 H 0.33539 0.82975 0.92455 0.0
C357 C 0.24811 0.79676 0.92862 0.0
C358 C 0.02453 0.48455 0.36339 0.0
C359 C 0.02177 0.51541 0.38349 0.0
H360 H 0.04648 0.46138 0.32179 0.0
C361 C 0.03919 0.54765 0.37621 0.0
H362 H 0.01129 0.45939 0.36848 0.0
C363 C 0.05934 0.54888 0.34945 0.0
C364 C 0.06246 0.5179 0.32948 0.0
H365 H 0.03748 0.57195 0.39121 0.0
H366 H 0.07268 0.57407 0.34459 0.0
C367 C 0.04467 0.48575 0.33667 0.0
C368 C 0.81016 0.75423 0.86945 0.0
C369 C 0.77777 0.76048 0.8529 0.0
H370 H 0.83525 0.7307 0.90857 0.0
C371 C 0.74519 0.74699 0.86397 0.0
H372 H 0.83577 0.76456 0.86184 0.0
C373 C 0.74493 0.72791 0.89084 0.0
C374 C 0.77724 0.72161 0.90734 0.0
H375 H 0.71974 0.75068 0.85156 0.0
H376 H 0.71924 0.71789 0.89851 0.0
C377 C 0.8099 0.73496 0.89633 0.0
C378 C 0.02995 0.02371 0.36848 0.0
C379 C 0.0174 0.01078 0.39649 0.0
H380 H 0.0166 0.03592 0.32042 0.0
C381 C 0.98036 0.00062 0.39703 0.0
H382 H 0.05828 0.03136 0.36695 0.0
C383 C 0.95669 0.00249 0.37014 0.0
C384 C 0.96927 0.0152 0.34219 0.0
H385 H 0.96946 0.9914 0.41836 0.0
H386 H 0.92839 0.99429 0.3714 0.0
C387 C 0.00609 0.02613 0.34171 0.0
C388 C 0.26367 0.2542 0.62043 0.0
C389 C 0.26393 0.2911 0.62206 0.0
H390 H 0.27035 0.20652 0.59163 0.0
C391 C 0.27089 0.30818 0.59447 0.0
H392 H 0.25889 0.24027 0.64133 0.0
C393 C 0.27789 0.28889 0.56607 0.0
C394 C 0.2779 0.25205 0.56455 0.0
H395 H 0.27074 0.33651 0.59475 0.0
H396 H 0.28322 0.30289 0.5453 0.0
C397 C 0.27051 0.23489 0.59198 0.0
C398 C 0.51429 0.55271 0.63322 0.0
C399 C 0.52443 0.52186 0.61695 0.0
H400 H 0.48774 0.57524 0.67242 0.0
C401 C 0.51533 0.4893 0.62898 0.0
H402 H 0.52137 0.57832 0.62497 0.0
C403 C 0.49625 0.48758 0.65637 0.0
C404 C 0.48579 0.51838 0.6724 0.0
H405 H 0.52238 0.46501 0.61688 0.0
H406 H 0.48945 0.462 0.66481 0.0
C407 C 0.49516 0.55098 0.66057 0.0
C408 C 0.8401 0.27047 0.62157 0.0
C409 C 0.81476 0.26574 0.64421 0.0
H410 H 0.85237 0.29178 0.57764 0.0
C411 C 0.78222 0.28059 0.64058 0.0
H412 H 0.86537 0.25923 0.62399 0.0
C413 C 0.77509 0.29982 0.61452 0.0
C414 C 0.80002 0.30371 0.59133 0.0
H415 H 0.76237 0.27747 0.65791 0.0
H416 H 0.74977 0.31096 0.61213 0.0
C417 C 0.83259 0.28891 0.59507 0.0
C418 C 0.52219 0.97922 0.60952 0.0
C419 C 0.51888 0.01139 0.59626 0.0
H420 H 0.54489 0.95305 0.64786 0.0
C421 C 0.53555 0.04279 0.61349 0.0
H422 H 0.50911 0.95456 0.5973 0.0
C423 C 0.55577 0.04191 0.64279 0.0
C424 C 0.55997 0.0096 0.65543 0.0
H425 H 0.53389 0.06797 0.60391 0.0
H426 H 0.56871 0.06654 0.6552 0.0
C427 C 0.54265 0.97832 0.6386 0.0
C428 C 0.89176 0.18054 0.78415 0.0
C429 C 0.86235 0.20034 0.783 0.0
H430 H 0.94496 0.17705 0.805 0.0
C431 C 0.86338 0.2316 0.80357 0.0
H432 H 0.89157 0.15655 0.76818 0.0
C433 C 0.89356 0.24312 0.82482 0.0
C434 C 0.92357 0.224 0.82532 0.0
H435 H 0.84099 0.24735 0.80281 0.0
H436 H 0.89376 0.26752 0.84021 0.0
C437 C 0.9223 0.19245 0.80495 0.0
C438 C 0.50388 0.85963 0.47252 0.0
C439 C 0.50302 0.89471 0.46556 0.0
H440 H 0.51144 0.80684 0.45504 0.0
C441 C 0.50966 0.90356 0.43457 0.0
H442 H 0.49892 0.85222 0.49629 0.0
C443 C 0.51712 0.87763 0.41095 0.0
C444 C 0.5178 0.84241 0.41786 0.0
H445 H 0.50931 0.93047 0.42858 0.0
H446 H 0.52217 0.88517 0.38725 0.0
C447 C 0.51104 0.8337 0.44889 0.0
C448 C 0.1605 0.30829 0.80116 0.0
C449 C 0.1636 0.29879 0.7684 0.0
H450 H 0.13016 0.30109 0.84183 0.0
C451 C 0.13737 0.27384 0.75122 0.0
H452 H 0.18034 0.32746 0.81492 0.0
C453 C 0.10859 0.25872 0.76656 0.0
C454 C 0.10545 0.26818 0.7994 0.0
H455 H 0.13895 0.26597 0.72591 0.0
H456 H 0.0888 0.23963 0.75264 0.0
C457 C 0.13177 0.29313 0.81653 0.0
C458 C 0.51928 0.62399 0.47046 0.0
C459 C 0.55382 0.613 0.47043 0.0
H460 H 0.4824 0.65706 0.45083 0.0
C461 C 0.57774 0.62679 0.44936 0.0
H462 H 0.50021 0.61373 0.4864 0.0
C463 C 0.56757 0.65154 0.42894 0.0
C464 C 0.53323 0.66303 0.42923 0.0
H465 H 0.60451 0.61864 0.44887 0.0
H466 H 0.5868 0.66193 0.4132 0.0
C467 C 0.50909 0.6488 0.45005 0.0
C468 C 0.87449 0.77787 0.69789 0.0
C469 C 0.88717 0.77753 0.73025 0.0
H470 H 0.88763 0.77665 0.64891 0.0
C471 C 0.92385 0.77582 0.73795 0.0
H472 H 0.84627 0.77904 0.69121 0.0
C473 C 0.94759 0.77482 0.71378 0.0
C474 C 0.935 0.77508 0.68135 0.0
H475 H 0.93424 0.77554 0.76273 0.0
H476 H 0.97578 0.77352 0.72052 0.0
C477 C 0.89817 0.77647 0.67365 0.0
C478 C 0.07883 0.90149 0.56207 0.0
C479 C 0.05818 0.90896 0.53479 0.0
H480 H 0.08421 0.86796 0.59984 0.0
C481 C 0.02572 0.88786 0.52489 0.0
H482 H 0.10392 0.91746 0.5702 0.0
C483 C 0.01437 0.85949 0.54183 0.0
C484 C 0.03524 0.85175 0.56898 0.0
H485 H 0.00915 0.89303 0.50398 0.0
H486 H 0.98938 0.8435 0.53347 0.0
C487 C 0.06749 0.8732 0.57903 0.0
C488 C 0.1689 0.72171 0.6994 0.0
C489 C 0.16848 0.7153 0.7318 0.0
H490 H 0.13915 0.73597 0.65786 0.0
C491 C 0.13639 0.71646 0.74692 0.0
H492 H 0.19337 0.72094 0.68729 0.0
C493 C 0.10545 0.72478 0.73018 0.0
C494 C 0.10606 0.73245 0.69808 0.0
H495 H 0.13521 0.71131 0.77184 0.0
H496 H 0.08127 0.7259 0.74267 0.0
C497 C 0.13797 0.73048 0.68269 0.0
C498 C 0.98223 0.64476 0.52567 0.0
C499 C 0.9763 0.61056 0.53527 0.0
H500 H 0.99526 0.69994 0.5405 0.0
C501 C 0.97888 0.60612 0.56827 0.0
H502 H 0.98006 0.64903 0.50043 0.0
C503 C 0.98723 0.63519 0.59118 0.0
C504 C 0.9934 0.66936 0.58161 0.0
H505 H 0.97504 0.58005 0.57645 0.0
H506 H 0.98931 0.63077 0.61638 0.0
C507 C 0.9907 0.6739 0.54862 0.0
C508 C 0.80859 0.90359 0.22472 0.0
C509 C 0.79159 0.8961 0.1935 0.0
H510 H 0.8447 0.93965 0.25716 0.0
C511 C 0.79709 0.92087 0.17109 0.0
H512 H 0.80498 0.88484 0.24239 0.0
C513 C 0.81963 0.9522 0.17951 0.0
C514 C 0.83744 0.95934 0.21045 0.0
H515 H 0.78403 0.9159 0.14694 0.0
H516 H 0.82355 0.97054 0.16153 0.0
C517 C 0.83147 0.93485 0.23308 0.0
C518 C 0.81819 0.1613 0.27725 0.0
C519 C 0.8035 0.16481 0.30718 0.0
H520 H 0.85166 0.13295 0.24709 0.0
C521 C 0.81166 0.14144 0.32994 0.0
H522 H 0.81255 0.1791 0.25933 0.0
C523 C 0.83382 0.11507 0.32295 0.0
C524 C 0.84864 0.11153 0.2931 0.0
H525 H 0.80045 0.14322 0.35307 0.0
H526 H 0.83931 0.09742 0.34104 0.0
C527 C 0.84074 0.13505 0.27034 0.0
C528 C 0.42212 0.96986 -0.00042 0.0
C529 C 0.41169 0.00351 0.99572 0.0
H530 H 0.40684 0.918 0.0128 0.0
C531 C 0.37709 0.01085 0.00275 0.0
H532 H 0.4488 0.96378 0.99445 0.0
C533 C 0.35293 0.98462 0.01274 0.0
C534 C 0.36329 0.95089 0.01657 0.0
H535 H 0.36855 0.03667 -0.00011 0.0
H536 H 0.32614 0.99072 0.01745 0.0
C537 C 0.39824 0.94386 0.01028 0.0
C538 C 0.21259 0.36163 0.26363 0.0
C539 C 0.22964 0.35933 0.2943 0.0
H540 H 0.17815 0.38956 0.23454 0.0
C541 C 0.22392 0.38417 0.31976 0.0
H542 H 0.21612 0.34264 0.24359 0.0
C543 C 0.20215 0.41098 0.31459 0.0
C544 C 0.18545 0.41355 0.28386 0.0
H545 H 0.23694 0.3834 0.34357 0.0
H546 H 0.19872 0.4299 0.33471 0.0
C547 C 0.19068 0.3884 0.25848 0.0
C548 C 0.15114 0.06616 0.44797 0.0
C549 C 0.12746 0.05595 0.47073 0.0
H550 H 0.20047 0.09587 0.43953 0.0
C551 C 0.13526 0.06955 0.50309 0.0
H552 H 0.14591 0.05586 0.42291 0.0
C553 C 0.16644 0.09231 0.51264 0.0
C554 C 0.19062 0.10188 0.49007 0.0
H555 H 0.11726 0.06245 0.52109 0.0
H556 H 0.17173 0.10208 0.53782 0.0
C557 C 0.1825 0.08881 0.45756 0.0
C558 C 0.73948 0.10726 0.759 0.0
C559 C 0.75743 0.11637 0.7322 0.0
H560 H 0.70025 0.07125 0.77729 0.0
C561 C 0.75078 0.09436 0.70318 0.0
H562 H 0.74404 0.12394 0.78158 0.0
C563 C 0.72606 0.06421 0.70074 0.0
C564 C 0.7071 0.05566 0.72716 0.0
H565 H 0.7645 0.1007 0.68223 0.0
H566 H 0.72123 0.04808 0.67788 0.0
C567 C 0.7143 0.07728 0.75645 0.0
C568 C 0.4391 0.08077 0.48805 0.0
C569 C 0.43748 0.06574 0.51739 0.0
H570 H 0.41614 0.11437 0.45595 0.0
C571 C 0.41132 0.0752 0.53794 0.0
H572 H 0.45922 0.07432 0.47185 0.0
C573 C 0.3865 0.09811 0.52878 0.0
C574 C 0.38743 0.11226 0.49895 0.0
H575 H 0.40917 0.06386 0.56057 0.0
H576 H 0.36615 0.10418 0.54485 0.0
C577 C 0.41445 0.10381 0.47897 0.0
C578 C 0.62176 0.44975 0.5545 0.0
C579 C 0.62215 0.4853 0.54828 0.0
H580 H 0.64969 0.40343 0.55224 0.0
C581 C 0.65253 0.50168 0.53564 0.0
H582 H 0.5987 0.43632 0.56408 0.0
C583 C 0.68134 0.48289 0.52855 0.0
C584 C 0.68081 0.44722 0.53416 0.0
H585 H 0.65411 0.52924 0.53121 0.0
H586 H 0.70412 0.4965 0.5187 0.0
C587 C 0.65085 0.43087 0.54751 0.0
C588 C 0.73678 0.26646 0.40214 0.0
C589 C 0.76648 0.26014 0.38467 0.0
H590 H 0.71733 0.29479 0.4426 0.0
C591 C 0.80049 0.27714 0.3961 0.0
H592 H 0.71027 0.25339 0.39405 0.0
C593 C 0.80452 0.30093 0.42383 0.0
C594 C 0.77464 0.30806 0.44079 0.0
H595 H 0.82377 0.27301 0.38297 0.0
H596 H 0.83103 0.31413 0.43167 0.0
C597 C 0.74081 0.29014 0.42994 0.0
C598 C 0.51914 0.9809 0.85035 0.0
C599 C 0.51355 0.01328 0.86671 0.0
H600 H 0.54416 0.95458 0.8121 0.0
C601 C 0.52837 0.04484 0.85582 0.0
H602 H 0.50793 0.95624 0.85828 0.0
C603 C 0.54903 0.04397 0.82943 0.0
C604 C 0.55533 0.01156 0.81343 0.0
H605 H 0.52438 0.07029 0.86781 0.0
H606 H 0.56043 0.06874 0.82186 0.0
C607 C 0.5399 0.98 0.82397 0.0
C608 C 0.24232 0.25619 0.37269 0.0
C609 C 0.27538 0.26799 0.36149 0.0
H610 H 0.21507 0.22761 0.4069 0.0
C611 C 0.30722 0.25988 0.37769 0.0
H612 H 0.21727 0.26149 0.36057 0.0
C613 C 0.30596 0.23999 0.40409 0.0
C614 C 0.27285 0.22797 0.41503 0.0
H615 H 0.3332 0.26901 0.37006 0.0
H616 H 0.33094 0.2341 0.41593 0.0
C617 C 0.24107 0.23651 0.39916 0.0
C618 C 0.52787 0.53419 0.87845 0.0
C619 C 0.53542 0.50127 0.88801 0.0
H620 H 0.50083 0.56189 0.84358 0.0
C621 C 0.52176 0.47042 0.86822 0.0
H622 H 0.5377 0.5584 0.89334 0.0
C623 C 0.50052 0.47237 0.83981 0.0
C624 C 0.49243 0.50523 0.83053 0.0
H625 H 0.52754 0.4447 0.8747 0.0
H626 H 0.49021 0.44806 0.82527 0.0
C627 C 0.50658 0.53614 0.85003 0.0
C628 C 0.76821 0.80636 0.08681 0.0
C629 C 0.761 0.7893 0.11436 0.0
H630 H 0.78182 0.80115 0.03798 0.0
C631 C 0.76138 0.75248 0.11295 0.0
H632 H 0.76761 0.83462 0.08694 0.0
C633 C 0.76929 0.73326 0.08482 0.0
C634 C 0.77707 0.75041 0.05746 0.0
H635 H 0.75639 0.73858 0.13384 0.0
H636 H 0.76972 0.70498 0.08469 0.0
C637 C 0.7762 0.78714 0.0587 0.0
C638 C 0.00862 0.05192 0.13372 0.0
C639 C 0.02107 0.02122 0.11932 0.0
H640 H 0.9798 0.07481 0.17116 0.0
C641 C 0.01379 0.98931 0.133 0.0
H642 H 0.01431 0.07711 0.12425 0.0
C643 C 0.99426 0.98809 0.16017 0.0
C644 C 0.9815 0.01873 0.17429 0.0
H645 H 0.02265 0.96512 0.12239 0.0
H646 H 0.98892 0.96301 0.16993 0.0
C647 C 0.98899 0.05066 0.16078 0.0
C648 C 0.34267 0.77235 0.10951 0.0
C649 C 0.31717 0.76627 0.13178 0.0
H650 H 0.35606 0.79774 0.06784 0.0
C651 C 0.2855 0.78281 0.12986 0.0
H652 H 0.36733 0.75992 0.11068 0.0
C653 C 0.27941 0.80506 0.10585 0.0
C654 C 0.30451 0.81042 0.08303 0.0
H655 H 0.26558 0.77875 0.14698 0.0
H656 H 0.25471 0.81742 0.10472 0.0
C657 C 0.33619 0.79389 0.08506 0.0
C658 C 0.02441 0.48207 0.11756 0.0
C659 C 0.02127 0.51363 0.1032 0.0
H660 H 0.04574 0.45754 0.15762 0.0
C661 C 0.03682 0.54564 0.12016 0.0
H662 H 0.01217 0.45696 0.10559 0.0
C663 C 0.05566 0.54597 0.1503 0.0
C664 C 0.05966 0.51429 0.16412 0.0
H665 H 0.03535 0.5704 0.10979 0.0
H666 H 0.06777 0.57106 0.16244 0.0
C667 C 0.04355 0.48237 0.14752 0.0
C668 C 0.37015 0.74222 0.28545 0.0
C669 C 0.36418 0.70686 0.27212 0.0
H670 H 0.40469 0.78171 0.31552 0.0
C671 C 0.38889 0.68337 0.2804 0.0
H672 H 0.35135 0.7608 0.27957 0.0
C673 C 0.41977 0.69542 0.30077 0.0
C674 C 0.42616 0.73106 0.31349 0.0
H675 H 0.38497 0.65603 0.27023 0.0
H676 H 0.43878 0.67692 0.30627 0.0
C677 C 0.4007 0.75416 0.30603 0.0
C678 C 0.00878 0.40186 0.94009 0.0
C679 C 0.008 0.39401 0.97216 0.0
H680 H 0.01396 0.38237 0.89124 0.0
C681 C 0.01189 0.35947 0.97944 0.0
H682 H 0.00593 0.4283 0.93376 0.0
C683 C 0.01635 0.33314 0.95511 0.0
C684 C 0.01722 0.34089 0.92299 0.0
H685 H 0.01139 0.3528 0.00399 0.0
H686 H 0.01926 0.30673 0.96155 0.0
C687 C 0.01341 0.37554 0.91574 0.0
C688 C 0.65848 0.80628 0.29392 0.0
C689 C 0.66046 0.797 0.26096 0.0
H690 H 0.62908 0.79966 0.33522 0.0
C691 C 0.63311 0.77311 0.24403 0.0
H692 H 0.67921 0.82466 0.3075 0.0
C693 C 0.60433 0.75877 0.25986 0.0
C694 C 0.60235 0.76797 0.29292 0.0
H695 H 0.63383 0.76547 0.21856 0.0
H696 H 0.58366 0.74044 0.24615 0.0
C697 C 0.62977 0.79191 0.30977 0.0
C698 C 0.02035 0.12639 0.97752 0.0
C699 C 0.04589 0.10406 0.96789 0.0
H700 H 0.99345 0.17149 0.96821 0.0
C701 C 0.064 0.11041 0.94049 0.0
H702 H 0.00587 0.12213 0.99851 0.0
C703 C 0.05709 0.13889 0.92322 0.0
C704 C 0.03165 0.16136 0.9329 0.0
H705 H 0.08382 0.09353 0.93262 0.0
H706 H 0.07164 0.14325 0.90229 0.0
C707 C 0.0132 0.15468 0.96011 0.0
C708 C 0.38994 0.22683 0.22898 0.0
C709 C 0.37445 0.25857 0.2336 0.0
H710 H 0.42946 0.19925 0.20611 0.0
C711 C 0.38779 0.28776 0.21828 0.0
H712 H 0.38015 0.204 0.24061 0.0
C713 C 0.4161 0.28514 0.19859 0.0
C714 C 0.43153 0.25328 0.1938 0.0
H715 H 0.37646 0.31264 0.22148 0.0
H716 H 0.42577 0.30805 0.18702 0.0
C717 C 0.41817 0.22417 0.20925 0.0
C718 C 0.52257 0.38544 0.02094 0.0
C719 C 0.55053 0.40997 0.03601 0.0
H720 H 0.48827 0.33788 0.02403 0.0
C721 C 0.56516 0.40513 0.06684 0.0
H722 H 0.51063 0.3885 0.99719 0.0
C723 C 0.55241 0.37601 0.08223 0.0
C724 C 0.52461 0.35128 0.06709 0.0
H725 H 0.58671 0.42372 0.07895 0.0
H726 H 0.56446 0.37283 0.10592 0.0
C727 C 0.50969 0.35644 0.03637 0.0
C728 C 0.64625 0.21578 0.19901 0.0
C729 C 0.65667 0.22853 0.23114 0.0
H730 H 0.60911 0.21729 0.158 0.0
C731 C 0.63673 0.25313 0.24686 0.0
H732 H 0.66116 0.19682 0.1864 0.0
C733 C 0.60712 0.26486 0.23074 0.0
C734 C 0.59669 0.25228 0.19856 0.0
H735 H 0.64392 0.26351 0.27167 0.0
H736 H 0.59243 0.28383 0.24359 0.0
C737 C 0.6165 0.22753 0.18283 0.0
C738 C 0.5174 0.13747 0.01674 0.0
C739 C 0.48114 0.12325 0.01317 0.0
H740 H 0.55665 0.17818 0.03965 0.0
C741 C 0.45604 0.14078 0.03001 0.0
H742 H 0.53748 0.12433 0.00444 0.0
C743 C 0.46709 0.17155 0.0504 0.0
C744 C 0.50346 0.1854 0.05435 0.0
H745 H 0.42786 0.13071 0.02742 0.0
H746 H 0.44716 0.18424 0.06332 0.0
C747 C 0.52842 0.16825 0.03705 0.0
C748 C 0.29976 0.42287 0.6779 0.0
C749 C 0.29545 0.39819 0.70054 0.0
H750 H 0.32584 0.47224 0.66719 0.0
C751 C 0.31397 0.40568 0.73115 0.0
H752 H 0.28554 0.41786 0.65421 0.0
C753 C 0.33737 0.43677 0.73856 0.0
C754 C 0.3423 0.46109 0.7156 0.0
H755 H 0.31126 0.38698 0.74896 0.0
H756 H 0.35191 0.44153 0.76211 0.0
C757 C 0.32278 0.45404 0.68539 0.0
C758 C 0.33083 0.66316 0.78124 0.0
C759 C 0.31997 0.66972 0.81248 0.0
H760 H 0.36138 0.63273 0.75002 0.0
C761 C 0.33346 0.65066 0.83691 0.0
H762 H 0.32122 0.67771 0.76197 0.0
C763 C 0.35645 0.62493 0.83008 0.0
C764 C 0.3666 0.61774 0.79869 0.0
H765 H 0.32532 0.6548 0.86113 0.0
H766 H 0.36574 0.61025 0.84937 0.0
C767 C 0.35397 0.63751 0.77443 0.0
C768 C 0.87313 0.49932 0.50763 0.0
C769 C 0.90841 0.49264 0.50247 0.0
H770 H 0.82142 0.47843 0.51999 0.0
C771 C 0.91886 0.45899 0.50619 0.0
H772 H 0.86462 0.52519 0.50495 0.0
C773 C 0.89448 0.43249 0.5155 0.0
C774 C 0.85909 0.4391 0.52058 0.0
H775 H 0.94609 0.45347 0.50261 0.0
H776 H 0.90322 0.40675 0.51835 0.0
C777 C 0.84854 0.47265 0.51628 0.0
C778 C 0.70823 0.85061 0.75501 0.0
C779 C 0.72513 0.84853 0.78578 0.0
H780 H 0.67399 0.87834 0.72555 0.0
C781 C 0.71854 0.87297 0.81123 0.0
H782 H 0.71238 0.83188 0.73496 0.0
C783 C 0.69647 0.89948 0.80586 0.0
C784 C 0.68041 0.9022 0.77492 0.0
H785 H 0.73141 0.87239 0.83514 0.0
H786 H 0.6926 0.9183 0.82594 0.0
C787 C 0.68611 0.87714 0.74963 0.0
C788 C 0.64746 0.55965 3e-05 0.0
C789 C 0.6405 0.54493 0.96788 0.0
H790 H 0.6826 0.5941 0.03444 0.0
C791 C 0.66509 0.55412 0.94548 0.0
H792 H 0.62883 0.55349 0.0178 0.0
C793 C 0.69583 0.57762 0.95499 0.0
C794 C 0.70269 0.5924 0.98712 0.0
H795 H 0.66078 0.54288 0.92064 0.0
H796 H 0.71419 0.58419 0.93711 0.0
C797 C 0.67822 0.58307 0.00954 0.0
C798 C 0.23963 0.61665 0.25634 0.0
C799 C 0.25625 0.62271 0.22808 0.0
H800 H 0.20137 0.58351 0.2788 0.0
C801 C 0.24783 0.5984 0.20068 0.0
H802 H 0.24555 0.63512 0.27773 0.0
C803 C 0.22286 0.56888 0.2013 0.0
C804 C 0.20545 0.56321 0.22924 0.0
H805 H 0.26052 0.6023 0.17867 0.0
H806 H 0.21679 0.55084 0.17964 0.0
C807 C 0.21423 0.58727 0.25686 0.0
C808 C 0.94569 0.57947 0.99029 0.0
C809 C 0.94321 0.56599 0.02028 0.0
H810 H 0.92377 0.61148 0.95614 0.0
C811 C 0.91688 0.57698 0.03998 0.0
H812 H 0.96602 0.57193 0.97473 0.0
C813 C 0.89264 0.59974 0.02932 0.0
C814 C 0.89425 0.61212 0.99877 0.0
H815 H 0.91408 0.5669 0.0631 0.0
H816 H 0.87205 0.6069 0.04474 0.0
C817 C 0.92153 0.60227 0.97967 0.0
C818 C 0.157 0.00948 0.05188 0.0
C819 C 0.12457 0.98955 0.05639 0.0
H820 H 0.2124 0.00915 0.04345 0.0
C821 C 0.12362 0.95272 0.05615 0.0
H822 H 0.15841 0.03794 0.05208 0.0
C823 C 0.15448 0.93604 0.05065 0.0
C824 C 0.18691 0.95604 0.04595 0.0
H825 H 0.09882 0.93682 0.0594 0.0
H826 H 0.15299 0.90756 0.05017 0.0
C827 C 0.18787 0.99296 0.04698 0.0
loop_
_geom_bond_atom_site_label_1
_geom_bond_atom_site_label_2
_geom_bond_distance
_geom_bond_site_symmetry_2
_ccdc_geom_bond_type
H0 C5 0.930 . S
H1 C8 0.930 . S
H2 C10 0.930 . S
H3 C4 1.016 . S
C4 H3 1.016 . S
C4 N11 1.286 1_556 S
C5 H0 0.930 . S
C5 C6 1.397 . S
C5 C7 1.361 . S
C6 C5 1.397 . S
C6 C10 1.390 . S
C7 C5 1.361 . S
C7 C8 1.393 . S
C7 N11 1.413 . S
C8 H1 0.930 . S
C8 C7 1.393 . S
C8 C9 1.399 . S
C9 C8 1.399 . S
C9 C10 1.381 . S
C10 H2 0.930 . S
C10 C6 1.390 . S
C10 C9 1.381 . S
N11 C4 1.286 1_554 S
N11 C7 1.413 . S
H12 C17 0.930 . S
H13 C20 0.930 . S
H14 C22 0.930 . S
H15 C16 1.016 . S
C16 H15 1.016 . S
C16 N23 1.286 . S
C17 H12 0.930 . S
C17 C18 1.397 . S
C17 C19 1.361 . S
C18 C17 1.397 . S
C18 C22 1.390 . S
C19 C17 1.361 . S
C19 C20 1.393 . S
C19 N23 1.413 . S
C20 H13 0.930 . S
C20 C19 1.393 . S
C20 C21 1.399 . S
C21 C20 1.399 . S
C21 C22 1.381 . S
C22 H14 0.930 . S
C22 C18 1.390 . S
C22 C21 1.381 . S
N23 C16 1.286 . S
N23 C19 1.413 . S
H24 C29 0.930 . S
H25 C32 0.930 1_455 S
H26 C34 0.930 . S
H27 C28 1.016 1_454 S
C28 H27 1.016 1_656 S
C28 N35 1.286 . S
C29 H24 0.930 . S
C29 C30 1.397 . S
C29 C31 1.361 . S
C30 C29 1.397 . S
C30 C34 1.390 . S
C31 C29 1.361 . S
C31 C32 1.393 . S
C31 N35 1.413 1_554 S
C32 H25 0.930 1_655 S
C32 C31 1.393 . S
C32 C33 1.399 . S
C33 C32 1.399 . S
C33 C34 1.381 . S
C34 H26 0.930 . S
C34 C30 1.390 . S
C34 C33 1.381 . S
N35 C28 1.286 . S
N35 C31 1.413 1_556 S
H36 C41 0.930 . S
H37 C44 0.930 . S
H38 C46 0.930 . S
H39 C40 1.016 . S
C40 H39 1.016 . S
C40 N47 1.286 . S
C41 H36 0.930 . S
C41 C42 1.397 . S
C41 C43 1.361 . S
C42 C41 1.397 . S
C42 C46 1.390 . S
C43 C41 1.361 . S
C43 C44 1.393 . S
C43 N47 1.413 . S
C44 H37 0.930 . S
C44 C43 1.393 . S
C44 C45 1.399 . S
C45 C44 1.399 . S
C45 C46 1.381 . S
C46 H38 0.930 . S
C46 C42 1.390 . S
C46 C45 1.381 . S
N47 C40 1.286 . S
N47 C43 1.413 . S
H48 C53 0.930 . S
H49 C56 0.930 . S
H50 C58 0.930 . S
H51 C52 1.016 . S
C52 H51 1.016 . S
C52 N59 1.286 . S
C53 H48 0.930 . S
C53 C54 1.397 1_565 S
C53 C55 1.361 . S
C54 C53 1.397 1_545 S
C54 C58 1.390 . S
C55 C53 1.361 . S
C55 C56 1.393 . S
C55 N59 1.413 . S
C56 H49 0.930 . S
C56 C55 1.393 . S
C56 C57 1.399 1_565 S
C57 C56 1.399 1_545 S
C57 C58 1.381 . S
C58 H50 0.930 . S
C58 C54 1.390 . S
C58 C57 1.381 . S
N59 C52 1.286 . S
N59 C55 1.413 . S
H60 C65 0.930 . S
H61 C68 0.930 . S
H62 C70 0.930 . S
H63 C64 1.016 . S
C64 H63 1.016 . S
C64 N71 1.286 . S
C65 H60 0.930 . S
C65 C66 1.397 . S
C65 C67 1.361 . S
C66 C65 1.397 . S
C66 C70 1.390 . S
C67 C65 1.361 . S
C67 C68 1.393 . S
C67 N71 1.413 . S
C68 H61 0.930 . S
C68 C67 1.393 . S
C68 C69 1.399 . S
C69 C68 1.399 . S
C69 C70 1.381 . S
C70 H62 0.930 . S
C70 C66 1.390 . S
C70 C69 1.381 . S
N71 C64 1.286 . S
N71 C67 1.413 . S
H72 C77 0.930 1_455 S
H73 C80 0.930 . S
H74 C82 0.930 . S
H75 C76 1.016 . S
C76 H75 1.016 . S
C76 N83 1.286 . S
C77 H72 0.930 1_655 S
C77 C78 1.397 . S
C77 C79 1.361 . S
C78 C77 1.397 . S
C78 C82 1.390 . S
C79 C77 1.361 . S
C79 C80 1.393 . S
C79 N83 1.413 1_655 S
C80 H73 0.930 . S
C80 C79 1.393 . S
C80 C81 1.399 . S
C81 C80 1.399 . S
C81 C82 1.381 . S
C82 H74 0.930 . S
C82 C78 1.390 . S
C82 C81 1.381 . S
N83 C76 1.286 . S
N83 C79 1.413 1_455 S
H84 C89 0.930 . S
H85 C92 0.930 . S
H86 C94 0.930 . S
H87 C88 1.016 . S
C88 H87 1.016 . S
C88 N95 1.286 . S
C89 H84 0.930 . S
C89 C90 1.397 . S
C89 C91 1.361 . S
C90 C89 1.397 . S
C90 C94 1.390 . S
C91 C89 1.361 . S
C91 C92 1.393 . S
C91 N95 1.413 . S
C92 H85 0.930 . S
C92 C91 1.393 . S
C92 C93 1.399 . S
C93 C92 1.399 . S
C93 C94 1.381 . S
C94 H86 0.930 . S
C94 C90 1.390 . S
C94 C93 1.381 . S
N95 C88 1.286 . S
N95 C91 1.413 . S
H96 C101 0.930 . S
H97 C104 0.930 . S
H98 C106 0.930 . S
H99 C100 1.016 . S
C100 H99 1.016 . S
C100 N107 1.286 . S
C101 H96 0.930 . S
C101 C102 1.397 . S
C101 C103 1.361 . S
C102 C101 1.397 . S
C102 C106 1.390 . S
C103 C101 1.361 . S
C103 C104 1.393 . S
C103 N107 1.413 . S
C104 H97 0.930 . S
C104 C103 1.393 . S
C104 C105 1.399 . S
C105 C104 1.399 . S
C105 C106 1.381 . S
C106 H98 0.930 . S
C106 C102 1.390 . S
C106 C105 1.381 . S
N107 C100 1.286 . S
N107 C103 1.413 . S
H108 C113 0.930 . S
H109 C116 0.930 . S
H110 C118 0.930 . S
H111 C112 1.016 . S
C112 H111 1.016 . S
C112 N119 1.286 . S
C113 H108 0.930 . S
C113 C114 1.397 1_565 S
C113 C115 1.361 . S
C114 C113 1.397 1_545 S
C114 C118 1.390 . S
C115 C113 1.361 . S
C115 C116 1.393 . S
C115 N119 1.413 . S
C116 H109 0.930 . S
C116 C115 1.393 . S
C116 C117 1.399 . S
C117 C116 1.399 . S
C117 C118 1.381 1_565 S
C118 H110 0.930 . S
C118 C114 1.390 . S
C118 C117 1.381 1_545 S
N119 C112 1.286 . S
N119 C115 1.413 . S
H120 C125 0.930 . S
H121 C128 0.930 . S
H122 C130 0.930 . S
H123 C124 1.016 . S
C124 H123 1.016 . S
C124 N131 1.286 . S
C125 H120 0.930 . S
C125 C126 1.397 . S
C125 C127 1.361 . S
C126 C125 1.397 . S
C126 C130 1.390 . S
C127 C125 1.361 . S
C127 C128 1.393 . S
C127 N131 1.413 . S
C128 H121 0.930 . S
C128 C127 1.393 . S
C128 C129 1.399 . S
C129 C128 1.399 . S
C129 C130 1.381 . S
C130 H122 0.930 . S
C130 C126 1.390 . S
C130 C129 1.381 . S
N131 C124 1.286 . S
N131 C127 1.413 . S
H132 C137 0.930 . S
H133 C140 0.930 . S
H134 C142 0.930 . S
H135 C136 1.016 . S
C136 H135 1.016 . S
C136 N143 1.286 . S
C137 H132 0.930 . S
C137 C138 1.397 . S
C137 C139 1.361 . S
C138 C137 1.397 . S
C138 C142 1.390 . S
C139 C137 1.361 . S
C139 C140 1.393 . S
C139 N143 1.413 . S
C140 H133 0.930 . S
C140 C139 1.393 . S
C140 C141 1.399 . S
C141 C140 1.399 . S
C141 C142 1.381 . S
C142 H134 0.930 . S
C142 C138 1.390 . S
C142 C141 1.381 . S
N143 C136 1.286 . S
N143 C139 1.413 . S
H144 C149 0.930 . S
H145 C152 0.930 . S
H146 C154 0.930 . S
H147 C148 1.016 . S
C148 H147 1.016 . S
C148 N155 1.286 . S
C149 H144 0.930 . S
C149 C150 1.397 . S
C149 C151 1.361 . S
C150 C149 1.397 . S
C150 C154 1.390 . S
C151 C149 1.361 . S
C151 C152 1.393 . S
C151 N155 1.413 . S
C152 H145 0.930 . S
C152 C151 1.393 . S
C152 C153 1.399 . S
C153 C152 1.399 . S
C153 C154 1.381 . S
C154 H146 0.930 . S
C154 C150 1.390 . S
C154 C153 1.381 . S
N155 C148 1.286 . S
N155 C151 1.413 . S
H156 C161 0.930 . S
H157 C164 0.930 1_554 S
H158 C166 0.930 . S
H159 C160 1.016 . S
C160 H159 1.016 . S
C160 N167 1.286 1_554 S
C161 H156 0.930 . S
C161 C162 1.397 . S
C161 C163 1.361 . S
C162 C161 1.397 . S
C162 C166 1.390 . S
C163 C161 1.361 . S
C163 C164 1.393 . S
C163 N167 1.413 . S
C164 H157 0.930 1_556 S
C164 C163 1.393 . S
C164 C165 1.399 . S
C165 C164 1.399 . S
C165 C166 1.381 . S
C166 H158 0.930 . S
C166 C162 1.390 . S
C166 C165 1.381 . S
N167 C160 1.286 1_556 S
N167 C163 1.413 . S
H168 C173 0.930 . S
H169 C176 0.930 . S
H170 C178 0.930 . S
H171 C172 1.016 . S
C172 H171 1.016 . S
C172 N179 1.286 . S
C173 H168 0.930 . S
C173 C174 1.397 . S
C173 C175 1.361 . S
C174 C173 1.397 . S
C174 C178 1.390 . S
C175 C173 1.361 . S
C175 C176 1.393 . S
C175 N179 1.413 . S
C176 H169 0.930 . S
C176 C175 1.393 . S
C176 C177 1.399 . S
C177 C176 1.399 . S
C177 C178 1.381 . S
C178 H170 0.930 . S
C178 C174 1.390 . S
C178 C177 1.381 . S
N179 C172 1.286 . S
N179 C175 1.413 . S
H180 C185 0.930 . S
H181 C188 0.947 . S
H182 C190 0.930 . S
H183 C184 1.016 1_565 S
C184 H183 1.016 1_545 S
C184 N191 1.286 . S
C185 H180 0.930 . S
C185 C186 1.405 . S
C185 C187 1.361 . S
C186 C185 1.405 . S
C186 C190 1.388 1_556 S
C187 C185 1.361 . S
C187 C188 1.393 . S
C187 N191 1.413 . S
C188 H181 0.947 . S
C188 C187 1.393 . S
C188 C189 1.399 . S
C189 C188 1.399 . S
C189 C190 1.381 1_556 S
C190 H182 0.930 . S
C190 C186 1.388 1_554 S
C190 C189 1.381 1_554 S
N191 C184 1.286 . S
N191 C187 1.413 . S
C192 O193 1.160 1_554 S
C192 O199 1.185 . S
O193 C192 1.160 1_556 S
O194 Zn195 1.899 1_556 S
O194 C202 1.284 . S
Zn195 O194 1.899 1_554 S
Zn195 O196 2.032 . S
Zn195 O199 2.086 . S
Zn195 O204 1.977 . S
O196 Zn195 2.032 . S
O196 C200 1.278 . S
C197 O198 1.203 . S
C197 O204 1.267 . S
O198 C197 1.203 . S
O199 C192 1.185 . S
O199 Zn195 2.086 . S
C200 O196 1.278 . S
C200 O201 1.211 . S
O201 C200 1.211 . S
C202 O194 1.284 . S
C202 O203 1.273 . S
O203 C202 1.273 . S
O204 Zn195 1.977 . S
O204 C197 1.267 . S
C205 O206 1.160 . S
C205 O212 1.185 . S
O206 C205 1.160 . S
O207 Zn208 1.899 . S
O207 C215 1.284 . S
Zn208 O207 1.899 . S
Zn208 O209 2.032 . S
Zn208 O212 2.086 . S
Zn208 O217 1.977 . S
O209 Zn208 2.032 . S
O209 C213 1.278 . S
C210 O211 1.203 . S
C210 O217 1.267 . S
O211 C210 1.203 . S
O212 C205 1.185 . S
O212 Zn208 2.086 . S
C213 O209 1.278 . S
C213 O214 1.211 . S
O214 C213 1.211 . S
C215 O207 1.284 . S
C215 O216 1.273 . S
O216 C215 1.273 . S
O217 Zn208 1.977 . S
O217 C210 1.267 . S
C218 O219 1.160 1_554 S
C218 O225 1.185 . S
O219 C218 1.160 1_556 S
O220 Zn221 1.899 1_556 S
O220 C228 1.284 . S
Zn221 O220 1.899 1_554 S
Zn221 O222 2.032 1_554 S
Zn221 O225 2.086 . S
Zn221 O230 1.977 . S
O222 Zn221 2.032 1_556 S
O222 C226 1.278 . S
C223 O224 1.203 . S
C223 O230 1.267 . S
O224 C223 1.203 . S
O225 C218 1.185 . S
O225 Zn221 2.086 . S
C226 O222 1.278 . S
C226 O227 1.211 1_556 S
O227 C226 1.211 1_554 S
C228 O220 1.284 . S
C228 O229 1.273 . S
O229 C228 1.273 . S
O230 Zn221 1.977 . S
O230 C223 1.267 . S
C231 O232 1.160 . S
C231 O238 1.185 . S
O232 C231 1.160 . S
O233 Zn234 1.899 . S
O233 C241 1.284 . S
Zn234 O233 1.899 . S
Zn234 O235 2.032 . S
Zn234 O238 2.086 . S
Zn234 O243 1.977 . S
O235 Zn234 2.032 . S
O235 C239 1.278 1_545 S
C236 O237 1.203 . S
C236 O243 1.267 . S
O237 C236 1.203 . S
O238 C231 1.185 . S
O238 Zn234 2.086 . S
C239 O235 1.278 1_565 S
C239 O240 1.211 . S
O240 C239 1.211 . S
C241 O233 1.284 . S
C241 O242 1.273 1_545 S
O242 C241 1.273 1_565 S
O243 Zn234 1.977 . S
O243 C236 1.267 . S
C244 O245 1.160 . S
C244 O251 1.185 . S
O245 C244 1.160 . S
O246 Zn247 1.899 . S
O246 C254 1.284 . S
Zn247 O246 1.899 . S
Zn247 O248 2.032 . S
Zn247 O251 2.086 . S
Zn247 O256 1.977 . S
O248 Zn247 2.032 . S
O248 C252 1.278 . S
C249 O250 1.203 . S
C249 O256 1.267 . S
O250 C249 1.203 . S
O251 C244 1.185 . S
O251 Zn247 2.086 . S
C252 O248 1.278 . S
C252 O253 1.211 . S
O253 C252 1.211 . S
C254 O246 1.284 . S
C254 O255 1.273 . S
O255 C254 1.273 . S
O256 Zn247 1.977 . S
O256 C249 1.267 . S
C257 O258 1.160 . S
C257 O264 1.185 . S
O258 C257 1.160 . S
O259 Zn260 1.899 . S
O259 C267 1.284 . S
Zn260 O259 1.899 . S
Zn260 O261 2.032 . S
Zn260 O264 2.086 . S
Zn260 O269 1.977 . S
O261 Zn260 2.032 . S
O261 C265 1.278 . S
C262 O263 1.203 . S
C262 O269 1.267 . S
O263 C262 1.203 . S
O264 C257 1.185 . S
O264 Zn260 2.086 . S
C265 O261 1.278 . S
C265 O266 1.211 . S
O266 C265 1.211 . S
C267 O259 1.284 . S
C267 O268 1.273 . S
O268 C267 1.273 . S
O269 Zn260 1.977 . S
O269 C262 1.267 . S
C270 O271 1.160 . S
C270 O277 1.185 . S
O271 C270 1.160 . S
O272 Zn273 1.899 . S
O272 C280 1.284 . S
Zn273 O272 1.899 . S
Zn273 O274 2.032 . S
Zn273 O277 2.086 . S
Zn273 O282 1.977 . S
O274 Zn273 2.032 . S
O274 C278 1.278 . S
C275 O276 1.203 . S
C275 O282 1.267 . S
O276 C275 1.203 . S
O277 C270 1.185 . S
O277 Zn273 2.086 . S
C278 O274 1.278 . S
C278 O279 1.211 . S
O279 C278 1.211 . S
C280 O272 1.284 . S
C280 O281 1.273 . S
O281 C280 1.273 . S
O282 Zn273 1.977 . S
O282 C275 1.267 . S
C283 O284 1.160 . S
C283 O290 1.185 . S
O284 C283 1.160 . S
O285 Zn286 1.899 . S
O285 C293 1.284 1_565 S
Zn286 O285 1.899 . S
Zn286 O287 2.032 1_565 S
Zn286 O290 2.086 . S
Zn286 O295 1.977 . S
O287 Zn286 2.032 1_545 S
O287 C291 1.278 . S
C288 O289 1.203 1_565 S
C288 O295 1.267 . S
O289 C288 1.203 1_545 S
O290 C283 1.185 . S
O290 Zn286 2.086 . S
C291 O287 1.278 . S
C291 O292 1.211 . S
O292 C291 1.211 . S
C293 O285 1.284 1_545 S
C293 O294 1.273 . S
O294 C293 1.273 . S
O295 Zn286 1.977 . S
O295 C288 1.267 . S
C296 O297 1.160 1_455 S
C296 O303 1.185 . S
O297 C296 1.160 1_655 S
O298 Zn299 1.899 1_655 S
O298 C306 1.284 . S
Zn299 O298 1.899 1_455 S
Zn299 O300 2.032 . S
Zn299 O303 2.086 . S
Zn299 O308 1.977 . S
O300 Zn299 2.032 . S
O300 C304 1.278 . S
C301 O302 1.203 . S
C301 O308 1.267 . S
O302 C301 1.203 . S
O303 C296 1.185 . S
O303 Zn299 2.086 . S
C304 O300 1.278 . S
C304 O305 1.211 . S
O305 C304 1.211 . S
C306 O298 1.284 . S
C306 O307 1.273 . S
O307 C306 1.273 . S
O308 Zn299 1.977 . S
O308 C301 1.267 . S
C309 O310 1.160 . S
C309 O316 1.185 . S
O310 C309 1.160 . S
O311 Zn312 1.899 . S
O311 C319 1.284 . S
Zn312 O311 1.899 . S
Zn312 O313 2.032 . S
Zn312 O316 2.086 . S
Zn312 O321 1.977 . S
O313 Zn312 2.032 . S
O313 C317 1.278 . S
C314 O315 1.203 . S
C314 O321 1.267 . S
O315 C314 1.203 . S
O316 C309 1.185 . S
O316 Zn312 2.086 . S
C317 O313 1.278 . S
C317 O318 1.211 . S
O318 C317 1.211 . S
C319 O311 1.284 . S
C319 O320 1.273 . S
O320 C319 1.273 . S
O321 Zn312 1.977 . S
O321 C314 1.267 . S
C322 O323 1.160 1_455 S
C322 O329 1.185 . S
O323 C322 1.160 1_655 S
O324 Zn325 1.899 1_655 S
O324 C332 1.284 . S
Zn325 O324 1.899 1_455 S
Zn325 O326 2.032 . S
Zn325 O329 2.086 . S
Zn325 O334 1.977 . S
O326 Zn325 2.032 . S
O326 C330 1.278 . S
C327 O328 1.203 . S
C327 O334 1.267 . S
O328 C327 1.203 . S
O329 C322 1.185 . S
O329 Zn325 2.086 . S
C330 O326 1.278 . S
C330 O331 1.211 . S
O331 C330 1.211 . S
C332 O324 1.284 . S
C332 O333 1.273 . S
O333 C332 1.273 . S
O334 Zn325 1.977 . S
O334 C327 1.267 . S
C335 O336 1.160 . S
C335 O342 1.185 . S
O336 C335 1.160 . S
O337 Zn338 1.899 . S
O337 C345 1.284 . S
Zn338 O337 1.899 . S
Zn338 O339 2.032 . S
Zn338 O342 2.086 . S
Zn338 O347 1.977 . S
O339 Zn338 2.032 . S
O339 C343 1.278 . S
C340 O341 1.203 . S
C340 O347 1.267 . S
O341 C340 1.203 . S
O342 C335 1.185 . S
O342 Zn338 2.086 . S
C343 O339 1.278 . S
C343 O344 1.211 . S
O344 C343 1.211 . S
C345 O337 1.284 . S
C345 O346 1.273 . S
O346 C345 1.273 . S
O347 Zn338 1.977 . S
O347 C340 1.267 . S
C348 C349 1.387 . S
C348 H352 0.950 . S
C348 C357 1.390 . S
C349 C348 1.387 . S
C349 C351 1.387 . S
H350 C357 0.950 . S
C351 C349 1.387 . S
C351 C353 1.390 . S
C351 H355 0.950 . S
H352 C348 0.950 . S
C353 C351 1.390 . S
C353 C354 1.387 . S
C353 H356 0.950 . S
C354 C353 1.387 . S
C354 C357 1.387 . S
H355 C351 0.950 . S
H356 C353 0.950 . S
C357 C348 1.390 . S
C357 H350 0.950 . S
C357 C354 1.387 . S
C358 C359 1.387 . S
C358 H362 0.950 . S
C358 C367 1.390 . S
C359 C358 1.387 . S
C359 C361 1.387 . S
H360 C367 0.950 . S
C361 C359 1.387 . S
C361 C363 1.390 . S
C361 H365 0.950 . S
H362 C358 0.950 . S
C363 C361 1.390 . S
C363 C364 1.387 . S
C363 H366 0.950 . S
C364 C363 1.387 . S
C364 C367 1.387 . S
H365 C361 0.950 . S
H366 C363 0.950 . S
C367 C358 1.390 . S
C367 H360 0.950 . S
C367 C364 1.387 . S
C368 C369 1.387 . S
C368 H372 0.950 . S
C368 C377 1.390 . S
C369 C368 1.387 . S
C369 C371 1.387 . S
H370 C377 0.950 . S
C371 C369 1.387 . S
C371 C373 1.390 . S
C371 H375 0.950 . S
H372 C368 0.950 . S
C373 C371 1.390 . S
C373 C374 1.387 . S
C373 H376 0.950 . S
C374 C373 1.387 . S
C374 C377 1.387 . S
H375 C371 0.950 . S
H376 C373 0.950 . S
C377 C368 1.390 . S
C377 H370 0.950 . S
C377 C374 1.387 . S
C378 C379 1.387 . S
C378 H382 0.950 . S
C378 C387 1.390 . S
C379 C378 1.387 . S
C379 C381 1.387 1_445 S
H380 C387 0.950 . S
C381 C379 1.387 1_665 S
C381 C383 1.390 . S
C381 H385 0.950 . S
H382 C378 0.950 . S
C383 C381 1.390 . S
C383 C384 1.387 1_565 S
C383 H386 0.950 . S
C384 C383 1.387 1_545 S
C384 C387 1.387 1_655 S
H385 C381 0.950 . S
H386 C383 0.950 . S
C387 C378 1.390 . S
C387 H380 0.950 . S
C387 C384 1.387 1_455 S
C388 C389 1.387 . S
C388 H392 0.950 . S
C388 C397 1.390 . S
C389 C388 1.387 . S
C389 C391 1.387 . S
H390 C397 0.950 . S
C391 C389 1.387 . S
C391 C393 1.390 . S
C391 H395 0.950 . S
H392 C388 0.950 . S
C393 C391 1.390 . S
C393 C394 1.387 . S
C393 H396 0.950 . S
C394 C393 1.387 . S
C394 C397 1.387 . S
H395 C391 0.950 . S
H396 C393 0.950 . S
C397 C388 1.390 . S
C397 H390 0.950 . S
C397 C394 1.387 . S
C398 C399 1.387 . S
C398 H402 0.950 . S
C398 C407 1.390 . S
C399 C398 1.387 . S
C399 C401 1.387 . S
H400 C407 0.950 . S
C401 C399 1.387 . S
C401 C403 1.390 . S
C401 H405 0.950 . S
H402 C398 0.950 . S
C403 C401 1.390 . S
C403 C404 1.387 . S
C403 H406 0.950 . S
C404 C403 1.387 . S
C404 C407 1.387 . S
H405 C401 0.950 . S
H406 C403 0.950 . S
C407 C398 1.390 . S
C407 H400 0.950 . S
C407 C404 1.387 . S
C408 C409 1.387 . S
C408 H412 0.950 . S
C408 C417 1.390 . S
C409 C408 1.387 . S
C409 C411 1.387 . S
H410 C417 0.950 . S
C411 C409 1.387 . S
C411 C413 1.390 . S
C411 H415 0.950 . S
H412 C408 0.950 . S
C413 C411 1.390 . S
C413 C414 1.387 . S
C413 H416 0.950 . S
C414 C413 1.387 . S
C414 C417 1.387 . S
H415 C411 0.950 . S
H416 C413 0.950 . S
C417 C408 1.390 . S
C417 H410 0.950 . S
C417 C414 1.387 . S
C418 C419 1.387 . S
C418 H422 0.950 . S
C418 C427 1.390 . S
C419 C418 1.387 . S
C419 C421 1.387 1_565 S
H420 C427 0.950 . S
C421 C419 1.387 1_545 S
C421 C423 1.390 . S
C421 H425 0.950 . S
H422 C418 0.950 . S
C423 C421 1.390 . S
C423 C424 1.387 1_545 S
C423 H426 0.950 . S
C424 C423 1.387 1_565 S
C424 C427 1.387 . S
H425 C421 0.950 . S
H426 C423 0.950 . S
C427 C418 1.390 . S
C427 H420 0.950 . S
C427 C424 1.387 . S
C428 C429 1.387 . S
C428 H432 0.950 . S
C428 C437 1.390 . S
C429 C428 1.387 . S
C429 C431 1.387 . S
H430 C437 0.950 . S
C431 C429 1.387 . S
C431 C433 1.390 . S
C431 H435 0.950 . S
H432 C428 0.950 . S
C433 C431 1.390 . S
C433 C434 1.387 . S
C433 H436 0.950 . S
C434 C433 1.387 . S
C434 C437 1.387 . S
H435 C431 0.950 . S
H436 C433 0.950 . S
C437 C428 1.390 . S
C437 H430 0.950 . S
C437 C434 1.387 . S
C438 C439 1.387 . S
C438 H442 0.950 . S
C438 C447 1.390 . S
C439 C438 1.387 . S
C439 C441 1.387 . S
H440 C447 0.950 . S
C441 C439 1.387 . S
C441 C443 1.390 . S
C441 H445 0.950 . S
H442 C438 0.950 . S
C443 C441 1.390 . S
C443 C444 1.387 . S
C443 H446 0.950 . S
C444 C443 1.387 . S
C444 C447 1.387 . S
H445 C441 0.950 . S
H446 C443 0.950 . S
C447 C438 1.390 . S
C447 H440 0.950 . S
C447 C444 1.387 . S
C448 C449 1.387 . S
C448 H452 0.950 . S
C448 C457 1.390 . S
C449 C448 1.387 . S
C449 C451 1.387 . S
H450 C457 0.950 . S
C451 C449 1.387 . S
C451 C453 1.390 . S
C451 H455 0.950 . S
H452 C448 0.950 . S
C453 C451 1.390 . S
C453 C454 1.387 . S
C453 H456 0.950 . S
C454 C453 1.387 . S
C454 C457 1.387 . S
H455 C451 0.950 . S
H456 C453 0.950 . S
C457 C448 1.390 . S
C457 H450 0.950 . S
C457 C454 1.387 . S
C458 C459 1.387 . S
C458 H462 0.950 . S
C458 C467 1.390 . S
C459 C458 1.387 . S
C459 C461 1.387 . S
H460 C467 0.950 . S
C461 C459 1.387 . S
C461 C463 1.390 . S
C461 H465 0.950 . S
H462 C458 0.950 . S
C463 C461 1.390 . S
C463 C464 1.387 . S
C463 H466 0.950 . S
C464 C463 1.387 . S
C464 C467 1.387 . S
H465 C461 0.950 . S
H466 C463 0.950 . S
C467 C458 1.390 . S
C467 H460 0.950 . S
C467 C464 1.387 . S
C468 C469 1.387 . S
C468 H472 0.950 . S
C468 C477 1.390 . S
C469 C468 1.387 . S
C469 C471 1.387 . S
H470 C477 0.950 . S
C471 C469 1.387 . S
C471 C473 1.390 . S
C471 H475 0.950 . S
H472 C468 0.950 . S
C473 C471 1.390 . S
C473 C474 1.387 . S
C473 H476 0.950 . S
C474 C473 1.387 . S
C474 C477 1.387 . S
H475 C471 0.950 . S
H476 C473 0.950 . S
C477 C468 1.390 . S
C477 H470 0.950 . S
C477 C474 1.387 . S
C478 C479 1.387 . S
C478 H482 0.950 . S
C478 C487 1.390 . S
C479 C478 1.387 . S
C479 C481 1.387 . S
H480 C487 0.950 . S
C481 C479 1.387 . S
C481 C483 1.390 . S
C481 H485 0.926 1_455 S
H482 C478 0.950 . S
C483 C481 1.390 . S
C483 C484 1.387 . S
C483 H486 0.950 1_455 S
C484 C483 1.387 . S
C484 C487 1.387 . S
H485 C481 0.926 1_655 S
H486 C483 0.950 1_655 S
C487 C478 1.390 . S
C487 H480 0.950 . S
C487 C484 1.387 . S
C488 C489 1.387 . S
C488 H492 0.950 . S
C488 C497 1.390 . S
C489 C488 1.387 . S
C489 C491 1.387 . S
H490 C497 0.950 . S
C491 C489 1.387 . S
C491 C493 1.390 . S
C491 H495 0.950 . S
H492 C488 0.950 . S
C493 C491 1.390 . S
C493 C494 1.387 . S
C493 H496 0.950 . S
C494 C493 1.387 . S
C494 C497 1.387 . S
H495 C491 0.950 . S
H496 C493 0.950 . S
C497 C488 1.390 . S
C497 H490 0.950 . S
C497 C494 1.387 . S
C498 C499 1.383 1_455 S
C498 H502 0.955 . S
C498 C507 1.390 . S
C499 C498 1.383 1_655 S
C499 C501 1.387 . S
H500 C507 0.950 . S
C501 C499 1.387 . S
C501 C503 1.390 . S
C501 H505 0.950 . S
H502 C498 0.955 . S
C503 C501 1.390 . S
C503 C504 1.387 . S
C503 H506 0.950 . S
C504 C503 1.387 . S
C504 C507 1.387 1_655 S
H505 C501 0.950 . S
H506 C503 0.950 . S
C507 C498 1.390 . S
C507 H500 0.950 . S
C507 C504 1.387 1_455 S
C508 C509 1.387 . S
C508 H512 0.950 . S
C508 C517 1.390 . S
C509 C508 1.387 . S
C509 C511 1.387 . S
H510 C517 0.950 . S
C511 C509 1.387 . S
C511 C513 1.390 . S
C511 H515 0.950 . S
H512 C508 0.950 . S
C513 C511 1.390 . S
C513 C514 1.387 . S
C513 H516 0.950 . S
C514 C513 1.387 . S
C514 C517 1.387 . S
H515 C511 0.950 . S
H516 C513 0.950 . S
C517 C508 1.390 . S
C517 H510 0.950 . S
C517 C514 1.387 . S
C518 C519 1.387 . S
C518 H522 0.950 . S
C518 C527 1.390 . S
C519 C518 1.387 . S
C519 C521 1.387 . S
H520 C527 0.950 . S
C521 C519 1.387 . S
C521 C523 1.390 . S
C521 H525 0.950 . S
H522 C518 0.950 . S
C523 C521 1.390 . S
C523 C524 1.387 . S
C523 H526 0.950 . S
C524 C523 1.387 . S
C524 C527 1.387 . S
H525 C521 0.950 . S
H526 C523 0.950 . S
C527 C518 1.390 . S
C527 H520 0.950 . S
C527 C524 1.387 . S
C528 C529 1.387 . S
C528 H532 0.950 . S
C528 C537 1.390 . S
C529 C528 1.387 . S
C529 C531 1.387 1_566 S
H530 C537 0.950 . S
C531 C529 1.387 1_544 S
C531 C533 1.390 1_545 S
C531 H535 0.950 . S
H532 C528 0.950 . S
C533 C531 1.390 1_565 S
C533 C534 1.387 . S
C533 H536 0.950 . S
C534 C533 1.387 . S
C534 C537 1.387 1_554 S
H535 C531 0.950 . S
H536 C533 0.950 . S
C537 C528 1.390 . S
C537 H530 0.950 . S
C537 C534 1.387 1_556 S
C538 C539 1.387 . S
C538 H542 0.950 . S
C538 C547 1.390 . S
C539 C538 1.387 . S
C539 C541 1.387 . S
H540 C547 0.950 . S
C541 C539 1.387 . S
C541 C543 1.390 . S
C541 H545 0.950 . S
H542 C538 0.950 . S
C543 C541 1.390 . S
C543 C544 1.387 . S
C543 H546 0.950 . S
C544 C543 1.387 . S
C544 C547 1.387 . S
H545 C541 0.950 . S
H546 C543 0.950 . S
C547 C538 1.390 . S
C547 H540 0.950 . S
C547 C544 1.387 . S
C548 C549 1.387 . S
C548 H552 0.950 . S
C548 C557 1.390 . S
C549 C548 1.387 . S
C549 C551 1.387 . S
H550 C557 0.950 . S
C551 C549 1.387 . S
C551 C553 1.390 . S
C551 H555 0.950 . S
H552 C548 0.950 . S
C553 C551 1.390 . S
C553 C554 1.387 . S
C553 H556 0.950 . S
C554 C553 1.387 . S
C554 C557 1.387 . S
H555 C551 0.950 . S
H556 C553 0.950 . S
C557 C548 1.390 . S
C557 H550 0.950 . S
C557 C554 1.387 . S
C558 C559 1.387 . S
C558 H562 0.950 . S
C558 C567 1.390 . S
C559 C558 1.387 . S
C559 C561 1.387 . S
H560 C567 0.950 . S
C561 C559 1.387 . S
C561 C563 1.390 . S
C561 H565 0.950 . S
H562 C558 0.950 . S
C563 C561 1.390 . S
C563 C564 1.387 . S
C563 H566 0.950 . S
C564 C563 1.387 . S
C564 C567 1.387 . S
H565 C561 0.950 . S
H566 C563 0.950 . S
C567 C558 1.390 . S
C567 H560 0.950 . S
C567 C564 1.387 . S
C568 C569 1.387 . S
C568 H572 0.950 . S
C568 C577 1.390 . S
C569 C568 1.387 . S
C569 C571 1.387 . S
H570 C577 0.950 . S
C571 C569 1.387 . S
C571 C573 1.390 . S
C571 H575 0.950 . S
H572 C568 0.950 . S
C573 C571 1.390 . S
C573 C574 1.387 . S
C573 H576 0.950 . S
C574 C573 1.387 . S
C574 C577 1.387 . S
H575 C571 0.950 . S
H576 C573 0.950 . S
C577 C568 1.390 . S
C577 H570 0.950 . S
C577 C574 1.387 . S
C578 C579 1.387 . S
C578 H582 0.950 . S
C578 C587 1.390 . S
C579 C578 1.387 . S
C579 C581 1.387 . S
H580 C587 0.950 . S
C581 C579 1.387 . S
C581 C583 1.390 . S
C581 H585 0.950 . S
H582 C578 0.950 . S
C583 C581 1.390 . S
C583 C584 1.387 . S
C583 H586 0.950 . S
C584 C583 1.387 . S
C584 C587 1.387 . S
H585 C581 0.950 . S
H586 C583 0.950 . S
C587 C578 1.390 . S
C587 H580 0.950 . S
C587 C584 1.387 . S
C588 C589 1.387 . S
C588 H592 0.950 . S
C588 C597 1.390 . S
C589 C588 1.387 . S
C589 C591 1.387 . S
H590 C597 0.950 . S
C591 C589 1.387 . S
C591 C593 1.390 . S
C591 H595 0.950 . S
H592 C588 0.950 . S
C593 C591 1.390 . S
C593 C594 1.387 . S
C593 H596 0.950 . S
C594 C593 1.387 . S
C594 C597 1.387 . S
H595 C591 0.950 . S
H596 C593 0.950 . S
C597 C588 1.390 . S
C597 H590 0.950 . S
C597 C594 1.387 . S
C598 C599 1.387 1_565 S
C598 H602 0.950 . S
C598 C607 1.390 . S
C599 C598 1.387 1_545 S
C599 C601 1.387 . S
H600 C607 0.950 . S
C601 C599 1.387 . S
C601 C603 1.390 . S
C601 H605 0.950 . S
H602 C598 0.950 . S
C603 C601 1.390 . S
C603 C604 1.387 . S
C603 H606 0.950 . S
C604 C603 1.387 . S
C604 C607 1.387 1_545 S
H605 C601 0.950 . S
H606 C603 0.950 . S
C607 C598 1.390 . S
C607 H600 0.950 . S
C607 C604 1.387 1_565 S
C608 C609 1.387 . S
C608 H612 0.950 . S
C608 C617 1.390 . S
C609 C608 1.387 . S
C609 C611 1.387 . S
H610 C617 0.950 . S
C611 C609 1.387 . S
C611 C613 1.390 . S
C611 H615 0.950 . S
H612 C608 0.950 . S
C613 C611 1.390 . S
C613 C614 1.387 . S
C613 H616 0.950 . S
C614 C613 1.387 . S
C614 C617 1.387 . S
H615 C611 0.950 . S
H616 C613 0.950 . S
C617 C608 1.390 . S
C617 H610 0.950 . S
C617 C614 1.387 . S
C618 C619 1.387 . S
C618 H622 0.950 . S
C618 C627 1.390 . S
C619 C618 1.387 . S
C619 C621 1.387 . S
H620 C627 0.950 . S
C621 C619 1.387 . S
C621 C623 1.390 . S
C621 H625 0.950 . S
H622 C618 0.950 . S
C623 C621 1.390 . S
C623 C624 1.387 . S
C623 H626 0.950 . S
C624 C623 1.387 . S
C624 C627 1.387 . S
H625 C621 0.950 . S
H626 C623 0.950 . S
C627 C618 1.390 . S
C627 H620 0.950 . S
C627 C624 1.387 . S
C628 C629 1.387 . S
C628 H632 0.950 . S
C628 C637 1.390 . S
C629 C628 1.387 . S
C629 C631 1.387 . S
H630 C637 0.950 . S
C631 C629 1.387 . S
C631 C633 1.390 . S
C631 H635 0.950 . S
H632 C628 0.950 . S
C633 C631 1.390 . S
C633 C634 1.387 . S
C633 H636 0.950 . S
C634 C633 1.387 . S
C634 C637 1.387 . S
H635 C631 0.950 . S
H636 C633 0.950 . S
C637 C628 1.390 . S
C637 H630 0.950 . S
C637 C634 1.387 . S
C638 C639 1.387 . S
C638 H642 0.950 . S
C638 C647 1.390 . S
C639 C638 1.387 . S
C639 C641 1.387 . S
H640 C647 0.950 1_655 S
C641 C639 1.387 . S
C641 C643 1.390 1_455 S
C641 H645 0.950 1_545 S
H642 C638 0.950 . S
C643 C641 1.390 1_655 S
C643 C644 1.387 . S
C643 H646 0.950 1_545 S
C644 C643 1.387 . S
C644 C647 1.387 1_655 S
H645 C641 0.950 1_565 S
H646 C643 0.950 1_565 S
C647 C638 1.390 . S
C647 H640 0.950 1_455 S
C647 C644 1.387 1_455 S
C648 C649 1.387 . S
C648 H652 0.950 . S
C648 C657 1.390 . S
C649 C648 1.387 . S
C649 C651 1.387 . S
H650 C657 0.950 . S
C651 C649 1.387 . S
C651 C653 1.390 . S
C651 H655 0.950 . S
H652 C648 0.950 . S
C653 C651 1.390 . S
C653 C654 1.387 . S
C653 H656 0.950 . S
C654 C653 1.387 . S
C654 C657 1.387 . S
H655 C651 0.950 . S
H656 C653 0.950 . S
C657 C648 1.390 . S
C657 H650 0.950 . S
C657 C654 1.387 . S
C658 C659 1.387 . S
C658 H662 0.950 . S
C658 C667 1.390 . S
C659 C658 1.387 . S
C659 C661 1.387 . S
H660 C667 0.950 . S
C661 C659 1.387 . S
C661 C663 1.390 . S
C661 H665 0.950 . S
H662 C658 0.950 . S
C663 C661 1.390 . S
C663 C664 1.387 . S
C663 H666 0.950 . S
C664 C663 1.387 . S
C664 C667 1.387 . S
H665 C661 0.950 . S
H666 C663 0.950 . S
C667 C658 1.390 . S
C667 H660 0.950 . S
C667 C664 1.387 . S
C668 C669 1.387 . S
C668 H672 0.950 . S
C668 C677 1.390 . S
C669 C668 1.387 . S
C669 C671 1.387 . S
H670 C677 0.950 . S
C671 C669 1.387 . S
C671 C673 1.390 . S
C671 H675 0.950 . S
H672 C668 0.950 . S
C673 C671 1.390 . S
C673 C674 1.387 . S
C673 H676 0.950 . S
C674 C673 1.387 . S
C674 C677 1.387 . S
H675 C671 0.950 . S
H676 C673 0.950 . S
C677 C668 1.390 . S
C677 H670 0.950 . S
C677 C674 1.387 . S
C678 C679 1.387 . S
C678 H682 0.950 . S
C678 C687 1.390 . S
C679 C678 1.387 . S
C679 C681 1.387 1_655 S
H680 C687 0.950 . S
C681 C679 1.387 1_455 S
C681 C683 1.390 . S
C681 H685 0.950 . S
H682 C678 0.950 . S
C683 C681 1.390 . S
C683 C684 1.387 1_455 S
C683 H686 0.950 . S
C684 C683 1.387 1_655 S
C684 C687 1.387 . S
H685 C681 0.950 . S
H686 C683 0.950 . S
C687 C678 1.390 . S
C687 H680 0.950 . S
C687 C684 1.387 . S
C688 C689 1.387 . S
C688 H692 0.950 . S
C688 C697 1.390 . S
C689 C688 1.387 . S
C689 C691 1.387 . S
H690 C697 0.950 . S
C691 C689 1.387 . S
C691 C693 1.390 . S
C691 H695 0.950 . S
H692 C688 0.950 . S
C693 C691 1.390 . S
C693 C694 1.387 . S
C693 H696 0.950 . S
C694 C693 1.387 . S
C694 C697 1.387 . S
H695 C691 0.950 . S
H696 C693 0.950 . S
C697 C688 1.390 . S
C697 H690 0.950 . S
C697 C694 1.387 . S
C698 C699 1.387 . S
C698 H702 0.950 1_556 S
C698 C707 1.390 . S
C699 C698 1.387 . S
C699 C701 1.387 . S
H700 C707 0.950 . S
C701 C699 1.387 . S
C701 C703 1.390 . S
C701 H705 0.950 . S
H702 C698 0.950 1_554 S
C703 C701 1.390 . S
C703 C704 1.387 . S
C703 H706 0.950 . S
C704 C703 1.387 . S
C704 C707 1.387 . S
H705 C701 0.950 . S
H706 C703 0.950 . S
C707 C698 1.390 . S
C707 H700 0.950 . S
C707 C704 1.387 . S
C708 C709 1.387 . S
C708 H712 0.950 . S
C708 C717 1.390 . S
C709 C708 1.387 . S
C709 C711 1.387 . S
H710 C717 0.950 . S
C711 C709 1.387 . S
C711 C713 1.390 . S
C711 H715 0.950 . S
H712 C708 0.950 . S
C713 C711 1.390 . S
C713 C714 1.387 . S
C713 H716 0.950 . S
C714 C713 1.387 . S
C714 C717 1.387 . S
H715 C711 0.950 . S
H716 C713 0.950 . S
C717 C708 1.390 . S
C717 H710 0.950 . S
C717 C714 1.387 . S
C718 C719 1.387 . S
C718 H722 0.950 . S
C718 C727 1.390 . S
C719 C718 1.387 . S
C719 C721 1.387 . S
H720 C727 0.950 . S
C721 C719 1.387 . S
C721 C723 1.390 . S
C721 H725 0.950 . S
H722 C718 0.950 . S
C723 C721 1.390 . S
C723 C724 1.387 . S
C723 H726 0.950 . S
C724 C723 1.387 . S
C724 C727 1.387 . S
H725 C721 0.950 . S
H726 C723 0.950 . S
C727 C718 1.390 . S
C727 H720 0.950 . S
C727 C724 1.387 . S
C728 C729 1.387 . S
C728 H732 0.950 . S
C728 C737 1.390 . S
C729 C728 1.387 . S
C729 C731 1.387 . S
H730 C737 0.950 . S
C731 C729 1.387 . S
C731 C733 1.390 . S
C731 H735 0.950 . S
H732 C728 0.950 . S
C733 C731 1.390 . S
C733 C734 1.387 . S
C733 H736 0.950 . S
C734 C733 1.387 . S
C734 C737 1.387 . S
H735 C731 0.950 . S
H736 C733 0.950 . S
C737 C728 1.390 . S
C737 H730 0.950 . S
C737 C734 1.387 . S
C738 C739 1.387 . S
C738 H742 0.950 . S
C738 C747 1.390 . S
C739 C738 1.387 . S
C739 C741 1.387 . S
H740 C747 0.950 . S
C741 C739 1.387 . S
C741 C743 1.390 . S
C741 H745 0.950 . S
H742 C738 0.950 . S
C743 C741 1.390 . S
C743 C744 1.387 . S
C743 H746 0.950 . S
C744 C743 1.387 . S
C744 C747 1.387 . S
H745 C741 0.950 . S
H746 C743 0.950 . S
C747 C738 1.390 . S
C747 H740 0.950 . S
C747 C744 1.387 . S
C748 C749 1.387 . S
C748 H752 0.950 . S
C748 C757 1.390 . S
C749 C748 1.387 . S
C749 C751 1.387 . S
H750 C757 0.950 . S
C751 C749 1.387 . S
C751 C753 1.390 . S
C751 H755 0.950 . S
H752 C748 0.950 . S
C753 C751 1.390 . S
C753 C754 1.387 . S
C753 H756 0.950 . S
C754 C753 1.387 . S
C754 C757 1.387 . S
H755 C751 0.950 . S
H756 C753 0.950 . S
C757 C748 1.390 . S
C757 H750 0.950 . S
C757 C754 1.387 . S
C758 C759 1.387 . S
C758 H762 0.950 . S
C758 C767 1.390 . S
C759 C758 1.387 . S
C759 C761 1.387 . S
H760 C767 0.950 . S
C761 C759 1.387 . S
C761 C763 1.390 . S
C761 H765 0.950 . S
H762 C758 0.950 . S
C763 C761 1.390 . S
C763 C764 1.387 . S
C763 H766 0.950 . S
C764 C763 1.387 . S
C764 C767 1.387 . S
H765 C761 0.950 . S
H766 C763 0.950 . S
C767 C758 1.390 . S
C767 H760 0.950 . S
C767 C764 1.387 . S
C768 C769 1.387 . S
C768 H772 0.950 . S
C768 C777 1.390 . S
C769 C768 1.387 . S
C769 C771 1.387 . S
H770 C777 0.950 . S
C771 C769 1.387 . S
C771 C773 1.390 . S
C771 H775 0.950 . S
H772 C768 0.950 . S
C773 C771 1.390 . S
C773 C774 1.387 . S
C773 H776 0.950 . S
C774 C773 1.387 . S
C774 C777 1.387 . S
H775 C771 0.950 . S
H776 C773 0.950 . S
C777 C768 1.390 . S
C777 H770 0.950 . S
C777 C774 1.387 . S
C778 C779 1.387 . S
C778 H782 0.950 . S
C778 C787 1.390 . S
C779 C778 1.387 . S
C779 C781 1.387 . S
H780 C787 0.950 . S
C781 C779 1.387 . S
C781 C783 1.390 . S
C781 H785 0.950 . S
H782 C778 0.950 . S
C783 C781 1.390 . S
C783 C784 1.387 . S
C783 H786 0.950 . S
C784 C783 1.387 . S
C784 C787 1.387 . S
H785 C781 0.950 . S
H786 C783 0.950 . S
C787 C778 1.390 . S
C787 H780 0.950 . S
C787 C784 1.387 . S
C788 C789 1.387 1_554 S
C788 H792 0.950 . S
C788 C797 1.390 . S
C789 C788 1.387 1_556 S
C789 C791 1.387 . S
H790 C797 0.950 . S
C791 C789 1.387 . S
C791 C793 1.390 . S
C791 H795 0.950 . S
H792 C788 0.950 . S
C793 C791 1.390 . S
C793 C794 1.387 . S
C793 H796 0.950 . S
C794 C793 1.387 . S
C794 C797 1.387 1_556 S
H795 C791 0.950 . S
H796 C793 0.950 . S
C797 C788 1.390 . S
C797 H790 0.950 . S
C797 C794 1.387 1_554 S
C798 C799 1.387 . S
C798 H802 0.950 . S
C798 C807 1.390 . S
C799 C798 1.387 . S
C799 C801 1.387 . S
H800 C807 0.950 . S
C801 C799 1.387 . S
C801 C803 1.390 . S
C801 H805 0.950 . S
H802 C798 0.950 . S
C803 C801 1.390 . S
C803 C804 1.387 . S
C803 H806 0.950 . S
C804 C803 1.387 . S
C804 C807 1.387 . S
H805 C801 0.950 . S
H806 C803 0.950 . S
C807 C798 1.390 . S
C807 H800 0.950 . S
C807 C804 1.387 . S
C808 C809 1.417 . S
C808 H812 0.929 1_554 S
C808 C817 1.383 1_554 S
C809 C808 1.417 . S
C809 C811 1.387 . S
H810 C817 0.950 . S
C811 C809 1.387 . S
C811 C813 1.390 . S
C811 H815 0.950 . S
H812 C808 0.929 1_556 S
C813 C811 1.390 . S
C813 C814 1.387 . S
C813 H816 0.950 . S
C814 C813 1.387 . S
C814 C817 1.387 1_554 S
H815 C811 0.950 . S
H816 C813 0.950 . S
C817 C808 1.383 1_556 S
C817 H810 0.950 . S
C817 C814 1.387 1_556 S
C818 C819 1.387 1_545 S
C818 H822 0.950 . S
C818 C827 1.390 1_545 S
C819 C818 1.387 1_565 S
C819 C821 1.387 . S
H820 C827 0.950 1_556 S
C821 C819 1.387 . S
C821 C823 1.390 . S
C821 H825 0.950 . S
H822 C818 0.950 . S
C823 C821 1.390 . S
C823 C824 1.387 . S
C823 H826 0.950 . S
C824 C823 1.387 . S
C824 C827 1.387 . S
H825 C821 0.950 . S
H826 C823 0.950 . S
C827 C818 1.390 1_565 S
C827 H820 0.950 1_554 S
C827 C824 1.387 . S
C354 C202 1.637 . S
C349 C66 1.665 . S
C364 C215 1.320 . S
C359 C76 1.326 . S
C369 C93 1.768 . S
C374 C228 1.720 . S
C384 C241 1.480 . S
C379 C54 1.508 . S
C394 C249 1.503 . S
C389 C126 1.519 . S
C404 C262 1.690 . S
C399 C150 1.717 . S
C409 C136 1.282 . S
C414 C275 1.268 . S
C424 C288 1.716 . S
C419 C117 1.745 . S
C429 C141 1.301 . S
C434 C306 1.286 . S
C444 C317 1.371 . S
C439 C112 1.385 . S
C449 C124 1.491 . S
C454 C301 1.464 . S
C464 C309 1.334 . S
C459 C148 1.338 . S
C469 C88 1.372 . S
C474 C332 1.366 . S
C479 C52 1.561 . S
C484 C322 1.540 . S
C489 C64 1.328 . S
C494 C327 1.307 . S
C499 C78 1.329 . S
C504 C330 1.302 1_655 S
C509 C45 1.644 . S
C514 C239 1.623 . S
C519 C177 1.741 . S
C524 C231 1.716 . S
C534 C200 1.468 . S
C529 C189 1.471 1_565 S
C544 C205 1.589 . S
C539 C102 1.623 . S
C549 C57 1.697 . S
C554 C252 1.681 . S
C564 C291 1.474 . S
C559 C138 1.510 . S
C574 C244 1.731 . S
C569 C114 1.735 . S
C584 C270 1.626 . S
C579 C153 1.665 . S
C594 C280 1.637 . S
C589 C174 1.665 . S
C599 C184 1.326 . S
C604 C293 1.320 . S
C609 C105 1.768 . S
C614 C254 1.719 . S
C624 C267 1.481 . S
C619 C162 1.508 . S
C629 C42 1.519 . S
C634 C223 1.504 . S
C644 C236 1.690 . S
C639 C6 1.717 . S
C654 C197 1.268 . S
C649 C16 1.282 . S
C664 C210 1.717 . S
C659 C33 1.745 1_455 S
C669 C21 1.301 . S
C674 C319 1.284 . S
C679 C28 1.386 . S
C684 C304 1.369 1_655 S
C689 C40 1.492 . S
C694 C314 1.465 . S
C699 C4 1.339 . S
C704 C296 1.334 . S
C714 C345 1.365 . S
C709 C100 1.372 . S
C724 C335 1.541 . S
C719 C160 1.561 . S
C734 C340 1.305 . S
C729 C172 1.327 . S
C739 C186 1.323 1_554 S
C744 C343 1.301 . S
C749 C129 1.643 . S
C754 C265 1.624 . S
C764 C257 1.716 . S
C759 C69 1.741 . S
C774 C278 1.469 . S
C769 C81 1.470 . S
C784 C283 1.589 . S
C779 C90 1.623 . S
C789 C165 1.696 . S
C794 C226 1.682 . S
C804 C213 1.474 . S
C799 C18 1.511 . S
C809 C30 1.735 . S
C814 C218 1.731 . S
C824 C192 1.628 . S
C819 C9 1.665 1_565 S
