# Generated by pormake.
# Topology bwt, (3,3)-cn, num edge types: 1
# Building blocks:
#     Node 0, Type 0, BuildingBlock: WUSLED_clean_sbu_0, # of connection points: 3
#     Node 1, Type 0, BuildingBlock: WUSLED_clean_sbu_0, # of connection points: 3
#     Node 2, Type 0, BuildingBlock: WUSLED_clean_sbu_0, # of connection points: 3
#     Node 3, Type 0, BuildingBlock: WUSLED_clean_sbu_0, # of connection points: 3
#     Node 4, Type 0, BuildingBlock: WUSLED_clean_sbu_0, # of connection points: 3
#     Node 5, Type 0, BuildingBlock: WUSLED_clean_sbu_0, # of connection points: 3
#     Node 6, Type 0, BuildingBlock: WUSLED_clean_sbu_0, # of connection points: 3
#     Node 7, Type 0, BuildingBlock: WUSLED_clean_sbu_0, # of connection points: 3
#     Node 8, Type 0, BuildingBlock: WUSLED_clean_sbu_0, # of connection points: 3
#     Node 9, Type 0, BuildingBlock: WUSLED_clean_sbu_0, # of connection points: 3
#     Node 10, Type 0, BuildingBlock: WUSLED_clean_sbu_0, # of connection points: 3
#     Node 11, Type 0, BuildingBlock: WUSLED_clean_sbu_0, # of connection points: 3
#     Node 12, Type 0, BuildingBlock: WUSLED_clean_sbu_0, # of connection points: 3
#     Node 13, Type 0, BuildingBlock: WUSLED_clean_sbu_0, # of connection points: 3
#     Node 14, Type 0, BuildingBlock: WUSLED_clean_sbu_0, # of connection points: 3
#     Node 15, Type 0, BuildingBlock: WUSLED_clean_sbu_0, # of connection points: 3
#     Node 16, Type 0, BuildingBlock: WUSLED_clean_sbu_0, # of connection points: 3
#     Node 17, Type 0, BuildingBlock: WUSLED_clean_sbu_0, # of connection points: 3
#     Node 18, Type 0, BuildingBlock: WUSLED_clean_sbu_0, # of connection points: 3
#     Node 19, Type 0, BuildingBlock: WUSLED_clean_sbu_0, # of connection points: 3
#     Node 20, Type 0, BuildingBlock: WUSLED_clean_sbu_0, # of connection points: 3
#     Node 21, Type 0, BuildingBlock: WUSLED_clean_sbu_0, # of connection points: 3
#     Node 22, Type 0, BuildingBlock: WUSLED_clean_sbu_0, # of connection points: 3
#     Node 23, Type 0, BuildingBlock: WUSLED_clean_sbu_0, # of connection points: 3
#     Node 24, Type 1, BuildingBlock: PAMTOO_clean_linker_0, # of connection points: 3
#     Node 25, Type 1, BuildingBlock: PAMTOO_clean_linker_0, # of connection points: 3
#     Node 26, Type 1, BuildingBlock: PAMTOO_clean_linker_0, # of connection points: 3
#     Node 27, Type 1, BuildingBlock: PAMTOO_clean_linker_0, # of connection points: 3
#     Node 28, Type 1, BuildingBlock: PAMTOO_clean_linker_0, # of connection points: 3
#     Node 29, Type 1, BuildingBlock: PAMTOO_clean_linker_0, # of connection points: 3
#     Node 30, Type 1, BuildingBlock: PAMTOO_clean_linker_0, # of connection points: 3
#     Node 31, Type 1, BuildingBlock: PAMTOO_clean_linker_0, # of connection points: 3
#     Node 32, Type 1, BuildingBlock: PAMTOO_clean_linker_0, # of connection points: 3
#     Node 33, Type 1, BuildingBlock: PAMTOO_clean_linker_0, # of connection points: 3
#     Node 34, Type 1, BuildingBlock: PAMTOO_clean_linker_0, # of connection points: 3
#     Node 35, Type 1, BuildingBlock: PAMTOO_clean_linker_0, # of connection points: 3
#     Node 36, Type 1, BuildingBlock: PAMTOO_clean_linker_0, # of connection points: 3
#     Node 37, Type 1, BuildingBlock: PAMTOO_clean_linker_0, # of connection points: 3
#     Node 38, Type 1, BuildingBlock: PAMTOO_clean_linker_0, # of connection points: 3
#     Node 39, Type 1, BuildingBlock: PAMTOO_clean_linker_0, # of connection points: 3
#     Node 40, Type 1, BuildingBlock: PAMTOO_clean_linker_0, # of connection points: 3
#     Node 41, Type 1, BuildingBlock: PAMTOO_clean_linker_0, # of connection points: 3
#     Node 42, Type 1, BuildingBlock: PAMTOO_clean_linker_0, # of connection points: 3
#     Node 43, Type 1, BuildingBlock: PAMTOO_clean_linker_0, # of connection points: 3
#     Node 44, Type 1, BuildingBlock: PAMTOO_clean_linker_0, # of connection points: 3
#     Node 45, Type 1, BuildingBlock: PAMTOO_clean_linker_0, # of connection points: 3
#     Node 46, Type 1, BuildingBlock: PAMTOO_clean_linker_0, # of connection points: 3
#     Node 47, Type 1, BuildingBlock: PAMTOO_clean_linker_0, # of connection points: 3
#     Edge 48, Type (0, 1), BuildingBlock: ZUJKAS_clean_linker_0, # of connection points: 2
#     Edge 49, Type (0, 1), BuildingBlock: ZUJKAS_clean_linker_0, # of connection points: 2
#     Edge 50, Type (0, 1), BuildingBlock: ZUJKAS_clean_linker_0, # of connection points: 2
#     Edge 51, Type (0, 1), BuildingBlock: ZUJKAS_clean_linker_0, # of connection points: 2
#     Edge 52, Type (0, 1), BuildingBlock: ZUJKAS_clean_linker_0, # of connection points: 2
#     Edge 53, Type (0, 1), BuildingBlock: ZUJKAS_clean_linker_0, # of connection points: 2
#     Edge 54, Type (0, 1), BuildingBlock: ZUJKAS_clean_linker_0, # of connection points: 2
#     Edge 55, Type (0, 1), BuildingBlock: ZUJKAS_clean_linker_0, # of connection points: 2
#     Edge 56, Type (0, 1), BuildingBlock: ZUJKAS_clean_linker_0, # of connection points: 2
#     Edge 57, Type (0, 1), BuildingBlock: ZUJKAS_clean_linker_0, # of connection points: 2
#     Edge 58, Type (0, 1), BuildingBlock: ZUJKAS_clean_linker_0, # of connection points: 2
#     Edge 59, Type (0, 1), BuildingBlock: ZUJKAS_clean_linker_0, # of connection points: 2
#     Edge 60, Type (0, 1), BuildingBlock: ZUJKAS_clean_linker_0, # of connection points: 2
#     Edge 61, Type (0, 1), BuildingBlock: ZUJKAS_clean_linker_0, # of connection points: 2
#     Edge 62, Type (0, 1), BuildingBlock: ZUJKAS_clean_linker_0, # of connection points: 2
#     Edge 63, Type (0, 1), BuildingBlock: ZUJKAS_clean_linker_0, # of connection points: 2
#     Edge 64, Type (0, 1), BuildingBlock: ZUJKAS_clean_linker_0, # of connection points: 2
#     Edge 65, Type (0, 1), BuildingBlock: ZUJKAS_clean_linker_0, # of connection points: 2
#     Edge 66, Type (0, 1), BuildingBlock: ZUJKAS_clean_linker_0, # of connection points: 2
#     Edge 67, Type (0, 1), BuildingBlock: ZUJKAS_clean_linker_0, # of connection points: 2
#     Edge 68, Type (0, 1), BuildingBlock: ZUJKAS_clean_linker_0, # of connection points: 2
#     Edge 69, Type (0, 1), BuildingBlock: ZUJKAS_clean_linker_0, # of connection points: 2
#     Edge 70, Type (0, 1), BuildingBlock: ZUJKAS_clean_linker_0, # of connection points: 2
#     Edge 71, Type (0, 1), BuildingBlock: ZUJKAS_clean_linker_0, # of connection points: 2
#     Edge 72, Type (0, 1), BuildingBlock: ZUJKAS_clean_linker_0, # of connection points: 2
#     Edge 73, Type (0, 1), BuildingBlock: ZUJKAS_clean_linker_0, # of connection points: 2
#     Edge 74, Type (0, 1), BuildingBlock: ZUJKAS_clean_linker_0, # of connection points: 2
#     Edge 75, Type (0, 1), BuildingBlock: ZUJKAS_clean_linker_0, # of connection points: 2
#     Edge 76, Type (0, 1), BuildingBlock: ZUJKAS_clean_linker_0, # of connection points: 2
#     Edge 77, Type (0, 1), BuildingBlock: ZUJKAS_clean_linker_0, # of connection points: 2
#     Edge 78, Type (0, 1), BuildingBlock: ZUJKAS_clean_linker_0, # of connection points: 2
#     Edge 79, Type (0, 1), BuildingBlock: ZUJKAS_clean_linker_0, # of connection points: 2
#     Edge 80, Type (0, 1), BuildingBlock: ZUJKAS_clean_linker_0, # of connection points: 2
#     Edge 81, Type (0, 1), BuildingBlock: ZUJKAS_clean_linker_0, # of connection points: 2
#     Edge 82, Type (0, 1), BuildingBlock: ZUJKAS_clean_linker_0, # of connection points: 2
#     Edge 83, Type (0, 1), BuildingBlock: ZUJKAS_clean_linker_0, # of connection points: 2
#     Edge 84, Type (0, 1), BuildingBlock: ZUJKAS_clean_linker_0, # of connection points: 2
#     Edge 85, Type (0, 1), BuildingBlock: ZUJKAS_clean_linker_0, # of connection points: 2
#     Edge 86, Type (0, 1), BuildingBlock: ZUJKAS_clean_linker_0, # of connection points: 2
#     Edge 87, Type (0, 1), BuildingBlock: ZUJKAS_clean_linker_0, # of connection points: 2
#     Edge 88, Type (0, 1), BuildingBlock: ZUJKAS_clean_linker_0, # of connection points: 2
#     Edge 89, Type (0, 1), BuildingBlock: ZUJKAS_clean_linker_0, # of connection points: 2
#     Edge 90, Type (0, 1), BuildingBlock: ZUJKAS_clean_linker_0, # of connection points: 2
#     Edge 91, Type (0, 1), BuildingBlock: ZUJKAS_clean_linker_0, # of connection points: 2
#     Edge 92, Type (0, 1), BuildingBlock: ZUJKAS_clean_linker_0, # of connection points: 2
#     Edge 93, Type (0, 1), BuildingBlock: ZUJKAS_clean_linker_0, # of connection points: 2
#     Edge 94, Type (0, 1), BuildingBlock: ZUJKAS_clean_linker_0, # of connection points: 2
#     Edge 95, Type (0, 1), BuildingBlock: ZUJKAS_clean_linker_0, # of connection points: 2
#     Edge 96, Type (0, 1), BuildingBlock: ZUJKAS_clean_linker_0, # of connection points: 2
#     Edge 97, Type (0, 1), BuildingBlock: ZUJKAS_clean_linker_0, # of connection points: 2
#     Edge 98, Type (0, 1), BuildingBlock: ZUJKAS_clean_linker_0, # of connection points: 2
#     Edge 99, Type (0, 1), BuildingBlock: ZUJKAS_clean_linker_0, # of connection points: 2
#     Edge 100, Type (0, 1), BuildingBlock: ZUJKAS_clean_linker_0, # of connection points: 2
#     Edge 101, Type (0, 1), BuildingBlock: ZUJKAS_clean_linker_0, # of connection points: 2
#     Edge 102, Type (0, 1), BuildingBlock: ZUJKAS_clean_linker_0, # of connection points: 2
#     Edge 103, Type (0, 1), BuildingBlock: ZUJKAS_clean_linker_0, # of connection points: 2
#     Edge 104, Type (0, 1), BuildingBlock: ZUJKAS_clean_linker_0, # of connection points: 2
#     Edge 105, Type (0, 1), BuildingBlock: ZUJKAS_clean_linker_0, # of connection points: 2
#     Edge 106, Type (0, 1), BuildingBlock: ZUJKAS_clean_linker_0, # of connection points: 2
#     Edge 107, Type (0, 1), BuildingBlock: ZUJKAS_clean_linker_0, # of connection points: 2
#     Edge 108, Type (0, 1), BuildingBlock: ZUJKAS_clean_linker_0, # of connection points: 2
#     Edge 109, Type (0, 1), BuildingBlock: ZUJKAS_clean_linker_0, # of connection points: 2
#     Edge 110, Type (0, 1), BuildingBlock: ZUJKAS_clean_linker_0, # of connection points: 2
#     Edge 111, Type (0, 1), BuildingBlock: ZUJKAS_clean_linker_0, # of connection points: 2
#     Edge 112, Type (0, 1), BuildingBlock: ZUJKAS_clean_linker_0, # of connection points: 2
#     Edge 113, Type (0, 1), BuildingBlock: ZUJKAS_clean_linker_0, # of connection points: 2
#     Edge 114, Type (0, 1), BuildingBlock: ZUJKAS_clean_linker_0, # of connection points: 2
#     Edge 115, Type (0, 1), BuildingBlock: ZUJKAS_clean_linker_0, # of connection points: 2
#     Edge 116, Type (0, 1), BuildingBlock: ZUJKAS_clean_linker_0, # of connection points: 2
#     Edge 117, Type (0, 1), BuildingBlock: ZUJKAS_clean_linker_0, # of connection points: 2
#     Edge 118, Type (0, 1), BuildingBlock: ZUJKAS_clean_linker_0, # of connection points: 2
#     Edge 119, Type (0, 1), BuildingBlock: ZUJKAS_clean_linker_0, # of connection points: 2
# Relax obj value: 0.119
# Max RMSD: 0.169
# Mean RMSD: 0.083
data_MOF--net-bwt--node1-WUSLED_clean_sbu_0--node2-PAMTOO_clean_linker_0--edge1-ZUJKAS_clean_linker_0
_symmetry_space_group_name_H-M    P1
_symmetry_Int_Tables_number       1
_symmetry_cell_setting            triclinic
loop_
_symmetry_equiv_pos_as_xyz
'x, y, z'
_cell_length_a     84.985749
_cell_length_b     84.961883
_cell_length_c     84.96926
_cell_angle_alpha  95.203596
_cell_angle_beta   95.193419
_cell_angle_gamma 95.200976
loop_
_atom_site_label
_atom_site_type_symbol
_atom_site_fract_x
_atom_site_fract_y
_atom_site_fract_z
_atom_type_partial_charge
C0 C 0.30438 0.63084 0.34472 0.0
C1 C 0.31454 0.62046 0.35121 0.0
C2 C 0.3362 0.63166 0.33747 0.0
C3 C 0.33024 0.62081 0.34757 0.0
C4 C 0.32595 0.64207 0.33098 0.0
C5 C 0.31016 0.64165 0.33459 0.0
U6 U 0.27459 0.61808 0.37212 0.0
O7 O 0.25542 0.62987 0.3826 0.0
O8 O 0.24995 0.60709 0.36783 0.0
C9 C 0.24428 0.61915 0.37548 0.0
C10 C 0.28794 0.63054 0.3489 0.0
C11 C 0.23001 0.62491 0.36746 0.0
C12 C 0.2141 0.64621 0.36055 0.0
C13 C 0.22829 0.6412 0.36715 0.0
C14 C 0.20326 0.61878 0.35424 0.0
C15 C 0.20139 0.63505 0.3541 0.0
C16 C 0.21737 0.6138 0.36089 0.0
C17 C 0.29052 0.59528 0.40613 0.0
C18 C 0.27539 0.58791 0.42772 0.0
C19 C 0.30139 0.57882 0.42547 0.0
C20 C 0.30276 0.5867 0.41186 0.0
C21 C 0.28774 0.5794 0.43362 0.0
C22 C 0.27676 0.59576 0.41404 0.0
C23 C 0.29247 0.60376 0.39203 0.0
O24 O 0.28 0.61637 0.34725 0.0
O25 O 0.28621 0.63879 0.36238 0.0
O26 O 0.29096 0.61906 0.39382 0.0
O27 O 0.28524 0.59661 0.37862 0.0
H28 H 0.3103 0.61206 0.35912 0.0
H29 H 0.33767 0.61243 0.35257 0.0
H30 H 0.33019 0.6507 0.32332 0.0
H31 H 0.30251 0.64984 0.32958 0.0
H32 H 0.21306 0.65882 0.36053 0.0
H33 H 0.23778 0.65009 0.37219 0.0
H34 H 0.19362 0.60987 0.34964 0.0
H35 H 0.21827 0.60118 0.36118 0.0
H36 H 0.26466 0.58845 0.43364 0.0
H37 H 0.31121 0.57259 0.42982 0.0
H38 H 0.31347 0.58624 0.40588 0.0
H39 H 0.26715 0.60228 0.4097 0.0
C40 C 0.19296 0.347 0.76474 0.0
C41 C 0.18393 0.35212 0.7769 0.0
C42 C 0.15949 0.34231 0.7604 0.0
C43 C 0.16738 0.34974 0.77479 0.0
C44 C 0.1686 0.3369 0.74833 0.0
C45 C 0.18522 0.33926 0.75049 0.0
U46 U 0.2281 0.37194 0.78645 0.0
O47 O 0.25205 0.36682 0.79522 0.0
O48 O 0.24908 0.38474 0.77833 0.0
C49 C 0.25903 0.37674 0.78637 0.0
C50 C 0.21029 0.35082 0.76659 0.0
C51 C 0.27244 0.37144 0.7781 0.0
C52 C 0.28939 0.35121 0.76985 0.0
C53 C 0.27542 0.35541 0.77604 0.0
C54 C 0.29718 0.3789 0.76722 0.0
C55 C 0.30058 0.36298 0.76574 0.0
C56 C 0.2833 0.38307 0.77337 0.0
C57 C 0.22002 0.40267 0.81917 0.0
C58 C 0.24169 0.42017 0.83372 0.0
C59 C 0.21458 0.42286 0.83949 0.0
C60 C 0.2092 0.41032 0.82789 0.0
C61 C 0.23089 0.42792 0.84255 0.0
C62 C 0.23628 0.40766 0.82212 0.0
C63 C 0.21426 0.38968 0.80688 0.0
O64 O 0.21507 0.36504 0.7629 0.0
O65 O 0.21755 0.34733 0.77998 0.0
O66 O 0.2187 0.37568 0.80964 0.0
O67 O 0.2157 0.393 0.79225 0.0
H68 H 0.1897 0.35823 0.78796 0.0
H69 H 0.16076 0.35383 0.78441 0.0
H70 H 0.1629 0.33129 0.73705 0.0
H71 H 0.19201 0.33537 0.74092 0.0
H72 H 0.2917 0.33885 0.76887 0.0
H73 H 0.26723 0.34619 0.77961 0.0
H74 H 0.30541 0.38822 0.76387 0.0
H75 H 0.28126 0.3955 0.77485 0.0
H76 H 0.2543 0.4239 0.83565 0.0
H77 H 0.20599 0.42844 0.84622 0.0
H78 H 0.19659 0.40659 0.82573 0.0
H79 H 0.24478 0.4019 0.8154 0.0
C80 C 0.72112 0.97958 0.63436 0.0
C81 C 0.73273 0.97801 0.62374 0.0
C82 C 0.75299 0.97755 0.64577 0.0
C83 C 0.74849 0.97692 0.62938 0.0
C84 C 0.74138 0.97938 0.65642 0.0
C85 C 0.72553 0.98033 0.65074 0.0
U86 U 0.6923 0.98749 0.60061 0.0
O87 O 0.66954 0.97463 0.59023 0.0
O88 O 0.67064 0.9998 0.59932 0.0
C89 C 0.66155 0.98687 0.59341 0.0
C90 C 0.70454 0.9806 0.62826 0.0
C91 C 0.64694 0.98351 0.60103 0.0
C92 C 0.63283 0.98213 0.62454 0.0
C93 C 0.64706 0.98459 0.61761 0.0
C94 C 0.61837 0.97697 0.59837 0.0
C95 C 0.61831 0.97846 0.61498 0.0
C96 C 0.63257 0.97951 0.59147 0.0
C97 C 0.70912 0.99876 0.56283 0.0
C98 C 0.69242 0.00702 0.54096 0.0
C99 C 0.71863 0.99933 0.53681 0.0
C100 C 0.72104 0.99654 0.55276 0.0
C101 C 0.70422 0.00446 0.53067 0.0
C102 C 0.69482 0.00413 0.55689 0.0
C103 C 0.71144 0.99471 0.57925 0.0
O104 O 0.701 0.99495 0.62564 0.0
O105 O 0.69893 0.96975 0.61659 0.0
O106 O 0.70641 0.98003 0.5813 0.0
O107 O 0.70752 0.00523 0.59016 0.0
H108 H 0.72959 0.97761 0.61105 0.0
H109 H 0.75721 0.9758 0.62091 0.0
H110 H 0.74452 0.97986 0.66911 0.0
H111 H 0.71672 0.98162 0.6591 0.0
H112 H 0.63317 0.98318 0.63737 0.0
H113 H 0.65809 0.98754 0.62517 0.0
H114 H 0.60738 0.97436 0.59069 0.0
H115 H 0.6323 0.97862 0.57864 0.0
H116 H 0.68127 0.01112 0.53668 0.0
H117 H 0.72786 0.99695 0.5292 0.0
H118 H 0.7321 0.99229 0.55714 0.0
H119 H 0.68544 0.00585 0.56452 0.0
C120 C 0.76873 0.0165 0.27224 0.0
C121 C 0.76027 0.02894 0.2672 0.0
C122 C 0.73638 0.01757 0.2775 0.0
C123 C 0.74429 0.02944 0.26976 0.0
C124 C 0.74505 0.00552 0.28313 0.0
C125 C 0.76103 0.00505 0.28061 0.0
U126 U 0.79543 0.00069 0.24274 0.0
O127 O 0.81706 0.0111 0.23369 0.0
O128 O 0.81747 0.98905 0.24532 0.0
C129 C 0.82577 1.00042 0.23925 0.0
C130 C 0.78508 0.01488 0.26788 0.0
C131 C 0.84145 0.0062 0.24788 0.0
C132 C 0.86292 0.02718 0.25586 0.0
C133 C 0.84736 0.02233 0.24924 0.0
C134 C 0.86677 0.99998 0.26027 0.0
C135 C 0.87287 0.01602 0.26124 0.0
C136 C 0.85128 0.99513 0.25361 0.0
C137 C 0.77413 0.97739 0.20491 0.0
C138 C 0.78619 0.97175 0.18045 0.0
C139 C 0.75976 0.95973 0.18329 0.0
C140 C 0.76061 0.96736 0.19865 0.0
C141 C 0.77242 0.96207 0.17391 0.0
C142 C 0.78707 0.97932 0.19587 0.0
C143 C 0.77417 0.98628 0.22056 0.0
O144 O 0.7896 0.00044 0.26742 0.0
O145 O 0.78923 0.02244 0.25582 0.0
O146 O 0.77905 0.00149 0.22139 0.0
O147 O 0.77984 0.97933 0.23275 0.0
H148 H 0.76585 0.03806 0.26084 0.0
H149 H 0.73802 0.03883 0.26513 0.0
H150 H 0.73948 0.99632 0.28937 0.0
H151 H 0.76722 0.99543 0.28488 0.0
H152 H 0.86724 0.03964 0.25655 0.0
H153 H 0.84013 0.03117 0.24487 0.0
H154 H 0.87419 0.99103 0.26405 0.0
H155 H 0.84714 0.9826 0.25251 0.0
H156 H 0.79618 0.97366 0.17355 0.0
H157 H 0.74891 0.95253 0.17854 0.0
H158 H 0.75053 0.96575 0.2055 0.0
H159 H 0.79766 0.98696 0.20059 0.0
C160 C 0.34378 0.3044 0.63838 0.0
C161 C 0.35565 0.31719 0.63953 0.0
C162 C 0.33566 0.33595 0.63977 0.0
C163 C 0.35164 0.3328 0.64033 0.0
C164 C 0.32377 0.32313 0.63864 0.0
C165 C 0.32782 0.30748 0.638 0.0
U166 U 0.37069 0.27522 0.6227 0.0
O167 O 0.38186 0.25574 0.63315 0.0
O168 O 0.36596 0.2508 0.61104 0.0
C169 C 0.37446 0.24486 0.62234 0.0
C170 C 0.34795 0.28791 0.63663 0.0
C171 C 0.36707 0.23052 0.62826 0.0
C172 C 0.35166 0.21737 0.64694 0.0
C173 C 0.35804 0.23133 0.6413 0.0
C174 C 0.36303 0.20174 0.62637 0.0
C175 C 0.3542 0.20239 0.63961 0.0
C176 C 0.36941 0.21566 0.62079 0.0
C177 C 0.40395 0.29214 0.59946 0.0
C178 C 0.42881 0.28113 0.59516 0.0
C179 C 0.41913 0.30032 0.57819 0.0
C180 C 0.40583 0.3012 0.58666 0.0
C181 C 0.43088 0.29039 0.58242 0.0
C182 C 0.41544 0.28195 0.60356 0.0
C183 C 0.39008 0.29375 0.60848 0.0
O184 O 0.34589 0.28097 0.62203 0.0
O185 O 0.3615 0.28542 0.64432 0.0
O186 O 0.39218 0.29188 0.62369 0.0
O187 O 0.37651 0.28676 0.60147 0.0
H188 H 0.36805 0.31512 0.63957 0.0
H189 H 0.36105 0.3424 0.64092 0.0
H190 H 0.31136 0.32521 0.63825 0.0
H191 H 0.31848 0.29777 0.63699 0.0
H192 H 0.34499 0.21829 0.65721 0.0
H193 H 0.35608 0.24273 0.6472 0.0
H194 H 0.36494 0.19045 0.62021 0.0
H195 H 0.37626 0.21481 0.61065 0.0
H196 H 0.43769 0.2735 0.59888 0.0
H197 H 0.42016 0.30739 0.56829 0.0
H198 H 0.39704 0.30906 0.58326 0.0
H199 H 0.4142 0.27477 0.61337 0.0
C200 C 0.27494 0.77147 0.01755 0.0
C201 C 0.27143 0.7632 0.03062 0.0
C202 C 0.2806 0.7392 0.01815 0.0
C203 C 0.2742 0.74725 0.0309 0.0
C204 C 0.28486 0.7477 0.00547 0.0
C205 C 0.28214 0.76365 0.00521 0.0
U206 U 0.24337 0.79722 0.00455 0.0
O207 O 0.23504 0.81896 0.01553 0.0
O208 O 0.24394 0.81882 0.99202 0.0
C209 C 0.23897 0.82734 0.00395 0.0
C210 C 0.27006 0.78768 0.01619 0.0
C211 C 0.24773 0.84311 0.00855 0.0
C212 C 0.26333 0.86262 0.02791 0.0
C213 C 0.25611 0.84716 0.02362 0.0
C214 C 0.25427 0.87001 0.002 0.0
C215 C 0.2624 0.87425 0.01717 0.0
C216 C 0.247 0.85463 0.99776 0.0
C217 C 0.20394 0.7743 0.98576 0.0
C218 C 0.18418 0.77973 0.96489 0.0
C219 C 0.17649 0.76331 0.98533 0.0
C220 C 0.19212 0.76516 0.99235 0.0
C221 C 0.17236 0.77049 0.97147 0.0
C222 C 0.19984 0.78169 0.97201 0.0
C223 C 0.22044 0.7753 0.99312 0.0
O224 O 0.26782 0.79179 0.00165 0.0
O225 O 0.25896 0.7919 0.02509 0.0
O226 O 0.22276 0.7808 0.00819 0.0
O227 O 0.23166 0.78065 0.9847 0.0
H228 H 0.26604 0.76888 0.04043 0.0
H229 H 0.27073 0.74108 0.04084 0.0
H230 H 0.29013 0.74197 0.99561 0.0
H231 H 0.28526 0.76972 0.99508 0.0
H232 H 0.26962 0.8655 0.03964 0.0
H233 H 0.25691 0.83847 0.03216 0.0
H234 H 0.25312 0.87873 0.99352 0.0
H235 H 0.24052 0.85179 0.98612 0.0
H236 H 0.1813 0.78549 0.95428 0.0
H237 H 0.16771 0.75592 0.99055 0.0
H238 H 0.19503 0.75925 0.00286 0.0
H239 H 0.20871 0.78885 0.96667 0.0
C240 C 0.75527 0.19122 0.34298 0.0
C241 C 0.76479 0.18066 0.35011 0.0
C242 C 0.74678 0.15818 0.33765 0.0
C243 C 0.76061 0.1643 0.34745 0.0
C244 C 0.73722 0.16884 0.33058 0.0
C245 C 0.74147 0.18525 0.33322 0.0
U246 U 0.78146 0.22494 0.36626 0.0
O247 O 0.79368 0.24678 0.35907 0.0
O248 O 0.77665 0.24825 0.37703 0.0
C249 C 0.78595 0.25605 0.3682 0.0
C250 C 0.75971 0.20843 0.34599 0.0
C251 C 0.7797 0.26974 0.36118 0.0
C252 C 0.75782 0.28505 0.35378 0.0
C253 C 0.76333 0.27088 0.35822 0.0
C254 C 0.78498 0.29673 0.35437 0.0
C255 C 0.7686 0.29828 0.35226 0.0
C256 C 0.79045 0.28261 0.35882 0.0
C257 C 0.81205 0.21524 0.39831 0.0
C258 C 0.83243 0.23531 0.41121 0.0
C259 C 0.82716 0.21057 0.42279 0.0
C260 C 0.8154 0.20544 0.41033 0.0
C261 C 0.8358 0.22559 0.42341 0.0
C262 C 0.8206 0.23022 0.39883 0.0
C263 C 0.79925 0.20999 0.38561 0.0
O264 O 0.75668 0.21481 0.35994 0.0
O265 O 0.77393 0.21323 0.34228 0.0
O266 O 0.80259 0.21236 0.37114 0.0
O267 O 0.78517 0.21398 0.38862 0.0
H268 H 0.77544 0.1851 0.35781 0.0
H269 H 0.76808 0.15644 0.35326 0.0
H270 H 0.72657 0.16448 0.32288 0.0
H271 H 0.73398 0.19325 0.32765 0.0
H272 H 0.74514 0.28588 0.35232 0.0
H273 H 0.75479 0.26107 0.35993 0.0
H274 H 0.79358 0.3066 0.35302 0.0
H275 H 0.80313 0.28196 0.36099 0.0
H276 H 0.83899 0.24684 0.41115 0.0
H277 H 0.82929 0.20287 0.43208 0.0
H278 H 0.80879 0.1939 0.41017 0.0
H279 H 0.81811 0.23799 0.38968 0.0
C280 C 0.63185 0.72024 0.97965 0.0
C281 C 0.62125 0.7314 0.97585 0.0
C282 C 0.64317 0.7522 0.97769 0.0
C283 C 0.62686 0.74718 0.97477 0.0
C284 C 0.65376 0.74105 0.98169 0.0
C285 C 0.64814 0.72516 0.9826 0.0
U286 U 0.59854 0.6918 0.98926 0.0
O287 O 0.58724 0.66913 0.97695 0.0
O288 O 0.59758 0.67024 0.00173 0.0
C289 C 0.59063 0.6612 0.98919 0.0
C290 C 0.62578 0.70367 0.98106 0.0
C291 C 0.59694 0.64587 0.98569 0.0
C292 C 0.61884 0.62972 0.98251 0.0
C293 C 0.61321 0.64468 0.98488 0.0
C294 C 0.59193 0.61717 0.98134 0.0
C295 C 0.60826 0.61579 0.98099 0.0
C296 C 0.58635 0.63207 0.98369 0.0
C297 C 0.56179 0.70956 0.00224 0.0
C298 C 0.53726 0.69304 0.00389 0.0
C299 C 0.53912 0.72131 0.01198 0.0
C300 C 0.55485 0.72285 0.00832 0.0
C301 C 0.53004 0.70643 0.00956 0.0
C302 C 0.55301 0.6946 1.00028 0.0
C303 C 0.57798 0.71148 0.99751 0.0
O304 O 0.62383 0.70026 0.9956 0.0
O305 O 0.61374 0.69792 0.97069 0.0
O306 O 0.57938 0.70637 0.98268 0.0
O307 O 0.58908 0.70726 0.0076 0.0
H308 H 0.60859 0.72795 0.97379 0.0
H309 H 0.61839 0.75554 0.97194 0.0
H310 H 0.66639 0.74459 0.98397 0.0
H311 H 0.65647 0.71675 0.98567 0.0
H312 H 0.63149 0.62904 0.9824 0.0
H313 H 0.62155 0.65526 0.98638 0.0
H314 H 0.58345 0.60671 0.97994 0.0
H315 H 0.57373 0.63279 0.98419 0.0
H316 H 0.53058 0.68146 0.00169 0.0
H317 H 0.534 0.7318 0.01654 0.0
H318 H 0.56153 0.73446 0.00999 0.0
H319 H 0.55824 0.68419 0.99563 0.0
C320 C 0.6324 0.34328 0.3023 0.0
C321 C 0.62458 0.35197 0.31348 0.0
C322 C 0.63108 0.3339 0.3332 0.0
C323 C 0.62391 0.34734 0.32877 0.0
C324 C 0.63899 0.32524 0.32196 0.0
C325 C 0.63962 0.3299 0.3066 0.0
U326 U 0.62326 0.37368 0.27451 0.0
O327 O 0.63704 0.38491 0.25705 0.0
O328 O 0.61363 0.37195 0.24947 0.0
C329 C 0.62647 0.37948 0.24508 0.0
C330 C 0.63312 0.34845 0.28631 0.0
C331 C 0.63274 0.37209 0.23092 0.0
C332 C 0.64061 0.34913 0.21545 0.0
C333 C 0.63551 0.35601 0.22949 0.0
C334 C 0.64058 0.37444 0.2044 0.0
C335 C 0.64307 0.35825 0.20268 0.0
C336 C 0.63546 0.38127 0.21838 0.0
C337 C 0.6028 0.40867 0.29244 0.0
C338 C 0.59072 0.42826 0.27745 0.0
C339 C 0.59473 0.43245 0.30618 0.0
C340 C 0.60138 0.41804 0.30657 0.0
C341 C 0.58934 0.43775 0.29163 0.0
C342 C 0.59746 0.41384 0.27785 0.0
C343 C 0.60986 0.39358 0.2933 0.0
O344 O 0.61926 0.34835 0.27805 0.0
O345 O 0.64248 0.36153 0.28571 0.0
O346 O 0.62526 0.39432 0.29246 0.0
O347 O 0.602 0.38115 0.28482 0.0
H348 H 0.61904 0.36242 0.31039 0.0
H349 H 0.61797 0.35443 0.33719 0.0
H350 H 0.64452 0.31478 0.32497 0.0
H351 H 0.64573 0.32307 0.2981 0.0
H352 H 0.64256 0.33667 0.21458 0.0
H353 H 0.63352 0.34876 0.23911 0.0
H354 H 0.64209 0.38175 0.19475 0.0
H355 H 0.63334 0.39369 0.21928 0.0
H356 H 0.58682 0.4321 0.26605 0.0
H357 H 0.59366 0.43939 0.31731 0.0
H358 H 0.60541 0.4142 0.31794 0.0
H359 H 0.59854 0.40677 0.2668 0.0
C360 C 0.00506 0.27851 0.76676 0.0
C361 C 0.99335 0.27148 0.75485 0.0
C362 C 0.00571 0.28617 0.73514 0.0
C363 C 0.99363 0.27532 0.73925 0.0
C364 C 0.01746 0.29316 0.74712 0.0
C365 C 0.0171 0.28941 0.76281 0.0
U366 U 0.99464 0.24593 0.79157 0.0
O367 O 0.00753 0.23621 0.81151 0.0
O368 O 0.98425 0.2449 0.8143 0.0
C369 C 0.99663 0.23907 0.82115 0.0
C370 C 0.00539 0.2733 0.78284 0.0
C371 C 0.00231 0.24616 0.8373 0.0
C372 C 0.0193 0.26524 0.85593 0.0
C373 C 0.01393 0.25919 0.84026 0.0
C374 C 0.00132 0.24541 0.86566 0.0
C375 C 0.01314 0.2583 0.86881 0.0
C376 C 0.996 0.23941 0.85008 0.0
C377 C 0.97439 0.20776 0.76828 0.0
C378 C 0.97115 0.18259 0.77964 0.0
C379 C 0.96046 0.1846 0.75254 0.0
C380 C 0.96603 0.2007 0.75408 0.0
C381 C 0.96324 0.17528 0.76519 0.0
C382 C 0.97669 0.19872 0.78117 0.0
C383 C 0.98135 0.22429 0.76915 0.0
O384 O 0.99143 0.27085 0.78823 0.0
O385 O 0.0145 0.26187 0.78527 0.0
O386 O 0.99673 0.22654 0.77322 0.0
O387 O 0.97343 0.23492 0.77633 0.0
H388 H 0.98414 0.26274 0.75754 0.0
H389 H 0.9846 0.26939 0.73033 0.0
H390 H 0.02697 0.3015 0.74437 0.0
H391 H 0.02638 0.29479 0.77178 0.0
H392 H 0.02845 0.27514 0.85796 0.0
H393 H 0.01891 0.26458 0.8305 0.0
H394 H 0.99605 0.24 0.87525 0.0
H395 H 0.98695 0.22941 0.848 0.0
H396 H 0.97362 0.17572 0.78955 0.0
H397 H 0.95419 0.1794 0.74135 0.0
H398 H 0.96409 0.20755 0.74405 0.0
H399 H 0.98313 0.20404 0.79225 0.0
C400 C 0.34814 0.75509 0.19094 0.0
C401 C 0.35441 0.76544 0.1806 0.0
C402 C 0.34328 0.74714 0.1578 0.0
C403 C 0.35196 0.76153 0.16419 0.0
C404 C 0.33702 0.73679 0.16824 0.0
C405 C 0.33943 0.74076 0.18469 0.0
U406 U 0.37062 0.78129 0.22509 0.0
O407 O 0.36315 0.79235 0.24733 0.0
O408 O 0.38199 0.77626 0.24808 0.0
C409 C 0.37271 0.78471 0.25624 0.0
C410 C 0.35112 0.75913 0.2082 0.0
C411 C 0.36578 0.77722 0.26932 0.0
C412 C 0.35577 0.75389 0.28132 0.0
C413 C 0.36088 0.76089 0.26813 0.0
C414 C 0.35974 0.77958 0.29677 0.0
C415 C 0.35538 0.76313 0.29588 0.0
C416 C 0.3649 0.78654 0.28363 0.0
C417 C 0.40098 0.81373 0.21506 0.0
C418 C 0.4204 0.82852 0.23496 0.0
C419 C 0.4168 0.83702 0.20851 0.0
C420 C 0.40511 0.82435 0.20408 0.0
C421 C 0.4246 0.83923 0.22398 0.0
C422 C 0.40864 0.81591 0.23055 0.0
C423 C 0.3887 0.80046 0.21021 0.0
O424 O 0.36531 0.7566 0.21437 0.0
O425 O 0.34678 0.77296 0.21345 0.0
O426 O 0.37423 0.80314 0.21322 0.0
O427 O 0.39249 0.78647 0.21379 0.0
H428 H 0.36131 0.77651 0.18525 0.0
H429 H 0.35713 0.76964 0.1565 0.0
H430 H 0.33016 0.72568 0.16367 0.0
H431 H 0.33455 0.73262 0.19252 0.0
H432 H 0.35233 0.74122 0.28021 0.0
H433 H 0.36137 0.7535 0.25713 0.0
H434 H 0.35981 0.78702 0.30783 0.0
H435 H 0.36866 0.79916 0.28477 0.0
H436 H 0.42603 0.83005 0.24703 0.0
H437 H 0.41986 0.84501 0.19977 0.0
H438 H 0.3993 0.82282 0.19208 0.0
H439 H 0.4055 0.80787 0.23922 0.0
C440 C 0.98457 0.6373 0.71957 0.0
C441 C 0.99119 0.62957 0.73212 0.0
C442 C 0.98369 0.6499 0.75133 0.0
C443 C 0.99079 0.63583 0.74784 0.0
C444 C 0.97718 0.65766 0.73869 0.0
C445 C 0.97763 0.6514 0.72293 0.0
U446 U 0.98999 0.60181 0.69161 0.0
O447 O 0.97574 0.59072 0.66982 0.0
O448 O 0.0009 0.59906 0.66918 0.0
C449 C 0.98755 0.59285 0.66102 0.0
C450 C 0.98425 0.63016 0.70311 0.0
C451 C 0.98372 0.59906 0.6457 0.0
C452 C 0.98128 0.6209 0.62934 0.0
C453 C 0.98381 0.6154 0.64434 0.0
C454 C 0.97811 0.59376 0.61711 0.0
C455 C 0.9787 0.61013 0.61554 0.0
C456 C 0.98061 0.5883 0.63205 0.0
C457 C 0.00172 0.56463 0.70919 0.0
C458 C 0.0088 0.54212 0.69252 0.0
C459 C 0.00188 0.53877 0.71914 0.0
C460 C 0.99961 0.55487 0.7214 0.0
C461 C 0.00634 0.53214 0.7046 0.0
C462 C 0.00643 0.5582 0.69476 0.0
C463 C 0.99809 0.58122 0.7113 0.0
O464 O 0.99813 0.62701 0.69859 0.0
O465 O 0.97303 0.61845 0.69895 0.0
O466 O 0.98326 0.58344 0.70708 0.0
O467 O 0.00838 0.59172 0.70637 0.0
H468 H 0.99644 0.61855 0.72975 0.0
H469 H 0.99568 0.62941 0.75728 0.0
H470 H 0.97174 0.66858 0.74098 0.0
H471 H 0.97241 0.65747 0.71337 0.0
H472 H 0.98192 0.63359 0.62851 0.0
H473 H 0.98619 0.62388 0.65479 0.0
H474 H 0.9759 0.58515 0.60675 0.0
H475 H 0.98043 0.57563 0.63291 0.0
H476 H 0.01241 0.53747 0.68125 0.0
H477 H 0.9996 0.53141 0.72861 0.0
H478 H 0.99584 0.55963 0.73256 0.0
H479 H 0.00804 0.56556 0.68515 0.0
C480 C 0.68902 0.36558 0.65548 0.0
C481 C 0.67726 0.37268 0.64676 0.0
C482 C 0.65843 0.36632 0.66576 0.0
C483 C 0.66211 0.37305 0.65185 0.0
C484 C 0.67025 0.35911 0.6744 0.0
C485 C 0.68544 0.35877 0.6693 0.0
U486 U 0.71662 0.37601 0.6251 0.0
O487 O 0.74153 0.38606 0.6271 0.0
O488 O 0.73439 0.36274 0.61373 0.0
C489 C 0.74618 0.37341 0.61946 0.0
C490 C 0.70494 0.36535 0.65006 0.0
C491 C 0.76053 0.36727 0.62663 0.0
C492 C 0.77904 0.36415 0.64946 0.0
C493 C 0.76455 0.36875 0.64314 0.0
C494 C 0.78531 0.35593 0.62289 0.0
C495 C 0.78973 0.35797 0.63936 0.0
C496 C 0.77089 0.36057 0.61661 0.0
C497 C 0.69937 0.39705 0.59049 0.0
C498 C 0.71523 0.41021 0.5722 0.0
C499 C 0.6867 0.40512 0.56617 0.0
C500 C 0.68566 0.3981 0.58034 0.0
C501 C 0.70149 0.41127 0.56195 0.0
C502 C 0.71419 0.40309 0.58633 0.0
C503 C 0.69794 0.38962 0.60532 0.0
O504 O 0.70559 0.35634 0.63677 0.0
O505 O 0.71293 0.3794 0.65043 0.0
O506 O 0.70602 0.39728 0.61809 0.0
O507 O 0.69887 0.37422 0.6043 0.0
H508 H 0.67981 0.37793 0.636 0.0
H509 H 0.65324 0.37848 0.64478 0.0
H510 H 0.66784 0.35396 0.68524 0.0
H511 H 0.69441 0.35325 0.67616 0.0
H512 H 0.7821 0.36599 0.66218 0.0
H513 H 0.75669 0.37384 0.65113 0.0
H514 H 0.79311 0.35094 0.6148 0.0
H515 H 0.76797 0.35925 0.60384 0.0
H516 H 0.7268 0.41468 0.56917 0.0
H517 H 0.67589 0.40591 0.55861 0.0
H518 H 0.67413 0.39351 0.58338 0.0
H519 H 0.72493 0.40227 0.594 0.0
C520 C 0.79851 0.66033 0.24687 0.0
C521 C 0.80862 0.65378 0.23645 0.0
C522 C 0.83166 0.66421 0.25472 0.0
C523 C 0.82504 0.65574 0.24031 0.0
C524 C 0.82147 0.67068 0.2652 0.0
C525 C 0.80499 0.66877 0.26128 0.0
U526 U 0.7641 0.6382 0.22099 0.0
O527 O 0.74074 0.62774 0.22597 0.0
O528 O 0.74233 0.64601 0.20928 0.0
C529 C 0.73302 0.63693 0.21702 0.0
C530 C 0.78124 0.65789 0.2428 0.0
C531 C 0.71995 0.64437 0.224 0.0
C532 C 0.70765 0.65504 0.24685 0.0
C533 C 0.72098 0.64985 0.24019 0.0
C534 C 0.69244 0.65009 0.22107 0.0
C535 C 0.69313 0.65489 0.23742 0.0
C536 C 0.70572 0.64486 0.21445 0.0
C537 C 0.77286 0.60607 0.19003 0.0
C538 C 0.75211 0.59319 0.17035 0.0
C539 C 0.77689 0.58146 0.17474 0.0
C540 C 0.78246 0.59397 0.18632 0.0
C541 C 0.7616 0.58088 0.16667 0.0
C542 C 0.75765 0.60562 0.18198 0.0
C543 C 0.77847 0.61867 0.2028 0.0
O544 O 0.77632 0.66193 0.22874 0.0
O545 O 0.77456 0.64403 0.24573 0.0
O546 O 0.77463 0.61566 0.21693 0.0
O547 O 0.77626 0.63321 0.19958 0.0
H548 H 0.8038 0.64705 0.22535 0.0
H549 H 0.83254 0.6504 0.23211 0.0
H550 H 0.82624 0.67734 0.27635 0.0
H551 H 0.79733 0.67383 0.26948 0.0
H552 H 0.70861 0.65884 0.25945 0.0
H553 H 0.73192 0.64965 0.24775 0.0
H554 H 0.68141 0.64962 0.2135 0.0
H555 H 0.70471 0.64064 0.20193 0.0
H556 H 0.74039 0.59327 0.1642 0.0
H557 H 0.78444 0.57209 0.17235 0.0
H558 H 0.79418 0.59408 0.19255 0.0
H559 H 0.75002 0.61483 0.18477 0.0
C560 C 0.2819 0.01572 0.3562 0.0
C561 C 0.26881 0.01207 0.36461 0.0
C562 C 0.25092 0.0191 0.34294 0.0
C563 C 0.25347 0.01373 0.35805 0.0
C564 C 0.26406 0.02233 0.33435 0.0
C565 C 0.27946 0.02071 0.34098 0.0
U566 U 0.30762 0.00954 0.39277 0.0
O567 O 0.32945 0.99788 0.39693 0.0
O568 O 0.32929 0.02319 0.40484 0.0
C569 C 0.33783 0.01113 0.4031 0.0
C570 C 0.29803 0.01523 0.36384 0.0
C571 C 0.35312 0.01455 0.39673 0.0
C572 C 0.36876 0.01814 0.37456 0.0
C573 C 0.35399 0.01553 0.38045 0.0
C574 C 0.38184 0.0192 0.40125 0.0
C575 C 0.38286 0.01986 0.38489 0.0
C576 C 0.36709 0.01655 0.4071 0.0
C577 C 0.28651 0.99941 0.42869 0.0
C578 C 0.30077 0.99992 0.45483 0.0
C579 C 0.27242 0.99218 0.45095 0.0
C580 C 0.27241 0.99428 0.43484 0.0
C581 C 0.28655 0.99524 0.46119 0.0
C582 C 0.30075 0.00198 0.43869 0.0
C583 C 0.28612 0.00266 0.41202 0.0
O584 O 0.30233 0.02652 0.37546 0.0
O585 O 0.30153 0.00115 0.36747 0.0
O586 O 0.29156 0.99188 0.40243 0.0
O587 O 0.29122 0.01728 0.40976 0.0
H588 H 0.27049 0.00821 0.37641 0.0
H589 H 0.24359 0.01092 0.36486 0.0
H590 H 0.26248 0.0266 0.32274 0.0
H591 H 0.28946 0.02366 0.33438 0.0
H592 H 0.36914 0.01877 0.36193 0.0
H593 H 0.34328 0.0141 0.37229 0.0
H594 H 0.39247 0.02027 0.40949 0.0
H595 H 0.3666 0.01582 0.41972 0.0
H596 H 0.31182 0.00256 0.4624 0.0
H597 H 0.26132 0.98834 0.45544 0.0
H598 H 0.26134 0.99217 0.42722 0.0
H599 H 0.31176 0.00594 0.43409 0.0
C600 C 0.23826 0.01809 0.72856 0.0
C601 C 0.25029 0.01836 0.74107 0.0
C602 C 0.27043 0.02055 0.72262 0.0
C603 C 0.26621 0.0195 0.73812 0.0
C604 C 0.25837 0.0205 0.71011 0.0
C605 C 0.24236 0.01925 0.71307 0.0
U606 U 0.2102 0.02085 0.75955 0.0
O607 O 0.1875 0.03128 0.76106 0.0
O608 O 0.18893 0.00601 0.76416 0.0
C609 C 0.17972 0.01756 0.76287 0.0
C610 C 0.22157 0.01695 0.73201 0.0
C611 C 0.16426 0.01359 0.7533 0.0
C612 C 0.14579 0.99561 0.73491 0.0
C613 C 0.16112 0.9999 0.74246 0.0
C614 C 0.13673 0.01892 0.74848 0.0
C615 C 0.13338 0.00498 0.73799 0.0
C616 C 0.15199 0.02314 0.75606 0.0
C617 C 0.231 0.03137 0.80199 0.0
C618 C 0.22353 0.04636 0.82546 0.0
C619 C 0.2426 0.027 0.82821 0.0
C620 C 0.24117 0.02346 0.81176 0.0
C621 C 0.23395 0.03862 0.83524 0.0
C622 C 0.22201 0.04272 0.80896 0.0
C623 C 0.23079 0.02815 0.78463 0.0
O624 O 0.21736 0.00504 0.7401 0.0
O625 O 0.21668 0.03043 0.73752 0.0
O626 O 0.22515 0.03879 0.77594 0.0
O627 O 0.22627 0.01344 0.7787 0.0
H628 H 0.24736 0.01766 0.75314 0.0
H629 H 0.27525 0.01966 0.748 0.0
H630 H 0.26131 0.02113 0.69802 0.0
H631 H 0.23322 0.01913 0.7033 0.0
H632 H 0.14362 0.9849 0.72677 0.0
H633 H 0.17039 0.99232 0.74008 0.0
H634 H 0.12741 0.02628 0.7513 0.0
H635 H 0.15411 0.03367 0.76446 0.0
H636 H 0.21662 0.05527 0.83057 0.0
H637 H 0.25089 0.021 0.8354 0.0
H638 H 0.24829 0.01475 0.80662 0.0
H639 H 0.21402 0.04896 0.80169 0.0
C640 C 0.65657 0.68726 0.36804 0.0
C641 C 0.64778 0.67536 0.37488 0.0
C642 C 0.66644 0.65643 0.36772 0.0
C643 C 0.65266 0.66009 0.37473 0.0
C644 C 0.6751 0.66839 0.36071 0.0
C645 C 0.6702 0.6837 0.36089 0.0
U646 U 0.62756 0.71578 0.38054 0.0
O647 O 0.63111 0.7404 0.39173 0.0
O648 O 0.61693 0.73477 0.36863 0.0
C649 C 0.62353 0.74595 0.37958 0.0
C650 C 0.65161 0.70341 0.36865 0.0
C651 C 0.63149 0.76027 0.37402 0.0
C652 C 0.6449 0.77397 0.35429 0.0
C653 C 0.63779 0.75998 0.35928 0.0
C654 C 0.6397 0.78856 0.37881 0.0
C655 C 0.64594 0.78841 0.36404 0.0
C656 C 0.63253 0.77464 0.38372 0.0
C657 C 0.59303 0.6998 0.40216 0.0
C658 C 0.5703 0.71436 0.40677 0.0
C659 C 0.57431 0.69086 0.4202 0.0
C660 C 0.5881 0.68904 0.41271 0.0
C661 C 0.56516 0.70348 0.41724 0.0
C662 C 0.58414 0.71257 0.39934 0.0
C663 C 0.60743 0.69755 0.39422 0.0
O664 O 0.6382 0.7048 0.36012 0.0
O665 O 0.65259 0.71092 0.38298 0.0
O666 O 0.62066 0.70482 0.40172 0.0
O667 O 0.60618 0.69888 0.37887 0.0
H668 H 0.63717 0.67791 0.38041 0.0
H669 H 0.64559 0.65111 0.38002 0.0
H670 H 0.68584 0.66601 0.35535 0.0
H671 H 0.67713 0.69278 0.35559 0.0
H672 H 0.6497 0.77348 0.3429 0.0
H673 H 0.6372 0.749 0.35161 0.0
H674 H 0.64011 0.79952 0.38649 0.0
H675 H 0.62769 0.77513 0.3951 0.0
H676 H 0.56345 0.72409 0.40405 0.0
H677 H 0.57085 0.68241 0.42837 0.0
H678 H 0.59491 0.67919 0.41511 0.0
H679 H 0.58782 0.72105 0.39128 0.0
C680 C 0.72724 0.2346 0.01873 0.0
C681 C 0.72973 0.24332 0.0338 0.0
C682 C 0.72037 0.26657 0.02265 0.0
C683 C 0.72624 0.25911 0.03574 0.0
C684 C 0.71749 0.25774 0.00768 0.0
C685 C 0.72082 0.2419 0.00577 0.0
U686 U 0.76072 0.20861 0.02033 0.0
O687 O 0.7633 0.18483 0.02787 0.0
O688 O 0.76729 0.18964 0.00348 0.0
C689 C 0.76642 0.17899 0.01375 0.0
C690 C 0.73251 0.21849 0.01611 0.0
C691 C 0.75813 0.16338 0.00774 0.0
C692 C 0.73414 0.14519 0.00146 0.0
C693 C 0.74152 0.16049 0.00646 0.0
C694 C 0.75991 0.13574 0.99873 0.0
C695 C 0.74328 0.13259 0.99765 0.0
C696 C 0.76722 0.15097 0.0037 0.0
C697 C 0.80187 0.23061 0.03497 0.0
C698 C 0.82513 0.22622 0.05236 0.0
C699 C 0.8283 0.24031 0.02914 0.0
C700 C 0.81188 0.23856 0.02535 0.0
C701 C 0.83511 0.23426 0.04274 0.0
C702 C 0.80866 0.22438 0.04851 0.0
C703 C 0.78447 0.22986 0.03118 0.0
O704 O 0.74169 0.21661 0.00456 0.0
O705 O 0.73746 0.21195 0.02889 0.0
O706 O 0.7755 0.22227 0.04046 0.0
O707 O 0.77927 0.22704 0.01604 0.0
H708 H 0.73475 0.23812 0.04405 0.0
H709 H 0.72862 0.26564 0.0474 0.0
H710 H 0.71271 0.26312 0.99743 0.0
H711 H 0.71877 0.23546 0.99405 0.0
H712 H 0.72131 0.14321 0.00064 0.0
H713 H 0.73431 0.16999 0.00951 0.0
H714 H 0.76736 0.12632 0.99621 0.0
H715 H 0.78007 0.15298 0.00469 0.0
H716 H 0.83006 0.22138 0.06288 0.0
H717 H 0.83564 0.24682 0.02165 0.0
H718 H 0.80697 0.24369 0.01499 0.0
H719 H 0.80128 0.21828 0.05625 0.0
C720 C 0.24062 0.79898 0.66647 0.0
C721 C 0.23249 0.80829 0.6563 0.0
C722 C 0.24626 0.83235 0.67079 0.0
C723 C 0.23529 0.82482 0.65842 0.0
C724 C 0.25416 0.82298 0.68119 0.0
C725 C 0.25138 0.80638 0.679 0.0
U726 U 0.21899 0.7634 0.64208 0.0
O727 O 0.2269 0.74144 0.63126 0.0
O728 O 0.20894 0.74017 0.6483 0.0
C729 C 0.2182 0.73233 0.63954 0.0
C730 C 0.23806 0.7816 0.66362 0.0
C731 C 0.22611 0.71965 0.64679 0.0
C732 C 0.25003 0.70798 0.65569 0.0
C733 C 0.24258 0.72107 0.651 0.0
C734 C 0.22454 0.69221 0.6529 0.0
C735 C 0.24113 0.69329 0.65632 0.0
C736 C 0.21712 0.70526 0.64815 0.0
C737 C 0.18904 0.77074 0.60829 0.0
C738 C 0.17853 0.74976 0.58773 0.0
C739 C 0.16684 0.77476 0.58953 0.0
C740 C 0.17773 0.78039 0.6026 0.0
C741 C 0.16712 0.75938 0.58192 0.0
C742 C 0.18934 0.75536 0.60084 0.0
C743 C 0.20049 0.77678 0.62195 0.0
O744 O 0.22395 0.77537 0.66634 0.0
O745 O 0.24261 0.77571 0.65011 0.0
O746 O 0.21538 0.77479 0.62003 0.0
O747 O 0.19639 0.77323 0.63584 0.0
H748 H 0.22408 0.80275 0.64659 0.0
H749 H 0.22885 0.83171 0.65037 0.0
H750 H 0.26275 0.82845 0.69075 0.0
H751 H 0.25776 0.79934 0.68695 0.0
H752 H 0.26281 0.70923 0.65842 0.0
H753 H 0.24976 0.73211 0.65014 0.0
H754 H 0.21734 0.68105 0.65308 0.0
H755 H 0.20441 0.70392 0.64491 0.0
H756 H 0.17924 0.73794 0.58205 0.0
H757 H 0.15806 0.78239 0.58554 0.0
H758 H 0.1773 0.79226 0.60828 0.0
H759 H 0.198 0.74773 0.60511 0.0
C760 C 0.35832 0.28334 0.02008 0.0
C761 C 0.36565 0.27018 0.01422 0.0
C762 C 0.3449 0.25225 0.02288 0.0
C763 C 0.35899 0.25478 0.01557 0.0
C764 C 0.33754 0.2655 0.02866 0.0
C765 C 0.34421 0.28094 0.02726 0.0
U766 U 0.39407 0.30947 0.01193 0.0
O767 O 0.39695 0.33104 0.99957 0.0
O768 O 0.4062 0.33158 0.02463 0.0
C769 C 0.40384 0.33973 0.01235 0.0
C770 C 0.36584 0.29948 0.01929 0.0
C771 C 0.39801 0.3553 0.01562 0.0
C772 C 0.37798 0.37193 0.02421 0.0
C773 C 0.38333 0.35688 0.02162 0.0
C774 C 0.40202 0.38384 0.01496 0.0
C775 C 0.38722 0.38556 0.02074 0.0
C776 C 0.40735 0.36885 0.01243 0.0
C777 C 0.43009 0.29031 0.99986 0.0
C778 C 0.45239 0.30635 0.99154 0.0
C779 C 0.45581 0.28009 0.9995 0.0
C780 C 0.43981 0.27812 0.00223 0.0
C781 C 0.46235 0.29433 0.99432 0.0
C782 C 0.43642 0.30439 0.99437 0.0
C783 C 0.41372 0.28869 0.00415 0.0
O784 O 0.37799 0.30384 0.02997 0.0
O785 O 0.36857 0.30301 0.00497 0.0
O786 O 0.40297 0.29328 0.99388 0.0
O787 O 0.41214 0.29379 0.01893 0.0
H788 H 0.37666 0.27183 0.00878 0.0
H789 H 0.3651 0.24487 0.01123 0.0
H790 H 0.32662 0.26394 0.03424 0.0
H791 H 0.33845 0.29098 0.0319 0.0
H792 H 0.36647 0.37287 0.02855 0.0
H793 H 0.37597 0.34648 0.02412 0.0
H794 H 0.40951 0.39411 0.01239 0.0
H795 H 0.41875 0.36783 0.00786 0.0
H796 H 0.45697 0.31737 0.98737 0.0
H797 H 0.46317 0.27069 0.00201 0.0
H798 H 0.43514 0.26723 0.00661 0.0
H799 H 0.4291 0.31399 0.99256 0.0
C800 C 0.36155 0.65225 0.68438 0.0
C801 C 0.36215 0.64126 0.67112 0.0
C802 C 0.36107 0.66241 0.65365 0.0
C803 C 0.36183 0.64629 0.65588 0.0
C804 C 0.36034 0.67335 0.66697 0.0
C805 C 0.36055 0.66829 0.6822 0.0
U806 U 0.37536 0.62328 0.71255 0.0
O807 O 0.38739 0.62708 0.73682 0.0
O808 O 0.36437 0.61266 0.73207 0.0
C809 C 0.37553 0.61954 0.7429 0.0
C810 C 0.36289 0.6472 0.70052 0.0
C811 C 0.37038 0.62752 0.75752 0.0
C812 C 0.34979 0.63408 0.77449 0.0
C813 C 0.35423 0.62761 0.75999 0.0
C814 C 0.37748 0.64077 0.78416 0.0
C815 C 0.36137 0.64062 0.78678 0.0
C816 C 0.38192 0.63423 0.76974 0.0
C817 C 0.39666 0.58887 0.69558 0.0
C818 C 0.40577 0.56868 0.71171 0.0
C819 C 0.41135 0.5682 0.6842 0.0
C820 C 0.40345 0.58178 0.68265 0.0
C821 C 0.41258 0.56146 0.69874 0.0
C822 C 0.39789 0.5823 0.71015 0.0
C823 C 0.38843 0.60314 0.69371 0.0
O824 O 0.35452 0.6338 0.70235 0.0
O825 O 0.37746 0.64828 0.70746 0.0
O826 O 0.39604 0.61645 0.70071 0.0
O827 O 0.37325 0.60171 0.69579 0.0
H828 H 0.36314 0.62884 0.67257 0.0
H829 H 0.36262 0.63761 0.64591 0.0
H830 H 0.3596 0.68582 0.66562 0.0
H831 H 0.36017 0.67694 0.69231 0.0
H832 H 0.33728 0.6339 0.77611 0.0
H833 H 0.34502 0.62247 0.75086 0.0
H834 H 0.38671 0.64547 0.79346 0.0
H835 H 0.39444 0.63413 0.76826 0.0
H836 H 0.40666 0.56388 0.7231 0.0
H837 H 0.41626 0.56282 0.67393 0.0
H838 H 0.40258 0.58672 0.67133 0.0
H839 H 0.39277 0.5877 0.72028 0.0
C840 C 0.0211 0.73045 0.23519 0.0
C841 C 0.02349 0.74241 0.24793 0.0
C842 C 0.0247 0.72252 0.26675 0.0
C843 C 0.02521 0.73849 0.26356 0.0
C844 C 0.02265 0.71056 0.25391 0.0
C845 C 0.02081 0.71451 0.23825 0.0
U846 U 0.02431 0.7624 0.20791 0.0
O847 O 0.03236 0.76355 0.18414 0.0
O848 O 0.00812 0.76875 0.18829 0.0
C849 C 0.01838 0.76658 0.17779 0.0
C850 C 0.01898 0.73476 0.21881 0.0
C851 C 0.01213 0.75761 0.1624 0.0
C852 C 0.01577 0.73993 0.13908 0.0
C853 C 0.02093 0.74663 0.15455 0.0
C854 C 0.99263 0.75457 0.13922 0.0
C855 C 0.00173 0.74409 0.13109 0.0
C856 C 0.99781 0.7613 0.15465 0.0
C857 C 0.04039 0.80351 0.22844 0.0
C858 C 0.04525 0.82689 0.21447 0.0
C859 C 0.04857 0.82911 0.24325 0.0
C860 C 0.04426 0.81284 0.24294 0.0
C861 C 0.04912 0.83635 0.22903 0.0
C862 C 0.04092 0.81057 0.21418 0.0
C863 C 0.03573 0.78649 0.22854 0.0
O864 O 0.00781 0.74423 0.2162 0.0
O865 O 0.03219 0.73916 0.21276 0.0
O866 O 0.04472 0.77693 0.22131 0.0
O867 O 0.02047 0.78204 0.2254 0.0
H868 H 0.02393 0.75482 0.24579 0.0
H869 H 0.02699 0.74798 0.27316 0.0
H870 H 0.02212 0.69814 0.25597 0.0
H871 H 0.01904 0.70513 0.22854 0.0
H872 H 0.02317 0.73205 0.13313 0.0
H873 H 0.03208 0.7436 0.16011 0.0
H874 H 0.98165 0.75786 0.13353 0.0
H875 H 0.99083 0.76979 0.16036 0.0
H876 H 0.04566 0.83208 0.20332 0.0
H877 H 0.05115 0.83607 0.25467 0.0
H878 H 0.04383 0.80755 0.25405 0.0
H879 H 0.03794 0.80347 0.20287 0.0
C880 C 0.67162 0.24258 0.79806 0.0
C881 C 0.66513 0.23179 0.80785 0.0
C882 C 0.67597 0.24921 0.83136 0.0
C883 C 0.66731 0.23504 0.82432 0.0
C884 C 0.68276 0.25986 0.8215 0.0
C885 C 0.68056 0.25658 0.80494 0.0
U886 U 0.64795 0.21793 0.76398 0.0
O887 O 0.63478 0.22384 0.74227 0.0
O888 O 0.65387 0.20813 0.74055 0.0
C889 C 0.64357 0.21607 0.73289 0.0
C890 C 0.66818 0.2395 0.78075 0.0
C891 C 0.64906 0.22424 0.71946 0.0
C892 C 0.65041 0.24729 0.70443 0.0
C893 C 0.64755 0.24047 0.7184 0.0
C894 C 0.65731 0.22209 0.69274 0.0
C895 C 0.65491 0.23807 0.69131 0.0
C896 C 0.65433 0.21524 0.70666 0.0
C897 C 0.61826 0.18525 0.77464 0.0
C898 C 0.5981 0.17113 0.75507 0.0
C899 C 0.6007 0.16356 0.78195 0.0
C900 C 0.61326 0.17545 0.786 0.0
C901 C 0.59291 0.16135 0.76647 0.0
C902 C 0.6107 0.18297 0.75912 0.0
C903 C 0.631 0.19811 0.77924 0.0
O904 O 0.67228 0.2259 0.77457 0.0
O905 O 0.65381 0.24231 0.77537 0.0
O906 O 0.62715 0.21237 0.77677 0.0
O907 O 0.64501 0.19539 0.77483 0.0
H908 H 0.65815 0.22093 0.80271 0.0
H909 H 0.66214 0.22648 0.83157 0.0
H910 H 0.68938 0.27094 0.82656 0.0
H911 H 0.68555 0.26508 0.79754 0.0
H912 H 0.64864 0.25969 0.70372 0.0
H913 H 0.64358 0.24776 0.72811 0.0
H914 H 0.66062 0.21464 0.68279 0.0
H915 H 0.6555 0.20269 0.70717 0.0
H916 H 0.59248 0.16956 0.743 0.0
H917 H 0.59689 0.15631 0.79101 0.0
H918 H 0.61896 0.17712 0.79805 0.0
H919 H 0.61447 0.19044 0.7502 0.0
C920 C 0.01117 0.36541 0.27625 0.0
C921 C 0.00861 0.37486 0.26374 0.0
C922 C 0.01468 0.35353 0.24482 0.0
C923 C 0.01038 0.36899 0.24817 0.0
C924 C 0.01688 0.34397 0.25738 0.0
C925 C 0.01518 0.34989 0.27299 0.0
U926 U 0.00208 0.39922 0.30472 0.0
O927 O 0.9905 0.40016 0.32681 0.0
O928 O 0.01522 0.4104 0.32708 0.0
C929 C 0.00348 0.40659 0.33551 0.0
C930 C 0.01021 0.37197 0.29269 0.0
C931 C 0.00778 0.39953 0.35037 0.0
C932 C 0.00368 0.37914 0.36831 0.0
C933 C 0.00042 0.38483 0.35355 0.0
C934 C 0.02213 0.40243 0.37673 0.0
C935 C 0.01442 0.38797 0.38017 0.0
C936 C 0.01879 0.40816 0.36201 0.0
C937 C 0.98792 0.43594 0.28811 0.0
C938 C 0.98601 0.4598 0.30555 0.0
C939 C 0.97794 0.45901 0.27736 0.0
C940 C 0.98178 0.44336 0.27518 0.0
C941 C 0.98026 0.46751 0.29254 0.0
C942 C 0.98979 0.44414 0.30335 0.0
C943 C 0.99277 0.41985 0.28558 0.0
O944 O 0.02052 0.3843 0.29762 0.0
O945 O 0.99581 0.3739 0.29653 0.0
O946 O 0.98306 0.40854 0.29002 0.0
O947 O 0.00778 0.41855 0.29004 0.0
H948 H 0.00545 0.38687 0.26606 0.0
H949 H 0.00838 0.37656 0.23874 0.0
H950 H 0.02033 0.33206 0.2552 0.0
H951 H 0.01723 0.34246 0.28253 0.0
H952 H 0.99734 0.36807 0.37059 0.0
H953 H 0.99186 0.37789 0.34482 0.0
H954 H 0.03066 0.40941 0.38546 0.0
H955 H 0.02461 0.41952 0.35982 0.0
H956 H 0.98814 0.46604 0.31735 0.0
H957 H 0.97333 0.46452 0.26714 0.0
H958 H 0.98017 0.43713 0.26335 0.0
H959 H 0.99451 0.43853 0.31348 0.0
H960 H 0.2921 0.55762 0.59636 0.0
H961 H 0.30003 0.50825 0.58958 0.0
H962 H 0.29665 0.53028 0.6365 0.0
H963 H 0.321 0.50808 0.63533 0.0
C964 C 0.31625 0.50031 0.62437 0.0
O965 O 0.30112 0.50392 0.61973 0.0
H966 H 0.32421 0.50258 0.61494 0.0
C967 C 0.2942 0.54656 0.60124 0.0
C968 C 0.29431 0.54572 0.61769 0.0
C969 C 0.29621 0.53316 0.59094 0.0
C970 C 0.29828 0.5187 0.59728 0.0
C971 C 0.29855 0.51774 0.61369 0.0
C972 C 0.2964 0.53117 0.62384 0.0
H973 H 0.30917 0.50831 0.97985 0.0
H974 H 0.29016 0.55344 0.9777 0.0
H975 H 0.32499 0.54679 0.01584 0.0
H976 H 0.30074 0.56814 0.02592 0.0
C977 C 0.29662 0.57144 0.01396 0.0
O978 O 0.30717 0.56704 0.00335 0.0
H979 H 0.28461 0.56511 0.01032 0.0
C980 C 0.30864 0.52046 0.98476 0.0
C981 C 0.31832 0.52638 0.99866 0.0
C982 C 0.29829 0.53 0.97716 0.0
C983 C 0.29799 0.54583 0.98344 0.0
C984 C 0.30753 0.5518 0.99742 0.0
C985 C 0.31759 0.54206 0.00509 0.0
H986 H 0.68888 0.95174 0.37101 0.0
H987 H 0.71025 0.9946 0.35508 0.0
H988 H 0.70777 0.95051 0.32562 0.0
H989 H 0.69652 0.98469 0.31498 0.0
C990 C 0.70957 0.98825 0.31631 0.0
O991 O 0.71722 0.98088 0.32819 0.0
H992 H 0.714 0.98427 0.30487 0.0
C993 C 0.69451 0.95781 0.36199 0.0
C994 C 0.69769 0.94904 0.34801 0.0
C995 C 0.69896 0.97423 0.36472 0.0
C996 C 0.70656 0.98196 0.35316 0.0
C997 C 0.70948 0.97342 0.33902 0.0
C998 C 0.70503 0.95702 0.33642 0.0
H999 H 0.72617 0.97168 0.01607 0.0
H1000 H 0.71097 0.92199 0.00433 0.0
H1001 H 0.70084 0.95523 0.97051 0.0
H1002 H 0.67518 0.92461 0.96527 0.0
C1003 C 0.68159 0.92052 0.9759 0.0
O1004 O 0.69761 0.92522 0.97606 0.0
H1005 H 0.67659 0.92607 0.9865 0.0
C1006 C 0.7204 0.96204 0.00768 0.0
C1007 C 0.71388 0.96538 0.99272 0.0
C1008 C 0.71931 0.94648 0.0121 0.0
C1009 C 0.71193 0.93407 0.00115 0.0
C1010 C 0.70517 0.93725 0.98626 0.0
C1011 C 0.7061 0.95289 0.98205 0.0
H1012 H 0.58811 0.27635 0.54971 0.0
H1013 H 0.58308 0.29161 0.50279 0.0
H1014 H 0.62886 0.28204 0.5233 0.0
H1015 H 0.63104 0.30899 0.50367 0.0
C1016 C 0.61931 0.30637 0.49654 0.0
O1017 O 0.61311 0.29114 0.49834 0.0
H1018 H 0.61138 0.31517 0.50098 0.0
C1019 C 0.59329 0.27905 0.53895 0.0
C1020 C 0.60965 0.27837 0.5381 0.0
C1021 C 0.58356 0.28372 0.52632 0.0
C1022 C 0.59039 0.28799 0.51269 0.0
C1023 C 0.6067 0.28738 0.51167 0.0
C1024 C 0.6163 0.28259 0.52432 0.0
H1025 H 0.01844 0.72239 0.96787 0.0
H1026 H 0.00226 0.71111 0.91834 0.0
H1027 H 0.96922 0.70666 0.95345 0.0
H1028 H 0.95632 0.68395 0.9199 0.0
C1029 C 0.96876 0.68741 0.91759 0.0
O1030 O 0.97269 0.70323 0.92301 0.0
H1031 H 0.9763 0.67956 0.92413 0.0
C1032 C 0.00891 0.71844 0.9586 0.0
C1033 C 0.99344 0.71484 0.9627 0.0
C1034 C 0.01225 0.71714 0.94269 0.0
C1035 C 0.99991 0.71215 0.9307 0.0
C1036 C 0.98448 0.70818 0.93464 0.0
C1037 C 0.98125 0.70953 0.95059 0.0
H1038 H 0.97268 0.30704 0.50216 0.0
H1039 H 0.96808 0.29294 0.54905 0.0
H1040 H 0.0086 0.32392 0.54046 0.0
H1041 H 0.01654 0.30086 0.56343 0.0
C1042 C 0.00451 0.29808 0.56726 0.0
O1043 O 0.99465 0.3089 0.56188 0.0
H1044 H 0.99995 0.28582 0.56211 0.0
C1045 C 0.97726 0.30741 0.51454 0.0
C1046 C 0.99173 0.31636 0.51997 0.0
C1047 C 0.96856 0.29901 0.5249 0.0
C1048 C 0.97461 0.2994 0.54088 0.0
C1049 C 0.98902 0.30839 0.54644 0.0
C1050 C 0.99749 0.31699 0.53605 0.0
H1051 H 0.36984 0.68278 0.9517 0.0
H1052 H 0.35721 0.71091 0.9926 0.0
H1053 H 0.32451 0.70167 0.95058 0.0
H1054 H 0.31542 0.69577 0.9852 0.0
C1055 C 0.31765 0.70887 0.98824 0.0
O1056 O 0.32918 0.71544 0.97968 0.0
H1057 H 0.30631 0.7138 0.98483 0.0
C1058 C 0.36137 0.68942 0.95758 0.0
C1059 C 0.34671 0.69124 0.94924 0.0
C1060 C 0.36546 0.6966 0.97317 0.0
C1061 C 0.35432 0.7051 0.98067 0.0
C1062 C 0.33957 0.70677 0.97255 0.0
C1063 C 0.33585 0.70003 0.95682 0.0
H1064 H 0.55984 0.59927 0.29167 0.0
H1065 H 0.51084 0.59043 0.30025 0.0
H1066 H 0.52972 0.63735 0.29222 0.0
H1067 H 0.50655 0.63949 0.3146 0.0
C1068 C 0.50123 0.62693 0.31305 0.0
O1069 O 0.50448 0.61987 0.29856 0.0
H1070 H 0.50664 0.62069 0.32285 0.0
C1071 C 0.54841 0.60359 0.2933 0.0
C1072 C 0.54647 0.61964 0.29184 0.0
C1073 C 0.53568 0.5929 0.29623 0.0
C1074 C 0.52078 0.59845 0.2978 0.0
C1075 C 0.51871 0.61449 0.29648 0.0
C1076 C 0.53146 0.62499 0.29324 0.0
H1077 H 0.97319 0.01443 0.72781 0.0
H1078 H 0.92312 0.00191 0.7156 0.0
H1079 H 0.95651 0.97105 0.69851 0.0
H1080 H 0.92562 0.96706 0.67511 0.0
C1081 C 0.92129 0.97682 0.68265 0.0
O1082 O 0.92637 0.97552 0.69834 0.0
H1083 H 0.92635 0.9882 0.67867 0.0
C1084 C 0.96349 0.00618 0.72197 0.0
C1085 C 0.96684 0.99232 0.71311 0.0
C1086 C 0.94779 0.00977 0.72298 0.0
C1087 C 0.93529 0.99925 0.71508 0.0
C1088 C 0.93847 0.98529 0.70637 0.0
C1089 C 0.95419 0.98173 0.70554 0.0
H1090 H 0.50424 0.9775 0.30186 0.0
H1091 H 0.55001 0.9757 0.28434 0.0
H1092 H 0.54371 0.01038 0.3228 0.0
H1093 H 0.56667 0.0235 0.30304 0.0
C1094 C 0.5688 0.01233 0.29606 0.0
O1095 O 0.56395 0.99953 0.30398 0.0
H1096 H 0.56183 0.01159 0.28421 0.0
C1097 C 0.51664 0.98207 0.30238 0.0
C1098 C 0.52276 0.99466 0.31374 0.0
C1099 C 0.52632 0.97516 0.29176 0.0
C1100 C 0.54236 0.98099 0.29243 0.0
C1101 C 0.54853 0.99384 0.30348 0.0
C1102 C 0.53876 0.00063 0.31415 0.0
H1103 H 0.95463 0.37089 0.68565 0.0
H1104 H 0.9977 0.35531 0.70681 0.0
H1105 H 0.95407 0.32491 0.70323 0.0
H1106 H 0.98458 0.31712 0.73319 0.0
C1107 C 0.98892 0.32852 0.72888 0.0
O1108 O 0.98448 0.32777 0.71274 0.0
H1109 H 0.98339 0.33815 0.7355 0.0
C1110 C 0.9609 0.36178 0.6909 0.0
C1111 C 0.95239 0.34741 0.69341 0.0
C1112 C 0.9772 0.36487 0.6958 0.0
C1113 C 0.98509 0.35324 0.7031 0.0
C1114 C 0.9767 0.33895 0.70589 0.0
C1115 C 0.96038 0.33608 0.70116 0.0
H1116 H 0.71728 0.43703 0.40298 0.0
H1117 H 0.70447 0.48502 0.4069 0.0
H1118 H 0.717 0.4639 0.36242 0.0
H1119 H 0.72803 0.49824 0.36753 0.0
C1120 C 0.72075 0.50144 0.37736 0.0
O1121 O 0.70844 0.48968 0.37742 0.0
H1122 H 0.72864 0.50254 0.3887 0.0
C1123 C 0.71527 0.4479 0.39765 0.0
C1124 C 0.71776 0.44891 0.38167 0.0
C1125 C 0.71034 0.46076 0.40685 0.0
C1126 C 0.70816 0.47491 0.39995 0.0
C1127 C 0.71053 0.476 0.38395 0.0
C1128 C 0.71511 0.46294 0.37476 0.0
H1129 H 0.67886 0.49326 0.03358 0.0
H1130 H 0.69613 0.44797 0.03994 0.0
H1131 H 0.66692 0.4542 0.99732 0.0
H1132 H 0.66013 0.42128 0.00644 0.0
C1133 C 0.66985 0.42249 0.01628 0.0
O1134 O 0.68165 0.43374 0.01319 0.0
H1135 H 0.66463 0.42621 0.02743 0.0
C1136 C 0.67951 0.48093 0.0293 0.0
C1137 C 0.67182 0.47492 0.0144 0.0
C1138 C 0.68843 0.4714 0.03853 0.0
C1139 C 0.68947 0.45555 0.03284 0.0
C1140 C 0.6815 0.4493 0.0181 0.0
C1141 C 0.67298 0.45908 0.00873 0.0
H1142 H 0.30137 0.04498 0.62657 0.0
H1143 H 0.28069 0.99953 0.63729 0.0
H1144 H 0.28944 0.03847 0.67387 0.0
H1145 H 0.29159 0.00606 0.68839 0.0
C1146 C 0.28954 1.00006 0.6762 0.0
O1147 O 0.27924 0.00823 0.66729 0.0
H1148 H 0.30132 1.00013 0.67139 0.0
C1149 C 0.29687 0.03734 0.63505 0.0
C1150 C 0.29627 0.04364 0.65082 0.0
C1151 C 0.29119 0.02149 0.62995 0.0
C1152 C 0.28493 0.01185 0.6409 0.0
C1153 C 0.28443 0.01794 0.6567 0.0
C1154 C 0.28986 0.03387 0.66161 0.0
H1155 H 0.28583 0.03141 0.99562 0.0
H1156 H 0.29439 0.08211 0.00627 0.0
H1157 H 0.3047 0.05154 0.04261 0.0
H1158 H 0.29718 0.08724 0.05721 0.0
C1159 C 0.29533 0.08966 0.04458 0.0
O1160 O 0.3052 0.08108 0.03588 0.0
H1161 H 0.28258 0.08604 0.04047 0.0
C1162 C 0.29004 0.04168 0.00394 0.0
C1163 C 0.29554 0.03951 0.01961 0.0
C1164 C 0.28948 0.05696 0.99898 0.0
C1165 C 0.29449 0.07023 0.00992 0.0
C1166 C 0.29988 0.06823 0.02562 0.0
C1167 C 0.30031 0.05293 0.03049 0.0
H1168 H 0.40499 0.71642 0.43726 0.0
H1169 H 0.40741 0.70571 0.48588 0.0
H1170 H 0.36204 0.70785 0.45978 0.0
H1171 H 0.36075 0.71852 0.49387 0.0
C1172 C 0.37257 0.71496 0.49805 0.0
O1173 O 0.37665 0.70322 0.48729 0.0
H1174 H 0.38131 0.72569 0.49893 0.0
C1175 C 0.39906 0.7136 0.44758 0.0
C1176 C 0.3824 0.71228 0.44667 0.0
C1177 C 0.4082 0.71126 0.46161 0.0
C1178 C 0.40053 0.70758 0.47495 0.0
C1179 C 0.38392 0.70656 0.47431 0.0
C1180 C 0.37487 0.70887 0.46019 0.0
H1181 H 0.9957 0.28114 0.02737 0.0
H1182 H 0.00508 0.29876 0.07679 0.0
H1183 H 0.04079 0.3068 0.045 0.0
H1184 H 0.0564 0.30804 0.08248 0.0
C1185 C 0.04395 0.30401 0.08431 0.0
O1186 O 0.03382 0.31138 0.07439 0.0
H1187 H 0.04245 0.29085 0.08147 0.0
C1188 C 0.00365 0.28731 0.03714 0.0
C1189 C 0.01886 0.29363 0.03429 0.0
C1190 C 0.99847 0.28913 0.05238 0.0
C1191 C 0.00886 0.29711 0.06496 0.0
C1192 C 0.02407 0.3034 0.06226 0.0
C1193 C 0.02903 0.30179 0.04695 0.0
H1194 H 0.03374 0.67937 0.49384 0.0
H1195 H 0.04219 0.69441 0.44801 0.0
H1196 H 0.99898 0.666 0.45378 0.0
H1197 H 0.01074 0.6579 0.42187 0.0
C1198 C 0.01964 0.66843 0.42249 0.0
O1199 O 0.01563 0.68005 0.43346 0.0
H1200 H 0.03153 0.66466 0.42615 0.0
C1201 C 0.03006 0.67951 0.48129 0.0
C1202 C 0.01533 0.67165 0.47497 0.0
C1203 C 0.03986 0.68785 0.47177 0.0
C1204 C 0.03472 0.68824 0.45564 0.0
C1205 C 0.02009 0.68023 0.44915 0.0
C1206 C 0.01027 0.67215 0.45886 0.0
H1207 H 0.62669 0.31281 0.03981 0.0
H1208 H 0.63757 0.28967 0.99554 0.0
H1209 H 0.67175 0.29405 0.03648 0.0
H1210 H 0.68903 0.29264 0.00608 0.0
C1211 C 0.67751 0.29272 0.99892 0.0
O1212 O 0.66613 0.28407 0.00612 0.0
H1213 H 0.67492 0.30532 0.99857 0.0
C1214 C 0.63496 0.30707 0.03277 0.0
C1215 C 0.64991 0.30451 0.04002 0.0
C1216 C 0.63025 0.30156 0.01681 0.0
C1217 C 0.64088 0.29375 0.00793 0.0
C1218 C 0.65584 0.29118 0.01498 0.0
C1219 C 0.66021 0.29621 0.0311 0.0
H1220 H 0.43924 0.40347 0.71548 0.0
H1221 H 0.48706 0.4068 0.70219 0.0
H1222 H 0.46609 0.36296 0.71628 0.0
H1223 H 0.50026 0.36832 0.72728 0.0
C1224 C 0.50349 0.37791 0.71973 0.0
O1225 O 0.49183 0.37761 0.70727 0.0
H1226 H 0.50449 0.38943 0.72732 0.0
C1227 C 0.45007 0.39806 0.71351 0.0
C1228 C 0.45109 0.3822 0.71648 0.0
C1229 C 0.46286 0.40706 0.7082 0.0
C1230 C 0.47698 0.40004 0.70614 0.0
C1231 C 0.47811 0.38417 0.70905 0.0
C1232 C 0.4651 0.37518 0.71397 0.0
H1233 H 0.0341 0.99899 0.26471 0.0
H1234 H 0.0836 0.0082 0.28189 0.0
H1235 H 0.0511 0.0419 0.29462 0.0
H1236 H 0.08823 0.05852 0.29705 0.0
C1237 C 0.09045 0.04654 0.29187 0.0
O1238 O 0.08064 0.03526 0.29796 0.0
H1239 H 0.08789 0.0463 0.27873 0.0
C1240 C 0.04384 0.0068 0.27112 0.0
C1241 C 0.04068 0.02115 0.27924 0.0
C1242 C 0.05923 0.00194 0.27195 0.0
C1243 C 0.07163 0.01171 0.28103 0.0
C1244 C 0.06866 0.02611 0.28905 0.0
C1245 C 0.05324 0.03079 0.28823 0.0
H1246 H 0.50316 0.02164 0.70242 0.0
H1247 H 0.45725 0.03423 0.71359 0.0
H1248 H 0.4609 0.99206 0.68276 0.0
H1249 H 0.43091 0.00597 0.67387 0.0
C1250 C 0.43179 0.01481 0.68446 0.0
O1251 O 0.44138 0.00973 0.69661 0.0
H1252 H 0.43702 0.02644 0.68121 0.0
C1253 C 0.49038 0.0189 0.70159 0.0
C1254 C 0.48325 0.00542 0.69188 0.0
C1255 C 0.48118 0.02942 0.70945 0.0
C1256 C 0.46458 0.02626 0.70763 0.0
C1257 C 0.45734 0.01276 0.6981 0.0
C1258 C 0.46664 0.00238 0.69021 0.0
H1259 H 0.03689 0.62857 0.31645 0.0
H1260 H 0.99549 0.63745 0.2866 0.0
H1261 H 0.03822 0.66878 0.28913 0.0
H1262 H 0.00646 0.68714 0.27644 0.0
C1263 C 0.00202 0.67722 0.28298 0.0
O1264 O 0.00846 0.66366 0.27752 0.0
H1265 H 0.00598 0.68074 0.29576 0.0
C1266 C 0.03095 0.63584 0.3084 0.0
C1267 C 0.0394 0.64944 0.30394 0.0
C1268 C 0.01524 0.63105 0.30192 0.0
C1269 C 0.00759 0.64078 0.29176 0.0
C1270 C 0.01584 0.65448 0.28744 0.0
C1271 C 0.03182 0.65851 0.2931 0.0
H1272 H 0.18257 0.62274 0.32719 0.0
H1273 H 0.15589 0.62912 0.31845 0.0
H1274 H 0.15845 0.66509 0.35805 0.0
H1275 H 0.18516 0.65873 0.36693 0.0
H1276 H 0.13052 0.62602 0.33663 0.0
H1277 H 0.14063 0.68779 0.32053 0.0
H1278 H 0.15639 0.67498 0.32253 0.0
H1279 H 0.14937 0.68459 0.33989 0.0
C1280 C 0.17751 0.6321 0.33398 0.0
C1281 C 0.18596 0.64017 0.34781 0.0
C1282 C 0.1623 0.63578 0.32892 0.0
C1283 C 0.15523 0.64766 0.33752 0.0
C1284 C 0.1638 0.6561 0.35105 0.0
H1285 H 0.05302 0.65044 0.33444 0.0
H1286 H 0.08141 0.65208 0.34333 0.0
C1287 C 0.17906 0.65243 0.35612 0.0
C1288 C 0.1384 0.65012 0.33309 0.0
H1289 H 0.11377 0.67736 0.32113 0.0
C1290 C 0.12687 0.63724 0.33323 0.0
C1291 C 0.13369 0.66476 0.32859 0.0
C1292 C 0.14565 0.67881 0.32772 0.0
C1293 C 0.11075 0.63858 0.32904 0.0
C1294 C 0.10597 0.65329 0.32482 0.0
C1295 C 0.11748 0.66617 0.32455 0.0
C1296 C 0.08907 0.65511 0.3201 0.0
C1297 C 0.09898 0.62412 0.32885 0.0
C1298 C 0.08404 0.65711 0.30428 0.0
C1299 C 0.06783 0.65621 0.29917 0.0
C1300 C 0.05643 0.65327 0.30983 0.0
C1301 C 0.06155 0.65241 0.32591 0.0
C1302 C 0.07774 0.65336 0.331 0.0
H1303 H 0.10492 0.61301 0.32905 0.0
H1304 H 0.09234 0.62533 0.33948 0.0
H1305 H 0.09026 0.62301 0.31815 0.0
H1306 H 0.09262 0.65851 0.2957 0.0
H1307 H 0.06423 0.65688 0.28671 0.0
H1308 H 0.32965 0.37858 0.77565 0.0
H1309 H 0.35517 0.37345 0.76635 0.0
H1310 H 0.33267 0.33296 0.73559 0.0
H1311 H 0.30679 0.33829 0.74462 0.0
H1312 H 0.37192 0.34594 0.76689 0.0
H1313 H 0.3554 0.36087 0.70534 0.0
H1314 H 0.34378 0.366 0.72147 0.0
H1315 H 0.34292 0.34576 0.71308 0.0
C1316 C 0.33007 0.36863 0.76683 0.0
C1317 C 0.31615 0.35901 0.76066 0.0
C1318 C 0.3447 0.36562 0.76164 0.0
C1319 C 0.34579 0.35294 0.75016 0.0
C1320 C 0.33203 0.34293 0.74431 0.0
H1321 H 0.43465 0.35403 0.70376 0.0
H1322 H 0.40954 0.34191 0.71179 0.0
C1323 C 0.31731 0.34593 0.74955 0.0
C1324 C 0.36136 0.3509 0.74409 0.0
H1325 H 0.38218 0.35832 0.71259 0.0
C1326 C 0.37413 0.34829 0.75491 0.0
C1327 C 0.36419 0.35383 0.72841 0.0
C1328 C 0.35092 0.35686 0.71635 0.0
C1329 C 0.38977 0.34957 0.75077 0.0
C1330 C 0.39272 0.35378 0.73552 0.0
C1331 C 0.37987 0.35512 0.72429 0.0
C1332 C 0.40889 0.35938 0.73185 0.0
C1333 C 0.40308 0.34705 0.763 0.0
C1334 C 0.41684 0.37309 0.74053 0.0
C1335 C 0.43098 0.38002 0.73592 0.0
C1336 C 0.43747 0.37337 0.72253 0.0
C1337 C 0.42991 0.35926 0.71421 0.0
C1338 C 0.4156 0.35239 0.71875 0.0
H1339 H 0.39891 0.33878 0.7715 0.0
H1340 H 0.41314 0.34225 0.75731 0.0
H1341 H 0.40747 0.35859 0.76987 0.0
H1342 H 0.41173 0.37889 0.75047 0.0
H1343 H 0.43659 0.3909 0.74251 0.0
H1344 H 0.59261 0.95634 0.60673 0.0
H1345 H 0.56667 0.95565 0.61738 0.0
H1346 H 0.58364 0.99669 0.65013 0.0
H1347 H 0.60944 0.99762 0.63946 0.0
H1348 H 0.55903 0.95488 0.65124 0.0
H1349 H 0.54291 0.00836 0.62294 0.0
H1350 H 0.55818 0.99657 0.61638 0.0
H1351 H 0.56228 0.01052 0.63379 0.0
C1352 C 0.5908 0.96519 0.61622 0.0
C1353 C 0.60305 0.97708 0.62222 0.0
C1354 C 0.57603 0.96472 0.62233 0.0
C1355 C 0.57326 0.97621 0.63439 0.0
C1356 C 0.58556 0.98779 0.64071 0.0
H1357 H 0.51054 0.99375 0.70284 0.0
H1358 H 0.53021 0.98273 0.68696 0.0
C1359 C 0.60032 0.98823 0.63469 0.0
C1360 C 0.55739 0.97656 0.64017 0.0
H1361 H 0.52741 1.00035 0.64337 0.0
C1362 C 0.55195 0.96467 0.64935 0.0
C1363 C 0.54808 0.98917 0.63739 0.0
C1364 C 0.55304 0.00183 0.62697 0.0
C1365 C 0.53784 0.96561 0.65667 0.0
C1366 C 0.52912 0.97887 0.65484 0.0
C1367 C 0.53411 0.99021 0.64483 0.0
C1368 C 0.51592 0.9823 0.66447 0.0
C1369 C 0.53255 0.95259 0.66652 0.0
C1370 C 0.50122 0.98551 0.65715 0.0
C1371 C 0.48998 0.99195 0.66623 0.0
C1372 C 0.49338 0.99544 0.68274 0.0
C1373 C 0.50767 0.99126 0.69012 0.0
C1374 C 0.51885 0.9848 0.68107 0.0
H1375 H 0.53691 0.94115 0.66235 0.0
H1376 H 0.53757 0.9558 0.67904 0.0
H1377 H 0.51941 0.9509 0.66619 0.0
H1378 H 0.49878 0.98379 0.64434 0.0
H1379 H 0.47913 0.99519 0.66022 0.0
H1380 H 0.8905 0.00623 0.2865 0.0
H1381 H 0.91926 0.01112 0.29317 0.0
H1382 H 0.92252 0.041 0.25495 0.0
H1383 H 0.89383 0.03615 0.24819 0.0
H1384 H 0.94038 0.00213 0.27261 0.0
H1385 H 0.95182 0.06677 0.29068 0.0
H1386 H 0.93235 0.05608 0.28995 0.0
H1387 H 0.93981 0.06213 0.27206 0.0
C1388 C 0.89732 0.01402 0.27965 0.0
C1389 C 0.88989 0.02075 0.26677 0.0
C1390 C 0.91373 0.01686 0.28353 0.0
C1391 C 0.92302 0.02655 0.27467 0.0
C1392 C 0.91556 0.03379 0.2622 0.0
H1393 H 0.01865 0.01917 0.25353 0.0
H1394 H 0.99025 0.02192 0.25351 0.0
C1395 C 0.89914 0.03098 0.25833 0.0
C1396 C 0.94059 0.02751 0.27717 0.0
H1397 H 0.97432 0.05334 0.28377 0.0
C1398 C 0.94778 0.01332 0.27525 0.0
C1399 C 0.95024 0.0421 0.28069 0.0
C1400 C 0.94317 0.05763 0.28362 0.0
C1401 C 0.96433 0.01336 0.2762 0.0
C1402 C 0.97395 0.02799 0.27895 0.0
C1403 C 0.96685 0.04217 0.28147 0.0
C1404 C 0.99137 0.02859 0.27879 0.0
C1405 C 0.97142 0.99774 0.27408 0.0
C1406 C 0.00145 0.03204 0.29293 0.0
C1407 C 0.0177 0.03042 0.293 0.0
C1408 C 0.02407 0.02534 0.2789 0.0
C1409 C 0.01404 0.02284 0.26462 0.0
C1410 C 0.99785 0.02445 0.26457 0.0
H1411 H 0.96273 0.98752 0.27552 0.0
H1412 H 0.9753 0.9961 0.26196 0.0
H1413 H 0.98199 0.99762 0.28275 0.0
H1414 H 0.99662 0.03526 0.30402 0.0
H1415 H 0.02511 0.03234 0.30419 0.0
H1416 H 0.32504 0.19556 0.65038 0.0
H1417 H 0.31412 0.17029 0.65871 0.0
H1418 H 0.35759 0.14995 0.65 0.0
H1419 H 0.36879 0.17523 0.64237 0.0
H1420 H 0.30845 0.14247 0.64065 0.0
H1421 H 0.35026 0.13467 0.69231 0.0
H1422 H 0.34943 0.15348 0.68409 0.0
H1423 H 0.36067 0.13851 0.67542 0.0
C1424 C 0.33241 0.18581 0.6506 0.0
C1425 C 0.34778 0.18743 0.64564 0.0
C1426 C 0.32612 0.17135 0.65529 0.0
C1427 C 0.33512 0.15827 0.65524 0.0
C1428 C 0.35054 0.15995 0.65054 0.0
H1429 H 0.32458 0.05876 0.64544 0.0
H1430 H 0.3329 0.08728 0.64962 0.0
C1431 C 0.35684 0.17437 0.64591 0.0
C1432 C 0.32801 0.14245 0.65863 0.0
H1433 H 0.33565 0.11057 0.67888 0.0
C1434 C 0.31418 0.13563 0.64928 0.0
C1435 C 0.33546 0.13353 0.66993 0.0
C1436 C 0.34968 0.14051 0.68112 0.0
C1437 C 0.30821 0.11982 0.6502 0.0
C1438 C 0.31621 0.11064 0.66082 0.0
C1439 C 0.32958 0.11765 0.67072 0.0
C1440 C 0.31188 0.09332 0.66044 0.0
C1441 C 0.2939 0.11273 0.63916 0.0
C1442 C 0.29753 0.08725 0.66562 0.0
C1443 C 0.29277 0.07091 0.6633 0.0
C1444 C 0.30225 0.06049 0.65563 0.0
C1445 C 0.31697 0.06656 0.65121 0.0
C1446 C 0.32177 0.08281 0.65366 0.0
H1447 H 0.29009 0.12096 0.63045 0.0
H1448 H 0.29654 0.10153 0.63257 0.0
H1449 H 0.28386 0.1098 0.64622 0.0
H1450 H 0.2898 0.09519 0.67098 0.0
H1451 H 0.28135 0.06653 0.66677 0.0
H1452 H 0.26087 0.89243 0.04523 0.0
H1453 H 0.26984 0.92072 0.05168 0.0
H1454 H 0.28791 0.92209 0.00597 0.0
H1455 H 0.27933 0.8938 0.99957 0.0
H1456 H 0.30827 0.93934 0.03225 0.0
H1457 H 0.24573 0.95455 0.02994 0.0
H1458 H 0.25126 0.94015 0.04314 0.0
H1459 H 0.25079 0.93542 0.02207 0.0
C1460 C 0.26702 0.89869 0.03668 0.0
C1461 C 0.26925 0.89092 0.02182 0.0
C1462 C 0.27202 0.91487 0.04034 0.0
C1463 C 0.27931 0.92352 0.0292 0.0
C1464 C 0.28222 0.91563 0.01469 0.0
H1465 H 0.30663 0.01442 0.00334 0.0
H1466 H 0.30436 0.98674 0.00902 0.0
C1467 C 0.27721 0.8995 0.01101 0.0
C1468 C 0.28312 0.94096 0.03211 0.0
H1469 H 0.26579 0.9757 0.03343 0.0
C1470 C 0.29902 0.94732 0.03273 0.0
C1471 C 0.27102 0.95132 0.03283 0.0
C1472 C 0.25372 0.94511 0.03187 0.0
C1473 C 0.3031 0.96379 0.03354 0.0
C1474 C 0.29093 0.9741 0.03338 0.0
C1475 C 0.27511 0.96778 0.03357 0.0
C1476 C 0.29404 0.99119 0.03118 0.0
C1477 C 0.32039 0.96995 0.03431 0.0
C1478 C 0.28889 0.00295 0.04169 0.0
C1479 C 0.29001 0.01884 0.03835 0.0
C1480 C 0.29611 0.02316 0.02434 0.0
C1481 C 0.30174 0.01143 0.01415 0.0
C1482 C 0.30064 0.99562 0.01749 0.0
H1483 H 0.32811 0.96173 0.03996 0.0
H1484 H 0.32372 0.97085 0.02207 0.0
H1485 H 0.32279 0.98188 0.04104 0.0
H1486 H 0.28361 0.99976 0.05224 0.0
H1487 H 0.28547 0.0276 0.04635 0.0
H1488 H 0.78069 0.327 0.36745 0.0
H1489 H 0.77065 0.35273 0.36515 0.0
H1490 H 0.73353 0.33119 0.32971 0.0
H1491 H 0.74352 0.30518 0.33203 0.0
H1492 H 0.76638 0.37065 0.33984 0.0
H1493 H 0.70868 0.35283 0.36279 0.0
H1494 H 0.72505 0.34075 0.36398 0.0
H1495 H 0.71333 0.34122 0.34538 0.0
C1496 C 0.77053 0.32772 0.35897 0.0
C1497 C 0.76291 0.31402 0.34992 0.0
C1498 C 0.76477 0.34245 0.35771 0.0
C1499 C 0.75124 0.34387 0.34739 0.0
C1500 C 0.74381 0.33032 0.33797 0.0
H1501 H 0.70383 0.43232 0.35405 0.0
H1502 H 0.71146 0.40724 0.34142 0.0
C1503 C 0.74954 0.31549 0.33929 0.0
C1504 C 0.74481 0.35952 0.34718 0.0
H1505 H 0.71416 0.37963 0.35892 0.0
C1506 C 0.75484 0.37258 0.34375 0.0
C1507 C 0.72971 0.36202 0.3522 0.0
C1508 C 0.71856 0.34852 0.35642 0.0
C1509 C 0.75054 0.38812 0.34602 0.0
C1510 C 0.73589 0.39067 0.35196 0.0
C1511 C 0.72539 0.37758 0.35435 0.0
C1512 C 0.73226 0.40671 0.35798 0.0
C1513 C 0.76195 0.40176 0.34261 0.0
C1514 C 0.74149 0.41468 0.37135 0.0
C1515 C 0.73709 0.42878 0.3786 0.0
C1516 C 0.72342 0.43522 0.37257 0.0
C1517 C 0.71451 0.42762 0.3588 0.0
C1518 C 0.71881 0.41333 0.35163 0.0
H1519 H 0.7701 0.39785 0.33385 0.0
H1520 H 0.75549 0.41145 0.33803 0.0
H1521 H 0.76927 0.4066 0.35377 0.0
H1522 H 0.75174 0.40963 0.3766 0.0
H1523 H 0.74412 0.43444 0.38922 0.0
H1524 H 0.63127 0.60511 0.9631 0.0
H1525 H 0.6411 0.57877 0.96186 0.0
H1526 H 0.6087 0.56439 0.99533 0.0
H1527 H 0.59883 0.59046 0.99656 0.0
H1528 H 0.65562 0.56466 0.98551 0.0
H1529 H 0.6007 0.52709 0.96189 0.0
H1530 H 0.60274 0.54835 0.96119 0.0
H1531 H 0.59735 0.53994 0.97892 0.0
C1532 C 0.62621 0.59628 0.97012 0.0
C1533 C 0.61416 0.59982 0.97981 0.0
C1534 C 0.63177 0.58122 0.96933 0.0
C1535 C 0.62535 0.56946 0.97818 0.0
C1536 C 0.61344 0.57305 0.98795 0.0
H1537 H 0.64762 0.49101 0.02365 0.0
H1538 H 0.63598 0.51249 0.01083 0.0
C1539 C 0.60785 0.58801 0.98869 0.0
C1540 C 0.63185 0.55383 0.97835 0.0
H1541 H 0.62049 0.51407 0.97708 0.0
C1542 C 0.64804 0.55355 0.98325 0.0
C1543 C 0.62197 0.53932 0.9753 0.0
C1544 C 0.60476 0.53868 0.96887 0.0
C1545 C 0.65433 0.5393 0.98635 0.0
C1546 C 0.64418 0.52499 0.98441 0.0
C1547 C 0.62822 0.5251 0.97861 0.0
C1548 C 0.64946 0.51036 0.99047 0.0
C1549 C 0.67156 0.53975 0.99268 0.0
C1550 C 0.66046 0.5017 0.98293 0.0
C1551 C 0.66701 0.48929 0.99019 0.0
C1552 C 0.66273 0.48557 0.0051 0.0
C1553 C 0.65109 0.4937 0.01215 0.0
C1554 C 0.64445 0.50593 0.00485 0.0
H1555 H 0.67759 0.55203 0.99455 0.0
H1556 H 0.67255 0.53439 0.00413 0.0
H1557 H 0.67791 0.53262 0.98417 0.0
H1558 H 0.66441 0.50496 0.9718 0.0
H1559 H 0.67607 0.48324 0.98462 0.0
H1560 H 0.66416 0.37057 0.1833 0.0
H1561 H 0.66847 0.35997 0.15645 0.0
H1562 H 0.63641 0.31852 0.16044 0.0
H1563 H 0.63163 0.32924 0.18709 0.0
H1564 H 0.67873 0.3308 0.14323 0.0
H1565 H 0.61637 0.33859 0.12197 0.0
H1566 H 0.62566 0.34736 0.14107 0.0
H1567 H 0.61857 0.32662 0.13826 0.0
C1568 C 0.65805 0.35917 0.17849 0.0
C1569 C 0.64737 0.35086 0.18728 0.0
C1570 C 0.66064 0.35308 0.1632 0.0
C1571 C 0.65258 0.33858 0.15638 0.0
C1572 C 0.64259 0.32984 0.16542 0.0
H1573 H 0.66214 0.28807 0.06381 0.0
H1574 H 0.66482 0.29636 0.09245 0.0
C1575 C 0.63998 0.33592 0.18071 0.0
C1576 C 0.65371 0.33325 0.13944 0.0
H1577 H 0.63176 0.32673 0.10338 0.0
C1578 C 0.66848 0.32985 0.13449 0.0
C1579 C 0.64035 0.33227 0.12805 0.0
C1580 C 0.62436 0.33652 0.13252 0.0
C1581 C 0.67019 0.32539 0.11842 0.0
C1582 C 0.65677 0.32419 0.1071 0.0
C1583 C 0.64204 0.32761 0.11209 0.0
C1584 C 0.65758 0.31986 0.08989 0.0
C1585 C 0.68639 0.32236 0.11362 0.0
C1586 C 0.65287 0.33037 0.07896 0.0
C1587 C 0.65124 0.32564 0.0627 0.0
C1588 C 0.65425 0.31026 0.05701 0.0
C1589 C 0.65984 0.30002 0.06788 0.0
C1590 C 0.6614 0.30476 0.08423 0.0
H1591 H 0.696 0.32729 0.12298 0.0
H1592 H 0.68703 0.30936 0.11155 0.0
H1593 H 0.68856 0.32761 0.10241 0.0
H1594 H 0.64991 0.34209 0.08307 0.0
H1595 H 0.64709 0.33383 0.05457 0.0
H1596 H 0.01967 0.28929 0.88179 0.0
H1597 H 0.02682 0.29891 0.90984 0.0
H1598 H 0.02575 0.25054 0.92167 0.0
H1599 H 0.01933 0.24091 0.89376 0.0
H1600 H 0.00882 0.29405 0.93355 0.0
H1601 H 0.06587 0.26964 0.94748 0.0
H1602 H 0.05748 0.27054 0.92732 0.0
H1603 H 0.05114 0.25433 0.93832 0.0
C1604 C 0.02136 0.28073 0.89033 0.0
C1605 C 0.01884 0.26433 0.88554 0.0
C1606 C 0.02537 0.28624 0.90636 0.0
C1607 C 0.02707 0.27546 0.91786 0.0
C1608 C 0.02492 0.25911 0.91302 0.0
H1609 H 0.01632 0.26672 0.01385 0.0
H1610 H 0.02095 0.26449 0.98576 0.0
C1611 C 0.02098 0.25361 0.89705 0.0
C1612 C 0.02945 0.28108 0.93506 0.0
H1613 H 0.0506 0.27524 0.96985 0.0
C1614 C 0.01819 0.29028 0.94144 0.0
C1615 C 0.04171 0.27619 0.94538 0.0
C1616 C 0.05482 0.26728 0.93923 0.0
C1617 C 0.01825 0.29381 0.95791 0.0
C1618 C 0.0299 0.28805 0.96823 0.0
C1619 C 0.04163 0.27955 0.96187 0.0
C1620 C 0.02901 0.28936 0.9856 0.0
C1621 C 0.00533 0.30289 0.96425 0.0
C1622 C 0.03241 0.30402 0.99486 0.0
C1623 C 0.02983 0.30531 0.01095 0.0
C1624 C 0.02368 0.29197 0.01793 0.0
C1625 C 0.02092 0.27721 0.00873 0.0
C1626 C 0.02362 0.2759 0.99273 0.0
H1627 H 0.99634 0.30533 0.95467 0.0
H1628 H 0.99923 0.29613 0.97292 0.0
H1629 H 0.01067 0.3144 0.97058 0.0
H1630 H 0.03663 0.31451 0.98953 0.0
H1631 H 0.03197 0.31684 0.01775 0.0
H1632 H 0.36546 0.73571 0.30582 0.0
H1633 H 0.36256 0.72533 0.33135 0.0
H1634 H 0.3345 0.7633 0.34471 0.0
H1635 H 0.33736 0.77379 0.3191 0.0
H1636 H 0.35921 0.76145 0.36647 0.0
H1637 H 0.32751 0.70153 0.35145 0.0
H1638 H 0.34424 0.70447 0.34025 0.0
H1639 H 0.32788 0.71635 0.33749 0.0
C1640 C 0.35826 0.7416 0.31397 0.0
C1641 C 0.35167 0.75561 0.31042 0.0
C1642 C 0.35658 0.73561 0.32858 0.0
C1643 C 0.34813 0.7434 0.33988 0.0
C1644 C 0.341 0.75704 0.33613 0.0
H1645 H 0.35758 0.73045 0.44222 0.0
H1646 H 0.34538 0.73747 0.41679 0.0
C1647 C 0.34272 0.76307 0.32153 0.0
C1648 C 0.3485 0.73844 0.35621 0.0
H1649 H 0.34337 0.70601 0.37689 0.0
C1650 C 0.35541 0.74943 0.36883 0.0
C1651 C 0.34354 0.72275 0.35927 0.0
C1652 C 0.33523 0.71065 0.3464 0.0
C1653 C 0.35845 0.7449 0.3842 0.0
C1654 C 0.35422 0.729 0.38709 0.0
C1655 C 0.3466 0.7182 0.37465 0.0
C1656 C 0.3594 0.723 0.40238 0.0
C1657 C 0.3671 0.75693 0.39698 0.0
C1658 C 0.37068 0.71195 0.40264 0.0
C1659 C 0.37753 0.70787 0.41706 0.0
C1660 C 0.37322 0.71474 0.43153 0.0
C1661 C 0.36114 0.725 0.43125 0.0
C1662 C 0.35427 0.7291 0.41676 0.0
H1663 H 0.37188 0.76788 0.39211 0.0
H1664 H 0.35878 0.76035 0.40574 0.0
H1665 H 0.37708 0.75178 0.40338 0.0
H1666 H 0.37475 0.70703 0.39168 0.0
H1667 H 0.38661 0.6997 0.4169 0.0
H1668 H 0.96214 0.63416 0.60507 0.0
H1669 H 0.96117 0.64386 0.57867 0.0
H1670 H 0.99206 0.60899 0.56372 0.0
H1671 H 0.99297 0.59924 0.58983 0.0
H1672 H 0.98521 0.65687 0.56438 0.0
H1673 H 0.95854 0.60313 0.52666 0.0
H1674 H 0.95807 0.60514 0.54795 0.0
H1675 H 0.97528 0.59867 0.53927 0.0
C1676 C 0.96862 0.62851 0.59609 0.0
C1677 C 0.97751 0.61584 0.59949 0.0
C1678 C 0.96799 0.634 0.581 0.0
C1679 C 0.97621 0.62689 0.56907 0.0
C1680 C 0.98514 0.6143 0.57251 0.0
H1681 H 0.02371 0.64755 0.49162 0.0
H1682 H 0.01014 0.63645 0.51294 0.0
C1683 C 0.98571 0.60877 0.5875 0.0
C1684 C 0.97675 0.63339 0.55347 0.0
H1685 H 0.97502 0.62201 0.51368 0.0
C1686 C 0.98256 0.64937 0.55325 0.0
C1687 C 0.97319 0.62363 0.53892 0.0
C1688 C 0.96575 0.60674 0.5382 0.0
C1689 C 0.98606 0.65549 0.53903 0.0
C1690 C 0.98364 0.64538 0.5247 0.0
C1691 C 0.97692 0.6297 0.52473 0.0
C1692 C 0.99012 0.65031 0.51014 0.0
C1693 C 0.99331 0.67243 0.53951 0.0
C1694 C 0.98303 0.66136 0.50119 0.0
C1695 C 0.99071 0.66759 0.48886 0.0
C1696 C 0.0056 0.66294 0.48554 0.0
C1697 C 0.01222 0.65128 0.49399 0.0
C1698 C 0.00449 0.64495 0.50613 0.0
H1699 H 0.99507 0.67854 0.55176 0.0
H1700 H 0.00496 0.67271 0.53453 0.0
H1701 H 0.98547 0.67916 0.53205 0.0
H1702 H 0.97193 0.66561 0.50416 0.0
H1703 H 0.98549 0.67668 0.48257 0.0
H1704 H 0.81787 0.36455 0.62702 0.0
H1705 H 0.8444 0.35979 0.6378 0.0
H1706 H 0.82489 0.3397 0.67749 0.0
H1707 H 0.79808 0.34398 0.6665 0.0
H1708 H 0.85925 0.37273 0.66766 0.0
H1709 H 0.8544 0.30663 0.66194 0.0
H1710 H 0.84052 0.31761 0.65115 0.0
H1711 H 0.83932 0.31588 0.6719 0.0
C1712 C 0.81913 0.35881 0.63787 0.0
C1713 C 0.8058 0.35454 0.64582 0.0
C1714 C 0.83433 0.35621 0.64408 0.0
C1715 C 0.8366 0.34924 0.65834 0.0
C1716 C 0.82337 0.34486 0.66633 0.0
H1717 H 0.92827 0.3359 0.70998 0.0
H1718 H 0.89957 0.33509 0.70239 0.0
C1719 C 0.80809 0.34747 0.66012 0.0
C1720 C 0.85296 0.34744 0.66513 0.0
H1721 H 0.87888 0.32009 0.67342 0.0
C1722 C 0.8635 0.36122 0.669 0.0
C1723 C 0.85845 0.33241 0.66697 0.0
C1724 C 0.84766 0.31724 0.66269 0.0
C1725 C 0.87947 0.36039 0.67436 0.0
C1726 C 0.88511 0.34536 0.67566 0.0
C1727 C 0.87448 0.33157 0.67234 0.0
C1728 C 0.90221 0.34391 0.67958 0.0
C1729 C 0.89023 0.37561 0.67846 0.0
C1730 C 0.91309 0.34856 0.66901 0.0
C1731 C 0.92937 0.34899 0.67327 0.0
C1732 C 0.93512 0.34475 0.68818 0.0
C1733 C 0.92418 0.3392 0.6984 0.0
C1734 C 0.90782 0.33879 0.69411 0.0
H1735 H 0.88339 0.38599 0.68068 0.0
H1736 H 0.89858 0.37482 0.68914 0.0
H1737 H 0.89735 0.37775 0.6684 0.0
H1738 H 0.90897 0.35229 0.65763 0.0
H1739 H 0.9375 0.35303 0.66503 0.0
H1740 H 0.68344 0.64516 0.26506 0.0
H1741 H 0.65753 0.64706 0.27496 0.0
H1742 H 0.64326 0.67368 0.23615 0.0
H1743 H 0.66926 0.67188 0.22613 0.0
H1744 H 0.63918 0.67255 0.28357 0.0
H1745 H 0.6114 0.6336 0.23012 0.0
H1746 H 0.6326 0.63634 0.23525 0.0
H1747 H 0.62261 0.65169 0.22659 0.0
C1748 C 0.67497 0.65177 0.25883 0.0
C1749 C 0.67837 0.65823 0.2447 0.0
C1750 C 0.66013 0.6528 0.26448 0.0
C1751 C 0.64841 0.66028 0.25614 0.0
C1752 C 0.65206 0.66761 0.2426 0.0
H1753 H 0.54756 0.64087 0.26943 0.0
H1754 H 0.57139 0.6553 0.26134 0.0
C1755 C 0.6669 0.66655 0.23689 0.0
C1756 C 0.63204 0.65907 0.26095 0.0
H1757 H 0.5951 0.63991 0.25 0.0
C1758 C 0.62945 0.66562 0.27615 0.0
C1759 C 0.61936 0.65009 0.25121 0.0
C1760 C 0.62156 0.64241 0.23492 0.0
C1761 C 0.61465 0.66294 0.2821 0.0
C1762 C 0.60225 0.65321 0.2727 0.0
C1763 C 0.6046 0.6474 0.25718 0.0
C1764 C 0.58757 0.64711 0.27929 0.0
C1765 C 0.61256 0.67029 0.29852 0.0
C1766 C 0.58872 0.63797 0.29222 0.0
C1767 C 0.57519 0.62979 0.29684 0.0
C1768 C 0.56023 0.63044 0.28853 0.0
C1769 C 0.55893 0.64024 0.2761 0.0
C1770 C 0.57252 0.64843 0.27145 0.0
H1771 H 0.62037 0.68157 0.30155 0.0
H1772 H 0.60006 0.67271 0.2996 0.0
H1773 H 0.61593 0.66202 0.30734 0.0
H1774 H 0.60019 0.63644 0.29822 0.0
H1775 H 0.57652 0.62243 0.30654 0.0
H1776 H 0.39206 0.00376 0.35854 0.0
H1777 H 0.41841 0.00509 0.34914 0.0
H1778 H 0.43577 0.04089 0.38756 0.0
H1779 H 0.40934 0.03964 0.39708 0.0
H1780 H 0.43761 0.03036 0.33976 0.0
H1781 H 0.46589 0.00623 0.39294 0.0
H1782 H 0.44462 0.00544 0.38872 0.0
H1783 H 0.45593 0.02379 0.39659 0.0
C1784 C 0.4014 0.01209 0.36488 0.0
C1785 C 0.39862 0.02154 0.3786 0.0
C1786 C 0.41648 0.0128 0.35952 0.0
C1787 C 0.42909 0.02294 0.36778 0.0
C1788 C 0.42627 0.03277 0.3812 0.0
H1789 H 0.51839 0.02592 0.32147 0.0
H1790 H 0.49766 0.03609 0.33687 0.0
C1791 C 0.41118 0.03203 0.38661 0.0
C1792 C 0.44519 0.0227 0.36243 0.0
H1793 H 0.48179 0.01077 0.37231 0.0
C1794 C 0.44738 0.02632 0.34694 0.0
C1795 C 0.45785 0.01736 0.37185 0.0
C1796 C 0.45602 0.01286 0.38841 0.0
C1797 C 0.46165 0.02406 0.34033 0.0
C1798 C 0.47416 0.01827 0.34959 0.0
C1799 C 0.47222 0.01534 0.36532 0.0
C1800 C 0.48825 0.01292 0.3424 0.0
C1801 C 0.46286 0.02692 0.32318 0.0
C1802 C 0.49029 0.99668 0.34112 0.0
C1803 C 0.50211 0.99092 0.3325 0.0
C1804 C 0.51214 0.00128 0.32499 0.0
C1805 C 0.51079 0.01769 0.32713 0.0
C1806 C 0.49889 0.02348 0.33579 0.0
H1807 H 0.45125 0.02901 0.31702 0.0
H1808 H 0.47134 0.03754 0.32262 0.0
H1809 H 0.4674 0.01663 0.31665 0.0
H1810 H 0.48227 0.98834 0.34619 0.0
H1811 H 0.50305 0.97824 0.33124 0.0
H1812 H 0.11158 0.02347 0.72561 0.0
H1813 H 0.08338 0.01585 0.71746 0.0
H1814 H 0.08942 0.96747 0.72627 0.0
H1815 H 0.1176 0.97509 0.73488 0.0
H1816 H 0.06695 0.99245 0.69385 0.0
H1817 H 0.05543 0.98038 0.75538 0.0
H1818 H 0.07369 0.99094 0.75106 0.0
H1819 H 0.07032 0.96978 0.74655 0.0
C1820 C 0.10692 0.0112 0.72577 0.0
C1821 C 0.11679 0.99993 0.73108 0.0
C1822 C 0.09084 0.00684 0.72101 0.0
C1823 C 0.08428 0.99116 0.7215 0.0
C1824 C 0.09422 0.97969 0.72603 0.0
H1825 H 0.98111 0.96494 0.71653 0.0
H1826 H 0.00949 0.96148 0.71604 0.0
C1827 C 0.11034 0.98404 0.7308 0.0
C1828 C 0.06688 0.98722 0.71817 0.0
H1829 H 0.03339 0.97876 0.73644 0.0
C1830 C 0.05961 0.98924 0.70309 0.0
C1831 C 0.05734 0.98294 0.73023 0.0
C1832 C 0.06451 0.98096 0.74676 0.0
C1833 C 0.04301 0.98763 0.6999 0.0
C1834 C 0.03346 0.98421 0.71221 0.0
C1835 C 0.04074 0.98137 0.72703 0.0
C1836 C 0.01611 0.98545 0.71063 0.0
C1837 C 0.03584 0.9899 0.68346 0.0
C1838 C 0.01046 1.00002 0.7077 0.0
C1839 C 0.99438 0.00201 0.708 0.0
C1840 C 0.9836 0.9895 0.71136 0.0
C1841 C 0.98915 0.97474 0.71383 0.0
C1842 C 0.00533 0.97277 0.71359 0.0
H1843 H 0.04401 0.98692 0.67438 0.0
H1844 H 0.02435 0.98247 0.68035 0.0
H1845 H 0.0337 0.00255 0.68298 0.0
H1846 H 0.01858 0.01007 0.70573 0.0
H1847 H 0.99042 0.01347 0.70589 0.0
H1848 H 0.64168 0.79961 0.33484 0.0
H1849 H 0.65235 0.82531 0.32713 0.0
H1850 H 0.67693 0.83684 0.374 0.0
H1851 H 0.66661 0.81117 0.38165 0.0
H1852 H 0.647 0.85502 0.34165 0.0
H1853 H 0.71134 0.84832 0.34513 0.0
H1854 H 0.69645 0.83156 0.34396 0.0
H1855 H 0.70261 0.84315 0.36265 0.0
C1856 C 0.64962 0.8075 0.34338 0.0
C1857 C 0.65329 0.80338 0.35886 0.0
C1858 C 0.65564 0.82219 0.33899 0.0
C1859 C 0.6656 0.83289 0.34993 0.0
C1860 C 0.66952 0.82865 0.36527 0.0
H1861 H 0.70321 0.92832 0.37007 0.0
H1862 H 0.69555 0.89977 0.36774 0.0
C1863 C 0.66346 0.81405 0.36969 0.0
C1864 C 0.67097 0.84899 0.34587 0.0
H1865 H 0.70406 0.87511 0.34658 0.0
C1866 C 0.65947 0.85936 0.34239 0.0
C1867 C 0.68725 0.85458 0.34682 0.0
C1868 C 0.70012 0.84377 0.34969 0.0
C1869 C 0.66381 0.87547 0.34086 0.0
C1870 C 0.68008 0.88123 0.3426 0.0
C1871 C 0.69159 0.87067 0.3453 0.0
C1872 C 0.68534 0.89843 0.34333 0.0
C1873 C 0.65094 0.88637 0.33832 0.0
C1874 C 0.68239 0.90713 0.33026 0.0
C1875 C 0.68667 0.92355 0.3316 0.0
C1876 C 0.69394 0.9315 0.34604 0.0
C1877 C 0.69732 0.92261 0.35889 0.0
C1878 C 0.69308 0.90627 0.35754 0.0
H1879 H 0.63901 0.88058 0.33994 0.0
H1880 H 0.65339 0.89733 0.34668 0.0
H1881 H 0.65063 0.88991 0.32606 0.0
H1882 H 0.67665 0.90125 0.31911 0.0
H1883 H 0.68394 0.93008 0.3215 0.0
H1884 H 0.75123 0.11022 0.97519 0.0
H1885 H 0.74185 0.08202 0.97127 0.0
H1886 H 0.70871 0.08917 0.00618 0.0
H1887 H 0.71857 0.11731 0.01073 0.0
H1888 H 0.72631 0.06601 0.01271 0.0
H1889 H 0.70312 0.05554 0.94939 0.0
H1890 H 0.7229 0.06534 0.95185 0.0
H1891 H 0.70702 0.07523 0.95973 0.0
C1892 C 0.74184 0.10584 0.98195 0.0
C1893 C 0.73578 0.11603 0.9934 0.0
C1894 C 0.73631 0.08972 0.9795 0.0
C1895 C 0.72442 0.08347 0.98828 0.0
C1896 C 0.71782 0.09375 0.99919 0.0
H1897 H 0.68996 0.98177 0.98061 0.0
H1898 H 0.69114 0.0105 0.97837 0.0
C1899 C 0.7234 0.10987 0.00171 0.0
C1900 C 0.72038 0.066 0.98751 0.0
H1901 H 0.7104 0.0324 0.96191 0.0
C1902 C 0.72259 0.05872 0.00162 0.0
C1903 C 0.71538 0.05643 0.97308 0.0
C1904 C 0.7118 0.06356 0.95769 0.0
C1905 C 0.72062 0.04216 0.00161 0.0
C1906 C 0.71667 0.03256 0.98705 0.0
C1907 C 0.7137 0.03979 0.97302 0.0
C1908 C 0.7162 0.01502 0.9863 0.0
C1909 C 0.72296 0.03507 0.01722 0.0
C1910 C 0.73001 0.00803 0.99084 0.0
C1911 C 0.72937 0.99174 0.99214 0.0
C1912 C 0.7149 0.98209 0.98879 0.0
C1913 C 0.70127 0.98893 0.98322 0.0
C1914 C 0.70191 0.00532 0.98199 0.0
H1915 H 0.72152 0.04379 0.02743 0.0
H1916 H 0.71442 0.02443 0.01749 0.0
H1917 H 0.73516 0.03141 0.01879 0.0
H1918 H 0.74122 0.01527 0.99389 0.0
H1919 H 0.74011 0.98673 0.99622 0.0
H1920 H 0.26765 0.68411 0.64369 0.0
H1921 H 0.27837 0.65846 0.64447 0.0
H1922 H 0.24334 0.64371 0.67524 0.0
H1923 H 0.23246 0.66942 0.67448 0.0
H1924 H 0.2903 0.64061 0.66854 0.0
H1925 H 0.23383 0.61132 0.63607 0.0
H1926 H 0.23842 0.63259 0.63837 0.0
H1927 H 0.23207 0.62247 0.65471 0.0
C1928 C 0.26245 0.67558 0.65095 0.0
C1929 C 0.2491 0.67875 0.6589 0.0
C1930 C 0.26857 0.66089 0.65134 0.0
C1931 C 0.26147 0.64909 0.65967 0.0
C1932 C 0.24879 0.65255 0.66847 0.0
H1933 H 0.27473 0.54814 0.64152 0.0
H1934 H 0.268 0.57261 0.65588 0.0
C1935 C 0.2426 0.66723 0.66803 0.0
C1936 C 0.26656 0.63284 0.65793 0.0
H1937 H 0.25442 0.59535 0.64066 0.0
C1938 C 0.28241 0.63064 0.66264 0.0
C1939 C 0.25624 0.61985 0.65026 0.0
C1940 C 0.23922 0.62161 0.64443 0.0
C1941 C 0.28834 0.6159 0.65944 0.0
C1942 C 0.2782 0.60312 0.65111 0.0
C1943 C 0.26217 0.60513 0.64711 0.0
C1944 C 0.28421 0.58822 0.64473 0.0
C1945 C 0.30547 0.61423 0.6648 0.0
C1946 C 0.29572 0.58885 0.63391 0.0
C1947 C 0.29958 0.57495 0.62575 0.0
C1948 C 0.2919 0.56011 0.62813 0.0
C1949 C 0.28092 0.55939 0.63953 0.0
C1950 C 0.27703 0.57336 0.64769 0.0
H1951 H 0.30978 0.62255 0.67549 0.0
H1952 H 0.30716 0.60192 0.66754 0.0
H1953 H 0.31292 0.61719 0.6552 0.0
H1954 H 0.30116 0.60016 0.63114 0.0
H1955 H 0.3082 0.57585 0.61715 0.0
H1956 H 0.37257 0.39886 0.04548 0.0
H1957 H 0.36292 0.42525 0.04815 0.0
H1958 H 0.37886 0.43442 0.00277 0.0
H1959 H 0.38854 0.40824 1.00007 0.0
H1960 H 0.38703 0.45983 0.02613 0.0
H1961 H 0.32303 0.43765 0.02365 0.0
H1962 H 0.33611 0.43086 0.03885 0.0
H1963 H 0.33792 0.42484 0.01834 0.0
C1964 C 0.37392 0.40649 0.03605 0.0
C1965 C 0.38131 0.40148 0.02256 0.0
C1966 C 0.36842 0.42155 0.03759 0.0
C1967 C 0.37006 0.43173 0.02559 0.0
C1968 C 0.37754 0.42678 0.01221 0.0
H1969 H 0.34073 0.51072 0.98497 0.0
H1970 H 0.35513 0.48972 0.99551 0.0
C1971 C 0.38309 0.41182 0.01069 0.0
C1972 C 0.36381 0.44748 0.02658 0.0
H1973 H 0.32927 0.46514 0.02422 0.0
C1974 C 0.37442 0.46103 0.02596 0.0
C1975 C 0.34736 0.44904 0.02647 0.0
C1976 C 0.33538 0.43485 0.02675 0.0
C1977 C 0.36895 0.47597 0.02446 0.0
C1978 C 0.35246 0.47734 0.02342 0.0
C1979 C 0.34192 0.46402 0.02505 0.0
C1980 C 0.34572 0.49176 0.01836 0.0
C1981 C 0.38083 0.49007 0.02351 0.0
C1982 C 0.33576 0.49997 0.02778 0.0
C1983 C 0.32757 0.51208 0.02178 0.0
C1984 C 0.32903 0.51585 0.00618 0.0
C1985 C 0.33947 0.50803 0.99704 0.0
C1986 C 0.34775 0.49611 0.00309 0.0
H1987 H 0.39266 0.48838 0.02946 0.0
H1988 H 0.38225 0.49152 0.01085 0.0
H1989 H 0.37678 0.50117 0.029 0.0
H1990 H 0.33392 0.49665 0.03954 0.0
H1991 H 0.31944 0.51786 0.02895 0.0
H1992 H 0.37373 0.66765 0.80545 0.0
H1993 H 0.36813 0.67607 0.83251 0.0
H1994 H 0.33328 0.63565 0.83096 0.0
H1995 H 0.33881 0.62712 0.80387 0.0
H1996 H 0.32368 0.66411 0.84557 0.0
H1997 H 0.38383 0.65247 0.87009 0.0
H1998 H 0.38387 0.66582 0.85488 0.0
H1999 H 0.37574 0.64549 0.85005 0.0
C2000 C 0.36485 0.66056 0.81085 0.0
C2001 C 0.35684 0.64662 0.80257 0.0
C2002 C 0.36166 0.6654 0.8263 0.0
C2003 C 0.3505 0.65633 0.83383 0.0
C2004 C 0.34197 0.6428 0.82537 0.0
H2005 H 0.35066 0.6615 0.93618 0.0
H2006 H 0.34936 0.65219 0.90795 0.0
C2007 C 0.34511 0.63797 0.80988 0.0
C2008 C 0.3483 0.66055 0.85076 0.0
H2009 H 0.36812 0.6654 0.88789 0.0
C2010 C 0.33336 0.66435 0.85486 0.0
C2011 C 0.36088 0.66058 0.86287 0.0
C2012 C 0.37695 0.65573 0.85932 0.0
C2013 C 0.33077 0.66854 0.87075 0.0
C2014 C 0.34352 0.66912 0.88278 0.0
C2015 C 0.35836 0.66503 0.87866 0.0
C2016 C 0.34197 0.67402 0.89975 0.0
C2017 C 0.31437 0.67207 0.87453 0.0
C2018 C 0.3379 0.68927 0.90455 0.0
C2019 C 0.33854 0.69456 0.92071 0.0
C2020 C 0.34348 0.68478 0.93232 0.0
C2021 C 0.34692 0.66932 0.92748 0.0
C2022 C 0.34617 0.664 0.91137 0.0
H2023 H 0.30513 0.66671 0.86498 0.0
H2024 H 0.31153 0.66758 0.88592 0.0
H2025 H 0.31381 0.68512 0.87564 0.0
H2026 H 0.33497 0.69735 0.89584 0.0
H2027 H 0.33603 0.70661 0.9241 0.0
H2028 H 0.00362 0.71448 0.11574 0.0
H2029 H 0.9988 0.70639 0.08715 0.0
H2030 H 0.98499 0.75284 0.07924 0.0
H2031 H 0.98994 0.7611 0.10765 0.0
H2032 H 0.96533 0.72688 0.06085 0.0
H2033 H 0.03002 0.72389 0.05666 0.0
H2034 H 0.02123 0.71214 0.07075 0.0
H2035 H 0.02244 0.73342 0.07385 0.0
C2036 C 0.99951 0.72296 0.10792 0.0
C2037 C 0.99727 0.73848 0.11401 0.0
C2038 C 0.99671 0.7183 0.0916 0.0
C2039 C 0.99169 0.72908 0.08108 0.0
C2040 C 0.98881 0.74433 0.08717 0.0
H2041 H 0.00405 0.73985 0.98456 0.0
H2042 H 0.00192 0.74193 0.01312 0.0
C2043 C 0.9916 0.749 0.10345 0.0
C2044 C 0.9905 0.72498 0.06365 0.0
H2045 H 0.01315 0.71845 0.03296 0.0
C2046 C 0.97573 0.72485 0.05473 0.0
C2047 C 0.00414 0.72252 0.05573 0.0
C2048 C 0.0204 0.72309 0.06466 0.0
C2049 C 0.9743 0.72256 0.03804 0.0
C2050 C 0.98799 0.72031 0.03015 0.0
C2051 C 0.00267 0.72011 0.03909 0.0
C2052 C 0.98773 0.71941 0.01264 0.0
C2053 C 0.95835 0.72316 0.0289 0.0
C2054 C 0.9802 0.70614 0.00286 0.0
C2055 C 0.98146 0.70488 0.98646 0.0
C2056 C 0.99036 0.71682 0.97967 0.0
C2057 C 0.99734 0.73033 0.98947 0.0
C2058 C 0.99608 0.73157 0.00578 0.0
H2059 H 0.94935 0.72708 0.0367 0.0
H2060 H 0.9594 0.73135 0.0195 0.0
H2061 H 0.95405 0.71116 0.02298 0.0
H2062 H 0.97383 0.69655 0.00797 0.0
H2063 H 0.97605 0.69429 0.97922 0.0
H2064 H 0.63335 0.25528 0.67695 0.0
H2065 H 0.63224 0.26327 0.65007 0.0
H2066 H 0.67647 0.24357 0.64333 0.0
H2067 H 0.67744 0.23517 0.67026 0.0
H2068 H 0.65106 0.28225 0.63445 0.0
H2069 H 0.64763 0.21991 0.60692 0.0
H2070 H 0.64615 0.22467 0.6278 0.0
H2071 H 0.66517 0.22651 0.62009 0.0
C2072 C 0.64299 0.25288 0.66986 0.0
C2073 C 0.65545 0.24453 0.67569 0.0
C2074 C 0.64232 0.25741 0.65446 0.0
C2075 C 0.65412 0.25378 0.64456 0.0
C2076 C 0.66702 0.24615 0.6506 0.0
H2077 H 0.63935 0.29141 0.55102 0.0
H2078 H 0.65392 0.28532 0.57563 0.0
C2079 C 0.66761 0.24142 0.666 0.0
C2080 C 0.65225 0.25738 0.62775 0.0
H2081 H 0.64509 0.23974 0.5897 0.0
C2082 C 0.64996 0.27301 0.62462 0.0
C2083 C 0.65075 0.24527 0.61495 0.0
C2084 C 0.65242 0.22812 0.61754 0.0
C2085 C 0.64537 0.27672 0.6092 0.0
C2086 C 0.64348 0.26452 0.59647 0.0
C2087 C 0.64663 0.24907 0.59947 0.0
C2088 C 0.6361 0.267 0.58047 0.0
C2089 C 0.64159 0.29343 0.60691 0.0
C2090 C 0.62173 0.2581 0.57454 0.0
C2091 C 0.6136 0.26131 0.56038 0.0
C2092 C 0.61956 0.27358 0.55186 0.0
C2093 C 0.63442 0.2819 0.55732 0.0
C2094 C 0.64266 0.27857 0.57149 0.0
H2095 H 0.64064 0.30052 0.61837 0.0
H2096 H 0.65118 0.29952 0.60098 0.0
H2097 H 0.63025 0.29333 0.59928 0.0
H2098 H 0.61649 0.24902 0.58117 0.0
H2099 H 0.60238 0.25441 0.55632 0.0
H2100 H 0.0164 0.3575 0.38796 0.0
H2101 H 0.01761 0.34834 0.41444 0.0
H2102 H 0.02007 0.39677 0.4354 0.0
H2103 H 0.01804 0.406 0.40898 0.0
H2104 H 0.03934 0.35449 0.44121 0.0
H2105 H 0.98124 0.37616 0.45287 0.0
H2106 H 0.98824 0.37523 0.43343 0.0
H2107 H 0.99602 0.39108 0.44834 0.0
C2108 C 0.01711 0.36621 0.39819 0.0
C2109 C 0.01689 0.38248 0.39628 0.0
C2110 C 0.01796 0.36096 0.41333 0.0
C2111 C 0.01864 0.37185 0.42687 0.0
C2112 C 0.01924 0.38814 0.42509 0.0
H2113 H 0.00267 0.34785 0.52289 0.0
H2114 H 0.01279 0.36305 0.50202 0.0
C2115 C 0.01827 0.3934 0.40995 0.0
C2116 C 0.01788 0.36599 0.44273 0.0
H2117 H 0.99417 0.36341 0.47294 0.0
C2118 C 0.02955 0.35656 0.44823 0.0
C2119 C 0.00511 0.36874 0.45189 0.0
C2120 C 0.99185 0.37824 0.44632 0.0
C2121 C 0.02857 0.34948 0.46246 0.0
C2122 C 0.01551 0.35179 0.4713 0.0
C2123 C 0.00422 0.36176 0.46616 0.0
C2124 C 0.01219 0.34255 0.4848 0.0
C2125 C 0.04136 0.33937 0.46779 0.0
C2126 C 0.00876 0.32601 0.48209 0.0
C2127 C 0.00293 0.3174 0.49389 0.0
C2128 C 0.00041 0.32516 0.50863 0.0
C2129 C 0.00464 0.3416 0.51167 0.0
C2130 C 0.01036 0.35027 0.49976 0.0
H2131 H 0.05267 0.34273 0.46277 0.0
H2132 H 0.04356 0.34042 0.48095 0.0
H2133 H 0.03751 0.32675 0.46357 0.0
H2134 H 0.00979 0.31986 0.47054 0.0
H2135 H 0.99979 0.30472 0.49129 0.0
H2136 H 0.29654 0.55015 0.43977 0.0
H2137 H 0.29671 0.53825 0.46495 0.0
H2138 H 0.27708 0.57913 0.48634 0.0
H2139 H 0.2769 0.5911 0.46125 0.0
H2140 H 0.31328 0.55037 0.49309 0.0
H2141 H 0.24905 0.54265 0.50031 0.0
H2142 H 0.25649 0.54641 0.48162 0.0
H2143 H 0.25568 0.56254 0.4967 0.0
C2144 C 0.29218 0.55657 0.44982 0.0
C2145 C 0.2867 0.57158 0.44851 0.0
C2146 C 0.29222 0.54972 0.46417 0.0
C2147 C 0.2867 0.55769 0.47746 0.0
C2148 C 0.28101 0.57257 0.47613 0.0
H2149 H 0.31127 0.55672 0.57646 0.0
H2150 H 0.30921 0.56041 0.54822 0.0
C2151 C 0.28094 0.57942 0.46178 0.0
C2152 C 0.28799 0.55106 0.49303 0.0
H2153 H 0.26684 0.54188 0.52383 0.0
C2154 C 0.30309 0.5483 0.49972 0.0
C2155 C 0.27467 0.54812 0.50157 0.0
C2156 C 0.25803 0.54992 0.49462 0.0
C2157 C 0.30533 0.54344 0.51504 0.0
C2158 C 0.29217 0.54152 0.52399 0.0
C2159 C 0.27695 0.5435 0.51701 0.0
C2160 C 0.29408 0.5386 0.54095 0.0
C2161 C 0.32182 0.54055 0.52157 0.0
C2162 C 0.28612 0.52518 0.54628 0.0
C2163 C 0.28719 0.52309 0.56249 0.0
C2164 C 0.29607 0.53451 0.57363 0.0
C2165 C 0.30423 0.54779 0.56818 0.0
C2166 C 0.30319 0.54983 0.55203 0.0
H2167 H 0.32935 0.53765 0.51189 0.0
H2168 H 0.32754 0.55149 0.52872 0.0
H2169 H 0.32145 0.53073 0.52934 0.0
H2170 H 0.27893 0.51644 0.53791 0.0
H2171 H 0.28066 0.51283 0.56635 0.0
H2172 H 0.21799 0.45595 0.849 0.0
H2173 H 0.22742 0.4774 0.86989 0.0
H2174 H 0.26608 0.45103 0.8852 0.0
H2175 H 0.25674 0.42957 0.86447 0.0
H2176 H 0.23092 0.47616 0.90228 0.0
H2177 H 0.28874 0.49458 0.88098 0.0
H2178 H 0.27314 0.48222 0.86859 0.0
H2179 H 0.28609 0.47364 0.88268 0.0
C2180 C 0.22849 0.45472 0.85683 0.0
C2181 C 0.23667 0.44109 0.85502 0.0
C2182 C 0.2339 0.46702 0.8687 0.0
C2183 C 0.24762 0.46594 0.87889 0.0
C2184 C 0.25572 0.45231 0.87718 0.0
H2185 H 0.28032 0.50152 0.97273 0.0
H2186 H 0.26612 0.48854 0.94807 0.0
C2187 C 0.25035 0.44004 0.86534 0.0
C2188 C 0.25309 0.47863 0.89186 0.0
H2189 H 0.28602 0.50238 0.90848 0.0
C2190 C 0.24288 0.4821 0.90352 0.0
C2191 C 0.26858 0.48662 0.89329 0.0
C2192 C 0.27971 0.48421 0.88062 0.0
C2193 C 0.24809 0.4926 0.91708 0.0
C2194 C 0.26399 0.49958 0.91912 0.0
C2195 C 0.27387 0.4969 0.90699 0.0
C2196 C 0.2711 0.50835 0.93435 0.0
C2197 C 0.23661 0.49587 0.92923 0.0
C2198 C 0.27873 0.52379 0.93483 0.0
C2199 C 0.28702 0.5312 0.94895 0.0
C2200 C 0.28797 0.52317 0.96271 0.0
C2201 C 0.27989 0.50793 0.96227 0.0
C2202 C 0.27161 0.50057 0.94823 0.0
H2203 H 0.22415 0.49434 0.92368 0.0
H2204 H 0.23764 0.4873 0.93829 0.0
H2205 H 0.23917 0.50809 0.93532 0.0
H2206 H 0.27858 0.52993 0.9242 0.0
H2207 H 0.29323 0.54291 0.94893 0.0
H2208 H 0.67662 0.99597 0.51133 0.0
H2209 H 0.6726 0.99574 0.4825 0.0
H2210 H 0.72105 0.01552 0.48186 0.0
H2211 H 0.72501 0.01651 0.51082 0.0
H2212 H 0.69914 0.02761 0.45977 0.0
H2213 H 0.6926 0.96161 0.45592 0.0
H2214 H 0.6789 0.97105 0.46762 0.0
H2215 H 0.69978 0.9738 0.47408 0.0
C2216 C 0.68632 0.00068 0.50515 0.0
C2217 C 0.70122 0.00607 0.5134 0.0
C2218 C 0.68403 1.00038 0.48864 0.0
C2219 C 0.69662 0.0053 0.48006 0.0
C2220 C 0.71122 0.01156 0.48828 0.0
H2221 H 0.72045 0.99487 0.38404 0.0
H2222 H 0.71817 0.00503 0.41152 0.0
C2223 C 0.7135 0.01196 0.50481 0.0
C2224 C 0.69503 0.00266 0.46251 0.0
H2225 H 0.68961 0.97321 0.4319 0.0
C2226 C 0.69698 0.01574 0.45363 0.0
C2227 C 0.69231 0.98714 0.45458 0.0
C2228 C 0.69091 0.97257 0.4635 0.0
C2229 C 0.6962 0.01368 0.43696 0.0
C2230 C 0.6936 0.99814 0.42908 0.0
C2231 C 0.69146 0.98512 0.43798 0.0
C2232 C 0.69392 0.99479 0.41172 0.0
C2233 C 0.69808 0.0281 0.42793 0.0
C2234 C 0.68098 0.98586 0.40264 0.0
C2235 C 0.6823 0.97997 0.38699 0.0
C2236 C 0.69661 0.98284 0.38016 0.0
C2237 C 0.70923 0.9926 0.38894 0.0
C2238 C 0.70792 0.99846 0.40464 0.0
H2239 H 0.69538 0.03897 0.43505 0.0
H2240 H 0.71055 0.02998 0.42506 0.0
H2241 H 0.69022 0.02647 0.41661 0.0
H2242 H 0.67009 0.98287 0.4079 0.0
H2243 H 0.67233 0.97263 0.38042 0.0
H2244 H 0.75985 0.93229 0.16116 0.0
H2245 H 0.7535 0.92297 0.13296 0.0
H2246 H 0.77399 0.96789 0.12037 0.0
H2247 H 0.78043 0.97718 0.14839 0.0
H2248 H 0.7333 0.9359 0.11346 0.0
H2249 H 0.79098 0.93772 0.08835 0.0
H2250 H 0.78943 0.93828 0.10945 0.0
H2251 H 0.78905 0.9562 0.09964 0.0
C2252 C 0.76324 0.94006 0.15234 0.0
C2253 C 0.77062 0.95548 0.15699 0.0
C2254 C 0.75968 0.93469 0.13625 0.0
C2255 C 0.76347 0.94463 0.12453 0.0
C2256 C 0.77136 0.95981 0.12915 0.0
H2257 H 0.7148 0.96335 0.03979 0.0
H2258 H 0.72546 0.95949 0.06662 0.0
C2259 C 0.77499 0.96515 0.14521 0.0
C2260 C 0.7574 0.94011 0.10766 0.0
H2261 H 0.76801 0.94078 0.0699 0.0
C2262 C 0.74095 0.9366 0.10395 0.0
C2263 C 0.76736 0.94076 0.09521 0.0
C2264 C 0.7852 0.94327 0.09838 0.0
C2265 C 0.7341 0.93491 0.08818 0.0
C2266 C 0.74393 0.93708 0.07584 0.0
C2267 C 0.76047 0.93937 0.07942 0.0
C2268 C 0.73716 0.93879 0.05949 0.0
C2269 C 0.71632 0.93134 0.08491 0.0
C2270 C 0.74046 0.92858 0.04652 0.0
C2271 C 0.73445 0.93085 0.03107 0.0
C2272 C 0.72528 0.9435 0.0284 0.0
C2273 C 0.72198 0.95361 0.04145 0.0
C2274 C 0.72791 0.95131 0.05681 0.0
H2275 H 0.71129 0.92496 0.09446 0.0
H2276 H 0.71081 0.94266 0.08448 0.0
H2277 H 0.71301 0.92405 0.07336 0.0
H2278 H 0.7477 0.91893 0.04836 0.0
H2279 H 0.73726 0.92294 0.02121 0.0
H2280 H 0.44798 0.31529 0.57136 0.0
H2281 H 0.47209 0.31474 0.55781 0.0
H2282 H 0.47141 0.26438 0.56139 0.0
H2283 H 0.44684 0.26464 0.57421 0.0
H2284 H 0.5004 0.30705 0.56934 0.0
H2285 H 0.47904 0.26644 0.5155 0.0
H2286 H 0.46566 0.27511 0.52835 0.0
H2287 H 0.47504 0.25782 0.5334 0.0
C2288 C 0.45272 0.30401 0.56894 0.0
C2289 C 0.44538 0.28999 0.57383 0.0
C2290 C 0.46659 0.30375 0.56129 0.0
C2291 C 0.47342 0.28948 0.55833 0.0
C2292 C 0.46615 0.27547 0.56318 0.0
H2293 H 0.56301 0.261 0.53609 0.0
H2294 H 0.53558 0.26325 0.54194 0.0
C2295 C 0.45222 0.27569 0.57075 0.0
C2296 C 0.48872 0.28945 0.55117 0.0
H2297 H 0.50733 0.27109 0.52165 0.0
C2298 C 0.50185 0.29937 0.55877 0.0
C2299 C 0.49061 0.27944 0.53735 0.0
C2300 C 0.47679 0.26922 0.52808 0.0
C2301 C 0.51693 0.29907 0.55332 0.0
C2302 C 0.5189 0.28868 0.53984 0.0
C2303 C 0.50574 0.27904 0.53199 0.0
C2304 C 0.5348 0.28687 0.53453 0.0
C2305 C 0.5308 0.30941 0.56238 0.0
C2306 C 0.54324 0.29925 0.52799 0.0
C2307 C 0.55892 0.29798 0.52459 0.0
C2308 C 0.56637 0.28435 0.5278 0.0
C2309 C 0.5576 0.27171 0.53368 0.0
C2310 C 0.54194 0.27294 0.53695 0.0
H2311 H 0.5277 0.31505 0.57385 0.0
H2312 H 0.54095 0.30231 0.56478 0.0
H2313 H 0.53476 0.31894 0.5551 0.0
H2314 H 0.53784 0.31005 0.52593 0.0
H2315 H 0.56542 0.30791 0.52012 0.0
H2316 H 0.16245 0.76306 0.93989 0.0
H2317 H 0.1351 0.75624 0.92771 0.0
H2318 H 0.11782 0.76458 0.97363 0.0
H2319 H 0.14498 0.77169 0.98576 0.0
H2320 H 0.1149 0.73123 0.93508 0.0
H2321 H 0.08791 0.78752 0.94552 0.0
H2322 H 0.10915 0.78667 0.94666 0.0
H2323 H 0.09838 0.78242 0.96334 0.0
C2324 C 0.15277 0.76379 0.9473 0.0
C2325 C 0.15584 0.76787 0.96378 0.0
C2326 C 0.13719 0.75983 0.94034 0.0
C2327 C 0.12443 0.76011 0.94973 0.0
C2328 C 0.12746 0.76461 0.9661 0.0
H2329 H 0.03932 0.70702 0.95601 0.0
H2330 H 0.06661 0.71707 0.95309 0.0
C2331 C 0.14299 0.76849 0.97306 0.0
C2332 C 0.10807 0.75426 0.9429 0.0
H2333 H 0.06981 0.76341 0.94274 0.0
C2334 C 0.10505 0.73837 0.9364 0.0
C2335 C 0.09526 0.76364 0.94432 0.0
C2336 C 0.09785 0.78106 0.95019 0.0
C2337 C 0.08946 0.73126 0.93253 0.0
C2338 C 0.07662 0.74023 0.93545 0.0
C2339 C 0.07967 0.75647 0.94068 0.0
C2340 C 0.06021 0.73264 0.93526 0.0
C2341 C 0.08688 0.71405 0.92588 0.0
C2342 C 0.04751 0.73805 0.92618 0.0
C2343 C 0.03184 0.73233 0.92789 0.0
C2344 C 0.02868 0.72136 0.9389 0.0
C2345 C 0.04144 0.71554 0.9475 0.0
C2346 C 0.05704 0.72116 0.94572 0.0
H2347 H 0.09692 0.71066 0.9192 0.0
H2348 H 0.08619 0.70647 0.93582 0.0
H2349 H 0.07567 0.71153 0.91789 0.0
H2350 H 0.04972 0.74703 0.91816 0.0
H2351 H 0.02219 0.73709 0.92123 0.0
H2352 H 0.85752 0.20831 0.43816 0.0
H2353 H 0.87833 0.21778 0.45959 0.0
H2354 H 0.86364 0.26505 0.45954 0.0
H2355 H 0.84236 0.25557 0.43876 0.0
H2356 H 0.90303 0.2393 0.45868 0.0
H2357 H 0.8676 0.26043 0.50629 0.0
H2358 H 0.85879 0.24798 0.4888 0.0
H2359 H 0.86259 0.26913 0.48829 0.0
C2360 C 0.85849 0.22065 0.44295 0.0
C2361 C 0.84823 0.23117 0.43672 0.0
C2362 C 0.87045 0.22606 0.45515 0.0
C2363 C 0.87237 0.24206 0.46139 0.0
C2364 C 0.86214 0.25257 0.45523 0.0
H2365 H 0.94385 0.30964 0.50778 0.0
H2366 H 0.91995 0.29398 0.49453 0.0
C2367 C 0.85013 0.24717 0.44312 0.0
C2368 C 0.88579 0.24811 0.47345 0.0
H2369 H 0.89515 0.27125 0.50869 0.0
C2370 C 0.90129 0.24599 0.46977 0.0
C2371 C 0.88353 0.25679 0.48797 0.0
C2372 C 0.86721 0.25857 0.49315 0.0
C2373 C 0.91457 0.25307 0.47978 0.0
C2374 C 0.91226 0.26245 0.49382 0.0
C2375 C 0.89682 0.26406 0.49786 0.0
C2376 C 0.92574 0.27196 0.50348 0.0
C2377 C 0.93099 0.25117 0.47493 0.0
C2378 C 0.93664 0.26479 0.51322 0.0
C2379 C 0.95029 0.27375 0.52089 0.0
C2380 C 0.95322 0.28992 0.51874 0.0
C2381 C 0.94192 0.29716 0.5095 0.0
C2382 C 0.92827 0.28826 0.50199 0.0
H2383 H 0.93071 0.24437 0.46309 0.0
H2384 H 0.9376 0.26302 0.47464 0.0
H2385 H 0.93766 0.24485 0.48383 0.0
H2386 H 0.93482 0.2522 0.51449 0.0
H2387 H 0.95887 0.2679 0.5279 0.0
H2388 H 0.50831 0.72684 0.00153 0.0
H2389 H 0.4797 0.72334 0.0026 0.0
H2390 H 0.48391 0.67918 0.02321 0.0
H2391 H 0.51275 0.68267 0.02233 0.0
H2392 H 0.4625 0.67603 0.99712 0.0
H2393 H 0.4503 0.72716 0.0375 0.0
H2394 H 0.46264 0.73341 0.02273 0.0
H2395 H 0.4699 0.72061 0.03693 0.0
C2396 C 0.50326 0.71661 0.00674 0.0
C2397 C 0.51285 0.70504 0.01186 0.0
C2398 C 0.48686 0.71464 0.00738 0.0
C2399 C 0.47969 0.70114 0.01324 0.0
C2400 C 0.48924 0.68975 0.01876 0.0
H2401 H 0.37446 0.69278 0.00448 0.0
H2402 H 0.40158 0.69204 0.01703 0.0
C2403 C 0.50569 0.69172 0.01814 0.0
C2404 C 0.46214 0.69812 0.01167 0.0
H2405 H 0.42865 0.71631 0.01759 0.0
C2406 C 0.45507 0.68464 0.00193 0.0
C2407 C 0.45241 0.70921 0.01812 0.0
C2408 C 0.45921 0.72332 0.02955 0.0
C2409 C 0.43868 0.68265 0.99743 0.0
C2410 C 0.42919 0.69453 0.00266 0.0
C2411 C 0.43602 0.70733 0.01344 0.0
C2412 C 0.41275 0.69487 0.99544 0.0
C2413 C 0.43174 0.6682 0.98656 0.0
C2414 C 0.41019 0.69705 0.9793 0.0
C2415 C 0.39487 0.69765 0.97219 0.0
C2416 C 0.38172 0.69602 0.98105 0.0
C2417 C 0.38433 0.69409 0.99733 0.0
C2418 C 0.39977 0.69358 0.0045 0.0
H2419 H 0.43926 0.65822 0.98748 0.0
H2420 H 0.41957 0.66419 0.9893 0.0
H2421 H 0.43102 0.67121 0.97409 0.0
H2422 H 0.42011 0.69845 0.97221 0.0
H2423 H 0.39337 0.69964 0.95975 0.0
H2424 H 0.56276 0.44461 0.27375 0.0
H2425 H 0.55154 0.47024 0.27363 0.0
H2426 H 0.58904 0.49122 0.3089 0.0
H2427 H 0.60044 0.46584 0.30892 0.0
H2428 H 0.54158 0.48944 0.3007 0.0
H2429 H 0.59012 0.52041 0.27218 0.0
H2430 H 0.58686 0.49903 0.27129 0.0
H2431 H 0.59674 0.51033 0.28889 0.0
C2432 C 0.56869 0.45474 0.28136 0.0
C2433 C 0.58251 0.45322 0.29133 0.0
C2434 C 0.5622 0.46931 0.28135 0.0
C2435 C 0.56955 0.48262 0.29115 0.0
C2436 C 0.58329 0.48112 0.30113 0.0
H2437 H 0.55979 0.58108 0.31326 0.0
H2438 H 0.56628 0.55359 0.31205 0.0
C2439 C 0.58972 0.46658 0.30121 0.0
C2440 C 0.56292 0.49814 0.2911 0.0
H2441 H 0.57214 0.5366 0.28403 0.0
C2442 C 0.54814 0.49975 0.29691 0.0
C2443 C 0.57152 0.51149 0.2861 0.0
C2444 C 0.58713 0.51027 0.27912 0.0
C2445 C 0.54204 0.5146 0.29849 0.0
C2446 C 0.55089 0.52805 0.2939 0.0
C2447 C 0.56544 0.52629 0.28766 0.0
C2448 C 0.5457 0.54424 0.29595 0.0
C2449 C 0.52652 0.5159 0.30559 0.0
C2450 C 0.53177 0.54806 0.28755 0.0
C2451 C 0.528 0.5638 0.28828 0.0
C2452 C 0.53821 0.57596 0.29726 0.0
C2453 C 0.5518 0.57197 0.30612 0.0
C2454 C 0.5555 0.55628 0.30545 0.0
H2455 H 0.52298 0.50528 0.31166 0.0
H2456 H 0.52728 0.52662 0.31424 0.0
H2457 H 0.51705 0.51702 0.29599 0.0
H2458 H 0.52417 0.53899 0.27994 0.0
H2459 H 0.51754 0.56658 0.2812 0.0
H2460 H 0.95018 0.15612 0.78601 0.0
H2461 H 0.94487 0.12705 0.78263 0.0
H2462 H 0.96097 0.12611 0.73592 0.0
H2463 H 0.96666 0.15493 0.73929 0.0
H2464 H 0.92515 0.10606 0.75745 0.0
H2465 H 0.98915 0.09703 0.7607 0.0
H2466 H 0.98209 0.11564 0.7675 0.0
H2467 H 0.98329 0.11053 0.74667 0.0
C2468 C 0.9526 0.1497 0.77503 0.0
C2469 C 0.95888 0.15784 0.76293 0.0
C2470 C 0.94946 0.13313 0.7731 0.0
C2471 C 0.9527 0.12449 0.7591 0.0
C2472 C 0.95854 0.13259 0.74686 0.0
H2473 H 0.92909 0.03164 0.71197 0.0
H2474 H 0.92827 0.05895 0.72354 0.0
C2475 C 0.96165 0.14909 0.74876 0.0
C2476 C 0.95054 0.10693 0.7573 0.0
H2477 H 0.97095 0.07468 0.75052 0.0
C2478 C 0.93514 0.09912 0.75614 0.0
C2479 C 0.96363 0.09796 0.75589 0.0
C2480 C 0.98049 0.10568 0.7579 0.0
C2481 C 0.93245 0.08253 0.75279 0.0
C2482 C 0.94549 0.07366 0.75036 0.0
C2483 C 0.96092 0.08147 0.7523 0.0
C2484 C 0.94355 0.05647 0.74482 0.0
C2485 C 0.91569 0.0747 0.75181 0.0
C2486 C 0.95227 0.04594 0.75298 0.0
C2487 C 0.95291 0.03041 0.74628 0.0
C2488 C 0.94481 0.02513 0.73132 0.0
C2489 C 0.9353 0.03536 0.7236 0.0
C2490 C 0.93477 0.05095 0.73025 0.0
H2491 H 0.90817 0.08192 0.75902 0.0
H2492 H 0.9104 0.07357 0.73929 0.0
H2493 H 0.91542 0.06265 0.75592 0.0
H2494 H 0.95916 0.04995 0.76422 0.0
H2495 H 0.96023 0.02271 0.75252 0.0
H2496 H 0.42335 0.87007 0.2177 0.0
H2497 H 0.44305 0.89273 0.2265 0.0
H2498 H 0.47298 0.86193 0.25013 0.0
H2499 H 0.45341 0.83914 0.24122 0.0
H2500 H 0.45376 0.90194 0.26007 0.0
H2501 H 0.50308 0.8888 0.22363 0.0
H2502 H 0.48281 0.88046 0.218 0.0
H2503 H 0.49453 0.87281 0.23365 0.0
C2504 C 0.43424 0.86808 0.22454 0.0
C2505 C 0.43684 0.85283 0.22877 0.0
C2506 C 0.44544 0.88102 0.22959 0.0
C2507 C 0.45952 0.87893 0.23879 0.0
C2508 C 0.46228 0.86372 0.24284 0.0
H2509 H 0.53537 0.94513 0.2892 0.0
H2510 H 0.51994 0.92139 0.27494 0.0
C2511 C 0.45103 0.85076 0.23789 0.0
C2512 C 0.47069 0.89289 0.24513 0.0
H2513 H 0.50797 0.91089 0.24314 0.0
C2514 C 0.46559 0.90395 0.25633 0.0
C2515 C 0.48615 0.89531 0.24034 0.0
C2516 C 0.49203 0.8838 0.22817 0.0
C2517 C 0.47558 0.91737 0.26299 0.0
C2518 C 0.49095 0.92004 0.25795 0.0
C2519 C 0.49614 0.90887 0.24686 0.0
C2520 C 0.50169 0.93437 0.26424 0.0
C2521 C 0.46969 0.92838 0.27564 0.0
C2522 C 0.49695 0.94952 0.26227 0.0
C2523 C 0.50564 0.96298 0.27045 0.0
C2524 C 0.51937 0.96152 0.2805 0.0
C2525 C 0.52487 0.94651 0.28143 0.0
C2526 C 0.51604 0.93298 0.27335 0.0
H2527 H 0.4597 0.92245 0.28118 0.0
H2528 H 0.47935 0.93279 0.28513 0.0
H2529 H 0.46535 0.93877 0.27019 0.0
H2530 H 0.48611 0.95087 0.255 0.0
H2531 H 0.50124 0.97447 0.26952 0.0
H2532 H 0.99663 0.51253 0.67741 0.0
H2533 H 0.99607 0.48367 0.67356 0.0
H2534 H 0.01709 0.48326 0.72162 0.0
H2535 H 0.01839 0.51227 0.7254 0.0
H2536 H 0.02881 0.4613 0.69945 0.0
H2537 H 0.96287 0.45664 0.69419 0.0
H2538 H 0.97171 0.46852 0.68027 0.0
H2539 H 0.97495 0.47493 0.70116 0.0
C2540 C 0.0015 0.50639 0.68707 0.0
C2541 C 0.00741 0.51474 0.70178 0.0
C2542 C 0.00101 0.48985 0.68488 0.0
C2543 C 0.00624 0.48133 0.69741 0.0
C2544 C 0.01288 0.48963 0.71185 0.0
H2545 H 0.99733 0.38374 0.71814 0.0
H2546 H 0.00687 0.41166 0.7172 0.0
C2547 C 0.01346 0.50619 0.71402 0.0
C2548 C 0.00378 0.46376 0.6958 0.0
H2549 H 0.97471 0.43279 0.69006 0.0
C2550 C 0.01701 0.45503 0.69736 0.0
C2551 C 0.98834 0.45564 0.69319 0.0
C2552 C 0.97363 0.46438 0.69225 0.0
C2553 C 0.01518 0.43833 0.69617 0.0
C2554 C 0.99973 0.43026 0.69354 0.0
C2555 C 0.98655 0.43902 0.69192 0.0
C2556 C 0.99667 0.41278 0.69309 0.0
C2557 C 0.02974 0.42946 0.69758 0.0
C2558 C 0.988 0.40409 0.67977 0.0
C2559 C 0.98249 0.38818 0.68031 0.0
C2560 C 0.98548 0.3807 0.69421 0.0
C2561 C 0.99498 0.38915 0.70721 0.0
C2562 C 0.00047 0.4051 0.70668 0.0
H2563 H 0.04055 0.43693 0.69527 0.0
H2564 H 0.03162 0.42594 0.70982 0.0
H2565 H 0.02827 0.4185 0.68919 0.0
H2566 H 0.98493 0.40981 0.66919 0.0
H2567 H 0.97536 0.3819 0.67004 0.0
H2568 H 0.68639 0.40031 0.53276 0.0
H2569 H 0.68788 0.41242 0.50785 0.0
H2570 H 0.72014 0.45101 0.53198 0.0
H2571 H 0.71881 0.43886 0.55698 0.0
H2572 H 0.67991 0.44171 0.50025 0.0
H2573 H 0.74399 0.4364 0.49482 0.0
H2574 H 0.73317 0.42609 0.50876 0.0
H2575 H 0.73969 0.44689 0.51299 0.0
C2576 C 0.69377 0.4114 0.53278 0.0
C2577 C 0.70252 0.41861 0.54682 0.0
C2578 C 0.69463 0.41829 0.51853 0.0
C2579 C 0.70426 0.43251 0.51802 0.0
C2580 C 0.7129 0.43985 0.53204 0.0
H2581 H 0.7219 0.48103 0.43309 0.0
H2582 H 0.71971 0.47664 0.46107 0.0
C2583 C 0.71212 0.43291 0.5463 0.0
C2584 C 0.70506 0.4396 0.50275 0.0
H2585 H 0.73009 0.44882 0.47493 0.0
C2586 C 0.6909 0.44336 0.49476 0.0
C2587 C 0.71943 0.44182 0.49564 0.0
C2588 C 0.73493 0.43748 0.50339 0.0
C2589 C 0.69066 0.44894 0.4797 0.0
C2590 C 0.70492 0.45069 0.47241 0.0
C2591 C 0.71919 0.44752 0.48062 0.0
C2592 C 0.70507 0.45426 0.4557 0.0
C2593 C 0.67512 0.45274 0.47161 0.0
C2594 C 0.69751 0.44318 0.44351 0.0
C2595 C 0.6988 0.44561 0.42764 0.0
C2596 C 0.70769 0.45918 0.42366 0.0
C2597 C 0.71487 0.47054 0.43586 0.0
C2598 C 0.71369 0.46802 0.45179 0.0
H2599 H 0.66635 0.45502 0.48028 0.0
H2600 H 0.67688 0.46327 0.46489 0.0
H2601 H 0.67003 0.44248 0.46309 0.0
H2602 H 0.691 0.43237 0.44628 0.0
H2603 H 0.69309 0.43671 0.41846 0.0
H2604 H 0.73155 0.56559 0.16174 0.0
H2605 H 0.72108 0.54456 0.1409 0.0
H2606 H 0.7672 0.54431 0.12364 0.0
H2607 H 0.77777 0.56574 0.14417 0.0
H2608 H 0.7257 0.54878 0.10523 0.0
H2609 H 0.74862 0.49562 0.12971 0.0
H2610 H 0.7447 0.51269 0.14253 0.0
H2611 H 0.7614 0.51395 0.13111 0.0
C2612 C 0.73949 0.56115 0.15348 0.0
C2613 C 0.75548 0.56746 0.15456 0.0
C2614 C 0.7335 0.54903 0.1417 0.0
C2615 C 0.74342 0.54286 0.13089 0.0
C2616 C 0.75945 0.54883 0.13205 0.0
H2617 H 0.72003 0.47252 0.04844 0.0
H2618 H 0.73431 0.48898 0.07157 0.0
C2619 C 0.76545 0.56104 0.1438 0.0
C2620 C 0.73662 0.53102 0.11769 0.0
H2621 H 0.73277 0.49141 0.10512 0.0
C2622 C 0.72726 0.53624 0.10515 0.0
C2623 C 0.7389 0.51476 0.11762 0.0
C2624 C 0.74891 0.50877 0.13094 0.0
C2625 C 0.71992 0.52556 0.09254 0.0
C2626 C 0.72164 0.50915 0.09274 0.0
C2627 C 0.73136 0.50397 0.1051 0.0
C2628 C 0.71309 0.49732 0.08031 0.0
C2629 C 0.7105 0.53197 0.07905 0.0
C2630 C 0.69645 0.49601 0.07806 0.0
C2631 C 0.68836 0.48677 0.06491 0.0
C2632 C 0.69676 0.47848 0.05391 0.0
C2633 C 0.71332 0.47878 0.05682 0.0
C2634 C 0.72146 0.48819 0.06995 0.0
H2635 H 0.71406 0.5448 0.07843 0.0
H2636 H 0.71202 0.52539 0.06747 0.0
H2637 H 0.69771 0.53063 0.0809 0.0
H2638 H 0.68976 0.50268 0.08613 0.0
H2639 H 0.67556 0.48658 0.06296 0.0
H2640 H 0.30832 0.98362 0.48189 0.0
H2641 H 0.30899 0.98502 0.51087 0.0
H2642 H 0.26491 0.00655 0.50872 0.0
H2643 H 0.26439 0.00569 0.4799 0.0
H2644 H 0.28903 0.02342 0.52945 0.0
H2645 H 0.28245 0.9597 0.54013 0.0
H2646 H 0.29776 0.96517 0.52781 0.0
H2647 H 0.27734 0.96643 0.52092 0.0
C2648 C 0.29873 0.98858 0.48759 0.0
C2649 C 0.28631 0.99455 0.47858 0.0
C2650 C 0.29904 0.98919 0.50412 0.0
C2651 C 0.2869 0.99572 0.5119 0.0
C2652 C 0.27432 0.00135 0.50291 0.0
H2653 H 0.26775 0.00314 0.61055 0.0
H2654 H 0.26737 0.99554 0.58198 0.0
C2655 C 0.274 0.00075 0.48643 0.0
C2656 C 0.28794 0.998 0.52944 0.0
H2657 H 0.28879 0.97845 0.56287 0.0
C2658 C 0.28895 0.01358 0.53675 0.0
C2659 C 0.28775 0.98513 0.5389 0.0
C2660 C 0.28613 0.96814 0.53158 0.0
C2661 C 0.28985 0.01669 0.5533 0.0
C2662 C 0.28999 0.00386 0.56279 0.0
C2663 C 0.28883 0.98824 0.55552 0.0
C2664 C 0.29103 0.0066 0.58029 0.0
C2665 C 0.2904 0.03367 0.56049 0.0
C2666 C 0.30465 0.01486 0.58881 0.0
C2667 C 0.30491 0.0192 0.60507 0.0
C2668 C 0.29155 0.01529 0.61311 0.0
C2669 C 0.27823 0.00626 0.60469 0.0
C2670 C 0.27798 0.00195 0.58839 0.0
H2671 H 0.28669 0.04171 0.55153 0.0
H2672 H 0.28261 0.03459 0.57027 0.0
H2673 H 0.30273 0.03788 0.5655 0.0
H2674 H 0.31492 0.01834 0.58277 0.0
H2675 H 0.31545 0.02587 0.61131 0.0
H2676 H 0.23792 0.0685 0.85094 0.0
H2677 H 0.24505 0.07581 0.87944 0.0
H2678 H 0.2433 0.02624 0.88717 0.0
H2679 H 0.23589 0.01884 0.8588 0.0
H2680 H 0.22924 0.04632 0.91047 0.0
H2681 H 0.29038 0.06935 0.89958 0.0
H2682 H 0.27415 0.07733 0.88894 0.0
H2683 H 0.27726 0.05683 0.88471 0.0
C2684 C 0.23875 0.05917 0.85877 0.0
C2685 C 0.23649 0.04309 0.85263 0.0
C2686 C 0.24294 0.06337 0.875 0.0
C2687 C 0.24491 0.05156 0.88532 0.0
C2688 C 0.24191 0.03552 0.87936 0.0
H2689 H 0.29737 0.04098 0.97204 0.0
H2690 H 0.28595 0.04214 0.94476 0.0
C2691 C 0.23778 0.03132 0.86315 0.0
C2692 C 0.25101 0.05572 0.90218 0.0
H2693 H 0.28486 0.06919 0.92615 0.0
C2694 C 0.24131 0.05154 0.91396 0.0
C2695 C 0.26682 0.0624 0.90659 0.0
C2696 C 0.27786 0.06667 0.89435 0.0
C2697 C 0.24717 0.05348 0.93008 0.0
C2698 C 0.26308 0.05984 0.93445 0.0
C2699 C 0.27263 0.06444 0.92271 0.0
C2700 C 0.27052 0.06017 0.95091 0.0
C2701 C 0.23657 0.048 0.94225 0.0
C2702 C 0.26585 0.07019 0.96332 0.0
C2703 C 0.27237 0.06955 0.97895 0.0
C2704 C 0.28358 0.05882 0.98235 0.0
C2705 C 0.28858 0.0492 0.96979 0.0
C2706 C 0.28214 0.0499 0.95421 0.0
H2707 H 0.22527 0.04139 0.93667 0.0
H2708 H 0.24278 0.04026 0.95009 0.0
H2709 H 0.23368 0.05848 0.94983 0.0
H2710 H 0.25701 0.07831 0.96094 0.0
H2711 H 0.26828 0.07706 0.98842 0.0
H2712 H 0.54258 0.67974 0.42207 0.0
H2713 H 0.51728 0.68242 0.43319 0.0
H2714 H 0.52798 0.73326 0.43989 0.0
H2715 H 0.55357 0.73075 0.42919 0.0
H2716 H 0.51255 0.70624 0.46684 0.0
H2717 H 0.48298 0.7154 0.40749 0.0
H2718 H 0.49913 0.70303 0.40927 0.0
H2719 H 0.50301 0.72413 0.41358 0.0
C2720 C 0.53974 0.69148 0.42619 0.0
C2721 C 0.55012 0.70504 0.42469 0.0
C2722 C 0.52526 0.69297 0.43249 0.0
C2723 C 0.52087 0.70801 0.43735 0.0
C2724 C 0.53125 0.72155 0.4362 0.0
H2725 H 0.42761 0.7355 0.45295 0.0
H2726 H 0.45586 0.73573 0.44935 0.0
C2727 C 0.54577 0.72009 0.42995 0.0
C2728 C 0.50498 0.70961 0.44263 0.0
H2729 H 0.4672 0.71512 0.42874 0.0
C2730 C 0.5026 0.70824 0.45859 0.0
C2731 C 0.49215 0.71227 0.43179 0.0
C2732 C 0.49428 0.7138 0.41454 0.0
C2733 C 0.48757 0.70949 0.46401 0.0
C2734 C 0.47461 0.71185 0.45307 0.0
C2735 C 0.47713 0.71334 0.43713 0.0
C2736 C 0.45823 0.71263 0.45765 0.0
C2737 C 0.48577 0.70853 0.4814 0.0
C2738 C 0.45025 0.69974 0.46389 0.0
C2739 C 0.43413 0.69968 0.46612 0.0
C2740 C 0.4257 0.71239 0.46187 0.0
C2741 C 0.43385 0.72553 0.45623 0.0
C2742 C 0.44996 0.72566 0.45417 0.0
H2743 H 0.49731 0.71152 0.48878 0.0
H2744 H 0.47719 0.71665 0.48566 0.0
H2745 H 0.48129 0.69621 0.48322 0.0
H2746 H 0.45627 0.68939 0.46631 0.0
H2747 H 0.42805 0.68934 0.47031 0.0
H2748 H 0.85083 0.24371 0.07212 0.0
H2749 H 0.87941 0.25106 0.07862 0.0
H2750 H 0.88712 0.23889 0.02973 0.0
H2751 H 0.85869 0.2312 0.02321 0.0
H2752 H 0.91029 0.22894 0.05291 0.0
H2753 H 0.89997 0.2927 0.06354 0.0
H2754 H 0.88936 0.27897 0.07468 0.0
H2755 H 0.88491 0.27792 0.05353 0.0
C2756 C 0.85867 0.2423 0.06283 0.0
C2757 C 0.85251 0.23704 0.04711 0.0
C2758 C 0.87495 0.24661 0.06654 0.0
C2759 C 0.8853 0.24571 0.0546 0.0
C2760 C 0.8793 0.23972 0.03909 0.0
H2761 H 0.97126 0.29251 0.03408 0.0
H2762 H 0.94428 0.28155 0.0372 0.0
C2763 C 0.86305 0.23545 0.03536 0.0
C2764 C 0.90221 0.25199 0.05785 0.0
H2765 H 0.92643 0.28672 0.06466 0.0
C2766 C 0.91388 0.24153 0.05574 0.0
C2767 C 0.90676 0.26845 0.0614 0.0
C2768 C 0.89465 0.28024 0.06333 0.0
C2769 C 0.93002 0.24718 0.05661 0.0
C2770 C 0.93451 0.26367 0.05975 0.0
C2771 C 0.92289 0.27406 0.06238 0.0
C2772 C 0.9509 0.27056 0.05849 0.0
C2773 C 0.94207 0.23561 0.05339 0.0
C2774 C 0.96351 0.26817 0.06959 0.0
C2775 C 0.979 0.27443 0.06782 0.0
C2776 C 0.98206 0.28307 0.05488 0.0
C2777 C 0.96931 0.28568 0.04401 0.0
C2778 C 0.95389 0.27952 0.04583 0.0
H2779 H 0.93641 0.22345 0.04931 0.0
H2780 H 0.9496 0.23969 0.04424 0.0
H2781 H 0.94997 0.23503 0.06442 0.0
H2782 H 0.96138 0.26141 0.07953 0.0
H2783 H 0.98862 0.27222 0.07635 0.0
H2784 H 0.15174 0.72946 0.57525 0.0
H2785 H 0.13261 0.71945 0.55261 0.0
H2786 H 0.13644 0.76545 0.53487 0.0
H2787 H 0.15597 0.77555 0.55733 0.0
H2788 H 0.10452 0.7513 0.5369 0.0
H2789 H 0.14092 0.71018 0.50529 0.0
H2790 H 0.14081 0.70802 0.52612 0.0
H2791 H 0.14951 0.72621 0.51984 0.0
C2792 C 0.14877 0.73741 0.56641 0.0
C2793 C 0.15549 0.7533 0.56809 0.0
C2794 C 0.13781 0.73166 0.55348 0.0
C2795 C 0.13333 0.74166 0.54197 0.0
C2796 C 0.13985 0.75754 0.54361 0.0
H2797 H 0.05283 0.71783 0.4678 0.0
H2798 H 0.07686 0.73233 0.48235 0.0
C2799 C 0.15091 0.7633 0.55651 0.0
C2800 C 0.12119 0.73559 0.5287 0.0
H2801 H 0.11288 0.70641 0.49797 0.0
C2802 C 0.10638 0.74168 0.52818 0.0
C2803 C 0.12375 0.72308 0.51738 0.0
C2804 C 0.13965 0.71656 0.51704 0.0
C2805 C 0.0937 0.73491 0.51721 0.0
C2806 C 0.09606 0.72194 0.50627 0.0
C2807 C 0.11111 0.71636 0.50635 0.0
C2808 C 0.08267 0.71291 0.49593 0.0
C2809 C 0.07765 0.74107 0.51805 0.0
C2810 C 0.07846 0.69699 0.49817 0.0
C2811 C 0.06494 0.68867 0.48978 0.0
C2812 C 0.05531 0.69612 0.47897 0.0
C2813 C 0.06001 0.7118 0.47606 0.0
C2814 C 0.07362 0.72014 0.48448 0.0
H2815 H 0.07715 0.74904 0.52907 0.0
H2816 H 0.07507 0.7479 0.50775 0.0
H2817 H 0.06817 0.73109 0.51752 0.0
H2818 H 0.08535 0.69115 0.50686 0.0
H2819 H 0.0618 0.6765 0.49203 0.0
H2820 H 0.48185 0.27304 0.98251 0.0
H2821 H 0.5108 0.27669 0.98302 0.0
H2822 H 0.51092 0.3253 0.00269 0.0
H2823 H 0.48213 0.32161 0.00287 0.0
H2824 H 0.53213 0.29851 0.96986 0.0
H2825 H 0.53901 0.30564 0.03589 0.0
H2826 H 0.52042 0.29832 0.02451 0.0
H2827 H 0.52681 0.31923 0.02692 0.0
C2828 C 0.48803 0.2845 0.98697 0.0
C2829 C 0.47966 0.29697 0.99283 0.0
C2830 C 0.50455 0.2866 0.98711 0.0
C2831 C 0.51298 0.30118 0.99313 0.0
C2832 C 0.50463 0.31388 0.99822 0.0
H2833 H 0.61362 0.32759 0.01981 0.0
H2834 H 0.5854 0.32885 0.01182 0.0
C2835 C 0.48814 0.31178 0.99816 0.0
C2836 C 0.53055 0.30279 0.99502 0.0
H2837 H 0.56237 0.30893 0.02311 0.0
C2838 C 0.53878 0.30083 0.98148 0.0
C2839 C 0.53915 0.30576 0.01021 0.0
C2840 C 0.53094 0.30722 0.02524 0.0
C2841 C 0.55546 0.30188 0.98276 0.0
C2842 C 0.56401 0.30475 0.99797 0.0
C2843 C 0.55577 0.30687 0.01145 0.0
C2844 C 0.58148 0.3048 0.00044 0.0
C2845 C 0.56377 0.30003 0.96785 0.0
C2846 C 0.58867 0.29094 0.99644 0.0
C2847 C 0.60476 0.29017 0.00105 0.0
C2848 C 0.6139 0.30319 0.00987 0.0
C2849 C 0.60683 0.3173 0.01321 0.0
C2850 C 0.59075 0.31806 0.00858 0.0
H2851 H 0.55605 0.30241 0.95724 0.0
H2852 H 0.5749 0.30814 0.96888 0.0
H2853 H 0.56691 0.28765 0.96594 0.0
H2854 H 0.58166 0.28045 0.99048 0.0
H2855 H 0.60982 0.27908 0.99848 0.0
H2856 H 0.40311 0.53554 0.7137 0.0
H2857 H 0.41584 0.511 0.71521 0.0
H2858 H 0.45294 0.52945 0.68849 0.0
H2859 H 0.44028 0.55411 0.68696 0.0
H2860 H 0.44055 0.4993 0.67687 0.0
H2861 H 0.45579 0.50232 0.74188 0.0
H2862 H 0.43524 0.5046 0.73667 0.0
H2863 H 0.45031 0.51929 0.73206 0.0
C2864 C 0.41413 0.53451 0.70838 0.0
C2865 C 0.4207 0.5468 0.70024 0.0
C2866 C 0.42141 0.52047 0.70928 0.0
C2867 C 0.43548 0.5185 0.70218 0.0
C2868 C 0.44212 0.53076 0.69411 0.0
H2869 H 0.48399 0.43325 0.71774 0.0
H2870 H 0.47983 0.46116 0.71502 0.0
C2871 C 0.43483 0.5448 0.69318 0.0
C2872 C 0.44269 0.50325 0.70242 0.0
H2873 H 0.4557 0.47673 0.72727 0.0
C2874 C 0.44407 0.49445 0.68789 0.0
C2875 C 0.44756 0.49707 0.71678 0.0
C2876 C 0.44731 0.50638 0.73273 0.0
C2877 C 0.4494 0.47927 0.68736 0.0
C2878 C 0.45321 0.47264 0.70174 0.0
C2879 C 0.45263 0.48177 0.71625 0.0
C2880 C 0.45657 0.45584 0.70202 0.0
C2881 C 0.45072 0.4704 0.67141 0.0
C2882 C 0.44494 0.44365 0.69552 0.0
C2883 C 0.4473 0.4278 0.69702 0.0
C2884 C 0.46129 0.4238 0.70516 0.0
C2885 C 0.47316 0.43599 0.71128 0.0
C2886 C 0.47076 0.4519 0.70981 0.0
H2887 H 0.45245 0.47869 0.66218 0.0
H2888 H 0.46072 0.46285 0.67195 0.0
H2889 H 0.43956 0.46262 0.66766 0.0
H2890 H 0.43378 0.44641 0.68972 0.0
H2891 H 0.438 0.41866 0.69207 0.0
H2892 H 0.0352 0.85718 0.21068 0.0
H2893 H 0.0401 0.88616 0.21348 0.0
H2894 H 0.07635 0.88398 0.25197 0.0
H2895 H 0.07202 0.85505 0.24879 0.0
H2896 H 0.03528 0.90447 0.23979 0.0
H2897 H 0.09776 0.91679 0.22735 0.0
H2898 H 0.08661 0.89764 0.22197 0.0
H2899 H 0.09563 0.90298 0.24196 0.0
C2900 C 0.04453 0.86284 0.21943 0.0
C2901 C 0.05317 0.85379 0.22956 0.0
C2902 C 0.04726 0.87941 0.22107 0.0
C2903 C 0.05872 0.88724 0.23281 0.0
C2904 C 0.0677 0.87822 0.2426 0.0
H2905 H 0.07669 0.97951 0.28409 0.0
H2906 H 0.07774 0.95216 0.27263 0.0
C2907 C 0.06503 0.86167 0.24093 0.0
C2908 C 0.06003 0.90477 0.23605 0.0
H2909 H 0.08645 0.93807 0.24168 0.0
C2910 C 0.04641 0.91185 0.23994 0.0
C2911 C 0.07459 0.91436 0.23634 0.0
C2912 C 0.08944 0.90757 0.23153 0.0
C2913 C 0.04706 0.92814 0.24466 0.0
C2914 C 0.06169 0.93766 0.24534 0.0
C2915 C 0.07526 0.93069 0.24116 0.0
C2916 C 0.06307 0.95474 0.25103 0.0
C2917 C 0.0322 0.93497 0.24949 0.0
C2918 C 0.05497 0.96533 0.24238 0.0
C2919 C 0.05438 0.98094 0.24887 0.0
C2920 C 0.06191 0.98622 0.26411 0.0
C2921 C 0.07084 0.97583 0.27231 0.0
C2922 C 0.07142 0.9602 0.2658 0.0
H2923 H 0.02272 0.92555 0.25118 0.0
H2924 H 0.03484 0.94297 0.26068 0.0
H2925 H 0.02756 0.94207 0.24008 0.0
H2926 H 0.04865 0.96136 0.23086 0.0
H2927 H 0.04764 0.98876 0.24216 0.0
H2928 H 0.56476 0.16381 0.74897 0.0
H2929 H 0.54266 0.14313 0.74162 0.0
H2930 H 0.56845 0.11017 0.76688 0.0
H2931 H 0.59054 0.13078 0.77432 0.0
H2932 H 0.54321 0.11481 0.72406 0.0
H2933 H 0.5253 0.10435 0.7836 0.0
H2934 H 0.53817 0.12156 0.7802 0.0
H2935 H 0.54604 0.10279 0.78215 0.0
C2936 C 0.56571 0.15215 0.75296 0.0
C2937 C 0.57938 0.14892 0.76224 0.0
C2938 C 0.55304 0.14039 0.74884 0.0
C2939 C 0.55379 0.12521 0.75396 0.0
C2940 C 0.56743 0.12194 0.76319 0.0
H2941 H 0.50726 0.0321 0.73104 0.0
H2942 H 0.523 0.05657 0.7428 0.0
C2943 C 0.58007 0.1337 0.76737 0.0
C2944 C 0.54078 0.11248 0.74877 0.0
H2945 H 0.51551 0.08434 0.76233 0.0
C2946 C 0.53697 0.10831 0.73242 0.0
C2947 C 0.53266 0.10403 0.75971 0.0
C2948 C 0.53563 0.1085 0.77739 0.0
C2949 C 0.52575 0.09546 0.7267 0.0
C2950 C 0.518 0.08671 0.73765 0.0
C2951 C 0.52148 0.09112 0.75399 0.0
C2952 C 0.50723 0.07219 0.73228 0.0
C2953 C 0.5228 0.09091 0.70902 0.0
C2954 C 0.49286 0.07293 0.72296 0.0
C2955 C 0.48385 0.05896 0.7162 0.0
C2956 C 0.48912 0.04408 0.71867 0.0
C2957 C 0.50303 0.04342 0.72879 0.0
C2958 C 0.51198 0.05736 0.73556 0.0
H2959 H 0.53175 0.09715 0.70239 0.0
H2960 H 0.52298 0.0779 0.70625 0.0
H2961 H 0.51089 0.09406 0.70467 0.0
H2962 H 0.48892 0.0843 0.72047 0.0
H2963 H 0.47321 0.05981 0.70841 0.0
H2964 H 0.96718 0.48358 0.3169 0.0
H2965 H 0.96581 0.51231 0.32151 0.0
H2966 H 0.98655 0.51877 0.27778 0.0
H2967 H 0.9881 0.49029 0.27317 0.0
H2968 H 0.99127 0.53441 0.32561 0.0
H2969 H 0.95101 0.54738 0.27481 0.0
H2970 H 0.95198 0.52753 0.28065 0.0
H2971 H 0.96608 0.53563 0.26817 0.0
C2972 C 0.9713 0.49113 0.30819 0.0
C2973 C 0.97774 0.48463 0.29465 0.0
C2974 C 0.9704 0.50751 0.3108 0.0
C2975 C 0.9758 0.51765 0.29985 0.0
C2976 C 0.98186 0.51114 0.28615 0.0
H2977 H 0.02901 0.60337 0.30289 0.0
H2978 H 0.01653 0.57706 0.30564 0.0
C2979 C 0.98277 0.49482 0.28354 0.0
C2980 C 0.97695 0.53514 0.30345 0.0
H2981 H 0.97087 0.56901 0.28604 0.0
C2982 C 0.98645 0.542 0.31717 0.0
C2983 C 0.97043 0.54509 0.29263 0.0
C2984 C 0.95916 0.53851 0.27833 0.0
C2985 C 0.99078 0.55842 0.31957 0.0
C2986 C 0.98566 0.56814 0.30786 0.0
C2987 C 0.97498 0.5615 0.29491 0.0
C2988 C 0.99307 0.58455 0.30763 0.0
C2989 C 0.00139 0.56513 0.33429 0.0
C2990 C 0.98396 0.59753 0.3076 0.0
C2991 C 0.99114 0.61278 0.30618 0.0
C2992 C 0.00751 0.61521 0.30457 0.0
C2993 C 0.0165 0.6021 0.3046 0.0
C2994 C 0.00937 0.58698 0.30613 0.0
H2995 H 0.9998 0.55767 0.34422 0.0
H2996 H 0.01398 0.56532 0.33171 0.0
H2997 H 0.999 0.57745 0.33815 0.0
H2998 H 0.97131 0.59583 0.30858 0.0
H2999 H 0.98388 0.62262 0.30624 0.0
H3000 H 0.34823 0.63574 0.30897 0.0
H3001 H 0.37587 0.63512 0.30296 0.0
H3002 H 0.3898 0.62746 0.35149 0.0
H3003 H 0.3624 0.62848 0.35775 0.0
H3004 H 0.40487 0.65468 0.31951 0.0
H3005 H 0.40516 0.58968 0.32286 0.0
H3006 H 0.38705 0.5991 0.3198 0.0
H3007 H 0.39758 0.60049 0.33925 0.0
C3008 C 0.3572 0.63413 0.31842 0.0
C3009 C 0.35304 0.63201 0.33382 0.0
C3010 C 0.37295 0.63369 0.31493 0.0
C3011 C 0.38477 0.631 0.32673 0.0
C3012 C 0.38077 0.62926 0.34216 0.0
H3013 H 0.48416 0.61886 0.33745 0.0
H3014 H 0.45577 0.62008 0.3396 0.0
C3015 C 0.36508 0.62979 0.34569 0.0
C3016 C 0.40135 0.6299 0.32302 0.0
H3017 H 0.43001 0.60431 0.32142 0.0
C3018 C 0.41038 0.64366 0.31976 0.0
C3019 C 0.40842 0.6155 0.3234 0.0
C3020 C 0.39906 0.60029 0.32639 0.0
C3021 C 0.42654 0.64353 0.31746 0.0
C3022 C 0.4337 0.62914 0.31807 0.0
C3023 C 0.42452 0.61532 0.32098 0.0
C3024 C 0.45086 0.62828 0.31644 0.0
C3025 C 0.43593 0.65892 0.31505 0.0
C3026 C 0.45752 0.63231 0.30262 0.0
C3027 C 0.47377 0.63168 0.30141 0.0
C3028 C 0.48357 0.6267 0.31385 0.0
C3029 C 0.47684 0.62253 0.32759 0.0
C3030 C 0.46064 0.62324 0.32884 0.0
H3031 H 0.42979 0.6694 0.31888 0.0
H3032 H 0.44789 0.66 0.32172 0.0
H3033 H 0.43746 0.6592 0.30224 0.0
H3034 H 0.45016 0.63595 0.29279 0.0
H3035 H 0.47872 0.63515 0.29078 0.0
H3036 H 0.13954 0.3643 0.76922 0.0
H3037 H 0.11059 0.36197 0.76513 0.0
H3038 H 0.11044 0.31505 0.74102 0.0
H3039 H 0.13945 0.31705 0.74556 0.0
H3040 H 0.09171 0.35772 0.73684 0.0
H3041 H 0.0782 0.30806 0.77323 0.0
H3042 H 0.09759 0.31899 0.77458 0.0
H3043 H 0.09149 0.30381 0.75849 0.0
C3044 C 0.13337 0.35335 0.76329 0.0
C3045 C 0.14184 0.34079 0.75785 0.0
C3046 C 0.11681 0.3521 0.76087 0.0
C3047 C 0.10834 0.33825 0.75299 0.0
C3048 C 0.11672 0.32572 0.74741 0.0
H3049 H 0.01241 0.32759 0.70801 0.0
H3050 H 0.04103 0.33056 0.71448 0.0
C3051 C 0.13331 0.32696 0.74985 0.0
C3052 C 0.09079 0.33727 0.75009 0.0
H3053 H 0.05652 0.31587 0.757 0.0
C3054 C 0.08401 0.34861 0.74131 0.0
C3055 C 0.08077 0.3255 0.7561 0.0
C3056 C 0.08734 0.31347 0.76625 0.0
C3057 C 0.06749 0.34834 0.73812 0.0
C3058 C 0.0575 0.33625 0.74366 0.0
C3059 C 0.06424 0.32507 0.7527 0.0
C3060 C 0.04004 0.33478 0.73984 0.0
C3061 C 0.06088 0.36108 0.72896 0.0
C3062 C 0.02993 0.33584 0.75199 0.0
C3063 C 0.01343 0.33402 0.74831 0.0
C3064 C 0.00678 0.33113 0.73245 0.0
C3065 C 0.01701 0.33005 0.72034 0.0
C3066 C 0.03345 0.3318 0.72401 0.0
H3067 H 0.06962 0.3717 0.72936 0.0
H3068 H 0.05789 0.35634 0.71633 0.0
H3069 H 0.04989 0.36482 0.73368 0.0
H3070 H 0.0348 0.33799 0.76431 0.0
H3071 H 0.00583 0.33471 0.75787 0.0
H3072 H 0.77274 0.95655 0.63454 0.0
H3073 H 0.80093 0.95567 0.64284 0.0
H3074 H 0.79956 0.99529 0.67808 0.0
H3075 H 0.77125 0.99606 0.66995 0.0
H3076 H 0.82456 0.97871 0.64129 0.0
H3077 H 0.82268 0.9651 0.70377 0.0
H3078 H 0.80516 0.96301 0.68976 0.0
H3079 H 0.81293 0.98227 0.69929 0.0
C3080 C 0.77843 0.965 0.64413 0.0
C3081 C 0.76981 0.97639 0.65159 0.0
C3082 C 0.79452 0.96446 0.64889 0.0
C3083 C 0.80233 0.97529 0.6612 0.0
C3084 C 0.79371 0.98656 0.66881 0.0
H3085 H 0.90257 0.99954 0.69255 0.0
H3086 H 0.87353 0.99897 0.68808 0.0
C3087 C 0.77755 0.98703 0.66413 0.0
C3088 C 0.81969 0.97536 0.66528 0.0
H3089 H 0.84822 0.97248 0.69566 0.0
C3090 C 0.8297 0.97725 0.65316 0.0
C3091 C 0.82641 0.9735 0.68079 0.0
C3092 C 0.81624 0.9707 0.69412 0.0
C3093 C 0.84622 0.97745 0.65615 0.0
C3094 C 0.8529 0.97566 0.67163 0.0
C3095 C 0.84298 0.97386 0.6838 0.0
C3096 C 0.87023 0.97555 0.67527 0.0
C3097 C 0.85649 0.97974 0.64279 0.0
C3098 C 0.87785 0.96244 0.66976 0.0
C3099 C 0.89435 0.9627 0.6724 0.0
C3100 C 0.90347 0.97613 0.68047 0.0
C3101 C 0.89577 0.98908 0.6863 0.0
C3102 C 0.87925 0.98877 0.68376 0.0
H3103 H 0.84972 0.98336 0.63212 0.0
H3104 H 0.86661 0.98888 0.6467 0.0
H3105 H 0.86147 0.96843 0.63936 0.0
H3106 H 0.87103 0.95211 0.66326 0.0
H3107 H 0.90001 0.95254 0.6679 0.0
H3108 H 0.71414 0.99178 0.27546 0.0
H3109 H 0.68597 0.99149 0.27879 0.0
H3110 H 0.69069 0.04267 0.28535 0.0
H3111 H 0.71925 0.04306 0.28346 0.0
H3112 H 0.67287 0.0311 0.30616 0.0
H3113 H 0.65142 0.00056 0.24685 0.0
H3114 H 0.66436 0.98906 0.25786 0.0
H3115 H 0.67194 0.00801 0.25219 0.0
C3116 C 0.7093 0.003 0.27785 0.0
C3117 C 0.71907 0.01745 0.27923 0.0
C3118 C 0.69308 0.00281 0.27945 0.0
C3119 C 0.68612 0.01707 0.28196 0.0
C3120 C 0.69579 0.03152 0.28333 0.0
H3121 H 0.58401 0.02302 0.27156 0.0
H3122 H 0.61248 0.02493 0.26842 0.0
C3123 C 0.7121 0.03172 0.28206 0.0
C3124 C 0.66885 0.01689 0.2836 0.0
H3125 H 0.63222 0.00226 0.26565 0.0
C3126 C 0.664 0.02482 0.29729 0.0
C3127 C 0.65721 0.00903 0.27184 0.0
C3128 C 0.66148 0.00134 0.25629 0.0
C3129 C 0.64788 0.02475 0.29975 0.0
C3130 C 0.6363 0.01621 0.28836 0.0
C3131 C 0.64112 0.00861 0.27449 0.0
C3132 C 0.61909 0.01517 0.29046 0.0
C3133 C 0.64346 0.03409 0.31439 0.0
C3134 C 0.61332 0.00897 0.30384 0.0
C3135 C 0.59709 0.00798 0.3057 0.0
C3136 C 0.58627 0.01274 0.29397 0.0
C3137 C 0.59207 0.01896 0.28061 0.0
C3138 C 0.6083 0.02009 0.27883 0.0
H3139 H 0.65298 0.0436 0.31918 0.0
H3140 H 0.63227 0.03961 0.31186 0.0
H3141 H 0.64174 0.02599 0.32376 0.0
H3142 H 0.62137 0.00482 0.31283 0.0
H3143 H 0.59301 0.00343 0.31627 0.0
H3144 H 0.34944 0.36206 0.65891 0.0
H3145 H 0.34409 0.38974 0.65751 0.0
H3146 H 0.30758 0.37513 0.61898 0.0
H3147 H 0.31276 0.34741 0.62047 0.0
H3148 H 0.34754 0.40683 0.63255 0.0
H3149 H 0.2851 0.40493 0.647 0.0
H3150 H 0.2973 0.38903 0.65049 0.0
H3151 H 0.28802 0.39066 0.63089 0.0
C3152 C 0.34018 0.36475 0.65024 0.0
C3153 C 0.33151 0.35257 0.63981 0.0
C3154 C 0.3371 0.38056 0.64947 0.0
C3155 C 0.3253 0.38452 0.63827 0.0
C3156 C 0.31646 0.37235 0.62799 0.0
H3157 H 0.302 0.47431 0.6051 0.0
H3158 H 0.30362 0.44611 0.60876 0.0
C3159 C 0.31946 0.35651 0.62882 0.0
C3160 C 0.32307 0.40145 0.63664 0.0
H3161 H 0.29564 0.4285 0.63681 0.0
C3162 C 0.33621 0.41158 0.6336 0.0
C3163 C 0.30827 0.40763 0.63794 0.0
C3164 C 0.2939 0.39754 0.64191 0.0
C3165 C 0.33492 0.42764 0.63164 0.0
C3166 C 0.32013 0.43378 0.63288 0.0
C3167 C 0.30695 0.42371 0.63585 0.0
C3168 C 0.31824 0.45072 0.63119 0.0
C3169 C 0.34932 0.43791 0.62801 0.0
C3170 C 0.32572 0.46256 0.64272 0.0
C3171 C 0.32471 0.47859 0.64071 0.0
C3172 C 0.3161 0.48305 0.6272 0.0
C3173 C 0.30847 0.47116 0.61574 0.0
C3174 C 0.30942 0.4551 0.6178 0.0
H3175 H 0.35892 0.43073 0.62439 0.0
H3176 H 0.34611 0.44542 0.6184 0.0
H3177 H 0.35403 0.44593 0.63877 0.0
H3178 H 0.33253 0.45938 0.65316 0.0
H3179 H 0.33087 0.48752 0.64961 0.0
H3180 H 0.27452 0.71669 0.99262 0.0
H3181 H 0.27717 0.68826 0.99194 0.0
H3182 H 0.29263 0.69389 0.042 0.0
H3183 H 0.29036 0.72244 0.0428 0.0
H3184 H 0.30284 0.6727 0.99847 0.0
H3185 H 0.25808 0.65809 0.03979 0.0
H3186 H 0.26001 0.67697 0.03164 0.0
H3187 H 0.27322 0.67329 0.0484 0.0
C3188 C 0.27862 0.71194 0.00349 0.0
C3189 C 0.28224 0.72189 0.01777 0.0
C3190 C 0.28002 0.69565 0.00309 0.0
C3191 C 0.2849 0.68894 0.01698 0.0
C3192 C 0.28856 0.69881 0.03123 0.0
H3193 H 0.30576 0.59463 0.03865 0.0
H3194 H 0.3034 0.62325 0.03904 0.0
C3195 C 0.28721 0.71511 0.03166 0.0
C3196 C 0.28658 0.67167 0.01646 0.0
H3197 H 0.27473 0.63794 0.033 0.0
C3198 C 0.29668 0.66511 0.00601 0.0
C3199 C 0.27843 0.66173 0.02621 0.0
C3200 C 0.26671 0.66783 0.03702 0.0
C3201 C 0.29916 0.64896 0.00532 0.0
C3202 C 0.29111 0.63908 0.01515 0.0
C3203 C 0.28095 0.64559 0.02554 0.0
C3204 C 0.2929 0.62187 0.01472 0.0
C3205 C 0.31061 0.64267 0.9943 0.0
C3206 C 0.28766 0.61166 0.00096 0.0
C3207 C 0.28894 0.59536 0.00074 0.0
C3208 C 0.29542 0.58902 0.0143 0.0
C3209 C 0.30069 0.59925 0.02806 0.0
C3210 C 0.29936 0.61555 0.02829 0.0
H3211 H 0.3186 0.65239 0.99049 0.0
H3212 H 0.31797 0.63426 1.00009 0.0
H3213 H 0.30381 0.63618 0.98353 0.0
H3214 H 0.2824 0.61628 0.99045 0.0
H3215 H 0.28478 0.58764 0.99003 0.0
H3216 H 0.76624 0.13484 0.33183 0.0
H3217 H 0.75916 0.1061 0.32843 0.0
H3218 H 0.71036 0.11331 0.33425 0.0
H3219 H 0.71735 0.1421 0.33763 0.0
H3220 H 0.74619 0.08717 0.34966 0.0
H3221 H 0.70624 0.08315 0.29371 0.0
H3222 H 0.71934 0.10075 0.30092 0.0
H3223 H 0.7009 0.09672 0.30933 0.0
C3224 C 0.754 0.13031 0.33239 0.0
C3225 C 0.74235 0.14075 0.33498 0.0
C3226 C 0.74996 0.11389 0.33039 0.0
C3227 C 0.7342 0.10757 0.33089 0.0
C3228 C 0.72253 0.11794 0.33347 0.0
H3229 H 0.68891 0.01053 0.32286 0.0
H3230 H 0.69489 0.0395 0.32752 0.0
C3231 C 0.72654 0.13438 0.3354 0.0
C3232 C 0.73014 0.09011 0.32926 0.0
H3233 H 0.70717 0.05973 0.30678 0.0
C3234 C 0.73772 0.08114 0.34023 0.0
C3235 C 0.71903 0.08229 0.317 0.0
C3236 C 0.711 0.09118 0.30447 0.0
C3237 C 0.7344 0.06458 0.33933 0.0
C3238 C 0.72339 0.05675 0.327 0.0
C3239 C 0.71566 0.06574 0.31616 0.0
C3240 C 0.71994 0.03922 0.3249 0.0
C3241 C 0.7425 0.05564 0.35178 0.0
C3242 C 0.73207 0.0295 0.32197 0.0
C3243 C 0.72871 0.013 0.31953 0.0
C3244 C 0.71313 0.00598 0.31961 0.0
C3245 C 0.70101 0.01569 0.32265 0.0
C3246 C 0.7044 0.03219 0.32526 0.0
H3247 H 0.74695 0.06358 0.3627 0.0
H3248 H 0.73433 0.04579 0.35505 0.0
H3249 H 0.75284 0.05048 0.34699 0.0
H3250 H 0.74409 0.03467 0.32134 0.0
H3251 H 0.73825 0.00571 0.31739 0.0
H3252 H 0.66425 0.77157 0.99885 0.0
H3253 H 0.6719 0.80004 0.99831 0.0
H3254 H 0.64288 0.7993 0.95384 0.0
H3255 H 0.635 0.77097 0.95446 0.0
H3256 H 0.68671 0.81732 0.97732 0.0
H3257 H 0.62546 0.83402 0.98076 0.0
H3258 H 0.63083 0.81446 0.98414 0.0
H3259 H 0.62701 0.81975 0.96421 0.0
C3260 C 0.65962 0.77747 0.9889 0.0
C3261 C 0.64889 0.7691 0.97679 0.0
C3262 C 0.66395 0.79374 0.98863 0.0
C3263 C 0.65766 0.80188 0.97623 0.0
C3264 C 0.64751 0.79337 0.96377 0.0
H3265 H 0.66968 0.89858 0.95094 0.0
H3266 H 0.6647 0.86965 0.95103 0.0
C3267 C 0.64306 0.77718 0.96411 0.0
C3268 C 0.66155 0.8193 0.97636 0.0
H3269 H 0.64474 0.85427 0.97502 0.0
C3270 C 0.67754 0.8254 0.97691 0.0
C3271 C 0.64958 0.82987 0.97594 0.0
C3272 C 0.63228 0.82423 0.9764 0.0
C3273 C 0.68183 0.84175 0.97668 0.0
C3274 C 0.66983 0.8522 0.9759 0.0
C3275 C 0.65388 0.84615 0.97547 0.0
C3276 C 0.67356 0.86952 0.97569 0.0
C3277 C 0.69911 0.84778 0.97702 0.0
C3278 C 0.68014 0.87894 0.98954 0.0
C3279 C 0.68282 0.89543 0.98955 0.0
C3280 C 0.67899 0.90273 0.9757 0.0
C3281 C 0.67266 0.89323 0.96178 0.0
C3282 C 0.66984 0.87676 0.96181 0.0
H3283 H 0.70678 0.83795 0.97539 0.0
H3284 H 0.70078 0.85584 0.96759 0.0
H3285 H 0.70308 0.85472 0.98863 0.0
H3286 H 0.68293 0.87356 0.0004 0.0
H3287 H 0.68766 0.90252 0.00043 0.0
H3288 H 0.60564 0.33332 0.35077 0.0
H3289 H 0.60481 0.32709 0.37822 0.0
H3290 H 0.6537 0.31693 0.38001 0.0
H3291 H 0.65479 0.32362 0.35266 0.0
H3292 H 0.61056 0.29901 0.39197 0.0
H3293 H 0.6534 0.34993 0.41843 0.0
H3294 H 0.64423 0.34868 0.39829 0.0
H3295 H 0.66043 0.3372 0.40309 0.0
C3296 C 0.61627 0.32988 0.35703 0.0
C3297 C 0.63034 0.32913 0.34956 0.0
C3298 C 0.61573 0.32621 0.37268 0.0
C3299 C 0.62925 0.32179 0.38123 0.0
C3300 C 0.6432 0.32059 0.37371 0.0
H3301 H 0.64562 0.30303 0.48055 0.0
H3302 H 0.64826 0.30557 0.45232 0.0
C3303 C 0.64376 0.32425 0.35802 0.0
C3304 C 0.62868 0.31857 0.39805 0.0
H3305 H 0.64387 0.33211 0.43595 0.0
C3306 C 0.61786 0.30622 0.4016 0.0
C3307 C 0.63823 0.32799 0.41056 0.0
C3308 C 0.64965 0.34178 0.40749 0.0
C3309 C 0.61635 0.30301 0.41735 0.0
C3310 C 0.62571 0.3126 0.42988 0.0
C3311 C 0.63671 0.32478 0.42631 0.0
C3312 C 0.62395 0.31052 0.4468 0.0
C3313 C 0.60486 0.28928 0.42041 0.0
C3314 C 0.60943 0.31252 0.45305 0.0
C3315 C 0.60794 0.3111 0.46913 0.0
C3316 C 0.62099 0.30789 0.47926 0.0
C3317 C 0.63546 0.30571 0.47298 0.0
C3318 C 0.63696 0.30714 0.4569 0.0
H3319 H 0.60207 0.28054 0.40976 0.0
H3320 H 0.60967 0.28307 0.43047 0.0
H3321 H 0.59359 0.29384 0.42351 0.0
H3322 H 0.59932 0.3154 0.44554 0.0
H3323 H 0.59663 0.31266 0.47371 0.0
H3324 H 0.03179 0.2906 0.71856 0.0
H3325 H 0.03227 0.29558 0.69072 0.0
H3326 H 0.98116 0.29379 0.68557 0.0
H3327 H 0.98062 0.28969 0.71352 0.0
H3328 H 0.01986 0.27632 0.66542 0.0
H3329 H 0.98009 0.31761 0.6725 0.0
H3330 H 0.99173 0.33264 0.6639 0.0
H3331 H 0.99924 0.32553 0.68218 0.0
C3332 C 0.02066 0.29159 0.7116 0.0
C3333 C 0.00616 0.28976 0.71834 0.0
C3334 C 0.02096 0.29436 0.69565 0.0
C3335 C 0.00677 0.29532 0.68608 0.0
C3336 C 0.9923 0.29352 0.69276 0.0
H3337 H 0.97983 0.2928 0.58517 0.0
H3338 H 0.98078 0.29273 0.61416 0.0
C3339 C 0.992 0.29087 0.70872 0.0
C3340 C 0.00703 0.2969 0.66883 0.0
H3341 H 0.99393 0.31825 0.63889 0.0
C3342 C 0.01435 0.28561 0.65967 0.0
C3343 C 0.99975 0.30898 0.66128 0.0
C3344 C 0.99238 0.32196 0.67048 0.0
C3345 C 0.01429 0.28583 0.64318 0.0
C3346 C 0.00683 0.29774 0.63565 0.0
C3347 C 0.9996 0.30911 0.64475 0.0
C3348 C 0.00625 0.29841 0.61826 0.0
C3349 C 0.02184 0.27306 0.63385 0.0
C3350 C 0.02022 0.30183 0.61106 0.0
C3351 C 0.01967 0.30193 0.59458 0.0
C3352 C 0.00514 0.29865 0.58506 0.0
C3353 C 0.99114 0.29542 0.59231 0.0
C3354 C 0.99168 0.29539 0.6088 0.0
H3355 H 0.02424 0.263 0.64092 0.0
H3356 H 0.0141 0.2684 0.62288 0.0
H3357 H 0.0333 0.2782 0.63028 0.0
H3358 H 0.03154 0.30436 0.6182 0.0
H3359 H 0.03062 0.30445 0.58926 0.0
H3360 H 0.33575 0.76642 0.13471 0.0
H3361 H 0.33248 0.75959 0.10591 0.0
H3362 H 0.3425 0.71164 0.11258 0.0
H3363 H 0.34575 0.71837 0.14138 0.0
H3364 H 0.35402 0.7485 0.08603 0.0
H3365 H 0.30103 0.70478 0.08379 0.0
H3366 H 0.30796 0.7182 0.10123 0.0
H3367 H 0.31757 0.70053 0.09686 0.0
C3368 C 0.33729 0.75443 0.13004 0.0
C3369 C 0.34094 0.74291 0.14033 0.0
C3370 C 0.33538 0.75054 0.11359 0.0
C3371 C 0.33703 0.73506 0.10711 0.0
C3372 C 0.34081 0.72357 0.11733 0.0
H3373 H 0.32767 0.68927 0.01031 0.0
H3374 H 0.33364 0.69576 0.03908 0.0
C3375 C 0.34266 0.72743 0.13379 0.0
C3376 C 0.33504 0.73103 0.08964 0.0
H3377 H 0.31324 0.70655 0.05998 0.0
C3378 C 0.34504 0.73939 0.08029 0.0
C3379 C 0.32335 0.71911 0.0822 0.0
C3380 C 0.31176 0.71023 0.0915 0.0
C3381 C 0.34377 0.73602 0.0637 0.0
C3382 C 0.33204 0.72413 0.05627 0.0
C3383 C 0.32217 0.71568 0.06565 0.0
C3384 C 0.32947 0.72049 0.03876 0.0
C3385 C 0.3552 0.74501 0.05433 0.0
C3386 C 0.32518 0.73224 0.02903 0.0
C3387 C 0.32175 0.72852 0.01265 0.0
C3388 C 0.32226 0.71296 0.00575 0.0
C3389 C 0.32693 0.7013 0.01541 0.0
C3390 C 0.33039 0.70501 0.0318 0.0
H3391 H 0.3661 0.75018 0.06192 0.0
H3392 H 0.35867 0.73719 0.0443 0.0
H3393 H 0.34939 0.75492 0.04938 0.0
H3394 H 0.32406 0.74418 0.03416 0.0
H3395 H 0.31834 0.73772 0.00537 0.0
H3396 H 0.95834 0.6618 0.76429 0.0
H3397 H 0.95615 0.67043 0.79222 0.0
H3398 H 0.00419 0.65993 0.80438 0.0
H3399 H 0.00662 0.65168 0.77644 0.0
H3400 H 0.9594 0.65141 0.81732 0.0
H3401 H 0.00354 0.7045 0.82713 0.0
H3402 H 0.99562 0.69571 0.80753 0.0
H3403 H 0.01103 0.68692 0.81855 0.0
C3404 C 0.96855 0.66163 0.77285 0.0
C3405 C 0.98266 0.65607 0.76813 0.0
C3406 C 0.96724 0.66648 0.78882 0.0
C3407 C 0.98006 0.66599 0.80034 0.0
C3408 C 0.99424 0.66066 0.79565 0.0
H3409 H 0.99495 0.67975 0.90313 0.0
H3410 H 0.99747 0.67501 0.87455 0.0
C3411 C 0.99554 0.65578 0.7797 0.0
C3412 C 0.97828 0.67011 0.81739 0.0
H3413 H 0.99367 0.69487 0.85017 0.0
C3414 C 0.96679 0.661 0.82448 0.0
C3415 C 0.98801 0.68256 0.82671 0.0
C3416 C 1.00016 0.69309 0.81959 0.0
C3417 C 0.965 0.66376 0.84073 0.0
C3418 C 0.97476 0.67619 0.85008 0.0
C3419 C 0.9862 0.68536 0.84297 0.0
C3420 C 0.97339 0.67967 0.8673 0.0
C3421 C 0.95298 0.65305 0.84784 0.0
C3422 C 0.95916 0.68423 0.87267 0.0
C3423 C 0.95771 0.68685 0.88893 0.0
C3424 C 0.97045 0.68492 0.90009 0.0
C3425 C 0.98488 0.68098 0.89472 0.0
C3426 C 0.98633 0.67835 0.87845 0.0
H3427 H 0.94941 0.6418 0.8401 0.0
H3428 H 0.95775 0.65011 0.8597 0.0
H3429 H 0.94218 0.65923 0.8493 0.0
H3430 H 0.94917 0.68571 0.86427 0.0
H3431 H 0.94659 0.69022 0.89283 0.0
H3432 H 0.64025 0.34283 0.67788 0.0
H3433 H 0.61354 0.34388 0.68639 0.0
H3434 H 0.61353 0.39216 0.67453 0.0
H3435 H 0.64019 0.39126 0.66609 0.0
H3436 H 0.60303 0.36443 0.70987 0.0
H3437 H 0.57203 0.37068 0.65079 0.0
H3438 H 0.59183 0.36456 0.65323 0.0
H3439 H 0.58872 0.38521 0.65656 0.0
C3440 C 0.63459 0.3537 0.67716 0.0
C3441 C 0.64231 0.36693 0.6712 0.0
C3442 C 0.61931 0.35425 0.68195 0.0
C3443 C 0.61144 0.36799 0.6808 0.0
C3444 C 0.61921 0.38129 0.67512 0.0
H3445 H 0.52259 0.39984 0.70684 0.0
H3446 H 0.5487 0.39689 0.69727 0.0
C3447 C 0.63446 0.38076 0.67032 0.0
C3448 C 0.59525 0.3686 0.68592 0.0
H3449 H 0.55731 0.375 0.67307 0.0
C3450 C 0.593 0.36661 0.70181 0.0
C3451 C 0.58219 0.37145 0.67537 0.0
C3452 C 0.58373 0.37295 0.658 0.0
C3453 C 0.57812 0.36783 0.70754 0.0
C3454 C 0.56511 0.37087 0.69703 0.0
C3455 C 0.56732 0.37271 0.68111 0.0
C3456 C 0.54916 0.37243 0.7024 0.0
C3457 C 0.57655 0.36631 0.7249 0.0
C3458 C 0.54064 0.35957 0.70811 0.0
C3459 C 0.52578 0.36125 0.71357 0.0
C3460 C 0.51923 0.37584 0.71341 0.0
C3461 C 0.52753 0.38855 0.70724 0.0
C3462 C 0.54238 0.38686 0.70177 0.0
H3463 H 0.5883 0.36771 0.73204 0.0
H3464 H 0.56914 0.3753 0.72983 0.0
H3465 H 0.57069 0.35436 0.72623 0.0
H3466 H 0.5455 0.34823 0.70837 0.0
H3467 H 0.51947 0.35121 0.71804 0.0
H3468 H 0.85453 0.67179 0.23533 0.0
H3469 H 0.88336 0.67361 0.2415 0.0
H3470 H 0.87719 0.66304 0.28938 0.0
H3471 H 0.84828 0.66091 0.28321 0.0
H3472 H 0.90271 0.69407 0.26625 0.0
H3473 H 0.90645 0.62984 0.27249 0.0
H3474 H 0.88924 0.63716 0.26267 0.0
H3475 H 0.89261 0.63945 0.28395 0.0
C3476 C 0.85931 0.66976 0.24715 0.0
C3477 C 0.84914 0.6661 0.25876 0.0
C3478 C 0.87576 0.67088 0.25067 0.0
C3479 C 0.88237 0.66825 0.26582 0.0
C3480 C 0.87229 0.66489 0.27754 0.0
H3481 H 0.98126 0.6669 0.30358 0.0
H3482 H 0.95209 0.66474 0.29997 0.0
C3483 C 0.8558 0.66383 0.27405 0.0
C3484 C 0.89982 0.66914 0.26926 0.0
H3485 H 0.93037 0.6467 0.27741 0.0
C3486 C 0.90878 0.68374 0.26872 0.0
C3487 C 0.90765 0.65563 0.27254 0.0
C3488 C 0.89856 0.63957 0.27286 0.0
C3489 C 0.9254 0.68522 0.27138 0.0
C3490 C 0.93327 0.67163 0.27429 0.0
C3491 C 0.9243 0.65707 0.27511 0.0
C3492 C 0.95083 0.67227 0.27625 0.0
C3493 C 0.93437 0.70137 0.27125 0.0
C3494 C 0.95973 0.67674 0.26395 0.0
C3495 C 0.9763 0.67804 0.26603 0.0
C3496 C 0.98422 0.67486 0.28044 0.0
C3497 C 0.97534 0.66966 0.29248 0.0
C3498 C 0.95875 0.66841 0.29041 0.0
H3499 H 0.92665 0.71107 0.27336 0.0
H3500 H 0.94472 0.70319 0.28042 0.0
H3501 H 0.93882 0.70231 0.25946 0.0
H3502 H 0.95384 0.67934 0.25277 0.0
H3503 H 0.98295 0.6818 0.25651 0.0
H3504 H 0.2365 0.01116 0.31267 0.0
H3505 H 0.20957 0.01589 0.30236 0.0
H3506 H 0.20176 0.03775 0.34843 0.0
H3507 H 0.22861 0.03333 0.35873 0.0
H3508 H 0.17988 0.00508 0.31459 0.0
H3509 H 0.19019 0.07078 0.31716 0.0
H3510 H 0.2062 0.05817 0.31752 0.0
H3511 H 0.1966 0.06259 0.33516 0.0
C3512 C 0.22907 0.0171 0.32055 0.0
C3513 C 0.23467 0.02187 0.33651 0.0
C3514 C 0.2137 0.01971 0.31467 0.0
C3515 C 0.20378 0.02732 0.32461 0.0
C3516 C 0.20931 0.03204 0.34053 0.0
H3517 H 0.10896 0.05593 0.31968 0.0
H3518 H 0.13646 0.05064 0.32693 0.0
C3519 C 0.2246 0.02937 0.34643 0.0
C3520 C 0.18749 0.03009 0.31852 0.0
H3521 H 0.16336 0.05947 0.31272 0.0
C3522 C 0.17626 0.01695 0.31401 0.0
C3523 C 0.18286 0.0456 0.31785 0.0
C3524 C 0.1946 0.06012 0.32204 0.0
C3525 C 0.16032 0.01892 0.30936 0.0
C3526 C 0.15563 0.03445 0.3089 0.0
C3527 C 0.16697 0.04758 0.31313 0.0
C3528 C 0.13895 0.03741 0.30444 0.0
C3529 C 0.14855 0.00436 0.30557 0.0
C3530 C 0.13128 0.03181 0.28937 0.0
C3531 C 0.11559 0.03479 0.28526 0.0
C3532 C 0.10746 0.04369 0.29604 0.0
C3533 C 0.11511 0.04925 0.31111 0.0
C3534 C 0.13076 0.04622 0.31524 0.0
H3535 H 0.15313 0.99376 0.31041 0.0
H3536 H 0.1371 0.00632 0.31041 0.0
H3537 H 0.14623 0.00176 0.29249 0.0
H3538 H 0.13745 0.02521 0.28076 0.0
H3539 H 0.10983 0.03022 0.27365 0.0
H3540 H 0.28655 0.04057 0.70474 0.0
H3541 H 0.31418 0.04024 0.69851 0.0
H3542 H 0.32016 0.00202 0.728 0.0
H3543 H 0.29251 0.00191 0.73373 0.0
H3544 H 0.34224 0.04473 0.71681 0.0
H3545 H 0.33065 0.98376 0.70756 0.0
H3546 H 0.33394 0.98352 0.687 0.0
H3547 H 0.31763 0.99312 0.6943 0.0
C3548 C 0.29379 0.03208 0.70982 0.0
C3549 C 0.28735 0.02113 0.71954 0.0
C3550 C 0.30957 0.03195 0.70634 0.0
C3551 C 0.31913 0.02084 0.71249 0.0
C3552 C 0.31289 0.01039 0.72276 0.0
H3553 H 0.41505 0.99682 0.70402 0.0
H3554 H 0.38809 0.99924 0.71122 0.0
C3555 C 0.29714 0.01046 0.72617 0.0
C3556 C 0.33562 0.02018 0.70823 0.0
H3557 H 0.36085 0.99528 0.69262 0.0
C3558 C 0.34629 0.03395 0.71141 0.0
C3559 C 0.34093 0.00606 0.70129 0.0
C3560 C 0.33012 0.99085 0.69721 0.0
C3561 C 0.36222 0.03391 0.70822 0.0
C3562 C 0.3675 0.01981 0.70125 0.0
C3563 C 0.3568 0.00608 0.69797 0.0
C3564 C 0.38409 0.01892 0.69734 0.0
C3565 C 0.37332 0.04884 0.71279 0.0
C3566 C 0.39075 0.02903 0.68699 0.0
C3567 C 0.40625 0.02783 0.68307 0.0
C3568 C 0.41536 0.01646 0.68937 0.0
C3569 C 0.4085 0.00602 0.69935 0.0
C3570 C 0.39307 0.00733 0.70339 0.0
H3571 H 0.36875 0.05682 0.72205 0.0
H3572 H 0.38532 0.04603 0.7173 0.0
H3573 H 0.37447 0.05543 0.7022 0.0
H3574 H 0.38387 0.03769 0.68173 0.0
H3575 H 0.4111 0.03571 0.67499 0.0
H3576 H 0.66693 0.63773 0.39229 0.0
H3577 H 0.67569 0.61114 0.39274 0.0
H3578 H 0.68688 0.61192 0.3443 0.0
H3579 H 0.67808 0.63854 0.34373 0.0
H3580 H 0.66432 0.58333 0.37347 0.0
H3581 H 0.72799 0.60019 0.36722 0.0
H3582 H 0.7145 0.61466 0.37227 0.0
H3583 H 0.71438 0.60628 0.35206 0.0
C3584 C 0.67117 0.63222 0.38169 0.0
C3585 C 0.67183 0.64028 0.36798 0.0
C3586 C 0.67623 0.61704 0.38199 0.0
C3587 C 0.68213 0.60964 0.36863 0.0
C3588 C 0.68268 0.61756 0.35486 0.0
H3589 H 0.71909 0.51791 0.35098 0.0
H3590 H 0.7089 0.54377 0.34831 0.0
C3591 C 0.67765 0.63276 0.35455 0.0
C3592 C 0.68746 0.59352 0.3691 0.0
H3593 H 0.71984 0.57273 0.36646 0.0
C3594 C 0.67646 0.58101 0.37196 0.0
C3595 C 0.7033 0.59053 0.3671 0.0
C3596 C 0.71579 0.60362 0.36463 0.0
C3597 C 0.68085 0.56553 0.37275 0.0
C3598 C 0.69671 0.56257 0.37088 0.0
C3599 C 0.70767 0.57504 0.36787 0.0
C3600 C 0.7023 0.54668 0.37233 0.0
C3601 C 0.66841 0.55245 0.37536 0.0
C3602 C 0.70199 0.53979 0.38673 0.0
C3603 C 0.70781 0.52507 0.38826 0.0
C3604 C 0.71418 0.51709 0.37548 0.0
C3605 C 0.71433 0.5239 0.36103 0.0
C3606 C 0.70853 0.53863 0.3595 0.0
H3607 H 0.6562 0.55569 0.37234 0.0
H3608 H 0.66996 0.54123 0.36813 0.0
H3609 H 0.66958 0.55022 0.38806 0.0
H3610 H 0.69748 0.54591 0.39686 0.0
H3611 H 0.70755 0.51998 0.39949 0.0
H3612 H 0.72927 0.28961 0.00395 0.0
H3613 H 0.72282 0.31715 0.00575 0.0
H3614 H 0.69899 0.30964 0.04757 0.0
H3615 H 0.70503 0.2819 0.04554 0.0
H3616 H 0.68061 0.32245 0.02519 0.0
H3617 H 0.7399 0.35653 0.03508 0.0
H3618 H 0.73809 0.34189 0.01824 0.0
H3619 H 0.73686 0.33568 0.03783 0.0
C3620 C 0.72275 0.29387 0.01359 0.0
C3621 C 0.71752 0.28358 0.02452 0.0
C3622 C 0.71928 0.30968 0.01475 0.0
C3623 C 0.71059 0.31552 0.02691 0.0
C3624 C 0.70578 0.3054 0.03814 0.0
H3625 H 0.68866 0.41423 0.04139 0.0
H3626 H 0.69863 0.38835 0.04487 0.0
C3627 C 0.70926 0.28958 0.03699 0.0
C3628 C 0.70521 0.33165 0.02695 0.0
H3629 H 0.71816 0.37082 0.02633 0.0
C3630 C 0.68882 0.33303 0.0256 0.0
C3631 C 0.71594 0.34549 0.02764 0.0
C3632 C 0.73368 0.34488 0.02994 0.0
C3633 C 0.68284 0.34776 0.02436 0.0
C3634 C 0.69356 0.36149 0.02428 0.0
C3635 C 0.70997 0.36024 0.0262 0.0
C3636 C 0.68793 0.37722 0.02202 0.0
C3637 C 0.6651 0.34848 0.02319 0.0
C3638 C 0.67897 0.37961 0.00788 0.0
C3639 C 0.67332 0.39432 0.00589 0.0
C3640 C 0.67653 0.40686 0.01803 0.0
C3641 C 0.68592 0.40463 0.03196 0.0
C3642 C 0.6916 0.38992 0.03394 0.0
H3643 H 0.65886 0.33782 0.02738 0.0
H3644 H 0.66204 0.35924 0.03023 0.0
H3645 H 0.6606 0.34902 0.0106 0.0
H3646 H 0.67633 0.37007 0.99838 0.0
H3647 H 0.66628 0.39584 0.99495 0.0
H3648 H 0.24946 0.85274 0.6981 0.0
H3649 H 0.25469 0.88178 0.70055 0.0
H3650 H 0.25631 0.88049 0.64986 0.0
H3651 H 0.25101 0.85161 0.64732 0.0
H3652 H 0.2801 0.90047 0.69251 0.0
H3653 H 0.22521 0.91308 0.65768 0.0
H3654 H 0.22765 0.89392 0.66468 0.0
H3655 H 0.23598 0.8992 0.6469 0.0
C3656 C 0.25095 0.85867 0.68749 0.0
C3657 C 0.24966 0.84991 0.6725 0.0
C3658 C 0.25386 0.87525 0.6889 0.0
C3659 C 0.25552 0.88332 0.67535 0.0
C3660 C 0.25458 0.87456 0.66042 0.0
H3661 H 0.28672 0.97621 0.65208 0.0
H3662 H 0.27735 0.94812 0.65282 0.0
C3663 C 0.25159 0.85804 0.659 0.0
C3664 C 0.25884 0.90086 0.67676 0.0
H3665 H 0.24624 0.93428 0.66227 0.0
C3666 C 0.27259 0.9079 0.68608 0.0
C3667 C 0.24898 0.91053 0.66841 0.0
C3668 C 0.23354 0.90382 0.65899 0.0
C3669 C 0.27709 0.92428 0.68673 0.0
C3670 C 0.26753 0.93382 0.67792 0.0
C3671 C 0.25357 0.92687 0.66893 0.0
C3672 C 0.27223 0.95092 0.67734 0.0
C3673 C 0.29233 0.93122 0.69637 0.0
C3674 C 0.27208 0.96177 0.69078 0.0
C3675 C 0.27729 0.9778 0.69033 0.0
C3676 C 0.28279 0.98313 0.67644 0.0
C3677 C 0.28251 0.97233 0.66288 0.0
C3678 C 0.27721 0.95634 0.66332 0.0
H3679 H 0.29956 0.92188 0.70057 0.0
H3680 H 0.29956 0.93888 0.68925 0.0
H3681 H 0.28949 0.93875 0.70691 0.0
H3682 H 0.2681 0.95781 0.70165 0.0
H3683 H 0.27731 0.98595 0.70089 0.0
H3684 H 0.3325 0.2413 0.04897 0.0
H3685 H 0.32311 0.21391 0.0527 0.0
H3686 H 0.33297 0.19865 0.00511 0.0
H3687 H 0.34228 0.226 0.00124 0.0
H3688 H 0.29885 0.19249 0.03554 0.0
H3689 H 0.35821 0.17048 0.03285 0.0
H3690 H 0.35553 0.19136 0.03538 0.0
H3691 H 0.35168 0.18047 0.01606 0.0
C3692 C 0.33249 0.23215 0.03923 0.0
C3693 C 0.33826 0.23582 0.02485 0.0
C3694 C 0.32719 0.2165 0.0414 0.0
C3695 C 0.32761 0.20423 0.02928 0.0
C3696 C 0.33288 0.2079 0.01474 0.0
H3697 H 0.28272 0.1073 0.02209 0.0
H3698 H 0.29009 0.13531 0.01864 0.0
C3699 C 0.3382 0.22353 0.01256 0.0
C3700 C 0.32273 0.18755 0.03191 0.0
H3701 H 0.33641 0.15109 0.03334 0.0
C3702 C 0.30705 0.18343 0.03509 0.0
C3703 C 0.33353 0.17582 0.03152 0.0
C3704 C 0.35072 0.17973 0.02891 0.0
C3705 C 0.3018 0.16779 0.03764 0.0
C3706 C 0.31248 0.15597 0.0368 0.0
C3707 C 0.32822 0.16016 0.03386 0.0
C3708 C 0.30764 0.13918 0.03908 0.0
C3709 C 0.28494 0.1641 0.04146 0.0
C3710 C 0.31529 0.13201 0.05149 0.0
C3711 C 0.31111 0.11605 0.05344 0.0
C3712 C 0.29918 0.10704 0.04303 0.0
C3713 C 0.29169 0.11415 0.03047 0.0
C3714 C 0.29586 0.13012 0.02853 0.0
H3715 H 0.27959 0.17502 0.04554 0.0
H3716 H 0.27763 0.15837 0.03062 0.0
H3717 H 0.28441 0.15577 0.05078 0.0
H3718 H 0.32453 0.13875 0.05965 0.0
H3719 H 0.31727 0.1107 0.063 0.0
H3720 H 0.3784 0.68845 0.64513 0.0
H3721 H 0.37982 0.69694 0.61847 0.0
H3722 H 0.34671 0.65697 0.59904 0.0
H3723 H 0.34503 0.64851 0.6257 0.0
H3724 H 0.38907 0.678 0.59117 0.0
H3725 H 0.32804 0.69632 0.58129 0.0
H3726 H 0.33741 0.69424 0.60084 0.0
H3727 H 0.32949 0.67693 0.58788 0.0
C3728 C 0.37124 0.68159 0.63522 0.0
C3729 C 0.36154 0.66784 0.63754 0.0
C3730 C 0.37215 0.6864 0.61999 0.0
C3731 C 0.36326 0.67766 0.60683 0.0
C3732 C 0.35352 0.66398 0.60908 0.0
H3733 H 0.35251 0.6906 0.50599 0.0
H3734 H 0.35067 0.68083 0.53217 0.0
C3735 C 0.35267 0.6591 0.62429 0.0
C3736 C 0.36456 0.68263 0.59069 0.0
H3737 H 0.34362 0.69664 0.55963 0.0
C3738 C 0.37916 0.68211 0.58426 0.0
C3739 C 0.35157 0.68788 0.58172 0.0
C3740 C 0.33575 0.68902 0.58826 0.0
C3741 C 0.38109 0.68656 0.56898 0.0
C3742 C 0.36816 0.69204 0.56006 0.0
C3743 C 0.35352 0.69245 0.56648 0.0
C3744 C 0.36961 0.69763 0.54414 0.0
C3745 C 0.39686 0.68501 0.56242 0.0
C3746 C 0.38077 0.71037 0.54221 0.0
C3747 C 0.3819 0.71585 0.52728 0.0
C3748 C 0.37173 0.70881 0.51406 0.0
C3749 C 0.3605 0.69614 0.51601 0.0
C3750 C 0.35943 0.69061 0.53093 0.0
H3751 H 0.40368 0.67638 0.56852 0.0
H3752 H 0.39525 0.68117 0.54949 0.0
H3753 H 0.40405 0.69672 0.56431 0.0
H3754 H 0.38848 0.71623 0.55229 0.0
H3755 H 0.39059 0.72571 0.52611 0.0
H3756 H 0.04184 0.70028 0.27985 0.0
H3757 H 0.04172 0.69215 0.30674 0.0
H3758 H 0.0105 0.7278 0.3184 0.0
H3759 H 0.01009 0.73559 0.29144 0.0
H3760 H 0.04993 0.70348 0.33475 0.0
H3761 H 0.99005 0.71178 0.32969 0.0
H3762 H 0.98465 0.69099 0.33028 0.0
H3763 H 0.99454 0.69776 0.31396 0.0
C3764 C 0.03485 0.7063 0.28812 0.0
C3765 C 0.02572 0.71836 0.28341 0.0
C3766 C 0.03482 0.70167 0.30349 0.0
C3767 C 0.02552 0.70884 0.31441 0.0
C3768 C 0.01721 0.72158 0.31003 0.0
H3769 H 0.03538 0.69607 0.41541 0.0
H3770 H 0.03711 0.70582 0.38925 0.0
C3771 C 0.01717 0.72618 0.29465 0.0
C3772 C 0.02448 0.70285 0.33027 0.0
H3773 H 0.99842 0.69063 0.35611 0.0
C3774 C 0.03864 0.7006 0.33934 0.0
C3775 C 0.00975 0.6988 0.33626 0.0
C3776 C 0.99393 0.6998 0.32694 0.0
C3777 C 0.03849 0.69462 0.3542 0.0
C3778 C 0.02382 0.69132 0.36047 0.0
C3779 C 0.00967 0.69336 0.35137 0.0
C3780 C 0.0228 0.68553 0.37635 0.0
C3781 C 0.05404 0.69155 0.36286 0.0
C3782 C 0.01383 0.67112 0.37784 0.0
C3783 C 0.01263 0.66569 0.39277 0.0
C3784 C 0.02026 0.67465 0.4065 0.0
C3785 C 0.02925 0.68906 0.40501 0.0
C3786 C 0.03038 0.69452 0.39007 0.0
H3787 H 0.06335 0.69013 0.3546 0.0
H3788 H 0.05825 0.7018 0.37175 0.0
H3789 H 0.05266 0.68071 0.36918 0.0
H3790 H 0.00787 0.66399 0.36741 0.0
H3791 H 0.0058 0.65444 0.39358 0.0
H3792 H 0.70226 0.26213 0.85105 0.0
H3793 H 0.70434 0.26815 0.87999 0.0
H3794 H 0.65499 0.25107 0.88006 0.0
H3795 H 0.6528 0.24509 0.85127 0.0
H3796 H 0.68746 0.2884 0.89796 0.0
H3797 H 0.67658 0.22673 0.91369 0.0
H3798 H 0.68145 0.23122 0.89423 0.0
H3799 H 0.66149 0.23199 0.89951 0.0
C3800 C 0.69186 0.25969 0.85724 0.0
C3801 C 0.67741 0.25299 0.84888 0.0
C3802 C 0.69308 0.26306 0.87377 0.0
C3803 C 0.6799 0.25973 0.8822 0.0
C3804 C 0.66542 0.2533 0.87385 0.0
H3805 H 0.65347 0.27816 0.97686 0.0
H3806 H 0.65519 0.26977 0.9488 0.0
C3807 C 0.6642 0.24991 0.85738 0.0
C3808 C 0.68103 0.26356 0.89966 0.0
H3809 H 0.6748 0.24747 0.93425 0.0
C3810 C 0.68489 0.27944 0.90593 0.0
C3811 C 0.67765 0.25183 0.91001 0.0
C3812 C 0.67421 0.23446 0.90405 0.0
C3813 C 0.68491 0.28399 0.92223 0.0
C3814 C 0.68118 0.2723 0.93252 0.0
C3815 C 0.6776 0.25639 0.9263 0.0
C3816 C 0.68045 0.27648 0.94971 0.0
C3817 C 0.68838 0.30133 0.92826 0.0
C3818 C 0.69414 0.28274 0.95955 0.0
C3819 C 0.69318 0.28749 0.97559 0.0
C3820 C 0.67858 0.28583 0.98212 0.0
C3821 C 0.66493 0.27933 0.97227 0.0
C3822 C 0.66589 0.27456 0.95623 0.0
H3823 H 0.68776 0.30913 0.91844 0.0
H3824 H 0.6799 0.30487 0.93681 0.0
H3825 H 0.70053 0.3034 0.93453 0.0
H3826 H 0.70551 0.28418 0.95477 0.0
H3827 H 0.70382 0.29276 0.98282 0.0
H3828 H 0.03046 0.36943 0.22352 0.0
H3829 H 0.03475 0.35981 0.19638 0.0
H3830 H 0.00952 0.31458 0.20181 0.0
H3831 H 0.00494 0.3242 0.22896 0.0
H3832 H 0.05042 0.33194 0.18688 0.0
H3833 H 0.98788 0.32892 0.16002 0.0
H3834 H 0.99484 0.34052 0.17862 0.0
H3835 H 0.99118 0.31932 0.17788 0.0
C3836 C 0.02566 0.3575 0.21889 0.0
C3837 C 0.01726 0.34761 0.22835 0.0
C3838 C 0.02821 0.352 0.20342 0.0
C3839 C 0.02231 0.33657 0.19706 0.0
C3840 C 0.01399 0.32661 0.20646 0.0
H3841 H 0.02513 0.28718 0.10279 0.0
H3842 H 0.02013 0.29441 0.13042 0.0
C3843 C 0.0115 0.33207 0.22199 0.0
C3844 C 0.0252 0.33086 0.18069 0.0
H3845 H 0.00673 0.32 0.14341 0.0
C3846 C 0.04089 0.32931 0.17736 0.0
C3847 C 0.01271 0.32736 0.16836 0.0
C3848 C 0.99569 0.32919 0.17128 0.0
C3849 C 0.04443 0.32429 0.162 0.0
C3850 C 0.03198 0.32113 0.14955 0.0
C3851 C 0.01626 0.32246 0.15295 0.0
C3852 C 0.03506 0.31672 0.13289 0.0
C3853 C 0.06146 0.3222 0.15931 0.0
C3854 C 0.04485 0.32698 0.12503 0.0
C3855 C 0.0478 0.32279 0.10936 0.0
C3856 C 0.04099 0.3083 0.10127 0.0
C3857 C 0.0308 0.29825 0.10894 0.0
C3858 C 0.02789 0.30241 0.12465 0.0
H3859 H 0.06861 0.32047 0.17052 0.0
H3860 H 0.06223 0.31188 0.15049 0.0
H3861 H 0.06686 0.33302 0.1547 0.0
H3862 H 0.05011 0.33829 0.13098 0.0
H3863 H 0.05539 0.33088 0.10352 0.0
loop_
_geom_bond_atom_site_label_1
_geom_bond_atom_site_label_2
_geom_bond_distance
_geom_bond_site_symmetry_2
_ccdc_geom_bond_type
C0 C1 1.264 . S
C0 C5 1.479 . S
C0 C10 1.465 . S
C1 C0 1.264 . S
C1 C3 1.339 . S
C1 H28 0.931 . S
C2 C3 1.395 . S
C2 C4 1.320 . S
C3 C1 1.339 . S
C3 C2 1.395 . S
C3 H29 0.929 . S
C4 C2 1.320 . S
C4 C5 1.405 . S
C4 H30 0.930 . S
C5 C0 1.479 . S
C5 C4 1.405 . S
C5 H31 0.931 . S
U6 O7 2.454 . S
U6 O8 2.458 . S
U6 C9 2.984 . S
U6 C10 2.847 . S
U6 C23 2.882 . S
U6 O24 2.441 . S
U6 O25 2.420 . S
U6 O26 2.455 . S
U6 O27 2.449 . S
O7 U6 2.454 . S
O7 C9 1.353 . S
O8 U6 2.458 . S
O8 C9 1.286 . S
C9 U6 2.984 . S
C9 O7 1.353 . S
C9 O8 1.286 . S
C9 C11 1.363 . S
C10 C0 1.465 . S
C10 U6 2.847 . S
C10 O24 1.249 . S
C10 O25 1.202 . S
C11 C9 1.363 . S
C11 C13 1.408 . S
C11 C16 1.342 . S
C12 C13 1.310 . S
C12 C15 1.461 . S
C12 H32 0.932 . S
C13 C11 1.408 . S
C13 C12 1.310 . S
C13 H33 0.930 . S
C14 C15 1.474 . S
C14 C16 1.285 . S
C14 H34 0.929 . S
C15 C12 1.461 . S
C15 C14 1.474 . S
C16 C11 1.342 . S
C16 C14 1.285 . S
C16 H35 0.930 . S
C17 C20 1.424 . S
C17 C22 1.245 . S
C17 C23 1.428 . S
C18 C21 1.260 . S
C18 C22 1.477 . S
C18 H36 0.932 . S
C19 C20 1.384 . S
C19 C21 1.479 . S
C19 H37 0.929 . S
C20 C17 1.424 . S
C20 C19 1.384 . S
C20 H38 0.928 . S
C21 C18 1.260 . S
C21 C19 1.479 . S
C22 C17 1.245 . S
C22 C18 1.477 . S
C22 H39 0.932 . S
C23 U6 2.882 . S
C23 C17 1.428 . S
C23 O26 1.301 . S
C23 O27 1.282 . S
O24 U6 2.441 . S
O24 C10 1.249 . S
O25 U6 2.420 . S
O25 C10 1.202 . S
O26 U6 2.455 . S
O26 C23 1.301 . S
O27 U6 2.449 . S
O27 C23 1.282 . S
H28 C1 0.931 . S
H29 C3 0.929 . S
H30 C4 0.930 . S
H31 C5 0.931 . S
H32 C12 0.932 . S
H33 C13 0.930 . S
H34 C14 0.929 . S
H35 C16 0.930 . S
H36 C18 0.932 . S
H37 C19 0.929 . S
H38 C20 0.928 . S
H39 C22 0.932 . S
C40 C41 1.264 . S
C40 C45 1.479 . S
C40 C50 1.465 . S
C41 C40 1.264 . S
C41 C43 1.339 . S
C41 H68 0.931 . S
C42 C43 1.395 . S
C42 C44 1.320 . S
C43 C41 1.339 . S
C43 C42 1.395 . S
C43 H69 0.929 . S
C44 C42 1.320 . S
C44 C45 1.405 . S
C44 H70 0.930 . S
C45 C40 1.479 . S
C45 C44 1.405 . S
C45 H71 0.931 . S
U46 O47 2.454 . S
U46 O48 2.458 . S
U46 C49 2.984 . S
U46 C50 2.847 . S
U46 C63 2.882 . S
U46 O64 2.441 . S
U46 O65 2.420 . S
U46 O66 2.455 . S
U46 O67 2.449 . S
O47 U46 2.454 . S
O47 C49 1.353 . S
O48 U46 2.458 . S
O48 C49 1.286 . S
C49 U46 2.984 . S
C49 O47 1.353 . S
C49 O48 1.286 . S
C49 C51 1.363 . S
C50 C40 1.465 . S
C50 U46 2.847 . S
C50 O64 1.249 . S
C50 O65 1.202 . S
C51 C49 1.363 . S
C51 C53 1.408 . S
C51 C56 1.342 . S
C52 C53 1.310 . S
C52 C55 1.461 . S
C52 H72 0.932 . S
C53 C51 1.408 . S
C53 C52 1.310 . S
C53 H73 0.930 . S
C54 C55 1.474 . S
C54 C56 1.285 . S
C54 H74 0.929 . S
C55 C52 1.461 . S
C55 C54 1.474 . S
C56 C51 1.342 . S
C56 C54 1.285 . S
C56 H75 0.930 . S
C57 C60 1.424 . S
C57 C62 1.245 . S
C57 C63 1.428 . S
C58 C61 1.260 . S
C58 C62 1.477 . S
C58 H76 0.932 . S
C59 C60 1.384 . S
C59 C61 1.479 . S
C59 H77 0.929 . S
C60 C57 1.424 . S
C60 C59 1.384 . S
C60 H78 0.928 . S
C61 C58 1.260 . S
C61 C59 1.479 . S
C62 C57 1.245 . S
C62 C58 1.477 . S
C62 H79 0.932 . S
C63 U46 2.882 . S
C63 C57 1.428 . S
C63 O66 1.301 . S
C63 O67 1.282 . S
O64 U46 2.441 . S
O64 C50 1.249 . S
O65 U46 2.420 . S
O65 C50 1.202 . S
O66 U46 2.455 . S
O66 C63 1.301 . S
O67 U46 2.449 . S
O67 C63 1.282 . S
H68 C41 0.931 . S
H69 C43 0.929 . S
H70 C44 0.930 . S
H71 C45 0.931 . S
H72 C52 0.932 . S
H73 C53 0.930 . S
H74 C54 0.929 . S
H75 C56 0.930 . S
H76 C58 0.932 . S
H77 C59 0.929 . S
H78 C60 0.928 . S
H79 C62 0.932 . S
C80 C81 1.264 . S
C80 C85 1.479 . S
C80 C90 1.465 . S
C81 C80 1.264 . S
C81 C83 1.339 . S
C81 H108 0.931 . S
C82 C83 1.395 . S
C82 C84 1.320 . S
C83 C81 1.339 . S
C83 C82 1.395 . S
C83 H109 0.929 . S
C84 C82 1.320 . S
C84 C85 1.405 . S
C84 H110 0.925 1_565 S
C85 C80 1.479 . S
C85 C84 1.405 . S
C85 H111 0.931 . S
U86 O87 2.454 . S
U86 O88 2.458 . S
U86 C89 2.984 . S
U86 C90 2.847 . S
U86 C103 2.882 . S
U86 O104 2.441 . S
U86 O105 2.420 . S
U86 O106 2.455 . S
U86 O107 2.449 . S
O87 U86 2.454 . S
O87 C89 1.353 . S
O88 U86 2.458 . S
O88 C89 1.286 . S
C89 U86 2.984 . S
C89 O87 1.353 . S
C89 O88 1.286 . S
C89 C91 1.363 . S
C90 C80 1.465 . S
C90 U86 2.847 . S
C90 O104 1.249 . S
C90 O105 1.202 . S
C91 C89 1.363 . S
C91 C93 1.408 . S
C91 C96 1.362 . S
C92 C93 1.310 . S
C92 C95 1.461 . S
C92 H112 0.930 . S
C93 C91 1.408 . S
C93 C92 1.310 . S
C93 H113 0.930 . S
C94 C95 1.473 1_545 S
C94 C96 1.278 1_545 S
C94 H114 0.932 . S
C95 C92 1.461 . S
C95 C94 1.473 1_565 S
C96 C91 1.362 . S
C96 C94 1.278 1_565 S
C96 H115 0.926 . S
C97 C100 1.424 . S
C97 C102 1.245 . S
C97 C103 1.428 . S
C98 C101 1.260 . S
C98 C102 1.477 . S
C98 H116 0.932 . S
C99 C100 1.384 . S
C99 C101 1.479 . S
C99 H117 0.929 . S
C100 C97 1.424 . S
C100 C99 1.384 . S
C100 H118 0.928 . S
C101 C98 1.260 . S
C101 C99 1.479 . S
C102 C97 1.245 . S
C102 C98 1.477 . S
C102 H119 0.932 . S
C103 U86 2.882 . S
C103 C97 1.428 . S
C103 O106 1.301 . S
C103 O107 1.282 . S
O104 U86 2.441 . S
O104 C90 1.249 . S
O105 U86 2.420 . S
O105 C90 1.202 . S
O106 U86 2.455 . S
O106 C103 1.301 . S
O107 U86 2.449 . S
O107 C103 1.282 . S
H108 C81 0.931 . S
H109 C83 0.929 . S
H110 C84 0.925 1_545 S
H111 C85 0.931 . S
H112 C92 0.930 . S
H113 C93 0.930 . S
H114 C94 0.932 . S
H115 C96 0.926 . S
H116 C98 0.932 . S
H117 C99 0.929 . S
H118 C100 0.928 . S
H119 C102 0.932 . S
C120 C121 1.264 . S
C120 C125 1.479 . S
C120 C130 1.465 . S
C121 C120 1.264 . S
C121 C123 1.339 . S
C121 H148 0.931 . S
C122 C123 1.395 . S
C122 C124 1.320 . S
C123 C121 1.339 . S
C123 C122 1.395 . S
C123 H149 0.929 . S
C124 C122 1.320 . S
C124 C125 1.405 . S
C124 H150 0.930 . S
C125 C120 1.479 . S
C125 C124 1.405 . S
C125 H151 0.931 . S
U126 O127 2.454 . S
U126 O128 2.458 . S
U126 C129 2.984 . S
U126 C130 2.847 . S
U126 C143 2.882 . S
U126 O144 2.441 . S
U126 O145 2.420 . S
U126 O146 2.455 . S
U126 O147 2.449 . S
O127 U126 2.454 . S
O127 C129 1.353 . S
O128 U126 2.458 . S
O128 C129 1.286 . S
C129 U126 2.984 . S
C129 O127 1.353 . S
C129 O128 1.286 . S
C129 C131 1.363 . S
C130 C120 1.465 . S
C130 U126 2.847 . S
C130 O144 1.249 . S
C130 O145 1.202 . S
C131 C129 1.363 . S
C131 C133 1.408 . S
C131 C136 1.342 . S
C132 C133 1.310 . S
C132 C135 1.461 . S
C132 H152 0.932 . S
C133 C131 1.408 . S
C133 C132 1.310 . S
C133 H153 0.930 . S
C134 C135 1.474 . S
C134 C136 1.285 . S
C134 H154 0.929 . S
C135 C132 1.461 . S
C135 C134 1.474 . S
C136 C131 1.342 . S
C136 C134 1.285 . S
C136 H155 0.930 . S
C137 C140 1.424 . S
C137 C142 1.245 . S
C137 C143 1.428 1_565 S
C138 C141 1.260 . S
C138 C142 1.477 . S
C138 H156 0.932 . S
C139 C140 1.384 . S
C139 C141 1.479 . S
C139 H157 0.929 . S
C140 C137 1.424 . S
C140 C139 1.384 . S
C140 H158 0.928 . S
C141 C138 1.260 . S
C141 C139 1.479 . S
C142 C137 1.245 . S
C142 C138 1.477 . S
C142 H159 0.932 . S
C143 U126 2.882 . S
C143 C137 1.428 1_545 S
C143 O146 1.301 . S
C143 O147 1.282 . S
O144 U126 2.441 . S
O144 C130 1.249 . S
O145 U126 2.420 . S
O145 C130 1.202 . S
O146 U126 2.455 . S
O146 C143 1.301 . S
O147 U126 2.449 . S
O147 C143 1.282 . S
H148 C121 0.931 . S
H149 C123 0.929 . S
H150 C124 0.930 . S
H151 C125 0.931 . S
H152 C132 0.932 . S
H153 C133 0.930 . S
H154 C134 0.929 . S
H155 C136 0.930 . S
H156 C138 0.932 . S
H157 C139 0.929 . S
H158 C140 0.928 . S
H159 C142 0.932 . S
C160 C161 1.264 . S
C160 C165 1.479 . S
C160 C170 1.465 . S
C161 C160 1.264 . S
C161 C163 1.339 . S
C161 H188 0.931 . S
C162 C163 1.395 . S
C162 C164 1.320 . S
C163 C161 1.339 . S
C163 C162 1.395 . S
C163 H189 0.929 . S
C164 C162 1.320 . S
C164 C165 1.405 . S
C164 H190 0.930 . S
C165 C160 1.479 . S
C165 C164 1.405 . S
C165 H191 0.931 . S
U166 O167 2.454 . S
U166 O168 2.458 . S
U166 C169 2.984 . S
U166 C170 2.847 . S
U166 C183 2.882 . S
U166 O184 2.441 . S
U166 O185 2.420 . S
U166 O186 2.455 . S
U166 O187 2.449 . S
O167 U166 2.454 . S
O167 C169 1.353 . S
O168 U166 2.458 . S
O168 C169 1.286 . S
C169 U166 2.984 . S
C169 O167 1.353 . S
C169 O168 1.286 . S
C169 C171 1.363 . S
C170 C160 1.465 . S
C170 U166 2.847 . S
C170 O184 1.249 . S
C170 O185 1.202 . S
C171 C169 1.363 . S
C171 C173 1.408 . S
C171 C176 1.342 . S
C172 C173 1.310 . S
C172 C175 1.461 . S
C172 H192 0.932 . S
C173 C171 1.408 . S
C173 C172 1.310 . S
C173 H193 0.930 . S
C174 C175 1.474 . S
C174 C176 1.285 . S
C174 H194 0.929 . S
C175 C172 1.461 . S
C175 C174 1.474 . S
C176 C171 1.342 . S
C176 C174 1.285 . S
C176 H195 0.930 . S
C177 C180 1.424 . S
C177 C182 1.245 . S
C177 C183 1.428 . S
C178 C181 1.260 . S
C178 C182 1.477 . S
C178 H196 0.932 . S
C179 C180 1.384 . S
C179 C181 1.479 . S
C179 H197 0.929 . S
C180 C177 1.424 . S
C180 C179 1.384 . S
C180 H198 0.928 . S
C181 C178 1.260 . S
C181 C179 1.479 . S
C182 C177 1.245 . S
C182 C178 1.477 . S
C182 H199 0.932 . S
C183 U166 2.882 . S
C183 C177 1.428 . S
C183 O186 1.301 . S
C183 O187 1.282 . S
O184 U166 2.441 . S
O184 C170 1.249 . S
O185 U166 2.420 . S
O185 C170 1.202 . S
O186 U166 2.455 . S
O186 C183 1.301 . S
O187 U166 2.449 . S
O187 C183 1.282 . S
H188 C161 0.931 . S
H189 C163 0.929 . S
H190 C164 0.930 . S
H191 C165 0.931 . S
H192 C172 0.932 . S
H193 C173 0.930 . S
H194 C174 0.929 . S
H195 C176 0.930 . S
H196 C178 0.932 . S
H197 C179 0.929 . S
H198 C180 0.928 . S
H199 C182 0.932 . S
C200 C201 1.264 . S
C200 C205 1.479 . S
C200 C210 1.465 . S
C201 C200 1.264 . S
C201 C203 1.339 . S
C201 H228 0.931 . S
C202 C203 1.395 . S
C202 C204 1.320 . S
C203 C201 1.339 . S
C203 C202 1.395 . S
C203 H229 0.929 . S
C204 C202 1.320 . S
C204 C205 1.405 . S
C204 H230 0.930 . S
C205 C200 1.479 . S
C205 C204 1.405 . S
C205 H231 0.931 . S
U206 O207 2.454 . S
U206 O208 2.458 . S
U206 C209 2.984 . S
U206 C210 2.847 . S
U206 C223 2.882 . S
U206 O224 2.441 . S
U206 O225 2.420 . S
U206 O226 2.455 . S
U206 O227 2.449 . S
O207 U206 2.454 . S
O207 C209 1.353 . S
O208 U206 2.458 . S
O208 C209 1.286 . S
C209 U206 2.984 . S
C209 O207 1.353 . S
C209 O208 1.286 . S
C209 C211 1.363 . S
C210 C200 1.465 . S
C210 U206 2.847 . S
C210 O224 1.249 . S
C210 O225 1.202 . S
C211 C209 1.363 . S
C211 C213 1.408 . S
C211 C216 1.342 . S
C212 C213 1.310 . S
C212 C215 1.461 . S
C212 H232 0.932 . S
C213 C211 1.408 . S
C213 C212 1.310 . S
C213 H233 0.930 . S
C214 C215 1.474 . S
C214 C216 1.285 . S
C214 H234 0.929 . S
C215 C212 1.461 . S
C215 C214 1.474 . S
C216 C211 1.342 . S
C216 C214 1.285 . S
C216 H235 0.930 . S
C217 C220 1.424 . S
C217 C222 1.245 . S
C217 C223 1.428 1_556 S
C218 C221 1.260 . S
C218 C222 1.477 . S
C218 H236 0.932 . S
C219 C220 1.384 . S
C219 C221 1.479 . S
C219 H237 0.929 . S
C220 C217 1.424 . S
C220 C219 1.384 . S
C220 H238 0.928 . S
C221 C218 1.260 . S
C221 C219 1.479 . S
C222 C217 1.245 . S
C222 C218 1.477 . S
C222 H239 0.932 . S
C223 U206 2.882 . S
C223 C217 1.428 1_554 S
C223 O226 1.301 . S
C223 O227 1.282 . S
O224 U206 2.441 . S
O224 C210 1.249 . S
O225 U206 2.420 . S
O225 C210 1.202 . S
O226 U206 2.455 . S
O226 C223 1.301 . S
O227 U206 2.449 . S
O227 C223 1.282 . S
H228 C201 0.931 . S
H229 C203 0.929 . S
H230 C204 0.930 . S
H231 C205 0.931 . S
H232 C212 0.932 . S
H233 C213 0.930 . S
H234 C214 0.929 . S
H235 C216 0.930 . S
H236 C218 0.932 . S
H237 C219 0.929 . S
H238 C220 0.928 . S
H239 C222 0.932 . S
C240 C241 1.264 . S
C240 C245 1.479 . S
C240 C250 1.465 . S
C241 C240 1.264 . S
C241 C243 1.339 . S
C241 H268 0.931 . S
C242 C243 1.395 . S
C242 C244 1.320 . S
C243 C241 1.339 . S
C243 C242 1.395 . S
C243 H269 0.929 . S
C244 C242 1.320 . S
C244 C245 1.405 . S
C244 H270 0.930 . S
C245 C240 1.479 . S
C245 C244 1.405 . S
C245 H271 0.931 . S
U246 O247 2.454 . S
U246 O248 2.458 . S
U246 C249 2.984 . S
U246 C250 2.847 . S
U246 C263 2.882 . S
U246 O264 2.441 . S
U246 O265 2.420 . S
U246 O266 2.455 . S
U246 O267 2.449 . S
O247 U246 2.454 . S
O247 C249 1.353 . S
O248 U246 2.458 . S
O248 C249 1.286 . S
C249 U246 2.984 . S
C249 O247 1.353 . S
C249 O248 1.286 . S
C249 C251 1.363 . S
C250 C240 1.465 . S
C250 U246 2.847 . S
C250 O264 1.249 . S
C250 O265 1.202 . S
C251 C249 1.363 . S
C251 C253 1.408 . S
C251 C256 1.342 . S
C252 C253 1.310 . S
C252 C255 1.461 . S
C252 H272 0.932 . S
C253 C251 1.408 . S
C253 C252 1.310 . S
C253 H273 0.930 . S
C254 C255 1.474 . S
C254 C256 1.285 . S
C254 H274 0.929 . S
C255 C252 1.461 . S
C255 C254 1.474 . S
C256 C251 1.342 . S
C256 C254 1.285 . S
C256 H275 0.930 . S
C257 C260 1.424 . S
C257 C262 1.245 . S
C257 C263 1.428 . S
C258 C261 1.260 . S
C258 C262 1.477 . S
C258 H276 0.932 . S
C259 C260 1.384 . S
C259 C261 1.479 . S
C259 H277 0.929 . S
C260 C257 1.424 . S
C260 C259 1.384 . S
C260 H278 0.928 . S
C261 C258 1.260 . S
C261 C259 1.479 . S
C262 C257 1.245 . S
C262 C258 1.477 . S
C262 H279 0.932 . S
C263 U246 2.882 . S
C263 C257 1.428 . S
C263 O266 1.301 . S
C263 O267 1.282 . S
O264 U246 2.441 . S
O264 C250 1.249 . S
O265 U246 2.420 . S
O265 C250 1.202 . S
O266 U246 2.455 . S
O266 C263 1.301 . S
O267 U246 2.449 . S
O267 C263 1.282 . S
H268 C241 0.931 . S
H269 C243 0.929 . S
H270 C244 0.930 . S
H271 C245 0.931 . S
H272 C252 0.932 . S
H273 C253 0.930 . S
H274 C254 0.929 . S
H275 C256 0.930 . S
H276 C258 0.932 . S
H277 C259 0.929 . S
H278 C260 0.928 . S
H279 C262 0.932 . S
C280 C281 1.264 . S
C280 C285 1.479 . S
C280 C290 1.465 . S
C281 C280 1.264 . S
C281 C283 1.339 . S
C281 H308 0.931 . S
C282 C283 1.395 . S
C282 C284 1.320 . S
C283 C281 1.339 . S
C283 C282 1.395 . S
C283 H309 0.929 . S
C284 C282 1.320 . S
C284 C285 1.405 . S
C284 H310 0.925 1_556 S
C285 C280 1.479 . S
C285 C284 1.405 . S
C285 H311 0.931 . S
U286 O287 2.454 . S
U286 O288 2.458 . S
U286 C289 2.984 . S
U286 C290 2.847 . S
U286 C303 2.882 . S
U286 O304 2.441 . S
U286 O305 2.420 . S
U286 O306 2.455 . S
U286 O307 2.449 . S
O287 U286 2.454 . S
O287 C289 1.353 . S
O288 U286 2.458 . S
O288 C289 1.286 . S
C289 U286 2.984 . S
C289 O287 1.353 . S
C289 O288 1.286 . S
C289 C291 1.363 . S
C290 C280 1.465 . S
C290 U286 2.847 . S
C290 O304 1.249 . S
C290 O305 1.202 . S
C291 C289 1.363 . S
C291 C293 1.408 . S
C291 C296 1.362 . S
C292 C293 1.310 . S
C292 C295 1.461 . S
C292 H312 0.930 . S
C293 C291 1.408 . S
C293 C292 1.310 . S
C293 H313 0.930 . S
C294 C295 1.473 1_554 S
C294 C296 1.278 1_554 S
C294 H314 0.932 . S
C295 C292 1.461 . S
C295 C294 1.473 1_556 S
C296 C291 1.362 . S
C296 C294 1.278 1_556 S
C296 H315 0.926 . S
C297 C300 1.424 . S
C297 C302 1.245 . S
C297 C303 1.428 . S
C298 C301 1.260 . S
C298 C302 1.477 . S
C298 H316 0.932 . S
C299 C300 1.384 . S
C299 C301 1.479 . S
C299 H317 0.929 . S
C300 C297 1.424 . S
C300 C299 1.384 . S
C300 H318 0.928 . S
C301 C298 1.260 . S
C301 C299 1.479 . S
C302 C297 1.245 . S
C302 C298 1.477 . S
C302 H319 0.932 . S
C303 U286 2.882 . S
C303 C297 1.428 . S
C303 O306 1.301 . S
C303 O307 1.282 . S
O304 U286 2.441 . S
O304 C290 1.249 . S
O305 U286 2.420 . S
O305 C290 1.202 . S
O306 U286 2.455 . S
O306 C303 1.301 . S
O307 U286 2.449 . S
O307 C303 1.282 . S
H308 C281 0.931 . S
H309 C283 0.929 . S
H310 C284 0.925 1_554 S
H311 C285 0.931 . S
H312 C292 0.930 . S
H313 C293 0.930 . S
H314 C294 0.932 . S
H315 C296 0.926 . S
H316 C298 0.932 . S
H317 C299 0.929 . S
H318 C300 0.928 . S
H319 C302 0.932 . S
C320 C321 1.264 . S
C320 C325 1.479 . S
C320 C330 1.465 . S
C321 C320 1.264 . S
C321 C323 1.339 . S
C321 H348 0.931 . S
C322 C323 1.395 . S
C322 C324 1.320 . S
C323 C321 1.339 . S
C323 C322 1.395 . S
C323 H349 0.929 . S
C324 C322 1.320 . S
C324 C325 1.405 . S
C324 H350 0.930 . S
C325 C320 1.479 . S
C325 C324 1.405 . S
C325 H351 0.931 . S
U326 O327 2.454 . S
U326 O328 2.458 . S
U326 C329 2.984 . S
U326 C330 2.847 . S
U326 C343 2.882 . S
U326 O344 2.441 . S
U326 O345 2.420 . S
U326 O346 2.455 . S
U326 O347 2.449 . S
O327 U326 2.454 . S
O327 C329 1.353 . S
O328 U326 2.458 . S
O328 C329 1.286 . S
C329 U326 2.984 . S
C329 O327 1.353 . S
C329 O328 1.286 . S
C329 C331 1.363 . S
C330 C320 1.465 . S
C330 U326 2.847 . S
C330 O344 1.249 . S
C330 O345 1.202 . S
C331 C329 1.363 . S
C331 C333 1.408 . S
C331 C336 1.342 . S
C332 C333 1.310 . S
C332 C335 1.461 . S
C332 H352 0.932 . S
C333 C331 1.408 . S
C333 C332 1.310 . S
C333 H353 0.930 . S
C334 C335 1.474 . S
C334 C336 1.285 . S
C334 H354 0.929 . S
C335 C332 1.461 . S
C335 C334 1.474 . S
C336 C331 1.342 . S
C336 C334 1.285 . S
C336 H355 0.930 . S
C337 C340 1.424 . S
C337 C342 1.245 . S
C337 C343 1.428 . S
C338 C341 1.260 . S
C338 C342 1.477 . S
C338 H356 0.932 . S
C339 C340 1.384 . S
C339 C341 1.479 . S
C339 H357 0.929 . S
C340 C337 1.424 . S
C340 C339 1.384 . S
C340 H358 0.928 . S
C341 C338 1.260 . S
C341 C339 1.479 . S
C342 C337 1.245 . S
C342 C338 1.477 . S
C342 H359 0.932 . S
C343 U326 2.882 . S
C343 C337 1.428 . S
C343 O346 1.301 . S
C343 O347 1.282 . S
O344 U326 2.441 . S
O344 C330 1.249 . S
O345 U326 2.420 . S
O345 C330 1.202 . S
O346 U326 2.455 . S
O346 C343 1.301 . S
O347 U326 2.449 . S
O347 C343 1.282 . S
H348 C321 0.931 . S
H349 C323 0.929 . S
H350 C324 0.930 . S
H351 C325 0.931 . S
H352 C332 0.932 . S
H353 C333 0.930 . S
H354 C334 0.929 . S
H355 C336 0.930 . S
H356 C338 0.932 . S
H357 C339 0.929 . S
H358 C340 0.928 . S
H359 C342 0.932 . S
C360 C361 1.264 . S
C360 C365 1.479 . S
C360 C370 1.465 . S
C361 C360 1.264 . S
C361 C363 1.339 . S
C361 H388 0.931 . S
C362 C363 1.395 . S
C362 C364 1.320 . S
C363 C361 1.339 . S
C363 C362 1.395 . S
C363 H389 0.929 . S
C364 C362 1.320 . S
C364 C365 1.405 . S
C364 H390 0.930 . S
C365 C360 1.479 . S
C365 C364 1.405 . S
C365 H391 0.931 . S
U366 O367 2.454 . S
U366 O368 2.458 . S
U366 C369 2.984 . S
U366 C370 2.847 . S
U366 C383 2.882 . S
U366 O384 2.441 . S
U366 O385 2.420 . S
U366 O386 2.455 . S
U366 O387 2.449 . S
O367 U366 2.454 . S
O367 C369 1.353 . S
O368 U366 2.458 . S
O368 C369 1.286 . S
C369 U366 2.984 . S
C369 O367 1.353 . S
C369 O368 1.286 . S
C369 C371 1.363 . S
C370 C360 1.465 . S
C370 U366 2.847 . S
C370 O384 1.249 . S
C370 O385 1.202 . S
C371 C369 1.363 . S
C371 C373 1.408 . S
C371 C376 1.342 . S
C372 C373 1.310 . S
C372 C375 1.461 . S
C372 H392 0.932 . S
C373 C371 1.408 . S
C373 C372 1.310 . S
C373 H393 0.930 . S
C374 C375 1.474 . S
C374 C376 1.285 . S
C374 H394 0.929 . S
C375 C372 1.461 . S
C375 C374 1.474 . S
C376 C371 1.342 . S
C376 C374 1.285 . S
C376 H395 0.930 . S
C377 C380 1.424 . S
C377 C382 1.245 . S
C377 C383 1.428 1_655 S
C378 C381 1.260 . S
C378 C382 1.477 . S
C378 H396 0.932 . S
C379 C380 1.384 . S
C379 C381 1.479 . S
C379 H397 0.929 . S
C380 C377 1.424 . S
C380 C379 1.384 . S
C380 H398 0.928 . S
C381 C378 1.260 . S
C381 C379 1.479 . S
C382 C377 1.245 . S
C382 C378 1.477 . S
C382 H399 0.932 . S
C383 U366 2.882 . S
C383 C377 1.428 1_455 S
C383 O386 1.301 . S
C383 O387 1.282 . S
O384 U366 2.441 . S
O384 C370 1.249 . S
O385 U366 2.420 . S
O385 C370 1.202 . S
O386 U366 2.455 . S
O386 C383 1.301 . S
O387 U366 2.449 . S
O387 C383 1.282 . S
H388 C361 0.931 . S
H389 C363 0.929 . S
H390 C364 0.930 . S
H391 C365 0.931 . S
H392 C372 0.932 . S
H393 C373 0.930 . S
H394 C374 0.929 . S
H395 C376 0.930 . S
H396 C378 0.932 . S
H397 C379 0.929 . S
H398 C380 0.928 . S
H399 C382 0.932 . S
C400 C401 1.264 . S
C400 C405 1.479 . S
C400 C410 1.465 . S
C401 C400 1.264 . S
C401 C403 1.339 . S
C401 H428 0.931 . S
C402 C403 1.395 . S
C402 C404 1.320 . S
C403 C401 1.339 . S
C403 C402 1.395 . S
C403 H429 0.929 . S
C404 C402 1.320 . S
C404 C405 1.405 . S
C404 H430 0.930 . S
C405 C400 1.479 . S
C405 C404 1.405 . S
C405 H431 0.931 . S
U406 O407 2.454 . S
U406 O408 2.458 . S
U406 C409 2.984 . S
U406 C410 2.847 . S
U406 C423 2.882 . S
U406 O424 2.441 . S
U406 O425 2.420 . S
U406 O426 2.455 . S
U406 O427 2.449 . S
O407 U406 2.454 . S
O407 C409 1.353 . S
O408 U406 2.458 . S
O408 C409 1.286 . S
C409 U406 2.984 . S
C409 O407 1.353 . S
C409 O408 1.286 . S
C409 C411 1.363 . S
C410 C400 1.465 . S
C410 U406 2.847 . S
C410 O424 1.249 . S
C410 O425 1.202 . S
C411 C409 1.363 . S
C411 C413 1.408 . S
C411 C416 1.342 . S
C412 C413 1.310 . S
C412 C415 1.461 . S
C412 H432 0.932 . S
C413 C411 1.408 . S
C413 C412 1.310 . S
C413 H433 0.930 . S
C414 C415 1.474 . S
C414 C416 1.285 . S
C414 H434 0.929 . S
C415 C412 1.461 . S
C415 C414 1.474 . S
C416 C411 1.342 . S
C416 C414 1.285 . S
C416 H435 0.930 . S
C417 C420 1.424 . S
C417 C422 1.245 . S
C417 C423 1.428 . S
C418 C421 1.260 . S
C418 C422 1.477 . S
C418 H436 0.932 . S
C419 C420 1.384 . S
C419 C421 1.479 . S
C419 H437 0.929 . S
C420 C417 1.424 . S
C420 C419 1.384 . S
C420 H438 0.928 . S
C421 C418 1.260 . S
C421 C419 1.479 . S
C422 C417 1.245 . S
C422 C418 1.477 . S
C422 H439 0.932 . S
C423 U406 2.882 . S
C423 C417 1.428 . S
C423 O426 1.301 . S
C423 O427 1.282 . S
O424 U406 2.441 . S
O424 C410 1.249 . S
O425 U406 2.420 . S
O425 C410 1.202 . S
O426 U406 2.455 . S
O426 C423 1.301 . S
O427 U406 2.449 . S
O427 C423 1.282 . S
H428 C401 0.931 . S
H429 C403 0.929 . S
H430 C404 0.930 . S
H431 C405 0.931 . S
H432 C412 0.932 . S
H433 C413 0.930 . S
H434 C414 0.929 . S
H435 C416 0.930 . S
H436 C418 0.932 . S
H437 C419 0.929 . S
H438 C420 0.928 . S
H439 C422 0.932 . S
C440 C441 1.264 . S
C440 C445 1.479 . S
C440 C450 1.465 . S
C441 C440 1.264 . S
C441 C443 1.339 . S
C441 H468 0.931 . S
C442 C443 1.395 . S
C442 C444 1.320 . S
C443 C441 1.339 . S
C443 C442 1.395 . S
C443 H469 0.929 . S
C444 C442 1.320 . S
C444 C445 1.405 . S
C444 H470 0.925 1_655 S
C445 C440 1.479 . S
C445 C444 1.405 . S
C445 H471 0.931 . S
U446 O447 2.454 . S
U446 O448 2.458 . S
U446 C449 2.984 . S
U446 C450 2.847 . S
U446 C463 2.882 . S
U446 O464 2.441 . S
U446 O465 2.420 . S
U446 O466 2.455 . S
U446 O467 2.449 . S
O447 U446 2.454 . S
O447 C449 1.353 . S
O448 U446 2.458 . S
O448 C449 1.286 . S
C449 U446 2.984 . S
C449 O447 1.353 . S
C449 O448 1.286 . S
C449 C451 1.363 . S
C450 C440 1.465 . S
C450 U446 2.847 . S
C450 O464 1.249 . S
C450 O465 1.202 . S
C451 C449 1.363 . S
C451 C453 1.408 . S
C451 C456 1.362 . S
C452 C453 1.310 . S
C452 C455 1.461 . S
C452 H472 0.930 . S
C453 C451 1.408 . S
C453 C452 1.310 . S
C453 H473 0.930 . S
C454 C455 1.473 1_455 S
C454 C456 1.278 1_455 S
C454 H474 0.932 . S
C455 C452 1.461 . S
C455 C454 1.473 1_655 S
C456 C451 1.362 . S
C456 C454 1.278 1_655 S
C456 H475 0.926 . S
C457 C460 1.424 . S
C457 C462 1.245 . S
C457 C463 1.428 . S
C458 C461 1.260 . S
C458 C462 1.477 . S
C458 H476 0.932 . S
C459 C460 1.384 . S
C459 C461 1.479 . S
C459 H477 0.929 . S
C460 C457 1.424 . S
C460 C459 1.384 . S
C460 H478 0.928 . S
C461 C458 1.260 . S
C461 C459 1.479 . S
C462 C457 1.245 . S
C462 C458 1.477 . S
C462 H479 0.932 . S
C463 U446 2.882 . S
C463 C457 1.428 . S
C463 O466 1.301 . S
C463 O467 1.282 . S
O464 U446 2.441 . S
O464 C450 1.249 . S
O465 U446 2.420 . S
O465 C450 1.202 . S
O466 U446 2.455 . S
O466 C463 1.301 . S
O467 U446 2.449 . S
O467 C463 1.282 . S
H468 C441 0.931 . S
H469 C443 0.929 . S
H470 C444 0.925 1_455 S
H471 C445 0.931 . S
H472 C452 0.930 . S
H473 C453 0.930 . S
H474 C454 0.932 . S
H475 C456 0.926 . S
H476 C458 0.932 . S
H477 C459 0.929 . S
H478 C460 0.928 . S
H479 C462 0.932 . S
C480 C481 1.264 . S
C480 C485 1.479 . S
C480 C490 1.465 . S
C481 C480 1.264 . S
C481 C483 1.339 . S
C481 H508 0.931 . S
C482 C483 1.395 . S
C482 C484 1.320 . S
C483 C481 1.339 . S
C483 C482 1.395 . S
C483 H509 0.929 . S
C484 C482 1.320 . S
C484 C485 1.405 . S
C484 H510 0.930 . S
C485 C480 1.479 . S
C485 C484 1.405 . S
C485 H511 0.931 . S
U486 O487 2.454 . S
U486 O488 2.458 . S
U486 C489 2.984 . S
U486 C490 2.847 . S
U486 C503 2.882 . S
U486 O504 2.441 . S
U486 O505 2.420 . S
U486 O506 2.455 . S
U486 O507 2.449 . S
O487 U486 2.454 . S
O487 C489 1.353 . S
O488 U486 2.458 . S
O488 C489 1.286 . S
C489 U486 2.984 . S
C489 O487 1.353 . S
C489 O488 1.286 . S
C489 C491 1.363 . S
C490 C480 1.465 . S
C490 U486 2.847 . S
C490 O504 1.249 . S
C490 O505 1.202 . S
C491 C489 1.363 . S
C491 C493 1.408 . S
C491 C496 1.342 . S
C492 C493 1.310 . S
C492 C495 1.461 . S
C492 H512 0.932 . S
C493 C491 1.408 . S
C493 C492 1.310 . S
C493 H513 0.930 . S
C494 C495 1.474 . S
C494 C496 1.285 . S
C494 H514 0.929 . S
C495 C492 1.461 . S
C495 C494 1.474 . S
C496 C491 1.342 . S
C496 C494 1.285 . S
C496 H515 0.930 . S
C497 C500 1.424 . S
C497 C502 1.245 . S
C497 C503 1.428 . S
C498 C501 1.260 . S
C498 C502 1.477 . S
C498 H516 0.932 . S
C499 C500 1.384 . S
C499 C501 1.479 . S
C499 H517 0.929 . S
C500 C497 1.424 . S
C500 C499 1.384 . S
C500 H518 0.928 . S
C501 C498 1.260 . S
C501 C499 1.479 . S
C502 C497 1.245 . S
C502 C498 1.477 . S
C502 H519 0.932 . S
C503 U486 2.882 . S
C503 C497 1.428 . S
C503 O506 1.301 . S
C503 O507 1.282 . S
O504 U486 2.441 . S
O504 C490 1.249 . S
O505 U486 2.420 . S
O505 C490 1.202 . S
O506 U486 2.455 . S
O506 C503 1.301 . S
O507 U486 2.449 . S
O507 C503 1.282 . S
H508 C481 0.931 . S
H509 C483 0.929 . S
H510 C484 0.930 . S
H511 C485 0.931 . S
H512 C492 0.932 . S
H513 C493 0.930 . S
H514 C494 0.929 . S
H515 C496 0.930 . S
H516 C498 0.932 . S
H517 C499 0.929 . S
H518 C500 0.928 . S
H519 C502 0.932 . S
C520 C521 1.264 . S
C520 C525 1.479 . S
C520 C530 1.465 . S
C521 C520 1.264 . S
C521 C523 1.339 . S
C521 H548 0.931 . S
C522 C523 1.395 . S
C522 C524 1.320 . S
C523 C521 1.339 . S
C523 C522 1.395 . S
C523 H549 0.929 . S
C524 C522 1.320 . S
C524 C525 1.405 . S
C524 H550 0.930 . S
C525 C520 1.479 . S
C525 C524 1.405 . S
C525 H551 0.931 . S
U526 O527 2.454 . S
U526 O528 2.458 . S
U526 C529 2.984 . S
U526 C530 2.847 . S
U526 C543 2.882 . S
U526 O544 2.441 . S
U526 O545 2.420 . S
U526 O546 2.455 . S
U526 O547 2.449 . S
O527 U526 2.454 . S
O527 C529 1.353 . S
O528 U526 2.458 . S
O528 C529 1.286 . S
C529 U526 2.984 . S
C529 O527 1.353 . S
C529 O528 1.286 . S
C529 C531 1.363 . S
C530 C520 1.465 . S
C530 U526 2.847 . S
C530 O544 1.249 . S
C530 O545 1.202 . S
C531 C529 1.363 . S
C531 C533 1.408 . S
C531 C536 1.342 . S
C532 C533 1.310 . S
C532 C535 1.461 . S
C532 H552 0.932 . S
C533 C531 1.408 . S
C533 C532 1.310 . S
C533 H553 0.930 . S
C534 C535 1.474 . S
C534 C536 1.285 . S
C534 H554 0.929 . S
C535 C532 1.461 . S
C535 C534 1.474 . S
C536 C531 1.342 . S
C536 C534 1.285 . S
C536 H555 0.930 . S
C537 C540 1.424 . S
C537 C542 1.245 . S
C537 C543 1.428 . S
C538 C541 1.260 . S
C538 C542 1.477 . S
C538 H556 0.932 . S
C539 C540 1.384 . S
C539 C541 1.479 . S
C539 H557 0.929 . S
C540 C537 1.424 . S
C540 C539 1.384 . S
C540 H558 0.928 . S
C541 C538 1.260 . S
C541 C539 1.479 . S
C542 C537 1.245 . S
C542 C538 1.477 . S
C542 H559 0.932 . S
C543 U526 2.882 . S
C543 C537 1.428 . S
C543 O546 1.301 . S
C543 O547 1.282 . S
O544 U526 2.441 . S
O544 C530 1.249 . S
O545 U526 2.420 . S
O545 C530 1.202 . S
O546 U526 2.455 . S
O546 C543 1.301 . S
O547 U526 2.449 . S
O547 C543 1.282 . S
H548 C521 0.931 . S
H549 C523 0.929 . S
H550 C524 0.930 . S
H551 C525 0.931 . S
H552 C532 0.932 . S
H553 C533 0.930 . S
H554 C534 0.929 . S
H555 C536 0.930 . S
H556 C538 0.932 . S
H557 C539 0.929 . S
H558 C540 0.928 . S
H559 C542 0.932 . S
C560 C561 1.264 . S
C560 C565 1.479 . S
C560 C570 1.465 . S
C561 C560 1.264 . S
C561 C563 1.339 . S
C561 H588 0.931 . S
C562 C563 1.395 . S
C562 C564 1.320 . S
C563 C561 1.339 . S
C563 C562 1.395 . S
C563 H589 0.929 . S
C564 C562 1.320 . S
C564 C565 1.405 . S
C564 H590 0.921 1_565 S
C565 C560 1.479 . S
C565 C564 1.405 . S
C565 H591 0.931 . S
U566 O567 2.454 . S
U566 O568 2.458 . S
U566 C569 2.984 . S
U566 C570 2.847 . S
U566 C583 2.882 . S
U566 O584 2.441 . S
U566 O585 2.420 . S
U566 O586 2.455 . S
U566 O587 2.449 . S
O567 U566 2.454 . S
O567 C569 1.353 . S
O568 U566 2.458 . S
O568 C569 1.286 . S
C569 U566 2.984 . S
C569 O567 1.353 . S
C569 O568 1.286 . S
C569 C571 1.363 . S
C570 C560 1.465 . S
C570 U566 2.847 . S
C570 O584 1.249 . S
C570 O585 1.202 . S
C571 C569 1.363 . S
C571 C573 1.408 . S
C571 C576 1.342 . S
C572 C573 1.310 . S
C572 C575 1.460 . S
C572 H592 0.932 . S
C573 C571 1.408 . S
C573 C572 1.310 . S
C573 H593 0.930 . S
C574 C575 1.475 1_545 S
C574 C576 1.286 1_545 S
C574 H594 0.930 . S
C575 C572 1.460 . S
C575 C574 1.475 1_565 S
C576 C571 1.342 . S
C576 C574 1.286 1_565 S
C576 H595 0.929 . S
C577 C580 1.424 . S
C577 C582 1.245 . S
C577 C583 1.428 . S
C578 C581 1.260 . S
C578 C582 1.477 . S
C578 H596 0.932 . S
C579 C580 1.384 . S
C579 C581 1.479 . S
C579 H597 0.929 . S
C580 C577 1.424 . S
C580 C579 1.384 . S
C580 H598 0.928 . S
C581 C578 1.260 . S
C581 C579 1.479 . S
C582 C577 1.245 . S
C582 C578 1.477 . S
C582 H599 0.932 . S
C583 U566 2.882 . S
C583 C577 1.428 . S
C583 O586 1.301 . S
C583 O587 1.282 . S
O584 U566 2.441 . S
O584 C570 1.249 . S
O585 U566 2.420 . S
O585 C570 1.202 . S
O586 U566 2.455 . S
O586 C583 1.301 . S
O587 U566 2.449 . S
O587 C583 1.282 . S
H588 C561 0.931 . S
H589 C563 0.929 . S
H590 C564 0.921 1_545 S
H591 C565 0.931 . S
H592 C572 0.932 . S
H593 C573 0.930 . S
H594 C574 0.930 . S
H595 C576 0.929 . S
H596 C578 0.932 . S
H597 C579 0.929 . S
H598 C580 0.928 . S
H599 C582 0.932 . S
C600 C601 1.267 . S
C600 C605 1.466 1_545 S
C600 C610 1.480 . S
C601 C600 1.267 . S
C601 C603 1.339 1_545 S
C601 H628 0.931 . S
C602 C603 1.395 . S
C602 C604 1.320 . S
C603 C601 1.339 1_565 S
C603 C602 1.395 . S
C603 H629 0.929 1_565 S
C604 C602 1.320 . S
C604 C605 1.405 . S
C604 H630 0.930 . S
C605 C600 1.466 1_565 S
C605 C604 1.405 . S
C605 H631 0.931 . S
U606 O607 2.454 1_545 S
U606 O608 2.458 . S
U606 C609 2.987 . S
U606 C610 2.847 . S
U606 C623 2.882 . S
U606 O624 2.441 . S
U606 O625 2.420 . S
U606 O626 2.455 . S
U606 O627 2.449 . S
O607 U606 2.454 1_565 S
O607 C609 1.350 1_565 S
O608 U606 2.458 . S
O608 C609 1.290 . S
C609 U606 2.987 . S
C609 O607 1.350 1_545 S
C609 O608 1.290 . S
C609 C611 1.361 1_545 S
C610 C600 1.480 . S
C610 U606 2.847 . S
C610 O624 1.249 . S
C610 O625 1.202 . S
C611 C609 1.361 1_565 S
C611 C613 1.408 . S
C611 C616 1.342 . S
C612 C613 1.310 . S
C612 C615 1.461 . S
C612 H632 0.932 . S
C613 C611 1.408 . S
C613 C612 1.310 . S
C613 H633 0.930 . S
C614 C615 1.474 . S
C614 C616 1.285 . S
C614 H634 0.929 . S
C615 C612 1.461 . S
C615 C614 1.474 . S
C616 C611 1.342 . S
C616 C614 1.285 . S
C616 H635 0.932 . S
C617 C620 1.424 . S
C617 C622 1.245 . S
C617 C623 1.428 . S
C618 C621 1.260 . S
C618 C622 1.477 . S
C618 H636 0.932 . S
C619 C620 1.384 . S
C619 C621 1.479 . S
C619 H637 0.929 . S
C620 C617 1.424 . S
C620 C619 1.384 . S
C620 H638 0.928 . S
C621 C618 1.260 . S
C621 C619 1.479 . S
C622 C617 1.245 . S
C622 C618 1.477 . S
C622 H639 0.932 . S
C623 U606 2.882 . S
C623 C617 1.428 . S
C623 O626 1.301 . S
C623 O627 1.282 . S
O624 U606 2.441 . S
O624 C610 1.249 . S
O625 U606 2.420 . S
O625 C610 1.202 . S
O626 U606 2.455 . S
O626 C623 1.301 . S
O627 U606 2.449 . S
O627 C623 1.282 . S
H628 C601 0.931 . S
H629 C603 0.929 1_545 S
H630 C604 0.930 . S
H631 C605 0.931 . S
H632 C612 0.932 . S
H633 C613 0.930 . S
H634 C614 0.929 . S
H635 C616 0.932 . S
H636 C618 0.932 . S
H637 C619 0.929 . S
H638 C620 0.928 . S
H639 C622 0.932 . S
C640 C641 1.264 . S
C640 C645 1.479 . S
C640 C650 1.465 . S
C641 C640 1.264 . S
C641 C643 1.339 . S
C641 H668 0.931 . S
C642 C643 1.395 . S
C642 C644 1.320 . S
C643 C641 1.339 . S
C643 C642 1.395 . S
C643 H669 0.929 . S
C644 C642 1.320 . S
C644 C645 1.405 . S
C644 H670 0.930 . S
C645 C640 1.479 . S
C645 C644 1.405 . S
C645 H671 0.931 . S
U646 O647 2.454 . S
U646 O648 2.458 . S
U646 C649 2.984 . S
U646 C650 2.847 . S
U646 C663 2.882 . S
U646 O664 2.441 . S
U646 O665 2.420 . S
U646 O666 2.455 . S
U646 O667 2.449 . S
O647 U646 2.454 . S
O647 C649 1.353 . S
O648 U646 2.458 . S
O648 C649 1.286 . S
C649 U646 2.984 . S
C649 O647 1.353 . S
C649 O648 1.286 . S
C649 C651 1.363 . S
C650 C640 1.465 . S
C650 U646 2.847 . S
C650 O664 1.249 . S
C650 O665 1.202 . S
C651 C649 1.363 . S
C651 C653 1.408 . S
C651 C656 1.342 . S
C652 C653 1.310 . S
C652 C655 1.461 . S
C652 H672 0.932 . S
C653 C651 1.408 . S
C653 C652 1.310 . S
C653 H673 0.930 . S
C654 C655 1.474 . S
C654 C656 1.285 . S
C654 H674 0.929 . S
C655 C652 1.461 . S
C655 C654 1.474 . S
C656 C651 1.342 . S
C656 C654 1.285 . S
C656 H675 0.930 . S
C657 C660 1.424 . S
C657 C662 1.245 . S
C657 C663 1.428 . S
C658 C661 1.260 . S
C658 C662 1.477 . S
C658 H676 0.932 . S
C659 C660 1.384 . S
C659 C661 1.479 . S
C659 H677 0.929 . S
C660 C657 1.424 . S
C660 C659 1.384 . S
C660 H678 0.928 . S
C661 C658 1.260 . S
C661 C659 1.479 . S
C662 C657 1.245 . S
C662 C658 1.477 . S
C662 H679 0.932 . S
C663 U646 2.882 . S
C663 C657 1.428 . S
C663 O666 1.301 . S
C663 O667 1.282 . S
O664 U646 2.441 . S
O664 C650 1.249 . S
O665 U646 2.420 . S
O665 C650 1.202 . S
O666 U646 2.455 . S
O666 C663 1.301 . S
O667 U646 2.449 . S
O667 C663 1.282 . S
H668 C641 0.931 . S
H669 C643 0.929 . S
H670 C644 0.930 . S
H671 C645 0.931 . S
H672 C652 0.932 . S
H673 C653 0.930 . S
H674 C654 0.929 . S
H675 C656 0.930 . S
H676 C658 0.932 . S
H677 C659 0.929 . S
H678 C660 0.928 . S
H679 C662 0.932 . S
C680 C681 1.267 . S
C680 C685 1.466 1_554 S
C680 C690 1.480 . S
C681 C680 1.267 . S
C681 C683 1.339 1_554 S
C681 H708 0.931 . S
C682 C683 1.395 . S
C682 C684 1.320 . S
C683 C681 1.339 1_556 S
C683 C682 1.395 . S
C683 H709 0.929 1_556 S
C684 C682 1.320 . S
C684 C685 1.405 . S
C684 H710 0.930 . S
C685 C680 1.466 1_556 S
C685 C684 1.405 . S
C685 H711 0.931 . S
U686 O687 2.454 1_554 S
U686 O688 2.458 . S
U686 C689 2.987 . S
U686 C690 2.847 . S
U686 C703 2.882 . S
U686 O704 2.441 . S
U686 O705 2.420 . S
U686 O706 2.455 . S
U686 O707 2.449 . S
O687 U686 2.454 1_556 S
O687 C689 1.350 1_556 S
O688 U686 2.458 . S
O688 C689 1.290 . S
C689 U686 2.987 . S
C689 O687 1.350 1_554 S
C689 O688 1.290 . S
C689 C691 1.361 1_554 S
C690 C680 1.480 . S
C690 U686 2.847 . S
C690 O704 1.249 . S
C690 O705 1.202 . S
C691 C689 1.361 1_556 S
C691 C693 1.408 . S
C691 C696 1.342 . S
C692 C693 1.310 . S
C692 C695 1.461 . S
C692 H712 0.932 . S
C693 C691 1.408 . S
C693 C692 1.310 . S
C693 H713 0.930 . S
C694 C695 1.474 . S
C694 C696 1.285 . S
C694 H714 0.929 . S
C695 C692 1.461 . S
C695 C694 1.474 . S
C696 C691 1.342 . S
C696 C694 1.285 . S
C696 H715 0.932 . S
C697 C700 1.424 . S
C697 C702 1.245 . S
C697 C703 1.428 . S
C698 C701 1.260 . S
C698 C702 1.477 . S
C698 H716 0.932 . S
C699 C700 1.384 . S
C699 C701 1.479 . S
C699 H717 0.929 . S
C700 C697 1.424 . S
C700 C699 1.384 . S
C700 H718 0.928 . S
C701 C698 1.260 . S
C701 C699 1.479 . S
C702 C697 1.245 . S
C702 C698 1.477 . S
C702 H719 0.932 . S
C703 U686 2.882 . S
C703 C697 1.428 . S
C703 O706 1.301 . S
C703 O707 1.282 . S
O704 U686 2.441 . S
O704 C690 1.249 . S
O705 U686 2.420 . S
O705 C690 1.202 . S
O706 U686 2.455 . S
O706 C703 1.301 . S
O707 U686 2.449 . S
O707 C703 1.282 . S
H708 C681 0.931 . S
H709 C683 0.929 1_554 S
H710 C684 0.930 . S
H711 C685 0.931 . S
H712 C692 0.932 . S
H713 C693 0.930 . S
H714 C694 0.929 . S
H715 C696 0.932 . S
H716 C698 0.932 . S
H717 C699 0.929 . S
H718 C700 0.928 . S
H719 C702 0.932 . S
C720 C721 1.264 . S
C720 C725 1.479 . S
C720 C730 1.465 . S
C721 C720 1.264 . S
C721 C723 1.339 . S
C721 H748 0.931 . S
C722 C723 1.395 . S
C722 C724 1.320 . S
C723 C721 1.339 . S
C723 C722 1.395 . S
C723 H749 0.929 . S
C724 C722 1.320 . S
C724 C725 1.405 . S
C724 H750 0.930 . S
C725 C720 1.479 . S
C725 C724 1.405 . S
C725 H751 0.931 . S
U726 O727 2.454 . S
U726 O728 2.458 . S
U726 C729 2.984 . S
U726 C730 2.847 . S
U726 C743 2.882 . S
U726 O744 2.441 . S
U726 O745 2.420 . S
U726 O746 2.455 . S
U726 O747 2.449 . S
O727 U726 2.454 . S
O727 C729 1.353 . S
O728 U726 2.458 . S
O728 C729 1.286 . S
C729 U726 2.984 . S
C729 O727 1.353 . S
C729 O728 1.286 . S
C729 C731 1.363 . S
C730 C720 1.465 . S
C730 U726 2.847 . S
C730 O744 1.249 . S
C730 O745 1.202 . S
C731 C729 1.363 . S
C731 C733 1.408 . S
C731 C736 1.342 . S
C732 C733 1.310 . S
C732 C735 1.461 . S
C732 H752 0.932 . S
C733 C731 1.408 . S
C733 C732 1.310 . S
C733 H753 0.930 . S
C734 C735 1.474 . S
C734 C736 1.285 . S
C734 H754 0.929 . S
C735 C732 1.461 . S
C735 C734 1.474 . S
C736 C731 1.342 . S
C736 C734 1.285 . S
C736 H755 0.930 . S
C737 C740 1.424 . S
C737 C742 1.245 . S
C737 C743 1.428 . S
C738 C741 1.260 . S
C738 C742 1.477 . S
C738 H756 0.932 . S
C739 C740 1.384 . S
C739 C741 1.479 . S
C739 H757 0.929 . S
C740 C737 1.424 . S
C740 C739 1.384 . S
C740 H758 0.928 . S
C741 C738 1.260 . S
C741 C739 1.479 . S
C742 C737 1.245 . S
C742 C738 1.477 . S
C742 H759 0.932 . S
C743 U726 2.882 . S
C743 C737 1.428 . S
C743 O746 1.301 . S
C743 O747 1.282 . S
O744 U726 2.441 . S
O744 C730 1.249 . S
O745 U726 2.420 . S
O745 C730 1.202 . S
O746 U726 2.455 . S
O746 C743 1.301 . S
O747 U726 2.449 . S
O747 C743 1.282 . S
H748 C721 0.931 . S
H749 C723 0.929 . S
H750 C724 0.930 . S
H751 C725 0.931 . S
H752 C732 0.932 . S
H753 C733 0.930 . S
H754 C734 0.929 . S
H755 C736 0.930 . S
H756 C738 0.932 . S
H757 C739 0.929 . S
H758 C740 0.928 . S
H759 C742 0.932 . S
C760 C761 1.264 . S
C760 C765 1.479 . S
C760 C770 1.465 . S
C761 C760 1.264 . S
C761 C763 1.339 . S
C761 H788 0.931 . S
C762 C763 1.395 . S
C762 C764 1.320 . S
C763 C761 1.339 . S
C763 C762 1.395 . S
C763 H789 0.929 . S
C764 C762 1.320 . S
C764 C765 1.405 . S
C764 H790 0.921 1_556 S
C765 C760 1.479 . S
C765 C764 1.405 . S
C765 H791 0.931 . S
U766 O767 2.454 . S
U766 O768 2.458 . S
U766 C769 2.984 . S
U766 C770 2.847 . S
U766 C783 2.882 . S
U766 O784 2.441 . S
U766 O785 2.420 . S
U766 O786 2.455 . S
U766 O787 2.449 . S
O767 U766 2.454 . S
O767 C769 1.353 . S
O768 U766 2.458 . S
O768 C769 1.286 . S
C769 U766 2.984 . S
C769 O767 1.353 . S
C769 O768 1.286 . S
C769 C771 1.363 . S
C770 C760 1.465 . S
C770 U766 2.847 . S
C770 O784 1.249 . S
C770 O785 1.202 . S
C771 C769 1.363 . S
C771 C773 1.408 . S
C771 C776 1.342 . S
C772 C773 1.310 . S
C772 C775 1.460 . S
C772 H792 0.932 . S
C773 C771 1.408 . S
C773 C772 1.310 . S
C773 H793 0.930 . S
C774 C775 1.475 1_554 S
C774 C776 1.286 1_554 S
C774 H794 0.930 . S
C775 C772 1.460 . S
C775 C774 1.475 1_556 S
C776 C771 1.342 . S
C776 C774 1.286 1_556 S
C776 H795 0.929 . S
C777 C780 1.424 . S
C777 C782 1.245 . S
C777 C783 1.428 . S
C778 C781 1.260 . S
C778 C782 1.477 . S
C778 H796 0.932 . S
C779 C780 1.384 . S
C779 C781 1.479 . S
C779 H797 0.929 . S
C780 C777 1.424 . S
C780 C779 1.384 . S
C780 H798 0.928 . S
C781 C778 1.260 . S
C781 C779 1.479 . S
C782 C777 1.245 . S
C782 C778 1.477 . S
C782 H799 0.932 . S
C783 U766 2.882 . S
C783 C777 1.428 . S
C783 O786 1.301 . S
C783 O787 1.282 . S
O784 U766 2.441 . S
O784 C770 1.249 . S
O785 U766 2.420 . S
O785 C770 1.202 . S
O786 U766 2.455 . S
O786 C783 1.301 . S
O787 U766 2.449 . S
O787 C783 1.282 . S
H788 C761 0.931 . S
H789 C763 0.929 . S
H790 C764 0.921 1_554 S
H791 C765 0.931 . S
H792 C772 0.932 . S
H793 C773 0.930 . S
H794 C774 0.930 . S
H795 C776 0.929 . S
H796 C778 0.932 . S
H797 C779 0.929 . S
H798 C780 0.928 . S
H799 C782 0.932 . S
C800 C801 1.264 . S
C800 C805 1.479 . S
C800 C810 1.465 . S
C801 C800 1.264 . S
C801 C803 1.339 . S
C801 H828 0.931 . S
C802 C803 1.395 . S
C802 C804 1.320 . S
C803 C801 1.339 . S
C803 C802 1.395 . S
C803 H829 0.929 . S
C804 C802 1.320 . S
C804 C805 1.405 . S
C804 H830 0.930 . S
C805 C800 1.479 . S
C805 C804 1.405 . S
C805 H831 0.931 . S
U806 O807 2.454 . S
U806 O808 2.458 . S
U806 C809 2.984 . S
U806 C810 2.847 . S
U806 C823 2.882 . S
U806 O824 2.441 . S
U806 O825 2.420 . S
U806 O826 2.455 . S
U806 O827 2.449 . S
O807 U806 2.454 . S
O807 C809 1.353 . S
O808 U806 2.458 . S
O808 C809 1.286 . S
C809 U806 2.984 . S
C809 O807 1.353 . S
C809 O808 1.286 . S
C809 C811 1.363 . S
C810 C800 1.465 . S
C810 U806 2.847 . S
C810 O824 1.249 . S
C810 O825 1.202 . S
C811 C809 1.363 . S
C811 C813 1.408 . S
C811 C816 1.342 . S
C812 C813 1.310 . S
C812 C815 1.461 . S
C812 H832 0.932 . S
C813 C811 1.408 . S
C813 C812 1.310 . S
C813 H833 0.930 . S
C814 C815 1.474 . S
C814 C816 1.285 . S
C814 H834 0.929 . S
C815 C812 1.461 . S
C815 C814 1.474 . S
C816 C811 1.342 . S
C816 C814 1.285 . S
C816 H835 0.930 . S
C817 C820 1.424 . S
C817 C822 1.245 . S
C817 C823 1.428 . S
C818 C821 1.260 . S
C818 C822 1.477 . S
C818 H836 0.932 . S
C819 C820 1.384 . S
C819 C821 1.479 . S
C819 H837 0.929 . S
C820 C817 1.424 . S
C820 C819 1.384 . S
C820 H838 0.928 . S
C821 C818 1.260 . S
C821 C819 1.479 . S
C822 C817 1.245 . S
C822 C818 1.477 . S
C822 H839 0.932 . S
C823 U806 2.882 . S
C823 C817 1.428 . S
C823 O826 1.301 . S
C823 O827 1.282 . S
O824 U806 2.441 . S
O824 C810 1.249 . S
O825 U806 2.420 . S
O825 C810 1.202 . S
O826 U806 2.455 . S
O826 C823 1.301 . S
O827 U806 2.449 . S
O827 C823 1.282 . S
H828 C801 0.931 . S
H829 C803 0.929 . S
H830 C804 0.930 . S
H831 C805 0.931 . S
H832 C812 0.932 . S
H833 C813 0.930 . S
H834 C814 0.929 . S
H835 C816 0.930 . S
H836 C818 0.932 . S
H837 C819 0.929 . S
H838 C820 0.928 . S
H839 C822 0.932 . S
C840 C841 1.267 . S
C840 C845 1.466 1_455 S
C840 C850 1.480 . S
C841 C840 1.267 . S
C841 C843 1.339 1_455 S
C841 H868 0.931 . S
C842 C843 1.395 . S
C842 C844 1.320 . S
C843 C841 1.339 1_655 S
C843 C842 1.395 . S
C843 H869 0.929 1_655 S
C844 C842 1.320 . S
C844 C845 1.405 . S
C844 H870 0.930 . S
C845 C840 1.466 1_655 S
C845 C844 1.405 . S
C845 H871 0.931 . S
U846 O847 2.454 1_455 S
U846 O848 2.458 . S
U846 C849 2.987 . S
U846 C850 2.847 . S
U846 C863 2.882 . S
U846 O864 2.441 . S
U846 O865 2.420 . S
U846 O866 2.455 . S
U846 O867 2.449 . S
O847 U846 2.454 1_655 S
O847 C849 1.350 1_655 S
O848 U846 2.458 . S
O848 C849 1.290 . S
C849 U846 2.987 . S
C849 O847 1.350 1_455 S
C849 O848 1.290 . S
C849 C851 1.361 1_455 S
C850 C840 1.480 . S
C850 U846 2.847 . S
C850 O864 1.249 . S
C850 O865 1.202 . S
C851 C849 1.361 1_655 S
C851 C853 1.408 . S
C851 C856 1.342 . S
C852 C853 1.310 . S
C852 C855 1.461 . S
C852 H872 0.932 . S
C853 C851 1.408 . S
C853 C852 1.310 . S
C853 H873 0.930 . S
C854 C855 1.474 . S
C854 C856 1.285 . S
C854 H874 0.929 . S
C855 C852 1.461 . S
C855 C854 1.474 . S
C856 C851 1.342 . S
C856 C854 1.285 . S
C856 H875 0.932 . S
C857 C860 1.424 . S
C857 C862 1.245 . S
C857 C863 1.428 . S
C858 C861 1.260 . S
C858 C862 1.477 . S
C858 H876 0.932 . S
C859 C860 1.384 . S
C859 C861 1.479 . S
C859 H877 0.929 . S
C860 C857 1.424 . S
C860 C859 1.384 . S
C860 H878 0.928 . S
C861 C858 1.260 . S
C861 C859 1.479 . S
C862 C857 1.245 . S
C862 C858 1.477 . S
C862 H879 0.932 . S
C863 U846 2.882 . S
C863 C857 1.428 . S
C863 O866 1.301 . S
C863 O867 1.282 . S
O864 U846 2.441 . S
O864 C850 1.249 . S
O865 U846 2.420 . S
O865 C850 1.202 . S
O866 U846 2.455 . S
O866 C863 1.301 . S
O867 U846 2.449 . S
O867 C863 1.282 . S
H868 C841 0.931 . S
H869 C843 0.929 1_455 S
H870 C844 0.930 . S
H871 C845 0.931 . S
H872 C852 0.932 . S
H873 C853 0.930 . S
H874 C854 0.929 . S
H875 C856 0.932 . S
H876 C858 0.932 . S
H877 C859 0.929 . S
H878 C860 0.928 . S
H879 C862 0.932 . S
C880 C881 1.264 . S
C880 C885 1.479 . S
C880 C890 1.465 . S
C881 C880 1.264 . S
C881 C883 1.339 . S
C881 H908 0.931 . S
C882 C883 1.395 . S
C882 C884 1.320 . S
C883 C881 1.339 . S
C883 C882 1.395 . S
C883 H909 0.929 . S
C884 C882 1.320 . S
C884 C885 1.405 . S
C884 H910 0.930 . S
C885 C880 1.479 . S
C885 C884 1.405 . S
C885 H911 0.931 . S
U886 O887 2.454 . S
U886 O888 2.458 . S
U886 C889 2.984 . S
U886 C890 2.847 . S
U886 C903 2.882 . S
U886 O904 2.441 . S
U886 O905 2.420 . S
U886 O906 2.455 . S
U886 O907 2.449 . S
O887 U886 2.454 . S
O887 C889 1.353 . S
O888 U886 2.458 . S
O888 C889 1.286 . S
C889 U886 2.984 . S
C889 O887 1.353 . S
C889 O888 1.286 . S
C889 C891 1.363 . S
C890 C880 1.465 . S
C890 U886 2.847 . S
C890 O904 1.249 . S
C890 O905 1.202 . S
C891 C889 1.363 . S
C891 C893 1.408 . S
C891 C896 1.342 . S
C892 C893 1.310 . S
C892 C895 1.461 . S
C892 H912 0.932 . S
C893 C891 1.408 . S
C893 C892 1.310 . S
C893 H913 0.930 . S
C894 C895 1.474 . S
C894 C896 1.285 . S
C894 H914 0.929 . S
C895 C892 1.461 . S
C895 C894 1.474 . S
C896 C891 1.342 . S
C896 C894 1.285 . S
C896 H915 0.930 . S
C897 C900 1.424 . S
C897 C902 1.245 . S
C897 C903 1.428 . S
C898 C901 1.260 . S
C898 C902 1.477 . S
C898 H916 0.932 . S
C899 C900 1.384 . S
C899 C901 1.479 . S
C899 H917 0.929 . S
C900 C897 1.424 . S
C900 C899 1.384 . S
C900 H918 0.928 . S
C901 C898 1.260 . S
C901 C899 1.479 . S
C902 C897 1.245 . S
C902 C898 1.477 . S
C902 H919 0.932 . S
C903 U886 2.882 . S
C903 C897 1.428 . S
C903 O906 1.301 . S
C903 O907 1.282 . S
O904 U886 2.441 . S
O904 C890 1.249 . S
O905 U886 2.420 . S
O905 C890 1.202 . S
O906 U886 2.455 . S
O906 C903 1.301 . S
O907 U886 2.449 . S
O907 C903 1.282 . S
H908 C881 0.931 . S
H909 C883 0.929 . S
H910 C884 0.930 . S
H911 C885 0.931 . S
H912 C892 0.932 . S
H913 C893 0.930 . S
H914 C894 0.929 . S
H915 C896 0.930 . S
H916 C898 0.932 . S
H917 C899 0.929 . S
H918 C900 0.928 . S
H919 C902 0.932 . S
C920 C921 1.264 . S
C920 C925 1.479 . S
C920 C930 1.465 . S
C921 C920 1.264 . S
C921 C923 1.339 . S
C921 H948 0.931 . S
C922 C923 1.395 . S
C922 C924 1.320 . S
C923 C921 1.339 . S
C923 C922 1.395 . S
C923 H949 0.929 . S
C924 C922 1.320 . S
C924 C925 1.405 . S
C924 H950 0.921 1_655 S
C925 C920 1.479 . S
C925 C924 1.405 . S
C925 H951 0.931 . S
U926 O927 2.454 . S
U926 O928 2.458 . S
U926 C929 2.984 . S
U926 C930 2.847 . S
U926 C943 2.882 . S
U926 O944 2.441 . S
U926 O945 2.420 . S
U926 O946 2.455 . S
U926 O947 2.449 . S
O927 U926 2.454 . S
O927 C929 1.353 . S
O928 U926 2.458 . S
O928 C929 1.286 . S
C929 U926 2.984 . S
C929 O927 1.353 . S
C929 O928 1.286 . S
C929 C931 1.363 . S
C930 C920 1.465 . S
C930 U926 2.847 . S
C930 O944 1.249 . S
C930 O945 1.202 . S
C931 C929 1.363 . S
C931 C933 1.408 . S
C931 C936 1.342 . S
C932 C933 1.310 . S
C932 C935 1.460 . S
C932 H952 0.932 . S
C933 C931 1.408 . S
C933 C932 1.310 . S
C933 H953 0.930 . S
C934 C935 1.475 1_455 S
C934 C936 1.286 1_455 S
C934 H954 0.930 . S
C935 C932 1.460 . S
C935 C934 1.475 1_655 S
C936 C931 1.342 . S
C936 C934 1.286 1_655 S
C936 H955 0.929 . S
C937 C940 1.424 . S
C937 C942 1.245 . S
C937 C943 1.428 . S
C938 C941 1.260 . S
C938 C942 1.477 . S
C938 H956 0.932 . S
C939 C940 1.384 . S
C939 C941 1.479 . S
C939 H957 0.929 . S
C940 C937 1.424 . S
C940 C939 1.384 . S
C940 H958 0.928 . S
C941 C938 1.260 . S
C941 C939 1.479 . S
C942 C937 1.245 . S
C942 C938 1.477 . S
C942 H959 0.932 . S
C943 U926 2.882 . S
C943 C937 1.428 . S
C943 O946 1.301 . S
C943 O947 1.282 . S
O944 U926 2.441 . S
O944 C930 1.249 . S
O945 U926 2.420 . S
O945 C930 1.202 . S
O946 U926 2.455 . S
O946 C943 1.301 . S
O947 U926 2.449 . S
O947 C943 1.282 . S
H948 C921 0.931 . S
H949 C923 0.929 . S
H950 C924 0.921 1_455 S
H951 C925 0.931 . S
H952 C932 0.932 . S
H953 C933 0.930 . S
H954 C934 0.930 . S
H955 C936 0.929 . S
H956 C938 0.932 . S
H957 C939 0.929 . S
H958 C940 0.928 . S
H959 C942 0.932 . S
H960 C967 0.929 . S
H961 C970 0.930 . S
H962 C972 0.929 . S
H963 C964 0.969 . S
C964 H963 0.969 . S
C964 O965 1.550 . S
C964 H966 0.973 . S
O965 C964 1.550 . S
O965 C971 1.412 . S
H966 C964 0.973 . S
C967 H960 0.929 . S
C967 C968 1.400 . S
C967 C969 1.364 . S
C968 C967 1.400 . S
C968 C972 1.377 . S
C969 C967 1.364 . S
C969 C970 1.374 . S
C970 H961 0.930 . S
C970 C969 1.374 . S
C970 C971 1.383 . S
C971 O965 1.412 . S
C971 C970 1.383 . S
C971 C972 1.394 . S
C972 H962 0.929 . S
C972 C968 1.377 . S
C972 C971 1.394 . S
H973 C980 0.929 . S
H974 C983 0.930 . S
H975 C985 0.929 . S
H976 C977 0.969 . S
C977 H976 0.969 . S
C977 O978 1.550 . S
C977 H979 0.973 1_554 S
O978 C977 1.550 . S
O978 C984 1.412 . S
H979 C977 0.973 1_556 S
C980 H973 0.929 . S
C980 C981 1.400 1_556 S
C980 C982 1.364 . S
C981 C980 1.400 1_554 S
C981 C985 1.377 . S
C982 C980 1.364 . S
C982 C983 1.374 . S
C983 H974 0.930 . S
C983 C982 1.374 . S
C983 C984 1.383 1_556 S
C984 O978 1.412 . S
C984 C983 1.383 1_554 S
C984 C985 1.394 . S
C985 H975 0.929 . S
C985 C981 1.377 . S
C985 C984 1.394 . S
H986 C993 0.929 . S
H987 C996 0.930 . S
H988 C998 0.929 . S
H989 C990 0.969 . S
C990 H989 0.969 . S
C990 O991 1.550 . S
C990 H992 0.973 . S
O991 C990 1.550 . S
O991 C997 1.412 . S
H992 C990 0.973 . S
C993 H986 0.929 . S
C993 C994 1.400 . S
C993 C995 1.364 . S
C994 C993 1.400 . S
C994 C998 1.377 . S
C995 C993 1.364 . S
C995 C996 1.374 1_565 S
C996 H987 0.930 . S
C996 C995 1.374 1_545 S
C996 C997 1.383 . S
C997 O991 1.412 . S
C997 C996 1.383 . S
C997 C998 1.394 1_545 S
C998 H988 0.929 . S
C998 C994 1.377 . S
C998 C997 1.394 1_565 S
H999 C1006 0.929 . S
H1000 C1009 0.930 . S
H1001 C1011 0.929 . S
H1002 C1003 0.969 . S
C1003 H1002 0.969 . S
C1003 O1004 1.550 . S
C1003 H1005 0.957 1_556 S
O1004 C1003 1.550 . S
O1004 C1010 1.412 . S
H1005 C1003 0.957 1_554 S
C1006 H999 0.929 . S
C1006 C1007 1.400 1_554 S
C1006 C1008 1.364 . S
C1007 C1006 1.400 1_556 S
C1007 C1011 1.377 . S
C1008 C1006 1.364 . S
C1008 C1009 1.374 . S
C1009 H1000 0.930 . S
C1009 C1008 1.374 . S
C1009 C1010 1.383 1_554 S
C1010 O1004 1.412 . S
C1010 C1009 1.383 1_556 S
C1010 C1011 1.394 . S
C1011 H1001 0.929 . S
C1011 C1007 1.377 . S
C1011 C1010 1.394 . S
H1012 C1019 0.929 . S
H1013 C1022 0.930 . S
H1014 C1024 0.929 . S
H1015 C1016 0.969 . S
C1016 H1015 0.969 . S
C1016 O1017 1.550 . S
C1016 H1018 0.973 . S
O1017 C1016 1.550 . S
O1017 C1023 1.412 . S
H1018 C1016 0.973 . S
C1019 H1012 0.929 . S
C1019 C1020 1.400 . S
C1019 C1021 1.364 . S
C1020 C1019 1.400 . S
C1020 C1024 1.377 . S
C1021 C1019 1.364 . S
C1021 C1022 1.374 . S
C1022 H1013 0.930 . S
C1022 C1021 1.374 . S
C1022 C1023 1.383 . S
C1023 O1017 1.412 . S
C1023 C1022 1.383 . S
C1023 C1024 1.394 . S
C1024 H1014 0.929 . S
C1024 C1020 1.377 . S
C1024 C1023 1.394 . S
H1025 C1032 0.929 . S
H1026 C1035 0.930 . S
H1027 C1037 0.929 . S
H1028 C1029 0.969 . S
C1029 H1028 0.969 . S
C1029 O1030 1.550 . S
C1029 H1031 0.957 1_655 S
O1030 C1029 1.550 . S
O1030 C1036 1.412 . S
H1031 C1029 0.957 1_455 S
C1032 H1025 0.929 . S
C1032 C1033 1.400 1_455 S
C1032 C1034 1.364 . S
C1033 C1032 1.400 1_655 S
C1033 C1037 1.377 . S
C1034 C1032 1.364 . S
C1034 C1035 1.374 . S
C1035 H1026 0.930 . S
C1035 C1034 1.374 . S
C1035 C1036 1.383 1_455 S
C1036 O1030 1.412 . S
C1036 C1035 1.383 1_655 S
C1036 C1037 1.394 . S
C1037 H1027 0.929 . S
C1037 C1033 1.377 . S
C1037 C1036 1.394 . S
H1038 C1045 0.929 . S
H1039 C1048 0.930 . S
H1040 C1050 0.929 . S
H1041 C1042 0.969 . S
C1042 H1041 0.969 . S
C1042 O1043 1.550 . S
C1042 H1044 0.973 1_455 S
O1043 C1042 1.550 . S
O1043 C1049 1.412 . S
H1044 C1042 0.973 1_655 S
C1045 H1038 0.929 . S
C1045 C1046 1.400 1_655 S
C1045 C1047 1.364 . S
C1046 C1045 1.400 1_455 S
C1046 C1050 1.377 . S
C1047 C1045 1.364 . S
C1047 C1048 1.374 . S
C1048 H1039 0.930 . S
C1048 C1047 1.374 . S
C1048 C1049 1.383 1_655 S
C1049 O1043 1.412 . S
C1049 C1048 1.383 1_455 S
C1049 C1050 1.394 . S
C1050 H1040 0.929 . S
C1050 C1046 1.377 . S
C1050 C1049 1.394 . S
H1051 C1058 0.929 . S
H1052 C1061 0.930 . S
H1053 C1063 0.929 . S
H1054 C1055 0.969 . S
C1055 H1054 0.969 . S
C1055 O1056 1.550 . S
C1055 H1057 0.973 . S
O1056 C1055 1.550 . S
O1056 C1062 1.412 . S
H1057 C1055 0.973 . S
C1058 H1051 0.929 . S
C1058 C1059 1.400 . S
C1058 C1060 1.364 . S
C1059 C1058 1.400 . S
C1059 C1063 1.377 . S
C1060 C1058 1.364 . S
C1060 C1061 1.374 1_556 S
C1061 H1052 0.930 . S
C1061 C1060 1.374 1_554 S
C1061 C1062 1.383 . S
C1062 O1056 1.412 . S
C1062 C1061 1.383 . S
C1062 C1063 1.394 1_554 S
C1063 H1053 0.929 . S
C1063 C1059 1.377 . S
C1063 C1062 1.394 1_556 S
H1064 C1071 0.929 . S
H1065 C1074 0.930 . S
H1066 C1076 0.929 . S
H1067 C1068 0.969 . S
C1068 H1067 0.969 . S
C1068 O1069 1.550 . S
C1068 H1070 0.973 . S
O1069 C1068 1.550 . S
O1069 C1075 1.412 . S
H1070 C1068 0.973 . S
C1071 H1064 0.929 . S
C1071 C1072 1.400 . S
C1071 C1073 1.364 . S
C1072 C1071 1.400 . S
C1072 C1076 1.377 . S
C1073 C1071 1.364 . S
C1073 C1074 1.374 . S
C1074 H1065 0.930 . S
C1074 C1073 1.374 . S
C1074 C1075 1.383 . S
C1075 O1069 1.412 . S
C1075 C1074 1.383 . S
C1075 C1076 1.394 . S
C1076 H1066 0.929 . S
C1076 C1072 1.377 . S
C1076 C1075 1.394 . S
H1077 C1084 0.929 . S
H1078 C1087 0.930 . S
H1079 C1089 0.929 . S
H1080 C1081 0.969 . S
C1081 H1080 0.969 . S
C1081 O1082 1.550 . S
C1081 H1083 0.957 1_565 S
O1082 C1081 1.550 . S
O1082 C1088 1.412 . S
H1083 C1081 0.957 1_545 S
C1084 H1077 0.929 . S
C1084 C1085 1.400 1_545 S
C1084 C1086 1.364 . S
C1085 C1084 1.400 1_565 S
C1085 C1089 1.377 . S
C1086 C1084 1.364 . S
C1086 C1087 1.374 . S
C1087 H1078 0.930 . S
C1087 C1086 1.374 . S
C1087 C1088 1.383 1_545 S
C1088 O1082 1.412 . S
C1088 C1087 1.383 1_565 S
C1088 C1089 1.394 . S
C1089 H1079 0.929 . S
C1089 C1085 1.377 . S
C1089 C1088 1.394 . S
H1090 C1097 0.929 . S
H1091 C1100 0.930 . S
H1092 C1102 0.929 . S
H1093 C1094 0.969 . S
C1094 H1093 0.969 . S
C1094 O1095 1.550 . S
C1094 H1096 0.973 1_545 S
O1095 C1094 1.550 . S
O1095 C1101 1.412 . S
H1096 C1094 0.973 1_565 S
C1097 H1090 0.929 . S
C1097 C1098 1.400 1_565 S
C1097 C1099 1.364 . S
C1098 C1097 1.400 1_545 S
C1098 C1102 1.377 . S
C1099 C1097 1.364 . S
C1099 C1100 1.374 . S
C1100 H1091 0.930 . S
C1100 C1099 1.374 . S
C1100 C1101 1.383 1_565 S
C1101 O1095 1.412 . S
C1101 C1100 1.383 1_545 S
C1101 C1102 1.394 . S
C1102 H1092 0.929 . S
C1102 C1098 1.377 . S
C1102 C1101 1.394 . S
H1103 C1110 0.929 . S
H1104 C1113 0.930 . S
H1105 C1115 0.929 . S
H1106 C1107 0.969 . S
C1107 H1106 0.969 . S
C1107 O1108 1.550 . S
C1107 H1109 0.973 . S
O1108 C1107 1.550 . S
O1108 C1114 1.412 . S
H1109 C1107 0.973 . S
C1110 H1103 0.929 . S
C1110 C1111 1.400 . S
C1110 C1112 1.364 . S
C1111 C1110 1.400 . S
C1111 C1115 1.377 . S
C1112 C1110 1.364 . S
C1112 C1113 1.374 1_655 S
C1113 H1104 0.930 . S
C1113 C1112 1.374 1_455 S
C1113 C1114 1.383 . S
C1114 O1108 1.412 . S
C1114 C1113 1.383 . S
C1114 C1115 1.394 1_455 S
C1115 H1105 0.929 . S
C1115 C1111 1.377 . S
C1115 C1114 1.394 1_655 S
H1116 C1123 0.929 . S
H1117 C1126 0.930 . S
H1118 C1128 0.929 . S
H1119 C1120 0.969 . S
C1120 H1119 0.969 . S
C1120 O1121 1.550 . S
C1120 H1122 0.973 . S
O1121 C1120 1.550 . S
O1121 C1127 1.412 . S
H1122 C1120 0.973 . S
C1123 H1116 0.929 . S
C1123 C1124 1.400 . S
C1123 C1125 1.364 . S
C1124 C1123 1.400 . S
C1124 C1128 1.377 . S
C1125 C1123 1.364 . S
C1125 C1126 1.374 . S
C1126 H1117 0.930 . S
C1126 C1125 1.374 . S
C1126 C1127 1.383 . S
C1127 O1121 1.412 . S
C1127 C1126 1.383 . S
C1127 C1128 1.394 . S
C1128 H1118 0.929 . S
C1128 C1124 1.377 . S
C1128 C1127 1.394 . S
H1129 C1136 0.929 . S
H1130 C1139 0.930 . S
H1131 C1141 0.929 . S
H1132 C1133 0.938 1_554 S
C1133 H1132 0.938 1_556 S
C1133 O1134 1.578 . S
C1133 H1135 0.961 1_556 S
O1134 C1133 1.578 . S
O1134 C1140 1.412 . S
H1135 C1133 0.961 1_554 S
C1136 H1129 0.929 . S
C1136 C1137 1.400 1_554 S
C1136 C1138 1.364 . S
C1137 C1136 1.400 1_556 S
C1137 C1141 1.377 . S
C1138 C1136 1.364 . S
C1138 C1139 1.374 . S
C1139 H1130 0.930 . S
C1139 C1138 1.374 . S
C1139 C1140 1.383 1_554 S
C1140 O1134 1.412 . S
C1140 C1139 1.383 1_556 S
C1140 C1141 1.394 . S
C1141 H1131 0.929 . S
C1141 C1137 1.377 . S
C1141 C1140 1.394 . S
H1142 C1149 0.929 . S
H1143 C1152 0.930 . S
H1144 C1154 0.929 . S
H1145 C1146 0.969 . S
C1146 H1145 0.969 . S
C1146 O1147 1.550 . S
C1146 H1148 0.973 . S
O1147 C1146 1.550 . S
O1147 C1153 1.412 . S
H1148 C1146 0.973 . S
C1149 H1142 0.929 . S
C1149 C1150 1.400 . S
C1149 C1151 1.364 . S
C1150 C1149 1.400 . S
C1150 C1154 1.377 . S
C1151 C1149 1.364 . S
C1151 C1152 1.374 1_545 S
C1152 H1143 0.930 . S
C1152 C1151 1.374 1_565 S
C1152 C1153 1.383 . S
C1153 O1147 1.412 . S
C1153 C1152 1.383 . S
C1153 C1154 1.394 1_565 S
C1154 H1144 0.929 . S
C1154 C1150 1.377 . S
C1154 C1153 1.394 1_545 S
H1155 C1162 0.929 . S
H1156 C1165 0.930 . S
H1157 C1167 0.929 . S
H1158 C1159 0.969 . S
C1159 H1158 0.969 . S
C1159 O1160 1.550 . S
C1159 H1161 0.973 1_554 S
O1160 C1159 1.550 . S
O1160 C1166 1.412 . S
H1161 C1159 0.973 1_556 S
C1162 H1155 0.929 . S
C1162 C1163 1.400 1_556 S
C1162 C1164 1.364 . S
C1163 C1162 1.400 1_554 S
C1163 C1167 1.377 . S
C1164 C1162 1.364 . S
C1164 C1165 1.374 . S
C1165 H1156 0.930 . S
C1165 C1164 1.374 . S
C1165 C1166 1.383 1_556 S
C1166 O1160 1.412 . S
C1166 C1165 1.383 1_554 S
C1166 C1167 1.394 . S
C1167 H1157 0.929 . S
C1167 C1163 1.377 . S
C1167 C1166 1.394 . S
H1168 C1175 0.929 . S
H1169 C1178 0.930 . S
H1170 C1180 0.929 . S
H1171 C1172 0.969 . S
C1172 H1171 0.969 . S
C1172 O1173 1.550 . S
C1172 H1174 0.973 . S
O1173 C1172 1.550 . S
O1173 C1179 1.412 . S
H1174 C1172 0.973 . S
C1175 H1168 0.929 . S
C1175 C1176 1.400 . S
C1175 C1177 1.364 . S
C1176 C1175 1.400 . S
C1176 C1180 1.377 . S
C1177 C1175 1.364 . S
C1177 C1178 1.374 . S
C1178 H1169 0.930 . S
C1178 C1177 1.374 . S
C1178 C1179 1.383 . S
C1179 O1173 1.412 . S
C1179 C1178 1.383 . S
C1179 C1180 1.394 . S
C1180 H1170 0.929 . S
C1180 C1176 1.377 . S
C1180 C1179 1.394 . S
H1181 C1188 0.929 . S
H1182 C1191 0.930 . S
H1183 C1193 0.929 . S
H1184 C1185 0.969 . S
C1185 H1184 0.969 . S
C1185 O1186 1.550 . S
C1185 H1187 0.973 1_455 S
O1186 C1185 1.550 . S
O1186 C1192 1.412 . S
H1187 C1185 0.973 1_655 S
C1188 H1181 0.929 . S
C1188 C1189 1.400 1_655 S
C1188 C1190 1.364 . S
C1189 C1188 1.400 1_455 S
C1189 C1193 1.377 . S
C1190 C1188 1.364 . S
C1190 C1191 1.374 . S
C1191 H1182 0.930 . S
C1191 C1190 1.374 . S
C1191 C1192 1.383 1_655 S
C1192 O1186 1.412 . S
C1192 C1191 1.383 1_455 S
C1192 C1193 1.394 . S
C1193 H1183 0.929 . S
C1193 C1189 1.377 . S
C1193 C1192 1.394 . S
H1194 C1201 0.929 . S
H1195 C1204 0.930 . S
H1196 C1206 0.929 . S
H1197 C1198 0.938 1_455 S
C1198 H1197 0.938 1_655 S
C1198 O1199 1.578 . S
C1198 H1200 0.961 1_655 S
O1199 C1198 1.578 . S
O1199 C1205 1.412 . S
H1200 C1198 0.961 1_455 S
C1201 H1194 0.929 . S
C1201 C1202 1.400 1_455 S
C1201 C1203 1.364 . S
C1202 C1201 1.400 1_655 S
C1202 C1206 1.377 . S
C1203 C1201 1.364 . S
C1203 C1204 1.374 . S
C1204 H1195 0.930 . S
C1204 C1203 1.374 . S
C1204 C1205 1.383 1_455 S
C1205 O1199 1.412 . S
C1205 C1204 1.383 1_655 S
C1205 C1206 1.394 . S
C1206 H1196 0.929 . S
C1206 C1202 1.377 . S
C1206 C1205 1.394 . S
H1207 C1214 0.929 . S
H1208 C1217 0.930 . S
H1209 C1219 0.929 . S
H1210 C1211 0.969 . S
C1211 H1210 0.969 . S
C1211 O1212 1.550 . S
C1211 H1213 0.973 . S
O1212 C1211 1.550 . S
O1212 C1218 1.412 . S
H1213 C1211 0.973 . S
C1214 H1207 0.929 . S
C1214 C1215 1.400 . S
C1214 C1216 1.364 . S
C1215 C1214 1.400 . S
C1215 C1219 1.377 . S
C1216 C1214 1.364 . S
C1216 C1217 1.374 1_554 S
C1217 H1208 0.930 . S
C1217 C1216 1.374 1_556 S
C1217 C1218 1.383 . S
C1218 O1212 1.412 . S
C1218 C1217 1.383 . S
C1218 C1219 1.394 1_556 S
C1219 H1209 0.929 . S
C1219 C1215 1.377 . S
C1219 C1218 1.394 1_554 S
H1220 C1227 0.929 . S
H1221 C1230 0.930 . S
H1222 C1232 0.929 . S
H1223 C1224 0.969 . S
C1224 H1223 0.969 . S
C1224 O1225 1.550 . S
C1224 H1226 0.973 . S
O1225 C1224 1.550 . S
O1225 C1231 1.412 . S
H1226 C1224 0.973 . S
C1227 H1220 0.929 . S
C1227 C1228 1.400 . S
C1227 C1229 1.364 . S
C1228 C1227 1.400 . S
C1228 C1232 1.377 . S
C1229 C1227 1.364 . S
C1229 C1230 1.374 . S
C1230 H1221 0.930 . S
C1230 C1229 1.374 . S
C1230 C1231 1.383 . S
C1231 O1225 1.412 . S
C1231 C1230 1.383 . S
C1231 C1232 1.394 . S
C1232 H1222 0.929 . S
C1232 C1228 1.377 . S
C1232 C1231 1.394 . S
H1233 C1240 0.929 . S
H1234 C1243 0.930 . S
H1235 C1245 0.929 . S
H1236 C1237 0.969 . S
C1237 H1236 0.969 . S
C1237 O1238 1.550 . S
C1237 H1239 0.973 1_545 S
O1238 C1237 1.550 . S
O1238 C1244 1.412 . S
H1239 C1237 0.973 1_565 S
C1240 H1233 0.929 . S
C1240 C1241 1.400 1_565 S
C1240 C1242 1.364 . S
C1241 C1240 1.400 1_545 S
C1241 C1245 1.377 . S
C1242 C1240 1.364 . S
C1242 C1243 1.374 . S
C1243 H1234 0.930 . S
C1243 C1242 1.374 . S
C1243 C1244 1.383 1_565 S
C1244 O1238 1.412 . S
C1244 C1243 1.383 1_545 S
C1244 C1245 1.394 . S
C1245 H1235 0.929 . S
C1245 C1241 1.377 . S
C1245 C1244 1.394 . S
H1246 C1253 0.929 . S
H1247 C1256 0.930 . S
H1248 C1258 0.929 . S
H1249 C1250 0.938 1_545 S
C1250 H1249 0.938 1_565 S
C1250 O1251 1.578 . S
C1250 H1252 0.961 1_565 S
O1251 C1250 1.578 . S
O1251 C1257 1.412 . S
H1252 C1250 0.961 1_545 S
C1253 H1246 0.929 . S
C1253 C1254 1.400 1_545 S
C1253 C1255 1.364 . S
C1254 C1253 1.400 1_565 S
C1254 C1258 1.377 . S
C1255 C1253 1.364 . S
C1255 C1256 1.374 . S
C1256 H1247 0.930 . S
C1256 C1255 1.374 . S
C1256 C1257 1.383 1_545 S
C1257 O1251 1.412 . S
C1257 C1256 1.383 1_565 S
C1257 C1258 1.394 . S
C1258 H1248 0.929 . S
C1258 C1254 1.377 . S
C1258 C1257 1.394 . S
H1259 C1266 0.929 . S
H1260 C1269 0.930 . S
H1261 C1271 0.929 . S
H1262 C1263 0.969 . S
C1263 H1262 0.969 . S
C1263 O1264 1.550 . S
C1263 H1265 0.973 . S
O1264 C1263 1.550 . S
O1264 C1270 1.412 . S
H1265 C1263 0.973 . S
C1266 H1259 0.929 . S
C1266 C1267 1.400 . S
C1266 C1268 1.364 . S
C1267 C1266 1.400 . S
C1267 C1271 1.377 . S
C1268 C1266 1.364 . S
C1268 C1269 1.374 1_455 S
C1269 H1260 0.930 . S
C1269 C1268 1.374 1_655 S
C1269 C1270 1.383 . S
C1270 O1264 1.412 . S
C1270 C1269 1.383 . S
C1270 C1271 1.394 1_655 S
C1271 H1261 0.929 . S
C1271 C1267 1.377 . S
C1271 C1270 1.394 1_455 S
H1272 C1280 0.929 . S
H1273 C1282 0.930 . S
H1274 C1284 0.930 . S
H1275 C1287 0.929 . S
H1276 C1290 0.930 . S
H1277 C1292 0.960 . S
H1278 C1292 0.960 . S
H1279 C1292 0.960 . S
C1280 H1272 0.929 . S
C1280 C1281 1.377 . S
C1280 C1282 1.384 . S
C1281 C1280 1.377 . S
C1281 C1287 1.390 . S
C1282 H1273 0.930 . S
C1282 C1280 1.384 . S
C1282 C1283 1.372 . S
C1283 C1282 1.372 . S
C1283 C1284 1.400 . S
C1283 C1288 1.490 . S
C1284 H1274 0.930 . S
C1284 C1283 1.400 . S
C1284 C1287 1.386 . S
H1285 C1301 0.930 . S
H1286 C1302 0.931 . S
C1287 H1275 0.929 . S
C1287 C1281 1.390 . S
C1287 C1284 1.386 . S
C1288 C1283 1.490 . S
C1288 C1290 1.395 . S
C1288 C1291 1.403 . S
H1289 C1295 0.930 . S
C1290 H1276 0.930 . S
C1290 C1288 1.395 . S
C1290 C1293 1.403 . S
C1291 C1288 1.403 . S
C1291 C1292 1.524 . S
C1291 C1295 1.400 . S
C1292 H1277 0.960 . S
C1292 H1278 0.960 . S
C1292 H1279 0.960 . S
C1292 C1291 1.524 . S
C1293 C1290 1.403 . S
C1293 C1294 1.392 . S
C1293 C1297 1.495 . S
C1294 C1293 1.392 . S
C1294 C1295 1.385 . S
C1294 C1296 1.478 . S
C1295 H1289 0.930 . S
C1295 C1291 1.400 . S
C1295 C1294 1.385 . S
C1296 C1294 1.478 . S
C1296 C1298 1.381 . S
C1296 C1302 1.383 . S
C1297 C1293 1.495 . S
C1297 H1303 0.959 . S
C1297 H1304 0.961 . S
C1297 H1305 0.960 . S
C1298 C1296 1.381 . S
C1298 C1299 1.394 . S
C1298 H1306 0.930 . S
C1299 C1298 1.394 . S
C1299 C1300 1.383 . S
C1299 H1307 0.929 . S
C1300 C1299 1.383 . S
C1300 C1301 1.377 . S
C1301 H1285 0.930 . S
C1301 C1300 1.377 . S
C1301 C1302 1.379 . S
C1302 H1286 0.931 . S
C1302 C1296 1.383 . S
C1302 C1301 1.379 . S
H1303 C1297 0.959 . S
H1304 C1297 0.961 . S
H1305 C1297 0.960 . S
H1306 C1298 0.930 . S
H1307 C1299 0.929 . S
H1308 C1316 0.929 . S
H1309 C1318 0.930 . S
H1310 C1320 0.930 . S
H1311 C1323 0.929 . S
H1312 C1326 0.930 . S
H1313 C1328 0.960 . S
H1314 C1328 0.960 . S
H1315 C1328 0.960 . S
C1316 H1308 0.929 . S
C1316 C1317 1.377 . S
C1316 C1318 1.384 . S
C1317 C1316 1.377 . S
C1317 C1323 1.390 . S
C1318 H1309 0.930 . S
C1318 C1316 1.384 . S
C1318 C1319 1.372 . S
C1319 C1318 1.372 . S
C1319 C1320 1.400 . S
C1319 C1324 1.490 . S
C1320 H1310 0.930 . S
C1320 C1319 1.400 . S
C1320 C1323 1.386 . S
H1321 C1337 0.930 . S
H1322 C1338 0.931 . S
C1323 H1311 0.929 . S
C1323 C1317 1.390 . S
C1323 C1320 1.386 . S
C1324 C1319 1.490 . S
C1324 C1326 1.395 . S
C1324 C1327 1.403 . S
H1325 C1331 0.930 . S
C1326 H1312 0.930 . S
C1326 C1324 1.395 . S
C1326 C1329 1.403 . S
C1327 C1324 1.403 . S
C1327 C1328 1.524 . S
C1327 C1331 1.400 . S
C1328 H1313 0.960 . S
C1328 H1314 0.960 . S
C1328 H1315 0.960 . S
C1328 C1327 1.524 . S
C1329 C1326 1.403 . S
C1329 C1330 1.392 . S
C1329 C1333 1.495 . S
C1330 C1329 1.392 . S
C1330 C1331 1.385 . S
C1330 C1332 1.478 . S
C1331 H1325 0.930 . S
C1331 C1327 1.400 . S
C1331 C1330 1.385 . S
C1332 C1330 1.478 . S
C1332 C1334 1.381 . S
C1332 C1338 1.383 . S
C1333 C1329 1.495 . S
C1333 H1339 0.959 . S
C1333 H1340 0.961 . S
C1333 H1341 0.960 . S
C1334 C1332 1.381 . S
C1334 C1335 1.394 . S
C1334 H1342 0.930 . S
C1335 C1334 1.394 . S
C1335 C1336 1.383 . S
C1335 H1343 0.929 . S
C1336 C1335 1.383 . S
C1336 C1337 1.377 . S
C1337 H1321 0.930 . S
C1337 C1336 1.377 . S
C1337 C1338 1.379 . S
C1338 H1322 0.931 . S
C1338 C1332 1.383 . S
C1338 C1337 1.379 . S
H1339 C1333 0.959 . S
H1340 C1333 0.961 . S
H1341 C1333 0.960 . S
H1342 C1334 0.930 . S
H1343 C1335 0.929 . S
H1344 C1352 0.929 . S
H1345 C1354 0.930 . S
H1346 C1356 0.930 . S
H1347 C1359 0.929 . S
H1348 C1362 0.930 . S
H1349 C1364 0.960 . S
H1350 C1364 0.960 . S
H1351 C1364 0.960 . S
C1352 H1344 0.929 . S
C1352 C1353 1.368 1_565 S
C1352 C1354 1.384 . S
C1353 C1352 1.368 1_545 S
C1353 C1359 1.399 . S
C1354 H1345 0.930 . S
C1354 C1352 1.384 . S
C1354 C1355 1.372 . S
C1355 C1354 1.372 . S
C1355 C1356 1.400 1_565 S
C1355 C1360 1.490 . S
C1356 H1346 0.930 . S
C1356 C1355 1.400 1_545 S
C1356 C1359 1.386 . S
H1357 C1373 0.897 1_545 S
H1358 C1374 0.931 1_545 S
C1359 H1347 0.929 . S
C1359 C1353 1.399 . S
C1359 C1356 1.386 . S
C1360 C1355 1.490 . S
C1360 C1362 1.395 . S
C1360 C1363 1.403 1_565 S
H1361 C1367 0.930 . S
C1362 H1348 0.930 . S
C1362 C1360 1.395 . S
C1362 C1365 1.403 . S
C1363 C1360 1.403 1_545 S
C1363 C1364 1.524 . S
C1363 C1367 1.400 . S
C1364 H1349 0.960 . S
C1364 H1350 0.960 . S
C1364 H1351 0.960 . S
C1364 C1363 1.524 . S
C1365 C1362 1.403 . S
C1365 C1366 1.392 . S
C1365 C1369 1.495 . S
C1366 C1365 1.392 . S
C1366 C1367 1.385 1_565 S
C1366 C1368 1.478 . S
C1367 H1361 0.930 . S
C1367 C1363 1.400 . S
C1367 C1366 1.385 1_545 S
C1368 C1366 1.478 . S
C1368 C1370 1.381 . S
C1368 C1374 1.383 . S
C1369 C1365 1.495 . S
C1369 H1375 0.959 . S
C1369 H1376 0.961 . S
C1369 H1377 0.960 . S
C1370 C1368 1.381 . S
C1370 C1371 1.394 . S
C1370 H1378 0.930 . S
C1371 C1370 1.394 . S
C1371 C1372 1.383 . S
C1371 H1379 0.929 . S
C1372 C1371 1.383 . S
C1372 C1373 1.377 . S
C1373 H1357 0.897 1_565 S
C1373 C1372 1.377 . S
C1373 C1374 1.379 . S
C1374 H1358 0.931 1_565 S
C1374 C1368 1.383 . S
C1374 C1373 1.379 . S
H1375 C1369 0.959 . S
H1376 C1369 0.961 . S
H1377 C1369 0.960 . S
H1378 C1370 0.930 . S
H1379 C1371 0.929 . S
H1380 C1388 0.929 . S
H1381 C1390 0.930 . S
H1382 C1392 0.930 . S
H1383 C1395 0.929 . S
H1384 C1398 0.932 . S
H1385 C1400 0.960 . S
H1386 C1400 0.960 . S
H1387 C1400 0.960 . S
C1388 H1380 0.929 . S
C1388 C1389 1.377 1_565 S
C1388 C1390 1.384 . S
C1389 C1388 1.377 1_545 S
C1389 C1395 1.390 . S
C1390 H1381 0.930 . S
C1390 C1388 1.384 . S
C1390 C1391 1.372 1_565 S
C1391 C1390 1.372 1_545 S
C1391 C1392 1.400 . S
C1391 C1396 1.490 . S
C1392 H1382 0.930 . S
C1392 C1391 1.400 . S
C1392 C1395 1.386 . S
H1393 C1409 0.930 . S
H1394 C1410 0.931 . S
C1395 H1383 0.929 . S
C1395 C1389 1.390 . S
C1395 C1392 1.386 . S
C1396 C1391 1.490 . S
C1396 C1398 1.392 1_545 S
C1396 C1399 1.403 . S
H1397 C1403 0.930 . S
C1398 H1384 0.932 . S
C1398 C1396 1.392 1_565 S
C1398 C1401 1.398 . S
C1399 C1396 1.403 . S
C1399 C1400 1.524 . S
C1399 C1403 1.400 . S
C1400 H1385 0.960 . S
C1400 H1386 0.960 . S
C1400 H1387 0.960 . S
C1400 C1399 1.524 . S
C1401 C1398 1.398 . S
C1401 C1402 1.369 1_565 S
C1401 C1405 1.526 . S
C1402 C1401 1.369 1_545 S
C1402 C1403 1.385 . S
C1402 C1404 1.478 1_655 S
C1403 H1397 0.930 . S
C1403 C1399 1.400 . S
C1403 C1402 1.385 . S
C1404 C1402 1.478 1_455 S
C1404 C1406 1.381 1_545 S
C1404 C1410 1.383 . S
C1405 C1401 1.526 . S
C1405 H1411 0.959 . S
C1405 H1412 0.961 . S
C1405 H1413 0.960 . S
C1406 C1404 1.381 1_565 S
C1406 C1407 1.394 . S
C1406 H1414 0.930 . S
C1407 C1406 1.394 . S
C1407 C1408 1.383 1_565 S
C1407 H1415 0.929 . S
C1408 C1407 1.383 1_545 S
C1408 C1409 1.377 . S
C1409 H1393 0.930 . S
C1409 C1408 1.377 . S
C1409 C1410 1.379 . S
C1410 H1394 0.931 . S
C1410 C1404 1.383 . S
C1410 C1409 1.379 . S
H1411 C1405 0.959 . S
H1412 C1405 0.961 . S
H1413 C1405 0.960 . S
H1414 C1406 0.930 . S
H1415 C1407 0.929 . S
H1416 C1424 0.929 . S
H1417 C1426 0.930 . S
H1418 C1428 0.930 . S
H1419 C1431 0.929 . S
H1420 C1434 0.930 . S
H1421 C1436 0.960 . S
H1422 C1436 0.960 . S
H1423 C1436 0.960 . S
C1424 H1416 0.929 . S
C1424 C1425 1.377 . S
C1424 C1426 1.384 . S
C1425 C1424 1.377 . S
C1425 C1431 1.390 . S
C1426 H1417 0.930 . S
C1426 C1424 1.384 . S
C1426 C1427 1.372 . S
C1427 C1426 1.372 . S
C1427 C1428 1.400 . S
C1427 C1432 1.490 . S
C1428 H1418 0.930 . S
C1428 C1427 1.400 . S
C1428 C1431 1.386 . S
H1429 C1445 0.930 . S
H1430 C1446 0.931 . S
C1431 H1419 0.929 . S
C1431 C1425 1.390 . S
C1431 C1428 1.386 . S
C1432 C1427 1.490 . S
C1432 C1434 1.395 . S
C1432 C1435 1.403 . S
H1433 C1439 0.930 . S
C1434 H1420 0.930 . S
C1434 C1432 1.395 . S
C1434 C1437 1.403 . S
C1435 C1432 1.403 . S
C1435 C1436 1.524 . S
C1435 C1439 1.400 . S
C1436 H1421 0.960 . S
C1436 H1422 0.960 . S
C1436 H1423 0.960 . S
C1436 C1435 1.524 . S
C1437 C1434 1.403 . S
C1437 C1438 1.392 . S
C1437 C1441 1.495 . S
C1438 C1437 1.392 . S
C1438 C1439 1.385 . S
C1438 C1440 1.478 . S
C1439 H1433 0.930 . S
C1439 C1435 1.400 . S
C1439 C1438 1.385 . S
C1440 C1438 1.478 . S
C1440 C1442 1.381 . S
C1440 C1446 1.383 . S
C1441 C1437 1.495 . S
C1441 H1447 0.959 . S
C1441 H1448 0.961 . S
C1441 H1449 0.960 . S
C1442 C1440 1.381 . S
C1442 C1443 1.394 . S
C1442 H1450 0.930 . S
C1443 C1442 1.394 . S
C1443 C1444 1.383 . S
C1443 H1451 0.929 . S
C1444 C1443 1.383 . S
C1444 C1445 1.377 . S
C1445 H1429 0.930 . S
C1445 C1444 1.377 . S
C1445 C1446 1.379 . S
C1446 H1430 0.931 . S
C1446 C1440 1.383 . S
C1446 C1445 1.379 . S
H1447 C1441 0.959 . S
H1448 C1441 0.961 . S
H1449 C1441 0.960 . S
H1450 C1442 0.930 . S
H1451 C1443 0.929 . S
H1452 C1460 0.929 . S
H1453 C1462 0.930 . S
H1454 C1464 0.930 . S
H1455 C1467 0.929 . S
H1456 C1470 0.930 . S
H1457 C1472 0.960 . S
H1458 C1472 0.960 . S
H1459 C1472 0.999 . S
C1460 H1452 0.929 . S
C1460 C1461 1.377 . S
C1460 C1462 1.384 . S
C1461 C1460 1.377 . S
C1461 C1467 1.390 1_554 S
C1462 H1453 0.930 . S
C1462 C1460 1.384 . S
C1462 C1463 1.372 . S
C1463 C1462 1.372 . S
C1463 C1464 1.400 1_554 S
C1463 C1468 1.490 . S
C1464 H1454 0.930 . S
C1464 C1463 1.400 1_556 S
C1464 C1467 1.386 . S
H1465 C1481 0.930 . S
H1466 C1482 0.931 . S
C1467 H1455 0.929 . S
C1467 C1461 1.390 1_556 S
C1467 C1464 1.386 . S
C1468 C1463 1.490 . S
C1468 C1470 1.395 . S
C1468 C1471 1.403 . S
H1469 C1475 0.930 . S
C1470 H1456 0.930 . S
C1470 C1468 1.395 . S
C1470 C1473 1.403 . S
C1471 C1468 1.403 . S
C1471 C1472 1.524 . S
C1471 C1475 1.400 . S
C1472 H1457 0.960 . S
C1472 H1458 0.960 . S
C1472 H1459 0.999 . S
C1472 C1471 1.524 . S
C1473 C1470 1.403 . S
C1473 C1474 1.392 . S
C1473 C1477 1.495 . S
C1474 C1473 1.392 . S
C1474 C1475 1.385 . S
C1474 C1476 1.478 1_565 S
C1475 H1469 0.930 . S
C1475 C1471 1.400 . S
C1475 C1474 1.385 . S
C1476 C1474 1.478 1_545 S
C1476 C1478 1.381 . S
C1476 C1482 1.383 1_554 S
C1477 C1473 1.495 . S
C1477 H1483 0.959 . S
C1477 H1484 0.961 . S
C1477 H1485 0.960 . S
C1478 C1476 1.381 . S
C1478 C1479 1.394 . S
C1478 H1486 0.930 . S
C1479 C1478 1.394 . S
C1479 C1480 1.383 . S
C1479 H1487 0.929 . S
C1480 C1479 1.383 . S
C1480 C1481 1.377 1_554 S
C1481 H1465 0.930 . S
C1481 C1480 1.377 1_556 S
C1481 C1482 1.379 . S
C1482 H1466 0.931 . S
C1482 C1476 1.383 1_556 S
C1482 C1481 1.379 . S
H1483 C1477 0.959 . S
H1484 C1477 0.961 . S
H1485 C1477 0.960 . S
H1486 C1478 0.930 . S
H1487 C1479 0.929 . S
H1488 C1496 0.929 . S
H1489 C1498 0.930 . S
H1490 C1500 0.930 . S
H1491 C1503 0.929 . S
H1492 C1506 0.930 . S
H1493 C1508 0.960 . S
H1494 C1508 0.960 . S
H1495 C1508 0.960 . S
C1496 H1488 0.929 . S
C1496 C1497 1.377 . S
C1496 C1498 1.384 . S
C1497 C1496 1.377 . S
C1497 C1503 1.390 . S
C1498 H1489 0.930 . S
C1498 C1496 1.384 . S
C1498 C1499 1.372 . S
C1499 C1498 1.372 . S
C1499 C1500 1.400 . S
C1499 C1504 1.490 . S
C1500 H1490 0.930 . S
C1500 C1499 1.400 . S
C1500 C1503 1.386 . S
H1501 C1517 0.930 . S
H1502 C1518 0.931 . S
C1503 H1491 0.929 . S
C1503 C1497 1.390 . S
C1503 C1500 1.386 . S
C1504 C1499 1.490 . S
C1504 C1506 1.395 . S
C1504 C1507 1.403 . S
H1505 C1511 0.930 . S
C1506 H1492 0.930 . S
C1506 C1504 1.395 . S
C1506 C1509 1.403 . S
C1507 C1504 1.403 . S
C1507 C1508 1.524 . S
C1507 C1511 1.400 . S
C1508 H1493 0.960 . S
C1508 H1494 0.960 . S
C1508 H1495 0.960 . S
C1508 C1507 1.524 . S
C1509 C1506 1.403 . S
C1509 C1510 1.392 . S
C1509 C1513 1.495 . S
C1510 C1509 1.392 . S
C1510 C1511 1.385 . S
C1510 C1512 1.478 . S
C1511 H1505 0.930 . S
C1511 C1507 1.400 . S
C1511 C1510 1.385 . S
C1512 C1510 1.478 . S
C1512 C1514 1.381 . S
C1512 C1518 1.383 . S
C1513 C1509 1.495 . S
C1513 H1519 0.959 . S
C1513 H1520 0.961 . S
C1513 H1521 0.960 . S
C1514 C1512 1.381 . S
C1514 C1515 1.394 . S
C1514 H1522 0.930 . S
C1515 C1514 1.394 . S
C1515 C1516 1.383 . S
C1515 H1523 0.929 . S
C1516 C1515 1.383 . S
C1516 C1517 1.377 . S
C1517 H1501 0.930 . S
C1517 C1516 1.377 . S
C1517 C1518 1.379 . S
C1518 H1502 0.931 . S
C1518 C1512 1.383 . S
C1518 C1517 1.379 . S
H1519 C1513 0.959 . S
H1520 C1513 0.961 . S
H1521 C1513 0.960 . S
H1522 C1514 0.930 . S
H1523 C1515 0.929 . S
H1524 C1532 0.929 . S
H1525 C1534 0.930 . S
H1526 C1536 0.930 . S
H1527 C1539 0.929 . S
H1528 C1542 0.930 1_554 S
H1529 C1544 0.960 . S
H1530 C1544 0.960 . S
H1531 C1544 0.960 . S
C1532 H1524 0.929 . S
C1532 C1533 1.382 1_556 S
C1532 C1534 1.384 . S
C1533 C1532 1.382 1_554 S
C1533 C1539 1.386 . S
C1534 H1525 0.930 . S
C1534 C1532 1.384 . S
C1534 C1535 1.372 . S
C1535 C1534 1.372 . S
C1535 C1536 1.400 1_556 S
C1535 C1540 1.490 . S
C1536 H1526 0.930 . S
C1536 C1535 1.400 1_554 S
C1536 C1539 1.386 . S
H1537 C1553 0.930 1_554 S
H1538 C1554 0.983 . S
C1539 H1527 0.929 . S
C1539 C1533 1.386 . S
C1539 C1536 1.386 . S
C1540 C1535 1.490 . S
C1540 C1542 1.395 . S
C1540 C1543 1.403 . S
H1541 C1547 0.930 . S
C1542 H1528 0.930 1_556 S
C1542 C1540 1.395 . S
C1542 C1545 1.403 . S
C1543 C1540 1.403 . S
C1543 C1544 1.524 . S
C1543 C1547 1.400 . S
C1544 H1529 0.960 . S
C1544 H1530 0.960 . S
C1544 H1531 0.960 . S
C1544 C1543 1.524 . S
C1545 C1542 1.403 . S
C1545 C1546 1.392 . S
C1545 C1549 1.495 1_556 S
C1546 C1545 1.392 . S
C1546 C1547 1.385 . S
C1546 C1548 1.478 . S
C1547 H1541 0.930 . S
C1547 C1543 1.400 . S
C1547 C1546 1.385 . S
C1548 C1546 1.478 . S
C1548 C1550 1.381 . S
C1548 C1554 1.337 1_556 S
C1549 C1545 1.495 1_554 S
C1549 H1555 0.959 . S
C1549 H1556 0.961 . S
C1549 H1557 0.960 1_554 S
C1550 C1548 1.381 . S
C1550 C1551 1.394 . S
C1550 H1558 0.930 . S
C1551 C1550 1.394 . S
C1551 C1552 1.383 . S
C1551 H1559 0.929 . S
C1552 C1551 1.383 . S
C1552 C1553 1.377 . S
C1553 H1537 0.930 1_556 S
C1553 C1552 1.377 . S
C1553 C1554 1.377 1_556 S
C1554 H1538 0.983 . S
C1554 C1548 1.337 1_554 S
C1554 C1553 1.377 1_554 S
H1555 C1549 0.959 . S
H1556 C1549 0.961 . S
H1557 C1549 0.960 1_556 S
H1558 C1550 0.930 . S
H1559 C1551 0.929 . S
H1560 C1568 0.929 . S
H1561 C1570 0.930 . S
H1562 C1572 0.930 . S
H1563 C1575 0.929 . S
H1564 C1578 0.930 . S
H1565 C1580 0.960 . S
H1566 C1580 0.960 . S
H1567 C1580 0.960 . S
C1568 H1560 0.929 . S
C1568 C1569 1.377 . S
C1568 C1570 1.384 . S
C1569 C1568 1.377 . S
C1569 C1575 1.390 . S
C1570 H1561 0.930 . S
C1570 C1568 1.384 . S
C1570 C1571 1.372 . S
C1571 C1570 1.372 . S
C1571 C1572 1.400 . S
C1571 C1576 1.490 . S
C1572 H1562 0.930 . S
C1572 C1571 1.400 . S
C1572 C1575 1.386 . S
H1573 C1589 0.930 . S
H1574 C1590 0.931 . S
C1575 H1563 0.929 . S
C1575 C1569 1.390 . S
C1575 C1572 1.386 . S
C1576 C1571 1.490 . S
C1576 C1578 1.395 . S
C1576 C1579 1.403 . S
H1577 C1583 0.930 . S
C1578 H1564 0.930 . S
C1578 C1576 1.395 . S
C1578 C1581 1.403 . S
C1579 C1576 1.403 . S
C1579 C1580 1.524 . S
C1579 C1583 1.400 . S
C1580 H1565 0.960 . S
C1580 H1566 0.960 . S
C1580 H1567 0.960 . S
C1580 C1579 1.524 . S
C1581 C1578 1.403 . S
C1581 C1582 1.392 . S
C1581 C1585 1.495 . S
C1582 C1581 1.392 . S
C1582 C1583 1.385 . S
C1582 C1584 1.478 . S
C1583 H1577 0.930 . S
C1583 C1579 1.400 . S
C1583 C1582 1.385 . S
C1584 C1582 1.478 . S
C1584 C1586 1.381 . S
C1584 C1590 1.383 . S
C1585 C1581 1.495 . S
C1585 H1591 0.959 . S
C1585 H1592 0.961 . S
C1585 H1593 0.960 . S
C1586 C1584 1.381 . S
C1586 C1587 1.394 . S
C1586 H1594 0.930 . S
C1587 C1586 1.394 . S
C1587 C1588 1.383 . S
C1587 H1595 0.929 . S
C1588 C1587 1.383 . S
C1588 C1589 1.377 . S
C1589 H1573 0.930 . S
C1589 C1588 1.377 . S
C1589 C1590 1.379 . S
C1590 H1574 0.931 . S
C1590 C1584 1.383 . S
C1590 C1589 1.379 . S
H1591 C1585 0.959 . S
H1592 C1585 0.961 . S
H1593 C1585 0.960 . S
H1594 C1586 0.930 . S
H1595 C1587 0.929 . S
H1596 C1604 0.929 . S
H1597 C1606 0.930 . S
H1598 C1608 0.930 . S
H1599 C1611 0.929 . S
H1600 C1614 0.930 . S
H1601 C1616 0.960 . S
H1602 C1616 0.960 . S
H1603 C1616 0.960 . S
C1604 H1596 0.929 . S
C1604 C1605 1.377 . S
C1604 C1606 1.384 . S
C1605 C1604 1.377 . S
C1605 C1611 1.390 . S
C1606 H1597 0.930 . S
C1606 C1604 1.384 . S
C1606 C1607 1.372 . S
C1607 C1606 1.372 . S
C1607 C1608 1.400 . S
C1607 C1612 1.490 . S
C1608 H1598 0.930 . S
C1608 C1607 1.400 . S
C1608 C1611 1.386 . S
H1609 C1625 0.930 . S
H1610 C1626 0.931 . S
C1611 H1599 0.929 . S
C1611 C1605 1.390 . S
C1611 C1608 1.386 . S
C1612 C1607 1.490 . S
C1612 C1614 1.395 1_455 S
C1612 C1615 1.403 . S
H1613 C1619 0.930 . S
C1614 H1600 0.930 . S
C1614 C1612 1.395 1_655 S
C1614 C1617 1.403 . S
C1615 C1612 1.403 . S
C1615 C1616 1.524 . S
C1615 C1619 1.400 . S
C1616 H1601 0.960 . S
C1616 H1602 0.960 . S
C1616 H1603 0.960 . S
C1616 C1615 1.524 . S
C1617 C1614 1.403 . S
C1617 C1618 1.392 1_655 S
C1617 C1621 1.495 . S
C1618 C1617 1.392 1_455 S
C1618 C1619 1.385 . S
C1618 C1620 1.478 1_556 S
C1619 H1613 0.930 . S
C1619 C1615 1.400 . S
C1619 C1618 1.385 . S
C1620 C1618 1.478 1_554 S
C1620 C1622 1.381 . S
C1620 C1626 1.383 . S
C1621 C1617 1.495 . S
C1621 H1627 0.959 . S
C1621 H1628 0.961 . S
C1621 H1629 0.960 . S
C1622 C1620 1.381 . S
C1622 C1623 1.394 . S
C1622 H1630 0.930 . S
C1623 C1622 1.394 . S
C1623 C1624 1.383 . S
C1623 H1631 0.929 . S
C1624 C1623 1.383 . S
C1624 C1625 1.377 . S
C1625 H1609 0.930 . S
C1625 C1624 1.377 . S
C1625 C1626 1.379 . S
C1626 H1610 0.931 . S
C1626 C1620 1.383 . S
C1626 C1625 1.379 . S
H1627 C1621 0.959 . S
H1628 C1621 0.961 . S
H1629 C1621 0.960 . S
H1630 C1622 0.930 . S
H1631 C1623 0.929 . S
H1632 C1640 0.929 . S
H1633 C1642 0.930 . S
H1634 C1644 0.930 . S
H1635 C1647 0.929 . S
H1636 C1650 0.930 . S
H1637 C1652 0.960 . S
H1638 C1652 0.960 . S
H1639 C1652 0.960 . S
C1640 H1632 0.929 . S
C1640 C1641 1.377 . S
C1640 C1642 1.384 . S
C1641 C1640 1.377 . S
C1641 C1647 1.390 . S
C1642 H1633 0.930 . S
C1642 C1640 1.384 . S
C1642 C1643 1.372 . S
C1643 C1642 1.372 . S
C1643 C1644 1.400 . S
C1643 C1648 1.490 . S
C1644 H1634 0.930 . S
C1644 C1643 1.400 . S
C1644 C1647 1.386 . S
H1645 C1661 0.930 . S
H1646 C1662 0.931 . S
C1647 H1635 0.929 . S
C1647 C1641 1.390 . S
C1647 C1644 1.386 . S
C1648 C1643 1.490 . S
C1648 C1650 1.395 . S
C1648 C1651 1.403 . S
H1649 C1655 0.930 . S
C1650 H1636 0.930 . S
C1650 C1648 1.395 . S
C1650 C1653 1.403 . S
C1651 C1648 1.403 . S
C1651 C1652 1.524 . S
C1651 C1655 1.400 . S
C1652 H1637 0.960 . S
C1652 H1638 0.960 . S
C1652 H1639 0.960 . S
C1652 C1651 1.524 . S
C1653 C1650 1.403 . S
C1653 C1654 1.392 . S
C1653 C1657 1.495 . S
C1654 C1653 1.392 . S
C1654 C1655 1.385 . S
C1654 C1656 1.478 . S
C1655 H1649 0.930 . S
C1655 C1651 1.400 . S
C1655 C1654 1.385 . S
C1656 C1654 1.478 . S
C1656 C1658 1.381 . S
C1656 C1662 1.383 . S
C1657 C1653 1.495 . S
C1657 H1663 0.959 . S
C1657 H1664 0.961 . S
C1657 H1665 0.960 . S
C1658 C1656 1.381 . S
C1658 C1659 1.394 . S
C1658 H1666 0.930 . S
C1659 C1658 1.394 . S
C1659 C1660 1.383 . S
C1659 H1667 0.929 . S
C1660 C1659 1.383 . S
C1660 C1661 1.377 . S
C1661 H1645 0.930 . S
C1661 C1660 1.377 . S
C1661 C1662 1.379 . S
C1662 H1646 0.931 . S
C1662 C1656 1.383 . S
C1662 C1661 1.379 . S
H1663 C1657 0.959 . S
H1664 C1657 0.961 . S
H1665 C1657 0.960 . S
H1666 C1658 0.930 . S
H1667 C1659 0.929 . S
H1668 C1676 0.929 . S
H1669 C1678 0.930 . S
H1670 C1680 0.930 . S
H1671 C1683 0.929 . S
H1672 C1686 0.930 . S
H1673 C1688 0.960 . S
H1674 C1688 0.960 . S
H1675 C1688 0.960 . S
C1676 H1668 0.929 . S
C1676 C1677 1.381 1_655 S
C1676 C1678 1.384 . S
C1677 C1676 1.381 1_455 S
C1677 C1683 1.387 . S
C1678 H1669 0.930 . S
C1678 C1676 1.384 . S
C1678 C1679 1.372 . S
C1679 C1678 1.372 . S
C1679 C1680 1.400 1_655 S
C1679 C1684 1.490 . S
C1680 H1670 0.930 . S
C1680 C1679 1.400 1_455 S
C1680 C1683 1.386 . S
H1681 C1697 0.930 1_455 S
H1682 C1698 0.931 1_455 S
C1683 H1671 0.929 . S
C1683 C1677 1.387 . S
C1683 C1680 1.386 . S
C1684 C1679 1.490 . S
C1684 C1686 1.395 1_655 S
C1684 C1687 1.403 . S
H1685 C1691 0.930 . S
C1686 H1672 0.930 . S
C1686 C1684 1.395 1_455 S
C1686 C1689 1.403 . S
C1687 C1684 1.403 . S
C1687 C1688 1.524 . S
C1687 C1691 1.400 . S
C1688 H1673 0.960 . S
C1688 H1674 0.960 . S
C1688 H1675 0.960 . S
C1688 C1687 1.524 . S
C1689 C1686 1.403 . S
C1689 C1690 1.392 1_455 S
C1689 C1693 1.495 . S
C1690 C1689 1.392 1_655 S
C1690 C1691 1.385 . S
C1690 C1692 1.478 . S
C1691 H1685 0.930 . S
C1691 C1687 1.400 . S
C1691 C1690 1.385 . S
C1692 C1690 1.478 . S
C1692 C1694 1.381 . S
C1692 C1698 1.383 . S
C1693 C1689 1.495 . S
C1693 H1699 0.959 . S
C1693 H1700 0.961 . S
C1693 H1701 0.960 . S
C1694 C1692 1.381 . S
C1694 C1695 1.394 . S
C1694 H1702 0.930 . S
C1695 C1694 1.394 . S
C1695 C1696 1.383 . S
C1695 H1703 0.929 . S
C1696 C1695 1.383 . S
C1696 C1697 1.377 . S
C1697 H1681 0.930 1_655 S
C1697 C1696 1.377 . S
C1697 C1698 1.379 . S
C1698 H1682 0.931 1_655 S
C1698 C1692 1.383 . S
C1698 C1697 1.379 . S
H1699 C1693 0.959 . S
H1700 C1693 0.961 . S
H1701 C1693 0.960 . S
H1702 C1694 0.930 . S
H1703 C1695 0.929 . S
H1704 C1712 0.929 . S
H1705 C1714 0.930 . S
H1706 C1716 0.930 . S
H1707 C1719 0.929 . S
H1708 C1722 0.930 . S
H1709 C1724 0.960 . S
H1710 C1724 0.960 . S
H1711 C1724 0.960 . S
C1712 H1704 0.929 . S
C1712 C1713 1.377 . S
C1712 C1714 1.384 . S
C1713 C1712 1.377 . S
C1713 C1719 1.390 . S
C1714 H1705 0.930 . S
C1714 C1712 1.384 . S
C1714 C1715 1.372 . S
C1715 C1714 1.372 . S
C1715 C1716 1.400 . S
C1715 C1720 1.490 . S
C1716 H1706 0.930 . S
C1716 C1715 1.400 . S
C1716 C1719 1.386 . S
H1717 C1733 0.930 . S
H1718 C1734 0.931 . S
C1719 H1707 0.929 . S
C1719 C1713 1.390 . S
C1719 C1716 1.386 . S
C1720 C1715 1.490 . S
C1720 C1722 1.395 . S
C1720 C1723 1.403 . S
H1721 C1727 0.930 . S
C1722 H1708 0.930 . S
C1722 C1720 1.395 . S
C1722 C1725 1.403 . S
C1723 C1720 1.403 . S
C1723 C1724 1.524 . S
C1723 C1727 1.400 . S
C1724 H1709 0.960 . S
C1724 H1710 0.960 . S
C1724 H1711 0.960 . S
C1724 C1723 1.524 . S
C1725 C1722 1.403 . S
C1725 C1726 1.392 . S
C1725 C1729 1.495 . S
C1726 C1725 1.392 . S
C1726 C1727 1.385 . S
C1726 C1728 1.478 . S
C1727 H1721 0.930 . S
C1727 C1723 1.400 . S
C1727 C1726 1.385 . S
C1728 C1726 1.478 . S
C1728 C1730 1.381 . S
C1728 C1734 1.383 . S
C1729 C1725 1.495 . S
C1729 H1735 0.959 . S
C1729 H1736 0.961 . S
C1729 H1737 0.960 . S
C1730 C1728 1.381 . S
C1730 C1731 1.394 . S
C1730 H1738 0.930 . S
C1731 C1730 1.394 . S
C1731 C1732 1.383 . S
C1731 H1739 0.929 . S
C1732 C1731 1.383 . S
C1732 C1733 1.377 . S
C1733 H1717 0.930 . S
C1733 C1732 1.377 . S
C1733 C1734 1.379 . S
C1734 H1718 0.931 . S
C1734 C1728 1.383 . S
C1734 C1733 1.379 . S
H1735 C1729 0.959 . S
H1736 C1729 0.961 . S
H1737 C1729 0.960 . S
H1738 C1730 0.930 . S
H1739 C1731 0.929 . S
H1740 C1748 0.929 . S
H1741 C1750 0.930 . S
H1742 C1752 0.930 . S
H1743 C1755 0.929 . S
H1744 C1758 0.930 . S
H1745 C1760 0.960 . S
H1746 C1760 0.960 . S
H1747 C1760 0.960 . S
C1748 H1740 0.929 . S
C1748 C1749 1.377 . S
C1748 C1750 1.384 . S
C1749 C1748 1.377 . S
C1749 C1755 1.390 . S
C1750 H1741 0.930 . S
C1750 C1748 1.384 . S
C1750 C1751 1.372 . S
C1751 C1750 1.372 . S
C1751 C1752 1.400 . S
C1751 C1756 1.490 . S
C1752 H1742 0.930 . S
C1752 C1751 1.400 . S
C1752 C1755 1.386 . S
H1753 C1769 0.930 . S
H1754 C1770 0.931 . S
C1755 H1743 0.929 . S
C1755 C1749 1.390 . S
C1755 C1752 1.386 . S
C1756 C1751 1.490 . S
C1756 C1758 1.395 . S
C1756 C1759 1.403 . S
H1757 C1763 0.930 . S
C1758 H1744 0.930 . S
C1758 C1756 1.395 . S
C1758 C1761 1.403 . S
C1759 C1756 1.403 . S
C1759 C1760 1.524 . S
C1759 C1763 1.400 . S
C1760 H1745 0.960 . S
C1760 H1746 0.960 . S
C1760 H1747 0.960 . S
C1760 C1759 1.524 . S
C1761 C1758 1.403 . S
C1761 C1762 1.392 . S
C1761 C1765 1.495 . S
C1762 C1761 1.392 . S
C1762 C1763 1.385 . S
C1762 C1764 1.478 . S
C1763 H1757 0.930 . S
C1763 C1759 1.400 . S
C1763 C1762 1.385 . S
C1764 C1762 1.478 . S
C1764 C1766 1.381 . S
C1764 C1770 1.383 . S
C1765 C1761 1.495 . S
C1765 H1771 0.959 . S
C1765 H1772 0.961 . S
C1765 H1773 0.960 . S
C1766 C1764 1.381 . S
C1766 C1767 1.394 . S
C1766 H1774 0.930 . S
C1767 C1766 1.394 . S
C1767 C1768 1.383 . S
C1767 H1775 0.929 . S
C1768 C1767 1.383 . S
C1768 C1769 1.377 . S
C1769 H1753 0.930 . S
C1769 C1768 1.377 . S
C1769 C1770 1.379 . S
C1770 H1754 0.931 . S
C1770 C1764 1.383 . S
C1770 C1769 1.379 . S
H1771 C1765 0.959 . S
H1772 C1765 0.961 . S
H1773 C1765 0.960 . S
H1774 C1766 0.930 . S
H1775 C1767 0.929 . S
H1776 C1784 0.929 . S
H1777 C1786 0.930 . S
H1778 C1788 0.930 . S
H1779 C1791 0.929 . S
H1780 C1794 0.930 . S
H1781 C1796 0.960 . S
H1782 C1796 0.960 1_565 S
H1783 C1796 0.960 . S
C1784 H1776 0.929 . S
C1784 C1785 1.401 . S
C1784 C1786 1.384 . S
C1785 C1784 1.401 . S
C1785 C1791 1.365 1_565 S
C1786 H1777 0.930 . S
C1786 C1784 1.384 . S
C1786 C1787 1.372 1_565 S
C1787 C1786 1.372 1_545 S
C1787 C1788 1.400 . S
C1787 C1792 1.490 . S
C1788 H1778 0.930 . S
C1788 C1787 1.400 . S
C1788 C1791 1.386 . S
H1789 C1805 0.930 . S
H1790 C1806 0.931 . S
C1791 H1779 0.929 . S
C1791 C1785 1.365 1_545 S
C1791 C1788 1.386 . S
C1792 C1787 1.490 . S
C1792 C1794 1.395 . S
C1792 C1795 1.403 . S
H1793 C1799 0.930 . S
C1794 H1780 0.930 . S
C1794 C1792 1.395 . S
C1794 C1797 1.403 . S
C1795 C1792 1.403 . S
C1795 C1796 1.524 . S
C1795 C1799 1.400 . S
C1796 H1781 0.960 . S
C1796 H1782 0.960 1_545 S
C1796 H1783 0.960 . S
C1796 C1795 1.524 . S
C1797 C1794 1.403 . S
C1797 C1798 1.392 . S
C1797 C1801 1.495 . S
C1798 C1797 1.392 . S
C1798 C1799 1.385 . S
C1798 C1800 1.478 . S
C1799 H1793 0.930 . S
C1799 C1795 1.400 . S
C1799 C1798 1.385 . S
C1800 C1798 1.478 . S
C1800 C1802 1.381 1_545 S
C1800 C1806 1.383 . S
C1801 C1797 1.495 . S
C1801 H1807 0.959 . S
C1801 H1808 0.961 . S
C1801 H1809 0.960 1_545 S
C1802 C1800 1.381 1_565 S
C1802 C1803 1.397 . S
C1802 H1810 0.930 . S
C1803 C1802 1.397 . S
C1803 C1804 1.346 1_565 S
C1803 H1811 0.966 . S
C1804 C1803 1.346 1_545 S
C1804 C1805 1.377 . S
C1805 H1789 0.930 . S
C1805 C1804 1.377 . S
C1805 C1806 1.379 . S
C1806 H1790 0.931 . S
C1806 C1800 1.383 . S
C1806 C1805 1.379 . S
H1807 C1801 0.959 . S
H1808 C1801 0.961 . S
H1809 C1801 0.960 1_565 S
H1810 C1802 0.930 . S
H1811 C1803 0.966 . S
H1812 C1820 0.929 . S
H1813 C1822 0.930 . S
H1814 C1824 0.930 . S
H1815 C1827 0.929 . S
H1816 C1830 0.930 1_545 S
H1817 C1832 0.960 . S
H1818 C1832 0.960 . S
H1819 C1832 0.960 . S
C1820 H1812 0.929 . S
C1820 C1821 1.377 1_545 S
C1820 C1822 1.384 . S
C1821 C1820 1.377 1_565 S
C1821 C1827 1.390 . S
C1822 H1813 0.930 . S
C1822 C1820 1.384 . S
C1822 C1823 1.372 1_545 S
C1823 C1822 1.372 1_565 S
C1823 C1824 1.400 . S
C1823 C1828 1.490 . S
C1824 H1814 0.930 . S
C1824 C1823 1.400 . S
C1824 C1827 1.386 . S
H1825 C1841 0.930 . S
H1826 C1842 0.931 . S
C1827 H1815 0.929 . S
C1827 C1821 1.390 . S
C1827 C1824 1.386 . S
C1828 C1823 1.490 . S
C1828 C1830 1.395 . S
C1828 C1831 1.403 . S
H1829 C1835 0.930 . S
C1830 H1816 0.930 1_565 S
C1830 C1828 1.395 . S
C1830 C1833 1.403 . S
C1831 C1828 1.403 . S
C1831 C1832 1.524 . S
C1831 C1835 1.400 . S
C1832 H1817 0.960 . S
C1832 H1818 0.960 . S
C1832 H1819 0.960 . S
C1832 C1831 1.524 . S
C1833 C1830 1.403 . S
C1833 C1834 1.392 . S
C1833 C1837 1.495 1_565 S
C1834 C1833 1.392 . S
C1834 C1835 1.385 . S
C1834 C1836 1.478 1_455 S
C1835 H1829 0.930 . S
C1835 C1831 1.400 . S
C1835 C1834 1.385 . S
C1836 C1834 1.478 1_655 S
C1836 C1838 1.381 1_565 S
C1836 C1842 1.383 . S
C1837 C1833 1.495 1_545 S
C1837 H1843 0.959 . S
C1837 H1844 0.922 1_545 S
C1837 H1845 0.960 . S
C1838 C1836 1.381 1_545 S
C1838 C1839 1.394 . S
C1838 H1846 0.930 . S
C1839 C1838 1.394 . S
C1839 C1840 1.383 1_545 S
C1839 H1847 0.929 . S
C1840 C1839 1.383 1_565 S
C1840 C1841 1.377 . S
C1841 H1825 0.930 . S
C1841 C1840 1.377 . S
C1841 C1842 1.379 . S
C1842 H1826 0.931 . S
C1842 C1836 1.383 . S
C1842 C1841 1.379 . S
H1843 C1837 0.959 . S
H1844 C1837 0.922 1_565 S
H1845 C1837 0.960 . S
H1846 C1838 0.930 . S
H1847 C1839 0.929 . S
H1848 C1856 0.929 . S
H1849 C1858 0.930 . S
H1850 C1860 0.930 . S
H1851 C1863 0.929 . S
H1852 C1866 0.930 . S
H1853 C1868 0.960 . S
H1854 C1868 0.960 . S
H1855 C1868 0.960 . S
C1856 H1848 0.929 . S
C1856 C1857 1.377 . S
C1856 C1858 1.384 . S
C1857 C1856 1.377 . S
C1857 C1863 1.390 . S
C1858 H1849 0.930 . S
C1858 C1856 1.384 . S
C1858 C1859 1.372 . S
C1859 C1858 1.372 . S
C1859 C1860 1.400 . S
C1859 C1864 1.490 . S
C1860 H1850 0.930 . S
C1860 C1859 1.400 . S
C1860 C1863 1.386 . S
H1861 C1877 0.930 . S
H1862 C1878 0.931 . S
C1863 H1851 0.929 . S
C1863 C1857 1.390 . S
C1863 C1860 1.386 . S
C1864 C1859 1.490 . S
C1864 C1866 1.395 . S
C1864 C1867 1.403 . S
H1865 C1871 0.930 . S
C1866 H1852 0.930 . S
C1866 C1864 1.395 . S
C1866 C1869 1.403 . S
C1867 C1864 1.403 . S
C1867 C1868 1.524 . S
C1867 C1871 1.400 . S
C1868 H1853 0.960 . S
C1868 H1854 0.960 . S
C1868 H1855 0.960 . S
C1868 C1867 1.524 . S
C1869 C1866 1.403 . S
C1869 C1870 1.392 . S
C1869 C1873 1.495 . S
C1870 C1869 1.392 . S
C1870 C1871 1.385 . S
C1870 C1872 1.478 . S
C1871 H1865 0.930 . S
C1871 C1867 1.400 . S
C1871 C1870 1.385 . S
C1872 C1870 1.478 . S
C1872 C1874 1.381 . S
C1872 C1878 1.383 . S
C1873 C1869 1.495 . S
C1873 H1879 0.959 . S
C1873 H1880 0.961 . S
C1873 H1881 0.960 . S
C1874 C1872 1.381 . S
C1874 C1875 1.394 . S
C1874 H1882 0.930 . S
C1875 C1874 1.394 . S
C1875 C1876 1.383 . S
C1875 H1883 0.929 . S
C1876 C1875 1.383 . S
C1876 C1877 1.377 . S
C1877 H1861 0.930 . S
C1877 C1876 1.377 . S
C1877 C1878 1.379 . S
C1878 H1862 0.931 . S
C1878 C1872 1.383 . S
C1878 C1877 1.379 . S
H1879 C1873 0.959 . S
H1880 C1873 0.961 . S
H1881 C1873 0.960 . S
H1882 C1874 0.930 . S
H1883 C1875 0.929 . S
H1884 C1892 0.929 . S
H1885 C1894 0.930 . S
H1886 C1896 0.930 . S
H1887 C1899 0.954 . S
H1888 C1902 0.930 1_554 S
H1889 C1904 0.960 . S
H1890 C1904 0.960 . S
H1891 C1904 0.960 . S
C1892 H1884 0.929 . S
C1892 C1893 1.377 . S
C1892 C1894 1.384 . S
C1893 C1892 1.377 . S
C1893 C1899 1.390 . S
C1894 H1885 0.930 . S
C1894 C1892 1.384 . S
C1894 C1895 1.372 . S
C1895 C1894 1.372 . S
C1895 C1896 1.400 . S
C1895 C1900 1.490 . S
C1896 H1886 0.930 . S
C1896 C1895 1.400 . S
C1896 C1899 1.386 . S
H1897 C1913 0.930 1_554 S
H1898 C1914 0.931 1_554 S
C1899 H1887 0.954 . S
C1899 C1893 1.390 . S
C1899 C1896 1.386 . S
C1900 C1895 1.490 . S
C1900 C1902 1.395 . S
C1900 C1903 1.403 . S
H1901 C1907 0.930 . S
C1902 H1888 0.930 1_556 S
C1902 C1900 1.395 . S
C1902 C1905 1.408 . S
C1903 C1900 1.403 . S
C1903 C1904 1.524 . S
C1903 C1907 1.400 . S
C1904 H1889 0.960 . S
C1904 H1890 0.960 . S
C1904 H1891 0.960 . S
C1904 C1903 1.524 . S
C1905 C1902 1.408 . S
C1905 C1906 1.404 . S
C1905 C1909 1.480 1_556 S
C1906 C1905 1.404 . S
C1906 C1907 1.385 . S
C1906 C1908 1.478 1_545 S
C1907 H1901 0.930 . S
C1907 C1903 1.400 . S
C1907 C1906 1.385 . S
C1908 C1906 1.478 1_565 S
C1908 C1910 1.381 . S
C1908 C1914 1.383 . S
C1909 C1905 1.480 1_554 S
C1909 H1915 0.959 . S
C1909 H1916 0.961 . S
C1909 H1917 0.960 . S
C1910 C1908 1.381 . S
C1910 C1911 1.394 . S
C1910 H1918 0.930 . S
C1911 C1910 1.394 . S
C1911 C1912 1.383 . S
C1911 H1919 0.929 . S
C1912 C1911 1.383 . S
C1912 C1913 1.377 . S
C1913 H1897 0.930 1_556 S
C1913 C1912 1.377 . S
C1913 C1914 1.379 . S
C1914 H1898 0.931 1_556 S
C1914 C1908 1.383 . S
C1914 C1913 1.379 . S
H1915 C1909 0.959 . S
H1916 C1909 0.961 . S
H1917 C1909 0.960 . S
H1918 C1910 0.930 . S
H1919 C1911 0.929 . S
H1920 C1928 0.929 . S
H1921 C1930 0.930 . S
H1922 C1932 0.930 . S
H1923 C1935 0.929 . S
H1924 C1938 0.930 . S
H1925 C1940 0.960 . S
H1926 C1940 0.960 . S
H1927 C1940 0.960 . S
C1928 H1920 0.929 . S
C1928 C1929 1.377 . S
C1928 C1930 1.384 . S
C1929 C1928 1.377 . S
C1929 C1935 1.390 . S
C1930 H1921 0.930 . S
C1930 C1928 1.384 . S
C1930 C1931 1.372 . S
C1931 C1930 1.372 . S
C1931 C1932 1.400 . S
C1931 C1936 1.490 . S
C1932 H1922 0.930 . S
C1932 C1931 1.400 . S
C1932 C1935 1.386 . S
H1933 C1949 0.930 . S
H1934 C1950 0.931 . S
C1935 H1923 0.929 . S
C1935 C1929 1.390 . S
C1935 C1932 1.386 . S
C1936 C1931 1.490 . S
C1936 C1938 1.395 . S
C1936 C1939 1.403 . S
H1937 C1943 0.930 . S
C1938 H1924 0.930 . S
C1938 C1936 1.395 . S
C1938 C1941 1.403 . S
C1939 C1936 1.403 . S
C1939 C1940 1.524 . S
C1939 C1943 1.400 . S
C1940 H1925 0.960 . S
C1940 H1926 0.960 . S
C1940 H1927 0.960 . S
C1940 C1939 1.524 . S
C1941 C1938 1.403 . S
C1941 C1942 1.392 . S
C1941 C1945 1.495 . S
C1942 C1941 1.392 . S
C1942 C1943 1.385 . S
C1942 C1944 1.478 . S
C1943 H1937 0.930 . S
C1943 C1939 1.400 . S
C1943 C1942 1.385 . S
C1944 C1942 1.478 . S
C1944 C1946 1.381 . S
C1944 C1950 1.383 . S
C1945 C1941 1.495 . S
C1945 H1951 0.959 . S
C1945 H1952 0.961 . S
C1945 H1953 0.960 . S
C1946 C1944 1.381 . S
C1946 C1947 1.394 . S
C1946 H1954 0.930 . S
C1947 C1946 1.394 . S
C1947 C1948 1.383 . S
C1947 H1955 0.929 . S
C1948 C1947 1.383 . S
C1948 C1949 1.377 . S
C1949 H1933 0.930 . S
C1949 C1948 1.377 . S
C1949 C1950 1.379 . S
C1950 H1934 0.931 . S
C1950 C1944 1.383 . S
C1950 C1949 1.379 . S
H1951 C1945 0.959 . S
H1952 C1945 0.961 . S
H1953 C1945 0.960 . S
H1954 C1946 0.930 . S
H1955 C1947 0.929 . S
H1956 C1964 0.929 . S
H1957 C1966 0.930 . S
H1958 C1968 0.930 . S
H1959 C1971 0.929 . S
H1960 C1974 0.930 . S
H1961 C1976 0.960 . S
H1962 C1976 0.960 . S
H1963 C1976 0.960 . S
C1964 H1956 0.929 . S
C1964 C1965 1.375 1_554 S
C1964 C1966 1.384 . S
C1965 C1964 1.375 1_556 S
C1965 C1971 1.392 . S
C1966 H1957 0.930 . S
C1966 C1964 1.384 . S
C1966 C1967 1.372 . S
C1967 C1966 1.372 . S
C1967 C1968 1.400 1_554 S
C1967 C1972 1.490 . S
C1968 H1958 0.930 . S
C1968 C1967 1.400 1_556 S
C1968 C1971 1.386 . S
H1969 C1985 0.971 . S
H1970 C1986 0.931 . S
C1971 H1959 0.929 . S
C1971 C1965 1.392 . S
C1971 C1968 1.386 . S
C1972 C1967 1.490 . S
C1972 C1974 1.395 . S
C1972 C1975 1.392 1_554 S
H1973 C1979 0.930 1_556 S
C1974 H1960 0.930 . S
C1974 C1972 1.395 . S
C1974 C1977 1.403 . S
C1975 C1972 1.392 1_556 S
C1975 C1976 1.537 . S
C1975 C1979 1.398 1_556 S
C1976 H1961 0.960 . S
C1976 H1962 0.960 . S
C1976 H1963 0.960 . S
C1976 C1975 1.537 . S
C1977 C1974 1.403 . S
C1977 C1978 1.392 . S
C1977 C1981 1.495 . S
C1978 C1977 1.392 . S
C1978 C1979 1.385 . S
C1978 C1980 1.478 . S
C1979 H1973 0.930 1_554 S
C1979 C1975 1.398 1_554 S
C1979 C1978 1.385 . S
C1980 C1978 1.478 . S
C1980 C1982 1.381 . S
C1980 C1986 1.383 1_554 S
C1981 C1977 1.495 . S
C1981 H1987 0.959 . S
C1981 H1988 0.961 . S
C1981 H1989 0.960 . S
C1982 C1980 1.381 . S
C1982 C1983 1.394 . S
C1982 H1990 0.930 . S
C1983 C1982 1.394 . S
C1983 C1984 1.383 . S
C1983 H1991 0.929 . S
C1984 C1983 1.383 . S
C1984 C1985 1.335 1_554 S
C1985 H1969 0.971 . S
C1985 C1984 1.335 1_556 S
C1985 C1986 1.381 . S
C1986 H1970 0.931 . S
C1986 C1980 1.383 1_556 S
C1986 C1985 1.381 . S
H1987 C1981 0.959 . S
H1988 C1981 0.961 . S
H1989 C1981 0.960 . S
H1990 C1982 0.930 . S
H1991 C1983 0.929 . S
H1992 C2000 0.929 . S
H1993 C2002 0.930 . S
H1994 C2004 0.930 . S
H1995 C2007 0.929 . S
H1996 C2010 0.930 . S
H1997 C2012 0.960 . S
H1998 C2012 0.960 . S
H1999 C2012 0.960 . S
C2000 H1992 0.929 . S
C2000 C2001 1.377 . S
C2000 C2002 1.384 . S
C2001 C2000 1.377 . S
C2001 C2007 1.390 . S
C2002 H1993 0.930 . S
C2002 C2000 1.384 . S
C2002 C2003 1.372 . S
C2003 C2002 1.372 . S
C2003 C2004 1.400 . S
C2003 C2008 1.490 . S
C2004 H1994 0.930 . S
C2004 C2003 1.400 . S
C2004 C2007 1.386 . S
H2005 C2021 0.930 . S
H2006 C2022 0.931 . S
C2007 H1995 0.929 . S
C2007 C2001 1.390 . S
C2007 C2004 1.386 . S
C2008 C2003 1.490 . S
C2008 C2010 1.395 . S
C2008 C2011 1.403 . S
H2009 C2015 0.930 . S
C2010 H1996 0.930 . S
C2010 C2008 1.395 . S
C2010 C2013 1.403 . S
C2011 C2008 1.403 . S
C2011 C2012 1.524 . S
C2011 C2015 1.400 . S
C2012 H1997 0.960 . S
C2012 H1998 0.960 . S
C2012 H1999 0.960 . S
C2012 C2011 1.524 . S
C2013 C2010 1.403 . S
C2013 C2014 1.392 . S
C2013 C2017 1.495 . S
C2014 C2013 1.392 . S
C2014 C2015 1.385 . S
C2014 C2016 1.478 . S
C2015 H2009 0.930 . S
C2015 C2011 1.400 . S
C2015 C2014 1.385 . S
C2016 C2014 1.478 . S
C2016 C2018 1.381 . S
C2016 C2022 1.383 . S
C2017 C2013 1.495 . S
C2017 H2023 0.959 . S
C2017 H2024 0.961 . S
C2017 H2025 0.960 . S
C2018 C2016 1.381 . S
C2018 C2019 1.394 . S
C2018 H2026 0.930 . S
C2019 C2018 1.394 . S
C2019 C2020 1.383 . S
C2019 H2027 0.929 . S
C2020 C2019 1.383 . S
C2020 C2021 1.377 . S
C2021 H2005 0.930 . S
C2021 C2020 1.377 . S
C2021 C2022 1.379 . S
C2022 H2006 0.931 . S
C2022 C2016 1.383 . S
C2022 C2021 1.379 . S
H2023 C2017 0.959 . S
H2024 C2017 0.961 . S
H2025 C2017 0.960 . S
H2026 C2018 0.930 . S
H2027 C2019 0.929 . S
H2028 C2036 0.929 . S
H2029 C2038 0.930 . S
H2030 C2040 0.951 . S
H2031 C2043 0.945 . S
H2032 C2046 0.930 . S
H2033 C2048 0.960 . S
H2034 C2048 0.960 . S
H2035 C2048 0.960 . S
C2036 H2028 0.929 . S
C2036 C2037 1.377 . S
C2036 C2038 1.384 . S
C2037 C2036 1.377 . S
C2037 C2043 1.390 . S
C2038 H2029 0.930 . S
C2038 C2036 1.384 . S
C2038 C2039 1.372 . S
C2039 C2038 1.372 . S
C2039 C2040 1.400 . S
C2039 C2044 1.490 . S
C2040 H2030 0.951 . S
C2040 C2039 1.400 . S
C2040 C2043 1.386 . S
H2041 C2057 0.930 . S
H2042 C2058 0.931 . S
C2043 H2031 0.945 . S
C2043 C2037 1.390 . S
C2043 C2040 1.386 . S
C2044 C2039 1.490 . S
C2044 C2046 1.395 . S
C2044 C2047 1.403 1_655 S
H2045 C2051 0.930 . S
C2046 H2032 0.930 . S
C2046 C2044 1.395 . S
C2046 C2049 1.403 . S
C2047 C2044 1.403 1_455 S
C2047 C2048 1.524 . S
C2047 C2051 1.400 . S
C2048 H2033 0.960 . S
C2048 H2034 0.960 . S
C2048 H2035 0.960 . S
C2048 C2047 1.524 . S
C2049 C2046 1.403 . S
C2049 C2050 1.392 . S
C2049 C2053 1.495 . S
C2050 C2049 1.392 . S
C2050 C2051 1.385 1_655 S
C2050 C2052 1.478 1_554 S
C2051 H2045 0.930 . S
C2051 C2047 1.400 . S
C2051 C2050 1.385 1_455 S
C2052 C2050 1.478 1_556 S
C2052 C2054 1.381 . S
C2052 C2058 1.383 . S
C2053 C2049 1.495 . S
C2053 H2059 0.959 . S
C2053 H2060 0.961 . S
C2053 H2061 0.960 . S
C2054 C2052 1.381 . S
C2054 C2055 1.394 . S
C2054 H2062 0.930 . S
C2055 C2054 1.394 . S
C2055 C2056 1.383 . S
C2055 H2063 0.929 . S
C2056 C2055 1.383 . S
C2056 C2057 1.377 . S
C2057 H2041 0.930 . S
C2057 C2056 1.377 . S
C2057 C2058 1.379 . S
C2058 H2042 0.931 . S
C2058 C2052 1.383 . S
C2058 C2057 1.379 . S
H2059 C2053 0.959 . S
H2060 C2053 0.961 . S
H2061 C2053 0.960 . S
H2062 C2054 0.930 . S
H2063 C2055 0.929 . S
H2064 C2072 0.929 . S
H2065 C2074 0.930 . S
H2066 C2076 0.930 . S
H2067 C2079 0.929 . S
H2068 C2082 0.930 . S
H2069 C2084 0.960 . S
H2070 C2084 0.960 . S
H2071 C2084 0.960 . S
C2072 H2064 0.929 . S
C2072 C2073 1.377 . S
C2072 C2074 1.384 . S
C2073 C2072 1.377 . S
C2073 C2079 1.390 . S
C2074 H2065 0.930 . S
C2074 C2072 1.384 . S
C2074 C2075 1.372 . S
C2075 C2074 1.372 . S
C2075 C2076 1.400 . S
C2075 C2080 1.490 . S
C2076 H2066 0.930 . S
C2076 C2075 1.400 . S
C2076 C2079 1.386 . S
H2077 C2093 0.930 . S
H2078 C2094 0.931 . S
C2079 H2067 0.929 . S
C2079 C2073 1.390 . S
C2079 C2076 1.386 . S
C2080 C2075 1.490 . S
C2080 C2082 1.395 . S
C2080 C2083 1.403 . S
H2081 C2087 0.930 . S
C2082 H2068 0.930 . S
C2082 C2080 1.395 . S
C2082 C2085 1.403 . S
C2083 C2080 1.403 . S
C2083 C2084 1.524 . S
C2083 C2087 1.400 . S
C2084 H2069 0.960 . S
C2084 H2070 0.960 . S
C2084 H2071 0.960 . S
C2084 C2083 1.524 . S
C2085 C2082 1.403 . S
C2085 C2086 1.392 . S
C2085 C2089 1.495 . S
C2086 C2085 1.392 . S
C2086 C2087 1.385 . S
C2086 C2088 1.478 . S
C2087 H2081 0.930 . S
C2087 C2083 1.400 . S
C2087 C2086 1.385 . S
C2088 C2086 1.478 . S
C2088 C2090 1.381 . S
C2088 C2094 1.383 . S
C2089 C2085 1.495 . S
C2089 H2095 0.959 . S
C2089 H2096 0.961 . S
C2089 H2097 0.960 . S
C2090 C2088 1.381 . S
C2090 C2091 1.394 . S
C2090 H2098 0.930 . S
C2091 C2090 1.394 . S
C2091 C2092 1.383 . S
C2091 H2099 0.929 . S
C2092 C2091 1.383 . S
C2092 C2093 1.377 . S
C2093 H2077 0.930 . S
C2093 C2092 1.377 . S
C2093 C2094 1.379 . S
C2094 H2078 0.931 . S
C2094 C2088 1.383 . S
C2094 C2093 1.379 . S
H2095 C2089 0.959 . S
H2096 C2089 0.961 . S
H2097 C2089 0.960 . S
H2098 C2090 0.930 . S
H2099 C2091 0.929 . S
H2100 C2108 0.929 . S
H2101 C2110 0.930 . S
H2102 C2112 0.930 . S
H2103 C2115 0.929 . S
H2104 C2118 0.930 . S
H2105 C2120 0.960 . S
H2106 C2120 0.960 . S
H2107 C2120 0.960 . S
C2108 H2100 0.929 . S
C2108 C2109 1.368 1_455 S
C2108 C2110 1.384 . S
C2109 C2108 1.368 1_655 S
C2109 C2115 1.398 . S
C2110 H2101 0.930 . S
C2110 C2108 1.384 . S
C2110 C2111 1.372 . S
C2111 C2110 1.372 . S
C2111 C2112 1.400 1_455 S
C2111 C2116 1.490 . S
C2112 H2102 0.930 . S
C2112 C2111 1.400 1_655 S
C2112 C2115 1.386 . S
H2113 C2129 0.930 1_655 S
H2114 C2130 0.931 1_655 S
C2115 H2103 0.929 . S
C2115 C2109 1.398 . S
C2115 C2112 1.386 . S
C2116 C2111 1.490 . S
C2116 C2118 1.395 . S
C2116 C2119 1.403 1_455 S
H2117 C2123 0.930 . S
C2118 H2104 0.930 . S
C2118 C2116 1.395 . S
C2118 C2121 1.403 . S
C2119 C2116 1.403 1_655 S
C2119 C2120 1.524 . S
C2119 C2123 1.400 . S
C2120 H2105 0.960 . S
C2120 H2106 0.960 . S
C2120 H2107 0.960 . S
C2120 C2119 1.524 . S
C2121 C2118 1.403 . S
C2121 C2122 1.392 . S
C2121 C2125 1.495 . S
C2122 C2121 1.392 . S
C2122 C2123 1.385 1_455 S
C2122 C2124 1.478 . S
C2123 H2117 0.930 . S
C2123 C2119 1.400 . S
C2123 C2122 1.385 1_655 S
C2124 C2122 1.478 . S
C2124 C2126 1.381 . S
C2124 C2130 1.383 . S
C2125 C2121 1.495 . S
C2125 H2131 0.959 . S
C2125 H2132 0.961 . S
C2125 H2133 0.960 . S
C2126 C2124 1.381 . S
C2126 C2127 1.394 . S
C2126 H2134 0.930 . S
C2127 C2126 1.394 . S
C2127 C2128 1.383 . S
C2127 H2135 0.929 . S
C2128 C2127 1.383 . S
C2128 C2129 1.377 . S
C2129 H2113 0.930 1_455 S
C2129 C2128 1.377 . S
C2129 C2130 1.379 . S
C2130 H2114 0.931 1_455 S
C2130 C2124 1.383 . S
C2130 C2129 1.379 . S
H2131 C2125 0.959 . S
H2132 C2125 0.961 . S
H2133 C2125 0.960 . S
H2134 C2126 0.930 . S
H2135 C2127 0.929 . S
H2136 C2144 0.929 . S
H2137 C2146 0.930 . S
H2138 C2148 0.930 . S
H2139 C2151 0.929 . S
H2140 C2154 0.930 . S
H2141 C2156 0.960 . S
H2142 C2156 0.960 . S
H2143 C2156 0.960 . S
C2144 H2136 0.929 . S
C2144 C2145 1.377 . S
C2144 C2146 1.384 . S
C2145 C2144 1.377 . S
C2145 C2151 1.390 . S
C2146 H2137 0.930 . S
C2146 C2144 1.384 . S
C2146 C2147 1.372 . S
C2147 C2146 1.372 . S
C2147 C2148 1.400 . S
C2147 C2152 1.490 . S
C2148 H2138 0.930 . S
C2148 C2147 1.400 . S
C2148 C2151 1.386 . S
H2149 C2165 0.930 . S
H2150 C2166 0.931 . S
C2151 H2139 0.929 . S
C2151 C2145 1.390 . S
C2151 C2148 1.386 . S
C2152 C2147 1.490 . S
C2152 C2154 1.395 . S
C2152 C2155 1.403 . S
H2153 C2159 0.930 . S
C2154 H2140 0.930 . S
C2154 C2152 1.395 . S
C2154 C2157 1.403 . S
C2155 C2152 1.403 . S
C2155 C2156 1.524 . S
C2155 C2159 1.400 . S
C2156 H2141 0.960 . S
C2156 H2142 0.960 . S
C2156 H2143 0.960 . S
C2156 C2155 1.524 . S
C2157 C2154 1.403 . S
C2157 C2158 1.392 . S
C2157 C2161 1.495 . S
C2158 C2157 1.392 . S
C2158 C2159 1.385 . S
C2158 C2160 1.478 . S
C2159 H2153 0.930 . S
C2159 C2155 1.400 . S
C2159 C2158 1.385 . S
C2160 C2158 1.478 . S
C2160 C2162 1.381 . S
C2160 C2166 1.383 . S
C2161 C2157 1.495 . S
C2161 H2167 0.959 . S
C2161 H2168 0.961 . S
C2161 H2169 0.960 . S
C2162 C2160 1.381 . S
C2162 C2163 1.394 . S
C2162 H2170 0.930 . S
C2163 C2162 1.394 . S
C2163 C2164 1.383 . S
C2163 H2171 0.929 . S
C2164 C2163 1.383 . S
C2164 C2165 1.377 . S
C2165 H2149 0.930 . S
C2165 C2164 1.377 . S
C2165 C2166 1.379 . S
C2166 H2150 0.931 . S
C2166 C2160 1.383 . S
C2166 C2165 1.379 . S
H2167 C2161 0.959 . S
H2168 C2161 0.961 . S
H2169 C2161 0.960 . S
H2170 C2162 0.930 . S
H2171 C2163 0.929 . S
H2172 C2180 0.929 . S
H2173 C2182 0.930 . S
H2174 C2184 0.930 . S
H2175 C2187 0.929 . S
H2176 C2190 0.930 . S
H2177 C2192 0.960 . S
H2178 C2192 0.960 . S
H2179 C2192 0.960 . S
C2180 H2172 0.929 . S
C2180 C2181 1.377 . S
C2180 C2182 1.384 . S
C2181 C2180 1.377 . S
C2181 C2187 1.390 . S
C2182 H2173 0.930 . S
C2182 C2180 1.384 . S
C2182 C2183 1.372 . S
C2183 C2182 1.372 . S
C2183 C2184 1.400 . S
C2183 C2188 1.490 . S
C2184 H2174 0.930 . S
C2184 C2183 1.400 . S
C2184 C2187 1.386 . S
H2185 C2201 0.930 . S
H2186 C2202 0.931 . S
C2187 H2175 0.929 . S
C2187 C2181 1.390 . S
C2187 C2184 1.386 . S
C2188 C2183 1.490 . S
C2188 C2190 1.395 . S
C2188 C2191 1.403 . S
H2189 C2195 0.930 . S
C2190 H2176 0.930 . S
C2190 C2188 1.395 . S
C2190 C2193 1.403 . S
C2191 C2188 1.403 . S
C2191 C2192 1.524 . S
C2191 C2195 1.400 . S
C2192 H2177 0.960 . S
C2192 H2178 0.960 . S
C2192 H2179 0.960 . S
C2192 C2191 1.524 . S
C2193 C2190 1.403 . S
C2193 C2194 1.392 . S
C2193 C2197 1.495 . S
C2194 C2193 1.392 . S
C2194 C2195 1.385 . S
C2194 C2196 1.478 . S
C2195 H2189 0.930 . S
C2195 C2191 1.400 . S
C2195 C2194 1.385 . S
C2196 C2194 1.478 . S
C2196 C2198 1.381 . S
C2196 C2202 1.383 . S
C2197 C2193 1.495 . S
C2197 H2203 0.959 . S
C2197 H2204 0.961 . S
C2197 H2205 0.960 . S
C2198 C2196 1.381 . S
C2198 C2199 1.394 . S
C2198 H2206 0.930 . S
C2199 C2198 1.394 . S
C2199 C2200 1.383 . S
C2199 H2207 0.929 . S
C2200 C2199 1.383 . S
C2200 C2201 1.377 . S
C2201 H2185 0.930 . S
C2201 C2200 1.377 . S
C2201 C2202 1.379 . S
C2202 H2186 0.931 . S
C2202 C2196 1.383 . S
C2202 C2201 1.379 . S
H2203 C2197 0.959 . S
H2204 C2197 0.961 . S
H2205 C2197 0.960 . S
H2206 C2198 0.930 . S
H2207 C2199 0.929 . S
H2208 C2216 0.929 . S
H2209 C2218 0.930 . S
H2210 C2220 0.930 . S
H2211 C2223 0.929 . S
H2212 C2226 0.930 . S
H2213 C2228 0.960 . S
H2214 C2228 0.960 . S
H2215 C2228 0.960 . S
C2216 H2208 0.929 . S
C2216 C2217 1.377 . S
C2216 C2218 1.384 . S
C2217 C2216 1.377 . S
C2217 C2223 1.390 1_565 S
C2218 H2209 0.930 . S
C2218 C2216 1.384 . S
C2218 C2219 1.376 . S
C2219 C2218 1.376 . S
C2219 C2220 1.401 1_565 S
C2219 C2224 1.488 . S
C2220 H2210 0.930 . S
C2220 C2219 1.401 1_545 S
C2220 C2223 1.386 . S
H2221 C2237 0.930 . S
H2222 C2238 0.931 . S
C2223 H2211 0.929 . S
C2223 C2217 1.390 1_545 S
C2223 C2220 1.386 . S
C2224 C2219 1.488 . S
C2224 C2226 1.375 1_565 S
C2224 C2227 1.420 . S
H2225 C2231 0.930 . S
C2226 H2212 0.930 . S
C2226 C2224 1.375 1_545 S
C2226 C2229 1.403 . S
C2227 C2224 1.420 . S
C2227 C2228 1.524 . S
C2227 C2231 1.400 . S
C2228 H2213 0.960 . S
C2228 H2214 0.960 . S
C2228 H2215 0.960 . S
C2228 C2227 1.524 . S
C2229 C2226 1.403 . S
C2229 C2230 1.392 . S
C2229 C2233 1.495 . S
C2230 C2229 1.392 . S
C2230 C2231 1.385 1_545 S
C2230 C2232 1.478 . S
C2231 H2225 0.930 . S
C2231 C2227 1.400 . S
C2231 C2230 1.385 1_565 S
C2232 C2230 1.478 . S
C2232 C2234 1.381 1_545 S
C2232 C2238 1.383 . S
C2233 C2229 1.495 . S
C2233 H2239 0.959 . S
C2233 H2240 0.961 . S
C2233 H2241 0.960 . S
C2234 C2232 1.381 1_565 S
C2234 C2235 1.394 . S
C2234 H2242 0.930 . S
C2235 C2234 1.394 . S
C2235 C2236 1.391 . S
C2235 H2243 0.929 . S
C2236 C2235 1.391 . S
C2236 C2237 1.372 1_565 S
C2237 H2221 0.930 . S
C2237 C2236 1.372 1_545 S
C2237 C2238 1.379 . S
C2238 H2222 0.931 . S
C2238 C2232 1.383 . S
C2238 C2237 1.379 . S
H2239 C2233 0.959 . S
H2240 C2233 0.961 . S
H2241 C2233 0.960 . S
H2242 C2234 0.930 . S
H2243 C2235 0.929 . S
H2244 C2252 0.929 . S
H2245 C2254 0.930 . S
H2246 C2256 0.930 . S
H2247 C2259 0.953 . S
H2248 C2262 0.930 . S
H2249 C2264 0.960 . S
H2250 C2264 0.960 . S
H2251 C2264 0.960 . S
C2252 H2244 0.929 . S
C2252 C2253 1.377 . S
C2252 C2254 1.384 . S
C2253 C2252 1.377 . S
C2253 C2259 1.390 . S
C2254 H2245 0.930 . S
C2254 C2252 1.384 . S
C2254 C2255 1.372 . S
C2255 C2254 1.372 . S
C2255 C2256 1.400 . S
C2255 C2260 1.490 . S
C2256 H2246 0.930 . S
C2256 C2255 1.400 . S
C2256 C2259 1.386 . S
H2257 C2273 0.930 . S
H2258 C2274 0.931 . S
C2259 H2247 0.953 . S
C2259 C2253 1.390 . S
C2259 C2256 1.386 . S
C2260 C2255 1.490 . S
C2260 C2262 1.395 . S
C2260 C2263 1.403 . S
H2261 C2267 0.930 . S
C2262 H2248 0.930 . S
C2262 C2260 1.395 . S
C2262 C2265 1.403 . S
C2263 C2260 1.403 . S
C2263 C2264 1.524 . S
C2263 C2267 1.400 . S
C2264 H2249 0.960 . S
C2264 H2250 0.960 . S
C2264 H2251 0.960 . S
C2264 C2263 1.524 . S
C2265 C2262 1.403 . S
C2265 C2266 1.392 . S
C2265 C2269 1.495 . S
C2266 C2265 1.392 . S
C2266 C2267 1.385 . S
C2266 C2268 1.478 . S
C2267 H2261 0.930 . S
C2267 C2263 1.400 . S
C2267 C2266 1.385 . S
C2268 C2266 1.478 . S
C2268 C2270 1.381 . S
C2268 C2274 1.383 . S
C2269 C2265 1.495 . S
C2269 H2275 0.959 . S
C2269 H2276 0.961 . S
C2269 H2277 0.960 . S
C2270 C2268 1.381 . S
C2270 C2271 1.394 . S
C2270 H2278 0.930 . S
C2271 C2270 1.394 . S
C2271 C2272 1.383 . S
C2271 H2279 0.929 . S
C2272 C2271 1.383 . S
C2272 C2273 1.377 . S
C2273 H2257 0.930 . S
C2273 C2272 1.377 . S
C2273 C2274 1.379 . S
C2274 H2258 0.931 . S
C2274 C2268 1.383 . S
C2274 C2273 1.379 . S
H2275 C2269 0.959 . S
H2276 C2269 0.961 . S
H2277 C2269 0.960 . S
H2278 C2270 0.930 . S
H2279 C2271 0.929 . S
H2280 C2288 0.929 . S
H2281 C2290 0.930 . S
H2282 C2292 0.930 . S
H2283 C2295 0.929 . S
H2284 C2298 0.930 . S
H2285 C2300 0.960 . S
H2286 C2300 0.960 . S
H2287 C2300 0.960 . S
C2288 H2280 0.929 . S
C2288 C2289 1.377 . S
C2288 C2290 1.384 . S
C2289 C2288 1.377 . S
C2289 C2295 1.390 . S
C2290 H2281 0.930 . S
C2290 C2288 1.384 . S
C2290 C2291 1.372 . S
C2291 C2290 1.372 . S
C2291 C2292 1.400 . S
C2291 C2296 1.490 . S
C2292 H2282 0.930 . S
C2292 C2291 1.400 . S
C2292 C2295 1.386 . S
H2293 C2309 0.930 . S
H2294 C2310 0.931 . S
C2295 H2283 0.929 . S
C2295 C2289 1.390 . S
C2295 C2292 1.386 . S
C2296 C2291 1.490 . S
C2296 C2298 1.395 . S
C2296 C2299 1.403 . S
H2297 C2303 0.930 . S
C2298 H2284 0.930 . S
C2298 C2296 1.395 . S
C2298 C2301 1.403 . S
C2299 C2296 1.403 . S
C2299 C2300 1.524 . S
C2299 C2303 1.400 . S
C2300 H2285 0.960 . S
C2300 H2286 0.960 . S
C2300 H2287 0.960 . S
C2300 C2299 1.524 . S
C2301 C2298 1.403 . S
C2301 C2302 1.392 . S
C2301 C2305 1.495 . S
C2302 C2301 1.392 . S
C2302 C2303 1.385 . S
C2302 C2304 1.478 . S
C2303 H2297 0.930 . S
C2303 C2299 1.400 . S
C2303 C2302 1.385 . S
C2304 C2302 1.478 . S
C2304 C2306 1.381 . S
C2304 C2310 1.383 . S
C2305 C2301 1.495 . S
C2305 H2311 0.959 . S
C2305 H2312 0.961 . S
C2305 H2313 0.960 . S
C2306 C2304 1.381 . S
C2306 C2307 1.394 . S
C2306 H2314 0.930 . S
C2307 C2306 1.394 . S
C2307 C2308 1.383 . S
C2307 H2315 0.929 . S
C2308 C2307 1.383 . S
C2308 C2309 1.377 . S
C2309 H2293 0.930 . S
C2309 C2308 1.377 . S
C2309 C2310 1.379 . S
C2310 H2294 0.931 . S
C2310 C2304 1.383 . S
C2310 C2309 1.379 . S
H2311 C2305 0.959 . S
H2312 C2305 0.961 . S
H2313 C2305 0.960 . S
H2314 C2306 0.930 . S
H2315 C2307 0.929 . S
H2316 C2324 0.929 . S
H2317 C2326 0.930 . S
H2318 C2328 0.930 . S
H2319 C2331 0.942 . S
H2320 C2334 0.930 . S
H2321 C2336 0.960 . S
H2322 C2336 0.960 . S
H2323 C2336 0.960 . S
C2324 H2316 0.929 . S
C2324 C2325 1.377 . S
C2324 C2326 1.384 . S
C2325 C2324 1.377 . S
C2325 C2331 1.390 . S
C2326 H2317 0.930 . S
C2326 C2324 1.384 . S
C2326 C2327 1.372 . S
C2327 C2326 1.372 . S
C2327 C2328 1.400 . S
C2327 C2332 1.490 . S
C2328 H2318 0.930 . S
C2328 C2327 1.400 . S
C2328 C2331 1.386 . S
H2329 C2345 0.930 . S
H2330 C2346 0.931 . S
C2331 H2319 0.942 . S
C2331 C2325 1.390 . S
C2331 C2328 1.386 . S
C2332 C2327 1.490 . S
C2332 C2334 1.395 . S
C2332 C2335 1.403 . S
H2333 C2339 0.930 . S
C2334 H2320 0.930 . S
C2334 C2332 1.395 . S
C2334 C2337 1.403 . S
C2335 C2332 1.403 . S
C2335 C2336 1.524 . S
C2335 C2339 1.400 . S
C2336 H2321 0.960 . S
C2336 H2322 0.960 . S
C2336 H2323 0.960 . S
C2336 C2335 1.524 . S
C2337 C2334 1.403 . S
C2337 C2338 1.392 . S
C2337 C2341 1.495 . S
C2338 C2337 1.392 . S
C2338 C2339 1.385 . S
C2338 C2340 1.478 . S
C2339 H2333 0.930 . S
C2339 C2335 1.400 . S
C2339 C2338 1.385 . S
C2340 C2338 1.478 . S
C2340 C2342 1.381 . S
C2340 C2346 1.383 . S
C2341 C2337 1.495 . S
C2341 H2347 0.959 . S
C2341 H2348 0.961 . S
C2341 H2349 0.960 . S
C2342 C2340 1.381 . S
C2342 C2343 1.394 . S
C2342 H2350 0.930 . S
C2343 C2342 1.394 . S
C2343 C2344 1.383 . S
C2343 H2351 0.929 . S
C2344 C2343 1.383 . S
C2344 C2345 1.377 . S
C2345 H2329 0.930 . S
C2345 C2344 1.377 . S
C2345 C2346 1.379 . S
C2346 H2330 0.931 . S
C2346 C2340 1.383 . S
C2346 C2345 1.379 . S
H2347 C2341 0.959 . S
H2348 C2341 0.961 . S
H2349 C2341 0.960 . S
H2350 C2342 0.930 . S
H2351 C2343 0.929 . S
H2352 C2360 0.929 . S
H2353 C2362 0.930 . S
H2354 C2364 0.930 . S
H2355 C2367 0.929 . S
H2356 C2370 0.930 . S
H2357 C2372 0.960 . S
H2358 C2372 0.960 . S
H2359 C2372 0.960 . S
C2360 H2352 0.929 . S
C2360 C2361 1.377 . S
C2360 C2362 1.384 . S
C2361 C2360 1.377 . S
C2361 C2367 1.390 . S
C2362 H2353 0.930 . S
C2362 C2360 1.384 . S
C2362 C2363 1.372 . S
C2363 C2362 1.372 . S
C2363 C2364 1.400 . S
C2363 C2368 1.490 . S
C2364 H2354 0.930 . S
C2364 C2363 1.400 . S
C2364 C2367 1.386 . S
H2365 C2381 0.930 . S
H2366 C2382 0.931 . S
C2367 H2355 0.929 . S
C2367 C2361 1.390 . S
C2367 C2364 1.386 . S
C2368 C2363 1.490 . S
C2368 C2370 1.395 . S
C2368 C2371 1.403 . S
H2369 C2375 0.930 . S
C2370 H2356 0.930 . S
C2370 C2368 1.395 . S
C2370 C2373 1.403 . S
C2371 C2368 1.403 . S
C2371 C2372 1.524 . S
C2371 C2375 1.400 . S
C2372 H2357 0.960 . S
C2372 H2358 0.960 . S
C2372 H2359 0.960 . S
C2372 C2371 1.524 . S
C2373 C2370 1.403 . S
C2373 C2374 1.392 . S
C2373 C2377 1.495 . S
C2374 C2373 1.392 . S
C2374 C2375 1.385 . S
C2374 C2376 1.478 . S
C2375 H2369 0.930 . S
C2375 C2371 1.400 . S
C2375 C2374 1.385 . S
C2376 C2374 1.478 . S
C2376 C2378 1.381 . S
C2376 C2382 1.383 . S
C2377 C2373 1.495 . S
C2377 H2383 0.959 . S
C2377 H2384 0.961 . S
C2377 H2385 0.960 . S
C2378 C2376 1.381 . S
C2378 C2379 1.394 . S
C2378 H2386 0.930 . S
C2379 C2378 1.394 . S
C2379 C2380 1.383 . S
C2379 H2387 0.929 . S
C2380 C2379 1.383 . S
C2380 C2381 1.377 . S
C2381 H2365 0.930 . S
C2381 C2380 1.377 . S
C2381 C2382 1.379 . S
C2382 H2366 0.931 . S
C2382 C2376 1.383 . S
C2382 C2381 1.379 . S
H2383 C2377 0.959 . S
H2384 C2377 0.961 . S
H2385 C2377 0.960 . S
H2386 C2378 0.930 . S
H2387 C2379 0.929 . S
H2388 C2396 0.929 . S
H2389 C2398 0.930 . S
H2390 C2400 0.930 . S
H2391 C2403 0.929 . S
H2392 C2406 0.930 . S
H2393 C2408 0.960 . S
H2394 C2408 0.960 . S
H2395 C2408 0.960 . S
C2396 H2388 0.929 . S
C2396 C2397 1.371 . S
C2396 C2398 1.384 . S
C2397 C2396 1.371 . S
C2397 C2403 1.396 1_556 S
C2398 H2389 0.930 . S
C2398 C2396 1.384 . S
C2398 C2399 1.372 . S
C2399 C2398 1.372 . S
C2399 C2400 1.400 1_556 S
C2399 C2404 1.490 . S
C2400 H2390 0.930 . S
C2400 C2399 1.400 1_554 S
C2400 C2403 1.386 . S
H2401 C2417 0.930 . S
H2402 C2418 0.931 . S
C2403 H2391 0.929 . S
C2403 C2397 1.396 1_554 S
C2403 C2400 1.386 . S
C2404 C2399 1.490 . S
C2404 C2406 1.395 . S
C2404 C2407 1.403 1_556 S
H2405 C2411 0.930 . S
C2406 H2392 0.930 . S
C2406 C2404 1.395 . S
C2406 C2409 1.403 . S
C2407 C2404 1.403 1_554 S
C2407 C2408 1.524 . S
C2407 C2411 1.400 . S
C2408 H2393 0.960 . S
C2408 H2394 0.960 . S
C2408 H2395 0.960 . S
C2408 C2407 1.524 . S
C2409 C2406 1.403 . S
C2409 C2410 1.392 . S
C2409 C2413 1.495 . S
C2410 C2409 1.392 . S
C2410 C2411 1.385 1_556 S
C2410 C2412 1.478 . S
C2411 H2405 0.930 . S
C2411 C2407 1.400 . S
C2411 C2410 1.385 1_554 S
C2412 C2410 1.478 . S
C2412 C2414 1.381 . S
C2412 C2418 1.383 1_556 S
C2413 C2409 1.495 . S
C2413 H2419 0.959 . S
C2413 H2420 0.961 . S
C2413 H2421 0.960 . S
C2414 C2412 1.381 . S
C2414 C2415 1.394 . S
C2414 H2422 0.930 . S
C2415 C2414 1.394 . S
C2415 C2416 1.383 . S
C2415 H2423 0.929 . S
C2416 C2415 1.383 . S
C2416 C2417 1.377 1_556 S
C2417 H2401 0.930 . S
C2417 C2416 1.377 1_554 S
C2417 C2418 1.379 . S
C2418 H2402 0.931 . S
C2418 C2412 1.383 1_554 S
C2418 C2417 1.379 . S
H2419 C2413 0.959 . S
H2420 C2413 0.961 . S
H2421 C2413 0.960 . S
H2422 C2414 0.930 . S
H2423 C2415 0.929 . S
H2424 C2432 0.929 . S
H2425 C2434 0.930 . S
H2426 C2436 0.930 . S
H2427 C2439 0.929 . S
H2428 C2442 0.930 . S
H2429 C2444 0.960 . S
H2430 C2444 0.960 . S
H2431 C2444 0.960 . S
C2432 H2424 0.929 . S
C2432 C2433 1.377 . S
C2432 C2434 1.384 . S
C2433 C2432 1.377 . S
C2433 C2439 1.390 . S
C2434 H2425 0.930 . S
C2434 C2432 1.384 . S
C2434 C2435 1.372 . S
C2435 C2434 1.372 . S
C2435 C2436 1.400 . S
C2435 C2440 1.490 . S
C2436 H2426 0.930 . S
C2436 C2435 1.400 . S
C2436 C2439 1.386 . S
H2437 C2453 0.930 . S
H2438 C2454 0.931 . S
C2439 H2427 0.929 . S
C2439 C2433 1.390 . S
C2439 C2436 1.386 . S
C2440 C2435 1.490 . S
C2440 C2442 1.395 . S
C2440 C2443 1.403 . S
H2441 C2447 0.930 . S
C2442 H2428 0.930 . S
C2442 C2440 1.395 . S
C2442 C2445 1.403 . S
C2443 C2440 1.403 . S
C2443 C2444 1.524 . S
C2443 C2447 1.400 . S
C2444 H2429 0.960 . S
C2444 H2430 0.960 . S
C2444 H2431 0.960 . S
C2444 C2443 1.524 . S
C2445 C2442 1.403 . S
C2445 C2446 1.392 . S
C2445 C2449 1.495 . S
C2446 C2445 1.392 . S
C2446 C2447 1.385 . S
C2446 C2448 1.478 . S
C2447 H2441 0.930 . S
C2447 C2443 1.400 . S
C2447 C2446 1.385 . S
C2448 C2446 1.478 . S
C2448 C2450 1.381 . S
C2448 C2454 1.383 . S
C2449 C2445 1.495 . S
C2449 H2455 0.959 . S
C2449 H2456 0.961 . S
C2449 H2457 0.960 . S
C2450 C2448 1.381 . S
C2450 C2451 1.394 . S
C2450 H2458 0.930 . S
C2451 C2450 1.394 . S
C2451 C2452 1.383 . S
C2451 H2459 0.929 . S
C2452 C2451 1.383 . S
C2452 C2453 1.377 . S
C2453 H2437 0.930 . S
C2453 C2452 1.377 . S
C2453 C2454 1.379 . S
C2454 H2438 0.931 . S
C2454 C2448 1.383 . S
C2454 C2453 1.379 . S
H2455 C2449 0.959 . S
H2456 C2449 0.961 . S
H2457 C2449 0.960 . S
H2458 C2450 0.930 . S
H2459 C2451 0.929 . S
H2460 C2468 0.929 . S
H2461 C2470 0.930 . S
H2462 C2472 0.930 . S
H2463 C2475 0.929 . S
H2464 C2478 0.930 . S
H2465 C2480 0.960 . S
H2466 C2480 0.960 . S
H2467 C2480 0.960 . S
C2468 H2460 0.929 . S
C2468 C2469 1.377 . S
C2468 C2470 1.384 . S
C2469 C2468 1.377 . S
C2469 C2475 1.390 . S
C2470 H2461 0.930 . S
C2470 C2468 1.384 . S
C2470 C2471 1.372 . S
C2471 C2470 1.372 . S
C2471 C2472 1.400 . S
C2471 C2476 1.490 . S
C2472 H2462 0.930 . S
C2472 C2471 1.400 . S
C2472 C2475 1.386 . S
H2473 C2489 0.930 . S
H2474 C2490 0.931 . S
C2475 H2463 0.929 . S
C2475 C2469 1.390 . S
C2475 C2472 1.386 . S
C2476 C2471 1.490 . S
C2476 C2478 1.395 . S
C2476 C2479 1.403 . S
H2477 C2483 0.930 . S
C2478 H2464 0.930 . S
C2478 C2476 1.395 . S
C2478 C2481 1.403 . S
C2479 C2476 1.403 . S
C2479 C2480 1.524 . S
C2479 C2483 1.400 . S
C2480 H2465 0.960 . S
C2480 H2466 0.960 . S
C2480 H2467 0.960 . S
C2480 C2479 1.524 . S
C2481 C2478 1.403 . S
C2481 C2482 1.392 . S
C2481 C2485 1.495 . S
C2482 C2481 1.392 . S
C2482 C2483 1.385 . S
C2482 C2484 1.478 . S
C2483 H2477 0.930 . S
C2483 C2479 1.400 . S
C2483 C2482 1.385 . S
C2484 C2482 1.478 . S
C2484 C2486 1.381 . S
C2484 C2490 1.383 . S
C2485 C2481 1.495 . S
C2485 H2491 0.959 . S
C2485 H2492 0.961 . S
C2485 H2493 0.960 . S
C2486 C2484 1.381 . S
C2486 C2487 1.394 . S
C2486 H2494 0.930 . S
C2487 C2486 1.394 . S
C2487 C2488 1.383 . S
C2487 H2495 0.929 . S
C2488 C2487 1.383 . S
C2488 C2489 1.377 . S
C2489 H2473 0.930 . S
C2489 C2488 1.377 . S
C2489 C2490 1.379 . S
C2490 H2474 0.931 . S
C2490 C2484 1.383 . S
C2490 C2489 1.379 . S
H2491 C2485 0.959 . S
H2492 C2485 0.961 . S
H2493 C2485 0.960 . S
H2494 C2486 0.930 . S
H2495 C2487 0.929 . S
H2496 C2504 0.929 . S
H2497 C2506 0.930 . S
H2498 C2508 0.930 . S
H2499 C2511 0.929 . S
H2500 C2514 0.930 . S
H2501 C2516 0.960 . S
H2502 C2516 0.960 . S
H2503 C2516 0.960 . S
C2504 H2496 0.929 . S
C2504 C2505 1.377 . S
C2504 C2506 1.384 . S
C2505 C2504 1.377 . S
C2505 C2511 1.390 . S
C2506 H2497 0.930 . S
C2506 C2504 1.384 . S
C2506 C2507 1.372 . S
C2507 C2506 1.372 . S
C2507 C2508 1.400 . S
C2507 C2512 1.490 . S
C2508 H2498 0.930 . S
C2508 C2507 1.400 . S
C2508 C2511 1.386 . S
H2509 C2525 0.930 . S
H2510 C2526 0.931 . S
C2511 H2499 0.929 . S
C2511 C2505 1.390 . S
C2511 C2508 1.386 . S
C2512 C2507 1.490 . S
C2512 C2514 1.395 . S
C2512 C2515 1.403 . S
H2513 C2519 0.930 . S
C2514 H2500 0.930 . S
C2514 C2512 1.395 . S
C2514 C2517 1.403 . S
C2515 C2512 1.403 . S
C2515 C2516 1.524 . S
C2515 C2519 1.400 . S
C2516 H2501 0.960 . S
C2516 H2502 0.960 . S
C2516 H2503 0.960 . S
C2516 C2515 1.524 . S
C2517 C2514 1.403 . S
C2517 C2518 1.392 . S
C2517 C2521 1.495 . S
C2518 C2517 1.392 . S
C2518 C2519 1.385 . S
C2518 C2520 1.478 . S
C2519 H2513 0.930 . S
C2519 C2515 1.400 . S
C2519 C2518 1.385 . S
C2520 C2518 1.478 . S
C2520 C2522 1.381 . S
C2520 C2526 1.383 . S
C2521 C2517 1.495 . S
C2521 H2527 0.959 . S
C2521 H2528 0.961 . S
C2521 H2529 0.960 . S
C2522 C2520 1.381 . S
C2522 C2523 1.394 . S
C2522 H2530 0.930 . S
C2523 C2522 1.394 . S
C2523 C2524 1.383 . S
C2523 H2531 0.929 . S
C2524 C2523 1.383 . S
C2524 C2525 1.377 . S
C2525 H2509 0.930 . S
C2525 C2524 1.377 . S
C2525 C2526 1.379 . S
C2526 H2510 0.931 . S
C2526 C2520 1.383 . S
C2526 C2525 1.379 . S
H2527 C2521 0.959 . S
H2528 C2521 0.961 . S
H2529 C2521 0.960 . S
H2530 C2522 0.930 . S
H2531 C2523 0.929 . S
H2532 C2540 0.929 . S
H2533 C2542 0.930 . S
H2534 C2544 0.930 . S
H2535 C2547 0.929 . S
H2536 C2550 0.930 . S
H2537 C2552 0.960 . S
H2538 C2552 0.960 . S
H2539 C2552 0.960 . S
C2540 H2532 0.929 . S
C2540 C2541 1.377 . S
C2540 C2542 1.384 . S
C2541 C2540 1.377 . S
C2541 C2547 1.390 1_655 S
C2542 H2533 0.930 . S
C2542 C2540 1.384 . S
C2542 C2543 1.379 . S
C2543 C2542 1.379 . S
C2543 C2544 1.398 1_655 S
C2543 C2548 1.489 . S
C2544 H2534 0.930 . S
C2544 C2543 1.398 1_455 S
C2544 C2547 1.386 . S
H2545 C2561 0.930 . S
H2546 C2562 0.931 . S
C2547 H2535 0.929 . S
C2547 C2541 1.390 1_455 S
C2547 C2544 1.386 . S
C2548 C2543 1.489 . S
C2548 C2550 1.370 1_655 S
C2548 C2551 1.424 . S
H2549 C2555 0.930 . S
C2550 H2536 0.930 . S
C2550 C2548 1.370 1_455 S
C2550 C2553 1.403 . S
C2551 C2548 1.424 . S
C2551 C2552 1.524 . S
C2551 C2555 1.400 . S
C2552 H2537 0.960 . S
C2552 H2538 0.960 . S
C2552 H2539 0.960 . S
C2552 C2551 1.524 . S
C2553 C2550 1.403 . S
C2553 C2554 1.392 . S
C2553 C2557 1.495 . S
C2554 C2553 1.392 . S
C2554 C2555 1.385 1_455 S
C2554 C2556 1.478 . S
C2555 H2549 0.930 . S
C2555 C2551 1.400 . S
C2555 C2554 1.385 1_655 S
C2556 C2554 1.478 . S
C2556 C2558 1.381 1_455 S
C2556 C2562 1.383 . S
C2557 C2553 1.495 . S
C2557 H2563 0.959 . S
C2557 H2564 0.961 . S
C2557 H2565 0.960 . S
C2558 C2556 1.381 1_655 S
C2558 C2559 1.394 . S
C2558 H2566 0.930 . S
C2559 C2558 1.394 . S
C2559 C2560 1.395 . S
C2559 H2567 0.929 . S
C2560 C2559 1.395 . S
C2560 C2561 1.368 1_655 S
C2561 H2545 0.930 . S
C2561 C2560 1.368 1_455 S
C2561 C2562 1.379 . S
C2562 H2546 0.931 . S
C2562 C2556 1.383 . S
C2562 C2561 1.379 . S
H2563 C2557 0.959 . S
H2564 C2557 0.961 . S
H2565 C2557 0.960 . S
H2566 C2558 0.930 . S
H2567 C2559 0.929 . S
H2568 C2576 0.929 . S
H2569 C2578 0.930 . S
H2570 C2580 0.930 . S
H2571 C2583 0.929 . S
H2572 C2586 0.930 . S
H2573 C2588 0.960 . S
H2574 C2588 0.960 . S
H2575 C2588 0.960 . S
C2576 H2568 0.929 . S
C2576 C2577 1.377 . S
C2576 C2578 1.384 . S
C2577 C2576 1.377 . S
C2577 C2583 1.390 . S
C2578 H2569 0.930 . S
C2578 C2576 1.384 . S
C2578 C2579 1.372 . S
C2579 C2578 1.372 . S
C2579 C2580 1.400 . S
C2579 C2584 1.490 . S
C2580 H2570 0.930 . S
C2580 C2579 1.400 . S
C2580 C2583 1.386 . S
H2581 C2597 0.930 . S
H2582 C2598 0.931 . S
C2583 H2571 0.929 . S
C2583 C2577 1.390 . S
C2583 C2580 1.386 . S
C2584 C2579 1.490 . S
C2584 C2586 1.395 . S
C2584 C2587 1.403 . S
H2585 C2591 0.930 . S
C2586 H2572 0.930 . S
C2586 C2584 1.395 . S
C2586 C2589 1.403 . S
C2587 C2584 1.403 . S
C2587 C2588 1.524 . S
C2587 C2591 1.400 . S
C2588 H2573 0.960 . S
C2588 H2574 0.960 . S
C2588 H2575 0.960 . S
C2588 C2587 1.524 . S
C2589 C2586 1.403 . S
C2589 C2590 1.392 . S
C2589 C2593 1.495 . S
C2590 C2589 1.392 . S
C2590 C2591 1.385 . S
C2590 C2592 1.478 . S
C2591 H2585 0.930 . S
C2591 C2587 1.400 . S
C2591 C2590 1.385 . S
C2592 C2590 1.478 . S
C2592 C2594 1.381 . S
C2592 C2598 1.383 . S
C2593 C2589 1.495 . S
C2593 H2599 0.959 . S
C2593 H2600 0.961 . S
C2593 H2601 0.960 . S
C2594 C2592 1.381 . S
C2594 C2595 1.394 . S
C2594 H2602 0.930 . S
C2595 C2594 1.394 . S
C2595 C2596 1.383 . S
C2595 H2603 0.929 . S
C2596 C2595 1.383 . S
C2596 C2597 1.377 . S
C2597 H2581 0.930 . S
C2597 C2596 1.377 . S
C2597 C2598 1.379 . S
C2598 H2582 0.931 . S
C2598 C2592 1.383 . S
C2598 C2597 1.379 . S
H2599 C2593 0.959 . S
H2600 C2593 0.961 . S
H2601 C2593 0.960 . S
H2602 C2594 0.930 . S
H2603 C2595 0.929 . S
H2604 C2612 0.929 . S
H2605 C2614 0.930 . S
H2606 C2616 0.930 . S
H2607 C2619 0.929 . S
H2608 C2622 0.930 . S
H2609 C2624 0.960 . S
H2610 C2624 0.960 . S
H2611 C2624 0.960 . S
C2612 H2604 0.929 . S
C2612 C2613 1.377 . S
C2612 C2614 1.384 . S
C2613 C2612 1.377 . S
C2613 C2619 1.390 . S
C2614 H2605 0.930 . S
C2614 C2612 1.384 . S
C2614 C2615 1.372 . S
C2615 C2614 1.372 . S
C2615 C2616 1.400 . S
C2615 C2620 1.490 . S
C2616 H2606 0.930 . S
C2616 C2615 1.400 . S
C2616 C2619 1.386 . S
H2617 C2633 0.930 . S
H2618 C2634 0.931 . S
C2619 H2607 0.929 . S
C2619 C2613 1.390 . S
C2619 C2616 1.386 . S
C2620 C2615 1.490 . S
C2620 C2622 1.395 . S
C2620 C2623 1.403 . S
H2621 C2627 0.930 . S
C2622 H2608 0.930 . S
C2622 C2620 1.395 . S
C2622 C2625 1.403 . S
C2623 C2620 1.403 . S
C2623 C2624 1.524 . S
C2623 C2627 1.400 . S
C2624 H2609 0.960 . S
C2624 H2610 0.960 . S
C2624 H2611 0.960 . S
C2624 C2623 1.524 . S
C2625 C2622 1.403 . S
C2625 C2626 1.392 . S
C2625 C2629 1.495 . S
C2626 C2625 1.392 . S
C2626 C2627 1.385 . S
C2626 C2628 1.478 . S
C2627 H2621 0.930 . S
C2627 C2623 1.400 . S
C2627 C2626 1.385 . S
C2628 C2626 1.478 . S
C2628 C2630 1.381 . S
C2628 C2634 1.383 . S
C2629 C2625 1.495 . S
C2629 H2635 0.959 . S
C2629 H2636 0.961 . S
C2629 H2637 0.960 . S
C2630 C2628 1.381 . S
C2630 C2631 1.394 . S
C2630 H2638 0.930 . S
C2631 C2630 1.394 . S
C2631 C2632 1.383 . S
C2631 H2639 0.929 . S
C2632 C2631 1.383 . S
C2632 C2633 1.377 . S
C2633 H2617 0.930 . S
C2633 C2632 1.377 . S
C2633 C2634 1.379 . S
C2634 H2618 0.931 . S
C2634 C2628 1.383 . S
C2634 C2633 1.379 . S
H2635 C2629 0.959 . S
H2636 C2629 0.961 . S
H2637 C2629 0.960 . S
H2638 C2630 0.930 . S
H2639 C2631 0.929 . S
H2640 C2648 0.929 . S
H2641 C2650 0.930 . S
H2642 C2652 0.930 . S
H2643 C2655 0.929 . S
H2644 C2658 0.930 . S
H2645 C2660 0.960 . S
H2646 C2660 0.960 . S
H2647 C2660 0.960 . S
C2648 H2640 0.929 . S
C2648 C2649 1.384 . S
C2648 C2650 1.384 . S
C2649 C2648 1.384 . S
C2649 C2655 1.385 1_565 S
C2650 H2641 0.930 . S
C2650 C2648 1.384 . S
C2650 C2651 1.374 1_565 S
C2651 C2650 1.374 1_545 S
C2651 C2652 1.397 . S
C2651 C2656 1.494 . S
C2652 H2642 0.930 . S
C2652 C2651 1.397 . S
C2652 C2655 1.386 . S
H2653 C2669 0.930 . S
H2654 C2670 0.931 . S
C2655 H2643 0.929 . S
C2655 C2649 1.385 1_545 S
C2655 C2652 1.386 . S
C2656 C2651 1.494 . S
C2656 C2658 1.424 . S
C2656 C2659 1.372 1_545 S
H2657 C2663 0.930 . S
C2658 H2644 0.930 . S
C2658 C2656 1.424 . S
C2658 C2661 1.403 . S
C2659 C2656 1.372 1_565 S
C2659 C2660 1.524 . S
C2659 C2663 1.400 . S
C2660 H2645 0.960 . S
C2660 H2646 0.960 . S
C2660 H2647 0.960 . S
C2660 C2659 1.524 . S
C2661 C2658 1.403 . S
C2661 C2662 1.392 . S
C2661 C2665 1.495 . S
C2662 C2661 1.392 . S
C2662 C2663 1.385 1_545 S
C2662 C2664 1.478 . S
C2663 H2657 0.930 . S
C2663 C2659 1.400 . S
C2663 C2662 1.385 1_565 S
C2664 C2662 1.478 . S
C2664 C2666 1.366 1_545 S
C2664 C2670 1.383 . S
C2665 C2661 1.495 . S
C2665 H2671 0.959 . S
C2665 H2672 0.961 . S
C2665 H2673 0.960 . S
C2666 C2664 1.366 1_565 S
C2666 C2667 1.400 . S
C2666 H2674 0.943 . S
C2667 C2666 1.400 . S
C2667 C2668 1.383 1_565 S
C2667 H2675 0.929 . S
C2668 C2667 1.383 1_545 S
C2668 C2669 1.377 . S
C2669 H2653 0.930 . S
C2669 C2668 1.377 . S
C2669 C2670 1.379 . S
C2670 H2654 0.931 . S
C2670 C2664 1.383 . S
C2670 C2669 1.379 . S
H2671 C2665 0.959 . S
H2672 C2665 0.961 . S
H2673 C2665 0.960 . S
H2674 C2666 0.943 . S
H2675 C2667 0.929 . S
H2676 C2684 0.929 . S
H2677 C2686 0.930 . S
H2678 C2688 0.930 . S
H2679 C2691 0.929 . S
H2680 C2694 0.930 . S
H2681 C2696 0.960 . S
H2682 C2696 0.960 . S
H2683 C2696 0.960 . S
C2684 H2676 0.929 . S
C2684 C2685 1.377 . S
C2684 C2686 1.384 . S
C2685 C2684 1.377 . S
C2685 C2691 1.390 . S
C2686 H2677 0.930 . S
C2686 C2684 1.384 . S
C2686 C2687 1.372 . S
C2687 C2686 1.372 . S
C2687 C2688 1.400 . S
C2687 C2692 1.490 . S
C2688 H2678 0.930 . S
C2688 C2687 1.400 . S
C2688 C2691 1.386 . S
H2689 C2705 0.930 . S
H2690 C2706 0.931 . S
C2691 H2679 0.929 . S
C2691 C2685 1.390 . S
C2691 C2688 1.386 . S
C2692 C2687 1.490 . S
C2692 C2694 1.395 . S
C2692 C2695 1.403 . S
H2693 C2699 0.930 . S
C2694 H2680 0.930 . S
C2694 C2692 1.395 . S
C2694 C2697 1.403 . S
C2695 C2692 1.403 . S
C2695 C2696 1.524 . S
C2695 C2699 1.400 . S
C2696 H2681 0.960 . S
C2696 H2682 0.960 . S
C2696 H2683 0.960 . S
C2696 C2695 1.524 . S
C2697 C2694 1.403 . S
C2697 C2698 1.392 . S
C2697 C2701 1.495 . S
C2698 C2697 1.392 . S
C2698 C2699 1.385 . S
C2698 C2700 1.478 . S
C2699 H2693 0.930 . S
C2699 C2695 1.400 . S
C2699 C2698 1.385 . S
C2700 C2698 1.478 . S
C2700 C2702 1.381 . S
C2700 C2706 1.383 . S
C2701 C2697 1.495 . S
C2701 H2707 0.959 . S
C2701 H2708 0.961 . S
C2701 H2709 0.960 . S
C2702 C2700 1.381 . S
C2702 C2703 1.394 . S
C2702 H2710 0.930 . S
C2703 C2702 1.394 . S
C2703 C2704 1.383 . S
C2703 H2711 0.929 . S
C2704 C2703 1.383 . S
C2704 C2705 1.377 . S
C2705 H2689 0.930 . S
C2705 C2704 1.377 . S
C2705 C2706 1.379 . S
C2706 H2690 0.931 . S
C2706 C2700 1.383 . S
C2706 C2705 1.379 . S
H2707 C2701 0.959 . S
H2708 C2701 0.961 . S
H2709 C2701 0.960 . S
H2710 C2702 0.930 . S
H2711 C2703 0.929 . S
H2712 C2720 0.929 . S
H2713 C2722 0.930 . S
H2714 C2724 0.930 . S
H2715 C2727 0.929 . S
H2716 C2730 0.930 . S
H2717 C2732 0.960 . S
H2718 C2732 0.960 . S
H2719 C2732 0.960 . S
C2720 H2712 0.929 . S
C2720 C2721 1.377 . S
C2720 C2722 1.384 . S
C2721 C2720 1.377 . S
C2721 C2727 1.390 . S
C2722 H2713 0.930 . S
C2722 C2720 1.384 . S
C2722 C2723 1.372 . S
C2723 C2722 1.372 . S
C2723 C2724 1.400 . S
C2723 C2728 1.490 . S
C2724 H2714 0.930 . S
C2724 C2723 1.400 . S
C2724 C2727 1.386 . S
H2725 C2741 0.930 . S
H2726 C2742 0.931 . S
C2727 H2715 0.929 . S
C2727 C2721 1.390 . S
C2727 C2724 1.386 . S
C2728 C2723 1.490 . S
C2728 C2730 1.395 . S
C2728 C2731 1.403 . S
H2729 C2735 0.930 . S
C2730 H2716 0.930 . S
C2730 C2728 1.395 . S
C2730 C2733 1.403 . S
C2731 C2728 1.403 . S
C2731 C2732 1.524 . S
C2731 C2735 1.400 . S
C2732 H2717 0.960 . S
C2732 H2718 0.960 . S
C2732 H2719 0.960 . S
C2732 C2731 1.524 . S
C2733 C2730 1.403 . S
C2733 C2734 1.392 . S
C2733 C2737 1.495 . S
C2734 C2733 1.392 . S
C2734 C2735 1.385 . S
C2734 C2736 1.478 . S
C2735 H2729 0.930 . S
C2735 C2731 1.400 . S
C2735 C2734 1.385 . S
C2736 C2734 1.478 . S
C2736 C2738 1.381 . S
C2736 C2742 1.383 . S
C2737 C2733 1.495 . S
C2737 H2743 0.959 . S
C2737 H2744 0.961 . S
C2737 H2745 0.960 . S
C2738 C2736 1.381 . S
C2738 C2739 1.394 . S
C2738 H2746 0.930 . S
C2739 C2738 1.394 . S
C2739 C2740 1.383 . S
C2739 H2747 0.929 . S
C2740 C2739 1.383 . S
C2740 C2741 1.377 . S
C2741 H2725 0.930 . S
C2741 C2740 1.377 . S
C2741 C2742 1.379 . S
C2742 H2726 0.931 . S
C2742 C2736 1.383 . S
C2742 C2741 1.379 . S
H2743 C2737 0.959 . S
H2744 C2737 0.961 . S
H2745 C2737 0.960 . S
H2746 C2738 0.930 . S
H2747 C2739 0.929 . S
H2748 C2756 0.929 . S
H2749 C2758 0.930 . S
H2750 C2760 0.930 . S
H2751 C2763 0.929 . S
H2752 C2766 0.930 . S
H2753 C2768 0.960 . S
H2754 C2768 0.960 . S
H2755 C2768 0.960 . S
C2756 H2748 0.929 . S
C2756 C2757 1.377 . S
C2756 C2758 1.384 . S
C2757 C2756 1.377 . S
C2757 C2763 1.390 . S
C2758 H2749 0.930 . S
C2758 C2756 1.384 . S
C2758 C2759 1.372 . S
C2759 C2758 1.372 . S
C2759 C2760 1.400 . S
C2759 C2764 1.490 . S
C2760 H2750 0.930 . S
C2760 C2759 1.400 . S
C2760 C2763 1.386 . S
H2761 C2777 0.930 . S
H2762 C2778 0.931 . S
C2763 H2751 0.929 . S
C2763 C2757 1.390 . S
C2763 C2760 1.386 . S
C2764 C2759 1.490 . S
C2764 C2766 1.395 . S
C2764 C2767 1.403 . S
H2765 C2771 0.930 . S
C2766 H2752 0.930 . S
C2766 C2764 1.395 . S
C2766 C2769 1.403 . S
C2767 C2764 1.403 . S
C2767 C2768 1.524 . S
C2767 C2771 1.400 . S
C2768 H2753 0.960 . S
C2768 H2754 0.960 . S
C2768 H2755 0.960 . S
C2768 C2767 1.524 . S
C2769 C2766 1.403 . S
C2769 C2770 1.392 . S
C2769 C2773 1.495 . S
C2770 C2769 1.392 . S
C2770 C2771 1.385 . S
C2770 C2772 1.478 . S
C2771 H2765 0.930 . S
C2771 C2767 1.400 . S
C2771 C2770 1.385 . S
C2772 C2770 1.478 . S
C2772 C2774 1.381 . S
C2772 C2778 1.383 . S
C2773 C2769 1.495 . S
C2773 H2779 0.959 . S
C2773 H2780 0.961 . S
C2773 H2781 0.960 . S
C2774 C2772 1.381 . S
C2774 C2775 1.394 . S
C2774 H2782 0.930 . S
C2775 C2774 1.394 . S
C2775 C2776 1.383 . S
C2775 H2783 0.929 . S
C2776 C2775 1.383 . S
C2776 C2777 1.377 . S
C2777 H2761 0.930 . S
C2777 C2776 1.377 . S
C2777 C2778 1.379 . S
C2778 H2762 0.931 . S
C2778 C2772 1.383 . S
C2778 C2777 1.379 . S
H2779 C2773 0.959 . S
H2780 C2773 0.961 . S
H2781 C2773 0.960 . S
H2782 C2774 0.930 . S
H2783 C2775 0.929 . S
H2784 C2792 0.929 . S
H2785 C2794 0.930 . S
H2786 C2796 0.930 . S
H2787 C2799 0.929 . S
H2788 C2802 0.930 . S
H2789 C2804 0.960 . S
H2790 C2804 0.960 . S
H2791 C2804 0.960 . S
C2792 H2784 0.929 . S
C2792 C2793 1.377 . S
C2792 C2794 1.384 . S
C2793 C2792 1.377 . S
C2793 C2799 1.390 . S
C2794 H2785 0.930 . S
C2794 C2792 1.384 . S
C2794 C2795 1.372 . S
C2795 C2794 1.372 . S
C2795 C2796 1.400 . S
C2795 C2800 1.490 . S
C2796 H2786 0.930 . S
C2796 C2795 1.400 . S
C2796 C2799 1.386 . S
H2797 C2813 0.930 . S
H2798 C2814 0.931 . S
C2799 H2787 0.929 . S
C2799 C2793 1.390 . S
C2799 C2796 1.386 . S
C2800 C2795 1.490 . S
C2800 C2802 1.395 . S
C2800 C2803 1.403 . S
H2801 C2807 0.930 . S
C2802 H2788 0.930 . S
C2802 C2800 1.395 . S
C2802 C2805 1.403 . S
C2803 C2800 1.403 . S
C2803 C2804 1.524 . S
C2803 C2807 1.400 . S
C2804 H2789 0.960 . S
C2804 H2790 0.960 . S
C2804 H2791 0.960 . S
C2804 C2803 1.524 . S
C2805 C2802 1.403 . S
C2805 C2806 1.392 . S
C2805 C2809 1.495 . S
C2806 C2805 1.392 . S
C2806 C2807 1.385 . S
C2806 C2808 1.478 . S
C2807 H2801 0.930 . S
C2807 C2803 1.400 . S
C2807 C2806 1.385 . S
C2808 C2806 1.478 . S
C2808 C2810 1.381 . S
C2808 C2814 1.383 . S
C2809 C2805 1.495 . S
C2809 H2815 0.959 . S
C2809 H2816 0.961 . S
C2809 H2817 0.960 . S
C2810 C2808 1.381 . S
C2810 C2811 1.394 . S
C2810 H2818 0.930 . S
C2811 C2810 1.394 . S
C2811 C2812 1.383 . S
C2811 H2819 0.929 . S
C2812 C2811 1.383 . S
C2812 C2813 1.377 . S
C2813 H2797 0.930 . S
C2813 C2812 1.377 . S
C2813 C2814 1.379 . S
C2814 H2798 0.931 . S
C2814 C2808 1.383 . S
C2814 C2813 1.379 . S
H2815 C2809 0.959 . S
H2816 C2809 0.961 . S
H2817 C2809 0.960 . S
H2818 C2810 0.930 . S
H2819 C2811 0.929 . S
H2820 C2828 0.929 . S
H2821 C2830 0.930 . S
H2822 C2832 0.930 . S
H2823 C2835 0.929 . S
H2824 C2838 0.930 . S
H2825 C2840 0.960 . S
H2826 C2840 0.960 . S
H2827 C2840 0.960 . S
C2828 H2820 0.929 . S
C2828 C2829 1.376 . S
C2828 C2830 1.384 . S
C2829 C2828 1.376 . S
C2829 C2835 1.391 1_556 S
C2830 H2821 0.930 . S
C2830 C2828 1.384 . S
C2830 C2831 1.374 . S
C2831 C2830 1.374 . S
C2831 C2832 1.397 1_556 S
C2831 C2836 1.487 . S
C2832 H2822 0.930 . S
C2832 C2831 1.397 1_554 S
C2832 C2835 1.386 . S
H2833 C2849 0.930 . S
H2834 C2850 0.931 . S
C2835 H2823 0.929 . S
C2835 C2829 1.391 1_554 S
C2835 C2832 1.386 . S
C2836 C2831 1.487 . S
C2836 C2838 1.424 . S
C2836 C2839 1.377 1_556 S
H2837 C2843 0.930 . S
C2838 H2824 0.930 . S
C2838 C2836 1.424 . S
C2838 C2841 1.403 . S
C2839 C2836 1.377 1_554 S
C2839 C2840 1.524 . S
C2839 C2843 1.400 . S
C2840 H2825 0.960 . S
C2840 H2826 0.960 . S
C2840 H2827 0.960 . S
C2840 C2839 1.524 . S
C2841 C2838 1.403 . S
C2841 C2842 1.392 . S
C2841 C2845 1.495 . S
C2842 C2841 1.392 . S
C2842 C2843 1.385 1_556 S
C2842 C2844 1.478 . S
C2843 H2837 0.930 . S
C2843 C2839 1.400 . S
C2843 C2842 1.385 1_554 S
C2844 C2842 1.478 . S
C2844 C2846 1.381 . S
C2844 C2850 1.383 1_556 S
C2845 C2841 1.495 . S
C2845 H2851 0.959 . S
C2845 H2852 0.961 . S
C2845 H2853 0.960 . S
C2846 C2844 1.381 . S
C2846 C2847 1.394 . S
C2846 H2854 0.930 . S
C2847 C2846 1.394 . S
C2847 C2848 1.366 1_556 S
C2847 H2855 0.929 . S
C2848 C2847 1.366 1_554 S
C2848 C2849 1.395 . S
C2849 H2833 0.930 . S
C2849 C2848 1.395 . S
C2849 C2850 1.379 . S
C2850 H2834 0.931 . S
C2850 C2844 1.383 1_554 S
C2850 C2849 1.379 . S
H2851 C2845 0.959 . S
H2852 C2845 0.961 . S
H2853 C2845 0.960 . S
H2854 C2846 0.930 . S
H2855 C2847 0.929 . S
H2856 C2864 0.929 . S
H2857 C2866 0.930 . S
H2858 C2868 0.930 . S
H2859 C2871 0.929 . S
H2860 C2874 0.930 . S
H2861 C2876 0.960 . S
H2862 C2876 0.960 . S
H2863 C2876 0.960 . S
C2864 H2856 0.929 . S
C2864 C2865 1.377 . S
C2864 C2866 1.384 . S
C2865 C2864 1.377 . S
C2865 C2871 1.390 . S
C2866 H2857 0.930 . S
C2866 C2864 1.384 . S
C2866 C2867 1.372 . S
C2867 C2866 1.372 . S
C2867 C2868 1.400 . S
C2867 C2872 1.490 . S
C2868 H2858 0.930 . S
C2868 C2867 1.400 . S
C2868 C2871 1.386 . S
H2869 C2885 0.930 . S
H2870 C2886 0.931 . S
C2871 H2859 0.929 . S
C2871 C2865 1.390 . S
C2871 C2868 1.386 . S
C2872 C2867 1.490 . S
C2872 C2874 1.395 . S
C2872 C2875 1.403 . S
H2873 C2879 0.930 . S
C2874 H2860 0.930 . S
C2874 C2872 1.395 . S
C2874 C2877 1.403 . S
C2875 C2872 1.403 . S
C2875 C2876 1.524 . S
C2875 C2879 1.400 . S
C2876 H2861 0.960 . S
C2876 H2862 0.960 . S
C2876 H2863 0.960 . S
C2876 C2875 1.524 . S
C2877 C2874 1.403 . S
C2877 C2878 1.392 . S
C2877 C2881 1.495 . S
C2878 C2877 1.392 . S
C2878 C2879 1.385 . S
C2878 C2880 1.478 . S
C2879 H2873 0.930 . S
C2879 C2875 1.400 . S
C2879 C2878 1.385 . S
C2880 C2878 1.478 . S
C2880 C2882 1.381 . S
C2880 C2886 1.383 . S
C2881 C2877 1.495 . S
C2881 H2887 0.959 . S
C2881 H2888 0.961 . S
C2881 H2889 0.960 . S
C2882 C2880 1.381 . S
C2882 C2883 1.394 . S
C2882 H2890 0.930 . S
C2883 C2882 1.394 . S
C2883 C2884 1.383 . S
C2883 H2891 0.929 . S
C2884 C2883 1.383 . S
C2884 C2885 1.377 . S
C2885 H2869 0.930 . S
C2885 C2884 1.377 . S
C2885 C2886 1.379 . S
C2886 H2870 0.931 . S
C2886 C2880 1.383 . S
C2886 C2885 1.379 . S
H2887 C2881 0.959 . S
H2888 C2881 0.961 . S
H2889 C2881 0.960 . S
H2890 C2882 0.930 . S
H2891 C2883 0.929 . S
H2892 C2900 0.929 . S
H2893 C2902 0.930 . S
H2894 C2904 0.930 . S
H2895 C2907 0.929 . S
H2896 C2910 0.930 . S
H2897 C2912 0.960 . S
H2898 C2912 0.960 . S
H2899 C2912 0.960 . S
C2900 H2892 0.929 . S
C2900 C2901 1.377 . S
C2900 C2902 1.384 . S
C2901 C2900 1.377 . S
C2901 C2907 1.390 . S
C2902 H2893 0.930 . S
C2902 C2900 1.384 . S
C2902 C2903 1.372 . S
C2903 C2902 1.372 . S
C2903 C2904 1.400 . S
C2903 C2908 1.490 . S
C2904 H2894 0.930 . S
C2904 C2903 1.400 . S
C2904 C2907 1.386 . S
H2905 C2921 0.930 . S
H2906 C2922 0.931 . S
C2907 H2895 0.929 . S
C2907 C2901 1.390 . S
C2907 C2904 1.386 . S
C2908 C2903 1.490 . S
C2908 C2910 1.395 . S
C2908 C2911 1.403 . S
H2909 C2915 0.930 . S
C2910 H2896 0.930 . S
C2910 C2908 1.395 . S
C2910 C2913 1.403 . S
C2911 C2908 1.403 . S
C2911 C2912 1.524 . S
C2911 C2915 1.400 . S
C2912 H2897 0.960 . S
C2912 H2898 0.960 . S
C2912 H2899 0.960 . S
C2912 C2911 1.524 . S
C2913 C2910 1.403 . S
C2913 C2914 1.392 . S
C2913 C2917 1.495 . S
C2914 C2913 1.392 . S
C2914 C2915 1.385 . S
C2914 C2916 1.478 . S
C2915 H2909 0.930 . S
C2915 C2911 1.400 . S
C2915 C2914 1.385 . S
C2916 C2914 1.478 . S
C2916 C2918 1.381 . S
C2916 C2922 1.383 . S
C2917 C2913 1.495 . S
C2917 H2923 0.959 . S
C2917 H2924 0.961 . S
C2917 H2925 0.960 . S
C2918 C2916 1.381 . S
C2918 C2919 1.394 . S
C2918 H2926 0.930 . S
C2919 C2918 1.394 . S
C2919 C2920 1.383 . S
C2919 H2927 0.929 . S
C2920 C2919 1.383 . S
C2920 C2921 1.377 . S
C2921 H2905 0.930 . S
C2921 C2920 1.377 . S
C2921 C2922 1.379 . S
C2922 H2906 0.931 . S
C2922 C2916 1.383 . S
C2922 C2921 1.379 . S
H2923 C2917 0.959 . S
H2924 C2917 0.961 . S
H2925 C2917 0.960 . S
H2926 C2918 0.930 . S
H2927 C2919 0.929 . S
H2928 C2936 0.929 . S
H2929 C2938 0.930 . S
H2930 C2940 0.930 . S
H2931 C2943 0.929 . S
H2932 C2946 0.930 . S
H2933 C2948 0.960 . S
H2934 C2948 0.960 . S
H2935 C2948 0.960 . S
C2936 H2928 0.929 . S
C2936 C2937 1.377 . S
C2936 C2938 1.384 . S
C2937 C2936 1.377 . S
C2937 C2943 1.390 . S
C2938 H2929 0.930 . S
C2938 C2936 1.384 . S
C2938 C2939 1.372 . S
C2939 C2938 1.372 . S
C2939 C2940 1.400 . S
C2939 C2944 1.490 . S
C2940 H2930 0.930 . S
C2940 C2939 1.400 . S
C2940 C2943 1.386 . S
H2941 C2957 0.930 . S
H2942 C2958 0.931 . S
C2943 H2931 0.929 . S
C2943 C2937 1.390 . S
C2943 C2940 1.386 . S
C2944 C2939 1.490 . S
C2944 C2946 1.395 . S
C2944 C2947 1.403 . S
H2945 C2951 0.930 . S
C2946 H2932 0.930 . S
C2946 C2944 1.395 . S
C2946 C2949 1.403 . S
C2947 C2944 1.403 . S
C2947 C2948 1.524 . S
C2947 C2951 1.400 . S
C2948 H2933 0.960 . S
C2948 H2934 0.960 . S
C2948 H2935 0.960 . S
C2948 C2947 1.524 . S
C2949 C2946 1.403 . S
C2949 C2950 1.392 . S
C2949 C2953 1.495 . S
C2950 C2949 1.392 . S
C2950 C2951 1.385 . S
C2950 C2952 1.478 . S
C2951 H2945 0.930 . S
C2951 C2947 1.400 . S
C2951 C2950 1.385 . S
C2952 C2950 1.478 . S
C2952 C2954 1.381 . S
C2952 C2958 1.383 . S
C2953 C2949 1.495 . S
C2953 H2959 0.959 . S
C2953 H2960 0.961 . S
C2953 H2961 0.960 . S
C2954 C2952 1.381 . S
C2954 C2955 1.394 . S
C2954 H2962 0.930 . S
C2955 C2954 1.394 . S
C2955 C2956 1.383 . S
C2955 H2963 0.929 . S
C2956 C2955 1.383 . S
C2956 C2957 1.377 . S
C2957 H2941 0.930 . S
C2957 C2956 1.377 . S
C2957 C2958 1.379 . S
C2958 H2942 0.931 . S
C2958 C2952 1.383 . S
C2958 C2957 1.379 . S
H2959 C2953 0.959 . S
H2960 C2953 0.961 . S
H2961 C2953 0.960 . S
H2962 C2954 0.930 . S
H2963 C2955 0.929 . S
H2964 C2972 0.929 . S
H2965 C2974 0.930 . S
H2966 C2976 0.930 . S
H2967 C2979 0.929 . S
H2968 C2982 0.930 . S
H2969 C2984 0.960 . S
H2970 C2984 0.960 . S
H2971 C2984 0.960 . S
C2972 H2964 0.929 . S
C2972 C2973 1.388 . S
C2972 C2974 1.384 . S
C2973 C2972 1.388 . S
C2973 C2979 1.380 1_655 S
C2974 H2965 0.930 . S
C2974 C2972 1.384 . S
C2974 C2975 1.399 . S
C2975 C2974 1.399 . S
C2975 C2976 1.369 1_655 S
C2975 C2980 1.489 . S
C2976 H2966 0.930 . S
C2976 C2975 1.369 1_455 S
C2976 C2979 1.386 . S
H2977 C2993 0.930 . S
H2978 C2994 0.931 . S
C2979 H2967 0.929 . S
C2979 C2973 1.380 1_455 S
C2979 C2976 1.386 . S
C2980 C2975 1.489 . S
C2980 C2982 1.425 . S
C2980 C2983 1.378 1_655 S
H2981 C2987 0.930 . S
C2982 H2968 0.930 . S
C2982 C2980 1.425 . S
C2982 C2985 1.403 . S
C2983 C2980 1.378 1_455 S
C2983 C2984 1.524 . S
C2983 C2987 1.400 . S
C2984 H2969 0.960 . S
C2984 H2970 0.960 . S
C2984 H2971 0.960 . S
C2984 C2983 1.524 . S
C2985 C2982 1.403 . S
C2985 C2986 1.392 . S
C2985 C2989 1.495 . S
C2986 C2985 1.392 . S
C2986 C2987 1.385 1_655 S
C2986 C2988 1.476 . S
C2987 H2981 0.930 . S
C2987 C2983 1.400 . S
C2987 C2986 1.385 1_455 S
C2988 C2986 1.476 . S
C2988 C2990 1.430 . S
C2988 C2994 1.336 1_655 S
C2989 C2985 1.495 . S
C2989 H2995 0.959 . S
C2989 H2996 0.961 . S
C2989 H2997 0.960 . S
C2990 C2988 1.430 . S
C2990 C2991 1.394 . S
C2990 H2998 0.930 . S
C2991 C2990 1.394 . S
C2991 C2992 1.383 1_655 S
C2991 H2999 0.929 . S
C2992 C2991 1.383 1_455 S
C2992 C2993 1.377 . S
C2993 H2977 0.930 . S
C2993 C2992 1.377 . S
C2993 C2994 1.379 . S
C2994 H2978 0.931 . S
C2994 C2988 1.336 1_455 S
C2994 C2993 1.379 . S
H2995 C2989 0.959 . S
H2996 C2989 0.961 . S
H2997 C2989 0.960 . S
H2998 C2990 0.930 . S
H2999 C2991 0.929 . S
H3000 C3008 0.929 . S
H3001 C3010 0.930 . S
H3002 C3012 0.930 . S
H3003 C3015 0.929 . S
H3004 C3018 0.930 . S
H3005 C3020 0.960 . S
H3006 C3020 0.960 . S
H3007 C3020 0.960 . S
C3008 H3000 0.929 . S
C3008 C3009 1.377 . S
C3008 C3010 1.384 . S
C3009 C3008 1.377 . S
C3009 C3015 1.390 . S
C3010 H3001 0.930 . S
C3010 C3008 1.384 . S
C3010 C3011 1.372 . S
C3011 C3010 1.372 . S
C3011 C3012 1.400 . S
C3011 C3016 1.490 . S
C3012 H3002 0.930 . S
C3012 C3011 1.400 . S
C3012 C3015 1.386 . S
H3013 C3029 0.930 . S
H3014 C3030 0.931 . S
C3015 H3003 0.929 . S
C3015 C3009 1.390 . S
C3015 C3012 1.386 . S
C3016 C3011 1.490 . S
C3016 C3018 1.395 . S
C3016 C3019 1.403 . S
H3017 C3023 0.930 . S
C3018 H3004 0.930 . S
C3018 C3016 1.395 . S
C3018 C3021 1.403 . S
C3019 C3016 1.403 . S
C3019 C3020 1.524 . S
C3019 C3023 1.400 . S
C3020 H3005 0.960 . S
C3020 H3006 0.960 . S
C3020 H3007 0.960 . S
C3020 C3019 1.524 . S
C3021 C3018 1.403 . S
C3021 C3022 1.392 . S
C3021 C3025 1.495 . S
C3022 C3021 1.392 . S
C3022 C3023 1.385 . S
C3022 C3024 1.478 . S
C3023 H3017 0.930 . S
C3023 C3019 1.400 . S
C3023 C3022 1.385 . S
C3024 C3022 1.478 . S
C3024 C3026 1.381 . S
C3024 C3030 1.383 . S
C3025 C3021 1.495 . S
C3025 H3031 0.959 . S
C3025 H3032 0.961 . S
C3025 H3033 0.960 . S
C3026 C3024 1.381 . S
C3026 C3027 1.394 . S
C3026 H3034 0.930 . S
C3027 C3026 1.394 . S
C3027 C3028 1.383 . S
C3027 H3035 0.929 . S
C3028 C3027 1.383 . S
C3028 C3029 1.377 . S
C3029 H3013 0.930 . S
C3029 C3028 1.377 . S
C3029 C3030 1.379 . S
C3030 H3014 0.931 . S
C3030 C3024 1.383 . S
C3030 C3029 1.379 . S
H3031 C3025 0.959 . S
H3032 C3025 0.961 . S
H3033 C3025 0.960 . S
H3034 C3026 0.930 . S
H3035 C3027 0.929 . S
H3036 C3044 0.929 . S
H3037 C3046 0.930 . S
H3038 C3048 0.930 . S
H3039 C3051 0.929 . S
H3040 C3054 0.930 . S
H3041 C3056 0.960 . S
H3042 C3056 0.960 . S
H3043 C3056 0.960 . S
C3044 H3036 0.929 . S
C3044 C3045 1.377 . S
C3044 C3046 1.384 . S
C3045 C3044 1.377 . S
C3045 C3051 1.390 . S
C3046 H3037 0.930 . S
C3046 C3044 1.384 . S
C3046 C3047 1.372 . S
C3047 C3046 1.372 . S
C3047 C3048 1.400 . S
C3047 C3052 1.490 . S
C3048 H3038 0.930 . S
C3048 C3047 1.400 . S
C3048 C3051 1.386 . S
H3049 C3065 0.930 . S
H3050 C3066 0.931 . S
C3051 H3039 0.929 . S
C3051 C3045 1.390 . S
C3051 C3048 1.386 . S
C3052 C3047 1.490 . S
C3052 C3054 1.395 . S
C3052 C3055 1.403 . S
H3053 C3059 0.930 . S
C3054 H3040 0.930 . S
C3054 C3052 1.395 . S
C3054 C3057 1.403 . S
C3055 C3052 1.403 . S
C3055 C3056 1.524 . S
C3055 C3059 1.400 . S
C3056 H3041 0.960 . S
C3056 H3042 0.960 . S
C3056 H3043 0.960 . S
C3056 C3055 1.524 . S
C3057 C3054 1.403 . S
C3057 C3058 1.392 . S
C3057 C3061 1.495 . S
C3058 C3057 1.392 . S
C3058 C3059 1.385 . S
C3058 C3060 1.478 . S
C3059 H3053 0.930 . S
C3059 C3055 1.400 . S
C3059 C3058 1.385 . S
C3060 C3058 1.478 . S
C3060 C3062 1.381 . S
C3060 C3066 1.383 . S
C3061 C3057 1.495 . S
C3061 H3067 0.959 . S
C3061 H3068 0.961 . S
C3061 H3069 0.960 . S
C3062 C3060 1.381 . S
C3062 C3063 1.394 . S
C3062 H3070 0.930 . S
C3063 C3062 1.394 . S
C3063 C3064 1.383 . S
C3063 H3071 0.929 . S
C3064 C3063 1.383 . S
C3064 C3065 1.377 . S
C3065 H3049 0.930 . S
C3065 C3064 1.377 . S
C3065 C3066 1.379 . S
C3066 H3050 0.931 . S
C3066 C3060 1.383 . S
C3066 C3065 1.379 . S
H3067 C3061 0.959 . S
H3068 C3061 0.961 . S
H3069 C3061 0.960 . S
H3070 C3062 0.930 . S
H3071 C3063 0.929 . S
H3072 C3080 0.929 . S
H3073 C3082 0.930 . S
H3074 C3084 0.933 . S
H3075 C3087 0.929 . S
H3076 C3090 0.930 . S
H3077 C3092 0.960 . S
H3078 C3092 0.960 . S
H3079 C3092 0.960 . S
C3080 H3072 0.929 . S
C3080 C3081 1.403 . S
C3080 C3082 1.384 . S
C3081 C3080 1.403 . S
C3081 C3087 1.385 1_565 S
C3082 H3073 0.930 . S
C3082 C3080 1.384 . S
C3082 C3083 1.372 . S
C3083 C3082 1.372 . S
C3083 C3084 1.390 1_565 S
C3083 C3088 1.490 . S
C3084 H3074 0.933 . S
C3084 C3083 1.390 1_545 S
C3084 C3087 1.393 . S
H3085 C3101 0.930 . S
H3086 C3102 0.931 1_545 S
C3087 H3075 0.929 . S
C3087 C3081 1.385 1_545 S
C3087 C3084 1.393 . S
C3088 C3083 1.490 . S
C3088 C3090 1.395 1_565 S
C3088 C3091 1.403 . S
H3089 C3095 0.930 . S
C3090 H3076 0.930 . S
C3090 C3088 1.395 1_545 S
C3090 C3093 1.403 . S
C3091 C3088 1.403 . S
C3091 C3092 1.524 . S
C3091 C3095 1.400 . S
C3092 H3077 0.960 . S
C3092 H3078 0.960 . S
C3092 H3079 0.960 . S
C3092 C3091 1.524 . S
C3093 C3090 1.403 . S
C3093 C3094 1.392 1_545 S
C3093 C3097 1.495 . S
C3094 C3093 1.392 1_565 S
C3094 C3095 1.385 . S
C3094 C3096 1.478 . S
C3095 H3089 0.930 . S
C3095 C3091 1.400 . S
C3095 C3094 1.385 . S
C3096 C3094 1.478 . S
C3096 C3098 1.381 . S
C3096 C3102 1.383 . S
C3097 C3093 1.495 . S
C3097 H3103 0.959 . S
C3097 H3104 0.961 . S
C3097 H3105 0.960 . S
C3098 C3096 1.381 . S
C3098 C3099 1.394 . S
C3098 H3106 0.930 . S
C3099 C3098 1.394 . S
C3099 C3100 1.383 . S
C3099 H3107 0.929 . S
C3100 C3099 1.383 . S
C3100 C3101 1.377 . S
C3101 H3085 0.930 . S
C3101 C3100 1.377 . S
C3101 C3102 1.379 . S
C3102 H3086 0.931 1_565 S
C3102 C3096 1.383 . S
C3102 C3101 1.379 . S
H3103 C3097 0.959 . S
H3104 C3097 0.961 . S
H3105 C3097 0.960 . S
H3106 C3098 0.930 . S
H3107 C3099 0.929 . S
H3108 C3116 0.929 . S
H3109 C3118 0.930 . S
H3110 C3120 0.930 . S
H3111 C3123 0.929 . S
H3112 C3126 0.930 . S
H3113 C3128 0.960 . S
H3114 C3128 0.960 . S
H3115 C3128 0.960 . S
C3116 H3108 0.929 . S
C3116 C3117 1.377 . S
C3116 C3118 1.384 . S
C3117 C3116 1.377 . S
C3117 C3123 1.390 . S
C3118 H3109 0.930 . S
C3118 C3116 1.384 . S
C3118 C3119 1.372 . S
C3119 C3118 1.372 . S
C3119 C3120 1.400 . S
C3119 C3124 1.490 . S
C3120 H3110 0.930 . S
C3120 C3119 1.400 . S
C3120 C3123 1.386 . S
H3121 C3137 0.930 . S
H3122 C3138 0.931 . S
C3123 H3111 0.929 . S
C3123 C3117 1.390 . S
C3123 C3120 1.386 . S
C3124 C3119 1.490 . S
C3124 C3126 1.395 . S
C3124 C3127 1.403 1_545 S
H3125 C3131 0.930 . S
C3126 H3112 0.930 . S
C3126 C3124 1.395 . S
C3126 C3129 1.403 . S
C3127 C3124 1.403 1_565 S
C3127 C3128 1.524 . S
C3127 C3131 1.400 . S
C3128 H3113 0.960 . S
C3128 H3114 0.960 . S
C3128 H3115 0.960 . S
C3128 C3127 1.524 . S
C3129 C3126 1.403 . S
C3129 C3130 1.392 . S
C3129 C3133 1.495 . S
C3130 C3129 1.392 . S
C3130 C3131 1.385 1_545 S
C3130 C3132 1.478 . S
C3131 H3125 0.930 . S
C3131 C3127 1.400 . S
C3131 C3130 1.385 1_565 S
C3132 C3130 1.478 . S
C3132 C3134 1.381 . S
C3132 C3138 1.383 . S
C3133 C3129 1.495 . S
C3133 H3139 0.959 . S
C3133 H3140 0.961 . S
C3133 H3141 0.960 . S
C3134 C3132 1.381 . S
C3134 C3135 1.394 . S
C3134 H3142 0.930 . S
C3135 C3134 1.394 . S
C3135 C3136 1.383 . S
C3135 H3143 0.929 . S
C3136 C3135 1.383 . S
C3136 C3137 1.377 . S
C3137 H3121 0.930 . S
C3137 C3136 1.377 . S
C3137 C3138 1.379 . S
C3138 H3122 0.931 . S
C3138 C3132 1.383 . S
C3138 C3137 1.379 . S
H3139 C3133 0.959 . S
H3140 C3133 0.961 . S
H3141 C3133 0.960 . S
H3142 C3134 0.930 . S
H3143 C3135 0.929 . S
H3144 C3152 0.929 . S
H3145 C3154 0.930 . S
H3146 C3156 0.930 . S
H3147 C3159 0.929 . S
H3148 C3162 0.930 . S
H3149 C3164 0.960 . S
H3150 C3164 0.960 . S
H3151 C3164 0.960 . S
C3152 H3144 0.929 . S
C3152 C3153 1.377 . S
C3152 C3154 1.384 . S
C3153 C3152 1.377 . S
C3153 C3159 1.390 . S
C3154 H3145 0.930 . S
C3154 C3152 1.384 . S
C3154 C3155 1.372 . S
C3155 C3154 1.372 . S
C3155 C3156 1.400 . S
C3155 C3160 1.490 . S
C3156 H3146 0.930 . S
C3156 C3155 1.400 . S
C3156 C3159 1.386 . S
H3157 C3173 0.930 . S
H3158 C3174 0.931 . S
C3159 H3147 0.929 . S
C3159 C3153 1.390 . S
C3159 C3156 1.386 . S
C3160 C3155 1.490 . S
C3160 C3162 1.395 . S
C3160 C3163 1.403 . S
H3161 C3167 0.930 . S
C3162 H3148 0.930 . S
C3162 C3160 1.395 . S
C3162 C3165 1.403 . S
C3163 C3160 1.403 . S
C3163 C3164 1.524 . S
C3163 C3167 1.400 . S
C3164 H3149 0.960 . S
C3164 H3150 0.960 . S
C3164 H3151 0.960 . S
C3164 C3163 1.524 . S
C3165 C3162 1.403 . S
C3165 C3166 1.392 . S
C3165 C3169 1.495 . S
C3166 C3165 1.392 . S
C3166 C3167 1.385 . S
C3166 C3168 1.478 . S
C3167 H3161 0.930 . S
C3167 C3163 1.400 . S
C3167 C3166 1.385 . S
C3168 C3166 1.478 . S
C3168 C3170 1.381 . S
C3168 C3174 1.383 . S
C3169 C3165 1.495 . S
C3169 H3175 0.959 . S
C3169 H3176 0.961 . S
C3169 H3177 0.960 . S
C3170 C3168 1.381 . S
C3170 C3171 1.394 . S
C3170 H3178 0.930 . S
C3171 C3170 1.394 . S
C3171 C3172 1.383 . S
C3171 H3179 0.929 . S
C3172 C3171 1.383 . S
C3172 C3173 1.377 . S
C3173 H3157 0.930 . S
C3173 C3172 1.377 . S
C3173 C3174 1.379 . S
C3174 H3158 0.931 . S
C3174 C3168 1.383 . S
C3174 C3173 1.379 . S
H3175 C3169 0.959 . S
H3176 C3169 0.961 . S
H3177 C3169 0.960 . S
H3178 C3170 0.930 . S
H3179 C3171 0.929 . S
H3180 C3188 0.929 . S
H3181 C3190 0.930 . S
H3182 C3192 0.930 . S
H3183 C3195 0.929 . S
H3184 C3198 0.930 1_556 S
H3185 C3200 0.960 . S
H3186 C3200 0.960 . S
H3187 C3200 0.960 . S
C3188 H3180 0.929 . S
C3188 C3189 1.377 1_556 S
C3188 C3190 1.384 . S
C3189 C3188 1.377 1_554 S
C3189 C3195 1.390 . S
C3190 H3181 0.930 . S
C3190 C3188 1.384 . S
C3190 C3191 1.372 1_556 S
C3191 C3190 1.372 1_554 S
C3191 C3192 1.400 . S
C3191 C3196 1.490 . S
C3192 H3182 0.930 . S
C3192 C3191 1.400 . S
C3192 C3195 1.386 . S
H3193 C3209 0.930 . S
H3194 C3210 0.931 . S
C3195 H3183 0.929 . S
C3195 C3189 1.390 . S
C3195 C3192 1.386 . S
C3196 C3191 1.490 . S
C3196 C3198 1.395 . S
C3196 C3199 1.403 . S
H3197 C3203 0.930 . S
C3198 H3184 0.930 1_554 S
C3198 C3196 1.395 . S
C3198 C3201 1.403 . S
C3199 C3196 1.403 . S
C3199 C3200 1.524 . S
C3199 C3203 1.400 . S
C3200 H3185 0.960 . S
C3200 H3186 0.960 . S
C3200 H3187 0.960 . S
C3200 C3199 1.524 . S
C3201 C3198 1.403 . S
C3201 C3202 1.392 . S
C3201 C3205 1.495 1_554 S
C3202 C3201 1.392 . S
C3202 C3203 1.385 . S
C3202 C3204 1.478 . S
C3203 H3197 0.930 . S
C3203 C3199 1.400 . S
C3203 C3202 1.385 . S
C3204 C3202 1.478 . S
C3204 C3206 1.381 1_554 S
C3204 C3210 1.383 . S
C3205 C3201 1.495 1_556 S
C3205 H3211 0.959 . S
C3205 H3212 0.961 1_556 S
C3205 H3213 0.960 . S
C3206 C3204 1.381 1_556 S
C3206 C3207 1.394 . S
C3206 H3214 0.930 . S
C3207 C3206 1.394 . S
C3207 C3208 1.383 1_556 S
C3207 H3215 0.929 . S
C3208 C3207 1.383 1_554 S
C3208 C3209 1.377 . S
C3209 H3193 0.930 . S
C3209 C3208 1.377 . S
C3209 C3210 1.379 . S
C3210 H3194 0.931 . S
C3210 C3204 1.383 . S
C3210 C3209 1.379 . S
H3211 C3205 0.959 . S
H3212 C3205 0.961 1_554 S
H3213 C3205 0.960 . S
H3214 C3206 0.930 . S
H3215 C3207 0.929 . S
H3216 C3224 0.929 . S
H3217 C3226 0.930 . S
H3218 C3228 0.930 . S
H3219 C3231 0.929 . S
H3220 C3234 0.930 . S
H3221 C3236 0.960 . S
H3222 C3236 0.960 . S
H3223 C3236 0.960 . S
C3224 H3216 0.929 . S
C3224 C3225 1.377 . S
C3224 C3226 1.384 . S
C3225 C3224 1.377 . S
C3225 C3231 1.390 . S
C3226 H3217 0.930 . S
C3226 C3224 1.384 . S
C3226 C3227 1.372 . S
C3227 C3226 1.372 . S
C3227 C3228 1.400 . S
C3227 C3232 1.490 . S
C3228 H3218 0.930 . S
C3228 C3227 1.400 . S
C3228 C3231 1.386 . S
H3229 C3245 0.930 . S
H3230 C3246 0.931 . S
C3231 H3219 0.929 . S
C3231 C3225 1.390 . S
C3231 C3228 1.386 . S
C3232 C3227 1.490 . S
C3232 C3234 1.395 . S
C3232 C3235 1.403 . S
H3233 C3239 0.930 . S
C3234 H3220 0.930 . S
C3234 C3232 1.395 . S
C3234 C3237 1.403 . S
C3235 C3232 1.403 . S
C3235 C3236 1.524 . S
C3235 C3239 1.400 . S
C3236 H3221 0.960 . S
C3236 H3222 0.960 . S
C3236 H3223 0.960 . S
C3236 C3235 1.524 . S
C3237 C3234 1.403 . S
C3237 C3238 1.392 . S
C3237 C3241 1.495 . S
C3238 C3237 1.392 . S
C3238 C3239 1.385 . S
C3238 C3240 1.478 . S
C3239 H3233 0.930 . S
C3239 C3235 1.400 . S
C3239 C3238 1.385 . S
C3240 C3238 1.478 . S
C3240 C3242 1.381 . S
C3240 C3246 1.383 . S
C3241 C3237 1.495 . S
C3241 H3247 0.959 . S
C3241 H3248 0.961 . S
C3241 H3249 0.960 . S
C3242 C3240 1.381 . S
C3242 C3243 1.394 . S
C3242 H3250 0.930 . S
C3243 C3242 1.394 . S
C3243 C3244 1.383 . S
C3243 H3251 0.929 . S
C3244 C3243 1.383 . S
C3244 C3245 1.377 . S
C3245 H3229 0.930 . S
C3245 C3244 1.377 . S
C3245 C3246 1.379 . S
C3246 H3230 0.931 . S
C3246 C3240 1.383 . S
C3246 C3245 1.379 . S
H3247 C3241 0.959 . S
H3248 C3241 0.961 . S
H3249 C3241 0.960 . S
H3250 C3242 0.930 . S
H3251 C3243 0.929 . S
H3252 C3260 0.929 . S
H3253 C3262 0.930 . S
H3254 C3264 0.930 . S
H3255 C3267 0.929 . S
H3256 C3270 0.930 . S
H3257 C3272 0.960 . S
H3258 C3272 0.960 . S
H3259 C3272 0.960 . S
C3260 H3252 0.929 . S
C3260 C3261 1.346 1_554 S
C3260 C3262 1.384 . S
C3261 C3260 1.346 1_556 S
C3261 C3267 1.430 . S
C3262 H3253 0.930 . S
C3262 C3260 1.384 . S
C3262 C3263 1.372 1_554 S
C3263 C3262 1.372 1_556 S
C3263 C3264 1.400 . S
C3263 C3268 1.490 . S
C3264 H3254 0.930 . S
C3264 C3263 1.400 . S
C3264 C3267 1.386 . S
H3265 C3281 0.930 . S
H3266 C3282 0.931 . S
C3267 H3255 0.929 . S
C3267 C3261 1.430 . S
C3267 C3264 1.386 . S
C3268 C3263 1.490 . S
C3268 C3270 1.395 1_556 S
C3268 C3271 1.403 . S
H3269 C3275 0.930 . S
C3270 H3256 0.930 . S
C3270 C3268 1.395 1_554 S
C3270 C3273 1.403 . S
C3271 C3268 1.403 . S
C3271 C3272 1.524 . S
C3271 C3275 1.400 . S
C3272 H3257 0.960 . S
C3272 H3258 0.960 . S
C3272 H3259 0.960 . S
C3272 C3271 1.524 . S
C3273 C3270 1.403 . S
C3273 C3274 1.392 1_554 S
C3273 C3277 1.495 . S
C3274 C3273 1.392 1_556 S
C3274 C3275 1.385 . S
C3274 C3276 1.478 . S
C3275 H3269 0.930 . S
C3275 C3271 1.400 . S
C3275 C3274 1.385 . S
C3276 C3274 1.478 . S
C3276 C3278 1.381 1_556 S
C3276 C3282 1.383 . S
C3277 C3273 1.495 . S
C3277 H3283 0.959 . S
C3277 H3284 0.961 . S
C3277 H3285 0.960 . S
C3278 C3276 1.381 1_554 S
C3278 C3279 1.394 . S
C3278 H3286 0.930 . S
C3279 C3278 1.394 . S
C3279 C3280 1.383 1_554 S
C3279 H3287 0.929 . S
C3280 C3279 1.383 1_556 S
C3280 C3281 1.377 . S
C3281 H3265 0.930 . S
C3281 C3280 1.377 . S
C3281 C3282 1.379 . S
C3282 H3266 0.931 . S
C3282 C3276 1.383 . S
C3282 C3281 1.379 . S
H3283 C3277 0.959 . S
H3284 C3277 0.961 . S
H3285 C3277 0.960 . S
H3286 C3278 0.930 . S
H3287 C3279 0.929 . S
H3288 C3296 0.929 . S
H3289 C3298 0.930 . S
H3290 C3300 0.930 . S
H3291 C3303 0.929 . S
H3292 C3306 0.930 . S
H3293 C3308 0.960 . S
H3294 C3308 0.960 . S
H3295 C3308 0.960 . S
C3296 H3288 0.929 . S
C3296 C3297 1.377 . S
C3296 C3298 1.384 . S
C3297 C3296 1.377 . S
C3297 C3303 1.390 . S
C3298 H3289 0.930 . S
C3298 C3296 1.384 . S
C3298 C3299 1.372 . S
C3299 C3298 1.372 . S
C3299 C3300 1.400 . S
C3299 C3304 1.490 . S
C3300 H3290 0.930 . S
C3300 C3299 1.400 . S
C3300 C3303 1.386 . S
H3301 C3317 0.930 . S
H3302 C3318 0.931 . S
C3303 H3291 0.929 . S
C3303 C3297 1.390 . S
C3303 C3300 1.386 . S
C3304 C3299 1.490 . S
C3304 C3306 1.395 . S
C3304 C3307 1.403 . S
H3305 C3311 0.930 . S
C3306 H3292 0.930 . S
C3306 C3304 1.395 . S
C3306 C3309 1.403 . S
C3307 C3304 1.403 . S
C3307 C3308 1.524 . S
C3307 C3311 1.400 . S
C3308 H3293 0.960 . S
C3308 H3294 0.960 . S
C3308 H3295 0.960 . S
C3308 C3307 1.524 . S
C3309 C3306 1.403 . S
C3309 C3310 1.392 . S
C3309 C3313 1.495 . S
C3310 C3309 1.392 . S
C3310 C3311 1.385 . S
C3310 C3312 1.478 . S
C3311 H3305 0.930 . S
C3311 C3307 1.400 . S
C3311 C3310 1.385 . S
C3312 C3310 1.478 . S
C3312 C3314 1.381 . S
C3312 C3318 1.383 . S
C3313 C3309 1.495 . S
C3313 H3319 0.959 . S
C3313 H3320 0.961 . S
C3313 H3321 0.960 . S
C3314 C3312 1.381 . S
C3314 C3315 1.394 . S
C3314 H3322 0.930 . S
C3315 C3314 1.394 . S
C3315 C3316 1.383 . S
C3315 H3323 0.929 . S
C3316 C3315 1.383 . S
C3316 C3317 1.377 . S
C3317 H3301 0.930 . S
C3317 C3316 1.377 . S
C3317 C3318 1.379 . S
C3318 H3302 0.931 . S
C3318 C3312 1.383 . S
C3318 C3317 1.379 . S
H3319 C3313 0.959 . S
H3320 C3313 0.961 . S
H3321 C3313 0.960 . S
H3322 C3314 0.930 . S
H3323 C3315 0.929 . S
H3324 C3332 0.929 . S
H3325 C3334 0.930 . S
H3326 C3336 0.962 . S
H3327 C3339 0.948 . S
H3328 C3342 0.930 . S
H3329 C3344 0.960 . S
H3330 C3344 0.960 . S
H3331 C3344 0.960 . S
C3332 H3324 0.929 . S
C3332 C3333 1.377 . S
C3332 C3334 1.384 . S
C3333 C3332 1.377 . S
C3333 C3339 1.373 1_455 S
C3334 H3325 0.930 . S
C3334 C3332 1.384 . S
C3334 C3335 1.372 . S
C3335 C3334 1.372 . S
C3335 C3336 1.367 1_455 S
C3335 C3340 1.490 . S
C3336 H3326 0.962 . S
C3336 C3335 1.367 1_655 S
C3336 C3339 1.387 . S
H3337 C3353 0.930 . S
H3338 C3354 0.929 1_655 S
C3339 H3327 0.948 . S
C3339 C3333 1.373 1_655 S
C3339 C3336 1.387 . S
C3340 C3335 1.490 . S
C3340 C3342 1.395 . S
C3340 C3343 1.403 1_455 S
H3341 C3347 0.930 . S
C3342 H3328 0.930 . S
C3342 C3340 1.395 . S
C3342 C3345 1.403 . S
C3343 C3340 1.403 1_655 S
C3343 C3344 1.524 . S
C3343 C3347 1.400 . S
C3344 H3329 0.960 . S
C3344 H3330 0.960 . S
C3344 H3331 0.960 . S
C3344 C3343 1.524 . S
C3345 C3342 1.403 . S
C3345 C3346 1.392 . S
C3345 C3349 1.495 . S
C3346 C3345 1.392 . S
C3346 C3347 1.385 1_455 S
C3346 C3348 1.478 . S
C3347 H3341 0.930 . S
C3347 C3343 1.400 . S
C3347 C3346 1.385 1_655 S
C3348 C3346 1.478 . S
C3348 C3350 1.381 . S
C3348 C3354 1.384 . S
C3349 C3345 1.495 . S
C3349 H3355 0.959 . S
C3349 H3356 0.961 . S
C3349 H3357 0.960 . S
C3350 C3348 1.381 . S
C3350 C3351 1.394 . S
C3350 H3358 0.930 . S
C3351 C3350 1.394 . S
C3351 C3352 1.383 . S
C3351 H3359 0.929 . S
C3352 C3351 1.383 . S
C3352 C3353 1.377 1_455 S
C3353 H3337 0.930 . S
C3353 C3352 1.377 1_655 S
C3353 C3354 1.379 1_655 S
C3354 H3338 0.929 1_455 S
C3354 C3348 1.384 . S
C3354 C3353 1.379 1_455 S
H3355 C3349 0.959 . S
H3356 C3349 0.961 . S
H3357 C3349 0.960 . S
H3358 C3350 0.930 . S
H3359 C3351 0.929 . S
H3360 C3368 0.929 . S
H3361 C3370 0.930 . S
H3362 C3372 0.930 . S
H3363 C3375 0.929 . S
H3364 C3378 0.930 . S
H3365 C3380 0.960 . S
H3366 C3380 0.960 . S
H3367 C3380 0.960 . S
C3368 H3360 0.929 . S
C3368 C3369 1.377 . S
C3368 C3370 1.384 . S
C3369 C3368 1.377 . S
C3369 C3375 1.390 . S
C3370 H3361 0.930 . S
C3370 C3368 1.384 . S
C3370 C3371 1.372 . S
C3371 C3370 1.372 . S
C3371 C3372 1.400 . S
C3371 C3376 1.490 . S
C3372 H3362 0.930 . S
C3372 C3371 1.400 . S
C3372 C3375 1.386 . S
H3373 C3389 0.930 . S
H3374 C3390 0.931 . S
C3375 H3363 0.929 . S
C3375 C3369 1.390 . S
C3375 C3372 1.386 . S
C3376 C3371 1.490 . S
C3376 C3378 1.395 . S
C3376 C3379 1.403 . S
H3377 C3383 0.930 . S
C3378 H3364 0.930 . S
C3378 C3376 1.395 . S
C3378 C3381 1.403 . S
C3379 C3376 1.403 . S
C3379 C3380 1.524 . S
C3379 C3383 1.400 . S
C3380 H3365 0.960 . S
C3380 H3366 0.960 . S
C3380 H3367 0.960 . S
C3380 C3379 1.524 . S
C3381 C3378 1.403 . S
C3381 C3382 1.392 . S
C3381 C3385 1.495 . S
C3382 C3381 1.392 . S
C3382 C3383 1.385 . S
C3382 C3384 1.478 . S
C3383 H3377 0.930 . S
C3383 C3379 1.400 . S
C3383 C3382 1.385 . S
C3384 C3382 1.478 . S
C3384 C3386 1.381 . S
C3384 C3390 1.383 . S
C3385 C3381 1.495 . S
C3385 H3391 0.959 . S
C3385 H3392 0.961 . S
C3385 H3393 0.960 . S
C3386 C3384 1.381 . S
C3386 C3387 1.394 . S
C3386 H3394 0.930 . S
C3387 C3386 1.394 . S
C3387 C3388 1.383 . S
C3387 H3395 0.929 . S
C3388 C3387 1.383 . S
C3388 C3389 1.377 . S
C3389 H3373 0.930 . S
C3389 C3388 1.377 . S
C3389 C3390 1.379 . S
C3390 H3374 0.931 . S
C3390 C3384 1.383 . S
C3390 C3389 1.379 . S
H3391 C3385 0.959 . S
H3392 C3385 0.961 . S
H3393 C3385 0.960 . S
H3394 C3386 0.930 . S
H3395 C3387 0.929 . S
H3396 C3404 0.929 . S
H3397 C3406 0.930 . S
H3398 C3408 0.930 . S
H3399 C3411 0.929 . S
H3400 C3414 0.930 . S
H3401 C3416 0.960 . S
H3402 C3416 0.960 . S
H3403 C3416 0.960 . S
C3404 H3396 0.929 . S
C3404 C3405 1.404 . S
C3404 C3406 1.384 . S
C3405 C3404 1.404 . S
C3405 C3411 1.374 1_655 S
C3406 H3397 0.930 . S
C3406 C3404 1.384 . S
C3406 C3407 1.372 . S
C3407 C3406 1.372 . S
C3407 C3408 1.400 1_655 S
C3407 C3412 1.490 . S
C3408 H3398 0.930 . S
C3408 C3407 1.400 1_455 S
C3408 C3411 1.386 . S
H3409 C3425 0.930 . S
H3410 C3426 0.931 . S
C3411 H3399 0.929 . S
C3411 C3405 1.374 1_455 S
C3411 C3408 1.386 . S
C3412 C3407 1.490 . S
C3412 C3414 1.395 . S
C3412 C3415 1.403 1_655 S
H3413 C3419 0.930 . S
C3414 H3400 0.930 . S
C3414 C3412 1.395 . S
C3414 C3417 1.403 . S
C3415 C3412 1.403 1_455 S
C3415 C3416 1.524 . S
C3415 C3419 1.400 . S
C3416 H3401 0.960 . S
C3416 H3402 0.960 . S
C3416 H3403 0.960 . S
C3416 C3415 1.524 . S
C3417 C3414 1.403 . S
C3417 C3418 1.392 . S
C3417 C3421 1.495 . S
C3418 C3417 1.392 . S
C3418 C3419 1.385 1_655 S
C3418 C3420 1.478 . S
C3419 H3413 0.930 . S
C3419 C3415 1.400 . S
C3419 C3418 1.385 1_455 S
C3420 C3418 1.478 . S
C3420 C3422 1.381 . S
C3420 C3426 1.383 . S
C3421 C3417 1.495 . S
C3421 H3427 0.959 . S
C3421 H3428 0.961 . S
C3421 H3429 0.960 . S
C3422 C3420 1.381 . S
C3422 C3423 1.394 . S
C3422 H3430 0.930 . S
C3423 C3422 1.394 . S
C3423 C3424 1.383 . S
C3423 H3431 0.929 . S
C3424 C3423 1.383 . S
C3424 C3425 1.377 . S
C3425 H3409 0.930 . S
C3425 C3424 1.377 . S
C3425 C3426 1.379 . S
C3426 H3410 0.931 . S
C3426 C3420 1.383 . S
C3426 C3425 1.379 . S
H3427 C3421 0.959 . S
H3428 C3421 0.961 . S
H3429 C3421 0.960 . S
H3430 C3422 0.930 . S
H3431 C3423 0.929 . S
H3432 C3440 0.929 . S
H3433 C3442 0.930 . S
H3434 C3444 0.930 . S
H3435 C3447 0.929 . S
H3436 C3450 0.930 . S
H3437 C3452 0.960 . S
H3438 C3452 0.960 . S
H3439 C3452 0.960 . S
C3440 H3432 0.929 . S
C3440 C3441 1.377 . S
C3440 C3442 1.384 . S
C3441 C3440 1.377 . S
C3441 C3447 1.390 . S
C3442 H3433 0.930 . S
C3442 C3440 1.384 . S
C3442 C3443 1.372 . S
C3443 C3442 1.372 . S
C3443 C3444 1.400 . S
C3443 C3448 1.490 . S
C3444 H3434 0.930 . S
C3444 C3443 1.400 . S
C3444 C3447 1.386 . S
H3445 C3461 0.930 . S
H3446 C3462 0.931 . S
C3447 H3435 0.929 . S
C3447 C3441 1.390 . S
C3447 C3444 1.386 . S
C3448 C3443 1.490 . S
C3448 C3450 1.395 . S
C3448 C3451 1.403 . S
H3449 C3455 0.930 . S
C3450 H3436 0.930 . S
C3450 C3448 1.395 . S
C3450 C3453 1.403 . S
C3451 C3448 1.403 . S
C3451 C3452 1.524 . S
C3451 C3455 1.400 . S
C3452 H3437 0.960 . S
C3452 H3438 0.960 . S
C3452 H3439 0.960 . S
C3452 C3451 1.524 . S
C3453 C3450 1.403 . S
C3453 C3454 1.392 . S
C3453 C3457 1.495 . S
C3454 C3453 1.392 . S
C3454 C3455 1.385 . S
C3454 C3456 1.478 . S
C3455 H3449 0.930 . S
C3455 C3451 1.400 . S
C3455 C3454 1.385 . S
C3456 C3454 1.478 . S
C3456 C3458 1.381 . S
C3456 C3462 1.383 . S
C3457 C3453 1.495 . S
C3457 H3463 0.959 . S
C3457 H3464 0.961 . S
C3457 H3465 0.960 . S
C3458 C3456 1.381 . S
C3458 C3459 1.394 . S
C3458 H3466 0.930 . S
C3459 C3458 1.394 . S
C3459 C3460 1.383 . S
C3459 H3467 0.929 . S
C3460 C3459 1.383 . S
C3460 C3461 1.377 . S
C3461 H3445 0.930 . S
C3461 C3460 1.377 . S
C3461 C3462 1.379 . S
C3462 H3446 0.931 . S
C3462 C3456 1.383 . S
C3462 C3461 1.379 . S
H3463 C3457 0.959 . S
H3464 C3457 0.961 . S
H3465 C3457 0.960 . S
H3466 C3458 0.930 . S
H3467 C3459 0.929 . S
H3468 C3476 0.929 . S
H3469 C3478 0.930 . S
H3470 C3480 0.930 . S
H3471 C3483 0.929 . S
H3472 C3486 0.930 . S
H3473 C3488 0.960 . S
H3474 C3488 0.960 . S
H3475 C3488 0.960 . S
C3476 H3468 0.929 . S
C3476 C3477 1.377 . S
C3476 C3478 1.384 . S
C3477 C3476 1.377 . S
C3477 C3483 1.390 . S
C3478 H3469 0.930 . S
C3478 C3476 1.384 . S
C3478 C3479 1.372 . S
C3479 C3478 1.372 . S
C3479 C3480 1.400 . S
C3479 C3484 1.490 . S
C3480 H3470 0.930 . S
C3480 C3479 1.400 . S
C3480 C3483 1.386 . S
H3481 C3497 0.930 . S
H3482 C3498 0.931 . S
C3483 H3471 0.929 . S
C3483 C3477 1.390 . S
C3483 C3480 1.386 . S
C3484 C3479 1.490 . S
C3484 C3486 1.395 . S
C3484 C3487 1.403 . S
H3485 C3491 0.930 . S
C3486 H3472 0.930 . S
C3486 C3484 1.395 . S
C3486 C3489 1.403 . S
C3487 C3484 1.403 . S
C3487 C3488 1.524 . S
C3487 C3491 1.400 . S
C3488 H3473 0.960 . S
C3488 H3474 0.960 . S
C3488 H3475 0.960 . S
C3488 C3487 1.524 . S
C3489 C3486 1.403 . S
C3489 C3490 1.392 . S
C3489 C3493 1.495 . S
C3490 C3489 1.392 . S
C3490 C3491 1.385 . S
C3490 C3492 1.478 . S
C3491 H3485 0.930 . S
C3491 C3487 1.400 . S
C3491 C3490 1.385 . S
C3492 C3490 1.478 . S
C3492 C3494 1.381 . S
C3492 C3498 1.383 . S
C3493 C3489 1.495 . S
C3493 H3499 0.959 . S
C3493 H3500 0.961 . S
C3493 H3501 0.960 . S
C3494 C3492 1.381 . S
C3494 C3495 1.394 . S
C3494 H3502 0.930 . S
C3495 C3494 1.394 . S
C3495 C3496 1.383 . S
C3495 H3503 0.929 . S
C3496 C3495 1.383 . S
C3496 C3497 1.377 . S
C3497 H3481 0.930 . S
C3497 C3496 1.377 . S
C3497 C3498 1.379 . S
C3498 H3482 0.931 . S
C3498 C3492 1.383 . S
C3498 C3497 1.379 . S
H3499 C3493 0.959 . S
H3500 C3493 0.961 . S
H3501 C3493 0.960 . S
H3502 C3494 0.930 . S
H3503 C3495 0.929 . S
H3504 C3512 0.929 . S
H3505 C3514 0.930 . S
H3506 C3516 0.930 . S
H3507 C3519 0.929 . S
H3508 C3522 0.930 . S
H3509 C3524 0.960 . S
H3510 C3524 0.960 . S
H3511 C3524 0.960 . S
C3512 H3504 0.929 . S
C3512 C3513 1.346 1_565 S
C3512 C3514 1.384 . S
C3513 C3512 1.346 1_545 S
C3513 C3519 1.432 . S
C3514 H3505 0.930 . S
C3514 C3512 1.384 . S
C3514 C3515 1.372 1_565 S
C3515 C3514 1.372 1_545 S
C3515 C3516 1.400 . S
C3515 C3520 1.490 . S
C3516 H3506 0.930 . S
C3516 C3515 1.400 . S
C3516 C3519 1.386 . S
H3517 C3533 0.930 . S
H3518 C3534 0.931 . S
C3519 H3507 0.929 . S
C3519 C3513 1.432 . S
C3519 C3516 1.386 . S
C3520 C3515 1.490 . S
C3520 C3522 1.395 1_545 S
C3520 C3523 1.403 . S
H3521 C3527 0.930 . S
C3522 H3508 0.930 . S
C3522 C3520 1.395 1_565 S
C3522 C3525 1.403 . S
C3523 C3520 1.403 . S
C3523 C3524 1.524 . S
C3523 C3527 1.400 . S
C3524 H3509 0.960 . S
C3524 H3510 0.960 . S
C3524 H3511 0.960 . S
C3524 C3523 1.524 . S
C3525 C3522 1.403 . S
C3525 C3526 1.392 1_565 S
C3525 C3529 1.495 . S
C3526 C3525 1.392 1_545 S
C3526 C3527 1.385 . S
C3526 C3528 1.478 . S
C3527 H3521 0.930 . S
C3527 C3523 1.400 . S
C3527 C3526 1.385 . S
C3528 C3526 1.478 . S
C3528 C3530 1.381 1_545 S
C3528 C3534 1.383 . S
C3529 C3525 1.495 . S
C3529 H3535 0.959 . S
C3529 H3536 0.961 . S
C3529 H3537 0.960 . S
C3530 C3528 1.381 1_565 S
C3530 C3531 1.413 . S
C3530 H3538 0.930 . S
C3531 C3530 1.413 . S
C3531 C3532 1.333 1_565 S
C3531 H3539 0.965 . S
C3532 C3531 1.333 1_545 S
C3532 C3533 1.377 . S
C3533 H3517 0.930 . S
C3533 C3532 1.377 . S
C3533 C3534 1.379 . S
C3534 H3518 0.931 . S
C3534 C3528 1.383 . S
C3534 C3533 1.379 . S
H3535 C3529 0.959 . S
H3536 C3529 0.961 . S
H3537 C3529 0.960 . S
H3538 C3530 0.930 . S
H3539 C3531 0.965 . S
H3540 C3548 0.929 . S
H3541 C3550 0.930 . S
H3542 C3552 0.930 . S
H3543 C3555 0.929 . S
H3544 C3558 0.944 . S
H3545 C3560 0.960 . S
H3546 C3560 0.960 . S
H3547 C3560 0.960 . S
C3548 H3540 0.929 . S
C3548 C3549 1.377 1_545 S
C3548 C3550 1.384 . S
C3549 C3548 1.377 1_565 S
C3549 C3555 1.390 . S
C3550 H3541 0.930 . S
C3550 C3548 1.384 . S
C3550 C3551 1.372 1_545 S
C3551 C3550 1.372 1_565 S
C3551 C3552 1.400 . S
C3551 C3556 1.490 . S
C3552 H3542 0.930 . S
C3552 C3551 1.400 . S
C3552 C3555 1.386 . S
H3553 C3569 0.930 . S
H3554 C3570 0.931 . S
C3555 H3543 0.929 . S
C3555 C3549 1.390 . S
C3555 C3552 1.386 . S
C3556 C3551 1.490 . S
C3556 C3558 1.382 1_565 S
C3556 C3559 1.403 . S
H3557 C3563 0.930 . S
C3558 H3544 0.944 . S
C3558 C3556 1.382 1_545 S
C3558 C3561 1.403 . S
C3559 C3556 1.403 . S
C3559 C3560 1.524 . S
C3559 C3563 1.400 . S
C3560 H3545 0.960 . S
C3560 H3546 0.960 . S
C3560 H3547 0.960 . S
C3560 C3559 1.524 . S
C3561 C3558 1.403 . S
C3561 C3562 1.392 1_545 S
C3561 C3565 1.495 . S
C3562 C3561 1.392 1_565 S
C3562 C3563 1.385 . S
C3562 C3564 1.478 . S
C3563 H3557 0.930 . S
C3563 C3559 1.400 . S
C3563 C3562 1.385 . S
C3564 C3562 1.478 . S
C3564 C3566 1.381 1_565 S
C3564 C3570 1.383 . S
C3565 C3561 1.495 . S
C3565 H3571 0.959 . S
C3565 H3572 0.961 . S
C3565 H3573 0.960 . S
C3566 C3564 1.381 1_545 S
C3566 C3567 1.394 . S
C3566 H3574 0.930 . S
C3567 C3566 1.394 . S
C3567 C3568 1.383 1_545 S
C3567 H3575 0.929 . S
C3568 C3567 1.383 1_565 S
C3568 C3569 1.377 . S
C3569 H3553 0.930 . S
C3569 C3568 1.377 . S
C3569 C3570 1.379 . S
C3570 H3554 0.931 . S
C3570 C3564 1.383 . S
C3570 C3569 1.379 . S
H3571 C3565 0.959 . S
H3572 C3565 0.961 . S
H3573 C3565 0.960 . S
H3574 C3566 0.930 . S
H3575 C3567 0.929 . S
H3576 C3584 0.929 . S
H3577 C3586 0.930 . S
H3578 C3588 0.930 . S
H3579 C3591 0.929 . S
H3580 C3594 0.930 . S
H3581 C3596 0.960 . S
H3582 C3596 0.960 . S
H3583 C3596 0.960 . S
C3584 H3576 0.929 . S
C3584 C3585 1.377 . S
C3584 C3586 1.384 . S
C3585 C3584 1.377 . S
C3585 C3591 1.390 . S
C3586 H3577 0.930 . S
C3586 C3584 1.384 . S
C3586 C3587 1.372 . S
C3587 C3586 1.372 . S
C3587 C3588 1.400 . S
C3587 C3592 1.490 . S
C3588 H3578 0.930 . S
C3588 C3587 1.400 . S
C3588 C3591 1.386 . S
H3589 C3605 0.930 . S
H3590 C3606 0.931 . S
C3591 H3579 0.929 . S
C3591 C3585 1.390 . S
C3591 C3588 1.386 . S
C3592 C3587 1.490 . S
C3592 C3594 1.395 . S
C3592 C3595 1.403 . S
H3593 C3599 0.930 . S
C3594 H3580 0.930 . S
C3594 C3592 1.395 . S
C3594 C3597 1.403 . S
C3595 C3592 1.403 . S
C3595 C3596 1.524 . S
C3595 C3599 1.400 . S
C3596 H3581 0.960 . S
C3596 H3582 0.960 . S
C3596 H3583 0.960 . S
C3596 C3595 1.524 . S
C3597 C3594 1.403 . S
C3597 C3598 1.392 . S
C3597 C3601 1.495 . S
C3598 C3597 1.392 . S
C3598 C3599 1.385 . S
C3598 C3600 1.478 . S
C3599 H3593 0.930 . S
C3599 C3595 1.400 . S
C3599 C3598 1.385 . S
C3600 C3598 1.478 . S
C3600 C3602 1.381 . S
C3600 C3606 1.383 . S
C3601 C3597 1.495 . S
C3601 H3607 0.959 . S
C3601 H3608 0.961 . S
C3601 H3609 0.960 . S
C3602 C3600 1.381 . S
C3602 C3603 1.394 . S
C3602 H3610 0.930 . S
C3603 C3602 1.394 . S
C3603 C3604 1.383 . S
C3603 H3611 0.929 . S
C3604 C3603 1.383 . S
C3604 C3605 1.377 . S
C3605 H3589 0.930 . S
C3605 C3604 1.377 . S
C3605 C3606 1.379 . S
C3606 H3590 0.931 . S
C3606 C3600 1.383 . S
C3606 C3605 1.379 . S
H3607 C3601 0.959 . S
H3608 C3601 0.961 . S
H3609 C3601 0.960 . S
H3610 C3602 0.930 . S
H3611 C3603 0.929 . S
H3612 C3620 0.929 . S
H3613 C3622 0.930 . S
H3614 C3624 0.930 . S
H3615 C3627 0.929 . S
H3616 C3630 0.930 . S
H3617 C3632 0.960 . S
H3618 C3632 0.960 . S
H3619 C3632 0.960 . S
C3620 H3612 0.929 . S
C3620 C3621 1.377 . S
C3620 C3622 1.384 . S
C3621 C3620 1.377 . S
C3621 C3627 1.390 1_556 S
C3622 H3613 0.930 . S
C3622 C3620 1.384 . S
C3622 C3623 1.372 . S
C3623 C3622 1.372 . S
C3623 C3624 1.400 1_556 S
C3623 C3628 1.490 . S
C3624 H3614 0.930 . S
C3624 C3623 1.400 1_554 S
C3624 C3627 1.386 . S
H3625 C3641 0.930 . S
H3626 C3642 0.931 . S
C3627 H3615 0.929 . S
C3627 C3621 1.390 1_554 S
C3627 C3624 1.386 . S
C3628 C3623 1.490 . S
C3628 C3630 1.395 . S
C3628 C3631 1.403 . S
H3629 C3635 0.930 . S
C3630 H3616 0.930 . S
C3630 C3628 1.395 . S
C3630 C3633 1.403 . S
C3631 C3628 1.403 . S
C3631 C3632 1.524 . S
C3631 C3635 1.400 . S
C3632 H3617 0.960 . S
C3632 H3618 0.960 . S
C3632 H3619 0.960 . S
C3632 C3631 1.524 . S
C3633 C3630 1.403 . S
C3633 C3634 1.392 . S
C3633 C3637 1.495 . S
C3634 C3633 1.392 . S
C3634 C3635 1.385 . S
C3634 C3636 1.478 . S
C3635 H3629 0.930 . S
C3635 C3631 1.400 . S
C3635 C3634 1.385 . S
C3636 C3634 1.478 . S
C3636 C3638 1.381 . S
C3636 C3642 1.383 1_556 S
C3637 C3633 1.495 . S
C3637 H3643 0.959 . S
C3637 H3644 0.961 1_556 S
C3637 H3645 0.960 . S
C3638 C3636 1.381 . S
C3638 C3639 1.394 . S
C3638 H3646 0.930 . S
C3639 C3638 1.394 . S
C3639 C3640 1.383 . S
C3639 H3647 0.929 . S
C3640 C3639 1.383 . S
C3640 C3641 1.377 1_556 S
C3641 H3625 0.930 . S
C3641 C3640 1.377 1_554 S
C3641 C3642 1.379 . S
C3642 H3626 0.931 . S
C3642 C3636 1.383 1_554 S
C3642 C3641 1.379 . S
H3643 C3637 0.959 . S
H3644 C3637 0.961 1_554 S
H3645 C3637 0.960 . S
H3646 C3638 0.930 . S
H3647 C3639 0.929 . S
H3648 C3656 0.929 . S
H3649 C3658 0.930 . S
H3650 C3660 0.930 . S
H3651 C3663 0.929 . S
H3652 C3666 0.930 . S
H3653 C3668 0.960 . S
H3654 C3668 0.960 . S
H3655 C3668 0.960 . S
C3656 H3648 0.929 . S
C3656 C3657 1.377 . S
C3656 C3658 1.384 . S
C3657 C3656 1.377 . S
C3657 C3663 1.390 . S
C3658 H3649 0.930 . S
C3658 C3656 1.384 . S
C3658 C3659 1.372 . S
C3659 C3658 1.372 . S
C3659 C3660 1.400 . S
C3659 C3664 1.490 . S
C3660 H3650 0.930 . S
C3660 C3659 1.400 . S
C3660 C3663 1.386 . S
H3661 C3677 0.930 . S
H3662 C3678 0.931 . S
C3663 H3651 0.929 . S
C3663 C3657 1.390 . S
C3663 C3660 1.386 . S
C3664 C3659 1.490 . S
C3664 C3666 1.395 . S
C3664 C3667 1.403 . S
H3665 C3671 0.930 . S
C3666 H3652 0.930 . S
C3666 C3664 1.395 . S
C3666 C3669 1.403 . S
C3667 C3664 1.403 . S
C3667 C3668 1.524 . S
C3667 C3671 1.400 . S
C3668 H3653 0.960 . S
C3668 H3654 0.960 . S
C3668 H3655 0.960 . S
C3668 C3667 1.524 . S
C3669 C3666 1.403 . S
C3669 C3670 1.392 . S
C3669 C3673 1.495 . S
C3670 C3669 1.392 . S
C3670 C3671 1.385 . S
C3670 C3672 1.478 . S
C3671 H3665 0.930 . S
C3671 C3667 1.400 . S
C3671 C3670 1.385 . S
C3672 C3670 1.478 . S
C3672 C3674 1.381 . S
C3672 C3678 1.383 . S
C3673 C3669 1.495 . S
C3673 H3679 0.959 . S
C3673 H3680 0.961 . S
C3673 H3681 0.960 . S
C3674 C3672 1.381 . S
C3674 C3675 1.394 . S
C3674 H3682 0.930 . S
C3675 C3674 1.394 . S
C3675 C3676 1.383 . S
C3675 H3683 0.929 . S
C3676 C3675 1.383 . S
C3676 C3677 1.377 . S
C3677 H3661 0.930 . S
C3677 C3676 1.377 . S
C3677 C3678 1.379 . S
C3678 H3662 0.931 . S
C3678 C3672 1.383 . S
C3678 C3677 1.379 . S
H3679 C3673 0.959 . S
H3680 C3673 0.961 . S
H3681 C3673 0.960 . S
H3682 C3674 0.930 . S
H3683 C3675 0.929 . S
H3684 C3692 0.929 . S
H3685 C3694 0.930 . S
H3686 C3696 0.930 . S
H3687 C3699 0.929 . S
H3688 C3702 0.930 . S
H3689 C3704 0.960 . S
H3690 C3704 0.960 . S
H3691 C3704 0.960 1_556 S
C3692 H3684 0.929 . S
C3692 C3693 1.443 . S
C3692 C3694 1.384 . S
C3693 C3692 1.443 . S
C3693 C3699 1.343 1_554 S
C3694 H3685 0.930 . S
C3694 C3692 1.384 . S
C3694 C3695 1.372 . S
C3695 C3694 1.372 . S
C3695 C3696 1.400 1_554 S
C3695 C3700 1.490 . S
C3696 H3686 0.930 . S
C3696 C3695 1.400 1_556 S
C3696 C3699 1.386 . S
H3697 C3713 0.980 . S
H3698 C3714 0.931 . S
C3699 H3687 0.929 . S
C3699 C3693 1.343 1_556 S
C3699 C3696 1.386 . S
C3700 C3695 1.490 . S
C3700 C3702 1.395 . S
C3700 C3703 1.403 . S
H3701 C3707 0.930 . S
C3702 H3688 0.930 . S
C3702 C3700 1.395 . S
C3702 C3705 1.403 . S
C3703 C3700 1.403 . S
C3703 C3704 1.524 . S
C3703 C3707 1.400 . S
C3704 H3689 0.960 . S
C3704 H3690 0.960 . S
C3704 H3691 0.960 1_554 S
C3704 C3703 1.524 . S
C3705 C3702 1.403 . S
C3705 C3706 1.392 . S
C3705 C3709 1.495 . S
C3706 C3705 1.392 . S
C3706 C3707 1.385 . S
C3706 C3708 1.478 . S
C3707 H3701 0.930 . S
C3707 C3703 1.400 . S
C3707 C3706 1.385 . S
C3708 C3706 1.478 . S
C3708 C3710 1.381 . S
C3708 C3714 1.383 1_554 S
C3709 C3705 1.495 . S
C3709 H3715 0.959 . S
C3709 H3716 0.961 . S
C3709 H3717 0.960 . S
C3710 C3708 1.381 . S
C3710 C3711 1.394 . S
C3710 H3718 0.930 . S
C3711 C3710 1.394 . S
C3711 C3712 1.383 . S
C3711 H3719 0.929 . S
C3712 C3711 1.383 . S
C3712 C3713 1.314 1_554 S
C3713 H3697 0.980 . S
C3713 C3712 1.314 1_556 S
C3713 C3714 1.395 . S
C3714 H3698 0.931 . S
C3714 C3708 1.383 1_556 S
C3714 C3713 1.395 . S
H3715 C3709 0.959 . S
H3716 C3709 0.961 . S
H3717 C3709 0.960 . S
H3718 C3710 0.930 . S
H3719 C3711 0.929 . S
H3720 C3728 0.929 . S
H3721 C3730 0.930 . S
H3722 C3732 0.930 . S
H3723 C3735 0.929 . S
H3724 C3738 0.930 . S
H3725 C3740 0.960 . S
H3726 C3740 0.960 . S
H3727 C3740 0.960 . S
C3728 H3720 0.929 . S
C3728 C3729 1.377 . S
C3728 C3730 1.384 . S
C3729 C3728 1.377 . S
C3729 C3735 1.390 . S
C3730 H3721 0.930 . S
C3730 C3728 1.384 . S
C3730 C3731 1.372 . S
C3731 C3730 1.372 . S
C3731 C3732 1.400 . S
C3731 C3736 1.490 . S
C3732 H3722 0.930 . S
C3732 C3731 1.400 . S
C3732 C3735 1.386 . S
H3733 C3749 0.930 . S
H3734 C3750 0.931 . S
C3735 H3723 0.929 . S
C3735 C3729 1.390 . S
C3735 C3732 1.386 . S
C3736 C3731 1.490 . S
C3736 C3738 1.395 . S
C3736 C3739 1.403 . S
H3737 C3743 0.930 . S
C3738 H3724 0.930 . S
C3738 C3736 1.395 . S
C3738 C3741 1.403 . S
C3739 C3736 1.403 . S
C3739 C3740 1.524 . S
C3739 C3743 1.400 . S
C3740 H3725 0.960 . S
C3740 H3726 0.960 . S
C3740 H3727 0.960 . S
C3740 C3739 1.524 . S
C3741 C3738 1.403 . S
C3741 C3742 1.392 . S
C3741 C3745 1.495 . S
C3742 C3741 1.392 . S
C3742 C3743 1.385 . S
C3742 C3744 1.478 . S
C3743 H3737 0.930 . S
C3743 C3739 1.400 . S
C3743 C3742 1.385 . S
C3744 C3742 1.478 . S
C3744 C3746 1.381 . S
C3744 C3750 1.383 . S
C3745 C3741 1.495 . S
C3745 H3751 0.959 . S
C3745 H3752 0.961 . S
C3745 H3753 0.960 . S
C3746 C3744 1.381 . S
C3746 C3747 1.394 . S
C3746 H3754 0.930 . S
C3747 C3746 1.394 . S
C3747 C3748 1.383 . S
C3747 H3755 0.929 . S
C3748 C3747 1.383 . S
C3748 C3749 1.377 . S
C3749 H3733 0.930 . S
C3749 C3748 1.377 . S
C3749 C3750 1.379 . S
C3750 H3734 0.931 . S
C3750 C3744 1.383 . S
C3750 C3749 1.379 . S
H3751 C3745 0.959 . S
H3752 C3745 0.961 . S
H3753 C3745 0.960 . S
H3754 C3746 0.930 . S
H3755 C3747 0.929 . S
H3756 C3764 0.929 . S
H3757 C3766 0.930 . S
H3758 C3768 0.930 . S
H3759 C3771 0.929 . S
H3760 C3774 0.930 . S
H3761 C3776 0.960 . S
H3762 C3776 0.960 . S
H3763 C3776 0.960 . S
C3764 H3756 0.929 . S
C3764 C3765 1.377 . S
C3764 C3766 1.384 . S
C3765 C3764 1.377 . S
C3765 C3771 1.390 . S
C3766 H3757 0.930 . S
C3766 C3764 1.384 . S
C3766 C3767 1.372 . S
C3767 C3766 1.372 . S
C3767 C3768 1.400 . S
C3767 C3772 1.490 . S
C3768 H3758 0.930 . S
C3768 C3767 1.400 . S
C3768 C3771 1.386 . S
H3769 C3785 0.930 . S
H3770 C3786 0.931 . S
C3771 H3759 0.929 . S
C3771 C3765 1.390 . S
C3771 C3768 1.386 . S
C3772 C3767 1.490 . S
C3772 C3774 1.395 1_655 S
C3772 C3775 1.403 . S
H3773 C3779 0.930 . S
C3774 H3760 0.930 . S
C3774 C3772 1.395 1_455 S
C3774 C3777 1.403 . S
C3775 C3772 1.403 . S
C3775 C3776 1.524 . S
C3775 C3779 1.400 . S
C3776 H3761 0.960 . S
C3776 H3762 0.960 . S
C3776 H3763 0.960 . S
C3776 C3775 1.524 . S
C3777 C3774 1.403 . S
C3777 C3778 1.392 1_455 S
C3777 C3781 1.495 . S
C3778 C3777 1.392 1_655 S
C3778 C3779 1.385 . S
C3778 C3780 1.478 . S
C3779 H3773 0.930 . S
C3779 C3775 1.400 . S
C3779 C3778 1.385 . S
C3780 C3778 1.478 . S
C3780 C3782 1.381 . S
C3780 C3786 1.383 . S
C3781 C3777 1.495 . S
C3781 H3787 0.959 . S
C3781 H3788 0.961 . S
C3781 H3789 0.960 . S
C3782 C3780 1.381 . S
C3782 C3783 1.394 . S
C3782 H3790 0.934 . S
C3783 C3782 1.394 . S
C3783 C3784 1.383 . S
C3783 H3791 0.929 . S
C3784 C3783 1.383 . S
C3784 C3785 1.377 . S
C3785 H3769 0.930 . S
C3785 C3784 1.377 . S
C3785 C3786 1.379 . S
C3786 H3770 0.931 . S
C3786 C3780 1.383 . S
C3786 C3785 1.379 . S
H3787 C3781 0.959 . S
H3788 C3781 0.961 . S
H3789 C3781 0.960 . S
H3790 C3782 0.934 . S
H3791 C3783 0.929 . S
H3792 C3800 0.929 . S
H3793 C3802 0.930 . S
H3794 C3804 0.930 . S
H3795 C3807 0.929 . S
H3796 C3810 0.930 . S
H3797 C3812 0.960 . S
H3798 C3812 0.960 . S
H3799 C3812 0.960 . S
C3800 H3792 0.929 . S
C3800 C3801 1.377 . S
C3800 C3802 1.384 . S
C3801 C3800 1.377 . S
C3801 C3807 1.390 . S
C3802 H3793 0.930 . S
C3802 C3800 1.384 . S
C3802 C3803 1.372 . S
C3803 C3802 1.372 . S
C3803 C3804 1.400 . S
C3803 C3808 1.490 . S
C3804 H3794 0.930 . S
C3804 C3803 1.400 . S
C3804 C3807 1.386 . S
H3805 C3821 0.930 . S
H3806 C3822 0.931 . S
C3807 H3795 0.929 . S
C3807 C3801 1.390 . S
C3807 C3804 1.386 . S
C3808 C3803 1.490 . S
C3808 C3810 1.395 . S
C3808 C3811 1.403 . S
H3809 C3815 0.930 . S
C3810 H3796 0.930 . S
C3810 C3808 1.395 . S
C3810 C3813 1.403 . S
C3811 C3808 1.403 . S
C3811 C3812 1.524 . S
C3811 C3815 1.400 . S
C3812 H3797 0.960 . S
C3812 H3798 0.960 . S
C3812 H3799 0.960 . S
C3812 C3811 1.524 . S
C3813 C3810 1.403 . S
C3813 C3814 1.392 . S
C3813 C3817 1.495 . S
C3814 C3813 1.392 . S
C3814 C3815 1.385 . S
C3814 C3816 1.478 . S
C3815 H3809 0.930 . S
C3815 C3811 1.400 . S
C3815 C3814 1.385 . S
C3816 C3814 1.478 . S
C3816 C3818 1.381 . S
C3816 C3822 1.383 . S
C3817 C3813 1.495 . S
C3817 H3823 0.959 . S
C3817 H3824 0.961 . S
C3817 H3825 0.960 . S
C3818 C3816 1.381 . S
C3818 C3819 1.394 . S
C3818 H3826 0.930 . S
C3819 C3818 1.394 . S
C3819 C3820 1.383 . S
C3819 H3827 0.929 . S
C3820 C3819 1.383 . S
C3820 C3821 1.377 . S
C3821 H3805 0.930 . S
C3821 C3820 1.377 . S
C3821 C3822 1.379 . S
C3822 H3806 0.931 . S
C3822 C3816 1.383 . S
C3822 C3821 1.379 . S
H3823 C3817 0.959 . S
H3824 C3817 0.961 . S
H3825 C3817 0.960 . S
H3826 C3818 0.930 . S
H3827 C3819 0.929 . S
H3828 C3836 0.929 . S
H3829 C3838 0.930 . S
H3830 C3840 0.930 . S
H3831 C3843 0.929 . S
H3832 C3846 0.930 . S
H3833 C3848 0.960 . S
H3834 C3848 0.960 . S
H3835 C3848 0.960 . S
C3836 H3828 0.929 . S
C3836 C3837 1.408 . S
C3836 C3838 1.384 . S
C3837 C3836 1.408 . S
C3837 C3843 1.371 1_455 S
C3838 H3829 0.930 . S
C3838 C3836 1.384 . S
C3838 C3839 1.372 . S
C3839 C3838 1.372 . S
C3839 C3840 1.400 1_455 S
C3839 C3844 1.490 . S
C3840 H3830 0.930 . S
C3840 C3839 1.400 1_655 S
C3840 C3843 1.386 . S
H3841 C3857 0.930 . S
H3842 C3858 0.950 . S
C3843 H3831 0.929 . S
C3843 C3837 1.371 1_655 S
C3843 C3840 1.386 . S
C3844 C3839 1.490 . S
C3844 C3846 1.395 . S
C3844 C3847 1.403 1_455 S
H3845 C3851 0.930 . S
C3846 H3832 0.930 . S
C3846 C3844 1.395 . S
C3846 C3849 1.403 . S
C3847 C3844 1.403 1_655 S
C3847 C3848 1.524 . S
C3847 C3851 1.400 . S
C3848 H3833 0.960 . S
C3848 H3834 0.960 . S
C3848 H3835 0.960 . S
C3848 C3847 1.524 . S
C3849 C3846 1.403 . S
C3849 C3850 1.392 . S
C3849 C3853 1.495 . S
C3850 C3849 1.392 . S
C3850 C3851 1.385 1_455 S
C3850 C3852 1.478 . S
C3851 H3845 0.930 . S
C3851 C3847 1.400 . S
C3851 C3850 1.385 1_655 S
C3852 C3850 1.478 . S
C3852 C3854 1.381 . S
C3852 C3858 1.383 . S
C3853 C3849 1.495 . S
C3853 H3859 0.959 . S
C3853 H3860 0.961 . S
C3853 H3861 0.960 . S
C3854 C3852 1.381 . S
C3854 C3855 1.394 . S
C3854 H3862 0.930 . S
C3855 C3854 1.394 . S
C3855 C3856 1.383 . S
C3855 H3863 0.929 . S
C3856 C3855 1.383 . S
C3856 C3857 1.377 . S
C3857 H3841 0.930 . S
C3857 C3856 1.377 . S
C3857 C3858 1.379 . S
C3858 H3842 0.950 . S
C3858 C3852 1.383 . S
C3858 C3857 1.379 . S
H3859 C3853 0.959 . S
H3860 C3853 0.961 . S
H3861 C3853 0.960 . S
H3862 C3854 0.930 . S
H3863 C3855 0.929 . S
C1300 C1267 1.794 . S
C1281 C15 1.881 . S
C1336 C1228 1.375 . S
C1317 C55 1.327 . S
C1372 C1254 0.705 . S
C1353 C95 0.600 1_545 S
C1408 C1241 1.398 . S
C1389 C135 1.430 . S
C1444 C1150 1.790 . S
C1425 C175 1.882 . S
C1461 C215 1.426 . S
C1480 C1163 1.401 . S
C1516 C1124 1.363 . S
C1497 C255 1.328 . S
C1533 C295 0.600 1_554 S
C1552 C1137 0.587 . S
C1588 C1215 1.825 . S
C1569 C335 1.880 . S
C1605 C375 1.430 . S
C1624 C1189 1.381 . S
C1641 C415 1.332 . S
C1660 C1176 1.346 . S
C1696 C1202 0.576 . S
C1677 C455 0.601 1_455 S
C1732 C1111 1.783 . S
C1713 C495 1.879 . S
C1749 C535 1.320 . S
C1768 C1072 1.363 . S
C1804 C1098 0.612 . S
C1785 C575 0.602 . S
C1821 C615 1.422 . S
C1840 C1085 1.381 . S
C1876 C994 1.812 . S
C1857 C655 1.880 . S
C1912 C1007 1.388 . S
C1893 C695 1.427 . S
C1929 C735 1.320 . S
C1948 C968 1.350 . S
C1965 C775 0.603 . S
C1984 C981 0.729 . S
C2001 C815 1.869 . S
C2020 C1059 1.802 . S
C2037 C855 1.429 . S
C2056 C1033 1.425 . S
C2092 C1020 1.343 . S
C2073 C895 1.322 . S
C2109 C935 0.604 . S
C2128 C1046 0.736 . S
C2164 C969 1.679 . S
C2145 C21 1.706 . S
C2200 C982 1.576 . S
C2181 C61 1.630 . S
C2217 C101 0.628 . S
C2236 C995 0.671 . S
C2253 C141 0.768 . S
C2272 C1008 0.751 . S
C2308 C1021 1.652 . S
C2289 C181 1.705 . S
C2325 C221 0.768 . S
C2344 C1034 0.763 . S
C2380 C1047 1.549 . S
C2361 C261 1.632 . S
C2416 C1060 0.618 . S
C2397 C301 0.624 . S
C2452 C1073 1.684 . S
C2433 C341 1.706 . S
C2469 C381 0.764 . S
C2488 C1086 0.790 . S
C2505 C421 1.637 . S
C2524 C1099 1.538 . S
C2541 C461 0.628 . S
C2560 C1112 0.672 . S
C2577 C501 1.674 . S
C2596 C1125 1.673 . S
C2613 C541 1.517 . S
C2632 C1138 1.539 . S
C2649 C581 0.632 . S
C2668 C1151 0.608 . S
C2685 C621 0.757 . S
C2704 C1164 0.751 . S
C2721 C661 1.674 . S
C2740 C1177 1.684 . S
C2776 C1190 0.776 . S
C2757 C701 0.749 . S
C2812 C1203 1.552 . S
C2793 C741 1.516 . S
C2848 C1216 0.668 . S
C2829 C781 0.629 . S
C2884 C1229 1.665 . S
C2865 C821 1.673 . S
C2901 C861 0.762 . S
C2920 C1242 0.726 . S
C2937 C901 1.517 . S
C2956 C1255 1.540 . S
C2973 C941 0.628 . S
C2992 C1268 0.642 . S
C3009 C2 1.674 . S
C3028 C1068 1.606 . S
C3064 C1107 1.569 . S
C3045 C42 1.768 . S
C3081 C82 1.493 . S
C3100 C1081 1.297 . S
C3136 C1094 1.453 . S
C3117 C122 1.465 . S
C3153 C162 1.672 . S
C3172 C964 1.549 . S
C3189 C202 1.459 . S
C3208 C977 1.447 . S
C3225 C242 1.776 . S
C3244 C990 1.559 . S
C3261 C282 1.500 . S
C3280 C1003 1.318 . S
C3316 C1016 1.578 . S
C3297 C322 1.672 . S
C3352 C1042 1.434 . S
C3333 C362 1.465 . S
C3369 C402 1.775 . S
C3388 C1055 1.569 . S
C3405 C442 1.499 . S
C3424 C1029 1.381 . S
C3460 C1224 1.542 . S
C3441 C482 1.656 . S
C3496 C1263 1.663 . S
C3477 C522 1.688 . S
C3513 C562 1.502 1_545 S
C3532 C1237 1.368 . S
C3568 C1250 1.397 . S
C3549 C602 1.453 . S
C3585 C642 1.650 . S
C3604 C1120 1.587 . S
C3621 C682 1.455 . S
C3640 C1133 1.410 . S
C3657 C722 1.701 . S
C3676 C1146 1.606 . S
C3712 C1159 1.358 . S
C3693 C762 1.497 1_554 S
C3748 C1172 1.541 . S
C3729 C802 1.653 . S
C3784 C1198 1.378 . S
C3765 C842 1.458 . S
C3801 C882 1.700 . S
C3820 C1211 1.595 . S
C3856 C1185 1.408 . S
C3837 C922 1.503 1_455 S
