# Generated by pormake.
# Topology zzz, (3,6)-cn, num edge types: 1
# Building blocks:
#     Node 0, Type 0, BuildingBlock: MIDCAF_clean_linker_0, # of connection points: 3
#     Node 1, Type 0, BuildingBlock: MIDCAF_clean_linker_0, # of connection points: 3
#     Node 2, Type 0, BuildingBlock: MIDCAF_clean_linker_0, # of connection points: 3
#     Node 3, Type 0, BuildingBlock: MIDCAF_clean_linker_0, # of connection points: 3
#     Node 4, Type 0, BuildingBlock: MIDCAF_clean_linker_0, # of connection points: 3
#     Node 5, Type 0, BuildingBlock: MIDCAF_clean_linker_0, # of connection points: 3
#     Node 6, Type 0, BuildingBlock: MIDCAF_clean_linker_0, # of connection points: 3
#     Node 7, Type 0, BuildingBlock: MIDCAF_clean_linker_0, # of connection points: 3
#     Node 8, Type 1, BuildingBlock: KUMJIN_clean_sbu_1, # of connection points: 6
#     Node 9, Type 1, BuildingBlock: KUMJIN_clean_sbu_1, # of connection points: 6
#     Node 10, Type 1, BuildingBlock: KUMJIN_clean_sbu_1, # of connection points: 6
#     Node 11, Type 1, BuildingBlock: KUMJIN_clean_sbu_1, # of connection points: 6
#     Edge 12, Type (0, 1), BuildingBlock: XIVTED_clean_linker_0, # of connection points: 2
#     Edge 13, Type (0, 1), BuildingBlock: XIVTED_clean_linker_0, # of connection points: 2
#     Edge 14, Type (0, 1), BuildingBlock: XIVTED_clean_linker_0, # of connection points: 2
#     Edge 15, Type (0, 1), BuildingBlock: XIVTED_clean_linker_0, # of connection points: 2
#     Edge 16, Type (0, 1), BuildingBlock: XIVTED_clean_linker_0, # of connection points: 2
#     Edge 17, Type (0, 1), BuildingBlock: XIVTED_clean_linker_0, # of connection points: 2
#     Edge 18, Type (0, 1), BuildingBlock: XIVTED_clean_linker_0, # of connection points: 2
#     Edge 19, Type (0, 1), BuildingBlock: XIVTED_clean_linker_0, # of connection points: 2
#     Edge 20, Type (0, 1), BuildingBlock: XIVTED_clean_linker_0, # of connection points: 2
#     Edge 21, Type (0, 1), BuildingBlock: XIVTED_clean_linker_0, # of connection points: 2
#     Edge 22, Type (0, 1), BuildingBlock: XIVTED_clean_linker_0, # of connection points: 2
#     Edge 23, Type (0, 1), BuildingBlock: XIVTED_clean_linker_0, # of connection points: 2
#     Edge 24, Type (0, 1), BuildingBlock: XIVTED_clean_linker_0, # of connection points: 2
#     Edge 25, Type (0, 1), BuildingBlock: XIVTED_clean_linker_0, # of connection points: 2
#     Edge 26, Type (0, 1), BuildingBlock: XIVTED_clean_linker_0, # of connection points: 2
#     Edge 27, Type (0, 1), BuildingBlock: XIVTED_clean_linker_0, # of connection points: 2
#     Edge 28, Type (0, 1), BuildingBlock: XIVTED_clean_linker_0, # of connection points: 2
#     Edge 29, Type (0, 1), BuildingBlock: XIVTED_clean_linker_0, # of connection points: 2
#     Edge 30, Type (0, 1), BuildingBlock: XIVTED_clean_linker_0, # of connection points: 2
#     Edge 31, Type (0, 1), BuildingBlock: XIVTED_clean_linker_0, # of connection points: 2
#     Edge 32, Type (0, 1), BuildingBlock: XIVTED_clean_linker_0, # of connection points: 2
#     Edge 33, Type (0, 1), BuildingBlock: XIVTED_clean_linker_0, # of connection points: 2
#     Edge 34, Type (0, 1), BuildingBlock: XIVTED_clean_linker_0, # of connection points: 2
#     Edge 35, Type (0, 1), BuildingBlock: XIVTED_clean_linker_0, # of connection points: 2
# Relax obj value: 0.315
# Max RMSD: 0.210
# Mean RMSD: 0.182
data_MOF--net-zzz--node1-KUMJIN_clean_sbu_1--node2-MIDCAF_clean_linker_0--edge1-XIVTED_clean_linker_0
_symmetry_space_group_name_H-M    P1
_symmetry_Int_Tables_number       1
_symmetry_cell_setting            triclinic
loop_
_symmetry_equiv_pos_as_xyz
'x, y, z'
_cell_length_a     56.543483
_cell_length_b     56.504651
_cell_length_c     21.031915
_cell_angle_alpha  89.75634
_cell_angle_beta   90.097939
_cell_angle_gamma 90.404244
loop_
_atom_site_label
_atom_site_type_symbol
_atom_site_fract_x
_atom_site_fract_y
_atom_site_fract_z
_atom_type_partial_charge
C0 C 0.78911 0.56201 0.44857 0.0
C1 C 0.80131 0.54036 0.45341 0.0
C2 C 0.79041 0.52029 0.42568 0.0
C3 C 0.76948 0.52232 0.38928 0.0
H4 H 0.68476 0.51055 0.23864 0.0
H5 H 0.65053 0.5064 0.16756 0.0
H6 H 0.65057 0.58216 0.13843 0.0
H7 H 0.68353 0.58603 0.21127 0.0
H8 H 0.73684 0.57918 0.09624 0.0
H9 H 0.76251 0.58461 1.00423 0.0
H10 H 0.82325 0.56824 0.12125 0.0
H11 H 0.79798 0.56345 0.21262 0.0
H12 H 0.76083 0.5814 0.40483 0.0
H13 H 0.7963 0.57787 0.47014 0.0
H14 H 0.79898 0.50325 0.42768 0.0
H15 H 0.76316 0.507 0.36333 0.0
N16 N 0.72171 0.54535 0.30904 0.0
N17 N 0.7265 0.55981 0.20431 0.0
N18 N 0.75915 0.55769 0.27149 0.0
C19 C 0.71217 0.5511 0.25045 0.0
C20 C 0.74985 0.56308 0.21418 0.0
C21 C 0.7456 0.54902 0.31926 0.0
C22 C 0.68671 0.54868 0.23201 0.0
C23 C 0.67656 0.52636 0.21972 0.0
C24 C 0.65725 0.524 0.17725 0.0
C25 C 0.64772 0.54387 0.14505 0.0
C26 C 0.65683 0.56629 0.16177 0.0
C27 C 0.67583 0.56861 0.20445 0.0
C28 C 0.76536 0.57049 0.16147 0.0
C29 C 0.75576 0.57733 0.10253 0.0
C30 C 0.77042 0.58052 0.04987 0.0
C31 C 0.79487 0.57679 0.05528 0.0
C32 C 0.80456 0.57174 0.11541 0.0
C33 C 0.78997 0.56869 0.16794 0.0
C34 C 0.75856 0.54438 0.37996 0.0
C35 C 0.76822 0.56396 0.41238 0.0
C36 C 0.96899 0.7935 0.44933 0.0
C37 C 0.99045 0.80646 0.44988 0.0
C38 C 0.00989 0.79623 0.41805 0.0
C39 C 0.00731 0.77527 0.38215 0.0
H40 H 0.02285 0.69593 0.2274 0.0
H41 H 0.02969 0.66303 0.15414 0.0
H42 H 0.95415 0.6526 0.137 0.0
H43 H 0.94779 0.6843 0.21197 0.0
H44 H 0.9689 0.74734 0.0891 0.0
H45 H 0.96618 0.77764 1.00835 0.0
H46 H 0.93361 0.82474 0.14363 0.0
H47 H 0.93747 0.79446 0.22591 0.0
H48 H 0.94901 0.76473 0.40915 0.0
H49 H 0.95365 0.79996 0.47435 0.0
H50 H 0.02679 0.8053 0.41654 0.0
H51 H 0.02202 0.76945 0.3534 0.0
N52 N 0.98583 0.72724 0.30515 0.0
N53 N 0.96822 0.73079 0.20375 0.0
N54 N 0.96783 0.7629 0.2727 0.0
C55 C 0.9796 0.71736 0.24744 0.0
C56 C 0.96234 0.75341 0.21576 0.0
C57 C 0.97939 0.75031 0.3178 0.0
C58 C 0.98477 0.69259 0.22685 0.0
C59 C 0.00783 0.68573 0.21055 0.0
C60 C 0.01165 0.66716 0.16682 0.0
C61 C 0.99252 0.65512 0.13727 0.0
C62 C 0.96957 0.66091 0.15801 0.0
C63 C 0.96583 0.67917 0.20191 0.0
C64 C 0.95391 0.76879 0.16409 0.0
C65 C 0.96037 0.76383 0.1012 0.0
C66 C 0.95862 0.78126 0.05454 0.0
C67 C 0.95008 0.80386 0.06977 0.0
C68 C 0.94082 0.80771 0.13084 0.0
C69 C 0.94296 0.79038 0.17789 0.0
C70 C 0.98527 0.76372 0.37698 0.0
C71 C 0.96644 0.7727 0.41318 0.0
C72 C 0.73777 0.97358 0.43839 0.0
C73 C 0.72697 0.99589 0.44507 0.0
C74 C 0.73822 0.01538 0.41487 0.0
C75 C 0.75811 0.01227 0.37522 0.0
H76 H 0.85523 0.96244 0.23555 0.0
H77 H 0.88803 0.96887 0.16199 0.0
H78 H 0.85851 0.03645 0.10891 0.0
H79 H 0.82626 0.03005 0.18408 0.0
H80 H 0.79453 0.96018 0.08074 0.0
H81 H 0.76863 0.95622 0.98884 0.0
H82 H 0.70849 0.9485 0.11373 0.0
H83 H 0.73415 0.95233 0.20544 0.0
H84 H 0.76373 0.9527 0.39025 0.0
H85 H 0.73058 0.9581 0.46208 0.0
H86 H 0.73079 0.03292 0.41806 0.0
H87 H 0.76495 0.02732 0.34881 0.0
N88 N 0.80374 0.99306 0.29394 0.0
N89 N 0.80259 0.97489 0.19323 0.0
N90 N 0.76994 0.97179 0.2602 0.0
C91 C 0.81457 0.9876 0.23727 0.0
C92 C 0.78035 0.96702 0.20384 0.0
C93 C 0.78126 0.98453 0.3057 0.0
C94 C 0.83844 0.99605 0.21746 0.0
C95 C 0.85651 0.97925 0.21075 0.0
C96 C 0.87504 0.98272 0.16698 0.0
C97 C 0.87594 1.003 0.12762 0.0
C98 C 0.85881 0.02064 0.13811 0.0
C99 C 0.84034 0.01717 0.18216 0.0
C100 C 0.76629 0.95734 0.15052 0.0
C101 C 0.77589 0.95682 0.0888 0.0
C102 C 0.7611 0.95449 0.03598 0.0
C103 C 0.73656 0.95242 0.04408 0.0
C104 C 0.72738 0.94992 0.10585 0.0
C105 C 0.74211 0.95237 0.15863 0.0
C106 C 0.76734 0.98961 0.3644 0.0
C107 C 0.75733 0.97048 0.39816 0.0
C108 C 0.55855 0.72167 0.11784 0.0
C109 C 0.56702 0.72863 0.05777 0.0
C110 C 0.57386 0.7524 0.04829 0.0
C111 C 0.57122 0.76899 0.09693 0.0
H112 H 0.58103 0.84787 0.19083 0.0
H113 H 0.57466 0.88191 0.12086 0.0
H114 H 0.49977 0.8777 0.158 0.0
H115 H 0.50634 0.84365 0.22886 0.0
H116 H 0.50545 0.77384 0.3743 0.0
H117 H 0.50116 0.73913 0.44402 0.0
H118 H 0.57706 0.73404 0.45718 0.0
H119 H 0.58115 0.7687 0.38845 0.0
H120 H 0.5489 0.73207 0.21124 0.0
H121 H 0.55243 0.70377 0.12677 0.0
H122 H 0.58068 0.75834 1.00284 0.0
H123 H 0.57599 0.78729 0.08788 0.0
N124 N 0.55438 0.80258 0.19296 0.0
N125 N 0.54328 0.80992 0.29951 0.0
N126 N 0.55343 0.77157 0.26631 0.0
C127 C 0.54752 0.8181 0.23845 0.0
C128 C 0.54673 0.78627 0.31323 0.0
C129 C 0.55714 0.77934 0.20647 0.0
C130 C 0.54428 0.84321 0.21687 0.0
C131 C 0.56331 0.8549 0.18652 0.0
C132 C 0.55961 0.87438 0.14574 0.0
C133 C 0.53663 0.88254 0.13259 0.0
C134 C 0.51771 0.87181 0.16614 0.0
C135 C 0.52149 0.8525 0.20783 0.0
C136 C 0.54365 0.77462 0.3767 0.0
C137 C 0.52117 0.7662 0.39521 0.0
C138 C 0.51875 0.74592 0.43447 0.0
C139 C 0.53876 0.73317 0.45536 0.0
C140 C 0.56118 0.7429 0.44132 0.0
C141 C 0.56354 0.76325 0.40298 0.0
C142 C 0.56205 0.76199 0.15613 0.0
C143 C 0.55627 0.73807 0.16642 0.0
C144 C 0.23565 0.47235 0.85911 0.0
C145 C 0.22452 0.49453 0.85806 0.0
C146 C 0.23557 0.51332 0.89083 0.0
C147 C 0.25614 0.50961 0.92755 0.0
H148 H 0.33341 0.52358 0.08127 0.0
H149 H 0.36681 0.5315 0.15303 0.0
H150 H 0.37441 0.45633 0.18481 0.0
H151 H 0.34196 0.44879 0.11203 0.0
H152 H 0.27925 0.46882 0.22474 0.0
H153 H 0.24784 0.46982 0.30308 0.0
H154 H 0.19761 0.44633 0.16135 0.0
H155 H 0.22904 0.44565 0.0823 0.0
H156 H 0.26245 0.45066 0.90189 0.0
H157 H 0.22754 0.45742 0.83512 0.0
H158 H 0.22749 0.53064 0.89101 0.0
H159 H 0.26282 0.52397 0.95658 0.0
N160 N 0.3016 0.4865 1.00843 0.0
N161 N 0.29603 0.46984 0.11054 0.0
N162 N 0.2649 0.46973 0.0379 0.0
C163 C 0.3105 0.48043 0.06743 0.0
C164 C 0.27328 0.46456 0.09639 0.0
C165 C 0.27856 0.48048 0.99349 0.0
C166 C 0.33515 0.48552 0.08988 0.0
C167 C 0.343 0.50879 0.10131 0.0
C168 C 0.36189 0.51329 0.14394 0.0
C169 C 0.37335 0.49465 0.17677 0.0
C170 C 0.36651 0.47135 0.16103 0.0
C171 C 0.3478 0.46692 0.11859 0.0
C172 C 0.25649 0.45775 0.14694 0.0
C173 C 0.26171 0.46301 0.21068 0.0
C174 C 0.24367 0.46353 0.25577 0.0
C175 C 0.22017 0.45863 0.23792 0.0
C176 C 0.21549 0.45068 0.17599 0.0
C177 C 0.23351 0.45023 0.13085 0.0
C178 C 0.26604 0.48693 0.93336 0.0
C179 C 0.25594 0.46856 0.89674 0.0
C180 C 0.01367 0.23475 0.91261 0.0
C181 C 0.02965 0.22871 0.86403 0.0
C182 C 0.04803 0.24491 0.85015 0.0
C183 C 0.05166 0.26522 0.88801 0.0
H184 H 0.00885 0.34086 0.07694 0.0
H185 H 1.00223 0.37513 0.14627 0.0
H186 H 0.07686 0.37706 0.19079 0.0
H187 H 0.08326 0.34411 0.12031 0.0
H188 H 0.06859 0.28413 0.22019 0.0
H189 H 0.0702 0.25301 0.29891 0.0
H190 H 0.0892 0.20282 0.15319 0.0
H191 H 0.08636 0.23403 0.0734 0.0
H192 H 1.00567 0.25796 0.99017 0.0
H193 H 0.99918 0.22291 0.92445 0.0
H194 H 0.06077 0.2409 0.81341 0.0
H195 H 0.06747 0.2758 0.88044 0.0
N196 N 0.04155 0.30605 0.0123 0.0
N197 N 0.06328 0.30072 0.10711 0.0
N198 N 0.05935 0.26941 0.03625 0.0
C199 C 0.05065 0.3151 0.0682 0.0
C200 C 0.06763 0.27797 0.09184 0.0
C201 C 0.04657 0.28299 0.9959 0.0
C202 C 0.04663 0.3397 0.09244 0.0
C203 C 0.0239 0.34931 0.09954 0.0
C204 C 0.02009 0.36873 0.14064 0.0
C205 C 0.0389 0.37902 0.17596 0.0
C206 C 0.06177 0.37023 0.16484 0.0
C207 C 0.06552 0.3511 0.12394 0.0
C208 C 0.07663 0.26137 0.14032 0.0
C209 C 0.07388 0.26665 0.20504 0.0
C210 C 0.07494 0.24868 0.25052 0.0
C211 C 0.07917 0.22516 0.23228 0.0
C212 C 0.0851 0.22058 0.16859 0.0
C213 C 0.08365 0.2385 0.12289 0.0
C214 C 0.03668 0.27026 0.93969 0.0
C215 C 0.01708 0.25522 0.94956 0.0
C216 C 0.30659 0.03995 0.93479 0.0
C217 C 0.30285 0.04234 0.86927 0.0
C218 C 0.27992 0.04818 0.8478 0.0
C219 C 0.26135 0.05221 0.89166 0.0
H220 H 0.19356 0.01757 0.08533 0.0
H221 H 0.1599 0.01 0.15562 0.0
H222 H 0.14146 0.08401 0.14496 0.0
H223 H 0.17427 0.09096 0.07305 0.0
H224 H 0.22767 0.07764 0.22661 0.0
H225 H 0.25156 0.07513 0.32261 0.0
H226 H 0.31348 0.09541 0.21512 0.0
H227 H 0.28982 0.09751 0.11871 0.0
H228 H 0.29241 0.04289 0.02834 0.0
H229 H 0.32399 0.03557 0.9528 0.0
H230 H 0.27653 0.05015 0.79737 0.0
H231 H 0.24418 0.0576 0.87413 0.0
N232 N 0.22485 0.0539 1.00915 0.0
N233 N 0.22193 0.07412 0.10673 0.0
N234 N 0.25829 0.07204 0.05578 0.0
C235 C 0.21142 0.06174 0.05945 0.0
C236 C 0.24521 0.07929 0.10568 0.0
C237 C 0.24859 0.05964 1.00695 0.0
C238 C 0.18644 0.05478 0.07232 0.0
C239 C 0.18142 0.03185 0.09494 0.0
C240 C 0.16243 0.02773 0.13708 0.0
C241 C 0.14804 0.04648 0.15838 0.0
C242 C 0.15177 0.06892 0.13037 0.0
C243 C 0.17058 0.07293 0.08805 0.0
C244 C 0.25709 0.087 0.16465 0.0
C245 C 0.24618 0.0826 0.22372 0.0
C246 C 0.2598 0.08117 0.27893 0.0
C247 C 0.28433 0.08467 0.2759 0.0
C248 C 0.29455 0.09265 0.21875 0.0
C249 C 0.28102 0.09368 0.16335 0.0
C250 C 0.26554 0.05078 0.95767 0.0
C251 C 0.28835 0.04413 0.97807 0.0
C252 C 0.45848 0.30918 0.18752 0.0
C253 C 0.4536 0.29977 0.2481 0.0
C254 C 0.45038 0.27521 0.25492 0.0
C255 C 0.45389 0.26024 0.20322 0.0
H256 H 0.44689 0.18638 0.09334 0.0
H257 H 0.45154 0.15322 0.16661 0.0
H258 H 0.52725 0.15767 0.14487 0.0
H259 H 0.52245 0.1914 0.07158 0.0
H260 H 0.52312 0.26254 0.92623 0.0
H261 H 0.52839 0.29787 0.85998 0.0
H262 H 0.45249 0.30634 0.85283 0.0
H263 H 0.44766 0.27047 0.9146 0.0
H264 H 0.46683 0.30219 0.09089 0.0
H265 H 0.4616 0.32795 0.1806 0.0
H266 H 0.44643 0.26749 0.30094 0.0
H267 H 0.45243 0.2413 0.21053 0.0
N268 N 0.47221 0.23094 0.10248 0.0
N269 N 0.48603 0.22642 0.99722 0.0
N270 N 0.47259 0.26333 0.03394 0.0
C271 C 0.48107 0.21684 0.05642 0.0
C272 C 0.48138 0.25008 0.98628 0.0
C273 C 0.46804 0.25409 0.0918 0.0
C274 C 0.48424 0.19146 0.07531 0.0
C275 C 0.46452 0.17962 0.10171 0.0
C276 C 0.46723 0.16081 0.14493 0.0
C277 C 0.48981 0.15294 0.1633 0.0
C278 C 0.50955 0.1632 0.13223 0.0
C279 C 0.50682 0.18238 0.08927 0.0
C280 C 0.48495 0.2632 0.92501 0.0
C281 C 0.5076 0.27121 0.90721 0.0
C282 C 0.51055 0.29211 0.87064 0.0
C283 C 0.49094 0.30606 0.85191 0.0
C284 C 0.46827 0.29665 0.86517 0.0
C285 C 0.4654 0.27564 0.90052 0.0
C286 C 0.46048 0.26964 0.14383 0.0
C287 C 0.46179 0.2943 0.13595 0.0
Eu288 Eu 0.98454 0.03169 0.59056 0.0
C289 C 0.0783 0.03867 0.7562 0.0
N290 N 0.07363 0.02756 0.70018 0.0
C291 C 0.11186 0.03913 0.66077 0.0
C292 C 0.0998 0.05103 0.7658 0.0
C293 C 0.09044 0.02693 0.65365 0.0
C294 C 0.11646 0.05147 0.71677 0.0
C295 C 0.067 0.04683 0.86533 0.0
C296 C 0.06218 0.03653 0.80562 0.0
C297 C 0.08799 0.0598 0.8742 0.0
C298 C 0.10436 0.06186 0.82461 0.0
Eu299 Eu 0.03703 1.00677 0.6945 0.0
N300 N 0.04214 0.02364 0.79608 0.0
C301 C 0.05085 0.04326 0.9149 0.0
C302 C 0.02713 0.01887 0.84531 0.0
C303 C 0.03096 0.02898 0.905 0.0
H304 H 0.0879 0.01639 0.61175 0.0
H305 H 0.01879 0.02542 0.94359 0.0
H306 H 0.93665 0.02198 0.68088 0.0
H307 H 1.00664 0.99672 0.35412 0.0
H308 H 0.01246 1.00688 0.8392 0.0
H309 H 0.05393 0.05086 0.96142 0.0
H310 H 0.01294 0.0206 0.44887 0.0
H311 H 0.12502 0.03862 0.62349 0.0
H312 H 0.09196 0.06786 0.91968 0.0
H313 H 0.12075 0.07145 0.83267 0.0
H314 H 0.8985 1.00093 0.67336 0.0
H315 H 0.13323 0.06064 0.72246 0.0
H316 H 0.96978 0.97351 0.34168 0.0
N317 N 0.94925 0.00947 0.59199 0.0
C318 C 0.94407 0.99737 0.53787 0.0
C319 C 0.91127 0.99952 0.63533 0.0
C320 C 0.92228 0.98528 0.53139 0.0
C321 C 0.93311 0.01112 0.63988 0.0
C322 C 0.90585 0.98647 0.58097 0.0
N323 N 0.98126 0.00946 0.49513 0.0
C324 C 0.99738 0.00979 0.44683 0.0
C325 C 0.95581 0.98389 0.4331 0.0
C326 C 0.96061 0.99702 0.48873 0.0
C327 C 0.97276 0.9835 0.38486 0.0
C328 C 0.99361 0.99652 0.39179 0.0
H329 H 0.88884 0.97761 0.57745 0.0
H330 H 0.90074 0.96327 0.4698 0.0
H331 H 0.93019 0.96176 0.38426 0.0
O332 O 0.96827 0.05275 0.51563 0.0
O333 O 0.98655 0.99138 0.60747 0.0
O334 O 0.02631 0.98778 0.60414 0.0
O335 O 0.95851 0.05871 0.61361 0.0
O336 O 0.02068 0.04029 0.54621 0.0
O337 O 0.04688 0.01317 0.59009 0.0
O338 O 0.03124 0.97289 0.74046 0.0
O339 O 0.02409 0.04389 0.71962 0.0
O340 O 0.01282 0.05836 0.62254 0.0
O341 O 0.06739 0.98364 0.7148 0.0
O342 O 0.99916 0.99903 0.72819 0.0
O343 O 0.97878 0.03213 0.69782 0.0
C344 C 1.00529 0.97818 0.59784 0.0
C345 C 0.9582 0.09165 0.54516 0.0
C346 C 0.97934 0.12643 0.50596 0.0
C347 C 0.96089 0.14078 0.52792 0.0
C348 C 0.93986 0.10615 0.56644 0.0
C349 C 0.94126 0.13064 0.55797 0.0
C350 C 0.97797 0.10186 0.51524 0.0
C351 C 0.04109 0.02892 0.54607 0.0
C352 C 0.95655 0.06597 0.55503 0.0
C353 C 0.91742 0.97256 0.47565 0.0
C354 C 0.93419 0.97173 0.4269 0.0
C355 C 0.01997 0.06191 0.68137 0.0
C356 C 0.06209 0.94508 0.76595 0.0
C357 C 0.05302 0.9088 0.82322 0.0
C358 C 0.07544 0.89997 0.80835 0.0
C359 C 0.08473 0.93646 0.75213 0.0
C360 C 0.04654 0.9313 0.80229 0.0
C361 C 0.09135 0.91394 0.77345 0.0
C362 C 0.98218 0.01447 0.73767 0.0
C363 C 0.05361 0.96749 0.73937 0.0
H364 H 0.96139 0.15977 0.52062 0.0
H365 H 0.92448 0.09852 0.58963 0.0
H366 H 0.92701 0.14176 0.57428 0.0
H367 H 0.99234 0.09074 0.49937 0.0
H368 H 0.08062 0.88247 0.82406 0.0
H369 H 0.09702 0.94682 0.72383 0.0
H370 H 0.02898 0.93777 0.81307 0.0
H371 H 0.10871 0.9072 0.76223 0.0
Eu372 Eu 0.52134 0.04562 0.70411 0.0
C373 C 0.51095 0.93565 0.58323 0.0
N374 N 0.52053 0.95588 0.55904 0.0
C375 C 0.5461 0.93326 0.49194 0.0
C376 C 0.5184 0.91329 0.5616 0.0
C377 C 0.53791 0.95501 0.51395 0.0
C378 C 0.53624 0.9123 0.51565 0.0
C379 C 0.48284 0.9165 0.65416 0.0
C380 C 0.49336 0.93727 0.62904 0.0
C381 C 0.48998 0.89427 0.63201 0.0
C382 C 0.50773 0.89266 0.58595 0.0
Eu383 Eu 0.50374 0.99171 0.59452 0.0
N384 N 0.48665 0.95903 0.64944 0.0
C385 C 0.46545 0.91865 0.70094 0.0
C386 C 0.46997 0.96112 0.696 0.0
C387 C 0.45915 0.94105 0.7223 0.0
H388 H 0.54481 0.97115 0.49311 0.0
H389 H 0.446 0.94289 0.75927 0.0
H390 H 0.48085 0.06552 0.80812 0.0
H391 H 0.57624 0.09524 0.53391 0.0
H392 H 0.46532 0.97812 0.71464 0.0
H393 H 0.45697 0.90313 0.72135 0.0
H394 H 0.55925 0.05968 0.58287 0.0
H395 H 0.55972 0.93268 0.45591 0.0
H396 H 0.48195 0.87818 0.65041 0.0
H397 H 0.51308 0.87537 0.56945 0.0
H398 H 0.46465 0.10369 0.84354 0.0
H399 H 0.54241 0.89547 0.49786 0.0
H400 H 0.56336 0.13483 0.5685 0.0
N401 N 0.50365 0.08109 0.73893 0.0
C402 C 0.51202 0.10143 0.71228 0.0
C403 C 0.47788 0.1033 0.80645 0.0
C404 C 0.50378 0.12366 0.73275 0.0
C405 C 0.48683 0.0817 0.78556 0.0
C406 C 0.48645 0.12438 0.78012 0.0
N407 N 0.5369 0.07845 0.64647 0.0
C408 C 0.55355 0.07663 0.59968 0.0
C409 C 0.53858 0.12103 0.63799 0.0
C410 C 0.52924 0.10009 0.66533 0.0
C411 C 0.55576 0.11917 0.59056 0.0
C412 C 0.56313 0.09687 0.57104 0.0
H413 H 0.47969 0.14111 0.79702 0.0
H414 H 0.50728 0.16167 0.72156 0.0
H415 H 0.53775 0.15937 0.63871 0.0
O416 O 0.55193 0.03309 0.75688 0.0
O417 O 0.50561 0.05469 0.60665 0.0
O418 O 0.51999 0.02436 0.54752 0.0
O419 O 0.53179 0.06354 0.79213 0.0
O420 O 0.55339 0.0282 0.65689 0.0
O421 O 0.54306 0.99932 0.58326 0.0
O422 O 0.47315 1.0046 0.54175 0.0
O423 O 0.51805 0.98148 0.69276 0.0
O424 O 0.5063 0.01282 0.75347 0.0
O425 O 0.49425 0.97529 0.5038 0.0
O426 O 0.4719 0.00993 0.64073 0.0
O427 O 0.48249 0.03688 0.71919 0.0
C428 C 0.51072 0.04557 0.5509 0.0
C429 C 0.56548 0.05096 0.85529 0.0
C430 C 0.60194 0.03906 0.90691 0.0
C431 C 0.59739 0.05481 0.95681 0.0
C432 C 0.56088 0.06651 0.90563 0.0
C433 C 0.5768 0.06835 0.95629 0.0
C434 C 0.58589 0.03713 0.85661 0.0
C435 C 0.55896 0.01204 0.61427 0.0
C436 C 0.54939 0.04918 0.80084 0.0
C437 C 0.51324 0.14446 0.70599 0.0
C438 C 0.53061 0.14315 0.65884 0.0
C439 C 0.51467 0.99121 0.74884 0.0
C440 C 0.46077 0.98805 0.44044 0.0
C441 C 0.42326 0.99762 0.39039 0.0
C442 C 0.43034 0.98552 0.33543 0.0
C443 C 0.46775 0.97609 0.38527 0.0
C444 C 0.43859 0.99879 0.44264 0.0
C445 C 0.45255 0.97489 0.33294 0.0
C446 C 0.46648 0.02522 0.68576 0.0
C447 C 0.47636 0.98933 0.49604 0.0
H448 H 0.60958 0.05641 0.99638 0.0
H449 H 0.54508 0.07724 0.90578 0.0
H450 H 0.57322 0.08032 0.99508 0.0
H451 H 0.58964 0.02515 0.81779 0.0
H452 H 0.4189 0.98467 0.29413 0.0
H453 H 0.48493 0.96778 0.3825 0.0
H454 H 0.43305 1.00783 0.48544 0.0
H455 H 0.45803 0.96579 0.29031 0.0
Eu456 Eu 0.53687 0.50851 0.60727 0.0
C457 C 0.44475 0.49449 0.76053 0.0
N458 N 0.44924 0.50776 0.70772 0.0
C459 C 0.41143 0.49728 0.66414 0.0
C460 C 0.42342 0.48151 0.7661 0.0
C461 C 0.43281 0.50975 0.66049 0.0
C462 C 0.40674 0.48302 0.71703 0.0
C463 C 0.45718 0.48001 0.86416 0.0
C464 C 0.46141 0.49404 0.80954 0.0
C465 C 0.4361 0.46686 0.86927 0.0
C466 C 0.41922 0.46774 0.82065 0.0
Eu467 Eu 0.48379 0.53114 0.71067 0.0
N468 N 0.48146 0.50753 0.8044 0.0
C469 C 0.47407 0.47988 0.91276 0.0
C470 C 0.49731 0.50831 0.85343 0.0
C471 C 0.49416 0.49416 0.90743 0.0
H472 H 0.43576 0.52154 0.62087 0.0
H473 H 0.50699 0.49471 0.94566 0.0
H474 H 0.58707 0.51097 0.69581 0.0
H475 H 0.52153 0.53904 0.3643 0.0
H476 H 0.51204 0.52027 0.85292 0.0
H477 H 0.4715 0.46925 0.95523 0.0
H478 H 0.51195 0.51889 0.46486 0.0
H479 H 0.39841 0.49897 0.62663 0.0
H480 H 0.43254 0.45617 0.91113 0.0
H481 H 0.40289 0.45776 0.8258 0.0
H482 H 0.62701 0.52796 0.68846 0.0
H483 H 0.39006 0.47352 0.71993 0.0
H484 H 0.56055 0.55841 0.35064 0.0
N485 N 0.57535 0.52548 0.60767 0.0
C486 C 0.58192 0.53695 0.55337 0.0
C487 C 0.61439 0.53096 0.65056 0.0
C488 C 0.60502 0.54624 0.54626 0.0
C489 C 0.59143 0.52181 0.65523 0.0
C490 C 0.62118 0.54337 0.59606 0.0
N491 N 0.54406 0.52865 0.51051 0.0
C492 C 0.52853 0.5281 0.46073 0.0
C493 C 0.57255 0.54939 0.44552 0.0
C494 C 0.56594 0.53837 0.50328 0.0
C495 C 0.55616 0.55004 0.3956 0.0
C496 C 0.5341 0.53921 0.40316 0.0
H497 H 0.63911 0.55011 0.59221 0.0
H498 H 0.62921 0.56464 0.4829 0.0
H499 H 0.6007 0.56756 0.39494 0.0
O500 O 0.52975 0.47612 0.55547 0.0
O501 O 0.52546 0.54669 0.58604 0.0
O502 O 0.51019 0.55997 0.68064 0.0
O503 O 0.56625 0.48503 0.5823 0.0
O504 O 0.49948 0.50097 0.5702 0.0
O505 O 0.47783 0.53279 0.60312 0.0
O506 O 0.46732 0.55012 0.78862 0.0
O507 O 0.48681 0.49126 0.68939 0.0
O508 O 0.52655 0.48765 0.69569 0.0
O509 O 0.45654 0.55748 0.69189 0.0
O510 O 0.51989 0.54035 0.75497 0.0
O511 O 0.54564 0.5128 0.71294 0.0
C512 C 0.51951 0.56413 0.62422 0.0
C513 C 0.55987 0.44822 0.52466 0.0
C514 C 0.54959 0.4105 0.47689 0.0
C515 C 0.57367 0.40481 0.47307 0.0
C516 C 0.58395 0.4426 0.52021 0.0
C517 C 0.59079 0.42094 0.49428 0.0
C518 C 0.54287 0.4322 0.50241 0.0
C519 C 0.4817 0.51564 0.56227 0.0
C520 C 0.55197 0.47014 0.5547 0.0
C521 C 0.61154 0.55746 0.48913 0.0
C522 C 0.59533 0.55908 0.43897 0.0
C523 C 0.50544 0.47818 0.70174 0.0
C524 C 0.45611 0.58907 0.76368 0.0
C525 C 0.47855 0.62419 0.79381 0.0
C526 C 0.45849 0.63807 0.78128 0.0
C527 C 0.43627 0.6031 0.7516 0.0
C528 C 0.47719 0.59962 0.7853 0.0
C529 C 0.43748 0.62752 0.76052 0.0
C530 C 0.54015 0.52876 0.75613 0.0
C531 C 0.45484 0.56361 0.7513 0.0
H532 H 0.5792 0.38807 0.45328 0.0
H533 H 0.59742 0.45477 0.53718 0.0
H534 H 0.60936 0.41659 0.49103 0.0
H535 H 0.52422 0.43629 0.50649 0.0
H536 H 0.45893 0.65703 0.7886 0.0
H537 H 0.41992 0.59517 0.73491 0.0
H538 H 0.49265 0.58882 0.79401 0.0
H539 H 0.4221 0.63832 0.75131 0.0
Eu540 Eu 0.02631 0.54676 0.59816 0.0
C541 C 0.03358 0.45089 0.75223 0.0
N542 N 0.02113 0.45684 0.69908 0.0
C543 C 0.02876 0.41858 0.65454 0.0
C544 C 0.0445 0.42857 0.75781 0.0
C545 C 0.01795 0.44073 0.65148 0.0
C546 C 0.04226 0.41254 0.70766 0.0
C547 C 0.04579 0.46031 0.86015 0.0
C548 C 0.03416 0.4665 0.80306 0.0
C549 C 0.05723 0.43842 0.86499 0.0
C550 C 0.05655 0.42258 0.81402 0.0
Eu551 Eu 1.00192 0.494 0.7018 0.0
N552 N 0.02248 0.48733 0.79779 0.0
C553 C 0.04494 0.47599 0.91146 0.0
C554 C 0.02044 0.50201 0.84884 0.0
C555 C 0.03202 0.49685 0.90591 0.0
H556 H 1.00637 0.44438 0.61201 0.0
H557 H 0.03065 0.50876 0.94589 0.0
H558 H 0.00931 0.59365 0.68212 0.0
H559 H 0.00795 0.52437 0.34864 0.0
H560 H 0.00969 0.5176 0.8459 0.0
H561 H 0.05363 0.47185 0.95606 0.0
H562 H 0.0285 0.5212 0.45062 0.0
H563 H 0.02621 0.40597 0.61652 0.0
H564 H 0.06619 0.43335 0.9085 0.0
H565 H 0.06498 0.40551 0.81908 0.0
H566 H 0.98424 0.62884 0.66845 0.0
H567 H 0.05024 0.39519 0.71034 0.0
H568 H 0.97886 0.55616 0.33106 0.0
N569 N 1.00107 0.57955 0.59119 0.0
C570 C 0.99033 0.58318 0.53413 0.0
C571 C 0.98554 0.61598 0.63063 0.0
C572 C 0.97597 0.60318 0.52406 0.0
C573 C 0.99948 0.59586 0.63858 0.0
C574 C 0.97358 0.61958 0.57331 0.0
N575 N 0.00876 0.54841 0.49546 0.0
C576 C 0.01461 0.53394 0.44613 0.0
C577 C 0.98259 0.57023 0.42617 0.0
C578 C 0.99377 0.56688 0.4856 0.0
C579 C 0.98716 0.55422 0.37726 0.0
C580 C 1.00347 0.53619 0.38708 0.0
H581 H 0.96284 0.63524 0.56724 0.0
H582 H 0.95342 0.62148 0.45682 0.0
H583 H 0.95907 0.59257 0.37132 0.0
O584 O 0.04752 0.56621 0.529 0.0
O585 O 0.98601 0.54453 0.61642 0.0
O586 O 0.98121 0.5047 0.61401 0.0
O587 O 0.05337 0.57207 0.62925 0.0
O588 O 0.03476 0.51006 0.55724 0.0
O589 O 1.00486 0.48582 0.59529 0.0
O590 O 0.96955 0.49978 0.75346 0.0
O591 O 0.03922 0.5079 0.72443 0.0
O592 O 0.05276 0.51812 0.62601 0.0
O593 O 0.97921 0.46351 0.72795 0.0
O594 O 0.99401 0.53122 0.73856 0.0
O595 O 0.02582 0.55354 0.70547 0.0
C596 C 0.97231 0.5259 0.6069 0.0
C597 C 0.08653 0.57459 0.56195 0.0
C598 C 0.12077 0.55481 0.51733 0.0
C599 C 0.13563 0.57165 0.54618 0.0
C600 C 0.10155 0.59143 0.58999 0.0
C601 C 0.12601 0.58993 0.5821 0.0
C602 C 0.09623 0.5563 0.52544 0.0
C603 C 0.02151 0.49073 0.55316 0.0
C604 C 0.06088 0.5762 0.57173 0.0
C605 C 0.96459 0.60627 0.4653 0.0
C606 C 0.96777 0.58978 0.41665 0.0
C607 C 0.05691 0.51121 0.68473 0.0
C608 C 0.94208 0.46917 0.78523 0.0
C609 C 0.90455 0.47928 0.83372 0.0
C610 C 0.89888 0.45513 0.83929 0.0
C611 C 0.93649 0.44503 0.79134 0.0
C612 C 0.92606 0.48607 0.80651 0.0
C613 C 0.91491 0.43808 0.81836 0.0
C614 C 0.00863 0.54926 0.74631 0.0
C615 C 0.96396 0.47738 0.75481 0.0
H616 H 0.15463 0.57087 0.54001 0.0
H617 H 0.09435 0.60569 0.61809 0.0
H618 H 0.13754 0.60299 0.60374 0.0
H619 H 0.08481 0.54308 0.50384 0.0
H620 H 0.88229 0.44949 0.86034 0.0
H621 H 0.94862 0.43164 0.77493 0.0
H622 H 0.93007 0.50475 0.80071 0.0
H623 H 0.91057 0.41946 0.82295 0.0
H624 H 0.1059 0.07016 0.18317 0.0
H625 H 0.07865 1.00114 0.51012 0.0
H626 H 0.151 0.016 0.26178 0.0
H627 H 0.04041 0.06336 0.4516 0.0
H628 H 0.10411 1.00551 0.41722 0.0
H629 H 0.08068 0.0669 0.27727 0.0
C630 C 0.11065 0.05755 0.2198 0.0
C631 C 0.13094 0.04334 0.21334 0.0
C632 C 0.09026 0.01832 0.42471 0.0
C633 C 0.10147 0.03932 0.32214 0.0
C634 C 0.07574 0.01598 0.47842 0.0
C635 C 0.05739 0.03211 0.49001 0.0
C636 C 0.08642 0.03677 0.38089 0.0
C637 C 0.0543 0.0505 0.44529 0.0
C638 C 0.09606 0.05567 0.27374 0.0
C639 C 0.13551 0.02709 0.26294 0.0
N640 N 0.06854 0.05227 0.3929 0.0
N641 N 0.121 0.02557 0.31468 0.0
H642 H 0.4663 0.1533 0.27752 0.0
H643 H 0.52563 0.03665 0.42768 0.0
H644 H 0.51965 0.11412 0.17756 0.0
H645 H 0.48911 0.08893 0.53855 0.0
H646 H 0.52064 0.0618 0.33275 0.0
H647 H 0.47113 0.12701 0.36917 0.0
C648 C 0.47891 0.13901 0.27438 0.0
C649 C 0.49252 0.13606 0.21895 0.0
C650 C 0.51375 0.06776 0.37788 0.0
C651 C 0.49825 0.10552 0.32543 0.0
C652 C 0.51655 0.05336 0.43229 0.0
C653 C 0.50785 0.06054 0.49187 0.0
C654 C 0.50184 0.0895 0.38236 0.0
C655 C 0.4962 0.08249 0.49414 0.0
C656 C 0.48178 0.12405 0.32726 0.0
C657 C 0.50884 0.1173 0.21903 0.0
N658 N 0.49347 0.09599 0.44057 0.0
N659 N 0.51114 0.10274 0.27102 0.0
H660 H 0.37502 0.53208 0.26201 0.0
H661 H 0.48009 0.47865 0.47714 0.0
H662 H 0.41171 0.46754 0.21702 0.0
H663 H 0.44675 0.54543 0.51601 0.0
H664 H 0.45495 0.47415 0.38301 0.0
H665 H 0.40117 0.53747 0.35355 0.0
C666 C 0.38867 0.51911 0.27046 0.0
C667 C 0.39077 0.49921 0.23061 0.0
C668 C 0.45309 0.48982 0.41199 0.0
C669 C 0.42083 0.50516 0.33812 0.0
C670 C 0.46749 0.49242 0.46613 0.0
C671 C 0.46572 0.51251 0.50528 0.0
C672 C 0.43656 0.5074 0.39604 0.0
C673 C 0.44885 0.5296 0.48785 0.0
C674 C 0.40354 0.52214 0.3236 0.0
C675 C 0.4088 0.48297 0.24617 0.0
N676 N 0.43504 0.52666 0.43488 0.0
N677 N 0.42291 0.48625 0.29835 0.0
H678 H 0.99975 0.38523 0.25403 0.0
H679 H 0.05976 0.48626 0.47239 0.0
H680 H 0.06888 0.41521 0.21757 0.0
H681 H 0.98958 0.4584 0.50412 0.0
H682 H 0.06337 0.46057 0.37905 0.0
H683 H 0.99528 0.41254 0.34304 0.0
C684 C 0.01396 0.39761 0.26385 0.0
C685 C 0.03487 0.39739 0.2274 0.0
C686 C 0.04715 0.46005 0.40635 0.0
C687 C 0.02995 0.42877 0.33195 0.0
C688 C 0.04509 0.47475 0.4599 0.0
C689 C 0.02434 0.47461 0.4968 0.0
C690 C 0.02834 0.44491 0.38889 0.0
C691 C 1.00602 0.45911 0.47785 0.0
C692 C 0.01144 0.41315 0.31555 0.0
C693 C 0.05261 0.41398 0.24436 0.0
N694 N 0.00843 0.44502 0.42558 0.0
N695 N 0.0498 0.42874 0.29513 0.0
H696 H 0.89757 0.04303 0.07596 0.0
H697 H 0.97105 0.97438 0.80709 0.0
H698 H 0.89397 0.96725 0.05201 0.0
H699 H 0.95817 0.04943 0.80078 0.0
H700 H 0.94619 0.97138 0.90263 0.0
H701 H 0.92313 0.04566 0.98231 0.0
C702 C 0.90203 0.02689 0.05131 0.0
C703 C 0.89325 1.00487 0.07282 0.0
C704 C 0.94879 0.98852 0.8804 0.0
C705 C 0.92313 1.00784 0.96465 0.0
C706 C 0.96303 0.99025 0.82577 0.0
C707 C 0.96671 0.01219 0.79538 0.0
C708 C 0.93837 1.00894 0.90598 0.0
C709 C 0.95574 0.03211 0.82203 0.0
C710 C 0.91677 0.02844 0.99765 0.0
C711 C 0.90038 0.98465 0.03869 0.0
N712 N 0.94228 0.03003 0.87571 0.0
N713 N 0.91476 0.98664 0.98672 0.0
H714 H 0.50278 0.88101 0.03861 0.0
H715 H 0.52584 1.00544 0.87121 0.0
H716 H 0.56093 0.92435 0.10366 0.0
H717 H 0.51173 0.94261 0.76166 0.0
H718 H 0.53159 0.98032 0.96636 0.0
H719 H 0.49767 0.90784 0.94761 0.0
C720 C 0.51428 0.89633 0.03449 0.0
C721 C 0.53231 0.90025 0.07958 0.0
C722 C 0.52706 0.97212 0.92147 0.0
C723 C 0.52633 0.93141 0.97458 0.0
C724 C 0.52365 0.98645 0.8671 0.0
C725 C 0.51791 0.9763 0.80788 0.0
C726 C 0.52392 0.94744 0.91748 0.0
C727 C 0.51575 0.95145 0.80588 0.0
C728 C 0.51146 0.91156 0.98203 0.0
C729 C 0.54683 0.92043 0.07037 0.0
N730 N 0.51836 0.93803 0.85965 0.0
N731 N 0.54342 0.93529 0.01945 0.0
H732 H 0.61286 0.57526 0.10391 0.0
H733 H 0.57388 0.49781 0.80023 0.0
H734 H 0.64196 0.50685 0.05956 0.0
H735 H 0.5427 0.5652 0.84421 0.0
H736 H 0.59899 0.50133 0.89438 0.0
H737 H 0.58741 0.57225 1.01016 0.0
C738 C 0.61405 0.55955 0.07493 0.0
C739 C 0.63005 0.54134 0.09081 0.0
C740 C 0.58677 0.51545 0.8835 0.0
C741 C 0.60015 0.53769 0.98219 0.0
C742 C 0.57248 0.51356 0.82908 0.0
C743 C 0.5562 0.53138 0.81307 0.0
C744 C 0.58501 0.53533 0.92322 0.0
C745 C 0.55496 0.55101 0.85407 0.0
C746 C 0.59926 0.55783 0.02118 0.0
C747 C 0.62995 0.52132 0.05088 0.0
N748 N 0.56913 0.55246 0.90685 0.0
N749 N 0.61544 0.52012 0.99889 0.0
H750 H 0.02834 0.65478 0.04668 0.0
H751 H 0.97243 0.54975 0.83468 0.0
H752 H 0.96473 0.61662 0.09839 0.0
H753 H 0.03838 0.5848 0.79019 0.0
H754 H 0.96888 0.57447 0.9297 0.0
H755 H 0.03228 0.62936 0.9538 0.0
C756 C 0.01527 0.64098 0.03948 0.0
C757 C 0.9961 0.63824 0.08184 0.0
C758 C 0.98416 0.57678 0.89927 0.0
C759 C 1.00033 0.60901 0.97245 0.0
C760 C 0.98621 0.56263 0.84464 0.0
C761 C 1.00582 0.56496 0.80374 0.0
C762 C 1.00181 0.59361 0.91389 0.0
C763 C 0.02293 0.5822 0.81979 0.0
C764 C 0.01745 0.62652 0.98548 0.0
C765 C 0.97964 0.62005 0.0675 0.0
N766 N 0.02055 0.59572 0.87323 0.0
N767 N 0.98209 0.60635 0.01441 0.0
H768 H 0.08531 0.22275 0.36241 0.0
H769 H 0.99881 0.11111 0.39497 0.0
H770 H 0.05804 0.18275 0.20326 0.0
H771 H 1.00558 0.16558 0.53717 0.0
H772 H 0.02977 0.13071 0.33254 0.0
H773 H 0.06548 0.19501 0.43463 0.0
C774 C 0.07557 0.20795 0.34255 0.0
C775 C 0.073 0.20546 0.27644 0.0
C776 C 0.02466 0.13819 0.37778 0.0
C777 C 0.05064 0.17356 0.35885 0.0
C778 C 1.00709 0.127 0.41348 0.0
C779 C 0.99949 0.13695 0.47088 0.0
C780 C 0.03479 0.15936 0.39988 0.0
C781 C 0.01068 0.15762 0.49256 0.0
C782 C 0.06431 0.19214 0.38384 0.0
C783 C 0.06068 0.18551 0.25365 0.0
N784 N 0.0277 0.16826 0.45679 0.0
N785 N 0.04971 0.17052 0.29479 0.0
H786 H 0.32298 0.10467 0.33389 0.0
H787 H 0.38001 0.9802 0.35524 0.0
H788 H 0.28165 0.04033 0.32486 0.0
H789 H 0.41428 0.04221 0.43254 0.0
H790 H 0.34256 1.00158 0.3534 0.0
H791 H 0.35506 0.08255 0.3841 0.0
C792 C 0.3204 0.08607 0.3446 0.0
C793 C 0.29985 0.07424 0.32475 0.0
C794 C 0.35818 0.01039 0.37184 0.0
C795 C 0.33654 0.04872 0.3796 0.0
C796 C 0.37956 0.99828 0.37212 0.0
C797 C 0.40022 0.00963 0.3931 0.0
C798 C 0.35764 0.03413 0.39152 0.0
C799 C 0.3987 0.03289 0.41574 0.0
C800 C 0.3387 0.0734 0.37293 0.0
C801 C 0.29726 0.05011 0.33952 0.0
N802 N 0.37783 0.04453 0.41338 0.0
N803 N 0.31569 0.03798 0.36453 0.0
H804 H 0.4392 0.34572 0.26434 0.0
H805 H 0.54434 0.36401 0.50913 0.0
H806 H 0.47603 0.28894 0.35935 0.0
H807 H 0.51234 0.41987 0.39901 0.0
H808 H 0.5127 0.33709 0.47504 0.0
H809 H 0.45767 0.37383 0.33722 0.0
C810 C 0.45062 0.33909 0.30171 0.0
C811 C 0.45677 0.31508 0.30431 0.0
C812 C 0.51251 0.35529 0.45869 0.0
C813 C 0.47803 0.34701 0.38716 0.0
C814 C 0.53069 0.37049 0.47745 0.0
C815 C 0.53106 0.39392 0.45573 0.0
C816 C 0.49483 0.36359 0.41733 0.0
C817 C 0.51269 0.4018 0.41628 0.0
C818 C 0.46121 0.35514 0.34315 0.0
C819 C 0.47104 0.30733 0.3548 0.0
N820 N 0.49543 0.38656 0.39771 0.0
N821 N 0.48168 0.32334 0.39331 0.0
H822 H 0.21588 0.45171 0.36668 0.0
H823 H 0.11046 0.54459 0.39377 0.0
H824 H 0.18035 0.48271 0.20508 0.0
H825 H 0.15415 0.52268 0.55115 0.0
H826 H 0.13038 0.51575 0.32587 0.0
H827 H 0.18746 0.47089 0.43694 0.0
C828 C 0.20185 0.46221 0.34599 0.0
C829 C 0.20057 0.46575 0.28008 0.0
C830 C 0.13537 0.517 0.37549 0.0
C831 C 0.16824 0.48792 0.3599 0.0
C832 C 0.124 0.53338 0.41411 0.0
C833 C 0.13093 0.53602 0.4777 0.0
C834 C 0.15361 0.50309 0.40105 0.0
C835 C 0.14858 0.52127 0.50205 0.0
C836 C 0.18568 0.47317 0.38602 0.0
C837 C 0.18189 0.47932 0.25561 0.0
N838 N 0.15942 0.50548 0.46358 0.0
N839 N 0.16665 0.49018 0.29559 0.0
H840 H 0.94926 0.80572 0.93874 0.0
H841 H 0.0328 0.92009 0.93545 0.0
H842 H 0.96508 0.84805 0.10431 0.0
H843 H 0.03277 0.8669 0.7892 0.0
H844 H 1.00074 0.8988 0.98951 0.0
H845 H 0.97131 0.83416 0.87347 0.0
C846 C 0.95686 0.82123 0.96118 0.0
C847 C 0.95586 0.8241 0.02742 0.0
C848 C 0.00772 0.89177 0.9456 0.0
C849 C 0.98096 0.85653 0.95327 0.0
C850 C 0.02609 0.90375 0.91528 0.0
C851 C 0.0356 0.89478 0.85897 0.0
C852 C 0.99871 0.87084 0.91891 0.0
C853 C 0.02618 0.8739 0.83357 0.0
C854 C 0.96948 0.83738 0.92394 0.0
C855 C 0.96541 0.84491 0.05362 0.0
N856 N 0.00818 0.86254 0.86388 0.0
N857 N 0.97794 0.86011 0.01659 0.0
H858 H 0.69459 0.93091 1.01123 0.0
H859 H 0.64749 0.05407 0.91943 0.0
H860 H 0.74102 0.98881 0.95987 0.0
H861 H 0.6049 0.99132 0.89205 0.0
H862 H 0.68283 0.02944 0.92387 0.0
H863 H 0.66248 0.95027 0.95351 0.0
C864 C 0.69822 0.94727 0.98591 0.0
C865 C 0.72028 0.95855 0.9916 0.0
C866 C 0.66582 0.02104 0.91585 0.0
C867 C 0.68371 0.981 0.9272 0.0
C868 C 0.6457 0.03507 0.9142 0.0
C869 C 0.62342 0.02455 0.90669 0.0
C870 C 0.66349 0.99631 0.91152 0.0
C871 C 0.62188 0.99996 0.89865 0.0
C872 C 0.67991 0.95834 0.95308 0.0
C873 C 0.72421 0.97958 0.95727 0.0
N874 N 0.64166 0.98656 0.90251 0.0
N875 N 0.70588 0.9905 0.92804 0.0
H876 H 0.55534 0.73795 0.93358 0.0
H877 H 0.50661 0.60972 0.89268 0.0
H878 H 0.57497 0.68053 0.05884 0.0
H879 H 0.50045 0.66412 0.74919 0.0
H880 H 0.53819 0.63259 0.94347 0.0
H881 H 0.54298 0.70932 0.85457 0.0
C882 C 0.55771 0.71934 0.94404 0.0
C883 C 0.56555 0.71172 1.00401 0.0
C884 C 0.5303 0.63932 0.9001 0.0
C885 C 0.5504 0.67869 0.91417 0.0
C886 C 0.51228 0.62624 0.87109 0.0
C887 C 0.50047 0.63545 0.81782 0.0
C888 C 0.53633 0.66178 0.87582 0.0
C889 C 0.50859 0.65683 0.79152 0.0
C890 C 0.5504 0.70291 0.89883 0.0
C891 C 0.56811 0.68725 0.01427 0.0
N892 N 0.52573 0.66948 0.82145 0.0
N893 N 0.55993 0.67159 0.97052 0.0
H894 H 0.78254 0.55427 0.94532 0.0
H895 H 0.91555 0.51806 0.90427 0.0
H896 H 0.84098 0.59053 0.03565 0.0
H897 H 0.85716 0.4832 0.81011 0.0
H898 H 0.88929 0.54997 0.93509 0.0
H899 H 0.81008 0.5357 0.87291 0.0
C900 C 0.80108 0.55904 0.94857 0.0
C901 C 0.80961 0.57329 0.99821 0.0
C902 C 0.88221 0.5355 0.90717 0.0
C903 C 0.84124 0.55124 0.91726 0.0
C904 C 0.89714 0.51721 0.88995 0.0
C905 C 0.88836 0.4979 0.85527 0.0
C906 C 0.85822 0.53434 0.89026 0.0
C907 C 0.86444 0.49757 0.83803 0.0
C908 C 0.81687 0.54812 0.90761 0.0
C909 C 0.8338 0.57891 0.99954 0.0
N910 N 0.85012 0.51548 0.85616 0.0
N911 N 0.84891 0.56729 0.96089 0.0
H912 H 0.03297 0.21648 0.73615 0.0
H913 H 0.02833 0.07612 0.80444 0.0
H914 H 0.0244 0.18552 0.92232 0.0
H915 H 0.01709 0.10487 0.61665 0.0
H916 H 0.03149 0.11627 0.84609 0.0
H917 H 0.03123 0.17642 0.6897 0.0
C918 C 0.03074 0.20132 0.76731 0.0
C919 C 0.02852 0.20458 0.83343 0.0
C920 C 0.02834 0.11389 0.79572 0.0
C921 C 0.02696 0.15844 0.78047 0.0
C922 C 0.02667 0.09081 0.77163 0.0
C923 C 0.02247 0.08677 0.70658 0.0
C924 C 0.0259 0.13351 0.75485 0.0
C925 C 0.02028 0.1069 0.66708 0.0
C926 C 0.0297 0.17842 0.7407 0.0
C927 C 0.02574 0.18409 0.87115 0.0
N928 N 0.02205 0.12928 0.6917 0.0
N929 N 0.02518 0.16213 0.84437 0.0
H930 H 0.32286 1.00159 0.8243 0.0
H931 H 0.44489 0.06478 0.7334 0.0
H932 H 0.33124 0.07732 0.81987 0.0
H933 H 0.42891 0.99345 0.67499 0.0
H934 H 0.40381 0.06939 0.7673 0.0
H935 H 0.3614 0.99764 0.77109 0.0
C936 C 0.33257 0.0174 0.81065 0.0
C937 C 0.32362 0.03983 0.82566 0.0
C938 C 0.40926 0.05267 0.74727 0.0
C939 C 0.36832 0.03546 0.76688 0.0
C940 C 0.4329 0.04993 0.72843 0.0
C941 C 0.44087 0.02843 0.703 0.0
C942 C 0.39322 0.03364 0.74189 0.0
C943 C 0.42394 0.0102 0.69549 0.0
C944 C 0.35466 0.01515 0.78063 0.0
C945 C 0.33728 0.05971 0.80837 0.0
N946 N 0.40114 0.01308 0.71571 0.0
N947 N 0.35897 0.05707 0.78071 0.0
H948 H 0.52852 0.33784 0.86582 0.0
H949 H 0.46524 0.44969 0.70234 0.0
H950 H 0.46012 0.33249 0.77484 0.0
H951 H 0.53959 0.44794 0.74757 0.0
H952 H 0.46182 0.40793 0.73499 0.0
H953 H 0.53194 0.37844 0.82757 0.0
C954 C 0.51424 0.34481 0.83725 0.0
C955 C 0.49394 0.33095 0.82423 0.0
C956 C 0.4789 0.41666 0.73768 0.0
C957 C 0.4976 0.37882 0.78145 0.0
C958 C 0.48086 0.44064 0.71923 0.0
C959 C 0.50277 0.45264 0.72202 0.0
C960 C 0.49892 0.40441 0.75999 0.0
C961 C 0.52232 0.43965 0.74427 0.0
C962 C 0.51618 0.36837 0.81583 0.0
C963 C 0.476 0.34206 0.78792 0.0
N964 N 0.51991 0.41649 0.76249 0.0
N965 N 0.47819 0.36515 0.76845 0.0
H966 H 0.18416 0.50693 0.92007 0.0
H967 H 0.09846 0.50988 0.61474 0.0
H968 H 0.20888 0.48768 0.73399 0.0
H969 H 0.07304 0.50576 0.80767 0.0
H970 H 0.13915 0.50531 0.65469 0.0
H971 H 0.14387 0.51017 0.8776 0.0
C972 C 0.18114 0.50364 0.87 0.0
C973 C 0.20007 0.49725 0.83057 0.0
C974 C 0.12464 0.50533 0.68819 0.0
C975 C 0.15361 0.5011 0.78092 0.0
C976 C 0.10132 0.50798 0.66544 0.0
C977 C 0.08199 0.50812 0.70769 0.0
C978 C 0.12892 0.50319 0.75395 0.0
C979 C 0.08711 0.5056 0.77294 0.0
C980 C 0.15806 0.50535 0.84575 0.0
C981 C 0.1949 0.49275 0.76616 0.0
N982 N 0.10989 0.50341 0.79384 0.0
N983 N 0.17229 0.49497 0.74328 0.0
H984 H 0.95504 0.84017 0.46237 0.0
H985 H 0.04042 0.94491 0.58587 0.0
H986 H 0.02927 0.83038 0.50251 0.0
H987 H 0.96481 0.95208 0.56929 0.0
H988 H 0.03666 0.90326 0.55519 0.0
H989 H 0.95817 0.88056 0.50197 0.0
C990 C 0.97201 0.84616 0.48011 0.0
C991 C 0.99193 0.83119 0.47842 0.0
C992 C 0.02085 0.9139 0.55812 0.0
C993 C 0.99569 0.87866 0.52294 0.0
C994 C 0.02298 0.93784 0.57557 0.0
C995 C 1.00294 0.95244 0.57973 0.0
C996 C 0.99849 0.90414 0.544 0.0
C997 C 0.98085 0.94185 0.56627 0.0
C998 C 0.97378 0.86958 0.50233 0.0
C999 C 0.01339 0.84093 0.50124 0.0
N1000 N 0.97926 0.91856 0.5488 0.0
N1001 N 0.01468 0.86385 0.522 0.0
H1002 H 0.70762 0.03491 0.50762 0.0
H1003 H 0.58048 0.97327 0.56196 0.0
H1004 H 0.69097 0.96249 0.45877 0.0
H1005 H 0.59653 0.04381 0.62694 0.0
H1006 H 0.62134 0.96918 0.52674 0.0
H1007 H 0.6679 0.03875 0.55269 0.0
C1008 C 0.69586 0.01974 0.50619 0.0
C1009 C 0.70323 0.99831 0.47841 0.0
C1010 C 0.616 0.98564 0.54842 0.0
C1011 C 0.6572 1.00267 0.53156 0.0
C1012 C 0.59246 0.98807 0.56822 0.0
C1013 C 0.58456 1.00915 0.59613 0.0
C1014 C 0.63216 1.00448 0.55588 0.0
C1015 C 0.6015 0.0273 0.60496 0.0
C1016 C 0.67308 0.02197 0.53258 0.0
C1017 C 0.68681 0.97934 0.47995 0.0
N1018 N 0.62431 0.02465 0.5844 0.0
N1019 N 0.66481 0.98203 0.5055 0.0
H1020 H 0.50669 0.71698 0.54646 0.0
H1021 H 0.54882 0.58131 0.52941 0.0
H1022 H 0.56533 0.69328 0.43317 0.0
H1023 H 0.49864 0.6053 0.66795 0.0
H1024 H 0.55413 0.62198 0.49248 0.0
H1025 H 0.5026 0.67668 0.59041 0.0
C1026 C 0.51873 0.7034 0.53072 0.0
C1027 C 0.53645 0.70887 0.48583 0.0
C1028 C 0.54198 0.61847 0.53117 0.0
C1029 C 0.53164 0.66221 0.53588 0.0
C1030 C 0.53887 0.59502 0.55231 0.0
C1031 C 0.52328 0.58944 0.60234 0.0
C1032 C 0.52917 0.63693 0.55935 0.0
C1033 C 0.51105 0.60851 0.62988 0.0
C1034 C 0.51641 0.68032 0.55609 0.0
C1035 C 0.55158 0.69028 0.46808 0.0
N1036 N 0.51411 0.63121 0.60793 0.0
N1037 N 0.54872 0.66799 0.49258 0.0
H1038 H 0.83692 0.57449 0.45225 0.0
H1039 H 0.93795 0.49119 0.59938 0.0
H1040 H 0.82307 0.50346 0.51937 0.0
H1041 H 0.94714 0.56639 0.57436 0.0
H1042 H 0.89649 0.49502 0.56717 0.0
H1043 H 0.8773 0.57165 0.49303 0.0
C1044 C 0.84207 0.55835 0.47629 0.0
C1045 C 0.82601 0.5392 0.48203 0.0
C1046 C 0.90758 0.51071 0.56834 0.0
C1047 C 0.87325 0.53569 0.52815 0.0
C1048 C 0.93142 0.50855 0.58665 0.0
C1049 C 0.94659 0.52844 0.58855 0.0
C1050 C 0.89852 0.53293 0.5507 0.0
C1051 C 0.93659 0.55044 0.57237 0.0
C1052 C 0.8654 0.55672 0.49926 0.0
C1053 C 0.83454 0.51865 0.51255 0.0
N1054 N 0.91344 0.55205 0.55368 0.0
N1055 N 0.85739 0.51744 0.53398 0.0
loop_
_geom_bond_atom_site_label_1
_geom_bond_atom_site_label_2
_geom_bond_distance
_geom_bond_site_symmetry_2
_ccdc_geom_bond_type
C0 C1 1.384 . S
C0 H13 0.947 . S
C0 C35 1.382 . S
C1 C0 1.384 . S
C1 C2 1.378 . S
C2 C1 1.378 . S
C2 C3 1.378 . S
C2 H14 0.952 . S
C3 C2 1.378 . S
C3 H15 0.950 . S
C3 C34 1.383 . S
H4 C23 0.947 . S
H5 C24 0.946 . S
H6 C26 0.953 . S
H7 C27 0.945 . S
H8 C29 0.952 . S
H9 C30 0.949 1_556 S
H10 C32 0.950 . S
H11 C33 0.948 . S
H12 C35 0.951 . S
H13 C0 0.947 . S
H14 C2 0.952 . S
H15 C3 0.950 . S
N16 C19 1.382 . S
N16 C21 1.363 . S
N17 C19 1.371 . S
N17 C20 1.372 . S
N18 C20 1.361 . S
N18 C21 1.377 . S
C19 N16 1.382 . S
C19 N17 1.371 . S
C19 C22 1.480 . S
C20 N17 1.372 . S
C20 N18 1.361 . S
C20 C28 1.457 . S
C21 N16 1.363 . S
C21 N18 1.377 . S
C21 C34 1.479 . S
C22 C19 1.480 . S
C22 C23 1.383 . S
C22 C27 1.385 . S
C23 H4 0.947 . S
C23 C22 1.383 . S
C23 C24 1.388 . S
C24 H5 0.946 . S
C24 C23 1.388 . S
C24 C25 1.384 . S
C25 C24 1.384 . S
C25 C26 1.377 . S
C26 H6 0.953 . S
C26 C25 1.377 . S
C26 C27 1.369 . S
C27 H7 0.945 . S
C27 C22 1.385 . S
C27 C26 1.369 . S
C28 C20 1.457 . S
C28 C29 1.372 . S
C28 C33 1.364 . S
C29 H8 0.952 . S
C29 C28 1.372 . S
C29 C30 1.389 . S
C30 H9 0.949 1_554 S
C30 C29 1.389 . S
C30 C31 1.387 . S
C31 C30 1.387 . S
C31 C32 1.372 . S
C32 H10 0.950 . S
C32 C31 1.372 . S
C32 C33 1.379 . S
C33 H11 0.948 . S
C33 C28 1.364 . S
C33 C32 1.379 . S
C34 C3 1.383 . S
C34 C21 1.479 . S
C34 C35 1.398 . S
C35 C0 1.382 . S
C35 H12 0.951 . S
C35 C34 1.398 . S
C36 C37 1.384 . S
C36 H49 0.947 . S
C36 C71 1.382 . S
C37 C36 1.384 . S
C37 C38 1.378 . S
C38 C37 1.378 . S
C38 C39 1.378 . S
C38 H50 0.952 . S
C39 C38 1.378 . S
C39 H51 0.950 . S
C39 C70 1.383 . S
H40 C59 0.947 . S
H41 C60 0.946 . S
H42 C62 0.953 . S
H43 C63 0.945 . S
H44 C65 0.952 . S
H45 C66 0.949 1_556 S
H46 C68 0.950 . S
H47 C69 0.948 . S
H48 C71 0.951 . S
H49 C36 0.947 . S
H50 C38 0.952 . S
H51 C39 0.950 . S
N52 C55 1.382 . S
N52 C57 1.363 . S
N53 C55 1.371 . S
N53 C56 1.372 . S
N54 C56 1.361 . S
N54 C57 1.377 . S
C55 N52 1.382 . S
C55 N53 1.371 . S
C55 C58 1.480 . S
C56 N53 1.372 . S
C56 N54 1.361 . S
C56 C64 1.457 . S
C57 N52 1.363 . S
C57 N54 1.377 . S
C57 C70 1.479 . S
C58 C55 1.480 . S
C58 C59 1.383 . S
C58 C63 1.385 . S
C59 H40 0.947 . S
C59 C58 1.383 . S
C59 C60 1.388 . S
C60 H41 0.946 . S
C60 C59 1.388 . S
C60 C61 1.384 . S
C61 C60 1.384 . S
C61 C62 1.377 . S
C62 H42 0.953 . S
C62 C61 1.377 . S
C62 C63 1.369 . S
C63 H43 0.945 . S
C63 C58 1.385 . S
C63 C62 1.369 . S
C64 C56 1.457 . S
C64 C65 1.372 . S
C64 C69 1.364 . S
C65 H44 0.952 . S
C65 C64 1.372 . S
C65 C66 1.389 . S
C66 H45 0.949 1_554 S
C66 C65 1.389 . S
C66 C67 1.387 . S
C67 C66 1.387 . S
C67 C68 1.372 . S
C68 H46 0.950 . S
C68 C67 1.372 . S
C68 C69 1.379 . S
C69 H47 0.948 . S
C69 C64 1.364 . S
C69 C68 1.379 . S
C70 C39 1.383 . S
C70 C57 1.479 . S
C70 C71 1.398 . S
C71 C36 1.382 . S
C71 H48 0.951 . S
C71 C70 1.398 . S
C72 C73 1.384 . S
C72 H85 0.947 . S
C72 C107 1.382 . S
C73 C72 1.384 . S
C73 C74 1.378 . S
C74 C73 1.378 . S
C74 C75 1.378 . S
C74 H86 0.952 . S
C75 C74 1.378 . S
C75 H87 0.950 . S
C75 C106 1.383 . S
H76 C95 0.947 . S
H77 C96 0.946 . S
H78 C98 0.953 . S
H79 C99 0.945 . S
H80 C101 0.952 . S
H81 C102 0.949 1_556 S
H82 C104 0.950 . S
H83 C105 0.948 . S
H84 C107 0.951 . S
H85 C72 0.947 . S
H86 C74 0.952 . S
H87 C75 0.950 . S
N88 C91 1.382 . S
N88 C93 1.363 . S
N89 C91 1.371 . S
N89 C92 1.372 . S
N90 C92 1.361 . S
N90 C93 1.377 . S
C91 N88 1.382 . S
C91 N89 1.371 . S
C91 C94 1.480 . S
C92 N89 1.372 . S
C92 N90 1.361 . S
C92 C100 1.457 . S
C93 N88 1.363 . S
C93 N90 1.377 . S
C93 C106 1.479 . S
C94 C91 1.480 . S
C94 C95 1.383 . S
C94 C99 1.385 . S
C95 H76 0.947 . S
C95 C94 1.383 . S
C95 C96 1.388 . S
C96 H77 0.946 . S
C96 C95 1.388 . S
C96 C97 1.384 . S
C97 C96 1.384 . S
C97 C98 1.377 . S
C98 H78 0.953 . S
C98 C97 1.377 . S
C98 C99 1.369 . S
C99 H79 0.945 . S
C99 C94 1.385 . S
C99 C98 1.369 . S
C100 C92 1.457 . S
C100 C101 1.372 . S
C100 C105 1.364 . S
C101 H80 0.952 . S
C101 C100 1.372 . S
C101 C102 1.389 . S
C102 H81 0.949 1_554 S
C102 C101 1.389 . S
C102 C103 1.387 . S
C103 C102 1.387 . S
C103 C104 1.372 . S
C104 H82 0.950 . S
C104 C103 1.372 . S
C104 C105 1.379 . S
C105 H83 0.948 . S
C105 C100 1.364 . S
C105 C104 1.379 . S
C106 C75 1.383 . S
C106 C93 1.479 . S
C106 C107 1.398 . S
C107 C72 1.382 . S
C107 H84 0.951 . S
C107 C106 1.398 . S
C108 C109 1.384 . S
C108 H121 0.947 . S
C108 C143 1.382 . S
C109 C108 1.384 . S
C109 C110 1.378 . S
C110 C109 1.378 . S
C110 C111 1.378 . S
C110 H122 0.952 1_554 S
C111 C110 1.378 . S
C111 H123 0.950 . S
C111 C142 1.383 . S
H112 C131 0.947 . S
H113 C132 0.946 . S
H114 C134 0.953 . S
H115 C135 0.945 . S
H116 C137 0.952 . S
H117 C138 0.949 . S
H118 C140 0.950 . S
H119 C141 0.948 . S
H120 C143 0.951 . S
H121 C108 0.947 . S
H122 C110 0.952 1_556 S
H123 C111 0.950 . S
N124 C127 1.382 . S
N124 C129 1.363 . S
N125 C127 1.371 . S
N125 C128 1.372 . S
N126 C128 1.361 . S
N126 C129 1.377 . S
C127 N124 1.382 . S
C127 N125 1.371 . S
C127 C130 1.480 . S
C128 N125 1.372 . S
C128 N126 1.361 . S
C128 C136 1.457 . S
C129 N124 1.363 . S
C129 N126 1.377 . S
C129 C142 1.479 . S
C130 C127 1.480 . S
C130 C131 1.383 . S
C130 C135 1.385 . S
C131 H112 0.947 . S
C131 C130 1.383 . S
C131 C132 1.388 . S
C132 H113 0.946 . S
C132 C131 1.388 . S
C132 C133 1.384 . S
C133 C132 1.384 . S
C133 C134 1.377 . S
C134 H114 0.953 . S
C134 C133 1.377 . S
C134 C135 1.369 . S
C135 H115 0.945 . S
C135 C130 1.385 . S
C135 C134 1.369 . S
C136 C128 1.457 . S
C136 C137 1.372 . S
C136 C141 1.364 . S
C137 H116 0.952 . S
C137 C136 1.372 . S
C137 C138 1.389 . S
C138 H117 0.949 . S
C138 C137 1.389 . S
C138 C139 1.387 . S
C139 C138 1.387 . S
C139 C140 1.372 . S
C140 H118 0.950 . S
C140 C139 1.372 . S
C140 C141 1.379 . S
C141 H119 0.948 . S
C141 C136 1.364 . S
C141 C140 1.379 . S
C142 C111 1.383 . S
C142 C129 1.479 . S
C142 C143 1.398 . S
C143 C108 1.382 . S
C143 H120 0.951 . S
C143 C142 1.398 . S
C144 C145 1.384 . S
C144 H157 0.947 . S
C144 C179 1.382 . S
C145 C144 1.384 . S
C145 C146 1.378 . S
C146 C145 1.378 . S
C146 C147 1.378 . S
C146 H158 0.952 . S
C147 C146 1.378 . S
C147 H159 0.950 . S
C147 C178 1.383 . S
H148 C167 0.947 1_556 S
H149 C168 0.946 . S
H150 C170 0.953 . S
H151 C171 0.945 . S
H152 C173 0.952 . S
H153 C174 0.949 . S
H154 C176 0.950 . S
H155 C177 0.948 . S
H156 C179 0.951 . S
H157 C144 0.947 . S
H158 C146 0.952 . S
H159 C147 0.950 . S
N160 C163 1.382 1_556 S
N160 C165 1.363 . S
N161 C163 1.371 . S
N161 C164 1.372 . S
N162 C164 1.361 . S
N162 C165 1.377 1_554 S
C163 N160 1.382 1_554 S
C163 N161 1.371 . S
C163 C166 1.480 . S
C164 N161 1.372 . S
C164 N162 1.361 . S
C164 C172 1.457 . S
C165 N160 1.363 . S
C165 N162 1.377 1_556 S
C165 C178 1.479 . S
C166 C163 1.480 . S
C166 C167 1.383 . S
C166 C171 1.385 . S
C167 H148 0.947 1_554 S
C167 C166 1.383 . S
C167 C168 1.388 . S
C168 H149 0.946 . S
C168 C167 1.388 . S
C168 C169 1.384 . S
C169 C168 1.384 . S
C169 C170 1.377 . S
C170 H150 0.953 . S
C170 C169 1.377 . S
C170 C171 1.369 . S
C171 H151 0.945 . S
C171 C166 1.385 . S
C171 C170 1.369 . S
C172 C164 1.457 . S
C172 C173 1.372 . S
C172 C177 1.364 . S
C173 H152 0.952 . S
C173 C172 1.372 . S
C173 C174 1.389 . S
C174 H153 0.949 . S
C174 C173 1.389 . S
C174 C175 1.387 . S
C175 C174 1.387 . S
C175 C176 1.372 . S
C176 H154 0.950 . S
C176 C175 1.372 . S
C176 C177 1.379 . S
C177 H155 0.948 . S
C177 C172 1.364 . S
C177 C176 1.379 . S
C178 C147 1.383 . S
C178 C165 1.479 . S
C178 C179 1.398 . S
C179 C144 1.382 . S
C179 H156 0.951 . S
C179 C178 1.398 . S
C180 C181 1.384 . S
C180 H193 0.947 . S
C180 C215 1.382 . S
C181 C180 1.384 . S
C181 C182 1.378 . S
C182 C181 1.378 . S
C182 C183 1.378 . S
C182 H194 0.952 . S
C183 C182 1.378 . S
C183 H195 0.950 . S
C183 C214 1.383 . S
H184 C203 0.947 1_556 S
H185 C204 0.946 . S
H186 C206 0.953 . S
H187 C207 0.945 . S
H188 C209 0.952 . S
H189 C210 0.949 . S
H190 C212 0.950 . S
H191 C213 0.948 . S
H192 C215 0.951 . S
H193 C180 0.947 . S
H194 C182 0.952 . S
H195 C183 0.950 . S
N196 C199 1.382 1_556 S
N196 C201 1.363 . S
N197 C199 1.371 . S
N197 C200 1.372 . S
N198 C200 1.361 . S
N198 C201 1.377 1_554 S
C199 N196 1.382 1_554 S
C199 N197 1.371 . S
C199 C202 1.480 . S
C200 N197 1.372 . S
C200 N198 1.361 . S
C200 C208 1.457 . S
C201 N196 1.363 . S
C201 N198 1.377 1_556 S
C201 C214 1.479 . S
C202 C199 1.480 . S
C202 C203 1.383 . S
C202 C207 1.385 . S
C203 H184 0.947 1_554 S
C203 C202 1.383 . S
C203 C204 1.388 . S
C204 H185 0.946 . S
C204 C203 1.388 . S
C204 C205 1.384 . S
C205 C204 1.384 . S
C205 C206 1.377 . S
C206 H186 0.953 . S
C206 C205 1.377 . S
C206 C207 1.369 . S
C207 H187 0.945 . S
C207 C202 1.385 . S
C207 C206 1.369 . S
C208 C200 1.457 . S
C208 C209 1.372 . S
C208 C213 1.364 . S
C209 H188 0.952 . S
C209 C208 1.372 . S
C209 C210 1.389 . S
C210 H189 0.949 . S
C210 C209 1.389 . S
C210 C211 1.387 . S
C211 C210 1.387 . S
C211 C212 1.372 . S
C212 H190 0.950 . S
C212 C211 1.372 . S
C212 C213 1.379 . S
C213 H191 0.948 . S
C213 C208 1.364 . S
C213 C212 1.379 . S
C214 C183 1.383 . S
C214 C201 1.479 . S
C214 C215 1.398 . S
C215 C180 1.382 . S
C215 H192 0.951 . S
C215 C214 1.398 . S
C216 C217 1.384 . S
C216 H229 0.947 . S
C216 C251 1.382 . S
C217 C216 1.384 . S
C217 C218 1.378 . S
C218 C217 1.378 . S
C218 C219 1.378 . S
C218 H230 0.952 . S
C219 C218 1.378 . S
C219 H231 0.950 . S
C219 C250 1.383 . S
H220 C239 0.947 1_556 S
H221 C240 0.946 . S
H222 C242 0.953 . S
H223 C243 0.945 . S
H224 C245 0.952 . S
H225 C246 0.949 . S
H226 C248 0.950 . S
H227 C249 0.948 . S
H228 C251 0.951 . S
H229 C216 0.947 . S
H230 C218 0.952 . S
H231 C219 0.950 . S
N232 C235 1.382 1_556 S
N232 C237 1.363 . S
N233 C235 1.371 . S
N233 C236 1.372 . S
N234 C236 1.361 . S
N234 C237 1.377 1_554 S
C235 N232 1.382 1_554 S
C235 N233 1.371 . S
C235 C238 1.480 . S
C236 N233 1.372 . S
C236 N234 1.361 . S
C236 C244 1.457 . S
C237 N232 1.363 . S
C237 N234 1.377 1_556 S
C237 C250 1.479 . S
C238 C235 1.480 . S
C238 C239 1.383 . S
C238 C243 1.385 . S
C239 H220 0.947 1_554 S
C239 C238 1.383 . S
C239 C240 1.388 . S
C240 H221 0.946 . S
C240 C239 1.388 . S
C240 C241 1.384 . S
C241 C240 1.384 . S
C241 C242 1.377 . S
C242 H222 0.953 . S
C242 C241 1.377 . S
C242 C243 1.369 . S
C243 H223 0.945 . S
C243 C238 1.385 . S
C243 C242 1.369 . S
C244 C236 1.457 . S
C244 C245 1.372 . S
C244 C249 1.364 . S
C245 H224 0.952 . S
C245 C244 1.372 . S
C245 C246 1.389 . S
C246 H225 0.949 . S
C246 C245 1.389 . S
C246 C247 1.387 . S
C247 C246 1.387 . S
C247 C248 1.372 . S
C248 H226 0.950 . S
C248 C247 1.372 . S
C248 C249 1.379 . S
C249 H227 0.948 . S
C249 C244 1.364 . S
C249 C248 1.379 . S
C250 C219 1.383 . S
C250 C237 1.479 . S
C250 C251 1.398 . S
C251 C216 1.382 . S
C251 H228 0.951 . S
C251 C250 1.398 . S
C252 C253 1.384 . S
C252 H265 0.947 . S
C252 C287 1.382 . S
C253 C252 1.384 . S
C253 C254 1.378 . S
C254 C253 1.378 . S
C254 C255 1.378 . S
C254 H266 0.952 . S
C255 C254 1.378 . S
C255 H267 0.950 . S
C255 C286 1.383 . S
H256 C275 0.947 . S
H257 C276 0.946 . S
H258 C278 0.953 . S
H259 C279 0.945 1_556 S
H260 C281 0.952 . S
H261 C282 0.949 . S
H262 C284 0.950 . S
H263 C285 0.948 . S
H264 C287 0.951 . S
H265 C252 0.947 . S
H266 C254 0.952 . S
H267 C255 0.950 . S
N268 C271 1.382 . S
N268 C273 1.363 . S
N269 C271 1.371 1_556 S
N269 C272 1.372 . S
N270 C272 1.361 1_554 S
N270 C273 1.377 . S
C271 N268 1.382 . S
C271 N269 1.371 1_554 S
C271 C274 1.480 . S
C272 N269 1.372 . S
C272 N270 1.361 1_556 S
C272 C280 1.457 . S
C273 N268 1.363 . S
C273 N270 1.377 . S
C273 C286 1.479 . S
C274 C271 1.480 . S
C274 C275 1.383 . S
C274 C279 1.385 . S
C275 H256 0.947 . S
C275 C274 1.383 . S
C275 C276 1.388 . S
C276 H257 0.946 . S
C276 C275 1.388 . S
C276 C277 1.384 . S
C277 C276 1.384 . S
C277 C278 1.377 . S
C278 H258 0.953 . S
C278 C277 1.377 . S
C278 C279 1.369 . S
C279 H259 0.945 1_554 S
C279 C274 1.385 . S
C279 C278 1.369 . S
C280 C272 1.457 . S
C280 C281 1.372 . S
C280 C285 1.364 . S
C281 H260 0.952 . S
C281 C280 1.372 . S
C281 C282 1.389 . S
C282 H261 0.949 . S
C282 C281 1.389 . S
C282 C283 1.387 . S
C283 C282 1.387 . S
C283 C284 1.372 . S
C284 H262 0.950 . S
C284 C283 1.372 . S
C284 C285 1.379 . S
C285 H263 0.948 . S
C285 C280 1.364 . S
C285 C284 1.379 . S
C286 C255 1.383 . S
C286 C273 1.479 . S
C286 C287 1.398 . S
C287 C252 1.382 . S
C287 H264 0.951 . S
C287 C286 1.398 . S
Eu288 N317 2.600 . S
Eu288 N323 2.562 . S
Eu288 O332 2.462 . S
Eu288 O333 2.373 1_545 S
Eu288 O335 2.432 . S
Eu288 O336 2.291 1_655 S
Eu288 O340 2.335 1_655 S
Eu288 O343 2.372 . S
Eu288 C352 2.787 . S
C289 N290 1.365 . S
C289 C292 1.405 . S
C289 C296 1.448 . S
N290 C289 1.365 . S
N290 C293 1.316 1_545 S
N290 Eu299 2.600 1_545 S
C291 C293 1.388 1_545 S
C291 C294 1.367 . S
C291 H311 0.931 . S
C292 C289 1.405 . S
C292 C294 1.403 . S
C292 C298 1.439 . S
C293 N290 1.316 1_565 S
C293 C291 1.388 1_565 S
C293 H304 0.944 . S
C294 C291 1.367 . S
C294 C292 1.403 . S
C294 H315 0.929 . S
C295 C296 1.430 . S
C295 C297 1.387 . S
C295 C301 1.404 . S
C296 C289 1.448 . S
C296 C295 1.430 . S
C296 N300 1.351 . S
C297 C295 1.387 . S
C297 C298 1.374 . S
C297 H312 0.931 . S
C298 C292 1.439 . S
C298 C297 1.374 . S
C298 H313 0.931 . S
Eu299 N290 2.600 1_565 S
Eu299 N300 2.562 1_565 S
Eu299 O334 2.335 . S
Eu299 O337 2.372 . S
Eu299 O338 2.462 . S
Eu299 O339 2.373 1_565 S
Eu299 O341 2.432 . S
Eu299 O342 2.291 1_465 S
Eu299 C363 2.787 . S
N300 C296 1.351 . S
N300 Eu299 2.562 1_545 S
N300 C302 1.325 . S
C301 C295 1.404 . S
C301 C303 1.366 . S
C301 H309 0.930 . S
C302 N300 1.325 . S
C302 C303 1.416 . S
C302 H308 0.906 1_455 S
C303 C301 1.366 . S
C303 C302 1.416 . S
C303 H305 0.930 . S
H304 C293 0.944 . S
H305 C303 0.930 . S
H306 C321 0.930 . S
H307 C328 0.930 1_455 S
H308 C302 0.906 1_655 S
H309 C301 0.930 . S
H310 C324 0.929 1_455 S
H311 C291 0.931 . S
H312 C297 0.931 . S
H313 C298 0.931 . S
H314 C319 0.931 . S
H315 C294 0.929 . S
H316 C327 0.930 . S
N317 Eu288 2.600 . S
N317 C318 1.365 . S
N317 C321 1.319 . S
C318 N317 1.365 . S
C318 C320 1.405 1_545 S
C318 C326 1.448 . S
C319 H314 0.931 . S
C319 C321 1.397 . S
C319 C322 1.371 . S
C320 C318 1.405 1_565 S
C320 C322 1.402 1_565 S
C320 C353 1.439 . S
C321 H306 0.930 . S
C321 N317 1.319 . S
C321 C319 1.397 . S
C322 C319 1.371 . S
C322 C320 1.402 1_545 S
C322 H329 0.927 1_545 S
N323 Eu288 2.562 . S
N323 C324 1.325 . S
N323 C326 1.351 . S
C324 H310 0.929 1_655 S
C324 N323 1.325 . S
C324 C328 1.416 1_545 S
C325 C326 1.430 1_565 S
C325 C327 1.404 . S
C325 C354 1.387 . S
C326 C318 1.448 . S
C326 N323 1.351 . S
C326 C325 1.430 1_545 S
C327 H316 0.930 . S
C327 C325 1.404 . S
C327 C328 1.366 . S
C328 H307 0.930 1_655 S
C328 C324 1.416 1_565 S
C328 C327 1.366 . S
H329 C322 0.927 1_565 S
H330 C353 0.931 . S
H331 C354 0.931 . S
O332 Eu288 2.462 . S
O332 C352 1.252 . S
O333 Eu288 2.373 1_565 S
O333 C344 1.249 . S
O334 Eu299 2.335 . S
O334 C344 1.264 1_455 S
O335 Eu288 2.432 . S
O335 C352 1.268 . S
O336 Eu288 2.291 1_455 S
O336 C351 1.255 . S
O337 Eu299 2.372 . S
O337 C351 1.257 1_565 S
O338 Eu299 2.462 . S
O338 C363 1.252 . S
O339 Eu299 2.373 1_545 S
O339 C355 1.249 . S
O340 Eu288 2.335 1_455 S
O340 C355 1.264 . S
O341 Eu299 2.432 . S
O341 C363 1.268 . S
O342 Eu299 2.291 1_645 S
O342 C362 1.255 . S
O343 Eu288 2.372 . S
O343 C362 1.257 . S
C344 O333 1.249 . S
C344 O334 1.264 1_655 S
C345 C348 1.382 . S
C345 C350 1.390 . S
C345 C352 1.506 . S
C346 C347 1.398 . S
C346 C350 1.392 . S
C347 C346 1.398 . S
C347 C349 1.372 . S
C347 H364 0.931 . S
C348 C345 1.382 . S
C348 C349 1.390 . S
C348 H365 0.931 . S
C349 C347 1.372 . S
C349 C348 1.390 . S
C349 H366 0.929 . S
C350 C345 1.390 . S
C350 C346 1.392 . S
C350 H367 0.930 1_655 S
C351 O336 1.255 . S
C351 O337 1.257 1_545 S
C352 Eu288 2.787 . S
C352 O332 1.252 . S
C352 O335 1.268 . S
C352 C345 1.506 . S
C353 C320 1.439 . S
C353 H330 0.931 . S
C353 C354 1.374 . S
C354 C325 1.387 . S
C354 H331 0.931 . S
C354 C353 1.374 . S
C355 O339 1.249 . S
C355 O340 1.264 . S
C356 C359 1.382 . S
C356 C360 1.390 . S
C356 C363 1.506 . S
C357 C358 1.398 . S
C357 C360 1.392 . S
C358 C357 1.398 . S
C358 C361 1.372 . S
C358 H368 0.931 . S
C359 C356 1.382 . S
C359 C361 1.390 . S
C359 H369 0.931 . S
C360 C356 1.390 . S
C360 C357 1.392 . S
C360 H370 0.930 . S
C361 C358 1.372 . S
C361 C359 1.390 . S
C361 H371 0.929 . S
C362 O342 1.255 . S
C362 O343 1.257 . S
C363 Eu299 2.787 . S
C363 O338 1.252 . S
C363 O341 1.268 . S
C363 C356 1.506 . S
H364 C347 0.931 . S
H365 C348 0.931 . S
H366 C349 0.929 . S
H367 C350 0.930 1_455 S
H368 C358 0.931 . S
H369 C359 0.931 . S
H370 C360 0.930 . S
H371 C361 0.929 . S
Eu372 N401 2.600 . S
Eu372 N407 2.562 . S
Eu372 O416 2.462 . S
Eu372 O417 2.373 . S
Eu372 O419 2.432 . S
Eu372 O420 2.291 . S
Eu372 O424 2.335 1_545 S
Eu372 O427 2.372 . S
Eu372 C436 2.787 . S
C373 N374 1.365 . S
C373 C376 1.405 . S
C373 C380 1.448 . S
N374 C373 1.365 . S
N374 C377 1.319 . S
N374 Eu383 2.600 . S
C375 C377 1.397 . S
C375 C378 1.367 . S
C375 H395 0.931 . S
C376 C373 1.405 . S
C376 C378 1.403 . S
C376 C382 1.439 . S
C377 N374 1.319 . S
C377 C375 1.397 . S
C377 H388 0.930 . S
C378 C375 1.367 . S
C378 C376 1.403 . S
C378 H399 0.929 . S
C379 C380 1.430 . S
C379 C381 1.387 . S
C379 C385 1.404 . S
C380 C373 1.448 . S
C380 C379 1.430 . S
C380 N384 1.351 . S
C381 C379 1.387 . S
C381 C382 1.374 . S
C381 H396 0.931 . S
C382 C376 1.439 . S
C382 C381 1.374 . S
C382 H397 0.931 . S
Eu383 N374 2.600 . S
Eu383 N384 2.562 . S
Eu383 O418 2.335 1_565 S
Eu383 O421 2.372 . S
Eu383 O422 2.462 . S
Eu383 O423 2.373 . S
Eu383 O425 2.432 . S
Eu383 O426 2.291 1_565 S
Eu383 C447 2.787 . S
N384 C380 1.351 . S
N384 Eu383 2.562 . S
N384 C386 1.325 . S
C385 C379 1.404 . S
C385 C387 1.366 . S
C385 H393 0.930 . S
C386 N384 1.325 . S
C386 C387 1.416 . S
C386 H392 0.929 . S
C387 C385 1.366 . S
C387 C386 1.416 . S
C387 H389 0.930 . S
H388 C377 0.930 . S
H389 C387 0.930 . S
H390 C405 0.930 . S
H391 C412 0.930 . S
H392 C386 0.929 . S
H393 C385 0.930 . S
H394 C408 0.929 . S
H395 C375 0.931 . S
H396 C381 0.931 . S
H397 C382 0.931 . S
H398 C403 0.931 . S
H399 C378 0.929 . S
H400 C411 0.930 . S
N401 Eu372 2.600 . S
N401 C402 1.365 . S
N401 C405 1.319 . S
C402 N401 1.365 . S
C402 C404 1.405 . S
C402 C410 1.448 . S
C403 H398 0.931 . S
C403 C405 1.397 . S
C403 C406 1.367 . S
C404 C402 1.405 . S
C404 C406 1.403 . S
C404 C437 1.439 . S
C405 H390 0.930 . S
C405 N401 1.319 . S
C405 C403 1.397 . S
C406 C403 1.367 . S
C406 C404 1.403 . S
C406 H413 0.929 . S
N407 Eu372 2.562 . S
N407 C408 1.325 . S
N407 C410 1.351 . S
C408 H394 0.929 . S
C408 N407 1.325 . S
C408 C412 1.416 . S
C409 C410 1.430 . S
C409 C411 1.404 . S
C409 C438 1.387 . S
C410 C402 1.448 . S
C410 N407 1.351 . S
C410 C409 1.430 . S
C411 H400 0.930 . S
C411 C409 1.404 . S
C411 C412 1.366 . S
C412 H391 0.930 . S
C412 C408 1.416 . S
C412 C411 1.366 . S
H413 C406 0.929 . S
H414 C437 0.931 . S
H415 C438 0.931 . S
O416 Eu372 2.462 . S
O416 C436 1.252 . S
O417 Eu372 2.373 . S
O417 C428 1.249 . S
O418 Eu383 2.335 1_545 S
O418 C428 1.264 . S
O419 Eu372 2.432 . S
O419 C436 1.268 . S
O420 Eu372 2.291 . S
O420 C435 1.241 1_545 S
O421 Eu383 2.372 . S
O421 C435 1.266 . S
O422 Eu383 2.462 . S
O422 C447 1.252 . S
O423 Eu383 2.373 . S
O423 C439 1.249 . S
O424 Eu372 2.335 1_565 S
O424 C439 1.264 . S
O425 Eu383 2.432 . S
O425 C447 1.268 . S
O426 Eu383 2.291 1_545 S
O426 C446 1.255 . S
O427 Eu372 2.372 . S
O427 C446 1.257 . S
C428 O417 1.249 . S
C428 O418 1.264 . S
C429 C432 1.382 . S
C429 C434 1.390 . S
C429 C436 1.506 . S
C430 C431 1.398 . S
C430 C434 1.392 . S
C431 C430 1.398 . S
C431 C433 1.372 . S
C431 H448 0.931 . S
C432 C429 1.382 . S
C432 C433 1.390 . S
C432 H449 0.931 . S
C433 C431 1.372 . S
C433 C432 1.390 . S
C433 H450 0.929 . S
C434 C429 1.390 . S
C434 C430 1.392 . S
C434 H451 0.930 . S
C435 O420 1.241 1_565 S
C435 O421 1.266 . S
C436 Eu372 2.787 . S
C436 O416 1.252 . S
C436 O419 1.268 . S
C436 C429 1.506 . S
C437 C404 1.439 . S
C437 H414 0.931 . S
C437 C438 1.374 . S
C438 C409 1.387 . S
C438 H415 0.931 . S
C438 C437 1.374 . S
C439 O423 1.249 . S
C439 O424 1.264 . S
C440 C443 1.382 . S
C440 C444 1.390 1_565 S
C440 C447 1.506 . S
C441 C442 1.398 1_545 S
C441 C444 1.392 . S
C442 C441 1.398 1_565 S
C442 C445 1.372 . S
C442 H452 0.931 . S
C443 C440 1.382 . S
C443 C445 1.390 . S
C443 H453 0.931 . S
C444 C440 1.390 1_545 S
C444 C441 1.392 . S
C444 H454 0.930 . S
C445 C442 1.372 . S
C445 C443 1.390 . S
C445 H455 0.929 . S
C446 O426 1.255 . S
C446 O427 1.257 . S
C447 Eu383 2.787 . S
C447 O422 1.252 . S
C447 O425 1.268 . S
C447 C440 1.506 . S
H448 C431 0.931 . S
H449 C432 0.931 . S
H450 C433 0.929 . S
H451 C434 0.930 . S
H452 C442 0.931 . S
H453 C443 0.931 . S
H454 C444 0.930 . S
H455 C445 0.929 . S
Eu456 N485 2.600 . S
Eu456 N491 2.562 . S
Eu456 O500 2.462 . S
Eu456 O501 2.373 . S
Eu456 O503 2.432 . S
Eu456 O504 2.291 . S
Eu456 O508 2.335 . S
Eu456 O511 2.372 . S
Eu456 C520 2.787 . S
C457 N458 1.365 . S
C457 C460 1.405 . S
C457 C464 1.448 . S
N458 C457 1.365 . S
N458 C461 1.319 . S
N458 Eu467 2.600 . S
C459 C461 1.397 . S
C459 C462 1.367 . S
C459 H479 0.931 . S
C460 C457 1.405 . S
C460 C462 1.403 . S
C460 C466 1.439 . S
C461 N458 1.319 . S
C461 C459 1.397 . S
C461 H472 0.930 . S
C462 C459 1.367 . S
C462 C460 1.403 . S
C462 H483 0.929 . S
C463 C464 1.430 . S
C463 C465 1.387 . S
C463 C469 1.404 . S
C464 C457 1.448 . S
C464 C463 1.430 . S
C464 N468 1.351 . S
C465 C463 1.387 . S
C465 C466 1.374 . S
C465 H480 0.931 . S
C466 C460 1.439 . S
C466 C465 1.374 . S
C466 H481 0.931 . S
Eu467 N458 2.600 . S
Eu467 N468 2.562 . S
Eu467 O502 2.335 . S
Eu467 O505 2.372 . S
Eu467 O506 2.462 . S
Eu467 O507 2.373 . S
Eu467 O509 2.432 . S
Eu467 O510 2.291 . S
Eu467 C531 2.787 . S
N468 C464 1.351 . S
N468 Eu467 2.562 . S
N468 C470 1.325 . S
C469 C463 1.404 . S
C469 C471 1.366 . S
C469 H477 0.930 . S
C470 N468 1.325 . S
C470 C471 1.416 . S
C470 H476 0.929 . S
C471 C469 1.366 . S
C471 C470 1.416 . S
C471 H473 0.930 . S
H472 C461 0.930 . S
H473 C471 0.930 . S
H474 C489 0.930 . S
H475 C496 0.930 . S
H476 C470 0.929 . S
H477 C469 0.930 . S
H478 C492 0.929 . S
H479 C459 0.931 . S
H480 C465 0.931 . S
H481 C466 0.931 . S
H482 C487 0.931 . S
H483 C462 0.929 . S
H484 C495 0.930 . S
N485 Eu456 2.600 . S
N485 C486 1.365 . S
N485 C489 1.319 . S
C486 N485 1.365 . S
C486 C488 1.405 . S
C486 C494 1.448 . S
C487 H482 0.931 . S
C487 C489 1.397 . S
C487 C490 1.367 . S
C488 C486 1.405 . S
C488 C490 1.403 . S
C488 C521 1.439 . S
C489 H474 0.930 . S
C489 N485 1.319 . S
C489 C487 1.397 . S
C490 C487 1.367 . S
C490 C488 1.403 . S
C490 H497 0.929 . S
N491 Eu456 2.562 . S
N491 C492 1.325 . S
N491 C494 1.351 . S
C492 H478 0.929 . S
C492 N491 1.325 . S
C492 C496 1.416 . S
C493 C494 1.430 . S
C493 C495 1.404 . S
C493 C522 1.387 . S
C494 C486 1.448 . S
C494 N491 1.351 . S
C494 C493 1.430 . S
C495 H484 0.930 . S
C495 C493 1.404 . S
C495 C496 1.366 . S
C496 H475 0.930 . S
C496 C492 1.416 . S
C496 C495 1.366 . S
H497 C490 0.929 . S
H498 C521 0.931 . S
H499 C522 0.931 . S
O500 Eu456 2.462 . S
O500 C520 1.252 . S
O501 Eu456 2.373 . S
O501 C512 1.249 . S
O502 Eu467 2.335 . S
O502 C512 1.264 . S
O503 Eu456 2.432 . S
O503 C520 1.268 . S
O504 Eu456 2.291 . S
O504 C519 1.255 . S
O505 Eu467 2.372 . S
O505 C519 1.257 . S
O506 Eu467 2.462 . S
O506 C531 1.252 . S
O507 Eu467 2.373 . S
O507 C523 1.249 . S
O508 Eu456 2.335 . S
O508 C523 1.264 . S
O509 Eu467 2.432 . S
O509 C531 1.268 . S
O510 Eu467 2.291 . S
O510 C530 1.255 . S
O511 Eu456 2.372 . S
O511 C530 1.257 . S
C512 O501 1.249 . S
C512 O502 1.264 . S
C513 C516 1.382 . S
C513 C518 1.390 . S
C513 C520 1.506 . S
C514 C515 1.398 . S
C514 C518 1.392 . S
C515 C514 1.398 . S
C515 C517 1.372 . S
C515 H532 0.931 . S
C516 C513 1.382 . S
C516 C517 1.390 . S
C516 H533 0.931 . S
C517 C515 1.372 . S
C517 C516 1.390 . S
C517 H534 0.929 . S
C518 C513 1.390 . S
C518 C514 1.392 . S
C518 H535 0.930 . S
C519 O504 1.255 . S
C519 O505 1.257 . S
C520 Eu456 2.787 . S
C520 O500 1.252 . S
C520 O503 1.268 . S
C520 C513 1.506 . S
C521 C488 1.439 . S
C521 H498 0.931 . S
C521 C522 1.374 . S
C522 C493 1.387 . S
C522 H499 0.931 . S
C522 C521 1.374 . S
C523 O507 1.249 . S
C523 O508 1.264 . S
C524 C527 1.382 . S
C524 C528 1.390 . S
C524 C531 1.506 . S
C525 C526 1.398 . S
C525 C528 1.392 . S
C526 C525 1.398 . S
C526 C529 1.372 . S
C526 H536 0.931 . S
C527 C524 1.382 . S
C527 C529 1.390 . S
C527 H537 0.931 . S
C528 C524 1.390 . S
C528 C525 1.392 . S
C528 H538 0.930 . S
C529 C526 1.372 . S
C529 C527 1.390 . S
C529 H539 0.929 . S
C530 O510 1.255 . S
C530 O511 1.257 . S
C531 Eu467 2.787 . S
C531 O506 1.252 . S
C531 O509 1.268 . S
C531 C524 1.506 . S
H532 C515 0.931 . S
H533 C516 0.931 . S
H534 C517 0.929 . S
H535 C518 0.930 . S
H536 C526 0.931 . S
H537 C527 0.931 . S
H538 C528 0.930 . S
H539 C529 0.929 . S
Eu540 N569 2.600 . S
Eu540 N575 2.562 . S
Eu540 O584 2.462 . S
Eu540 O585 2.373 1_455 S
Eu540 O587 2.432 . S
Eu540 O588 2.291 . S
Eu540 O592 2.335 . S
Eu540 O595 2.372 . S
Eu540 C604 2.787 . S
C541 N542 1.365 1_455 S
C541 C544 1.405 . S
C541 C548 1.448 . S
N542 C541 1.365 1_655 S
N542 C545 1.319 . S
N542 Eu551 2.600 . S
C543 C545 1.397 1_455 S
C543 C546 1.367 . S
C543 H563 0.931 . S
C544 C541 1.405 . S
C544 C546 1.403 . S
C544 C550 1.439 . S
C545 N542 1.319 . S
C545 C543 1.397 1_655 S
C545 H556 0.930 . S
C546 C543 1.367 . S
C546 C544 1.403 . S
C546 H567 0.929 . S
C547 C548 1.430 . S
C547 C549 1.387 . S
C547 C553 1.404 . S
C548 C541 1.448 . S
C548 C547 1.430 . S
C548 N552 1.351 . S
C549 C547 1.387 . S
C549 C550 1.374 . S
C549 H564 0.931 . S
C550 C544 1.439 . S
C550 C549 1.374 . S
C550 H565 0.931 . S
Eu551 N542 2.600 . S
Eu551 N552 2.562 1_655 S
Eu551 O586 2.335 . S
Eu551 O589 2.372 . S
Eu551 O590 2.462 . S
Eu551 O591 2.373 1_655 S
Eu551 O593 2.432 . S
Eu551 O594 2.305 . S
Eu551 C615 2.787 . S
N552 C548 1.351 . S
N552 Eu551 2.562 1_455 S
N552 C554 1.325 . S
C553 C547 1.404 . S
C553 C555 1.366 . S
C553 H561 0.930 . S
C554 N552 1.325 . S
C554 C555 1.416 . S
C554 H560 0.929 1_455 S
C555 C553 1.366 . S
C555 C554 1.416 . S
C555 H557 0.930 . S
H556 C545 0.930 . S
H557 C555 0.930 . S
H558 C573 0.930 . S
H559 C580 0.930 . S
H560 C554 0.929 1_655 S
H561 C553 0.930 . S
H562 C576 0.929 . S
H563 C543 0.931 . S
H564 C549 0.931 . S
H565 C550 0.931 . S
H566 C571 0.931 . S
H567 C546 0.929 . S
H568 C579 0.930 . S
N569 Eu540 2.600 . S
N569 C570 1.365 . S
N569 C573 1.319 . S
C570 N569 1.365 . S
C570 C572 1.405 1_455 S
C570 C578 1.449 . S
C571 H566 0.931 . S
C571 C573 1.397 . S
C571 C574 1.367 1_455 S
C572 C570 1.405 1_655 S
C572 C574 1.403 . S
C572 C605 1.439 . S
C573 H558 0.930 . S
C573 N569 1.319 . S
C573 C571 1.397 . S
C574 C571 1.367 1_655 S
C574 C572 1.403 . S
C574 H581 0.929 . S
N575 Eu540 2.562 . S
N575 C576 1.325 . S
N575 C578 1.358 . S
C576 H562 0.929 . S
C576 N575 1.325 . S
C576 C580 1.416 1_455 S
C577 C578 1.422 1_655 S
C577 C579 1.404 . S
C577 C606 1.387 . S
C578 C570 1.449 . S
C578 N575 1.358 . S
C578 C577 1.422 1_455 S
C579 H568 0.930 . S
C579 C577 1.404 . S
C579 C580 1.366 . S
C580 H559 0.930 . S
C580 C576 1.416 1_655 S
C580 C579 1.366 . S
H581 C574 0.929 . S
H582 C605 0.931 . S
H583 C606 0.931 . S
O584 Eu540 2.462 . S
O584 C604 1.252 . S
O585 Eu540 2.373 1_655 S
O585 C596 1.249 . S
O586 Eu551 2.335 . S
O586 C596 1.264 . S
O587 Eu540 2.432 . S
O587 C604 1.268 . S
O588 Eu540 2.291 . S
O588 C603 1.255 . S
O589 Eu551 2.372 . S
O589 C603 1.257 1_655 S
O590 Eu551 2.462 . S
O590 C615 1.252 . S
O591 Eu551 2.373 1_455 S
O591 C607 1.249 . S
O592 Eu540 2.335 . S
O592 C607 1.264 . S
O593 Eu551 2.432 . S
O593 C615 1.268 . S
O594 Eu551 2.305 . S
O594 C614 1.246 1_655 S
O595 Eu540 2.372 . S
O595 C614 1.257 . S
C596 O585 1.249 . S
C596 O586 1.264 . S
C597 C600 1.382 . S
C597 C602 1.390 . S
C597 C604 1.506 . S
C598 C599 1.398 . S
C598 C602 1.392 . S
C599 C598 1.398 . S
C599 C601 1.372 . S
C599 H616 0.931 . S
C600 C597 1.382 . S
C600 C601 1.390 . S
C600 H617 0.931 . S
C601 C599 1.372 . S
C601 C600 1.390 . S
C601 H618 0.929 . S
C602 C597 1.390 . S
C602 C598 1.392 . S
C602 H619 0.930 . S
C603 O588 1.255 . S
C603 O589 1.257 1_455 S
C604 Eu540 2.787 . S
C604 O584 1.252 . S
C604 O587 1.268 . S
C604 C597 1.506 . S
C605 C572 1.439 . S
C605 H582 0.931 . S
C605 C606 1.374 . S
C606 C577 1.387 . S
C606 H583 0.931 . S
C606 C605 1.374 . S
C607 O591 1.249 . S
C607 O592 1.264 . S
C608 C611 1.382 . S
C608 C612 1.390 . S
C608 C615 1.506 . S
C609 C610 1.398 . S
C609 C612 1.392 . S
C610 C609 1.398 . S
C610 C613 1.372 . S
C610 H620 0.931 . S
C611 C608 1.382 . S
C611 C613 1.390 . S
C611 H621 0.931 . S
C612 C608 1.390 . S
C612 C609 1.392 . S
C612 H622 0.930 . S
C613 C610 1.372 . S
C613 C611 1.390 . S
C613 H623 0.929 . S
C614 O594 1.246 1_455 S
C614 O595 1.257 . S
C615 Eu551 2.787 . S
C615 O590 1.252 . S
C615 O593 1.268 . S
C615 C608 1.506 . S
H616 C599 0.931 . S
H617 C600 0.931 . S
H618 C601 0.929 . S
H619 C602 0.930 . S
H620 C610 0.931 . S
H621 C611 0.931 . S
H622 C612 0.930 . S
H623 C613 0.929 . S
H624 C630 0.930 . S
H625 C634 0.930 1_565 S
H626 C639 0.929 . S
H627 C637 0.929 . S
H628 C632 0.929 . S
H629 C638 0.929 . S
C630 H624 0.930 . S
C630 C631 1.367 . S
C630 C638 1.378 . S
C631 C630 1.367 . S
C631 C639 1.433 . S
C632 H628 0.929 . S
C632 C634 1.378 . S
C632 C636 1.350 . S
C633 C636 1.463 . S
C633 C638 1.350 . S
C633 N641 1.427 . S
C634 H625 0.930 1_545 S
C634 C632 1.378 . S
C634 C635 1.367 . S
C635 C634 1.367 . S
C635 C637 1.433 . S
C636 C632 1.350 . S
C636 C633 1.463 . S
C636 N640 1.427 . S
C637 H627 0.929 . S
C637 C635 1.433 . S
C637 N640 1.384 . S
C638 H629 0.929 . S
C638 C630 1.378 . S
C638 C633 1.350 . S
C639 H626 0.929 . S
C639 C631 1.433 . S
C639 N641 1.384 . S
N640 C636 1.427 . S
N640 C637 1.384 . S
N641 C633 1.427 . S
N641 C639 1.384 . S
H642 C648 0.930 . S
H643 C652 0.930 . S
H644 C657 0.929 . S
H645 C655 0.929 . S
H646 C650 0.929 . S
H647 C656 0.929 . S
C648 H642 0.930 . S
C648 C649 1.367 . S
C648 C656 1.378 . S
C649 C648 1.367 . S
C649 C657 1.433 . S
C650 H646 0.929 . S
C650 C652 1.378 . S
C650 C654 1.350 . S
C651 C654 1.463 . S
C651 C656 1.350 . S
C651 N659 1.427 . S
C652 H643 0.930 . S
C652 C650 1.378 . S
C652 C653 1.367 . S
C653 C652 1.367 . S
C653 C655 1.433 . S
C654 C650 1.350 . S
C654 C651 1.463 . S
C654 N658 1.427 . S
C655 H645 0.929 . S
C655 C653 1.433 . S
C655 N658 1.384 . S
C656 H647 0.929 . S
C656 C648 1.378 . S
C656 C651 1.350 . S
C657 H644 0.929 . S
C657 C649 1.433 . S
C657 N659 1.384 . S
N658 C654 1.427 . S
N658 C655 1.384 . S
N659 C651 1.427 . S
N659 C657 1.384 . S
H660 C666 0.930 . S
H661 C670 0.930 . S
H662 C675 0.929 . S
H663 C673 0.929 . S
H664 C668 0.929 . S
H665 C674 0.929 . S
C666 H660 0.930 . S
C666 C667 1.367 . S
C666 C674 1.378 . S
C667 C666 1.367 . S
C667 C675 1.433 . S
C668 H664 0.929 . S
C668 C670 1.378 . S
C668 C672 1.350 . S
C669 C672 1.463 . S
C669 C674 1.350 . S
C669 N677 1.427 . S
C670 H661 0.930 . S
C670 C668 1.378 . S
C670 C671 1.367 . S
C671 C670 1.367 . S
C671 C673 1.433 . S
C672 C668 1.350 . S
C672 C669 1.463 . S
C672 N676 1.427 . S
C673 H663 0.929 . S
C673 C671 1.433 . S
C673 N676 1.384 . S
C674 H665 0.929 . S
C674 C666 1.378 . S
C674 C669 1.350 . S
C675 H662 0.929 . S
C675 C667 1.433 . S
C675 N677 1.384 . S
N676 C672 1.427 . S
N676 C673 1.384 . S
N677 C669 1.427 . S
N677 C675 1.384 . S
H678 C684 0.930 . S
H679 C688 0.930 . S
H680 C693 0.929 . S
H681 C691 0.929 . S
H682 C686 0.929 . S
H683 C692 0.929 1_655 S
C684 H678 0.930 . S
C684 C685 1.367 . S
C684 C692 1.378 . S
C685 C684 1.367 . S
C685 C693 1.433 . S
C686 H682 0.929 . S
C686 C688 1.378 . S
C686 C690 1.350 . S
C687 C690 1.463 . S
C687 C692 1.350 . S
C687 N695 1.427 . S
C688 H679 0.930 . S
C688 C686 1.378 . S
C688 C689 1.367 . S
C689 C688 1.367 . S
C689 C691 1.433 1_455 S
C690 C686 1.350 . S
C690 C687 1.463 . S
C690 N694 1.427 . S
C691 H681 0.929 . S
C691 C689 1.433 1_655 S
C691 N694 1.384 1_655 S
C692 H683 0.929 1_455 S
C692 C684 1.378 . S
C692 C687 1.350 . S
C693 H680 0.929 . S
C693 C685 1.433 . S
C693 N695 1.384 . S
N694 C690 1.427 . S
N694 C691 1.384 1_455 S
N695 C687 1.427 . S
N695 C693 1.384 . S
H696 C702 0.930 1_545 S
H697 C706 0.930 . S
H698 C711 0.929 . S
H699 C709 0.929 . S
H700 C704 0.929 . S
H701 C710 0.929 1_545 S
C702 H696 0.930 1_565 S
C702 C703 1.367 . S
C702 C710 1.378 . S
C703 C702 1.367 . S
C703 C711 1.433 . S
C704 H700 0.929 . S
C704 C706 1.378 . S
C704 C708 1.350 . S
C705 C708 1.463 . S
C705 C710 1.350 1_556 S
C705 N713 1.427 . S
C706 H697 0.930 . S
C706 C704 1.378 . S
C706 C707 1.367 . S
C707 C706 1.367 . S
C707 C709 1.433 1_565 S
C708 C704 1.350 . S
C708 C705 1.463 . S
C708 N712 1.427 1_565 S
C709 H699 0.929 . S
C709 C707 1.433 1_545 S
C709 N712 1.384 . S
C710 H701 0.929 1_565 S
C710 C702 1.378 . S
C710 C705 1.350 1_554 S
C711 H698 0.929 . S
C711 C703 1.433 . S
C711 N713 1.384 1_554 S
N712 C708 1.427 1_545 S
N712 C709 1.384 . S
N713 C705 1.427 . S
N713 C711 1.384 1_556 S
H714 C720 0.930 . S
H715 C724 0.930 . S
H716 C729 0.929 . S
H717 C727 0.929 . S
H718 C722 0.929 . S
H719 C728 0.929 1_556 S
C720 H714 0.930 . S
C720 C721 1.367 . S
C720 C728 1.378 . S
C721 C720 1.367 . S
C721 C729 1.433 . S
C722 H718 0.929 . S
C722 C724 1.378 . S
C722 C726 1.350 . S
C723 C726 1.463 . S
C723 C728 1.350 1_556 S
C723 N731 1.427 1_556 S
C724 H715 0.930 . S
C724 C722 1.378 . S
C724 C725 1.367 . S
C725 C724 1.367 . S
C725 C727 1.433 . S
C726 C722 1.350 . S
C726 C723 1.463 . S
C726 N730 1.427 . S
C727 H717 0.929 . S
C727 C725 1.433 . S
C727 N730 1.384 . S
C728 H719 0.929 1_554 S
C728 C720 1.378 . S
C728 C723 1.350 1_554 S
C729 H716 0.929 . S
C729 C721 1.433 . S
C729 N731 1.384 . S
N730 C726 1.427 . S
N730 C727 1.384 . S
N731 C723 1.427 1_554 S
N731 C729 1.384 . S
H732 C738 0.930 . S
H733 C742 0.930 . S
H734 C747 0.929 . S
H735 C745 0.929 . S
H736 C740 0.929 . S
H737 C746 0.929 1_556 S
C738 H732 0.930 . S
C738 C739 1.367 . S
C738 C746 1.378 . S
C739 C738 1.367 . S
C739 C747 1.433 . S
C740 H736 0.929 . S
C740 C742 1.378 . S
C740 C744 1.350 . S
C741 C744 1.463 . S
C741 C746 1.350 1_556 S
C741 N749 1.427 1_556 S
C742 H733 0.930 . S
C742 C740 1.378 . S
C742 C743 1.367 . S
C743 C742 1.367 . S
C743 C745 1.433 . S
C744 C740 1.350 . S
C744 C741 1.463 . S
C744 N748 1.427 . S
C745 H735 0.929 . S
C745 C743 1.433 . S
C745 N748 1.384 . S
C746 H737 0.929 1_554 S
C746 C738 1.378 . S
C746 C741 1.350 1_554 S
C747 H734 0.929 . S
C747 C739 1.433 . S
C747 N749 1.384 . S
N748 C744 1.427 . S
N748 C745 1.384 . S
N749 C741 1.427 1_554 S
N749 C747 1.384 . S
H750 C756 0.930 . S
H751 C760 0.930 . S
H752 C765 0.929 . S
H753 C763 0.929 . S
H754 C758 0.929 . S
H755 C764 0.929 1_455 S
C756 H750 0.930 . S
C756 C757 1.367 . S
C756 C764 1.378 1_554 S
C757 C756 1.367 . S
C757 C765 1.433 . S
C758 H754 0.929 . S
C758 C760 1.378 . S
C758 C762 1.350 . S
C759 C762 1.463 . S
C759 C764 1.350 . S
C759 N767 1.427 1_556 S
C760 H751 0.930 . S
C760 C758 1.378 . S
C760 C761 1.367 . S
C761 C760 1.367 . S
C761 C763 1.433 1_655 S
C762 C758 1.350 . S
C762 C759 1.463 . S
C762 N766 1.395 1_655 S
C763 H753 0.929 . S
C763 C761 1.433 1_455 S
C763 N766 1.394 . S
C764 H755 0.929 1_655 S
C764 C756 1.378 1_556 S
C764 C759 1.350 . S
C765 H752 0.929 . S
C765 C757 1.433 . S
C765 N767 1.384 . S
N766 C762 1.395 1_455 S
N766 C763 1.394 . S
N767 C759 1.427 1_554 S
N767 C765 1.384 . S
H768 C774 0.930 . S
H769 C778 0.930 . S
H770 C783 0.929 . S
H771 C781 0.917 1_655 S
H772 C776 0.929 . S
H773 C782 0.929 . S
C774 H768 0.930 . S
C774 C775 1.367 . S
C774 C782 1.378 . S
C775 C774 1.367 . S
C775 C783 1.433 . S
C776 H772 0.929 . S
C776 C778 1.378 . S
C776 C780 1.350 . S
C777 C780 1.463 . S
C777 C782 1.350 . S
C777 N785 1.427 . S
C778 H769 0.930 . S
C778 C776 1.378 . S
C778 C779 1.367 1_455 S
C779 C778 1.367 1_655 S
C779 C781 1.429 1_655 S
C780 C776 1.350 . S
C780 C777 1.463 . S
C780 N784 1.427 . S
C781 H771 0.917 1_455 S
C781 C779 1.429 1_455 S
C781 N784 1.404 . S
C782 H773 0.929 . S
C782 C774 1.378 . S
C782 C777 1.350 . S
C783 H770 0.929 . S
C783 C775 1.433 . S
C783 N785 1.384 . S
N784 C780 1.427 . S
N784 C781 1.404 . S
N785 C777 1.427 . S
N785 C783 1.384 . S
H786 C792 0.930 . S
H787 C796 0.930 . S
H788 C801 0.929 . S
H789 C799 0.929 . S
H790 C794 0.929 . S
H791 C800 0.929 . S
C792 H786 0.930 . S
C792 C793 1.367 . S
C792 C800 1.378 . S
C793 C792 1.367 . S
C793 C801 1.433 . S
C794 H790 0.929 . S
C794 C796 1.378 . S
C794 C798 1.350 1_565 S
C795 C798 1.463 . S
C795 C800 1.350 . S
C795 N803 1.427 . S
C796 H787 0.930 . S
C796 C794 1.378 . S
C796 C797 1.367 1_565 S
C797 C796 1.367 1_545 S
C797 C799 1.433 . S
C798 C794 1.350 1_545 S
C798 C795 1.463 . S
C798 N802 1.427 . S
C799 H789 0.929 . S
C799 C797 1.433 . S
C799 N802 1.384 . S
C800 H791 0.929 . S
C800 C792 1.378 . S
C800 C795 1.350 . S
C801 H788 0.929 . S
C801 C793 1.433 . S
C801 N803 1.384 . S
N802 C798 1.427 . S
N802 C799 1.384 . S
N803 C795 1.427 . S
N803 C801 1.384 . S
H804 C810 0.930 . S
H805 C814 0.930 . S
H806 C819 0.929 . S
H807 C817 0.929 . S
H808 C812 0.929 . S
H809 C818 0.929 . S
C810 H804 0.930 . S
C810 C811 1.367 . S
C810 C818 1.378 . S
C811 C810 1.367 . S
C811 C819 1.433 . S
C812 H808 0.929 . S
C812 C814 1.378 . S
C812 C816 1.350 . S
C813 C816 1.463 . S
C813 C818 1.350 . S
C813 N821 1.427 . S
C814 H805 0.930 . S
C814 C812 1.378 . S
C814 C815 1.367 . S
C815 C814 1.367 . S
C815 C817 1.433 . S
C816 C812 1.350 . S
C816 C813 1.463 . S
C816 N820 1.427 . S
C817 H807 0.929 . S
C817 C815 1.433 . S
C817 N820 1.384 . S
C818 H809 0.929 . S
C818 C810 1.378 . S
C818 C813 1.350 . S
C819 H806 0.929 . S
C819 C811 1.433 . S
C819 N821 1.384 . S
N820 C816 1.427 . S
N820 C817 1.384 . S
N821 C813 1.427 . S
N821 C819 1.384 . S
H822 C828 0.930 . S
H823 C832 0.930 . S
H824 C837 0.929 . S
H825 C835 0.929 . S
H826 C830 0.929 . S
H827 C836 0.929 . S
C828 H822 0.930 . S
C828 C829 1.367 . S
C828 C836 1.378 . S
C829 C828 1.367 . S
C829 C837 1.433 . S
C830 H826 0.929 . S
C830 C832 1.378 . S
C830 C834 1.350 . S
C831 C834 1.463 . S
C831 C836 1.350 . S
C831 N839 1.427 . S
C832 H823 0.930 . S
C832 C830 1.378 . S
C832 C833 1.367 . S
C833 C832 1.367 . S
C833 C835 1.433 . S
C834 C830 1.350 . S
C834 C831 1.463 . S
C834 N838 1.427 . S
C835 H825 0.929 . S
C835 C833 1.433 . S
C835 N838 1.384 . S
C836 H827 0.929 . S
C836 C828 1.378 . S
C836 C831 1.350 . S
C837 H824 0.929 . S
C837 C829 1.433 . S
C837 N839 1.384 . S
N838 C834 1.427 . S
N838 C835 1.384 . S
N839 C831 1.427 . S
N839 C837 1.384 . S
H840 C846 0.930 . S
H841 C850 0.930 . S
H842 C855 0.929 . S
H843 C853 0.929 . S
H844 C848 0.929 1_554 S
H845 C854 0.929 . S
C846 H840 0.930 . S
C846 C847 1.367 1_556 S
C846 C854 1.378 . S
C847 C846 1.367 1_554 S
C847 C855 1.433 . S
C848 H844 0.929 1_556 S
C848 C850 1.378 . S
C848 C852 1.350 1_455 S
C849 C852 1.463 . S
C849 C854 1.350 . S
C849 N857 1.427 1_556 S
C850 H841 0.930 . S
C850 C848 1.378 . S
C850 C851 1.367 . S
C851 C850 1.367 . S
C851 C853 1.433 1_455 S
C852 C848 1.350 1_655 S
C852 C849 1.463 . S
C852 N856 1.427 . S
C853 H843 0.929 . S
C853 C851 1.433 1_655 S
C853 N856 1.384 . S
C854 H845 0.929 . S
C854 C846 1.378 . S
C854 C849 1.350 . S
C855 H842 0.929 . S
C855 C847 1.433 . S
C855 N857 1.384 . S
N856 C852 1.427 . S
N856 C853 1.384 . S
N857 C849 1.427 1_554 S
N857 C855 1.384 . S
H858 C864 0.930 . S
H859 C868 0.930 . S
H860 C873 0.929 . S
H861 C871 0.929 . S
H862 C866 0.929 . S
H863 C872 0.929 . S
C864 H858 0.930 . S
C864 C865 1.367 . S
C864 C872 1.378 1_554 S
C865 C864 1.367 . S
C865 C873 1.433 . S
C866 H862 0.929 . S
C866 C868 1.378 . S
C866 C870 1.350 1_545 S
C867 C870 1.463 . S
C867 C872 1.350 . S
C867 N875 1.427 . S
C868 H859 0.930 . S
C868 C866 1.378 . S
C868 C869 1.367 . S
C869 C868 1.367 . S
C869 C871 1.433 1_545 S
C870 C866 1.350 1_565 S
C870 C867 1.463 . S
C870 N874 1.427 . S
C871 H861 0.929 . S
C871 C869 1.433 1_565 S
C871 N874 1.384 . S
C872 H863 0.929 . S
C872 C864 1.378 1_556 S
C872 C867 1.350 . S
C873 H860 0.929 . S
C873 C865 1.433 . S
C873 N875 1.384 1_554 S
N874 C870 1.427 . S
N874 C871 1.384 . S
N875 C867 1.427 . S
N875 C873 1.384 1_556 S
H876 C882 0.930 . S
H877 C886 0.930 . S
H878 C891 0.929 . S
H879 C889 0.929 . S
H880 C884 0.929 1_554 S
H881 C890 0.929 . S
C882 H876 0.930 . S
C882 C883 1.367 1_556 S
C882 C890 1.378 . S
C883 C882 1.367 1_554 S
C883 C891 1.433 . S
C884 H880 0.929 1_556 S
C884 C886 1.378 . S
C884 C888 1.350 . S
C885 C888 1.463 . S
C885 C890 1.350 . S
C885 N893 1.427 1_556 S
C886 H877 0.930 . S
C886 C884 1.378 . S
C886 C887 1.367 . S
C887 C886 1.367 . S
C887 C889 1.433 . S
C888 C884 1.350 . S
C888 C885 1.463 . S
C888 N892 1.427 . S
C889 H879 0.929 . S
C889 C887 1.433 . S
C889 N892 1.384 . S
C890 H881 0.929 . S
C890 C882 1.378 . S
C890 C885 1.350 . S
C891 H878 0.929 . S
C891 C883 1.433 . S
C891 N893 1.384 . S
N892 C888 1.427 . S
N892 C889 1.384 . S
N893 C885 1.427 1_554 S
N893 C891 1.384 . S
H894 C900 0.930 . S
H895 C904 0.930 . S
H896 C909 0.929 . S
H897 C907 0.929 . S
H898 C902 0.929 . S
H899 C908 0.929 . S
C900 H894 0.930 . S
C900 C901 1.367 . S
C900 C908 1.378 1_554 S
C901 C900 1.367 . S
C901 C909 1.433 . S
C902 H898 0.929 . S
C902 C904 1.378 . S
C902 C906 1.350 . S
C903 C906 1.463 . S
C903 C908 1.350 . S
C903 N911 1.427 . S
C904 H895 0.930 . S
C904 C902 1.378 . S
C904 C905 1.367 . S
C905 C904 1.367 . S
C905 C907 1.433 . S
C906 C902 1.350 . S
C906 C903 1.463 . S
C906 N910 1.427 . S
C907 H897 0.929 . S
C907 C905 1.433 . S
C907 N910 1.384 . S
C908 H899 0.929 . S
C908 C900 1.378 1_556 S
C908 C903 1.350 . S
C909 H896 0.929 . S
C909 C901 1.433 . S
C909 N911 1.384 1_554 S
N910 C906 1.427 . S
N910 C907 1.384 . S
N911 C903 1.427 . S
N911 C909 1.384 1_556 S
H912 C918 0.930 . S
H913 C922 0.930 . S
H914 C927 0.929 . S
H915 C925 0.929 . S
H916 C920 0.929 . S
H917 C926 0.929 . S
C918 H912 0.930 . S
C918 C919 1.367 . S
C918 C926 1.378 . S
C919 C918 1.367 . S
C919 C927 1.433 . S
C920 H916 0.929 . S
C920 C922 1.378 . S
C920 C924 1.350 . S
C921 C924 1.463 . S
C921 C926 1.350 . S
C921 N929 1.427 . S
C922 H913 0.930 . S
C922 C920 1.378 . S
C922 C923 1.367 . S
C923 C922 1.367 . S
C923 C925 1.433 . S
C924 C920 1.350 . S
C924 C921 1.463 . S
C924 N928 1.427 . S
C925 H915 0.929 . S
C925 C923 1.433 . S
C925 N928 1.384 . S
C926 H917 0.929 . S
C926 C918 1.378 . S
C926 C921 1.350 . S
C927 H914 0.929 . S
C927 C919 1.433 . S
C927 N929 1.384 . S
N928 C924 1.427 . S
N928 C925 1.384 . S
N929 C921 1.427 . S
N929 C927 1.384 . S
H930 C936 0.930 . S
H931 C940 0.930 . S
H932 C945 0.929 . S
H933 C943 0.929 1_565 S
H934 C938 0.929 . S
H935 C944 0.929 . S
C936 H930 0.930 . S
C936 C937 1.367 . S
C936 C944 1.378 . S
C937 C936 1.367 . S
C937 C945 1.433 . S
C938 H934 0.929 . S
C938 C940 1.378 . S
C938 C942 1.350 . S
C939 C942 1.463 . S
C939 C944 1.350 . S
C939 N947 1.427 . S
C940 H931 0.930 . S
C940 C938 1.378 . S
C940 C941 1.367 . S
C941 C940 1.367 . S
C941 C943 1.433 . S
C942 C938 1.350 . S
C942 C939 1.463 . S
C942 N946 1.427 . S
C943 H933 0.929 1_545 S
C943 C941 1.433 . S
C943 N946 1.384 . S
C944 H935 0.929 . S
C944 C936 1.378 . S
C944 C939 1.350 . S
C945 H932 0.929 . S
C945 C937 1.433 . S
C945 N947 1.384 . S
N946 C942 1.427 . S
N946 C943 1.384 . S
N947 C939 1.427 . S
N947 C945 1.384 . S
H948 C954 0.930 . S
H949 C958 0.930 . S
H950 C963 0.929 . S
H951 C961 0.929 . S
H952 C956 0.929 . S
H953 C962 0.929 . S
C954 H948 0.930 . S
C954 C955 1.367 . S
C954 C962 1.378 . S
C955 C954 1.367 . S
C955 C963 1.433 . S
C956 H952 0.929 . S
C956 C958 1.378 . S
C956 C960 1.350 . S
C957 C960 1.463 . S
C957 C962 1.350 . S
C957 N965 1.427 . S
C958 H949 0.930 . S
C958 C956 1.378 . S
C958 C959 1.367 . S
C959 C958 1.367 . S
C959 C961 1.433 . S
C960 C956 1.350 . S
C960 C957 1.463 . S
C960 N964 1.427 . S
C961 H951 0.929 . S
C961 C959 1.433 . S
C961 N964 1.384 . S
C962 H953 0.929 . S
C962 C954 1.378 . S
C962 C957 1.350 . S
C963 H950 0.929 . S
C963 C955 1.433 . S
C963 N965 1.384 . S
N964 C960 1.427 . S
N964 C961 1.384 . S
N965 C957 1.427 . S
N965 C963 1.384 . S
H966 C972 0.930 . S
H967 C976 0.930 . S
H968 C981 0.929 . S
H969 C979 0.929 . S
H970 C974 0.929 . S
H971 C980 0.929 . S
C972 H966 0.930 . S
C972 C973 1.367 . S
C972 C980 1.378 . S
C973 C972 1.367 . S
C973 C981 1.433 . S
C974 H970 0.929 . S
C974 C976 1.378 . S
C974 C978 1.350 . S
C975 C978 1.463 . S
C975 C980 1.350 . S
C975 N983 1.427 . S
C976 H967 0.930 . S
C976 C974 1.378 . S
C976 C977 1.367 . S
C977 C976 1.367 . S
C977 C979 1.433 . S
C978 C974 1.350 . S
C978 C975 1.463 . S
C978 N982 1.427 . S
C979 H969 0.929 . S
C979 C977 1.433 . S
C979 N982 1.384 . S
C980 H971 0.929 . S
C980 C972 1.378 . S
C980 C975 1.350 . S
C981 H968 0.929 . S
C981 C973 1.433 . S
C981 N983 1.384 . S
N982 C978 1.427 . S
N982 C979 1.384 . S
N983 C975 1.427 . S
N983 C981 1.384 . S
H984 C990 0.930 . S
H985 C994 0.930 . S
H986 C999 0.929 1_455 S
H987 C997 0.929 . S
H988 C992 0.929 . S
H989 C998 0.929 . S
C990 H984 0.930 . S
C990 C991 1.367 . S
C990 C998 1.378 . S
C991 C990 1.367 . S
C991 C999 1.433 . S
C992 H988 0.929 . S
C992 C994 1.378 . S
C992 C996 1.350 1_455 S
C993 C996 1.463 . S
C993 C998 1.350 . S
C993 N1001 1.427 . S
C994 H985 0.930 . S
C994 C992 1.378 . S
C994 C995 1.367 1_455 S
C995 C994 1.367 1_655 S
C995 C997 1.433 . S
C996 C992 1.350 1_655 S
C996 C993 1.463 . S
C996 N1000 1.427 . S
C997 H987 0.929 . S
C997 C995 1.433 . S
C997 N1000 1.384 . S
C998 H989 0.929 . S
C998 C990 1.378 . S
C998 C993 1.350 . S
C999 H986 0.929 1_655 S
C999 C991 1.433 . S
C999 N1001 1.384 . S
N1000 C996 1.427 . S
N1000 C997 1.384 . S
N1001 C993 1.427 . S
N1001 C999 1.384 . S
H1002 C1008 0.930 1_545 S
H1003 C1012 0.930 . S
H1004 C1017 0.929 . S
H1005 C1015 0.929 . S
H1006 C1010 0.929 . S
H1007 C1016 0.945 . S
C1008 H1002 0.930 1_565 S
C1008 C1009 1.367 . S
C1008 C1016 1.375 1_565 S
C1009 C1008 1.367 . S
C1009 C1017 1.433 . S
C1010 H1006 0.929 . S
C1010 C1012 1.378 . S
C1010 C1014 1.350 . S
C1011 C1014 1.463 . S
C1011 C1016 1.336 1_565 S
C1011 N1019 1.427 . S
C1012 H1003 0.930 . S
C1012 C1010 1.378 . S
C1012 C1013 1.367 . S
C1013 C1012 1.367 . S
C1013 C1015 1.433 1_565 S
C1014 C1010 1.350 . S
C1014 C1011 1.463 . S
C1014 N1018 1.427 1_565 S
C1015 H1005 0.929 . S
C1015 C1013 1.433 1_545 S
C1015 N1018 1.384 . S
C1016 H1007 0.945 . S
C1016 C1008 1.375 1_545 S
C1016 C1011 1.336 1_545 S
C1017 H1004 0.929 . S
C1017 C1009 1.433 . S
C1017 N1019 1.384 . S
N1018 C1014 1.427 1_545 S
N1018 C1015 1.384 . S
N1019 C1011 1.427 . S
N1019 C1017 1.384 . S
H1020 C1026 0.930 . S
H1021 C1030 0.930 . S
H1022 C1035 0.929 . S
H1023 C1033 0.929 . S
H1024 C1028 0.929 . S
H1025 C1034 0.929 . S
C1026 H1020 0.930 . S
C1026 C1027 1.367 . S
C1026 C1034 1.378 . S
C1027 C1026 1.367 . S
C1027 C1035 1.433 . S
C1028 H1024 0.929 . S
C1028 C1030 1.378 . S
C1028 C1032 1.350 . S
C1029 C1032 1.463 . S
C1029 C1034 1.350 . S
C1029 N1037 1.427 . S
C1030 H1021 0.930 . S
C1030 C1028 1.378 . S
C1030 C1031 1.367 . S
C1031 C1030 1.367 . S
C1031 C1033 1.433 . S
C1032 C1028 1.350 . S
C1032 C1029 1.463 . S
C1032 N1036 1.427 . S
C1033 H1023 0.929 . S
C1033 C1031 1.433 . S
C1033 N1036 1.384 . S
C1034 H1025 0.929 . S
C1034 C1026 1.378 . S
C1034 C1029 1.350 . S
C1035 H1022 0.929 . S
C1035 C1027 1.433 . S
C1035 N1037 1.384 . S
N1036 C1032 1.427 . S
N1036 C1033 1.384 . S
N1037 C1029 1.427 . S
N1037 C1035 1.384 . S
H1038 C1044 0.930 . S
H1039 C1048 0.930 . S
H1040 C1053 0.929 . S
H1041 C1051 0.929 . S
H1042 C1046 0.929 . S
H1043 C1052 0.929 . S
C1044 H1038 0.930 . S
C1044 C1045 1.367 . S
C1044 C1052 1.378 . S
C1045 C1044 1.367 . S
C1045 C1053 1.433 . S
C1046 H1042 0.929 . S
C1046 C1048 1.378 . S
C1046 C1050 1.350 . S
C1047 C1050 1.463 . S
C1047 C1052 1.350 . S
C1047 N1055 1.427 . S
C1048 H1039 0.930 . S
C1048 C1046 1.378 . S
C1048 C1049 1.367 . S
C1049 C1048 1.367 . S
C1049 C1051 1.433 . S
C1050 C1046 1.350 . S
C1050 C1047 1.463 . S
C1050 N1054 1.427 . S
C1051 H1041 0.929 . S
C1051 C1049 1.433 . S
C1051 N1054 1.384 . S
C1052 H1043 0.929 . S
C1052 C1044 1.378 . S
C1052 C1047 1.350 . S
C1053 H1040 0.929 . S
C1053 C1045 1.433 . S
C1053 N1055 1.384 . S
N1054 C1050 1.427 . S
N1054 C1051 1.384 . S
N1055 C1047 1.427 . S
N1055 C1053 1.384 . S
C631 C241 2.246 . S
C635 C351 2.429 . S
C653 C428 2.449 . S
C649 C277 2.288 . S
C671 C519 2.428 . S
C667 C169 2.234 . S
C689 C603 2.422 . S
C685 C205 2.234 . S
C707 C362 2.432 1_565 S
C703 C97 2.213 . S
C721 C133 2.317 . S
C725 C439 2.448 . S
C739 C25 2.211 . S
C743 C530 2.425 . S
C757 C61 2.195 . S
C761 C614 2.418 1_655 S
C779 C346 0.508 . S
C775 C211 0.478 . S
C797 C441 0.533 . S
C793 C247 0.466 . S
C815 C514 0.472 . S
C811 C253 0.514 . S
C829 C175 0.474 . S
C833 C598 0.481 . S
C847 C67 0.536 . S
C851 C357 0.498 . S
C869 C430 0.551 . S
C865 C103 0.521 . S
C887 C525 0.504 . S
C883 C109 0.468 . S
C901 C31 0.498 . S
C905 C609 0.507 . S
C919 C181 2.647 . S
C923 C355 2.907 . S
C937 C217 2.629 . S
C941 C446 2.946 . S
C959 C523 2.921 . S
C955 C283 2.560 . S
C977 C607 2.914 . S
C973 C145 2.645 . S
C991 C37 2.622 . S
C995 C344 2.903 . S
C1013 C435 2.950 . S
C1009 C73 2.614 . S
C1031 C512 2.927 . S
C1027 C139 2.597 . S
C1045 C1 2.631 . S
C1049 C596 2.915 . S
