# Generated by pormake.
# Topology tsx, (6,3)-cn, num edge types: 1
# Building blocks:
#     Node 0, Type 0, BuildingBlock: MIDCAF_clean_sbu_0, # of connection points: 6
#     Node 1, Type 0, BuildingBlock: MIDCAF_clean_sbu_0, # of connection points: 6
#     Node 2, Type 1, BuildingBlock: CUQRIR_clean_linker_1, # of connection points: 3
#     Node 3, Type 1, BuildingBlock: CUQRIR_clean_linker_1, # of connection points: 3
#     Node 4, Type 1, BuildingBlock: CUQRIR_clean_linker_1, # of connection points: 3
#     Node 5, Type 1, BuildingBlock: CUQRIR_clean_linker_1, # of connection points: 3
#     Edge 6, Type (0, 1), BuildingBlock: XUDNAN_clean_linker_2, # of connection points: 2
#     Edge 7, Type (0, 1), BuildingBlock: XUDNAN_clean_linker_2, # of connection points: 2
#     Edge 8, Type (0, 1), BuildingBlock: XUDNAN_clean_linker_2, # of connection points: 2
#     Edge 9, Type (0, 1), BuildingBlock: XUDNAN_clean_linker_2, # of connection points: 2
#     Edge 10, Type (0, 1), BuildingBlock: XUDNAN_clean_linker_2, # of connection points: 2
#     Edge 11, Type (0, 1), BuildingBlock: XUDNAN_clean_linker_2, # of connection points: 2
#     Edge 12, Type (0, 1), BuildingBlock: XUDNAN_clean_linker_2, # of connection points: 2
#     Edge 13, Type (0, 1), BuildingBlock: XUDNAN_clean_linker_2, # of connection points: 2
#     Edge 14, Type (0, 1), BuildingBlock: XUDNAN_clean_linker_2, # of connection points: 2
#     Edge 15, Type (0, 1), BuildingBlock: XUDNAN_clean_linker_2, # of connection points: 2
#     Edge 16, Type (0, 1), BuildingBlock: XUDNAN_clean_linker_2, # of connection points: 2
#     Edge 17, Type (0, 1), BuildingBlock: XUDNAN_clean_linker_2, # of connection points: 2
# Relax obj value: 0.118
# Max RMSD: 0.170
# Mean RMSD: 0.150
data_MOF--net-tsx--node1-MIDCAF_clean_sbu_0--node2-CUQRIR_clean_linker_1--edge1-XUDNAN_clean_linker_2
_symmetry_space_group_name_H-M    P1
_symmetry_Int_Tables_number       1
_symmetry_cell_setting            triclinic
loop_
_symmetry_equiv_pos_as_xyz
'x, y, z'
_cell_length_a     18.327754
_cell_length_b     19.165847
_cell_length_c     33.338207
_cell_angle_alpha  79.724621
_cell_angle_beta   95.354008
_cell_angle_gamma 90.476151
loop_
_atom_site_label
_atom_site_type_symbol
_atom_site_fract_x
_atom_site_fract_y
_atom_site_fract_z
_atom_type_partial_charge
Zn0 Zn 0.93939 0.01435 0.96627 0.0
Zn1 Zn 0.18051 0.01146 0.03573 0.0
Zn2 Zn 0.05559 0.01429 0.00253 0.0
C3 C 0.13498 0.14973 0.02957 0.0
C4 C 0.20851 0.96206 0.97091 0.0
O5 O 0.98675 0.93368 0.03895 0.0
O6 O 0.90158 0.92279 0.98932 0.0
C7 C 0.93829 0.14235 0.98495 0.0
O8 O 0.0781 0.12619 0.01067 0.0
O9 O 0.18762 0.10848 0.04444 0.0
O10 O 0.24693 0.98455 0.99907 0.0
O11 O 0.13788 0.96813 0.96782 0.0
O12 O 0.89103 0.09556 0.98068 0.0
O13 O 1.00696 0.12499 0.99009 0.0
O14 O 0.07261 0.98507 0.94253 0.0
O15 O 0.96761 0.0264 0.90995 0.0
C16 C 0.03105 0.00232 0.90891 0.0
O17 O 0.05005 0.94682 0.06451 0.0
O18 O 0.16805 0.94149 0.08497 0.0
C19 C 0.92988 0.90191 0.02532 0.0
C20 C 0.10319 0.92469 0.09193 0.0
Zn21 Zn 0.70206 0.48881 0.56093 0.0
Zn22 Zn 0.48959 0.46138 0.46616 0.0
Zn23 Zn 0.58613 0.48226 0.51046 0.0
C24 C 0.59966 0.4662 0.42001 0.0
C25 C 0.45939 0.59087 0.48026 0.0
O26 O 0.55834 0.43236 0.57216 0.0
O27 O 0.65958 0.44479 0.61186 0.0
C28 C 0.74768 0.41335 0.50464 0.0
O29 O 0.62913 0.44731 0.45695 0.0
O30 O 0.53359 0.48573 0.41402 0.0
O31 O 0.42377 0.53527 0.47692 0.0
O32 O 0.52961 0.58628 0.48831 0.0
O33 O 0.77251 0.43353 0.53724 0.0
O34 O 0.68099 0.42873 0.48957 0.0
O35 O 0.60121 0.59718 0.50698 0.0
O36 O 0.70453 0.59472 0.54741 0.0
C37 C 0.65442 0.62944 0.5237 0.0
O38 O 0.50516 0.40836 0.5422 0.0
O39 O 0.46661 0.36178 0.48844 0.0
C40 C 0.59358 0.42575 0.60801 0.0
C41 C 0.46776 0.36081 0.52644 0.0
C42 C 0.07469 0.0204 0.42113 0.0
N43 N 0.1006 0.976 0.39854 0.0
N44 N 0.02492 0.06599 0.39836 0.0
C45 C 0.09891 0.01925 0.46555 0.0
C46 C 0.02168 0.04828 0.36068 0.0
N47 N 0.06701 0.99216 0.36071 0.0
C48 C 0.98293 0.09311 0.32313 0.0
H49 H 0.05953 0.0478 0.48001 0.0
H50 H 0.15307 0.04489 0.4682 0.0
H51 H 0.105 0.96372 0.48216 0.0
H52 H 0.97941 0.14926 0.32698 0.0
H53 H 0.92612 0.07371 0.31844 0.0
H54 H 0.01164 0.09091 0.29552 0.0
C55 C 0.99527 0.05737 0.56029 0.0
N56 N 0.04736 0.06325 0.5911 0.0
N57 N 0.95687 0.99666 0.56946 0.0
C58 C 0.97441 0.11647 0.52517 0.0
C59 C 0.98887 0.96564 0.60665 0.0
N60 N 0.04355 0.00607 0.61986 0.0
C61 C 0.96615 0.89612 0.63085 0.0
H62 H 0.94321 0.09665 0.49961 0.0
H63 H 0.02358 0.14511 0.51426 0.0
H64 H 0.93945 0.1551 0.53588 0.0
H65 H 0.94217 0.86054 0.61034 0.0
H66 H 0.92482 0.90636 0.65143 0.0
H67 H 0.01374 0.86889 0.65012 0.0
C68 C 0.57585 0.56949 0.91543 0.0
N69 N 0.5881 0.51999 0.89249 0.0
N70 N 0.50346 0.58218 0.91522 0.0
C71 C 0.63485 0.60302 0.94002 0.0
C72 C 0.47197 0.5366 0.89232 0.0
N73 N 0.52309 0.50081 0.87671 0.0
C74 C 0.39052 0.52409 0.88724 0.0
H75 H 0.67173 0.56159 0.95877 0.0
H76 H 0.61113 0.63458 0.96054 0.0
H77 H 0.66849 0.63783 0.91882 0.0
H78 H 0.36178 0.57348 0.87131 0.0
H79 H 0.3699 0.50953 0.91782 0.0
H80 H 0.37693 0.48007 0.87037 0.0
C81 C 0.54193 0.50329 0.07774 0.0
N82 N 0.59805 0.5167 0.10481 0.0
N83 N 0.48213 0.47963 0.09742 0.0
C84 C 0.54814 0.50871 0.03261 0.0
C85 C 0.50433 0.48046 0.13738 0.0
N86 N 0.57437 0.50181 0.14166 0.0
C87 C 0.4565 0.46624 0.17233 0.0
H88 H 0.52363 0.55972 0.01606 0.0
H89 H 0.51856 0.46473 0.02079 0.0
H90 H 0.60642 0.50725 0.02624 0.0
H91 H 0.46599 0.41106 0.18892 0.0
H92 H 0.39762 0.47411 0.16137 0.0
H93 H 0.47097 0.50206 0.19452 0.0
H94 H 0.17859 0.19042 0.09955 0.0
H95 H 0.1223 0.27169 0.97111 0.0
H96 H 0.19058 0.38186 0.97803 0.0
H97 H 0.20973 0.36262 0.14055 0.0
H98 H 0.28971 0.32381 0.17188 0.0
H99 H 0.21231 0.26905 0.16133 0.0
H100 H 0.29848 0.18598 0.13366 0.0
H101 H 0.37542 0.24102 0.14287 0.0
H102 H 0.35191 0.22223 0.09218 0.0
H103 H 0.28605 0.47427 0.99791 0.0
H104 H 0.39806 0.52976 0.02571 0.0
H105 H 0.41295 0.36286 0.1323 0.0
C106 C 0.17676 0.23354 0.07354 0.0
C107 C 0.14359 0.22385 0.03517 0.0
C108 C 0.14478 0.27953 0.00115 0.0
C109 C 0.1845 0.34184 0.00482 0.0
C110 C 0.22331 0.34646 0.04247 0.0
C111 C 0.21945 0.29311 0.07623 0.0
C112 C 0.27884 0.29959 0.10988 0.0
C113 C 0.24564 0.3147 0.14817 0.0
C114 C 0.32907 0.23334 0.12017 0.0
C115 C 0.31865 0.36325 0.08952 0.0
C116 C 0.28447 0.39206 0.05156 0.0
C117 C 0.31289 0.45166 0.02764 0.0
C118 C 0.37731 0.48217 0.04327 0.0
C119 C 0.41455 0.45087 0.08134 0.0
C120 C 0.38474 0.39001 0.10401 0.0
H121 H 0.19674 0.82084 0.97745 0.0
H122 H 0.30934 0.00359 0.91697 0.0
H123 H 0.39683 0.92424 0.89419 0.0
H124 H 0.35329 0.7271 0.0189 0.0
H125 H 0.31838 0.6405 0.01412 0.0
H126 H 0.25631 0.71023 0.01864 0.0
H127 H 0.18194 0.69376 0.95083 0.0
H128 H 0.24342 0.62297 0.94676 0.0
H129 H 0.22857 0.69724 0.90523 0.0
H130 H 0.47895 0.82592 0.88482 0.0
H131 H 0.54509 0.71426 0.88441 0.0
H132 H 0.38557 0.59662 0.957 0.0
C133 C 0.23769 0.84369 0.95766 0.0
C134 C 0.24537 0.91776 0.9475 0.0
C135 C 0.30177 0.94672 0.9237 0.0
C136 C 0.35182 0.90212 0.91103 0.0
C137 C 0.345 0.82906 0.92318 0.0
C138 C 0.28892 0.79991 0.94561 0.0
C139 C 0.29826 0.72034 0.95837 0.0
C140 C 0.30711 0.69832 0.00529 0.0
C141 C 0.23425 0.68128 0.93913 0.0
C142 C 0.3688 0.70943 0.94007 0.0
C143 C 0.39458 0.77269 0.9197 0.0
C144 C 0.4591 0.77605 0.90052 0.0
C145 C 0.49681 0.71267 0.90094 0.0
C146 C 0.47041 0.64711 0.92082 0.0
C147 C 0.4065 0.64589 0.94135 0.0
H148 H 0.78568 0.87698 0.02215 0.0
H149 H 0.99382 0.79051 0.08191 0.0
H150 H 0.93136 0.67874 0.10969 0.0
H151 H 0.59652 0.78094 0.06335 0.0
H152 H 0.65751 0.85488 0.05342 0.0
H153 H 0.67001 0.79331 0.10123 0.0
H154 H 0.68686 0.81416 0.98626 0.0
H155 H 0.62655 0.74001 0.99668 0.0
H156 H 0.72072 0.7253 0.98864 0.0
H157 H 0.84441 0.57177 0.12464 0.0
H158 H 0.74115 0.48676 0.1314 0.0
H159 H 0.59431 0.64713 0.0599 0.0
C160 C 0.81804 0.83511 0.04186 0.0
C161 C 0.8944 0.84195 0.04998 0.0
C162 C 0.93502 0.78631 0.07582 0.0
C163 C 0.90005 0.72262 0.0913 0.0
C164 C 0.82483 0.71641 0.08074 0.0
C165 C 0.78437 0.77202 0.05717 0.0
C166 C 0.70519 0.75261 0.04854 0.0
C167 C 0.65432 0.79811 0.0678 0.0
C168 C 0.68367 0.75834 0.00229 0.0
C169 C 0.70708 0.67654 0.07013 0.0
C170 C 0.77618 0.6562 0.08874 0.0
C171 C 0.79017 0.58759 0.11039 0.0
C172 C 0.73156 0.53965 0.11396 0.0
C173 C 0.66042 0.56072 0.09583 0.0
C174 C 0.64864 0.62957 0.07325 0.0
H175 H 0.81425 0.187 0.00986 0.0
H176 H 0.99761 0.26098 0.94131 0.0
H177 H 0.93 0.37286 0.9121 0.0
H178 H 0.68341 0.23746 0.93288 0.0
H179 H 0.61502 0.26334 0.963 0.0
H180 H 0.68324 0.198 0.98619 0.0
H181 H 0.72423 0.27283 0.04179 0.0
H182 H 0.65426 0.33749 0.01963 0.0
H183 H 0.74832 0.36451 0.02654 0.0
H184 H 0.83223 0.46897 0.88247 0.0
H185 H 0.71907 0.54271 0.86073 0.0
H186 H 0.60019 0.39844 0.94556 0.0
C187 C 0.84153 0.22824 0.9902 0.0
C188 C 0.9117 0.21629 0.97849 0.0
C189 C 0.94499 0.2703 0.95175 0.0
C190 C 0.90639 0.3335 0.93458 0.0
C191 C 0.83499 0.3415 0.94473 0.0
C192 C 0.80362 0.29064 0.97266 0.0
C193 C 0.72397 0.3072 0.9755 0.0
C194 C 0.67351 0.24797 0.96368 0.0
C195 C 0.71202 0.32137 0.01841 0.0
C196 C 0.71428 0.37404 0.94385 0.0
C197 C 0.7788 0.39397 0.92665 0.0
C198 C 0.78174 0.45389 0.89602 0.0
C199 C 0.71751 0.49494 0.88352 0.0
C200 C 0.65159 0.47467 0.90106 0.0
C201 C 0.6501 0.41357 0.93134 0.0
H202 H 0.64667 0.72633 0.57303 0.0
H203 H 0.69428 0.70144 0.45185 0.0
H204 H 0.75874 0.81621 0.44338 0.0
H205 H 0.63416 0.93466 0.54879 0.0
H206 H 0.67537 0.93774 0.59969 0.0
H207 H 0.61483 0.86618 0.59094 0.0
H208 H 0.7164 0.77585 0.62493 0.0
H209 H 0.77751 0.84649 0.63301 0.0
H210 H 0.80467 0.78065 0.60478 0.0
H211 H 0.85073 0.90744 0.45802 0.0
H212 H 0.94678 0.97536 0.49088 0.0
H213 H 0.82796 0.95543 0.59833 0.0
C214 C 0.66642 0.74776 0.54376 0.0
C215 C 0.66432 0.70643 0.51271 0.0
C216 C 0.69357 0.73368 0.47541 0.0
C217 C 0.73066 0.79865 0.4705 0.0
C218 C 0.73604 0.83645 0.50279 0.0
C219 C 0.70215 0.81328 0.53817 0.0
C220 C 0.72389 0.85822 0.57037 0.0
C221 C 0.65814 0.9018 0.57787 0.0
C222 C 0.75763 0.81255 0.61058 0.0
C223 C 0.78048 0.90564 0.54919 0.0
C224 C 0.78627 0.89306 0.51001 0.0
C225 C 0.84439 0.92031 0.48782 0.0
C226 C 0.89875 0.95916 0.5066 0.0
C227 C 0.89412 0.97131 0.5469 0.0
C228 C 0.83216 0.94735 0.56733 0.0
H229 H 0.71662 0.29815 0.467 0.0
H230 H 0.89156 0.43875 0.4975 0.0
H231 H 0.97955 0.36902 0.46885 0.0
H232 H 0.81722 0.14257 0.49458 0.0
H233 H 0.78184 0.09778 0.45382 0.0
H234 H 0.72619 0.16228 0.47036 0.0
H235 H 0.70717 0.23588 0.39819 0.0
H236 H 0.75944 0.17142 0.37948 0.0
H237 H 0.78547 0.2633 0.37031 0.0
H238 H 0.05033 0.28089 0.44222 0.0
H239 H 0.10017 0.17704 0.41866 0.0
H240 H 0.88175 0.09212 0.40442 0.0
C241 C 0.77303 0.31524 0.4664 0.0
C242 C 0.79726 0.37453 0.4837 0.0
C243 C 0.87197 0.39383 0.48405 0.0
C244 C 0.92225 0.35473 0.46773 0.0
C245 C 0.89706 0.29625 0.45122 0.0
C246 C 0.82425 0.27642 0.45021 0.0
C247 C 0.8132 0.20817 0.43322 0.0
C248 C 0.78294 0.14921 0.46486 0.0
C249 C 0.76331 0.22054 0.3929 0.0
C250 C 0.89129 0.19243 0.42568 0.0
C251 C 0.93852 0.24442 0.43596 0.0
C252 C 0.01382 0.2404 0.43347 0.0
C253 C 0.04171 0.18147 0.42027 0.0
C254 C 0.99449 0.12768 0.40971 0.0
C255 C 0.91834 0.1335 0.41192 0.0
H256 H 0.40528 0.24144 0.50526 0.0
H257 H 0.4085 0.37517 0.59719 0.0
H258 H 0.3034 0.31001 0.62638 0.0
H259 H 0.21645 0.24256 0.48579 0.0
H260 H 0.20877 0.15295 0.47677 0.0
H261 H 0.29142 0.20157 0.46698 0.0
H262 H 0.36934 0.10397 0.51585 0.0
H263 H 0.28731 0.05338 0.52474 0.0
H264 H 0.34522 0.07539 0.5674 0.0
H265 H 0.18623 0.24073 0.63883 0.0
H266 H 0.07675 0.16434 0.63847 0.0
H267 H 0.15229 0.0743 0.53954 0.0
C268 C 0.38549 0.25563 0.53238 0.0
C269 C 0.41628 0.31282 0.54955 0.0
C270 C 0.38755 0.33047 0.5844 0.0
C271 C 0.32708 0.29417 0.6008 0.0
C272 C 0.29613 0.24011 0.58196 0.0
C273 C 0.32521 0.22017 0.54889 0.0
C274 C 0.27893 0.16421 0.53213 0.0
C275 C 0.24706 0.192 0.48781 0.0
C276 C 0.32283 0.09513 0.53525 0.0
C277 C 0.21946 0.15528 0.56111 0.0
C278 C 0.22969 0.2 0.58938 0.0
C279 C 0.17882 0.20421 0.61752 0.0
C280 C 0.117 0.16035 0.61731 0.0
C281 C 0.10729 0.11245 0.58955 0.0
C282 C 0.15896 0.11046 0.56104 0.0
H283 H 0.31347 0.60989 0.45815 0.0
H284 H 0.51198 0.72635 0.4828 0.0
H285 H 0.44056 0.83882 0.46525 0.0
H286 H 0.24033 0.73256 0.37133 0.0
H287 H 0.1467 0.71894 0.38305 0.0
H288 H 0.21307 0.64841 0.39918 0.0
H289 H 0.18239 0.63935 0.47436 0.0
H290 H 0.11572 0.70968 0.4584 0.0
H291 H 0.18832 0.71737 0.49771 0.0
H292 H 0.34614 0.93837 0.44313 0.0
H293 H 0.23779 0.01623 0.41869 0.0
H294 H 0.10325 0.83274 0.4082 0.0
C295 C 0.34239 0.65879 0.46027 0.0
C296 C 0.4186 0.65917 0.47212 0.0
C297 C 0.45377 0.72465 0.47406 0.0
C298 C 0.41358 0.78869 0.46406 0.0
C299 C 0.33857 0.78601 0.45209 0.0
C300 C 0.30353 0.72257 0.4502 0.0
C301 C 0.22304 0.73335 0.43551 0.0
C302 C 0.20476 0.70673 0.39486 0.0
C303 C 0.17452 0.69784 0.46847 0.0
C304 C 0.21766 0.8131 0.42946 0.0
C305 C 0.28485 0.84263 0.43918 0.0
C306 C 0.29346 0.91565 0.43562 0.0
C307 C 0.23191 0.9593 0.4219 0.0
C308 C 0.1629 0.92984 0.4119 0.0
C309 C 0.15568 0.85596 0.41571 0.0
H310 H 0.98226 0.93286 0.1349 0.0
H311 H 0.201 0.84285 0.14524 0.0
H312 H 0.20841 0.8325 0.21977 0.0
H313 H 1.00499 0.03633 0.2011 0.0
H314 H 0.92291 0.02141 0.22716 0.0
H315 H 0.92331 0.0043 0.17595 0.0
H316 H 0.8833 0.8747 0.19874 0.0
H317 H 0.87976 0.89188 0.25 0.0
H318 H 0.93434 0.81916 0.24128 0.0
H319 H 0.21282 0.88254 0.28267 0.0
H320 H 0.19635 0.94439 0.33902 0.0
H321 H 0.96352 0.96614 0.30053 0.0
C322 C 0.02952 0.90662 0.15311 0.0
C323 C 0.09163 0.89011 0.13423 0.0
C324 C 0.15315 0.85688 0.15899 0.0
C325 C 0.15804 0.85081 0.20147 0.0
C326 C 0.09932 0.87461 0.21902 0.0
C327 C 0.03423 0.89757 0.19617 0.0
C328 C 0.98182 0.92415 0.22301 0.0
C329 C 0.95686 0.00109 0.20575 0.0
C330 C 0.91589 0.87449 0.2286 0.0
C331 C 0.03076 0.91953 0.26282 0.0
C332 C 0.09862 0.89171 0.2595 0.0
C333 C 0.15836 0.89875 0.28749 0.0
C334 C 0.14814 0.93345 0.32012 0.0
C335 C 0.07767 0.95695 0.32644 0.0
C336 C 0.01809 0.94829 0.29741 0.0
H337 H 0.98204 0.08234 0.83672 0.0
H338 H 0.13262 0.91046 0.88965 0.0
H339 H 0.16638 0.90208 0.82028 0.0
H340 H 0.91058 0.00568 0.75562 0.0
H341 H 0.89817 0.08811 0.71992 0.0
H342 H 0.89641 0.08723 0.77379 0.0
H343 H 1.00006 0.18067 0.77111 0.0
H344 H 1.0023 0.18153 0.71709 0.0
H345 H 0.08479 0.16292 0.75117 0.0
H346 H 0.17351 0.90701 0.74273 0.0
H347 H 0.14853 0.92097 0.66684 0.0
H348 H 0.98617 0.08217 0.6682 0.0
C349 C 0.02308 0.04357 0.83392 0.0
C350 C 0.05624 0.99812 0.86862 0.0
C351 C 0.10889 0.94759 0.86358 0.0
C352 C 0.12774 0.94215 0.82424 0.0
C353 C 0.09308 0.98759 0.79051 0.0
C354 C 0.04167 0.03719 0.79524 0.0
C355 C 1.0064 0.07533 0.75468 0.0
C356 C 0.923 0.0633 0.7508 0.0
C357 C 0.0245 0.15482 0.74815 0.0
C358 C 0.04429 0.03832 0.72611 0.0
C359 C 0.09529 0.98882 0.74692 0.0
C360 C 0.13449 0.94639 0.72624 0.0
C361 C 0.12031 0.95455 0.68338 0.0
C362 C 0.06704 0.00402 0.66228 0.0
C363 C 0.02893 0.04598 0.68394 0.0
H364 H 0.64256 0.35537 0.68483 0.0
H365 H 0.46156 0.47988 0.61548 0.0
H366 H 0.41244 0.49474 0.67942 0.0
H367 H 0.53405 0.2745 0.77692 0.0
H368 H 0.61345 0.28025 0.81238 0.0
H369 H 0.62448 0.26289 0.76184 0.0
H370 H 0.71089 0.37057 0.75001 0.0
H371 H 0.69874 0.3895 0.79988 0.0
H372 H 0.67834 0.45682 0.75512 0.0
H373 H 0.4077 0.52965 0.74511 0.0
H374 H 0.42842 0.56106 0.81251 0.0
H375 H 0.59883 0.39944 0.84666 0.0
C376 C 0.59031 0.38211 0.68337 0.0
C377 C 0.55412 0.41409 0.64517 0.0
C378 C 0.48807 0.45201 0.64422 0.0
C379 C 0.46025 0.46148 0.6805 0.0
C380 C 0.49886 0.43226 0.71759 0.0
C381 C 0.56124 0.39136 0.71961 0.0
C382 C 0.59607 0.37291 0.76354 0.0
C383 C 0.59173 0.29287 0.77962 0.0
C384 C 0.6757 0.39903 0.76732 0.0
C385 C 0.54653 0.41427 0.78511 0.0
C386 C 0.49111 0.44797 0.75773 0.0
C387 C 0.44721 0.49971 0.76768 0.0
C388 C 0.45897 0.51654 0.80671 0.0
C389 C 0.51149 0.4793 0.83691 0.0
C390 C 0.5562 0.42741 0.8255 0.0
H391 H 0.60741 0.57809 0.36001 0.0
H392 H 0.67452 0.35907 0.39754 0.0
H393 H 0.70938 0.35684 0.32787 0.0
H394 H 0.51349 0.55837 0.27622 0.0
H395 H 0.53374 0.641 0.24413 0.0
H396 H 0.54082 0.63475 0.29856 0.0
H397 H 0.67585 0.67587 0.29825 0.0
H398 H 0.66892 0.68315 0.24332 0.0
H399 H 0.74036 0.62944 0.27465 0.0
H400 H 0.70221 0.36717 0.25308 0.0
H401 H 0.6529 0.38895 0.18023 0.0
H402 H 0.58789 0.60077 0.18947 0.0
C403 C 0.63364 0.5311 0.35394 0.0
C404 C 0.64086 0.46928 0.3841 0.0
C405 C 0.6721 0.40753 0.37525 0.0
C406 C 0.69155 0.40595 0.33566 0.0
C407 C 0.6799 0.46685 0.30569 0.0
C408 C 0.65262 0.52888 0.3146 0.0
C409 C 0.63099 0.58215 0.27603 0.0
C410 C 0.55001 0.60528 0.27363 0.0
C411 C 0.68211 0.64645 0.27288 0.0
C412 C 0.64364 0.53814 0.24392 0.0
C413 C 0.67444 0.47272 0.26155 0.0
C414 C 0.6808 0.41902 0.23881 0.0
C415 C 0.65274 0.43157 0.19761 0.0
C416 C 0.61867 0.49691 0.1798 0.0
C417 C 0.61639 0.55159 0.20263 0.0
loop_
_geom_bond_atom_site_label_1
_geom_bond_atom_site_label_2
_geom_bond_distance
_geom_bond_site_symmetry_2
_ccdc_geom_bond_type
Zn0 O6 1.920 1_545 S
Zn0 O12 1.898 . S
Zn0 O15 1.905 1_545 S
Zn1 O9 1.905 1_565 S
Zn1 O10 1.898 . S
Zn1 O18 1.920 . S
Zn2 O5 2.080 1_445 S
Zn2 O8 2.114 1_554 S
Zn2 O11 2.120 1_545 S
Zn2 O13 2.120 1_455 S
Zn2 O14 2.114 1_554 S
Zn2 O17 2.080 1_545 S
C3 O8 1.166 1_554 S
C3 O9 1.182 . S
C4 O10 1.167 . S
C4 O11 1.299 . S
O5 Zn2 2.080 1_665 S
O5 C19 1.305 . S
O6 Zn0 1.920 1_565 S
O6 C19 1.234 1_556 S
C7 O12 1.167 . S
C7 O13 1.299 1_556 S
O8 Zn2 2.114 1_556 S
O8 C3 1.166 1_556 S
O9 Zn1 1.905 1_545 S
O9 C3 1.182 . S
O10 Zn1 1.898 . S
O10 C4 1.167 . S
O11 Zn2 2.120 1_565 S
O11 C4 1.299 . S
O12 Zn0 1.898 . S
O12 C7 1.167 . S
O13 Zn2 2.120 1_655 S
O13 C7 1.299 1_554 S
O14 Zn2 2.114 1_556 S
O14 C16 1.166 1_545 S
O15 Zn0 1.905 1_565 S
O15 C16 1.182 1_655 S
C16 O14 1.166 1_565 S
C16 O15 1.182 1_455 S
O17 Zn2 2.080 1_565 S
O17 C20 1.304 . S
O18 Zn1 1.920 . S
O18 C20 1.234 . S
C19 O5 1.305 . S
C19 O6 1.234 1_554 S
C20 O17 1.304 . S
C20 O18 1.234 . S
Zn21 O27 1.920 . S
Zn21 O33 1.898 . S
Zn21 O36 1.905 . S
Zn22 O30 1.905 . S
Zn22 O31 1.898 . S
Zn22 O39 1.920 . S
Zn23 O26 2.080 . S
Zn23 O29 2.114 . S
Zn23 O32 2.120 . S
Zn23 O34 2.120 . S
Zn23 O35 2.114 . S
Zn23 O38 2.080 . S
C24 O29 1.166 . S
C24 O30 1.182 . S
C25 O31 1.167 . S
C25 O32 1.299 . S
O26 Zn23 2.080 . S
O26 C40 1.305 . S
O27 Zn21 1.920 . S
O27 C40 1.234 . S
C28 O33 1.167 . S
C28 O34 1.299 . S
O29 Zn23 2.114 . S
O29 C24 1.166 . S
O30 Zn22 1.905 . S
O30 C24 1.182 . S
O31 Zn22 1.898 . S
O31 C25 1.167 . S
O32 Zn23 2.120 . S
O32 C25 1.299 . S
O33 Zn21 1.898 . S
O33 C28 1.167 . S
O34 Zn23 2.120 . S
O34 C28 1.299 . S
O35 Zn23 2.114 . S
O35 C37 1.166 . S
O36 Zn21 1.905 . S
O36 C37 1.182 . S
C37 O35 1.166 . S
C37 O36 1.182 . S
O38 Zn23 2.080 . S
O38 C41 1.305 . S
O39 Zn22 1.920 . S
O39 C41 1.234 . S
C40 O26 1.305 . S
C40 O27 1.234 . S
C41 O38 1.305 . S
C41 O39 1.234 . S
C42 N43 1.317 1_545 S
C42 N44 1.348 . S
C42 C45 1.485 . S
N43 C42 1.317 1_565 S
N43 N47 1.370 1_565 S
N44 C42 1.348 . S
N44 C46 1.346 . S
C45 C42 1.485 . S
C45 H49 0.960 1_545 S
C45 H50 0.961 . S
C45 H51 0.960 1_545 S
C46 N44 1.346 . S
C46 N47 1.307 . S
C46 C48 1.486 1_455 S
N47 N43 1.370 1_545 S
N47 C46 1.307 . S
C48 C46 1.486 1_655 S
C48 H52 0.960 . S
C48 H53 0.960 . S
C48 H54 0.959 . S
H49 C45 0.960 1_565 S
H50 C45 0.961 . S
H51 C45 0.960 1_565 S
H52 C48 0.960 . S
H53 C48 0.960 . S
H54 C48 0.959 . S
C55 N56 1.317 . S
C55 N57 1.348 1_445 S
C55 C58 1.485 . S
N56 C55 1.317 . S
N56 N60 1.370 . S
N57 C55 1.348 1_665 S
N57 C59 1.346 . S
C58 C55 1.485 . S
C58 H62 0.960 1_455 S
C58 H63 0.961 1_545 S
C58 H64 0.960 . S
C59 N57 1.346 . S
C59 N60 1.307 1_665 S
C59 C61 1.486 . S
N60 N56 1.370 . S
N60 C59 1.307 1_445 S
C61 C59 1.486 . S
C61 H65 0.960 . S
C61 H66 0.960 . S
C61 H67 0.959 . S
H62 C58 0.960 1_655 S
H63 C58 0.961 1_565 S
H64 C58 0.960 . S
H65 C61 0.960 . S
H66 C61 0.960 . S
H67 C61 0.959 . S
C68 N69 1.317 . S
C68 N70 1.348 . S
C68 C71 1.485 . S
N69 C68 1.317 . S
N69 N73 1.370 . S
N70 C68 1.348 . S
N70 C72 1.346 . S
C71 C68 1.485 . S
C71 H75 0.960 1_556 S
C71 H76 0.961 1_556 S
C71 H77 0.960 . S
C72 N70 1.346 . S
C72 N73 1.307 . S
C72 C74 1.486 . S
N73 N69 1.370 . S
N73 C72 1.307 . S
C74 C72 1.486 . S
C74 H78 0.960 . S
C74 H79 0.960 . S
C74 H80 0.959 . S
H75 C71 0.960 1_554 S
H76 C71 0.961 1_554 S
H77 C71 0.960 . S
H78 C74 0.960 . S
H79 C74 0.960 . S
H80 C74 0.959 . S
C81 N82 1.317 . S
C81 N83 1.348 . S
C81 C84 1.485 . S
N82 C81 1.317 . S
N82 N86 1.370 . S
N83 C81 1.348 . S
N83 C85 1.346 . S
C84 C81 1.485 . S
C84 H88 0.961 . S
C84 H89 0.961 . S
C84 H90 0.960 . S
C85 N83 1.346 . S
C85 N86 1.307 . S
C85 C87 1.486 . S
N86 N82 1.370 . S
N86 C85 1.307 . S
C87 C85 1.486 . S
C87 H91 0.960 . S
C87 H92 0.960 . S
C87 H93 0.959 . S
H88 C84 0.961 . S
H89 C84 0.961 . S
H90 C84 0.960 . S
H91 C87 0.960 . S
H92 C87 0.960 . S
H93 C87 0.959 . S
H94 C106 0.930 . S
H95 C108 0.930 . S
H96 C109 0.930 . S
H97 C113 0.959 . S
H98 C113 0.959 . S
H99 C113 0.961 . S
H100 C114 0.960 . S
H101 C114 0.961 . S
H102 C114 0.959 . S
H103 C117 0.944 . S
H104 C118 0.942 . S
H105 C120 0.930 . S
C106 H94 0.930 . S
C106 C107 1.399 . S
C106 C111 1.399 . S
C107 C106 1.399 . S
C107 C108 1.376 1_554 S
C108 H95 0.930 . S
C108 C107 1.376 1_556 S
C108 C109 1.388 . S
C109 H96 0.930 . S
C109 C108 1.388 . S
C109 C110 1.390 1_556 S
C110 C109 1.390 1_554 S
C110 C111 1.394 . S
C110 C116 1.465 . S
C111 C106 1.399 . S
C111 C110 1.394 . S
C111 C112 1.516 . S
C112 C111 1.516 . S
C112 C113 1.502 . S
C112 C114 1.561 . S
C112 C115 1.526 . S
C113 H97 0.959 . S
C113 H98 0.959 . S
C113 H99 0.961 . S
C113 C112 1.502 . S
C114 H100 0.960 . S
C114 H101 0.961 . S
C114 H102 0.959 . S
C114 C112 1.561 . S
C115 C112 1.526 . S
C115 C116 1.396 . S
C115 C120 1.390 . S
C116 C110 1.465 . S
C116 C115 1.396 . S
C116 C117 1.391 1_554 S
C117 H103 0.944 . S
C117 C116 1.391 1_556 S
C117 C118 1.378 1_556 S
C118 H104 0.942 . S
C118 C117 1.378 1_554 S
C118 C119 1.389 . S
C119 C118 1.389 . S
C119 C120 1.387 . S
C120 H105 0.930 . S
C120 C115 1.390 . S
C120 C119 1.387 . S
H121 C133 0.930 . S
H122 C135 0.930 . S
H123 C136 0.930 . S
H124 C140 0.959 . S
H125 C140 0.959 . S
H126 C140 0.961 . S
H127 C141 0.960 . S
H128 C141 0.961 . S
H129 C141 0.959 . S
H130 C144 0.929 1_554 S
H131 C145 0.931 . S
H132 C147 0.930 . S
C133 H121 0.930 . S
C133 C134 1.399 . S
C133 C138 1.399 . S
C134 C133 1.399 . S
C134 C135 1.376 1_556 S
C135 H122 0.930 . S
C135 C134 1.376 1_554 S
C135 C136 1.388 . S
C136 H123 0.930 . S
C136 C135 1.388 . S
C136 C137 1.390 1_554 S
C137 C136 1.390 1_556 S
C137 C138 1.394 . S
C137 C143 1.465 . S
C138 C133 1.399 . S
C138 C137 1.394 . S
C138 C139 1.516 . S
C139 C138 1.516 . S
C139 C140 1.502 . S
C139 C141 1.561 . S
C139 C142 1.526 . S
C140 H124 0.959 . S
C140 H125 0.959 . S
C140 H126 0.961 . S
C140 C139 1.502 . S
C141 H127 0.960 . S
C141 H128 0.961 . S
C141 H129 0.959 . S
C141 C139 1.561 . S
C142 C139 1.526 . S
C142 C143 1.396 . S
C142 C147 1.390 . S
C143 C137 1.465 . S
C143 C142 1.396 . S
C143 C144 1.399 . S
C144 H130 0.929 1_556 S
C144 C143 1.399 . S
C144 C145 1.385 . S
C145 H131 0.931 . S
C145 C144 1.385 . S
C145 C146 1.389 . S
C146 C145 1.389 . S
C146 C147 1.387 . S
C147 H132 0.930 . S
C147 C142 1.390 . S
C147 C146 1.387 . S
H148 C160 0.930 1_556 S
H149 C162 0.930 . S
H150 C163 0.930 . S
H151 C167 0.961 . S
H152 C167 0.959 . S
H153 C167 0.961 . S
H154 C168 0.960 . S
H155 C168 0.961 . S
H156 C168 0.959 . S
H157 C171 0.929 . S
H158 C172 0.931 . S
H159 C174 0.930 . S
C160 H148 0.930 1_554 S
C160 C161 1.399 . S
C160 C165 1.399 . S
C161 C160 1.399 . S
C161 C162 1.376 . S
C162 H149 0.930 . S
C162 C161 1.376 . S
C162 C163 1.388 . S
C163 H150 0.930 . S
C163 C162 1.388 . S
C163 C164 1.390 . S
C164 C163 1.390 . S
C164 C165 1.394 . S
C164 C170 1.465 . S
C165 C160 1.399 . S
C165 C164 1.394 . S
C165 C166 1.516 . S
C166 C165 1.516 . S
C166 C167 1.502 1_554 S
C166 C168 1.561 1_554 S
C166 C169 1.526 . S
C167 H151 0.961 . S
C167 H152 0.959 . S
C167 H153 0.961 . S
C167 C166 1.502 1_556 S
C168 H154 0.960 . S
C168 H155 0.961 . S
C168 H156 0.959 . S
C168 C166 1.561 1_556 S
C169 C166 1.526 . S
C169 C170 1.396 . S
C169 C174 1.390 . S
C170 C164 1.465 . S
C170 C169 1.396 . S
C170 C171 1.399 . S
C171 H157 0.929 . S
C171 C170 1.399 . S
C171 C172 1.385 . S
C172 H158 0.931 . S
C172 C171 1.385 . S
C172 C173 1.389 . S
C173 C172 1.389 . S
C173 C174 1.387 . S
C174 H159 0.930 . S
C174 C169 1.390 . S
C174 C173 1.387 . S
H175 C187 0.930 . S
H176 C189 0.930 1_554 S
H177 C190 0.930 . S
H178 C194 0.959 . S
H179 C194 0.959 . S
H180 C194 0.961 . S
H181 C195 0.960 . S
H182 C195 0.961 . S
H183 C195 0.959 . S
H184 C198 0.929 . S
H185 C199 0.931 . S
H186 C201 0.930 . S
C187 H175 0.930 . S
C187 C188 1.399 . S
C187 C192 1.399 . S
C188 C187 1.399 . S
C188 C189 1.376 . S
C189 H176 0.930 1_556 S
C189 C188 1.376 . S
C189 C190 1.388 . S
C190 H177 0.930 . S
C190 C189 1.388 . S
C190 C191 1.390 . S
C191 C190 1.390 . S
C191 C192 1.394 . S
C191 C197 1.465 . S
C192 C187 1.399 . S
C192 C191 1.394 . S
C192 C193 1.516 . S
C193 C192 1.516 . S
C193 C194 1.502 . S
C193 C195 1.561 . S
C193 C196 1.526 . S
C194 H178 0.959 . S
C194 H179 0.959 . S
C194 H180 0.961 . S
C194 C193 1.502 . S
C195 H181 0.960 . S
C195 H182 0.961 . S
C195 H183 0.959 . S
C195 C193 1.561 . S
C196 C193 1.526 . S
C196 C197 1.396 . S
C196 C201 1.390 . S
C197 C191 1.465 . S
C197 C196 1.396 . S
C197 C198 1.399 . S
C198 H184 0.929 . S
C198 C197 1.399 . S
C198 C199 1.385 . S
C199 H185 0.931 . S
C199 C198 1.385 . S
C199 C200 1.389 . S
C200 C199 1.389 . S
C200 C201 1.387 . S
C201 H186 0.930 . S
C201 C196 1.390 . S
C201 C200 1.387 . S
H202 C214 0.930 . S
H203 C216 0.930 . S
H204 C217 0.930 . S
H205 C221 0.959 . S
H206 C221 0.959 . S
H207 C221 0.961 . S
H208 C222 0.960 . S
H209 C222 0.961 . S
H210 C222 0.959 . S
H211 C225 0.929 . S
H212 C226 0.931 1_455 S
H213 C228 0.930 . S
C214 H202 0.930 . S
C214 C215 1.399 . S
C214 C219 1.399 . S
C215 C214 1.399 . S
C215 C216 1.376 . S
C216 H203 0.930 . S
C216 C215 1.376 . S
C216 C217 1.388 . S
C217 H204 0.930 . S
C217 C216 1.388 . S
C217 C218 1.390 . S
C218 C217 1.390 . S
C218 C219 1.394 . S
C218 C224 1.465 . S
C219 C214 1.399 . S
C219 C218 1.394 . S
C219 C220 1.516 . S
C220 C219 1.516 . S
C220 C221 1.502 . S
C220 C222 1.561 . S
C220 C223 1.526 . S
C221 H205 0.959 . S
C221 H206 0.959 . S
C221 H207 0.961 . S
C221 C220 1.502 . S
C222 H208 0.960 . S
C222 H209 0.961 . S
C222 H210 0.959 . S
C222 C220 1.561 . S
C223 C220 1.526 . S
C223 C224 1.396 . S
C223 C228 1.390 . S
C224 C218 1.465 . S
C224 C223 1.396 . S
C224 C225 1.399 . S
C225 H211 0.929 . S
C225 C224 1.399 . S
C225 C226 1.385 . S
C226 H212 0.931 1_655 S
C226 C225 1.385 . S
C226 C227 1.389 . S
C227 C226 1.389 . S
C227 C228 1.387 . S
C228 H213 0.930 . S
C228 C223 1.390 . S
C228 C227 1.387 . S
H229 C241 0.930 . S
H230 C243 0.930 . S
H231 C244 0.930 . S
H232 C248 0.959 . S
H233 C248 0.959 . S
H234 C248 0.961 . S
H235 C249 0.960 . S
H236 C249 0.961 . S
H237 C249 0.959 . S
H238 C252 0.929 . S
H239 C253 0.931 . S
H240 C255 0.930 . S
C241 H229 0.930 . S
C241 C242 1.399 . S
C241 C246 1.399 . S
C242 C241 1.399 . S
C242 C243 1.376 . S
C243 H230 0.930 . S
C243 C242 1.376 . S
C243 C244 1.388 . S
C244 H231 0.930 . S
C244 C243 1.388 . S
C244 C245 1.390 . S
C245 C244 1.390 . S
C245 C246 1.394 . S
C245 C251 1.465 . S
C246 C241 1.399 . S
C246 C245 1.394 . S
C246 C247 1.516 . S
C247 C246 1.516 . S
C247 C248 1.502 . S
C247 C249 1.561 . S
C247 C250 1.526 . S
C248 H232 0.959 . S
C248 H233 0.959 . S
C248 H234 0.961 . S
C248 C247 1.502 . S
C249 H235 0.960 . S
C249 H236 0.961 . S
C249 H237 0.959 . S
C249 C247 1.561 . S
C250 C247 1.526 . S
C250 C251 1.396 . S
C250 C255 1.390 . S
C251 C245 1.465 . S
C251 C250 1.396 . S
C251 C252 1.399 . S
C252 H238 0.929 . S
C252 C251 1.399 . S
C252 C253 1.385 1_655 S
C253 H239 0.931 . S
C253 C252 1.385 1_455 S
C253 C254 1.389 1_455 S
C254 C253 1.389 1_655 S
C254 C255 1.387 . S
C255 H240 0.930 . S
C255 C250 1.390 . S
C255 C254 1.387 . S
H256 C268 0.930 . S
H257 C270 0.930 . S
H258 C271 0.930 . S
H259 C275 0.959 . S
H260 C275 0.959 . S
H261 C275 0.961 . S
H262 C276 0.960 . S
H263 C276 0.961 . S
H264 C276 0.959 . S
H265 C279 0.929 . S
H266 C280 0.931 . S
H267 C282 0.930 . S
C268 H256 0.930 . S
C268 C269 1.399 . S
C268 C273 1.399 . S
C269 C268 1.399 . S
C269 C270 1.376 . S
C270 H257 0.930 . S
C270 C269 1.376 . S
C270 C271 1.388 . S
C271 H258 0.930 . S
C271 C270 1.388 . S
C271 C272 1.390 . S
C272 C271 1.390 . S
C272 C273 1.394 . S
C272 C278 1.465 . S
C273 C268 1.399 . S
C273 C272 1.394 . S
C273 C274 1.516 . S
C274 C273 1.516 . S
C274 C275 1.502 . S
C274 C276 1.561 . S
C274 C277 1.526 . S
C275 H259 0.959 . S
C275 H260 0.959 . S
C275 H261 0.961 . S
C275 C274 1.502 . S
C276 H262 0.960 . S
C276 H263 0.961 . S
C276 H264 0.959 . S
C276 C274 1.561 . S
C277 C274 1.526 . S
C277 C278 1.396 . S
C277 C282 1.390 . S
C278 C272 1.465 . S
C278 C277 1.396 . S
C278 C279 1.399 . S
C279 H265 0.929 . S
C279 C278 1.399 . S
C279 C280 1.385 . S
C280 H266 0.931 . S
C280 C279 1.385 . S
C280 C281 1.389 . S
C281 C280 1.389 . S
C281 C282 1.387 . S
C282 H267 0.930 . S
C282 C277 1.390 . S
C282 C281 1.387 . S
H283 C295 0.930 . S
H284 C297 0.930 . S
H285 C298 0.930 . S
H286 C302 0.959 . S
H287 C302 0.959 . S
H288 C302 0.961 . S
H289 C303 0.960 . S
H290 C303 0.961 . S
H291 C303 0.959 . S
H292 C306 0.929 . S
H293 C307 0.931 . S
H294 C309 0.930 . S
C295 H283 0.930 . S
C295 C296 1.399 . S
C295 C300 1.399 . S
C296 C295 1.399 . S
C296 C297 1.376 . S
C297 H284 0.930 . S
C297 C296 1.376 . S
C297 C298 1.388 . S
C298 H285 0.930 . S
C298 C297 1.388 . S
C298 C299 1.390 . S
C299 C298 1.390 . S
C299 C300 1.394 . S
C299 C305 1.465 . S
C300 C295 1.399 . S
C300 C299 1.394 . S
C300 C301 1.516 . S
C301 C300 1.516 . S
C301 C302 1.502 . S
C301 C303 1.561 . S
C301 C304 1.526 . S
C302 H286 0.959 . S
C302 H287 0.959 . S
C302 H288 0.961 . S
C302 C301 1.502 . S
C303 H289 0.960 . S
C303 H290 0.961 . S
C303 H291 0.959 . S
C303 C301 1.561 . S
C304 C301 1.526 . S
C304 C305 1.396 . S
C304 C309 1.390 . S
C305 C299 1.465 . S
C305 C304 1.396 . S
C305 C306 1.399 . S
C306 H292 0.929 . S
C306 C305 1.399 . S
C306 C307 1.385 . S
C307 H293 0.931 . S
C307 C306 1.385 . S
C307 C308 1.389 . S
C308 C307 1.389 . S
C308 C309 1.387 . S
C309 H294 0.930 . S
C309 C304 1.390 . S
C309 C308 1.387 . S
H310 C322 0.930 . S
H311 C324 0.930 . S
H312 C325 0.930 . S
H313 C329 0.959 . S
H314 C329 0.959 . S
H315 C329 0.961 . S
H316 C330 0.960 . S
H317 C330 0.961 . S
H318 C330 0.959 . S
H319 C333 0.929 . S
H320 C334 0.931 . S
H321 C336 0.930 . S
C322 H310 0.930 . S
C322 C323 1.399 . S
C322 C327 1.399 . S
C323 C322 1.399 . S
C323 C324 1.376 1_565 S
C324 H311 0.930 . S
C324 C323 1.376 1_545 S
C324 C325 1.388 . S
C325 H312 0.930 . S
C325 C324 1.388 . S
C325 C326 1.390 . S
C326 C325 1.390 . S
C326 C327 1.394 1_545 S
C326 C332 1.465 . S
C327 C322 1.399 . S
C327 C326 1.394 1_565 S
C327 C328 1.516 . S
C328 C327 1.516 . S
C328 C329 1.502 1_455 S
C328 C330 1.561 . S
C328 C331 1.526 . S
C329 H313 0.959 . S
C329 H314 0.959 . S
C329 H315 0.961 . S
C329 C328 1.502 1_655 S
C330 H316 0.960 . S
C330 H317 0.961 . S
C330 H318 0.959 . S
C330 C328 1.561 . S
C331 C328 1.526 . S
C331 C332 1.396 1_565 S
C331 C336 1.390 . S
C332 C326 1.465 . S
C332 C331 1.396 1_545 S
C332 C333 1.399 . S
C333 H319 0.929 . S
C333 C332 1.399 . S
C333 C334 1.385 . S
C334 H320 0.931 . S
C334 C333 1.385 . S
C334 C335 1.389 . S
C335 C334 1.389 . S
C335 C336 1.387 1_545 S
C336 H321 0.930 . S
C336 C331 1.390 . S
C336 C335 1.387 1_565 S
H337 C349 0.930 1_655 S
H338 C351 0.930 . S
H339 C352 0.930 . S
H340 C356 0.959 1_565 S
H341 C356 0.959 . S
H342 C356 0.961 . S
H343 C357 0.960 . S
H344 C357 0.961 . S
H345 C357 0.959 1_455 S
H346 C360 0.929 . S
H347 C361 0.931 . S
H348 C363 0.930 . S
C349 H337 0.930 1_455 S
C349 C350 1.399 1_545 S
C349 C354 1.399 . S
C350 C349 1.399 1_565 S
C350 C351 1.376 . S
C351 H338 0.930 . S
C351 C350 1.376 . S
C351 C352 1.388 . S
C352 H339 0.930 . S
C352 C351 1.388 . S
C352 C353 1.390 . S
C353 C352 1.390 . S
C353 C354 1.394 1_565 S
C353 C359 1.465 1_565 S
C354 C349 1.399 . S
C354 C353 1.394 1_545 S
C354 C355 1.516 1_455 S
C355 C354 1.516 1_655 S
C355 C356 1.502 . S
C355 C357 1.561 . S
C355 C358 1.526 1_655 S
C356 H340 0.959 1_545 S
C356 H341 0.959 . S
C356 H342 0.961 . S
C356 C355 1.502 . S
C357 H343 0.960 . S
C357 H344 0.961 . S
C357 H345 0.959 1_655 S
C357 C355 1.561 . S
C358 C355 1.526 1_455 S
C358 C359 1.396 . S
C358 C363 1.390 1_455 S
C359 C353 1.465 1_545 S
C359 C358 1.396 . S
C359 C360 1.398 1_545 S
C360 H346 0.929 . S
C360 C359 1.398 1_565 S
C360 C361 1.385 . S
C361 H347 0.931 . S
C361 C360 1.385 . S
C361 C362 1.389 1_565 S
C362 C361 1.389 1_545 S
C362 C363 1.387 1_455 S
C363 H348 0.930 . S
C363 C358 1.390 1_655 S
C363 C362 1.387 1_655 S
H364 C376 0.930 . S
H365 C378 0.930 . S
H366 C379 0.930 . S
H367 C383 0.959 . S
H368 C383 0.959 . S
H369 C383 0.961 . S
H370 C384 0.960 . S
H371 C384 0.961 . S
H372 C384 0.959 . S
H373 C387 0.929 . S
H374 C388 0.931 . S
H375 C390 0.930 . S
C376 H364 0.930 . S
C376 C377 1.399 . S
C376 C381 1.399 . S
C377 C376 1.399 . S
C377 C378 1.376 . S
C378 H365 0.930 . S
C378 C377 1.376 . S
C378 C379 1.388 . S
C379 H366 0.930 . S
C379 C378 1.388 . S
C379 C380 1.390 . S
C380 C379 1.390 . S
C380 C381 1.394 . S
C380 C386 1.465 . S
C381 C376 1.399 . S
C381 C380 1.394 . S
C381 C382 1.516 . S
C382 C381 1.516 . S
C382 C383 1.502 . S
C382 C384 1.561 . S
C382 C385 1.526 . S
C383 H367 0.959 . S
C383 H368 0.959 . S
C383 H369 0.961 . S
C383 C382 1.502 . S
C384 H370 0.960 . S
C384 H371 0.961 . S
C384 H372 0.959 . S
C384 C382 1.561 . S
C385 C382 1.526 . S
C385 C386 1.396 . S
C385 C390 1.390 . S
C386 C380 1.465 . S
C386 C385 1.396 . S
C386 C387 1.399 . S
C387 H373 0.929 . S
C387 C386 1.399 . S
C387 C388 1.385 . S
C388 H374 0.931 . S
C388 C387 1.385 . S
C388 C389 1.389 . S
C389 C388 1.389 . S
C389 C390 1.387 . S
C390 H375 0.930 . S
C390 C385 1.390 . S
C390 C389 1.387 . S
H391 C403 0.930 . S
H392 C405 0.930 . S
H393 C406 0.930 . S
H394 C410 0.959 . S
H395 C410 0.959 . S
H396 C410 0.961 . S
H397 C411 0.960 . S
H398 C411 0.961 . S
H399 C411 0.959 . S
H400 C414 0.929 . S
H401 C415 0.931 . S
H402 C417 0.930 . S
C403 H391 0.930 . S
C403 C404 1.399 . S
C403 C408 1.399 . S
C404 C403 1.399 . S
C404 C405 1.376 . S
C405 H392 0.930 . S
C405 C404 1.376 . S
C405 C406 1.388 . S
C406 H393 0.930 . S
C406 C405 1.388 . S
C406 C407 1.390 . S
C407 C406 1.390 . S
C407 C408 1.394 . S
C407 C413 1.465 . S
C408 C403 1.399 . S
C408 C407 1.394 . S
C408 C409 1.516 . S
C409 C408 1.516 . S
C409 C410 1.502 . S
C409 C411 1.561 . S
C409 C412 1.526 . S
C410 H394 0.959 . S
C410 H395 0.959 . S
C410 H396 0.961 . S
C410 C409 1.502 . S
C411 H397 0.960 . S
C411 H398 0.961 . S
C411 H399 0.959 . S
C411 C409 1.561 . S
C412 C409 1.526 . S
C412 C413 1.396 . S
C412 C417 1.390 . S
C413 C407 1.465 . S
C413 C412 1.396 . S
C413 C414 1.399 . S
C414 H400 0.929 . S
C414 C413 1.399 . S
C414 C415 1.385 . S
C415 H401 0.931 . S
C415 C414 1.385 . S
C415 C416 1.389 . S
C416 C415 1.389 . S
C416 C417 1.387 . S
C417 H402 0.930 . S
C417 C412 1.390 . S
C417 C416 1.387 . S
C119 N83 1.257 . S
C107 C3 1.120 . S
C134 C4 1.394 1_556 S
C146 N70 1.517 . S
C161 C19 1.578 . S
C173 N82 1.655 . S
C188 C7 1.262 . S
C200 N69 1.343 . S
C215 C37 1.042 . S
C227 N57 1.236 . S
C242 C28 1.435 . S
C254 N44 1.503 1_655 S
C281 N56 1.654 . S
C269 C41 1.578 . S
C308 N43 1.347 . S
C296 C25 1.217 . S
C323 C20 1.285 . S
C335 N47 1.521 . S
C350 C16 1.425 . S
C362 N60 1.482 . S
C389 N73 1.521 . S
C377 C40 1.285 . S
C404 C24 1.427 . S
C416 N86 1.472 . S
