# Generated by pormake.
# Topology pyr, (3,6)-cn, num edge types: 1
# Building blocks:
#     Node 0, Type 0, BuildingBlock: VETTIZ_charged_linker_0, # of connection points: 3
#     Node 1, Type 0, BuildingBlock: VETTIZ_charged_linker_0, # of connection points: 3
#     Node 2, Type 0, BuildingBlock: VETTIZ_charged_linker_0, # of connection points: 3
#     Node 3, Type 0, BuildingBlock: VETTIZ_charged_linker_0, # of connection points: 3
#     Node 4, Type 0, BuildingBlock: VETTIZ_charged_linker_0, # of connection points: 3
#     Node 5, Type 0, BuildingBlock: VETTIZ_charged_linker_0, # of connection points: 3
#     Node 6, Type 0, BuildingBlock: VETTIZ_charged_linker_0, # of connection points: 3
#     Node 7, Type 0, BuildingBlock: VETTIZ_charged_linker_0, # of connection points: 3
#     Node 8, Type 1, BuildingBlock: FUNLAD_clean_sbu_0, # of connection points: 6
#     Node 9, Type 1, BuildingBlock: FUNLAD_clean_sbu_0, # of connection points: 6
#     Node 10, Type 1, BuildingBlock: FUNLAD_clean_sbu_0, # of connection points: 6
#     Node 11, Type 1, BuildingBlock: FUNLAD_clean_sbu_0, # of connection points: 6
#     Edge 12, Type (0, 1), BuildingBlock: MIFKUJ_clean_linker_0, # of connection points: 2
#     Edge 13, Type (0, 1), BuildingBlock: MIFKUJ_clean_linker_0, # of connection points: 2
#     Edge 14, Type (0, 1), BuildingBlock: MIFKUJ_clean_linker_0, # of connection points: 2
#     Edge 15, Type (0, 1), BuildingBlock: MIFKUJ_clean_linker_0, # of connection points: 2
#     Edge 16, Type (0, 1), BuildingBlock: MIFKUJ_clean_linker_0, # of connection points: 2
#     Edge 17, Type (0, 1), BuildingBlock: MIFKUJ_clean_linker_0, # of connection points: 2
#     Edge 18, Type (0, 1), BuildingBlock: MIFKUJ_clean_linker_0, # of connection points: 2
#     Edge 19, Type (0, 1), BuildingBlock: MIFKUJ_clean_linker_0, # of connection points: 2
#     Edge 20, Type (0, 1), BuildingBlock: MIFKUJ_clean_linker_0, # of connection points: 2
#     Edge 21, Type (0, 1), BuildingBlock: MIFKUJ_clean_linker_0, # of connection points: 2
#     Edge 22, Type (0, 1), BuildingBlock: MIFKUJ_clean_linker_0, # of connection points: 2
#     Edge 23, Type (0, 1), BuildingBlock: MIFKUJ_clean_linker_0, # of connection points: 2
#     Edge 24, Type (0, 1), BuildingBlock: MIFKUJ_clean_linker_0, # of connection points: 2
#     Edge 25, Type (0, 1), BuildingBlock: MIFKUJ_clean_linker_0, # of connection points: 2
#     Edge 26, Type (0, 1), BuildingBlock: MIFKUJ_clean_linker_0, # of connection points: 2
#     Edge 27, Type (0, 1), BuildingBlock: MIFKUJ_clean_linker_0, # of connection points: 2
#     Edge 28, Type (0, 1), BuildingBlock: MIFKUJ_clean_linker_0, # of connection points: 2
#     Edge 29, Type (0, 1), BuildingBlock: MIFKUJ_clean_linker_0, # of connection points: 2
#     Edge 30, Type (0, 1), BuildingBlock: MIFKUJ_clean_linker_0, # of connection points: 2
#     Edge 31, Type (0, 1), BuildingBlock: MIFKUJ_clean_linker_0, # of connection points: 2
#     Edge 32, Type (0, 1), BuildingBlock: MIFKUJ_clean_linker_0, # of connection points: 2
#     Edge 33, Type (0, 1), BuildingBlock: MIFKUJ_clean_linker_0, # of connection points: 2
#     Edge 34, Type (0, 1), BuildingBlock: MIFKUJ_clean_linker_0, # of connection points: 2
#     Edge 35, Type (0, 1), BuildingBlock: MIFKUJ_clean_linker_0, # of connection points: 2
# Relax obj value: 0.038
# Max RMSD: 0.056
# Mean RMSD: 0.023
data_MOF--net-pry--node1-FUNLAD_clean_sbu_0--node2-VETTIZ_charged_linker_0--edge1-MIFKUJ_clean_linker_0
_symmetry_space_group_name_H-M    P1
_symmetry_Int_Tables_number       1
_symmetry_cell_setting            triclinic
loop_
_symmetry_equiv_pos_as_xyz
'x, y, z'
_cell_length_a     54.724682
_cell_length_b     57.306088
_cell_length_c     57.779859
_cell_angle_alpha  90.163915
_cell_angle_beta   90.123463
_cell_angle_gamma 86.588903
loop_
_atom_site_label
_atom_site_type_symbol
_atom_site_fract_x
_atom_site_fract_y
_atom_site_fract_z
_atom_type_partial_charge
C0 C 0.13268 0.12224 0.24399 0.0
C1 C 0.11209 0.1311 0.25657 0.0
C2 C 0.09975 0.152 0.24878 0.0
C3 C 0.12825 0.15464 0.2167 0.0
C4 C 0.14039 0.13421 0.22431 0.0
C5 C 0.16212 0.12718 0.20934 0.0
H6 H 0.23283 0.14717 0.11592 0.0
C7 C 0.14102 0.16271 0.19568 0.0
C8 C 0.16094 0.14655 0.19137 0.0
H9 H 0.24232 0.09123 0.16588 0.0
H10 H 0.20647 0.10631 0.18642 0.0
H11 H 0.22126 0.18729 0.15342 0.0
H12 H 0.17498 0.14639 0.11135 0.0
H13 H 0.16141 0.17492 0.11182 0.0
H14 H 0.19166 0.16972 0.09978 0.0
H15 H 0.21708 0.19238 0.123 0.0
H16 H 0.19687 0.20628 0.14422 0.0
C17 C 0.18552 0.12759 0.22444 0.0
C18 C 0.15776 0.10307 0.1984 0.0
C19 C 0.11078 0.2376 0.15317 0.0
C20 C 0.11941 0.24906 0.13341 0.0
C21 C 0.13987 0.2387 0.12163 0.0
C22 C 0.15174 0.21783 0.12939 0.0
C23 C 0.14324 0.20683 0.14926 0.0
C24 C 0.123 0.21659 0.16079 0.0
C25 C 0.11673 0.20215 0.18161 0.0
C26 C 0.1366 0.1823 0.18065 0.0
C27 C 0.15206 0.18525 0.16159 0.0
C28 C 0.11902 0.21741 0.20354 0.0
C29 C 0.09091 0.1932 0.17779 0.0
C30 C 0.22742 0.13821 0.13139 0.0
C31 C 0.24064 0.1178 0.13906 0.0
C32 C 0.23243 0.1067 0.15918 0.0
C33 C 0.21162 0.11561 0.17127 0.0
C34 C 0.19868 0.136 0.16335 0.0
C35 C 0.20673 0.14695 0.14375 0.0
C36 C 0.191 0.16862 0.138 0.0
C37 C 0.17215 0.16888 0.15732 0.0
C38 C 0.17664 0.14969 0.17212 0.0
C39 C 0.20725 0.18984 0.13952 0.0
C40 C 0.17919 0.16498 0.11394 0.0
H41 H 0.09739 0.17947 0.22406 0.0
H42 H 0.14291 0.10647 0.24952 0.0
H43 H 0.13823 0.10202 0.19331 0.0
H44 H 0.16823 0.0997 0.18231 0.0
H45 H 0.16233 0.0887 0.21082 0.0
H46 H 0.18377 0.14184 0.23756 0.0
H47 H 0.18897 0.11084 0.23385 0.0
H48 H 0.20197 0.13129 0.21436 0.0
H49 H 0.09518 0.245 0.16274 0.0
H50 H 0.14668 0.24665 0.10612 0.0
H51 H 0.16718 0.21108 0.11953 0.0
H52 H 0.13521 0.2282 0.20228 0.0
H53 H 0.10255 0.22948 0.20582 0.0
H54 H 0.12197 0.207 0.21944 0.0
H55 H 0.08844 0.18784 0.15945 0.0
H56 H 0.08765 0.1775 0.18808 0.0
H57 H 0.07647 0.20704 0.18186 0.0
H58 H 0.08369 0.15919 0.25782 0.0
C59 C 0.10765 0.16373 0.22901 0.0
C60 C 0.28283 0.878 0.63017 0.0
C61 C 0.26879 0.89734 0.63905 0.0
C62 C 0.27609 0.90739 0.6601 0.0
C63 C 0.31069 0.87889 0.66303 0.0
C64 C 0.30344 0.869 0.64246 0.0
C65 C 0.31964 0.84793 0.63583 0.0
H66 H 0.41083 0.76763 0.66244 0.0
C67 C 0.33259 0.86496 0.67165 0.0
C68 C 0.33776 0.84668 0.65585 0.0
H69 H 0.36649 0.77324 0.60022 0.0
H70 H 0.34622 0.80833 0.61455 0.0
H71 H 0.4215 0.82367 0.66147 0.0
H72 H 0.36936 0.78575 0.70016 0.0
H73 H 0.38398 0.80499 0.71882 0.0
H74 H 0.40183 0.78172 0.70469 0.0
H75 H 0.43077 0.80465 0.68493 0.0
H76 H 0.42022 0.83467 0.68987 0.0
C77 C 0.33223 0.85314 0.61251 0.0
C78 C 0.30363 0.82652 0.63526 0.0
C79 C 0.37501 0.88955 0.74564 0.0
C80 C 0.39522 0.88009 0.75837 0.0
C81 C 0.40712 0.85898 0.75052 0.0
C82 C 0.39928 0.84773 0.73037 0.0
C83 C 0.37925 0.85759 0.71773 0.0
C84 C 0.36738 0.87809 0.72557 0.0
C85 C 0.34602 0.88578 0.71038 0.0
C86 C 0.34751 0.86704 0.69168 0.0
C87 C 0.36701 0.85045 0.69603 0.0
C88 C 0.35071 0.9102 0.70052 0.0
C89 C 0.32226 0.885 0.72487 0.0
C90 C 0.39684 0.77639 0.6518 0.0
C91 C 0.38986 0.76673 0.63034 0.0
C92 C 0.37169 0.77927 0.61719 0.0
C93 C 0.35999 0.80001 0.62544 0.0
C94 C 0.36655 0.80892 0.64707 0.0
C95 C 0.38514 0.79756 0.65965 0.0
C96 C 0.39077 0.8109 0.68146 0.0
C97 C 0.37182 0.83152 0.68022 0.0
C98 C 0.35753 0.82998 0.66009 0.0
C99 C 0.41723 0.81884 0.67959 0.0
C100 C 0.38645 0.79508 0.70251 0.0
H101 H 0.30157 0.90689 0.68789 0.0
H102 H 0.27757 0.86966 0.61422 0.0
H103 H 0.2906 0.82714 0.65004 0.0
H104 H 0.31427 0.80967 0.63703 0.0
H105 H 0.29271 0.82619 0.61904 0.0
H106 H 0.33414 0.87221 0.61017 0.0
H107 H 0.32154 0.84693 0.59759 0.0
H108 H 0.35119 0.84534 0.61153 0.0
H109 H 0.36508 0.90544 0.75132 0.0
H110 H 0.42281 0.85129 0.7598 0.0
H111 H 0.40915 0.83178 0.72537 0.0
H112 H 0.37013 0.91095 0.69505 0.0
H113 H 0.34696 0.92406 0.71374 0.0
H114 H 0.33973 0.91461 0.68494 0.0
H115 H 0.32408 0.87121 0.73839 0.0
H116 H 0.30633 0.88035 0.7144 0.0
H117 H 0.31788 0.90194 0.73376 0.0
H118 H 0.26573 0.92241 0.66725 0.0
C119 C 0.29696 0.89837 0.67205 0.0
C120 C 0.58996 0.35292 0.96713 0.0
C121 C 0.56794 0.34437 0.95899 0.0
C122 C 0.55307 0.35828 0.94386 0.0
C123 C 0.58405 0.38663 0.94206 0.0
C124 C 0.59762 0.37409 0.9585 0.0
C125 C 0.62133 0.385 0.96397 0.0
H126 H 0.70612 0.45994 0.93301 0.0
C127 C 0.59871 0.40573 0.93387 0.0
C128 C 0.62041 0.40517 0.94691 0.0
H129 H 0.70808 0.41312 0.9916 0.0
H130 H 0.66709 0.40221 0.98264 0.0
H131 H 0.64906 0.48039 0.94082 0.0
H132 H 0.68418 0.42667 0.89839 0.0
H133 H 0.65939 0.43829 0.88204 0.0
H134 H 0.68346 0.45688 0.8903 0.0
H135 H 0.66831 0.48622 0.91664 0.0
H136 H 0.636 0.4827 0.91298 0.0
C137 C 0.62041 0.39366 0.98942 0.0
C138 C 0.64268 0.36679 0.95871 0.0
C139 C 0.57377 0.44747 0.85951 0.0
C140 C 0.58649 0.46155 0.84432 0.0
C141 C 0.60882 0.4702 0.85178 0.0
C142 C 0.61887 0.46388 0.87335 0.0
C143 C 0.60677 0.44838 0.8875 0.0
C144 C 0.58441 0.44076 0.88067 0.0
C145 C 0.57514 0.42283 0.89688 0.0
C146 C 0.59567 0.42097 0.91462 0.0
C147 C 0.6141 0.43598 0.90902 0.0
C148 C 0.55082 0.43287 0.90765 0.0
C149 C 0.573 0.39982 0.88295 0.0
C150 C 0.69771 0.44732 0.94389 0.0
C151 C 0.71037 0.43719 0.96288 0.0
C152 C 0.69864 0.42119 0.97691 0.0
C153 C 0.67492 0.4148 0.97162 0.0
C154 C 0.66285 0.42446 0.95207 0.0
C155 C 0.67405 0.44084 0.93892 0.0
C156 C 0.65837 0.44955 0.91901 0.0
C157 C 0.63579 0.43586 0.92253 0.0
C158 C 0.6387 0.42088 0.94164 0.0
C159 C 0.65266 0.47615 0.92229 0.0
C160 C 0.67194 0.44273 0.89618 0.0
H161 H 0.54927 0.38882 0.92333 0.0
H162 H 0.60145 0.34283 0.97921 0.0
H163 H 0.63975 0.35813 0.94176 0.0
H164 H 0.66058 0.37451 0.95742 0.0
H165 H 0.64406 0.35301 0.97221 0.0
H166 H 0.60125 0.39745 0.99534 0.0
H167 H 0.62905 0.38037 1.00131 0.0
H168 H 0.6293 0.41037 0.99172 0.0
H169 H 0.55637 0.44082 0.85465 0.0
H170 H 0.61927 0.48089 0.84051 0.0
H171 H 0.6362 0.47054 0.87771 0.0
H172 H 0.55087 0.45217 0.90978 0.0
H173 H 0.53492 0.42913 0.89654 0.0
H174 H 0.54781 0.42617 0.92528 0.0
H175 H 0.58819 0.39733 0.87024 0.0
H176 H 0.5745 0.38396 0.89368 0.0
H177 H 0.55551 0.40007 0.87313 0.0
H178 H 0.53601 0.35213 0.93737 0.0
C179 C 0.56094 0.37944 0.93549 0.0
C180 C 0.93221 0.65939 0.45209 0.0
C181 C 0.91963 0.67343 0.46865 0.0
C182 C 0.89868 0.66518 0.4793 0.0
C183 C 0.90194 0.63033 0.45535 0.0
C184 C 0.92299 0.63812 0.44558 0.0
C185 C 0.93259 0.62259 0.42627 0.0
H186 H 0.91367 0.53578 0.35084 0.0
C187 C 0.89592 0.60876 0.44303 0.0
C188 C 0.91387 0.60413 0.42604 0.0
H189 H 0.97137 0.58427 0.35099 0.0
H190 H 0.95783 0.5992 0.38796 0.0
H191 H 0.91658 0.52317 0.40614 0.0
H192 H 0.87229 0.57256 0.3658 0.0
H193 H 0.85293 0.55936 0.38541 0.0
H194 H 0.86937 0.54155 0.36427 0.0
H195 H 0.8912 0.51446 0.38913 0.0
H196 H 0.88728 0.52465 0.4186 0.0
C197 C 0.95829 0.61218 0.43332 0.0
C198 C 0.93204 0.63721 0.40364 0.0
C199 C 0.8162 0.57128 0.46024 0.0
C200 C 0.80467 0.5525 0.4501 0.0
C201 C 0.81728 0.53878 0.43315 0.0
C202 C 0.84061 0.54425 0.42577 0.0
C203 C 0.85134 0.56383 0.43519 0.0
C204 C 0.83944 0.57662 0.45255 0.0
C205 C 0.85355 0.59696 0.46038 0.0
C206 C 0.87582 0.59432 0.44477 0.0
C207 C 0.87424 0.57507 0.42985 0.0
C208 C 0.86047 0.59326 0.48617 0.0
C209 C 0.83774 0.61977 0.4554 0.0
C210 C 0.92347 0.54954 0.3589 0.0
C211 C 0.94346 0.559 0.34774 0.0
C212 C 0.95603 0.57649 0.35915 0.0
C213 C 0.94794 0.58539 0.38056 0.0
C214 C 0.92682 0.57701 0.39057 0.0
C215 C 0.91536 0.55891 0.38012 0.0
C216 C 0.89277 0.55271 0.39296 0.0
C217 C 0.8922 0.57057 0.41246 0.0
C218 C 0.91209 0.58483 0.41083 0.0
C219 C 0.89692 0.52739 0.40211 0.0
C220 C 0.87058 0.55654 0.37637 0.0
H221 H 0.8736 0.63845 0.48127 0.0
H222 H 0.94807 0.6655 0.44326 0.0
H223 H 0.91718 0.65134 0.40406 0.0
H224 H 0.92795 0.62691 0.38808 0.0
H225 H 0.94958 0.64563 0.401 0.0
H226 H 0.95895 0.60804 0.45213 0.0
H227 H 0.97256 0.62472 0.42984 0.0
H228 H 0.96334 0.59544 0.42453 0.0
H229 H 0.8069 0.58228 0.47315 0.0
H230 H 0.80892 0.524 0.42536 0.0
H231 H 0.8491 0.53339 0.41256 0.0
H232 H 0.86517 0.57446 0.48977 0.0
H233 H 0.84501 0.59904 0.49766 0.0
H234 H 0.87689 0.60235 0.49128 0.0
H235 H 0.82668 0.61802 0.43937 0.0
H236 H 0.84873 0.63495 0.45213 0.0
H237 H 0.82485 0.62406 0.46983 0.0
H238 H 0.88879 0.67572 0.4922 0.0
C239 C 0.88989 0.6436 0.47288 0.0
C240 C 0.88302 0.77703 0.88017 0.0
C241 C 0.90418 0.76424 0.87226 0.0
C242 C 0.91599 0.77241 0.85236 0.0
C243 C 0.88563 0.80507 0.84873 0.0
C244 C 0.87418 0.79717 0.86828 0.0
C245 C 0.85193 0.8125 0.87467 0.0
H246 H 0.77272 0.90498 0.85206 0.0
C247 C 0.87137 0.82637 0.84031 0.0
C248 C 0.85158 0.83068 0.85556 0.0
H249 H 0.77312 0.85748 0.9102 0.0
H250 H 0.80907 0.83668 0.89532 0.0
H251 H 0.78612 0.86708 0.81358 0.0
H252 H 0.83262 0.91064 0.85286 0.0
H253 H 0.84159 0.91122 0.82364 0.0
H254 H 0.81116 0.92197 0.83155 0.0
H255 H 0.78819 0.89752 0.80716 0.0
H256 H 0.80925 0.87541 0.79486 0.0
C257 C 0.82933 0.79748 0.87342 0.0
C258 C 0.85648 0.8234 0.8988 0.0
C259 C 0.89765 0.86948 0.76768 0.0
C260 C 0.88677 0.88842 0.75503 0.0
C261 C 0.86444 0.89906 0.76296 0.0
C262 C 0.85326 0.8913 0.78316 0.0
C263 C 0.86426 0.87241 0.79563 0.0
C264 C 0.88594 0.86159 0.78769 0.0
C265 C 0.89407 0.84083 0.80249 0.0
C266 C 0.87412 0.84141 0.82091 0.0
C267 C 0.85679 0.86014 0.81687 0.0
C268 C 0.89386 0.81857 0.78728 0.0
C269 C 0.91938 0.84531 0.81299 0.0
C270 C 0.78065 0.89024 0.86173 0.0
C271 C 0.76959 0.88285 0.88232 0.0
C272 C 0.78066 0.86338 0.89407 0.0
C273 C 0.8018 0.85135 0.88548 0.0
C274 C 0.81243 0.85877 0.86486 0.0
C275 C 0.80199 0.87803 0.85341 0.0
C276 C 0.81616 0.88351 0.8319 0.0
C277 C 0.83681 0.86444 0.83244 0.0
C278 C 0.83439 0.84992 0.85174 0.0
C279 C 0.79915 0.88096 0.81067 0.0
C280 C 0.82585 0.90817 0.83489 0.0
H281 H 0.91684 0.79792 0.82573 0.0
H282 H 0.87318 0.77132 0.89517 0.0
H283 H 0.87631 0.82569 0.90173 0.0
H284 H 0.84771 0.84118 0.9007 0.0
H285 H 0.8501 0.81213 0.9129 0.0
H286 H 0.83075 0.78532 0.85836 0.0
H287 H 0.82781 0.78677 0.88928 0.0
H288 H 0.81197 0.80795 0.87079 0.0
H289 H 0.9146 0.8607 0.76182 0.0
H290 H 0.85572 0.91365 0.75359 0.0
H291 H 0.83636 0.9003 0.78824 0.0
H292 H 0.87817 0.81973 0.77497 0.0
H293 H 0.91093 0.81615 0.77697 0.0
H294 H 0.89139 0.80259 0.79741 0.0
H295 H 0.91985 0.86373 0.81904 0.0
H296 H 0.9238 0.83445 0.82834 0.0
H297 H 0.93412 0.8422 0.79996 0.0
H298 H 0.93252 0.76329 0.84595 0.0
C299 C 0.9069 0.79266 0.84064 0.0
C300 C 0.72714 0.14077 0.38237 0.0
C301 C 0.74021 0.12022 0.3748 0.0
C302 C 0.73203 0.10909 0.35458 0.0
C303 C 0.6986 0.13863 0.35016 0.0
C304 C 0.70665 0.14964 0.36981 0.0
C305 C 0.69125 0.17158 0.37531 0.0
H306 H 0.59381 0.24642 0.35175 0.0
C307 C 0.67679 0.15244 0.34119 0.0
C308 C 0.67248 0.17182 0.35585 0.0
H309 H 0.64833 0.25134 0.40546 0.0
H310 H 0.66905 0.21555 0.3922 0.0
H311 H 0.58926 0.1884 0.354 0.0
H312 H 0.633 0.23194 0.31189 0.0
H313 H 0.62253 0.20951 0.29436 0.0
H314 H 0.60068 0.23046 0.30729 0.0
H315 H 0.57615 0.20865 0.33308 0.0
H316 H 0.58743 0.1797 0.32476 0.0
C317 C 0.67928 0.16839 0.39928 0.0
C318 C 0.70779 0.19261 0.37381 0.0
C319 C 0.63288 0.12478 0.26919 0.0
C320 C 0.61258 0.13382 0.25625 0.0
C321 C 0.60029 0.15481 0.26402 0.0
C322 C 0.60796 0.1664 0.28404 0.0
C323 C 0.62835 0.15716 0.29657 0.0
C324 C 0.64046 0.1367 0.289 0.0
C325 C 0.6621 0.12962 0.30409 0.0
C326 C 0.66102 0.14915 0.32197 0.0
C327 C 0.64111 0.16527 0.31762 0.0
C328 C 0.65752 0.10565 0.31508 0.0
C329 C 0.68555 0.12972 0.28909 0.0
C330 C 0.61011 0.23956 0.36068 0.0
C331 C 0.61942 0.25162 0.37978 0.0
C332 C 0.64089 0.24241 0.39071 0.0
C333 C 0.65288 0.22158 0.38297 0.0
C334 C 0.64358 0.20974 0.36384 0.0
C335 C 0.62266 0.21882 0.35284 0.0
C336 C 0.6164 0.20433 0.33198 0.0
C337 C 0.6367 0.18491 0.33263 0.0
C338 C 0.65242 0.18818 0.3515 0.0
C339 C 0.5909 0.19479 0.33594 0.0
C340 C 0.61801 0.21976 0.31014 0.0
H341 H 0.70622 0.10875 0.32714 0.0
H342 H 0.73254 0.14978 0.39788 0.0
H343 H 0.72315 0.18905 0.36146 0.0
H344 H 0.69796 0.20859 0.36705 0.0
H345 H 0.71592 0.19652 0.39092 0.0
H346 H 0.67314 0.15032 0.40114 0.0
H347 H 0.69246 0.17136 0.41348 0.0
H348 H 0.66267 0.17994 0.40197 0.0
H349 H 0.64271 0.1086 0.26418 0.0
H350 H 0.5849 0.1626 0.25441 0.0
H351 H 0.5978 0.18223 0.28891 0.0
H352 H 0.63796 0.1048 0.32005 0.0
H353 H 0.66201 0.09114 0.30274 0.0
H354 H 0.66791 0.10236 0.33124 0.0
H355 H 0.68386 0.14372 0.27577 0.0
H356 H 0.70198 0.13362 0.2992 0.0
H357 H 0.68902 0.11279 0.27992 0.0
H358 H 0.74184 0.09354 0.34793 0.0
C359 C 0.71137 0.11809 0.34234 0.0
C360 C 0.43421 0.5701 0.15379 0.0
C361 C 0.42218 0.55396 0.16722 0.0
C362 C 0.40223 0.54283 0.15765 0.0
C363 C 0.40443 0.5665 0.12307 0.0
C364 C 0.42503 0.57615 0.13191 0.0
C365 C 0.43436 0.59466 0.11646 0.0
H366 H 0.41162 0.67227 0.03124 0.0
C367 C 0.39774 0.57887 0.10135 0.0
C368 C 0.41538 0.59519 0.09726 0.0
H369 H 0.47491 0.66489 0.07617 0.0
H370 H 0.46099 0.62879 0.09099 0.0
H371 H 0.37313 0.65957 0.06749 0.0
H372 H 0.41212 0.616 0.01741 0.0
H373 H 0.38215 0.60666 0.01854 0.0
H374 H 0.38717 0.63613 0.00944 0.0
H375 H 0.36673 0.6612 0.03704 0.0
H376 H 0.35212 0.64097 0.05549 0.0
C377 C 0.43365 0.61789 0.13036 0.0
C378 C 0.46014 0.5862 0.10764 0.0
C379 C 0.31604 0.5659 0.06305 0.0
C380 C 0.30297 0.5777 0.04523 0.0
C381 C 0.31402 0.5954 0.03291 0.0
C382 C 0.33766 0.60164 0.03859 0.0
C383 C 0.35017 0.59036 0.05708 0.0
C384 C 0.33946 0.57263 0.0688 0.0
C385 C 0.35485 0.56353 0.08878 0.0
C386 C 0.37677 0.57843 0.08686 0.0
C387 C 0.37384 0.59418 0.06834 0.0
C388 C 0.34012 0.56853 0.11136 0.0
C389 C 0.362 0.53736 0.08437 0.0
C390 C 0.42255 0.66273 0.04414 0.0
C391 C 0.4442 0.67158 0.05279 0.0
C392 C 0.45821 0.65843 0.06918 0.0
C393 C 0.44996 0.63759 0.07798 0.0
C394 C 0.42732 0.62997 0.07054 0.0
C395 C 0.41453 0.64189 0.05319 0.0
C396 C 0.3911 0.6308 0.04713 0.0
C397 C 0.39166 0.61069 0.06424 0.0
C398 C 0.41266 0.61067 0.0782 0.0
C399 C 0.36952 0.64898 0.05182 0.0
C400 C 0.39297 0.62202 0.02178 0.0
H401 H 0.37759 0.54046 0.12945 0.0
H402 H 0.4499 0.57856 0.1606 0.0
H403 H 0.46274 0.56679 0.10782 0.0
H404 H 0.46311 0.59109 0.08937 0.0
H405 H 0.47478 0.59315 0.11856 0.0
H406 H 0.41629 0.6203 0.14032 0.0
H407 H 0.44907 0.61797 0.14289 0.0
H408 H 0.43424 0.63356 0.11945 0.0
H409 H 0.30775 0.55247 0.073 0.0
H410 H 0.30421 0.60459 0.01905 0.0
H411 H 0.345 0.61543 0.02875 0.0
H412 H 0.32853 0.5851 0.10998 0.0
H413 H 0.32782 0.55428 0.11509 0.0
H414 H 0.35182 0.57116 0.1266 0.0
H415 H 0.36587 0.53411 0.0657 0.0
H416 H 0.37895 0.53127 0.09348 0.0
H417 H 0.34697 0.52623 0.08946 0.0
H418 H 0.39274 0.53027 0.1677 0.0
C419 C 0.39334 0.54895 0.13556 0.0
C420 C 0.0758 0.3538 0.5765 0.0
C421 C 0.0873 0.33735 0.56142 0.0
C422 C 0.10854 0.34323 0.54952 0.0
C423 C 0.10774 0.3805 0.56955 0.0
C424 C 0.08633 0.37508 0.58037 0.0
C425 C 0.07749 0.39345 0.59745 0.0
H426 H 0.1022 0.48624 0.66272 0.0
C427 C 0.11488 0.40314 0.57891 0.0
C428 C 0.0971 0.4109 0.59509 0.0
H429 H 0.04132 0.44162 0.66753 0.0
H430 H 0.05314 0.42306 0.63176 0.0
H431 H 0.09856 0.4946 0.60724 0.0
H432 H 0.14217 0.44589 0.64899 0.0
H433 H 0.16115 0.45922 0.62891 0.0
H434 H 0.14452 0.47703 0.6497 0.0
H435 H 0.12658 0.50259 0.62041 0.0
H436 H 0.12616 0.48886 0.5922 0.0
C437 C 0.05217 0.40386 0.58922 0.0
C438 C 0.0775 0.38197 0.62179 0.0
C439 C 0.19728 0.43329 0.55792 0.0
C440 C 0.20911 0.45337 0.56441 0.0
C441 C 0.19665 0.47044 0.57829 0.0
C442 C 0.17306 0.467 0.5865 0.0
C443 C 0.16191 0.44628 0.5808 0.0
C444 C 0.17364 0.43024 0.56607 0.0
C445 C 0.1584 0.40988 0.56088 0.0
C446 C 0.13584 0.4161 0.57538 0.0
C447 C 0.13828 0.43717 0.58743 0.0
C448 C 0.15248 0.40992 0.53463 0.0
C449 C 0.17259 0.38738 0.56958 0.0
C450 C 0.09134 0.47257 0.65595 0.0
C451 C 0.07102 0.46521 0.66828 0.0
C452 C 0.05697 0.44783 0.65849 0.0
C453 C 0.06408 0.43675 0.63779 0.0
C454 C 0.08571 0.44275 0.6269 0.0
C455 C 0.09846 0.461 0.63544 0.0
C456 C 0.12118 0.46469 0.62157 0.0
C457 C 0.12051 0.44483 0.6041 0.0
C458 C 0.09981 0.43195 0.60754 0.0
C459 C 0.11819 0.48897 0.60981 0.0
C460 C 0.14354 0.46168 0.63802 0.0
H461 H 0.13525 0.36802 0.5443 0.0
H462 H 0.05926 0.34997 0.58564 0.0
H463 H 0.09216 0.36773 0.62327 0.0
H464 H 0.08154 0.39413 0.63594 0.0
H465 H 0.05978 0.37421 0.62537 0.0
H466 H 0.05126 0.40463 0.56999 0.0
H467 H 0.03721 0.39307 0.59518 0.0
H468 H 0.04834 0.42212 0.59498 0.0
H469 H 0.20634 0.42015 0.54687 0.0
H470 H 0.20549 0.48608 0.58339 0.0
H471 H 0.16464 0.48033 0.59741 0.0
H472 H 0.1512 0.42802 0.52763 0.0
H473 H 0.1669 0.39979 0.52472 0.0
H474 H 0.13449 0.403 0.53075 0.0
H475 H 0.18148 0.39055 0.58655 0.0
H476 H 0.16077 0.37279 0.57266 0.0
H477 H 0.18719 0.38149 0.55718 0.0
H478 H 0.11781 0.33082 0.53785 0.0
C479 C 0.11876 0.36476 0.55344 0.0
C480 C 0.02427 0.02029 0.46425 0.0
N481 N 0.01384 0.05416 0.52789 0.0
C482 C 0.03576 0.06269 0.52242 0.0
C483 C 0.04041 0.0857 0.52769 0.0
C484 C 0.0224 0.10004 0.53882 0.0
C485 C 1.00046 0.0905 0.54548 0.0
C486 C 0.99646 0.06733 0.53967 0.0
Zn487 Zn 0.00682 0.02242 0.51452 0.0
C488 C 0.95849 0.0238 0.49007 0.0
N489 N 0.99369 0.95714 0.48359 0.0
C490 C 0.01142 0.94353 0.47277 0.0
C491 C 0.97121 0.94919 0.48776 0.0
C492 C 0.96614 0.92641 0.48192 0.0
C493 C 0.98434 0.91158 0.47154 0.0
C494 C 0.00709 0.92056 0.46651 0.0
Zn495 Zn 1.00082 0.98882 0.49715 0.0
O496 O 0.02145 0.03319 0.4821 0.0
C497 C 0.04915 0.98755 0.5216 0.0
O498 O 0.01787 0.9993 0.46527 0.0
H499 H 0.95743 0.96023 0.49653 0.0
H500 H 0.04933 0.05194 0.51307 0.0
H501 H 0.02918 0.95024 0.46968 0.0
O502 O 0.0421 0.00875 0.52538 0.0
O503 O 0.03531 0.97466 0.51016 0.0
H504 H 0.97913 0.06017 0.54372 0.0
O505 O 0.98385 0.97886 0.52901 0.0
O506 O 0.99203 0.01123 0.54695 0.0
O507 O 0.96646 1.00325 0.48453 0.0
O508 O 0.97142 0.03591 0.5033 0.0
C509 C 0.98317 0.99118 0.54738 0.0
H510 H 0.05768 0.09242 0.52257 0.0
H511 H 0.98614 0.10113 0.55405 0.0
H512 H 0.94849 0.9202 0.48651 0.0
H513 H 0.02154 0.90981 0.45829 0.0
C514 C 0.55112 0.99066 0.98874 0.0
N515 N 0.51274 0.05628 0.98296 0.0
C516 C 0.53463 0.06572 0.9866 0.0
C517 C 0.53797 0.08874 0.98029 0.0
C518 C 0.51861 0.10223 0.97004 0.0
C519 C 0.49653 0.09171 0.96556 0.0
C520 C 0.49395 0.06857 0.97225 0.0
Zn521 Zn 0.50784 0.02446 0.99714 0.0
C522 C 0.48416 0.99163 0.96557 0.0
N523 N 0.499 0.95906 0.02922 0.0
C524 C 0.51776 0.947 0.0402 0.0
C525 C 0.47724 0.94943 0.02541 0.0
C526 C 0.47408 0.92639 0.03171 0.0
C527 C 0.49345 0.9131 0.04218 0.0
C528 C 0.51534 0.92386 0.04692 0.0
Zn529 Zn 0.50383 0.99081 0.01499 0.0
O530 O 0.54282 0.01132 0.98401 0.0
C531 C 0.52745 0.02349 0.04664 0.0
O532 O 0.53865 0.9781 1.00181 0.0
H533 H 0.46262 0.95931 0.01654 0.0
H534 H 0.54926 0.0557 0.9953 0.0
H535 H 0.53491 0.95505 0.043 0.0
O536 O 0.52455 0.03601 0.02858 0.0
O537 O 0.52062 1.00265 0.04615 0.0
H538 H 0.47669 0.06068 0.96958 0.0
O539 O 0.46889 1.00379 0.02794 0.0
O540 O 0.47295 0.0372 0.01047 0.0
O541 O 0.48727 0.97921 0.98366 0.0
O542 O 0.49083 0.01254 0.96591 0.0
C543 C 0.4605 0.02445 0.02337 0.0
H544 H 0.55518 0.09618 0.98444 0.0
H545 H 0.48124 0.10138 0.95743 0.0
H546 H 0.45702 0.91877 0.02734 0.0
H547 H 0.53063 0.91433 0.05521 0.0
C548 C 0.5207 0.46514 0.48835 0.0
N549 N 0.52239 0.49337 0.55573 0.0
C550 C 0.51841 0.47207 0.56482 0.0
C551 C 0.5251 0.46695 0.5877 0.0
C552 C 0.53568 0.48404 0.60138 0.0
C553 C 0.53985 0.50571 0.5913 0.0
C554 C 0.53327 0.50993 0.56836 0.0
Zn555 Zn 0.51109 0.50235 0.52323 0.0
C556 C 0.55114 0.52409 0.49734 0.0
N557 N 0.48815 0.52424 0.45606 0.0
C558 C 0.47415 0.50884 0.44499 0.0
C559 C 0.49584 0.54344 0.44508 0.0
C560 C 0.49014 0.54725 0.42173 0.0
C561 C 0.47634 0.53116 0.40973 0.0
C562 C 0.46786 0.51208 0.42185 0.0
Zn563 Zn 0.49939 0.51562 0.48871 0.0
O564 O 0.52337 0.46862 0.50995 0.0
C565 C 0.45931 0.49407 0.5149 0.0
O566 O 0.51098 0.48155 0.47603 0.0
H567 H 0.50704 0.5554 0.4542 0.0
H568 H 0.50977 0.45916 0.55442 0.0
H569 H 0.4684 0.49356 0.45392 0.0
O570 O 0.47605 0.49002 0.52987 0.0
O571 O 0.46424 0.50453 0.4963 0.0
H572 H 0.53642 0.52671 0.56079 0.0
O573 O 0.48789 0.54957 0.5016 0.0
O574 O 0.49869 0.53629 0.53592 0.0
O575 O 0.53482 0.52677 0.48174 0.0
O576 O 0.54589 0.51467 0.51641 0.0
C577 C 0.48984 0.55289 0.5233 0.0
H578 H 0.52187 0.44985 0.59457 0.0
H579 H 0.54749 0.51964 0.60114 0.0
H580 H 0.49721 0.56212 0.41301 0.0
H581 H 0.45676 0.4995 0.41346 0.0
C582 C 0.99161 0.55092 0.98932 0.0
N583 N 0.99162 0.52544 0.05764 0.0
C584 C 0.99987 0.54544 0.06675 0.0
C585 C 0.9954 0.55114 0.08995 0.0
C586 C 0.98206 0.53624 0.10366 0.0
C587 C 0.97311 0.51616 0.09359 0.0
C588 C 0.97825 0.51099 0.0705 0.0
Zn589 Zn 1.00117 0.51477 0.02512 0.0
C590 C 0.95964 0.4931 1.00101 0.0
N591 N 0.02132 0.48937 0.95835 0.0
C592 C 0.03548 0.50376 0.94626 0.0
C593 C 0.01266 0.46993 0.94842 0.0
C594 C 0.01765 0.46475 0.92518 0.0
C595 C 0.03191 0.4796 0.9123 0.0
C596 C 0.04116 0.4991 0.9232 0.0
Zn597 Zn 0.01149 0.49977 0.99089 0.0
O598 O 0.98934 0.54815 0.01105 0.0
C599 C 0.05306 0.52123 0.01493 0.0
O600 O 1.00063 0.53389 0.97727 0.0
H601 H 1.00136 0.45878 0.95835 0.0
H602 H 0.01046 0.55666 0.0562 0.0
H603 H 0.04181 0.51936 0.9543 0.0
O604 O 0.03684 0.52647 0.03005 0.0
O605 O 0.04741 0.50988 0.99701 0.0
H606 H 0.97218 0.495 0.06305 0.0
O607 O 0.02208 0.46595 1.00486 0.0
O608 O 0.0132 0.48109 0.0389 0.0
O609 O 0.97558 0.48947 0.98527 0.0
O610 O 0.96557 0.50313 0.01966 0.0
C611 C 0.02101 0.46364 0.02675 0.0
H612 H 1.00249 0.56685 0.09715 0.0
H613 H 0.96306 0.50406 0.10371 0.0
H614 H 0.01027 0.4495 0.9173 0.0
H615 H 0.05186 0.51119 0.91374 0.0
H616 H 0.11019 0.0837 0.26385 0.0
H617 H 0.0965 0.06368 0.29843 0.0
H618 H 0.08055 0.1302 0.33181 0.0
H619 H 0.09477 0.15032 0.29753 0.0
H620 H 0.10356 0.09994 0.36127 0.0
H621 H 0.03486 0.09771 0.30922 0.0
H622 H 0.01416 0.08876 0.27258 0.0
H623 H 0.03468 0.0158 0.28113 0.0
H624 H 0.0558 0.02436 0.31769 0.0
H625 H 0.03185 0.06604 0.45512 0.0
H626 H 0.04718 0.08304 0.41984 0.0
H627 H 0.0552 0.01453 0.38868 0.0
H628 H 0.03886 0.9974 0.42393 0.0
H629 H 0.03797 0.04391 0.35759 0.0
H630 H 0.10561 0.04531 0.40988 0.0
H631 H 0.12681 0.05368 0.44641 0.0
H632 H 0.10962 0.12716 0.43725 0.0
H633 H 0.08803 0.11921 0.40081 0.0
C634 C 0.10395 0.09412 0.27859 0.0
C635 C 0.10357 0.11873 0.27772 0.0
C636 C 0.09588 0.08261 0.29834 0.0
C637 C 0.08718 0.09535 0.3178 0.0
C638 C 0.08706 0.11988 0.31709 0.0
C639 C 0.09503 0.13141 0.29732 0.0
C640 C 0.07836 0.08322 0.33893 0.0
C641 C 0.08902 0.0879 0.36047 0.0
C642 C 0.0599 0.06688 0.33798 0.0
C643 C 0.04713 0.06171 0.31606 0.0
C644 C 0.03512 0.07978 0.30319 0.0
C645 C 0.02329 0.07477 0.28246 0.0
C646 C 0.02316 0.05173 0.2745 0.0
C647 C 0.03482 0.03364 0.2873 0.0
C648 C 0.04672 0.03856 0.30803 0.0
C649 C 0.03693 0.05447 0.44084 0.0
C650 C 0.03423 0.03024 0.44255 0.0
C651 C 0.04589 0.06427 0.42059 0.0
C652 C 0.05297 0.05014 0.40153 0.0
C653 C 0.05005 0.02592 0.40307 0.0
C654 C 0.04076 0.01609 0.42331 0.0
C655 C 0.06302 0.06078 0.38005 0.0
C656 C 0.05262 0.05584 0.35843 0.0
C657 C 0.08187 0.07677 0.38089 0.0
C658 C 0.09504 0.08164 0.4027 0.0
C659 C 0.10623 0.06324 0.41573 0.0
C660 C 0.11833 0.06791 0.43641 0.0
C661 C 0.11952 0.09093 0.44417 0.0
C662 C 0.10867 0.10934 0.43123 0.0
C663 C 0.09653 0.10476 0.41054 0.0
H664 H 0.12888 0.09451 0.4602 0.0
H665 H 0.01399 0.04789 0.25844 0.0
H666 H 0.39918 0.92718 0.76551 0.0
H667 H 0.41319 0.94689 0.80032 0.0
H668 H 0.42522 0.88028 0.83425 0.0
H669 H 0.41078 0.86048 0.79965 0.0
H670 H 0.40257 0.91238 0.8629 0.0
H671 H 0.47299 0.90927 0.81311 0.0
H672 H 0.49552 0.91585 0.77702 0.0
H673 H 0.47954 0.98985 0.78348 0.0
H674 H 0.45661 0.98368 0.81946 0.0
H675 H 0.47414 0.94604 0.95802 0.0
H676 H 0.45844 0.92842 0.923 0.0
H677 H 0.45426 0.99578 0.88964 0.0
H678 H 0.47082 0.01348 0.92459 0.0
H679 H 0.47166 0.96454 0.86025 0.0
H680 H 0.40247 0.96823 0.91065 0.0
H681 H 0.3794 0.96199 0.94649 0.0
H682 H 0.39165 0.8877 0.9386 0.0
H683 H 0.41529 0.89348 0.903 0.0
C684 C 0.40464 0.9167 0.78042 0.0
C685 C 0.40386 0.89217 0.77966 0.0
C686 C 0.41286 0.92801 0.80029 0.0
C687 C 0.42053 0.91511 0.81994 0.0
C688 C 0.41949 0.89066 0.81935 0.0
C689 C 0.41141 0.87933 0.79944 0.0
C690 C 0.42952 0.92706 0.84113 0.0
C691 C 0.41788 0.92356 0.86237 0.0
C692 C 0.44904 0.94224 0.84043 0.0
C693 C 0.46287 0.94599 0.81885 0.0
C694 C 0.47411 0.92693 0.80673 0.0
C695 C 0.48698 0.93059 0.78632 0.0
C696 C 0.4889 0.95325 0.77793 0.0
C697 C 0.478 0.97231 0.78998 0.0
C698 C 0.46508 0.96874 0.81039 0.0
C699 C 0.46979 0.95721 0.94331 0.0
C700 C 0.47367 0.98128 0.94426 0.0
C701 C 0.46065 0.94707 0.92323 0.0
C702 C 0.45466 0.96073 0.90362 0.0
C703 C 0.45861 0.98478 0.90447 0.0
C704 C 0.46802 0.99493 0.92454 0.0
C705 C 0.4448 0.94979 0.88218 0.0
C706 C 0.45628 0.95347 0.86085 0.0
C707 C 0.42502 0.93485 0.88279 0.0
C708 C 0.41087 0.93131 0.90426 0.0
C709 C 0.40046 0.95056 0.91668 0.0
C710 C 0.38728 0.94711 0.93696 0.0
C711 C 0.38417 0.92447 0.94489 0.0
C712 C 0.39419 0.90523 0.93252 0.0
C713 C 0.40747 0.90859 0.91228 0.0
H714 H 0.37393 0.92182 0.96057 0.0
H715 H 0.49888 0.95605 0.76212 0.0
H716 H 0.5905 0.50018 0.81657 0.0
H717 H 0.58076 0.50365 0.7755 0.0
H718 H 0.55193 0.43517 0.77627 0.0
H719 H 0.56356 0.43067 0.81662 0.0
H720 H 0.5786 0.43746 0.741 0.0
H721 H 0.51476 0.48817 0.7724 0.0
H722 H 0.49614 0.52051 0.79588 0.0
H723 H 0.53585 0.56978 0.75734 0.0
H724 H 0.55496 0.53769 0.73382 0.0
H725 H 0.51041 0.45891 0.63284 0.0
H726 H 0.51865 0.45436 0.67425 0.0
H727 H 0.58097 0.49642 0.66814 0.0
H728 H 0.57404 0.49987 0.62652 0.0
H729 H 0.53588 0.50722 0.70531 0.0
H730 H 0.60165 0.45262 0.6762 0.0
H731 H 0.6164 0.4189 0.65238 0.0
H732 H 0.56695 0.37538 0.68717 0.0
H733 H 0.55165 0.40899 0.71096 0.0
C734 C 0.58219 0.48579 0.80801 0.0
C735 C 0.57786 0.46514 0.82007 0.0
C736 C 0.57629 0.48795 0.78455 0.0
C737 C 0.56534 0.46977 0.77279 0.0
C738 C 0.56034 0.44946 0.78494 0.0
C739 C 0.56669 0.44708 0.80821 0.0
C740 C 0.56032 0.4713 0.74757 0.0
C741 C 0.56897 0.45265 0.73335 0.0
C742 C 0.54793 0.49113 0.73739 0.0
C743 C 0.53647 0.51049 0.7515 0.0
C744 C 0.51967 0.50588 0.76905 0.0
C745 C 0.509 0.52418 0.78235 0.0
C746 C 0.51486 0.54718 0.77815 0.0
C747 C 0.53135 0.55195 0.7606 0.0
C748 C 0.54209 0.53372 0.74726 0.0
C749 C 0.52624 0.46674 0.6401 0.0
C750 C 0.54147 0.47987 0.62625 0.0
C751 C 0.53072 0.46431 0.66381 0.0
C752 C 0.55027 0.47521 0.67406 0.0
C753 C 0.56569 0.48806 0.6604 0.0
C754 C 0.56155 0.49011 0.63666 0.0
C755 C 0.55434 0.4736 0.69919 0.0
C756 C 0.54545 0.49215 0.71324 0.0
C757 C 0.56602 0.45354 0.70929 0.0
C758 C 0.57529 0.43336 0.69511 0.0
C759 C 0.59373 0.43593 0.67858 0.0
C760 C 0.60224 0.41682 0.66513 0.0
C761 C 0.59256 0.39503 0.6682 0.0
C762 C 0.5744 0.39228 0.68478 0.0
C763 C 0.56581 0.41134 0.69825 0.0
H764 H 0.59917 0.38026 0.65779 0.0
H765 H 0.50658 0.56132 0.78846 0.0
H766 H 0.91157 0.55082 0.31263 0.0
H767 H 0.92085 0.54465 0.27182 0.0
H768 H 0.9979 0.54808 0.28624 0.0
H769 H 0.98888 0.55358 0.32746 0.0
H770 H 0.98083 0.57781 0.25059 0.0
H771 H 0.97761 0.49728 0.27177 0.0
H772 H 0.95971 0.46319 0.28958 0.0
H773 H 0.89713 0.47204 0.24482 0.0
H774 H 0.91448 0.5064 0.22696 0.0
H775 H 0.01663 0.54727 0.13522 0.0
H776 H 0.01194 0.5503 0.17723 0.0
H777 H 0.93519 0.53792 0.17051 0.0
H778 H 0.93996 0.53441 0.12853 0.0
H779 H 0.95506 0.51132 0.20307 0.0
H780 H 0.95561 0.59264 0.18373 0.0
H781 H 0.97165 0.62774 0.1661 0.0
H782 H 0.03686 0.61876 0.20738 0.0
H783 H 0.02134 0.58339 0.22503 0.0
C784 C 0.93058 0.54959 0.30734 0.0
C785 C 0.9495 0.55263 0.3234 0.0
C786 C 0.93582 0.54621 0.28393 0.0
C787 C 0.96005 0.54585 0.27608 0.0
C788 C 0.97907 0.54837 0.29203 0.0
C789 C 0.97386 0.55157 0.31553 0.0
C790 C 0.96519 0.5442 0.25102 0.0
C791 C 0.97565 0.56308 0.2402 0.0
C792 C 0.95771 0.52529 0.23752 0.0
C793 C 0.94727 0.50454 0.24815 0.0
C794 C 0.95994 0.49207 0.26584 0.0
C795 C 0.94991 0.47267 0.27593 0.0
C796 C 0.92727 0.46548 0.26837 0.0
C797 C 0.91465 0.47764 0.25067 0.0
C798 C 0.92459 0.49706 0.24054 0.0
C799 C 0.99869 0.54561 0.14271 0.0
C800 C 0.97863 0.54064 0.1287 0.0
C801 C 0.99603 0.54731 0.1667 0.0
C802 C 0.97318 0.54446 0.177 0.0
C803 C 0.95301 0.54007 0.16293 0.0
C804 C 0.95572 0.53813 0.13899 0.0
C805 C 0.97044 0.54508 0.2025 0.0
C806 C 0.96043 0.52599 0.21342 0.0
C807 C 0.97808 0.56393 0.21607 0.0
C808 C 0.98743 0.58522 0.20552 0.0
C809 C 0.97346 0.59804 0.18891 0.0
C810 C 0.98244 0.618 0.17894 0.0
C811 C 0.00529 0.62544 0.18557 0.0
C812 C 0.01918 0.61295 0.20223 0.0
C813 C 0.01029 0.59296 0.21224 0.0
H814 H 0.01221 0.6409 0.17783 0.0
H815 H 0.91954 0.45046 0.2762 0.0
H816 H 0.256 0.07169 0.13178 0.0
H817 H 0.29273 0.05613 0.11175 0.0
H818 H 0.31239 0.12618 0.09664 0.0
H819 H 0.27599 0.14199 0.11714 0.0
H820 H 0.31835 0.09724 0.05875 0.0
H821 H 0.34158 0.09548 0.13903 0.0
H822 H 0.33734 0.08545 0.18024 0.0
H823 H 0.34157 0.01239 0.16299 0.0
H824 H 0.34549 0.022 0.12161 0.0
H825 H 0.4413 0.06977 0.02361 0.0
H826 H 0.40385 0.08546 0.04238 0.0
H827 H 0.38867 0.01617 0.06514 0.0
H828 H 0.42657 1.0005 0.04704 0.0
H829 H 0.37999 0.04488 0.09905 0.0
H830 H 0.35666 0.04581 0.01911 0.0
H831 H 0.3602 0.05514 0.97766 0.0
H832 H 0.35523 0.1285 0.9936 0.0
H833 H 0.35198 0.1196 0.03519 0.0
C834 C 0.26822 0.08388 0.12448 0.0
C835 C 0.26291 0.10819 0.1263 0.0
C836 C 0.28923 0.0749 0.11289 0.0
C837 C 0.30552 0.08995 0.10281 0.0
C838 C 0.30011 0.11418 0.10421 0.0
C839 C 0.27916 0.1232 0.1159 0.0
C840 C 0.32825 0.08042 0.09096 0.0
C841 C 0.33199 0.08602 0.06764 0.0
C842 C 0.34581 0.0653 0.10232 0.0
C843 C 0.34358 0.05947 0.1272 0.0
C844 C 0.34141 0.07728 0.144 0.0
C845 C 0.3391 0.07167 0.16739 0.0
C846 C 0.33912 0.0483 0.17422 0.0
C847 C 0.34152 0.03048 0.15767 0.0
C848 C 0.34381 0.036 0.13425 0.0
C849 C 0.42993 0.05782 0.03247 0.0
C850 C 0.43698 0.03383 0.03372 0.0
C851 C 0.40838 0.06682 0.04315 0.0
C852 C 0.39306 0.05202 0.055 0.0
C853 C 0.40005 0.02803 0.05616 0.0
C854 C 0.42174 0.01905 0.0457 0.0
C855 C 0.37016 0.06158 0.06669 0.0
C856 C 0.36638 0.05603 0.09006 0.0
C857 C 0.35248 0.07661 0.05529 0.0
C858 C 0.35431 0.08202 0.03029 0.0
C859 C 0.35649 0.06393 0.01379 0.0
C860 C 0.35842 0.06914 0.99027 0.0
C861 C 0.358 0.0924 0.983 0.0
C862 C 0.35558 0.11049 0.99925 0.0
C863 C 0.35367 0.10537 0.0228 0.0
H864 H 0.3595 0.0964 0.96479 0.0
H865 H 0.33733 0.04399 0.19234 0.0
H866 H 0.22369 0.9096 0.6573 0.0
H867 H 0.18665 0.92394 0.6368 0.0
H868 H 0.22639 0.92132 0.57233 0.0
H869 H 0.26326 0.90631 0.59272 0.0
H870 H 0.17367 0.96059 0.61432 0.0
H871 H 0.18945 0.91107 0.52712 0.0
H872 H 0.20881 0.87378 0.51289 0.0
H873 H 0.19997 0.84289 0.57974 0.0
H874 H 0.18027 0.87987 0.59427 0.0
H875 H 0.08891 0.01124 0.5345 0.0
H876 H 0.12657 0.99555 0.55299 0.0
H877 H 0.09949 0.92633 0.55107 0.0
H878 H 0.0624 0.94183 0.53135 0.0
H879 H 0.14474 0.92169 0.54342 0.0
H880 H 0.09823 0.96325 0.6018 0.0
H881 H 0.07499 0.99688 0.61953 0.0
H882 H 0.13868 0.03707 0.6168 0.0
H883 H 0.16222 1.00376 0.59877 0.0
C884 C 0.22454 0.91215 0.63876 0.0
C885 C 0.24641 0.90672 0.62663 0.0
C886 C 0.20332 0.92035 0.62702 0.0
C887 C 0.20347 0.92348 0.60289 0.0
C888 C 0.22549 0.91855 0.59083 0.0
C889 C 0.24663 0.91003 0.60252 0.0
C890 C 0.18067 0.93204 0.59045 0.0
C891 C 0.1674 0.95205 0.59881 0.0
C892 C 0.17196 0.92071 0.57047 0.0
C893 C 0.18363 0.89833 0.56183 0.0
C894 C 0.19157 0.8963 0.53875 0.0
C895 C 0.20261 0.87522 0.53064 0.0
C896 C 0.20569 0.856 0.54542 0.0
C897 C 0.19766 0.85781 0.56833 0.0
C898 C 0.18658 0.87883 0.57652 0.0
C899 C 0.09108 0.99264 0.53786 0.0
C900 C 0.07261 0.9778 0.53156 0.0
C901 C 0.11258 0.98368 0.54862 0.0
C902 C 0.11579 0.95977 0.55406 0.0
C903 C 0.09758 0.94484 0.54719 0.0
C904 C 0.07632 0.95372 0.53593 0.0
C905 C 0.13787 0.95039 0.56716 0.0
C906 C 0.15103 0.93025 0.55891 0.0
C907 C 0.14596 0.96108 0.58776 0.0
C908 C 0.13191 0.98109 0.59874 0.0
C909 C 0.10723 0.97931 0.60486 0.0
C910 C 0.09401 0.9983 0.61497 0.0
C911 C 0.10533 0.01911 0.61924 0.0
C912 C 0.12993 0.02095 0.61346 0.0
C913 C 0.14322 1.00201 0.60331 0.0
H914 H 0.09507 0.0338 0.62707 0.0
H915 H 0.21425 0.83971 0.53911 0.0
H916 H 0.74742 0.43892 0.93168 0.0
H917 H 0.78987 0.4479 0.93906 0.0
H918 H 0.77382 0.45664 0.01173 0.0
H919 H 0.73114 0.44785 1.00442 0.0
H920 H 0.80082 0.4925 0.99272 0.0
H921 H 0.80339 0.40831 0.99503 0.0
H922 H 0.79582 0.36912 0.97987 0.0
H923 H 0.8401 0.38149 0.9204 0.0
H924 H 0.84764 0.42091 0.93505 0.0
H925 H 0.92264 0.49441 0.03268 0.0
H926 H 0.88042 0.48418 0.02663 0.0
H927 H 0.89692 0.46648 0.9555 0.0
H928 H 0.93938 0.47619 0.96154 0.0
H929 H 0.8694 0.43495 0.97413 0.0
H930 H 0.86643 0.51828 0.96954 0.0
H931 H 0.87388 0.55829 0.98245 0.0
H932 H 0.83034 0.54894 0.04309 0.0
H933 H 0.8229 0.50872 0.03069 0.0
C934 C 0.7529 0.44292 0.94921 0.0
C935 C 0.73601 0.44272 0.96749 0.0
C936 C 0.77716 0.44788 0.95341 0.0
C937 C 0.78495 0.45275 0.97595 0.0
C938 C 0.7681 0.45286 0.99422 0.0
C939 C 0.74384 0.4477 0.99006 0.0
C940 C 0.81074 0.45776 0.98035 0.0
C941 C 0.81584 0.47982 0.98902 0.0
C942 C 0.83025 0.44142 0.97478 0.0
C943 C 0.8259 0.41764 0.96604 0.0
C944 C 0.81135 0.40275 0.97864 0.0
C945 C 0.8071 0.38048 0.97015 0.0
C946 C 0.81743 0.37284 0.94916 0.0
C947 C 0.83209 0.38744 0.93664 0.0
C948 C 0.83638 0.40973 0.94504 0.0
C949 C 0.91731 0.4883 0.01575 0.0
C950 C 0.9343 0.48624 0.99754 0.0
C951 C 0.89315 0.48254 0.01231 0.0
C952 C 0.88545 0.47492 0.99052 0.0
C953 C 0.90248 0.47239 0.97243 0.0
C954 C 0.92671 0.47799 0.97591 0.0
C955 C 0.85956 0.46973 0.98658 0.0
C956 C 0.85443 0.44764 0.97794 0.0
C957 C 0.84002 0.48617 0.99186 0.0
C958 C 0.84431 0.51041 0.9993 0.0
C959 C 0.85859 0.52469 0.98572 0.0
C960 C 0.86279 0.54742 0.99293 0.0
C961 C 0.85264 0.55613 0.01361 0.0
C962 C 0.83821 0.54215 0.02709 0.0
C963 C 0.83398 0.5194 0.01997 0.0
H964 H 0.85592 0.57372 0.01917 0.0
H965 H 0.81411 0.3556 0.94262 0.0
H966 H 0.76767 0.5437 0.4203 0.0
H967 H 0.72457 0.53963 0.42949 0.0
H968 H 0.74022 0.54853 0.50207 0.0
H969 H 0.78357 0.55227 0.49302 0.0
H970 H 0.70888 0.51284 0.49326 0.0
H971 H 0.71606 0.59342 0.47327 0.0
H972 H 0.72809 0.62592 0.44873 0.0
H973 H 0.682 0.60297 0.39397 0.0
H974 H 0.66998 0.5701 0.41808 0.0
H975 H 0.5865 0.53117 0.52939 0.0
H976 H 0.62948 0.53795 0.5223 0.0
H977 H 0.61613 0.53724 0.44865 0.0
H978 H 0.57286 0.53134 0.45568 0.0
H979 H 0.64682 0.56938 0.45903 0.0
H980 H 0.63902 0.4889 0.47923 0.0
H981 H 0.62641 0.45693 0.50414 0.0
H982 H 0.67428 0.47858 0.558 0.0
H983 H 0.68642 0.51133 0.53383 0.0
C984 C 0.76202 0.5444 0.43825 0.0
C985 C 0.77897 0.54831 0.45596 0.0
C986 C 0.73737 0.54228 0.44345 0.0
C987 C 0.72923 0.54407 0.46642 0.0
C988 C 0.74619 0.5472 0.48423 0.0
C989 C 0.77087 0.54945 0.47903 0.0
C990 C 0.70288 0.54321 0.47172 0.0
C991 C 0.69529 0.52535 0.48606 0.0
C992 C 0.68523 0.55931 0.46188 0.0
C993 C 0.6923 0.57916 0.44741 0.0
C994 C 0.70864 0.59519 0.45593 0.0
C995 C 0.71543 0.6137 0.44211 0.0
C996 C 0.70586 0.61648 0.41978 0.0
C997 C 0.68942 0.60078 0.41126 0.0
C998 C 0.6826 0.58222 0.425 0.0
C999 C 0.59268 0.53271 0.51169 0.0
C1000 C 0.57642 0.53049 0.49306 0.0
C1001 C 0.61725 0.53649 0.50767 0.0
C1002 C 0.62613 0.53752 0.48494 0.0
C1003 C 0.60969 0.53636 0.46633 0.0
C1004 C 0.585 0.53297 0.47036 0.0
C1005 C 0.65268 0.53889 0.48053 0.0
C1006 C 0.66035 0.55685 0.46631 0.0
C1007 C 0.67038 0.52278 0.49042 0.0
C1008 C 0.66346 0.50275 0.50477 0.0
C1009 C 0.64674 0.48697 0.49645 0.0
C1010 C 0.63967 0.46869 0.51043 0.0
C1011 C 0.64961 0.46565 0.53258 0.0
C1012 C 0.66659 0.48095 0.54083 0.0
C1013 C 0.67351 0.49943 0.52703 0.0
H1014 H 0.64415 0.45144 0.54334 0.0
H1015 H 0.71114 0.63082 0.40911 0.0
H1016 H 0.14181 0.28703 0.11652 0.0
H1017 H 0.123 0.32275 0.09983 0.0
H1018 H 0.05135 0.29898 0.11438 0.0
H1019 H 0.07018 0.26259 0.13051 0.0
H1020 H 0.05185 0.3173 0.07201 0.0
H1021 H 0.07606 0.34245 0.14697 0.0
H1022 H 0.10412 0.34735 0.17985 0.0
H1023 H 0.15078 0.38632 0.13679 0.0
H1024 H 0.12317 0.38138 0.10355 0.0
H1025 H 0.0197 0.45308 0.07293 0.0
H1026 H 0.03379 0.41677 0.09207 0.0
H1027 H 0.0556 0.38699 0.02612 0.0
H1028 H 0.04111 0.42322 0.00677 0.0
H1029 H 0.07681 0.39542 0.09659 0.0
H1030 H 0.05167 0.32775 0.02707 0.0
H1031 H 0.02057 0.32317 0.99667 0.0
H1032 H 0.97006 0.3699 0.03344 0.0
H1033 H 1.00073 0.37451 0.0642 0.0
C1034 C 0.12203 0.28925 0.11612 0.0
C1035 C 0.10757 0.27172 0.12481 0.0
C1036 C 0.11126 0.30989 0.10672 0.0
C1037 C 0.08568 0.31382 0.10593 0.0
C1038 C 0.07112 0.29647 0.11476 0.0
C1039 C 0.08193 0.27572 0.12421 0.0
C1040 C 0.07433 0.33587 0.09557 0.0
C1041 C 0.05731 0.33437 0.07743 0.0
C1042 C 0.08102 0.3583 0.10276 0.0
C1043 C 0.09764 0.36138 0.12272 0.0
C1044 C 0.09239 0.35192 0.14447 0.0
C1045 C 0.10821 0.35473 0.16317 0.0
C1046 C 0.12925 0.36709 0.16039 0.0
C1047 C 0.13449 0.37673 0.13891 0.0
C1048 C 0.11875 0.37395 0.12014 0.0
C1049 C 0.02737 0.43879 0.06242 0.0
C1050 C 0.02917 0.44116 0.03823 0.0
C1051 C 0.03552 0.41799 0.07345 0.0
C1052 C 0.04565 0.3989 0.06064 0.0
C1053 C 0.04752 0.40122 0.03646 0.0
C1054 C 0.03929 0.42204 0.02538 0.0
C1055 C 0.05469 0.37687 0.07269 0.0
C1056 C 0.07132 0.37837 0.09115 0.0
C1057 C 0.04728 0.3545 0.06607 0.0
C1058 C 0.0286 0.35164 0.04781 0.0
C1059 C 0.03389 0.33697 0.0287 0.0
C1060 C 0.01634 0.33438 0.01141 0.0
C1061 C 0.99338 0.34629 0.01309 0.0
C1062 C 0.98788 0.36075 0.03212 0.0
C1063 C 0.00536 0.36338 0.04947 0.0
H1064 H 0.97983 0.34428 0.99967 0.0
H1065 H 0.14146 0.36925 0.1749 0.0
H1066 H 0.5234 0.32812 0.97046 0.0
H1067 H 0.51288 0.28717 0.97256 0.0
H1068 H 0.58827 0.26477 0.95958 0.0
H1069 H 0.59883 0.3055 0.95721 0.0
H1070 H 0.55546 0.24421 0.9302 0.0
H1071 H 0.56573 0.25844 0.01187 0.0
H1072 H 0.55778 0.27934 0.0487 0.0
H1073 H 0.48182 0.26481 0.04458 0.0
H1074 H 0.48926 0.24409 0.00753 0.0
H1075 H 0.55868 0.12347 0.9538 0.0
H1076 H 0.56441 0.16526 0.95166 0.0
H1077 H 0.48978 0.18015 0.97367 0.0
H1078 H 0.48432 0.13831 0.97709 0.0
H1079 H 0.51905 0.20558 0.99751 0.0
H1080 H 0.50834 0.18978 0.91719 0.0
H1081 H 0.51542 0.16922 0.88005 0.0
H1082 H 0.59046 0.18724 0.88066 0.0
H1083 H 0.58393 0.20765 0.91799 0.0
C1084 C 0.53775 0.31443 0.96835 0.0
C1085 C 0.56194 0.31999 0.96373 0.0
C1086 C 0.53174 0.2911 0.96961 0.0
C1087 C 0.54982 0.27302 0.96618 0.0
C1088 C 0.57408 0.27852 0.96224 0.0
C1089 C 0.58012 0.30178 0.96115 0.0
C1090 C 0.54335 0.24834 0.96548 0.0
C1091 C 0.54774 0.23564 0.94497 0.0
C1092 C 0.53249 0.23754 0.98451 0.0
C1093 C 0.528 0.24995 0.0068 0.0
C1094 C 0.54729 0.25989 0.01871 0.0
C1095 C 0.54289 0.27166 0.03965 0.0
C1096 C 0.5193 0.27346 0.04894 0.0
C1097 C 0.50007 0.26343 0.03734 0.0
C1098 C 0.50438 0.25166 0.01638 0.0
C1099 C 0.54346 0.13562 0.95815 0.0
C1100 C 0.52107 0.12752 0.96571 0.0
C1101 C 0.54667 0.15953 0.95667 0.0
C1102 C 0.52745 0.17586 0.96231 0.0
C1103 C 0.50485 0.16785 0.9692 0.0
C1104 C 0.50168 0.14391 0.97088 0.0
C1105 C 0.53146 0.20122 0.96227 0.0
C1106 C 0.52658 0.21413 0.98262 0.0
C1107 C 0.5417 0.21228 0.94301 0.0
C1108 C 0.54568 0.2001 0.92049 0.0
C1109 C 0.5264 0.18922 0.90949 0.0
C1110 C 0.53031 0.17762 0.88839 0.0
C1111 C 0.55339 0.17689 0.87803 0.0
C1112 C 0.57259 0.18781 0.88872 0.0
C1113 C 0.56879 0.19943 0.90984 0.0
H1114 H 0.55637 0.16789 0.86169 0.0
H1115 H 0.51593 0.28258 0.06516 0.0
H1116 H 0.96557 0.68788 0.47686 0.0
H1117 H 0.97809 0.72826 0.47779 0.0
H1118 H 0.90278 0.7536 0.46952 0.0
H1119 H 0.89017 0.71333 0.46856 0.0
H1120 H 0.93529 0.77176 0.43725 0.0
H1121 H 0.92857 0.76045 0.51961 0.0
H1122 H 0.93727 0.74027 0.55661 0.0
H1123 H 0.01391 0.75049 0.54876 0.0
H1124 H 0.00569 0.77046 0.51153 0.0
H1125 H 0.94223 0.89271 0.45664 0.0
H1126 H 0.93334 0.85158 0.4559 0.0
H1127 H 0.00775 0.8324 0.47626 0.0
H1128 H 0.01639 0.87367 0.47841 0.0
H1129 H 0.97788 0.80999 0.50165 0.0
H1130 H 0.98576 0.82211 0.42052 0.0
H1131 H 0.97843 0.84159 0.38294 0.0
H1132 H 0.90204 0.82884 0.38708 0.0
H1133 H 0.90884 0.80956 0.42485 0.0
C1134 C 0.95169 0.70211 0.47561 0.0
C1135 C 0.92691 0.69754 0.47271 0.0
C1136 C 0.95883 0.7251 0.47617 0.0
C1137 C 0.94132 0.74382 0.47368 0.0
C1138 C 0.91652 0.73932 0.47146 0.0
C1139 C 0.90934 0.71637 0.47114 0.0
C1140 C 0.94898 0.76805 0.47208 0.0
C1141 C 0.94435 0.78029 0.4514 0.0
C1142 C 0.96159 0.77869 0.49026 0.0
C1143 C 0.96654 0.76672 0.51266 0.0
C1144 C 0.9473 0.7582 0.52566 0.0
C1145 C 0.95214 0.74684 0.5467 0.0
C1146 C 0.97613 0.74403 0.555 0.0
C1147 C 0.99533 0.75264 0.5423 0.0
C1148 C 0.99059 0.764 0.52124 0.0
C1149 C 0.95674 0.87976 0.46092 0.0
C1150 C 0.97999 0.88653 0.46772 0.0
C1151 C 0.95171 0.8562 0.46022 0.0
C1152 C 0.96994 0.83885 0.46584 0.0
C1153 C 0.99341 0.84549 0.47184 0.0
C1154 C 0.99839 0.86909 0.47279 0.0
C1155 C 0.96401 0.81396 0.46682 0.0
C1156 C 0.96898 0.80152 0.48738 0.0
C1157 C 0.95196 0.80301 0.44839 0.0
C1158 C 0.94779 0.81455 0.42563 0.0
C1159 C 0.96737 0.82361 0.41351 0.0
C1160 C 0.96331 0.83459 0.39215 0.0
C1161 C 0.93978 0.83649 0.38265 0.0
C1162 C 0.92026 0.82737 0.39447 0.0
C1163 C 0.92421 0.81638 0.41584 0.0
H1164 H 0.93668 0.845 0.36612 0.0
H1165 H 0.97984 0.73524 0.57129 0.0
H1166 H 0.43687 0.74681 0.63725 0.0
H1167 H 0.45488 0.71026 0.62133 0.0
H1168 H 0.38734 0.69907 0.58544 0.0
H1169 H 0.36849 0.73393 0.60317 0.0
H1170 H 0.40297 0.66022 0.59771 0.0
H1171 H 0.44327 0.72131 0.55939 0.0
H1172 H 0.46724 0.75628 0.55628 0.0
H1173 H 0.52786 0.7201 0.59071 0.0
H1174 H 0.50413 0.68499 0.59427 0.0
H1175 H 0.4555 0.58569 0.50708 0.0
H1176 H 0.43995 0.62177 0.52651 0.0
H1177 H 0.48999 0.60761 0.58311 0.0
H1178 H 0.50506 0.57118 0.56421 0.0
H1179 H 0.4849 0.65813 0.56096 0.0
H1180 H 0.44109 0.59602 0.59706 0.0
H1181 H 0.41592 0.56175 0.5953 0.0
H1182 H 0.35978 0.60215 0.55864 0.0
H1183 H 0.38482 0.63657 0.55987 0.0
C1184 C 0.42562 0.73641 0.62634 0.0
C1185 C 0.40118 0.74391 0.62131 0.0
C1186 C 0.43617 0.71558 0.61683 0.0
C1187 C 0.42283 0.70198 0.60149 0.0
C1188 C 0.39829 0.70913 0.59698 0.0
C1189 C 0.38758 0.72952 0.60693 0.0
C1190 C 0.43411 0.68033 0.59011 0.0
C1191 C 0.42079 0.66004 0.58952 0.0
C1192 C 0.45753 0.67957 0.57944 0.0
C1193 C 0.47183 0.70063 0.57732 0.0
C1194 C 0.46166 0.72088 0.56644 0.0
C1195 C 0.4752 0.74071 0.56458 0.0
C1196 C 0.49903 0.74044 0.57336 0.0
C1197 C 0.50939 0.7203 0.58396 0.0
C1198 C 0.49591 0.70043 0.58589 0.0
C1199 C 0.46331 0.59035 0.52358 0.0
C1200 C 0.48148 0.57554 0.53412 0.0
C1201 C 0.45439 0.61094 0.53467 0.0
C1202 C 0.46384 0.61736 0.55624 0.0
C1203 C 0.4825 0.603 0.56646 0.0
C1204 C 0.49101 0.58216 0.55566 0.0
C1205 C 0.45359 0.63858 0.56856 0.0
C1206 C 0.46711 0.6586 0.56927 0.0
C1207 C 0.43012 0.63935 0.57877 0.0
C1208 C 0.41494 0.61877 0.57834 0.0
C1209 C 0.42348 0.59753 0.58844 0.0
C1210 C 0.40922 0.57809 0.58758 0.0
C1211 C 0.3863 0.57975 0.57681 0.0
C1212 C 0.37755 0.60088 0.56695 0.0
C1213 C 0.39176 0.62036 0.56774 0.0
H1214 H 0.37529 0.56469 0.57615 0.0
H1215 H 0.50949 0.75581 0.5719 0.0
H1216 H 0.93306 0.90347 0.74939 0.0
H1217 H 0.95042 0.92081 0.71456 0.0
H1218 H 0.88371 0.91017 0.67726 0.0
H1219 H 0.86606 0.89357 0.71216 0.0
H1220 H 0.93269 0.89576 0.65369 0.0
H1221 H 0.8873 0.96027 0.69248 0.0
H1222 H 0.87753 0.98559 0.72619 0.0
H1223 H 0.95198 1.0053 0.72884 0.0
H1224 H 0.96227 0.97978 0.69535 0.0
H1225 H 0.94774 0.95985 0.5514 0.0
H1226 H 0.932 0.94273 0.5866 0.0
H1227 H 0.98097 0.98236 0.62766 0.0
H1228 H 0.99546 1.00077 0.5924 0.0
H1229 H 0.94293 0.98113 0.65079 0.0
H1230 H 0.99013 0.91963 0.61341 0.0
H1231 H 1.00376 0.89322 0.5816 0.0
H1232 H 0.93245 0.86589 0.57842 0.0
H1233 H 0.91829 0.89237 0.61002 0.0
C1234 C 0.92222 0.90467 0.73369 0.0
C1235 C 0.8982 0.89716 0.73351 0.0
C1236 C 0.9321 0.91464 0.71384 0.0
C1237 C 0.91836 0.91683 0.69327 0.0
C1238 C 0.89467 0.90866 0.69288 0.0
C1239 C 0.88459 0.89922 0.71284 0.0
C1240 C 0.92833 0.92821 0.67233 0.0
C1241 C 0.93473 0.91445 0.65291 0.0
C1242 C 0.93185 0.95246 0.67159 0.0
C1243 C 0.92561 0.96791 0.6916 0.0
C1244 C 0.90164 0.96982 0.7004 0.0
C1245 C 0.896 0.98425 0.71943 0.0
C1246 C 0.91414 0.99699 0.7297 0.0
C1247 C 0.93795 0.99539 0.7209 0.0
C1248 C 0.94369 0.98096 0.70189 0.0
C1249 C 0.95504 0.96503 0.56796 0.0
C1250 C 0.97292 0.98164 0.56905 0.0
C1251 C 0.94621 0.955 0.58817 0.0
C1252 C 0.95571 0.96054 0.61007 0.0
C1253 C 0.97327 0.97755 0.61117 0.0
C1254 C 0.98161 0.98811 0.59094 0.0
C1255 C 0.94726 0.94874 0.63167 0.0
C1256 C 0.94112 0.9624 0.65136 0.0
C1257 C 0.94461 0.92422 0.63285 0.0
C1258 C 0.95309 0.90814 0.61395 0.0
C1259 C 0.97731 0.90808 0.60584 0.0
C1260 C 0.98513 0.89309 0.58785 0.0
C1261 C 0.96896 0.87793 0.57795 0.0
C1262 C 0.94495 0.87767 0.58608 0.0
C1263 C 0.93702 0.89265 0.60404 0.0
H1264 H 0.97505 0.86634 0.56402 0.0
H1265 H 0.90973 0.00816 0.74443 0.0
H1266 H 0.56564 0.13082 0.23917 0.0
H1267 H 0.55269 0.11153 0.20396 0.0
H1268 H 0.62758 0.08836 0.18975 0.0
H1269 H 0.64091 0.109 0.22403 0.0
H1270 H 0.60817 0.10055 0.15151 0.0
H1271 H 0.58291 0.05116 0.21212 0.0
H1272 H 0.56237 0.04102 0.24836 0.0
H1273 H 0.49272 0.06371 0.21927 0.0
H1274 H 0.51289 0.07428 0.18295 0.0
H1275 H 0.54003 1.00108 0.08742 0.0
H1276 H 0.55613 0.01817 0.12284 0.0
H1277 H 0.55317 0.08596 0.09037 0.0
H1278 H 0.53789 0.06892 0.05482 0.0
H1279 H 0.53897 0.04847 0.15253 0.0
H1280 H 0.59619 0.11973 0.11112 0.0
H1281 H 0.62035 0.12542 0.0758 0.0
H1282 H 0.63269 0.0511 0.0682 0.0
H1283 H 0.6089 0.04497 0.10364 0.0
C1284 C 0.5795 0.12193 0.22847 0.0
C1285 C 0.60443 0.12156 0.23476 0.0
C1286 C 0.57196 0.11053 0.20839 0.0
C1287 C 0.58903 0.098 0.1942 0.0
C1288 C 0.61392 0.09774 0.20032 0.0
C1289 C 0.62152 0.10938 0.22023 0.0
C1290 C 0.58104 0.08546 0.17288 0.0
C1291 C 0.59302 0.08918 0.15182 0.0
C1292 C 0.56165 0.07009 0.1731 0.0
C1293 C 0.54944 0.06371 0.19489 0.0
C1294 C 0.56323 0.05414 0.21351 0.0
C1295 C 0.55165 0.04829 0.23406 0.0
C1296 C 0.52626 0.05177 0.23614 0.0
C1297 C 0.51239 0.06105 0.21765 0.0
C1298 C 0.52388 0.06695 0.19706 0.0
C1299 C 0.543 0.0196 0.08776 0.0
C1300 C 0.5378 0.03355 0.06814 0.0
C1301 C 0.55212 0.0294 0.1081 0.0
C1302 C 0.55623 0.05339 0.10937 0.0
C1303 C 0.55077 0.06735 0.08984 0.0
C1304 C 0.54189 0.05755 0.06946 0.0
C1305 C 0.56581 0.06391 0.13113 0.0
C1306 C 0.55412 0.05984 0.15226 0.0
C1307 C 0.58596 0.07838 0.13111 0.0
C1308 C 0.60056 0.08191 0.10992 0.0
C1309 C 0.60415 0.10461 0.10197 0.0
C1310 C 0.61776 0.10791 0.08191 0.0
C1311 C 0.62798 0.08864 0.06972 0.0
C1312 C 0.62469 0.06601 0.07761 0.0
C1313 C 0.61112 0.06262 0.09766 0.0
H1314 H 0.63849 0.09123 0.05419 0.0
H1315 H 0.51733 0.04723 0.25206 0.0
H1316 H 0.42951 0.51285 0.19109 0.0
H1317 H 0.43983 0.50819 0.23223 0.0
H1318 H 0.43935 0.58319 0.23984 0.0
H1319 H 0.42965 0.58784 0.19885 0.0
H1320 H 0.4767 0.56412 0.26195 0.0
H1321 H 0.39096 0.55104 0.25796 0.0
H1322 H 0.35411 0.53246 0.24417 0.0
H1323 H 0.38353 0.46585 0.26855 0.0
H1324 H 0.42073 0.484 0.28222 0.0
H1325 H 0.46498 0.57124 0.38503 0.0
H1326 H 0.45702 0.57456 0.34339 0.0
H1327 H 0.46861 0.49982 0.33601 0.0
H1328 H 0.47723 0.49635 0.37731 0.0
H1329 H 0.42624 0.51799 0.31402 0.0
H1330 H 0.51191 0.53284 0.31906 0.0
H1331 H 0.54746 0.55294 0.3337 0.0
H1332 H 0.51612 0.61837 0.30813 0.0
H1333 H 0.4802 0.5987 0.29362 0.0
C1334 C 0.43167 0.52827 0.20161 0.0
C1335 C 0.42895 0.55067 0.19183 0.0
C1336 C 0.43748 0.52563 0.22507 0.0
C1337 C 0.44012 0.54538 0.23916 0.0
C1338 C 0.43753 0.56772 0.2293 0.0
C1339 C 0.43203 0.57034 0.20588 0.0
C1340 C 0.4455 0.54296 0.26422 0.0
C1341 C 0.46548 0.55424 0.27336 0.0
C1342 C 0.4311 0.52979 0.27907 0.0
C1343 C 0.40874 0.51884 0.27088 0.0
C1344 C 0.38966 0.5324 0.26022 0.0
C1345 C 0.36869 0.52195 0.25245 0.0
C1346 C 0.36651 0.49798 0.25542 0.0
C1347 C 0.38527 0.48441 0.26623 0.0
C1348 C 0.40629 0.49477 0.274 0.0
C1349 C 0.46609 0.55555 0.3745 0.0
C1350 C 0.4716 0.53352 0.38453 0.0
C1351 C 0.46145 0.55747 0.35077 0.0
C1352 C 0.46227 0.53741 0.33672 0.0
C1353 C 0.46774 0.51546 0.34664 0.0
C1354 C 0.47253 0.51353 0.37027 0.0
C1355 C 0.4573 0.53922 0.31163 0.0
C1356 C 0.43743 0.52782 0.30253 0.0
C1357 C 0.4716 0.55251 0.29688 0.0
C1358 C 0.49326 0.56433 0.30545 0.0
C1359 C 0.51251 0.55155 0.31672 0.0
C1360 C 0.53274 0.56286 0.32497 0.0
C1361 C 0.53402 0.58693 0.3219 0.0
C1362 C 0.51509 0.59973 0.31052 0.0
C1363 C 0.49481 0.58851 0.30226 0.0
H1364 H 0.5497 0.59565 0.3283 0.0
H1365 H 0.35026 0.48992 0.2494 0.0
H1366 H 0.02677 0.47389 0.69008 0.0
H1367 H 0.01991 0.47822 0.73161 0.0
H1368 H 0.09783 0.47899 0.74293 0.0
H1369 H 0.10493 0.4732 0.70171 0.0
H1370 H 0.07965 0.44846 0.76999 0.0
H1371 H 0.05799 0.52827 0.75127 0.0
H1372 H 0.03635 0.56089 0.73052 0.0
H1373 H 0.96739 0.5386 0.75472 0.0
H1374 H 0.9886 0.50564 0.77538 0.0
H1375 H 0.07493 0.48111 0.88886 0.0
H1376 H 0.08087 0.47965 0.84692 0.0
H1377 H 1.00417 0.46881 0.83728 0.0
H1378 H 0.99807 0.47047 0.87931 0.0
H1379 H 0.02114 0.5045 0.80971 0.0
H1380 H 0.04406 0.42452 0.82861 0.0
H1381 H 0.06669 0.39282 0.84986 0.0
H1382 H 0.13481 0.41701 0.82558 0.0
H1383 H 0.1126 0.44907 0.80443 0.0
C1384 C 0.04245 0.47519 0.70137 0.0
C1385 C 0.06641 0.47296 0.69252 0.0
C1386 C 0.03848 0.47792 0.72512 0.0
C1387 C 0.05837 0.47893 0.74041 0.0
C1388 C 0.08221 0.47817 0.73146 0.0
C1389 C 0.08621 0.47516 0.70778 0.0
C1390 C 0.05452 0.47862 0.76579 0.0
C1391 C 0.06715 0.46099 0.77869 0.0
C1392 C 0.0377 0.49452 0.77707 0.0
C1393 C 0.02488 0.51435 0.76469 0.0
C1394 C 0.0382 0.53021 0.75202 0.0
C1395 C 0.02601 0.54879 0.7403 0.0
C1396 C 1.0005 0.55178 0.74125 0.0
C1397 C 0.98714 0.53624 0.75398 0.0
C1398 C 0.99924 0.51762 0.76571 0.0
C1399 C 0.0594 0.4782 0.87778 0.0
C1400 C 0.03605 0.47588 0.88726 0.0
C1401 C 0.06282 0.47731 0.85389 0.0
C1402 C 0.04295 0.4741 0.83908 0.0
C1403 C 0.0197 0.47131 0.84849 0.0
C1404 C 0.0163 0.47202 0.87244 0.0
C1405 C 0.04638 0.47449 0.81373 0.0
C1406 C 0.03365 0.49206 0.80089 0.0
C1407 C 0.06327 0.45869 0.80251 0.0
C1408 C 0.07667 0.43933 0.8151 0.0
C1409 C 0.06388 0.4232 0.82795 0.0
C1410 C 0.07663 0.40514 0.83995 0.0
C1411 C 0.10217 0.40294 0.83912 0.0
C1412 C 0.11502 0.41875 0.82623 0.0
C1413 C 0.10236 0.43685 0.81421 0.0
H1414 H 0.11201 0.38895 0.84843 0.0
H1415 H 0.9911 0.56618 0.73217 0.0
H1416 H 0.73092 0.86348 0.90384 0.0
H1417 H 0.6948 0.88327 0.92105 0.0
H1418 H 0.719 0.94976 0.89857 0.0
H1419 H 0.75609 0.9301 0.88231 0.0
H1420 H 0.70202 0.95417 0.94087 0.0
H1421 H 0.671 0.92217 0.87124 0.0
H1422 H 0.66386 0.89181 0.84208 0.0
H1423 H 0.62657 0.85242 0.89274 0.0
H1424 H 0.63377 0.8824 0.9223 0.0
H1425 H 0.5847 0.01354 0.96331 0.0
H1426 H 0.62193 0.99676 0.94463 0.0
H1427 H 0.60737 0.92881 0.97132 0.0
H1428 H 0.57024 0.9454 0.99007 0.0
H1429 H 0.61915 0.92712 0.92514 0.0
H1430 H 0.65172 0.95955 0.99491 0.0
H1431 H 0.65834 0.99085 0.02321 0.0
H1432 H 0.69205 0.03079 0.97063 0.0
H1433 H 0.6853 0.99985 0.94192 0.0
C1434 C 0.72881 0.88235 0.90269 0.0
C1435 C 0.74669 0.89511 0.89169 0.0
C1436 C 0.70784 0.89366 0.91232 0.0
C1437 C 0.70381 0.91807 0.9109 0.0
C1438 C 0.72154 0.93092 0.89987 0.0
C1439 C 0.74268 0.91959 0.89034 0.0
C1440 C 0.68133 0.93004 0.9213 0.0
C1441 C 0.68388 0.94848 0.93708 0.0
C1442 C 0.65754 0.92251 0.91678 0.0
C1443 C 0.65311 0.90445 0.89904 0.0
C1444 C 0.66143 0.90695 0.87621 0.0
C1445 C 0.65735 0.88982 0.8596 0.0
C1446 C 0.64482 0.87017 0.86557 0.0
C1447 C 0.63629 0.86764 0.88815 0.0
C1448 C 0.64034 0.88471 0.90483 0.0
C1449 C 0.58949 0.99505 0.96534 0.0
C1450 C 0.57443 0.98086 0.97827 0.0
C1451 C 0.61084 0.98548 0.95468 0.0
C1452 C 0.61758 0.96149 0.9566 0.0
C1453 C 0.6026 0.94733 0.96953 0.0
C1454 C 0.58139 0.9569 0.98035 0.0
C1455 C 0.63992 0.95099 0.94483 0.0
C1456 C 0.6373 0.93286 0.92878 0.0
C1457 C 0.66357 0.95895 0.94895 0.0
C1458 C 0.66776 0.9775 0.96621 0.0
C1459 C 0.66036 0.97509 0.98934 0.0
C1460 C 0.66417 0.99276 1.00546 0.0
C1461 C 0.67555 0.01283 0.99871 0.0
C1462 C 0.6832 0.01525 0.97583 0.0
C1463 C 0.67941 0.99765 0.95963 0.0
H1464 H 0.67848 0.02649 0.01121 0.0
H1465 H 0.64168 0.85693 0.85268 0.0
H1466 H 0.77518 0.14428 0.39767 0.0
H1467 H 0.8109 0.12842 0.41892 0.0
H1468 H 0.79223 0.05841 0.40159 0.0
H1469 H 0.75554 0.07407 0.3816 0.0
H1470 H 0.80698 0.05868 0.44404 0.0
H1471 H 0.83912 0.08774 0.37333 0.0
H1472 H 0.8458 0.11691 0.34305 0.0
H1473 H 0.8788 0.16088 0.39306 0.0
H1474 H 0.87202 0.1321 0.42371 0.0
H1475 H 0.92416 1.00117 0.46546 0.0
H1476 H 0.88657 0.01802 0.44766 0.0
H1477 H 0.90201 0.08595 0.47432 0.0
H1478 H 0.93969 0.06921 0.49223 0.0
H1479 H 0.88905 0.0873 0.42812 0.0
H1480 H 0.85782 0.05628 0.49853 0.0
H1481 H 0.85191 0.02581 0.52769 0.0
H1482 H 0.81801 0.98385 0.4765 0.0
H1483 H 0.82404 0.01394 0.44694 0.0
C1484 C 0.77838 0.12549 0.39861 0.0
C1485 C 0.76231 0.11054 0.38773 0.0
C1486 C 0.79912 0.11642 0.41054 0.0
C1487 C 0.80466 0.09217 0.41157 0.0
C1488 C 0.78853 0.07719 0.40099 0.0
C1489 C 0.76763 0.08622 0.38928 0.0
C1490 C 0.82718 0.08239 0.42368 0.0
C1491 C 0.82494 0.06477 0.4403 0.0
C1492 C 0.85069 0.09056 0.41926 0.0
C1493 C 0.85483 0.10787 0.40086 0.0
C1494 C 0.84764 0.10371 0.3779 0.0
C1495 C 0.85147 0.12016 0.36067 0.0
C1496 C 0.86266 0.14077 0.36614 0.0
C1497 C 0.8701 0.14493 0.38885 0.0
C1498 C 0.86629 0.12855 0.40616 0.0
C1499 C 0.91951 0.01967 0.46769 0.0
C1500 C 0.93497 0.03382 0.48033 0.0
C1501 C 0.89795 0.02928 0.45754 0.0
C1502 C 0.89135 0.05325 0.45974 0.0
C1503 C 0.9067 0.06741 0.47239 0.0
C1504 C 0.92819 0.05778 0.48272 0.0
C1505 C 0.86878 0.0636 0.44833 0.0
C1506 C 0.87104 0.0813 0.43185 0.0
C1507 C 0.84536 0.05533 0.45269 0.0
C1508 C 0.84159 0.03728 0.47047 0.0
C1509 C 0.84928 0.04048 0.49344 0.0
C1510 C 0.84588 0.02329 0.51006 0.0
C1511 C 0.83465 1.00288 0.50394 0.0
C1512 C 0.82674 0.99965 0.48121 0.0
C1513 C 0.83012 0.01678 0.46452 0.0
H1514 H 0.83203 0.98959 0.51683 0.0
H1515 H 0.86561 0.15348 0.35277 0.0
H1516 H 0.28486 0.5353 0.0363 0.0
H1517 H 0.24179 0.52685 0.03029 0.0
H1518 H 0.22039 0.60001 0.03879 0.0
H1519 H 0.26342 0.60861 0.04429 0.0
H1520 H 0.19402 0.56468 0.06693 0.0
H1521 H 0.21813 0.58421 0.98885 0.0
H1522 H 0.2447 0.5801 0.95449 0.0
H1523 H 0.22946 0.50767 0.94871 0.0
H1524 H 0.20308 0.51127 0.98327 0.0
H1525 H 0.06885 0.55975 0.0369 0.0
H1526 H 0.11117 0.57075 0.04123 0.0
H1527 H 0.1366 0.50736 1.00589 0.0
H1528 H 0.09431 0.49729 1.00014 0.0
H1529 H 0.16161 0.53906 0.99136 0.0
H1530 H 0.13958 0.51653 0.06797 0.0
H1531 H 0.11478 0.51701 0.10358 0.0
H1532 H 0.12792 0.58938 0.11433 0.0
H1533 H 0.15255 0.58941 0.07861 0.0
C1534 C 0.27092 0.54954 0.03671 0.0
C1535 C 0.27731 0.57259 0.04059 0.0
C1536 C 0.24645 0.54472 0.0333 0.0
C1537 C 0.22808 0.56285 0.03412 0.0
C1538 C 0.23441 0.58586 0.0381 0.0
C1539 C 0.2589 0.59074 0.04107 0.0
C1540 C 0.20219 0.55772 0.03109 0.0
C1541 C 0.18672 0.55935 0.05039 0.0
C1542 C 0.19314 0.55007 0.00966 0.0
C1543 C 0.20884 0.54796 0.98878 0.0
C1544 C 0.22063 0.56736 0.98038 0.0
C1545 C 0.23562 0.56513 0.96084 0.0
C1546 C 0.23882 0.54362 0.94946 0.0
C1547 C 0.22699 0.52431 0.95756 0.0
C1548 C 0.212 0.52644 0.97711 0.0
C1549 C 0.08355 0.54824 0.0301 0.0
C1550 C 0.07844 0.5277 0.01823 0.0
C1551 C 0.10773 0.55442 0.0327 0.0
C1552 C 0.12722 0.53968 0.02428 0.0
C1553 C 0.12197 0.51909 0.0125 0.0
C1554 C 0.09781 0.51329 0.00928 0.0
C1555 C 0.15306 0.54577 0.02733 0.0
C1556 C 0.16866 0.54436 0.008 0.0
C1557 C 0.16239 0.55303 0.04893 0.0
C1558 C 0.1477 0.55303 0.07049 0.0
C1559 C 0.13705 0.53259 0.07785 0.0
C1560 C 0.12304 0.53276 0.09806 0.0
C1561 C 0.11972 0.55323 0.11117 0.0
C1562 C 0.13047 0.57355 0.10414 0.0
C1563 C 0.14448 0.57347 0.08392 0.0
H1564 H 0.10886 0.55333 0.12681 0.0
H1565 H 0.25043 0.54193 0.93433 0.0
H1566 H 0.24772 0.42209 0.57086 0.0
H1567 H 0.29083 0.42704 0.56161 0.0
H1568 H 0.27138 0.49529 0.53352 0.0
H1569 H 0.22823 0.49062 0.5432 0.0
H1570 H 0.30523 0.46188 0.50551 0.0
H1571 H 0.29325 0.4975 0.58156 0.0
H1572 H 0.28037 0.49724 0.62242 0.0
H1573 H 0.33122 0.43882 0.63574 0.0
H1574 H 0.34412 0.43851 0.59482 0.0
H1575 H 0.41776 0.51305 0.49513 0.0
H1576 H 0.37575 0.50378 0.50296 0.0
H1577 H 0.4016 0.45089 0.55172 0.0
H1578 H 0.44385 0.46106 0.54478 0.0
H1579 H 0.36445 0.47332 0.56914 0.0
H1580 H 0.37909 0.43766 0.4957 0.0
H1581 H 0.39219 0.43479 0.45493 0.0
H1582 H 0.3373 0.48809 0.43622 0.0
H1583 H 0.32408 0.49153 0.47693 0.0
C1584 C 0.25267 0.43805 0.56254 0.0
C1585 C 0.2348 0.456 0.5577 0.0
C1586 C 0.27721 0.44087 0.55735 0.0
C1587 C 0.28412 0.46152 0.54694 0.0
C1588 C 0.26625 0.47924 0.54154 0.0
C1589 C 0.24175 0.47661 0.54713 0.0
C1590 C 0.31016 0.46489 0.5423 0.0
C1591 C 0.31822 0.46464 0.51932 0.0
C1592 C 0.32707 0.46753 0.56048 0.0
C1593 C 0.31943 0.46781 0.58509 0.0
C1594 C 0.3015 0.48445 0.59315 0.0
C1595 C 0.29424 0.48444 0.61633 0.0
C1596 C 0.30491 0.46798 0.63165 0.0
C1597 C 0.32293 0.45153 0.62384 0.0
C1598 C 0.33023 0.45146 0.60066 0.0
C1599 C 0.41452 0.49935 0.50743 0.0
C1600 C 0.43405 0.48766 0.51925 0.0
C1601 C 0.39047 0.49395 0.51179 0.0
C1602 C 0.38547 0.47625 0.52754 0.0
C1603 C 0.405 0.46454 0.53941 0.0
C1604 C 0.4291 0.47031 0.53541 0.0
C1605 C 0.35979 0.47066 0.53214 0.0
C1606 C 0.35168 0.47042 0.55518 0.0
C1607 C 0.34293 0.46707 0.51398 0.0
C1608 C 0.35072 0.46497 0.48942 0.0
C1609 C 0.36991 0.44888 0.48292 0.0
C1610 C 0.37735 0.44714 0.45981 0.0
C1611 C 0.36562 0.46128 0.44301 0.0
C1612 C 0.34638 0.47716 0.44926 0.0
C1613 C 0.33889 0.47899 0.47235 0.0
H1614 H 0.37141 0.45991 0.42513 0.0
H1615 H 0.29927 0.468 0.6496 0.0
H1616 H 0.90521 0.75561 0.91919 0.0
H1617 H 0.91964 0.71994 0.93922 0.0
H1618 H 0.94007 0.68797 0.8739 0.0
H1619 H 0.92473 0.72329 0.85361 0.0
H1620 H 0.91835 0.65742 0.90006 0.0
H1621 H 0.98304 0.70931 0.91243 0.0
H1622 H 1.00094 0.74585 0.92474 0.0
H1623 H 0.97587 0.73569 0.99415 0.0
H1624 H 0.95753 0.69923 0.98218 0.0
H1625 H 0.99286 0.5617 0.94316 0.0
H1626 H 0.97821 0.59793 0.92418 0.0
H1627 H 0.95655 0.62741 0.99028 0.0
H1628 H 0.97144 0.59118 0.00949 0.0
H1629 H 0.97833 0.65927 0.96445 0.0
H1630 H 0.91406 0.60753 0.95265 0.0
H1631 H 0.89599 0.57092 0.94084 0.0
H1632 H 0.91974 0.58082 0.87096 0.0
H1633 H 0.93826 0.61735 0.88242 0.0
C1634 C 0.91257 0.74097 0.90898 0.0
C1635 C 0.91375 0.74254 0.88466 0.0
C1636 C 0.92111 0.72058 0.92055 0.0
C1637 C 0.93132 0.7012 0.9082 0.0
C1638 C 0.9324 0.70263 0.88393 0.0
C1639 C 0.92381 0.72301 0.87232 0.0
C1640 C 0.94063 0.67941 0.92051 0.0
C1641 C 0.93173 0.65785 0.91391 0.0
C1642 C 0.95759 0.67982 0.9391 0.0
C1643 C 0.96871 0.70166 0.94635 0.0
C1644 C 0.98119 0.71496 0.93028 0.0
C1645 C 0.99144 0.73564 0.9372 0.0
C1646 C 0.98949 0.74312 0.9602 0.0
C1647 C 0.97734 0.72989 0.97634 0.0
C1648 C 0.96703 0.70921 0.9695 0.0
C1649 C 0.98504 0.57587 0.95374 0.0
C1650 C 0.98328 0.57338 0.97792 0.0
C1651 C 0.97653 0.59661 0.9428 0.0
C1652 C 0.96591 0.61543 0.95568 0.0
C1653 C 0.96458 0.61319 0.97988 0.0
C1654 C 0.97307 0.5924 0.99086 0.0
C1655 C 0.95618 0.63732 0.94387 0.0
C1656 C 0.96495 0.65888 0.95059 0.0
C1657 C 0.93904 0.63693 0.92544 0.0
C1658 C 0.92775 0.61507 0.91844 0.0
C1659 C 0.91559 0.60182 0.93479 0.0
C1660 C 0.90524 0.58109 0.92816 0.0
C1661 C 0.90677 0.57352 0.90518 0.0
C1662 C 0.91859 0.5867 0.88876 0.0
C1663 C 0.929 0.60742 0.89531 0.0
H1664 H 0.89875 0.55747 0.90007 0.0
H1665 H 0.99743 0.75913 0.96552 0.0
H1666 H 0.48947 0.68672 0.0424 0.0
H1667 H 0.50058 0.72732 0.03851 0.0
H1668 H 0.42481 0.75105 0.04714 0.0
H1669 H 0.41362 0.71068 0.0508 0.0
H1670 H 0.44558 0.77667 0.0157 0.0
H1671 H 0.4652 0.7495 0.09265 0.0
H1672 H 0.48503 0.72324 0.12175 0.0
H1673 H 0.55581 0.73921 0.09638 0.0
H1674 H 0.53636 0.76531 0.06688 0.0
H1675 H 0.4535 0.89117 0.05766 0.0
H1676 H 0.44804 0.84917 0.05807 0.0
H1677 H 0.52295 0.83555 0.03662 0.0
H1678 H 0.52842 0.87756 0.03535 0.0
H1679 H 0.50568 0.80465 0.07235 0.0
H1680 H 0.48418 0.83457 0.9967 0.0
H1681 H 0.4627 0.86211 0.96976 0.0
H1682 H 0.39338 0.84181 0.99505 0.0
H1683 H 0.41447 0.81442 0.02243 0.0
C1684 C 0.47519 0.70062 0.04318 0.0
C1685 C 0.45071 0.69557 0.04698 0.0
C1686 C 0.48155 0.72377 0.04101 0.0
C1687 C 0.46356 0.74219 0.04295 0.0
C1688 C 0.43897 0.7371 0.04559 0.0
C1689 C 0.43259 0.714 0.04758 0.0
C1690 C 0.47032 0.76682 0.04355 0.0
C1691 C 0.45862 0.78278 0.02817 0.0
C1692 C 0.4876 0.77475 0.05963 0.0
C1693 C 0.49933 0.75913 0.07739 0.0
C1694 C 0.48499 0.74726 0.09316 0.0
C1695 C 0.49616 0.73243 0.10974 0.0
C1696 C 0.52166 0.7295 0.11087 0.0
C1697 C 0.53605 0.74145 0.09545 0.0
C1698 C 0.52497 0.75627 0.0788 0.0
C1699 C 0.46886 0.87927 0.05311 0.0
C1700 C 0.4913 0.88775 0.04619 0.0
C1701 C 0.46573 0.85531 0.05347 0.0
C1702 C 0.48502 0.83942 0.04709 0.0
C1703 C 0.50788 0.84764 0.04158 0.0
C1704 C 0.51098 0.87165 0.041 0.0
C1705 C 0.48073 0.81435 0.04472 0.0
C1706 C 0.49287 0.7984 0.05974 0.0
C1707 C 0.46365 0.80646 0.02852 0.0
C1708 C 0.45091 0.82259 0.01176 0.0
C1709 C 0.46436 0.8361 0.99663 0.0
C1710 C 0.45225 0.85167 0.98127 0.0
C1711 C 0.42669 0.85375 0.98074 0.0
C1712 C 0.41318 0.8402 0.9955 0.0
C1713 C 0.4252 0.82463 0.01093 0.0
H1714 H 0.41737 0.86584 0.96886 0.0
H1715 H 0.53028 0.71802 0.12372 0.0
H1716 H 0.0828 0.31088 0.52219 0.0
H1717 H 0.06879 0.27117 0.51951 0.0
H1718 H 0.05663 0.27084 0.59327 0.0
H1719 H 0.07136 0.31009 0.59619 0.0
H1720 H 0.08031 0.23133 0.57955 0.0
H1721 H 0.00871 0.27698 0.55598 0.0
H1722 H 0.98467 0.30667 0.53333 0.0
H1723 H 1.00195 0.2687 0.47072 0.0
H1724 H 0.0264 0.23893 0.49297 0.0
H1725 H 0.01576 0.12636 0.57815 0.0
H1726 H 0.02372 0.16784 0.58317 0.0
H1727 H 0.04496 0.1715 0.51146 0.0
H1728 H 0.03709 0.13025 0.5064 0.0
H1729 H 0.01423 0.20971 0.52605 0.0
H1730 H 0.08797 0.16565 0.54985 0.0
H1731 H 0.1118 0.13599 0.57272 0.0
H1732 H 0.08965 0.17136 0.63554 0.0
H1733 H 0.06537 0.20107 0.61302 0.0
C1734 C 0.0772 0.3023 0.53782 0.0
C1735 C 0.07803 0.31366 0.55937 0.0
C1736 C 0.06899 0.27972 0.53625 0.0
C1737 C 0.0614 0.2682 0.55617 0.0
C1738 C 0.06229 0.27948 0.57768 0.0
C1739 C 0.07049 0.30199 0.57927 0.0
C1740 C 0.05326 0.24408 0.55473 0.0
C1741 C 0.06557 0.22668 0.56814 0.0
C1742 C 0.0343 0.23799 0.53958 0.0
C1743 C 0.01958 0.25583 0.52613 0.0
C1744 C 0.00755 0.27505 0.53736 0.0
C1745 C 0.99382 0.29188 0.52459 0.0
C1746 C 0.99183 0.2896 0.50059 0.0
C1747 C 1.00353 0.27046 0.48931 0.0
C1748 C 0.01731 0.25359 0.50199 0.0
C1749 C 0.02195 0.13613 0.56349 0.0
C1750 C 0.02608 0.12516 0.54197 0.0
C1751 C 0.02653 0.15971 0.56636 0.0
C1752 C 0.03504 0.17258 0.54769 0.0
C1753 C 0.03841 0.16181 0.52605 0.0
C1754 C 0.03411 0.13826 0.52324 0.0
C1755 C 0.04137 0.19708 0.55075 0.0
C1756 C 0.02877 0.21449 0.53762 0.0
C1757 C 0.05999 0.20322 0.56622 0.0
C1758 C 0.07462 0.18541 0.57977 0.0
C1759 C 0.088 0.16698 0.56855 0.0
C1760 C 0.10162 0.15019 0.58145 0.0
C1761 C 0.10217 0.15175 0.60558 0.0
C1762 C 0.08916 0.17015 0.61685 0.0
C1763 C 0.07547 0.18698 0.60403 0.0
H1764 H 0.11274 0.13873 0.61553 0.0
H1765 H 0.98118 0.30265 0.49074 0.0
H1766 H 0.57235 0.25973 0.39515 0.0
H1767 H 0.55431 0.29542 0.41343 0.0
H1768 H 0.62142 0.32955 0.40169 0.0
H1769 H 0.63973 0.29353 0.38467 0.0
H1770 H 0.60813 0.34067 0.44144 0.0
H1771 H 0.56479 0.34117 0.36958 0.0
H1772 H 0.53937 0.32569 0.33846 0.0
H1773 H 0.48037 0.31897 0.3864 0.0
H1774 H 0.50556 0.33413 0.41789 0.0
H1775 H 0.52113 0.45424 0.44222 0.0
H1776 H 0.53682 0.41817 0.42358 0.0
H1777 H 0.5551 0.38853 0.49039 0.0
H1778 H 0.54002 0.42496 0.50917 0.0
H1779 H 0.52536 0.37554 0.42282 0.0
H1780 H 0.60396 0.35156 0.4875 0.0
H1781 H 0.63287 0.37129 0.51273 0.0
H1782 H 0.62689 0.43192 0.46909 0.0
H1783 H 0.59792 0.41261 0.44376 0.0
C1784 C 0.58306 0.27499 0.39628 0.0
C1785 C 0.60738 0.27392 0.38844 0.0
C1786 C 0.57275 0.29546 0.40668 0.0
C1787 C 0.58633 0.3155 0.40887 0.0
C1788 C 0.61049 0.31445 0.40047 0.0
C1789 C 0.62093 0.29389 0.39057 0.0
C1790 C 0.57585 0.33733 0.42048 0.0
C1791 C 0.58999 0.34818 0.43731 0.0
C1792 C 0.55235 0.34767 0.41501 0.0
C1793 C 0.53715 0.33855 0.39613 0.0
C1794 C 0.54645 0.33623 0.37352 0.0
C1795 C 0.53208 0.32754 0.35581 0.0
C1796 C 0.50829 0.32129 0.36046 0.0
C1797 C 0.49881 0.32378 0.38283 0.0
C1798 C 0.51312 0.33244 0.40061 0.0
C1799 C 0.52847 0.44007 0.45302 0.0
C1800 C 0.5294 0.44263 0.47725 0.0
C1801 C 0.53738 0.41934 0.44229 0.0
C1802 C 0.54745 0.40055 0.45545 0.0
C1803 C 0.5479 0.40285 0.47972 0.0
C1804 C 0.53913 0.42369 0.49049 0.0
C1805 C 0.55766 0.37876 0.44369 0.0
C1806 C 0.54344 0.36789 0.42696 0.0
C1807 C 0.58148 0.36892 0.44851 0.0
C1808 C 0.59859 0.38074 0.46392 0.0
C1809 C 0.6088 0.36912 0.48336 0.0
C1810 C 0.62515 0.38025 0.4977 0.0
C1811 C 0.63161 0.40291 0.49262 0.0
C1812 C 0.62173 0.41447 0.47317 0.0
C1813 C 0.60528 0.40347 0.45886 0.0
H1814 H 0.64433 0.41146 0.50369 0.0
H1815 H 0.49719 0.31457 0.34672 0.0
loop_
_geom_bond_atom_site_label_1
_geom_bond_atom_site_label_2
_geom_bond_distance
_geom_bond_site_symmetry_2
_ccdc_geom_bond_type
C0 C1 1.391 . S
C0 C4 1.391 . S
C0 H42 0.948 . S
C1 C0 1.391 . S
C1 C2 1.391 . S
C2 C1 1.391 . S
C2 H58 0.947 . S
C2 C59 1.392 . S
C3 C4 1.391 . S
C3 C7 1.397 . S
C3 C59 1.419 . S
C4 C0 1.391 . S
C4 C3 1.391 . S
C4 C5 1.399 . S
C5 C4 1.399 . S
C5 C8 1.396 . S
C5 C17 1.453 . S
C5 C18 1.684 . S
H6 C30 0.948 . S
C7 C3 1.397 . S
C7 C8 1.394 . S
C7 C26 1.723 . S
C8 C5 1.396 . S
C8 C7 1.394 . S
C8 C38 1.723 . S
H9 C32 0.947 . S
H10 C33 0.948 . S
H11 C39 0.982 . S
H12 C40 0.979 . S
H13 C40 0.980 . S
H14 C40 0.983 . S
H15 C39 0.979 . S
H16 C39 0.977 . S
C17 C5 1.453 . S
C17 H46 0.982 . S
C17 H47 0.979 . S
C17 H48 0.977 . S
C18 C5 1.684 . S
C18 H43 0.979 . S
C18 H44 0.980 . S
C18 H45 0.983 . S
C19 C20 1.391 . S
C19 C24 1.391 . S
C19 H49 0.948 . S
C20 C19 1.391 . S
C20 C21 1.391 . S
C21 C20 1.391 . S
C21 C22 1.392 . S
C21 H50 0.947 . S
C22 C21 1.392 . S
C22 C23 1.419 . S
C22 H51 0.948 . S
C23 C22 1.419 . S
C23 C24 1.391 . S
C23 C27 1.397 . S
C24 C19 1.391 . S
C24 C23 1.391 . S
C24 C25 1.399 . S
C25 C24 1.399 . S
C25 C26 1.396 . S
C25 C28 1.453 . S
C25 C29 1.684 . S
C26 C7 1.723 . S
C26 C25 1.396 . S
C26 C27 1.394 . S
C27 C23 1.397 . S
C27 C26 1.394 . S
C27 C37 1.723 . S
C28 C25 1.453 . S
C28 H52 0.982 . S
C28 H53 0.979 . S
C28 H54 0.977 . S
C29 C25 1.684 . S
C29 H55 0.979 . S
C29 H56 0.980 . S
C29 H57 0.983 . S
C30 H6 0.948 . S
C30 C31 1.391 . S
C30 C35 1.391 . S
C31 C30 1.391 . S
C31 C32 1.391 . S
C32 H9 0.947 . S
C32 C31 1.391 . S
C32 C33 1.392 . S
C33 H10 0.948 . S
C33 C32 1.392 . S
C33 C34 1.419 . S
C34 C33 1.419 . S
C34 C35 1.391 . S
C34 C38 1.397 . S
C35 C30 1.391 . S
C35 C34 1.391 . S
C35 C36 1.399 . S
C36 C35 1.399 . S
C36 C37 1.396 . S
C36 C39 1.453 . S
C36 C40 1.684 . S
C37 C27 1.723 . S
C37 C36 1.396 . S
C37 C38 1.394 . S
C38 C8 1.723 . S
C38 C34 1.397 . S
C38 C37 1.394 . S
C39 H11 0.982 . S
C39 H15 0.979 . S
C39 H16 0.977 . S
C39 C36 1.453 . S
C40 H12 0.979 . S
C40 H13 0.980 . S
C40 H14 0.983 . S
C40 C36 1.684 . S
H41 C59 0.948 . S
H42 C0 0.948 . S
H43 C18 0.979 . S
H44 C18 0.980 . S
H45 C18 0.983 . S
H46 C17 0.982 . S
H47 C17 0.979 . S
H48 C17 0.977 . S
H49 C19 0.948 . S
H50 C21 0.947 . S
H51 C22 0.948 . S
H52 C28 0.982 . S
H53 C28 0.979 . S
H54 C28 0.977 . S
H55 C29 0.979 . S
H56 C29 0.980 . S
H57 C29 0.983 . S
H58 C2 0.947 . S
C59 C2 1.392 . S
C59 C3 1.419 . S
C59 H41 0.948 . S
C60 C61 1.391 . S
C60 C64 1.391 . S
C60 H102 0.948 . S
C61 C60 1.391 . S
C61 C62 1.391 . S
C62 C61 1.391 . S
C62 H118 0.947 . S
C62 C119 1.392 . S
C63 C64 1.391 . S
C63 C67 1.397 . S
C63 C119 1.419 . S
C64 C60 1.391 . S
C64 C63 1.391 . S
C64 C65 1.399 . S
C65 C64 1.399 . S
C65 C68 1.396 . S
C65 C77 1.453 . S
C65 C78 1.684 . S
H66 C90 0.948 . S
C67 C63 1.397 . S
C67 C68 1.394 . S
C67 C86 1.723 . S
C68 C65 1.396 . S
C68 C67 1.394 . S
C68 C98 1.723 . S
H69 C92 0.947 . S
H70 C93 0.948 . S
H71 C99 0.982 . S
H72 C100 0.979 . S
H73 C100 0.980 . S
H74 C100 0.983 . S
H75 C99 0.979 . S
H76 C99 0.977 . S
C77 C65 1.453 . S
C77 H106 0.982 . S
C77 H107 0.979 . S
C77 H108 0.977 . S
C78 C65 1.684 . S
C78 H103 0.979 . S
C78 H104 0.980 . S
C78 H105 0.983 . S
C79 C80 1.391 . S
C79 C84 1.391 . S
C79 H109 0.948 . S
C80 C79 1.391 . S
C80 C81 1.391 . S
C81 C80 1.391 . S
C81 C82 1.392 . S
C81 H110 0.947 . S
C82 C81 1.392 . S
C82 C83 1.419 . S
C82 H111 0.948 . S
C83 C82 1.419 . S
C83 C84 1.391 . S
C83 C87 1.397 . S
C84 C79 1.391 . S
C84 C83 1.391 . S
C84 C85 1.399 . S
C85 C84 1.399 . S
C85 C86 1.396 . S
C85 C88 1.453 . S
C85 C89 1.684 . S
C86 C67 1.723 . S
C86 C85 1.396 . S
C86 C87 1.394 . S
C87 C83 1.397 . S
C87 C86 1.394 . S
C87 C97 1.723 . S
C88 C85 1.453 . S
C88 H112 0.982 . S
C88 H113 0.979 . S
C88 H114 0.977 . S
C89 C85 1.684 . S
C89 H115 0.979 . S
C89 H116 0.980 . S
C89 H117 0.983 . S
C90 H66 0.948 . S
C90 C91 1.391 . S
C90 C95 1.391 . S
C91 C90 1.391 . S
C91 C92 1.391 . S
C92 H69 0.947 . S
C92 C91 1.391 . S
C92 C93 1.392 . S
C93 H70 0.948 . S
C93 C92 1.392 . S
C93 C94 1.419 . S
C94 C93 1.419 . S
C94 C95 1.391 . S
C94 C98 1.397 . S
C95 C90 1.391 . S
C95 C94 1.391 . S
C95 C96 1.399 . S
C96 C95 1.399 . S
C96 C97 1.396 . S
C96 C99 1.453 . S
C96 C100 1.684 . S
C97 C87 1.723 . S
C97 C96 1.396 . S
C97 C98 1.394 . S
C98 C68 1.723 . S
C98 C94 1.397 . S
C98 C97 1.394 . S
C99 H71 0.982 . S
C99 H75 0.979 . S
C99 H76 0.977 . S
C99 C96 1.453 . S
C100 H72 0.979 . S
C100 H73 0.980 . S
C100 H74 0.983 . S
C100 C96 1.684 . S
H101 C119 0.948 . S
H102 C60 0.948 . S
H103 C78 0.979 . S
H104 C78 0.980 . S
H105 C78 0.983 . S
H106 C77 0.982 . S
H107 C77 0.979 . S
H108 C77 0.977 . S
H109 C79 0.948 . S
H110 C81 0.947 . S
H111 C82 0.948 . S
H112 C88 0.982 . S
H113 C88 0.979 . S
H114 C88 0.977 . S
H115 C89 0.979 . S
H116 C89 0.980 . S
H117 C89 0.983 . S
H118 C62 0.947 . S
C119 C62 1.392 . S
C119 C63 1.419 . S
C119 H101 0.948 . S
C120 C121 1.391 . S
C120 C124 1.391 . S
C120 H162 0.948 . S
C121 C120 1.391 . S
C121 C122 1.391 . S
C122 C121 1.391 . S
C122 H178 0.947 . S
C122 C179 1.392 . S
C123 C124 1.391 . S
C123 C127 1.397 . S
C123 C179 1.419 . S
C124 C120 1.391 . S
C124 C123 1.391 . S
C124 C125 1.399 . S
C125 C124 1.399 . S
C125 C128 1.396 . S
C125 C137 1.453 . S
C125 C138 1.684 . S
H126 C150 0.948 . S
C127 C123 1.397 . S
C127 C128 1.394 . S
C127 C146 1.723 . S
C128 C125 1.396 . S
C128 C127 1.394 . S
C128 C158 1.723 . S
H129 C152 0.947 . S
H130 C153 0.948 . S
H131 C159 0.982 . S
H132 C160 0.979 . S
H133 C160 0.980 . S
H134 C160 0.983 . S
H135 C159 0.979 . S
H136 C159 0.977 . S
C137 C125 1.453 . S
C137 H166 0.982 . S
C137 H167 0.979 . S
C137 H168 0.977 . S
C138 C125 1.684 . S
C138 H163 0.979 . S
C138 H164 0.980 . S
C138 H165 0.983 . S
C139 C140 1.391 . S
C139 C144 1.391 . S
C139 H169 0.948 . S
C140 C139 1.391 . S
C140 C141 1.391 . S
C141 C140 1.391 . S
C141 C142 1.392 . S
C141 H170 0.947 . S
C142 C141 1.392 . S
C142 C143 1.419 . S
C142 H171 0.948 . S
C143 C142 1.419 . S
C143 C144 1.391 . S
C143 C147 1.397 . S
C144 C139 1.391 . S
C144 C143 1.391 . S
C144 C145 1.399 . S
C145 C144 1.399 . S
C145 C146 1.396 . S
C145 C148 1.453 . S
C145 C149 1.684 . S
C146 C127 1.723 . S
C146 C145 1.396 . S
C146 C147 1.394 . S
C147 C143 1.397 . S
C147 C146 1.394 . S
C147 C157 1.723 . S
C148 C145 1.453 . S
C148 H172 0.982 . S
C148 H173 0.979 . S
C148 H174 0.977 . S
C149 C145 1.684 . S
C149 H175 0.979 . S
C149 H176 0.980 . S
C149 H177 0.983 . S
C150 H126 0.948 . S
C150 C151 1.391 . S
C150 C155 1.391 . S
C151 C150 1.391 . S
C151 C152 1.391 . S
C152 H129 0.947 . S
C152 C151 1.391 . S
C152 C153 1.392 . S
C153 H130 0.948 . S
C153 C152 1.392 . S
C153 C154 1.419 . S
C154 C153 1.419 . S
C154 C155 1.391 . S
C154 C158 1.397 . S
C155 C150 1.391 . S
C155 C154 1.391 . S
C155 C156 1.399 . S
C156 C155 1.399 . S
C156 C157 1.396 . S
C156 C159 1.453 . S
C156 C160 1.684 . S
C157 C147 1.723 . S
C157 C156 1.396 . S
C157 C158 1.394 . S
C158 C128 1.723 . S
C158 C154 1.397 . S
C158 C157 1.394 . S
C159 H131 0.982 . S
C159 H135 0.979 . S
C159 H136 0.977 . S
C159 C156 1.453 . S
C160 H132 0.979 . S
C160 H133 0.980 . S
C160 H134 0.983 . S
C160 C156 1.684 . S
H161 C179 0.948 . S
H162 C120 0.948 . S
H163 C138 0.979 . S
H164 C138 0.980 . S
H165 C138 0.983 . S
H166 C137 0.982 . S
H167 C137 0.979 . S
H168 C137 0.977 . S
H169 C139 0.948 . S
H170 C141 0.947 . S
H171 C142 0.948 . S
H172 C148 0.982 . S
H173 C148 0.979 . S
H174 C148 0.977 . S
H175 C149 0.979 . S
H176 C149 0.980 . S
H177 C149 0.983 . S
H178 C122 0.947 . S
C179 C122 1.392 . S
C179 C123 1.419 . S
C179 H161 0.948 . S
C180 C181 1.391 . S
C180 C184 1.391 . S
C180 H222 0.948 . S
C181 C180 1.391 . S
C181 C182 1.391 . S
C182 C181 1.391 . S
C182 H238 0.947 . S
C182 C239 1.392 . S
C183 C184 1.391 . S
C183 C187 1.397 . S
C183 C239 1.419 . S
C184 C180 1.391 . S
C184 C183 1.391 . S
C184 C185 1.399 . S
C185 C184 1.399 . S
C185 C188 1.396 . S
C185 C197 1.453 . S
C185 C198 1.684 . S
H186 C210 0.948 . S
C187 C183 1.397 . S
C187 C188 1.394 . S
C187 C206 1.723 . S
C188 C185 1.396 . S
C188 C187 1.394 . S
C188 C218 1.723 . S
H189 C212 0.947 . S
H190 C213 0.948 . S
H191 C219 0.982 . S
H192 C220 0.979 . S
H193 C220 0.980 . S
H194 C220 0.983 . S
H195 C219 0.979 . S
H196 C219 0.977 . S
C197 C185 1.453 . S
C197 H226 0.982 . S
C197 H227 0.979 . S
C197 H228 0.977 . S
C198 C185 1.684 . S
C198 H223 0.979 . S
C198 H224 0.980 . S
C198 H225 0.983 . S
C199 C200 1.391 . S
C199 C204 1.391 . S
C199 H229 0.948 . S
C200 C199 1.391 . S
C200 C201 1.391 . S
C201 C200 1.391 . S
C201 C202 1.392 . S
C201 H230 0.947 . S
C202 C201 1.392 . S
C202 C203 1.419 . S
C202 H231 0.948 . S
C203 C202 1.419 . S
C203 C204 1.391 . S
C203 C207 1.397 . S
C204 C199 1.391 . S
C204 C203 1.391 . S
C204 C205 1.399 . S
C205 C204 1.399 . S
C205 C206 1.396 . S
C205 C208 1.453 . S
C205 C209 1.684 . S
C206 C187 1.723 . S
C206 C205 1.396 . S
C206 C207 1.394 . S
C207 C203 1.397 . S
C207 C206 1.394 . S
C207 C217 1.723 . S
C208 C205 1.453 . S
C208 H232 0.982 . S
C208 H233 0.979 . S
C208 H234 0.977 . S
C209 C205 1.684 . S
C209 H235 0.979 . S
C209 H236 0.980 . S
C209 H237 0.983 . S
C210 H186 0.948 . S
C210 C211 1.391 . S
C210 C215 1.391 . S
C211 C210 1.391 . S
C211 C212 1.391 . S
C212 H189 0.947 . S
C212 C211 1.391 . S
C212 C213 1.392 . S
C213 H190 0.948 . S
C213 C212 1.392 . S
C213 C214 1.419 . S
C214 C213 1.419 . S
C214 C215 1.391 . S
C214 C218 1.397 . S
C215 C210 1.391 . S
C215 C214 1.391 . S
C215 C216 1.399 . S
C216 C215 1.399 . S
C216 C217 1.396 . S
C216 C219 1.453 . S
C216 C220 1.684 . S
C217 C207 1.723 . S
C217 C216 1.396 . S
C217 C218 1.394 . S
C218 C188 1.723 . S
C218 C214 1.397 . S
C218 C217 1.394 . S
C219 H191 0.982 . S
C219 H195 0.979 . S
C219 H196 0.977 . S
C219 C216 1.453 . S
C220 H192 0.979 . S
C220 H193 0.980 . S
C220 H194 0.983 . S
C220 C216 1.684 . S
H221 C239 0.948 . S
H222 C180 0.948 . S
H223 C198 0.979 . S
H224 C198 0.980 . S
H225 C198 0.983 . S
H226 C197 0.982 . S
H227 C197 0.979 . S
H228 C197 0.977 . S
H229 C199 0.948 . S
H230 C201 0.947 . S
H231 C202 0.948 . S
H232 C208 0.982 . S
H233 C208 0.979 . S
H234 C208 0.977 . S
H235 C209 0.979 . S
H236 C209 0.980 . S
H237 C209 0.983 . S
H238 C182 0.947 . S
C239 C182 1.392 . S
C239 C183 1.419 . S
C239 H221 0.948 . S
C240 C241 1.391 . S
C240 C244 1.391 . S
C240 H282 0.948 . S
C241 C240 1.391 . S
C241 C242 1.391 . S
C242 C241 1.391 . S
C242 H298 0.947 . S
C242 C299 1.392 . S
C243 C244 1.391 . S
C243 C247 1.397 . S
C243 C299 1.419 . S
C244 C240 1.391 . S
C244 C243 1.391 . S
C244 C245 1.399 . S
C245 C244 1.399 . S
C245 C248 1.396 . S
C245 C257 1.453 . S
C245 C258 1.684 . S
H246 C270 0.948 . S
C247 C243 1.397 . S
C247 C248 1.394 . S
C247 C266 1.723 . S
C248 C245 1.396 . S
C248 C247 1.394 . S
C248 C278 1.723 . S
H249 C272 0.947 . S
H250 C273 0.948 . S
H251 C279 0.982 . S
H252 C280 0.979 . S
H253 C280 0.980 . S
H254 C280 0.983 . S
H255 C279 0.979 . S
H256 C279 0.977 . S
C257 C245 1.453 . S
C257 H286 0.982 . S
C257 H287 0.979 . S
C257 H288 0.977 . S
C258 C245 1.684 . S
C258 H283 0.979 . S
C258 H284 0.980 . S
C258 H285 0.983 . S
C259 C260 1.391 . S
C259 C264 1.391 . S
C259 H289 0.948 . S
C260 C259 1.391 . S
C260 C261 1.391 . S
C261 C260 1.391 . S
C261 C262 1.392 . S
C261 H290 0.947 . S
C262 C261 1.392 . S
C262 C263 1.419 . S
C262 H291 0.948 . S
C263 C262 1.419 . S
C263 C264 1.391 . S
C263 C267 1.397 . S
C264 C259 1.391 . S
C264 C263 1.391 . S
C264 C265 1.399 . S
C265 C264 1.399 . S
C265 C266 1.396 . S
C265 C268 1.453 . S
C265 C269 1.684 . S
C266 C247 1.723 . S
C266 C265 1.396 . S
C266 C267 1.394 . S
C267 C263 1.397 . S
C267 C266 1.394 . S
C267 C277 1.723 . S
C268 C265 1.453 . S
C268 H292 0.982 . S
C268 H293 0.979 . S
C268 H294 0.977 . S
C269 C265 1.684 . S
C269 H295 0.979 . S
C269 H296 0.980 . S
C269 H297 0.983 . S
C270 H246 0.948 . S
C270 C271 1.391 . S
C270 C275 1.391 . S
C271 C270 1.391 . S
C271 C272 1.391 . S
C272 H249 0.947 . S
C272 C271 1.391 . S
C272 C273 1.392 . S
C273 H250 0.948 . S
C273 C272 1.392 . S
C273 C274 1.419 . S
C274 C273 1.419 . S
C274 C275 1.391 . S
C274 C278 1.397 . S
C275 C270 1.391 . S
C275 C274 1.391 . S
C275 C276 1.399 . S
C276 C275 1.399 . S
C276 C277 1.396 . S
C276 C279 1.453 . S
C276 C280 1.684 . S
C277 C267 1.723 . S
C277 C276 1.396 . S
C277 C278 1.394 . S
C278 C248 1.723 . S
C278 C274 1.397 . S
C278 C277 1.394 . S
C279 H251 0.982 . S
C279 H255 0.979 . S
C279 H256 0.977 . S
C279 C276 1.453 . S
C280 H252 0.979 . S
C280 H253 0.980 . S
C280 H254 0.983 . S
C280 C276 1.684 . S
H281 C299 0.948 . S
H282 C240 0.948 . S
H283 C258 0.979 . S
H284 C258 0.980 . S
H285 C258 0.983 . S
H286 C257 0.982 . S
H287 C257 0.979 . S
H288 C257 0.977 . S
H289 C259 0.948 . S
H290 C261 0.947 . S
H291 C262 0.948 . S
H292 C268 0.982 . S
H293 C268 0.979 . S
H294 C268 0.977 . S
H295 C269 0.979 . S
H296 C269 0.980 . S
H297 C269 0.983 . S
H298 C242 0.947 . S
C299 C242 1.392 . S
C299 C243 1.419 . S
C299 H281 0.948 . S
C300 C301 1.391 . S
C300 C304 1.391 . S
C300 H342 0.948 . S
C301 C300 1.391 . S
C301 C302 1.391 . S
C302 C301 1.391 . S
C302 H358 0.947 . S
C302 C359 1.392 . S
C303 C304 1.391 . S
C303 C307 1.397 . S
C303 C359 1.419 . S
C304 C300 1.391 . S
C304 C303 1.391 . S
C304 C305 1.399 . S
C305 C304 1.399 . S
C305 C308 1.396 . S
C305 C317 1.453 . S
C305 C318 1.684 . S
H306 C330 0.948 . S
C307 C303 1.397 . S
C307 C308 1.394 . S
C307 C326 1.723 . S
C308 C305 1.396 . S
C308 C307 1.394 . S
C308 C338 1.723 . S
H309 C332 0.947 . S
H310 C333 0.948 . S
H311 C339 0.982 . S
H312 C340 0.979 . S
H313 C340 0.980 . S
H314 C340 0.983 . S
H315 C339 0.979 . S
H316 C339 0.977 . S
C317 C305 1.453 . S
C317 H346 0.982 . S
C317 H347 0.979 . S
C317 H348 0.977 . S
C318 C305 1.684 . S
C318 H343 0.979 . S
C318 H344 0.980 . S
C318 H345 0.983 . S
C319 C320 1.391 . S
C319 C324 1.391 . S
C319 H349 0.948 . S
C320 C319 1.391 . S
C320 C321 1.391 . S
C321 C320 1.391 . S
C321 C322 1.392 . S
C321 H350 0.947 . S
C322 C321 1.392 . S
C322 C323 1.419 . S
C322 H351 0.948 . S
C323 C322 1.419 . S
C323 C324 1.391 . S
C323 C327 1.397 . S
C324 C319 1.391 . S
C324 C323 1.391 . S
C324 C325 1.399 . S
C325 C324 1.399 . S
C325 C326 1.396 . S
C325 C328 1.453 . S
C325 C329 1.684 . S
C326 C307 1.723 . S
C326 C325 1.396 . S
C326 C327 1.394 . S
C327 C323 1.397 . S
C327 C326 1.394 . S
C327 C337 1.723 . S
C328 C325 1.453 . S
C328 H352 0.982 . S
C328 H353 0.979 . S
C328 H354 0.977 . S
C329 C325 1.684 . S
C329 H355 0.979 . S
C329 H356 0.980 . S
C329 H357 0.983 . S
C330 H306 0.948 . S
C330 C331 1.391 . S
C330 C335 1.391 . S
C331 C330 1.391 . S
C331 C332 1.391 . S
C332 H309 0.947 . S
C332 C331 1.391 . S
C332 C333 1.392 . S
C333 H310 0.948 . S
C333 C332 1.392 . S
C333 C334 1.419 . S
C334 C333 1.419 . S
C334 C335 1.391 . S
C334 C338 1.397 . S
C335 C330 1.391 . S
C335 C334 1.391 . S
C335 C336 1.399 . S
C336 C335 1.399 . S
C336 C337 1.396 . S
C336 C339 1.453 . S
C336 C340 1.684 . S
C337 C327 1.723 . S
C337 C336 1.396 . S
C337 C338 1.394 . S
C338 C308 1.723 . S
C338 C334 1.397 . S
C338 C337 1.394 . S
C339 H311 0.982 . S
C339 H315 0.979 . S
C339 H316 0.977 . S
C339 C336 1.453 . S
C340 H312 0.979 . S
C340 H313 0.980 . S
C340 H314 0.983 . S
C340 C336 1.684 . S
H341 C359 0.948 . S
H342 C300 0.948 . S
H343 C318 0.979 . S
H344 C318 0.980 . S
H345 C318 0.983 . S
H346 C317 0.982 . S
H347 C317 0.979 . S
H348 C317 0.977 . S
H349 C319 0.948 . S
H350 C321 0.947 . S
H351 C322 0.948 . S
H352 C328 0.982 . S
H353 C328 0.979 . S
H354 C328 0.977 . S
H355 C329 0.979 . S
H356 C329 0.980 . S
H357 C329 0.983 . S
H358 C302 0.947 . S
C359 C302 1.392 . S
C359 C303 1.419 . S
C359 H341 0.948 . S
C360 C361 1.391 . S
C360 C364 1.391 . S
C360 H402 0.948 . S
C361 C360 1.391 . S
C361 C362 1.391 . S
C362 C361 1.391 . S
C362 H418 0.947 . S
C362 C419 1.392 . S
C363 C364 1.391 . S
C363 C367 1.397 . S
C363 C419 1.419 . S
C364 C360 1.391 . S
C364 C363 1.391 . S
C364 C365 1.399 . S
C365 C364 1.399 . S
C365 C368 1.396 . S
C365 C377 1.453 . S
C365 C378 1.684 . S
H366 C390 0.948 . S
C367 C363 1.397 . S
C367 C368 1.394 . S
C367 C386 1.723 . S
C368 C365 1.396 . S
C368 C367 1.394 . S
C368 C398 1.723 . S
H369 C392 0.947 . S
H370 C393 0.948 . S
H371 C399 0.982 . S
H372 C400 0.979 . S
H373 C400 0.980 . S
H374 C400 0.983 . S
H375 C399 0.979 . S
H376 C399 0.977 . S
C377 C365 1.453 . S
C377 H406 0.982 . S
C377 H407 0.979 . S
C377 H408 0.977 . S
C378 C365 1.684 . S
C378 H403 0.979 . S
C378 H404 0.980 . S
C378 H405 0.983 . S
C379 C380 1.391 . S
C379 C384 1.391 . S
C379 H409 0.948 . S
C380 C379 1.391 . S
C380 C381 1.391 . S
C381 C380 1.391 . S
C381 C382 1.392 . S
C381 H410 0.947 . S
C382 C381 1.392 . S
C382 C383 1.419 . S
C382 H411 0.948 . S
C383 C382 1.419 . S
C383 C384 1.391 . S
C383 C387 1.397 . S
C384 C379 1.391 . S
C384 C383 1.391 . S
C384 C385 1.399 . S
C385 C384 1.399 . S
C385 C386 1.396 . S
C385 C388 1.453 . S
C385 C389 1.684 . S
C386 C367 1.723 . S
C386 C385 1.396 . S
C386 C387 1.394 . S
C387 C383 1.397 . S
C387 C386 1.394 . S
C387 C397 1.723 . S
C388 C385 1.453 . S
C388 H412 0.982 . S
C388 H413 0.979 . S
C388 H414 0.977 . S
C389 C385 1.684 . S
C389 H415 0.979 . S
C389 H416 0.980 . S
C389 H417 0.983 . S
C390 H366 0.948 . S
C390 C391 1.391 . S
C390 C395 1.391 . S
C391 C390 1.391 . S
C391 C392 1.391 . S
C392 H369 0.947 . S
C392 C391 1.391 . S
C392 C393 1.392 . S
C393 H370 0.948 . S
C393 C392 1.392 . S
C393 C394 1.419 . S
C394 C393 1.419 . S
C394 C395 1.391 . S
C394 C398 1.397 . S
C395 C390 1.391 . S
C395 C394 1.391 . S
C395 C396 1.399 . S
C396 C395 1.399 . S
C396 C397 1.396 . S
C396 C399 1.453 . S
C396 C400 1.684 . S
C397 C387 1.723 . S
C397 C396 1.396 . S
C397 C398 1.394 . S
C398 C368 1.723 . S
C398 C394 1.397 . S
C398 C397 1.394 . S
C399 H371 0.982 . S
C399 H375 0.979 . S
C399 H376 0.977 . S
C399 C396 1.453 . S
C400 H372 0.979 . S
C400 H373 0.980 . S
C400 H374 0.983 . S
C400 C396 1.684 . S
H401 C419 0.948 . S
H402 C360 0.948 . S
H403 C378 0.979 . S
H404 C378 0.980 . S
H405 C378 0.983 . S
H406 C377 0.982 . S
H407 C377 0.979 . S
H408 C377 0.977 . S
H409 C379 0.948 . S
H410 C381 0.947 . S
H411 C382 0.948 . S
H412 C388 0.982 . S
H413 C388 0.979 . S
H414 C388 0.977 . S
H415 C389 0.979 . S
H416 C389 0.980 . S
H417 C389 0.983 . S
H418 C362 0.947 . S
C419 C362 1.392 . S
C419 C363 1.419 . S
C419 H401 0.948 . S
C420 C421 1.391 . S
C420 C424 1.391 . S
C420 H462 0.948 . S
C421 C420 1.391 . S
C421 C422 1.391 . S
C422 C421 1.391 . S
C422 H478 0.947 . S
C422 C479 1.392 . S
C423 C424 1.391 . S
C423 C427 1.397 . S
C423 C479 1.419 . S
C424 C420 1.391 . S
C424 C423 1.391 . S
C424 C425 1.399 . S
C425 C424 1.399 . S
C425 C428 1.396 . S
C425 C437 1.453 . S
C425 C438 1.684 . S
H426 C450 0.948 . S
C427 C423 1.397 . S
C427 C428 1.394 . S
C427 C446 1.723 . S
C428 C425 1.396 . S
C428 C427 1.394 . S
C428 C458 1.723 . S
H429 C452 0.947 . S
H430 C453 0.948 . S
H431 C459 0.982 . S
H432 C460 0.979 . S
H433 C460 0.980 . S
H434 C460 0.983 . S
H435 C459 0.979 . S
H436 C459 0.977 . S
C437 C425 1.453 . S
C437 H466 0.982 . S
C437 H467 0.979 . S
C437 H468 0.977 . S
C438 C425 1.684 . S
C438 H463 0.979 . S
C438 H464 0.980 . S
C438 H465 0.983 . S
C439 C440 1.391 . S
C439 C444 1.391 . S
C439 H469 0.948 . S
C440 C439 1.391 . S
C440 C441 1.391 . S
C441 C440 1.391 . S
C441 C442 1.392 . S
C441 H470 0.947 . S
C442 C441 1.392 . S
C442 C443 1.419 . S
C442 H471 0.948 . S
C443 C442 1.419 . S
C443 C444 1.391 . S
C443 C447 1.397 . S
C444 C439 1.391 . S
C444 C443 1.391 . S
C444 C445 1.399 . S
C445 C444 1.399 . S
C445 C446 1.396 . S
C445 C448 1.453 . S
C445 C449 1.684 . S
C446 C427 1.723 . S
C446 C445 1.396 . S
C446 C447 1.394 . S
C447 C443 1.397 . S
C447 C446 1.394 . S
C447 C457 1.723 . S
C448 C445 1.453 . S
C448 H472 0.982 . S
C448 H473 0.979 . S
C448 H474 0.977 . S
C449 C445 1.684 . S
C449 H475 0.979 . S
C449 H476 0.980 . S
C449 H477 0.983 . S
C450 H426 0.948 . S
C450 C451 1.391 . S
C450 C455 1.391 . S
C451 C450 1.391 . S
C451 C452 1.391 . S
C452 H429 0.947 . S
C452 C451 1.391 . S
C452 C453 1.392 . S
C453 H430 0.948 . S
C453 C452 1.392 . S
C453 C454 1.419 . S
C454 C453 1.419 . S
C454 C455 1.391 . S
C454 C458 1.397 . S
C455 C450 1.391 . S
C455 C454 1.391 . S
C455 C456 1.399 . S
C456 C455 1.399 . S
C456 C457 1.396 . S
C456 C459 1.453 . S
C456 C460 1.684 . S
C457 C447 1.723 . S
C457 C456 1.396 . S
C457 C458 1.394 . S
C458 C428 1.723 . S
C458 C454 1.397 . S
C458 C457 1.394 . S
C459 H431 0.982 . S
C459 H435 0.979 . S
C459 H436 0.977 . S
C459 C456 1.453 . S
C460 H432 0.979 . S
C460 H433 0.980 . S
C460 H434 0.983 . S
C460 C456 1.684 . S
H461 C479 0.948 . S
H462 C420 0.948 . S
H463 C438 0.979 . S
H464 C438 0.980 . S
H465 C438 0.983 . S
H466 C437 0.982 . S
H467 C437 0.979 . S
H468 C437 0.977 . S
H469 C439 0.948 . S
H470 C441 0.947 . S
H471 C442 0.948 . S
H472 C448 0.982 . S
H473 C448 0.979 . S
H474 C448 0.977 . S
H475 C449 0.979 . S
H476 C449 0.980 . S
H477 C449 0.983 . S
H478 C422 0.947 . S
C479 C422 1.392 . S
C479 C423 1.419 . S
C479 H461 0.948 . S
C480 O496 1.251 . S
C480 O498 1.254 1_545 S
N481 C482 1.333 . S
N481 C486 1.307 . S
N481 Zn487 2.020 . S
C482 N481 1.333 . S
C482 C483 1.379 . S
C482 H500 0.952 . S
C483 C482 1.379 . S
C483 C484 1.390 . S
C483 H510 0.949 . S
C484 C483 1.390 . S
C484 C485 1.357 . S
C485 C484 1.357 . S
C485 C486 1.370 . S
C485 H511 0.950 . S
C486 N481 1.307 . S
C486 C485 1.370 . S
C486 H504 0.948 1_455 S
Zn487 N481 2.020 . S
Zn487 O496 2.039 . S
Zn487 O502 2.034 . S
Zn487 O506 2.025 1_455 S
Zn487 O508 2.024 1_455 S
C488 O507 1.246 1_545 S
C488 O508 1.249 . S
N489 C490 1.307 . S
N489 C491 1.333 . S
N489 Zn495 2.020 . S
C490 N489 1.307 . S
C490 C494 1.370 . S
C490 H501 0.948 1_655 S
C491 N489 1.333 . S
C491 C492 1.379 . S
C491 H499 0.952 . S
C492 C491 1.379 . S
C492 C493 1.390 . S
C492 H512 0.949 . S
C493 C492 1.390 . S
C493 C494 1.357 . S
C494 C490 1.370 . S
C494 C493 1.357 . S
C494 H513 0.950 . S
Zn495 N489 2.020 . S
Zn495 O498 2.025 1_655 S
Zn495 O503 2.024 1_655 S
Zn495 O505 2.039 . S
Zn495 O507 2.034 . S
O496 C480 1.251 . S
O496 Zn487 2.039 . S
C497 O502 1.246 1_565 S
C497 O503 1.249 . S
O498 C480 1.254 1_565 S
O498 Zn495 2.025 1_455 S
H499 C491 0.952 . S
H500 C482 0.952 . S
H501 C490 0.948 1_455 S
O502 Zn487 2.034 . S
O502 C497 1.246 1_545 S
O503 Zn495 2.024 1_455 S
O503 C497 1.249 . S
H504 C486 0.948 1_655 S
O505 Zn495 2.039 . S
O505 C509 1.251 . S
O506 Zn487 2.025 1_655 S
O506 C509 1.254 1_545 S
O507 C488 1.246 1_565 S
O507 Zn495 2.034 . S
O508 Zn487 2.024 1_655 S
O508 C488 1.249 . S
C509 O505 1.251 . S
C509 O506 1.254 1_565 S
H510 C483 0.949 . S
H511 C485 0.950 . S
H512 C492 0.949 . S
H513 C494 0.950 . S
C514 O530 1.251 1_565 S
C514 O532 1.254 . S
N515 C516 1.333 . S
N515 C520 1.307 . S
N515 Zn521 2.020 . S
C516 N515 1.333 . S
C516 C517 1.379 . S
C516 H534 0.952 . S
C517 C516 1.379 . S
C517 C518 1.390 . S
C517 H544 0.949 . S
C518 C517 1.390 . S
C518 C519 1.357 . S
C519 C518 1.357 . S
C519 C520 1.370 . S
C519 H545 0.950 . S
C520 N515 1.307 . S
C520 C519 1.370 . S
C520 H538 0.948 . S
Zn521 N515 2.020 . S
Zn521 O530 2.039 . S
Zn521 O536 2.034 1_556 S
Zn521 O540 2.025 1_556 S
Zn521 O542 2.024 . S
C522 O541 1.246 . S
C522 O542 1.249 1_565 S
N523 C524 1.307 . S
N523 C525 1.333 . S
N523 Zn529 2.020 . S
C524 N523 1.307 . S
C524 C528 1.370 . S
C524 H535 0.948 . S
C525 N523 1.333 . S
C525 C526 1.379 . S
C525 H533 0.952 . S
C526 C525 1.379 . S
C526 C527 1.390 . S
C526 H546 0.949 . S
C527 C526 1.390 . S
C527 C528 1.357 . S
C528 C524 1.370 . S
C528 C527 1.357 . S
C528 H547 0.950 . S
Zn529 N523 2.020 . S
Zn529 O532 2.025 1_554 S
Zn529 O537 2.024 . S
Zn529 O539 2.039 . S
Zn529 O541 2.034 1_554 S
O530 C514 1.251 1_545 S
O530 Zn521 2.039 . S
C531 O536 1.246 . S
C531 O537 1.249 1_545 S
O532 C514 1.254 . S
O532 Zn529 2.025 1_556 S
H533 C525 0.952 . S
H534 C516 0.952 . S
H535 C524 0.948 . S
O536 Zn521 2.034 1_554 S
O536 C531 1.246 . S
O537 Zn529 2.024 . S
O537 C531 1.249 1_565 S
H538 C520 0.948 . S
O539 Zn529 2.039 . S
O539 C543 1.251 1_565 S
O540 Zn521 2.025 1_554 S
O540 C543 1.254 . S
O541 C522 1.246 . S
O541 Zn529 2.034 1_556 S
O542 Zn521 2.024 . S
O542 C522 1.249 1_545 S
C543 O539 1.251 1_545 S
C543 O540 1.254 . S
H544 C517 0.949 . S
H545 C519 0.950 . S
H546 C526 0.949 . S
H547 C528 0.950 . S
C548 O564 1.251 . S
C548 O566 1.254 . S
N549 C550 1.333 . S
N549 C554 1.307 . S
N549 Zn555 2.020 . S
C550 N549 1.333 . S
C550 C551 1.379 . S
C550 H568 0.952 . S
C551 C550 1.379 . S
C551 C552 1.390 . S
C551 H578 0.949 . S
C552 C551 1.390 . S
C552 C553 1.357 . S
C553 C552 1.357 . S
C553 C554 1.370 . S
C553 H579 0.950 . S
C554 N549 1.307 . S
C554 C553 1.370 . S
C554 H572 0.948 . S
Zn555 N549 2.020 . S
Zn555 O564 2.039 . S
Zn555 O570 2.034 . S
Zn555 O574 2.025 . S
Zn555 O576 2.024 . S
C556 O575 1.246 . S
C556 O576 1.249 . S
N557 C558 1.307 . S
N557 C559 1.333 . S
N557 Zn563 2.020 . S
C558 N557 1.307 . S
C558 C562 1.370 . S
C558 H569 0.948 . S
C559 N557 1.333 . S
C559 C560 1.379 . S
C559 H567 0.952 . S
C560 C559 1.379 . S
C560 C561 1.390 . S
C560 H580 0.949 . S
C561 C560 1.390 . S
C561 C562 1.357 . S
C562 C558 1.370 . S
C562 C561 1.357 . S
C562 H581 0.950 . S
Zn563 N557 2.020 . S
Zn563 O566 2.025 . S
Zn563 O571 2.024 . S
Zn563 O573 2.039 . S
Zn563 O575 2.034 . S
O564 C548 1.251 . S
O564 Zn555 2.039 . S
C565 O570 1.246 . S
C565 O571 1.249 . S
O566 C548 1.254 . S
O566 Zn563 2.025 . S
H567 C559 0.952 . S
H568 C550 0.952 . S
H569 C558 0.948 . S
O570 Zn555 2.034 . S
O570 C565 1.246 . S
O571 Zn563 2.024 . S
O571 C565 1.249 . S
H572 C554 0.948 . S
O573 Zn563 2.039 . S
O573 C577 1.251 . S
O574 Zn555 2.025 . S
O574 C577 1.254 . S
O575 C556 1.246 . S
O575 Zn563 2.034 . S
O576 Zn555 2.024 . S
O576 C556 1.249 . S
C577 O573 1.251 . S
C577 O574 1.254 . S
H578 C551 0.949 . S
H579 C553 0.950 . S
H580 C560 0.949 . S
H581 C562 0.950 . S
C582 O598 1.251 1_556 S
C582 O600 1.254 . S
N583 C584 1.333 . S
N583 C588 1.307 . S
N583 Zn589 2.020 . S
C584 N583 1.333 . S
C584 C585 1.379 . S
C584 H602 0.952 . S
C585 C584 1.379 . S
C585 C586 1.390 . S
C585 H612 0.949 . S
C586 C585 1.390 . S
C586 C587 1.357 . S
C587 C586 1.357 . S
C587 C588 1.370 . S
C587 H613 0.950 . S
C588 N583 1.307 . S
C588 C587 1.370 . S
C588 H606 0.948 . S
Zn589 N583 2.020 . S
Zn589 O598 2.039 . S
Zn589 O604 2.034 1_655 S
Zn589 O608 2.025 1_655 S
Zn589 O610 2.024 . S
C590 O609 1.246 . S
C590 O610 1.249 1_556 S
N591 C592 1.307 . S
N591 C593 1.333 . S
N591 Zn597 2.020 . S
C592 N591 1.307 . S
C592 C596 1.370 . S
C592 H603 0.948 . S
C593 N591 1.333 . S
C593 C594 1.379 . S
C593 H601 0.952 . S
C594 C593 1.379 . S
C594 C595 1.390 . S
C594 H614 0.949 . S
C595 C594 1.390 . S
C595 C596 1.357 . S
C596 C592 1.370 . S
C596 C595 1.357 . S
C596 H615 0.950 . S
Zn597 N591 2.020 . S
Zn597 O600 2.025 1_455 S
Zn597 O605 2.024 . S
Zn597 O607 2.039 . S
Zn597 O609 2.034 1_455 S
O598 C582 1.251 1_554 S
O598 Zn589 2.039 . S
C599 O604 1.246 . S
C599 O605 1.249 1_554 S
O600 C582 1.254 . S
O600 Zn597 2.025 1_655 S
H601 C593 0.952 . S
H602 C584 0.952 . S
H603 C592 0.948 . S
O604 Zn589 2.034 1_455 S
O604 C599 1.246 . S
O605 Zn597 2.024 . S
O605 C599 1.249 1_556 S
H606 C588 0.948 . S
O607 Zn597 2.039 . S
O607 C611 1.251 1_556 S
O608 Zn589 2.025 1_455 S
O608 C611 1.254 . S
O609 C590 1.246 . S
O609 Zn597 2.034 1_655 S
O610 Zn589 2.024 . S
O610 C590 1.249 1_554 S
C611 O607 1.251 1_554 S
C611 O608 1.254 . S
H612 C585 0.949 . S
H613 C587 0.950 . S
H614 C594 0.949 . S
H615 C596 0.950 . S
H616 C634 0.951 . S
H617 C636 0.951 . S
H618 C638 0.950 . S
H619 C639 0.950 . S
H620 C641 0.950 . S
H621 C644 0.950 . S
H622 C645 0.950 . S
H623 C647 0.950 . S
H624 C648 0.950 . S
H625 C649 0.951 . S
H626 C651 0.951 . S
H627 C653 0.950 . S
H628 C654 0.950 1_565 S
H629 C656 0.950 . S
H630 C659 0.950 . S
H631 C660 0.950 . S
H632 C662 0.950 . S
H633 C663 0.950 . S
C634 H616 0.951 . S
C634 C635 1.366 . S
C634 C636 1.388 . S
C635 C634 1.366 . S
C635 C639 1.385 . S
C636 H617 0.951 . S
C636 C634 1.388 . S
C636 C637 1.366 . S
C637 C636 1.366 . S
C637 C638 1.414 . S
C637 C640 1.499 . S
C638 H618 0.950 . S
C638 C637 1.414 . S
C638 C639 1.374 . S
C639 H619 0.950 . S
C639 C635 1.385 . S
C639 C638 1.374 . S
C640 C637 1.499 . S
C640 C641 1.373 . S
C640 C642 1.389 . S
C641 H620 0.950 . S
C641 C640 1.373 . S
C641 C657 1.377 . S
C642 C640 1.389 . S
C642 C643 1.524 . S
C642 C656 1.377 . S
C643 C642 1.524 . S
C643 C644 1.397 . S
C643 C648 1.363 1_545 S
C644 H621 0.950 . S
C644 C643 1.397 . S
C644 C645 1.334 . S
C645 H622 0.950 . S
C645 C644 1.334 . S
C645 C646 1.287 1_545 S
C646 C645 1.287 1_565 S
C646 C647 1.524 . S
C646 H665 0.913 . S
C647 H623 0.950 . S
C647 C646 1.524 . S
C647 C648 1.415 . S
C648 H624 0.950 . S
C648 C643 1.363 1_565 S
C648 C647 1.415 . S
C649 H625 0.951 . S
C649 C650 1.366 . S
C649 C651 1.388 . S
C650 C649 1.366 . S
C650 C654 1.385 . S
C651 H626 0.951 . S
C651 C649 1.388 . S
C651 C652 1.366 . S
C652 C651 1.366 . S
C652 C653 1.414 . S
C652 C655 1.499 . S
C653 H627 0.950 . S
C653 C652 1.414 . S
C653 C654 1.374 . S
C654 H628 0.950 1_545 S
C654 C650 1.385 . S
C654 C653 1.374 . S
C655 C652 1.499 . S
C655 C656 1.373 . S
C655 C657 1.389 . S
C656 H629 0.950 . S
C656 C642 1.377 . S
C656 C655 1.373 . S
C657 C641 1.377 . S
C657 C655 1.389 . S
C657 C658 1.524 . S
C658 C657 1.524 . S
C658 C659 1.397 . S
C658 C663 1.363 . S
C659 H630 0.950 . S
C659 C658 1.397 . S
C659 C660 1.334 . S
C660 H631 0.950 . S
C660 C659 1.334 . S
C660 C661 1.287 . S
C661 C660 1.287 . S
C661 C662 1.524 . S
C661 H664 0.999 . S
C662 H632 0.950 . S
C662 C661 1.524 . S
C662 C663 1.415 . S
C663 H633 0.950 . S
C663 C658 1.363 . S
C663 C662 1.415 . S
H664 C661 0.999 . S
H665 C646 0.913 . S
H666 C684 0.951 . S
H667 C686 0.951 . S
H668 C688 0.950 . S
H669 C689 0.950 . S
H670 C691 0.950 . S
H671 C694 0.950 . S
H672 C695 0.950 . S
H673 C697 0.950 . S
H674 C698 0.950 . S
H675 C699 0.951 . S
H676 C701 0.951 . S
H677 C703 0.950 . S
H678 C704 0.942 1_545 S
H679 C706 0.950 . S
H680 C709 0.950 . S
H681 C710 0.950 1_545 S
H682 C712 0.950 . S
H683 C713 0.950 . S
C684 H666 0.951 . S
C684 C685 1.366 . S
C684 C686 1.388 . S
C685 C684 1.366 . S
C685 C689 1.385 . S
C686 H667 0.951 . S
C686 C684 1.388 . S
C686 C687 1.366 . S
C687 C686 1.366 . S
C687 C688 1.414 . S
C687 C690 1.499 . S
C688 H668 0.950 . S
C688 C687 1.414 . S
C688 C689 1.374 . S
C689 H669 0.950 . S
C689 C685 1.385 . S
C689 C688 1.374 . S
C690 C687 1.499 . S
C690 C691 1.373 . S
C690 C692 1.389 . S
C691 H670 0.950 . S
C691 C690 1.373 . S
C691 C707 1.377 . S
C692 C690 1.389 . S
C692 C693 1.524 . S
C692 C706 1.377 . S
C693 C692 1.524 . S
C693 C694 1.397 . S
C693 C698 1.363 . S
C694 H671 0.950 . S
C694 C693 1.397 . S
C694 C695 1.334 . S
C695 H672 0.950 . S
C695 C694 1.334 . S
C695 C696 1.287 . S
C696 C695 1.287 . S
C696 C697 1.524 . S
C696 H715 0.913 . S
C697 H673 0.950 . S
C697 C696 1.524 . S
C697 C698 1.415 . S
C698 H674 0.950 . S
C698 C693 1.363 . S
C698 C697 1.415 . S
C699 H675 0.951 . S
C699 C700 1.366 . S
C699 C701 1.388 . S
C700 C699 1.366 . S
C700 C704 1.385 . S
C701 H676 0.951 . S
C701 C699 1.388 . S
C701 C702 1.366 . S
C702 C701 1.366 . S
C702 C703 1.414 . S
C702 C705 1.499 . S
C703 H677 0.950 . S
C703 C702 1.414 . S
C703 C704 1.374 . S
C704 H678 0.942 1_565 S
C704 C700 1.385 . S
C704 C703 1.374 . S
C705 C702 1.499 . S
C705 C706 1.373 . S
C705 C707 1.389 . S
C706 H679 0.950 . S
C706 C692 1.377 . S
C706 C705 1.373 . S
C707 C691 1.377 . S
C707 C705 1.389 . S
C707 C708 1.524 . S
C708 C707 1.524 . S
C708 C709 1.397 . S
C708 C713 1.363 . S
C709 H680 0.950 . S
C709 C708 1.397 . S
C709 C710 1.334 . S
C710 H681 0.950 1_565 S
C710 C709 1.334 . S
C710 C711 1.287 . S
C711 C710 1.287 . S
C711 C712 1.524 . S
C711 H714 0.999 . S
C712 H682 0.950 . S
C712 C711 1.524 . S
C712 C713 1.415 . S
C713 H683 0.950 . S
C713 C708 1.363 . S
C713 C712 1.415 . S
H714 C711 0.999 . S
H715 C696 0.913 . S
H716 C734 0.951 . S
H717 C736 0.951 . S
H718 C738 0.950 . S
H719 C739 0.950 . S
H720 C741 0.950 . S
H721 C744 0.950 . S
H722 C745 0.950 . S
H723 C747 0.950 . S
H724 C748 0.950 . S
H725 C749 0.951 . S
H726 C751 0.951 . S
H727 C753 0.950 . S
H728 C754 0.950 . S
H729 C756 0.950 . S
H730 C759 0.950 . S
H731 C760 0.950 . S
H732 C762 0.950 . S
H733 C763 0.950 . S
C734 H716 0.951 . S
C734 C735 1.366 . S
C734 C736 1.388 . S
C735 C734 1.366 . S
C735 C739 1.385 . S
C736 H717 0.951 . S
C736 C734 1.388 . S
C736 C737 1.366 . S
C737 C736 1.366 . S
C737 C738 1.414 . S
C737 C740 1.499 . S
C738 H718 0.950 . S
C738 C737 1.414 . S
C738 C739 1.374 . S
C739 H719 0.950 . S
C739 C735 1.385 . S
C739 C738 1.374 . S
C740 C737 1.499 . S
C740 C741 1.373 . S
C740 C742 1.389 . S
C741 H720 0.950 . S
C741 C740 1.373 . S
C741 C757 1.377 . S
C742 C740 1.389 . S
C742 C743 1.524 . S
C742 C756 1.377 . S
C743 C742 1.524 . S
C743 C744 1.397 . S
C743 C748 1.363 . S
C744 H721 0.950 . S
C744 C743 1.397 . S
C744 C745 1.334 . S
C745 H722 0.950 . S
C745 C744 1.334 . S
C745 C746 1.287 . S
C746 C745 1.287 . S
C746 C747 1.524 . S
C746 H765 0.913 . S
C747 H723 0.950 . S
C747 C746 1.524 . S
C747 C748 1.415 . S
C748 H724 0.950 . S
C748 C743 1.363 . S
C748 C747 1.415 . S
C749 H725 0.951 . S
C749 C750 1.366 . S
C749 C751 1.388 . S
C750 C749 1.366 . S
C750 C754 1.385 . S
C751 H726 0.951 . S
C751 C749 1.388 . S
C751 C752 1.366 . S
C752 C751 1.366 . S
C752 C753 1.414 . S
C752 C755 1.499 . S
C753 H727 0.950 . S
C753 C752 1.414 . S
C753 C754 1.374 . S
C754 H728 0.950 . S
C754 C750 1.385 . S
C754 C753 1.374 . S
C755 C752 1.499 . S
C755 C756 1.373 . S
C755 C757 1.389 . S
C756 H729 0.950 . S
C756 C742 1.377 . S
C756 C755 1.373 . S
C757 C741 1.377 . S
C757 C755 1.389 . S
C757 C758 1.524 . S
C758 C757 1.524 . S
C758 C759 1.397 . S
C758 C763 1.363 . S
C759 H730 0.950 . S
C759 C758 1.397 . S
C759 C760 1.334 . S
C760 H731 0.950 . S
C760 C759 1.334 . S
C760 C761 1.287 . S
C761 C760 1.287 . S
C761 C762 1.524 . S
C761 H764 0.999 . S
C762 H732 0.950 . S
C762 C761 1.524 . S
C762 C763 1.415 . S
C763 H733 0.950 . S
C763 C758 1.363 . S
C763 C762 1.415 . S
H764 C761 0.999 . S
H765 C746 0.913 . S
H766 C784 0.951 . S
H767 C786 0.951 . S
H768 C788 0.950 . S
H769 C789 0.950 . S
H770 C791 0.950 . S
H771 C794 0.950 . S
H772 C795 0.950 . S
H773 C797 0.950 . S
H774 C798 0.950 . S
H775 C799 0.951 . S
H776 C801 0.951 . S
H777 C803 0.950 . S
H778 C804 0.950 . S
H779 C806 0.950 . S
H780 C809 0.950 . S
H781 C810 0.950 . S
H782 C812 0.950 . S
H783 C813 0.950 . S
C784 H766 0.951 . S
C784 C785 1.366 . S
C784 C786 1.388 . S
C785 C784 1.366 . S
C785 C789 1.385 . S
C786 H767 0.951 . S
C786 C784 1.388 . S
C786 C787 1.366 . S
C787 C786 1.366 . S
C787 C788 1.414 . S
C787 C790 1.499 . S
C788 H768 0.950 . S
C788 C787 1.414 . S
C788 C789 1.374 . S
C789 H769 0.950 . S
C789 C785 1.385 . S
C789 C788 1.374 . S
C790 C787 1.499 . S
C790 C791 1.373 . S
C790 C792 1.389 . S
C791 H770 0.950 . S
C791 C790 1.373 . S
C791 C807 1.377 . S
C792 C790 1.389 . S
C792 C793 1.524 . S
C792 C806 1.377 . S
C793 C792 1.524 . S
C793 C794 1.397 . S
C793 C798 1.363 . S
C794 H771 0.950 . S
C794 C793 1.397 . S
C794 C795 1.334 . S
C795 H772 0.950 . S
C795 C794 1.334 . S
C795 C796 1.287 . S
C796 C795 1.287 . S
C796 C797 1.524 . S
C796 H815 0.913 . S
C797 H773 0.950 . S
C797 C796 1.524 . S
C797 C798 1.415 . S
C798 H774 0.950 . S
C798 C793 1.363 . S
C798 C797 1.415 . S
C799 H775 0.951 . S
C799 C800 1.366 . S
C799 C801 1.388 . S
C800 C799 1.366 . S
C800 C804 1.385 . S
C801 H776 0.951 . S
C801 C799 1.388 . S
C801 C802 1.366 . S
C802 C801 1.366 . S
C802 C803 1.414 . S
C802 C805 1.499 . S
C803 H777 0.950 . S
C803 C802 1.414 . S
C803 C804 1.374 . S
C804 H778 0.950 . S
C804 C800 1.385 . S
C804 C803 1.374 . S
C805 C802 1.499 . S
C805 C806 1.373 . S
C805 C807 1.389 . S
C806 H779 0.950 . S
C806 C792 1.377 . S
C806 C805 1.373 . S
C807 C791 1.377 . S
C807 C805 1.389 . S
C807 C808 1.524 . S
C808 C807 1.524 . S
C808 C809 1.397 . S
C808 C813 1.363 . S
C809 H780 0.950 . S
C809 C808 1.397 . S
C809 C810 1.334 . S
C810 H781 0.950 . S
C810 C809 1.334 . S
C810 C811 1.287 . S
C811 C810 1.287 . S
C811 C812 1.524 1_655 S
C811 H814 0.999 1_655 S
C812 H782 0.950 . S
C812 C811 1.524 1_455 S
C812 C813 1.415 1_455 S
C813 H783 0.950 . S
C813 C808 1.363 . S
C813 C812 1.415 1_655 S
H814 C811 0.999 1_455 S
H815 C796 0.913 . S
H816 C834 0.951 . S
H817 C836 0.951 . S
H818 C838 0.950 . S
H819 C839 0.950 . S
H820 C841 0.950 . S
H821 C844 0.950 . S
H822 C845 0.950 . S
H823 C847 0.950 . S
H824 C848 0.950 . S
H825 C849 0.951 . S
H826 C851 0.951 . S
H827 C853 0.950 . S
H828 C854 0.950 1_565 S
H829 C856 0.950 . S
H830 C859 0.948 . S
H831 C860 0.950 . S
H832 C862 0.950 . S
H833 C863 0.950 . S
C834 H816 0.951 . S
C834 C835 1.366 . S
C834 C836 1.388 . S
C835 C834 1.366 . S
C835 C839 1.385 . S
C836 H817 0.951 . S
C836 C834 1.388 . S
C836 C837 1.366 . S
C837 C836 1.366 . S
C837 C838 1.414 . S
C837 C840 1.499 . S
C838 H818 0.950 . S
C838 C837 1.414 . S
C838 C839 1.374 . S
C839 H819 0.950 . S
C839 C835 1.385 . S
C839 C838 1.374 . S
C840 C837 1.499 . S
C840 C841 1.373 . S
C840 C842 1.389 . S
C841 H820 0.950 . S
C841 C840 1.373 . S
C841 C857 1.377 . S
C842 C840 1.389 . S
C842 C843 1.524 . S
C842 C856 1.377 . S
C843 C842 1.524 . S
C843 C844 1.397 . S
C843 C848 1.363 1_545 S
C844 H821 0.950 . S
C844 C843 1.397 . S
C844 C845 1.334 . S
C845 H822 0.950 . S
C845 C844 1.334 . S
C845 C846 1.287 1_545 S
C846 C845 1.287 1_565 S
C846 C847 1.524 . S
C846 H865 0.913 . S
C847 H823 0.950 . S
C847 C846 1.524 . S
C847 C848 1.415 . S
C848 H824 0.950 . S
C848 C843 1.363 1_565 S
C848 C847 1.415 . S
C849 H825 0.951 . S
C849 C850 1.366 . S
C849 C851 1.388 . S
C850 C849 1.366 . S
C850 C854 1.385 . S
C851 H826 0.951 . S
C851 C849 1.388 . S
C851 C852 1.366 . S
C852 C851 1.366 . S
C852 C853 1.414 . S
C852 C855 1.499 . S
C853 H827 0.950 . S
C853 C852 1.414 . S
C853 C854 1.374 . S
C854 H828 0.950 1_545 S
C854 C850 1.385 . S
C854 C853 1.374 . S
C855 C852 1.499 . S
C855 C856 1.373 . S
C855 C857 1.389 . S
C856 H829 0.950 . S
C856 C842 1.377 . S
C856 C855 1.373 . S
C857 C841 1.377 . S
C857 C855 1.389 . S
C857 C858 1.524 . S
C858 C857 1.524 . S
C858 C859 1.402 1_554 S
C858 C863 1.363 . S
C859 H830 0.948 . S
C859 C858 1.402 1_556 S
C859 C860 1.330 . S
C860 H831 0.950 . S
C860 C859 1.330 . S
C860 C861 1.287 . S
C861 C860 1.287 . S
C861 C862 1.524 1_556 S
C861 H864 0.999 . S
C862 H832 0.950 . S
C862 C861 1.524 1_554 S
C862 C863 1.415 . S
C863 H833 0.950 . S
C863 C858 1.363 . S
C863 C862 1.415 . S
H864 C861 0.999 . S
H865 C846 0.913 . S
H866 C884 0.951 . S
H867 C886 0.951 . S
H868 C888 0.950 . S
H869 C889 0.950 . S
H870 C891 0.950 . S
H871 C894 0.950 . S
H872 C895 0.950 . S
H873 C897 0.950 . S
H874 C898 0.950 . S
H875 C899 0.951 . S
H876 C901 0.951 . S
H877 C903 0.950 . S
H878 C904 0.950 . S
H879 C906 0.950 . S
H880 C909 0.950 . S
H881 C910 0.950 . S
H882 C912 0.950 . S
H883 C913 0.950 1_565 S
C884 H866 0.951 . S
C884 C885 1.366 . S
C884 C886 1.388 . S
C885 C884 1.366 . S
C885 C889 1.385 . S
C886 H867 0.951 . S
C886 C884 1.388 . S
C886 C887 1.366 . S
C887 C886 1.366 . S
C887 C888 1.414 . S
C887 C890 1.499 . S
C888 H868 0.950 . S
C888 C887 1.414 . S
C888 C889 1.374 . S
C889 H869 0.950 . S
C889 C885 1.385 . S
C889 C888 1.374 . S
C890 C887 1.499 . S
C890 C891 1.373 . S
C890 C892 1.389 . S
C891 H870 0.950 . S
C891 C890 1.373 . S
C891 C907 1.377 . S
C892 C890 1.389 . S
C892 C893 1.524 . S
C892 C906 1.377 . S
C893 C892 1.524 . S
C893 C894 1.397 . S
C893 C898 1.363 . S
C894 H871 0.950 . S
C894 C893 1.397 . S
C894 C895 1.334 . S
C895 H872 0.950 . S
C895 C894 1.334 . S
C895 C896 1.287 . S
C896 C895 1.287 . S
C896 C897 1.524 . S
C896 H915 0.913 . S
C897 H873 0.950 . S
C897 C896 1.524 . S
C897 C898 1.415 . S
C898 H874 0.950 . S
C898 C893 1.363 . S
C898 C897 1.415 . S
C899 H875 0.951 . S
C899 C900 1.366 . S
C899 C901 1.388 . S
C900 C899 1.366 . S
C900 C904 1.385 . S
C901 H876 0.951 . S
C901 C899 1.388 . S
C901 C902 1.366 . S
C902 C901 1.366 . S
C902 C903 1.414 . S
C902 C905 1.499 . S
C903 H877 0.950 . S
C903 C902 1.414 . S
C903 C904 1.374 . S
C904 H878 0.950 . S
C904 C900 1.385 . S
C904 C903 1.374 . S
C905 C902 1.499 . S
C905 C906 1.373 . S
C905 C907 1.389 . S
C906 H879 0.950 . S
C906 C892 1.377 . S
C906 C905 1.373 . S
C907 C891 1.377 . S
C907 C905 1.389 . S
C907 C908 1.524 . S
C908 C907 1.524 . S
C908 C909 1.397 1_565 S
C908 C913 1.363 1_565 S
C909 H880 0.950 . S
C909 C908 1.397 1_545 S
C909 C910 1.334 . S
C910 H881 0.950 . S
C910 C909 1.334 . S
C910 C911 1.287 . S
C911 C910 1.287 . S
C911 C912 1.524 . S
C911 H914 0.999 . S
C912 H882 0.950 . S
C912 C911 1.524 . S
C912 C913 1.415 . S
C913 H883 0.950 1_545 S
C913 C908 1.363 1_545 S
C913 C912 1.415 . S
H914 C911 0.999 . S
H915 C896 0.913 . S
H916 C934 0.951 . S
H917 C936 0.951 . S
H918 C938 0.950 . S
H919 C939 0.950 . S
H920 C941 0.950 . S
H921 C944 0.950 . S
H922 C945 0.950 . S
H923 C947 0.950 . S
H924 C948 0.950 . S
H925 C949 0.951 1_554 S
H926 C951 0.951 1_554 S
H927 C953 0.950 . S
H928 C954 0.950 . S
H929 C956 0.950 . S
H930 C959 0.918 1_556 S
H931 C960 0.950 . S
H932 C962 0.950 . S
H933 C963 0.950 . S
C934 H916 0.951 . S
C934 C935 1.366 . S
C934 C936 1.388 . S
C935 C934 1.366 . S
C935 C939 1.385 . S
C936 H917 0.951 . S
C936 C934 1.388 . S
C936 C937 1.366 . S
C937 C936 1.366 . S
C937 C938 1.414 . S
C937 C940 1.499 . S
C938 H918 0.950 . S
C938 C937 1.414 . S
C938 C939 1.374 . S
C939 H919 0.950 . S
C939 C935 1.385 . S
C939 C938 1.374 . S
C940 C937 1.499 . S
C940 C941 1.373 . S
C940 C942 1.389 . S
C941 H920 0.950 . S
C941 C940 1.373 . S
C941 C957 1.377 . S
C942 C940 1.389 . S
C942 C943 1.524 . S
C942 C956 1.377 . S
C943 C942 1.524 . S
C943 C944 1.397 . S
C943 C948 1.363 . S
C944 H921 0.950 . S
C944 C943 1.397 . S
C944 C945 1.334 . S
C945 H922 0.950 . S
C945 C944 1.334 . S
C945 C946 1.287 . S
C946 C945 1.287 . S
C946 C947 1.524 . S
C946 H965 0.913 . S
C947 H923 0.950 . S
C947 C946 1.524 . S
C947 C948 1.415 . S
C948 H924 0.950 . S
C948 C943 1.363 . S
C948 C947 1.415 . S
C949 H925 0.951 1_556 S
C949 C950 1.366 . S
C949 C951 1.388 . S
C950 C949 1.366 . S
C950 C954 1.385 . S
C951 H926 0.951 1_556 S
C951 C949 1.388 . S
C951 C952 1.366 . S
C952 C951 1.366 . S
C952 C953 1.414 . S
C952 C955 1.499 . S
C953 H927 0.950 . S
C953 C952 1.414 . S
C953 C954 1.374 . S
C954 H928 0.950 . S
C954 C950 1.385 . S
C954 C953 1.374 . S
C955 C952 1.499 . S
C955 C956 1.373 . S
C955 C957 1.389 . S
C956 H929 0.950 . S
C956 C942 1.377 . S
C956 C955 1.373 . S
C957 C941 1.377 . S
C957 C955 1.389 . S
C957 C958 1.524 1_556 S
C958 C957 1.524 1_554 S
C958 C959 1.401 . S
C958 C963 1.363 . S
C959 H930 0.918 1_554 S
C959 C958 1.401 . S
C959 C960 1.362 . S
C960 H931 0.950 . S
C960 C959 1.362 . S
C960 C961 1.287 . S
C961 C960 1.287 . S
C961 C962 1.524 . S
C961 H964 0.999 . S
C962 H932 0.950 . S
C962 C961 1.524 . S
C962 C963 1.415 . S
C963 H933 0.950 . S
C963 C958 1.363 . S
C963 C962 1.415 . S
H964 C961 0.999 . S
H965 C946 0.913 . S
H966 C984 0.951 . S
H967 C986 0.951 . S
H968 C988 0.950 . S
H969 C989 0.950 . S
H970 C991 0.950 . S
H971 C994 0.950 . S
H972 C995 0.950 . S
H973 C997 0.950 . S
H974 C998 0.950 . S
H975 C999 0.951 . S
H976 C1001 0.951 . S
H977 C1003 0.950 . S
H978 C1004 0.950 . S
H979 C1006 0.950 . S
H980 C1009 0.950 . S
H981 C1010 0.950 . S
H982 C1012 0.950 . S
H983 C1013 0.950 . S
C984 H966 0.951 . S
C984 C985 1.366 . S
C984 C986 1.388 . S
C985 C984 1.366 . S
C985 C989 1.385 . S
C986 H967 0.951 . S
C986 C984 1.388 . S
C986 C987 1.366 . S
C987 C986 1.366 . S
C987 C988 1.414 . S
C987 C990 1.499 . S
C988 H968 0.950 . S
C988 C987 1.414 . S
C988 C989 1.374 . S
C989 H969 0.950 . S
C989 C985 1.385 . S
C989 C988 1.374 . S
C990 C987 1.499 . S
C990 C991 1.373 . S
C990 C992 1.389 . S
C991 H970 0.950 . S
C991 C990 1.373 . S
C991 C1007 1.377 . S
C992 C990 1.389 . S
C992 C993 1.524 . S
C992 C1006 1.377 . S
C993 C992 1.524 . S
C993 C994 1.397 . S
C993 C998 1.363 . S
C994 H971 0.950 . S
C994 C993 1.397 . S
C994 C995 1.334 . S
C995 H972 0.950 . S
C995 C994 1.334 . S
C995 C996 1.287 . S
C996 C995 1.287 . S
C996 C997 1.524 . S
C996 H1015 0.913 . S
C997 H973 0.950 . S
C997 C996 1.524 . S
C997 C998 1.415 . S
C998 H974 0.950 . S
C998 C993 1.363 . S
C998 C997 1.415 . S
C999 H975 0.951 . S
C999 C1000 1.366 . S
C999 C1001 1.388 . S
C1000 C999 1.366 . S
C1000 C1004 1.385 . S
C1001 H976 0.951 . S
C1001 C999 1.388 . S
C1001 C1002 1.366 . S
C1002 C1001 1.366 . S
C1002 C1003 1.414 . S
C1002 C1005 1.499 . S
C1003 H977 0.950 . S
C1003 C1002 1.414 . S
C1003 C1004 1.374 . S
C1004 H978 0.950 . S
C1004 C1000 1.385 . S
C1004 C1003 1.374 . S
C1005 C1002 1.499 . S
C1005 C1006 1.373 . S
C1005 C1007 1.389 . S
C1006 H979 0.950 . S
C1006 C992 1.377 . S
C1006 C1005 1.373 . S
C1007 C991 1.377 . S
C1007 C1005 1.389 . S
C1007 C1008 1.524 . S
C1008 C1007 1.524 . S
C1008 C1009 1.397 . S
C1008 C1013 1.363 . S
C1009 H980 0.950 . S
C1009 C1008 1.397 . S
C1009 C1010 1.334 . S
C1010 H981 0.950 . S
C1010 C1009 1.334 . S
C1010 C1011 1.287 . S
C1011 C1010 1.287 . S
C1011 C1012 1.524 . S
C1011 H1014 0.999 . S
C1012 H982 0.950 . S
C1012 C1011 1.524 . S
C1012 C1013 1.415 . S
C1013 H983 0.950 . S
C1013 C1008 1.363 . S
C1013 C1012 1.415 . S
H1014 C1011 0.999 . S
H1015 C996 0.913 . S
H1016 C1034 0.951 . S
H1017 C1036 0.951 . S
H1018 C1038 0.950 . S
H1019 C1039 0.950 . S
H1020 C1041 0.950 . S
H1021 C1044 0.950 . S
H1022 C1045 0.950 . S
H1023 C1047 0.950 . S
H1024 C1048 0.950 . S
H1025 C1049 0.951 1_655 S
H1026 C1051 0.955 . S
H1027 C1053 0.950 . S
H1028 C1054 0.950 . S
H1029 C1056 0.950 . S
H1030 C1059 0.950 . S
H1031 C1060 0.950 . S
H1032 C1062 0.950 . S
H1033 C1063 0.950 . S
C1034 H1016 0.951 . S
C1034 C1035 1.366 . S
C1034 C1036 1.388 . S
C1035 C1034 1.366 . S
C1035 C1039 1.385 . S
C1036 H1017 0.951 . S
C1036 C1034 1.388 . S
C1036 C1037 1.366 . S
C1037 C1036 1.366 . S
C1037 C1038 1.414 . S
C1037 C1040 1.499 . S
C1038 H1018 0.950 . S
C1038 C1037 1.414 . S
C1038 C1039 1.374 . S
C1039 H1019 0.950 . S
C1039 C1035 1.385 . S
C1039 C1038 1.374 . S
C1040 C1037 1.499 . S
C1040 C1041 1.373 . S
C1040 C1042 1.389 . S
C1041 H1020 0.950 . S
C1041 C1040 1.373 . S
C1041 C1057 1.377 . S
C1042 C1040 1.389 . S
C1042 C1043 1.524 . S
C1042 C1056 1.377 . S
C1043 C1042 1.524 . S
C1043 C1044 1.397 . S
C1043 C1048 1.363 . S
C1044 H1021 0.950 . S
C1044 C1043 1.397 . S
C1044 C1045 1.334 . S
C1045 H1022 0.950 . S
C1045 C1044 1.334 . S
C1045 C1046 1.287 . S
C1046 C1045 1.287 . S
C1046 C1047 1.524 . S
C1046 H1065 0.913 . S
C1047 H1023 0.950 . S
C1047 C1046 1.524 . S
C1047 C1048 1.415 . S
C1048 H1024 0.950 . S
C1048 C1043 1.363 . S
C1048 C1047 1.415 . S
C1049 H1025 0.951 1_455 S
C1049 C1050 1.366 . S
C1049 C1051 1.388 . S
C1050 C1049 1.366 . S
C1050 C1054 1.385 . S
C1051 H1026 0.955 . S
C1051 C1049 1.388 . S
C1051 C1052 1.366 . S
C1052 C1051 1.366 . S
C1052 C1053 1.414 . S
C1052 C1055 1.499 . S
C1053 H1027 0.950 . S
C1053 C1052 1.414 . S
C1053 C1054 1.374 . S
C1054 H1028 0.950 . S
C1054 C1050 1.385 . S
C1054 C1053 1.374 . S
C1055 C1052 1.499 . S
C1055 C1056 1.373 . S
C1055 C1057 1.389 . S
C1056 H1029 0.950 . S
C1056 C1042 1.377 . S
C1056 C1055 1.373 . S
C1057 C1041 1.377 . S
C1057 C1055 1.389 . S
C1057 C1058 1.524 . S
C1058 C1057 1.524 . S
C1058 C1059 1.397 1_554 S
C1058 C1063 1.363 1_455 S
C1059 H1030 0.950 . S
C1059 C1058 1.397 1_556 S
C1059 C1060 1.334 . S
C1060 H1031 0.950 . S
C1060 C1059 1.334 . S
C1060 C1061 1.287 1_455 S
C1061 C1060 1.287 1_655 S
C1061 C1062 1.524 . S
C1061 H1064 0.999 . S
C1062 H1032 0.950 . S
C1062 C1061 1.524 . S
C1062 C1063 1.415 1_556 S
C1063 H1033 0.950 . S
C1063 C1058 1.363 1_655 S
C1063 C1062 1.415 1_554 S
H1064 C1061 0.999 . S
H1065 C1046 0.913 . S
H1066 C1084 0.951 . S
H1067 C1086 0.951 . S
H1068 C1088 0.950 . S
H1069 C1089 0.950 . S
H1070 C1091 0.950 . S
H1071 C1094 0.950 . S
H1072 C1095 0.950 . S
H1073 C1097 0.950 . S
H1074 C1098 0.950 . S
H1075 C1099 0.951 . S
H1076 C1101 0.951 . S
H1077 C1103 0.950 . S
H1078 C1104 0.950 . S
H1079 C1106 0.950 . S
H1080 C1109 0.950 . S
H1081 C1110 0.950 . S
H1082 C1112 0.950 . S
H1083 C1113 0.950 . S
C1084 H1066 0.951 . S
C1084 C1085 1.366 . S
C1084 C1086 1.388 . S
C1085 C1084 1.366 . S
C1085 C1089 1.385 . S
C1086 H1067 0.951 . S
C1086 C1084 1.388 . S
C1086 C1087 1.366 . S
C1087 C1086 1.366 . S
C1087 C1088 1.414 . S
C1087 C1090 1.499 . S
C1088 H1068 0.950 . S
C1088 C1087 1.414 . S
C1088 C1089 1.374 . S
C1089 H1069 0.950 . S
C1089 C1085 1.385 . S
C1089 C1088 1.374 . S
C1090 C1087 1.499 . S
C1090 C1091 1.373 . S
C1090 C1092 1.389 . S
C1091 H1070 0.950 . S
C1091 C1090 1.373 . S
C1091 C1107 1.377 . S
C1092 C1090 1.389 . S
C1092 C1093 1.524 . S
C1092 C1106 1.377 . S
C1093 C1092 1.524 . S
C1093 C1094 1.397 . S
C1093 C1098 1.363 . S
C1094 H1071 0.950 . S
C1094 C1093 1.397 . S
C1094 C1095 1.334 1_556 S
C1095 H1072 0.950 . S
C1095 C1094 1.334 1_554 S
C1095 C1096 1.287 . S
C1096 C1095 1.287 . S
C1096 C1097 1.524 . S
C1096 H1115 0.913 . S
C1097 H1073 0.950 . S
C1097 C1096 1.524 . S
C1097 C1098 1.415 1_554 S
C1098 H1074 0.950 . S
C1098 C1093 1.363 . S
C1098 C1097 1.415 1_556 S
C1099 H1075 0.951 . S
C1099 C1100 1.366 . S
C1099 C1101 1.388 . S
C1100 C1099 1.366 . S
C1100 C1104 1.385 . S
C1101 H1076 0.951 . S
C1101 C1099 1.388 . S
C1101 C1102 1.366 . S
C1102 C1101 1.366 . S
C1102 C1103 1.414 . S
C1102 C1105 1.499 . S
C1103 H1077 0.950 . S
C1103 C1102 1.414 . S
C1103 C1104 1.374 . S
C1104 H1078 0.950 . S
C1104 C1100 1.385 . S
C1104 C1103 1.374 . S
C1105 C1102 1.499 . S
C1105 C1106 1.373 . S
C1105 C1107 1.389 . S
C1106 H1079 0.950 . S
C1106 C1092 1.377 . S
C1106 C1105 1.373 . S
C1107 C1091 1.377 . S
C1107 C1105 1.389 . S
C1107 C1108 1.524 . S
C1108 C1107 1.524 . S
C1108 C1109 1.397 . S
C1108 C1113 1.363 . S
C1109 H1080 0.950 . S
C1109 C1108 1.397 . S
C1109 C1110 1.334 . S
C1110 H1081 0.950 . S
C1110 C1109 1.334 . S
C1110 C1111 1.287 . S
C1111 C1110 1.287 . S
C1111 C1112 1.524 . S
C1111 H1114 0.999 . S
C1112 H1082 0.950 . S
C1112 C1111 1.524 . S
C1112 C1113 1.415 . S
C1113 H1083 0.950 . S
C1113 C1108 1.363 . S
C1113 C1112 1.415 . S
H1114 C1111 0.999 . S
H1115 C1096 0.913 . S
H1116 C1134 0.951 . S
H1117 C1136 0.951 . S
H1118 C1138 0.950 . S
H1119 C1139 0.950 . S
H1120 C1141 0.950 . S
H1121 C1144 0.950 . S
H1122 C1145 0.950 . S
H1123 C1147 0.950 . S
H1124 C1148 0.950 . S
H1125 C1149 0.951 . S
H1126 C1151 0.951 . S
H1127 C1153 0.950 . S
H1128 C1154 0.950 . S
H1129 C1156 0.950 . S
H1130 C1159 0.950 . S
H1131 C1160 0.950 . S
H1132 C1162 0.950 . S
H1133 C1163 0.950 . S
C1134 H1116 0.951 . S
C1134 C1135 1.366 . S
C1134 C1136 1.388 . S
C1135 C1134 1.366 . S
C1135 C1139 1.385 . S
C1136 H1117 0.951 . S
C1136 C1134 1.388 . S
C1136 C1137 1.366 . S
C1137 C1136 1.366 . S
C1137 C1138 1.414 . S
C1137 C1140 1.499 . S
C1138 H1118 0.950 . S
C1138 C1137 1.414 . S
C1138 C1139 1.374 . S
C1139 H1119 0.950 . S
C1139 C1135 1.385 . S
C1139 C1138 1.374 . S
C1140 C1137 1.499 . S
C1140 C1141 1.373 . S
C1140 C1142 1.389 . S
C1141 H1120 0.950 . S
C1141 C1140 1.373 . S
C1141 C1157 1.377 . S
C1142 C1140 1.389 . S
C1142 C1143 1.524 . S
C1142 C1156 1.377 . S
C1143 C1142 1.524 . S
C1143 C1144 1.397 . S
C1143 C1148 1.363 . S
C1144 H1121 0.950 . S
C1144 C1143 1.397 . S
C1144 C1145 1.334 . S
C1145 H1122 0.950 . S
C1145 C1144 1.334 . S
C1145 C1146 1.287 . S
C1146 C1145 1.287 . S
C1146 C1147 1.524 . S
C1146 H1165 0.913 . S
C1147 H1123 0.950 . S
C1147 C1146 1.524 . S
C1147 C1148 1.415 . S
C1148 H1124 0.950 . S
C1148 C1143 1.363 . S
C1148 C1147 1.415 . S
C1149 H1125 0.951 . S
C1149 C1150 1.366 . S
C1149 C1151 1.388 . S
C1150 C1149 1.366 . S
C1150 C1154 1.385 . S
C1151 H1126 0.951 . S
C1151 C1149 1.388 . S
C1151 C1152 1.366 . S
C1152 C1151 1.366 . S
C1152 C1153 1.414 . S
C1152 C1155 1.499 . S
C1153 H1127 0.950 . S
C1153 C1152 1.414 . S
C1153 C1154 1.374 . S
C1154 H1128 0.950 . S
C1154 C1150 1.385 . S
C1154 C1153 1.374 . S
C1155 C1152 1.499 . S
C1155 C1156 1.373 . S
C1155 C1157 1.389 . S
C1156 H1129 0.950 . S
C1156 C1142 1.377 . S
C1156 C1155 1.373 . S
C1157 C1141 1.377 . S
C1157 C1155 1.389 . S
C1157 C1158 1.524 . S
C1158 C1157 1.524 . S
C1158 C1159 1.397 . S
C1158 C1163 1.363 . S
C1159 H1130 0.950 . S
C1159 C1158 1.397 . S
C1159 C1160 1.334 . S
C1160 H1131 0.950 . S
C1160 C1159 1.334 . S
C1160 C1161 1.287 . S
C1161 C1160 1.287 . S
C1161 C1162 1.524 . S
C1161 H1164 0.999 . S
C1162 H1132 0.950 . S
C1162 C1161 1.524 . S
C1162 C1163 1.415 . S
C1163 H1133 0.950 . S
C1163 C1158 1.363 . S
C1163 C1162 1.415 . S
H1164 C1161 0.999 . S
H1165 C1146 0.913 . S
H1166 C1184 0.951 . S
H1167 C1186 0.951 . S
H1168 C1188 0.950 . S
H1169 C1189 0.950 . S
H1170 C1191 0.950 . S
H1171 C1194 0.950 . S
H1172 C1195 0.950 . S
H1173 C1197 0.950 . S
H1174 C1198 0.950 . S
H1175 C1199 0.951 . S
H1176 C1201 0.951 . S
H1177 C1203 0.950 . S
H1178 C1204 0.950 . S
H1179 C1206 0.950 . S
H1180 C1209 0.950 . S
H1181 C1210 0.950 . S
H1182 C1212 0.950 . S
H1183 C1213 0.950 . S
C1184 H1166 0.951 . S
C1184 C1185 1.366 . S
C1184 C1186 1.388 . S
C1185 C1184 1.366 . S
C1185 C1189 1.385 . S
C1186 H1167 0.951 . S
C1186 C1184 1.388 . S
C1186 C1187 1.366 . S
C1187 C1186 1.366 . S
C1187 C1188 1.414 . S
C1187 C1190 1.499 . S
C1188 H1168 0.950 . S
C1188 C1187 1.414 . S
C1188 C1189 1.374 . S
C1189 H1169 0.950 . S
C1189 C1185 1.385 . S
C1189 C1188 1.374 . S
C1190 C1187 1.499 . S
C1190 C1191 1.373 . S
C1190 C1192 1.389 . S
C1191 H1170 0.950 . S
C1191 C1190 1.373 . S
C1191 C1207 1.377 . S
C1192 C1190 1.389 . S
C1192 C1193 1.524 . S
C1192 C1206 1.377 . S
C1193 C1192 1.524 . S
C1193 C1194 1.397 . S
C1193 C1198 1.363 . S
C1194 H1171 0.950 . S
C1194 C1193 1.397 . S
C1194 C1195 1.334 . S
C1195 H1172 0.950 . S
C1195 C1194 1.334 . S
C1195 C1196 1.287 . S
C1196 C1195 1.287 . S
C1196 C1197 1.524 . S
C1196 H1215 0.913 . S
C1197 H1173 0.950 . S
C1197 C1196 1.524 . S
C1197 C1198 1.415 . S
C1198 H1174 0.950 . S
C1198 C1193 1.363 . S
C1198 C1197 1.415 . S
C1199 H1175 0.951 . S
C1199 C1200 1.366 . S
C1199 C1201 1.388 . S
C1200 C1199 1.366 . S
C1200 C1204 1.385 . S
C1201 H1176 0.951 . S
C1201 C1199 1.388 . S
C1201 C1202 1.366 . S
C1202 C1201 1.366 . S
C1202 C1203 1.414 . S
C1202 C1205 1.499 . S
C1203 H1177 0.950 . S
C1203 C1202 1.414 . S
C1203 C1204 1.374 . S
C1204 H1178 0.950 . S
C1204 C1200 1.385 . S
C1204 C1203 1.374 . S
C1205 C1202 1.499 . S
C1205 C1206 1.373 . S
C1205 C1207 1.389 . S
C1206 H1179 0.950 . S
C1206 C1192 1.377 . S
C1206 C1205 1.373 . S
C1207 C1191 1.377 . S
C1207 C1205 1.389 . S
C1207 C1208 1.524 . S
C1208 C1207 1.524 . S
C1208 C1209 1.397 . S
C1208 C1213 1.363 . S
C1209 H1180 0.950 . S
C1209 C1208 1.397 . S
C1209 C1210 1.334 . S
C1210 H1181 0.950 . S
C1210 C1209 1.334 . S
C1210 C1211 1.287 . S
C1211 C1210 1.287 . S
C1211 C1212 1.524 . S
C1211 H1214 0.999 . S
C1212 H1182 0.950 . S
C1212 C1211 1.524 . S
C1212 C1213 1.415 . S
C1213 H1183 0.950 . S
C1213 C1208 1.363 . S
C1213 C1212 1.415 . S
H1214 C1211 0.999 . S
H1215 C1196 0.913 . S
H1216 C1234 0.951 . S
H1217 C1236 0.951 . S
H1218 C1238 0.950 . S
H1219 C1239 0.950 . S
H1220 C1241 0.950 . S
H1221 C1244 0.950 . S
H1222 C1245 0.950 . S
H1223 C1247 0.950 . S
H1224 C1248 0.945 1_565 S
H1225 C1249 0.951 . S
H1226 C1251 0.951 . S
H1227 C1253 0.950 . S
H1228 C1254 0.950 1_455 S
H1229 C1256 0.950 . S
H1230 C1259 0.950 . S
H1231 C1260 0.950 . S
H1232 C1262 0.950 . S
H1233 C1263 0.950 . S
C1234 H1216 0.951 . S
C1234 C1235 1.366 . S
C1234 C1236 1.388 . S
C1235 C1234 1.366 . S
C1235 C1239 1.385 . S
C1236 H1217 0.951 . S
C1236 C1234 1.388 . S
C1236 C1237 1.366 . S
C1237 C1236 1.366 . S
C1237 C1238 1.414 . S
C1237 C1240 1.499 . S
C1238 H1218 0.950 . S
C1238 C1237 1.414 . S
C1238 C1239 1.374 . S
C1239 H1219 0.950 . S
C1239 C1235 1.385 . S
C1239 C1238 1.374 . S
C1240 C1237 1.499 . S
C1240 C1241 1.373 . S
C1240 C1242 1.389 . S
C1241 H1220 0.950 . S
C1241 C1240 1.373 . S
C1241 C1257 1.377 . S
C1242 C1240 1.389 . S
C1242 C1243 1.524 . S
C1242 C1256 1.377 . S
C1243 C1242 1.524 . S
C1243 C1244 1.397 . S
C1243 C1248 1.340 1_565 S
C1244 H1221 0.950 . S
C1244 C1243 1.397 . S
C1244 C1245 1.334 1_565 S
C1245 H1222 0.950 . S
C1245 C1244 1.334 1_545 S
C1245 C1246 1.287 . S
C1246 C1245 1.287 . S
C1246 C1247 1.524 . S
C1246 H1265 0.913 . S
C1247 H1223 0.950 . S
C1247 C1246 1.524 . S
C1247 C1248 1.445 . S
C1248 H1224 0.945 1_545 S
C1248 C1243 1.340 1_545 S
C1248 C1247 1.445 . S
C1249 H1225 0.951 . S
C1249 C1250 1.366 . S
C1249 C1251 1.388 . S
C1250 C1249 1.366 . S
C1250 C1254 1.385 . S
C1251 H1226 0.951 . S
C1251 C1249 1.388 . S
C1251 C1252 1.366 . S
C1252 C1251 1.366 . S
C1252 C1253 1.414 . S
C1252 C1255 1.499 . S
C1253 H1227 0.950 . S
C1253 C1252 1.414 . S
C1253 C1254 1.374 . S
C1254 H1228 0.950 1_655 S
C1254 C1250 1.385 . S
C1254 C1253 1.374 . S
C1255 C1252 1.499 . S
C1255 C1256 1.373 . S
C1255 C1257 1.389 . S
C1256 H1229 0.950 . S
C1256 C1242 1.377 . S
C1256 C1255 1.373 . S
C1257 C1241 1.377 . S
C1257 C1255 1.389 . S
C1257 C1258 1.524 . S
C1258 C1257 1.524 . S
C1258 C1259 1.397 . S
C1258 C1263 1.363 . S
C1259 H1230 0.950 . S
C1259 C1258 1.397 . S
C1259 C1260 1.334 . S
C1260 H1231 0.950 . S
C1260 C1259 1.334 . S
C1260 C1261 1.287 . S
C1261 C1260 1.287 . S
C1261 C1262 1.524 . S
C1261 H1264 0.999 . S
C1262 H1232 0.950 . S
C1262 C1261 1.524 . S
C1262 C1263 1.415 . S
C1263 H1233 0.950 . S
C1263 C1258 1.363 . S
C1263 C1262 1.415 . S
H1264 C1261 0.999 . S
H1265 C1246 0.913 . S
H1266 C1284 0.951 . S
H1267 C1286 0.951 . S
H1268 C1288 0.950 . S
H1269 C1289 0.950 . S
H1270 C1291 0.950 . S
H1271 C1294 0.950 . S
H1272 C1295 0.950 . S
H1273 C1297 0.950 . S
H1274 C1298 0.950 . S
H1275 C1299 0.951 . S
H1276 C1301 0.951 . S
H1277 C1303 0.950 . S
H1278 C1304 0.950 . S
H1279 C1306 0.950 . S
H1280 C1309 0.950 . S
H1281 C1310 0.950 . S
H1282 C1312 0.950 . S
H1283 C1313 0.950 . S
C1284 H1266 0.951 . S
C1284 C1285 1.366 . S
C1284 C1286 1.388 . S
C1285 C1284 1.366 . S
C1285 C1289 1.385 . S
C1286 H1267 0.951 . S
C1286 C1284 1.388 . S
C1286 C1287 1.366 . S
C1287 C1286 1.366 . S
C1287 C1288 1.414 . S
C1287 C1290 1.499 . S
C1288 H1268 0.950 . S
C1288 C1287 1.414 . S
C1288 C1289 1.374 . S
C1289 H1269 0.950 . S
C1289 C1285 1.385 . S
C1289 C1288 1.374 . S
C1290 C1287 1.499 . S
C1290 C1291 1.373 . S
C1290 C1292 1.389 . S
C1291 H1270 0.950 . S
C1291 C1290 1.373 . S
C1291 C1307 1.377 . S
C1292 C1290 1.389 . S
C1292 C1293 1.524 . S
C1292 C1306 1.377 . S
C1293 C1292 1.524 . S
C1293 C1294 1.397 . S
C1293 C1298 1.363 . S
C1294 H1271 0.950 . S
C1294 C1293 1.397 . S
C1294 C1295 1.334 . S
C1295 H1272 0.950 . S
C1295 C1294 1.334 . S
C1295 C1296 1.287 . S
C1296 C1295 1.287 . S
C1296 C1297 1.524 . S
C1296 H1315 0.913 . S
C1297 H1273 0.950 . S
C1297 C1296 1.524 . S
C1297 C1298 1.415 . S
C1298 H1274 0.950 . S
C1298 C1293 1.363 . S
C1298 C1297 1.415 . S
C1299 H1275 0.951 . S
C1299 C1300 1.366 . S
C1299 C1301 1.388 . S
C1300 C1299 1.366 . S
C1300 C1304 1.385 . S
C1301 H1276 0.951 . S
C1301 C1299 1.388 . S
C1301 C1302 1.366 . S
C1302 C1301 1.366 . S
C1302 C1303 1.414 . S
C1302 C1305 1.499 . S
C1303 H1277 0.950 . S
C1303 C1302 1.414 . S
C1303 C1304 1.374 . S
C1304 H1278 0.950 . S
C1304 C1300 1.385 . S
C1304 C1303 1.374 . S
C1305 C1302 1.499 . S
C1305 C1306 1.373 . S
C1305 C1307 1.389 . S
C1306 H1279 0.950 . S
C1306 C1292 1.377 . S
C1306 C1305 1.373 . S
C1307 C1291 1.377 . S
C1307 C1305 1.389 . S
C1307 C1308 1.524 . S
C1308 C1307 1.524 . S
C1308 C1309 1.397 . S
C1308 C1313 1.363 . S
C1309 H1280 0.950 . S
C1309 C1308 1.397 . S
C1309 C1310 1.334 . S
C1310 H1281 0.950 . S
C1310 C1309 1.334 . S
C1310 C1311 1.287 . S
C1311 C1310 1.287 . S
C1311 C1312 1.524 . S
C1311 H1314 0.999 . S
C1312 H1282 0.950 . S
C1312 C1311 1.524 . S
C1312 C1313 1.415 . S
C1313 H1283 0.950 . S
C1313 C1308 1.363 . S
C1313 C1312 1.415 . S
H1314 C1311 0.999 . S
H1315 C1296 0.913 . S
H1316 C1334 0.951 . S
H1317 C1336 0.951 . S
H1318 C1338 0.950 . S
H1319 C1339 0.950 . S
H1320 C1341 0.950 . S
H1321 C1344 0.950 . S
H1322 C1345 0.950 . S
H1323 C1347 0.950 . S
H1324 C1348 0.950 . S
H1325 C1349 0.951 . S
H1326 C1351 0.951 . S
H1327 C1353 0.950 . S
H1328 C1354 0.950 . S
H1329 C1356 0.950 . S
H1330 C1359 0.950 . S
H1331 C1360 0.950 . S
H1332 C1362 0.950 . S
H1333 C1363 0.950 . S
C1334 H1316 0.951 . S
C1334 C1335 1.366 . S
C1334 C1336 1.388 . S
C1335 C1334 1.366 . S
C1335 C1339 1.385 . S
C1336 H1317 0.951 . S
C1336 C1334 1.388 . S
C1336 C1337 1.366 . S
C1337 C1336 1.366 . S
C1337 C1338 1.414 . S
C1337 C1340 1.499 . S
C1338 H1318 0.950 . S
C1338 C1337 1.414 . S
C1338 C1339 1.374 . S
C1339 H1319 0.950 . S
C1339 C1335 1.385 . S
C1339 C1338 1.374 . S
C1340 C1337 1.499 . S
C1340 C1341 1.373 . S
C1340 C1342 1.389 . S
C1341 H1320 0.950 . S
C1341 C1340 1.373 . S
C1341 C1357 1.377 . S
C1342 C1340 1.389 . S
C1342 C1343 1.524 . S
C1342 C1356 1.377 . S
C1343 C1342 1.524 . S
C1343 C1344 1.397 . S
C1343 C1348 1.363 . S
C1344 H1321 0.950 . S
C1344 C1343 1.397 . S
C1344 C1345 1.334 . S
C1345 H1322 0.950 . S
C1345 C1344 1.334 . S
C1345 C1346 1.287 . S
C1346 C1345 1.287 . S
C1346 C1347 1.524 . S
C1346 H1365 0.913 . S
C1347 H1323 0.950 . S
C1347 C1346 1.524 . S
C1347 C1348 1.415 . S
C1348 H1324 0.950 . S
C1348 C1343 1.363 . S
C1348 C1347 1.415 . S
C1349 H1325 0.951 . S
C1349 C1350 1.366 . S
C1349 C1351 1.388 . S
C1350 C1349 1.366 . S
C1350 C1354 1.385 . S
C1351 H1326 0.951 . S
C1351 C1349 1.388 . S
C1351 C1352 1.366 . S
C1352 C1351 1.366 . S
C1352 C1353 1.414 . S
C1352 C1355 1.499 . S
C1353 H1327 0.950 . S
C1353 C1352 1.414 . S
C1353 C1354 1.374 . S
C1354 H1328 0.950 . S
C1354 C1350 1.385 . S
C1354 C1353 1.374 . S
C1355 C1352 1.499 . S
C1355 C1356 1.373 . S
C1355 C1357 1.389 . S
C1356 H1329 0.950 . S
C1356 C1342 1.377 . S
C1356 C1355 1.373 . S
C1357 C1341 1.377 . S
C1357 C1355 1.389 . S
C1357 C1358 1.524 . S
C1358 C1357 1.524 . S
C1358 C1359 1.397 . S
C1358 C1363 1.363 . S
C1359 H1330 0.950 . S
C1359 C1358 1.397 . S
C1359 C1360 1.334 . S
C1360 H1331 0.950 . S
C1360 C1359 1.334 . S
C1360 C1361 1.287 . S
C1361 C1360 1.287 . S
C1361 C1362 1.524 . S
C1361 H1364 0.999 . S
C1362 H1332 0.950 . S
C1362 C1361 1.524 . S
C1362 C1363 1.415 . S
C1363 H1333 0.950 . S
C1363 C1358 1.363 . S
C1363 C1362 1.415 . S
H1364 C1361 0.999 . S
H1365 C1346 0.913 . S
H1366 C1384 0.951 . S
H1367 C1386 0.951 . S
H1368 C1388 0.950 . S
H1369 C1389 0.950 . S
H1370 C1391 0.950 . S
H1371 C1394 0.950 . S
H1372 C1395 0.950 . S
H1373 C1397 0.941 1_655 S
H1374 C1398 0.950 . S
H1375 C1399 0.951 . S
H1376 C1401 0.951 . S
H1377 C1403 0.950 . S
H1378 C1404 0.950 . S
H1379 C1406 0.950 . S
H1380 C1409 0.950 . S
H1381 C1410 0.950 . S
H1382 C1412 0.950 . S
H1383 C1413 0.950 . S
C1384 H1366 0.951 . S
C1384 C1385 1.366 . S
C1384 C1386 1.388 . S
C1385 C1384 1.366 . S
C1385 C1389 1.385 . S
C1386 H1367 0.951 . S
C1386 C1384 1.388 . S
C1386 C1387 1.366 . S
C1387 C1386 1.366 . S
C1387 C1388 1.414 . S
C1387 C1390 1.499 . S
C1388 H1368 0.950 . S
C1388 C1387 1.414 . S
C1388 C1389 1.374 . S
C1389 H1369 0.950 . S
C1389 C1385 1.385 . S
C1389 C1388 1.374 . S
C1390 C1387 1.499 . S
C1390 C1391 1.373 . S
C1390 C1392 1.389 . S
C1391 H1370 0.950 . S
C1391 C1390 1.373 . S
C1391 C1407 1.377 . S
C1392 C1390 1.389 . S
C1392 C1393 1.524 . S
C1392 C1406 1.377 . S
C1393 C1392 1.524 . S
C1393 C1394 1.397 . S
C1393 C1398 1.363 . S
C1394 H1371 0.950 . S
C1394 C1393 1.397 . S
C1394 C1395 1.334 . S
C1395 H1372 0.950 . S
C1395 C1394 1.334 . S
C1395 C1396 1.287 . S
C1396 C1395 1.287 . S
C1396 C1397 1.529 . S
C1396 H1415 0.913 . S
C1397 H1373 0.941 1_455 S
C1397 C1396 1.529 . S
C1397 C1398 1.419 . S
C1398 H1374 0.950 . S
C1398 C1393 1.363 . S
C1398 C1397 1.419 . S
C1399 H1375 0.951 . S
C1399 C1400 1.366 . S
C1399 C1401 1.388 . S
C1400 C1399 1.366 . S
C1400 C1404 1.385 . S
C1401 H1376 0.951 . S
C1401 C1399 1.388 . S
C1401 C1402 1.366 . S
C1402 C1401 1.366 . S
C1402 C1403 1.414 . S
C1402 C1405 1.499 . S
C1403 H1377 0.950 . S
C1403 C1402 1.414 . S
C1403 C1404 1.374 . S
C1404 H1378 0.950 . S
C1404 C1400 1.385 . S
C1404 C1403 1.374 . S
C1405 C1402 1.499 . S
C1405 C1406 1.373 . S
C1405 C1407 1.389 . S
C1406 H1379 0.950 . S
C1406 C1392 1.377 . S
C1406 C1405 1.373 . S
C1407 C1391 1.377 . S
C1407 C1405 1.389 . S
C1407 C1408 1.524 . S
C1408 C1407 1.524 . S
C1408 C1409 1.397 . S
C1408 C1413 1.363 . S
C1409 H1380 0.950 . S
C1409 C1408 1.397 . S
C1409 C1410 1.334 . S
C1410 H1381 0.950 . S
C1410 C1409 1.334 . S
C1410 C1411 1.287 . S
C1411 C1410 1.287 . S
C1411 C1412 1.524 . S
C1411 H1414 0.999 . S
C1412 H1382 0.950 . S
C1412 C1411 1.524 . S
C1412 C1413 1.415 . S
C1413 H1383 0.950 . S
C1413 C1408 1.363 . S
C1413 C1412 1.415 . S
H1414 C1411 0.999 . S
H1415 C1396 0.913 . S
H1416 C1434 0.951 . S
H1417 C1436 0.951 . S
H1418 C1438 0.950 . S
H1419 C1439 0.950 . S
H1420 C1441 0.950 . S
H1421 C1444 0.950 . S
H1422 C1445 0.950 . S
H1423 C1447 0.950 . S
H1424 C1448 0.950 . S
H1425 C1449 0.951 1_545 S
H1426 C1451 0.951 . S
H1427 C1453 0.950 . S
H1428 C1454 0.950 . S
H1429 C1456 0.950 . S
H1430 C1459 0.950 . S
H1431 C1460 0.950 . S
H1432 C1462 0.950 1_545 S
H1433 C1463 0.950 1_556 S
C1434 H1416 0.951 . S
C1434 C1435 1.366 . S
C1434 C1436 1.388 . S
C1435 C1434 1.366 . S
C1435 C1439 1.385 . S
C1436 H1417 0.951 . S
C1436 C1434 1.388 . S
C1436 C1437 1.366 . S
C1437 C1436 1.366 . S
C1437 C1438 1.414 . S
C1437 C1440 1.499 . S
C1438 H1418 0.950 . S
C1438 C1437 1.414 . S
C1438 C1439 1.374 . S
C1439 H1419 0.950 . S
C1439 C1435 1.385 . S
C1439 C1438 1.374 . S
C1440 C1437 1.499 . S
C1440 C1441 1.373 . S
C1440 C1442 1.389 . S
C1441 H1420 0.950 . S
C1441 C1440 1.373 . S
C1441 C1457 1.377 . S
C1442 C1440 1.389 . S
C1442 C1443 1.524 . S
C1442 C1456 1.377 . S
C1443 C1442 1.524 . S
C1443 C1444 1.397 . S
C1443 C1448 1.363 . S
C1444 H1421 0.950 . S
C1444 C1443 1.397 . S
C1444 C1445 1.334 . S
C1445 H1422 0.950 . S
C1445 C1444 1.334 . S
C1445 C1446 1.287 . S
C1446 C1445 1.287 . S
C1446 C1447 1.524 . S
C1446 H1465 0.913 . S
C1447 H1423 0.950 . S
C1447 C1446 1.524 . S
C1447 C1448 1.415 . S
C1448 H1424 0.950 . S
C1448 C1443 1.363 . S
C1448 C1447 1.415 . S
C1449 H1425 0.951 1_565 S
C1449 C1450 1.366 . S
C1449 C1451 1.388 . S
C1450 C1449 1.366 . S
C1450 C1454 1.385 . S
C1451 H1426 0.951 . S
C1451 C1449 1.388 . S
C1451 C1452 1.366 . S
C1452 C1451 1.366 . S
C1452 C1453 1.414 . S
C1452 C1455 1.499 . S
C1453 H1427 0.950 . S
C1453 C1452 1.414 . S
C1453 C1454 1.374 . S
C1454 H1428 0.950 . S
C1454 C1450 1.385 . S
C1454 C1453 1.374 . S
C1455 C1452 1.499 . S
C1455 C1456 1.373 . S
C1455 C1457 1.389 . S
C1456 H1429 0.950 . S
C1456 C1442 1.377 . S
C1456 C1455 1.373 . S
C1457 C1441 1.377 . S
C1457 C1455 1.389 . S
C1457 C1458 1.524 . S
C1458 C1457 1.524 . S
C1458 C1459 1.397 1_556 S
C1458 C1463 1.363 1_556 S
C1459 H1430 0.950 . S
C1459 C1458 1.397 1_554 S
C1459 C1460 1.334 . S
C1460 H1431 0.950 . S
C1460 C1459 1.334 . S
C1460 C1461 1.287 . S
C1461 C1460 1.287 . S
C1461 C1462 1.524 . S
C1461 H1464 0.999 . S
C1462 H1432 0.950 1_565 S
C1462 C1461 1.524 . S
C1462 C1463 1.415 . S
C1463 H1433 0.950 1_554 S
C1463 C1458 1.363 1_554 S
C1463 C1462 1.415 . S
H1464 C1461 0.999 . S
H1465 C1446 0.913 . S
H1466 C1484 0.951 . S
H1467 C1486 0.951 . S
H1468 C1488 0.950 . S
H1469 C1489 0.950 . S
H1470 C1491 0.950 . S
H1471 C1494 0.950 . S
H1472 C1495 0.950 . S
H1473 C1497 0.950 . S
H1474 C1498 0.950 . S
H1475 C1499 0.951 1_565 S
H1476 C1501 0.951 . S
H1477 C1503 0.950 . S
H1478 C1504 0.950 . S
H1479 C1506 0.950 . S
H1480 C1509 0.950 . S
H1481 C1510 0.950 . S
H1482 C1512 0.950 . S
H1483 C1513 0.950 1_565 S
C1484 H1466 0.951 . S
C1484 C1485 1.366 . S
C1484 C1486 1.388 . S
C1485 C1484 1.366 . S
C1485 C1489 1.385 . S
C1486 H1467 0.951 . S
C1486 C1484 1.388 . S
C1486 C1487 1.366 . S
C1487 C1486 1.366 . S
C1487 C1488 1.414 . S
C1487 C1490 1.499 . S
C1488 H1468 0.950 . S
C1488 C1487 1.414 . S
C1488 C1489 1.374 . S
C1489 H1469 0.950 . S
C1489 C1485 1.385 . S
C1489 C1488 1.374 . S
C1490 C1487 1.499 . S
C1490 C1491 1.373 . S
C1490 C1492 1.389 . S
C1491 H1470 0.950 . S
C1491 C1490 1.373 . S
C1491 C1507 1.377 . S
C1492 C1490 1.389 . S
C1492 C1493 1.524 . S
C1492 C1506 1.377 . S
C1493 C1492 1.524 . S
C1493 C1494 1.397 . S
C1493 C1498 1.363 . S
C1494 H1471 0.950 . S
C1494 C1493 1.397 . S
C1494 C1495 1.334 . S
C1495 H1472 0.950 . S
C1495 C1494 1.334 . S
C1495 C1496 1.287 . S
C1496 C1495 1.287 . S
C1496 C1497 1.524 . S
C1496 H1515 0.913 . S
C1497 H1473 0.950 . S
C1497 C1496 1.524 . S
C1497 C1498 1.415 . S
C1498 H1474 0.950 . S
C1498 C1493 1.363 . S
C1498 C1497 1.415 . S
C1499 H1475 0.951 1_545 S
C1499 C1500 1.366 . S
C1499 C1501 1.388 . S
C1500 C1499 1.366 . S
C1500 C1504 1.385 . S
C1501 H1476 0.951 . S
C1501 C1499 1.388 . S
C1501 C1502 1.366 . S
C1502 C1501 1.366 . S
C1502 C1503 1.414 . S
C1502 C1505 1.499 . S
C1503 H1477 0.950 . S
C1503 C1502 1.414 . S
C1503 C1504 1.374 . S
C1504 H1478 0.950 . S
C1504 C1500 1.385 . S
C1504 C1503 1.374 . S
C1505 C1502 1.499 . S
C1505 C1506 1.373 . S
C1505 C1507 1.389 . S
C1506 H1479 0.950 . S
C1506 C1492 1.377 . S
C1506 C1505 1.373 . S
C1507 C1491 1.377 . S
C1507 C1505 1.389 . S
C1507 C1508 1.524 . S
C1508 C1507 1.524 . S
C1508 C1509 1.397 . S
C1508 C1513 1.363 . S
C1509 H1480 0.950 . S
C1509 C1508 1.397 . S
C1509 C1510 1.334 . S
C1510 H1481 0.950 . S
C1510 C1509 1.334 . S
C1510 C1511 1.287 . S
C1511 C1510 1.287 . S
C1511 C1512 1.524 1_545 S
C1511 H1514 0.999 1_545 S
C1512 H1482 0.950 . S
C1512 C1511 1.524 1_565 S
C1512 C1513 1.415 1_565 S
C1513 H1483 0.950 1_545 S
C1513 C1508 1.363 . S
C1513 C1512 1.415 1_545 S
H1514 C1511 0.999 1_565 S
H1515 C1496 0.913 . S
H1516 C1534 0.951 . S
H1517 C1536 0.951 . S
H1518 C1538 0.950 . S
H1519 C1539 0.950 . S
H1520 C1541 0.950 . S
H1521 C1544 0.951 . S
H1522 C1545 0.950 . S
H1523 C1547 0.949 1_556 S
H1524 C1548 0.950 . S
H1525 C1549 0.951 . S
H1526 C1551 0.951 . S
H1527 C1553 0.950 . S
H1528 C1554 0.950 . S
H1529 C1556 0.950 . S
H1530 C1559 0.950 . S
H1531 C1560 0.950 . S
H1532 C1562 0.950 . S
H1533 C1563 0.950 . S
C1534 H1516 0.951 . S
C1534 C1535 1.366 . S
C1534 C1536 1.388 . S
C1535 C1534 1.366 . S
C1535 C1539 1.385 . S
C1536 H1517 0.951 . S
C1536 C1534 1.388 . S
C1536 C1537 1.366 . S
C1537 C1536 1.366 . S
C1537 C1538 1.414 . S
C1537 C1540 1.499 . S
C1538 H1518 0.950 . S
C1538 C1537 1.414 . S
C1538 C1539 1.374 . S
C1539 H1519 0.950 . S
C1539 C1535 1.385 . S
C1539 C1538 1.374 . S
C1540 C1537 1.499 . S
C1540 C1541 1.373 . S
C1540 C1542 1.389 . S
C1541 H1520 0.950 . S
C1541 C1540 1.373 . S
C1541 C1557 1.377 . S
C1542 C1540 1.389 . S
C1542 C1543 1.524 . S
C1542 C1556 1.377 . S
C1543 C1542 1.524 . S
C1543 C1544 1.427 . S
C1543 C1548 1.363 . S
C1544 H1521 0.951 . S
C1544 C1543 1.427 . S
C1544 C1545 1.305 1_554 S
C1545 H1522 0.950 . S
C1545 C1544 1.305 1_556 S
C1545 C1546 1.287 . S
C1546 C1545 1.287 . S
C1546 C1547 1.521 1_556 S
C1546 H1565 0.913 . S
C1547 H1523 0.949 1_554 S
C1547 C1546 1.521 1_554 S
C1547 C1548 1.418 . S
C1548 H1524 0.950 . S
C1548 C1543 1.363 . S
C1548 C1547 1.418 . S
C1549 H1525 0.951 . S
C1549 C1550 1.366 . S
C1549 C1551 1.388 . S
C1550 C1549 1.366 . S
C1550 C1554 1.385 . S
C1551 H1526 0.951 . S
C1551 C1549 1.388 . S
C1551 C1552 1.366 . S
C1552 C1551 1.366 . S
C1552 C1553 1.414 . S
C1552 C1555 1.499 . S
C1553 H1527 0.950 . S
C1553 C1552 1.414 . S
C1553 C1554 1.374 . S
C1554 H1528 0.950 . S
C1554 C1550 1.385 . S
C1554 C1553 1.374 . S
C1555 C1552 1.499 . S
C1555 C1556 1.373 . S
C1555 C1557 1.389 . S
C1556 H1529 0.950 . S
C1556 C1542 1.377 . S
C1556 C1555 1.373 . S
C1557 C1541 1.377 . S
C1557 C1555 1.389 . S
C1557 C1558 1.524 . S
C1558 C1557 1.524 . S
C1558 C1559 1.397 . S
C1558 C1563 1.363 . S
C1559 H1530 0.950 . S
C1559 C1558 1.397 . S
C1559 C1560 1.334 . S
C1560 H1531 0.950 . S
C1560 C1559 1.334 . S
C1560 C1561 1.287 . S
C1561 C1560 1.287 . S
C1561 C1562 1.524 . S
C1561 H1564 0.999 . S
C1562 H1532 0.950 . S
C1562 C1561 1.524 . S
C1562 C1563 1.415 . S
C1563 H1533 0.950 . S
C1563 C1558 1.363 . S
C1563 C1562 1.415 . S
H1564 C1561 0.999 . S
H1565 C1546 0.913 . S
H1566 C1584 0.951 . S
H1567 C1586 0.951 . S
H1568 C1588 0.950 . S
H1569 C1589 0.950 . S
H1570 C1591 0.950 . S
H1571 C1594 0.950 . S
H1572 C1595 0.950 . S
H1573 C1597 0.950 . S
H1574 C1598 0.950 . S
H1575 C1599 0.951 . S
H1576 C1601 0.951 . S
H1577 C1603 0.950 . S
H1578 C1604 0.950 . S
H1579 C1606 0.950 . S
H1580 C1609 0.950 . S
H1581 C1610 0.950 . S
H1582 C1612 0.950 . S
H1583 C1613 0.950 . S
C1584 H1566 0.951 . S
C1584 C1585 1.366 . S
C1584 C1586 1.388 . S
C1585 C1584 1.366 . S
C1585 C1589 1.385 . S
C1586 H1567 0.951 . S
C1586 C1584 1.388 . S
C1586 C1587 1.366 . S
C1587 C1586 1.366 . S
C1587 C1588 1.414 . S
C1587 C1590 1.499 . S
C1588 H1568 0.950 . S
C1588 C1587 1.414 . S
C1588 C1589 1.374 . S
C1589 H1569 0.950 . S
C1589 C1585 1.385 . S
C1589 C1588 1.374 . S
C1590 C1587 1.499 . S
C1590 C1591 1.373 . S
C1590 C1592 1.389 . S
C1591 H1570 0.950 . S
C1591 C1590 1.373 . S
C1591 C1607 1.377 . S
C1592 C1590 1.389 . S
C1592 C1593 1.524 . S
C1592 C1606 1.377 . S
C1593 C1592 1.524 . S
C1593 C1594 1.397 . S
C1593 C1598 1.363 . S
C1594 H1571 0.950 . S
C1594 C1593 1.397 . S
C1594 C1595 1.334 . S
C1595 H1572 0.950 . S
C1595 C1594 1.334 . S
C1595 C1596 1.287 . S
C1596 C1595 1.287 . S
C1596 C1597 1.524 . S
C1596 H1615 0.913 . S
C1597 H1573 0.950 . S
C1597 C1596 1.524 . S
C1597 C1598 1.415 . S
C1598 H1574 0.950 . S
C1598 C1593 1.363 . S
C1598 C1597 1.415 . S
C1599 H1575 0.951 . S
C1599 C1600 1.366 . S
C1599 C1601 1.388 . S
C1600 C1599 1.366 . S
C1600 C1604 1.385 . S
C1601 H1576 0.951 . S
C1601 C1599 1.388 . S
C1601 C1602 1.366 . S
C1602 C1601 1.366 . S
C1602 C1603 1.414 . S
C1602 C1605 1.499 . S
C1603 H1577 0.950 . S
C1603 C1602 1.414 . S
C1603 C1604 1.374 . S
C1604 H1578 0.950 . S
C1604 C1600 1.385 . S
C1604 C1603 1.374 . S
C1605 C1602 1.499 . S
C1605 C1606 1.373 . S
C1605 C1607 1.389 . S
C1606 H1579 0.950 . S
C1606 C1592 1.377 . S
C1606 C1605 1.373 . S
C1607 C1591 1.377 . S
C1607 C1605 1.389 . S
C1607 C1608 1.524 . S
C1608 C1607 1.524 . S
C1608 C1609 1.397 . S
C1608 C1613 1.363 . S
C1609 H1580 0.950 . S
C1609 C1608 1.397 . S
C1609 C1610 1.334 . S
C1610 H1581 0.950 . S
C1610 C1609 1.334 . S
C1610 C1611 1.287 . S
C1611 C1610 1.287 . S
C1611 C1612 1.524 . S
C1611 H1614 0.999 . S
C1612 H1582 0.950 . S
C1612 C1611 1.524 . S
C1612 C1613 1.415 . S
C1613 H1583 0.950 . S
C1613 C1608 1.363 . S
C1613 C1612 1.415 . S
H1614 C1611 0.999 . S
H1615 C1596 0.913 . S
H1616 C1634 0.951 . S
H1617 C1636 0.951 . S
H1618 C1638 0.950 . S
H1619 C1639 0.950 . S
H1620 C1641 0.950 . S
H1621 C1644 0.950 . S
H1622 C1645 0.950 . S
H1623 C1647 0.950 . S
H1624 C1648 0.950 . S
H1625 C1649 0.951 . S
H1626 C1651 0.951 . S
H1627 C1653 0.950 . S
H1628 C1654 0.950 1_554 S
H1629 C1656 0.950 . S
H1630 C1659 0.950 . S
H1631 C1660 0.950 . S
H1632 C1662 0.950 . S
H1633 C1663 0.950 . S
C1634 H1616 0.951 . S
C1634 C1635 1.366 . S
C1634 C1636 1.388 . S
C1635 C1634 1.366 . S
C1635 C1639 1.385 . S
C1636 H1617 0.951 . S
C1636 C1634 1.388 . S
C1636 C1637 1.366 . S
C1637 C1636 1.366 . S
C1637 C1638 1.414 . S
C1637 C1640 1.499 . S
C1638 H1618 0.950 . S
C1638 C1637 1.414 . S
C1638 C1639 1.374 . S
C1639 H1619 0.950 . S
C1639 C1635 1.385 . S
C1639 C1638 1.374 . S
C1640 C1637 1.499 . S
C1640 C1641 1.373 . S
C1640 C1642 1.389 . S
C1641 H1620 0.950 . S
C1641 C1640 1.373 . S
C1641 C1657 1.377 . S
C1642 C1640 1.389 . S
C1642 C1643 1.524 . S
C1642 C1656 1.377 . S
C1643 C1642 1.524 . S
C1643 C1644 1.397 . S
C1643 C1648 1.363 1_556 S
C1644 H1621 0.950 . S
C1644 C1643 1.397 . S
C1644 C1645 1.334 . S
C1645 H1622 0.950 . S
C1645 C1644 1.334 . S
C1645 C1646 1.287 1_556 S
C1646 C1645 1.287 1_554 S
C1646 C1647 1.524 . S
C1646 H1665 0.913 . S
C1647 H1623 0.950 . S
C1647 C1646 1.524 . S
C1647 C1648 1.415 . S
C1648 H1624 0.950 . S
C1648 C1643 1.363 1_554 S
C1648 C1647 1.415 . S
C1649 H1625 0.951 . S
C1649 C1650 1.366 . S
C1649 C1651 1.388 . S
C1650 C1649 1.366 . S
C1650 C1654 1.385 . S
C1651 H1626 0.951 . S
C1651 C1649 1.388 . S
C1651 C1652 1.366 . S
C1652 C1651 1.366 . S
C1652 C1653 1.414 . S
C1652 C1655 1.499 . S
C1653 H1627 0.950 . S
C1653 C1652 1.414 . S
C1653 C1654 1.374 . S
C1654 H1628 0.950 1_556 S
C1654 C1650 1.385 . S
C1654 C1653 1.374 . S
C1655 C1652 1.499 . S
C1655 C1656 1.373 . S
C1655 C1657 1.389 . S
C1656 H1629 0.950 . S
C1656 C1642 1.377 . S
C1656 C1655 1.373 . S
C1657 C1641 1.377 . S
C1657 C1655 1.389 . S
C1657 C1658 1.524 . S
C1658 C1657 1.524 . S
C1658 C1659 1.397 . S
C1658 C1663 1.363 . S
C1659 H1630 0.950 . S
C1659 C1658 1.397 . S
C1659 C1660 1.334 . S
C1660 H1631 0.950 . S
C1660 C1659 1.334 . S
C1660 C1661 1.287 . S
C1661 C1660 1.287 . S
C1661 C1662 1.524 . S
C1661 H1664 0.999 . S
C1662 H1632 0.950 . S
C1662 C1661 1.524 . S
C1662 C1663 1.415 . S
C1663 H1633 0.950 . S
C1663 C1658 1.363 . S
C1663 C1662 1.415 . S
H1664 C1661 0.999 . S
H1665 C1646 0.913 . S
H1666 C1684 0.951 . S
H1667 C1686 0.951 . S
H1668 C1688 0.950 . S
H1669 C1689 0.950 . S
H1670 C1691 0.950 . S
H1671 C1694 0.950 . S
H1672 C1695 0.950 . S
H1673 C1697 0.950 . S
H1674 C1698 0.950 . S
H1675 C1699 0.951 . S
H1676 C1701 0.951 . S
H1677 C1703 0.950 . S
H1678 C1704 0.950 . S
H1679 C1706 0.950 . S
H1680 C1709 0.950 . S
H1681 C1710 0.950 . S
H1682 C1712 0.950 . S
H1683 C1713 0.950 . S
C1684 H1666 0.951 . S
C1684 C1685 1.366 . S
C1684 C1686 1.388 . S
C1685 C1684 1.366 . S
C1685 C1689 1.385 . S
C1686 H1667 0.951 . S
C1686 C1684 1.388 . S
C1686 C1687 1.366 . S
C1687 C1686 1.366 . S
C1687 C1688 1.414 . S
C1687 C1690 1.499 . S
C1688 H1668 0.950 . S
C1688 C1687 1.414 . S
C1688 C1689 1.374 . S
C1689 H1669 0.950 . S
C1689 C1685 1.385 . S
C1689 C1688 1.374 . S
C1690 C1687 1.499 . S
C1690 C1691 1.373 . S
C1690 C1692 1.389 . S
C1691 H1670 0.950 . S
C1691 C1690 1.373 . S
C1691 C1707 1.377 . S
C1692 C1690 1.389 . S
C1692 C1693 1.524 . S
C1692 C1706 1.377 . S
C1693 C1692 1.524 . S
C1693 C1694 1.397 . S
C1693 C1698 1.363 . S
C1694 H1671 0.950 . S
C1694 C1693 1.397 . S
C1694 C1695 1.334 . S
C1695 H1672 0.950 . S
C1695 C1694 1.334 . S
C1695 C1696 1.287 . S
C1696 C1695 1.287 . S
C1696 C1697 1.524 . S
C1696 H1715 0.913 . S
C1697 H1673 0.950 . S
C1697 C1696 1.524 . S
C1697 C1698 1.415 . S
C1698 H1674 0.950 . S
C1698 C1693 1.363 . S
C1698 C1697 1.415 . S
C1699 H1675 0.951 . S
C1699 C1700 1.366 . S
C1699 C1701 1.388 . S
C1700 C1699 1.366 . S
C1700 C1704 1.385 . S
C1701 H1676 0.951 . S
C1701 C1699 1.388 . S
C1701 C1702 1.366 . S
C1702 C1701 1.366 . S
C1702 C1703 1.414 . S
C1702 C1705 1.499 . S
C1703 H1677 0.950 . S
C1703 C1702 1.414 . S
C1703 C1704 1.374 . S
C1704 H1678 0.950 . S
C1704 C1700 1.385 . S
C1704 C1703 1.374 . S
C1705 C1702 1.499 . S
C1705 C1706 1.373 . S
C1705 C1707 1.389 . S
C1706 H1679 0.950 . S
C1706 C1692 1.377 . S
C1706 C1705 1.373 . S
C1707 C1691 1.377 . S
C1707 C1705 1.389 . S
C1707 C1708 1.524 . S
C1708 C1707 1.524 . S
C1708 C1709 1.397 1_554 S
C1708 C1713 1.363 . S
C1709 H1680 0.950 . S
C1709 C1708 1.397 1_556 S
C1709 C1710 1.334 . S
C1710 H1681 0.950 . S
C1710 C1709 1.334 . S
C1710 C1711 1.287 . S
C1711 C1710 1.287 . S
C1711 C1712 1.524 . S
C1711 H1714 0.999 . S
C1712 H1682 0.950 . S
C1712 C1711 1.524 . S
C1712 C1713 1.415 1_556 S
C1713 H1683 0.950 . S
C1713 C1708 1.363 . S
C1713 C1712 1.415 1_554 S
H1714 C1711 0.999 . S
H1715 C1696 0.913 . S
H1716 C1734 0.951 . S
H1717 C1736 0.951 . S
H1718 C1738 0.950 . S
H1719 C1739 0.950 . S
H1720 C1741 0.950 . S
H1721 C1744 0.950 . S
H1722 C1745 0.952 . S
H1723 C1747 0.950 . S
H1724 C1748 0.950 . S
H1725 C1749 0.951 . S
H1726 C1751 0.951 . S
H1727 C1753 0.950 . S
H1728 C1754 0.950 . S
H1729 C1756 0.950 . S
H1730 C1759 0.950 . S
H1731 C1760 0.950 . S
H1732 C1762 0.950 . S
H1733 C1763 0.950 . S
C1734 H1716 0.951 . S
C1734 C1735 1.366 . S
C1734 C1736 1.388 . S
C1735 C1734 1.366 . S
C1735 C1739 1.385 . S
C1736 H1717 0.951 . S
C1736 C1734 1.388 . S
C1736 C1737 1.366 . S
C1737 C1736 1.366 . S
C1737 C1738 1.414 . S
C1737 C1740 1.499 . S
C1738 H1718 0.950 . S
C1738 C1737 1.414 . S
C1738 C1739 1.374 . S
C1739 H1719 0.950 . S
C1739 C1735 1.385 . S
C1739 C1738 1.374 . S
C1740 C1737 1.499 . S
C1740 C1741 1.373 . S
C1740 C1742 1.389 . S
C1741 H1720 0.950 . S
C1741 C1740 1.373 . S
C1741 C1757 1.377 . S
C1742 C1740 1.389 . S
C1742 C1743 1.524 . S
C1742 C1756 1.377 . S
C1743 C1742 1.524 . S
C1743 C1744 1.397 . S
C1743 C1748 1.363 . S
C1744 H1721 0.950 . S
C1744 C1743 1.397 . S
C1744 C1745 1.334 . S
C1745 H1722 0.952 . S
C1745 C1744 1.334 . S
C1745 C1746 1.287 1_455 S
C1746 C1745 1.287 1_655 S
C1746 C1747 1.524 . S
C1746 H1765 0.913 . S
C1747 H1723 0.950 . S
C1747 C1746 1.524 . S
C1747 C1748 1.415 1_655 S
C1748 H1724 0.950 . S
C1748 C1743 1.363 . S
C1748 C1747 1.415 1_455 S
C1749 H1725 0.951 . S
C1749 C1750 1.366 . S
C1749 C1751 1.388 . S
C1750 C1749 1.366 . S
C1750 C1754 1.385 . S
C1751 H1726 0.951 . S
C1751 C1749 1.388 . S
C1751 C1752 1.366 . S
C1752 C1751 1.366 . S
C1752 C1753 1.414 . S
C1752 C1755 1.499 . S
C1753 H1727 0.950 . S
C1753 C1752 1.414 . S
C1753 C1754 1.374 . S
C1754 H1728 0.950 . S
C1754 C1750 1.385 . S
C1754 C1753 1.374 . S
C1755 C1752 1.499 . S
C1755 C1756 1.373 . S
C1755 C1757 1.389 . S
C1756 H1729 0.950 . S
C1756 C1742 1.377 . S
C1756 C1755 1.373 . S
C1757 C1741 1.377 . S
C1757 C1755 1.389 . S
C1757 C1758 1.524 . S
C1758 C1757 1.524 . S
C1758 C1759 1.397 . S
C1758 C1763 1.363 . S
C1759 H1730 0.950 . S
C1759 C1758 1.397 . S
C1759 C1760 1.334 . S
C1760 H1731 0.950 . S
C1760 C1759 1.334 . S
C1760 C1761 1.287 . S
C1761 C1760 1.287 . S
C1761 C1762 1.524 . S
C1761 H1764 0.999 . S
C1762 H1732 0.950 . S
C1762 C1761 1.524 . S
C1762 C1763 1.415 . S
C1763 H1733 0.950 . S
C1763 C1758 1.363 . S
C1763 C1762 1.415 . S
H1764 C1761 0.999 . S
H1765 C1746 0.913 . S
H1766 C1784 0.951 . S
H1767 C1786 0.951 . S
H1768 C1788 0.950 . S
H1769 C1789 0.950 . S
H1770 C1791 0.950 . S
H1771 C1794 0.950 . S
H1772 C1795 0.950 . S
H1773 C1797 0.950 . S
H1774 C1798 0.950 . S
H1775 C1799 0.951 . S
H1776 C1801 0.951 . S
H1777 C1803 0.950 . S
H1778 C1804 0.950 . S
H1779 C1806 0.950 . S
H1780 C1809 0.950 . S
H1781 C1810 0.950 . S
H1782 C1812 0.950 . S
H1783 C1813 0.950 . S
C1784 H1766 0.951 . S
C1784 C1785 1.366 . S
C1784 C1786 1.388 . S
C1785 C1784 1.366 . S
C1785 C1789 1.385 . S
C1786 H1767 0.951 . S
C1786 C1784 1.388 . S
C1786 C1787 1.366 . S
C1787 C1786 1.366 . S
C1787 C1788 1.414 . S
C1787 C1790 1.499 . S
C1788 H1768 0.950 . S
C1788 C1787 1.414 . S
C1788 C1789 1.374 . S
C1789 H1769 0.950 . S
C1789 C1785 1.385 . S
C1789 C1788 1.374 . S
C1790 C1787 1.499 . S
C1790 C1791 1.373 . S
C1790 C1792 1.389 . S
C1791 H1770 0.950 . S
C1791 C1790 1.373 . S
C1791 C1807 1.377 . S
C1792 C1790 1.389 . S
C1792 C1793 1.524 . S
C1792 C1806 1.377 . S
C1793 C1792 1.524 . S
C1793 C1794 1.397 . S
C1793 C1798 1.363 . S
C1794 H1771 0.950 . S
C1794 C1793 1.397 . S
C1794 C1795 1.334 . S
C1795 H1772 0.950 . S
C1795 C1794 1.334 . S
C1795 C1796 1.287 . S
C1796 C1795 1.287 . S
C1796 C1797 1.524 . S
C1796 H1815 0.913 . S
C1797 H1773 0.950 . S
C1797 C1796 1.524 . S
C1797 C1798 1.415 . S
C1798 H1774 0.950 . S
C1798 C1793 1.363 . S
C1798 C1797 1.415 . S
C1799 H1775 0.951 . S
C1799 C1800 1.366 . S
C1799 C1801 1.388 . S
C1800 C1799 1.366 . S
C1800 C1804 1.385 . S
C1801 H1776 0.951 . S
C1801 C1799 1.388 . S
C1801 C1802 1.366 . S
C1802 C1801 1.366 . S
C1802 C1803 1.414 . S
C1802 C1805 1.499 . S
C1803 H1777 0.950 . S
C1803 C1802 1.414 . S
C1803 C1804 1.374 . S
C1804 H1778 0.950 . S
C1804 C1800 1.385 . S
C1804 C1803 1.374 . S
C1805 C1802 1.499 . S
C1805 C1806 1.373 . S
C1805 C1807 1.389 . S
C1806 H1779 0.950 . S
C1806 C1792 1.377 . S
C1806 C1805 1.373 . S
C1807 C1791 1.377 . S
C1807 C1805 1.389 . S
C1807 C1808 1.524 . S
C1808 C1807 1.524 . S
C1808 C1809 1.397 . S
C1808 C1813 1.363 . S
C1809 H1780 0.950 . S
C1809 C1808 1.397 . S
C1809 C1810 1.334 . S
C1810 H1781 0.950 . S
C1810 C1809 1.334 . S
C1810 C1811 1.287 . S
C1811 C1810 1.287 . S
C1811 C1812 1.524 . S
C1811 H1814 0.999 . S
C1812 H1782 0.950 . S
C1812 C1811 1.524 . S
C1812 C1813 1.415 . S
C1813 H1783 0.950 . S
C1813 C1808 1.363 . S
C1813 C1812 1.415 . S
H1814 C1811 0.999 . S
H1815 C1796 0.913 . S
C635 C1 2.309 . S
C650 C480 2.326 . S
C685 C80 2.227 . S
C700 C522 2.290 . S
C750 C552 0.974 . S
C735 C140 0.953 . S
C785 C211 1.003 . S
C800 C586 1.041 . S
C850 C543 1.875 . S
C835 C31 1.860 . S
C900 C497 1.872 . S
C885 C61 1.815 . S
C950 C590 1.357 . S
C935 C151 1.309 . S
C1000 C556 1.419 . S
C985 C200 1.357 . S
C1035 C20 2.193 . S
C1050 C611 2.221 . S
C1100 C518 1.114 . S
C1085 C121 1.066 . S
C1135 C181 1.088 . S
C1150 C493 1.127 . S
C1185 C91 2.119 . S
C1200 C577 2.191 . S
C1250 C509 2.329 . S
C1235 C260 2.305 . S
C1285 C320 2.226 . S
C1300 C531 2.287 . S
C1335 C361 0.974 . S
C1350 C561 0.974 . S
C1385 C451 1.003 . S
C1400 C595 1.038 . S
C1435 C271 1.850 . S
C1450 C514 1.876 . S
C1500 C488 1.872 . S
C1485 C301 1.822 . S
C1550 C599 1.357 . S
C1535 C380 1.339 . S
C1600 C565 1.419 . S
C1585 C440 1.357 . S
C1635 C241 2.208 . S
C1650 C582 2.223 . S
C1700 C527 1.114 . S
C1685 C391 1.103 . S
C1750 C484 1.121 . S
C1735 C421 1.081 . S
C1785 C331 2.119 . S
C1800 C548 2.191 . S
