# Generated by pormake.
# Topology apo, (3,6)-cn, num edge types: 1
# Building blocks:
#     Node 0, Type 0, BuildingBlock: VETTIZ_charged_linker_0, # of connection points: 3
#     Node 1, Type 0, BuildingBlock: VETTIZ_charged_linker_0, # of connection points: 3
#     Node 2, Type 0, BuildingBlock: VETTIZ_charged_linker_0, # of connection points: 3
#     Node 3, Type 0, BuildingBlock: VETTIZ_charged_linker_0, # of connection points: 3
#     Node 4, Type 0, BuildingBlock: VETTIZ_charged_linker_0, # of connection points: 3
#     Node 5, Type 0, BuildingBlock: VETTIZ_charged_linker_0, # of connection points: 3
#     Node 6, Type 0, BuildingBlock: VETTIZ_charged_linker_0, # of connection points: 3
#     Node 7, Type 0, BuildingBlock: VETTIZ_charged_linker_0, # of connection points: 3
#     Node 8, Type 1, BuildingBlock: KUMJIN_clean_sbu_1, # of connection points: 6
#     Node 9, Type 1, BuildingBlock: KUMJIN_clean_sbu_1, # of connection points: 6
#     Node 10, Type 1, BuildingBlock: KUMJIN_clean_sbu_1, # of connection points: 6
#     Node 11, Type 1, BuildingBlock: KUMJIN_clean_sbu_1, # of connection points: 6
#     Edge 12, Type (0, 1), BuildingBlock: CIFDUS_clean_linker_0, # of connection points: 2
#     Edge 13, Type (0, 1), BuildingBlock: CIFDUS_clean_linker_0, # of connection points: 2
#     Edge 14, Type (0, 1), BuildingBlock: CIFDUS_clean_linker_0, # of connection points: 2
#     Edge 15, Type (0, 1), BuildingBlock: CIFDUS_clean_linker_0, # of connection points: 2
#     Edge 16, Type (0, 1), BuildingBlock: CIFDUS_clean_linker_0, # of connection points: 2
#     Edge 17, Type (0, 1), BuildingBlock: CIFDUS_clean_linker_0, # of connection points: 2
#     Edge 18, Type (0, 1), BuildingBlock: CIFDUS_clean_linker_0, # of connection points: 2
#     Edge 19, Type (0, 1), BuildingBlock: CIFDUS_clean_linker_0, # of connection points: 2
#     Edge 20, Type (0, 1), BuildingBlock: CIFDUS_clean_linker_0, # of connection points: 2
#     Edge 21, Type (0, 1), BuildingBlock: CIFDUS_clean_linker_0, # of connection points: 2
#     Edge 22, Type (0, 1), BuildingBlock: CIFDUS_clean_linker_0, # of connection points: 2
#     Edge 23, Type (0, 1), BuildingBlock: CIFDUS_clean_linker_0, # of connection points: 2
#     Edge 24, Type (0, 1), BuildingBlock: CIFDUS_clean_linker_0, # of connection points: 2
#     Edge 25, Type (0, 1), BuildingBlock: CIFDUS_clean_linker_0, # of connection points: 2
#     Edge 26, Type (0, 1), BuildingBlock: CIFDUS_clean_linker_0, # of connection points: 2
#     Edge 27, Type (0, 1), BuildingBlock: CIFDUS_clean_linker_0, # of connection points: 2
#     Edge 28, Type (0, 1), BuildingBlock: CIFDUS_clean_linker_0, # of connection points: 2
#     Edge 29, Type (0, 1), BuildingBlock: CIFDUS_clean_linker_0, # of connection points: 2
#     Edge 30, Type (0, 1), BuildingBlock: CIFDUS_clean_linker_0, # of connection points: 2
#     Edge 31, Type (0, 1), BuildingBlock: CIFDUS_clean_linker_0, # of connection points: 2
#     Edge 32, Type (0, 1), BuildingBlock: CIFDUS_clean_linker_0, # of connection points: 2
#     Edge 33, Type (0, 1), BuildingBlock: CIFDUS_clean_linker_0, # of connection points: 2
#     Edge 34, Type (0, 1), BuildingBlock: CIFDUS_clean_linker_0, # of connection points: 2
#     Edge 35, Type (0, 1), BuildingBlock: CIFDUS_clean_linker_0, # of connection points: 2
# Relax obj value: 0.009
# Max RMSD: 0.101
# Mean RMSD: 0.080
data_MOF--net-apo--node1-KUMJIN_clean_sbu_1--node2-VETTIZ_charged_linker_0--edge1-CIFDUS_clean_linker_0
_symmetry_space_group_name_H-M    P1
_symmetry_Int_Tables_number       1
_symmetry_cell_setting            triclinic
loop_
_symmetry_equiv_pos_as_xyz
'x, y, z'
_cell_length_a     26.062701
_cell_length_b     46.64828
_cell_length_c     57.955882
_cell_angle_alpha  89.858359
_cell_angle_beta   89.827627
_cell_angle_gamma 90.370832
loop_
_atom_site_label
_atom_site_type_symbol
_atom_site_fract_x
_atom_site_fract_y
_atom_site_fract_z
_atom_type_partial_charge
C0 C 0.2841 0.36182 0.49326 0.0
C1 C 0.30657 0.38337 0.50695 0.0
C2 C 0.3288 0.40746 0.49599 0.0
C3 C 0.30285 0.38935 0.45853 0.0
C4 C 0.28294 0.36515 0.46919 0.0
C5 C 0.2605 0.34429 0.45211 0.0
H6 H 0.18995 0.31458 0.34206 0.0
C7 C 0.29283 0.38699 0.43346 0.0
C8 C 0.26822 0.36052 0.42957 0.0
H9 H 0.18045 0.25877 0.40146 0.0
H10 H 0.21861 0.29567 0.42541 0.0
H11 H 0.15972 0.37521 0.36851 0.0
H12 H 0.30086 0.33331 0.35096 0.0
H13 H 0.31394 0.37013 0.34902 0.0
H14 H 0.26645 0.35428 0.33024 0.0
H15 H 0.18266 0.37106 0.33947 0.0
H16 H 0.20188 0.40116 0.3569 0.0
C17 C 0.20295 0.34003 0.4579 0.0
C18 C 0.2924 0.31636 0.4529 0.0
C19 C 0.34164 0.4691 0.37926 0.0
C20 C 0.33704 0.47262 0.35528 0.0
C21 C 0.31316 0.45108 0.34214 0.0
C22 C 0.29401 0.42618 0.35272 0.0
C23 C 0.29946 0.42258 0.37669 0.0
C24 C 0.32298 0.44382 0.38957 0.0
C25 C 0.32656 0.4358 0.41472 0.0
C26 C 0.30148 0.40627 0.41475 0.0
C27 C 0.28552 0.39877 0.39243 0.0
C28 C 0.29512 0.45782 0.42874 0.0
C29 C 0.38405 0.43438 0.42134 0.0
C30 C 0.19553 0.31057 0.3603 0.0
C31 C 0.18171 0.28405 0.37006 0.0
C32 C 0.19073 0.27918 0.39369 0.0
C33 C 0.21289 0.30059 0.40751 0.0
C34 C 0.22686 0.32703 0.39751 0.0
C35 C 0.21862 0.3315 0.37422 0.0
C36 C 0.23939 0.35996 0.36616 0.0
C37 C 0.2608 0.37201 0.38849 0.0
C38 C 0.25271 0.35285 0.40688 0.0
C39 C 0.19385 0.37791 0.3571 0.0
C40 C 0.28215 0.35438 0.34804 0.0
H41 H 0.34374 0.42967 0.46469 0.0
H42 H 0.26739 0.34286 0.50117 0.0
H43 H 0.33262 0.32071 0.45832 0.0
H44 H 0.29608 0.30616 0.43577 0.0
H45 H 0.27569 0.30066 0.46529 0.0
H46 H 0.18457 0.36101 0.46153 0.0
H47 H 0.19794 0.32624 0.47341 0.0
H48 H 0.18088 0.33052 0.44361 0.0
H49 H 0.36044 0.48533 0.38963 0.0
H50 H 0.30948 0.45354 0.32362 0.0
H51 H 0.2761 0.41059 0.34177 0.0
H52 H 0.25933 0.4636 0.41945 0.0
H53 H 0.31749 0.47786 0.4315 0.0
H54 H 0.2821 0.44949 0.44561 0.0
H55 H 0.40749 0.42625 0.4067 0.0
H56 H 0.3915 0.41929 0.43564 0.0
H57 H 0.3992 0.4559 0.42601 0.0
H58 H 0.34609 0.42441 0.50614 0.0
C59 C 0.32696 0.41059 0.47192 0.0
C60 C 0.30828 0.18886 0.85803 0.0
C61 C 0.32629 0.2155 0.86598 0.0
C62 C 0.31692 0.22325 0.88911 0.0
C63 C 0.27453 0.17748 0.89613 0.0
C64 C 0.28246 0.1704 0.87325 0.0
C65 C 0.26028 0.14158 0.86726 0.0
H66 H 0.13295 0.02121 0.89951 0.0
C67 C 0.24786 0.15299 0.90741 0.0
C68 C 0.23916 0.13203 0.89048 0.0
H69 H 0.18481 0.04619 0.83135 0.0
H70 H 0.22142 0.08948 0.84666 0.0
H71 H 0.2334 0.03863 0.92513 0.0
H72 H 0.09361 0.08575 0.91576 0.0
H73 H 0.11198 0.08723 0.94505 0.0
H74 H 0.09837 0.05309 0.93209 0.0
H75 H 0.1792 0.03319 0.94378 0.0
H76 H 0.22699 0.06047 0.94957 0.0
C77 C 0.3047 0.12214 0.85904 0.0
C78 C 0.21716 0.14609 0.84921 0.0
C79 C 0.21304 0.15407 0.99393 0.0
C80 C 0.19534 0.13303 0.00967 0.0
C81 C 0.17969 0.10615 1.00079 0.0
C82 C 0.18148 0.10043 0.97706 0.0
C83 C 0.19999 0.12151 0.96179 0.0
C84 C 0.21593 0.1477 0.97032 0.0
C85 C 0.23837 0.16668 0.95173 0.0
C86 C 0.23287 0.14761 0.93065 0.0
C87 C 0.2096 0.12132 0.93662 0.0
C88 C 0.29533 0.17264 0.95773 0.0
C89 C 0.20502 0.1939 0.9498 0.0
C90 C 0.15196 0.03614 0.88792 0.0
C91 C 0.15603 0.03017 0.86417 0.0
C92 C 0.18174 0.04999 0.84973 0.0
C93 C 0.20263 0.07533 0.85864 0.0
C94 C 0.19791 0.08114 0.8823 0.0
C95 C 0.17322 0.06167 0.89659 0.0
C96 C 0.17284 0.07144 0.92136 0.0
C97 C 0.19961 0.10044 0.91934 0.0
C98 C 0.21429 0.10586 0.89642 0.0
C99 C 0.20436 0.04985 0.93587 0.0
C100 C 0.11632 0.07446 0.92919 0.0
H101 H 0.28563 0.21137 0.92168 0.0
H102 H 0.31389 0.18256 0.84023 0.0
H103 H 0.19948 0.16764 0.85093 0.0
H104 H 0.18473 0.13093 0.85146 0.0
H105 H 0.23225 0.14433 0.83133 0.0
H106 H 0.33969 0.12585 0.86961 0.0
H107 H 0.31486 0.12664 0.84075 0.0
H108 H 0.29611 0.09905 0.86095 0.0
H109 H 0.22499 0.1751 0.99972 0.0
H110 H 0.16724 0.08904 0.01217 0.0
H111 H 0.16916 0.07958 0.97154 0.0
H112 H 0.31336 0.15332 0.96546 0.0
H113 H 0.29887 0.19038 0.97039 0.0
H114 H 0.31913 0.17775 0.94248 0.0
H115 H 0.16366 0.18849 0.95206 0.0
H116 H 0.20774 0.20426 0.93269 0.0
H117 H 0.21549 0.20977 0.96328 0.0
H118 H 0.33042 0.24369 0.89562 0.0
C119 C 0.29122 0.20438 0.90423 0.0
C120 C 0.81328 0.15603 0.52837 0.0
C121 C 0.84255 0.13758 0.5145 0.0
C122 C 0.86344 0.1127 0.5246 0.0
C123 C 0.8271 0.12569 0.56183 0.0
C124 C 0.80635 0.14983 0.55176 0.0
C125 C 0.77729 0.16795 0.56865 0.0
H126 H 0.70986 0.19608 0.67866 0.0
C127 C 0.81298 0.12599 0.58665 0.0
C128 C 0.78388 0.15077 0.59064 0.0
H129 H 0.67192 0.24396 0.61694 0.0
H130 H 0.71462 0.20897 0.59366 0.0
H131 H 0.67541 0.13804 0.65845 0.0
H132 H 0.82542 0.17582 0.66412 0.0
H133 H 0.82791 0.13994 0.67381 0.0
H134 H 0.78615 0.16475 0.68811 0.0
H135 H 0.71315 0.1335 0.68396 0.0
H136 H 0.71759 0.10892 0.65998 0.0
C137 C 0.72036 0.16905 0.56096 0.0
C138 C 0.8044 0.19758 0.56994 0.0
C139 C 0.87002 0.04577 0.64049 0.0
C140 C 0.86034 0.03995 0.66402 0.0
C141 C 0.83054 0.05959 0.67674 0.0
C142 C 0.81152 0.0845 0.66646 0.0
C143 C 0.82156 0.08992 0.64306 0.0
C144 C 0.84983 0.07059 0.63036 0.0
C145 C 0.85426 0.07936 0.60536 0.0
C146 C 0.82381 0.10704 0.60525 0.0
C147 C 0.80544 0.11325 0.6275 0.0
C148 C 0.82853 0.05584 0.59047 0.0
C149 C 0.91164 0.08463 0.59976 0.0
C150 C 0.71028 0.19905 0.66014 0.0
C151 C 0.68828 0.22347 0.64986 0.0
C152 C 0.68994 0.22607 0.62558 0.0
C153 C 0.71444 0.20551 0.61196 0.0
C154 C 0.73729 0.18173 0.62256 0.0
C155 C 0.7339 0.17843 0.64619 0.0
C156 C 0.75721 0.15073 0.65424 0.0
C157 C 0.77715 0.13865 0.63159 0.0
C158 C 0.76585 0.15707 0.61319 0.0
C159 C 0.71396 0.13177 0.66485 0.0
C160 C 0.80142 0.15797 0.67107 0.0
H161 H 0.87312 0.08759 0.55493 0.0
H162 H 0.79566 0.17499 0.52114 0.0
H163 H 0.84683 0.19511 0.56944 0.0
H164 H 0.79658 0.20919 0.5861 0.0
H165 H 0.79336 0.21138 0.55514 0.0
H166 H 0.70901 0.14918 0.55164 0.0
H167 H 0.71348 0.18745 0.54919 0.0
H168 H 0.6934 0.1702 0.5757 0.0
H169 H 0.89293 0.03144 0.63009 0.0
H170 H 0.82097 0.05554 0.69464 0.0
H171 H 0.78942 0.09851 0.67716 0.0
H172 H 0.7935 0.04725 0.59914 0.0
H173 H 0.85498 0.03761 0.58756 0.0
H174 H 0.81516 0.0639 0.57363 0.0
H175 H 0.93122 0.09543 0.61443 0.0
H176 H 0.91759 0.09903 0.58485 0.0
H177 H 0.93172 0.0641 0.59648 0.0
H178 H 0.88627 0.09815 0.51435 0.0
C179 C 0.85594 0.10669 0.54819 0.0
C180 C 0.84424 0.31015 0.14774 0.0
C181 C 0.85168 0.2824 0.13892 0.0
C182 C 0.83286 0.27614 0.11663 0.0
C183 C 0.79612 0.3238 0.11368 0.0
C184 C 0.8156 0.33003 0.13523 0.0
C185 C 0.79854 0.35869 0.14397 0.0
H186 H 0.64122 0.47211 0.13523 0.0
C187 C 0.76446 0.34848 0.10629 0.0
C188 C 0.76523 0.36871 0.12418 0.0
H189 H 0.74676 0.45097 0.19011 0.0
H190 H 0.77832 0.4112 0.16823 0.0
H191 H 0.72731 0.46007 0.09372 0.0
H192 H 0.60483 0.40909 0.12302 0.0
H193 H 0.60321 0.40519 0.09284 0.0
H194 H 0.59331 0.44004 0.10534 0.0
H195 H 0.66109 0.46713 0.08767 0.0
H196 H 0.69737 0.44157 0.07105 0.0
C197 C 0.84674 0.37799 0.1469 0.0
C198 C 0.76707 0.35362 0.16645 0.0
C199 C 0.67894 0.34881 0.02739 0.0
C200 C 0.64435 0.36765 0.01674 0.0
C201 C 0.62799 0.39215 0.02879 0.0
C202 C 0.64622 0.39804 0.05103 0.0
C203 C 0.6807 0.37902 0.06154 0.0
C204 C 0.69618 0.35474 0.04982 0.0
C205 C 0.73038 0.33605 0.0643 0.0
C206 C 0.73517 0.3539 0.08609 0.0
C207 C 0.70581 0.37904 0.08442 0.0
C208 C 0.78252 0.33294 0.05179 0.0
C209 C 0.70217 0.30719 0.06882 0.0
C210 C 0.6715 0.45906 0.14238 0.0
C211 C 0.69052 0.46431 0.16475 0.0
C212 C 0.7303 0.44694 0.17327 0.0
C213 C 0.74878 0.42384 0.16048 0.0
C214 C 0.72736 0.41778 0.13884 0.0
C215 C 0.69061 0.43573 0.12973 0.0
C216 C 0.67414 0.42629 0.10597 0.0
C217 C 0.70537 0.39905 0.10293 0.0
C218 C 0.73592 0.39415 0.1224 0.0
C219 C 0.69032 0.44994 0.08857 0.0
C220 C 0.61576 0.41994 0.10659 0.0
H221 H 0.7916 0.29057 0.08723 0.0
H222 H 0.85896 0.31622 0.16449 0.0
H223 H 0.7455 0.33297 0.16571 0.0
H224 H 0.73721 0.36986 0.16939 0.0
H225 H 0.79249 0.35277 0.18178 0.0
H226 H 0.87639 0.3729 0.1337 0.0
H227 H 0.86439 0.37493 0.16414 0.0
H228 H 0.83854 0.40099 0.14428 0.0
H229 H 0.69121 0.32951 0.01867 0.0
H230 H 0.60122 0.40685 0.02087 0.0
H231 H 0.63236 0.41705 0.05929 0.0
H232 H 0.79651 0.35419 0.04558 0.0
H233 H 0.77893 0.31862 0.03659 0.0
H234 H 0.81289 0.32451 0.06311 0.0
H235 H 0.65977 0.30975 0.06818 0.0
H236 H 0.70965 0.29854 0.08627 0.0
H237 H 0.71278 0.29087 0.05575 0.0
H238 H 0.83756 0.25499 0.1093 0.0
C239 C 0.80551 0.29673 0.10392 0.0
C240 C 0.69803 0.54523 0.65845 0.0
C241 C 0.66743 0.52262 0.65008 0.0
C242 C 0.65141 0.52353 0.62681 0.0
C243 C 0.69535 0.56918 0.62118 0.0
C244 C 0.71155 0.56798 0.64385 0.0
C245 C 0.74416 0.5933 0.65042 0.0
H246 H 0.82303 0.7278 0.62806 0.0
C247 C 0.7147 0.59645 0.61106 0.0
C248 C 0.74315 0.61062 0.62824 0.0
H249 H 0.86405 0.67338 0.68598 0.0
H250 H 0.81744 0.63464 0.66929 0.0
H251 H 0.85859 0.68225 0.59341 0.0
H252 H 0.70776 0.70409 0.617 0.0
H253 H 0.70688 0.70097 0.58663 0.0
H254 H 0.74862 0.72694 0.59988 0.0
H255 H 0.8221 0.70955 0.57933 0.0
H256 H 0.81775 0.67241 0.57072 0.0
C257 C 0.79891 0.58249 0.65618 0.0
C258 C 0.71724 0.60903 0.67055 0.0
C259 C 0.67393 0.62439 0.52773 0.0
C260 C 0.68513 0.64919 0.51462 0.0
C261 C 0.71179 0.672 0.52527 0.0
C262 C 0.72684 0.67035 0.54836 0.0
C263 C 0.71561 0.64557 0.56118 0.0
C264 C 0.68942 0.62309 0.55097 0.0
C265 C 0.68053 0.59866 0.56769 0.0
C266 C 0.70769 0.60979 0.58915 0.0
C267 C 0.72776 0.63742 0.58517 0.0
C268 C 0.70662 0.57156 0.55795 0.0
C269 C 0.62199 0.59538 0.57152 0.0
C270 C 0.82274 0.70769 0.63734 0.0
C271 C 0.84606 0.70484 0.65925 0.0
C272 C 0.84443 0.6775 0.66993 0.0
C273 C 0.81785 0.65451 0.65999 0.0
C274 C 0.79352 0.65819 0.63868 0.0
C275 C 0.79811 0.68402 0.62723 0.0
C276 C 0.77611 0.68255 0.60324 0.0
C277 C 0.75514 0.65201 0.60283 0.0
C278 C 0.76424 0.63823 0.6239 0.0
C279 C 0.82058 0.68707 0.58567 0.0
C280 C 0.73265 0.70488 0.60138 0.0
H281 H 0.65192 0.54605 0.59485 0.0
H282 H 0.71068 0.54559 0.67622 0.0
H283 H 0.67585 0.61212 0.66668 0.0
H284 H 0.73309 0.63058 0.67384 0.0
H285 H 0.71999 0.59646 0.6868 0.0
H286 H 0.80633 0.56092 0.64876 0.0
H287 H 0.80481 0.58088 0.67511 0.0
H288 H 0.82923 0.59643 0.64863 0.0
H289 H 0.65318 0.60657 0.52017 0.0
H290 H 0.72183 0.69114 0.5156 0.0
H291 H 0.74677 0.68851 0.55533 0.0
H292 H 0.7449 0.57702 0.55055 0.0
H293 H 0.68314 0.56178 0.54404 0.0
H294 H 0.71394 0.55518 0.57129 0.0
H295 H 0.60307 0.61669 0.57175 0.0
H296 H 0.61218 0.58555 0.58831 0.0
H297 H 0.60416 0.58256 0.55751 0.0
H298 H 0.62853 0.50625 0.61969 0.0
C299 C 0.66519 0.54663 0.61236 0.0
C300 C 0.70409 0.80829 0.15472 0.0
C301 C 0.69572 0.78092 0.14545 0.0
C302 C 0.7096 0.77571 0.1223 0.0
C303 C 0.74018 0.82484 0.11821 0.0
C304 C 0.72691 0.82964 0.14101 0.0
C305 C 0.74224 0.85905 0.14902 0.0
H306 H 0.8678 0.98406 0.12982 0.0
C307 C 0.76503 0.85133 0.10915 0.0
C308 C 0.76688 0.87122 0.12734 0.0
H309 H 0.78763 0.95684 0.19145 0.0
H310 H 0.76118 0.91302 0.17265 0.0
H311 H 0.91521 0.92191 0.11481 0.0
H312 H 0.77824 0.96733 0.09674 0.0
H313 H 0.79429 0.94731 0.07224 0.0
H314 H 0.83814 0.97453 0.08254 0.0
H315 H 0.91454 0.95436 0.09808 0.0
H316 H 0.90733 0.91981 0.08466 0.0
C317 C 0.78153 0.85555 0.16886 0.0
C318 C 0.69289 0.87548 0.15576 0.0
C319 C 0.8182 0.86001 0.0243 0.0
C320 C 0.84233 0.8822 0.01159 0.0
C321 C 0.85776 0.90725 0.02334 0.0
C322 C 0.84914 0.91039 0.04705 0.0
C323 C 0.82461 0.88831 0.05943 0.0
C324 C 0.80991 0.86349 0.04817 0.0
C325 C 0.78538 0.84215 0.06456 0.0
C326 C 0.78548 0.85893 0.08709 0.0
C327 C 0.80889 0.88591 0.0839 0.0
C328 C 0.82017 0.81541 0.06587 0.0
C329 C 0.7303 0.8357 0.05614 0.0
C330 C 0.8448 0.96846 0.13917 0.0
C331 C 0.83019 0.97349 0.16216 0.0
C332 C 0.79932 0.95319 0.17374 0.0
C333 C 0.78419 0.92777 0.1628 0.0
C334 C 0.79974 0.92266 0.13993 0.0
C335 C 0.82855 0.94312 0.12832 0.0
C336 C 0.83814 0.93487 0.10357 0.0
C337 C 0.81225 0.90557 0.10258 0.0
C338 C 0.79048 0.89843 0.12401 0.0
C339 C 0.89685 0.93274 0.09986 0.0
C340 C 0.81127 0.95713 0.08782 0.0
H341 H 0.74089 0.79242 0.09105 0.0
H342 H 0.6947 0.81272 0.17258 0.0
H343 H 0.65972 0.86855 0.14503 0.0
H344 H 0.69621 0.89882 0.15266 0.0
H345 H 0.68248 0.87163 0.17411 0.0
H346 H 0.80763 0.83725 0.16544 0.0
H347 H 0.76183 0.85132 0.18556 0.0
H348 H 0.80726 0.87423 0.17088 0.0
H349 H 0.80632 0.84037 0.01589 0.0
H350 H 0.87562 0.92489 0.01407 0.0
H351 H 0.86166 0.93006 0.05479 0.0
H352 H 0.86127 0.82137 0.06353 0.0
H353 H 0.81015 0.79966 0.05223 0.0
H354 H 0.81849 0.80472 0.08289 0.0
H355 H 0.71027 0.85595 0.05169 0.0
H356 H 0.70635 0.82502 0.06936 0.0
H357 H 0.73089 0.82201 0.04048 0.0
H358 H 0.70351 0.75469 0.11484 0.0
C359 C 0.73134 0.79759 0.10856 0.0
C360 C 0.17998 0.95218 0.3584 0.0
C361 C 0.16035 0.97692 0.36889 0.0
C362 C 0.15226 0.97653 0.39304 0.0
C363 C 0.18343 0.92746 0.39531 0.0
C364 C 0.19174 0.92823 0.37177 0.0
C365 C 0.21487 0.90123 0.36271 0.0
H366 H 0.30394 0.76766 0.37935 0.0
C367 C 0.19942 0.89871 0.4037 0.0
C368 C 0.21819 0.88356 0.38455 0.0
H369 H 0.29979 0.81781 0.3165 0.0
H370 H 0.26071 0.85662 0.33668 0.0
H371 H 0.33822 0.82186 0.41399 0.0
H372 H 0.19329 0.78339 0.396 0.0
H373 H 0.18761 0.79464 0.42475 0.0
H374 H 0.23425 0.76767 0.41731 0.0
H375 H 0.31991 0.78589 0.4217 0.0
H376 H 0.3022 0.8159 0.43939 0.0
C377 C 0.26878 0.90874 0.35276 0.0
C378 C 0.17684 0.8879 0.34511 0.0
C379 C 0.17629 0.86928 0.48817 0.0
C380 C 0.18521 0.84337 0.50015 0.0
C381 C 0.20459 0.81983 0.4876 0.0
C382 C 0.21605 0.8221 0.46405 0.0
C383 C 0.2076 0.84807 0.45249 0.0
C384 C 0.18742 0.87106 0.46441 0.0
C385 C 0.17916 0.8966 0.44883 0.0
C386 C 0.1978 0.88508 0.42574 0.0
C387 C 0.21494 0.85663 0.42811 0.0
C388 C 0.21312 0.92164 0.45746 0.0
C389 C 0.12115 0.90334 0.44853 0.0
C390 C 0.29491 0.78717 0.3701 0.0
C391 C 0.30468 0.78956 0.3462 0.0
C392 C 0.29195 0.81519 0.33476 0.0
C393 C 0.2695 0.8379 0.3466 0.0
C394 C 0.2595 0.83527 0.37033 0.0
C395 C 0.27206 0.81028 0.38177 0.0
C396 C 0.25729 0.81157 0.40698 0.0
C397 C 0.235 0.84167 0.40869 0.0
C398 C 0.23653 0.85521 0.38712 0.0
C399 C 0.30675 0.80849 0.42145 0.0
C400 C 0.21626 0.78805 0.41172 0.0
H401 H 0.1568 0.95297 0.42454 0.0
H402 H 0.18575 0.95108 0.33992 0.0
H403 H 0.13639 0.89161 0.35047 0.0
H404 H 0.18003 0.86436 0.34378 0.0
H405 H 0.18205 0.89749 0.32769 0.0
H406 H 0.28571 0.92787 0.36137 0.0
H407 H 0.26687 0.91353 0.334 0.0
H408 H 0.2972 0.89162 0.35571 0.0
H409 H 0.16155 0.88787 0.49707 0.0
H410 H 0.21047 0.79932 0.49592 0.0
H411 H 0.23084 0.80339 0.4557 0.0
H412 H 0.2513 0.9137 0.46304 0.0
H413 H 0.19508 0.93252 0.47243 0.0
H414 H 0.22129 0.93769 0.4439 0.0
H415 H 0.09817 0.88322 0.44735 0.0
H416 H 0.10971 0.91635 0.43353 0.0
H417 H 0.10944 0.91463 0.46454 0.0
H418 H 0.13764 0.99529 0.40177 0.0
C419 C 0.16363 0.95195 0.40628 0.0
C420 C 0.20679 0.69743 0.86345 0.0
C421 C 0.19612 0.72484 0.87243 0.0
C422 C 0.21342 0.73146 0.89489 0.0
C423 C 0.24979 0.68407 0.89896 0.0
C424 C 0.2342 0.67771 0.87681 0.0
C425 C 0.25167 0.64849 0.86927 0.0
H426 H 0.39335 0.53049 0.89023 0.0
C427 C 0.27781 0.65907 0.90811 0.0
C428 C 0.27978 0.63831 0.89069 0.0
H429 H 0.30496 0.55099 0.82924 0.0
H430 H 0.27511 0.59402 0.84723 0.0
H431 H 0.43368 0.59417 0.90335 0.0
H432 H 0.29907 0.54663 0.92473 0.0
H433 H 0.32124 0.56601 0.94866 0.0
H434 H 0.36145 0.53881 0.93604 0.0
H435 H 0.43658 0.56215 0.92059 0.0
H436 H 0.42657 0.59664 0.93359 0.0
C437 C 0.28835 0.65256 0.84839 0.0
C438 C 0.20353 0.62988 0.86423 0.0
C439 C 0.33661 0.65932 0.99137 0.0
C440 C 0.36291 0.63953 1.00527 0.0
C441 C 0.37988 0.61372 0.99519 0.0
C442 C 0.37048 0.60779 0.97178 0.0
C443 C 0.34364 0.62779 0.95826 0.0
C444 C 0.32756 0.65312 0.96815 0.0
C445 C 0.29997 0.67211 0.95137 0.0
C446 C 0.30031 0.65358 0.92993 0.0
C447 C 0.32614 0.62769 0.93393 0.0
C448 C 0.33201 0.70001 0.94808 0.0
C449 C 0.24482 0.67693 0.96057 0.0
C450 C 0.36731 0.54405 0.88072 0.0
C451 C 0.35287 0.53739 0.85787 0.0
C452 C 0.31854 0.55587 0.84642 0.0
C453 C 0.30077 0.58087 0.85699 0.0
C454 C 0.31689 0.5876 0.87943 0.0
C455 C 0.34847 0.56897 0.89118 0.0
C456 C 0.35842 0.57874 0.91556 0.0
C457 C 0.32992 0.60706 0.91597 0.0
C458 C 0.30607 0.61219 0.89465 0.0
C459 C 0.41689 0.58306 0.91864 0.0
C460 C 0.33425 0.55643 0.93227 0.0
H461 H 0.25138 0.71767 0.92514 0.0
H462 H 0.19405 0.69123 0.84641 0.0
H463 H 0.17124 0.63565 0.8759 0.0
H464 H 0.20989 0.60681 0.86742 0.0
H465 H 0.19022 0.63291 0.8462 0.0
H466 H 0.31285 0.67197 0.85065 0.0
H467 H 0.26647 0.65528 0.83212 0.0
H468 H 0.31568 0.63482 0.84624 0.0
H469 H 0.32223 0.67916 0.99849 0.0
H470 H 0.40071 0.59819 1.00536 0.0
H471 H 0.38448 0.58787 0.96509 0.0
H472 H 0.37325 0.69659 0.95211 0.0
H473 H 0.31805 0.71739 0.95952 0.0
H474 H 0.33201 0.70768 0.92999 0.0
H475 H 0.22814 0.6565 0.96724 0.0
H476 H 0.21802 0.68436 0.94717 0.0
H477 H 0.24474 0.69267 0.97491 0.0
H478 H 0.20742 0.7525 0.90221 0.0
C479 C 0.23968 0.71124 0.90819 0.0
Eu480 Eu 0.06041 0.13498 0.24376 0.0
C481 C 0.82458 0.10987 0.25917 0.0
N482 N 0.84896 0.1357 0.26009 0.0
C483 C 0.78028 0.15771 0.2393 0.0
C484 C 0.77703 0.10697 0.24781 0.0
C485 C 0.82744 0.15953 0.25063 0.0
C486 C 0.75499 0.1313 0.23783 0.0
C487 C 0.82466 0.05875 0.26721 0.0
C488 C 0.8483 0.08599 0.26877 0.0
C489 C 0.77711 0.05589 0.25608 0.0
C490 C 0.75336 0.07991 0.24644 0.0
Eu491 Eu 0.92751 0.13685 0.28011 0.0
N492 N 0.89521 0.08919 0.27883 0.0
C493 C 0.8497 0.03509 0.2767 0.0
C494 C 0.91881 0.06629 0.28875 0.0
C495 C 0.89681 0.03892 0.28764 0.0
H496 H 0.84603 0.18008 0.25234 0.0
H497 H 0.91608 0.02083 0.29538 0.0
H498 H 0.14844 0.08602 0.25738 0.0
H499 H 0.08122 0.2517 0.23691 0.0
H500 H 0.95412 0.06883 0.29785 0.0
H501 H 0.83283 0.01383 0.27582 0.0
H502 H 0.03973 0.20496 0.23074 0.0
H503 H 0.76333 0.1767 0.23183 0.0
H504 H 0.75854 0.03511 0.2547 0.0
H505 H 0.71688 0.07729 0.23776 0.0
H506 H 0.23532 0.08418 0.27441 0.0
H507 H 0.71851 0.12994 0.22897 0.0
H508 H 0.1665 0.25432 0.25542 0.0
N509 N 0.14509 0.13139 0.25773 0.0
C510 C 0.17059 0.15638 0.26161 0.0
C511 C 0.21742 0.10464 0.27109 0.0
C512 C 0.22044 0.15644 0.27102 0.0
C513 C 0.16804 0.10571 0.26178 0.0
C514 C 0.24358 0.13013 0.27594 0.0
N515 N 0.09894 0.1811 0.24675 0.0
C516 C 0.0761 0.20565 0.2393 0.0
C517 C 0.17266 0.20831 0.25941 0.0
C518 C 0.14708 0.18198 0.25578 0.0
C519 C 0.14817 0.23365 0.2529 0.0
C520 C 0.09996 0.23227 0.24253 0.0
H521 H 0.28185 0.12927 0.28315 0.0
H522 H 0.28383 0.18313 0.2824 0.0
H523 H 0.24191 0.22855 0.27232 0.0
O524 O 0.06286 0.14298 0.20646 0.0
O525 O 0.06251 0.15852 0.27799 0.0
O526 O 0.98043 0.17564 0.28302 0.0
O527 O 0.10837 0.10904 0.22118 0.0
O528 O 0.9904 0.15695 0.22788 0.0
O529 O 0.94373 0.17569 0.2581 0.0
O530 O 0.91132 0.13111 0.31729 0.0
O531 O 0.92835 0.11462 0.24504 0.0
O532 O 0.00877 0.09629 0.2457 0.0
O533 O 0.86754 0.16172 0.29668 0.0
O534 O 0.9967 0.11738 0.298 0.0
O535 O 0.05171 0.09883 0.27015 0.0
C536 C 0.0298 0.17613 0.28767 0.0
C537 C 0.14085 0.13153 0.18746 0.0
C538 C 0.17614 0.13619 0.14831 0.0
C539 C 0.22451 0.14224 0.15809 0.0
C540 C 0.18918 0.1382 0.19664 0.0
C541 C 0.23066 0.14357 0.18199 0.0
C542 C 0.13429 0.1311 0.16338 0.0
C543 C 0.95704 0.17538 0.23622 0.0
C544 C 0.09754 0.12354 0.20264 0.0
C545 C 0.24568 0.18265 0.27503 0.0
C546 C 0.22182 0.20851 0.26927 0.0
C547 C 0.96236 0.09635 0.23732 0.0
C548 C 0.84385 0.15835 0.33709 0.0
C549 C 0.82724 0.15768 0.37859 0.0
C550 C 0.78705 0.17718 0.37532 0.0
C551 C 0.80318 0.17771 0.33427 0.0
C552 C 0.85532 0.14801 0.35936 0.0
C553 C 0.77496 0.18695 0.35328 0.0
C554 C 0.03469 0.10052 0.29169 0.0
C555 C 0.87487 0.15014 0.31681 0.0
H556 H 0.25818 0.14538 0.14739 0.0
H557 H 0.19517 0.13875 0.21508 0.0
H558 H 0.26804 0.14826 0.18919 0.0
H559 H 0.09646 0.1266 0.15655 0.0
H560 H 0.76476 0.18474 0.38987 0.0
H561 H 0.79334 0.18593 0.31737 0.0
H562 H 0.88671 0.1332 0.36183 0.0
H563 H 0.74382 0.20191 0.35093 0.0
Eu564 Eu 0.435 0.36578 0.73621 0.0
C565 C 0.67376 0.37051 0.75922 0.0
N566 N 0.63773 0.35033 0.76442 0.0
C567 C 0.69528 0.31316 0.75263 0.0
C568 C 0.72157 0.36278 0.74969 0.0
C569 C 0.64896 0.32188 0.76254 0.0
C570 C 0.73145 0.33372 0.74583 0.0
C571 C 0.70218 0.42006 0.76151 0.0
C572 C 0.6642 0.39878 0.76494 0.0
C573 C 0.74898 0.41267 0.75111 0.0
C574 C 0.75859 0.3841 0.74514 0.0
Eu575 Eu 0.55921 0.36737 0.77972 0.0
N576 N 0.61835 0.40535 0.77464 0.0
C577 C 0.69207 0.44805 0.76888 0.0
C578 C 0.60934 0.43216 0.78309 0.0
C579 C 0.64567 0.45404 0.77996 0.0
H580 H 0.62235 0.30577 0.76877 0.0
H581 H 0.63793 0.47546 0.78613 0.0
H582 H 0.34204 0.3978 0.76566 0.0
H583 H 0.44285 0.25491 0.70483 0.0
H584 H 0.57348 0.43667 0.79175 0.0
H585 H 0.72017 0.46502 0.76647 0.0
H586 H 0.46415 0.30634 0.70468 0.0
H587 H 0.70335 0.29057 0.75058 0.0
H588 H 0.77835 0.42879 0.74802 0.0
H589 H 0.79535 0.3786 0.73764 0.0
H590 H 0.26419 0.38446 0.78815 0.0
H591 H 0.76761 0.3269 0.73846 0.0
H592 H 0.37477 0.23625 0.73075 0.0
N593 N 0.35933 0.35479 0.75687 0.0
C594 C 0.34443 0.32687 0.7575 0.0
C595 C 0.28656 0.36806 0.7797 0.0
C596 C 0.30094 0.31821 0.7703 0.0
C597 C 0.33035 0.37556 0.76698 0.0
C598 C 0.27215 0.33921 0.78162 0.0
N599 N 0.41328 0.31643 0.73232 0.0
C600 C 0.43627 0.29839 0.71696 0.0
C601 C 0.35806 0.27788 0.74529 0.0
C602 C 0.37286 0.30703 0.74523 0.0
C603 C 0.3849 0.2588 0.73119 0.0
C604 C 0.42345 0.26924 0.7166 0.0
H605 H 0.23847 0.33343 0.79164 0.0
H606 H 0.25467 0.28187 0.78128 0.0
H607 H 0.30459 0.24654 0.75931 0.0
O608 O 0.39569 0.36014 0.70281 0.0
O609 O 0.42888 0.35682 0.77483 0.0
O610 O 0.5013 0.33112 0.78105 0.0
O611 O 0.39452 0.4016 0.72034 0.0
O612 O 0.5088 0.34413 0.72459 0.0
O613 O 0.54039 0.32726 0.75899 0.0
O614 O 0.54465 0.37757 0.81589 0.0
O615 O 0.55544 0.40187 0.75141 0.0
O616 O 0.51188 0.37953 0.72196 0.0
O617 O 0.60987 0.35175 0.80706 0.0
O618 O 0.49325 0.3971 0.7885 0.0
O619 O 0.44711 0.40797 0.75508 0.0
C620 C 0.45278 0.33591 0.78531 0.0
C621 C 0.34848 0.39892 0.68409 0.0
C622 C 0.32353 0.40248 0.64352 0.0
C623 C 0.28476 0.42179 0.64982 0.0
C624 C 0.31 0.41856 0.68986 0.0
C625 C 0.27823 0.4298 0.67281 0.0
C626 C 0.35538 0.39099 0.66083 0.0
C627 C 0.53795 0.32643 0.73637 0.0
C628 C 0.38037 0.3866 0.70254 0.0
C629 C 0.28752 0.28903 0.77127 0.0
C630 C 0.31607 0.2689 0.75882 0.0
C631 C 0.54027 0.40065 0.72974 0.0
C632 C 0.57134 0.34389 0.84355 0.0
C633 C 0.5776 0.33395 0.88485 0.0
C634 C 0.54422 0.31042 0.88203 0.0
C635 C 0.53905 0.31998 0.84101 0.0
C636 C 0.59107 0.35063 0.86544 0.0
C637 C 0.5254 0.30341 0.86019 0.0
C638 C 0.46215 0.41349 0.77637 0.0
C639 C 0.58284 0.36265 0.82373 0.0
H640 H 0.26005 0.43112 0.63686 0.0
H641 H 0.30404 0.42492 0.70764 0.0
H642 H 0.24848 0.44483 0.67743 0.0
H643 H 0.38525 0.37597 0.65623 0.0
H644 H 0.53336 0.29722 0.89668 0.0
H645 H 0.52431 0.31427 0.82424 0.0
H646 H 0.61603 0.36914 0.86744 0.0
H647 H 0.5001 0.2851 0.85813 0.0
Eu648 Eu 0.06215 0.87072 0.73401 0.0
C649 C 0.85432 0.82629 0.76611 0.0
N650 N 0.87447 0.8528 0.76201 0.0
C651 C 0.8048 0.86383 0.73669 0.0
C652 C 0.80919 0.81718 0.75487 0.0
C653 C 0.84959 0.87195 0.74824 0.0
C654 C 0.78476 0.83624 0.73985 0.0
C655 C 0.85928 0.78048 0.78593 0.0
C656 C 0.87933 0.80812 0.78141 0.0
C657 C 0.81462 0.77124 0.77457 0.0
C658 C 0.78972 0.78951 0.75906 0.0
Eu659 Eu 0.94878 0.86481 0.78304 0.0
N660 N 0.92323 0.81733 0.79178 0.0
C661 C 0.88497 0.76282 0.8016 0.0
C662 C 0.94735 0.80057 0.80768 0.0
C663 C 0.929 0.773 0.81262 0.0
H664 H 0.86433 0.89346 0.74616 0.0
H665 H 0.9485 0.75973 0.82514 0.0
H666 H 0.14873 0.81795 0.73779 0.0
H667 H 0.0954 0.98516 0.72031 0.0
H668 H 0.97988 0.80863 0.81711 0.0
H669 H 0.87085 0.74145 0.80549 0.0
H670 H 0.04544 0.93991 0.72027 0.0
H671 H 0.78558 0.8789 0.72548 0.0
H672 H 0.79897 0.75 0.7777 0.0
H673 H 0.75521 0.78209 0.7505 0.0
H674 H 0.24098 0.81255 0.74668 0.0
H675 H 0.75 0.83003 0.73089 0.0
H676 H 0.18701 0.98472 0.73147 0.0
N677 N 0.15037 0.86328 0.7404 0.0
C678 C 0.18011 0.88724 0.74169 0.0
C679 C 0.22422 0.83368 0.74568 0.0
C680 C 0.23322 0.8853 0.74597 0.0
C681 C 0.17188 0.83673 0.74114 0.0
C682 C 0.25492 0.85808 0.74848 0.0
N683 N 0.10689 0.91483 0.73288 0.0
C684 C 0.08491 0.93975 0.72568 0.0
C685 C 0.18826 0.93886 0.73737 0.0
C686 C 0.15793 0.91371 0.73743 0.0
C687 C 0.16504 0.96493 0.7317 0.0
C688 C 0.11331 0.96529 0.72546 0.0
H689 H 0.29556 0.85568 0.75178 0.0
H690 H 0.30393 0.90936 0.75036 0.0
H691 H 0.26456 0.95625 0.74285 0.0
O692 O 0.0275 0.87112 0.69957 0.0
O693 O 0.0618 0.9044 0.76252 0.0
O694 O 0.02405 0.88407 0.79516 0.0
O695 O 0.1086 0.86379 0.70313 0.0
O696 O 0.98412 0.89135 0.72949 0.0
O697 O 0.95559 0.90741 0.76457 0.0
O698 O 0.91958 0.8609 0.81853 0.0
O699 O 0.9463 0.84528 0.74695 0.0
O700 O 0.02478 0.82738 0.73794 0.0
O701 O 0.89654 0.8965 0.7973 0.0
O702 O 0.02413 0.84421 0.79329 0.0
O703 O 0.07137 0.83376 0.75985 0.0
C704 C 0.05604 0.90217 0.78509 0.0
C705 C 0.06864 0.84343 0.67073 0.0
C706 C 0.08235 0.83007 0.63042 0.0
C707 C 0.07315 0.80126 0.63638 0.0
C708 C 0.05978 0.81456 0.67632 0.0
C709 C 0.06148 0.79364 0.65914 0.0
C710 C 0.07936 0.85117 0.6477 0.0
C711 C 0.96398 0.9114 0.74244 0.0
C712 C 0.0703 0.86537 0.68891 0.0
C713 C 0.26316 0.91042 0.74689 0.0
C714 C 0.24075 0.93713 0.74257 0.0
C715 C 0.97515 0.82391 0.7402 0.0
C716 C 0.90224 0.9049 0.83776 0.0
C717 C 0.90658 0.91339 0.87947 0.0
C718 C 0.91401 0.94276 0.87506 0.0
C719 C 0.90938 0.93448 0.83398 0.0
C720 C 0.90007 0.8945 0.8607 0.0
C721 C 0.91489 0.95318 0.85252 0.0
C722 C 0.06075 0.8304 0.78212 0.0
C723 C 0.89543 0.8852 0.81789 0.0
H724 H 0.075 0.78465 0.62337 0.0
H725 H 0.05228 0.80818 0.69399 0.0
H726 H 0.05447 0.77139 0.66355 0.0
H727 H 0.08708 0.87342 0.64338 0.0
H728 H 0.91869 0.95776 0.88916 0.0
H729 H 0.91077 0.94329 0.81668 0.0
H730 H 0.89411 0.87182 0.86393 0.0
H731 H 0.92033 0.97589 0.84938 0.0
Eu732 Eu 0.45568 0.62937 0.23743 0.0
C733 C 0.69465 0.65001 0.25958 0.0
N734 N 0.66645 0.62578 0.26318 0.0
C735 C 0.73579 0.59689 0.24952 0.0
C736 C 0.74485 0.64853 0.25056 0.0
C737 C 0.6862 0.59941 0.25852 0.0
C738 C 0.76521 0.62155 0.24546 0.0
C739 C 0.7015 0.70192 0.26134 0.0
C740 C 0.67318 0.67643 0.26485 0.0
C741 C 0.75144 0.70052 0.25226 0.0
C742 C 0.77303 0.67391 0.24687 0.0
Eu743 Eu 0.58257 0.63233 0.27729 0.0
N744 N 0.62417 0.67721 0.27304 0.0
C745 C 0.67873 0.72808 0.26704 0.0
C746 C 0.60239 0.70254 0.27935 0.0
C747 C 0.62913 0.72835 0.27625 0.0
H748 H 0.66384 0.58029 0.26199 0.0
H749 H 0.61148 0.74845 0.28096 0.0
H750 H 0.36008 0.65298 0.27072 0.0
H751 H 0.48002 0.52338 0.19812 0.0
H752 H 0.56432 0.703 0.28659 0.0
H753 H 0.69924 0.74813 0.26459 0.0
H754 H 0.49262 0.57545 0.20164 0.0
H755 H 0.75133 0.57595 0.24577 0.0
H756 H 0.77372 0.71989 0.24936 0.0
H757 H 0.81162 0.6732 0.2399 0.0
H758 H 0.28544 0.63335 0.29218 0.0
H759 H 0.80363 0.61952 0.23848 0.0
H760 H 0.41553 0.49867 0.22261 0.0
N761 N 0.38244 0.61259 0.25748 0.0
C762 C 0.37171 0.58412 0.25585 0.0
C763 C 0.30947 0.61927 0.28209 0.0
C764 C 0.32984 0.57194 0.26793 0.0
C765 C 0.35166 0.63034 0.26997 0.0
C766 C 0.29871 0.58991 0.2812 0.0
N767 N 0.44284 0.57963 0.23057 0.0
C768 C 0.4675 0.56469 0.21367 0.0
C769 C 0.3928 0.53751 0.24016 0.0
C770 C 0.40334 0.5671 0.24236 0.0
C771 C 0.4224 0.52143 0.22481 0.0
C772 C 0.45906 0.53525 0.21107 0.0
H773 H 0.26626 0.58135 0.29077 0.0
H774 H 0.2891 0.5325 0.27594 0.0
H775 H 0.34389 0.50239 0.25145 0.0
O776 O 0.43961 0.62907 0.20014 0.0
O777 O 0.45578 0.61185 0.27432 0.0
O778 O 0.53492 0.59186 0.27632 0.0
O779 O 0.38876 0.65171 0.2238 0.0
O780 O 0.53264 0.61491 0.22243 0.0
O781 O 0.57171 0.59429 0.25375 0.0
O782 O 0.56975 0.63606 0.31444 0.0
O783 O 0.58575 0.65769 0.24362 0.0
O784 O 0.50254 0.67036 0.23477 0.0
O785 O 0.63851 0.6157 0.30195 0.0
O786 O 0.51366 0.6576 0.29018 0.0
O787 O 0.45649 0.66827 0.26054 0.0
C788 C 0.48619 0.59158 0.28176 0.0
C789 C 0.36618 0.65377 0.1831 0.0
C790 C 0.34757 0.65526 0.14181 0.0
C791 C 0.30792 0.67479 0.14613 0.0
C792 C 0.32589 0.67306 0.18701 0.0
C793 C 0.29697 0.68343 0.16861 0.0
C794 C 0.37644 0.64458 0.16039 0.0
C795 C 0.56585 0.59682 0.23133 0.0
C796 C 0.39886 0.64476 0.20258 0.0
C797 C 0.32068 0.5423 0.26655 0.0
C798 C 0.35209 0.52513 0.25271 0.0
C799 C 0.55239 0.67361 0.23257 0.0
C800 C 0.6439 0.64102 0.33721 0.0
C801 C 0.66665 0.65031 0.37741 0.0
C802 C 0.69687 0.67372 0.37009 0.0
C803 C 0.67467 0.66433 0.33034 0.0
C804 C 0.64037 0.63385 0.36079 0.0
C805 C 0.70101 0.68053 0.34671 0.0
C806 C 0.47429 0.67175 0.28164 0.0
C807 C 0.61381 0.62497 0.32 0.0
H808 H 0.28513 0.68319 0.13207 0.0
H809 H 0.31718 0.68053 0.20425 0.0
H810 H 0.26622 0.69842 0.17178 0.0
H811 H 0.4075 0.62979 0.15707 0.0
H812 H 0.7178 0.68658 0.38249 0.0
H813 H 0.6782 0.6701 0.31237 0.0
H814 H 0.61646 0.61594 0.36622 0.0
H815 H 0.7246 0.69851 0.34125 0.0
H816 H 0.0814 0.0153 0.37409 0.0
H817 H 0.21166 0.99647 0.33049 0.0
H818 H 0.1837 0.03209 0.30271 0.0
H819 H 0.11891 0.06581 0.28934 0.0
H820 H 0.99568 0.09005 0.33494 0.0
H821 H 0.02432 0.05508 0.36328 0.0
C822 C 0.10442 0.01934 0.3588 0.0
C823 C 0.14767 0.00228 0.35418 0.0
C824 C 0.08907 0.04064 0.34303 0.0
C825 C 0.17693 0.00822 0.33419 0.0
C826 C 0.16122 0.02881 0.31827 0.0
C827 C 0.09889 0.06407 0.30556 0.0
C828 C 0.055 0.08063 0.30963 0.0
C829 C 0.11666 0.04464 0.32223 0.0
C830 C 0.02948 0.07757 0.33101 0.0
C831 C 0.04582 0.05752 0.34735 0.0
H832 H 0.37557 0.53122 0.81198 0.0
H833 H 0.37675 0.4849 0.87667 0.0
H834 H 0.41241 0.44325 0.85729 0.0
H835 H 0.44231 0.41959 0.82196 0.0
H836 H 0.43367 0.46417 0.75681 0.0
H837 H 0.40026 0.50664 0.77636 0.0
C838 C 0.38262 0.51193 0.82189 0.0
C839 C 0.3735 0.51154 0.84591 0.0
C840 C 0.4016 0.48763 0.81052 0.0
C841 C 0.38427 0.48631 0.85833 0.0
C842 C 0.40428 0.46228 0.84721 0.0
C843 C 0.43325 0.43866 0.81206 0.0
C844 C 0.44083 0.4389 0.78802 0.0
C845 C 0.41316 0.46273 0.82334 0.0
C846 C 0.42809 0.46351 0.77533 0.0
C847 C 0.40915 0.48779 0.78651 0.0
H848 H 0.57565 0.4936 0.65176 0.0
H849 H 0.72473 0.49736 0.68405 0.0
H850 H 0.69778 0.4613 0.71208 0.0
H851 H 0.63181 0.42876 0.72757 0.0
H852 H 0.48535 0.42205 0.69396 0.0
H853 H 0.51151 0.45877 0.66602 0.0
C854 C 0.60262 0.48626 0.66466 0.0
C855 C 0.65199 0.49866 0.66586 0.0
C856 C 0.58725 0.465 0.68056 0.0
C857 C 0.68605 0.48888 0.68296 0.0
C858 C 0.67082 0.46807 0.69897 0.0
C859 C 0.60559 0.43555 0.71435 0.0
C860 C 0.55664 0.42303 0.71311 0.0
C861 C 0.62137 0.45619 0.69808 0.0
C862 C 0.52332 0.43146 0.69534 0.0
C863 C 0.53825 0.45245 0.67936 0.0
H864 H 0.92725 0.98771 0.17397 0.0
H865 H 0.77109 0.01691 0.17812 0.0
H866 H 0.79869 0.05891 0.20034 0.0
H867 H 0.86702 0.08633 0.21942 0.0
H868 H 0.02211 0.0545 0.21856 0.0
H869 H 0.99556 0.01492 0.19379 0.0
C870 C 0.89954 0.00349 0.17961 0.0
C871 C 0.84742 0.99957 0.17436 0.0
C872 C 0.9155 0.027 0.19298 0.0
C873 C 0.81146 0.01974 0.18197 0.0
C874 C 0.82722 0.04364 0.19468 0.0
C875 C 0.89493 0.07058 0.21414 0.0
C876 C 0.94627 0.07317 0.22134 0.0
C877 C 0.87908 0.04731 0.2005 0.0
C878 C 0.98218 0.05294 0.21356 0.0
C879 C 0.96705 0.03024 0.19938 0.0
H880 H 0.89245 0.03315 0.70865 0.0
H881 H 0.87269 0.98653 0.64489 0.0
H882 H 0.90426 0.94317 0.66334 0.0
H883 H 0.93572 0.91805 0.69773 0.0
H884 H 0.94848 0.96353 0.76221 0.0
H885 H 0.91963 0.00758 0.74343 0.0
C886 C 0.89414 0.01348 0.69877 0.0
C887 C 0.88014 0.01341 0.67528 0.0
C888 C 0.91065 0.98828 0.70969 0.0
C889 C 0.88407 0.98764 0.66281 0.0
C890 C 0.90164 0.96265 0.67342 0.0
C891 C 0.93209 0.93761 0.70767 0.0
C892 C 0.94421 0.93759 0.73131 0.0
C893 C 0.91487 0.9627 0.69685 0.0
C894 C 0.93898 0.96299 0.74402 0.0
C895 C 0.92276 0.98819 0.73327 0.0
H896 H 0.66181 0.519 0.15328 0.0
H897 H 0.66732 0.4595 0.21039 0.0
H898 H 0.63224 0.49565 0.23607 0.0
H899 H 0.59845 0.54367 0.24241 0.0
H900 H 0.58956 0.60329 0.18563 0.0
H901 H 0.62719 0.56762 0.15973 0.0
C902 C 0.65503 0.51393 0.1713 0.0
C903 C 0.66777 0.48663 0.17989 0.0
C904 C 0.63434 0.53485 0.18608 0.0
C905 C 0.65892 0.48049 0.20336 0.0
C906 C 0.63857 0.5011 0.21809 0.0
C907 C 0.60538 0.54901 0.22443 0.0
C908 C 0.59162 0.5761 0.21596 0.0
C909 C 0.62627 0.52834 0.20967 0.0
C910 C 0.59995 0.58253 0.19254 0.0
C911 C 0.62133 0.56213 0.17774 0.0
H912 H 0.42117 0.47439 0.32834 0.0
H913 H 0.3013 0.5273 0.35609 0.0
H914 H 0.33644 0.56917 0.33546 0.0
H915 H 0.40208 0.59052 0.30969 0.0
H916 H 0.5229 0.53729 0.28279 0.0
H917 H 0.48737 0.49583 0.30322 0.0
C918 C 0.40307 0.49518 0.32987 0.0
C919 C 0.35904 0.49804 0.34362 0.0
C920 C 0.42386 0.51902 0.31826 0.0
C921 C 0.33554 0.52489 0.34565 0.0
C922 C 0.35556 0.5487 0.33386 0.0
C923 C 0.42041 0.5698 0.30829 0.0
C924 C 0.46481 0.5669 0.29468 0.0
C925 C 0.39979 0.54602 0.32015 0.0
C926 C 0.48874 0.54007 0.29323 0.0
C927 C 0.46834 0.51632 0.30481 0.0
H928 H 0.19775 0.99453 0.83231 0.0
H929 H 0.06134 0.00694 0.87332 0.0
H930 H 0.01953 0.96682 0.85371 0.0
H931 H 0.01883 0.93101 0.82221 0.0
H932 H 0.15617 0.91818 0.78237 0.0
H933 H 0.1999 0.95617 0.8035 0.0
C934 C 0.15878 0.9885 0.83693 0.0
C935 C 0.1325 0.00397 0.85403 0.0
C936 C 0.13464 0.96578 0.82532 0.0
C937 C 0.08252 0.99538 0.86024 0.0
C938 C 0.05835 0.9726 0.84887 0.0
C939 C 0.05841 0.93647 0.81832 0.0
C940 C 0.08361 0.92285 0.79991 0.0
C941 C 0.08359 0.95805 0.83101 0.0
C942 C 0.13511 0.92966 0.79535 0.0
C943 C 0.16038 0.95102 0.80778 0.0
H944 H 0.13078 0.11044 0.0429 0.0
H945 H 0.26053 0.16789 0.03462 0.0
H946 H 0.26196 0.17606 0.07593 0.0
H947 H 0.2293 0.16564 0.11462 0.0
H948 H 0.10942 0.10198 0.12345 0.0
H949 H 0.10151 0.09779 0.08183 0.0
C950 C 0.16005 0.12442 0.04997 0.0
C951 C 0.19531 0.13851 0.03518 0.0
C952 C 0.1625 0.12805 0.07405 0.0
C953 C 0.23184 0.15715 0.04511 0.0
C954 C 0.2332 0.16165 0.06893 0.0
C955 C 0.20192 0.15042 0.10765 0.0
C956 C 0.17012 0.13422 0.1226 0.0
C957 C 0.19913 0.14696 0.08359 0.0
C958 C 0.13389 0.11534 0.11274 0.0
C959 C 0.12965 0.11262 0.08879 0.0
H960 H 0.38344 0.39269 0.5381 0.0
H961 H 0.22273 0.37101 0.53323 0.0
H962 H 0.21454 0.37302 0.57519 0.0
H963 H 0.25149 0.38438 0.61308 0.0
H964 H 0.41234 0.40518 0.61845 0.0
H965 H 0.42231 0.39979 0.57661 0.0
C966 C 0.34677 0.38824 0.54629 0.0
C967 C 0.30367 0.38188 0.53256 0.0
C968 C 0.34237 0.38933 0.57051 0.0
C969 C 0.25652 0.37578 0.5434 0.0
C970 C 0.25175 0.37708 0.56739 0.0
C971 C 0.2888 0.38745 0.60507 0.0
C972 C 0.33104 0.39538 0.61876 0.0
C973 C 0.29416 0.38432 0.58108 0.0
C974 C 0.37933 0.39896 0.60827 0.0
C975 C 0.38493 0.39607 0.58434 0.0
H976 H 0.69865 0.3597 0.97718 0.0
H977 H 0.54452 0.36205 1.00417 0.0
H978 H 0.51007 0.35153 0.96582 0.0
H979 H 0.52389 0.34151 0.92456 0.0
H980 H 0.67761 0.34206 0.89696 0.0
H981 H 0.71226 0.35178 0.93543 0.0
C982 C 0.65757 0.35782 0.97458 0.0
C983 C 0.62408 0.36144 0.9934 0.0
C984 C 0.63806 0.3524 0.95237 0.0
C985 C 0.5709 0.35936 0.98987 0.0
C986 C 0.55126 0.35332 0.96798 0.0
C987 C 0.56496 0.34374 0.92704 0.0
C988 C 0.59823 0.34094 0.90803 0.0
C989 C 0.58445 0.34978 0.94911 0.0
C990 C 0.65131 0.34426 0.91135 0.0
C991 C 0.6711 0.34969 0.93334 0.0
H992 H 0.83979 0.10133 0.4773 0.0
H993 H 0.86389 0.18998 0.49588 0.0
H994 H 0.86505 0.20359 0.45531 0.0
H995 H 0.85143 0.19115 0.41477 0.0
H996 H 0.82947 0.10289 0.39537 0.0
H997 H 0.83648 0.08813 0.43595 0.0
C998 C 0.84632 0.12353 0.47246 0.0
C999 C 0.85056 0.14467 0.48968 0.0
C1000 C 0.84716 0.13129 0.44895 0.0
C1001 C 0.85905 0.17336 0.48304 0.0
C1002 C 0.85999 0.18118 0.45982 0.0
C1003 C 0.84889 0.16865 0.41946 0.0
C1004 C 0.83948 0.14812 0.4023 0.0
C1005 C 0.85272 0.16047 0.44268 0.0
C1006 C 0.83679 0.119 0.4084 0.0
C1007 C 0.84047 0.11063 0.43157 0.0
H1008 H 0.92687 0.89816 0.98689 0.0
H1009 H 0.77525 0.86211 0.97881 0.0
H1010 H 0.78393 0.86527 0.93678 0.0
H1011 H 0.83123 0.88343 0.90233 0.0
H1012 H 0.98089 0.92159 0.91132 0.0
H1013 H 0.97641 0.91253 0.95281 0.0
C1014 C 0.89573 0.89087 0.97596 0.0
C1015 C 0.8502 0.88027 0.98608 0.0
C1016 C 0.90057 0.89333 0.95186 0.0
C1017 C 0.8108 0.87029 0.97156 0.0
C1018 C 0.8156 0.8723 0.94749 0.0
C1019 C 0.86319 0.88916 0.91338 0.0
C1020 C 0.90627 0.90326 0.90382 0.0
C1021 C 0.85982 0.88446 0.93743 0.0
C1022 C 0.94726 0.91085 0.91832 0.0
C1023 C 0.94466 0.90575 0.94204 0.0
H1024 H 0.69098 0.60848 0.48056 0.0
H1025 H 0.64536 0.69592 0.49294 0.0
H1026 H 0.63267 0.70332 0.45176 0.0
H1027 H 0.64143 0.68645 0.41195 0.0
H1028 H 0.68473 0.59903 0.39885 0.0
H1029 H 0.69033 0.5899 0.44049 0.0
C1030 C 0.67729 0.62896 0.47428 0.0
C1031 C 0.67023 0.65178 0.48986 0.0
C1032 C 0.66987 0.63313 0.45041 0.0
C1033 C 0.65245 0.67819 0.48135 0.0
C1034 C 0.64495 0.68244 0.45778 0.0
C1035 C 0.65159 0.66533 0.41826 0.0
C1036 C 0.66319 0.64353 0.40243 0.0
C1037 C 0.65482 0.66033 0.44211 0.0
C1038 C 0.67559 0.61613 0.41075 0.0
C1039 C 0.67907 0.61098 0.43455 0.0
H1040 H 0.35634 0.6024 0.04196 0.0
H1041 H 0.3878 0.69097 0.02489 0.0
H1042 H 0.38845 0.70327 0.06569 0.0
H1043 H 0.37302 0.68977 0.1061 0.0
H1044 H 0.34545 0.60129 0.12381 0.0
H1045 H 0.35151 0.58789 0.08295 0.0
C1046 C 0.36444 0.62427 0.04714 0.0
C1047 C 0.37084 0.64581 0.03024 0.0
C1048 C 0.36527 0.63124 0.07077 0.0
C1049 C 0.38121 0.67407 0.03742 0.0
C1050 C 0.38188 0.68114 0.06078 0.0
C1051 C 0.36902 0.66752 0.10096 0.0
C1052 C 0.35838 0.64654 0.11775 0.0
C1053 C 0.37267 0.66007 0.07757 0.0
C1054 C 0.35373 0.61774 0.11107 0.0
C1055 C 0.35692 0.61014 0.08775 0.0
H1056 H 0.10766 0.8677 0.52593 0.0
H1057 H 0.23965 0.81261 0.53197 0.0
H1058 H 0.21912 0.80358 0.57226 0.0
H1059 H 0.16241 0.8098 0.60575 0.0
H1060 H 0.03446 0.86746 0.60129 0.0
H1061 H 0.05525 0.87746 0.56069 0.0
C1062 C 0.13249 0.85408 0.53608 0.0
C1063 C 0.17457 0.84037 0.52549 0.0
C1064 C 0.12116 0.84939 0.55963 0.0
C1065 C 0.206 0.82275 0.53919 0.0
C1066 C 0.19459 0.81771 0.5624 0.0
C1067 C 0.13925 0.82463 0.59586 0.0
C1068 C 0.09673 0.83768 0.60634 0.0
C1069 C 0.15191 0.83055 0.57272 0.0
C1070 C 0.06738 0.85717 0.59352 0.0
C1071 C 0.0792 0.8628 0.57031 0.0
H1072 H 0.09319 0.28556 0.34559 0.0
H1073 H 0.22155 0.23148 0.36185 0.0
H1074 H 0.18673 0.19358 0.3371 0.0
H1075 H 0.11926 0.17571 0.31134 0.0
H1076 H 0.98783 0.22848 0.29685 0.0
H1077 H 0.024 0.26696 0.32052 0.0
C1078 C 0.1133 0.26541 0.34366 0.0
C1079 C 0.15972 0.26115 0.35543 0.0
C1080 C 0.0924 0.24352 0.32986 0.0
C1081 C 0.18556 0.23502 0.35301 0.0
C1082 C 0.16574 0.21344 0.33886 0.0
C1083 C 0.09851 0.19564 0.31336 0.0
C1084 C 0.05091 0.19923 0.30237 0.0
C1085 C 0.1191 0.21742 0.32728 0.0
C1086 C 0.02434 0.22509 0.30527 0.0
C1087 C 0.0451 0.24714 0.31873 0.0
H1088 H 0.31263 0.27274 0.85886 0.0
H1089 H 0.40524 0.20119 0.83753 0.0
H1090 H 0.45269 0.23211 0.81078 0.0
H1091 H 0.46762 0.27942 0.79321 0.0
H1092 H 0.37456 0.35097 0.81391 0.0
H1093 H 0.32732 0.32021 0.84101 0.0
C1094 C 0.34346 0.26403 0.84846 0.0
C1095 C 0.35544 0.23475 0.85018 0.0
C1096 C 0.37032 0.2819 0.83294 0.0
C1097 C 0.39503 0.22362 0.83638 0.0
C1098 C 0.42227 0.24129 0.82113 0.0
C1099 C 0.43718 0.28824 0.80379 0.0
C1100 C 0.42458 0.31735 0.80171 0.0
C1101 C 0.41019 0.27043 0.81923 0.0
C1102 C 0.38471 0.32854 0.81523 0.0
C1103 C 0.35786 0.311 0.83075 0.0
H1104 H 0.63506 0.21721 0.69059 0.0
H1105 H 0.68707 0.28143 0.64178 0.0
H1106 H 0.64405 0.31844 0.66387 0.0
H1107 H 0.59099 0.33286 0.69687 0.0
H1108 H 0.54597 0.26998 0.74769 0.0
H1109 H 0.58819 0.23223 0.72532 0.0
C1110 C 0.6379 0.23931 0.6849 0.0
C1111 C 0.66382 0.2462 0.6642 0.0
C1112 C 0.61444 0.2608 0.69812 0.0
C1113 C 0.66619 0.27511 0.65716 0.0
C1114 C 0.64201 0.29646 0.66993 0.0
C1115 C 0.59062 0.31085 0.70298 0.0
C1116 C 0.56539 0.30397 0.72368 0.0
C1117 C 0.61574 0.28953 0.69031 0.0
C1118 C 0.56548 0.2756 0.73176 0.0
C1119 C 0.58941 0.25409 0.71896 0.0
H1120 H 0.84328 0.27597 0.1855 0.0
H1121 H 0.91416 0.23759 0.12573 0.0
H1122 H 0.9522 0.20078 0.15033 0.0
H1123 H 0.96579 0.17971 0.18911 0.0
H1124 H 0.9009 0.22199 0.24859 0.0
H1125 H 0.86139 0.25747 0.22374 0.0
C1126 C 0.86797 0.26005 0.17772 0.0
C1127 C 0.87596 0.25992 0.15367 0.0
C1128 C 0.89091 0.23953 0.19198 0.0
C1129 C 0.90669 0.23823 0.1441 0.0
C1130 C 0.92885 0.21724 0.15821 0.0
C1131 C 0.94312 0.19672 0.19664 0.0
C1132 C 0.93539 0.19764 0.22073 0.0
C1133 C 0.92123 0.21769 0.18221 0.0
C1134 C 0.90653 0.22017 0.23013 0.0
C1135 C 0.88402 0.24064 0.21593 0.0
H1136 H 0.86468 0.71259 0.70573 0.0
H1137 H 0.88696 0.75463 0.63965 0.0
H1138 H 0.92437 0.79569 0.65902 0.0
H1139 H 0.95183 0.82 0.69491 0.0
H1140 H 0.94966 0.77261 0.75865 0.0
H1141 H 0.90416 0.73296 0.73995 0.0
C1142 C 0.87879 0.73006 0.69513 0.0
C1143 C 0.87177 0.72988 0.67095 0.0
C1144 C 0.9037 0.75298 0.70614 0.0
C1145 C 0.88956 0.75387 0.65824 0.0
C1146 C 0.91183 0.77749 0.6693 0.0
C1147 C 0.94148 0.80085 0.70455 0.0
C1148 C 0.95141 0.79951 0.72831 0.0
C1149 C 0.91895 0.77731 0.69324 0.0
C1150 C 0.93959 0.7745 0.74063 0.0
C1151 C 0.91436 0.75174 0.72984 0.0
H1152 H 0.60673 0.78104 0.16999 0.0
H1153 H 0.73839 0.72903 0.15451 0.0
H1154 H 0.70701 0.69177 0.181 0.0
H1155 H 0.64205 0.67405 0.20861 0.0
H1156 H 0.50713 0.72451 0.22192 0.0
H1157 H 0.53973 0.76233 0.19634 0.0
C1158 C 0.62829 0.76145 0.17238 0.0
C1159 C 0.67472 0.75769 0.16035 0.0
C1160 C 0.60949 0.73993 0.18729 0.0
C1161 C 0.70232 0.73222 0.16346 0.0
C1162 C 0.68452 0.71102 0.17867 0.0
C1163 C 0.61987 0.69337 0.20593 0.0
C1164 C 0.57231 0.69654 0.21719 0.0
C1165 C 0.6382 0.71465 0.19071 0.0
C1166 C 0.54373 0.72153 0.21338 0.0
C1167 C 0.56239 0.74316 0.19878 0.0
H1168 H 0.38792 0.75694 0.35731 0.0
H1169 H 0.27356 0.76921 0.3046 0.0
H1170 H 0.31646 0.73455 0.27988 0.0
H1171 H 0.38806 0.70245 0.27245 0.0
H1172 H 0.50164 0.68844 0.32534 0.0
H1173 H 0.45779 0.72226 0.35056 0.0
C1174 C 0.37204 0.75165 0.34057 0.0
C1175 C 0.32789 0.76585 0.33273 0.0
C1176 C 0.39709 0.73168 0.32631 0.0
C1177 C 0.30793 0.75891 0.31091 0.0
C1178 C 0.33242 0.73909 0.29675 0.0
C1179 C 0.40323 0.70655 0.28953 0.0
C1180 C 0.44816 0.69274 0.29688 0.0
C1181 C 0.37744 0.72568 0.30411 0.0
C1182 C 0.46715 0.69867 0.3191 0.0
C1183 C 0.44201 0.718 0.33362 0.0
H1184 H 0.19713 0.73262 0.8254 0.0
H1185 H 0.12972 0.7661 0.88798 0.0
H1186 H 0.0858 0.80265 0.86577 0.0
H1187 H 0.06565 0.825 0.82878 0.0
H1188 H 0.12171 0.78705 0.76579 0.0
H1189 H 0.17095 0.75247 0.78804 0.0
C1190 C 0.17222 0.7475 0.83428 0.0
C1191 C 0.16761 0.74653 0.85853 0.0
C1192 C 0.14523 0.76792 0.82131 0.0
C1193 C 0.13556 0.76658 0.86949 0.0
C1194 C 0.10985 0.78743 0.85676 0.0
C1195 C 0.08826 0.80906 0.81981 0.0
C1196 C 0.09062 0.80914 0.79554 0.0
C1197 C 0.11444 0.78831 0.83269 0.0
C1198 C 0.12043 0.78829 0.78439 0.0
C1199 C 0.1481 0.76817 0.79714 0.0
loop_
_geom_bond_atom_site_label_1
_geom_bond_atom_site_label_2
_geom_bond_distance
_geom_bond_site_symmetry_2
_ccdc_geom_bond_type
C0 C1 1.391 . S
C0 C4 1.391 . S
C0 H42 0.948 . S
C1 C0 1.391 . S
C1 C2 1.391 . S
C2 C1 1.391 . S
C2 H58 0.947 . S
C2 C59 1.392 . S
C3 C4 1.391 . S
C3 C7 1.397 . S
C3 C59 1.419 . S
C4 C0 1.391 . S
C4 C3 1.391 . S
C4 C5 1.399 . S
C5 C4 1.399 . S
C5 C8 1.396 . S
C5 C17 1.453 . S
C5 C18 1.684 . S
H6 C30 0.948 . S
C7 C3 1.397 . S
C7 C8 1.394 . S
C7 C26 1.723 . S
C8 C5 1.396 . S
C8 C7 1.394 . S
C8 C38 1.723 . S
H9 C32 0.947 . S
H10 C33 0.948 . S
H11 C39 0.982 . S
H12 C40 0.979 . S
H13 C40 0.980 . S
H14 C40 0.983 . S
H15 C39 0.979 . S
H16 C39 0.977 . S
C17 C5 1.453 . S
C17 H46 0.982 . S
C17 H47 0.979 . S
C17 H48 0.977 . S
C18 C5 1.684 . S
C18 H43 0.979 . S
C18 H44 0.980 . S
C18 H45 0.983 . S
C19 C20 1.391 . S
C19 C24 1.391 . S
C19 H49 0.948 . S
C20 C19 1.391 . S
C20 C21 1.391 . S
C21 C20 1.391 . S
C21 C22 1.392 . S
C21 H50 0.947 . S
C22 C21 1.392 . S
C22 C23 1.419 . S
C22 H51 0.948 . S
C23 C22 1.419 . S
C23 C24 1.391 . S
C23 C27 1.397 . S
C24 C19 1.391 . S
C24 C23 1.391 . S
C24 C25 1.399 . S
C25 C24 1.399 . S
C25 C26 1.396 . S
C25 C28 1.453 . S
C25 C29 1.684 . S
C26 C7 1.723 . S
C26 C25 1.396 . S
C26 C27 1.394 . S
C27 C23 1.397 . S
C27 C26 1.394 . S
C27 C37 1.723 . S
C28 C25 1.453 . S
C28 H52 0.982 . S
C28 H53 0.979 . S
C28 H54 0.977 . S
C29 C25 1.684 . S
C29 H55 0.979 . S
C29 H56 0.980 . S
C29 H57 0.983 . S
C30 H6 0.948 . S
C30 C31 1.391 . S
C30 C35 1.391 . S
C31 C30 1.391 . S
C31 C32 1.391 . S
C32 H9 0.947 . S
C32 C31 1.391 . S
C32 C33 1.392 . S
C33 H10 0.948 . S
C33 C32 1.392 . S
C33 C34 1.419 . S
C34 C33 1.419 . S
C34 C35 1.391 . S
C34 C38 1.397 . S
C35 C30 1.391 . S
C35 C34 1.391 . S
C35 C36 1.399 . S
C36 C35 1.399 . S
C36 C37 1.396 . S
C36 C39 1.453 . S
C36 C40 1.684 . S
C37 C27 1.723 . S
C37 C36 1.396 . S
C37 C38 1.394 . S
C38 C8 1.723 . S
C38 C34 1.397 . S
C38 C37 1.394 . S
C39 H11 0.982 . S
C39 H15 0.979 . S
C39 H16 0.977 . S
C39 C36 1.453 . S
C40 H12 0.979 . S
C40 H13 0.980 . S
C40 H14 0.983 . S
C40 C36 1.684 . S
H41 C59 0.948 . S
H42 C0 0.948 . S
H43 C18 0.979 . S
H44 C18 0.980 . S
H45 C18 0.983 . S
H46 C17 0.982 . S
H47 C17 0.979 . S
H48 C17 0.977 . S
H49 C19 0.948 . S
H50 C21 0.947 . S
H51 C22 0.948 . S
H52 C28 0.982 . S
H53 C28 0.979 . S
H54 C28 0.977 . S
H55 C29 0.979 . S
H56 C29 0.980 . S
H57 C29 0.983 . S
H58 C2 0.947 . S
C59 C2 1.392 . S
C59 C3 1.419 . S
C59 H41 0.948 . S
C60 C61 1.391 . S
C60 C64 1.391 . S
C60 H102 0.948 . S
C61 C60 1.391 . S
C61 C62 1.391 . S
C62 C61 1.391 . S
C62 H118 0.947 . S
C62 C119 1.392 . S
C63 C64 1.391 . S
C63 C67 1.397 . S
C63 C119 1.419 . S
C64 C60 1.391 . S
C64 C63 1.391 . S
C64 C65 1.399 . S
C65 C64 1.399 . S
C65 C68 1.396 . S
C65 C77 1.453 . S
C65 C78 1.684 . S
H66 C90 0.948 . S
C67 C63 1.397 . S
C67 C68 1.394 . S
C67 C86 1.723 . S
C68 C65 1.396 . S
C68 C67 1.394 . S
C68 C98 1.723 . S
H69 C92 0.947 . S
H70 C93 0.948 . S
H71 C99 0.982 . S
H72 C100 0.979 . S
H73 C100 0.980 . S
H74 C100 0.983 . S
H75 C99 0.979 . S
H76 C99 0.977 . S
C77 C65 1.453 . S
C77 H106 0.982 . S
C77 H107 0.979 . S
C77 H108 0.977 . S
C78 C65 1.684 . S
C78 H103 0.979 . S
C78 H104 0.980 . S
C78 H105 0.983 . S
C79 C80 1.391 . S
C79 C84 1.391 . S
C79 H109 0.948 . S
C80 C79 1.391 . S
C80 C81 1.391 . S
C81 C80 1.391 . S
C81 C82 1.392 . S
C81 H110 0.947 . S
C82 C81 1.392 . S
C82 C83 1.419 . S
C82 H111 0.948 . S
C83 C82 1.419 . S
C83 C84 1.391 . S
C83 C87 1.397 . S
C84 C79 1.391 . S
C84 C83 1.391 . S
C84 C85 1.399 . S
C85 C84 1.399 . S
C85 C86 1.396 . S
C85 C88 1.453 . S
C85 C89 1.684 . S
C86 C67 1.723 . S
C86 C85 1.396 . S
C86 C87 1.394 . S
C87 C83 1.397 . S
C87 C86 1.394 . S
C87 C97 1.723 . S
C88 C85 1.453 . S
C88 H112 0.982 . S
C88 H113 0.979 . S
C88 H114 0.977 . S
C89 C85 1.684 . S
C89 H115 0.979 . S
C89 H116 0.980 . S
C89 H117 0.983 . S
C90 H66 0.948 . S
C90 C91 1.391 . S
C90 C95 1.391 . S
C91 C90 1.391 . S
C91 C92 1.391 . S
C92 H69 0.947 . S
C92 C91 1.391 . S
C92 C93 1.392 . S
C93 H70 0.948 . S
C93 C92 1.392 . S
C93 C94 1.419 . S
C94 C93 1.419 . S
C94 C95 1.391 . S
C94 C98 1.397 . S
C95 C90 1.391 . S
C95 C94 1.391 . S
C95 C96 1.399 . S
C96 C95 1.399 . S
C96 C97 1.396 . S
C96 C99 1.453 . S
C96 C100 1.684 . S
C97 C87 1.723 . S
C97 C96 1.396 . S
C97 C98 1.394 . S
C98 C68 1.723 . S
C98 C94 1.397 . S
C98 C97 1.394 . S
C99 H71 0.982 . S
C99 H75 0.979 . S
C99 H76 0.977 . S
C99 C96 1.453 . S
C100 H72 0.979 . S
C100 H73 0.980 . S
C100 H74 0.983 . S
C100 C96 1.684 . S
H101 C119 0.948 . S
H102 C60 0.948 . S
H103 C78 0.979 . S
H104 C78 0.980 . S
H105 C78 0.983 . S
H106 C77 0.982 . S
H107 C77 0.979 . S
H108 C77 0.977 . S
H109 C79 0.948 . S
H110 C81 0.947 . S
H111 C82 0.948 . S
H112 C88 0.982 . S
H113 C88 0.979 . S
H114 C88 0.977 . S
H115 C89 0.979 . S
H116 C89 0.980 . S
H117 C89 0.983 . S
H118 C62 0.947 . S
C119 C62 1.392 . S
C119 C63 1.419 . S
C119 H101 0.948 . S
C120 C121 1.391 . S
C120 C124 1.391 . S
C120 H162 0.948 . S
C121 C120 1.391 . S
C121 C122 1.391 . S
C122 C121 1.391 . S
C122 H178 0.947 . S
C122 C179 1.392 . S
C123 C124 1.391 . S
C123 C127 1.397 . S
C123 C179 1.419 . S
C124 C120 1.391 . S
C124 C123 1.391 . S
C124 C125 1.399 . S
C125 C124 1.399 . S
C125 C128 1.396 . S
C125 C137 1.453 . S
C125 C138 1.684 . S
H126 C150 0.948 . S
C127 C123 1.397 . S
C127 C128 1.394 . S
C127 C146 1.723 . S
C128 C125 1.396 . S
C128 C127 1.394 . S
C128 C158 1.723 . S
H129 C152 0.947 . S
H130 C153 0.948 . S
H131 C159 0.982 . S
H132 C160 0.979 . S
H133 C160 0.980 . S
H134 C160 0.983 . S
H135 C159 0.979 . S
H136 C159 0.977 . S
C137 C125 1.453 . S
C137 H166 0.982 . S
C137 H167 0.979 . S
C137 H168 0.977 . S
C138 C125 1.684 . S
C138 H163 0.979 . S
C138 H164 0.980 . S
C138 H165 0.983 . S
C139 C140 1.391 . S
C139 C144 1.391 . S
C139 H169 0.948 . S
C140 C139 1.391 . S
C140 C141 1.391 . S
C141 C140 1.391 . S
C141 C142 1.392 . S
C141 H170 0.947 . S
C142 C141 1.392 . S
C142 C143 1.419 . S
C142 H171 0.948 . S
C143 C142 1.419 . S
C143 C144 1.391 . S
C143 C147 1.397 . S
C144 C139 1.391 . S
C144 C143 1.391 . S
C144 C145 1.399 . S
C145 C144 1.399 . S
C145 C146 1.396 . S
C145 C148 1.453 . S
C145 C149 1.684 . S
C146 C127 1.723 . S
C146 C145 1.396 . S
C146 C147 1.394 . S
C147 C143 1.397 . S
C147 C146 1.394 . S
C147 C157 1.723 . S
C148 C145 1.453 . S
C148 H172 0.982 . S
C148 H173 0.979 . S
C148 H174 0.977 . S
C149 C145 1.684 . S
C149 H175 0.979 . S
C149 H176 0.980 . S
C149 H177 0.983 . S
C150 H126 0.948 . S
C150 C151 1.391 . S
C150 C155 1.391 . S
C151 C150 1.391 . S
C151 C152 1.391 . S
C152 H129 0.947 . S
C152 C151 1.391 . S
C152 C153 1.392 . S
C153 H130 0.948 . S
C153 C152 1.392 . S
C153 C154 1.419 . S
C154 C153 1.419 . S
C154 C155 1.391 . S
C154 C158 1.397 . S
C155 C150 1.391 . S
C155 C154 1.391 . S
C155 C156 1.399 . S
C156 C155 1.399 . S
C156 C157 1.396 . S
C156 C159 1.453 . S
C156 C160 1.684 . S
C157 C147 1.723 . S
C157 C156 1.396 . S
C157 C158 1.394 . S
C158 C128 1.723 . S
C158 C154 1.397 . S
C158 C157 1.394 . S
C159 H131 0.982 . S
C159 H135 0.979 . S
C159 H136 0.977 . S
C159 C156 1.453 . S
C160 H132 0.979 . S
C160 H133 0.980 . S
C160 H134 0.983 . S
C160 C156 1.684 . S
H161 C179 0.948 . S
H162 C120 0.948 . S
H163 C138 0.979 . S
H164 C138 0.980 . S
H165 C138 0.983 . S
H166 C137 0.982 . S
H167 C137 0.979 . S
H168 C137 0.977 . S
H169 C139 0.948 . S
H170 C141 0.947 . S
H171 C142 0.948 . S
H172 C148 0.982 . S
H173 C148 0.979 . S
H174 C148 0.977 . S
H175 C149 0.979 . S
H176 C149 0.980 . S
H177 C149 0.983 . S
H178 C122 0.947 . S
C179 C122 1.392 . S
C179 C123 1.419 . S
C179 H161 0.948 . S
C180 C181 1.391 . S
C180 C184 1.391 . S
C180 H222 0.948 . S
C181 C180 1.391 . S
C181 C182 1.391 . S
C182 C181 1.391 . S
C182 H238 0.947 . S
C182 C239 1.392 . S
C183 C184 1.391 . S
C183 C187 1.397 . S
C183 C239 1.419 . S
C184 C180 1.391 . S
C184 C183 1.391 . S
C184 C185 1.399 . S
C185 C184 1.399 . S
C185 C188 1.396 . S
C185 C197 1.453 . S
C185 C198 1.684 . S
H186 C210 0.948 . S
C187 C183 1.397 . S
C187 C188 1.394 . S
C187 C206 1.723 . S
C188 C185 1.396 . S
C188 C187 1.394 . S
C188 C218 1.723 . S
H189 C212 0.947 . S
H190 C213 0.948 . S
H191 C219 0.982 . S
H192 C220 0.979 . S
H193 C220 0.980 . S
H194 C220 0.983 . S
H195 C219 0.979 . S
H196 C219 0.977 . S
C197 C185 1.453 . S
C197 H226 0.982 . S
C197 H227 0.979 . S
C197 H228 0.977 . S
C198 C185 1.684 . S
C198 H223 0.979 . S
C198 H224 0.980 . S
C198 H225 0.983 . S
C199 C200 1.391 . S
C199 C204 1.391 . S
C199 H229 0.948 . S
C200 C199 1.391 . S
C200 C201 1.391 . S
C201 C200 1.391 . S
C201 C202 1.392 . S
C201 H230 0.947 . S
C202 C201 1.392 . S
C202 C203 1.419 . S
C202 H231 0.948 . S
C203 C202 1.419 . S
C203 C204 1.391 . S
C203 C207 1.397 . S
C204 C199 1.391 . S
C204 C203 1.391 . S
C204 C205 1.399 . S
C205 C204 1.399 . S
C205 C206 1.396 . S
C205 C208 1.453 . S
C205 C209 1.684 . S
C206 C187 1.723 . S
C206 C205 1.396 . S
C206 C207 1.394 . S
C207 C203 1.397 . S
C207 C206 1.394 . S
C207 C217 1.723 . S
C208 C205 1.453 . S
C208 H232 0.982 . S
C208 H233 0.979 . S
C208 H234 0.977 . S
C209 C205 1.684 . S
C209 H235 0.979 . S
C209 H236 0.980 . S
C209 H237 0.983 . S
C210 H186 0.948 . S
C210 C211 1.391 . S
C210 C215 1.391 . S
C211 C210 1.391 . S
C211 C212 1.391 . S
C212 H189 0.947 . S
C212 C211 1.391 . S
C212 C213 1.392 . S
C213 H190 0.948 . S
C213 C212 1.392 . S
C213 C214 1.419 . S
C214 C213 1.419 . S
C214 C215 1.391 . S
C214 C218 1.397 . S
C215 C210 1.391 . S
C215 C214 1.391 . S
C215 C216 1.399 . S
C216 C215 1.399 . S
C216 C217 1.396 . S
C216 C219 1.453 . S
C216 C220 1.684 . S
C217 C207 1.723 . S
C217 C216 1.396 . S
C217 C218 1.394 . S
C218 C188 1.723 . S
C218 C214 1.397 . S
C218 C217 1.394 . S
C219 H191 0.982 . S
C219 H195 0.979 . S
C219 H196 0.977 . S
C219 C216 1.453 . S
C220 H192 0.979 . S
C220 H193 0.980 . S
C220 H194 0.983 . S
C220 C216 1.684 . S
H221 C239 0.948 . S
H222 C180 0.948 . S
H223 C198 0.979 . S
H224 C198 0.980 . S
H225 C198 0.983 . S
H226 C197 0.982 . S
H227 C197 0.979 . S
H228 C197 0.977 . S
H229 C199 0.948 . S
H230 C201 0.947 . S
H231 C202 0.948 . S
H232 C208 0.982 . S
H233 C208 0.979 . S
H234 C208 0.977 . S
H235 C209 0.979 . S
H236 C209 0.980 . S
H237 C209 0.983 . S
H238 C182 0.947 . S
C239 C182 1.392 . S
C239 C183 1.419 . S
C239 H221 0.948 . S
C240 C241 1.391 . S
C240 C244 1.391 . S
C240 H282 0.948 . S
C241 C240 1.391 . S
C241 C242 1.391 . S
C242 C241 1.391 . S
C242 H298 0.947 . S
C242 C299 1.392 . S
C243 C244 1.391 . S
C243 C247 1.397 . S
C243 C299 1.419 . S
C244 C240 1.391 . S
C244 C243 1.391 . S
C244 C245 1.399 . S
C245 C244 1.399 . S
C245 C248 1.396 . S
C245 C257 1.453 . S
C245 C258 1.684 . S
H246 C270 0.948 . S
C247 C243 1.397 . S
C247 C248 1.394 . S
C247 C266 1.723 . S
C248 C245 1.396 . S
C248 C247 1.394 . S
C248 C278 1.723 . S
H249 C272 0.947 . S
H250 C273 0.948 . S
H251 C279 0.982 . S
H252 C280 0.979 . S
H253 C280 0.980 . S
H254 C280 0.983 . S
H255 C279 0.979 . S
H256 C279 0.977 . S
C257 C245 1.453 . S
C257 H286 0.982 . S
C257 H287 0.979 . S
C257 H288 0.977 . S
C258 C245 1.684 . S
C258 H283 0.979 . S
C258 H284 0.980 . S
C258 H285 0.983 . S
C259 C260 1.391 . S
C259 C264 1.391 . S
C259 H289 0.948 . S
C260 C259 1.391 . S
C260 C261 1.391 . S
C261 C260 1.391 . S
C261 C262 1.392 . S
C261 H290 0.947 . S
C262 C261 1.392 . S
C262 C263 1.419 . S
C262 H291 0.948 . S
C263 C262 1.419 . S
C263 C264 1.391 . S
C263 C267 1.397 . S
C264 C259 1.391 . S
C264 C263 1.391 . S
C264 C265 1.399 . S
C265 C264 1.399 . S
C265 C266 1.396 . S
C265 C268 1.453 . S
C265 C269 1.684 . S
C266 C247 1.723 . S
C266 C265 1.396 . S
C266 C267 1.394 . S
C267 C263 1.397 . S
C267 C266 1.394 . S
C267 C277 1.723 . S
C268 C265 1.453 . S
C268 H292 0.982 . S
C268 H293 0.979 . S
C268 H294 0.977 . S
C269 C265 1.684 . S
C269 H295 0.979 . S
C269 H296 0.980 . S
C269 H297 0.983 . S
C270 H246 0.948 . S
C270 C271 1.391 . S
C270 C275 1.391 . S
C271 C270 1.391 . S
C271 C272 1.391 . S
C272 H249 0.947 . S
C272 C271 1.391 . S
C272 C273 1.392 . S
C273 H250 0.948 . S
C273 C272 1.392 . S
C273 C274 1.419 . S
C274 C273 1.419 . S
C274 C275 1.391 . S
C274 C278 1.397 . S
C275 C270 1.391 . S
C275 C274 1.391 . S
C275 C276 1.399 . S
C276 C275 1.399 . S
C276 C277 1.396 . S
C276 C279 1.453 . S
C276 C280 1.684 . S
C277 C267 1.723 . S
C277 C276 1.396 . S
C277 C278 1.394 . S
C278 C248 1.723 . S
C278 C274 1.397 . S
C278 C277 1.394 . S
C279 H251 0.982 . S
C279 H255 0.979 . S
C279 H256 0.977 . S
C279 C276 1.453 . S
C280 H252 0.979 . S
C280 H253 0.980 . S
C280 H254 0.983 . S
C280 C276 1.684 . S
H281 C299 0.948 . S
H282 C240 0.948 . S
H283 C258 0.979 . S
H284 C258 0.980 . S
H285 C258 0.983 . S
H286 C257 0.982 . S
H287 C257 0.979 . S
H288 C257 0.977 . S
H289 C259 0.948 . S
H290 C261 0.947 . S
H291 C262 0.948 . S
H292 C268 0.982 . S
H293 C268 0.979 . S
H294 C268 0.977 . S
H295 C269 0.979 . S
H296 C269 0.980 . S
H297 C269 0.983 . S
H298 C242 0.947 . S
C299 C242 1.392 . S
C299 C243 1.419 . S
C299 H281 0.948 . S
C300 C301 1.391 . S
C300 C304 1.391 . S
C300 H342 0.948 . S
C301 C300 1.391 . S
C301 C302 1.391 . S
C302 C301 1.391 . S
C302 H358 0.947 . S
C302 C359 1.392 . S
C303 C304 1.391 . S
C303 C307 1.397 . S
C303 C359 1.419 . S
C304 C300 1.391 . S
C304 C303 1.391 . S
C304 C305 1.399 . S
C305 C304 1.399 . S
C305 C308 1.396 . S
C305 C317 1.453 . S
C305 C318 1.684 . S
H306 C330 0.948 . S
C307 C303 1.397 . S
C307 C308 1.394 . S
C307 C326 1.723 . S
C308 C305 1.396 . S
C308 C307 1.394 . S
C308 C338 1.723 . S
H309 C332 0.947 . S
H310 C333 0.948 . S
H311 C339 0.982 . S
H312 C340 0.979 . S
H313 C340 0.980 . S
H314 C340 0.983 . S
H315 C339 0.979 . S
H316 C339 0.977 . S
C317 C305 1.453 . S
C317 H346 0.982 . S
C317 H347 0.979 . S
C317 H348 0.977 . S
C318 C305 1.684 . S
C318 H343 0.979 . S
C318 H344 0.980 . S
C318 H345 0.983 . S
C319 C320 1.391 . S
C319 C324 1.391 . S
C319 H349 0.948 . S
C320 C319 1.391 . S
C320 C321 1.391 . S
C321 C320 1.391 . S
C321 C322 1.392 . S
C321 H350 0.947 . S
C322 C321 1.392 . S
C322 C323 1.419 . S
C322 H351 0.948 . S
C323 C322 1.419 . S
C323 C324 1.391 . S
C323 C327 1.397 . S
C324 C319 1.391 . S
C324 C323 1.391 . S
C324 C325 1.399 . S
C325 C324 1.399 . S
C325 C326 1.396 . S
C325 C328 1.453 . S
C325 C329 1.684 . S
C326 C307 1.723 . S
C326 C325 1.396 . S
C326 C327 1.394 . S
C327 C323 1.397 . S
C327 C326 1.394 . S
C327 C337 1.723 . S
C328 C325 1.453 . S
C328 H352 0.982 . S
C328 H353 0.979 . S
C328 H354 0.977 . S
C329 C325 1.684 . S
C329 H355 0.979 . S
C329 H356 0.980 . S
C329 H357 0.983 . S
C330 H306 0.948 . S
C330 C331 1.391 . S
C330 C335 1.391 . S
C331 C330 1.391 . S
C331 C332 1.391 . S
C332 H309 0.947 . S
C332 C331 1.391 . S
C332 C333 1.392 . S
C333 H310 0.948 . S
C333 C332 1.392 . S
C333 C334 1.419 . S
C334 C333 1.419 . S
C334 C335 1.391 . S
C334 C338 1.397 . S
C335 C330 1.391 . S
C335 C334 1.391 . S
C335 C336 1.399 . S
C336 C335 1.399 . S
C336 C337 1.396 . S
C336 C339 1.453 . S
C336 C340 1.684 . S
C337 C327 1.723 . S
C337 C336 1.396 . S
C337 C338 1.394 . S
C338 C308 1.723 . S
C338 C334 1.397 . S
C338 C337 1.394 . S
C339 H311 0.982 . S
C339 H315 0.979 . S
C339 H316 0.977 . S
C339 C336 1.453 . S
C340 H312 0.979 . S
C340 H313 0.980 . S
C340 H314 0.983 . S
C340 C336 1.684 . S
H341 C359 0.948 . S
H342 C300 0.948 . S
H343 C318 0.979 . S
H344 C318 0.980 . S
H345 C318 0.983 . S
H346 C317 0.982 . S
H347 C317 0.979 . S
H348 C317 0.977 . S
H349 C319 0.948 . S
H350 C321 0.947 . S
H351 C322 0.948 . S
H352 C328 0.982 . S
H353 C328 0.979 . S
H354 C328 0.977 . S
H355 C329 0.979 . S
H356 C329 0.980 . S
H357 C329 0.983 . S
H358 C302 0.947 . S
C359 C302 1.392 . S
C359 C303 1.419 . S
C359 H341 0.948 . S
C360 C361 1.391 . S
C360 C364 1.391 . S
C360 H402 0.948 . S
C361 C360 1.391 . S
C361 C362 1.391 . S
C362 C361 1.391 . S
C362 H418 0.947 . S
C362 C419 1.392 . S
C363 C364 1.391 . S
C363 C367 1.397 . S
C363 C419 1.419 . S
C364 C360 1.391 . S
C364 C363 1.391 . S
C364 C365 1.399 . S
C365 C364 1.399 . S
C365 C368 1.396 . S
C365 C377 1.453 . S
C365 C378 1.684 . S
H366 C390 0.948 . S
C367 C363 1.397 . S
C367 C368 1.394 . S
C367 C386 1.723 . S
C368 C365 1.396 . S
C368 C367 1.394 . S
C368 C398 1.723 . S
H369 C392 0.947 . S
H370 C393 0.948 . S
H371 C399 0.982 . S
H372 C400 0.979 . S
H373 C400 0.980 . S
H374 C400 0.983 . S
H375 C399 0.979 . S
H376 C399 0.977 . S
C377 C365 1.453 . S
C377 H406 0.982 . S
C377 H407 0.979 . S
C377 H408 0.977 . S
C378 C365 1.684 . S
C378 H403 0.979 . S
C378 H404 0.980 . S
C378 H405 0.983 . S
C379 C380 1.391 . S
C379 C384 1.391 . S
C379 H409 0.948 . S
C380 C379 1.391 . S
C380 C381 1.391 . S
C381 C380 1.391 . S
C381 C382 1.392 . S
C381 H410 0.947 . S
C382 C381 1.392 . S
C382 C383 1.419 . S
C382 H411 0.948 . S
C383 C382 1.419 . S
C383 C384 1.391 . S
C383 C387 1.397 . S
C384 C379 1.391 . S
C384 C383 1.391 . S
C384 C385 1.399 . S
C385 C384 1.399 . S
C385 C386 1.396 . S
C385 C388 1.453 . S
C385 C389 1.684 . S
C386 C367 1.723 . S
C386 C385 1.396 . S
C386 C387 1.394 . S
C387 C383 1.397 . S
C387 C386 1.394 . S
C387 C397 1.723 . S
C388 C385 1.453 . S
C388 H412 0.982 . S
C388 H413 0.979 . S
C388 H414 0.977 . S
C389 C385 1.684 . S
C389 H415 0.979 . S
C389 H416 0.980 . S
C389 H417 0.983 . S
C390 H366 0.948 . S
C390 C391 1.391 . S
C390 C395 1.391 . S
C391 C390 1.391 . S
C391 C392 1.391 . S
C392 H369 0.947 . S
C392 C391 1.391 . S
C392 C393 1.392 . S
C393 H370 0.948 . S
C393 C392 1.392 . S
C393 C394 1.419 . S
C394 C393 1.419 . S
C394 C395 1.391 . S
C394 C398 1.397 . S
C395 C390 1.391 . S
C395 C394 1.391 . S
C395 C396 1.399 . S
C396 C395 1.399 . S
C396 C397 1.396 . S
C396 C399 1.453 . S
C396 C400 1.684 . S
C397 C387 1.723 . S
C397 C396 1.396 . S
C397 C398 1.394 . S
C398 C368 1.723 . S
C398 C394 1.397 . S
C398 C397 1.394 . S
C399 H371 0.982 . S
C399 H375 0.979 . S
C399 H376 0.977 . S
C399 C396 1.453 . S
C400 H372 0.979 . S
C400 H373 0.980 . S
C400 H374 0.983 . S
C400 C396 1.684 . S
H401 C419 0.948 . S
H402 C360 0.948 . S
H403 C378 0.979 . S
H404 C378 0.980 . S
H405 C378 0.983 . S
H406 C377 0.982 . S
H407 C377 0.979 . S
H408 C377 0.977 . S
H409 C379 0.948 . S
H410 C381 0.947 . S
H411 C382 0.948 . S
H412 C388 0.982 . S
H413 C388 0.979 . S
H414 C388 0.977 . S
H415 C389 0.979 . S
H416 C389 0.980 . S
H417 C389 0.983 . S
H418 C362 0.947 . S
C419 C362 1.392 . S
C419 C363 1.419 . S
C419 H401 0.948 . S
C420 C421 1.391 . S
C420 C424 1.391 . S
C420 H462 0.948 . S
C421 C420 1.391 . S
C421 C422 1.391 . S
C422 C421 1.391 . S
C422 H478 0.947 . S
C422 C479 1.392 . S
C423 C424 1.391 . S
C423 C427 1.397 . S
C423 C479 1.419 . S
C424 C420 1.391 . S
C424 C423 1.391 . S
C424 C425 1.399 . S
C425 C424 1.399 . S
C425 C428 1.396 . S
C425 C437 1.453 . S
C425 C438 1.684 . S
H426 C450 0.948 . S
C427 C423 1.397 . S
C427 C428 1.394 . S
C427 C446 1.723 . S
C428 C425 1.396 . S
C428 C427 1.394 . S
C428 C458 1.723 . S
H429 C452 0.947 . S
H430 C453 0.948 . S
H431 C459 0.982 . S
H432 C460 0.979 . S
H433 C460 0.980 . S
H434 C460 0.983 . S
H435 C459 0.979 . S
H436 C459 0.977 . S
C437 C425 1.453 . S
C437 H466 0.982 . S
C437 H467 0.979 . S
C437 H468 0.977 . S
C438 C425 1.684 . S
C438 H463 0.979 . S
C438 H464 0.980 . S
C438 H465 0.983 . S
C439 C440 1.391 . S
C439 C444 1.391 . S
C439 H469 0.948 . S
C440 C439 1.391 . S
C440 C441 1.391 . S
C441 C440 1.391 . S
C441 C442 1.392 . S
C441 H470 0.947 . S
C442 C441 1.392 . S
C442 C443 1.419 . S
C442 H471 0.948 . S
C443 C442 1.419 . S
C443 C444 1.391 . S
C443 C447 1.397 . S
C444 C439 1.391 . S
C444 C443 1.391 . S
C444 C445 1.399 . S
C445 C444 1.399 . S
C445 C446 1.396 . S
C445 C448 1.453 . S
C445 C449 1.684 . S
C446 C427 1.723 . S
C446 C445 1.396 . S
C446 C447 1.394 . S
C447 C443 1.397 . S
C447 C446 1.394 . S
C447 C457 1.723 . S
C448 C445 1.453 . S
C448 H472 0.982 . S
C448 H473 0.979 . S
C448 H474 0.977 . S
C449 C445 1.684 . S
C449 H475 0.979 . S
C449 H476 0.980 . S
C449 H477 0.983 . S
C450 H426 0.948 . S
C450 C451 1.391 . S
C450 C455 1.391 . S
C451 C450 1.391 . S
C451 C452 1.391 . S
C452 H429 0.947 . S
C452 C451 1.391 . S
C452 C453 1.392 . S
C453 H430 0.948 . S
C453 C452 1.392 . S
C453 C454 1.419 . S
C454 C453 1.419 . S
C454 C455 1.391 . S
C454 C458 1.397 . S
C455 C450 1.391 . S
C455 C454 1.391 . S
C455 C456 1.399 . S
C456 C455 1.399 . S
C456 C457 1.396 . S
C456 C459 1.453 . S
C456 C460 1.684 . S
C457 C447 1.723 . S
C457 C456 1.396 . S
C457 C458 1.394 . S
C458 C428 1.723 . S
C458 C454 1.397 . S
C458 C457 1.394 . S
C459 H431 0.982 . S
C459 H435 0.979 . S
C459 H436 0.977 . S
C459 C456 1.453 . S
C460 H432 0.979 . S
C460 H433 0.980 . S
C460 H434 0.983 . S
C460 C456 1.684 . S
H461 C479 0.948 . S
H462 C420 0.948 . S
H463 C438 0.979 . S
H464 C438 0.980 . S
H465 C438 0.983 . S
H466 C437 0.982 . S
H467 C437 0.979 . S
H468 C437 0.977 . S
H469 C439 0.948 . S
H470 C441 0.947 . S
H471 C442 0.948 . S
H472 C448 0.982 . S
H473 C448 0.979 . S
H474 C448 0.977 . S
H475 C449 0.979 . S
H476 C449 0.980 . S
H477 C449 0.983 . S
H478 C422 0.947 . S
C479 C422 1.392 . S
C479 C423 1.419 . S
C479 H461 0.948 . S
Eu480 N509 2.600 . S
Eu480 N515 2.562 . S
Eu480 O524 2.462 . S
Eu480 O525 2.373 . S
Eu480 O527 2.432 . S
Eu480 O528 2.291 . S
Eu480 O532 2.335 . S
Eu480 O535 2.372 . S
Eu480 C544 2.787 . S
C481 N482 1.365 . S
C481 C484 1.405 . S
C481 C488 1.448 . S
N482 C481 1.365 . S
N482 C485 1.319 . S
N482 Eu491 2.600 . S
C483 C485 1.397 . S
C483 C486 1.367 . S
C483 H503 0.931 . S
C484 C481 1.405 . S
C484 C486 1.403 . S
C484 C490 1.439 . S
C485 N482 1.319 . S
C485 C483 1.397 . S
C485 H496 0.930 . S
C486 C483 1.367 . S
C486 C484 1.403 . S
C486 H507 0.929 . S
C487 C488 1.430 . S
C487 C489 1.387 . S
C487 C493 1.404 . S
C488 C481 1.448 . S
C488 C487 1.430 . S
C488 N492 1.351 . S
C489 C487 1.387 . S
C489 C490 1.374 . S
C489 H504 0.931 . S
C490 C484 1.439 . S
C490 C489 1.374 . S
C490 H505 0.931 . S
Eu491 N482 2.600 . S
Eu491 N492 2.562 . S
Eu491 O526 2.335 1_655 S
Eu491 O529 2.372 . S
Eu491 O530 2.462 . S
Eu491 O531 2.373 . S
Eu491 O533 2.432 . S
Eu491 O534 2.291 1_655 S
Eu491 C555 2.787 . S
N492 C488 1.351 . S
N492 Eu491 2.562 . S
N492 C494 1.325 . S
C493 C487 1.404 . S
C493 C495 1.366 . S
C493 H501 0.930 . S
C494 N492 1.325 . S
C494 C495 1.416 . S
C494 H500 0.929 . S
C495 C493 1.366 . S
C495 C494 1.416 . S
C495 H497 0.930 . S
H496 C485 0.930 . S
H497 C495 0.930 . S
H498 C513 0.930 . S
H499 C520 0.930 . S
H500 C494 0.929 . S
H501 C493 0.930 . S
H502 C516 0.929 . S
H503 C483 0.931 . S
H504 C489 0.931 . S
H505 C490 0.931 . S
H506 C511 0.931 . S
H507 C486 0.929 . S
H508 C519 0.930 . S
N509 Eu480 2.600 . S
N509 C510 1.365 . S
N509 C513 1.319 . S
C510 N509 1.365 . S
C510 C512 1.405 . S
C510 C518 1.448 . S
C511 H506 0.931 . S
C511 C513 1.397 . S
C511 C514 1.367 . S
C512 C510 1.405 . S
C512 C514 1.403 . S
C512 C545 1.439 . S
C513 H498 0.930 . S
C513 N509 1.319 . S
C513 C511 1.397 . S
C514 C511 1.367 . S
C514 C512 1.403 . S
C514 H521 0.929 . S
N515 Eu480 2.562 . S
N515 C516 1.325 . S
N515 C518 1.351 . S
C516 H502 0.929 . S
C516 N515 1.325 . S
C516 C520 1.416 . S
C517 C518 1.430 . S
C517 C519 1.404 . S
C517 C546 1.387 . S
C518 C510 1.448 . S
C518 N515 1.351 . S
C518 C517 1.430 . S
C519 H508 0.930 . S
C519 C517 1.404 . S
C519 C520 1.366 . S
C520 H499 0.930 . S
C520 C516 1.416 . S
C520 C519 1.366 . S
H521 C514 0.929 . S
H522 C545 0.931 . S
H523 C546 0.931 . S
O524 Eu480 2.462 . S
O524 C544 1.252 . S
O525 Eu480 2.373 . S
O525 C536 1.249 . S
O526 Eu491 2.335 1_455 S
O526 C536 1.264 . S
O527 Eu480 2.432 . S
O527 C544 1.268 . S
O528 Eu480 2.291 . S
O528 C543 1.255 1_455 S
O529 Eu491 2.372 . S
O529 C543 1.257 . S
O530 Eu491 2.462 . S
O530 C555 1.252 . S
O531 Eu491 2.373 . S
O531 C547 1.249 . S
O532 Eu480 2.335 . S
O532 C547 1.264 1_455 S
O533 Eu491 2.432 . S
O533 C555 1.268 . S
O534 Eu491 2.291 1_455 S
O534 C554 1.255 . S
O535 Eu480 2.372 . S
O535 C554 1.257 . S
C536 O525 1.249 . S
C536 O526 1.264 . S
C537 C540 1.382 . S
C537 C542 1.390 . S
C537 C544 1.506 . S
C538 C539 1.398 . S
C538 C542 1.392 . S
C539 C538 1.398 . S
C539 C541 1.372 . S
C539 H556 0.931 . S
C540 C537 1.382 . S
C540 C541 1.390 . S
C540 H557 0.931 . S
C541 C539 1.372 . S
C541 C540 1.390 . S
C541 H558 0.929 . S
C542 C537 1.390 . S
C542 C538 1.392 . S
C542 H559 0.930 . S
C543 O528 1.255 1_655 S
C543 O529 1.257 . S
C544 Eu480 2.787 . S
C544 O524 1.252 . S
C544 O527 1.268 . S
C544 C537 1.506 . S
C545 C512 1.439 . S
C545 H522 0.931 . S
C545 C546 1.374 . S
C546 C517 1.387 . S
C546 H523 0.931 . S
C546 C545 1.374 . S
C547 O531 1.249 . S
C547 O532 1.264 1_655 S
C548 C551 1.382 . S
C548 C552 1.390 . S
C548 C555 1.506 . S
C549 C550 1.398 . S
C549 C552 1.392 . S
C550 C549 1.398 . S
C550 C553 1.372 . S
C550 H560 0.931 . S
C551 C548 1.382 . S
C551 C553 1.390 . S
C551 H561 0.931 . S
C552 C548 1.390 . S
C552 C549 1.392 . S
C552 H562 0.930 . S
C553 C550 1.372 . S
C553 C551 1.390 . S
C553 H563 0.929 . S
C554 O534 1.255 . S
C554 O535 1.257 . S
C555 Eu491 2.787 . S
C555 O530 1.252 . S
C555 O533 1.268 . S
C555 C548 1.506 . S
H556 C539 0.931 . S
H557 C540 0.931 . S
H558 C541 0.929 . S
H559 C542 0.930 . S
H560 C550 0.931 . S
H561 C551 0.931 . S
H562 C552 0.930 . S
H563 C553 0.929 . S
Eu564 N593 2.600 . S
Eu564 N599 2.562 . S
Eu564 O608 2.462 . S
Eu564 O609 2.373 . S
Eu564 O611 2.432 . S
Eu564 O612 2.291 . S
Eu564 O616 2.335 . S
Eu564 O619 2.372 . S
Eu564 C628 2.787 . S
C565 N566 1.365 . S
C565 C568 1.405 . S
C565 C572 1.448 . S
N566 C565 1.365 . S
N566 C569 1.319 . S
N566 Eu575 2.600 . S
C567 C569 1.397 . S
C567 C570 1.367 . S
C567 H587 0.931 . S
C568 C565 1.405 . S
C568 C570 1.403 . S
C568 C574 1.439 . S
C569 N566 1.319 . S
C569 C567 1.397 . S
C569 H580 0.930 . S
C570 C567 1.367 . S
C570 C568 1.403 . S
C570 H591 0.929 . S
C571 C572 1.430 . S
C571 C573 1.387 . S
C571 C577 1.404 . S
C572 C565 1.448 . S
C572 C571 1.430 . S
C572 N576 1.351 . S
C573 C571 1.387 . S
C573 C574 1.374 . S
C573 H588 0.931 . S
C574 C568 1.439 . S
C574 C573 1.374 . S
C574 H589 0.931 . S
Eu575 N566 2.600 . S
Eu575 N576 2.562 . S
Eu575 O610 2.335 . S
Eu575 O613 2.372 . S
Eu575 O614 2.462 . S
Eu575 O615 2.373 . S
Eu575 O617 2.432 . S
Eu575 O618 2.291 . S
Eu575 C639 2.787 . S
N576 C572 1.351 . S
N576 Eu575 2.562 . S
N576 C578 1.325 . S
C577 C571 1.404 . S
C577 C579 1.366 . S
C577 H585 0.930 . S
C578 N576 1.325 . S
C578 C579 1.416 . S
C578 H584 0.929 . S
C579 C577 1.366 . S
C579 C578 1.416 . S
C579 H581 0.930 . S
H580 C569 0.930 . S
H581 C579 0.930 . S
H582 C597 0.930 . S
H583 C604 0.930 . S
H584 C578 0.929 . S
H585 C577 0.930 . S
H586 C600 0.929 . S
H587 C567 0.931 . S
H588 C573 0.931 . S
H589 C574 0.931 . S
H590 C595 0.931 . S
H591 C570 0.929 . S
H592 C603 0.930 . S
N593 Eu564 2.600 . S
N593 C594 1.365 . S
N593 C597 1.319 . S
C594 N593 1.365 . S
C594 C596 1.405 . S
C594 C602 1.448 . S
C595 H590 0.931 . S
C595 C597 1.397 . S
C595 C598 1.367 . S
C596 C594 1.405 . S
C596 C598 1.403 . S
C596 C629 1.439 . S
C597 H582 0.930 . S
C597 N593 1.319 . S
C597 C595 1.397 . S
C598 C595 1.367 . S
C598 C596 1.403 . S
C598 H605 0.929 . S
N599 Eu564 2.562 . S
N599 C600 1.325 . S
N599 C602 1.351 . S
C600 H586 0.929 . S
C600 N599 1.325 . S
C600 C604 1.416 . S
C601 C602 1.430 . S
C601 C603 1.404 . S
C601 C630 1.387 . S
C602 C594 1.448 . S
C602 N599 1.351 . S
C602 C601 1.430 . S
C603 H592 0.930 . S
C603 C601 1.404 . S
C603 C604 1.366 . S
C604 H583 0.930 . S
C604 C600 1.416 . S
C604 C603 1.366 . S
H605 C598 0.929 . S
H606 C629 0.931 . S
H607 C630 0.931 . S
O608 Eu564 2.462 . S
O608 C628 1.252 . S
O609 Eu564 2.373 . S
O609 C620 1.249 . S
O610 Eu575 2.335 . S
O610 C620 1.264 . S
O611 Eu564 2.432 . S
O611 C628 1.268 . S
O612 Eu564 2.291 . S
O612 C627 1.255 . S
O613 Eu575 2.372 . S
O613 C627 1.257 . S
O614 Eu575 2.462 . S
O614 C639 1.252 . S
O615 Eu575 2.373 . S
O615 C631 1.249 . S
O616 Eu564 2.335 . S
O616 C631 1.264 . S
O617 Eu575 2.432 . S
O617 C639 1.268 . S
O618 Eu575 2.291 . S
O618 C638 1.255 . S
O619 Eu564 2.372 . S
O619 C638 1.257 . S
C620 O609 1.249 . S
C620 O610 1.264 . S
C621 C624 1.382 . S
C621 C626 1.390 . S
C621 C628 1.506 . S
C622 C623 1.398 . S
C622 C626 1.392 . S
C623 C622 1.398 . S
C623 C625 1.372 . S
C623 H640 0.931 . S
C624 C621 1.382 . S
C624 C625 1.390 . S
C624 H641 0.931 . S
C625 C623 1.372 . S
C625 C624 1.390 . S
C625 H642 0.929 . S
C626 C621 1.390 . S
C626 C622 1.392 . S
C626 H643 0.930 . S
C627 O612 1.255 . S
C627 O613 1.257 . S
C628 Eu564 2.787 . S
C628 O608 1.252 . S
C628 O611 1.268 . S
C628 C621 1.506 . S
C629 C596 1.439 . S
C629 H606 0.931 . S
C629 C630 1.374 . S
C630 C601 1.387 . S
C630 H607 0.931 . S
C630 C629 1.374 . S
C631 O615 1.249 . S
C631 O616 1.264 . S
C632 C635 1.382 . S
C632 C636 1.390 . S
C632 C639 1.506 . S
C633 C634 1.398 . S
C633 C636 1.392 . S
C634 C633 1.398 . S
C634 C637 1.372 . S
C634 H644 0.931 . S
C635 C632 1.382 . S
C635 C637 1.390 . S
C635 H645 0.931 . S
C636 C632 1.390 . S
C636 C633 1.392 . S
C636 H646 0.930 . S
C637 C634 1.372 . S
C637 C635 1.390 . S
C637 H647 0.929 . S
C638 O618 1.255 . S
C638 O619 1.257 . S
C639 Eu575 2.787 . S
C639 O614 1.252 . S
C639 O617 1.268 . S
C639 C632 1.506 . S
H640 C623 0.931 . S
H641 C624 0.931 . S
H642 C625 0.929 . S
H643 C626 0.930 . S
H644 C634 0.931 . S
H645 C635 0.931 . S
H646 C636 0.930 . S
H647 C637 0.929 . S
Eu648 N677 2.600 . S
Eu648 N683 2.562 . S
Eu648 O692 2.462 . S
Eu648 O693 2.373 . S
Eu648 O695 2.432 . S
Eu648 O696 2.291 . S
Eu648 O700 2.335 . S
Eu648 O703 2.372 . S
Eu648 C712 2.787 . S
C649 N650 1.365 . S
C649 C652 1.405 . S
C649 C656 1.448 . S
N650 C649 1.365 . S
N650 C653 1.319 . S
N650 Eu659 2.600 . S
C651 C653 1.397 . S
C651 C654 1.367 . S
C651 H671 0.931 . S
C652 C649 1.405 . S
C652 C654 1.403 . S
C652 C658 1.439 . S
C653 N650 1.319 . S
C653 C651 1.397 . S
C653 H664 0.930 . S
C654 C651 1.367 . S
C654 C652 1.403 . S
C654 H675 0.929 . S
C655 C656 1.430 . S
C655 C657 1.387 . S
C655 C661 1.404 . S
C656 C649 1.448 . S
C656 C655 1.430 . S
C656 N660 1.351 . S
C657 C655 1.387 . S
C657 C658 1.374 . S
C657 H672 0.931 . S
C658 C652 1.439 . S
C658 C657 1.374 . S
C658 H673 0.931 . S
Eu659 N650 2.600 . S
Eu659 N660 2.562 . S
Eu659 O694 2.335 1_655 S
Eu659 O697 2.372 . S
Eu659 O698 2.462 . S
Eu659 O699 2.373 . S
Eu659 O701 2.432 . S
Eu659 O702 2.291 1_655 S
Eu659 C723 2.787 . S
N660 C656 1.351 . S
N660 Eu659 2.562 . S
N660 C662 1.325 . S
C661 C655 1.404 . S
C661 C663 1.366 . S
C661 H669 0.930 . S
C662 N660 1.325 . S
C662 C663 1.416 . S
C662 H668 0.929 . S
C663 C661 1.366 . S
C663 C662 1.416 . S
C663 H665 0.930 . S
H664 C653 0.930 . S
H665 C663 0.930 . S
H666 C681 0.930 . S
H667 C688 0.930 . S
H668 C662 0.929 . S
H669 C661 0.930 . S
H670 C684 0.929 . S
H671 C651 0.931 . S
H672 C657 0.931 . S
H673 C658 0.931 . S
H674 C679 0.931 . S
H675 C654 0.929 . S
H676 C687 0.930 . S
N677 Eu648 2.600 . S
N677 C678 1.365 . S
N677 C681 1.319 . S
C678 N677 1.365 . S
C678 C680 1.405 . S
C678 C686 1.448 . S
C679 H674 0.931 . S
C679 C681 1.397 . S
C679 C682 1.367 . S
C680 C678 1.405 . S
C680 C682 1.403 . S
C680 C713 1.439 . S
C681 H666 0.930 . S
C681 N677 1.319 . S
C681 C679 1.397 . S
C682 C679 1.367 . S
C682 C680 1.403 . S
C682 H689 0.929 . S
N683 Eu648 2.562 . S
N683 C684 1.325 . S
N683 C686 1.351 . S
C684 H670 0.929 . S
C684 N683 1.325 . S
C684 C688 1.416 . S
C685 C686 1.430 . S
C685 C687 1.404 . S
C685 C714 1.387 . S
C686 C678 1.448 . S
C686 N683 1.351 . S
C686 C685 1.430 . S
C687 H676 0.930 . S
C687 C685 1.404 . S
C687 C688 1.366 . S
C688 H667 0.930 . S
C688 C684 1.416 . S
C688 C687 1.366 . S
H689 C682 0.929 . S
H690 C713 0.931 . S
H691 C714 0.931 . S
O692 Eu648 2.462 . S
O692 C712 1.252 . S
O693 Eu648 2.373 . S
O693 C704 1.249 . S
O694 Eu659 2.335 1_455 S
O694 C704 1.264 . S
O695 Eu648 2.432 . S
O695 C712 1.268 . S
O696 Eu648 2.291 . S
O696 C711 1.255 1_455 S
O697 Eu659 2.372 . S
O697 C711 1.257 . S
O698 Eu659 2.462 . S
O698 C723 1.252 . S
O699 Eu659 2.373 . S
O699 C715 1.249 . S
O700 Eu648 2.335 . S
O700 C715 1.264 1_455 S
O701 Eu659 2.432 . S
O701 C723 1.268 . S
O702 Eu659 2.291 1_455 S
O702 C722 1.255 . S
O703 Eu648 2.372 . S
O703 C722 1.257 . S
C704 O693 1.249 . S
C704 O694 1.264 . S
C705 C708 1.382 . S
C705 C710 1.390 . S
C705 C712 1.506 . S
C706 C707 1.398 . S
C706 C710 1.392 . S
C707 C706 1.398 . S
C707 C709 1.372 . S
C707 H724 0.931 . S
C708 C705 1.382 . S
C708 C709 1.390 . S
C708 H725 0.931 . S
C709 C707 1.372 . S
C709 C708 1.390 . S
C709 H726 0.929 . S
C710 C705 1.390 . S
C710 C706 1.392 . S
C710 H727 0.930 . S
C711 O696 1.255 1_655 S
C711 O697 1.257 . S
C712 Eu648 2.787 . S
C712 O692 1.252 . S
C712 O695 1.268 . S
C712 C705 1.506 . S
C713 C680 1.439 . S
C713 H690 0.931 . S
C713 C714 1.374 . S
C714 C685 1.387 . S
C714 H691 0.931 . S
C714 C713 1.374 . S
C715 O699 1.249 . S
C715 O700 1.264 1_655 S
C716 C719 1.382 . S
C716 C720 1.390 . S
C716 C723 1.506 . S
C717 C718 1.398 . S
C717 C720 1.392 . S
C718 C717 1.398 . S
C718 C721 1.372 . S
C718 H728 0.931 . S
C719 C716 1.382 . S
C719 C721 1.390 . S
C719 H729 0.931 . S
C720 C716 1.390 . S
C720 C717 1.392 . S
C720 H730 0.930 . S
C721 C718 1.372 . S
C721 C719 1.390 . S
C721 H731 0.929 . S
C722 O702 1.255 . S
C722 O703 1.257 . S
C723 Eu659 2.787 . S
C723 O698 1.252 . S
C723 O701 1.268 . S
C723 C716 1.506 . S
H724 C707 0.931 . S
H725 C708 0.931 . S
H726 C709 0.929 . S
H727 C710 0.930 . S
H728 C718 0.931 . S
H729 C719 0.931 . S
H730 C720 0.930 . S
H731 C721 0.929 . S
Eu732 N761 2.600 . S
Eu732 N767 2.562 . S
Eu732 O776 2.462 . S
Eu732 O777 2.373 . S
Eu732 O779 2.432 . S
Eu732 O780 2.291 . S
Eu732 O784 2.335 . S
Eu732 O787 2.372 . S
Eu732 C796 2.787 . S
C733 N734 1.365 . S
C733 C736 1.405 . S
C733 C740 1.448 . S
N734 C733 1.365 . S
N734 C737 1.319 . S
N734 Eu743 2.600 . S
C735 C737 1.397 . S
C735 C738 1.367 . S
C735 H755 0.931 . S
C736 C733 1.405 . S
C736 C738 1.403 . S
C736 C742 1.439 . S
C737 N734 1.319 . S
C737 C735 1.397 . S
C737 H748 0.930 . S
C738 C735 1.367 . S
C738 C736 1.403 . S
C738 H759 0.929 . S
C739 C740 1.430 . S
C739 C741 1.387 . S
C739 C745 1.404 . S
C740 C733 1.448 . S
C740 C739 1.430 . S
C740 N744 1.351 . S
C741 C739 1.387 . S
C741 C742 1.374 . S
C741 H756 0.931 . S
C742 C736 1.439 . S
C742 C741 1.374 . S
C742 H757 0.931 . S
Eu743 N734 2.600 . S
Eu743 N744 2.562 . S
Eu743 O778 2.335 . S
Eu743 O781 2.372 . S
Eu743 O782 2.462 . S
Eu743 O783 2.373 . S
Eu743 O785 2.432 . S
Eu743 O786 2.291 . S
Eu743 C807 2.787 . S
N744 C740 1.351 . S
N744 Eu743 2.562 . S
N744 C746 1.325 . S
C745 C739 1.404 . S
C745 C747 1.366 . S
C745 H753 0.930 . S
C746 N744 1.325 . S
C746 C747 1.416 . S
C746 H752 0.929 . S
C747 C745 1.366 . S
C747 C746 1.416 . S
C747 H749 0.930 . S
H748 C737 0.930 . S
H749 C747 0.930 . S
H750 C765 0.930 . S
H751 C772 0.930 . S
H752 C746 0.929 . S
H753 C745 0.930 . S
H754 C768 0.929 . S
H755 C735 0.931 . S
H756 C741 0.931 . S
H757 C742 0.931 . S
H758 C763 0.931 . S
H759 C738 0.929 . S
H760 C771 0.930 . S
N761 Eu732 2.600 . S
N761 C762 1.365 . S
N761 C765 1.319 . S
C762 N761 1.365 . S
C762 C764 1.405 . S
C762 C770 1.448 . S
C763 H758 0.931 . S
C763 C765 1.397 . S
C763 C766 1.367 . S
C764 C762 1.405 . S
C764 C766 1.403 . S
C764 C797 1.439 . S
C765 H750 0.930 . S
C765 N761 1.319 . S
C765 C763 1.397 . S
C766 C763 1.367 . S
C766 C764 1.403 . S
C766 H773 0.929 . S
N767 Eu732 2.562 . S
N767 C768 1.325 . S
N767 C770 1.351 . S
C768 H754 0.929 . S
C768 N767 1.325 . S
C768 C772 1.416 . S
C769 C770 1.430 . S
C769 C771 1.404 . S
C769 C798 1.387 . S
C770 C762 1.448 . S
C770 N767 1.351 . S
C770 C769 1.430 . S
C771 H760 0.930 . S
C771 C769 1.404 . S
C771 C772 1.366 . S
C772 H751 0.930 . S
C772 C768 1.416 . S
C772 C771 1.366 . S
H773 C766 0.929 . S
H774 C797 0.931 . S
H775 C798 0.931 . S
O776 Eu732 2.462 . S
O776 C796 1.252 . S
O777 Eu732 2.373 . S
O777 C788 1.249 . S
O778 Eu743 2.335 . S
O778 C788 1.264 . S
O779 Eu732 2.432 . S
O779 C796 1.268 . S
O780 Eu732 2.291 . S
O780 C795 1.255 . S
O781 Eu743 2.372 . S
O781 C795 1.257 . S
O782 Eu743 2.462 . S
O782 C807 1.252 . S
O783 Eu743 2.373 . S
O783 C799 1.249 . S
O784 Eu732 2.335 . S
O784 C799 1.264 . S
O785 Eu743 2.432 . S
O785 C807 1.268 . S
O786 Eu743 2.291 . S
O786 C806 1.255 . S
O787 Eu732 2.372 . S
O787 C806 1.257 . S
C788 O777 1.249 . S
C788 O778 1.264 . S
C789 C792 1.382 . S
C789 C794 1.390 . S
C789 C796 1.506 . S
C790 C791 1.398 . S
C790 C794 1.392 . S
C791 C790 1.398 . S
C791 C793 1.372 . S
C791 H808 0.931 . S
C792 C789 1.382 . S
C792 C793 1.390 . S
C792 H809 0.931 . S
C793 C791 1.372 . S
C793 C792 1.390 . S
C793 H810 0.929 . S
C794 C789 1.390 . S
C794 C790 1.392 . S
C794 H811 0.930 . S
C795 O780 1.255 . S
C795 O781 1.257 . S
C796 Eu732 2.787 . S
C796 O776 1.252 . S
C796 O779 1.268 . S
C796 C789 1.506 . S
C797 C764 1.439 . S
C797 H774 0.931 . S
C797 C798 1.374 . S
C798 C769 1.387 . S
C798 H775 0.931 . S
C798 C797 1.374 . S
C799 O783 1.249 . S
C799 O784 1.264 . S
C800 C803 1.382 . S
C800 C804 1.390 . S
C800 C807 1.506 . S
C801 C802 1.398 . S
C801 C804 1.392 . S
C802 C801 1.398 . S
C802 C805 1.372 . S
C802 H812 0.931 . S
C803 C800 1.382 . S
C803 C805 1.390 . S
C803 H813 0.931 . S
C804 C800 1.390 . S
C804 C801 1.392 . S
C804 H814 0.930 . S
C805 C802 1.372 . S
C805 C803 1.390 . S
C805 H815 0.929 . S
C806 O786 1.255 . S
C806 O787 1.257 . S
C807 Eu743 2.787 . S
C807 O782 1.252 . S
C807 O785 1.268 . S
C807 C800 1.506 . S
H808 C791 0.931 . S
H809 C792 0.931 . S
H810 C793 0.929 . S
H811 C794 0.930 . S
H812 C802 0.931 . S
H813 C803 0.931 . S
H814 C804 0.930 . S
H815 C805 0.929 . S
H816 C822 0.930 . S
H817 C825 0.930 1_565 S
H818 C826 0.930 . S
H819 C827 0.930 . S
H820 C830 0.930 . S
H821 C831 0.930 . S
C822 H816 0.930 . S
C822 C823 1.355 . S
C822 C824 1.415 . S
C823 C822 1.355 . S
C823 C825 1.419 . S
C824 C822 1.415 . S
C824 C829 1.425 . S
C824 C831 1.409 . S
C825 H817 0.930 1_545 S
C825 C823 1.419 . S
C825 C826 1.362 . S
C826 H818 0.930 . S
C826 C825 1.362 . S
C826 C829 1.409 . S
C827 H819 0.930 . S
C827 C828 1.355 . S
C827 C829 1.415 . S
C828 C827 1.355 . S
C828 C830 1.419 . S
C829 C824 1.425 . S
C829 C826 1.409 . S
C829 C827 1.415 . S
C830 H820 0.930 . S
C830 C828 1.419 . S
C830 C831 1.362 . S
C831 H821 0.930 . S
C831 C824 1.409 . S
C831 C830 1.362 . S
H832 C838 0.930 . S
H833 C841 0.930 . S
H834 C842 0.930 . S
H835 C843 0.930 . S
H836 C846 0.930 . S
H837 C847 0.930 . S
C838 H832 0.930 . S
C838 C839 1.355 . S
C838 C840 1.415 . S
C839 C838 1.355 . S
C839 C841 1.419 . S
C840 C838 1.415 . S
C840 C845 1.425 . S
C840 C847 1.409 . S
C841 H833 0.930 . S
C841 C839 1.419 . S
C841 C842 1.362 . S
C842 H834 0.930 . S
C842 C841 1.362 . S
C842 C845 1.409 . S
C843 H835 0.930 . S
C843 C844 1.355 . S
C843 C845 1.415 . S
C844 C843 1.355 . S
C844 C846 1.419 . S
C845 C840 1.425 . S
C845 C842 1.409 . S
C845 C843 1.415 . S
C846 H836 0.930 . S
C846 C844 1.419 . S
C846 C847 1.362 . S
C847 H837 0.930 . S
C847 C840 1.409 . S
C847 C846 1.362 . S
H848 C854 0.930 . S
H849 C857 0.930 . S
H850 C858 0.930 . S
H851 C859 0.930 . S
H852 C862 0.930 . S
H853 C863 0.930 . S
C854 H848 0.930 . S
C854 C855 1.355 . S
C854 C856 1.415 . S
C855 C854 1.355 . S
C855 C857 1.419 . S
C856 C854 1.415 . S
C856 C861 1.425 . S
C856 C863 1.409 . S
C857 H849 0.930 . S
C857 C855 1.419 . S
C857 C858 1.362 . S
C858 H850 0.930 . S
C858 C857 1.362 . S
C858 C861 1.409 . S
C859 H851 0.930 . S
C859 C860 1.355 . S
C859 C861 1.415 . S
C860 C859 1.355 . S
C860 C862 1.419 . S
C861 C856 1.425 . S
C861 C858 1.409 . S
C861 C859 1.415 . S
C862 H852 0.930 . S
C862 C860 1.419 . S
C862 C863 1.362 . S
C863 H853 0.930 . S
C863 C856 1.409 . S
C863 C862 1.362 . S
H864 C870 0.944 . S
H865 C873 0.930 . S
H866 C874 0.930 . S
H867 C875 0.930 . S
H868 C878 0.930 1_455 S
H869 C879 0.930 . S
C870 H864 0.944 . S
C870 C871 1.355 . S
C870 C872 1.415 . S
C871 C870 1.355 . S
C871 C873 1.419 . S
C872 C870 1.415 . S
C872 C877 1.425 . S
C872 C879 1.409 . S
C873 H865 0.930 . S
C873 C871 1.419 . S
C873 C874 1.362 . S
C874 H866 0.930 . S
C874 C873 1.362 . S
C874 C877 1.409 . S
C875 H867 0.930 . S
C875 C876 1.355 . S
C875 C877 1.415 . S
C876 C875 1.355 . S
C876 C878 1.419 . S
C877 C872 1.425 . S
C877 C874 1.409 . S
C877 C875 1.415 . S
C878 H868 0.930 1_655 S
C878 C876 1.419 . S
C878 C879 1.362 . S
C879 H869 0.930 . S
C879 C872 1.409 . S
C879 C878 1.362 . S
H880 C886 0.930 1_545 S
H881 C889 0.930 . S
H882 C890 0.930 . S
H883 C891 0.930 . S
H884 C894 0.930 . S
H885 C895 0.930 . S
C886 H880 0.930 1_565 S
C886 C887 1.355 . S
C886 C888 1.415 . S
C887 C886 1.355 . S
C887 C889 1.419 . S
C888 C886 1.415 . S
C888 C893 1.425 . S
C888 C895 1.409 . S
C889 H881 0.930 . S
C889 C887 1.419 . S
C889 C890 1.362 . S
C890 H882 0.930 . S
C890 C889 1.362 . S
C890 C893 1.409 . S
C891 H883 0.930 . S
C891 C892 1.355 . S
C891 C893 1.415 . S
C892 C891 1.355 . S
C892 C894 1.419 . S
C893 C888 1.425 . S
C893 C890 1.409 . S
C893 C891 1.415 . S
C894 H884 0.930 . S
C894 C892 1.419 . S
C894 C895 1.362 . S
C895 H885 0.930 . S
C895 C888 1.409 . S
C895 C894 1.362 . S
H896 C902 0.930 . S
H897 C905 0.930 . S
H898 C906 0.930 . S
H899 C907 0.930 . S
H900 C910 0.930 . S
H901 C911 0.930 . S
C902 H896 0.930 . S
C902 C903 1.355 . S
C902 C904 1.415 . S
C903 C902 1.355 . S
C903 C905 1.419 . S
C904 C902 1.415 . S
C904 C909 1.425 . S
C904 C911 1.409 . S
C905 H897 0.930 . S
C905 C903 1.419 . S
C905 C906 1.362 . S
C906 H898 0.930 . S
C906 C905 1.362 . S
C906 C909 1.409 . S
C907 H899 0.930 . S
C907 C908 1.355 . S
C907 C909 1.415 . S
C908 C907 1.355 . S
C908 C910 1.419 . S
C909 C904 1.425 . S
C909 C906 1.409 . S
C909 C907 1.415 . S
C910 H900 0.930 . S
C910 C908 1.419 . S
C910 C911 1.362 . S
C911 H901 0.930 . S
C911 C904 1.409 . S
C911 C910 1.362 . S
H912 C918 0.930 . S
H913 C921 0.930 . S
H914 C922 0.930 . S
H915 C923 0.930 . S
H916 C926 0.930 . S
H917 C927 0.930 . S
C918 H912 0.930 . S
C918 C919 1.355 . S
C918 C920 1.415 . S
C919 C918 1.355 . S
C919 C921 1.419 . S
C920 C918 1.415 . S
C920 C925 1.425 . S
C920 C927 1.409 . S
C921 H913 0.930 . S
C921 C919 1.419 . S
C921 C922 1.362 . S
C922 H914 0.930 . S
C922 C921 1.362 . S
C922 C925 1.409 . S
C923 H915 0.930 . S
C923 C924 1.355 . S
C923 C925 1.415 . S
C924 C923 1.355 . S
C924 C926 1.419 . S
C925 C920 1.425 . S
C925 C922 1.409 . S
C925 C923 1.415 . S
C926 H916 0.930 . S
C926 C924 1.419 . S
C926 C927 1.362 . S
C927 H917 0.930 . S
C927 C920 1.409 . S
C927 C926 1.362 . S
H928 C934 0.930 1_545 S
H929 C937 0.930 . S
H930 C938 0.930 . S
H931 C939 0.930 . S
H932 C942 0.930 . S
H933 C943 0.930 . S
C934 H928 0.930 1_565 S
C934 C935 1.355 . S
C934 C936 1.415 . S
C935 C934 1.355 . S
C935 C937 1.419 . S
C936 C934 1.415 . S
C936 C941 1.425 . S
C936 C943 1.409 . S
C937 H929 0.930 . S
C937 C935 1.419 . S
C937 C938 1.362 . S
C938 H930 0.930 . S
C938 C937 1.362 . S
C938 C941 1.409 . S
C939 H931 0.930 . S
C939 C940 1.355 . S
C939 C941 1.415 . S
C940 C939 1.355 . S
C940 C942 1.419 . S
C941 C936 1.425 . S
C941 C938 1.409 . S
C941 C939 1.415 . S
C942 H932 0.930 . S
C942 C940 1.419 . S
C942 C943 1.362 . S
C943 H933 0.930 . S
C943 C936 1.409 . S
C943 C942 1.362 . S
H944 C950 0.930 . S
H945 C953 0.930 . S
H946 C954 0.930 . S
H947 C955 0.930 . S
H948 C958 0.930 . S
H949 C959 0.930 . S
C950 H944 0.930 . S
C950 C951 1.355 . S
C950 C952 1.415 . S
C951 C950 1.355 . S
C951 C953 1.419 . S
C952 C950 1.415 . S
C952 C957 1.425 . S
C952 C959 1.409 . S
C953 H945 0.930 . S
C953 C951 1.419 . S
C953 C954 1.362 . S
C954 H946 0.930 . S
C954 C953 1.362 . S
C954 C957 1.409 . S
C955 H947 0.930 . S
C955 C956 1.355 . S
C955 C957 1.415 . S
C956 C955 1.355 . S
C956 C958 1.419 . S
C957 C952 1.425 . S
C957 C954 1.409 . S
C957 C955 1.415 . S
C958 H948 0.930 . S
C958 C956 1.419 . S
C958 C959 1.362 . S
C959 H949 0.930 . S
C959 C952 1.409 . S
C959 C958 1.362 . S
H960 C966 0.930 . S
H961 C969 0.930 . S
H962 C970 0.930 . S
H963 C971 0.930 . S
H964 C974 0.930 . S
H965 C975 0.930 . S
C966 H960 0.930 . S
C966 C967 1.355 . S
C966 C968 1.415 . S
C967 C966 1.355 . S
C967 C969 1.419 . S
C968 C966 1.415 . S
C968 C973 1.425 . S
C968 C975 1.409 . S
C969 H961 0.930 . S
C969 C967 1.419 . S
C969 C970 1.362 . S
C970 H962 0.930 . S
C970 C969 1.362 . S
C970 C973 1.409 . S
C971 H963 0.930 . S
C971 C972 1.355 . S
C971 C973 1.415 . S
C972 C971 1.355 . S
C972 C974 1.419 . S
C973 C968 1.425 . S
C973 C970 1.409 . S
C973 C971 1.415 . S
C974 H964 0.930 . S
C974 C972 1.419 . S
C974 C975 1.362 . S
C975 H965 0.930 . S
C975 C968 1.409 . S
C975 C974 1.362 . S
H976 C982 0.930 . S
H977 C985 0.930 . S
H978 C986 0.930 . S
H979 C987 0.930 . S
H980 C990 0.930 . S
H981 C991 0.930 . S
C982 H976 0.930 . S
C982 C983 1.355 . S
C982 C984 1.415 . S
C983 C982 1.355 . S
C983 C985 1.419 . S
C984 C982 1.415 . S
C984 C989 1.425 . S
C984 C991 1.409 . S
C985 H977 0.930 . S
C985 C983 1.419 . S
C985 C986 1.362 . S
C986 H978 0.930 . S
C986 C985 1.362 . S
C986 C989 1.409 . S
C987 H979 0.930 . S
C987 C988 1.355 . S
C987 C989 1.415 . S
C988 C987 1.355 . S
C988 C990 1.419 . S
C989 C984 1.425 . S
C989 C986 1.409 . S
C989 C987 1.415 . S
C990 H980 0.930 . S
C990 C988 1.419 . S
C990 C991 1.362 . S
C991 H981 0.930 . S
C991 C984 1.409 . S
C991 C990 1.362 . S
H992 C998 0.930 . S
H993 C1001 0.930 . S
H994 C1002 0.930 . S
H995 C1003 0.930 . S
H996 C1006 0.930 . S
H997 C1007 0.930 . S
C998 H992 0.930 . S
C998 C999 1.355 . S
C998 C1000 1.415 . S
C999 C998 1.355 . S
C999 C1001 1.419 . S
C1000 C998 1.415 . S
C1000 C1005 1.425 . S
C1000 C1007 1.409 . S
C1001 H993 0.930 . S
C1001 C999 1.419 . S
C1001 C1002 1.362 . S
C1002 H994 0.930 . S
C1002 C1001 1.362 . S
C1002 C1005 1.409 . S
C1003 H995 0.930 . S
C1003 C1004 1.355 . S
C1003 C1005 1.415 . S
C1004 C1003 1.355 . S
C1004 C1006 1.419 . S
C1005 C1000 1.425 . S
C1005 C1002 1.409 . S
C1005 C1003 1.415 . S
C1006 H996 0.930 . S
C1006 C1004 1.419 . S
C1006 C1007 1.362 . S
C1007 H997 0.930 . S
C1007 C1000 1.409 . S
C1007 C1006 1.362 . S
H1008 C1014 0.930 . S
H1009 C1017 0.930 . S
H1010 C1018 0.930 . S
H1011 C1019 0.930 . S
H1012 C1022 0.930 . S
H1013 C1023 0.930 . S
C1014 H1008 0.930 . S
C1014 C1015 1.355 . S
C1014 C1016 1.415 . S
C1015 C1014 1.355 . S
C1015 C1017 1.419 . S
C1016 C1014 1.415 . S
C1016 C1021 1.425 . S
C1016 C1023 1.409 . S
C1017 H1009 0.930 . S
C1017 C1015 1.419 . S
C1017 C1018 1.362 . S
C1018 H1010 0.930 . S
C1018 C1017 1.362 . S
C1018 C1021 1.409 . S
C1019 H1011 0.930 . S
C1019 C1020 1.355 . S
C1019 C1021 1.415 . S
C1020 C1019 1.355 . S
C1020 C1022 1.419 . S
C1021 C1016 1.425 . S
C1021 C1018 1.409 . S
C1021 C1019 1.415 . S
C1022 H1012 0.930 . S
C1022 C1020 1.419 . S
C1022 C1023 1.362 . S
C1023 H1013 0.930 . S
C1023 C1016 1.409 . S
C1023 C1022 1.362 . S
H1024 C1030 0.930 . S
H1025 C1033 0.930 . S
H1026 C1034 0.930 . S
H1027 C1035 0.930 . S
H1028 C1038 0.930 . S
H1029 C1039 0.930 . S
C1030 H1024 0.930 . S
C1030 C1031 1.355 . S
C1030 C1032 1.415 . S
C1031 C1030 1.355 . S
C1031 C1033 1.419 . S
C1032 C1030 1.415 . S
C1032 C1037 1.425 . S
C1032 C1039 1.409 . S
C1033 H1025 0.930 . S
C1033 C1031 1.419 . S
C1033 C1034 1.362 . S
C1034 H1026 0.930 . S
C1034 C1033 1.362 . S
C1034 C1037 1.409 . S
C1035 H1027 0.930 . S
C1035 C1036 1.355 . S
C1035 C1037 1.415 . S
C1036 C1035 1.355 . S
C1036 C1038 1.419 . S
C1037 C1032 1.425 . S
C1037 C1034 1.409 . S
C1037 C1035 1.415 . S
C1038 H1028 0.930 . S
C1038 C1036 1.419 . S
C1038 C1039 1.362 . S
C1039 H1029 0.930 . S
C1039 C1032 1.409 . S
C1039 C1038 1.362 . S
H1040 C1046 0.930 . S
H1041 C1049 0.930 . S
H1042 C1050 0.930 . S
H1043 C1051 0.930 . S
H1044 C1054 0.930 . S
H1045 C1055 0.930 . S
C1046 H1040 0.930 . S
C1046 C1047 1.355 . S
C1046 C1048 1.415 . S
C1047 C1046 1.355 . S
C1047 C1049 1.419 . S
C1048 C1046 1.415 . S
C1048 C1053 1.425 . S
C1048 C1055 1.409 . S
C1049 H1041 0.930 . S
C1049 C1047 1.419 . S
C1049 C1050 1.362 . S
C1050 H1042 0.930 . S
C1050 C1049 1.362 . S
C1050 C1053 1.409 . S
C1051 H1043 0.930 . S
C1051 C1052 1.355 . S
C1051 C1053 1.415 . S
C1052 C1051 1.355 . S
C1052 C1054 1.419 . S
C1053 C1048 1.425 . S
C1053 C1050 1.409 . S
C1053 C1051 1.415 . S
C1054 H1044 0.930 . S
C1054 C1052 1.419 . S
C1054 C1055 1.362 . S
C1055 H1045 0.930 . S
C1055 C1048 1.409 . S
C1055 C1054 1.362 . S
H1056 C1062 0.930 . S
H1057 C1065 0.930 . S
H1058 C1066 0.930 . S
H1059 C1067 0.930 . S
H1060 C1070 0.930 . S
H1061 C1071 0.930 . S
C1062 H1056 0.930 . S
C1062 C1063 1.355 . S
C1062 C1064 1.415 . S
C1063 C1062 1.355 . S
C1063 C1065 1.419 . S
C1064 C1062 1.415 . S
C1064 C1069 1.425 . S
C1064 C1071 1.409 . S
C1065 H1057 0.930 . S
C1065 C1063 1.419 . S
C1065 C1066 1.362 . S
C1066 H1058 0.930 . S
C1066 C1065 1.362 . S
C1066 C1069 1.409 . S
C1067 H1059 0.930 . S
C1067 C1068 1.355 . S
C1067 C1069 1.415 . S
C1068 C1067 1.355 . S
C1068 C1070 1.419 . S
C1069 C1064 1.425 . S
C1069 C1066 1.409 . S
C1069 C1067 1.415 . S
C1070 H1060 0.930 . S
C1070 C1068 1.419 . S
C1070 C1071 1.362 . S
C1071 H1061 0.930 . S
C1071 C1064 1.409 . S
C1071 C1070 1.362 . S
H1072 C1078 0.930 . S
H1073 C1081 0.930 . S
H1074 C1082 0.930 . S
H1075 C1083 0.930 . S
H1076 C1086 0.930 1_655 S
H1077 C1087 0.930 . S
C1078 H1072 0.930 . S
C1078 C1079 1.355 . S
C1078 C1080 1.415 . S
C1079 C1078 1.355 . S
C1079 C1081 1.419 . S
C1080 C1078 1.415 . S
C1080 C1085 1.425 . S
C1080 C1087 1.409 . S
C1081 H1073 0.930 . S
C1081 C1079 1.419 . S
C1081 C1082 1.362 . S
C1082 H1074 0.930 . S
C1082 C1081 1.362 . S
C1082 C1085 1.409 . S
C1083 H1075 0.930 . S
C1083 C1084 1.355 . S
C1083 C1085 1.415 . S
C1084 C1083 1.355 . S
C1084 C1086 1.419 . S
C1085 C1080 1.425 . S
C1085 C1082 1.409 . S
C1085 C1083 1.415 . S
C1086 H1076 0.930 1_455 S
C1086 C1084 1.419 . S
C1086 C1087 1.362 . S
C1087 H1077 0.930 . S
C1087 C1080 1.409 . S
C1087 C1086 1.362 . S
H1088 C1094 0.930 . S
H1089 C1097 0.930 . S
H1090 C1098 0.930 . S
H1091 C1099 0.930 . S
H1092 C1102 0.930 . S
H1093 C1103 0.930 . S
C1094 H1088 0.930 . S
C1094 C1095 1.355 . S
C1094 C1096 1.415 . S
C1095 C1094 1.355 . S
C1095 C1097 1.419 . S
C1096 C1094 1.415 . S
C1096 C1101 1.425 . S
C1096 C1103 1.409 . S
C1097 H1089 0.930 . S
C1097 C1095 1.419 . S
C1097 C1098 1.362 . S
C1098 H1090 0.930 . S
C1098 C1097 1.362 . S
C1098 C1101 1.409 . S
C1099 H1091 0.930 . S
C1099 C1100 1.355 . S
C1099 C1101 1.415 . S
C1100 C1099 1.355 . S
C1100 C1102 1.419 . S
C1101 C1096 1.425 . S
C1101 C1098 1.409 . S
C1101 C1099 1.415 . S
C1102 H1092 0.930 . S
C1102 C1100 1.419 . S
C1102 C1103 1.362 . S
C1103 H1093 0.930 . S
C1103 C1096 1.409 . S
C1103 C1102 1.362 . S
H1104 C1110 0.930 . S
H1105 C1113 0.930 . S
H1106 C1114 0.930 . S
H1107 C1115 0.930 . S
H1108 C1118 0.930 . S
H1109 C1119 0.930 . S
C1110 H1104 0.930 . S
C1110 C1111 1.355 . S
C1110 C1112 1.415 . S
C1111 C1110 1.355 . S
C1111 C1113 1.419 . S
C1112 C1110 1.415 . S
C1112 C1117 1.425 . S
C1112 C1119 1.409 . S
C1113 H1105 0.930 . S
C1113 C1111 1.419 . S
C1113 C1114 1.362 . S
C1114 H1106 0.930 . S
C1114 C1113 1.362 . S
C1114 C1117 1.409 . S
C1115 H1107 0.930 . S
C1115 C1116 1.355 . S
C1115 C1117 1.415 . S
C1116 C1115 1.355 . S
C1116 C1118 1.419 . S
C1117 C1112 1.425 . S
C1117 C1114 1.409 . S
C1117 C1115 1.415 . S
C1118 H1108 0.930 . S
C1118 C1116 1.419 . S
C1118 C1119 1.362 . S
C1119 H1109 0.930 . S
C1119 C1112 1.409 . S
C1119 C1118 1.362 . S
H1120 C1126 0.930 . S
H1121 C1129 0.930 . S
H1122 C1130 0.930 . S
H1123 C1131 0.930 . S
H1124 C1134 0.930 . S
H1125 C1135 0.930 . S
C1126 H1120 0.930 . S
C1126 C1127 1.355 . S
C1126 C1128 1.415 . S
C1127 C1126 1.355 . S
C1127 C1129 1.419 . S
C1128 C1126 1.415 . S
C1128 C1133 1.425 . S
C1128 C1135 1.409 . S
C1129 H1121 0.930 . S
C1129 C1127 1.419 . S
C1129 C1130 1.362 . S
C1130 H1122 0.930 . S
C1130 C1129 1.362 . S
C1130 C1133 1.409 . S
C1131 H1123 0.930 . S
C1131 C1132 1.355 . S
C1131 C1133 1.415 . S
C1132 C1131 1.355 . S
C1132 C1134 1.419 . S
C1133 C1128 1.425 . S
C1133 C1130 1.409 . S
C1133 C1131 1.415 . S
C1134 H1124 0.930 . S
C1134 C1132 1.419 . S
C1134 C1135 1.362 . S
C1135 H1125 0.930 . S
C1135 C1128 1.409 . S
C1135 C1134 1.362 . S
H1136 C1142 0.930 . S
H1137 C1145 0.930 . S
H1138 C1146 0.930 . S
H1139 C1147 0.930 . S
H1140 C1150 0.930 . S
H1141 C1151 0.930 . S
C1142 H1136 0.930 . S
C1142 C1143 1.355 . S
C1142 C1144 1.415 . S
C1143 C1142 1.355 . S
C1143 C1145 1.419 . S
C1144 C1142 1.415 . S
C1144 C1149 1.425 . S
C1144 C1151 1.409 . S
C1145 H1137 0.930 . S
C1145 C1143 1.419 . S
C1145 C1146 1.362 . S
C1146 H1138 0.930 . S
C1146 C1145 1.362 . S
C1146 C1149 1.409 . S
C1147 H1139 0.930 . S
C1147 C1148 1.355 . S
C1147 C1149 1.415 . S
C1148 C1147 1.355 . S
C1148 C1150 1.419 . S
C1149 C1144 1.425 . S
C1149 C1146 1.409 . S
C1149 C1147 1.415 . S
C1150 H1140 0.930 . S
C1150 C1148 1.419 . S
C1150 C1151 1.362 . S
C1151 H1141 0.930 . S
C1151 C1144 1.409 . S
C1151 C1150 1.362 . S
H1152 C1158 0.930 . S
H1153 C1161 0.930 . S
H1154 C1162 0.930 . S
H1155 C1163 0.930 . S
H1156 C1166 0.930 . S
H1157 C1167 0.930 . S
C1158 H1152 0.930 . S
C1158 C1159 1.355 . S
C1158 C1160 1.415 . S
C1159 C1158 1.355 . S
C1159 C1161 1.419 . S
C1160 C1158 1.415 . S
C1160 C1165 1.425 . S
C1160 C1167 1.409 . S
C1161 H1153 0.930 . S
C1161 C1159 1.419 . S
C1161 C1162 1.362 . S
C1162 H1154 0.930 . S
C1162 C1161 1.362 . S
C1162 C1165 1.409 . S
C1163 H1155 0.930 . S
C1163 C1164 1.355 . S
C1163 C1165 1.415 . S
C1164 C1163 1.355 . S
C1164 C1166 1.419 . S
C1165 C1160 1.425 . S
C1165 C1162 1.409 . S
C1165 C1163 1.415 . S
C1166 H1156 0.930 . S
C1166 C1164 1.419 . S
C1166 C1167 1.362 . S
C1167 H1157 0.930 . S
C1167 C1160 1.409 . S
C1167 C1166 1.362 . S
H1168 C1174 0.930 . S
H1169 C1177 0.930 . S
H1170 C1178 0.930 . S
H1171 C1179 0.930 . S
H1172 C1182 0.930 . S
H1173 C1183 0.930 . S
C1174 H1168 0.930 . S
C1174 C1175 1.355 . S
C1174 C1176 1.415 . S
C1175 C1174 1.355 . S
C1175 C1177 1.419 . S
C1176 C1174 1.415 . S
C1176 C1181 1.425 . S
C1176 C1183 1.409 . S
C1177 H1169 0.930 . S
C1177 C1175 1.419 . S
C1177 C1178 1.362 . S
C1178 H1170 0.930 . S
C1178 C1177 1.362 . S
C1178 C1181 1.409 . S
C1179 H1171 0.930 . S
C1179 C1180 1.355 . S
C1179 C1181 1.415 . S
C1180 C1179 1.355 . S
C1180 C1182 1.419 . S
C1181 C1176 1.425 . S
C1181 C1178 1.409 . S
C1181 C1179 1.415 . S
C1182 H1172 0.930 . S
C1182 C1180 1.419 . S
C1182 C1183 1.362 . S
C1183 H1173 0.930 . S
C1183 C1176 1.409 . S
C1183 C1182 1.362 . S
H1184 C1190 0.930 . S
H1185 C1193 0.930 . S
H1186 C1194 0.930 . S
H1187 C1195 0.930 . S
H1188 C1198 0.930 . S
H1189 C1199 0.930 . S
C1190 H1184 0.930 . S
C1190 C1191 1.355 . S
C1190 C1192 1.415 . S
C1191 C1190 1.355 . S
C1191 C1193 1.419 . S
C1192 C1190 1.415 . S
C1192 C1197 1.425 . S
C1192 C1199 1.409 . S
C1193 H1185 0.930 . S
C1193 C1191 1.419 . S
C1193 C1194 1.362 . S
C1194 H1186 0.930 . S
C1194 C1193 1.362 . S
C1194 C1197 1.409 . S
C1195 H1187 0.930 . S
C1195 C1196 1.355 . S
C1195 C1197 1.415 . S
C1196 C1195 1.355 . S
C1196 C1198 1.419 . S
C1197 C1192 1.425 . S
C1197 C1194 1.409 . S
C1197 C1195 1.415 . S
C1198 H1188 0.930 . S
C1198 C1196 1.419 . S
C1198 C1199 1.362 . S
C1199 H1189 0.930 . S
C1199 C1192 1.409 . S
C1199 C1198 1.362 . S
C823 C361 1.462 1_545 S
C828 C554 1.474 . S
C844 C638 1.435 . S
C839 C451 1.468 . S
C860 C631 1.463 . S
C855 C241 1.462 . S
C871 C331 1.424 1_545 S
C876 C547 1.463 . S
C892 C711 1.438 . S
C887 C140 1.442 1_565 S
C908 C795 1.458 . S
C903 C211 1.410 . S
C919 C20 1.438 . S
C924 C788 1.470 . S
C935 C91 1.436 1_565 S
C940 C704 1.464 . S
C956 C538 1.279 . S
C951 C80 1.476 1_554 S
C972 C622 1.361 . S
C967 C1 1.505 . S
C988 C633 1.377 . S
C983 C200 1.470 1_556 S
C1004 C549 1.410 . S
C999 C121 1.488 . S
C1020 C717 1.393 . S
C1015 C320 1.486 1_556 S
C1031 C260 1.461 . S
C1036 C801 1.302 . S
C1052 C790 1.430 . S
C1047 C440 1.533 1_554 S
C1063 C380 1.525 . S
C1068 C706 1.409 . S
C1084 C536 1.576 . S
C1079 C31 1.523 . S
C1100 C620 1.561 . S
C1095 C61 1.566 . S
C1111 C151 1.517 . S
C1116 C627 1.547 . S
C1132 C543 1.557 . S
C1127 C181 1.564 . S
C1148 C715 1.582 . S
C1143 C271 1.526 . S
C1159 C301 1.580 . S
C1164 C799 1.564 . S
C1175 C391 1.461 . S
C1180 C806 1.565 . S
C1191 C421 1.558 . S
C1196 C722 1.546 . S
