# Generated by pormake.
# Topology ptr, (4,4)-cn, num edge types: 1
# Building blocks:
#     Node 0, Type 0, BuildingBlock: NAHDIM_clean_sbu_0, # of connection points: 4
#     Node 1, Type 0, BuildingBlock: NAHDIM_clean_sbu_0, # of connection points: 4
#     Node 2, Type 0, BuildingBlock: NAHDIM_clean_sbu_0, # of connection points: 4
#     Node 3, Type 0, BuildingBlock: NAHDIM_clean_sbu_0, # of connection points: 4
#     Node 4, Type 0, BuildingBlock: NAHDIM_clean_sbu_0, # of connection points: 4
#     Node 5, Type 0, BuildingBlock: NAHDIM_clean_sbu_0, # of connection points: 4
#     Node 6, Type 0, BuildingBlock: NAHDIM_clean_sbu_0, # of connection points: 4
#     Node 7, Type 0, BuildingBlock: NAHDIM_clean_sbu_0, # of connection points: 4
#     Node 8, Type 0, BuildingBlock: NAHDIM_clean_sbu_0, # of connection points: 4
#     Node 9, Type 0, BuildingBlock: NAHDIM_clean_sbu_0, # of connection points: 4
#     Node 10, Type 0, BuildingBlock: NAHDIM_clean_sbu_0, # of connection points: 4
#     Node 11, Type 0, BuildingBlock: NAHDIM_clean_sbu_0, # of connection points: 4
#     Node 12, Type 0, BuildingBlock: NAHDIM_clean_sbu_0, # of connection points: 4
#     Node 13, Type 0, BuildingBlock: NAHDIM_clean_sbu_0, # of connection points: 4
#     Node 14, Type 0, BuildingBlock: NAHDIM_clean_sbu_0, # of connection points: 4
#     Node 15, Type 0, BuildingBlock: NAHDIM_clean_sbu_0, # of connection points: 4
#     Node 16, Type 0, BuildingBlock: NAHDIM_clean_sbu_0, # of connection points: 4
#     Node 17, Type 0, BuildingBlock: NAHDIM_clean_sbu_0, # of connection points: 4
#     Node 18, Type 1, BuildingBlock: MIFKUJ_clean_linker_1, # of connection points: 4
#     Node 19, Type 1, BuildingBlock: MIFKUJ_clean_linker_1, # of connection points: 4
#     Node 20, Type 1, BuildingBlock: MIFKUJ_clean_linker_1, # of connection points: 4
#     Node 21, Type 1, BuildingBlock: MIFKUJ_clean_linker_1, # of connection points: 4
#     Node 22, Type 1, BuildingBlock: MIFKUJ_clean_linker_1, # of connection points: 4
#     Node 23, Type 1, BuildingBlock: MIFKUJ_clean_linker_1, # of connection points: 4
#     Node 24, Type 1, BuildingBlock: MIFKUJ_clean_linker_1, # of connection points: 4
#     Node 25, Type 1, BuildingBlock: MIFKUJ_clean_linker_1, # of connection points: 4
#     Node 26, Type 1, BuildingBlock: MIFKUJ_clean_linker_1, # of connection points: 4
#     Node 27, Type 1, BuildingBlock: MIFKUJ_clean_linker_1, # of connection points: 4
#     Node 28, Type 1, BuildingBlock: MIFKUJ_clean_linker_1, # of connection points: 4
#     Node 29, Type 1, BuildingBlock: MIFKUJ_clean_linker_1, # of connection points: 4
#     Node 30, Type 1, BuildingBlock: MIFKUJ_clean_linker_1, # of connection points: 4
#     Node 31, Type 1, BuildingBlock: MIFKUJ_clean_linker_1, # of connection points: 4
#     Node 32, Type 1, BuildingBlock: MIFKUJ_clean_linker_1, # of connection points: 4
#     Node 33, Type 1, BuildingBlock: MIFKUJ_clean_linker_1, # of connection points: 4
#     Node 34, Type 1, BuildingBlock: MIFKUJ_clean_linker_1, # of connection points: 4
#     Node 35, Type 1, BuildingBlock: MIFKUJ_clean_linker_1, # of connection points: 4
#     Edge 36, Type (0, 1), BuildingBlock: XUDNAN_clean_linker_2, # of connection points: 2
#     Edge 37, Type (0, 1), BuildingBlock: XUDNAN_clean_linker_2, # of connection points: 2
#     Edge 38, Type (0, 1), BuildingBlock: XUDNAN_clean_linker_2, # of connection points: 2
#     Edge 39, Type (0, 1), BuildingBlock: XUDNAN_clean_linker_2, # of connection points: 2
#     Edge 40, Type (0, 1), BuildingBlock: XUDNAN_clean_linker_2, # of connection points: 2
#     Edge 41, Type (0, 1), BuildingBlock: XUDNAN_clean_linker_2, # of connection points: 2
#     Edge 42, Type (0, 1), BuildingBlock: XUDNAN_clean_linker_2, # of connection points: 2
#     Edge 43, Type (0, 1), BuildingBlock: XUDNAN_clean_linker_2, # of connection points: 2
#     Edge 44, Type (0, 1), BuildingBlock: XUDNAN_clean_linker_2, # of connection points: 2
#     Edge 45, Type (0, 1), BuildingBlock: XUDNAN_clean_linker_2, # of connection points: 2
#     Edge 46, Type (0, 1), BuildingBlock: XUDNAN_clean_linker_2, # of connection points: 2
#     Edge 47, Type (0, 1), BuildingBlock: XUDNAN_clean_linker_2, # of connection points: 2
#     Edge 48, Type (0, 1), BuildingBlock: XUDNAN_clean_linker_2, # of connection points: 2
#     Edge 49, Type (0, 1), BuildingBlock: XUDNAN_clean_linker_2, # of connection points: 2
#     Edge 50, Type (0, 1), BuildingBlock: XUDNAN_clean_linker_2, # of connection points: 2
#     Edge 51, Type (0, 1), BuildingBlock: XUDNAN_clean_linker_2, # of connection points: 2
#     Edge 52, Type (0, 1), BuildingBlock: XUDNAN_clean_linker_2, # of connection points: 2
#     Edge 53, Type (0, 1), BuildingBlock: XUDNAN_clean_linker_2, # of connection points: 2
#     Edge 54, Type (0, 1), BuildingBlock: XUDNAN_clean_linker_2, # of connection points: 2
#     Edge 55, Type (0, 1), BuildingBlock: XUDNAN_clean_linker_2, # of connection points: 2
#     Edge 56, Type (0, 1), BuildingBlock: XUDNAN_clean_linker_2, # of connection points: 2
#     Edge 57, Type (0, 1), BuildingBlock: XUDNAN_clean_linker_2, # of connection points: 2
#     Edge 58, Type (0, 1), BuildingBlock: XUDNAN_clean_linker_2, # of connection points: 2
#     Edge 59, Type (0, 1), BuildingBlock: XUDNAN_clean_linker_2, # of connection points: 2
#     Edge 60, Type (0, 1), BuildingBlock: XUDNAN_clean_linker_2, # of connection points: 2
#     Edge 61, Type (0, 1), BuildingBlock: XUDNAN_clean_linker_2, # of connection points: 2
#     Edge 62, Type (0, 1), BuildingBlock: XUDNAN_clean_linker_2, # of connection points: 2
#     Edge 63, Type (0, 1), BuildingBlock: XUDNAN_clean_linker_2, # of connection points: 2
#     Edge 64, Type (0, 1), BuildingBlock: XUDNAN_clean_linker_2, # of connection points: 2
#     Edge 65, Type (0, 1), BuildingBlock: XUDNAN_clean_linker_2, # of connection points: 2
#     Edge 66, Type (0, 1), BuildingBlock: XUDNAN_clean_linker_2, # of connection points: 2
#     Edge 67, Type (0, 1), BuildingBlock: XUDNAN_clean_linker_2, # of connection points: 2
#     Edge 68, Type (0, 1), BuildingBlock: XUDNAN_clean_linker_2, # of connection points: 2
#     Edge 69, Type (0, 1), BuildingBlock: XUDNAN_clean_linker_2, # of connection points: 2
#     Edge 70, Type (0, 1), BuildingBlock: XUDNAN_clean_linker_2, # of connection points: 2
#     Edge 71, Type (0, 1), BuildingBlock: XUDNAN_clean_linker_2, # of connection points: 2
#     Edge 72, Type (0, 1), BuildingBlock: XUDNAN_clean_linker_2, # of connection points: 2
#     Edge 73, Type (0, 1), BuildingBlock: XUDNAN_clean_linker_2, # of connection points: 2
#     Edge 74, Type (0, 1), BuildingBlock: XUDNAN_clean_linker_2, # of connection points: 2
#     Edge 75, Type (0, 1), BuildingBlock: XUDNAN_clean_linker_2, # of connection points: 2
#     Edge 76, Type (0, 1), BuildingBlock: XUDNAN_clean_linker_2, # of connection points: 2
#     Edge 77, Type (0, 1), BuildingBlock: XUDNAN_clean_linker_2, # of connection points: 2
#     Edge 78, Type (0, 1), BuildingBlock: XUDNAN_clean_linker_2, # of connection points: 2
#     Edge 79, Type (0, 1), BuildingBlock: XUDNAN_clean_linker_2, # of connection points: 2
#     Edge 80, Type (0, 1), BuildingBlock: XUDNAN_clean_linker_2, # of connection points: 2
#     Edge 81, Type (0, 1), BuildingBlock: XUDNAN_clean_linker_2, # of connection points: 2
#     Edge 82, Type (0, 1), BuildingBlock: XUDNAN_clean_linker_2, # of connection points: 2
#     Edge 83, Type (0, 1), BuildingBlock: XUDNAN_clean_linker_2, # of connection points: 2
#     Edge 84, Type (0, 1), BuildingBlock: XUDNAN_clean_linker_2, # of connection points: 2
#     Edge 85, Type (0, 1), BuildingBlock: XUDNAN_clean_linker_2, # of connection points: 2
#     Edge 86, Type (0, 1), BuildingBlock: XUDNAN_clean_linker_2, # of connection points: 2
#     Edge 87, Type (0, 1), BuildingBlock: XUDNAN_clean_linker_2, # of connection points: 2
#     Edge 88, Type (0, 1), BuildingBlock: XUDNAN_clean_linker_2, # of connection points: 2
#     Edge 89, Type (0, 1), BuildingBlock: XUDNAN_clean_linker_2, # of connection points: 2
#     Edge 90, Type (0, 1), BuildingBlock: XUDNAN_clean_linker_2, # of connection points: 2
#     Edge 91, Type (0, 1), BuildingBlock: XUDNAN_clean_linker_2, # of connection points: 2
#     Edge 92, Type (0, 1), BuildingBlock: XUDNAN_clean_linker_2, # of connection points: 2
#     Edge 93, Type (0, 1), BuildingBlock: XUDNAN_clean_linker_2, # of connection points: 2
#     Edge 94, Type (0, 1), BuildingBlock: XUDNAN_clean_linker_2, # of connection points: 2
#     Edge 95, Type (0, 1), BuildingBlock: XUDNAN_clean_linker_2, # of connection points: 2
#     Edge 96, Type (0, 1), BuildingBlock: XUDNAN_clean_linker_2, # of connection points: 2
#     Edge 97, Type (0, 1), BuildingBlock: XUDNAN_clean_linker_2, # of connection points: 2
#     Edge 98, Type (0, 1), BuildingBlock: XUDNAN_clean_linker_2, # of connection points: 2
#     Edge 99, Type (0, 1), BuildingBlock: XUDNAN_clean_linker_2, # of connection points: 2
#     Edge 100, Type (0, 1), BuildingBlock: XUDNAN_clean_linker_2, # of connection points: 2
#     Edge 101, Type (0, 1), BuildingBlock: XUDNAN_clean_linker_2, # of connection points: 2
#     Edge 102, Type (0, 1), BuildingBlock: XUDNAN_clean_linker_2, # of connection points: 2
#     Edge 103, Type (0, 1), BuildingBlock: XUDNAN_clean_linker_2, # of connection points: 2
#     Edge 104, Type (0, 1), BuildingBlock: XUDNAN_clean_linker_2, # of connection points: 2
#     Edge 105, Type (0, 1), BuildingBlock: XUDNAN_clean_linker_2, # of connection points: 2
#     Edge 106, Type (0, 1), BuildingBlock: XUDNAN_clean_linker_2, # of connection points: 2
#     Edge 107, Type (0, 1), BuildingBlock: XUDNAN_clean_linker_2, # of connection points: 2
# Relax obj value: 0.073
# Max RMSD: 0.246
# Mean RMSD: 0.109
data_MOF--net-ptr--node1-NAHDIM_clean_sbu_0--node2-MIFKUJ_clean_linker_1--edge1-XUDNAN_clean_linker_2
_symmetry_space_group_name_H-M    P1
_symmetry_Int_Tables_number       1
_symmetry_cell_setting            triclinic
loop_
_symmetry_equiv_pos_as_xyz
'x, y, z'
_cell_length_a     91.354749
_cell_length_b     89.589413
_cell_length_c     60.574259
_cell_angle_alpha  91.743229
_cell_angle_beta   89.126806
_cell_angle_gamma 121.8248
loop_
_atom_site_label
_atom_site_type_symbol
_atom_site_fract_x
_atom_site_fract_y
_atom_site_fract_z
_atom_type_partial_charge
C0 C 0.02676 0.34767 0.04204 0.0
O1 O 0.01712 0.34855 0.05772 0.0
O2 O 0.9871 0.33584 0.99918 0.0
Zn3 Zn 0.00782 0.35704 0.01304 0.0
O4 O -0.0 0.36623 0.03837 0.0
C5 C 0.01384 0.37463 0.97124 0.0
O6 O 0.0013 0.35919 0.96397 0.0
O7 O 0.02503 0.35097 0.02234 0.0
C8 C 0.98774 0.36844 0.03379 0.0
O9 O 0.98093 0.36392 0.01392 0.0
C10 C 0.9853 0.32083 0.9967 0.0
O11 O 0.9974 0.31842 0.00382 0.0
O12 O 0.01888 0.37643 0.99112 0.0
C13 C 0.66953 0.65719 0.97511 0.0
O14 O 0.65538 0.65331 0.96474 0.0
O15 O 0.64788 0.67289 0.02016 0.0
Zn16 Zn 0.64717 0.65038 0.01197 0.0
O17 O 0.62709 0.63363 0.99253 0.0
C18 C 0.64797 0.64351 0.0589 0.0
O19 O 0.65598 0.66064 0.06183 0.0
O20 O 0.66931 0.65646 0.99608 0.0
C21 C 0.61756 0.63613 0.98005 0.0
O22 O 0.62009 0.65194 0.97877 0.0
C23 C 0.65524 0.68602 0.00762 0.0
O24 O 0.66117 0.68439 0.98842 0.0
O25 O 0.64396 0.63689 0.03946 0.0
C26 C 0.33695 0.01649 0.98204 0.0
O27 O 0.33026 -0.00018 0.97656 0.0
O28 O 0.32965 0.98434 0.02134 0.0
Zn29 Zn 0.35183 0.00436 0.00914 0.0
O30 O 0.35947 0.99556 0.98302 0.0
C31 C 0.3699 0.99721 0.03713 0.0
O32 O 0.35885 0.98258 0.02649 0.0
O33 O 0.34783 0.02303 0.9978 0.0
C34 C 0.35104 0.97999 0.97492 0.0
O35 O 0.336 0.96854 0.98337 0.0
C36 C 0.31683 0.98504 0.02832 0.0
O37 O 0.31706 -0.00023 0.02708 0.0
O38 O 0.37001 0.01113 0.03289 0.0
C39 C 0.96202 0.65255 0.98395 0.0
O40 O 0.97426 0.65598 0.96959 0.0
O41 O 0.0009 0.67315 0.02615 0.0
Zn42 Zn 0.98484 0.64916 0.01264 0.0
O43 O 0.99497 0.64369 0.98604 0.0
C44 C 0.97814 0.63598 0.05626 0.0
O45 O 0.97915 0.65101 0.06016 0.0
O46 O 0.96343 0.6487 0.00353 0.0
C47 C 0.0025 0.63517 0.98706 0.0
O48 O 0.00478 0.63045 0.00641 0.0
C49 C 0.01715 0.68312 0.02454 0.0
O50 O 0.02575 0.67838 0.01161 0.0
O51 O 0.97945 0.63167 0.03647 0.0
C52 C 0.31441 0.34223 0.02004 0.0
O53 O 0.31493 0.32785 0.01915 0.0
O54 O 0.34565 0.33508 0.99284 0.0
Zn55 Zn 0.34801 0.35875 0.99782 0.0
O56 O 0.36824 0.37428 0.01823 0.0
C57 C 0.35987 0.36819 0.95272 0.0
O58 O 0.36521 0.35731 0.95528 0.0
O59 O 0.32674 0.35624 0.01191 0.0
C60 C 0.38299 0.38551 0.01063 0.0
O61 O 0.38511 0.38716 0.98918 0.0
C62 C 0.35883 0.33384 0.9946 0.0
O63 O 0.3736 0.34784 0.00045 0.0
O64 O 0.35188 0.37059 0.96845 0.0
C65 C 0.65275 0.9793 0.044 0.0
O66 O 0.65608 0.99494 0.05033 0.0
O67 O 0.66407 0.00527 0.98943 0.0
Zn68 Zn 0.64238 0.98923 0.00632 0.0
O69 O 0.63454 0.00203 0.02648 0.0
C70 C 0.62187 0.98592 0.97111 0.0
O71 O 0.63216 0.003 0.97399 0.0
O72 O 0.64634 0.97332 0.02491 0.0
C73 C 0.64068 0.01843 0.0289 0.0
O74 O 0.65399 0.02956 0.01707 0.0
C75 C 0.67871 0.01693 0.99714 0.0
O76 O 0.68076 0.01993 0.01856 0.0
O77 O 0.62358 0.97585 0.98372 0.0
C78 C 0.7018 0.68402 0.35636 0.0
O79 O 0.69971 0.67661 0.33666 0.0
O80 O 0.66224 0.66779 0.32638 0.0
Zn81 Zn 0.67628 0.6914 0.34141 0.0
O82 O 0.66171 0.69753 0.3601 0.0
C83 C 0.6775 0.71158 0.30641 0.0
O84 O 0.66097 0.70246 0.31103 0.0
O85 O 0.69351 0.6914 0.36144 0.0
C86 C 0.66984 0.71293 0.36868 0.0
O87 O 0.68636 0.72318 0.36444 0.0
C88 C 0.64732 0.65562 0.33219 0.0
O89 O 0.63999 0.6581 0.34956 0.0
O90 O 0.68771 0.7093 0.31776 0.0
C91 C 0.34767 0.98665 0.31489 0.0
O92 O 0.34013 0.99219 0.30204 0.0
O93 O 0.32489 0.99954 0.36155 0.0
Zn94 Zn 0.31872 0.97765 0.34368 0.0
O95 O 0.30298 0.9728 0.31782 0.0
C96 C 0.30446 0.95783 0.38388 0.0
O97 O 0.31108 0.97341 0.39349 0.0
O98 O 0.34071 0.97985 0.33318 0.0
C99 C 0.29422 0.97979 0.31447 0.0
O100 O 0.2955 0.992 0.3283 0.0
C101 C 0.33119 0.01488 0.35419 0.0
O102 O 0.33337 0.01734 0.33283 0.0
O103 O 0.30637 0.95666 0.36319 0.0
C104 C 0.01768 0.36687 0.31405 0.0
O105 O 0.01226 0.35308 0.30075 0.0
O106 O 0.00746 0.32822 0.35487 0.0
Zn107 Zn 0.0287 0.34853 0.34148 0.0
O108 O 0.03634 0.3398 0.31532 0.0
C109 C 0.04968 0.34825 0.37574 0.0
O110 O 0.03957 0.33122 0.37214 0.0
O111 O 0.02475 0.36751 0.33225 0.0
C112 C 0.02719 0.3242 0.30747 0.0
O113 O 0.01206 0.31345 0.31624 0.0
C114 C 0.99294 0.32672 0.35767 0.0
O115 O 0.99083 0.33944 0.35167 0.0
O116 O 0.04753 0.35864 0.36437 0.0
C117 C 0.63813 0.99727 0.33808 0.0
O118 O 0.64719 0.00586 0.35572 0.0
O119 O 0.67308 0.99934 0.36167 0.0
Zn120 Zn 0.65444 0.97786 0.34543 0.0
O121 O 0.66477 0.96907 0.32286 0.0
C122 C 0.64076 0.96414 0.38792 0.0
O123 O 0.64489 0.98045 0.39148 0.0
O124 O 0.63855 0.98404 0.33073 0.0
C125 C 0.67604 0.96594 0.32934 0.0
O126 O 0.68084 0.96913 0.35015 0.0
C127 C 0.68669 0.01247 0.35412 0.0
O128 O 0.69036 0.01275 0.33302 0.0
O129 O 0.6425 0.95937 0.36857 0.0
C130 C 0.97497 0.66923 0.35161 0.0
O131 O 0.97731 0.6607 0.33531 0.0
O132 O 0.01182 0.66971 0.33585 0.0
Zn133 Zn 0.01211 0.69046 0.35048 0.0
O134 O 0.02776 0.69895 0.37727 0.0
C135 C 0.02365 0.70976 0.30936 0.0
O136 O 0.01986 0.69461 0.30034 0.0
O137 O 0.98796 0.68272 0.36036 0.0
C138 C 0.03992 0.6961 0.37913 0.0
O139 O 0.04265 0.68757 0.36321 0.0
C140 C 0.00844 0.65675 0.3476 0.0
O141 O 0.00548 0.65735 0.36881 0.0
O142 O 0.02108 0.71071 0.32989 0.0
C143 C 0.33171 0.31173 0.3599 0.0
O144 O 0.34655 0.32635 0.35671 0.0
O145 O 0.33866 0.34497 0.32263 0.0
Zn146 Zn 0.31739 0.33069 0.341 0.0
O147 O 0.31471 0.3446 0.36608 0.0
C148 C 0.29705 0.32918 0.30442 0.0
O149 O 0.31019 0.3453 0.30204 0.0
O150 O 0.31787 0.31072 0.35429 0.0
C151 C 0.30386 0.34936 0.36529 0.0
O152 O 0.29502 0.34638 0.34707 0.0
C153 C 0.35089 0.3607 0.32631 0.0
O154 O 0.35061 0.36919 0.34421 0.0
O155 O 0.29706 0.32026 0.32033 0.0
C156 C 0.35668 0.01281 0.70569 0.0
O157 O 0.34237 0.99771 0.70156 0.0
O158 O 0.32449 0.00521 0.66648 0.0
Zn159 Zn 0.33883 0.02748 0.68465 0.0
O160 O 0.32488 0.03162 0.70724 0.0
C161 C 0.34701 0.0469 0.64391 0.0
O162 O 0.33699 0.03131 0.63462 0.0
O163 O 0.35789 0.02695 0.7 0.0
C164 C 0.31372 0.03498 0.70096 0.0
O165 O 0.31065 0.03437 0.67972 0.0
C166 C 0.30941 0.99269 0.67116 0.0
O167 O 0.30205 0.99363 0.6895 0.0
O168 O 0.34963 0.0482 0.66463 0.0
C169 C 0.02077 0.32759 0.65372 0.0
O170 O 0.00974 0.32542 0.63839 0.0
O171 O 0.98643 0.33306 0.69054 0.0
Zn172 Zn 0.99057 0.3138 0.68105 0.0
O173 O 0.97577 0.2994 0.65516 0.0
C174 C 0.96855 0.29128 0.71395 0.0
O175 O 0.95858 0.29588 0.70482 0.0
O176 O 0.01554 0.3236 0.67347 0.0
C177 C 0.96658 0.30285 0.64337 0.0
O178 O 0.96629 0.31714 0.64773 0.0
C179 C 0.9985 0.34903 0.69311 0.0
O180 O 0.01436 0.35363 0.68808 0.0
O181 O 0.98371 0.29751 0.7065 0.0
C182 C 0.67202 0.69326 0.64882 0.0
O183 O 0.66619 0.67658 0.6445 0.0
O184 O 0.66893 0.66747 0.6967 0.0
Zn185 Zn 0.68927 0.68524 0.67913 0.0
O186 O 0.69533 0.67344 0.65503 0.0
C187 C 0.70604 0.70137 0.72001 0.0
O188 O 0.69061 0.69833 0.72456 0.0
O189 O 0.68291 0.70102 0.66436 0.0
C190 C 0.70599 0.66857 0.65731 0.0
O191 O 0.71325 0.67065 0.67664 0.0
C192 C 0.65791 0.65167 0.69104 0.0
O193 O 0.65915 0.64548 0.67162 0.0
O194 O 0.70913 0.69801 0.70056 0.0
C195 C 0.30143 0.3148 0.65925 0.0
O196 O 0.31083 0.31309 0.64395 0.0
O197 O 0.34433 0.33135 0.69062 0.0
Zn198 Zn 0.32232 0.30787 0.68619 0.0
O199 O 0.3239 0.2935 0.66104 0.0
C200 C 0.32227 0.3015 0.73283 0.0
O201 O 0.33022 0.31871 0.73453 0.0
O202 O 0.3036 0.31264 0.67933 0.0
C203 C 0.33757 0.29501 0.65312 0.0
O204 O 0.35258 0.30691 0.66155 0.0
C205 C 0.35284 0.34184 0.67525 0.0
O206 O 0.34779 0.33715 0.65467 0.0
O207 O 0.31719 0.29401 0.71394 0.0
C208 C 0.65 0.01535 0.69777 0.0
O209 O 0.65939 0.0133 0.71214 0.0
O210 O 0.67744 0.00356 0.65836 0.0
Zn211 Zn 0.67976 0.02577 0.67101 0.0
O212 O 0.69397 0.03323 0.6988 0.0
C213 C 0.69512 0.04444 0.62992 0.0
O214 O 0.69086 0.02897 0.62151 0.0
O215 O 0.65607 0.02074 0.67863 0.0
C216 C 0.71028 0.04083 0.69872 0.0
O217 O 0.71847 0.04422 0.67976 0.0
C218 C 0.67754 0.99283 0.67152 0.0
O219 O 0.67953 0.99674 0.69276 0.0
O220 O 0.69139 0.04572 0.6499 0.0
C221 C 0.99018 0.64232 0.69443 0.0
O222 O 0.00427 0.65221 0.68304 0.0
O223 O 0.00237 0.68228 0.66744 0.0
Zn224 Zn 0.97843 0.66447 0.67742 0.0
O225 O 0.96963 0.67617 0.69775 0.0
C226 C 0.9618 0.66351 0.63735 0.0
O227 O 0.97188 0.68065 0.63984 0.0
O228 O 0.97805 0.6453 0.6941 0.0
C229 C 0.95597 0.66642 0.70862 0.0
O230 O 0.94804 0.64929 0.70573 0.0
C231 C 0.01289 0.6939 0.68116 0.0
O232 O 0.00792 0.69376 0.70166 0.0
O233 O 0.96252 0.65371 0.65143 0.0
H234 H 0.14112 0.32462 0.20059 0.0
H235 H 0.11803 0.3236 0.22234 0.0
H236 H 0.08046 0.28366 0.17749 0.0
H237 H 0.10371 0.28398 0.15653 0.0
H238 H 0.15008 0.30232 0.19282 0.0
H239 H 0.13233 0.33286 0.14821 0.0
H240 H 0.11298 0.33802 0.12694 0.0
H241 H 0.1019 0.29437 0.08299 0.0
H242 H 0.12125 0.28922 0.10445 0.0
H243 H 0.17067 0.29091 0.10569 0.0
H244 H 0.19691 0.29959 0.08429 0.0
H245 H 0.22573 0.34478 0.12803 0.0
H246 H 0.19955 0.33619 0.14909 0.0
H247 H 0.15564 0.31112 0.11198 0.0
H248 H 0.17762 0.28387 0.159 0.0
H249 H 0.19951 0.28336 0.1814 0.0
H250 H 0.20544 0.3271 0.22111 0.0
H251 H 0.18369 0.3276 0.1987 0.0
C252 C 0.1242 0.30446 0.17682 0.0
C253 C 0.12791 0.31552 0.19553 0.0
C254 C 0.11466 0.31509 0.2078 0.0
C255 C 0.09734 0.30368 0.20156 0.0
C256 C 0.09363 0.29252 0.18287 0.0
C257 C 0.10692 0.29282 0.17072 0.0
C258 C 0.13853 0.30528 0.16385 0.0
C259 C 0.15127 0.30429 0.17514 0.0
C260 C 0.14005 0.30761 0.14073 0.0
C261 C 0.12804 0.31049 0.12809 0.0
C262 C 0.12555 0.32425 0.13418 0.0
C263 C 0.11449 0.32718 0.12202 0.0
C264 C 0.10588 0.31656 0.10335 0.0
C265 C 0.10847 0.30286 0.0972 0.0
C266 C 0.11947 0.29987 0.10945 0.0
C267 C 0.18321 0.31282 0.12907 0.0
C268 C 0.18269 0.30259 0.11073 0.0
C269 C 0.19767 0.30751 0.09862 0.0
C270 C 0.21333 0.3229 0.10447 0.0
C271 C 0.21382 0.33296 0.12302 0.0
C272 C 0.19891 0.32797 0.13519 0.0
C273 C 0.16723 0.30844 0.14106 0.0
C274 C 0.15418 0.30875 0.12957 0.0
C275 C 0.16567 0.30604 0.1641 0.0
C276 C 0.17908 0.30579 0.17721 0.0
C277 C 0.18373 0.29339 0.17246 0.0
C278 C 0.19613 0.29305 0.18531 0.0
C279 C 0.20418 0.30522 0.20293 0.0
C280 C 0.19958 0.3177 0.20748 0.0
C281 C 0.18708 0.31791 0.19481 0.0
H282 H 0.72023 0.88528 0.18802 0.0
H283 H 0.72252 0.90637 0.21642 0.0
H284 H 0.66836 0.88709 0.20829 0.0
H285 H 0.66641 0.86652 0.17939 0.0
H286 H 0.69904 0.84903 0.18951 0.0
H287 H 0.70845 0.89511 0.14334 0.0
H288 H 0.70357 0.91762 0.13013 0.0
H289 H 0.65214 0.87729 0.1097 0.0
H290 H 0.657 0.85476 0.12324 0.0
H291 H 0.65622 0.80709 0.1183 0.0
H292 H 0.65206 0.78359 0.09224 0.0
H293 H 0.70664 0.80384 0.09404 0.0
H294 H 0.71069 0.82702 0.12054 0.0
H295 H 0.67873 0.84473 0.11275 0.0
H296 H 0.66889 0.79888 0.1597 0.0
H297 H 0.67134 0.7769 0.17917 0.0
H298 H 0.72259 0.81701 0.20072 0.0
H299 H 0.72044 0.83874 0.18004 0.0
C300 C 0.69318 0.87439 0.18157 0.0
C301 C 0.70891 0.88575 0.19225 0.0
C302 C 0.71016 0.89773 0.20858 0.0
C303 C 0.6956 0.8984 0.2148 0.0
C304 C 0.67991 0.88718 0.20373 0.0
C305 C 0.67873 0.87533 0.18726 0.0
C306 C 0.69161 0.8609 0.16535 0.0
C307 C 0.69498 0.84829 0.17256 0.0
C308 C 0.68576 0.85969 0.14349 0.0
C309 C 0.68298 0.87326 0.13464 0.0
C310 C 0.69606 0.8911 0.1362 0.0
C311 C 0.69327 0.90395 0.12863 0.0
C312 C 0.67742 0.89921 0.11906 0.0
C313 C 0.6645 0.88132 0.1169 0.0
C314 C 0.66726 0.86845 0.12465 0.0
C315 C 0.68375 0.81872 0.12132 0.0
C316 C 0.66726 0.8064 0.11312 0.0
C317 C 0.66489 0.79299 0.09837 0.0
C318 C 0.67905 0.792 0.09121 0.0
C319 C 0.69556 0.80442 0.09931 0.0
C320 C 0.69787 0.81759 0.11442 0.0
C321 C 0.68623 0.83288 0.13695 0.0
C322 C 0.68302 0.8456 0.12961 0.0
C323 C 0.69227 0.8342 0.15871 0.0
C324 C 0.69455 0.82047 0.16819 0.0
C325 C 0.68089 0.80285 0.16795 0.0
C326 C 0.68221 0.79032 0.17942 0.0
C327 C 0.69709 0.79521 0.19174 0.0
C328 C 0.71101 0.81272 0.19124 0.0
C329 C 0.70975 0.82521 0.17956 0.0
H330 H 0.11219 0.84584 0.18781 0.0
H331 H 0.08927 0.8254 0.21243 0.0
H332 H 0.10407 0.78736 0.19949 0.0
H333 H 0.12638 0.80759 0.17434 0.0
H334 H 0.14791 0.85859 0.19326 0.0
H335 H 0.10409 0.82903 0.1365 0.0
H336 H 0.08081 0.80303 0.11751 0.0
H337 H 0.1151 0.78412 0.1048 0.0
H338 H 0.13848 0.81058 0.12305 0.0
H339 H 0.18369 0.85361 0.11648 0.0
H340 H 0.20993 0.87176 0.09568 0.0
H341 H 0.2102 0.91825 0.11794 0.0
H342 H 0.18307 0.89978 0.13726 0.0
H343 H 0.15295 0.84617 0.11408 0.0
H344 H 0.19735 0.87558 0.16865 0.0
H345 H 0.22062 0.89969 0.19013 0.0
H346 H 0.18593 0.91624 0.21202 0.0
H347 H 0.16307 0.89279 0.18936 0.0
C348 C 0.12088 0.82817 0.17919 0.0
C349 C 0.11029 0.83299 0.19012 0.0
C350 C 0.09728 0.82132 0.20429 0.0
C351 C 0.09481 0.8047 0.20808 0.0
C352 C 0.10531 0.79986 0.19672 0.0
C353 C 0.11817 0.81145 0.18239 0.0
C354 C 0.1355 0.84092 0.1655 0.0
C355 C 0.14894 0.85615 0.17581 0.0
C356 C 0.13697 0.83734 0.14301 0.0
C357 C 0.12295 0.82166 0.13125 0.0
C358 C 0.10656 0.81927 0.12956 0.0
C359 C 0.09324 0.80433 0.1188 0.0
C360 C 0.096 0.79136 0.1097 0.0
C361 C 0.11254 0.79392 0.11128 0.0
C362 C 0.12591 0.80898 0.12183 0.0
C363 C 0.18148 0.87531 0.12875 0.0
C364 C 0.18924 0.86769 0.11664 0.0
C365 C 0.20444 0.87816 0.10497 0.0
C366 C 0.21243 0.89656 0.10538 0.0
C367 C 0.20441 0.90414 0.1171 0.0
C368 C 0.18899 0.8936 0.12844 0.0
C369 C 0.16569 0.86398 0.14182 0.0
C370 C 0.15198 0.84891 0.13143 0.0
C371 C 0.16416 0.86762 0.16441 0.0
C372 C 0.1785 0.88251 0.17708 0.0
C373 C 0.19486 0.88463 0.17771 0.0
C374 C 0.20811 0.89831 0.19027 0.0
C375 C 0.20521 0.90997 0.20288 0.0
C376 C 0.18879 0.90777 0.20223 0.0
C377 C 0.17561 0.89422 0.18945 0.0
H378 H 0.28567 0.17241 0.84653 0.0
H379 H 0.28769 0.19729 0.82783 0.0
H380 H 0.34072 0.23019 0.84868 0.0
H381 H 0.33876 0.20524 0.86697 0.0
H382 H 0.3023 0.1559 0.83962 0.0
H383 H 0.29906 0.19075 0.89843 0.0
H384 H 0.30971 0.21849 0.91849 0.0
H385 H 0.35337 0.2165 0.94106 0.0
H386 H 0.34364 0.18987 0.91889 0.0
H387 H 0.33911 0.14523 0.90629 0.0
H388 H 0.34114 0.12115 0.92068 0.0
H389 H 0.28718 0.08503 0.90604 0.0
H390 H 0.28539 0.10909 0.89129 0.0
H391 H 0.3193 0.1589 0.91778 0.0
H392 H 0.32836 0.13248 0.85211 0.0
H393 H 0.32354 0.11017 0.82415 0.0
H394 H 0.27075 0.09644 0.81713 0.0
H395 H 0.27602 0.1194 0.84448 0.0
C396 C 0.31197 0.187 0.85845 0.0
C397 C 0.29774 0.18497 0.84703 0.0
C398 C 0.29891 0.19918 0.83635 0.0
C399 C 0.31432 0.21571 0.83694 0.0
C400 C 0.32858 0.21769 0.84827 0.0
C401 C 0.32747 0.20344 0.85873 0.0
C402 C 0.31074 0.17181 0.86957 0.0
C403 C 0.30569 0.15649 0.85685 0.0
C404 C 0.31555 0.17268 0.89197 0.0
C405 C 0.32079 0.18842 0.90651 0.0
C406 C 0.31107 0.19643 0.90743 0.0
C407 C 0.31706 0.21222 0.91932 0.0
C408 C 0.33262 0.22006 0.93127 0.0
C409 C 0.34167 0.21131 0.93151 0.0
C410 C 0.33595 0.19582 0.91908 0.0
C411 C 0.31216 0.1289 0.89746 0.0
C412 C 0.32771 0.13212 0.90633 0.0
C413 C 0.32883 0.11836 0.91464 0.0
C414 C 0.31436 0.10112 0.91436 0.0
C415 C 0.29867 0.09807 0.90608 0.0
C416 C 0.29759 0.11181 0.8977 0.0
C417 C 0.31126 0.14335 0.88763 0.0
C418 C 0.31572 0.15839 0.90065 0.0
C419 C 0.30611 0.14238 0.86549 0.0
C420 C 0.30254 0.12755 0.85034 0.0
C421 C 0.3157 0.12449 0.84473 0.0
C422 C 0.31286 0.11162 0.82879 0.0
C423 C 0.29674 0.10146 0.81824 0.0
C424 C 0.28341 0.1042 0.82455 0.0
C425 C 0.28634 0.11723 0.8403 0.0
H426 H 0.83377 0.11325 0.83142 0.0
H427 H 0.80995 0.09218 0.80735 0.0
H428 H 0.77659 0.10685 0.83934 0.0
H429 H 0.80036 0.12798 0.86294 0.0
H430 H 0.84922 0.14784 0.8349 0.0
H431 H 0.81864 0.10091 0.88435 0.0
H432 H 0.79195 0.07772 0.90094 0.0
H433 H 0.78444 0.11702 0.93267 0.0
H434 H 0.81097 0.14019 0.91572 0.0
H435 H 0.85093 0.18463 0.91327 0.0
H436 H 0.8705 0.21232 0.93265 0.0
H437 H 0.91389 0.20917 0.90988 0.0
H438 H 0.89411 0.18096 0.89128 0.0
H439 H 0.84337 0.15191 0.91609 0.0
H440 H 0.86874 0.19692 0.86034 0.0
H441 H 0.89181 0.21998 0.83825 0.0
H442 H 0.90783 0.18414 0.81755 0.0
H443 H 0.88495 0.16127 0.84005 0.0
C444 C 0.81878 0.12198 0.84926 0.0
C445 C 0.8213 0.11185 0.83328 0.0
C446 C 0.80771 0.09986 0.81954 0.0
C447 C 0.79139 0.09777 0.82162 0.0
C448 C 0.78892 0.1079 0.83766 0.0
C449 C 0.8025 0.11997 0.85119 0.0
C450 C 0.83329 0.13533 0.86322 0.0
C451 C 0.84813 0.14848 0.85273 0.0
C452 C 0.83179 0.13628 0.88647 0.0
C453 C 0.81669 0.1223 0.89851 0.0
C454 C 0.81128 0.10455 0.89492 0.0
C455 C 0.79604 0.09132 0.90439 0.0
C456 C 0.78607 0.09559 0.91793 0.0
C457 C 0.79193 0.11336 0.92241 0.0
C458 C 0.80709 0.1266 0.91275 0.0
C459 C 0.87106 0.18081 0.90062 0.0
C460 C 0.86464 0.18975 0.91272 0.0
C461 C 0.87587 0.2057 0.92359 0.0
C462 C 0.89377 0.21308 0.92255 0.0
C463 C 0.90016 0.2038 0.91107 0.0
C464 C 0.88889 0.18776 0.90028 0.0
C465 C 0.85897 0.1647 0.88762 0.0
C466 C 0.84464 0.15099 0.89834 0.0
C467 C 0.8609 0.16324 0.86457 0.0
C468 C 0.87527 0.17746 0.85199 0.0
C469 C 0.87738 0.19413 0.85127 0.0
C470 C 0.89047 0.20724 0.83852 0.0
C471 C 0.90164 0.20388 0.82617 0.0
C472 C 0.89959 0.18721 0.82711 0.0
C473 C 0.88646 0.1741 0.83982 0.0
H474 H 0.79202 0.67621 0.85607 0.0
H475 H 0.77087 0.68 0.83689 0.0
H476 H 0.81204 0.72652 0.80654 0.0
H477 H 0.83327 0.72326 0.82668 0.0
H478 H 0.84126 0.6992 0.82681 0.0
H479 H 0.80285 0.67095 0.90639 0.0
H480 H 0.77726 0.66873 0.92308 0.0
H481 H 0.79241 0.7195 0.89788 0.0
H482 H 0.81819 0.72183 0.88152 0.0
H483 H 0.86925 0.70922 0.91599 0.0
H484 H 0.88627 0.70136 0.93811 0.0
H485 H 0.87496 0.65914 0.8916 0.0
H486 H 0.85744 0.66661 0.86988 0.0
H487 H 0.83676 0.69184 0.90793 0.0
H488 H 0.88727 0.71492 0.86073 0.0
H489 H 0.90911 0.71399 0.83774 0.0
H490 H 0.86883 0.67328 0.79641 0.0
H491 H 0.84717 0.67388 0.81975 0.0
C492 C 0.81427 0.6997 0.84329 0.0
C493 C 0.79654 0.68738 0.84556 0.0
C494 C 0.78447 0.6895 0.83454 0.0
C495 C 0.78988 0.70364 0.82044 0.0
C496 C 0.80759 0.71553 0.81737 0.0
C497 C 0.81968 0.71365 0.82882 0.0
C498 C 0.82713 0.69809 0.85608 0.0
C499 C 0.84036 0.69771 0.84458 0.0
C500 C 0.82605 0.69628 0.87932 0.0
C501 C 0.81226 0.69641 0.89238 0.0
C502 C 0.80091 0.68182 0.90496 0.0
C503 C 0.78629 0.68056 0.91448 0.0
C504 C 0.78277 0.69385 0.91153 0.0
C505 C 0.79471 0.70896 0.90013 0.0
C506 C 0.80942 0.7103 0.89081 0.0
C507 C 0.86219 0.68867 0.89108 0.0
C508 C 0.87043 0.69828 0.91051 0.0
C509 C 0.88012 0.69377 0.92316 0.0
C510 C 0.88191 0.67965 0.91654 0.0
C511 C 0.87393 0.67021 0.89693 0.0
C512 C 0.864 0.67454 0.88445 0.0
C513 C 0.85089 0.69277 0.87862 0.0
C514 C 0.83791 0.69363 0.89022 0.0
C515 C 0.85222 0.69501 0.85547 0.0
C516 C 0.86559 0.69439 0.84202 0.0
C517 C 0.88318 0.70567 0.84685 0.0
C518 C 0.89564 0.70523 0.8336 0.0
C519 C 0.8907 0.69353 0.81528 0.0
C520 C 0.87307 0.68225 0.81058 0.0
C521 C 0.86067 0.68269 0.82379 0.0
H522 H 0.81114 0.66195 0.53872 0.0
H523 H 0.78986 0.66329 0.56216 0.0
H524 H 0.74899 0.62332 0.52081 0.0
H525 H 0.77038 0.62201 0.4974 0.0
H526 H 0.81751 0.63738 0.52919 0.0
H527 H 0.80501 0.6732 0.48754 0.0
H528 H 0.78691 0.68205 0.47024 0.0
H529 H 0.76372 0.63478 0.42901 0.0
H530 H 0.78237 0.62633 0.44603 0.0
H531 H 0.82695 0.6219 0.43793 0.0
H532 H 0.84917 0.62353 0.41357 0.0
H533 H 0.88839 0.66302 0.45734 0.0
H534 H 0.8661 0.66248 0.48036 0.0
H535 H 0.81893 0.64519 0.44831 0.0
H536 H 0.84096 0.61533 0.49229 0.0
H537 H 0.8641 0.61477 0.51162 0.0
H538 H 0.8736 0.65979 0.55167 0.0
H539 H 0.85105 0.66062 0.53195 0.0
C540 C 0.79238 0.64198 0.51621 0.0
C541 C 0.79759 0.65337 0.53479 0.0
C542 C 0.78541 0.65408 0.54822 0.0
C543 C 0.76773 0.64339 0.54335 0.0
C544 C 0.76252 0.63187 0.52483 0.0
C545 C 0.77472 0.63111 0.51145 0.0
C546 C 0.80546 0.64155 0.50182 0.0
C547 C 0.81786 0.63912 0.5115 0.0
C548 C 0.80598 0.6439 0.4788 0.0
C549 C 0.79487 0.64904 0.4682 0.0
C550 C 0.79598 0.66473 0.47482 0.0
C551 C 0.78555 0.66972 0.46497 0.0
C552 C 0.77374 0.65906 0.44834 0.0
C553 C 0.7728 0.64339 0.44159 0.0
C554 C 0.78336 0.63849 0.45136 0.0
C555 C 0.84479 0.64178 0.46127 0.0
C556 C 0.84035 0.63099 0.44218 0.0
C557 C 0.85312 0.6318 0.42838 0.0
C558 C 0.87069 0.64327 0.4335 0.0
C559 C 0.87507 0.65416 0.45261 0.0
C560 C 0.86228 0.65362 0.46611 0.0
C561 C 0.83108 0.64097 0.47565 0.0
C562 C 0.81844 0.64309 0.46592 0.0
C563 C 0.83084 0.6391 0.49882 0.0
C564 C 0.84438 0.63809 0.5106 0.0
C565 C 0.84814 0.62511 0.50515 0.0
C566 C 0.86127 0.62475 0.51627 0.0
C567 C 0.8708 0.63735 0.533 0.0
C568 C 0.86678 0.65014 0.53855 0.0
C569 C 0.85374 0.6505 0.52747 0.0
H570 H 0.38563 0.22081 0.5237 0.0
H571 H 0.3774 0.23681 0.54898 0.0
H572 H 0.32951 0.21592 0.5133 0.0
H573 H 0.33716 0.19878 0.48945 0.0
H574 H 0.37108 0.18742 0.52075 0.0
H575 H 0.38048 0.23061 0.46788 0.0
H576 H 0.37158 0.24816 0.44868 0.0
H577 H 0.32966 0.20077 0.41818 0.0
H578 H 0.33803 0.1833 0.4383 0.0
H579 H 0.34277 0.14634 0.44108 0.0
H580 H 0.3397 0.11997 0.42338 0.0
H581 H 0.38747 0.13187 0.45306 0.0
H582 H 0.39093 0.1587 0.4701 0.0
H583 H 0.36354 0.17948 0.43952 0.0
H584 H 0.34634 0.1381 0.49929 0.0
H585 H 0.34738 0.11895 0.52623 0.0
H586 H 0.39947 0.15996 0.54351 0.0
H587 H 0.39798 0.17922 0.51711 0.0
C588 C 0.36213 0.20868 0.50447 0.0
C589 C 0.3734 0.21977 0.52125 0.0
C590 C 0.36872 0.22908 0.5356 0.0
C591 C 0.3527 0.22764 0.53336 0.0
C592 C 0.34179 0.21712 0.51589 0.0
C593 C 0.34632 0.20754 0.50187 0.0
C594 C 0.36603 0.19689 0.49132 0.0
C595 C 0.3699 0.18607 0.50289 0.0
C596 C 0.364 0.19469 0.46807 0.0
C597 C 0.3598 0.20561 0.45479 0.0
C598 C 0.36936 0.22402 0.45708 0.0
C599 C 0.36435 0.23405 0.44592 0.0
C600 C 0.34979 0.22586 0.43204 0.0
C601 C 0.3407 0.20748 0.42909 0.0
C602 C 0.34563 0.19747 0.44038 0.0
C603 C 0.36696 0.15443 0.45723 0.0
C604 C 0.35278 0.1435 0.44349 0.0
C605 C 0.35101 0.12842 0.43338 0.0
C606 C 0.3633 0.12387 0.43699 0.0
C607 C 0.37773 0.13501 0.45024 0.0
C608 C 0.37965 0.15028 0.46005 0.0
C609 C 0.36796 0.1697 0.46913 0.0
C610 C 0.36518 0.18123 0.4573 0.0
C611 C 0.37057 0.17235 0.49221 0.0
C612 C 0.3721 0.16002 0.50623 0.0
C613 C 0.35806 0.14282 0.50866 0.0
C614 C 0.35873 0.13187 0.52402 0.0
C615 C 0.37348 0.13794 0.5372 0.0
C616 C 0.38778 0.15497 0.53399 0.0
C617 C 0.38702 0.16596 0.5188 0.0
H618 H 0.78874 0.17848 0.50747 0.0
H619 H 0.76598 0.15849 0.53248 0.0
H620 H 0.77896 0.11919 0.51822 0.0
H621 H 0.8011 0.13904 0.49244 0.0
H622 H 0.82512 0.18825 0.51302 0.0
H623 H 0.77757 0.15965 0.46064 0.0
H624 H 0.75375 0.13238 0.44437 0.0
H625 H 0.78993 0.11913 0.41852 0.0
H626 H 0.81369 0.14625 0.43515 0.0
H627 H 0.85799 0.18773 0.43058 0.0
H628 H 0.88452 0.20756 0.41085 0.0
H629 H 0.88523 0.25217 0.44141 0.0
H630 H 0.85828 0.23226 0.46039 0.0
H631 H 0.82677 0.18056 0.43176 0.0
H632 H 0.87205 0.20203 0.48176 0.0
H633 H 0.89681 0.22024 0.50554 0.0
H634 H 0.86822 0.23957 0.54057 0.0
H635 H 0.84384 0.22216 0.51566 0.0
C636 C 0.79652 0.16018 0.49814 0.0
C637 C 0.78648 0.16545 0.50957 0.0
C638 C 0.77356 0.15404 0.52398 0.0
C639 C 0.7707 0.13724 0.52762 0.0
C640 C 0.78058 0.13189 0.51566 0.0
C641 C 0.79334 0.14325 0.50101 0.0
C642 C 0.81112 0.17283 0.48439 0.0
C643 C 0.82538 0.18693 0.49517 0.0
C644 C 0.8117 0.17029 0.46132 0.0
C645 C 0.79739 0.15484 0.44945 0.0
C646 C 0.78038 0.15088 0.45147 0.0
C647 C 0.7668 0.13532 0.44216 0.0
C648 C 0.77 0.12358 0.43036 0.0
C649 C 0.7871 0.12798 0.42741 0.0
C650 C 0.80067 0.14347 0.43691 0.0
C651 C 0.85623 0.20849 0.44715 0.0
C652 C 0.86369 0.20178 0.43275 0.0
C653 C 0.87897 0.21314 0.42167 0.0
C654 C 0.8871 0.23145 0.42475 0.0
C655 C 0.87926 0.23815 0.43856 0.0
C656 C 0.86393 0.22678 0.44958 0.0
C657 C 0.84084 0.19637 0.46035 0.0
C658 C 0.82645 0.18228 0.44953 0.0
C659 C 0.84047 0.19841 0.48361 0.0
C660 C 0.8561 0.21086 0.49668 0.0
C661 C 0.87127 0.21061 0.49408 0.0
C662 C 0.88536 0.22083 0.50798 0.0
C663 C 0.88448 0.23124 0.52518 0.0
C664 C 0.86946 0.23187 0.52737 0.0
C665 C 0.85542 0.2218 0.51325 0.0
H666 H 0.96188 0.51161 0.16557 0.0
H667 H 0.95905 0.53368 0.14643 0.0
H668 H 0.00913 0.57429 0.17047 0.0
H669 H 0.01239 0.5522 0.18864 0.0
H670 H 0.98151 0.49989 0.16101 0.0
H671 H 0.97249 0.5304 0.22021 0.0
H672 H 0.97644 0.55392 0.24591 0.0
H673 H 0.02624 0.56366 0.26436 0.0
H674 H 0.02267 0.54073 0.23804 0.0
H675 H 0.0246 0.4991 0.22808 0.0
H676 H 0.02996 0.47946 0.24875 0.0
H677 H 0.97811 0.4365 0.23485 0.0
H678 H 0.97273 0.45629 0.21432 0.0
H679 H 0.00178 0.50803 0.23838 0.0
H680 H 0.01227 0.48199 0.17125 0.0
H681 H 0.00739 0.45827 0.14548 0.0
H682 H 0.95268 0.43817 0.14667 0.0
H683 H 0.9579 0.4625 0.17146 0.0
C684 C 0.98723 0.53022 0.17891 0.0
C685 C 0.97232 0.52524 0.16662 0.0
C686 C 0.97069 0.53782 0.15572 0.0
C687 C 0.98382 0.55563 0.15718 0.0
C688 C 0.99873 0.56064 0.16938 0.0
C689 C 0.00054 0.54803 0.17986 0.0
C690 C 0.98905 0.51675 0.1902 0.0
C691 C 0.98573 0.50165 0.17805 0.0
C692 C 0.99474 0.51899 0.21239 0.0
C693 C 0.99733 0.53383 0.22702 0.0
C694 C 0.98443 0.53785 0.22939 0.0
C695 C 0.98666 0.55123 0.24411 0.0
C696 C 0.00161 0.56049 0.25709 0.0
C697 C 0.01455 0.55659 0.25462 0.0
C698 C 0.01248 0.54348 0.23963 0.0
C699 C 0.9983 0.47917 0.21956 0.0
C700 C 0.01442 0.48542 0.22934 0.0
C701 C 0.01745 0.47421 0.2412 0.0
C702 C 0.00441 0.45648 0.24355 0.0
C703 C 0.98844 0.45007 0.23315 0.0
C704 C 0.98537 0.46135 0.22136 0.0
C705 C 0.99478 0.49169 0.20896 0.0
C706 C 0.99762 0.50647 0.22133 0.0
C707 C 0.98853 0.48914 0.18716 0.0
C708 C 0.98545 0.47398 0.17311 0.0
C709 C 0.99924 0.47237 0.166 0.0
C710 C 0.99638 0.4587 0.15139 0.0
C711 C 0.97962 0.44629 0.14381 0.0
C712 C 0.96579 0.44767 0.15169 0.0
C713 C 0.96871 0.4615 0.16599 0.0
H714 H 0.50645 0.45988 0.15228 0.0
H715 H 0.48769 0.44238 0.12147 0.0
H716 H 0.44983 0.45438 0.14398 0.0
H717 H 0.46869 0.4719 0.17487 0.0
H718 H 0.51994 0.49472 0.1569 0.0
H719 H 0.48454 0.44378 0.2019 0.0
H720 H 0.45814 0.42041 0.21879 0.0
H721 H 0.44814 0.45924 0.24649 0.0
H722 H 0.47475 0.48251 0.22996 0.0
H723 H 0.52422 0.52901 0.23942 0.0
H724 H 0.54777 0.55318 0.26072 0.0
H725 H 0.58104 0.53424 0.2413 0.0
H726 H 0.55763 0.5106 0.21939 0.0
H727 H 0.50775 0.4912 0.23732 0.0
H728 H 0.54067 0.5414 0.19446 0.0
H729 H 0.56611 0.56658 0.17862 0.0
H730 H 0.57896 0.53163 0.14535 0.0
H731 H 0.55349 0.50637 0.16159 0.0
C732 C 0.48899 0.46721 0.16586 0.0
C733 C 0.494 0.45852 0.15078 0.0
C734 C 0.4833 0.44859 0.13315 0.0
C735 C 0.46739 0.44719 0.13017 0.0
C736 C 0.46197 0.45512 0.14594 0.0
C737 C 0.47273 0.46512 0.1636 0.0
C738 C 0.50157 0.47989 0.18234 0.0
C739 C 0.51738 0.49371 0.17452 0.0
C740 C 0.4979 0.47912 0.20521 0.0
C741 C 0.48154 0.46486 0.21458 0.0
C742 C 0.47656 0.44721 0.21146 0.0
C743 C 0.46145 0.43388 0.2211 0.0
C744 C 0.451 0.43794 0.23404 0.0
C745 C 0.456 0.45565 0.23695 0.0
C746 C 0.47115 0.46897 0.22741 0.0
C747 C 0.53931 0.51821 0.22768 0.0
C748 C 0.53651 0.52992 0.24014 0.0
C749 C 0.54999 0.5437 0.25234 0.0
C750 C 0.56639 0.5458 0.25246 0.0
C751 C 0.56872 0.53327 0.24112 0.0
C752 C 0.55533 0.51966 0.22876 0.0
C753 C 0.52616 0.50557 0.21183 0.0
C754 C 0.5103 0.49199 0.2197 0.0
C755 C 0.52959 0.50672 0.18891 0.0
C756 C 0.5453 0.52199 0.1795 0.0
C757 C 0.54913 0.53915 0.18413 0.0
C758 C 0.5637 0.55355 0.17506 0.0
C759 C 0.57462 0.5511 0.16087 0.0
C760 C 0.57074 0.53392 0.15616 0.0
C761 C 0.55621 0.51949 0.16541 0.0
H762 H 0.54923 0.05427 0.15659 0.0
H763 H 0.57204 0.0578 0.13163 0.0
H764 H 0.56577 0.00966 0.15511 0.0
H765 H 0.54235 0.00571 0.17903 0.0
H766 H 0.51626 0.02877 0.15537 0.0
H767 H 0.56185 0.04944 0.21159 0.0
H768 H 0.58371 0.04875 0.23379 0.0
H769 H 0.54637 0.99521 0.25098 0.0
H770 H 0.52471 0.99592 0.22864 0.0
H771 H 0.48048 0.9915 0.23358 0.0
H772 H 0.45539 0.98482 0.25591 0.0
H773 H 0.45904 0.03215 0.23402 0.0
H774 H 0.4841 0.03866 0.21145 0.0
H775 H 0.51242 0.01745 0.23548 0.0
H776 H 0.46783 0.99378 0.18454 0.0
H777 H 0.44354 0.98775 0.16189 0.0
H778 H 0.47505 0.03771 0.13055 0.0
H779 H 0.49915 0.04429 0.15464 0.0
C780 C 0.54418 0.02983 0.16988 0.0
C781 C 0.55284 0.04452 0.15641 0.0
C782 C 0.56599 0.0466 0.14228 0.0
C783 C 0.57077 0.03401 0.14133 0.0
C784 C 0.56229 0.0195 0.15519 0.0
C785 C 0.54905 0.01735 0.16916 0.0
C786 C 0.52933 0.027 0.18354 0.0
C787 C 0.51559 0.02676 0.17302 0.0
C788 C 0.52801 0.02329 0.20627 0.0
C789 C 0.54167 0.02273 0.21847 0.0
C790 C 0.55847 0.0375 0.21993 0.0
C791 C 0.57089 0.03712 0.23271 0.0
C792 C 0.56674 0.02193 0.24415 0.0
C793 C 0.55002 0.00703 0.24219 0.0
C794 C 0.5376 0.00747 0.22957 0.0
C795 C 0.48415 0.01556 0.22083 0.0
C796 C 0.47593 0.00048 0.23366 0.0
C797 C 0.46161 0.99671 0.24646 0.0
C798 C 0.45526 0.008 0.24682 0.0
C799 C 0.46349 0.02309 0.2339 0.0
C800 C 0.47783 0.02685 0.22105 0.0
C801 C 0.49944 0.01947 0.2074 0.0
C802 C 0.51321 0.01985 0.21792 0.0
C803 C 0.50045 0.0226 0.18449 0.0
C804 C 0.48534 0.01962 0.17162 0.0
C805 C 0.46944 0.00373 0.17335 0.0
C806 C 0.45558 0.00016 0.16004 0.0
C807 C 0.45737 0.01213 0.14412 0.0
C808 C 0.47316 0.02825 0.14274 0.0
C809 C 0.487 0.03195 0.15636 0.0
H810 H 0.47003 0.9865 0.87174 0.0
H811 H 0.44618 0.98369 0.89382 0.0
H812 H 0.41021 0.94881 0.84366 0.0
H813 H 0.43411 0.95105 0.8221 0.0
H814 H 0.47905 0.96476 0.859 0.0
H815 H 0.4662 0.00228 0.8233 0.0
H816 H 0.4489 0.01218 0.80605 0.0
H817 H 0.43434 0.97268 0.75411 0.0
H818 H 0.45142 0.96254 0.7718 0.0
H819 H 0.49649 0.95861 0.76831 0.0
H820 H 0.52118 0.96508 0.74503 0.0
H821 H 0.55544 0.00419 0.79315 0.0
H822 H 0.53072 0.99786 0.81622 0.0
H823 H 0.48615 0.98083 0.78024 0.0
H824 H 0.50643 0.94794 0.82121 0.0
H825 H 0.52812 0.94579 0.84201 0.0
H826 H 0.53376 0.98673 0.88726 0.0
H827 H 0.51246 0.989 0.86637 0.0
C828 C 0.45388 0.96909 0.8452 0.0
C829 C 0.457 0.97813 0.86558 0.0
C830 C 0.44335 0.97666 0.87807 0.0
C831 C 0.42629 0.96613 0.87042 0.0
C832 C 0.42318 0.95692 0.8501 0.0
C833 C 0.43684 0.95833 0.83766 0.0
C834 C 0.4685 0.97103 0.8318 0.0
C835 C 0.48062 0.96831 0.84178 0.0
C836 C 0.47066 0.97582 0.80941 0.0
C837 C 0.45992 0.98154 0.79896 0.0
C838 C 0.45914 0.99563 0.80832 0.0
C839 C 0.44939 0.00138 0.79833 0.0
C840 C 0.44029 0.99323 0.7787 0.0
C841 C 0.44107 0.9791 0.76935 0.0
C842 C 0.45089 0.97337 0.77934 0.0
C843 C 0.51176 0.97755 0.79415 0.0
C844 C 0.50933 0.96851 0.77389 0.0
C845 C 0.52343 0.97226 0.76058 0.0
C846 C 0.54022 0.98513 0.76729 0.0
C847 C 0.54266 0.99403 0.78771 0.0
C848 C 0.52855 0.99038 0.80093 0.0
C849 C 0.49665 0.9744 0.80738 0.0
C850 C 0.48438 0.9769 0.79732 0.0
C851 C 0.49485 0.97026 0.83001 0.0
C852 C 0.5079 0.96868 0.8422 0.0
C853 C 0.51245 0.9565 0.83554 0.0
C854 C 0.52473 0.95521 0.84748 0.0
C855 C 0.53271 0.96618 0.86617 0.0
C856 C 0.52806 0.9783 0.87275 0.0
C857 C 0.51577 0.9795 0.86093 0.0
H858 H 0.04347 0.55045 0.85821 0.0
H859 H 0.04333 0.57369 0.88061 0.0
H860 H 0.99149 0.55477 0.85886 0.0
H861 H 0.99132 0.53119 0.83741 0.0
H862 H 0.02562 0.51648 0.86 0.0
H863 H 0.03274 0.55649 0.80374 0.0
H864 H 0.0255 0.57564 0.78512 0.0
H865 H 0.97501 0.53073 0.76957 0.0
H866 H 0.98214 0.51176 0.78871 0.0
H867 H 0.98326 0.4705 0.7894 0.0
H868 H 0.97687 0.44387 0.76906 0.0
H869 H 0.02768 0.45463 0.78447 0.0
H870 H 0.03436 0.4819 0.80363 0.0
H871 H 0.00532 0.50329 0.78231 0.0
H872 H 0.99554 0.4655 0.8446 0.0
H873 H 0.00013 0.44665 0.86808 0.0
H874 H 0.05455 0.48628 0.87124 0.0
H875 H 0.04961 0.5053 0.84852 0.0
C876 C 0.01756 0.53927 0.84567 0.0
C877 C 0.03206 0.55128 0.8583 0.0
C878 C 0.03199 0.56454 0.87106 0.0
C879 C 0.01748 0.56612 0.87118 0.0
C880 C 0.00296 0.55405 0.85869 0.0
C881 C 0.00291 0.54062 0.84633 0.0
C882 C 0.0174 0.52493 0.8324 0.0
C883 C 0.02153 0.51384 0.84286 0.0
C884 C 0.01183 0.52123 0.81012 0.0
C885 C 0.00793 0.53274 0.79776 0.0
C886 C 0.02012 0.5508 0.79632 0.0
C887 C 0.01601 0.56169 0.78555 0.0
C888 C -0.00035 0.55469 0.776 0.0
C889 C 0.98763 0.53654 0.77705 0.0
C890 C 0.99174 0.52566 0.78779 0.0
C891 C 0.00924 0.47816 0.79826 0.0
C892 C 0.99308 0.4672 0.78829 0.0
C893 C 0.98937 0.45183 0.77685 0.0
C894 C 0.0017 0.44697 0.77523 0.0
C895 C 0.01792 0.45802 0.78518 0.0
C896 C 0.02169 0.47352 0.79644 0.0
C897 C 0.01296 0.49456 0.81015 0.0
C898 C 0.00967 0.50611 0.79934 0.0
C899 C 0.01923 0.49866 0.83209 0.0
C900 C 0.02225 0.48674 0.84487 0.0
C901 C 0.00847 0.47001 0.85024 0.0
C902 C 0.01116 0.45922 0.86355 0.0
C903 C 0.02774 0.46493 0.87162 0.0
C904 C 0.04158 0.48157 0.86568 0.0
C905 C 0.03882 0.49243 0.85259 0.0
H906 H 0.44883 0.49842 0.83445 0.0
H907 H 0.42411 0.47501 0.8537 0.0
H908 H 0.43481 0.43707 0.82456 0.0
H909 H 0.46016 0.46079 0.80637 0.0
H910 H 0.48149 0.50873 0.84093 0.0
H911 H 0.44188 0.48323 0.77923 0.0
H912 H 0.42236 0.45865 0.75454 0.0
H913 H 0.46492 0.45425 0.73156 0.0
H914 H 0.48427 0.47827 0.75686 0.0
H915 H 0.52755 0.52074 0.76771 0.0
H916 H 0.55531 0.54454 0.75418 0.0
H917 H 0.54532 0.58264 0.78435 0.0
H918 H 0.51766 0.55884 0.79785 0.0
H919 H 0.49511 0.51096 0.76108 0.0
H920 H 0.5316 0.52742 0.82322 0.0
H921 H 0.5522 0.54528 0.85239 0.0
H922 H 0.51851 0.56274 0.87524 0.0
H923 H 0.4979 0.54487 0.84583 0.0
C924 C 0.4563 0.48138 0.81883 0.0
C925 C 0.44579 0.48504 0.83211 0.0
C926 C 0.43152 0.47157 0.84293 0.0
C927 C 0.42739 0.45409 0.84067 0.0
C928 C 0.4377 0.45039 0.82689 0.0
C929 C 0.4521 0.46392 0.81624 0.0
C930 C 0.47227 0.49603 0.80902 0.0
C931 C 0.48425 0.5094 0.82337 0.0
C932 C 0.4763 0.49644 0.78626 0.0
C933 C 0.46452 0.48244 0.77023 0.0
C934 C 0.447 0.4769 0.76903 0.0
C935 C 0.43588 0.46293 0.75488 0.0
C936 C 0.44218 0.45459 0.74124 0.0
C937 C 0.45979 0.46056 0.74181 0.0
C938 C 0.47084 0.47429 0.75625 0.0
C939 C 0.52062 0.53801 0.784 0.0
C940 C 0.5313 0.53423 0.77126 0.0
C941 C 0.54714 0.54784 0.76351 0.0
C942 C 0.55257 0.56547 0.76835 0.0
C943 C 0.54167 0.5692 0.78072 0.0
C944 C 0.52584 0.55561 0.7884 0.0
C945 C 0.50414 0.52358 0.79301 0.0
C946 C 0.49213 0.51036 0.77856 0.0
C947 C 0.50026 0.5229 0.81576 0.0
C948 C 0.51327 0.5349 0.8323 0.0
C949 C 0.52876 0.53531 0.83427 0.0
C950 C 0.54045 0.5454 0.85103 0.0
C951 C 0.53688 0.5553 0.86612 0.0
C952 C 0.52161 0.55532 0.86373 0.0
C953 C 0.50982 0.54507 0.84705 0.0
H954 H 0.61303 0.83643 0.49989 0.0
H955 H 0.61147 0.85909 0.48033 0.0
H956 H 0.66083 0.89871 0.50739 0.0
H957 H 0.66285 0.87599 0.52603 0.0
H958 H 0.63396 0.82543 0.49555 0.0
H959 H 0.62293 0.85558 0.55624 0.0
H960 H 0.62923 0.8805 0.58097 0.0
H961 H 0.67734 0.88596 0.5994 0.0
H962 H 0.67129 0.86151 0.57435 0.0
H963 H 0.66906 0.81707 0.56746 0.0
H964 H 0.67172 0.79377 0.5831 0.0
H965 H 0.6195 0.75552 0.56269 0.0
H966 H 0.61723 0.77883 0.54646 0.0
H967 H 0.6471 0.82863 0.5753 0.0
H968 H 0.66313 0.80511 0.51656 0.0
H969 H 0.66319 0.78361 0.49103 0.0
H970 H 0.61298 0.76929 0.46703 0.0
H971 H 0.61269 0.79042 0.49343 0.0
C972 C 0.63791 0.85448 0.51482 0.0
C973 C 0.62357 0.84998 0.50158 0.0
C974 C 0.62266 0.8629 0.49043 0.0
C975 C 0.63597 0.8806 0.49254 0.0
C976 C 0.6503 0.88515 0.50577 0.0
C977 C 0.65139 0.87219 0.51653 0.0
C978 C 0.63897 0.8405 0.52597 0.0
C979 C 0.63645 0.826 0.51311 0.0
C980 C 0.64315 0.8416 0.54867 0.0
C981 C 0.64669 0.85673 0.56333 0.0
C982 C 0.63492 0.86229 0.5654 0.0
C983 C 0.63851 0.87648 0.57952 0.0
C984 C 0.65373 0.88505 0.59212 0.0
C985 C 0.66542 0.87944 0.59006 0.0
C986 C 0.66197 0.86547 0.57576 0.0
C987 C 0.64302 0.79964 0.55561 0.0
C988 C 0.65817 0.80366 0.56651 0.0
C989 C 0.65963 0.79032 0.57553 0.0
C990 C 0.64586 0.7727 0.57405 0.0
C991 C 0.6305 0.76885 0.56371 0.0
C992 C 0.62913 0.78217 0.55453 0.0
C993 C 0.64184 0.81366 0.54493 0.0
C994 C 0.64432 0.82804 0.55783 0.0
C995 C 0.63821 0.8128 0.52217 0.0
C996 C 0.63781 0.79922 0.50712 0.0
C997 C 0.65198 0.79712 0.50612 0.0
C998 C 0.65209 0.78497 0.4913 0.0
C999 C 0.63813 0.77482 0.47689 0.0
C1000 C 0.62385 0.77679 0.47805 0.0
C1001 C 0.62372 0.78894 0.493 0.0
H1002 H 0.1625 0.78109 0.51285 0.0
H1003 H 0.13996 0.75706 0.49067 0.0
H1004 H 0.10369 0.77115 0.51385 0.0
H1005 H 0.12667 0.7959 0.53505 0.0
H1006 H 0.17553 0.81425 0.50685 0.0
H1007 H 0.14578 0.77556 0.56659 0.0
H1008 H 0.1221 0.75709 0.59165 0.0
H1009 H 0.11846 0.80178 0.61115 0.0
H1010 H 0.14176 0.82009 0.5857 0.0
H1011 H 0.18647 0.86367 0.57747 0.0
H1012 H 0.21009 0.89082 0.5942 0.0
H1013 H 0.24589 0.87526 0.57431 0.0
H1014 H 0.22224 0.8482 0.55753 0.0
H1015 H 0.17363 0.82979 0.58563 0.0
H1016 H 0.19917 0.86682 0.52319 0.0
H1017 H 0.22086 0.88554 0.49626 0.0
H1018 H 0.23197 0.84485 0.4825 0.0
H1019 H 0.20995 0.82607 0.50914 0.0
C1020 C 0.14631 0.79029 0.52571 0.0
C1021 C 0.14966 0.77894 0.51329 0.0
C1022 C 0.13666 0.76505 0.50076 0.0
C1023 C 0.11993 0.76208 0.50045 0.0
C1024 C 0.11646 0.77315 0.51348 0.0
C1025 C 0.12955 0.78719 0.52586 0.0
C1026 C 0.16072 0.80614 0.53692 0.0
C1027 C 0.1752 0.81743 0.52421 0.0
C1028 C 0.16008 0.81067 0.55937 0.0
C1029 C 0.14546 0.7992 0.57407 0.0
C1030 C 0.1397 0.78133 0.57597 0.0
C1031 C 0.12623 0.7708 0.59033 0.0
C1032 C 0.11853 0.77806 0.60336 0.0
C1033 C 0.12432 0.79592 0.60148 0.0
C1034 C 0.1376 0.80637 0.58693 0.0
C1035 C 0.20262 0.85401 0.56604 0.0
C1036 C 0.1994 0.86609 0.57681 0.0
C1037 C 0.2129 0.88157 0.58642 0.0
C1038 C 0.22988 0.88523 0.58551 0.0
C1039 C 0.23301 0.87297 0.57497 0.0
C1040 C 0.21951 0.85749 0.56539 0.0
C1041 C 0.18829 0.83774 0.55553 0.0
C1042 C 0.1739 0.82644 0.56833 0.0
C1043 C 0.18888 0.83321 0.53314 0.0
C1044 C 0.20301 0.84509 0.5182 0.0
C1045 C 0.20646 0.86205 0.51459 0.0
C1046 C 0.21891 0.87275 0.49922 0.0
C1047 C 0.22814 0.86668 0.48715 0.0
C1048 C 0.22492 0.84983 0.49124 0.0
C1049 C 0.21241 0.83911 0.50653 0.0
H1050 H 0.15767 0.34641 0.48938 0.0
H1051 H 0.13676 0.34748 0.46611 0.0
H1052 H 0.1427 0.39141 0.50548 0.0
H1053 H 0.16425 0.39071 0.52825 0.0
H1054 H 0.1904 0.36931 0.49535 0.0
H1055 H 0.14042 0.34214 0.54149 0.0
H1056 H 0.11619 0.33838 0.56366 0.0
H1057 H 0.15126 0.38356 0.60433 0.0
H1058 H 0.17548 0.38726 0.58204 0.0
H1059 H 0.21949 0.38341 0.58442 0.0
H1060 H 0.23631 0.37611 0.60787 0.0
H1061 H 0.22361 0.33158 0.56472 0.0
H1062 H 0.20676 0.33886 0.54146 0.0
H1063 H 0.18602 0.36432 0.57675 0.0
H1064 H 0.23684 0.38766 0.5306 0.0
H1065 H 0.25943 0.38818 0.5076 0.0
H1066 H 0.2204 0.34598 0.46658 0.0
H1067 H 0.19799 0.34547 0.48951 0.0
C1068 C 0.1625 0.36843 0.51062 0.0
C1069 C 0.15452 0.35631 0.49299 0.0
C1070 C 0.1424 0.35682 0.47983 0.0
C1071 C 0.13795 0.36946 0.48401 0.0
C1072 C 0.14593 0.38159 0.50173 0.0
C1073 C 0.15813 0.38111 0.51488 0.0
C1074 C 0.17564 0.36787 0.5241 0.0
C1075 C 0.18939 0.36809 0.51316 0.0
C1076 C 0.17456 0.36675 0.54737 0.0
C1077 C 0.15974 0.36511 0.55995 0.0
C1078 C 0.14286 0.35143 0.55493 0.0
C1079 C 0.12902 0.34929 0.56763 0.0
C1080 C 0.13181 0.36068 0.58575 0.0
C1081 C 0.14872 0.37446 0.59062 0.0
C1082 C 0.16255 0.37663 0.57786 0.0
C1083 C 0.21204 0.36183 0.56101 0.0
C1084 C 0.22045 0.37216 0.57992 0.0
C1085 C 0.22998 0.36792 0.59337 0.0
C1086 C 0.23126 0.35326 0.58816 0.0
C1087 C 0.22307 0.34311 0.569 0.0
C1088 C 0.21347 0.3473 0.55564 0.0
C1089 C 0.20063 0.36537 0.54793 0.0
C1090 C 0.18722 0.3658 0.55898 0.0
C1091 C 0.20183 0.36671 0.52468 0.0
C1092 C 0.2157 0.36654 0.51177 0.0
C1093 C 0.23317 0.37839 0.51681 0.0
C1094 C 0.24606 0.37869 0.50366 0.0
C1095 C 0.24168 0.36726 0.48514 0.0
C1096 C 0.22419 0.3552 0.48046 0.0
C1097 C 0.21136 0.35486 0.4936 0.0
H1098 H 0.00147 0.383 0.0747 0.0
H1099 H 0.96167 0.37442 0.02852 0.0
H1100 H 0.95394 0.39161 0.05309 0.0
H1101 H 0.97771 0.3814 0.12558 0.0
H1102 H 0.99691 0.39847 0.13936 0.0
H1103 H 0.99828 0.38405 0.11917 0.0
H1104 H 0.02088 0.41107 0.09731 0.0
H1105 H 0.01949 0.42554 0.11731 0.0
H1106 H 0.01566 0.42677 0.0885 0.0
H1107 H 0.95243 0.41203 0.0804 0.0
H1108 H 0.95654 0.43365 0.10946 0.0
H1109 H 0.99643 0.42818 0.13915 0.0
C1110 C 0.99092 0.38447 0.06996 0.0
C1111 C 0.98216 0.37734 0.04968 0.0
C1112 C 0.96856 0.37973 0.04396 0.0
C1113 C 0.96404 0.38945 0.05783 0.0
C1114 C 0.97315 0.39661 0.07745 0.0
C1115 C 0.9862 0.39413 0.08365 0.0
C1116 C 0.99449 0.40401 0.1051 0.0
C1117 C 0.99167 0.39122 0.12339 0.0
C1118 C 0.01377 0.41765 0.10185 0.0
C1119 C 0.98436 0.41279 0.10962 0.0
C1120 C 0.97206 0.40824 0.09353 0.0
C1121 C 0.96177 0.41542 0.09338 0.0
C1122 C 0.96415 0.42765 0.1101 0.0
C1123 C 0.97668 0.43255 0.12688 0.0
C1124 C 0.98678 0.42482 0.12662 0.0
H1125 H 0.62746 0.60762 0.05813 0.0
H1126 H 0.65342 0.65291 0.10298 0.0
H1127 H 0.63971 0.63349 0.13466 0.0
H1128 H 0.58831 0.5871 0.08506 0.0
H1129 H 0.58344 0.565 0.08007 0.0
H1130 H 0.59717 0.58199 0.0613 0.0
H1131 H 0.62119 0.57527 0.06686 0.0
H1132 H 0.60748 0.55816 0.08562 0.0
H1133 H 0.62862 0.57558 0.09437 0.0
H1134 H 0.62063 0.60958 0.16101 0.0
H1135 H 0.59794 0.58317 0.17984 0.0
H1136 H 0.58432 0.55381 0.11749 0.0
C1137 C 0.63062 0.61345 0.07462 0.0
C1138 C 0.64159 0.6318 0.07806 0.0
C1139 C 0.64513 0.63888 0.09993 0.0
C1140 C 0.63743 0.62795 0.11803 0.0
C1141 C 0.62631 0.60996 0.11399 0.0
C1142 C 0.62302 0.60276 0.09281 0.0
C1143 C 0.60952 0.5833 0.09271 0.0
C1144 C 0.59368 0.57911 0.07898 0.0
C1145 C 0.61716 0.57244 0.0844 0.0
C1146 C 0.60533 0.58076 0.11707 0.0
C1147 C 0.61528 0.59623 0.12913 0.0
C1148 C 0.61293 0.59735 0.15177 0.0
C1149 C 0.59995 0.58232 0.16229 0.0
C1150 C 0.58942 0.56642 0.15014 0.0
C1151 C 0.59239 0.56565 0.12731 0.0
H1152 H 0.39523 0.02448 0.06356 0.0
H1153 H 0.37164 0.96889 0.04681 0.0
H1154 H 0.39116 0.96711 0.07225 0.0
H1155 H 0.43875 0.03408 0.06829 0.0
H1156 H 0.44436 0.04906 0.09166 0.0
H1157 H 0.42837 0.04638 0.0722 0.0
H1158 H 0.40638 0.03844 0.104 0.0
H1159 H 0.42233 0.04114 0.12356 0.0
H1160 H 0.40178 0.02075 0.12189 0.0
H1161 H 0.41318 0.97083 0.09804 0.0
H1162 H 0.43669 0.97991 0.12442 0.0
H1163 H 0.44631 0.03291 0.12669 0.0
C1164 C 0.39418 0.01196 0.06533 0.0
C1165 C 0.38186 0.99685 0.05309 0.0
C1166 C 0.38091 0.9807 0.0559 0.0
C1167 C 0.39197 0.9795 0.07035 0.0
C1168 C 0.40395 0.99453 0.08205 0.0
C1169 C 0.40518 0.01047 0.07989 0.0
C1170 C 0.4194 0.0245 0.09466 0.0
C1171 C 0.43356 0.03938 0.08087 0.0
C1172 C 0.41203 0.03162 0.11206 0.0
C1173 C 0.42591 0.01388 0.10523 0.0
C1174 C 0.41674 0.99664 0.0976 0.0
C1175 C 0.42035 0.98424 0.1044 0.0
C1176 C 0.43368 0.98953 0.11957 0.0
C1177 C 0.44322 0.00706 0.12803 0.0
C1178 C 0.43929 0.01942 0.12059 0.0
H1179 H 0.38198 0.00058 0.95429 0.0
H1180 H 0.33757 0.94726 0.95546 0.0
H1181 H 0.35135 0.93808 0.9273 0.0
H1182 H 0.39076 0.00096 0.89522 0.0
H1183 H 0.41377 0.01384 0.89917 0.0
H1184 H 0.39986 0.01633 0.91829 0.0
H1185 H 0.41344 0.00952 0.95074 0.0
H1186 H 0.42732 0.00691 0.93174 0.0
H1187 H 0.41346 0.9894 0.94994 0.0
H1188 H 0.37087 0.93444 0.9007 0.0
H1189 H 0.39443 0.93669 0.87755 0.0
H1190 H 0.42558 0.99256 0.89347 0.0
C1191 C 0.37503 0.987 0.94848 0.0
C1192 C 0.35868 0.97463 0.95707 0.0
C1193 C 0.35009 0.95698 0.94908 0.0
C1194 C 0.3578 0.95164 0.93308 0.0
C1195 C 0.37404 0.96415 0.92519 0.0
C1196 C 0.3825 0.98148 0.93255 0.0
C1197 C 0.4001 0.99222 0.92207 0.0
C1198 C 0.40118 0.00669 0.90784 0.0
C1199 C 0.41442 -4e-05 0.93967 0.0
C1200 C 0.40037 0.97815 0.90797 0.0
C1201 C 0.3852 0.96207 0.90986 0.0
C1202 C 0.38273 0.94701 0.89889 0.0
C1203 C 0.39615 0.94844 0.88571 0.0
C1204 C 0.41186 0.9648 0.88367 0.0
C1205 C 0.41382 0.97982 0.89484 0.0
H1206 H 0.00348 0.37614 0.92953 0.0
H1207 H 0.03957 0.40839 0.98154 0.0
H1208 H 0.04901 0.43484 0.95988 0.0
H1209 H 0.03067 0.40227 0.88255 0.0
H1210 H 0.01234 0.39905 0.86742 0.0
H1211 H 0.0099 0.38243 0.8858 0.0
H1212 H 0.98564 0.38384 0.9066 0.0
H1213 H 0.98808 0.40052 0.88844 0.0
H1214 H 0.98992 0.40462 0.91789 0.0
H1215 H 0.05211 0.45795 0.93481 0.0
H1216 H 0.04917 0.4761 0.90768 0.0
H1217 H 0.01185 0.42885 0.87115 0.0
C1218 C 0.01363 0.38871 0.93617 0.0
C1219 C 0.02081 0.39018 0.95722 0.0
C1220 C 0.0339 0.40692 0.96543 0.0
C1221 C 0.03939 0.42203 0.95324 0.0
C1222 C 0.03175 0.42016 0.93279 0.0
C1223 C 0.01927 0.40392 0.9242 0.0
C1224 C 0.01233 0.40566 0.90251 0.0
C1225 C 0.01657 0.39683 0.88344 0.0
C1226 C 0.99284 0.39822 0.90396 0.0
C1227 C 0.02247 0.42544 0.90062 0.0
C1228 C 0.03371 0.43355 0.91814 0.0
C1229 C 0.04363 0.45176 0.92076 0.0
C1230 C 0.04192 0.46197 0.90515 0.0
C1231 C 0.03038 0.45396 0.88709 0.0
C1232 C 0.02074 0.43543 0.88475 0.0
H1233 H 0.59667 0.63664 0.94795 0.0
H1234 H 0.60958 0.60219 0.9797 0.0
H1235 H 0.58981 0.57785 0.95469 0.0
H1236 H 0.55109 0.60335 0.93855 0.0
H1237 H 0.55053 0.61168 0.91206 0.0
H1238 H 0.56516 0.62639 0.93315 0.0
H1239 H 0.59077 0.63633 0.90615 0.0
H1240 H 0.57624 0.6216 0.88503 0.0
H1241 H 0.59429 0.62009 0.89324 0.0
H1242 H 0.57016 0.5577 0.92528 0.0
H1243 H 0.55051 0.5424 0.89381 0.0
H1244 H 0.54964 0.58933 0.88104 0.0
C1245 C 0.59518 0.62393 0.9498 0.0
C1246 C 0.60471 0.62137 0.96582 0.0
C1247 C 0.60246 0.60454 0.96759 0.0
C1248 C 0.59124 0.59058 0.95346 0.0
C1249 C 0.58226 0.5936 0.93768 0.0
C1250 C 0.58396 0.60978 0.93582 0.0
C1251 C 0.573 0.60947 0.91703 0.0
C1252 C 0.55912 0.61292 0.92572 0.0
C1253 C 0.58425 0.62266 0.89932 0.0
C1254 C 0.56508 0.59067 0.90853 0.0
C1255 C 0.57064 0.58179 0.92071 0.0
C1256 C 0.56562 0.56446 0.91568 0.0
C1257 C 0.55456 0.55592 0.89771 0.0
C1258 C 0.54861 0.5647 0.88502 0.0
C1259 C 0.55388 0.58227 0.89061 0.0
H1260 H 0.01625 0.61435 0.98303 0.0
H1261 H 0.99824 0.64167 0.9445 0.0
H1262 H 0.0026 0.6289 0.91027 0.0
H1263 H 0.04895 0.61799 0.94282 0.0
H1264 H 0.04454 0.59637 0.9486 0.0
H1265 H 0.04178 0.60915 0.96993 0.0
H1266 H 0.01023 0.58365 0.97548 0.0
H1267 H 0.01285 0.57083 0.95414 0.0
H1268 H 0.99575 0.57516 0.95217 0.0
H1269 H 0.00572 0.61066 0.88069 0.0
H1270 H 0.00854 0.58902 0.85768 0.0
H1271 H 0.02514 0.57404 0.91512 0.0
C1272 C 0.01355 0.61794 0.96738 0.0
C1273 C 0.00692 0.62905 0.96648 0.0
C1274 C 0.00337 0.63324 0.94564 0.0
C1275 C 0.00583 0.62607 0.92608 0.0
C1276 C 0.012 0.61485 0.92759 0.0
C1277 C 0.01598 0.61094 0.94768 0.0
C1278 C 0.02147 0.59771 0.94481 0.0
C1279 C 0.0403 0.60579 0.95196 0.0
C1280 C 0.00935 0.58084 0.95739 0.0
C1281 C 0.01947 0.59442 0.92005 0.0
C1282 C 0.01409 0.60452 0.91042 0.0
C1283 C 0.01021 0.6029 0.88798 0.0
C1284 C 0.01176 0.59055 0.87508 0.0
C1285 C 0.0172 0.58004 0.88464 0.0
C1286 C 0.02131 0.5822 0.90734 0.0
H1287 H 0.38679 0.37604 0.92526 0.0
H1288 H 0.34592 0.38637 0.93688 0.0
H1289 H 0.35703 0.40733 0.90632 0.0
H1290 H 0.41896 0.41952 0.91698 0.0
H1291 H 0.43032 0.41472 0.89615 0.0
H1292 H 0.41768 0.39873 0.91655 0.0
H1293 H 0.40027 0.37566 0.88552 0.0
H1294 H 0.41289 0.39162 0.86497 0.0
H1295 H 0.38973 0.3807 0.8647 0.0
H1296 H 0.37391 0.42871 0.87629 0.0
H1297 H 0.39594 0.4499 0.8508 0.0
H1298 H 0.42666 0.4267 0.86094 0.0
C1299 C 0.3799 0.38235 0.92101 0.0
C1300 C 0.36536 0.37943 0.93322 0.0
C1301 C 0.35701 0.38835 0.9276 0.0
C1302 C 0.36319 0.40022 0.91024 0.0
C1303 C 0.37777 0.40305 0.89879 0.0
C1304 C 0.38604 0.39441 0.90401 0.0
C1305 C 0.40242 0.40104 0.89077 0.0
C1306 C 0.41828 0.40898 0.90602 0.0
C1307 C 0.40125 0.38638 0.87559 0.0
C1308 C 0.40229 0.41503 0.87758 0.0
C1309 C 0.38783 0.4158 0.88214 0.0
C1310 C 0.38524 0.42817 0.87254 0.0
C1311 C 0.39791 0.44025 0.8582 0.0
C1312 C 0.41311 0.44005 0.85384 0.0
C1313 C 0.41509 0.42704 0.86348 0.0
H1314 H 0.61466 0.00474 0.94363 0.0
H1315 H 0.59809 0.95128 0.96018 0.0
H1316 H 0.57459 0.94006 0.93263 0.0
H1317 H 0.57348 0.99796 0.93852 0.0
H1318 H 0.57902 0.01264 0.91591 0.0
H1319 H 0.59529 0.01622 0.9354 0.0
H1320 H 0.61405 0.01538 0.9034 0.0
H1321 H 0.59781 0.01181 0.88378 0.0
H1322 H 0.60506 0.99662 0.88462 0.0
H1323 H 0.55177 0.93495 0.90457 0.0
H1324 H 0.53129 0.93646 0.87978 0.0
H1325 H 0.56333 0.99336 0.88217 0.0
C1326 C 0.60625 0.99065 0.94133 0.0
C1327 C 0.60825 0.97888 0.95402 0.0
C1328 C 0.59683 0.96054 0.95059 0.0
C1329 C 0.58348 0.95406 0.93495 0.0
C1330 C 0.5818 0.9661 0.92286 0.0
C1331 C 0.59292 0.98401 0.92591 0.0
C1332 C 0.58791 0.99428 0.91185 0.0
C1333 C 0.58367 0.00595 0.92629 0.0
C1334 C 0.60205 0.00516 0.89491 0.0
C1335 C 0.57198 0.97937 0.90072 0.0
C1336 C 0.56873 0.96319 0.90702 0.0
C1337 C 0.5543 0.94755 0.89938 0.0
C1338 C 0.54279 0.94852 0.88524 0.0
C1339 C 0.54572 0.96502 0.87911 0.0
C1340 C 0.56069 0.98056 0.8867 0.0
H1341 H 0.61084 0.99857 0.05191 0.0
H1342 H 0.65279 0.05245 0.04317 0.0
H1343 H 0.63976 0.06249 0.07142 0.0
H1344 H 0.57741 0.008 0.05878 0.0
H1345 H 0.56596 0.99135 0.07902 0.0
H1346 H 0.57876 0.98862 0.05828 0.0
H1347 H 0.59588 0.98473 0.08896 0.0
H1348 H 0.5832 0.98755 0.10979 0.0
H1349 H 0.60635 0.00152 0.1103 0.0
H1350 H 0.6221 0.06639 0.10131 0.0
H1351 H 0.60093 0.06397 0.12916 0.0
H1352 H 0.57034 0.00755 0.11677 0.0
C1353 C 0.61734 0.0125 0.05589 0.0
C1354 C 0.63287 0.02473 0.04537 0.0
C1355 C 0.64087 0.04284 0.051 0.0
C1356 C 0.63358 0.04866 0.06706 0.0
C1357 C 0.61829 0.0362 0.07719 0.0
C1358 C 0.61023 0.01851 0.07171 0.0
C1359 C 0.5938 0.00776 0.08471 0.0
C1360 C 0.57806 0.99839 0.06927 0.0
C1361 C 0.59488 0.99462 0.09931 0.0
C1362 C 0.59385 0.02214 0.09848 0.0
C1363 C 0.60808 0.03846 0.094 0.0
C1364 C 0.61086 0.05369 0.10485 0.0
C1365 C 0.59872 0.05218 0.12056 0.0
C1366 C 0.58394 0.03557 0.12522 0.0
C1367 C 0.5816 0.02042 0.11395 0.0
H1368 H 0.97372 0.60311 0.05437 0.0
H1369 H 0.98095 0.64467 0.10027 0.0
H1370 H 0.98201 0.62804 0.13123 0.0
H1371 H 0.9465 0.56657 0.09095 0.0
H1372 H 0.95581 0.55405 0.08169 0.0
H1373 H 0.95469 0.5688 0.0632 0.0
H1374 H 0.98764 0.58471 0.05683 0.0
H1375 H 0.98888 0.57009 0.07537 0.0
H1376 H 0.00199 0.59351 0.08024 0.0
H1377 H 0.98486 0.60826 0.15679 0.0
H1378 H 0.98717 0.58542 0.17556 0.0
H1379 H 0.97681 0.55609 0.11355 0.0
C1380 C 0.9753 0.60861 0.07096 0.0
C1381 C 0.97726 0.62521 0.07487 0.0
C1382 C 0.97936 0.63196 0.09683 0.0
C1383 C 0.98001 0.62263 0.11455 0.0
C1384 C 0.97833 0.60646 0.11009 0.0
C1385 C 0.97581 0.59938 0.08889 0.0
C1386 C 0.9747 0.58189 0.08859 0.0
C1387 C 0.95686 0.56694 0.08064 0.0
C1388 C 0.98916 0.58261 0.07442 0.0
C1389 C 0.97732 0.58042 0.11288 0.0
C1390 C 0.97944 0.59477 0.12498 0.0
C1391 C 0.98298 0.59685 0.14755 0.0
C1392 C 0.98435 0.58389 0.15804 0.0
C1393 C 0.98202 0.56902 0.14599 0.0
C1394 C 0.97835 0.56723 0.12316 0.0
H1395 H 0.38296 0.38828 0.05607 0.0
H1396 H 0.41672 0.40642 0.99891 0.0
H1397 H 0.44179 0.42359 0.02341 0.0
H1398 H 0.40565 0.42918 0.08736 0.0
H1399 H 0.40232 0.41885 0.11358 0.0
H1400 H 0.3869 0.40766 0.09162 0.0
H1401 H 0.39047 0.38094 0.09444 0.0
H1402 H 0.40592 0.39206 0.11638 0.0
H1403 H 0.41165 0.38418 0.09205 0.0
H1404 H 0.46317 0.43855 0.05367 0.0
H1405 H 0.47965 0.45153 0.0881 0.0
H1406 H 0.43229 0.42423 0.12599 0.0
C1407 C 0.39562 0.39586 0.04872 0.0
C1408 C 0.39787 0.39597 0.02556 0.0
C1409 C 0.41465 0.40613 0.01659 0.0
C1410 C 0.429 0.41591 0.03036 0.0
C1411 C 0.42636 0.41548 0.05308 0.0
C1412 C 0.41011 0.40582 0.06225 0.0
C1413 C 0.4109 0.40793 0.08722 0.0
C1414 C 0.40085 0.41641 0.09542 0.0
C1415 C 0.40435 0.39022 0.09816 0.0
C1416 C 0.43012 0.42028 0.09059 0.0
C1417 C 0.43876 0.42435 0.07066 0.0
C1418 C 0.45657 0.43543 0.0694 0.0
C1419 C 0.46583 0.44264 0.08906 0.0
C1420 C 0.45727 0.43879 0.10972 0.0
C1421 C 0.43916 0.42745 0.11043 0.0
H1422 H 0.68415 0.74515 0.38921 0.0
H1423 H 0.63605 0.69484 0.38239 0.0
H1424 H 0.6222 0.70534 0.40871 0.0
H1425 H 0.6809 0.75156 0.44662 0.0
H1426 H 0.69031 0.77495 0.44505 0.0
H1427 H 0.69609 0.76365 0.42505 0.0
H1428 H 0.68691 0.77578 0.39328 0.0
H1429 H 0.68116 0.78718 0.41318 0.0
H1430 H 0.6655 0.77209 0.39323 0.0
H1431 H 0.61401 0.72135 0.43691 0.0
H1432 H 0.61225 0.7414 0.46437 0.0
H1433 H 0.66575 0.78101 0.45166 0.0
C1434 C 0.67067 0.73633 0.3931 0.0
C1435 C 0.66118 0.71918 0.38374 0.0
C1436 C 0.64357 0.70806 0.38936 0.0
C1437 C 0.6356 0.71391 0.40427 0.0
C1438 C 0.64541 0.73089 0.41333 0.0
C1439 C 0.66255 0.74193 0.40788 0.0
C1440 C 0.67042 0.75943 0.42013 0.0
C1441 C 0.6853 0.76257 0.4351 0.0
C1442 C 0.67634 0.77451 0.40399 0.0
C1443 C 0.65509 0.7565 0.43354 0.0
C1444 C 0.64074 0.74001 0.42939 0.0
C1445 C 0.62514 0.73433 0.44019 0.0
C1446 C 0.62424 0.74582 0.45567 0.0
C1447 C 0.63888 0.76274 0.46023 0.0
C1448 C 0.65441 0.76808 0.44882 0.0
H1449 H 0.29525 0.95558 0.42755 0.0
H1450 H 0.28997 0.92368 0.36923 0.0
H1451 H 0.27132 0.89682 0.39011 0.0
H1452 H 0.29557 0.92619 0.4681 0.0
H1453 H 0.28324 0.93046 0.48798 0.0
H1454 H 0.29722 0.94716 0.46892 0.0
H1455 H 0.2715 0.94917 0.4556 0.0
H1456 H 0.25745 0.93245 0.47454 0.0
H1457 H 0.25231 0.92958 0.44551 0.0
H1458 H 0.25179 0.87358 0.41645 0.0
H1459 H 0.23265 0.8555 0.44643 0.0
H1460 H 0.25106 0.90248 0.48787 0.0
C1461 C 0.29037 0.94296 0.41922 0.0
C1462 C 0.29411 0.94174 0.39675 0.0
C1463 C 0.28731 0.92495 0.38644 0.0
C1464 C 0.27672 0.90961 0.39816 0.0
C1465 C 0.27312 0.91129 0.4202 0.0
C1466 C 0.27977 0.92752 0.43067 0.0
C1467 C 0.27328 0.92569 0.45419 0.0
C1468 C 0.28822 0.93279 0.47077 0.0
C1469 C 0.26302 0.93476 0.45765 0.0
C1470 C 0.26168 0.90591 0.45516 0.0
C1471 C 0.26187 0.89785 0.43544 0.0
C1472 C 0.2517 0.87971 0.43208 0.0
C1473 C 0.24094 0.86954 0.44928 0.0
C1474 C 0.24041 0.87753 0.46961 0.0
C1475 C 0.25109 0.89596 0.47253 0.0
H1476 H 0.05729 0.32936 0.40291 0.0
H1477 H 0.07338 0.38276 0.38658 0.0
H1478 H 0.09686 0.39414 0.41405 0.0
H1479 H 0.06632 0.33765 0.46182 0.0
H1480 H 0.07384 0.32272 0.46333 0.0
H1481 H 0.05784 0.31886 0.44315 0.0
H1482 H 0.07728 0.31829 0.41191 0.0
H1483 H 0.09333 0.32216 0.43197 0.0
H1484 H 0.09904 0.33674 0.40921 0.0
H1485 H 0.11943 0.39961 0.44219 0.0
H1486 H 0.13948 0.3987 0.46826 0.0
H1487 H 0.108 0.3417 0.46659 0.0
C1488 C 0.06565 0.34345 0.40518 0.0
C1489 C 0.06348 0.35517 0.39258 0.0
C1490 C 0.07478 0.37352 0.39605 0.0
C1491 C 0.08813 0.38011 0.41165 0.0
C1492 C 0.08996 0.36819 0.4237 0.0
C1493 C 0.079 0.35024 0.42067 0.0
C1494 C 0.08401 0.3402 0.43521 0.0
C1495 C 0.06965 0.32921 0.45187 0.0
C1496 C 0.08869 0.32867 0.42124 0.0
C1497 C 0.09968 0.35528 0.44663 0.0
C1498 C 0.10286 0.37133 0.43991 0.0
C1499 C 0.11697 0.38712 0.44773 0.0
C1500 C 0.12823 0.38647 0.46264 0.0
C1501 C 0.12533 0.37013 0.46951 0.0
C1502 C 0.1107 0.3544 0.46154 0.0
H1503 H 0.05701 0.34354 0.28387 0.0
H1504 H 0.01277 0.29059 0.2907 0.0
H1505 H 0.02499 0.27976 0.26247 0.0
H1506 H 0.06246 0.34021 0.22408 0.0
H1507 H 0.08563 0.35325 0.2259 0.0
H1508 H 0.07277 0.35697 0.2455 0.0
H1509 H 0.08816 0.35225 0.2777 0.0
H1510 H 0.10099 0.34844 0.25823 0.0
H1511 H 0.08821 0.33217 0.27839 0.0
H1512 H 0.04321 0.27436 0.23571 0.0
H1513 H 0.06571 0.27496 0.21199 0.0
H1514 H 0.09732 0.33164 0.22152 0.0
C1515 C 0.04977 0.32969 0.27926 0.0
C1516 C 0.03393 0.31791 0.28951 0.0
C1517 C 0.02491 0.29989 0.28304 0.0
C1518 C 0.03174 0.2936 0.26701 0.0
C1519 C 0.0475 0.30554 0.25746 0.0
C1520 C 0.05634 0.32323 0.26321 0.0
C1521 C 0.07331 0.33322 0.25106 0.0
C1522 C 0.07355 0.34671 0.23572 0.0
C1523 C 0.08856 0.34203 0.26732 0.0
C1524 C 0.07286 0.31831 0.238 0.0
C1525 C 0.05784 0.30247 0.2418 0.0
C1526 C 0.05491 0.28674 0.23234 0.0
C1527 C 0.06774 0.28723 0.21878 0.0
C1528 C 0.08332 0.30334 0.2148 0.0
C1529 C 0.08568 0.31907 0.22436 0.0
H1530 H 0.65945 0.72248 0.28358 0.0
H1531 H 0.71007 0.7295 0.2886 0.0
H1532 H 0.72046 0.75073 0.25836 0.0
H1533 H 0.65875 0.72536 0.22439 0.0
H1534 H 0.64789 0.7373 0.22557 0.0
H1535 H 0.64438 0.72221 0.24695 0.0
H1536 H 0.65357 0.74706 0.27665 0.0
H1537 H 0.65699 0.76217 0.25539 0.0
H1538 H 0.67417 0.76723 0.27425 0.0
H1539 H 0.72525 0.77162 0.22769 0.0
H1540 H 0.72435 0.79119 0.20052 0.0
H1541 H 0.67076 0.77077 0.21716 0.0
C1542 C 0.6727 0.72837 0.27826 0.0
C1543 C 0.68393 0.72428 0.28837 0.0
C1544 C 0.70123 0.73244 0.28106 0.0
C1545 C 0.70723 0.74446 0.26386 0.0
C1546 C 0.69577 0.74818 0.25425 0.0
C1547 C 0.67889 0.74042 0.26129 0.0
C1548 C 0.6693 0.74708 0.24892 0.0
C1549 C 0.65419 0.73209 0.23567 0.0
C1550 C 0.66316 0.75644 0.26475 0.0
C1551 C 0.68342 0.75988 0.23384 0.0
C1552 C 0.69857 0.76029 0.23699 0.0
C1553 C 0.71344 0.7714 0.2251 0.0
C1554 C 0.71283 0.78252 0.20977 0.0
C1555 C 0.69747 0.7825 0.20659 0.0
C1556 C 0.6826 0.77089 0.21876 0.0
H1557 H 0.2816 0.94892 0.29085 0.0
H1558 H 0.27821 0.99541 0.29687 0.0
H1559 H 0.25623 0.98343 0.26723 0.0
H1560 H 0.27527 0.94191 0.23132 0.0
H1561 H 0.26235 0.91834 0.23328 0.0
H1562 H 0.27879 0.93126 0.2536 0.0
H1563 H 0.25607 0.91747 0.28479 0.0
H1564 H 0.23959 0.90451 0.26459 0.0
H1565 H 0.23703 0.91872 0.28382 0.0
H1566 H 0.23394 0.96579 0.23759 0.0
H1567 H 0.21231 0.94353 0.21168 0.0
H1568 H 0.22934 0.90801 0.22713 0.0
C1569 C 0.27645 0.95674 0.28572 0.0
C1570 C 0.28172 0.97318 0.29603 0.0
C1571 C 0.27439 0.98281 0.28914 0.0
C1572 C 0.26194 0.97613 0.27229 0.0
C1573 C 0.25691 0.95978 0.26263 0.0
C1574 C 0.26389 0.95019 0.26919 0.0
C1575 C 0.25555 0.9325 0.25723 0.0
C1576 C 0.26878 0.93092 0.24301 0.0
C1577 C 0.24652 0.91741 0.27359 0.0
C1578 C 0.24266 0.93354 0.24303 0.0
C1579 C 0.24375 0.94944 0.24618 0.0
C1580 C 0.23295 0.95329 0.23503 0.0
C1581 C 0.22061 0.94048 0.22047 0.0
C1582 C 0.21901 0.92392 0.21733 0.0
C1583 C 0.23034 0.92058 0.22875 0.0
H1584 H 0.66734 0.95573 0.28581 0.0
H1585 H 0.69983 0.95729 0.33856 0.0
H1586 H 0.70972 0.9418 0.31416 0.0
H1587 H 0.65367 0.91308 0.26576 0.0
H1588 H 0.65385 0.91786 0.23703 0.0
H1589 H 0.65032 0.93033 0.25796 0.0
H1590 H 0.676 0.95925 0.2429 0.0
H1591 H 0.67956 0.94686 0.22183 0.0
H1592 H 0.69684 0.96172 0.2402 0.0
H1593 H 0.71438 0.92422 0.28518 0.0
H1594 H 0.71385 0.90612 0.25342 0.0
H1595 H 0.6791 0.91678 0.21891 0.0
C1596 C 0.67672 0.95304 0.29215 0.0
C1597 C 0.68283 0.95776 0.31412 0.0
C1598 C 0.69498 0.95385 0.3218 0.0
C1599 C 0.7007 0.94507 0.30805 0.0
C1600 C 0.69423 0.94037 0.28662 0.0
C1601 C 0.68259 0.9443 0.27864 0.0
C1602 C 0.67712 0.93715 0.25524 0.0
C1603 C 0.65758 0.92381 0.25394 0.0
C1604 C 0.68272 0.95214 0.23909 0.0
C1605 C 0.68722 0.92826 0.25152 0.0
C1606 C 0.69708 0.93037 0.26977 0.0
C1607 C 0.70692 0.9227 0.27064 0.0
C1608 C 0.70661 0.91252 0.25241 0.0
C1609 C 0.69655 0.91009 0.23348 0.0
C1610 C 0.68687 0.91826 0.2331 0.0
H1611 H 0.03363 0.71313 0.26584 0.0
H1612 H 0.03297 0.74298 0.32328 0.0
H1613 H 0.049 0.77028 0.30242 0.0
H1614 H 0.07573 0.74348 0.24938 0.0
H1615 H 0.07142 0.74013 0.22013 0.0
H1616 H 0.05835 0.72267 0.23871 0.0
H1617 H 0.03086 0.72055 0.22376 0.0
H1618 H 0.04386 0.73798 0.20503 0.0
H1619 H 0.02952 0.73992 0.22399 0.0
H1620 H 0.06742 0.79454 0.27673 0.0
H1621 H 0.08669 0.81406 0.24787 0.0
H1622 H 0.07452 0.76848 0.20646 0.0
C1623 C 0.03659 0.72536 0.27393 0.0
C1624 C 0.03201 0.72589 0.2962 0.0
C1625 C 0.0363 0.74221 0.30623 0.0
C1626 C 0.04538 0.7578 0.2945 0.0
C1627 C 0.04996 0.75686 0.27271 0.0
C1628 C 0.04563 0.74105 0.26244 0.0
C1629 C 0.05293 0.74379 0.23927 0.0
C1630 C 0.06534 0.73713 0.23674 0.0
C1631 C 0.03843 0.73504 0.22199 0.0
C1632 C 0.06246 0.76364 0.23836 0.0
C1633 C 0.06045 0.7709 0.25774 0.0
C1634 C 0.06883 0.78901 0.2613 0.0
C1635 C 0.07969 0.80001 0.2447 0.0
C1636 C 0.08209 0.79289 0.22472 0.0
C1637 C 0.07309 0.77441 0.22152 0.0
H1638 H 0.28946 0.34697 0.27546 0.0
H1639 H 0.27094 0.29473 0.29934 0.0
H1640 H 0.24587 0.28254 0.27425 0.0
H1641 H 0.24846 0.34218 0.27237 0.0
H1642 H 0.25337 0.35489 0.24784 0.0
H1643 H 0.27037 0.35924 0.26657 0.0
H1644 H 0.28677 0.35455 0.23449 0.0
H1645 H 0.26979 0.35016 0.21564 0.0
H1646 H 0.27607 0.33431 0.21836 0.0
H1647 H 0.22254 0.27621 0.24696 0.0
H1648 H 0.20185 0.27652 0.22135 0.0
H1649 H 0.23546 0.33302 0.2163 0.0
C1650 C 0.28023 0.33294 0.27527 0.0
C1651 C 0.28218 0.32177 0.28923 0.0
C1652 C 0.26969 0.30352 0.28874 0.0
C1653 C 0.25545 0.29647 0.2745 0.0
C1654 C 0.25389 0.30787 0.26098 0.0
C1655 C 0.2659 0.32573 0.26135 0.0
C1656 C 0.26081 0.33528 0.24606 0.0
C1657 C 0.25809 0.34868 0.25899 0.0
C1658 C 0.27415 0.34409 0.22754 0.0
C1659 C 0.24398 0.32004 0.23715 0.0
C1660 C 0.2403 0.3043 0.24573 0.0
C1661 C 0.22532 0.28844 0.24007 0.0
C1662 C 0.2137 0.28873 0.22546 0.0
C1663 C 0.21708 0.30479 0.21692 0.0
C1664 C 0.23251 0.32057 0.22271 0.0
H1665 H 0.27815 0.35619 0.37022 0.0
H1666 H 0.31918 0.35677 0.40621 0.0
H1667 H 0.30935 0.36425 0.44072 0.0
H1668 H 0.27808 0.39188 0.40257 0.0
H1669 H 0.25496 0.38096 0.40106 0.0
H1670 H 0.26669 0.37802 0.37893 0.0
H1671 H 0.24784 0.34426 0.3832 0.0
H1672 H 0.23617 0.34708 0.40542 0.0
H1673 H 0.24659 0.33503 0.40972 0.0
H1674 H 0.29312 0.36879 0.47194 0.0
H1675 H 0.27191 0.36982 0.49687 0.0
H1676 H 0.24171 0.36606 0.44003 0.0
C1677 C 0.28535 0.35828 0.38523 0.0
C1678 C 0.29948 0.35597 0.38547 0.0
C1679 C 0.30835 0.35856 0.40559 0.0
C1680 C 0.30288 0.36283 0.42527 0.0
C1681 C 0.28858 0.36454 0.42453 0.0
C1682 C 0.28002 0.36245 0.40497 0.0
C1683 C 0.26425 0.36363 0.40874 0.0
C1684 C 0.26612 0.37958 0.39714 0.0
C1685 C 0.24774 0.34648 0.40134 0.0
C1686 C 0.26496 0.3662 0.43356 0.0
C1687 C 0.27919 0.36693 0.44241 0.0
C1688 C 0.28206 0.36846 0.46515 0.0
C1689 C 0.26998 0.36907 0.47918 0.0
C1690 C 0.25515 0.36797 0.47039 0.0
C1691 C 0.25284 0.36678 0.44726 0.0
H1692 H 0.63324 0.93005 0.387 0.0
H1693 H 0.64027 0.97215 0.43173 0.0
H1694 H 0.63803 0.95453 0.46352 0.0
H1695 H 0.60249 0.89339 0.42238 0.0
H1696 H 0.61142 0.88022 0.41458 0.0
H1697 H 0.61188 0.89545 0.39539 0.0
H1698 H 0.64495 0.91021 0.39167 0.0
H1699 H 0.64463 0.89517 0.41098 0.0
H1700 H 0.65822 0.91852 0.41611 0.0
H1701 H 0.63863 0.93402 0.4902 0.0
H1702 H 0.63943 0.91071 0.51007 0.0
H1703 H 0.63083 0.88143 0.44836 0.0
C1704 C 0.63392 0.93542 0.40348 0.0
C1705 C 0.63693 0.9525 0.40683 0.0
C1706 C 0.63791 0.95909 0.42869 0.0
C1707 C 0.63668 0.94919 0.44689 0.0
C1708 C 0.63423 0.93262 0.443 0.0
C1709 C 0.63259 0.92565 0.42186 0.0
C1710 C 0.63073 0.90782 0.4222 0.0
C1711 C 0.61308 0.89336 0.4131 0.0
C1712 C 0.64552 0.90795 0.40949 0.0
C1713 C 0.63205 0.90608 0.44678 0.0
C1714 C 0.63408 0.92054 0.45849 0.0
C1715 C 0.63674 0.92249 0.48127 0.0
C1716 C 0.63728 0.90928 0.49239 0.0
C1717 C 0.63502 0.89428 0.48073 0.0
C1718 C 0.63226 0.89264 0.45767 0.0
H1719 H 0.04832 0.72471 0.40588 0.0
H1720 H 0.05662 0.68151 0.39679 0.0
H1721 H 0.07583 0.69216 0.42938 0.0
H1722 H 0.09152 0.7565 0.41923 0.0
H1723 H 0.0864 0.76847 0.43909 0.0
H1724 H 0.07178 0.7563 0.41672 0.0
H1725 H 0.04717 0.73912 0.44484 0.0
H1726 H 0.06177 0.75119 0.46733 0.0
H1727 H 0.05004 0.72751 0.46649 0.0
H1728 H 0.09479 0.708 0.46207 0.0
H1729 H 0.11435 0.72932 0.49037 0.0
H1730 H 0.09543 0.76349 0.47624 0.0
C1731 C 0.05396 0.71735 0.41102 0.0
C1732 C 0.05089 0.7022 0.39903 0.0
C1733 C 0.05881 0.69313 0.40583 0.0
C1734 C 0.06964 0.69902 0.42437 0.0
C1735 C 0.07253 0.71409 0.43576 0.0
C1736 C 0.06507 0.72324 0.42923 0.0
C1737 C 0.07154 0.73993 0.44309 0.0
C1738 C 0.08087 0.75626 0.42867 0.0
C1739 C 0.05675 0.7394 0.45622 0.0
C1740 C 0.08397 0.73884 0.45822 0.0
C1741 C 0.08411 0.72368 0.45398 0.0
C1742 C 0.09483 0.71994 0.46551 0.0
C1743 C 0.10599 0.73221 0.48146 0.0
C1744 C 0.10659 0.74821 0.4855 0.0
C1745 C 0.09516 0.75132 0.4739 0.0
H1746 H 0.32049 0.04178 0.74534 0.0
H1747 H 0.28986 0.04379 0.69276 0.0
H1748 H 0.2797 0.05833 0.71845 0.0
H1749 H 0.29009 0.03496 0.79127 0.0
H1750 H 0.30745 0.04872 0.81014 0.0
H1751 H 0.31044 0.03633 0.78847 0.0
H1752 H 0.33714 0.06502 0.77464 0.0
H1753 H 0.33417 0.0775 0.7961 0.0
H1754 H 0.33497 0.08318 0.76763 0.0
H1755 H 0.27585 0.07591 0.74826 0.0
H1756 H 0.27803 0.09464 0.78016 0.0
H1757 H 0.31032 0.08033 0.81399 0.0
C1758 C 0.31132 0.04487 0.73934 0.0
C1759 C 0.30594 0.04159 0.71702 0.0
C1760 C 0.29412 0.04611 0.70978 0.0
C1761 C 0.28825 0.05435 0.72427 0.0
C1762 C 0.29419 0.05784 0.746 0.0
C1763 C 0.30532 0.05309 0.75359 0.0
C1764 C 0.31076 0.0595 0.77722 0.0
C1765 C 0.30429 0.04395 0.79269 0.0
C1766 C 0.33042 0.07205 0.77898 0.0
C1767 C 0.30143 0.06914 0.78145 0.0
C1768 C 0.2918 0.06785 0.76333 0.0
C1769 C 0.28304 0.07669 0.76274 0.0
C1770 C 0.28428 0.08725 0.78106 0.0
C1771 C 0.29423 0.08892 0.7998 0.0
C1772 C 0.30266 0.07945 0.79999 0.0
H1773 H 0.93675 0.27592 0.73329 0.0
H1774 H 0.98544 0.27837 0.736 0.0
H1775 H 0.97402 0.25698 0.76603 0.0
H1776 H 0.92819 0.27223 0.79205 0.0
H1777 H 0.90534 0.25722 0.78847 0.0
H1778 H 0.91758 0.27312 0.76772 0.0
H1779 H 0.90665 0.24811 0.73793 0.0
H1780 H 0.89436 0.23215 0.75857 0.0
H1781 H 0.90978 0.23012 0.74193 0.0
H1782 H 0.95679 0.23449 0.79498 0.0
H1783 H 0.93519 0.21284 0.82061 0.0
H1784 H 0.89797 0.2253 0.79853 0.0
C1785 C 0.94508 0.27206 0.74025 0.0
C1786 C 0.962 0.27883 0.7323 0.0
C1787 C 0.97244 0.27337 0.74185 0.0
C1788 C 0.96607 0.26125 0.75892 0.0
C1789 C 0.94929 0.25477 0.76628 0.0
C1790 C 0.93896 0.26003 0.75726 0.0
C1791 C 0.92127 0.25085 0.76775 0.0
C1792 C 0.91791 0.26415 0.77971 0.0
C1793 C 0.90719 0.23964 0.75052 0.0
C1794 C 0.92319 0.23949 0.78396 0.0
C1795 C 0.93944 0.24194 0.78292 0.0
C1796 C 0.94405 0.23252 0.79599 0.0
C1797 C 0.93168 0.2202 0.8104 0.0
C1798 C 0.91493 0.21744 0.81163 0.0
C1799 C 0.91075 0.22733 0.79827 0.0
H1800 H 0.73821 0.70583 0.71715 0.0
H1801 H 0.70184 0.70607 0.76393 0.0
H1802 H 0.72056 0.70893 0.79471 0.0
H1803 H 0.74806 0.6799 0.74708 0.0
H1804 H 0.77064 0.69144 0.7402 0.0
H1805 H 0.75554 0.69156 0.72161 0.0
H1806 H 0.77304 0.7256 0.72279 0.0
H1807 H 0.78833 0.7256 0.74126 0.0
H1808 H 0.7778 0.73725 0.74906 0.0
H1809 H 0.74109 0.7078 0.82043 0.0
H1810 H 0.76345 0.70518 0.83929 0.0
H1811 H 0.78712 0.7068 0.77612 0.0
C1812 C 0.73438 0.70693 0.73383 0.0
C1813 C 0.71854 0.70575 0.73809 0.0
C1814 C 0.71392 0.707 0.7602 0.0
C1815 C 0.72447 0.70862 0.77783 0.0
C1816 C 0.73972 0.70919 0.7731 0.0
C1817 C 0.74482 0.70866 0.75164 0.0
C1818 C 0.76139 0.70858 0.75112 0.0
C1819 C 0.75873 0.69188 0.73931 0.0
C1820 C 0.776 0.72526 0.74043 0.0
C1821 C 0.76449 0.70861 0.77563 0.0
C1822 C 0.75185 0.709 0.78801 0.0
C1823 C 0.75124 0.70783 0.81094 0.0
C1824 C 0.76389 0.70625 0.82149 0.0
C1825 C 0.77701 0.70596 0.80912 0.0
C1826 C 0.77739 0.70733 0.78594 0.0
H1827 H 0.73105 0.66043 0.65511 0.0
H1828 H 0.69294 0.66233 0.61536 0.0
H1829 H 0.70323 0.65392 0.58221 0.0
H1830 H 0.76457 0.67943 0.61687 0.0
H1831 H 0.77315 0.6659 0.62278 0.0
H1832 H 0.76166 0.67023 0.64382 0.0
H1833 H 0.74056 0.63678 0.64849 0.0
H1834 H 0.75207 0.63233 0.62752 0.0
H1835 H 0.72923 0.62308 0.62471 0.0
H1836 H 0.71915 0.64764 0.55292 0.0
H1837 H 0.73956 0.64394 0.52973 0.0
H1838 H 0.76708 0.64587 0.58859 0.0
C1839 C 0.72466 0.65878 0.63952 0.0
C1840 C 0.71117 0.66201 0.63786 0.0
C1841 C 0.70328 0.6599 0.61707 0.0
C1842 C 0.70901 0.65508 0.59813 0.0
C1843 C 0.72256 0.65233 0.60027 0.0
C1844 C 0.73022 0.65399 0.62045 0.0
C1845 C 0.74516 0.65123 0.61805 0.0
C1846 C 0.76213 0.66768 0.62584 0.0
C1847 C 0.74153 0.63488 0.63043 0.0
C1848 C 0.74503 0.64829 0.5933 0.0
C1849 C 0.73177 0.64876 0.58337 0.0
C1850 C 0.72944 0.64702 0.56054 0.0
C1851 C 0.74106 0.64486 0.54751 0.0
C1852 C 0.75488 0.64457 0.55734 0.0
C1853 C 0.75671 0.64614 0.58057 0.0
H1854 H 0.34282 0.04894 0.59954 0.0
H1855 H 0.36799 0.08105 0.65827 0.0
H1856 H 0.37924 0.10781 0.63658 0.0
H1857 H 0.37645 0.07726 0.56014 0.0
H1858 H 0.36108 0.07336 0.53896 0.0
H1859 H 0.35607 0.05666 0.55871 0.0
H1860 H 0.32809 0.05584 0.56943 0.0
H1861 H 0.33302 0.07254 0.54979 0.0
H1862 H 0.32936 0.07588 0.57834 0.0
H1863 H 0.38586 0.13098 0.60941 0.0
H1864 H 0.38753 0.14908 0.57857 0.0
H1865 H 0.3589 0.102 0.53705 0.0
C1866 C 0.35088 0.06159 0.6078 0.0
C1867 C 0.35454 0.06289 0.63061 0.0
C1868 C 0.36503 0.07971 0.64081 0.0
C1869 C 0.37151 0.09499 0.62863 0.0
C1870 C 0.36748 0.09324 0.60624 0.0
C1871 C 0.35748 0.07698 0.59589 0.0
C1872 C 0.35442 0.07877 0.57187 0.0
C1873 C 0.36249 0.07106 0.55652 0.0
C1874 C 0.33507 0.07025 0.56709 0.0
C1875 C 0.36394 0.09858 0.57049 0.0
C1876 C 0.37148 0.10667 0.59046 0.0
C1877 C 0.38026 0.12483 0.59357 0.0
C1878 C 0.38123 0.13501 0.57586 0.0
C1879 C 0.37349 0.12703 0.55523 0.0
C1880 C 0.36491 0.10855 0.55257 0.0
H1881 H 0.94449 0.30522 0.61525 0.0
H1882 H 0.96499 0.27258 0.63027 0.0
H1883 H 0.94716 0.25155 0.60069 0.0
H1884 H 0.90152 0.27019 0.6043 0.0
H1885 H 0.89805 0.28079 0.58192 0.0
H1886 H 0.91301 0.29384 0.60365 0.0
H1887 H 0.93717 0.31014 0.5747 0.0
H1888 H 0.92226 0.29716 0.55287 0.0
H1889 H 0.94214 0.29765 0.55552 0.0
H1890 H 0.92631 0.23338 0.57095 0.0
H1891 H 0.90366 0.21911 0.54261 0.0
H1892 H 0.8971 0.26378 0.5457 0.0
C1893 C 0.94532 0.29372 0.61222 0.0
C1894 C 0.95616 0.29058 0.62511 0.0
C1895 C 0.9568 0.27531 0.62065 0.0
C1896 C 0.94674 0.26327 0.60385 0.0
C1897 C 0.93614 0.2667 0.59157 0.0
C1898 C 0.93536 0.28154 0.59545 0.0
C1899 C 0.92253 0.28181 0.58013 0.0
C1900 C 0.90791 0.28164 0.59329 0.0
C1901 C 0.93157 0.29763 0.5649 0.0
C1902 C 0.91607 0.26467 0.56728 0.0
C1903 C 0.92416 0.25623 0.57411 0.0
C1904 C 0.92003 0.23995 0.56523 0.0
C1905 C 0.90721 0.23202 0.54898 0.0
C1906 C 0.89867 0.24037 0.54165 0.0
C1907 C 0.9033 0.25699 0.55093 0.0
H1908 H 0.36381 0.29795 0.62697 0.0
H1909 H 0.30859 0.26536 0.63757 0.0
H1910 H 0.30642 0.24526 0.60733 0.0
H1911 H 0.36194 0.29289 0.56703 0.0
H1912 H 0.3814 0.29242 0.56515 0.0
H1913 H 0.37866 0.3045 0.58746 0.0
H1914 H 0.38411 0.28685 0.61582 0.0
H1915 H 0.38684 0.27472 0.59361 0.0
H1916 H 0.37106 0.26318 0.61481 0.0
H1917 H 0.31035 0.22787 0.57754 0.0
H1918 H 0.31993 0.21468 0.54918 0.0
H1919 H 0.37237 0.25948 0.55593 0.0
C1920 C 0.35127 0.2866 0.62291 0.0
C1921 C 0.33638 0.2832 0.6347 0.0
C1922 C 0.32018 0.26826 0.62877 0.0
C1923 C 0.3188 0.25675 0.61162 0.0
C1924 C 0.33371 0.26045 0.60038 0.0
C1925 C 0.34962 0.27505 0.60564 0.0
C1926 C 0.3636 0.27592 0.59092 0.0
C1927 C 0.37189 0.29241 0.5768 0.0
C1928 C 0.3772 0.27512 0.60461 0.0
C1929 C 0.35308 0.25936 0.57685 0.0
C1930 C 0.33588 0.25065 0.58261 0.0
C1931 C 0.32374 0.2347 0.57261 0.0
C1932 C 0.32933 0.22739 0.55632 0.0
C1933 C 0.34691 0.23609 0.54995 0.0
C1934 C 0.35886 0.25239 0.56037 0.0
H1935 H 0.70599 0.04689 0.5868 0.0
H1936 H 0.70698 0.07834 0.64345 0.0
H1937 H 0.72498 0.10528 0.62258 0.0
H1938 H 0.74916 0.07526 0.5706 0.0
H1939 H 0.74491 0.07191 0.54134 0.0
H1940 H 0.73106 0.05489 0.56007 0.0
H1941 H 0.70456 0.05453 0.54467 0.0
H1942 H 0.71834 0.07152 0.52581 0.0
H1943 H 0.7046 0.07467 0.5445 0.0
H1944 H 0.74455 0.12881 0.5969 0.0
H1945 H 0.76403 0.14752 0.5677 0.0
H1946 H 0.7495 0.10101 0.52683 0.0
C1947 C 0.70982 0.05943 0.59473 0.0
C1948 C 0.70505 0.06047 0.61678 0.0
C1949 C 0.71043 0.07716 0.62658 0.0
C1950 C 0.72065 0.09257 0.61486 0.0
C1951 C 0.72529 0.09109 0.59329 0.0
C1952 C 0.71999 0.07497 0.58323 0.0
C1953 C 0.72731 0.07713 0.5601 0.0
C1954 C 0.73879 0.06934 0.55791 0.0
C1955 C 0.71284 0.06898 0.54274 0.0
C1956 C 0.73784 0.09699 0.55896 0.0
C1957 C 0.73642 0.10475 0.57824 0.0
C1958 C 0.74555 0.12291 0.58156 0.0
C1959 C 0.75651 0.13344 0.56474 0.0
C1960 C 0.75823 0.12583 0.54475 0.0
C1961 C 0.74859 0.10731 0.54187 0.0
H1962 H 0.95496 0.68097 0.60684 0.0
H1963 H 0.93904 0.62858 0.62771 0.0
H1964 H 0.91573 0.61583 0.59994 0.0
H1965 H 0.91402 0.67343 0.6007 0.0
H1966 H 0.91886 0.68675 0.57678 0.0
H1967 H 0.93564 0.69163 0.59613 0.0
H1968 H 0.95385 0.68928 0.56453 0.0
H1969 H 0.93711 0.68445 0.54502 0.0
H1970 H 0.94465 0.66959 0.54738 0.0
H1971 H 0.8923 0.60899 0.5727 0.0
H1972 H 0.87052 0.60876 0.54871 0.0
H1973 H 0.90221 0.66557 0.54532 0.0
C1974 C 0.94682 0.6668 0.60529 0.0
C1975 C 0.94886 0.65578 0.61941 0.0
C1976 C 0.93776 0.6373 0.61703 0.0
C1977 C 0.92451 0.62992 0.60125 0.0
C1978 C 0.92263 0.64119 0.58788 0.0
C1979 C 0.93355 0.65923 0.58967 0.0
C1980 C 0.92802 0.66852 0.57458 0.0
C1981 C 0.92389 0.6808 0.58785 0.0
C1982 C 0.94172 0.67855 0.55682 0.0
C1983 C 0.91194 0.65293 0.56461 0.0
C1984 C 0.90915 0.63725 0.57222 0.0
C1985 C 0.89449 0.62116 0.56634 0.0
C1986 C 0.88223 0.62115 0.55264 0.0
C1987 C 0.88466 0.63714 0.54516 0.0
C1988 C 0.89993 0.65314 0.55088 0.0
H1989 H 0.92715 0.64898 0.73434 0.0
H1990 H 0.96957 0.70134 0.71914 0.0
H1991 H 0.95821 0.71407 0.74603 0.0
H1992 H 0.89492 0.65976 0.73965 0.0
H1993 H 0.88396 0.64513 0.76208 0.0
H1994 H 0.89578 0.64023 0.74218 0.0
H1995 H 0.91372 0.63865 0.77376 0.0
H1996 H 0.90197 0.64359 0.79377 0.0
H1997 H 0.92515 0.6571 0.79278 0.0
H1998 H 0.94172 0.72103 0.77411 0.0
H1999 H 0.92097 0.72166 0.80023 0.0
H2000 H 0.88983 0.66466 0.79719 0.0
C2001 C 0.93411 0.66312 0.73667 0.0
C2002 C 0.94925 0.67416 0.72463 0.0
C2003 C 0.95793 0.69262 0.72817 0.0
C2004 C 0.95161 0.69997 0.74344 0.0
C2005 C 0.93663 0.68868 0.75504 0.0
C2006 C 0.928 0.67066 0.75181 0.0
C2007 C 0.912 0.66141 0.76598 0.0
C2008 C 0.8957 0.65103 0.75161 0.0
C2009 C 0.9133 0.64949 0.78255 0.0
C2010 C 0.91285 0.67705 0.77753 0.0
C2011 C 0.9272 0.69267 0.77113 0.0
C2012 C 0.9305 0.70887 0.77933 0.0
C2013 C 0.9187 0.70909 0.79426 0.0
C2014 C 0.90377 0.69321 0.80075 0.0
C2015 C 0.90101 0.67703 0.7924 0.0
H2016 H 0.30769 0.26579 0.7346 0.0
H2017 H 0.33357 0.31373 0.775 0.0
H2018 H 0.33306 0.29675 0.80666 0.0
H2019 H 0.28008 0.23673 0.77835 0.0
H2020 H 0.28193 0.21865 0.7683 0.0
H2021 H 0.28325 0.23441 0.7493 0.0
H2022 H 0.31284 0.2404 0.73555 0.0
H2023 H 0.31165 0.22474 0.75454 0.0
H2024 H 0.32995 0.24697 0.75521 0.0
H2025 H 0.33167 0.27489 0.8331 0.0
H2026 H 0.3285 0.24954 0.85272 0.0
H2027 H 0.30338 0.21593 0.79513 0.0
C2028 C 0.31303 0.2727 0.75018 0.0
C2029 C 0.32065 0.29111 0.7523 0.0
C2030 C 0.32762 0.29964 0.77296 0.0
C2031 C 0.32739 0.29011 0.79106 0.0
C2032 C 0.32006 0.27204 0.78828 0.0
C2033 C 0.31288 0.2634 0.76841 0.0
C2034 C 0.30637 0.244 0.76951 0.0
C2035 C 0.28674 0.23279 0.76617 0.0
C2036 C 0.31577 0.23873 0.75271 0.0
C2037 C 0.31127 0.24313 0.79299 0.0
C2038 C 0.31911 0.25943 0.80357 0.0
C2039 C 0.3254 0.26204 0.82506 0.0
C2040 C 0.32365 0.2476 0.83601 0.0
C2041 C 0.31564 0.23078 0.82547 0.0
C2042 C 0.30929 0.22857 0.80373 0.0
H2043 H 0.74531 0.06108 0.70486 0.0
H2044 H 0.69686 0.03261 0.74037 0.0
H2045 H 0.71263 0.04229 0.77574 0.0
H2046 H 0.77087 0.05282 0.74308 0.0
H2047 H 0.78974 0.07446 0.7402 0.0
H2048 H 0.77477 0.0642 0.71757 0.0
H2049 H 0.77133 0.09109 0.71634 0.0
H2050 H 0.78629 0.10143 0.73889 0.0
H2051 H 0.76506 0.09808 0.74103 0.0
H2052 H 0.73337 0.05644 0.80718 0.0
H2053 H 0.75776 0.07459 0.83257 0.0
H2054 H 0.79266 0.09402 0.77669 0.0
C2055 C 0.73802 0.05669 0.72006 0.0
C2056 C 0.71985 0.04606 0.71984 0.0
C2057 C 0.71079 0.04077 0.74012 0.0
C2058 C 0.71963 0.04613 0.7603 0.0
C2059 C 0.73753 0.05675 0.75994 0.0
C2060 C 0.74664 0.06197 0.74037 0.0
C2061 C 0.76576 0.07416 0.7446 0.0
C2062 C 0.77588 0.06591 0.73584 0.0
C2063 C 0.7725 0.09226 0.73463 0.0
C2064 C 0.76592 0.07523 0.7696 0.0
C2065 C 0.74952 0.06497 0.77812 0.0
C2066 C 0.7463 0.06442 0.80072 0.0
C2067 C 0.7602 0.07483 0.81499 0.0
C2068 C 0.77708 0.08565 0.80659 0.0
C2069 C 0.77995 0.08562 0.78361 0.0
H2070 H 0.03609 0.34261 0.08274 0.0
H2071 H 0.0457 0.34102 0.01251 0.0
H2072 H 0.06646 0.33224 0.02056 0.0
H2073 H 0.07968 0.36065 0.1003 0.0
H2074 H 0.07383 0.34793 0.12494 0.0
H2075 H 0.05938 0.3537 0.11368 0.0
H2076 H 0.03506 0.3208 0.11174 0.0
H2077 H 0.04944 0.31493 0.12298 0.0
H2078 H 0.03873 0.30527 0.09703 0.0
H2079 H 0.08622 0.32375 0.0361 0.0
H2080 H 0.1044 0.31704 0.05831 0.0
H2081 H 0.082 0.32421 0.11836 0.0
C2082 C 0.04252 0.34038 0.06905 0.0
C2083 C 0.03925 0.34249 0.047 0.0
C2084 C 0.04801 0.33952 0.02955 0.0
C2085 C 0.0598 0.33448 0.03394 0.0
C2086 C 0.06272 0.33252 0.05584 0.0
C2087 C 0.05439 0.33541 0.07312 0.0
C2088 C 0.06011 0.33269 0.09518 0.0
C2089 C 0.06877 0.34976 0.10935 0.0
C2090 C 0.04493 0.31752 0.10745 0.0
C2091 C 0.07301 0.32789 0.08758 0.0
C2092 C 0.07424 0.32777 0.06482 0.0
C2093 C 0.08534 0.32376 0.05394 0.0
C2094 C 0.09553 0.31986 0.06668 0.0
C2095 C 0.09459 0.32008 0.09004 0.0
C2096 C 0.08311 0.32409 0.10054 0.0
H2097 H 0.64381 0.69425 0.04571 0.0
H2098 H 0.67543 0.7174 0.98756 0.0
H2099 H 0.6841 0.74691 0.00209 0.0
H2100 H 0.62947 0.72562 0.05152 0.0
H2101 H 0.63008 0.7259 0.08127 0.0
H2102 H 0.62555 0.70644 0.06572 0.0
H2103 H 0.65084 0.70699 0.08536 0.0
H2104 H 0.65552 0.7265 0.10084 0.0
H2105 H 0.6721 0.72648 0.08435 0.0
H2106 H 0.69152 0.77396 0.02431 0.0
H2107 H 0.69519 0.79682 0.05162 0.0
H2108 H 0.65781 0.75637 0.0945 0.0
C2109 C 0.65236 0.70551 0.03589 0.0
C2110 C 0.65895 0.70349 0.01549 0.0
C2111 C 0.67016 0.71857 0.00319 0.0
C2112 C 0.6752 0.73542 0.01132 0.0
C2113 C 0.66876 0.73698 0.03165 0.0
C2114 C 0.6574 0.72245 0.04365 0.0
C2115 C 0.65264 0.72784 0.06524 0.0
C2116 C 0.63329 0.72105 0.06597 0.0
C2117 C 0.65811 0.72158 0.08512 0.0
C2118 C 0.66336 0.74766 0.06366 0.0
C2119 C 0.67262 0.75265 0.04417 0.0
C2120 C 0.68416 0.77024 0.03948 0.0
C2121 C 0.68623 0.7831 0.05507 0.0
C2122 C 0.67668 0.77827 0.07495 0.0
C2123 C 0.66505 0.76035 0.07923 0.0
H2124 H 0.28503 0.97946 0.0394 0.0
H2125 H 0.31603 0.95584 0.04178 0.0
H2126 H 0.29264 0.93067 0.0614 0.0
H2127 H 0.26591 0.96664 0.09265 0.0
H2128 H 0.24503 0.96197 0.08422 0.0
H2129 H 0.26407 0.97811 0.06994 0.0
H2130 H 0.25121 0.96137 0.03277 0.0
H2131 H 0.23208 0.94523 0.04692 0.0
H2132 H 0.2441 0.93841 0.03013 0.0
H2133 H 0.26682 0.90904 0.08253 0.0
H2134 H 0.23925 0.89109 0.10178 0.0
H2135 H 0.22397 0.92755 0.08363 0.0
C2136 C 0.28686 0.96895 0.04398 0.0
C2137 C 0.30238 0.96964 0.03911 0.0
C2138 C 0.30425 0.95559 0.04527 0.0
C2139 C 0.29105 0.94125 0.05648 0.0
C2140 C 0.276 0.94106 0.0612 0.0
C2141 C 0.27372 0.95441 0.05496 0.0
C2142 C 0.25618 0.95084 0.06196 0.0
C2143 C 0.25791 0.96525 0.07816 0.0
C2144 C 0.24525 0.94884 0.04174 0.0
C2145 C 0.24908 0.93351 0.07333 0.0
C2146 C 0.26077 0.92817 0.07277 0.0
C2147 C 0.25742 0.91291 0.08279 0.0
C2148 C 0.24163 0.90272 0.09355 0.0
C2149 C 0.22922 0.90769 0.09402 0.0
C2150 C 0.23312 0.92336 0.08374 0.0
H2151 H 0.34618 0.05112 0.98954 0.0
H2152 H 0.31598 0.00551 0.94616 0.0
H2153 H 0.30709 0.02218 0.92465 0.0
H2154 H 0.31608 0.06588 0.98989 0.0
H2155 H 0.33259 0.08891 0.9898 0.0
H2156 H 0.33681 0.07349 0.00211 0.0
H2157 H 0.36345 0.08402 0.97681 0.0
H2158 H 0.35929 0.09945 0.96441 0.0
H2159 H 0.36092 0.08358 0.94729 0.0
H2160 H 0.30166 0.04341 0.90729 0.0
H2161 H 0.29964 0.06826 0.89531 0.0
H2162 H 0.33246 0.10032 0.95007 0.0
C2163 C 0.3377 0.04467 0.97552 0.0
C2164 C 0.3318 0.02698 0.96958 0.0
C2165 C 0.32069 0.01901 0.95113 0.0
C2166 C 0.31554 0.02838 0.93873 0.0
C2167 C 0.32155 0.04573 0.94496 0.0
C2168 C 0.33234 0.05385 0.96291 0.0
C2169 C 0.33678 0.07268 0.96592 0.0
C2170 C 0.33017 0.07539 0.98826 0.0
C2171 C 0.35627 0.0857 0.96346 0.0
C2172 C 0.32685 0.07378 0.94682 0.0
C2173 C 0.31819 0.05806 0.93498 0.0
C2174 C 0.30826 0.05577 0.91651 0.0
C2175 C 0.3071 0.06995 0.90994 0.0
C2176 C 0.31573 0.08623 0.92184 0.0
C2177 C 0.32577 0.08811 0.94052 0.0
H2178 H 0.97696 0.28683 0.98893 0.0
H2179 H 0.95885 0.32222 0.97847 0.0
H2180 H 0.93348 0.29845 0.95864 0.0
H2181 H 0.96405 0.2644 0.93631 0.0
H2182 H 0.95753 0.24319 0.94696 0.0
H2183 H 0.97421 0.26289 0.96072 0.0
H2184 H 0.957 0.25319 0.99734 0.0
H2185 H 0.9403 0.23343 0.98371 0.0
H2186 H 0.93505 0.24798 0.99794 0.0
H2187 H 0.91048 0.27122 0.93934 0.0
H2188 H 0.89097 0.24201 0.9222 0.0
H2189 H 0.9236 0.22402 0.94583 0.0
C2190 C 0.96764 0.28958 0.98254 0.0
C2191 C 0.96991 0.3064 0.98527 0.0
C2192 C 0.9574 0.30944 0.97662 0.0
C2193 C 0.94294 0.29603 0.96531 0.0
C2194 C 0.94115 0.27965 0.96283 0.0
C2195 C 0.95311 0.27633 0.97123 0.0
C2196 C 0.94811 0.25755 0.96618 0.0
C2197 C 0.96179 0.25698 0.95168 0.0
C2198 C 0.94492 0.24745 0.98757 0.0
C2199 C 0.93152 0.25088 0.95353 0.0
C2200 C 0.92776 0.26384 0.95181 0.0
C2201 C 0.91321 0.26091 0.94071 0.0
C2202 C 0.90215 0.24423 0.93116 0.0
C2203 C 0.90567 0.23066 0.93281 0.0
C2204 C 0.92061 0.23413 0.94414 0.0
H2205 H 0.69966 0.66004 0.98835 0.0
H2206 H 0.67594 0.66966 0.93344 0.0
H2207 H 0.70289 0.68158 0.91226 0.0
H2208 H 0.74256 0.69854 0.98233 0.0
H2209 H 0.75335 0.68723 0.98891 0.0
H2210 H 0.73242 0.68009 0.00038 0.0
H2211 H 0.72072 0.6487 0.98414 0.0
H2212 H 0.74163 0.65571 0.97272 0.0
H2213 H 0.72296 0.6457 0.95499 0.0
H2214 H 0.73209 0.69236 0.89689 0.0
H2215 H 0.76126 0.69918 0.88706 0.0
H2216 H 0.76609 0.68187 0.95122 0.0
C2217 C 0.70019 0.66474 0.97191 0.0
C2218 C 0.68573 0.66397 0.96257 0.0
C2219 C 0.68684 0.67006 0.94092 0.0
C2220 C 0.70212 0.67695 0.92878 0.0
C2221 C 0.71615 0.67755 0.93844 0.0
C2222 C 0.71532 0.67147 0.95941 0.0
C2223 C 0.73207 0.67289 0.96542 0.0
C2224 C 0.7406 0.68544 0.98545 0.0
C2225 C 0.72916 0.65466 0.96956 0.0
C2226 C 0.74235 0.68063 0.94451 0.0
C2227 C 0.73297 0.68341 0.9293 0.0
C2228 C 0.73961 0.69032 0.90868 0.0
C2229 C 0.75622 0.69427 0.90331 0.0
C2230 C 0.76594 0.69117 0.91844 0.0
C2231 C 0.75892 0.68437 0.93936 0.0
H2232 H 0.95359 0.65737 0.94264 0.0
H2233 H 0.93786 0.65254 0.01137 0.0
H2234 H 0.91508 0.65813 0.00141 0.0
H2235 H 0.94783 0.69221 0.9302 0.0
H2236 H 0.93966 0.68413 0.90271 0.0
H2237 H 0.95416 0.67888 0.91501 0.0
H2238 H 0.93191 0.64566 0.90855 0.0
H2239 H 0.91736 0.65081 0.89611 0.0
H2240 H 0.91033 0.6363 0.91913 0.0
H2241 H 0.8954 0.66631 0.98436 0.0
H2242 H 0.87897 0.67464 0.96101 0.0
H2243 H 0.90698 0.67327 0.90332 0.0
C2244 C 0.94526 0.65731 0.95559 0.0
C2245 C 0.94753 0.65454 0.9778 0.0
C2246 C 0.93633 0.65458 0.99423 0.0
C2247 C 0.92338 0.65777 0.98874 0.0
C2248 C 0.92167 0.66073 0.96673 0.0
C2249 C 0.93218 0.66033 0.95038 0.0
C2250 C 0.92783 0.66416 0.92804 0.0
C2251 C 0.94329 0.68084 0.91844 0.0
C2252 C 0.92148 0.64828 0.91201 0.0
C2253 C 0.9134 0.66703 0.93443 0.0
C2254 C 0.91007 0.66504 0.95684 0.0
C2255 C 0.89777 0.66775 0.96677 0.0
C2256 C 0.88859 0.67257 0.95343 0.0
C2257 C 0.89169 0.67452 0.9304 0.0
C2258 C 0.90421 0.67163 0.92084 0.0
H2259 H 0.33009 0.30106 0.98634 0.0
H2260 H 0.38603 0.32979 0.98691 0.0
H2261 H 0.38528 0.30339 0.97251 0.0
H2262 H 0.32389 0.25884 0.00291 0.0
H2263 H 0.30527 0.24612 0.98544 0.0
H2264 H 0.31013 0.26703 0.99697 0.0
H2265 H 0.31008 0.27763 0.95765 0.0
H2266 H 0.30535 0.25681 0.946 0.0
H2267 H 0.32399 0.27689 0.93678 0.0
H2268 H 0.37869 0.27517 0.95457 0.0
H2269 H 0.36672 0.24606 0.9368 0.0
H2270 H 0.3149 0.23439 0.9508 0.0
C2271 C 0.34217 0.30172 0.98368 0.0
C2272 C 0.35812 0.3175 0.98772 0.0
C2273 C 0.37365 0.31785 0.98402 0.0
C2274 C 0.37337 0.30293 0.9758 0.0
C2275 C 0.35747 0.28768 0.97167 0.0
C2276 C 0.34214 0.28685 0.97575 0.0
C2277 C 0.32683 0.26886 0.96951 0.0
C2278 C 0.31589 0.25967 0.98993 0.0
C2279 C 0.31593 0.27013 0.95141 0.0
C2280 C 0.336 0.25989 0.96079 0.0
C2281 C 0.35366 0.27102 0.96216 0.0
C2282 C 0.36488 0.26616 0.95389 0.0
C2283 C 0.35789 0.24945 0.94396 0.0
C2284 C 0.33978 0.23759 0.94261 0.0
C2285 C 0.32877 0.24299 0.95136 0.0
H2286 H 0.71042 0.04647 0.00625 0.0
H2287 H 0.68013 0.0093 0.95348 0.0
H2288 H 0.70453 0.02501 0.9279 0.0
H2289 H 0.7311 0.08462 0.97242 0.0
H2290 H 0.75144 0.09469 0.9867 0.0
H2291 H 0.73173 0.08028 0.00114 0.0
H2292 H 0.74376 0.06101 0.01207 0.0
H2293 H 0.7635 0.07534 0.99763 0.0
H2294 H 0.75131 0.05215 0.99082 0.0
H2295 H 0.73211 0.0444 0.90809 0.0
H2296 H 0.76079 0.06732 0.89476 0.0
H2297 H 0.7731 0.09239 0.95995 0.0
C2298 C 0.70894 0.04162 0.98933 0.0
C2299 C 0.69338 0.02662 0.98189 0.0
C2300 C 0.69191 0.02077 0.95957 0.0
C2301 C 0.70571 0.02957 0.94491 0.0
C2302 C 0.72087 0.04427 0.95276 0.0
C2303 C 0.72256 0.05035 0.97438 0.0
C2304 C 0.74013 0.06675 0.97839 0.0
C2305 C 0.7385 0.08251 0.98505 0.0
C2306 C 0.75027 0.06362 0.99576 0.0
C2307 C 0.74802 0.06889 0.95565 0.0
C2308 C 0.73672 0.0557 0.94117 0.0
C2309 C 0.74109 0.05479 0.91926 0.0
C2310 C 0.75743 0.06779 0.91188 0.0
C2311 C 0.76915 0.08156 0.92635 0.0
C2312 C 0.76434 0.08206 0.94851 0.0
H2313 H 0.64825 0.94664 0.03626 0.0
H2314 H 0.66666 0.98916 0.08531 0.0
H2315 H 0.67433 0.97298 0.10998 0.0
H2316 H 0.62994 0.91108 0.07506 0.0
H2317 H 0.63637 0.89812 0.05923 0.0
H2318 H 0.6319 0.91283 0.04545 0.0
H2319 H 0.66221 0.9282 0.02757 0.0
H2320 H 0.66678 0.91354 0.04129 0.0
H2321 H 0.68098 0.93698 0.04496 0.0
H2322 H 0.6808 0.95282 0.12895 0.0
H2323 H 0.68527 0.92951 0.1413 0.0
H2324 H 0.66268 0.89994 0.08021 0.0
C2325 C 0.65381 0.9525 0.05223 0.0
C2326 C 0.65685 0.96918 0.05883 0.0
C2327 C 0.6642 0.97641 0.07985 0.0
C2328 C 0.6686 0.96732 0.09402 0.0
C2329 C 0.66553 0.95099 0.08698 0.0
C2330 C 0.65827 0.94359 0.06664 0.0
C2331 C 0.65657 0.92593 0.06303 0.0
C2332 C 0.63756 0.91112 0.06055 0.0
C2333 C 0.66728 0.92619 0.04303 0.0
C2334 C 0.66412 0.92465 0.08448 0.0
C2335 C 0.6692 0.93926 0.09804 0.0
C2336 C 0.67685 0.94129 0.11852 0.0
C2337 C 0.67943 0.92805 0.12532 0.0
C2338 C 0.67435 0.91296 0.1117 0.0
C2339 C 0.66652 0.91124 0.09106 0.0
H2340 H 0.05152 0.70951 0.02378 0.0
H2341 H 0.0032 0.69324 0.05741 0.0
H2342 H 0.01805 0.71925 0.08224 0.0
H2343 H 0.07843 0.72593 0.07154 0.0
H2344 H 0.09616 0.74442 0.05802 0.0
H2345 H 0.08175 0.72471 0.04228 0.0
H2346 H 0.07544 0.74279 0.01574 0.0
H2347 H 0.0899 0.76257 0.03133 0.0
H2348 H 0.06794 0.75649 0.02685 0.0
H2349 H 0.0381 0.74598 0.10467 0.0
H2350 H 0.06205 0.77274 0.12228 0.0
H2351 H 0.09728 0.77285 0.07314 0.0
C2352 C 0.04405 0.71148 0.03628 0.0
C2353 C 0.02618 0.6993 0.03861 0.0
C2354 C 0.01688 0.70238 0.0552 0.0
C2355 C 0.0252 0.71711 0.06945 0.0
C2356 C 0.04281 0.72876 0.06684 0.0
C2357 C 0.05214 0.72624 0.05059 0.0
C2358 C 0.07097 0.74084 0.05146 0.0
C2359 C 0.0825 0.73353 0.05611 0.0
C2360 C 0.07638 0.75129 0.03007 0.0
C2361 C 0.07075 0.75179 0.0709 0.0
C2362 C 0.05437 0.74454 0.07952 0.0
C2363 C 0.05097 0.75194 0.09789 0.0
C2364 C 0.06467 0.76724 0.10769 0.0
C2365 C 0.08159 0.77511 0.09902 0.0
C2366 C 0.08457 0.76718 0.08033 0.0
H2367 H 0.2855 0.31463 0.03887 0.0
H2368 H 0.31068 0.3704 0.02642 0.0
H2369 H 0.28725 0.37123 0.04592 0.0
H2370 H 0.24162 0.30432 0.03194 0.0
H2371 H 0.23312 0.28862 0.0537 0.0
H2372 H 0.25167 0.29222 0.03823 0.0
H2373 H 0.26894 0.29933 0.07463 0.0
H2374 H 0.25046 0.29578 0.09019 0.0
H2375 H 0.27074 0.31634 0.09319 0.0
H2376 H 0.26186 0.36643 0.06784 0.0
H2377 H 0.2355 0.35602 0.09006 0.0
H2378 H 0.22646 0.30334 0.08812 0.0
C2379 C 0.28604 0.327 0.04013 0.0
C2380 C 0.29996 0.34245 0.0311 0.0
C2381 C 0.30017 0.35837 0.03316 0.0
C2382 C 0.28692 0.35899 0.04421 0.0
C2383 C 0.27349 0.34358 0.05304 0.0
C2384 C 0.27287 0.32785 0.05106 0.0
C2385 C 0.25703 0.31325 0.06232 0.0
C2386 C 0.24516 0.29875 0.04554 0.0
C2387 C 0.2621 0.30574 0.08121 0.0
C2388 C 0.24895 0.32328 0.0711 0.0
C2389 C 0.25868 0.34076 0.06556 0.0
C2390 C 0.2541 0.35276 0.07223 0.0
C2391 C 0.23917 0.34676 0.08495 0.0
C2392 C 0.22898 0.3289 0.09083 0.0
C2393 C 0.23392 0.31702 0.08367 0.0
H2394 H 0.72218 0.67003 0.35108 0.0
H2395 H 0.70582 0.69497 0.39967 0.0
H2396 H 0.72256 0.69143 0.42829 0.0
H2397 H 0.72034 0.63804 0.38639 0.0
H2398 H 0.73928 0.6392 0.3751 0.0
H2399 H 0.72641 0.64411 0.3581 0.0
H2400 H 0.75329 0.6746 0.34974 0.0
H2401 H 0.76626 0.66973 0.36658 0.0
H2402 H 0.76569 0.68928 0.37232 0.0
H2403 H 0.73982 0.68397 0.45198 0.0
H2404 H 0.75782 0.67444 0.46892 0.0
H2405 H 0.76402 0.65547 0.40471 0.0
C2406 C 0.7222 0.67485 0.3677 0.0
C2407 C 0.71266 0.68275 0.37312 0.0
C2408 C 0.71304 0.68889 0.39508 0.0
C2409 C 0.72249 0.68692 0.41149 0.0
C2410 C 0.73157 0.67889 0.40565 0.0
C2411 C 0.73165 0.67308 0.38427 0.0
C2412 C 0.74247 0.66485 0.38245 0.0
C2413 C 0.73146 0.6454 0.37508 0.0
C2414 C 0.75784 0.67524 0.36685 0.0
C2415 C 0.74832 0.66681 0.40619 0.0
C2416 C 0.74185 0.6749 0.41928 0.0
C2417 C 0.74515 0.67781 0.44186 0.0
C2418 C 0.75548 0.67243 0.4513 0.0
C2419 C 0.7625 0.66434 0.43815 0.0
C2420 C 0.75877 0.66148 0.41529 0.0
H2421 H 0.33627 0.04728 0.34592 0.0
H2422 H 0.33864 0.0163 0.39789 0.0
H2423 H 0.34847 0.04135 0.4242 0.0
H2424 H 0.37335 0.08921 0.36284 0.0
H2425 H 0.36354 0.10151 0.35636 0.0
H2426 H 0.3574 0.08141 0.34124 0.0
H2427 H 0.32542 0.0689 0.35155 0.0
H2428 H 0.33145 0.08897 0.36662 0.0
H2429 H 0.31952 0.06823 0.38021 0.0
H2430 H 0.35832 0.06974 0.44479 0.0
H2431 H 0.36504 0.09883 0.45914 0.0
H2432 H 0.35496 0.11093 0.39442 0.0
C2433 C 0.33895 0.04582 0.36281 0.0
C2434 C 0.33679 0.02989 0.36985 0.0
C2435 C 0.34019 0.02838 0.39215 0.0
C2436 C 0.34586 0.04256 0.4072 0.0
C2437 C 0.34789 0.05809 0.39974 0.0
C2438 C 0.34437 0.05977 0.37816 0.0
C2439 C 0.34681 0.07762 0.37472 0.0
C2440 C 0.36113 0.08805 0.35779 0.0
C2441 C 0.32978 0.07581 0.36788 0.0
C2442 C 0.35223 0.08569 0.39774 0.0
C2443 C 0.35299 0.07428 0.41184 0.0
C2444 C 0.35777 0.0788 0.43392 0.0
C2445 C 0.36165 0.09535 0.44189 0.0
C2446 C 0.36052 0.10706 0.42787 0.0
C2447 C 0.35585 0.10217 0.40549 0.0
H2448 H 0.96011 0.31902 0.36705 0.0
H2449 H 0.99337 0.29806 0.37083 0.0
H2450 H 0.96975 0.27129 0.3876 0.0
H2451 H 0.93866 0.30274 0.41872 0.0
H2452 H 0.91795 0.29761 0.40888 0.0
H2453 H 0.93736 0.31508 0.39669 0.0
H2454 H 0.92685 0.30022 0.358 0.0
H2455 H 0.9074 0.2827 0.37007 0.0
H2456 H 0.92095 0.27772 0.35359 0.0
H2457 H 0.9429 0.24708 0.40451 0.0
H2458 H 0.91443 0.22697 0.42083 0.0
H2459 H 0.89828 0.26325 0.40563 0.0
C2460 C 0.96241 0.30878 0.37135 0.0
C2461 C 0.97861 0.31066 0.36761 0.0
C2462 C 0.98109 0.29695 0.37352 0.0
C2463 C 0.96775 0.28167 0.38305 0.0
C2464 C 0.95198 0.28026 0.38654 0.0
C2465 C 0.94922 0.29341 0.38089 0.0
C2466 C 0.93107 0.28862 0.38668 0.0
C2467 C 0.93128 0.30179 0.40376 0.0
C2468 C 0.92098 0.28723 0.36584 0.0
C2469 C 0.92413 0.27077 0.39658 0.0
C2470 C 0.9364 0.2662 0.39627 0.0
C2471 C 0.93312 0.25044 0.40472 0.0
C2472 C 0.91687 0.23906 0.41382 0.0
C2473 C 0.90406 0.24345 0.41439 0.0
C2474 C 0.90781 0.25954 0.40557 0.0
H2475 H 0.00368 0.3702 0.27599 0.0
H2476 H 0.02855 0.39753 0.3375 0.0
H2477 H 0.02727 0.42305 0.32635 0.0
H2478 H 0.02512 0.40751 0.24175 0.0
H2479 H 0.00658 0.40103 0.22472 0.0
H2480 H 0.00886 0.38457 0.23777 0.0
H2481 H 0.979 0.37208 0.25626 0.0
H2482 H 0.9766 0.38849 0.24323 0.0
H2483 H 0.9748 0.3865 0.27281 0.0
H2484 H 0.02432 0.44594 0.3082 0.0
H2485 H 0.01915 0.4646 0.28445 0.0
H2486 H 0.99607 0.42255 0.23472 0.0
C2487 C 0.00876 0.3815 0.28719 0.0
C2488 C 0.01622 0.38185 0.30763 0.0
C2489 C 0.02276 0.39693 0.32177 0.0
C2490 C 0.02209 0.4115 0.31559 0.0
C2491 C 0.0148 0.41078 0.29527 0.0
C2492 C 0.00817 0.39617 0.28131 0.0
C2493 C 0.00124 0.39893 0.26025 0.0
C2494 C 0.01104 0.39796 0.23993 0.0
C2495 C 0.98175 0.38571 0.25802 0.0
C2496 C 0.00516 0.41744 0.2645 0.0
C2497 C 0.01299 0.42401 0.28481 0.0
C2498 C 0.01817 0.44094 0.29228 0.0
C2499 C 0.01528 0.45147 0.27862 0.0
C2500 C 0.00727 0.44504 0.25772 0.0
C2501 C 0.00208 0.42775 0.25068 0.0
H2502 H 0.61425 0.62746 0.33761 0.0
H2503 H 0.65977 0.64648 0.29645 0.0
H2504 H 0.64441 0.61967 0.27298 0.0
H2505 H 0.60051 0.58091 0.3341 0.0
H2506 H 0.57794 0.57346 0.33308 0.0
H2507 H 0.59281 0.59371 0.34759 0.0
H2508 H 0.58281 0.61033 0.32389 0.0
H2509 H 0.56797 0.59017 0.30928 0.0
H2510 H 0.58378 0.60899 0.2942 0.0
H2511 H 0.62386 0.59207 0.25259 0.0
H2512 H 0.5993 0.56495 0.23661 0.0
H2513 H 0.56716 0.56302 0.29144 0.0
C2514 C 0.62105 0.6259 0.32381 0.0
C2515 C 0.63822 0.63908 0.31889 0.0
C2516 C 0.64661 0.63658 0.30057 0.0
C2517 C 0.63802 0.62138 0.28714 0.0
C2518 C 0.62107 0.60875 0.29229 0.0
C2519 C 0.61266 0.61077 0.3102 0.0
C2520 C 0.5942 0.59542 0.31154 0.0
C2521 C 0.5912 0.58528 0.33284 0.0
C2522 C 0.58144 0.6016 0.30961 0.0
C2523 C 0.59351 0.58467 0.29135 0.0
C2524 C 0.60918 0.59257 0.28059 0.0
C2525 C 0.61159 0.58557 0.26105 0.0
C2526 C 0.59756 0.57007 0.25219 0.0
C2527 C 0.58131 0.56167 0.2629 0.0
C2528 C 0.57937 0.56909 0.28283 0.0
H2529 H 0.36538 0.99906 0.276 0.0
H2530 H 0.36753 0.97869 0.33924 0.0
H2531 H 0.39539 0.98227 0.32882 0.0
H2532 H 0.38354 0.97828 0.24384 0.0
H2533 H 0.39547 0.9966 0.22588 0.0
H2534 H 0.37573 0.99256 0.23837 0.0
H2535 H 0.39182 0.02426 0.25509 0.0
H2536 H 0.41163 0.02837 0.24272 0.0
H2537 H 0.41058 0.03161 0.27208 0.0
H2538 H 0.42303 0.98823 0.31179 0.0
H2539 H 0.44842 0.99561 0.28888 0.0
H2540 H 0.42801 0.01147 0.23638 0.0
C2541 C 0.3717 0.99535 0.28767 0.0
C2542 C 0.36427 0.98861 0.30845 0.0
C2543 C 0.37295 0.98387 0.32321 0.0
C2544 C 0.3888 0.98588 0.31747 0.0
C2545 C 0.39577 0.9926 0.2969 0.0
C2546 C 0.3875 0.99722 0.28219 0.0
C2547 C 0.39773 0.00398 0.26104 0.0
C2548 C 0.38751 0.99215 0.24111 0.0
C2549 C 0.40327 0.0232 0.25754 0.0
C2550 C 0.41305 0.00245 0.26619 0.0
C2551 C 0.41167 0.99589 0.28698 0.0
C2552 C 0.42423 0.9933 0.29544 0.0
C2553 C 0.43855 0.99744 0.28224 0.0
C2554 C 0.44018 0.00404 0.26078 0.0
C2555 C 0.42724 0.00662 0.25278 0.0
H2556 H 0.61514 0.9812 0.30357 0.0
H2557 H 0.63966 0.02823 0.34576 0.0
H2558 H 0.62481 0.03992 0.32556 0.0
H2559 H 0.61663 0.00234 0.25321 0.0
H2560 H 0.59577 0.98483 0.24371 0.0
H2561 H 0.60847 0.98008 0.26128 0.0
H2562 H 0.58324 0.96551 0.28918 0.0
H2563 H 0.57044 0.97013 0.27165 0.0
H2564 H 0.57407 0.97776 0.30008 0.0
H2565 H 0.60773 0.04683 0.30063 0.0
H2566 H 0.58791 0.04756 0.27405 0.0
H2567 H 0.57398 0.99596 0.24832 0.0
C2568 C 0.61737 0.99394 0.30856 0.0
C2569 C 0.6286 0.0038 0.32625 0.0
C2570 C 0.6311 0.02039 0.33232 0.0
C2571 C 0.62277 0.0272 0.32089 0.0
C2572 C 0.61189 0.01723 0.30348 0.0
C2573 C 0.60903 0.0009 0.29743 0.0
C2574 C 0.59636 0.99274 0.27841 0.0
C2575 C 0.60482 0.98983 0.25794 0.0
C2576 C 0.58006 0.97552 0.28525 0.0
C2577 C 0.59256 0.00703 0.27477 0.0
C2578 C 0.60176 0.0211 0.2893 0.0
C2579 C 0.60046 0.0359 0.28914 0.0
C2580 C 0.58926 0.03625 0.27389 0.0
C2581 C 0.57944 0.02185 0.25909 0.0
C2582 C 0.58124 0.00712 0.25952 0.0
H2583 H 0.00342 0.64577 0.30412 0.0
H2584 H 0.0127 0.63293 0.36889 0.0
H2585 H 0.01235 0.60713 0.3526 0.0
H2586 H 0.97373 0.60107 0.28608 0.0
H2587 H 0.9811 0.60464 0.25785 0.0
H2588 H 0.98268 0.62246 0.27444 0.0
H2589 H 0.01544 0.6413 0.26648 0.0
H2590 H 0.01396 0.62353 0.24986 0.0
H2591 H 0.02888 0.63278 0.27266 0.0
H2592 H 0.01174 0.58329 0.32927 0.0
H2593 H 0.00894 0.56163 0.30067 0.0
H2594 H 0.99842 0.5889 0.2514 0.0
C2595 C 0.00547 0.63756 0.31483 0.0
C2596 C 0.00819 0.64136 0.33773 0.0
C2597 C 0.01057 0.63021 0.3513 0.0
C2598 C 0.01045 0.61558 0.34219 0.0
C2599 C 0.00771 0.61218 0.31956 0.0
C2600 C 0.0051 0.62273 0.30607 0.0
C2601 C 0.00184 0.61578 0.28239 0.0
C2602 C 0.98376 0.61068 0.27475 0.0
C2603 C 0.01587 0.62914 0.26694 0.0
C2604 C 0.00312 0.59972 0.28468 0.0
C2605 C 0.00668 0.59799 0.30623 0.0
C2606 C 0.00888 0.58444 0.31237 0.0
C2607 C 0.00733 0.57226 0.29605 0.0
C2608 C 0.00343 0.57363 0.27396 0.0
C2609 C 0.00126 0.58751 0.26824 0.0
H2610 H 0.38012 0.3938 0.32913 0.0
H2611 H 0.35326 0.34737 0.28616 0.0
H2612 H 0.37597 0.36197 0.25812 0.0
H2613 H 0.39442 0.42547 0.2867 0.0
H2614 H 0.41509 0.44037 0.29925 0.0
H2615 H 0.39687 0.42621 0.31627 0.0
H2616 H 0.41393 0.41365 0.33321 0.0
H2617 H 0.43224 0.42783 0.31632 0.0
H2618 H 0.42325 0.40444 0.31523 0.0
H2619 H 0.40108 0.38178 0.23426 0.0
H2620 H 0.42739 0.40534 0.21658 0.0
H2621 H 0.43845 0.43852 0.27544 0.0
C2622 C 0.37904 0.38668 0.31387 0.0
C2623 C 0.36489 0.36943 0.30988 0.0
C2624 C 0.36398 0.36058 0.28965 0.0
C2625 C 0.37681 0.36876 0.27358 0.0
C2626 C 0.39052 0.38578 0.27798 0.0
C2627 C 0.39179 0.39462 0.29765 0.0
C2628 C 0.40788 0.41285 0.29817 0.0
C2629 C 0.40328 0.42706 0.30022 0.0
C2630 C 0.42004 0.4148 0.31684 0.0
C2631 C 0.41536 0.41287 0.27567 0.0
C2632 C 0.40515 0.39714 0.2643 0.0
C2633 C 0.40928 0.39413 0.24307 0.0
C2634 C 0.4243 0.40756 0.23321 0.0
C2635 C 0.43506 0.42379 0.24461 0.0
C2636 C 0.43044 0.42638 0.26615 0.0
H2637 H 0.35883 0.30851 0.37176 0.0
H2638 H 0.30293 0.28086 0.37183 0.0
H2639 H 0.30157 0.2559 0.38996 0.0
H2640 H 0.36172 0.2703 0.36035 0.0
H2641 H 0.38015 0.2778 0.378 0.0
H2642 H 0.37677 0.29351 0.36485 0.0
H2643 H 0.37781 0.30791 0.40303 0.0
H2644 H 0.38114 0.29221 0.4163 0.0
H2645 H 0.3634 0.29455 0.42459 0.0
H2646 H 0.30618 0.23434 0.40888 0.0
H2647 H 0.31646 0.21718 0.42672 0.0
H2648 H 0.36935 0.25833 0.4133 0.0
C2649 C 0.34629 0.2972 0.37554 0.0
C2650 C 0.33098 0.29666 0.37039 0.0
C2651 C 0.31484 0.28159 0.37559 0.0
C2652 C 0.31392 0.26734 0.38591 0.0
C2653 C 0.32925 0.26833 0.39083 0.0
C2654 C 0.34513 0.28282 0.38576 0.0
C2655 C 0.35963 0.28051 0.39286 0.0
C2656 C 0.37019 0.28052 0.37282 0.0
C2657 C 0.37117 0.29463 0.41023 0.0
C2658 C 0.3494 0.2625 0.40282 0.0
C2659 C 0.33191 0.25573 0.40148 0.0
C2660 C 0.31985 0.23942 0.40985 0.0
C2661 C 0.32583 0.22972 0.41982 0.0
C2662 C 0.34372 0.2363 0.42125 0.0
C2663 C 0.35561 0.25295 0.41261 0.0
H2664 H 0.71798 0.04242 0.34517 0.0
H2665 H 0.67968 0.0172 0.39679 0.0
H2666 H 0.6967 0.04294 0.42147 0.0
H2667 H 0.7551 0.06259 0.38153 0.0
H2668 H 0.76674 0.08243 0.36602 0.0
H2669 H 0.75157 0.06196 0.35222 0.0
H2670 H 0.73531 0.07606 0.33728 0.0
H2671 H 0.75038 0.09656 0.35111 0.0
H2672 H 0.72762 0.08625 0.35639 0.0
H2673 H 0.7172 0.07146 0.44032 0.0
H2674 H 0.74101 0.10067 0.45296 0.0
H2675 H 0.76643 0.10748 0.38967 0.0
C2676 C 0.71321 0.04229 0.36168 0.0
C2677 C 0.69747 0.02778 0.369 0.0
C2678 C 0.6917 0.02812 0.39077 0.0
C2679 C 0.70125 0.04271 0.40494 0.0
C2680 C 0.71661 0.05683 0.39718 0.0
C2681 C 0.72266 0.05674 0.37616 0.0
C2682 C 0.73969 0.07363 0.3721 0.0
C2683 C 0.75413 0.06992 0.36771 0.0
C2684 C 0.73815 0.08372 0.35309 0.0
C2685 C 0.74218 0.0832 0.3941 0.0
C2686 C 0.72865 0.07329 0.40826 0.0
C2687 C 0.72789 0.07937 0.42941 0.0
C2688 C 0.74139 0.09601 0.43638 0.0
C2689 C 0.75551 0.10634 0.42227 0.0
C2690 C 0.75585 0.09981 0.40085 0.0
H2691 H 0.96388 0.68686 0.3778 0.0
H2692 H 0.94678 0.63612 0.34619 0.0
H2693 H 0.91809 0.62404 0.3632 0.0
H2694 H 0.94175 0.6712 0.42852 0.0
H2695 H 0.93608 0.68761 0.43157 0.0
H2696 H 0.95518 0.69245 0.41651 0.0
H2697 H 0.94421 0.70048 0.38234 0.0
H2698 H 0.92513 0.69579 0.39736 0.0
H2699 H 0.92321 0.68481 0.37116 0.0
H2700 H 0.89205 0.61698 0.38578 0.0
H2701 H 0.86966 0.61592 0.40998 0.0
H2702 H 0.90292 0.67194 0.42432 0.0
C2703 C 0.95406 0.67324 0.37437 0.0
C2704 C 0.95755 0.6624 0.36075 0.0
C2705 C 0.94436 0.64467 0.35652 0.0
C2706 C 0.92804 0.63768 0.36615 0.0
C2707 C 0.92508 0.64866 0.37969 0.0
C2708 C 0.93763 0.66612 0.38356 0.0
C2709 C 0.93105 0.67512 0.39862 0.0
C2710 C 0.94165 0.682 0.42007 0.0
C2711 C 0.93088 0.68992 0.38665 0.0
C2712 C 0.91294 0.6599 0.40292 0.0
C2713 C 0.90979 0.64475 0.39195 0.0
C2714 C 0.89425 0.62884 0.39415 0.0
C2715 C 0.88154 0.62842 0.40785 0.0
C2716 C 0.88432 0.64387 0.419 0.0
C2717 C 0.9003 0.65981 0.41632 0.0
H2718 H 0.35907 0.98499 0.71841 0.0
H2719 H 0.38743 0.04203 0.71799 0.0
H2720 H 0.41191 0.04317 0.73639 0.0
H2721 H 0.37361 0.98134 0.77164 0.0
H2722 H 0.37502 0.96261 0.76353 0.0
H2723 H 0.3597 0.96625 0.75026 0.0
H2724 H 0.37261 0.96568 0.71207 0.0
H2725 H 0.388 0.96207 0.72523 0.0
H2726 H 0.39534 0.98041 0.70733 0.0
H2727 H 0.43321 0.03819 0.75498 0.0
H2728 H 0.45004 0.02736 0.77235 0.0
H2729 H 0.40785 0.9736 0.76073 0.0
C2730 C 0.37042 0.99773 0.72219 0.0
C2731 C 0.37132 0.01343 0.71676 0.0
C2732 C 0.38643 0.02982 0.72197 0.0
C2733 C 0.40041 0.03061 0.73242 0.0
C2734 C 0.3991 0.0149 0.73752 0.0
C2735 C 0.38451 0.99877 0.73258 0.0
C2736 C 0.38643 0.98385 0.73983 0.0
C2737 C 0.37289 0.97287 0.75736 0.0
C2738 C 0.38555 0.97233 0.71993 0.0
C2739 C 0.40437 0.99414 0.74964 0.0
C2740 C 0.41143 0.01203 0.74817 0.0
C2741 C 0.42781 0.02421 0.75627 0.0
C2742 C 0.43723 0.01794 0.7662 0.0
C2743 C 0.43024 0.99965 0.76792 0.0
C2744 C 0.41361 0.98765 0.75944 0.0
H2745 H 0.02122 0.38432 0.70066 0.0
H2746 H 0.96794 0.34268 0.71051 0.0
H2747 H 0.96276 0.36343 0.73165 0.0
H2748 H 0.02804 0.40425 0.75354 0.0
H2749 H 0.04126 0.42648 0.7443 0.0
H2750 H 0.04059 0.40873 0.72863 0.0
H2751 H 0.03143 0.41778 0.69367 0.0
H2752 H 0.03224 0.43568 0.70918 0.0
H2753 H 0.0128 0.41977 0.69477 0.0
H2754 H 0.96396 0.38803 0.75414 0.0
H2755 H 0.97097 0.41523 0.77455 0.0
H2756 H 0.02315 0.4412 0.74876 0.0
C2757 C 0.0084 0.3796 0.707 0.0
C2758 C 0.99499 0.36186 0.70393 0.0
C2759 C 0.97841 0.35622 0.71258 0.0
C2760 C 0.97534 0.3679 0.72466 0.0
C2761 C 0.98893 0.3852 0.72777 0.0
C2762 C 0.00508 0.3911 0.71899 0.0
C2763 C 0.01756 0.41026 0.72515 0.0
C2764 C 0.03276 0.41255 0.73871 0.0
C2765 C 0.02387 0.42154 0.70446 0.0
C2766 C 0.00599 0.41411 0.73911 0.0
C2767 C 0.98953 0.39949 0.74039 0.0
C2768 C 0.97674 0.39965 0.75298 0.0
C2769 C 0.98084 0.41522 0.76444 0.0
C2770 C 0.99759 0.43048 0.76317 0.0
C2771 C 0.01027 0.42979 0.75027 0.0
H2772 H 0.62946 0.6187 0.68283 0.0
H2773 H 0.65428 0.65954 0.7339 0.0
H2774 H 0.63048 0.64153 0.7594 0.0
H2775 H 0.58644 0.60702 0.69534 0.0
H2776 H 0.57709 0.58384 0.68983 0.0
H2777 H 0.59646 0.59959 0.67574 0.0
H2778 H 0.61199 0.58446 0.68985 0.0
H2779 H 0.59266 0.56866 0.70399 0.0
H2780 H 0.61258 0.58153 0.71907 0.0
H2781 H 0.60385 0.61961 0.77913 0.0
H2782 H 0.57582 0.59506 0.7918 0.0
H2783 H 0.56788 0.56863 0.72786 0.0
C2784 C 0.62995 0.62379 0.69942 0.0
C2785 C 0.64375 0.64053 0.70635 0.0
C2786 C 0.64383 0.64677 0.72817 0.0
C2787 C 0.63039 0.63663 0.74282 0.0
C2788 C 0.61694 0.62027 0.73543 0.0
C2789 C 0.61658 0.61386 0.71427 0.0
C2790 C 0.60034 0.59604 0.71036 0.0
C2791 C 0.58944 0.59667 0.69172 0.0
C2792 C 0.60466 0.58183 0.70554 0.0
C2793 C 0.59161 0.59352 0.73258 0.0
C2794 C 0.60145 0.60763 0.74681 0.0
C2795 C 0.59601 0.60847 0.76815 0.0
C2796 C 0.58002 0.59453 0.77514 0.0
C2797 C 0.56962 0.57996 0.7608 0.0
C2798 C 0.5756 0.57948 0.73928 0.0
H2799 H 0.67874 0.72702 0.65495 0.0
H2800 H 0.65205 0.68063 0.61187 0.0
H2801 H 0.64237 0.69581 0.58857 0.0
H2802 H 0.6465 0.73888 0.65192 0.0
H2803 H 0.66205 0.76219 0.65202 0.0
H2804 H 0.66696 0.74771 0.66557 0.0
H2805 H 0.6947 0.75962 0.6421 0.0
H2806 H 0.68986 0.7741 0.62845 0.0
H2807 H 0.6932 0.75888 0.6124 0.0
H2808 H 0.63624 0.716 0.56923 0.0
H2809 H 0.63334 0.73988 0.55548 0.0
H2810 H 0.6628 0.773 0.6117 0.0
C2811 C 0.67085 0.72007 0.64063 0.0
C2812 C 0.66619 0.70263 0.63524 0.0
C2813 C 0.65579 0.69397 0.61639 0.0
C2814 C 0.65022 0.70249 0.603 0.0
C2815 C 0.65506 0.71965 0.6087 0.0
C2816 C 0.66505 0.72836 0.62709 0.0
C2817 C 0.66831 0.74677 0.62945 0.0
C2818 C 0.66048 0.74901 0.65102 0.0
C2819 C 0.68767 0.76066 0.62801 0.0
C2820 C 0.65869 0.74704 0.60942 0.0
C2821 C 0.65118 0.73125 0.5977 0.0
C2822 C 0.6419 0.72838 0.57837 0.0
C2823 C 0.64022 0.74201 0.57079 0.0
C2824 C 0.64767 0.75833 0.58257 0.0
C2825 C 0.65703 0.76078 0.60218 0.0
H2826 H 0.27651 0.96395 0.67492 0.0
H2827 H 0.32152 0.98686 0.63234 0.0
H2828 H 0.30621 0.96172 0.60615 0.0
H2829 H 0.26414 0.91867 0.66585 0.0
H2830 H 0.24138 0.91041 0.66607 0.0
H2831 H 0.25598 0.93009 0.68174 0.0
H2832 H 0.24462 0.94705 0.66144 0.0
H2833 H 0.23001 0.92745 0.64567 0.0
H2834 H 0.24508 0.94729 0.63168 0.0
H2835 H 0.28596 0.93442 0.58424 0.0
H2836 H 0.26201 0.90673 0.56809 0.0
H2837 H 0.2303 0.90138 0.62504 0.0
C2838 C 0.28318 0.96366 0.66014 0.0
C2839 C 0.30023 0.97739 0.65573 0.0
C2840 C 0.30847 0.97651 0.63613 0.0
C2841 C 0.29989 0.96228 0.62112 0.0
C2842 C 0.28308 0.94902 0.62593 0.0
C2843 C 0.27481 0.94955 0.64496 0.0
C2844 C 0.25664 0.93367 0.64604 0.0
C2845 C 0.25441 0.92255 0.66611 0.0
C2846 C 0.2433 0.9392 0.64621 0.0
C2847 C 0.25599 0.92419 0.6246 0.0
C2848 C 0.27139 0.93325 0.61328 0.0
C2849 C 0.27386 0.92715 0.593 0.0
C2850 C 0.26022 0.91136 0.58402 0.0
C2851 C 0.24429 0.90184 0.59532 0.0
C2852 C 0.24224 0.90842 0.61589 0.0
H2853 H 0.03492 0.33274 0.61235 0.0
H2854 H 0.04765 0.33716 0.68197 0.0
H2855 H 0.0778 0.34739 0.67217 0.0
H2856 H 0.06079 0.31603 0.59418 0.0
H2857 H 0.06717 0.32779 0.56873 0.0
H2858 H 0.04684 0.32178 0.58123 0.0
H2859 H 0.05541 0.35436 0.58162 0.0
H2860 H 0.07577 0.36047 0.56907 0.0
H2861 H 0.07525 0.37089 0.59474 0.0
H2862 H 0.10633 0.35626 0.65474 0.0
H2863 H 0.13099 0.36238 0.63094 0.0
H2864 H 0.09954 0.35208 0.57275 0.0
C2865 C 0.04407 0.33601 0.62557 0.0
C2866 C 0.03894 0.3342 0.64794 0.0
C2867 C 0.05128 0.33844 0.66471 0.0
C2868 C 0.06845 0.3443 0.65932 0.0
C2869 C 0.07304 0.34582 0.63709 0.0
C2870 C 0.06121 0.34178 0.62048 0.0
C2871 C 0.06929 0.34391 0.59788 0.0
C2872 C 0.0605 0.32633 0.58474 0.0
C2873 C 0.06891 0.35826 0.58508 0.0
C2874 C 0.08749 0.34961 0.60436 0.0
C2875 C 0.08942 0.35077 0.62705 0.0
C2876 C 0.10501 0.35552 0.63695 0.0
C2877 C 0.11896 0.35906 0.6233 0.0
C2878 C 0.11721 0.35776 0.59999 0.0
C2879 C 0.10125 0.35307 0.5905 0.0
H2880 H 0.29349 0.31939 0.61766 0.0
H2881 H 0.28198 0.32248 0.68686 0.0
H2882 H 0.26274 0.33273 0.67627 0.0
H2883 H 0.29469 0.35784 0.60115 0.0
H2884 H 0.2848 0.34863 0.57466 0.0
H2885 H 0.29731 0.34116 0.58769 0.0
H2886 H 0.27129 0.30905 0.58516 0.0
H2887 H 0.25873 0.31642 0.57203 0.0
H2888 H 0.25087 0.30381 0.59676 0.0
H2889 H 0.24534 0.34342 0.65797 0.0
H2890 H 0.23025 0.35254 0.63338 0.0
H2891 H 0.25341 0.34244 0.57635 0.0
C2892 C 0.28687 0.32212 0.63064 0.0
C2893 C 0.28924 0.32013 0.65311 0.0
C2894 C 0.28033 0.32387 0.66953 0.0
C2895 C 0.26941 0.32973 0.66368 0.0
C2896 C 0.26751 0.33172 0.64136 0.0
C2897 C 0.27593 0.32793 0.6251 0.0
C2898 C 0.27179 0.33121 0.60232 0.0
C2899 C 0.28812 0.34556 0.59079 0.0
C2900 C 0.26262 0.3141 0.58824 0.0
C2901 C 0.25975 0.33749 0.60828 0.0
C2902 C 0.25747 0.33775 0.63086 0.0
C2903 C 0.24703 0.34326 0.64026 0.0
C2904 C 0.23861 0.34852 0.62618 0.0
C2905 C 0.24066 0.34821 0.60296 0.0
C2906 C 0.25143 0.34265 0.59401 0.0
H2907 H 0.66715 0.97766 0.63006 0.0
H2908 H 0.68196 0.9697 0.69439 0.0
H2909 H 0.67712 0.94114 0.68111 0.0
H2910 H 0.63319 0.93272 0.6201 0.0
H2911 H 0.63755 0.93286 0.59095 0.0
H2912 H 0.64247 0.9529 0.60529 0.0
H2913 H 0.67415 0.96805 0.59199 0.0
H2914 H 0.6693 0.94809 0.57753 0.0
H2915 H 0.68648 0.95817 0.59757 0.0
H2916 H 0.6711 0.91377 0.66093 0.0
H2917 H 0.66381 0.88893 0.63508 0.0
H2918 H 0.65215 0.91415 0.58415 0.0
C2919 C 0.66945 0.96994 0.64132 0.0
C2920 C 0.67498 0.97592 0.66325 0.0
C2921 C 0.67771 0.96538 0.67753 0.0
C2922 C 0.67501 0.94915 0.67014 0.0
C2923 C 0.66947 0.94359 0.6485 0.0
C2924 C 0.66667 0.95362 0.63429 0.0
C2925 C 0.66053 0.94447 0.6119 0.0
C2926 C 0.64236 0.9405 0.60677 0.0
C2927 C 0.67338 0.95535 0.59367 0.0
C2928 C 0.66038 0.92777 0.61575 0.0
C2929 C 0.66564 0.92758 0.63695 0.0
C2930 C 0.66692 0.91373 0.6443 0.0
C2931 C 0.66282 0.89974 0.62951 0.0
C2932 C 0.65741 0.89966 0.6077 0.0
C2933 C 0.65606 0.91381 0.60083 0.0
H2934 H 0.02795 0.69665 0.64071 0.0
H2935 H 0.03706 0.72257 0.70522 0.0
H2936 H 0.06555 0.74643 0.69269 0.0
H2937 H 0.07204 0.70787 0.63122 0.0
H2938 H 0.07133 0.7111 0.60212 0.0
H2939 H 0.0519 0.69572 0.61643 0.0
H2940 H 0.03719 0.71194 0.60326 0.0
H2941 H 0.05656 0.72737 0.58895 0.0
H2942 H 0.04724 0.73517 0.60913 0.0
H2943 H 0.09227 0.76823 0.67258 0.0
H2944 H 0.11593 0.786 0.64654 0.0
H2945 H 0.08967 0.74561 0.59546 0.0
C2946 C 0.03597 0.70728 0.65227 0.0
C2947 C 0.03027 0.70776 0.67395 0.0
C2948 C 0.04116 0.7219 0.68855 0.0
C2949 C 0.05737 0.73552 0.68159 0.0
C2950 C 0.06252 0.73472 0.66005 0.0
C2951 C 0.05221 0.72091 0.64565 0.0
C2952 C 0.06068 0.72336 0.62326 0.0
C2953 C 0.0642 0.70864 0.61795 0.0
C2954 C 0.04976 0.72453 0.60508 0.0
C2955 C 0.07727 0.74082 0.62723 0.0
C2956 C 0.07807 0.74715 0.64856 0.0
C2957 C 0.09185 0.76336 0.65588 0.0
C2958 C 0.10516 0.77338 0.64098 0.0
C2959 C 0.1046 0.76712 0.61907 0.0
C2960 C 0.09051 0.75058 0.61221 0.0
H2961 H 0.01391 0.63277 0.70034 0.0
H2962 H 0.96227 0.61928 0.71885 0.0
H2963 H 0.95911 0.59538 0.74151 0.0
H2964 H 0.00472 0.58837 0.69643 0.0
H2965 H 0.0252 0.59401 0.70778 0.0
H2966 H 0.02341 0.61004 0.6928 0.0
H2967 H 0.03587 0.63174 0.72642 0.0
H2968 H 0.03767 0.61576 0.74152 0.0
H2969 H 0.02567 0.62492 0.75302 0.0
H2970 H 0.96151 0.57313 0.76229 0.0
H2971 H 0.96944 0.55394 0.78008 0.0
H2972 H 0.01938 0.58168 0.74794 0.0
C2973 C 0.00192 0.62477 0.70911 0.0
C2974 C 0.98834 0.6279 0.70779 0.0
C2975 C 0.97287 0.61715 0.71958 0.0
C2976 C 0.97093 0.60353 0.73251 0.0
C2977 C 0.98457 0.60082 0.73348 0.0
C2978 C -0.00023 0.61111 0.72212 0.0
C2979 C 0.01246 0.60547 0.72613 0.0
C2980 C 0.01669 0.59909 0.7045 0.0
C2981 C 0.02889 0.62036 0.73745 0.0
C2982 C 0.00202 0.59044 0.74156 0.0
C2983 C 0.98597 0.58796 0.74554 0.0
C2984 C 0.97402 0.57488 0.75925 0.0
C2985 C 0.9786 0.564 0.76917 0.0
C2986 C 0.99499 0.56628 0.76532 0.0
C2987 C 0.00682 0.57972 0.75135 0.0
H2988 H 0.36114 0.35888 0.71553 0.0
H2989 H 0.37819 0.36473 0.64733 0.0
H2990 H 0.40296 0.39446 0.65664 0.0
H2991 H 0.37168 0.40325 0.72419 0.0
H2992 H 0.37844 0.40474 0.75239 0.0
H2993 H 0.36239 0.38379 0.74045 0.0
H2994 H 0.38093 0.37084 0.75031 0.0
H2995 H 0.397 0.39172 0.76237 0.0
H2996 H 0.40294 0.38152 0.74091 0.0
H2997 H 0.42628 0.4233 0.6738 0.0
H2998 H 0.44565 0.44949 0.69721 0.0
H2999 H 0.41235 0.42505 0.75352 0.0
C3000 C 0.37014 0.36635 0.70255 0.0
C3001 C 0.36783 0.35947 0.68072 0.0
C3002 C 0.37975 0.36976 0.66417 0.0
C3003 C 0.39384 0.38664 0.6693 0.0
C3004 C 0.39569 0.39305 0.69099 0.0
C3005 C 0.3841 0.38326 0.70731 0.0
C3006 C 0.38873 0.39329 0.72921 0.0
C3007 C 0.37446 0.39645 0.73701 0.0
C3008 C 0.39264 0.38377 0.74673 0.0
C3009 C 0.40482 0.41024 0.72272 0.0
C3010 C 0.4087 0.40983 0.70065 0.0
C3011 C 0.4233 0.42382 0.69107 0.0
C3012 C 0.43422 0.43858 0.70444 0.0
C3013 C 0.43035 0.43927 0.72703 0.0
C3014 C 0.41542 0.42495 0.73619 0.0
H3015 H 0.63513 0.00766 0.73871 0.0
H3016 H 0.62546 0.01385 0.67064 0.0
H3017 H 0.59617 0.00658 0.68095 0.0
H3018 H 0.5929 0.97122 0.75052 0.0
H3019 H 0.59264 0.97873 0.77838 0.0
H3020 H 0.61279 0.98439 0.7656 0.0
H3021 H 0.62453 0.01744 0.77336 0.0
H3022 H 0.60442 0.01189 0.78619 0.0
H3023 H 0.61265 0.02685 0.76361 0.0
H3024 H 0.56778 0.99816 0.69867 0.0
H3025 H 0.54277 0.99032 0.72276 0.0
H3026 H 0.57132 0.99004 0.77919 0.0
C3027 C 0.62687 0.00748 0.72593 0.0
C3028 C 0.63256 0.01128 0.70385 0.0
C3029 C 0.62137 0.011 0.68767 0.0
C3030 C 0.60471 0.00686 0.69336 0.0
C3031 C 0.59951 0.00313 0.71528 0.0
C3032 C 0.61029 0.00349 0.73133 0.0
C3033 C 0.60167 0.99918 0.75374 0.0
C3034 C 0.59989 0.98238 0.76257 0.0
C3035 C 0.6114 0.01477 0.77019 0.0
C3036 C 0.58431 0.99627 0.7478 0.0
C3037 C 0.58329 0.99853 0.72552 0.0
C3038 C 0.56844 0.99636 0.71613 0.0
C3039 C 0.55428 0.99181 0.72991 0.0
C3040 C 0.55513 0.98957 0.75281 0.0
C3041 C 0.57037 0.99184 0.76178 0.0
loop_
_geom_bond_atom_site_label_1
_geom_bond_atom_site_label_2
_geom_bond_distance
_geom_bond_site_symmetry_2
_ccdc_geom_bond_type
C0 O1 1.160 . S
C0 O7 1.185 . S
O1 C0 1.160 . S
O2 Zn3 1.899 1_656 S
O2 C10 1.294 . S
Zn3 O2 1.899 1_454 S
Zn3 O4 2.032 . S
Zn3 O7 2.086 . S
Zn3 O12 1.977 1_554 S
O4 Zn3 2.032 . S
O4 C8 1.278 1_455 S
C5 O6 1.203 1_455 S
C5 O12 1.267 . S
O6 C5 1.203 1_655 S
O7 C0 1.185 . S
O7 Zn3 2.086 . S
C8 O4 1.278 1_655 S
C8 O9 1.211 . S
O9 C8 1.211 . S
C10 O2 1.294 . S
C10 O11 1.254 1_556 S
O11 C10 1.254 1_554 S
O12 Zn3 1.977 1_556 S
O12 C5 1.267 . S
C13 O14 1.160 . S
C13 O20 1.185 1_556 S
O14 C13 1.160 . S
O15 Zn16 1.899 . S
O15 C23 1.284 . S
Zn16 O15 1.899 . S
Zn16 O17 2.032 1_554 S
Zn16 O20 2.086 . S
Zn16 O25 1.977 . S
O17 Zn16 2.032 1_556 S
O17 C21 1.278 . S
C18 O19 1.203 . S
C18 O25 1.267 . S
O19 C18 1.203 . S
O20 C13 1.185 1_554 S
O20 Zn16 2.086 . S
C21 O17 1.278 . S
C21 O22 1.211 . S
O22 C21 1.211 . S
C23 O15 1.284 . S
C23 O24 1.273 . S
O24 C23 1.273 . S
O25 Zn16 1.977 . S
O25 C18 1.267 . S
C26 O27 1.160 . S
C26 O33 1.185 1_556 S
O27 C26 1.160 . S
O28 Zn29 1.899 1_565 S
O28 C36 1.284 . S
Zn29 O28 1.899 1_545 S
Zn29 O30 2.032 1_554 S
Zn29 O33 2.086 . S
Zn29 O38 1.977 . S
O30 Zn29 2.032 1_556 S
O30 C34 1.286 . S
C31 O32 1.203 1_545 S
C31 O38 1.267 . S
O32 C31 1.203 1_565 S
O33 C26 1.185 1_554 S
O33 Zn29 2.086 . S
C34 O30 1.286 . S
C34 O35 1.205 1_545 S
O35 C34 1.205 1_565 S
C36 O28 1.284 . S
C36 O37 1.273 . S
O37 C36 1.273 . S
O38 Zn29 1.977 . S
O38 C31 1.267 . S
C39 O40 1.160 . S
C39 O46 1.185 1_556 S
O40 C39 1.160 . S
O41 Zn42 1.899 1_455 S
O41 C49 1.284 . S
Zn42 O41 1.899 1_655 S
Zn42 O43 2.033 1_654 S
Zn42 O46 2.086 . S
Zn42 O51 1.977 . S
O43 Zn42 2.033 1_456 S
O43 C47 1.274 . S
C44 O45 1.203 1_655 S
C44 O51 1.267 . S
O45 C44 1.203 1_455 S
O46 C39 1.185 1_554 S
O46 Zn42 2.086 . S
C47 O43 1.274 . S
C47 O48 1.211 . S
O48 C47 1.211 . S
C49 O41 1.284 . S
C49 O50 1.273 . S
O50 C49 1.273 . S
O51 Zn42 1.977 . S
O51 C44 1.267 . S
C52 O53 1.160 . S
C52 O59 1.185 . S
O53 C52 1.160 . S
O54 Zn55 1.899 1_556 S
O54 C62 1.284 . S
Zn55 O54 1.899 1_554 S
Zn55 O56 2.032 . S
Zn55 O59 2.086 . S
Zn55 O64 1.977 1_554 S
O56 Zn55 2.032 . S
O56 C60 1.278 . S
C57 O58 1.203 . S
C57 O64 1.267 . S
O58 C57 1.203 . S
O59 C52 1.185 . S
O59 Zn55 2.086 . S
C60 O56 1.278 . S
C60 O61 1.211 . S
O61 C60 1.211 . S
C62 O54 1.284 . S
C62 O63 1.273 1_556 S
O63 C62 1.273 1_554 S
O64 Zn55 1.977 1_556 S
O64 C57 1.267 . S
C65 O66 1.160 . S
C65 O72 1.185 . S
O66 C65 1.160 . S
O67 Zn68 1.899 1_546 S
O67 C75 1.284 . S
Zn68 O67 1.899 1_564 S
Zn68 O69 2.021 1_565 S
Zn68 O72 2.086 . S
Zn68 O77 1.977 1_554 S
O69 Zn68 2.021 1_545 S
O69 C73 1.307 . S
C70 O71 1.203 1_565 S
C70 O77 1.267 . S
O71 C70 1.203 1_545 S
O72 C65 1.185 . S
O72 Zn68 2.086 . S
C73 O69 1.307 . S
C73 O74 1.211 . S
O74 C73 1.211 . S
C75 O67 1.284 . S
C75 O76 1.273 1_556 S
O76 C75 1.273 1_554 S
O77 Zn68 1.977 1_556 S
O77 C70 1.267 . S
C78 O79 1.160 . S
C78 O85 1.185 . S
O79 C78 1.160 . S
O80 Zn81 1.899 . S
O80 C88 1.284 . S
Zn81 O80 1.899 . S
Zn81 O82 2.032 . S
Zn81 O85 2.086 . S
Zn81 O90 1.977 . S
O82 Zn81 2.032 . S
O82 C86 1.278 . S
C83 O84 1.203 . S
C83 O90 1.267 . S
O84 C83 1.203 . S
O85 C78 1.185 . S
O85 Zn81 2.086 . S
C86 O82 1.278 . S
C86 O87 1.211 . S
O87 C86 1.211 . S
C88 O80 1.284 . S
C88 O89 1.273 . S
O89 C88 1.273 . S
O90 Zn81 1.977 . S
O90 C83 1.267 . S
C91 O92 1.160 1_565 S
C91 O98 1.185 . S
O92 C91 1.160 1_545 S
O93 Zn94 1.899 1_545 S
O93 C101 1.284 . S
Zn94 O93 1.899 1_565 S
Zn94 O95 2.032 . S
Zn94 O98 2.086 . S
Zn94 O103 1.977 . S
O95 Zn94 2.032 . S
O95 C99 1.278 . S
C96 O97 1.203 . S
C96 O103 1.267 . S
O97 C96 1.203 . S
O98 C91 1.185 . S
O98 Zn94 2.086 . S
C99 O95 1.278 . S
C99 O100 1.211 . S
O100 C99 1.211 . S
C101 O93 1.284 . S
C101 O102 1.273 . S
O102 C101 1.273 . S
O103 Zn94 1.977 . S
O103 C96 1.267 . S
C104 O105 1.160 . S
C104 O111 1.185 . S
O105 C104 1.160 . S
O106 Zn107 1.899 . S
O106 C114 1.284 1_455 S
Zn107 O106 1.899 . S
Zn107 O108 2.032 . S
Zn107 O111 2.086 . S
Zn107 O116 1.977 . S
O108 Zn107 2.032 . S
O108 C112 1.278 . S
C109 O110 1.203 . S
C109 O116 1.267 . S
O110 C109 1.203 . S
O111 C104 1.185 . S
O111 Zn107 2.086 . S
C112 O108 1.278 . S
C112 O113 1.211 . S
O113 C112 1.211 . S
C114 O106 1.284 1_655 S
C114 O115 1.273 1_655 S
O115 C114 1.273 1_455 S
O116 Zn107 1.977 . S
O116 C109 1.267 . S
C117 O118 1.160 1_565 S
C117 O124 1.185 . S
O118 C117 1.160 1_545 S
O119 Zn120 1.899 1_545 S
O119 C127 1.284 . S
Zn120 O119 1.899 1_565 S
Zn120 O121 2.032 . S
Zn120 O124 2.086 . S
Zn120 O129 1.977 . S
O121 Zn120 2.032 . S
O121 C125 1.278 . S
C122 O123 1.203 . S
C122 O129 1.267 . S
O123 C122 1.203 . S
O124 C117 1.185 . S
O124 Zn120 2.086 . S
C125 O121 1.278 . S
C125 O126 1.211 . S
O126 C125 1.211 . S
C127 O119 1.284 . S
C127 O128 1.273 . S
O128 C127 1.273 . S
O129 Zn120 1.977 . S
O129 C122 1.267 . S
C130 O131 1.160 . S
C130 O137 1.185 . S
O131 C130 1.160 . S
O132 Zn133 1.899 . S
O132 C140 1.284 . S
Zn133 O132 1.899 . S
Zn133 O134 2.032 . S
Zn133 O137 2.086 1_455 S
Zn133 O142 1.977 . S
O134 Zn133 2.032 . S
O134 C138 1.278 . S
C135 O136 1.203 . S
C135 O142 1.267 . S
O136 C135 1.203 . S
O137 C130 1.185 . S
O137 Zn133 2.086 1_655 S
C138 O134 1.278 . S
C138 O139 1.211 . S
O139 C138 1.211 . S
C140 O132 1.284 . S
C140 O141 1.273 . S
O141 C140 1.273 . S
O142 Zn133 1.977 . S
O142 C135 1.267 . S
C143 O144 1.160 . S
C143 O150 1.185 . S
O144 C143 1.160 . S
O145 Zn146 1.899 . S
O145 C153 1.284 . S
Zn146 O145 1.899 . S
Zn146 O147 2.032 . S
Zn146 O150 2.086 . S
Zn146 O155 1.977 . S
O147 Zn146 2.032 . S
O147 C151 1.278 . S
C148 O149 1.203 . S
C148 O155 1.267 . S
O149 C148 1.203 . S
O150 C143 1.185 . S
O150 Zn146 2.086 . S
C151 O147 1.278 . S
C151 O152 1.211 . S
O152 C151 1.211 . S
C153 O145 1.284 . S
C153 O154 1.273 . S
O154 C153 1.273 . S
O155 Zn146 1.977 . S
O155 C148 1.267 . S
C156 O157 1.160 . S
C156 O163 1.185 . S
O157 C156 1.160 . S
O158 Zn159 1.902 1_565 S
O158 C166 1.285 . S
Zn159 O158 1.902 1_545 S
Zn159 O160 2.032 . S
Zn159 O163 2.086 . S
Zn159 O168 1.977 . S
O160 Zn159 2.032 . S
O160 C164 1.278 . S
C161 O162 1.203 . S
C161 O168 1.267 . S
O162 C161 1.203 . S
O163 C156 1.185 . S
O163 Zn159 2.086 . S
C164 O160 1.278 . S
C164 O165 1.211 . S
O165 C164 1.211 . S
C166 O158 1.285 . S
C166 O167 1.252 1_565 S
O167 C166 1.252 1_545 S
O168 Zn159 1.977 . S
O168 C161 1.267 . S
C169 O170 1.160 . S
C169 O176 1.185 . S
O170 C169 1.160 . S
O171 Zn172 1.899 . S
O171 C179 1.284 . S
Zn172 O171 1.899 . S
Zn172 O173 2.032 . S
Zn172 O176 2.086 1_655 S
Zn172 O181 1.977 . S
O173 Zn172 2.032 . S
O173 C177 1.278 . S
C174 O175 1.203 . S
C174 O181 1.267 . S
O175 C174 1.203 . S
O176 C169 1.185 . S
O176 Zn172 2.086 1_455 S
C177 O173 1.278 . S
C177 O178 1.211 . S
O178 C177 1.211 . S
C179 O171 1.284 . S
C179 O180 1.273 . S
O180 C179 1.273 . S
O181 Zn172 1.977 . S
O181 C174 1.267 . S
C182 O183 1.160 . S
C182 O189 1.185 . S
O183 C182 1.160 . S
O184 Zn185 1.899 . S
O184 C192 1.284 . S
Zn185 O184 1.899 . S
Zn185 O186 2.032 . S
Zn185 O189 2.086 . S
Zn185 O194 1.977 . S
O186 Zn185 2.032 . S
O186 C190 1.278 . S
C187 O188 1.203 . S
C187 O194 1.267 . S
O188 C187 1.203 . S
O189 C182 1.185 . S
O189 Zn185 2.086 . S
C190 O186 1.278 . S
C190 O191 1.211 . S
O191 C190 1.211 . S
C192 O184 1.284 . S
C192 O193 1.273 . S
O193 C192 1.273 . S
O194 Zn185 1.977 . S
O194 C187 1.267 . S
C195 O196 1.160 . S
C195 O202 1.185 . S
O196 C195 1.160 . S
O197 Zn198 1.899 . S
O197 C205 1.284 . S
Zn198 O197 1.899 . S
Zn198 O199 2.032 . S
Zn198 O202 2.086 . S
Zn198 O207 1.977 . S
O199 Zn198 2.032 . S
O199 C203 1.278 . S
C200 O201 1.203 . S
C200 O207 1.267 . S
O201 C200 1.203 . S
O202 C195 1.185 . S
O202 Zn198 2.086 . S
C203 O199 1.278 . S
C203 O204 1.211 . S
O204 C203 1.211 . S
C205 O197 1.284 . S
C205 O206 1.273 . S
O206 C205 1.273 . S
O207 Zn198 1.977 . S
O207 C200 1.267 . S
C208 O209 1.160 . S
C208 O215 1.185 . S
O209 C208 1.160 . S
O210 Zn211 1.897 1_565 S
O210 C218 1.287 . S
Zn211 O210 1.897 1_545 S
Zn211 O212 2.032 . S
Zn211 O215 2.086 . S
Zn211 O220 1.977 . S
O212 Zn211 2.032 . S
O212 C216 1.278 . S
C213 O214 1.203 . S
C213 O220 1.267 . S
O214 C213 1.203 . S
O215 C208 1.185 . S
O215 Zn211 2.086 . S
C216 O212 1.278 . S
C216 O217 1.211 . S
O217 C216 1.211 . S
C218 O210 1.287 . S
C218 O219 1.274 1_565 S
O219 C218 1.274 1_545 S
O220 Zn211 1.977 . S
O220 C213 1.267 . S
C221 O222 1.160 . S
C221 O228 1.185 . S
O222 C221 1.160 . S
O223 Zn224 1.899 . S
O223 C231 1.284 1_655 S
Zn224 O223 1.899 . S
Zn224 O225 2.032 . S
Zn224 O228 2.086 . S
Zn224 O233 1.977 . S
O225 Zn224 2.032 . S
O225 C229 1.278 . S
C226 O227 1.203 . S
C226 O233 1.267 . S
O227 C226 1.203 . S
O228 C221 1.185 . S
O228 Zn224 2.086 . S
C229 O225 1.278 . S
C229 O230 1.211 . S
O230 C229 1.211 . S
C231 O223 1.284 1_455 S
C231 O232 1.233 1_455 S
O232 C231 1.233 1_655 S
O233 Zn224 1.977 . S
O233 C226 1.267 . S
H234 C253 0.949 . S
H235 C254 0.950 . S
H236 C256 0.950 . S
H237 C257 0.950 . S
H238 C259 0.950 . S
H239 C262 0.950 . S
H240 C263 0.950 . S
H241 C265 0.951 . S
H242 C266 0.949 . S
H243 C268 0.949 . S
H244 C269 0.950 . S
H245 C271 0.950 . S
H246 C272 0.950 . S
H247 C274 0.950 . S
H248 C277 0.950 . S
H249 C278 0.950 . S
H250 C280 0.951 . S
H251 C281 0.949 . S
C252 C253 1.376 . S
C252 C257 1.386 . S
C252 C258 1.483 . S
C253 H234 0.949 . S
C253 C252 1.376 . S
C253 C254 1.397 . S
C254 H235 0.950 . S
C254 C253 1.397 . S
C254 C255 1.391 . S
C255 C254 1.391 . S
C255 C256 1.405 . S
C256 H236 0.950 . S
C256 C255 1.405 . S
C256 C257 1.367 . S
C257 H237 0.950 . S
C257 C252 1.386 . S
C257 C256 1.367 . S
C258 C252 1.483 . S
C258 C259 1.382 . S
C258 C260 1.403 . S
C259 H238 0.950 . S
C259 C258 1.382 . S
C259 C275 1.411 . S
C260 C258 1.403 . S
C260 C261 1.489 . S
C260 C274 1.411 . S
C261 C260 1.489 . S
C261 C262 1.383 . S
C261 C266 1.382 . S
C262 H239 0.950 . S
C262 C261 1.383 . S
C262 C263 1.395 . S
C263 H240 0.950 . S
C263 C262 1.395 . S
C263 C264 1.288 . S
C264 C263 1.288 . S
C264 C265 1.392 . S
C265 H241 0.951 . S
C265 C264 1.392 . S
C265 C266 1.392 . S
C266 H242 0.949 . S
C266 C261 1.382 . S
C266 C265 1.392 . S
C267 C268 1.376 . S
C267 C272 1.386 . S
C267 C273 1.483 . S
C268 H243 0.949 . S
C268 C267 1.376 . S
C268 C269 1.397 . S
C269 H244 0.950 . S
C269 C268 1.397 . S
C269 C270 1.391 . S
C270 C269 1.391 . S
C270 C271 1.405 . S
C271 H245 0.950 . S
C271 C270 1.405 . S
C271 C272 1.367 . S
C272 H246 0.950 . S
C272 C267 1.386 . S
C272 C271 1.367 . S
C273 C267 1.483 . S
C273 C274 1.382 . S
C273 C275 1.403 . S
C274 H247 0.950 . S
C274 C260 1.411 . S
C274 C273 1.382 . S
C275 C259 1.411 . S
C275 C273 1.403 . S
C275 C276 1.489 . S
C276 C275 1.489 . S
C276 C277 1.383 . S
C276 C281 1.382 . S
C277 H248 0.950 . S
C277 C276 1.383 . S
C277 C278 1.395 . S
C278 H249 0.950 . S
C278 C277 1.395 . S
C278 C279 1.288 . S
C279 C278 1.288 . S
C279 C280 1.392 . S
C280 H250 0.951 . S
C280 C279 1.392 . S
C280 C281 1.392 . S
C281 H251 0.949 . S
C281 C276 1.382 . S
C281 C280 1.392 . S
H282 C301 0.949 . S
H283 C302 0.950 . S
H284 C304 0.950 . S
H285 C305 0.950 . S
H286 C307 0.950 . S
H287 C310 0.950 . S
H288 C311 0.950 . S
H289 C313 0.951 . S
H290 C314 0.949 . S
H291 C316 0.949 . S
H292 C317 0.950 . S
H293 C319 0.950 . S
H294 C320 0.950 . S
H295 C322 0.950 . S
H296 C325 0.950 . S
H297 C326 0.950 . S
H298 C328 0.951 . S
H299 C329 0.949 . S
C300 C301 1.376 . S
C300 C305 1.386 . S
C300 C306 1.483 . S
C301 H282 0.949 . S
C301 C300 1.376 . S
C301 C302 1.397 . S
C302 H283 0.950 . S
C302 C301 1.397 . S
C302 C303 1.391 . S
C303 C302 1.391 . S
C303 C304 1.405 . S
C304 H284 0.950 . S
C304 C303 1.405 . S
C304 C305 1.367 . S
C305 H285 0.950 . S
C305 C300 1.386 . S
C305 C304 1.367 . S
C306 C300 1.483 . S
C306 C307 1.382 . S
C306 C308 1.403 . S
C307 H286 0.950 . S
C307 C306 1.382 . S
C307 C323 1.411 . S
C308 C306 1.403 . S
C308 C309 1.489 . S
C308 C322 1.411 . S
C309 C308 1.489 . S
C309 C310 1.383 . S
C309 C314 1.382 . S
C310 H287 0.950 . S
C310 C309 1.383 . S
C310 C311 1.395 . S
C311 H288 0.950 . S
C311 C310 1.395 . S
C311 C312 1.288 . S
C312 C311 1.288 . S
C312 C313 1.392 . S
C313 H289 0.951 . S
C313 C312 1.392 . S
C313 C314 1.392 . S
C314 H290 0.949 . S
C314 C309 1.382 . S
C314 C313 1.392 . S
C315 C316 1.376 . S
C315 C320 1.386 . S
C315 C321 1.483 . S
C316 H291 0.949 . S
C316 C315 1.376 . S
C316 C317 1.397 . S
C317 H292 0.950 . S
C317 C316 1.397 . S
C317 C318 1.391 . S
C318 C317 1.391 . S
C318 C319 1.405 . S
C319 H293 0.950 . S
C319 C318 1.405 . S
C319 C320 1.367 . S
C320 H294 0.950 . S
C320 C315 1.386 . S
C320 C319 1.367 . S
C321 C315 1.483 . S
C321 C322 1.382 . S
C321 C323 1.403 . S
C322 H295 0.950 . S
C322 C308 1.411 . S
C322 C321 1.382 . S
C323 C307 1.411 . S
C323 C321 1.403 . S
C323 C324 1.489 . S
C324 C323 1.489 . S
C324 C325 1.383 . S
C324 C329 1.382 . S
C325 H296 0.950 . S
C325 C324 1.383 . S
C325 C326 1.395 . S
C326 H297 0.950 . S
C326 C325 1.395 . S
C326 C327 1.288 . S
C327 C326 1.288 . S
C327 C328 1.392 . S
C328 H298 0.951 . S
C328 C327 1.392 . S
C328 C329 1.392 . S
C329 H299 0.949 . S
C329 C324 1.382 . S
C329 C328 1.392 . S
H330 C349 0.949 . S
H331 C350 0.950 . S
H332 C352 0.950 . S
H333 C353 0.950 . S
H334 C355 0.950 . S
H335 C358 0.950 . S
H336 C359 0.950 . S
H337 C361 0.951 . S
H338 C362 0.949 . S
H339 C364 0.949 . S
H340 C365 0.950 . S
H341 C367 0.950 . S
H342 C368 0.950 . S
H343 C370 0.950 . S
H344 C373 0.950 . S
H345 C374 0.950 . S
H346 C376 0.951 . S
H347 C377 0.949 . S
C348 C349 1.376 . S
C348 C353 1.386 . S
C348 C354 1.483 . S
C349 H330 0.949 . S
C349 C348 1.376 . S
C349 C350 1.397 . S
C350 H331 0.950 . S
C350 C349 1.397 . S
C350 C351 1.391 . S
C351 C350 1.391 . S
C351 C352 1.405 . S
C352 H332 0.950 . S
C352 C351 1.405 . S
C352 C353 1.367 . S
C353 H333 0.950 . S
C353 C348 1.386 . S
C353 C352 1.367 . S
C354 C348 1.483 . S
C354 C355 1.382 . S
C354 C356 1.403 . S
C355 H334 0.950 . S
C355 C354 1.382 . S
C355 C371 1.411 . S
C356 C354 1.403 . S
C356 C357 1.489 . S
C356 C370 1.411 . S
C357 C356 1.489 . S
C357 C358 1.383 . S
C357 C362 1.382 . S
C358 H335 0.950 . S
C358 C357 1.383 . S
C358 C359 1.395 . S
C359 H336 0.950 . S
C359 C358 1.395 . S
C359 C360 1.288 . S
C360 C359 1.288 . S
C360 C361 1.392 . S
C361 H337 0.951 . S
C361 C360 1.392 . S
C361 C362 1.392 . S
C362 H338 0.949 . S
C362 C357 1.382 . S
C362 C361 1.392 . S
C363 C364 1.376 . S
C363 C368 1.386 . S
C363 C369 1.483 . S
C364 H339 0.949 . S
C364 C363 1.376 . S
C364 C365 1.397 . S
C365 H340 0.950 . S
C365 C364 1.397 . S
C365 C366 1.391 . S
C366 C365 1.391 . S
C366 C367 1.405 . S
C367 H341 0.950 . S
C367 C366 1.405 . S
C367 C368 1.367 . S
C368 H342 0.950 . S
C368 C363 1.386 . S
C368 C367 1.367 . S
C369 C363 1.483 . S
C369 C370 1.382 . S
C369 C371 1.403 . S
C370 H343 0.950 . S
C370 C356 1.411 . S
C370 C369 1.382 . S
C371 C355 1.411 . S
C371 C369 1.403 . S
C371 C372 1.489 . S
C372 C371 1.489 . S
C372 C373 1.383 . S
C372 C377 1.382 . S
C373 H344 0.950 . S
C373 C372 1.383 . S
C373 C374 1.395 . S
C374 H345 0.950 . S
C374 C373 1.395 . S
C374 C375 1.288 . S
C375 C374 1.288 . S
C375 C376 1.392 . S
C376 H346 0.951 . S
C376 C375 1.392 . S
C376 C377 1.392 . S
C377 H347 0.949 . S
C377 C372 1.382 . S
C377 C376 1.392 . S
H378 C397 0.949 . S
H379 C398 0.950 . S
H380 C400 0.950 . S
H381 C401 0.950 . S
H382 C403 0.950 . S
H383 C406 0.950 . S
H384 C407 0.950 . S
H385 C409 0.951 . S
H386 C410 0.949 . S
H387 C412 0.949 . S
H388 C413 0.950 . S
H389 C415 0.950 . S
H390 C416 0.950 . S
H391 C418 0.950 . S
H392 C421 0.950 . S
H393 C422 0.950 . S
H394 C424 0.951 . S
H395 C425 0.949 . S
C396 C397 1.376 . S
C396 C401 1.386 . S
C396 C402 1.483 . S
C397 H378 0.949 . S
C397 C396 1.376 . S
C397 C398 1.397 . S
C398 H379 0.950 . S
C398 C397 1.397 . S
C398 C399 1.391 . S
C399 C398 1.391 . S
C399 C400 1.405 . S
C400 H380 0.950 . S
C400 C399 1.405 . S
C400 C401 1.367 . S
C401 H381 0.950 . S
C401 C396 1.386 . S
C401 C400 1.367 . S
C402 C396 1.483 . S
C402 C403 1.382 . S
C402 C404 1.403 . S
C403 H382 0.950 . S
C403 C402 1.382 . S
C403 C419 1.411 . S
C404 C402 1.403 . S
C404 C405 1.489 . S
C404 C418 1.411 . S
C405 C404 1.489 . S
C405 C406 1.383 . S
C405 C410 1.382 . S
C406 H383 0.950 . S
C406 C405 1.383 . S
C406 C407 1.395 . S
C407 H384 0.950 . S
C407 C406 1.395 . S
C407 C408 1.288 . S
C408 C407 1.288 . S
C408 C409 1.392 . S
C409 H385 0.951 . S
C409 C408 1.392 . S
C409 C410 1.392 . S
C410 H386 0.949 . S
C410 C405 1.382 . S
C410 C409 1.392 . S
C411 C412 1.376 . S
C411 C416 1.386 . S
C411 C417 1.483 . S
C412 H387 0.949 . S
C412 C411 1.376 . S
C412 C413 1.397 . S
C413 H388 0.950 . S
C413 C412 1.397 . S
C413 C414 1.391 . S
C414 C413 1.391 . S
C414 C415 1.405 . S
C415 H389 0.950 . S
C415 C414 1.405 . S
C415 C416 1.367 . S
C416 H390 0.950 . S
C416 C411 1.386 . S
C416 C415 1.367 . S
C417 C411 1.483 . S
C417 C418 1.382 . S
C417 C419 1.403 . S
C418 H391 0.950 . S
C418 C404 1.411 . S
C418 C417 1.382 . S
C419 C403 1.411 . S
C419 C417 1.403 . S
C419 C420 1.489 . S
C420 C419 1.489 . S
C420 C421 1.383 . S
C420 C425 1.382 . S
C421 H392 0.950 . S
C421 C420 1.383 . S
C421 C422 1.395 . S
C422 H393 0.950 . S
C422 C421 1.395 . S
C422 C423 1.288 . S
C423 C422 1.288 . S
C423 C424 1.392 . S
C424 H394 0.951 . S
C424 C423 1.392 . S
C424 C425 1.392 . S
C425 H395 0.949 . S
C425 C420 1.382 . S
C425 C424 1.392 . S
H426 C445 0.949 . S
H427 C446 0.950 . S
H428 C448 0.950 . S
H429 C449 0.950 . S
H430 C451 0.950 . S
H431 C454 0.950 . S
H432 C455 0.950 . S
H433 C457 0.951 . S
H434 C458 0.949 . S
H435 C460 0.949 . S
H436 C461 0.950 . S
H437 C463 0.950 . S
H438 C464 0.950 . S
H439 C466 0.950 . S
H440 C469 0.950 . S
H441 C470 0.950 . S
H442 C472 0.951 . S
H443 C473 0.949 . S
C444 C445 1.376 . S
C444 C449 1.386 . S
C444 C450 1.483 . S
C445 H426 0.949 . S
C445 C444 1.376 . S
C445 C446 1.397 . S
C446 H427 0.950 . S
C446 C445 1.397 . S
C446 C447 1.391 . S
C447 C446 1.391 . S
C447 C448 1.405 . S
C448 H428 0.950 . S
C448 C447 1.405 . S
C448 C449 1.367 . S
C449 H429 0.950 . S
C449 C444 1.386 . S
C449 C448 1.367 . S
C450 C444 1.483 . S
C450 C451 1.382 . S
C450 C452 1.403 . S
C451 H430 0.950 . S
C451 C450 1.382 . S
C451 C467 1.411 . S
C452 C450 1.403 . S
C452 C453 1.489 . S
C452 C466 1.411 . S
C453 C452 1.489 . S
C453 C454 1.383 . S
C453 C458 1.382 . S
C454 H431 0.950 . S
C454 C453 1.383 . S
C454 C455 1.395 . S
C455 H432 0.950 . S
C455 C454 1.395 . S
C455 C456 1.288 . S
C456 C455 1.288 . S
C456 C457 1.392 . S
C457 H433 0.951 . S
C457 C456 1.392 . S
C457 C458 1.392 . S
C458 H434 0.949 . S
C458 C453 1.382 . S
C458 C457 1.392 . S
C459 C460 1.376 . S
C459 C464 1.386 . S
C459 C465 1.483 . S
C460 H435 0.949 . S
C460 C459 1.376 . S
C460 C461 1.397 . S
C461 H436 0.950 . S
C461 C460 1.397 . S
C461 C462 1.391 . S
C462 C461 1.391 . S
C462 C463 1.405 . S
C463 H437 0.950 . S
C463 C462 1.405 . S
C463 C464 1.367 . S
C464 H438 0.950 . S
C464 C459 1.386 . S
C464 C463 1.367 . S
C465 C459 1.483 . S
C465 C466 1.382 . S
C465 C467 1.403 . S
C466 H439 0.950 . S
C466 C452 1.411 . S
C466 C465 1.382 . S
C467 C451 1.411 . S
C467 C465 1.403 . S
C467 C468 1.489 . S
C468 C467 1.489 . S
C468 C469 1.383 . S
C468 C473 1.382 . S
C469 H440 0.950 . S
C469 C468 1.383 . S
C469 C470 1.395 . S
C470 H441 0.950 . S
C470 C469 1.395 . S
C470 C471 1.288 . S
C471 C470 1.288 . S
C471 C472 1.392 . S
C472 H442 0.951 . S
C472 C471 1.392 . S
C472 C473 1.392 . S
C473 H443 0.949 . S
C473 C468 1.382 . S
C473 C472 1.392 . S
H474 C493 0.949 . S
H475 C494 0.950 . S
H476 C496 0.950 . S
H477 C497 0.950 . S
H478 C499 0.950 . S
H479 C502 0.950 . S
H480 C503 0.950 . S
H481 C505 0.951 . S
H482 C506 0.949 . S
H483 C508 0.949 . S
H484 C509 0.950 . S
H485 C511 0.950 . S
H486 C512 0.950 . S
H487 C514 0.950 . S
H488 C517 0.950 . S
H489 C518 0.950 . S
H490 C520 0.951 . S
H491 C521 0.949 . S
C492 C493 1.376 . S
C492 C497 1.386 . S
C492 C498 1.483 . S
C493 H474 0.949 . S
C493 C492 1.376 . S
C493 C494 1.397 . S
C494 H475 0.950 . S
C494 C493 1.397 . S
C494 C495 1.391 . S
C495 C494 1.391 . S
C495 C496 1.405 . S
C496 H476 0.950 . S
C496 C495 1.405 . S
C496 C497 1.367 . S
C497 H477 0.950 . S
C497 C492 1.386 . S
C497 C496 1.367 . S
C498 C492 1.483 . S
C498 C499 1.382 . S
C498 C500 1.403 . S
C499 H478 0.950 . S
C499 C498 1.382 . S
C499 C515 1.411 . S
C500 C498 1.403 . S
C500 C501 1.489 . S
C500 C514 1.411 . S
C501 C500 1.489 . S
C501 C502 1.383 . S
C501 C506 1.382 . S
C502 H479 0.950 . S
C502 C501 1.383 . S
C502 C503 1.395 . S
C503 H480 0.950 . S
C503 C502 1.395 . S
C503 C504 1.288 . S
C504 C503 1.288 . S
C504 C505 1.392 . S
C505 H481 0.951 . S
C505 C504 1.392 . S
C505 C506 1.392 . S
C506 H482 0.949 . S
C506 C501 1.382 . S
C506 C505 1.392 . S
C507 C508 1.376 . S
C507 C512 1.386 . S
C507 C513 1.483 . S
C508 H483 0.949 . S
C508 C507 1.376 . S
C508 C509 1.397 . S
C509 H484 0.950 . S
C509 C508 1.397 . S
C509 C510 1.391 . S
C510 C509 1.391 . S
C510 C511 1.405 . S
C511 H485 0.950 . S
C511 C510 1.405 . S
C511 C512 1.367 . S
C512 H486 0.950 . S
C512 C507 1.386 . S
C512 C511 1.367 . S
C513 C507 1.483 . S
C513 C514 1.382 . S
C513 C515 1.403 . S
C514 H487 0.950 . S
C514 C500 1.411 . S
C514 C513 1.382 . S
C515 C499 1.411 . S
C515 C513 1.403 . S
C515 C516 1.489 . S
C516 C515 1.489 . S
C516 C517 1.383 . S
C516 C521 1.382 . S
C517 H488 0.950 . S
C517 C516 1.383 . S
C517 C518 1.395 . S
C518 H489 0.950 . S
C518 C517 1.395 . S
C518 C519 1.288 . S
C519 C518 1.288 . S
C519 C520 1.392 . S
C520 H490 0.951 . S
C520 C519 1.392 . S
C520 C521 1.392 . S
C521 H491 0.949 . S
C521 C516 1.382 . S
C521 C520 1.392 . S
H522 C541 0.949 . S
H523 C542 0.950 . S
H524 C544 0.950 . S
H525 C545 0.950 . S
H526 C547 0.950 . S
H527 C550 0.950 . S
H528 C551 0.950 . S
H529 C553 0.951 . S
H530 C554 0.949 . S
H531 C556 0.949 . S
H532 C557 0.950 . S
H533 C559 0.950 . S
H534 C560 0.950 . S
H535 C562 0.950 . S
H536 C565 0.950 . S
H537 C566 0.950 . S
H538 C568 0.951 . S
H539 C569 0.949 . S
C540 C541 1.376 . S
C540 C545 1.386 . S
C540 C546 1.483 . S
C541 H522 0.949 . S
C541 C540 1.376 . S
C541 C542 1.397 . S
C542 H523 0.950 . S
C542 C541 1.397 . S
C542 C543 1.391 . S
C543 C542 1.391 . S
C543 C544 1.405 . S
C544 H524 0.950 . S
C544 C543 1.405 . S
C544 C545 1.367 . S
C545 H525 0.950 . S
C545 C540 1.386 . S
C545 C544 1.367 . S
C546 C540 1.483 . S
C546 C547 1.382 . S
C546 C548 1.403 . S
C547 H526 0.950 . S
C547 C546 1.382 . S
C547 C563 1.411 . S
C548 C546 1.403 . S
C548 C549 1.489 . S
C548 C562 1.411 . S
C549 C548 1.489 . S
C549 C550 1.383 . S
C549 C554 1.382 . S
C550 H527 0.950 . S
C550 C549 1.383 . S
C550 C551 1.395 . S
C551 H528 0.950 . S
C551 C550 1.395 . S
C551 C552 1.288 . S
C552 C551 1.288 . S
C552 C553 1.392 . S
C553 H529 0.951 . S
C553 C552 1.392 . S
C553 C554 1.392 . S
C554 H530 0.949 . S
C554 C549 1.382 . S
C554 C553 1.392 . S
C555 C556 1.376 . S
C555 C560 1.386 . S
C555 C561 1.483 . S
C556 H531 0.949 . S
C556 C555 1.376 . S
C556 C557 1.397 . S
C557 H532 0.950 . S
C557 C556 1.397 . S
C557 C558 1.391 . S
C558 C557 1.391 . S
C558 C559 1.405 . S
C559 H533 0.950 . S
C559 C558 1.405 . S
C559 C560 1.367 . S
C560 H534 0.950 . S
C560 C555 1.386 . S
C560 C559 1.367 . S
C561 C555 1.483 . S
C561 C562 1.382 . S
C561 C563 1.403 . S
C562 H535 0.950 . S
C562 C548 1.411 . S
C562 C561 1.382 . S
C563 C547 1.411 . S
C563 C561 1.403 . S
C563 C564 1.489 . S
C564 C563 1.489 . S
C564 C565 1.383 . S
C564 C569 1.382 . S
C565 H536 0.950 . S
C565 C564 1.383 . S
C565 C566 1.395 . S
C566 H537 0.950 . S
C566 C565 1.395 . S
C566 C567 1.288 . S
C567 C566 1.288 . S
C567 C568 1.392 . S
C568 H538 0.951 . S
C568 C567 1.392 . S
C568 C569 1.392 . S
C569 H539 0.949 . S
C569 C564 1.382 . S
C569 C568 1.392 . S
H570 C589 0.949 . S
H571 C590 0.950 . S
H572 C592 0.950 . S
H573 C593 0.950 . S
H574 C595 0.950 . S
H575 C598 0.950 . S
H576 C599 0.950 . S
H577 C601 0.951 . S
H578 C602 0.949 . S
H579 C604 0.949 . S
H580 C605 0.950 . S
H581 C607 0.950 . S
H582 C608 0.950 . S
H583 C610 0.950 . S
H584 C613 0.950 . S
H585 C614 0.950 . S
H586 C616 0.951 . S
H587 C617 0.949 . S
C588 C589 1.376 . S
C588 C593 1.386 . S
C588 C594 1.483 . S
C589 H570 0.949 . S
C589 C588 1.376 . S
C589 C590 1.397 . S
C590 H571 0.950 . S
C590 C589 1.397 . S
C590 C591 1.391 . S
C591 C590 1.391 . S
C591 C592 1.405 . S
C592 H572 0.950 . S
C592 C591 1.405 . S
C592 C593 1.367 . S
C593 H573 0.950 . S
C593 C588 1.386 . S
C593 C592 1.367 . S
C594 C588 1.483 . S
C594 C595 1.382 . S
C594 C596 1.403 . S
C595 H574 0.950 . S
C595 C594 1.382 . S
C595 C611 1.411 . S
C596 C594 1.403 . S
C596 C597 1.489 . S
C596 C610 1.411 . S
C597 C596 1.489 . S
C597 C598 1.383 . S
C597 C602 1.382 . S
C598 H575 0.950 . S
C598 C597 1.383 . S
C598 C599 1.395 . S
C599 H576 0.950 . S
C599 C598 1.395 . S
C599 C600 1.288 . S
C600 C599 1.288 . S
C600 C601 1.392 . S
C601 H577 0.951 . S
C601 C600 1.392 . S
C601 C602 1.392 . S
C602 H578 0.949 . S
C602 C597 1.382 . S
C602 C601 1.392 . S
C603 C604 1.376 . S
C603 C608 1.386 . S
C603 C609 1.483 . S
C604 H579 0.949 . S
C604 C603 1.376 . S
C604 C605 1.397 . S
C605 H580 0.950 . S
C605 C604 1.397 . S
C605 C606 1.391 . S
C606 C605 1.391 . S
C606 C607 1.405 . S
C607 H581 0.950 . S
C607 C606 1.405 . S
C607 C608 1.367 . S
C608 H582 0.950 . S
C608 C603 1.386 . S
C608 C607 1.367 . S
C609 C603 1.483 . S
C609 C610 1.382 . S
C609 C611 1.403 . S
C610 H583 0.950 . S
C610 C596 1.411 . S
C610 C609 1.382 . S
C611 C595 1.411 . S
C611 C609 1.403 . S
C611 C612 1.489 . S
C612 C611 1.489 . S
C612 C613 1.383 . S
C612 C617 1.382 . S
C613 H584 0.950 . S
C613 C612 1.383 . S
C613 C614 1.395 . S
C614 H585 0.950 . S
C614 C613 1.395 . S
C614 C615 1.288 . S
C615 C614 1.288 . S
C615 C616 1.392 . S
C616 H586 0.951 . S
C616 C615 1.392 . S
C616 C617 1.392 . S
C617 H587 0.949 . S
C617 C612 1.382 . S
C617 C616 1.392 . S
H618 C637 0.949 . S
H619 C638 0.950 . S
H620 C640 0.950 . S
H621 C641 0.950 . S
H622 C643 0.950 . S
H623 C646 0.950 . S
H624 C647 0.950 . S
H625 C649 0.951 . S
H626 C650 0.949 . S
H627 C652 0.949 . S
H628 C653 0.950 . S
H629 C655 0.950 . S
H630 C656 0.950 . S
H631 C658 0.950 . S
H632 C661 0.950 . S
H633 C662 0.950 . S
H634 C664 0.951 . S
H635 C665 0.949 . S
C636 C637 1.376 . S
C636 C641 1.386 . S
C636 C642 1.483 . S
C637 H618 0.949 . S
C637 C636 1.376 . S
C637 C638 1.397 . S
C638 H619 0.950 . S
C638 C637 1.397 . S
C638 C639 1.391 . S
C639 C638 1.391 . S
C639 C640 1.405 . S
C640 H620 0.950 . S
C640 C639 1.405 . S
C640 C641 1.367 . S
C641 H621 0.950 . S
C641 C636 1.386 . S
C641 C640 1.367 . S
C642 C636 1.483 . S
C642 C643 1.382 . S
C642 C644 1.403 . S
C643 H622 0.950 . S
C643 C642 1.382 . S
C643 C659 1.411 . S
C644 C642 1.403 . S
C644 C645 1.489 . S
C644 C658 1.411 . S
C645 C644 1.489 . S
C645 C646 1.383 . S
C645 C650 1.382 . S
C646 H623 0.950 . S
C646 C645 1.383 . S
C646 C647 1.395 . S
C647 H624 0.950 . S
C647 C646 1.395 . S
C647 C648 1.288 . S
C648 C647 1.288 . S
C648 C649 1.392 . S
C649 H625 0.951 . S
C649 C648 1.392 . S
C649 C650 1.392 . S
C650 H626 0.949 . S
C650 C645 1.382 . S
C650 C649 1.392 . S
C651 C652 1.376 . S
C651 C656 1.386 . S
C651 C657 1.483 . S
C652 H627 0.949 . S
C652 C651 1.376 . S
C652 C653 1.397 . S
C653 H628 0.950 . S
C653 C652 1.397 . S
C653 C654 1.391 . S
C654 C653 1.391 . S
C654 C655 1.405 . S
C655 H629 0.950 . S
C655 C654 1.405 . S
C655 C656 1.367 . S
C656 H630 0.950 . S
C656 C651 1.386 . S
C656 C655 1.367 . S
C657 C651 1.483 . S
C657 C658 1.382 . S
C657 C659 1.403 . S
C658 H631 0.950 . S
C658 C644 1.411 . S
C658 C657 1.382 . S
C659 C643 1.411 . S
C659 C657 1.403 . S
C659 C660 1.489 . S
C660 C659 1.489 . S
C660 C661 1.383 . S
C660 C665 1.382 . S
C661 H632 0.950 . S
C661 C660 1.383 . S
C661 C662 1.395 . S
C662 H633 0.950 . S
C662 C661 1.395 . S
C662 C663 1.288 . S
C663 C662 1.288 . S
C663 C664 1.392 . S
C664 H634 0.951 . S
C664 C663 1.392 . S
C664 C665 1.392 . S
C665 H635 0.949 . S
C665 C660 1.382 . S
C665 C664 1.392 . S
H666 C685 0.949 . S
H667 C686 0.950 . S
H668 C688 0.950 . S
H669 C689 0.950 . S
H670 C691 0.950 . S
H671 C694 0.950 . S
H672 C695 0.950 . S
H673 C697 0.951 . S
H674 C698 0.949 . S
H675 C700 0.949 . S
H676 C701 0.950 . S
H677 C703 0.950 . S
H678 C704 0.950 . S
H679 C706 0.950 . S
H680 C709 0.950 . S
H681 C710 0.950 . S
H682 C712 0.951 . S
H683 C713 0.949 . S
C684 C685 1.376 . S
C684 C689 1.386 1_655 S
C684 C690 1.483 . S
C685 H666 0.949 . S
C685 C684 1.376 . S
C685 C686 1.397 . S
C686 H667 0.950 . S
C686 C685 1.397 . S
C686 C687 1.391 . S
C687 C686 1.391 . S
C687 C688 1.405 1_655 S
C688 H668 0.950 . S
C688 C687 1.405 1_455 S
C688 C689 1.367 . S
C689 H669 0.950 . S
C689 C684 1.386 1_455 S
C689 C688 1.367 . S
C690 C684 1.483 . S
C690 C691 1.382 . S
C690 C692 1.403 1_655 S
C691 H670 0.950 . S
C691 C690 1.382 . S
C691 C707 1.411 . S
C692 C690 1.403 1_455 S
C692 C693 1.489 . S
C692 C706 1.411 . S
C693 C692 1.489 . S
C693 C694 1.383 1_455 S
C693 C698 1.382 . S
C694 H671 0.950 . S
C694 C693 1.383 1_655 S
C694 C695 1.395 . S
C695 H672 0.950 . S
C695 C694 1.395 . S
C695 C696 1.288 1_655 S
C696 C695 1.288 1_455 S
C696 C697 1.392 . S
C697 H673 0.951 . S
C697 C696 1.392 . S
C697 C698 1.392 . S
C698 H674 0.949 . S
C698 C693 1.382 . S
C698 C697 1.392 . S
C699 C700 1.376 . S
C699 C704 1.386 1_455 S
C699 C705 1.483 . S
C700 H675 0.949 . S
C700 C699 1.376 . S
C700 C701 1.397 . S
C701 H676 0.950 . S
C701 C700 1.397 . S
C701 C702 1.391 . S
C702 C701 1.391 . S
C702 C703 1.405 1_455 S
C703 H677 0.950 . S
C703 C702 1.405 1_655 S
C703 C704 1.367 . S
C704 H678 0.950 . S
C704 C699 1.386 1_655 S
C704 C703 1.367 . S
C705 C699 1.483 . S
C705 C706 1.382 . S
C705 C707 1.403 1_455 S
C706 H679 0.950 . S
C706 C692 1.411 . S
C706 C705 1.382 . S
C707 C691 1.411 . S
C707 C705 1.403 1_655 S
C707 C708 1.489 . S
C708 C707 1.489 . S
C708 C709 1.383 1_655 S
C708 C713 1.382 . S
C709 H680 0.950 . S
C709 C708 1.383 1_455 S
C709 C710 1.395 . S
C710 H681 0.950 . S
C710 C709 1.395 . S
C710 C711 1.288 1_455 S
C711 C710 1.288 1_655 S
C711 C712 1.392 . S
C712 H682 0.951 . S
C712 C711 1.392 . S
C712 C713 1.392 . S
C713 H683 0.949 . S
C713 C708 1.382 . S
C713 C712 1.392 . S
H714 C733 0.949 . S
H715 C734 0.950 . S
H716 C736 0.950 . S
H717 C737 0.950 . S
H718 C739 0.950 . S
H719 C742 0.950 . S
H720 C743 0.950 . S
H721 C745 0.951 . S
H722 C746 0.949 . S
H723 C748 0.949 . S
H724 C749 0.950 . S
H725 C751 0.950 . S
H726 C752 0.950 . S
H727 C754 0.950 . S
H728 C757 0.950 . S
H729 C758 0.950 . S
H730 C760 0.951 . S
H731 C761 0.949 . S
C732 C733 1.376 . S
C732 C737 1.386 . S
C732 C738 1.483 . S
C733 H714 0.949 . S
C733 C732 1.376 . S
C733 C734 1.397 . S
C734 H715 0.950 . S
C734 C733 1.397 . S
C734 C735 1.391 . S
C735 C734 1.391 . S
C735 C736 1.405 . S
C736 H716 0.950 . S
C736 C735 1.405 . S
C736 C737 1.367 . S
C737 H717 0.950 . S
C737 C732 1.386 . S
C737 C736 1.367 . S
C738 C732 1.483 . S
C738 C739 1.382 . S
C738 C740 1.403 . S
C739 H718 0.950 . S
C739 C738 1.382 . S
C739 C755 1.411 . S
C740 C738 1.403 . S
C740 C741 1.489 . S
C740 C754 1.411 . S
C741 C740 1.489 . S
C741 C742 1.383 . S
C741 C746 1.382 . S
C742 H719 0.950 . S
C742 C741 1.383 . S
C742 C743 1.395 . S
C743 H720 0.950 . S
C743 C742 1.395 . S
C743 C744 1.288 . S
C744 C743 1.288 . S
C744 C745 1.392 . S
C745 H721 0.951 . S
C745 C744 1.392 . S
C745 C746 1.392 . S
C746 H722 0.949 . S
C746 C741 1.382 . S
C746 C745 1.392 . S
C747 C748 1.376 . S
C747 C752 1.386 . S
C747 C753 1.483 . S
C748 H723 0.949 . S
C748 C747 1.376 . S
C748 C749 1.397 . S
C749 H724 0.950 . S
C749 C748 1.397 . S
C749 C750 1.391 . S
C750 C749 1.391 . S
C750 C751 1.405 . S
C751 H725 0.950 . S
C751 C750 1.405 . S
C751 C752 1.367 . S
C752 H726 0.950 . S
C752 C747 1.386 . S
C752 C751 1.367 . S
C753 C747 1.483 . S
C753 C754 1.382 . S
C753 C755 1.403 . S
C754 H727 0.950 . S
C754 C740 1.411 . S
C754 C753 1.382 . S
C755 C739 1.411 . S
C755 C753 1.403 . S
C755 C756 1.489 . S
C756 C755 1.489 . S
C756 C757 1.383 . S
C756 C761 1.382 . S
C757 H728 0.950 . S
C757 C756 1.383 . S
C757 C758 1.395 . S
C758 H729 0.950 . S
C758 C757 1.395 . S
C758 C759 1.288 . S
C759 C758 1.288 . S
C759 C760 1.392 . S
C760 H730 0.951 . S
C760 C759 1.392 . S
C760 C761 1.392 . S
C761 H731 0.949 . S
C761 C756 1.382 . S
C761 C760 1.392 . S
H762 C781 0.949 . S
H763 C782 0.950 . S
H764 C784 0.950 . S
H765 C785 0.950 . S
H766 C787 0.950 . S
H767 C790 0.950 . S
H768 C791 0.950 . S
H769 C793 0.951 . S
H770 C794 0.949 . S
H771 C796 0.949 . S
H772 C797 0.950 . S
H773 C799 0.950 . S
H774 C800 0.950 . S
H775 C802 0.950 . S
H776 C805 0.950 . S
H777 C806 0.950 . S
H778 C808 0.951 . S
H779 C809 0.949 . S
C780 C781 1.376 . S
C780 C785 1.386 1_545 S
C780 C786 1.483 . S
C781 H762 0.949 . S
C781 C780 1.376 . S
C781 C782 1.397 . S
C782 H763 0.950 . S
C782 C781 1.397 . S
C782 C783 1.391 . S
C783 C782 1.391 . S
C783 C784 1.405 1_545 S
C784 H764 0.950 . S
C784 C783 1.405 1_565 S
C784 C785 1.367 . S
C785 H765 0.950 . S
C785 C780 1.386 1_565 S
C785 C784 1.367 . S
C786 C780 1.483 . S
C786 C787 1.382 . S
C786 C788 1.403 1_545 S
C787 H766 0.950 . S
C787 C786 1.382 . S
C787 C803 1.411 . S
C788 C786 1.403 1_565 S
C788 C789 1.489 . S
C788 C802 1.411 . S
C789 C788 1.489 . S
C789 C790 1.383 1_565 S
C789 C794 1.382 . S
C790 H767 0.950 . S
C790 C789 1.383 1_545 S
C790 C791 1.395 . S
C791 H768 0.950 . S
C791 C790 1.395 . S
C791 C792 1.288 1_545 S
C792 C791 1.288 1_565 S
C792 C793 1.392 . S
C793 H769 0.951 . S
C793 C792 1.392 . S
C793 C794 1.392 . S
C794 H770 0.949 . S
C794 C789 1.382 . S
C794 C793 1.392 . S
C795 C796 1.376 . S
C795 C800 1.386 1_565 S
C795 C801 1.483 . S
C796 H771 0.949 . S
C796 C795 1.376 . S
C796 C797 1.397 . S
C797 H772 0.950 . S
C797 C796 1.397 . S
C797 C798 1.391 . S
C798 C797 1.391 . S
C798 C799 1.405 1_565 S
C799 H773 0.950 . S
C799 C798 1.405 1_545 S
C799 C800 1.367 . S
C800 H774 0.950 . S
C800 C795 1.386 1_545 S
C800 C799 1.367 . S
C801 C795 1.483 . S
C801 C802 1.382 . S
C801 C803 1.403 1_565 S
C802 H775 0.950 . S
C802 C788 1.411 . S
C802 C801 1.382 . S
C803 C787 1.411 . S
C803 C801 1.403 1_545 S
C803 C804 1.489 . S
C804 C803 1.489 . S
C804 C805 1.383 1_545 S
C804 C809 1.382 . S
C805 H776 0.950 . S
C805 C804 1.383 1_565 S
C805 C806 1.395 . S
C806 H777 0.950 . S
C806 C805 1.395 . S
C806 C807 1.288 1_565 S
C807 C806 1.288 1_545 S
C807 C808 1.392 . S
C808 H778 0.951 . S
C808 C807 1.392 . S
C808 C809 1.392 . S
C809 H779 0.949 . S
C809 C804 1.382 . S
C809 C808 1.392 . S
H810 C829 0.949 . S
H811 C830 0.950 . S
H812 C832 0.950 . S
H813 C833 0.950 . S
H814 C835 0.950 . S
H815 C838 0.950 . S
H816 C839 0.950 . S
H817 C841 0.951 . S
H818 C842 0.949 . S
H819 C844 0.949 . S
H820 C845 0.950 . S
H821 C847 0.950 . S
H822 C848 0.950 . S
H823 C850 0.950 . S
H824 C853 0.950 . S
H825 C854 0.950 . S
H826 C856 0.951 . S
H827 C857 0.949 . S
C828 C829 1.402 . S
C828 C833 1.375 1_545 S
C828 C834 1.500 . S
C829 H810 0.949 . S
C829 C828 1.402 . S
C829 C830 1.397 . S
C830 H811 0.950 . S
C830 C829 1.397 . S
C830 C831 1.391 1_545 S
C831 C830 1.391 1_565 S
C831 C832 1.405 . S
C832 H812 0.950 . S
C832 C831 1.405 . S
C832 C833 1.367 . S
C833 H813 0.950 . S
C833 C828 1.375 1_565 S
C833 C832 1.367 . S
C834 C828 1.500 . S
C834 C835 1.350 . S
C834 C836 1.402 1_545 S
C835 H814 0.950 . S
C835 C834 1.350 . S
C835 C851 1.438 . S
C836 C834 1.402 1_565 S
C836 C837 1.476 . S
C836 C850 1.428 . S
C837 C836 1.476 . S
C837 C838 1.378 1_565 S
C837 C842 1.384 . S
C838 H815 0.950 . S
C838 C837 1.378 1_545 S
C838 C839 1.395 . S
C839 H816 0.950 . S
C839 C838 1.395 . S
C839 C840 1.288 . S
C840 C839 1.288 . S
C840 C841 1.392 1_545 S
C841 H817 0.951 . S
C841 C840 1.392 1_565 S
C841 C842 1.392 . S
C842 H818 0.949 . S
C842 C837 1.384 . S
C842 C841 1.392 . S
C843 C844 1.390 . S
C843 C848 1.380 1_565 S
C843 C849 1.500 . S
C844 H819 0.949 . S
C844 C843 1.390 . S
C844 C845 1.397 . S
C845 H820 0.950 . S
C845 C844 1.397 . S
C845 C846 1.391 1_565 S
C846 C845 1.391 1_545 S
C846 C847 1.405 . S
C847 H821 0.950 . S
C847 C846 1.405 . S
C847 C848 1.367 . S
C848 H822 0.950 . S
C848 C843 1.380 1_545 S
C848 C847 1.367 . S
C849 C843 1.500 . S
C849 C850 1.357 . S
C849 C851 1.402 1_565 S
C850 H823 0.950 . S
C850 C836 1.428 . S
C850 C849 1.357 . S
C851 C835 1.438 . S
C851 C849 1.402 1_545 S
C851 C852 1.476 . S
C852 C851 1.476 . S
C852 C853 1.361 1_545 S
C852 C857 1.393 . S
C853 H824 0.950 . S
C853 C852 1.361 1_565 S
C853 C854 1.395 . S
C854 H825 0.950 . S
C854 C853 1.395 . S
C854 C855 1.288 . S
C855 C854 1.288 . S
C855 C856 1.392 1_565 S
C856 H826 0.951 . S
C856 C855 1.392 1_545 S
C856 C857 1.392 . S
C857 H827 0.949 . S
C857 C852 1.393 . S
C857 C856 1.392 . S
H858 C877 0.949 . S
H859 C878 0.950 . S
H860 C880 0.950 . S
H861 C881 0.950 . S
H862 C883 0.950 . S
H863 C886 0.950 . S
H864 C887 0.950 . S
H865 C889 0.951 . S
H866 C890 0.949 . S
H867 C892 0.949 . S
H868 C893 0.950 . S
H869 C895 0.950 . S
H870 C896 0.950 . S
H871 C898 0.950 . S
H872 C901 0.950 . S
H873 C902 0.950 . S
H874 C904 0.951 . S
H875 C905 0.949 . S
C876 C877 1.376 . S
C876 C881 1.386 1_455 S
C876 C882 1.483 . S
C877 H858 0.949 . S
C877 C876 1.376 . S
C877 C878 1.397 . S
C878 H859 0.950 . S
C878 C877 1.397 . S
C878 C879 1.391 . S
C879 C878 1.391 . S
C879 C880 1.405 1_455 S
C880 H860 0.950 . S
C880 C879 1.405 1_655 S
C880 C881 1.367 . S
C881 H861 0.950 . S
C881 C876 1.386 1_655 S
C881 C880 1.367 . S
C882 C876 1.483 . S
C882 C883 1.382 . S
C882 C884 1.403 1_455 S
C883 H862 0.950 . S
C883 C882 1.382 . S
C883 C899 1.411 . S
C884 C882 1.403 1_655 S
C884 C885 1.489 . S
C884 C898 1.411 . S
C885 C884 1.489 . S
C885 C886 1.383 1_655 S
C885 C890 1.382 . S
C886 H863 0.950 . S
C886 C885 1.383 1_455 S
C886 C887 1.395 . S
C887 H864 0.950 . S
C887 C886 1.395 . S
C887 C888 1.288 1_455 S
C888 C887 1.288 1_655 S
C888 C889 1.392 . S
C889 H865 0.951 . S
C889 C888 1.392 . S
C889 C890 1.392 . S
C890 H866 0.949 . S
C890 C885 1.382 . S
C890 C889 1.392 . S
C891 C892 1.376 . S
C891 C896 1.386 1_655 S
C891 C897 1.483 . S
C892 H867 0.949 . S
C892 C891 1.376 . S
C892 C893 1.397 . S
C893 H868 0.950 . S
C893 C892 1.397 . S
C893 C894 1.391 . S
C894 C893 1.391 . S
C894 C895 1.405 1_655 S
C895 H869 0.950 . S
C895 C894 1.405 1_455 S
C895 C896 1.367 . S
C896 H870 0.950 . S
C896 C891 1.386 1_455 S
C896 C895 1.367 . S
C897 C891 1.483 . S
C897 C898 1.382 . S
C897 C899 1.403 1_655 S
C898 H871 0.950 . S
C898 C884 1.411 . S
C898 C897 1.382 . S
C899 C883 1.411 . S
C899 C897 1.403 1_455 S
C899 C900 1.489 . S
C900 C899 1.489 . S
C900 C901 1.383 1_455 S
C900 C905 1.382 . S
C901 H872 0.950 . S
C901 C900 1.383 1_655 S
C901 C902 1.395 . S
C902 H873 0.950 . S
C902 C901 1.395 . S
C902 C903 1.288 1_655 S
C903 C902 1.288 1_455 S
C903 C904 1.392 . S
C904 H874 0.951 . S
C904 C903 1.392 . S
C904 C905 1.392 . S
C905 H875 0.949 . S
C905 C900 1.382 . S
C905 C904 1.392 . S
H906 C925 0.949 . S
H907 C926 0.950 . S
H908 C928 0.950 . S
H909 C929 0.950 . S
H910 C931 0.950 . S
H911 C934 0.950 . S
H912 C935 0.950 . S
H913 C937 0.951 . S
H914 C938 0.949 . S
H915 C940 0.949 . S
H916 C941 0.950 . S
H917 C943 0.950 . S
H918 C944 0.950 . S
H919 C946 0.950 . S
H920 C949 0.950 . S
H921 C950 0.950 . S
H922 C952 0.951 . S
H923 C953 0.949 . S
C924 C925 1.376 . S
C924 C929 1.386 . S
C924 C930 1.483 . S
C925 H906 0.949 . S
C925 C924 1.376 . S
C925 C926 1.397 . S
C926 H907 0.950 . S
C926 C925 1.397 . S
C926 C927 1.391 . S
C927 C926 1.391 . S
C927 C928 1.405 . S
C928 H908 0.950 . S
C928 C927 1.405 . S
C928 C929 1.367 . S
C929 H909 0.950 . S
C929 C924 1.386 . S
C929 C928 1.367 . S
C930 C924 1.483 . S
C930 C931 1.382 . S
C930 C932 1.403 . S
C931 H910 0.950 . S
C931 C930 1.382 . S
C931 C947 1.411 . S
C932 C930 1.403 . S
C932 C933 1.489 . S
C932 C946 1.411 . S
C933 C932 1.489 . S
C933 C934 1.383 . S
C933 C938 1.382 . S
C934 H911 0.950 . S
C934 C933 1.383 . S
C934 C935 1.395 . S
C935 H912 0.950 . S
C935 C934 1.395 . S
C935 C936 1.288 . S
C936 C935 1.288 . S
C936 C937 1.392 . S
C937 H913 0.951 . S
C937 C936 1.392 . S
C937 C938 1.392 . S
C938 H914 0.949 . S
C938 C933 1.382 . S
C938 C937 1.392 . S
C939 C940 1.376 . S
C939 C944 1.386 . S
C939 C945 1.483 . S
C940 H915 0.949 . S
C940 C939 1.376 . S
C940 C941 1.397 . S
C941 H916 0.950 . S
C941 C940 1.397 . S
C941 C942 1.391 . S
C942 C941 1.391 . S
C942 C943 1.405 . S
C943 H917 0.950 . S
C943 C942 1.405 . S
C943 C944 1.367 . S
C944 H918 0.950 . S
C944 C939 1.386 . S
C944 C943 1.367 . S
C945 C939 1.483 . S
C945 C946 1.382 . S
C945 C947 1.403 . S
C946 H919 0.950 . S
C946 C932 1.411 . S
C946 C945 1.382 . S
C947 C931 1.411 . S
C947 C945 1.403 . S
C947 C948 1.489 . S
C948 C947 1.489 . S
C948 C949 1.383 . S
C948 C953 1.382 . S
C949 H920 0.950 . S
C949 C948 1.383 . S
C949 C950 1.395 . S
C950 H921 0.950 . S
C950 C949 1.395 . S
C950 C951 1.288 . S
C951 C950 1.288 . S
C951 C952 1.392 . S
C952 H922 0.951 . S
C952 C951 1.392 . S
C952 C953 1.392 . S
C953 H923 0.949 . S
C953 C948 1.382 . S
C953 C952 1.392 . S
H954 C973 0.949 . S
H955 C974 0.950 . S
H956 C976 0.950 . S
H957 C977 0.950 . S
H958 C979 0.950 . S
H959 C982 0.950 . S
H960 C983 0.950 . S
H961 C985 0.951 . S
H962 C986 0.949 . S
H963 C988 0.949 . S
H964 C989 0.950 . S
H965 C991 0.950 . S
H966 C992 0.950 . S
H967 C994 0.950 . S
H968 C997 0.950 . S
H969 C998 0.950 . S
H970 C1000 0.951 . S
H971 C1001 0.949 . S
C972 C973 1.376 . S
C972 C977 1.386 . S
C972 C978 1.483 . S
C973 H954 0.949 . S
C973 C972 1.376 . S
C973 C974 1.397 . S
C974 H955 0.950 . S
C974 C973 1.397 . S
C974 C975 1.391 . S
C975 C974 1.391 . S
C975 C976 1.405 . S
C976 H956 0.950 . S
C976 C975 1.405 . S
C976 C977 1.367 . S
C977 H957 0.950 . S
C977 C972 1.386 . S
C977 C976 1.367 . S
C978 C972 1.483 . S
C978 C979 1.382 . S
C978 C980 1.403 . S
C979 H958 0.950 . S
C979 C978 1.382 . S
C979 C995 1.411 . S
C980 C978 1.403 . S
C980 C981 1.489 . S
C980 C994 1.411 . S
C981 C980 1.489 . S
C981 C982 1.383 . S
C981 C986 1.382 . S
C982 H959 0.950 . S
C982 C981 1.383 . S
C982 C983 1.395 . S
C983 H960 0.950 . S
C983 C982 1.395 . S
C983 C984 1.288 . S
C984 C983 1.288 . S
C984 C985 1.392 . S
C985 H961 0.951 . S
C985 C984 1.392 . S
C985 C986 1.392 . S
C986 H962 0.949 . S
C986 C981 1.382 . S
C986 C985 1.392 . S
C987 C988 1.376 . S
C987 C992 1.386 . S
C987 C993 1.483 . S
C988 H963 0.949 . S
C988 C987 1.376 . S
C988 C989 1.397 . S
C989 H964 0.950 . S
C989 C988 1.397 . S
C989 C990 1.391 . S
C990 C989 1.391 . S
C990 C991 1.405 . S
C991 H965 0.950 . S
C991 C990 1.405 . S
C991 C992 1.367 . S
C992 H966 0.950 . S
C992 C987 1.386 . S
C992 C991 1.367 . S
C993 C987 1.483 . S
C993 C994 1.382 . S
C993 C995 1.403 . S
C994 H967 0.950 . S
C994 C980 1.411 . S
C994 C993 1.382 . S
C995 C979 1.411 . S
C995 C993 1.403 . S
C995 C996 1.489 . S
C996 C995 1.489 . S
C996 C997 1.383 . S
C996 C1001 1.382 . S
C997 H968 0.950 . S
C997 C996 1.383 . S
C997 C998 1.395 . S
C998 H969 0.950 . S
C998 C997 1.395 . S
C998 C999 1.288 . S
C999 C998 1.288 . S
C999 C1000 1.392 . S
C1000 H970 0.951 . S
C1000 C999 1.392 . S
C1000 C1001 1.392 . S
C1001 H971 0.949 . S
C1001 C996 1.382 . S
C1001 C1000 1.392 . S
H1002 C1021 0.949 . S
H1003 C1022 0.950 . S
H1004 C1024 0.950 . S
H1005 C1025 0.950 . S
H1006 C1027 0.950 . S
H1007 C1030 0.950 . S
H1008 C1031 0.950 . S
H1009 C1033 0.951 . S
H1010 C1034 0.949 . S
H1011 C1036 0.949 . S
H1012 C1037 0.950 . S
H1013 C1039 0.950 . S
H1014 C1040 0.950 . S
H1015 C1042 0.950 . S
H1016 C1045 0.950 . S
H1017 C1046 0.950 . S
H1018 C1048 0.951 . S
H1019 C1049 0.949 . S
C1020 C1021 1.376 . S
C1020 C1025 1.386 . S
C1020 C1026 1.483 . S
C1021 H1002 0.949 . S
C1021 C1020 1.376 . S
C1021 C1022 1.397 . S
C1022 H1003 0.950 . S
C1022 C1021 1.397 . S
C1022 C1023 1.391 . S
C1023 C1022 1.391 . S
C1023 C1024 1.405 . S
C1024 H1004 0.950 . S
C1024 C1023 1.405 . S
C1024 C1025 1.367 . S
C1025 H1005 0.950 . S
C1025 C1020 1.386 . S
C1025 C1024 1.367 . S
C1026 C1020 1.483 . S
C1026 C1027 1.382 . S
C1026 C1028 1.403 . S
C1027 H1006 0.950 . S
C1027 C1026 1.382 . S
C1027 C1043 1.411 . S
C1028 C1026 1.403 . S
C1028 C1029 1.489 . S
C1028 C1042 1.411 . S
C1029 C1028 1.489 . S
C1029 C1030 1.383 . S
C1029 C1034 1.382 . S
C1030 H1007 0.950 . S
C1030 C1029 1.383 . S
C1030 C1031 1.395 . S
C1031 H1008 0.950 . S
C1031 C1030 1.395 . S
C1031 C1032 1.288 . S
C1032 C1031 1.288 . S
C1032 C1033 1.392 . S
C1033 H1009 0.951 . S
C1033 C1032 1.392 . S
C1033 C1034 1.392 . S
C1034 H1010 0.949 . S
C1034 C1029 1.382 . S
C1034 C1033 1.392 . S
C1035 C1036 1.376 . S
C1035 C1040 1.386 . S
C1035 C1041 1.483 . S
C1036 H1011 0.949 . S
C1036 C1035 1.376 . S
C1036 C1037 1.397 . S
C1037 H1012 0.950 . S
C1037 C1036 1.397 . S
C1037 C1038 1.391 . S
C1038 C1037 1.391 . S
C1038 C1039 1.405 . S
C1039 H1013 0.950 . S
C1039 C1038 1.405 . S
C1039 C1040 1.367 . S
C1040 H1014 0.950 . S
C1040 C1035 1.386 . S
C1040 C1039 1.367 . S
C1041 C1035 1.483 . S
C1041 C1042 1.382 . S
C1041 C1043 1.403 . S
C1042 H1015 0.950 . S
C1042 C1028 1.411 . S
C1042 C1041 1.382 . S
C1043 C1027 1.411 . S
C1043 C1041 1.403 . S
C1043 C1044 1.489 . S
C1044 C1043 1.489 . S
C1044 C1045 1.383 . S
C1044 C1049 1.382 . S
C1045 H1016 0.950 . S
C1045 C1044 1.383 . S
C1045 C1046 1.395 . S
C1046 H1017 0.950 . S
C1046 C1045 1.395 . S
C1046 C1047 1.288 . S
C1047 C1046 1.288 . S
C1047 C1048 1.392 . S
C1048 H1018 0.951 . S
C1048 C1047 1.392 . S
C1048 C1049 1.392 . S
C1049 H1019 0.949 . S
C1049 C1044 1.382 . S
C1049 C1048 1.392 . S
H1050 C1069 0.949 . S
H1051 C1070 0.950 . S
H1052 C1072 0.950 . S
H1053 C1073 0.950 . S
H1054 C1075 0.950 . S
H1055 C1078 0.950 . S
H1056 C1079 0.950 . S
H1057 C1081 0.951 . S
H1058 C1082 0.949 . S
H1059 C1084 0.949 . S
H1060 C1085 0.950 . S
H1061 C1087 0.950 . S
H1062 C1088 0.950 . S
H1063 C1090 0.950 . S
H1064 C1093 0.950 . S
H1065 C1094 0.950 . S
H1066 C1096 0.951 . S
H1067 C1097 0.949 . S
C1068 C1069 1.376 . S
C1068 C1073 1.386 . S
C1068 C1074 1.483 . S
C1069 H1050 0.949 . S
C1069 C1068 1.376 . S
C1069 C1070 1.397 . S
C1070 H1051 0.950 . S
C1070 C1069 1.397 . S
C1070 C1071 1.391 . S
C1071 C1070 1.391 . S
C1071 C1072 1.405 . S
C1072 H1052 0.950 . S
C1072 C1071 1.405 . S
C1072 C1073 1.367 . S
C1073 H1053 0.950 . S
C1073 C1068 1.386 . S
C1073 C1072 1.367 . S
C1074 C1068 1.483 . S
C1074 C1075 1.382 . S
C1074 C1076 1.403 . S
C1075 H1054 0.950 . S
C1075 C1074 1.382 . S
C1075 C1091 1.411 . S
C1076 C1074 1.403 . S
C1076 C1077 1.489 . S
C1076 C1090 1.411 . S
C1077 C1076 1.489 . S
C1077 C1078 1.383 . S
C1077 C1082 1.382 . S
C1078 H1055 0.950 . S
C1078 C1077 1.383 . S
C1078 C1079 1.395 . S
C1079 H1056 0.950 . S
C1079 C1078 1.395 . S
C1079 C1080 1.288 . S
C1080 C1079 1.288 . S
C1080 C1081 1.392 . S
C1081 H1057 0.951 . S
C1081 C1080 1.392 . S
C1081 C1082 1.392 . S
C1082 H1058 0.949 . S
C1082 C1077 1.382 . S
C1082 C1081 1.392 . S
C1083 C1084 1.376 . S
C1083 C1088 1.386 . S
C1083 C1089 1.483 . S
C1084 H1059 0.949 . S
C1084 C1083 1.376 . S
C1084 C1085 1.397 . S
C1085 H1060 0.950 . S
C1085 C1084 1.397 . S
C1085 C1086 1.391 . S
C1086 C1085 1.391 . S
C1086 C1087 1.405 . S
C1087 H1061 0.950 . S
C1087 C1086 1.405 . S
C1087 C1088 1.367 . S
C1088 H1062 0.950 . S
C1088 C1083 1.386 . S
C1088 C1087 1.367 . S
C1089 C1083 1.483 . S
C1089 C1090 1.382 . S
C1089 C1091 1.403 . S
C1090 H1063 0.950 . S
C1090 C1076 1.411 . S
C1090 C1089 1.382 . S
C1091 C1075 1.411 . S
C1091 C1089 1.403 . S
C1091 C1092 1.489 . S
C1092 C1091 1.489 . S
C1092 C1093 1.383 . S
C1092 C1097 1.382 . S
C1093 H1064 0.950 . S
C1093 C1092 1.383 . S
C1093 C1094 1.395 . S
C1094 H1065 0.950 . S
C1094 C1093 1.395 . S
C1094 C1095 1.288 . S
C1095 C1094 1.288 . S
C1095 C1096 1.392 . S
C1096 H1066 0.951 . S
C1096 C1095 1.392 . S
C1096 C1097 1.392 . S
C1097 H1067 0.949 . S
C1097 C1092 1.382 . S
C1097 C1096 1.392 . S
H1098 C1110 0.930 . S
H1099 C1112 0.930 . S
H1100 C1113 0.930 . S
H1101 C1117 0.959 1_655 S
H1102 C1117 0.959 . S
H1103 C1117 0.961 . S
H1104 C1118 0.960 . S
H1105 C1118 0.961 . S
H1106 C1118 0.959 . S
H1107 C1121 0.929 . S
H1108 C1122 0.931 . S
H1109 C1124 0.930 . S
C1110 H1098 0.930 . S
C1110 C1111 1.399 1_455 S
C1110 C1115 1.434 . S
C1111 C1110 1.399 1_655 S
C1111 C1112 1.376 . S
C1112 H1099 0.930 . S
C1112 C1111 1.376 . S
C1112 C1113 1.388 . S
C1113 H1100 0.930 . S
C1113 C1112 1.388 . S
C1113 C1114 1.390 . S
C1114 C1113 1.390 . S
C1114 C1115 1.336 1_655 S
C1114 C1120 1.465 . S
C1115 C1110 1.434 . S
C1115 C1114 1.336 1_455 S
C1115 C1116 1.534 . S
C1116 C1115 1.534 . S
C1116 C1117 1.502 . S
C1116 C1118 1.561 . S
C1116 C1119 1.526 . S
C1117 H1101 0.959 1_455 S
C1117 H1102 0.959 . S
C1117 H1103 0.961 . S
C1117 C1116 1.502 . S
C1118 H1104 0.960 . S
C1118 H1105 0.961 . S
C1118 H1106 0.959 . S
C1118 C1116 1.561 . S
C1119 C1116 1.526 . S
C1119 C1120 1.396 1_455 S
C1119 C1124 1.390 . S
C1120 C1114 1.465 . S
C1120 C1119 1.396 1_655 S
C1120 C1121 1.399 . S
C1121 H1107 0.929 . S
C1121 C1120 1.399 . S
C1121 C1122 1.385 . S
C1122 H1108 0.931 . S
C1122 C1121 1.385 . S
C1122 C1123 1.389 . S
C1123 C1122 1.389 . S
C1123 C1124 1.387 1_655 S
C1124 H1109 0.930 . S
C1124 C1119 1.390 . S
C1124 C1123 1.387 1_455 S
H1125 C1137 0.930 . S
H1126 C1139 0.930 . S
H1127 C1140 0.930 . S
H1128 C1144 0.959 . S
H1129 C1144 0.959 . S
H1130 C1144 0.961 . S
H1131 C1145 0.960 . S
H1132 C1145 0.961 . S
H1133 C1145 0.959 . S
H1134 C1148 0.929 . S
H1135 C1149 0.931 . S
H1136 C1151 0.930 . S
C1137 H1125 0.930 . S
C1137 C1138 1.399 . S
C1137 C1142 1.399 . S
C1138 C1137 1.399 . S
C1138 C1139 1.376 . S
C1139 H1126 0.930 . S
C1139 C1138 1.376 . S
C1139 C1140 1.388 . S
C1140 H1127 0.930 . S
C1140 C1139 1.388 . S
C1140 C1141 1.390 . S
C1141 C1140 1.390 . S
C1141 C1142 1.394 . S
C1141 C1147 1.465 . S
C1142 C1137 1.399 . S
C1142 C1141 1.394 . S
C1142 C1143 1.516 . S
C1143 C1142 1.516 . S
C1143 C1144 1.502 . S
C1143 C1145 1.561 . S
C1143 C1146 1.526 . S
C1144 H1128 0.959 . S
C1144 H1129 0.959 . S
C1144 H1130 0.961 . S
C1144 C1143 1.502 . S
C1145 H1131 0.960 . S
C1145 H1132 0.961 . S
C1145 H1133 0.959 . S
C1145 C1143 1.561 . S
C1146 C1143 1.526 . S
C1146 C1147 1.396 . S
C1146 C1151 1.390 . S
C1147 C1141 1.465 . S
C1147 C1146 1.396 . S
C1147 C1148 1.399 . S
C1148 H1134 0.929 . S
C1148 C1147 1.399 . S
C1148 C1149 1.385 . S
C1149 H1135 0.931 . S
C1149 C1148 1.385 . S
C1149 C1150 1.389 . S
C1150 C1149 1.389 . S
C1150 C1151 1.387 . S
C1151 H1136 0.930 . S
C1151 C1146 1.390 . S
C1151 C1150 1.387 . S
H1152 C1164 0.930 . S
H1153 C1166 0.930 . S
H1154 C1167 0.930 . S
H1155 C1171 0.959 . S
H1156 C1171 0.959 . S
H1157 C1171 0.961 . S
H1158 C1172 0.960 . S
H1159 C1172 0.961 . S
H1160 C1172 0.959 . S
H1161 C1175 0.929 . S
H1162 C1176 0.931 . S
H1163 C1178 0.930 . S
C1164 H1152 0.930 . S
C1164 C1165 1.399 . S
C1164 C1169 1.399 . S
C1165 C1164 1.399 . S
C1165 C1166 1.376 1_545 S
C1166 H1153 0.930 . S
C1166 C1165 1.376 1_565 S
C1166 C1167 1.388 . S
C1167 H1154 0.930 . S
C1167 C1166 1.388 . S
C1167 C1168 1.390 1_565 S
C1168 C1167 1.390 1_545 S
C1168 C1169 1.394 . S
C1168 C1174 1.465 . S
C1169 C1164 1.399 . S
C1169 C1168 1.394 . S
C1169 C1170 1.516 . S
C1170 C1169 1.516 . S
C1170 C1171 1.502 . S
C1170 C1172 1.561 . S
C1170 C1173 1.526 . S
C1171 H1155 0.959 . S
C1171 H1156 0.959 . S
C1171 H1157 0.961 . S
C1171 C1170 1.502 . S
C1172 H1158 0.960 . S
C1172 H1159 0.961 . S
C1172 H1160 0.959 . S
C1172 C1170 1.561 . S
C1173 C1170 1.526 . S
C1173 C1174 1.396 . S
C1173 C1178 1.390 . S
C1174 C1168 1.465 . S
C1174 C1173 1.396 . S
C1174 C1175 1.399 1_545 S
C1175 H1161 0.929 . S
C1175 C1174 1.399 1_565 S
C1175 C1176 1.385 . S
C1176 H1162 0.931 . S
C1176 C1175 1.385 . S
C1176 C1177 1.389 1_565 S
C1177 C1176 1.389 1_545 S
C1177 C1178 1.387 . S
C1178 H1163 0.930 . S
C1178 C1173 1.390 . S
C1178 C1177 1.387 . S
H1179 C1191 0.930 . S
H1180 C1193 0.930 . S
H1181 C1194 0.930 . S
H1182 C1198 0.959 . S
H1183 C1198 0.959 . S
H1184 C1198 0.961 . S
H1185 C1199 0.960 . S
H1186 C1199 0.961 . S
H1187 C1199 0.959 . S
H1188 C1202 0.929 . S
H1189 C1203 0.931 . S
H1190 C1205 0.930 . S
C1191 H1179 0.930 . S
C1191 C1192 1.399 1_545 S
C1191 C1196 1.399 . S
C1192 C1191 1.399 1_565 S
C1192 C1193 1.376 . S
C1193 H1180 0.930 . S
C1193 C1192 1.376 . S
C1193 C1194 1.388 . S
C1194 H1181 0.930 . S
C1194 C1193 1.388 . S
C1194 C1195 1.390 . S
C1195 C1194 1.390 . S
C1195 C1196 1.394 1_565 S
C1195 C1201 1.465 . S
C1196 C1191 1.399 . S
C1196 C1195 1.394 1_545 S
C1196 C1197 1.516 . S
C1197 C1196 1.516 . S
C1197 C1198 1.502 . S
C1197 C1199 1.561 . S
C1197 C1200 1.526 . S
C1198 H1182 0.959 . S
C1198 H1183 0.959 . S
C1198 H1184 0.961 . S
C1198 C1197 1.502 . S
C1199 H1185 0.960 . S
C1199 H1186 0.961 . S
C1199 H1187 0.959 . S
C1199 C1197 1.561 . S
C1200 C1197 1.526 . S
C1200 C1201 1.396 1_545 S
C1200 C1205 1.390 . S
C1201 C1195 1.465 . S
C1201 C1200 1.396 1_565 S
C1201 C1202 1.399 . S
C1202 H1188 0.929 . S
C1202 C1201 1.399 . S
C1202 C1203 1.385 . S
C1203 H1189 0.931 . S
C1203 C1202 1.385 . S
C1203 C1204 1.389 . S
C1204 C1203 1.389 . S
C1204 C1205 1.387 1_565 S
C1205 H1190 0.930 . S
C1205 C1200 1.390 . S
C1205 C1204 1.387 1_545 S
H1206 C1218 0.930 1_655 S
H1207 C1220 0.930 . S
H1208 C1221 0.930 . S
H1209 C1225 0.929 1_455 S
H1210 C1225 0.981 . S
H1211 C1225 0.950 . S
H1212 C1226 0.960 . S
H1213 C1226 0.961 . S
H1214 C1226 0.959 . S
H1215 C1229 0.929 . S
H1216 C1230 0.931 . S
H1217 C1232 0.930 . S
C1218 H1206 0.930 1_455 S
C1218 C1219 1.399 . S
C1218 C1223 1.399 . S
C1219 C1218 1.399 . S
C1219 C1220 1.376 . S
C1220 H1207 0.930 . S
C1220 C1219 1.376 . S
C1220 C1221 1.388 . S
C1221 H1208 0.930 . S
C1221 C1220 1.388 . S
C1221 C1222 1.390 . S
C1222 C1221 1.390 . S
C1222 C1223 1.394 . S
C1222 C1228 1.465 . S
C1223 C1218 1.399 . S
C1223 C1222 1.394 . S
C1223 C1224 1.516 1_455 S
C1224 C1223 1.516 1_655 S
C1224 C1225 1.523 . S
C1224 C1226 1.561 . S
C1224 C1227 1.526 1_655 S
C1225 H1209 0.929 1_655 S
C1225 H1210 0.981 . S
C1225 H1211 0.950 . S
C1225 C1224 1.523 . S
C1226 H1212 0.960 . S
C1226 H1213 0.961 . S
C1226 H1214 0.959 . S
C1226 C1224 1.561 . S
C1227 C1224 1.526 1_455 S
C1227 C1228 1.396 . S
C1227 C1232 1.390 1_455 S
C1228 C1222 1.465 . S
C1228 C1227 1.396 . S
C1228 C1229 1.399 . S
C1229 H1215 0.929 . S
C1229 C1228 1.399 . S
C1229 C1230 1.385 . S
C1230 H1216 0.931 . S
C1230 C1229 1.385 . S
C1230 C1231 1.389 . S
C1231 C1230 1.389 . S
C1231 C1232 1.387 1_455 S
C1232 H1217 0.930 . S
C1232 C1227 1.390 1_655 S
C1232 C1231 1.387 1_655 S
H1233 C1245 0.930 . S
H1234 C1247 0.930 . S
H1235 C1248 0.930 . S
H1236 C1252 0.959 . S
H1237 C1252 0.959 . S
H1238 C1252 0.961 . S
H1239 C1253 0.960 . S
H1240 C1253 0.961 . S
H1241 C1253 0.959 . S
H1242 C1256 0.929 . S
H1243 C1257 0.931 . S
H1244 C1259 0.930 . S
C1245 H1233 0.930 . S
C1245 C1246 1.399 . S
C1245 C1250 1.399 . S
C1246 C1245 1.399 . S
C1246 C1247 1.376 . S
C1247 H1234 0.930 . S
C1247 C1246 1.376 . S
C1247 C1248 1.388 . S
C1248 H1235 0.930 . S
C1248 C1247 1.388 . S
C1248 C1249 1.390 . S
C1249 C1248 1.390 . S
C1249 C1250 1.394 . S
C1249 C1255 1.465 . S
C1250 C1245 1.399 . S
C1250 C1249 1.394 . S
C1250 C1251 1.516 . S
C1251 C1250 1.516 . S
C1251 C1252 1.502 . S
C1251 C1253 1.561 . S
C1251 C1254 1.526 . S
C1252 H1236 0.959 . S
C1252 H1237 0.959 . S
C1252 H1238 0.961 . S
C1252 C1251 1.502 . S
C1253 H1239 0.960 . S
C1253 H1240 0.961 . S
C1253 H1241 0.959 . S
C1253 C1251 1.561 . S
C1254 C1251 1.526 . S
C1254 C1255 1.396 . S
C1254 C1259 1.390 . S
C1255 C1249 1.465 . S
C1255 C1254 1.396 . S
C1255 C1256 1.399 . S
C1256 H1242 0.929 . S
C1256 C1255 1.399 . S
C1256 C1257 1.385 . S
C1257 H1243 0.931 . S
C1257 C1256 1.385 . S
C1257 C1258 1.389 . S
C1258 C1257 1.389 . S
C1258 C1259 1.387 . S
C1259 H1244 0.930 . S
C1259 C1254 1.390 . S
C1259 C1258 1.387 . S
H1260 C1272 0.930 . S
H1261 C1274 0.930 . S
H1262 C1275 0.930 . S
H1263 C1279 0.959 . S
H1264 C1279 0.959 . S
H1265 C1279 0.961 . S
H1266 C1280 0.960 . S
H1267 C1280 0.961 . S
H1268 C1280 0.959 . S
H1269 C1283 0.929 . S
H1270 C1284 0.931 . S
H1271 C1286 0.930 . S
C1272 H1260 0.930 . S
C1272 C1273 1.399 . S
C1272 C1277 1.399 . S
C1273 C1272 1.399 . S
C1273 C1274 1.376 . S
C1274 H1261 0.930 . S
C1274 C1273 1.376 . S
C1274 C1275 1.388 . S
C1275 H1262 0.930 . S
C1275 C1274 1.388 . S
C1275 C1276 1.390 . S
C1276 C1275 1.390 . S
C1276 C1277 1.394 . S
C1276 C1282 1.465 . S
C1277 C1272 1.399 . S
C1277 C1276 1.394 . S
C1277 C1278 1.516 . S
C1278 C1277 1.516 . S
C1278 C1279 1.502 . S
C1278 C1280 1.561 1_455 S
C1278 C1281 1.526 . S
C1279 H1263 0.959 . S
C1279 H1264 0.959 . S
C1279 H1265 0.961 . S
C1279 C1278 1.502 . S
C1280 H1266 0.960 . S
C1280 H1267 0.961 . S
C1280 H1268 0.959 . S
C1280 C1278 1.561 1_655 S
C1281 C1278 1.526 . S
C1281 C1282 1.396 . S
C1281 C1286 1.390 . S
C1282 C1276 1.465 . S
C1282 C1281 1.396 . S
C1282 C1283 1.399 . S
C1283 H1269 0.929 . S
C1283 C1282 1.399 . S
C1283 C1284 1.385 . S
C1284 H1270 0.931 . S
C1284 C1283 1.385 . S
C1284 C1285 1.389 . S
C1285 C1284 1.389 . S
C1285 C1286 1.387 . S
C1286 H1271 0.930 . S
C1286 C1281 1.390 . S
C1286 C1285 1.387 . S
H1287 C1299 0.930 . S
H1288 C1301 0.930 . S
H1289 C1302 0.930 . S
H1290 C1306 0.959 . S
H1291 C1306 0.959 . S
H1292 C1306 0.961 . S
H1293 C1307 0.960 . S
H1294 C1307 0.961 . S
H1295 C1307 0.959 . S
H1296 C1310 0.929 . S
H1297 C1311 0.931 . S
H1298 C1313 0.930 . S
C1299 H1287 0.930 . S
C1299 C1300 1.399 . S
C1299 C1304 1.399 . S
C1300 C1299 1.399 . S
C1300 C1301 1.376 . S
C1301 H1288 0.930 . S
C1301 C1300 1.376 . S
C1301 C1302 1.388 . S
C1302 H1289 0.930 . S
C1302 C1301 1.388 . S
C1302 C1303 1.390 . S
C1303 C1302 1.390 . S
C1303 C1304 1.394 . S
C1303 C1309 1.465 . S
C1304 C1299 1.399 . S
C1304 C1303 1.394 . S
C1304 C1305 1.516 . S
C1305 C1304 1.516 . S
C1305 C1306 1.502 . S
C1305 C1307 1.561 . S
C1305 C1308 1.526 . S
C1306 H1290 0.959 . S
C1306 H1291 0.959 . S
C1306 H1292 0.961 . S
C1306 C1305 1.502 . S
C1307 H1293 0.960 . S
C1307 H1294 0.961 . S
C1307 H1295 0.959 . S
C1307 C1305 1.561 . S
C1308 C1305 1.526 . S
C1308 C1309 1.396 . S
C1308 C1313 1.390 . S
C1309 C1303 1.465 . S
C1309 C1308 1.396 . S
C1309 C1310 1.399 . S
C1310 H1296 0.929 . S
C1310 C1309 1.399 . S
C1310 C1311 1.385 . S
C1311 H1297 0.931 . S
C1311 C1310 1.385 . S
C1311 C1312 1.389 . S
C1312 C1311 1.389 . S
C1312 C1313 1.387 . S
C1313 H1298 0.930 . S
C1313 C1308 1.390 . S
C1313 C1312 1.387 . S
H1314 C1326 0.930 . S
H1315 C1328 0.930 . S
H1316 C1329 0.930 . S
H1317 C1333 0.959 . S
H1318 C1333 0.959 . S
H1319 C1333 0.961 . S
H1320 C1334 0.960 . S
H1321 C1334 0.961 . S
H1322 C1334 0.959 . S
H1323 C1337 0.929 . S
H1324 C1338 0.931 . S
H1325 C1340 0.930 . S
C1326 H1314 0.930 . S
C1326 C1327 1.399 1_545 S
C1326 C1331 1.399 . S
C1327 C1326 1.399 1_565 S
C1327 C1328 1.376 . S
C1328 H1315 0.930 . S
C1328 C1327 1.376 . S
C1328 C1329 1.388 . S
C1329 H1316 0.930 . S
C1329 C1328 1.388 . S
C1329 C1330 1.390 . S
C1330 C1329 1.390 . S
C1330 C1331 1.394 1_565 S
C1330 C1336 1.465 . S
C1331 C1326 1.399 . S
C1331 C1330 1.394 1_545 S
C1331 C1332 1.516 . S
C1332 C1331 1.516 . S
C1332 C1333 1.502 . S
C1332 C1334 1.561 . S
C1332 C1335 1.526 . S
C1333 H1317 0.959 . S
C1333 H1318 0.959 . S
C1333 H1319 0.961 . S
C1333 C1332 1.502 . S
C1334 H1320 0.960 . S
C1334 H1321 0.961 . S
C1334 H1322 0.959 . S
C1334 C1332 1.561 . S
C1335 C1332 1.526 . S
C1335 C1336 1.396 1_545 S
C1335 C1340 1.390 . S
C1336 C1330 1.465 . S
C1336 C1335 1.396 1_565 S
C1336 C1337 1.399 . S
C1337 H1323 0.929 . S
C1337 C1336 1.399 . S
C1337 C1338 1.385 . S
C1338 H1324 0.931 . S
C1338 C1337 1.385 . S
C1338 C1339 1.389 . S
C1339 C1338 1.389 . S
C1339 C1340 1.387 1_565 S
C1340 H1325 0.930 . S
C1340 C1335 1.390 . S
C1340 C1339 1.387 1_545 S
H1341 C1353 0.930 . S
H1342 C1355 0.930 . S
H1343 C1356 0.930 . S
H1344 C1360 0.959 . S
H1345 C1360 0.959 . S
H1346 C1360 0.961 . S
H1347 C1361 0.960 . S
H1348 C1361 0.961 . S
H1349 C1361 0.959 . S
H1350 C1364 0.929 . S
H1351 C1365 0.931 . S
H1352 C1367 0.930 . S
C1353 H1341 0.930 . S
C1353 C1354 1.399 1_565 S
C1353 C1358 1.428 . S
C1354 C1353 1.399 1_545 S
C1354 C1355 1.376 . S
C1355 H1342 0.930 . S
C1355 C1354 1.376 . S
C1355 C1356 1.388 . S
C1356 H1343 0.930 . S
C1356 C1355 1.388 . S
C1356 C1357 1.390 . S
C1357 C1356 1.390 . S
C1357 C1358 1.338 1_545 S
C1357 C1363 1.465 . S
C1358 C1353 1.428 . S
C1358 C1357 1.338 1_565 S
C1358 C1359 1.537 . S
C1359 C1358 1.537 . S
C1359 C1360 1.502 . S
C1359 C1361 1.561 . S
C1359 C1362 1.526 . S
C1360 H1344 0.959 . S
C1360 H1345 0.959 . S
C1360 H1346 0.961 . S
C1360 C1359 1.502 . S
C1361 H1347 0.960 . S
C1361 H1348 0.961 . S
C1361 H1349 0.959 . S
C1361 C1359 1.561 . S
C1362 C1359 1.526 . S
C1362 C1363 1.396 1_565 S
C1362 C1367 1.390 . S
C1363 C1357 1.465 . S
C1363 C1362 1.396 1_545 S
C1363 C1364 1.399 . S
C1364 H1350 0.929 . S
C1364 C1363 1.399 . S
C1364 C1365 1.385 . S
C1365 H1351 0.931 . S
C1365 C1364 1.385 . S
C1365 C1366 1.389 . S
C1366 C1365 1.389 . S
C1366 C1367 1.387 1_545 S
C1367 H1352 0.930 . S
C1367 C1362 1.390 . S
C1367 C1366 1.387 1_565 S
H1368 C1380 0.930 . S
H1369 C1382 0.930 . S
H1370 C1383 0.930 . S
H1371 C1387 0.959 . S
H1372 C1387 0.959 . S
H1373 C1387 0.961 . S
H1374 C1388 0.960 . S
H1375 C1388 0.961 . S
H1376 C1388 0.959 1_455 S
H1377 C1391 0.929 . S
H1378 C1392 0.931 . S
H1379 C1394 0.930 . S
C1380 H1368 0.930 . S
C1380 C1381 1.399 . S
C1380 C1385 1.399 . S
C1381 C1380 1.399 . S
C1381 C1382 1.376 1_655 S
C1382 H1369 0.930 . S
C1382 C1381 1.376 1_455 S
C1382 C1383 1.388 . S
C1383 H1370 0.930 . S
C1383 C1382 1.388 . S
C1383 C1384 1.400 1_455 S
C1384 C1383 1.400 1_655 S
C1384 C1385 1.406 . S
C1384 C1390 1.447 . S
C1385 C1380 1.399 . S
C1385 C1384 1.406 . S
C1385 C1386 1.516 . S
C1386 C1385 1.516 . S
C1386 C1387 1.502 . S
C1386 C1388 1.561 . S
C1386 C1389 1.526 . S
C1387 H1371 0.959 . S
C1387 H1372 0.959 . S
C1387 H1373 0.961 . S
C1387 C1386 1.502 . S
C1388 H1374 0.960 . S
C1388 H1375 0.961 . S
C1388 H1376 0.959 1_655 S
C1388 C1386 1.561 . S
C1389 C1386 1.526 . S
C1389 C1390 1.396 . S
C1389 C1394 1.390 . S
C1390 C1384 1.447 . S
C1390 C1389 1.396 . S
C1390 C1391 1.398 1_655 S
C1391 H1377 0.929 . S
C1391 C1390 1.398 1_455 S
C1391 C1392 1.385 . S
C1392 H1378 0.931 . S
C1392 C1391 1.385 . S
C1392 C1393 1.389 1_455 S
C1393 C1392 1.389 1_655 S
C1393 C1394 1.387 . S
C1394 H1379 0.930 . S
C1394 C1389 1.390 . S
C1394 C1393 1.387 . S
H1395 C1407 0.930 . S
H1396 C1409 0.930 . S
H1397 C1410 0.930 . S
H1398 C1414 0.959 . S
H1399 C1414 0.959 . S
H1400 C1414 0.961 . S
H1401 C1415 0.960 . S
H1402 C1415 0.961 . S
H1403 C1415 0.959 . S
H1404 C1418 0.929 . S
H1405 C1419 0.931 . S
H1406 C1421 0.930 . S
C1407 H1395 0.930 . S
C1407 C1408 1.399 . S
C1407 C1412 1.399 . S
C1408 C1407 1.399 . S
C1408 C1409 1.376 . S
C1409 H1396 0.930 . S
C1409 C1408 1.376 . S
C1409 C1410 1.388 . S
C1410 H1397 0.930 . S
C1410 C1409 1.388 . S
C1410 C1411 1.390 . S
C1411 C1410 1.390 . S
C1411 C1412 1.394 . S
C1411 C1417 1.465 . S
C1412 C1407 1.399 . S
C1412 C1411 1.394 . S
C1412 C1413 1.516 . S
C1413 C1412 1.516 . S
C1413 C1414 1.502 . S
C1413 C1415 1.561 . S
C1413 C1416 1.526 . S
C1414 H1398 0.959 . S
C1414 H1399 0.959 . S
C1414 H1400 0.961 . S
C1414 C1413 1.502 . S
C1415 H1401 0.960 . S
C1415 H1402 0.961 . S
C1415 H1403 0.959 . S
C1415 C1413 1.561 . S
C1416 C1413 1.526 . S
C1416 C1417 1.396 . S
C1416 C1421 1.390 . S
C1417 C1411 1.465 . S
C1417 C1416 1.396 . S
C1417 C1418 1.399 . S
C1418 H1404 0.929 . S
C1418 C1417 1.399 . S
C1418 C1419 1.385 . S
C1419 H1405 0.931 . S
C1419 C1418 1.385 . S
C1419 C1420 1.389 . S
C1420 C1419 1.389 . S
C1420 C1421 1.387 . S
C1421 H1406 0.930 . S
C1421 C1416 1.390 . S
C1421 C1420 1.387 . S
H1422 C1434 0.930 . S
H1423 C1436 0.930 . S
H1424 C1437 0.930 . S
H1425 C1441 0.959 . S
H1426 C1441 0.959 . S
H1427 C1441 0.961 . S
H1428 C1442 0.960 . S
H1429 C1442 0.961 . S
H1430 C1442 0.959 . S
H1431 C1445 0.929 . S
H1432 C1446 0.931 . S
H1433 C1448 0.930 . S
C1434 H1422 0.930 . S
C1434 C1435 1.399 . S
C1434 C1439 1.399 . S
C1435 C1434 1.399 . S
C1435 C1436 1.376 . S
C1436 H1423 0.930 . S
C1436 C1435 1.376 . S
C1436 C1437 1.388 . S
C1437 H1424 0.930 . S
C1437 C1436 1.388 . S
C1437 C1438 1.390 . S
C1438 C1437 1.390 . S
C1438 C1439 1.394 . S
C1438 C1444 1.465 . S
C1439 C1434 1.399 . S
C1439 C1438 1.394 . S
C1439 C1440 1.516 . S
C1440 C1439 1.516 . S
C1440 C1441 1.502 . S
C1440 C1442 1.561 . S
C1440 C1443 1.526 . S
C1441 H1425 0.959 . S
C1441 H1426 0.959 . S
C1441 H1427 0.961 . S
C1441 C1440 1.502 . S
C1442 H1428 0.960 . S
C1442 H1429 0.961 . S
C1442 H1430 0.959 . S
C1442 C1440 1.561 . S
C1443 C1440 1.526 . S
C1443 C1444 1.396 . S
C1443 C1448 1.390 . S
C1444 C1438 1.465 . S
C1444 C1443 1.396 . S
C1444 C1445 1.399 . S
C1445 H1431 0.929 . S
C1445 C1444 1.399 . S
C1445 C1446 1.385 . S
C1446 H1432 0.931 . S
C1446 C1445 1.385 . S
C1446 C1447 1.389 . S
C1447 C1446 1.389 . S
C1447 C1448 1.387 . S
C1448 H1433 0.930 . S
C1448 C1443 1.390 . S
C1448 C1447 1.387 . S
H1449 C1461 0.930 . S
H1450 C1463 0.930 . S
H1451 C1464 0.930 . S
H1452 C1468 0.959 . S
H1453 C1468 0.959 . S
H1454 C1468 0.961 . S
H1455 C1469 0.960 . S
H1456 C1469 0.961 . S
H1457 C1469 0.959 . S
H1458 C1472 0.929 . S
H1459 C1473 0.931 . S
H1460 C1475 0.930 . S
C1461 H1449 0.930 . S
C1461 C1462 1.399 . S
C1461 C1466 1.399 . S
C1462 C1461 1.399 . S
C1462 C1463 1.376 . S
C1463 H1450 0.930 . S
C1463 C1462 1.376 . S
C1463 C1464 1.388 . S
C1464 H1451 0.930 . S
C1464 C1463 1.388 . S
C1464 C1465 1.390 . S
C1465 C1464 1.390 . S
C1465 C1466 1.394 . S
C1465 C1471 1.465 . S
C1466 C1461 1.399 . S
C1466 C1465 1.394 . S
C1466 C1467 1.516 . S
C1467 C1466 1.516 . S
C1467 C1468 1.502 . S
C1467 C1469 1.561 . S
C1467 C1470 1.526 . S
C1468 H1452 0.959 . S
C1468 H1453 0.959 . S
C1468 H1454 0.961 . S
C1468 C1467 1.502 . S
C1469 H1455 0.960 . S
C1469 H1456 0.961 . S
C1469 H1457 0.959 . S
C1469 C1467 1.561 . S
C1470 C1467 1.526 . S
C1470 C1471 1.396 . S
C1470 C1475 1.390 . S
C1471 C1465 1.465 . S
C1471 C1470 1.396 . S
C1471 C1472 1.399 . S
C1472 H1458 0.929 . S
C1472 C1471 1.399 . S
C1472 C1473 1.385 . S
C1473 H1459 0.931 . S
C1473 C1472 1.385 . S
C1473 C1474 1.389 . S
C1474 C1473 1.389 . S
C1474 C1475 1.387 . S
C1475 H1460 0.930 . S
C1475 C1470 1.390 . S
C1475 C1474 1.387 . S
H1476 C1488 0.930 . S
H1477 C1490 0.930 . S
H1478 C1491 0.930 . S
H1479 C1495 0.959 . S
H1480 C1495 0.959 . S
H1481 C1495 0.961 . S
H1482 C1496 0.960 . S
H1483 C1496 0.961 . S
H1484 C1496 0.959 . S
H1485 C1499 0.929 . S
H1486 C1500 0.931 . S
H1487 C1502 0.930 . S
C1488 H1476 0.930 . S
C1488 C1489 1.399 . S
C1488 C1493 1.399 . S
C1489 C1488 1.399 . S
C1489 C1490 1.376 . S
C1490 H1477 0.930 . S
C1490 C1489 1.376 . S
C1490 C1491 1.388 . S
C1491 H1478 0.930 . S
C1491 C1490 1.388 . S
C1491 C1492 1.390 . S
C1492 C1491 1.390 . S
C1492 C1493 1.394 . S
C1492 C1498 1.465 . S
C1493 C1488 1.399 . S
C1493 C1492 1.394 . S
C1493 C1494 1.516 . S
C1494 C1493 1.516 . S
C1494 C1495 1.502 . S
C1494 C1496 1.561 . S
C1494 C1497 1.526 . S
C1495 H1479 0.959 . S
C1495 H1480 0.959 . S
C1495 H1481 0.961 . S
C1495 C1494 1.502 . S
C1496 H1482 0.960 . S
C1496 H1483 0.961 . S
C1496 H1484 0.959 . S
C1496 C1494 1.561 . S
C1497 C1494 1.526 . S
C1497 C1498 1.396 . S
C1497 C1502 1.390 . S
C1498 C1492 1.465 . S
C1498 C1497 1.396 . S
C1498 C1499 1.399 . S
C1499 H1485 0.929 . S
C1499 C1498 1.399 . S
C1499 C1500 1.385 . S
C1500 H1486 0.931 . S
C1500 C1499 1.385 . S
C1500 C1501 1.389 . S
C1501 C1500 1.389 . S
C1501 C1502 1.387 . S
C1502 H1487 0.930 . S
C1502 C1497 1.390 . S
C1502 C1501 1.387 . S
H1503 C1515 0.930 . S
H1504 C1517 0.930 . S
H1505 C1518 0.930 . S
H1506 C1522 0.959 . S
H1507 C1522 0.959 . S
H1508 C1522 0.961 . S
H1509 C1523 0.960 . S
H1510 C1523 0.961 . S
H1511 C1523 0.959 . S
H1512 C1526 0.929 . S
H1513 C1527 0.931 . S
H1514 C1529 0.930 . S
C1515 H1503 0.930 . S
C1515 C1516 1.399 . S
C1515 C1520 1.399 . S
C1516 C1515 1.399 . S
C1516 C1517 1.376 . S
C1517 H1504 0.930 . S
C1517 C1516 1.376 . S
C1517 C1518 1.388 . S
C1518 H1505 0.930 . S
C1518 C1517 1.388 . S
C1518 C1519 1.390 . S
C1519 C1518 1.390 . S
C1519 C1520 1.394 . S
C1519 C1525 1.465 . S
C1520 C1515 1.399 . S
C1520 C1519 1.394 . S
C1520 C1521 1.516 . S
C1521 C1520 1.516 . S
C1521 C1522 1.502 . S
C1521 C1523 1.561 . S
C1521 C1524 1.526 . S
C1522 H1506 0.959 . S
C1522 H1507 0.959 . S
C1522 H1508 0.961 . S
C1522 C1521 1.502 . S
C1523 H1509 0.960 . S
C1523 H1510 0.961 . S
C1523 H1511 0.959 . S
C1523 C1521 1.561 . S
C1524 C1521 1.526 . S
C1524 C1525 1.396 . S
C1524 C1529 1.390 . S
C1525 C1519 1.465 . S
C1525 C1524 1.396 . S
C1525 C1526 1.399 . S
C1526 H1512 0.929 . S
C1526 C1525 1.399 . S
C1526 C1527 1.385 . S
C1527 H1513 0.931 . S
C1527 C1526 1.385 . S
C1527 C1528 1.389 . S
C1528 C1527 1.389 . S
C1528 C1529 1.387 . S
C1529 H1514 0.930 . S
C1529 C1524 1.390 . S
C1529 C1528 1.387 . S
H1530 C1542 0.930 . S
H1531 C1544 0.930 . S
H1532 C1545 0.930 . S
H1533 C1549 0.959 . S
H1534 C1549 0.959 . S
H1535 C1549 0.961 . S
H1536 C1550 0.960 . S
H1537 C1550 0.961 . S
H1538 C1550 0.959 . S
H1539 C1553 0.929 . S
H1540 C1554 0.931 . S
H1541 C1556 0.930 . S
C1542 H1530 0.930 . S
C1542 C1543 1.399 . S
C1542 C1547 1.399 . S
C1543 C1542 1.399 . S
C1543 C1544 1.376 . S
C1544 H1531 0.930 . S
C1544 C1543 1.376 . S
C1544 C1545 1.388 . S
C1545 H1532 0.930 . S
C1545 C1544 1.388 . S
C1545 C1546 1.390 . S
C1546 C1545 1.390 . S
C1546 C1547 1.394 . S
C1546 C1552 1.465 . S
C1547 C1542 1.399 . S
C1547 C1546 1.394 . S
C1547 C1548 1.516 . S
C1548 C1547 1.516 . S
C1548 C1549 1.502 . S
C1548 C1550 1.561 . S
C1548 C1551 1.526 . S
C1549 H1533 0.959 . S
C1549 H1534 0.959 . S
C1549 H1535 0.961 . S
C1549 C1548 1.502 . S
C1550 H1536 0.960 . S
C1550 H1537 0.961 . S
C1550 H1538 0.959 . S
C1550 C1548 1.561 . S
C1551 C1548 1.526 . S
C1551 C1552 1.396 . S
C1551 C1556 1.390 . S
C1552 C1546 1.465 . S
C1552 C1551 1.396 . S
C1552 C1553 1.399 . S
C1553 H1539 0.929 . S
C1553 C1552 1.399 . S
C1553 C1554 1.385 . S
C1554 H1540 0.931 . S
C1554 C1553 1.385 . S
C1554 C1555 1.389 . S
C1555 C1554 1.389 . S
C1555 C1556 1.387 . S
C1556 H1541 0.930 . S
C1556 C1551 1.390 . S
C1556 C1555 1.387 . S
H1557 C1569 0.930 . S
H1558 C1571 0.930 . S
H1559 C1572 0.930 . S
H1560 C1576 0.959 . S
H1561 C1576 0.959 . S
H1562 C1576 0.961 . S
H1563 C1577 0.960 . S
H1564 C1577 0.961 . S
H1565 C1577 0.959 . S
H1566 C1580 0.929 . S
H1567 C1581 0.931 . S
H1568 C1583 0.930 . S
C1569 H1557 0.930 . S
C1569 C1570 1.399 . S
C1569 C1574 1.399 . S
C1570 C1569 1.399 . S
C1570 C1571 1.376 . S
C1571 H1558 0.930 . S
C1571 C1570 1.376 . S
C1571 C1572 1.388 . S
C1572 H1559 0.930 . S
C1572 C1571 1.388 . S
C1572 C1573 1.390 . S
C1573 C1572 1.390 . S
C1573 C1574 1.394 . S
C1573 C1579 1.465 . S
C1574 C1569 1.399 . S
C1574 C1573 1.394 . S
C1574 C1575 1.516 . S
C1575 C1574 1.516 . S
C1575 C1576 1.502 . S
C1575 C1577 1.561 . S
C1575 C1578 1.526 . S
C1576 H1560 0.959 . S
C1576 H1561 0.959 . S
C1576 H1562 0.961 . S
C1576 C1575 1.502 . S
C1577 H1563 0.960 . S
C1577 H1564 0.961 . S
C1577 H1565 0.959 . S
C1577 C1575 1.561 . S
C1578 C1575 1.526 . S
C1578 C1579 1.396 . S
C1578 C1583 1.390 . S
C1579 C1573 1.465 . S
C1579 C1578 1.396 . S
C1579 C1580 1.399 . S
C1580 H1566 0.929 . S
C1580 C1579 1.399 . S
C1580 C1581 1.385 . S
C1581 H1567 0.931 . S
C1581 C1580 1.385 . S
C1581 C1582 1.389 . S
C1582 C1581 1.389 . S
C1582 C1583 1.387 . S
C1583 H1568 0.930 . S
C1583 C1578 1.390 . S
C1583 C1582 1.387 . S
H1584 C1596 0.930 . S
H1585 C1598 0.930 . S
H1586 C1599 0.930 . S
H1587 C1603 0.959 . S
H1588 C1603 0.959 . S
H1589 C1603 0.961 . S
H1590 C1604 0.960 . S
H1591 C1604 0.961 . S
H1592 C1604 0.959 . S
H1593 C1607 0.929 . S
H1594 C1608 0.931 . S
H1595 C1610 0.930 . S
C1596 H1584 0.930 . S
C1596 C1597 1.399 . S
C1596 C1601 1.399 . S
C1597 C1596 1.399 . S
C1597 C1598 1.376 . S
C1598 H1585 0.930 . S
C1598 C1597 1.376 . S
C1598 C1599 1.388 . S
C1599 H1586 0.930 . S
C1599 C1598 1.388 . S
C1599 C1600 1.390 . S
C1600 C1599 1.390 . S
C1600 C1601 1.394 . S
C1600 C1606 1.465 . S
C1601 C1596 1.399 . S
C1601 C1600 1.394 . S
C1601 C1602 1.516 . S
C1602 C1601 1.516 . S
C1602 C1603 1.502 . S
C1602 C1604 1.561 . S
C1602 C1605 1.526 . S
C1603 H1587 0.959 . S
C1603 H1588 0.959 . S
C1603 H1589 0.961 . S
C1603 C1602 1.502 . S
C1604 H1590 0.960 . S
C1604 H1591 0.961 . S
C1604 H1592 0.959 . S
C1604 C1602 1.561 . S
C1605 C1602 1.526 . S
C1605 C1606 1.396 . S
C1605 C1610 1.390 . S
C1606 C1600 1.465 . S
C1606 C1605 1.396 . S
C1606 C1607 1.399 . S
C1607 H1593 0.929 . S
C1607 C1606 1.399 . S
C1607 C1608 1.385 . S
C1608 H1594 0.931 . S
C1608 C1607 1.385 . S
C1608 C1609 1.389 . S
C1609 C1608 1.389 . S
C1609 C1610 1.387 . S
C1610 H1595 0.930 . S
C1610 C1605 1.390 . S
C1610 C1609 1.387 . S
H1611 C1623 0.930 . S
H1612 C1625 0.930 . S
H1613 C1626 0.930 . S
H1614 C1630 0.959 . S
H1615 C1630 0.959 . S
H1616 C1630 0.961 . S
H1617 C1631 0.960 . S
H1618 C1631 0.961 . S
H1619 C1631 0.959 . S
H1620 C1634 0.929 . S
H1621 C1635 0.931 . S
H1622 C1637 0.930 . S
C1623 H1611 0.930 . S
C1623 C1624 1.399 . S
C1623 C1628 1.399 . S
C1624 C1623 1.399 . S
C1624 C1625 1.376 . S
C1625 H1612 0.930 . S
C1625 C1624 1.376 . S
C1625 C1626 1.388 . S
C1626 H1613 0.930 . S
C1626 C1625 1.388 . S
C1626 C1627 1.390 . S
C1627 C1626 1.390 . S
C1627 C1628 1.394 . S
C1627 C1633 1.465 . S
C1628 C1623 1.399 . S
C1628 C1627 1.394 . S
C1628 C1629 1.516 . S
C1629 C1628 1.516 . S
C1629 C1630 1.502 . S
C1629 C1631 1.561 . S
C1629 C1632 1.526 . S
C1630 H1614 0.959 . S
C1630 H1615 0.959 . S
C1630 H1616 0.961 . S
C1630 C1629 1.502 . S
C1631 H1617 0.960 . S
C1631 H1618 0.961 . S
C1631 H1619 0.959 . S
C1631 C1629 1.561 . S
C1632 C1629 1.526 . S
C1632 C1633 1.396 . S
C1632 C1637 1.390 . S
C1633 C1627 1.465 . S
C1633 C1632 1.396 . S
C1633 C1634 1.399 . S
C1634 H1620 0.929 . S
C1634 C1633 1.399 . S
C1634 C1635 1.385 . S
C1635 H1621 0.931 . S
C1635 C1634 1.385 . S
C1635 C1636 1.389 . S
C1636 C1635 1.389 . S
C1636 C1637 1.387 . S
C1637 H1622 0.930 . S
C1637 C1632 1.390 . S
C1637 C1636 1.387 . S
H1638 C1650 0.930 . S
H1639 C1652 0.930 . S
H1640 C1653 0.930 . S
H1641 C1657 0.959 . S
H1642 C1657 0.959 . S
H1643 C1657 0.961 . S
H1644 C1658 0.960 . S
H1645 C1658 0.961 . S
H1646 C1658 0.959 . S
H1647 C1661 0.929 . S
H1648 C1662 0.931 . S
H1649 C1664 0.930 . S
C1650 H1638 0.930 . S
C1650 C1651 1.399 . S
C1650 C1655 1.399 . S
C1651 C1650 1.399 . S
C1651 C1652 1.376 . S
C1652 H1639 0.930 . S
C1652 C1651 1.376 . S
C1652 C1653 1.388 . S
C1653 H1640 0.930 . S
C1653 C1652 1.388 . S
C1653 C1654 1.390 . S
C1654 C1653 1.390 . S
C1654 C1655 1.394 . S
C1654 C1660 1.465 . S
C1655 C1650 1.399 . S
C1655 C1654 1.394 . S
C1655 C1656 1.516 . S
C1656 C1655 1.516 . S
C1656 C1657 1.502 . S
C1656 C1658 1.561 . S
C1656 C1659 1.526 . S
C1657 H1641 0.959 . S
C1657 H1642 0.959 . S
C1657 H1643 0.961 . S
C1657 C1656 1.502 . S
C1658 H1644 0.960 . S
C1658 H1645 0.961 . S
C1658 H1646 0.959 . S
C1658 C1656 1.561 . S
C1659 C1656 1.526 . S
C1659 C1660 1.396 . S
C1659 C1664 1.390 . S
C1660 C1654 1.465 . S
C1660 C1659 1.396 . S
C1660 C1661 1.399 . S
C1661 H1647 0.929 . S
C1661 C1660 1.399 . S
C1661 C1662 1.385 . S
C1662 H1648 0.931 . S
C1662 C1661 1.385 . S
C1662 C1663 1.389 . S
C1663 C1662 1.389 . S
C1663 C1664 1.387 . S
C1664 H1649 0.930 . S
C1664 C1659 1.390 . S
C1664 C1663 1.387 . S
H1665 C1677 0.930 . S
H1666 C1679 0.930 . S
H1667 C1680 0.930 . S
H1668 C1684 0.959 . S
H1669 C1684 0.959 . S
H1670 C1684 0.961 . S
H1671 C1685 0.960 . S
H1672 C1685 0.961 . S
H1673 C1685 0.959 . S
H1674 C1688 0.929 . S
H1675 C1689 0.931 . S
H1676 C1691 0.930 . S
C1677 H1665 0.930 . S
C1677 C1678 1.399 . S
C1677 C1682 1.399 . S
C1678 C1677 1.399 . S
C1678 C1679 1.376 . S
C1679 H1666 0.930 . S
C1679 C1678 1.376 . S
C1679 C1680 1.388 . S
C1680 H1667 0.930 . S
C1680 C1679 1.388 . S
C1680 C1681 1.390 . S
C1681 C1680 1.390 . S
C1681 C1682 1.394 . S
C1681 C1687 1.465 . S
C1682 C1677 1.399 . S
C1682 C1681 1.394 . S
C1682 C1683 1.516 . S
C1683 C1682 1.516 . S
C1683 C1684 1.502 . S
C1683 C1685 1.561 . S
C1683 C1686 1.526 . S
C1684 H1668 0.959 . S
C1684 H1669 0.959 . S
C1684 H1670 0.961 . S
C1684 C1683 1.502 . S
C1685 H1671 0.960 . S
C1685 H1672 0.961 . S
C1685 H1673 0.959 . S
C1685 C1683 1.561 . S
C1686 C1683 1.526 . S
C1686 C1687 1.396 . S
C1686 C1691 1.390 . S
C1687 C1681 1.465 . S
C1687 C1686 1.396 . S
C1687 C1688 1.399 . S
C1688 H1674 0.929 . S
C1688 C1687 1.399 . S
C1688 C1689 1.385 . S
C1689 H1675 0.931 . S
C1689 C1688 1.385 . S
C1689 C1690 1.389 . S
C1690 C1689 1.389 . S
C1690 C1691 1.387 . S
C1691 H1676 0.930 . S
C1691 C1686 1.390 . S
C1691 C1690 1.387 . S
H1692 C1704 0.930 . S
H1693 C1706 0.930 . S
H1694 C1707 0.930 . S
H1695 C1711 0.959 . S
H1696 C1711 0.959 . S
H1697 C1711 0.961 . S
H1698 C1712 0.960 . S
H1699 C1712 0.961 . S
H1700 C1712 0.959 . S
H1701 C1715 0.929 . S
H1702 C1716 0.931 . S
H1703 C1718 0.930 . S
C1704 H1692 0.930 . S
C1704 C1705 1.399 . S
C1704 C1709 1.399 . S
C1705 C1704 1.399 . S
C1705 C1706 1.376 . S
C1706 H1693 0.930 . S
C1706 C1705 1.376 . S
C1706 C1707 1.388 . S
C1707 H1694 0.930 . S
C1707 C1706 1.388 . S
C1707 C1708 1.390 . S
C1708 C1707 1.390 . S
C1708 C1709 1.394 . S
C1708 C1714 1.465 . S
C1709 C1704 1.399 . S
C1709 C1708 1.394 . S
C1709 C1710 1.516 . S
C1710 C1709 1.516 . S
C1710 C1711 1.502 . S
C1710 C1712 1.561 . S
C1710 C1713 1.526 . S
C1711 H1695 0.959 . S
C1711 H1696 0.959 . S
C1711 H1697 0.961 . S
C1711 C1710 1.502 . S
C1712 H1698 0.960 . S
C1712 H1699 0.961 . S
C1712 H1700 0.959 . S
C1712 C1710 1.561 . S
C1713 C1710 1.526 . S
C1713 C1714 1.396 . S
C1713 C1718 1.390 . S
C1714 C1708 1.465 . S
C1714 C1713 1.396 . S
C1714 C1715 1.399 . S
C1715 H1701 0.929 . S
C1715 C1714 1.399 . S
C1715 C1716 1.385 . S
C1716 H1702 0.931 . S
C1716 C1715 1.385 . S
C1716 C1717 1.389 . S
C1717 C1716 1.389 . S
C1717 C1718 1.387 . S
C1718 H1703 0.930 . S
C1718 C1713 1.390 . S
C1718 C1717 1.387 . S
H1719 C1731 0.930 . S
H1720 C1733 0.930 . S
H1721 C1734 0.930 . S
H1722 C1738 0.959 . S
H1723 C1738 0.959 . S
H1724 C1738 0.961 . S
H1725 C1739 0.960 . S
H1726 C1739 0.961 . S
H1727 C1739 0.959 . S
H1728 C1742 0.929 . S
H1729 C1743 0.931 . S
H1730 C1745 0.930 . S
C1731 H1719 0.930 . S
C1731 C1732 1.399 . S
C1731 C1736 1.399 . S
C1732 C1731 1.399 . S
C1732 C1733 1.376 . S
C1733 H1720 0.930 . S
C1733 C1732 1.376 . S
C1733 C1734 1.388 . S
C1734 H1721 0.930 . S
C1734 C1733 1.388 . S
C1734 C1735 1.390 . S
C1735 C1734 1.390 . S
C1735 C1736 1.394 . S
C1735 C1741 1.465 . S
C1736 C1731 1.399 . S
C1736 C1735 1.394 . S
C1736 C1737 1.516 . S
C1737 C1736 1.516 . S
C1737 C1738 1.502 . S
C1737 C1739 1.561 . S
C1737 C1740 1.526 . S
C1738 H1722 0.959 . S
C1738 H1723 0.959 . S
C1738 H1724 0.961 . S
C1738 C1737 1.502 . S
C1739 H1725 0.960 . S
C1739 H1726 0.961 . S
C1739 H1727 0.959 . S
C1739 C1737 1.561 . S
C1740 C1737 1.526 . S
C1740 C1741 1.396 . S
C1740 C1745 1.390 . S
C1741 C1735 1.465 . S
C1741 C1740 1.396 . S
C1741 C1742 1.399 . S
C1742 H1728 0.929 . S
C1742 C1741 1.399 . S
C1742 C1743 1.385 . S
C1743 H1729 0.931 . S
C1743 C1742 1.385 . S
C1743 C1744 1.389 . S
C1744 C1743 1.389 . S
C1744 C1745 1.387 . S
C1745 H1730 0.930 . S
C1745 C1740 1.390 . S
C1745 C1744 1.387 . S
H1746 C1758 0.930 . S
H1747 C1760 0.930 . S
H1748 C1761 0.930 . S
H1749 C1765 0.959 . S
H1750 C1765 0.959 . S
H1751 C1765 0.961 . S
H1752 C1766 0.960 . S
H1753 C1766 0.961 . S
H1754 C1766 0.959 . S
H1755 C1769 0.929 . S
H1756 C1770 0.931 . S
H1757 C1772 0.930 . S
C1758 H1746 0.930 . S
C1758 C1759 1.399 . S
C1758 C1763 1.399 . S
C1759 C1758 1.399 . S
C1759 C1760 1.376 . S
C1760 H1747 0.930 . S
C1760 C1759 1.376 . S
C1760 C1761 1.388 . S
C1761 H1748 0.930 . S
C1761 C1760 1.388 . S
C1761 C1762 1.390 . S
C1762 C1761 1.390 . S
C1762 C1763 1.394 . S
C1762 C1768 1.465 . S
C1763 C1758 1.399 . S
C1763 C1762 1.394 . S
C1763 C1764 1.516 . S
C1764 C1763 1.516 . S
C1764 C1765 1.502 . S
C1764 C1766 1.561 . S
C1764 C1767 1.526 . S
C1765 H1749 0.959 . S
C1765 H1750 0.959 . S
C1765 H1751 0.961 . S
C1765 C1764 1.502 . S
C1766 H1752 0.960 . S
C1766 H1753 0.961 . S
C1766 H1754 0.959 . S
C1766 C1764 1.561 . S
C1767 C1764 1.526 . S
C1767 C1768 1.396 . S
C1767 C1772 1.390 . S
C1768 C1762 1.465 . S
C1768 C1767 1.396 . S
C1768 C1769 1.399 . S
C1769 H1755 0.929 . S
C1769 C1768 1.399 . S
C1769 C1770 1.385 . S
C1770 H1756 0.931 . S
C1770 C1769 1.385 . S
C1770 C1771 1.389 . S
C1771 C1770 1.389 . S
C1771 C1772 1.387 . S
C1772 H1757 0.930 . S
C1772 C1767 1.390 . S
C1772 C1771 1.387 . S
H1773 C1785 0.930 . S
H1774 C1787 0.930 . S
H1775 C1788 0.930 . S
H1776 C1792 0.959 . S
H1777 C1792 0.959 . S
H1778 C1792 0.961 . S
H1779 C1793 0.960 . S
H1780 C1793 0.961 . S
H1781 C1793 0.959 . S
H1782 C1796 0.929 . S
H1783 C1797 0.931 . S
H1784 C1799 0.930 . S
C1785 H1773 0.930 . S
C1785 C1786 1.399 . S
C1785 C1790 1.399 . S
C1786 C1785 1.399 . S
C1786 C1787 1.376 . S
C1787 H1774 0.930 . S
C1787 C1786 1.376 . S
C1787 C1788 1.388 . S
C1788 H1775 0.930 . S
C1788 C1787 1.388 . S
C1788 C1789 1.390 . S
C1789 C1788 1.390 . S
C1789 C1790 1.394 . S
C1789 C1795 1.465 . S
C1790 C1785 1.399 . S
C1790 C1789 1.394 . S
C1790 C1791 1.516 . S
C1791 C1790 1.516 . S
C1791 C1792 1.502 . S
C1791 C1793 1.561 . S
C1791 C1794 1.526 . S
C1792 H1776 0.959 . S
C1792 H1777 0.959 . S
C1792 H1778 0.961 . S
C1792 C1791 1.502 . S
C1793 H1779 0.960 . S
C1793 H1780 0.961 . S
C1793 H1781 0.959 . S
C1793 C1791 1.561 . S
C1794 C1791 1.526 . S
C1794 C1795 1.396 . S
C1794 C1799 1.390 . S
C1795 C1789 1.465 . S
C1795 C1794 1.396 . S
C1795 C1796 1.399 . S
C1796 H1782 0.929 . S
C1796 C1795 1.399 . S
C1796 C1797 1.385 . S
C1797 H1783 0.931 . S
C1797 C1796 1.385 . S
C1797 C1798 1.389 . S
C1798 C1797 1.389 . S
C1798 C1799 1.387 . S
C1799 H1784 0.930 . S
C1799 C1794 1.390 . S
C1799 C1798 1.387 . S
H1800 C1812 0.930 . S
H1801 C1814 0.930 . S
H1802 C1815 0.930 . S
H1803 C1819 0.959 . S
H1804 C1819 0.959 . S
H1805 C1819 0.961 . S
H1806 C1820 0.960 . S
H1807 C1820 0.961 . S
H1808 C1820 0.959 . S
H1809 C1823 0.929 . S
H1810 C1824 0.931 . S
H1811 C1826 0.930 . S
C1812 H1800 0.930 . S
C1812 C1813 1.399 . S
C1812 C1817 1.399 . S
C1813 C1812 1.399 . S
C1813 C1814 1.376 . S
C1814 H1801 0.930 . S
C1814 C1813 1.376 . S
C1814 C1815 1.388 . S
C1815 H1802 0.930 . S
C1815 C1814 1.388 . S
C1815 C1816 1.390 . S
C1816 C1815 1.390 . S
C1816 C1817 1.394 . S
C1816 C1822 1.465 . S
C1817 C1812 1.399 . S
C1817 C1816 1.394 . S
C1817 C1818 1.516 . S
C1818 C1817 1.516 . S
C1818 C1819 1.502 . S
C1818 C1820 1.561 . S
C1818 C1821 1.526 . S
C1819 H1803 0.959 . S
C1819 H1804 0.959 . S
C1819 H1805 0.961 . S
C1819 C1818 1.502 . S
C1820 H1806 0.960 . S
C1820 H1807 0.961 . S
C1820 H1808 0.959 . S
C1820 C1818 1.561 . S
C1821 C1818 1.526 . S
C1821 C1822 1.396 . S
C1821 C1826 1.390 . S
C1822 C1816 1.465 . S
C1822 C1821 1.396 . S
C1822 C1823 1.399 . S
C1823 H1809 0.929 . S
C1823 C1822 1.399 . S
C1823 C1824 1.385 . S
C1824 H1810 0.931 . S
C1824 C1823 1.385 . S
C1824 C1825 1.389 . S
C1825 C1824 1.389 . S
C1825 C1826 1.387 . S
C1826 H1811 0.930 . S
C1826 C1821 1.390 . S
C1826 C1825 1.387 . S
H1827 C1839 0.930 . S
H1828 C1841 0.930 . S
H1829 C1842 0.930 . S
H1830 C1846 0.959 . S
H1831 C1846 0.959 . S
H1832 C1846 0.961 . S
H1833 C1847 0.960 . S
H1834 C1847 0.961 . S
H1835 C1847 0.959 . S
H1836 C1850 0.929 . S
H1837 C1851 0.931 . S
H1838 C1853 0.930 . S
C1839 H1827 0.930 . S
C1839 C1840 1.399 . S
C1839 C1844 1.399 . S
C1840 C1839 1.399 . S
C1840 C1841 1.376 . S
C1841 H1828 0.930 . S
C1841 C1840 1.376 . S
C1841 C1842 1.388 . S
C1842 H1829 0.930 . S
C1842 C1841 1.388 . S
C1842 C1843 1.390 . S
C1843 C1842 1.390 . S
C1843 C1844 1.394 . S
C1843 C1849 1.465 . S
C1844 C1839 1.399 . S
C1844 C1843 1.394 . S
C1844 C1845 1.516 . S
C1845 C1844 1.516 . S
C1845 C1846 1.502 . S
C1845 C1847 1.561 . S
C1845 C1848 1.526 . S
C1846 H1830 0.959 . S
C1846 H1831 0.959 . S
C1846 H1832 0.961 . S
C1846 C1845 1.502 . S
C1847 H1833 0.960 . S
C1847 H1834 0.961 . S
C1847 H1835 0.959 . S
C1847 C1845 1.561 . S
C1848 C1845 1.526 . S
C1848 C1849 1.396 . S
C1848 C1853 1.390 . S
C1849 C1843 1.465 . S
C1849 C1848 1.396 . S
C1849 C1850 1.399 . S
C1850 H1836 0.929 . S
C1850 C1849 1.399 . S
C1850 C1851 1.385 . S
C1851 H1837 0.931 . S
C1851 C1850 1.385 . S
C1851 C1852 1.389 . S
C1852 C1851 1.389 . S
C1852 C1853 1.387 . S
C1853 H1838 0.930 . S
C1853 C1848 1.390 . S
C1853 C1852 1.387 . S
H1854 C1866 0.930 . S
H1855 C1868 0.930 . S
H1856 C1869 0.930 . S
H1857 C1873 0.959 . S
H1858 C1873 0.959 . S
H1859 C1873 0.961 . S
H1860 C1874 0.960 . S
H1861 C1874 0.961 . S
H1862 C1874 0.959 . S
H1863 C1877 0.929 . S
H1864 C1878 0.931 . S
H1865 C1880 0.930 . S
C1866 H1854 0.930 . S
C1866 C1867 1.399 . S
C1866 C1871 1.399 . S
C1867 C1866 1.399 . S
C1867 C1868 1.376 . S
C1868 H1855 0.930 . S
C1868 C1867 1.376 . S
C1868 C1869 1.388 . S
C1869 H1856 0.930 . S
C1869 C1868 1.388 . S
C1869 C1870 1.390 . S
C1870 C1869 1.390 . S
C1870 C1871 1.394 . S
C1870 C1876 1.465 . S
C1871 C1866 1.399 . S
C1871 C1870 1.394 . S
C1871 C1872 1.516 . S
C1872 C1871 1.516 . S
C1872 C1873 1.502 . S
C1872 C1874 1.561 . S
C1872 C1875 1.526 . S
C1873 H1857 0.959 . S
C1873 H1858 0.959 . S
C1873 H1859 0.961 . S
C1873 C1872 1.502 . S
C1874 H1860 0.960 . S
C1874 H1861 0.961 . S
C1874 H1862 0.959 . S
C1874 C1872 1.561 . S
C1875 C1872 1.526 . S
C1875 C1876 1.396 . S
C1875 C1880 1.390 . S
C1876 C1870 1.465 . S
C1876 C1875 1.396 . S
C1876 C1877 1.399 . S
C1877 H1863 0.929 . S
C1877 C1876 1.399 . S
C1877 C1878 1.385 . S
C1878 H1864 0.931 . S
C1878 C1877 1.385 . S
C1878 C1879 1.389 . S
C1879 C1878 1.389 . S
C1879 C1880 1.387 . S
C1880 H1865 0.930 . S
C1880 C1875 1.390 . S
C1880 C1879 1.387 . S
H1881 C1893 0.930 . S
H1882 C1895 0.930 . S
H1883 C1896 0.930 . S
H1884 C1900 0.959 . S
H1885 C1900 0.959 . S
H1886 C1900 0.961 . S
H1887 C1901 0.960 . S
H1888 C1901 0.961 . S
H1889 C1901 0.959 . S
H1890 C1904 0.929 . S
H1891 C1905 0.931 . S
H1892 C1907 0.930 . S
C1893 H1881 0.930 . S
C1893 C1894 1.399 . S
C1893 C1898 1.399 . S
C1894 C1893 1.399 . S
C1894 C1895 1.376 . S
C1895 H1882 0.930 . S
C1895 C1894 1.376 . S
C1895 C1896 1.388 . S
C1896 H1883 0.930 . S
C1896 C1895 1.388 . S
C1896 C1897 1.390 . S
C1897 C1896 1.390 . S
C1897 C1898 1.394 . S
C1897 C1903 1.465 . S
C1898 C1893 1.399 . S
C1898 C1897 1.394 . S
C1898 C1899 1.516 . S
C1899 C1898 1.516 . S
C1899 C1900 1.502 . S
C1899 C1901 1.561 . S
C1899 C1902 1.526 . S
C1900 H1884 0.959 . S
C1900 H1885 0.959 . S
C1900 H1886 0.961 . S
C1900 C1899 1.502 . S
C1901 H1887 0.960 . S
C1901 H1888 0.961 . S
C1901 H1889 0.959 . S
C1901 C1899 1.561 . S
C1902 C1899 1.526 . S
C1902 C1903 1.396 . S
C1902 C1907 1.390 . S
C1903 C1897 1.465 . S
C1903 C1902 1.396 . S
C1903 C1904 1.399 . S
C1904 H1890 0.929 . S
C1904 C1903 1.399 . S
C1904 C1905 1.385 . S
C1905 H1891 0.931 . S
C1905 C1904 1.385 . S
C1905 C1906 1.389 . S
C1906 C1905 1.389 . S
C1906 C1907 1.387 . S
C1907 H1892 0.930 . S
C1907 C1902 1.390 . S
C1907 C1906 1.387 . S
H1908 C1920 0.930 . S
H1909 C1922 0.930 . S
H1910 C1923 0.930 . S
H1911 C1927 0.959 . S
H1912 C1927 0.959 . S
H1913 C1927 0.961 . S
H1914 C1928 0.960 . S
H1915 C1928 0.961 . S
H1916 C1928 0.959 . S
H1917 C1931 0.929 . S
H1918 C1932 0.931 . S
H1919 C1934 0.930 . S
C1920 H1908 0.930 . S
C1920 C1921 1.399 . S
C1920 C1925 1.399 . S
C1921 C1920 1.399 . S
C1921 C1922 1.376 . S
C1922 H1909 0.930 . S
C1922 C1921 1.376 . S
C1922 C1923 1.388 . S
C1923 H1910 0.930 . S
C1923 C1922 1.388 . S
C1923 C1924 1.390 . S
C1924 C1923 1.390 . S
C1924 C1925 1.394 . S
C1924 C1930 1.465 . S
C1925 C1920 1.399 . S
C1925 C1924 1.394 . S
C1925 C1926 1.516 . S
C1926 C1925 1.516 . S
C1926 C1927 1.502 . S
C1926 C1928 1.561 . S
C1926 C1929 1.526 . S
C1927 H1911 0.959 . S
C1927 H1912 0.959 . S
C1927 H1913 0.961 . S
C1927 C1926 1.502 . S
C1928 H1914 0.960 . S
C1928 H1915 0.961 . S
C1928 H1916 0.959 . S
C1928 C1926 1.561 . S
C1929 C1926 1.526 . S
C1929 C1930 1.396 . S
C1929 C1934 1.390 . S
C1930 C1924 1.465 . S
C1930 C1929 1.396 . S
C1930 C1931 1.399 . S
C1931 H1917 0.929 . S
C1931 C1930 1.399 . S
C1931 C1932 1.385 . S
C1932 H1918 0.931 . S
C1932 C1931 1.385 . S
C1932 C1933 1.389 . S
C1933 C1932 1.389 . S
C1933 C1934 1.387 . S
C1934 H1919 0.930 . S
C1934 C1929 1.390 . S
C1934 C1933 1.387 . S
H1935 C1947 0.930 . S
H1936 C1949 0.930 . S
H1937 C1950 0.930 . S
H1938 C1954 0.959 . S
H1939 C1954 0.959 . S
H1940 C1954 0.961 . S
H1941 C1955 0.960 . S
H1942 C1955 0.961 . S
H1943 C1955 0.959 . S
H1944 C1958 0.929 . S
H1945 C1959 0.931 . S
H1946 C1961 0.930 . S
C1947 H1935 0.930 . S
C1947 C1948 1.399 . S
C1947 C1952 1.399 . S
C1948 C1947 1.399 . S
C1948 C1949 1.376 . S
C1949 H1936 0.930 . S
C1949 C1948 1.376 . S
C1949 C1950 1.388 . S
C1950 H1937 0.930 . S
C1950 C1949 1.388 . S
C1950 C1951 1.390 . S
C1951 C1950 1.390 . S
C1951 C1952 1.394 . S
C1951 C1957 1.465 . S
C1952 C1947 1.399 . S
C1952 C1951 1.394 . S
C1952 C1953 1.516 . S
C1953 C1952 1.516 . S
C1953 C1954 1.502 . S
C1953 C1955 1.561 . S
C1953 C1956 1.526 . S
C1954 H1938 0.959 . S
C1954 H1939 0.959 . S
C1954 H1940 0.961 . S
C1954 C1953 1.502 . S
C1955 H1941 0.960 . S
C1955 H1942 0.961 . S
C1955 H1943 0.959 . S
C1955 C1953 1.561 . S
C1956 C1953 1.526 . S
C1956 C1957 1.396 . S
C1956 C1961 1.390 . S
C1957 C1951 1.465 . S
C1957 C1956 1.396 . S
C1957 C1958 1.399 . S
C1958 H1944 0.929 . S
C1958 C1957 1.399 . S
C1958 C1959 1.385 . S
C1959 H1945 0.931 . S
C1959 C1958 1.385 . S
C1959 C1960 1.389 . S
C1960 C1959 1.389 . S
C1960 C1961 1.387 . S
C1961 H1946 0.930 . S
C1961 C1956 1.390 . S
C1961 C1960 1.387 . S
H1962 C1974 0.930 . S
H1963 C1976 0.930 . S
H1964 C1977 0.930 . S
H1965 C1981 0.959 . S
H1966 C1981 0.959 . S
H1967 C1981 0.961 . S
H1968 C1982 0.960 . S
H1969 C1982 0.961 . S
H1970 C1982 0.959 . S
H1971 C1985 0.929 . S
H1972 C1986 0.931 . S
H1973 C1988 0.930 . S
C1974 H1962 0.930 . S
C1974 C1975 1.399 . S
C1974 C1979 1.399 . S
C1975 C1974 1.399 . S
C1975 C1976 1.376 . S
C1976 H1963 0.930 . S
C1976 C1975 1.376 . S
C1976 C1977 1.388 . S
C1977 H1964 0.930 . S
C1977 C1976 1.388 . S
C1977 C1978 1.390 . S
C1978 C1977 1.390 . S
C1978 C1979 1.394 . S
C1978 C1984 1.465 . S
C1979 C1974 1.399 . S
C1979 C1978 1.394 . S
C1979 C1980 1.516 . S
C1980 C1979 1.516 . S
C1980 C1981 1.502 . S
C1980 C1982 1.561 . S
C1980 C1983 1.526 . S
C1981 H1965 0.959 . S
C1981 H1966 0.959 . S
C1981 H1967 0.961 . S
C1981 C1980 1.502 . S
C1982 H1968 0.960 . S
C1982 H1969 0.961 . S
C1982 H1970 0.959 . S
C1982 C1980 1.561 . S
C1983 C1980 1.526 . S
C1983 C1984 1.396 . S
C1983 C1988 1.390 . S
C1984 C1978 1.465 . S
C1984 C1983 1.396 . S
C1984 C1985 1.399 . S
C1985 H1971 0.929 . S
C1985 C1984 1.399 . S
C1985 C1986 1.385 . S
C1986 H1972 0.931 . S
C1986 C1985 1.385 . S
C1986 C1987 1.389 . S
C1987 C1986 1.389 . S
C1987 C1988 1.387 . S
C1988 H1973 0.930 . S
C1988 C1983 1.390 . S
C1988 C1987 1.387 . S
H1989 C2001 0.930 . S
H1990 C2003 0.930 . S
H1991 C2004 0.930 . S
H1992 C2008 0.959 . S
H1993 C2008 0.959 . S
H1994 C2008 0.961 . S
H1995 C2009 0.960 . S
H1996 C2009 0.961 . S
H1997 C2009 0.959 . S
H1998 C2012 0.929 . S
H1999 C2013 0.931 . S
H2000 C2015 0.930 . S
C2001 H1989 0.930 . S
C2001 C2002 1.399 . S
C2001 C2006 1.399 . S
C2002 C2001 1.399 . S
C2002 C2003 1.376 . S
C2003 H1990 0.930 . S
C2003 C2002 1.376 . S
C2003 C2004 1.388 . S
C2004 H1991 0.930 . S
C2004 C2003 1.388 . S
C2004 C2005 1.390 . S
C2005 C2004 1.390 . S
C2005 C2006 1.394 . S
C2005 C2011 1.465 . S
C2006 C2001 1.399 . S
C2006 C2005 1.394 . S
C2006 C2007 1.516 . S
C2007 C2006 1.516 . S
C2007 C2008 1.502 . S
C2007 C2009 1.561 . S
C2007 C2010 1.526 . S
C2008 H1992 0.959 . S
C2008 H1993 0.959 . S
C2008 H1994 0.961 . S
C2008 C2007 1.502 . S
C2009 H1995 0.960 . S
C2009 H1996 0.961 . S
C2009 H1997 0.959 . S
C2009 C2007 1.561 . S
C2010 C2007 1.526 . S
C2010 C2011 1.396 . S
C2010 C2015 1.390 . S
C2011 C2005 1.465 . S
C2011 C2010 1.396 . S
C2011 C2012 1.399 . S
C2012 H1998 0.929 . S
C2012 C2011 1.399 . S
C2012 C2013 1.385 . S
C2013 H1999 0.931 . S
C2013 C2012 1.385 . S
C2013 C2014 1.389 . S
C2014 C2013 1.389 . S
C2014 C2015 1.387 . S
C2015 H2000 0.930 . S
C2015 C2010 1.390 . S
C2015 C2014 1.387 . S
H2016 C2028 0.930 . S
H2017 C2030 0.930 . S
H2018 C2031 0.930 . S
H2019 C2035 0.959 . S
H2020 C2035 0.959 . S
H2021 C2035 0.961 . S
H2022 C2036 0.960 . S
H2023 C2036 0.961 . S
H2024 C2036 0.959 . S
H2025 C2039 0.929 . S
H2026 C2040 0.931 . S
H2027 C2042 0.930 . S
C2028 H2016 0.930 . S
C2028 C2029 1.399 . S
C2028 C2033 1.399 . S
C2029 C2028 1.399 . S
C2029 C2030 1.376 . S
C2030 H2017 0.930 . S
C2030 C2029 1.376 . S
C2030 C2031 1.388 . S
C2031 H2018 0.930 . S
C2031 C2030 1.388 . S
C2031 C2032 1.390 . S
C2032 C2031 1.390 . S
C2032 C2033 1.394 . S
C2032 C2038 1.465 . S
C2033 C2028 1.399 . S
C2033 C2032 1.394 . S
C2033 C2034 1.516 . S
C2034 C2033 1.516 . S
C2034 C2035 1.502 . S
C2034 C2036 1.561 . S
C2034 C2037 1.526 . S
C2035 H2019 0.959 . S
C2035 H2020 0.959 . S
C2035 H2021 0.961 . S
C2035 C2034 1.502 . S
C2036 H2022 0.960 . S
C2036 H2023 0.961 . S
C2036 H2024 0.959 . S
C2036 C2034 1.561 . S
C2037 C2034 1.526 . S
C2037 C2038 1.396 . S
C2037 C2042 1.390 . S
C2038 C2032 1.465 . S
C2038 C2037 1.396 . S
C2038 C2039 1.399 . S
C2039 H2025 0.929 . S
C2039 C2038 1.399 . S
C2039 C2040 1.385 . S
C2040 H2026 0.931 . S
C2040 C2039 1.385 . S
C2040 C2041 1.389 . S
C2041 C2040 1.389 . S
C2041 C2042 1.387 . S
C2042 H2027 0.930 . S
C2042 C2037 1.390 . S
C2042 C2041 1.387 . S
H2043 C2055 0.930 . S
H2044 C2057 0.930 . S
H2045 C2058 0.930 . S
H2046 C2062 0.959 . S
H2047 C2062 0.959 . S
H2048 C2062 0.961 . S
H2049 C2063 0.960 . S
H2050 C2063 0.961 . S
H2051 C2063 0.959 . S
H2052 C2066 0.929 . S
H2053 C2067 0.931 . S
H2054 C2069 0.930 . S
C2055 H2043 0.930 . S
C2055 C2056 1.399 . S
C2055 C2060 1.399 . S
C2056 C2055 1.399 . S
C2056 C2057 1.376 . S
C2057 H2044 0.930 . S
C2057 C2056 1.376 . S
C2057 C2058 1.388 . S
C2058 H2045 0.930 . S
C2058 C2057 1.388 . S
C2058 C2059 1.390 . S
C2059 C2058 1.390 . S
C2059 C2060 1.394 . S
C2059 C2065 1.465 . S
C2060 C2055 1.399 . S
C2060 C2059 1.394 . S
C2060 C2061 1.516 . S
C2061 C2060 1.516 . S
C2061 C2062 1.502 . S
C2061 C2063 1.561 . S
C2061 C2064 1.526 . S
C2062 H2046 0.959 . S
C2062 H2047 0.959 . S
C2062 H2048 0.961 . S
C2062 C2061 1.502 . S
C2063 H2049 0.960 . S
C2063 H2050 0.961 . S
C2063 H2051 0.959 . S
C2063 C2061 1.561 . S
C2064 C2061 1.526 . S
C2064 C2065 1.396 . S
C2064 C2069 1.390 . S
C2065 C2059 1.465 . S
C2065 C2064 1.396 . S
C2065 C2066 1.399 . S
C2066 H2052 0.929 . S
C2066 C2065 1.399 . S
C2066 C2067 1.385 . S
C2067 H2053 0.931 . S
C2067 C2066 1.385 . S
C2067 C2068 1.389 . S
C2068 C2067 1.389 . S
C2068 C2069 1.387 . S
C2069 H2054 0.930 . S
C2069 C2064 1.390 . S
C2069 C2068 1.387 . S
H2070 C2082 0.930 . S
H2071 C2084 0.930 . S
H2072 C2085 0.930 . S
H2073 C2089 0.959 . S
H2074 C2089 0.959 . S
H2075 C2089 0.961 . S
H2076 C2090 0.960 . S
H2077 C2090 0.961 . S
H2078 C2090 0.959 . S
H2079 C2093 0.929 . S
H2080 C2094 0.931 . S
H2081 C2096 0.930 . S
C2082 H2070 0.930 . S
C2082 C2083 1.399 . S
C2082 C2087 1.399 . S
C2083 C2082 1.399 . S
C2083 C2084 1.376 . S
C2084 H2071 0.930 . S
C2084 C2083 1.376 . S
C2084 C2085 1.388 . S
C2085 H2072 0.930 . S
C2085 C2084 1.388 . S
C2085 C2086 1.390 . S
C2086 C2085 1.390 . S
C2086 C2087 1.394 . S
C2086 C2092 1.465 . S
C2087 C2082 1.399 . S
C2087 C2086 1.394 . S
C2087 C2088 1.516 . S
C2088 C2087 1.516 . S
C2088 C2089 1.502 . S
C2088 C2090 1.561 . S
C2088 C2091 1.526 . S
C2089 H2073 0.959 . S
C2089 H2074 0.959 . S
C2089 H2075 0.961 . S
C2089 C2088 1.502 . S
C2090 H2076 0.960 . S
C2090 H2077 0.961 . S
C2090 H2078 0.959 . S
C2090 C2088 1.561 . S
C2091 C2088 1.526 . S
C2091 C2092 1.396 . S
C2091 C2096 1.390 . S
C2092 C2086 1.465 . S
C2092 C2091 1.396 . S
C2092 C2093 1.399 . S
C2093 H2079 0.929 . S
C2093 C2092 1.399 . S
C2093 C2094 1.385 . S
C2094 H2080 0.931 . S
C2094 C2093 1.385 . S
C2094 C2095 1.389 . S
C2095 C2094 1.389 . S
C2095 C2096 1.387 . S
C2096 H2081 0.930 . S
C2096 C2091 1.390 . S
C2096 C2095 1.387 . S
H2097 C2109 0.930 . S
H2098 C2111 0.930 . S
H2099 C2112 0.930 . S
H2100 C2116 0.959 . S
H2101 C2116 0.959 . S
H2102 C2116 0.961 . S
H2103 C2117 0.960 . S
H2104 C2117 0.961 . S
H2105 C2117 0.959 . S
H2106 C2120 0.929 . S
H2107 C2121 0.931 . S
H2108 C2123 0.930 . S
C2109 H2097 0.930 . S
C2109 C2110 1.399 . S
C2109 C2114 1.399 . S
C2110 C2109 1.399 . S
C2110 C2111 1.376 . S
C2111 H2098 0.930 . S
C2111 C2110 1.376 . S
C2111 C2112 1.388 . S
C2112 H2099 0.930 . S
C2112 C2111 1.388 . S
C2112 C2113 1.390 . S
C2113 C2112 1.390 . S
C2113 C2114 1.394 . S
C2113 C2119 1.465 . S
C2114 C2109 1.399 . S
C2114 C2113 1.394 . S
C2114 C2115 1.516 . S
C2115 C2114 1.516 . S
C2115 C2116 1.502 . S
C2115 C2117 1.561 . S
C2115 C2118 1.526 . S
C2116 H2100 0.959 . S
C2116 H2101 0.959 . S
C2116 H2102 0.961 . S
C2116 C2115 1.502 . S
C2117 H2103 0.960 . S
C2117 H2104 0.961 . S
C2117 H2105 0.959 . S
C2117 C2115 1.561 . S
C2118 C2115 1.526 . S
C2118 C2119 1.396 . S
C2118 C2123 1.390 . S
C2119 C2113 1.465 . S
C2119 C2118 1.396 . S
C2119 C2120 1.399 . S
C2120 H2106 0.929 . S
C2120 C2119 1.399 . S
C2120 C2121 1.385 . S
C2121 H2107 0.931 . S
C2121 C2120 1.385 . S
C2121 C2122 1.389 . S
C2122 C2121 1.389 . S
C2122 C2123 1.387 . S
C2123 H2108 0.930 . S
C2123 C2118 1.390 . S
C2123 C2122 1.387 . S
H2124 C2136 0.930 . S
H2125 C2138 0.930 . S
H2126 C2139 0.930 . S
H2127 C2143 0.959 . S
H2128 C2143 0.959 . S
H2129 C2143 0.961 . S
H2130 C2144 0.960 . S
H2131 C2144 0.961 . S
H2132 C2144 0.959 . S
H2133 C2147 0.929 . S
H2134 C2148 0.931 . S
H2135 C2150 0.930 . S
C2136 H2124 0.930 . S
C2136 C2137 1.399 . S
C2136 C2141 1.399 . S
C2137 C2136 1.399 . S
C2137 C2138 1.376 . S
C2138 H2125 0.930 . S
C2138 C2137 1.376 . S
C2138 C2139 1.388 . S
C2139 H2126 0.930 . S
C2139 C2138 1.388 . S
C2139 C2140 1.390 . S
C2140 C2139 1.390 . S
C2140 C2141 1.394 . S
C2140 C2146 1.465 . S
C2141 C2136 1.399 . S
C2141 C2140 1.394 . S
C2141 C2142 1.516 . S
C2142 C2141 1.516 . S
C2142 C2143 1.502 . S
C2142 C2144 1.561 . S
C2142 C2145 1.526 . S
C2143 H2127 0.959 . S
C2143 H2128 0.959 . S
C2143 H2129 0.961 . S
C2143 C2142 1.502 . S
C2144 H2130 0.960 . S
C2144 H2131 0.961 . S
C2144 H2132 0.959 . S
C2144 C2142 1.561 . S
C2145 C2142 1.526 . S
C2145 C2146 1.396 . S
C2145 C2150 1.390 . S
C2146 C2140 1.465 . S
C2146 C2145 1.396 . S
C2146 C2147 1.399 . S
C2147 H2133 0.929 . S
C2147 C2146 1.399 . S
C2147 C2148 1.385 . S
C2148 H2134 0.931 . S
C2148 C2147 1.385 . S
C2148 C2149 1.389 . S
C2149 C2148 1.389 . S
C2149 C2150 1.387 . S
C2150 H2135 0.930 . S
C2150 C2145 1.390 . S
C2150 C2149 1.387 . S
H2151 C2163 0.930 1_554 S
H2152 C2165 0.930 . S
H2153 C2166 0.930 . S
H2154 C2170 0.959 . S
H2155 C2170 0.959 . S
H2156 C2170 0.961 . S
H2157 C2171 0.960 . S
H2158 C2171 0.961 . S
H2159 C2171 0.959 . S
H2160 C2174 0.929 . S
H2161 C2175 0.931 . S
H2162 C2177 0.930 . S
C2163 H2151 0.930 1_556 S
C2163 C2164 1.399 . S
C2163 C2168 1.399 . S
C2164 C2163 1.399 . S
C2164 C2165 1.376 . S
C2165 H2152 0.930 . S
C2165 C2164 1.376 . S
C2165 C2166 1.388 . S
C2166 H2153 0.930 . S
C2166 C2165 1.388 . S
C2166 C2167 1.390 . S
C2167 C2166 1.390 . S
C2167 C2168 1.394 . S
C2167 C2173 1.465 . S
C2168 C2163 1.399 . S
C2168 C2167 1.394 . S
C2168 C2169 1.516 . S
C2169 C2168 1.516 . S
C2169 C2170 1.502 1_556 S
C2169 C2171 1.561 . S
C2169 C2172 1.526 . S
C2170 H2154 0.959 . S
C2170 H2155 0.959 . S
C2170 H2156 0.961 . S
C2170 C2169 1.502 1_554 S
C2171 H2157 0.960 . S
C2171 H2158 0.961 . S
C2171 H2159 0.959 . S
C2171 C2169 1.561 . S
C2172 C2169 1.526 . S
C2172 C2173 1.396 . S
C2172 C2177 1.390 . S
C2173 C2167 1.465 . S
C2173 C2172 1.396 . S
C2173 C2174 1.399 . S
C2174 H2160 0.929 . S
C2174 C2173 1.399 . S
C2174 C2175 1.385 . S
C2175 H2161 0.931 . S
C2175 C2174 1.385 . S
C2175 C2176 1.389 . S
C2176 C2175 1.389 . S
C2176 C2177 1.387 . S
C2177 H2162 0.930 . S
C2177 C2172 1.390 . S
C2177 C2176 1.387 . S
H2178 C2190 0.930 1_554 S
H2179 C2192 0.930 . S
H2180 C2193 0.930 . S
H2181 C2197 0.959 . S
H2182 C2197 0.959 . S
H2183 C2197 0.986 . S
H2184 C2198 0.960 . S
H2185 C2198 0.961 . S
H2186 C2198 0.959 . S
H2187 C2201 0.929 . S
H2188 C2202 0.931 . S
H2189 C2204 0.930 . S
C2190 H2178 0.930 1_556 S
C2190 C2191 1.399 . S
C2190 C2195 1.399 . S
C2191 C2190 1.399 . S
C2191 C2192 1.376 . S
C2192 H2179 0.930 . S
C2192 C2191 1.376 . S
C2192 C2193 1.388 . S
C2193 H2180 0.930 . S
C2193 C2192 1.388 . S
C2193 C2194 1.390 . S
C2194 C2193 1.390 . S
C2194 C2195 1.394 . S
C2194 C2200 1.465 . S
C2195 C2190 1.399 . S
C2195 C2194 1.394 . S
C2195 C2196 1.516 . S
C2196 C2195 1.516 . S
C2196 C2197 1.502 . S
C2196 C2198 1.561 1_556 S
C2196 C2199 1.526 . S
C2197 H2181 0.959 . S
C2197 H2182 0.959 . S
C2197 H2183 0.986 . S
C2197 C2196 1.502 . S
C2198 H2184 0.960 . S
C2198 H2185 0.961 . S
C2198 H2186 0.959 . S
C2198 C2196 1.561 1_554 S
C2199 C2196 1.526 . S
C2199 C2200 1.396 . S
C2199 C2204 1.390 . S
C2200 C2194 1.465 . S
C2200 C2199 1.396 . S
C2200 C2201 1.399 . S
C2201 H2187 0.929 . S
C2201 C2200 1.399 . S
C2201 C2202 1.385 . S
C2202 H2188 0.931 . S
C2202 C2201 1.385 . S
C2202 C2203 1.389 . S
C2203 C2202 1.389 . S
C2203 C2204 1.387 . S
C2204 H2189 0.930 . S
C2204 C2199 1.390 . S
C2204 C2203 1.387 . S
H2205 C2217 0.921 1_554 S
H2206 C2219 0.930 . S
H2207 C2220 0.930 . S
H2208 C2224 0.957 1_554 S
H2209 C2224 0.959 . S
H2210 C2224 0.949 1_554 S
H2211 C2225 0.960 . S
H2212 C2225 0.961 . S
H2213 C2225 0.959 . S
H2214 C2228 0.929 . S
H2215 C2229 0.931 . S
H2216 C2231 0.930 . S
C2217 H2205 0.921 1_556 S
C2217 C2218 1.399 . S
C2217 C2222 1.399 . S
C2218 C2217 1.399 . S
C2218 C2219 1.376 . S
C2219 H2206 0.930 . S
C2219 C2218 1.376 . S
C2219 C2220 1.388 . S
C2220 H2207 0.930 . S
C2220 C2219 1.388 . S
C2220 C2221 1.390 . S
C2221 C2220 1.390 . S
C2221 C2222 1.394 . S
C2221 C2227 1.465 . S
C2222 C2217 1.399 . S
C2222 C2221 1.394 . S
C2222 C2223 1.516 . S
C2223 C2222 1.516 . S
C2223 C2224 1.517 . S
C2223 C2225 1.561 . S
C2223 C2226 1.526 . S
C2224 H2208 0.957 1_556 S
C2224 H2209 0.959 . S
C2224 H2210 0.949 1_556 S
C2224 C2223 1.517 . S
C2225 H2211 0.960 . S
C2225 H2212 0.961 . S
C2225 H2213 0.959 . S
C2225 C2223 1.561 . S
C2226 C2223 1.526 . S
C2226 C2227 1.396 . S
C2226 C2231 1.390 . S
C2227 C2221 1.465 . S
C2227 C2226 1.396 . S
C2227 C2228 1.399 . S
C2228 H2214 0.929 . S
C2228 C2227 1.399 . S
C2228 C2229 1.385 . S
C2229 H2215 0.931 . S
C2229 C2228 1.385 . S
C2229 C2230 1.389 . S
C2230 C2229 1.389 . S
C2230 C2231 1.387 . S
C2231 H2216 0.930 . S
C2231 C2226 1.390 . S
C2231 C2230 1.387 . S
H2232 C2244 0.930 . S
H2233 C2246 0.930 . S
H2234 C2247 0.930 1_554 S
H2235 C2251 0.959 . S
H2236 C2251 0.959 . S
H2237 C2251 0.961 . S
H2238 C2252 0.960 . S
H2239 C2252 0.961 . S
H2240 C2252 0.959 . S
H2241 C2255 0.929 . S
H2242 C2256 0.931 . S
H2243 C2258 0.930 . S
C2244 H2232 0.930 . S
C2244 C2245 1.399 . S
C2244 C2249 1.399 . S
C2245 C2244 1.399 . S
C2245 C2246 1.376 1_556 S
C2246 H2233 0.930 . S
C2246 C2245 1.376 1_554 S
C2246 C2247 1.388 1_554 S
C2247 H2234 0.930 1_556 S
C2247 C2246 1.388 1_556 S
C2247 C2248 1.390 . S
C2248 C2247 1.390 . S
C2248 C2249 1.394 . S
C2248 C2254 1.465 . S
C2249 C2244 1.399 . S
C2249 C2248 1.394 . S
C2249 C2250 1.516 . S
C2250 C2249 1.516 . S
C2250 C2251 1.502 . S
C2250 C2252 1.561 . S
C2250 C2253 1.526 . S
C2251 H2235 0.959 . S
C2251 H2236 0.959 . S
C2251 H2237 0.961 . S
C2251 C2250 1.502 . S
C2252 H2238 0.960 . S
C2252 H2239 0.961 . S
C2252 H2240 0.959 . S
C2252 C2250 1.561 . S
C2253 C2250 1.526 . S
C2253 C2254 1.396 . S
C2253 C2258 1.390 . S
C2254 C2248 1.465 . S
C2254 C2253 1.396 . S
C2254 C2255 1.399 . S
C2255 H2241 0.929 . S
C2255 C2254 1.399 . S
C2255 C2256 1.385 . S
C2256 H2242 0.931 . S
C2256 C2255 1.385 . S
C2256 C2257 1.389 . S
C2257 C2256 1.389 . S
C2257 C2258 1.387 . S
C2258 H2243 0.930 . S
C2258 C2253 1.390 . S
C2258 C2257 1.387 . S
H2259 C2271 0.930 . S
H2260 C2273 0.930 . S
H2261 C2274 0.930 . S
H2262 C2278 0.959 . S
H2263 C2278 0.959 . S
H2264 C2278 0.961 . S
H2265 C2279 0.960 . S
H2266 C2279 0.961 . S
H2267 C2279 0.959 . S
H2268 C2282 0.929 . S
H2269 C2283 0.931 . S
H2270 C2285 0.930 . S
C2271 H2259 0.930 . S
C2271 C2272 1.399 . S
C2271 C2276 1.399 . S
C2272 C2271 1.399 . S
C2272 C2273 1.376 . S
C2273 H2260 0.930 . S
C2273 C2272 1.376 . S
C2273 C2274 1.388 . S
C2274 H2261 0.930 . S
C2274 C2273 1.388 . S
C2274 C2275 1.390 . S
C2275 C2274 1.390 . S
C2275 C2276 1.394 . S
C2275 C2281 1.465 . S
C2276 C2271 1.399 . S
C2276 C2275 1.394 . S
C2276 C2277 1.516 . S
C2277 C2276 1.516 . S
C2277 C2278 1.502 . S
C2277 C2279 1.561 . S
C2277 C2280 1.526 . S
C2278 H2262 0.959 . S
C2278 H2263 0.959 . S
C2278 H2264 0.961 . S
C2278 C2277 1.502 . S
C2279 H2265 0.960 . S
C2279 H2266 0.961 . S
C2279 H2267 0.959 . S
C2279 C2277 1.561 . S
C2280 C2277 1.526 . S
C2280 C2281 1.396 . S
C2280 C2285 1.390 . S
C2281 C2275 1.465 . S
C2281 C2280 1.396 . S
C2281 C2282 1.399 . S
C2282 H2268 0.929 . S
C2282 C2281 1.399 . S
C2282 C2283 1.385 . S
C2283 H2269 0.931 . S
C2283 C2282 1.385 . S
C2283 C2284 1.389 . S
C2284 C2283 1.389 . S
C2284 C2285 1.387 . S
C2285 H2270 0.930 . S
C2285 C2280 1.390 . S
C2285 C2284 1.387 . S
H2286 C2298 0.930 1_554 S
H2287 C2300 0.930 . S
H2288 C2301 0.930 . S
H2289 C2305 0.959 . S
H2290 C2305 0.959 . S
H2291 C2305 0.961 1_554 S
H2292 C2306 0.960 . S
H2293 C2306 0.961 . S
H2294 C2306 0.959 . S
H2295 C2309 0.929 . S
H2296 C2310 0.931 . S
H2297 C2312 0.930 . S
C2298 H2286 0.930 1_556 S
C2298 C2299 1.399 . S
C2298 C2303 1.399 . S
C2299 C2298 1.399 . S
C2299 C2300 1.376 . S
C2300 H2287 0.930 . S
C2300 C2299 1.376 . S
C2300 C2301 1.388 . S
C2301 H2288 0.930 . S
C2301 C2300 1.388 . S
C2301 C2302 1.390 . S
C2302 C2301 1.390 . S
C2302 C2303 1.394 . S
C2302 C2308 1.465 . S
C2303 C2298 1.399 . S
C2303 C2302 1.394 . S
C2303 C2304 1.516 . S
C2304 C2303 1.516 . S
C2304 C2305 1.502 . S
C2304 C2306 1.561 1_556 S
C2304 C2307 1.526 . S
C2305 H2289 0.959 . S
C2305 H2290 0.959 . S
C2305 H2291 0.961 1_556 S
C2305 C2304 1.502 . S
C2306 H2292 0.960 . S
C2306 H2293 0.961 . S
C2306 H2294 0.959 . S
C2306 C2304 1.561 1_554 S
C2307 C2304 1.526 . S
C2307 C2308 1.396 . S
C2307 C2312 1.390 . S
C2308 C2302 1.465 . S
C2308 C2307 1.396 . S
C2308 C2309 1.399 . S
C2309 H2295 0.929 . S
C2309 C2308 1.399 . S
C2309 C2310 1.385 . S
C2310 H2296 0.931 . S
C2310 C2309 1.385 . S
C2310 C2311 1.389 . S
C2311 C2310 1.389 . S
C2311 C2312 1.387 . S
C2312 H2297 0.930 . S
C2312 C2307 1.390 . S
C2312 C2311 1.387 . S
H2313 C2325 0.930 . S
H2314 C2327 0.930 . S
H2315 C2328 0.930 . S
H2316 C2332 0.959 . S
H2317 C2332 0.959 . S
H2318 C2332 0.961 . S
H2319 C2333 0.960 . S
H2320 C2333 0.961 . S
H2321 C2333 0.959 . S
H2322 C2336 0.929 . S
H2323 C2337 0.931 . S
H2324 C2339 0.930 . S
C2325 H2313 0.930 . S
C2325 C2326 1.399 . S
C2325 C2330 1.399 . S
C2326 C2325 1.399 . S
C2326 C2327 1.376 . S
C2327 H2314 0.930 . S
C2327 C2326 1.376 . S
C2327 C2328 1.388 . S
C2328 H2315 0.930 . S
C2328 C2327 1.388 . S
C2328 C2329 1.390 . S
C2329 C2328 1.390 . S
C2329 C2330 1.394 . S
C2329 C2335 1.465 . S
C2330 C2325 1.399 . S
C2330 C2329 1.394 . S
C2330 C2331 1.516 . S
C2331 C2330 1.516 . S
C2331 C2332 1.502 . S
C2331 C2333 1.561 . S
C2331 C2334 1.526 . S
C2332 H2316 0.959 . S
C2332 H2317 0.959 . S
C2332 H2318 0.961 . S
C2332 C2331 1.502 . S
C2333 H2319 0.960 . S
C2333 H2320 0.961 . S
C2333 H2321 0.959 . S
C2333 C2331 1.561 . S
C2334 C2331 1.526 . S
C2334 C2335 1.396 . S
C2334 C2339 1.390 . S
C2335 C2329 1.465 . S
C2335 C2334 1.396 . S
C2335 C2336 1.399 . S
C2336 H2322 0.929 . S
C2336 C2335 1.399 . S
C2336 C2337 1.385 . S
C2337 H2323 0.931 . S
C2337 C2336 1.385 . S
C2337 C2338 1.389 . S
C2338 C2337 1.389 . S
C2338 C2339 1.387 . S
C2339 H2324 0.930 . S
C2339 C2334 1.390 . S
C2339 C2338 1.387 . S
H2340 C2352 0.930 . S
H2341 C2354 0.930 . S
H2342 C2355 0.930 . S
H2343 C2359 0.959 . S
H2344 C2359 0.959 . S
H2345 C2359 0.961 . S
H2346 C2360 0.960 . S
H2347 C2360 0.961 . S
H2348 C2360 0.959 . S
H2349 C2363 0.929 . S
H2350 C2364 0.931 . S
H2351 C2366 0.930 . S
C2352 H2340 0.930 . S
C2352 C2353 1.399 . S
C2352 C2357 1.399 . S
C2353 C2352 1.399 . S
C2353 C2354 1.376 . S
C2354 H2341 0.930 . S
C2354 C2353 1.376 . S
C2354 C2355 1.388 . S
C2355 H2342 0.930 . S
C2355 C2354 1.388 . S
C2355 C2356 1.390 . S
C2356 C2355 1.390 . S
C2356 C2357 1.394 . S
C2356 C2362 1.465 . S
C2357 C2352 1.399 . S
C2357 C2356 1.394 . S
C2357 C2358 1.516 . S
C2358 C2357 1.516 . S
C2358 C2359 1.502 . S
C2358 C2360 1.561 . S
C2358 C2361 1.526 . S
C2359 H2343 0.959 . S
C2359 H2344 0.959 . S
C2359 H2345 0.961 . S
C2359 C2358 1.502 . S
C2360 H2346 0.960 . S
C2360 H2347 0.961 . S
C2360 H2348 0.959 . S
C2360 C2358 1.561 . S
C2361 C2358 1.526 . S
C2361 C2362 1.396 . S
C2361 C2366 1.390 . S
C2362 C2356 1.465 . S
C2362 C2361 1.396 . S
C2362 C2363 1.399 . S
C2363 H2349 0.929 . S
C2363 C2362 1.399 . S
C2363 C2364 1.385 . S
C2364 H2350 0.931 . S
C2364 C2363 1.385 . S
C2364 C2365 1.389 . S
C2365 C2364 1.389 . S
C2365 C2366 1.387 . S
C2366 H2351 0.930 . S
C2366 C2361 1.390 . S
C2366 C2365 1.387 . S
H2367 C2379 0.930 . S
H2368 C2381 0.930 . S
H2369 C2382 0.930 . S
H2370 C2386 0.959 . S
H2371 C2386 0.959 . S
H2372 C2386 0.961 . S
H2373 C2387 0.960 . S
H2374 C2387 0.961 . S
H2375 C2387 0.959 . S
H2376 C2390 0.929 . S
H2377 C2391 0.931 . S
H2378 C2393 0.930 . S
C2379 H2367 0.930 . S
C2379 C2380 1.399 . S
C2379 C2384 1.399 . S
C2380 C2379 1.399 . S
C2380 C2381 1.376 . S
C2381 H2368 0.930 . S
C2381 C2380 1.376 . S
C2381 C2382 1.388 . S
C2382 H2369 0.930 . S
C2382 C2381 1.388 . S
C2382 C2383 1.390 . S
C2383 C2382 1.390 . S
C2383 C2384 1.394 . S
C2383 C2389 1.465 . S
C2384 C2379 1.399 . S
C2384 C2383 1.394 . S
C2384 C2385 1.516 . S
C2385 C2384 1.516 . S
C2385 C2386 1.502 . S
C2385 C2387 1.561 . S
C2385 C2388 1.526 . S
C2386 H2370 0.959 . S
C2386 H2371 0.959 . S
C2386 H2372 0.961 . S
C2386 C2385 1.502 . S
C2387 H2373 0.960 . S
C2387 H2374 0.961 . S
C2387 H2375 0.959 . S
C2387 C2385 1.561 . S
C2388 C2385 1.526 . S
C2388 C2389 1.396 . S
C2388 C2393 1.390 . S
C2389 C2383 1.465 . S
C2389 C2388 1.396 . S
C2389 C2390 1.399 . S
C2390 H2376 0.929 . S
C2390 C2389 1.399 . S
C2390 C2391 1.385 . S
C2391 H2377 0.931 . S
C2391 C2390 1.385 . S
C2391 C2392 1.389 . S
C2392 C2391 1.389 . S
C2392 C2393 1.387 . S
C2393 H2378 0.930 . S
C2393 C2388 1.390 . S
C2393 C2392 1.387 . S
H2394 C2406 0.930 . S
H2395 C2408 0.930 . S
H2396 C2409 0.930 . S
H2397 C2413 0.959 . S
H2398 C2413 0.959 . S
H2399 C2413 0.961 . S
H2400 C2414 0.960 . S
H2401 C2414 0.961 . S
H2402 C2414 0.959 . S
H2403 C2417 0.929 . S
H2404 C2418 0.931 . S
H2405 C2420 0.930 . S
C2406 H2394 0.930 . S
C2406 C2407 1.399 . S
C2406 C2411 1.399 . S
C2407 C2406 1.399 . S
C2407 C2408 1.376 . S
C2408 H2395 0.930 . S
C2408 C2407 1.376 . S
C2408 C2409 1.388 . S
C2409 H2396 0.930 . S
C2409 C2408 1.388 . S
C2409 C2410 1.390 . S
C2410 C2409 1.390 . S
C2410 C2411 1.394 . S
C2410 C2416 1.465 . S
C2411 C2406 1.399 . S
C2411 C2410 1.394 . S
C2411 C2412 1.516 . S
C2412 C2411 1.516 . S
C2412 C2413 1.502 . S
C2412 C2414 1.561 . S
C2412 C2415 1.526 . S
C2413 H2397 0.959 . S
C2413 H2398 0.959 . S
C2413 H2399 0.961 . S
C2413 C2412 1.502 . S
C2414 H2400 0.960 . S
C2414 H2401 0.961 . S
C2414 H2402 0.959 . S
C2414 C2412 1.561 . S
C2415 C2412 1.526 . S
C2415 C2416 1.396 . S
C2415 C2420 1.390 . S
C2416 C2410 1.465 . S
C2416 C2415 1.396 . S
C2416 C2417 1.399 . S
C2417 H2403 0.929 . S
C2417 C2416 1.399 . S
C2417 C2418 1.385 . S
C2418 H2404 0.931 . S
C2418 C2417 1.385 . S
C2418 C2419 1.389 . S
C2419 C2418 1.389 . S
C2419 C2420 1.387 . S
C2420 H2405 0.930 . S
C2420 C2415 1.390 . S
C2420 C2419 1.387 . S
H2421 C2433 0.930 . S
H2422 C2435 0.930 . S
H2423 C2436 0.930 . S
H2424 C2440 0.959 . S
H2425 C2440 0.959 . S
H2426 C2440 0.961 . S
H2427 C2441 0.960 . S
H2428 C2441 0.961 . S
H2429 C2441 0.959 . S
H2430 C2444 0.929 . S
H2431 C2445 0.931 . S
H2432 C2447 0.930 . S
C2433 H2421 0.930 . S
C2433 C2434 1.399 . S
C2433 C2438 1.399 . S
C2434 C2433 1.399 . S
C2434 C2435 1.376 . S
C2435 H2422 0.930 . S
C2435 C2434 1.376 . S
C2435 C2436 1.388 . S
C2436 H2423 0.930 . S
C2436 C2435 1.388 . S
C2436 C2437 1.390 . S
C2437 C2436 1.390 . S
C2437 C2438 1.394 . S
C2437 C2443 1.465 . S
C2438 C2433 1.399 . S
C2438 C2437 1.394 . S
C2438 C2439 1.516 . S
C2439 C2438 1.516 . S
C2439 C2440 1.502 . S
C2439 C2441 1.561 . S
C2439 C2442 1.526 . S
C2440 H2424 0.959 . S
C2440 H2425 0.959 . S
C2440 H2426 0.961 . S
C2440 C2439 1.502 . S
C2441 H2427 0.960 . S
C2441 H2428 0.961 . S
C2441 H2429 0.959 . S
C2441 C2439 1.561 . S
C2442 C2439 1.526 . S
C2442 C2443 1.396 . S
C2442 C2447 1.390 . S
C2443 C2437 1.465 . S
C2443 C2442 1.396 . S
C2443 C2444 1.399 . S
C2444 H2430 0.929 . S
C2444 C2443 1.399 . S
C2444 C2445 1.385 . S
C2445 H2431 0.931 . S
C2445 C2444 1.385 . S
C2445 C2446 1.389 . S
C2446 C2445 1.389 . S
C2446 C2447 1.387 . S
C2447 H2432 0.930 . S
C2447 C2442 1.390 . S
C2447 C2446 1.387 . S
H2448 C2460 0.930 . S
H2449 C2462 0.930 . S
H2450 C2463 0.930 . S
H2451 C2467 0.959 . S
H2452 C2467 0.959 . S
H2453 C2467 0.961 . S
H2454 C2468 0.960 . S
H2455 C2468 0.961 . S
H2456 C2468 0.959 . S
H2457 C2471 0.929 . S
H2458 C2472 0.931 . S
H2459 C2474 0.930 . S
C2460 H2448 0.930 . S
C2460 C2461 1.399 . S
C2460 C2465 1.399 . S
C2461 C2460 1.399 . S
C2461 C2462 1.376 . S
C2462 H2449 0.930 . S
C2462 C2461 1.376 . S
C2462 C2463 1.388 . S
C2463 H2450 0.930 . S
C2463 C2462 1.388 . S
C2463 C2464 1.390 . S
C2464 C2463 1.390 . S
C2464 C2465 1.394 . S
C2464 C2470 1.465 . S
C2465 C2460 1.399 . S
C2465 C2464 1.394 . S
C2465 C2466 1.516 . S
C2466 C2465 1.516 . S
C2466 C2467 1.502 . S
C2466 C2468 1.561 . S
C2466 C2469 1.526 . S
C2467 H2451 0.959 . S
C2467 H2452 0.959 . S
C2467 H2453 0.961 . S
C2467 C2466 1.502 . S
C2468 H2454 0.960 . S
C2468 H2455 0.961 . S
C2468 H2456 0.959 . S
C2468 C2466 1.561 . S
C2469 C2466 1.526 . S
C2469 C2470 1.396 . S
C2469 C2474 1.390 . S
C2470 C2464 1.465 . S
C2470 C2469 1.396 . S
C2470 C2471 1.399 . S
C2471 H2457 0.929 . S
C2471 C2470 1.399 . S
C2471 C2472 1.385 . S
C2472 H2458 0.931 . S
C2472 C2471 1.385 . S
C2472 C2473 1.389 . S
C2473 C2472 1.389 . S
C2473 C2474 1.387 . S
C2474 H2459 0.930 . S
C2474 C2469 1.390 . S
C2474 C2473 1.387 . S
H2475 C2487 0.930 . S
H2476 C2489 0.930 . S
H2477 C2490 0.930 . S
H2478 C2494 0.959 1_455 S
H2479 C2494 0.959 . S
H2480 C2494 0.961 . S
H2481 C2495 0.960 . S
H2482 C2495 0.961 . S
H2483 C2495 0.959 . S
H2484 C2498 0.929 . S
H2485 C2499 0.931 . S
H2486 C2501 0.930 . S
C2487 H2475 0.930 . S
C2487 C2488 1.399 . S
C2487 C2492 1.399 . S
C2488 C2487 1.399 . S
C2488 C2489 1.376 . S
C2489 H2476 0.930 . S
C2489 C2488 1.376 . S
C2489 C2490 1.388 . S
C2490 H2477 0.930 . S
C2490 C2489 1.388 . S
C2490 C2491 1.390 . S
C2491 C2490 1.390 . S
C2491 C2492 1.394 . S
C2491 C2497 1.465 . S
C2492 C2487 1.399 . S
C2492 C2491 1.394 . S
C2492 C2493 1.516 1_455 S
C2493 C2492 1.516 1_655 S
C2493 C2494 1.502 . S
C2493 C2495 1.561 . S
C2493 C2496 1.526 1_655 S
C2494 H2478 0.959 1_655 S
C2494 H2479 0.959 . S
C2494 H2480 0.961 . S
C2494 C2493 1.502 . S
C2495 H2481 0.960 . S
C2495 H2482 0.961 . S
C2495 H2483 0.959 . S
C2495 C2493 1.561 . S
C2496 C2493 1.526 1_455 S
C2496 C2497 1.396 . S
C2496 C2501 1.390 1_455 S
C2497 C2491 1.465 . S
C2497 C2496 1.396 . S
C2497 C2498 1.399 . S
C2498 H2484 0.929 . S
C2498 C2497 1.399 . S
C2498 C2499 1.385 . S
C2499 H2485 0.931 . S
C2499 C2498 1.385 . S
C2499 C2500 1.389 . S
C2500 C2499 1.389 . S
C2500 C2501 1.387 1_455 S
C2501 H2486 0.930 . S
C2501 C2496 1.390 1_655 S
C2501 C2500 1.387 1_655 S
H2502 C2514 0.930 . S
H2503 C2516 0.930 . S
H2504 C2517 0.930 . S
H2505 C2521 0.959 . S
H2506 C2521 0.959 . S
H2507 C2521 0.961 . S
H2508 C2522 0.960 . S
H2509 C2522 0.961 . S
H2510 C2522 0.959 . S
H2511 C2525 0.929 . S
H2512 C2526 0.931 . S
H2513 C2528 0.930 . S
C2514 H2502 0.930 . S
C2514 C2515 1.399 . S
C2514 C2519 1.399 . S
C2515 C2514 1.399 . S
C2515 C2516 1.376 . S
C2516 H2503 0.930 . S
C2516 C2515 1.376 . S
C2516 C2517 1.388 . S
C2517 H2504 0.930 . S
C2517 C2516 1.388 . S
C2517 C2518 1.390 . S
C2518 C2517 1.390 . S
C2518 C2519 1.394 . S
C2518 C2524 1.465 . S
C2519 C2514 1.399 . S
C2519 C2518 1.394 . S
C2519 C2520 1.516 . S
C2520 C2519 1.516 . S
C2520 C2521 1.502 . S
C2520 C2522 1.561 . S
C2520 C2523 1.526 . S
C2521 H2505 0.959 . S
C2521 H2506 0.959 . S
C2521 H2507 0.961 . S
C2521 C2520 1.502 . S
C2522 H2508 0.960 . S
C2522 H2509 0.961 . S
C2522 H2510 0.959 . S
C2522 C2520 1.561 . S
C2523 C2520 1.526 . S
C2523 C2524 1.396 . S
C2523 C2528 1.390 . S
C2524 C2518 1.465 . S
C2524 C2523 1.396 . S
C2524 C2525 1.399 . S
C2525 H2511 0.929 . S
C2525 C2524 1.399 . S
C2525 C2526 1.385 . S
C2526 H2512 0.931 . S
C2526 C2525 1.385 . S
C2526 C2527 1.389 . S
C2527 C2526 1.389 . S
C2527 C2528 1.387 . S
C2528 H2513 0.930 . S
C2528 C2523 1.390 . S
C2528 C2527 1.387 . S
H2529 C2541 0.930 . S
H2530 C2543 0.930 . S
H2531 C2544 0.930 . S
H2532 C2548 0.959 . S
H2533 C2548 0.959 . S
H2534 C2548 0.961 . S
H2535 C2549 0.960 . S
H2536 C2549 0.961 . S
H2537 C2549 0.959 . S
H2538 C2552 0.929 . S
H2539 C2553 0.931 . S
H2540 C2555 0.930 . S
C2541 H2529 0.930 . S
C2541 C2542 1.399 1_545 S
C2541 C2546 1.393 1_545 S
C2542 C2541 1.399 1_565 S
C2542 C2543 1.376 . S
C2543 H2530 0.930 . S
C2543 C2542 1.376 . S
C2543 C2544 1.388 . S
C2544 H2531 0.930 . S
C2544 C2543 1.388 . S
C2544 C2545 1.390 . S
C2545 C2544 1.390 . S
C2545 C2546 1.404 . S
C2545 C2551 1.465 . S
C2546 C2541 1.393 1_565 S
C2546 C2545 1.404 . S
C2546 C2547 1.513 1_565 S
C2547 C2546 1.513 1_545 S
C2547 C2548 1.502 . S
C2547 C2549 1.561 . S
C2547 C2550 1.526 . S
C2548 H2532 0.959 . S
C2548 H2533 0.959 . S
C2548 H2534 0.961 . S
C2548 C2547 1.502 . S
C2549 H2535 0.960 . S
C2549 H2536 0.961 . S
C2549 H2537 0.959 . S
C2549 C2547 1.561 . S
C2550 C2547 1.526 . S
C2550 C2551 1.396 1_545 S
C2550 C2555 1.390 . S
C2551 C2545 1.465 . S
C2551 C2550 1.396 1_565 S
C2551 C2552 1.399 . S
C2552 H2538 0.929 . S
C2552 C2551 1.399 . S
C2552 C2553 1.385 . S
C2553 H2539 0.931 . S
C2553 C2552 1.385 . S
C2553 C2554 1.389 . S
C2554 C2553 1.389 . S
C2554 C2555 1.387 1_565 S
C2555 H2540 0.930 . S
C2555 C2550 1.390 . S
C2555 C2554 1.387 1_545 S
H2556 C2568 0.930 . S
H2557 C2570 0.930 . S
H2558 C2571 0.930 . S
H2559 C2575 0.959 . S
H2560 C2575 0.959 . S
H2561 C2575 0.961 . S
H2562 C2576 0.960 . S
H2563 C2576 0.961 . S
H2564 C2576 0.959 . S
H2565 C2579 0.929 . S
H2566 C2580 0.931 . S
H2567 C2582 0.930 . S
C2568 H2556 0.930 . S
C2568 C2569 1.399 . S
C2568 C2573 1.399 . S
C2569 C2568 1.399 . S
C2569 C2570 1.376 1_565 S
C2570 H2557 0.930 . S
C2570 C2569 1.376 1_545 S
C2570 C2571 1.388 . S
C2571 H2558 0.930 . S
C2571 C2570 1.388 . S
C2571 C2572 1.390 1_545 S
C2572 C2571 1.390 1_565 S
C2572 C2573 1.394 . S
C2572 C2578 1.492 . S
C2573 C2568 1.399 . S
C2573 C2572 1.394 . S
C2573 C2574 1.516 . S
C2574 C2573 1.516 . S
C2574 C2575 1.502 . S
C2574 C2576 1.561 . S
C2574 C2577 1.526 . S
C2575 H2559 0.959 . S
C2575 H2560 0.959 . S
C2575 H2561 0.961 . S
C2575 C2574 1.502 . S
C2576 H2562 0.960 . S
C2576 H2563 0.961 . S
C2576 H2564 0.959 . S
C2576 C2574 1.561 . S
C2577 C2574 1.526 . S
C2577 C2578 1.425 . S
C2577 C2582 1.390 . S
C2578 C2572 1.492 . S
C2578 C2577 1.425 . S
C2578 C2579 1.352 1_565 S
C2579 H2565 0.929 . S
C2579 C2578 1.352 1_545 S
C2579 C2580 1.385 . S
C2580 H2566 0.931 . S
C2580 C2579 1.385 . S
C2580 C2581 1.389 1_545 S
C2581 C2580 1.389 1_565 S
C2581 C2582 1.387 . S
C2582 H2567 0.930 . S
C2582 C2577 1.390 . S
C2582 C2581 1.387 . S
H2583 C2595 0.930 1_655 S
H2584 C2597 0.930 . S
H2585 C2598 0.930 . S
H2586 C2602 0.959 . S
H2587 C2602 0.959 . S
H2588 C2602 0.961 . S
H2589 C2603 0.953 1_655 S
H2590 C2603 0.961 1_655 S
H2591 C2603 0.959 . S
H2592 C2606 0.929 . S
H2593 C2607 0.931 . S
H2594 C2609 0.930 . S
C2595 H2583 0.930 1_455 S
C2595 C2596 1.399 . S
C2595 C2600 1.399 . S
C2596 C2595 1.399 . S
C2596 C2597 1.376 . S
C2597 H2584 0.930 . S
C2597 C2596 1.376 . S
C2597 C2598 1.388 . S
C2598 H2585 0.930 . S
C2598 C2597 1.388 . S
C2598 C2599 1.390 . S
C2599 C2598 1.390 . S
C2599 C2600 1.394 . S
C2599 C2605 1.465 . S
C2600 C2595 1.399 . S
C2600 C2599 1.394 . S
C2600 C2601 1.516 1_455 S
C2601 C2600 1.516 1_655 S
C2601 C2602 1.502 . S
C2601 C2603 1.561 1_655 S
C2601 C2604 1.471 1_655 S
C2602 H2586 0.959 . S
C2602 H2587 0.959 . S
C2602 H2588 0.961 . S
C2602 C2601 1.502 . S
C2603 H2589 0.953 1_455 S
C2603 H2590 0.961 1_455 S
C2603 H2591 0.959 . S
C2603 C2601 1.561 1_455 S
C2604 C2601 1.471 1_455 S
C2604 C2605 1.441 . S
C2604 C2609 1.407 1_455 S
C2605 C2599 1.465 . S
C2605 C2604 1.441 . S
C2605 C2606 1.399 . S
C2606 H2592 0.929 . S
C2606 C2605 1.399 . S
C2606 C2607 1.385 . S
C2607 H2593 0.931 . S
C2607 C2606 1.385 . S
C2607 C2608 1.389 . S
C2608 C2607 1.389 . S
C2608 C2609 1.387 1_455 S
C2609 H2594 0.930 . S
C2609 C2604 1.407 1_655 S
C2609 C2608 1.387 1_655 S
H2610 C2622 0.930 . S
H2611 C2624 0.930 . S
H2612 C2625 0.930 . S
H2613 C2629 0.959 . S
H2614 C2629 0.959 . S
H2615 C2629 0.961 . S
H2616 C2630 0.960 . S
H2617 C2630 0.961 . S
H2618 C2630 0.959 . S
H2619 C2633 0.929 . S
H2620 C2634 0.931 . S
H2621 C2636 0.930 . S
C2622 H2610 0.930 . S
C2622 C2623 1.399 . S
C2622 C2627 1.399 . S
C2623 C2622 1.399 . S
C2623 C2624 1.376 . S
C2624 H2611 0.930 . S
C2624 C2623 1.376 . S
C2624 C2625 1.388 . S
C2625 H2612 0.930 . S
C2625 C2624 1.388 . S
C2625 C2626 1.390 . S
C2626 C2625 1.390 . S
C2626 C2627 1.394 . S
C2626 C2632 1.465 . S
C2627 C2622 1.399 . S
C2627 C2626 1.394 . S
C2627 C2628 1.516 . S
C2628 C2627 1.516 . S
C2628 C2629 1.502 . S
C2628 C2630 1.561 . S
C2628 C2631 1.526 . S
C2629 H2613 0.959 . S
C2629 H2614 0.959 . S
C2629 H2615 0.961 . S
C2629 C2628 1.502 . S
C2630 H2616 0.960 . S
C2630 H2617 0.961 . S
C2630 H2618 0.959 . S
C2630 C2628 1.561 . S
C2631 C2628 1.526 . S
C2631 C2632 1.396 . S
C2631 C2636 1.390 . S
C2632 C2626 1.465 . S
C2632 C2631 1.396 . S
C2632 C2633 1.399 . S
C2633 H2619 0.929 . S
C2633 C2632 1.399 . S
C2633 C2634 1.385 . S
C2634 H2620 0.931 . S
C2634 C2633 1.385 . S
C2634 C2635 1.389 . S
C2635 C2634 1.389 . S
C2635 C2636 1.387 . S
C2636 H2621 0.930 . S
C2636 C2631 1.390 . S
C2636 C2635 1.387 . S
H2637 C2649 0.930 . S
H2638 C2651 0.930 . S
H2639 C2652 0.930 . S
H2640 C2656 0.959 . S
H2641 C2656 0.959 . S
H2642 C2656 0.961 . S
H2643 C2657 0.960 . S
H2644 C2657 0.961 . S
H2645 C2657 0.959 . S
H2646 C2660 0.929 . S
H2647 C2661 0.931 . S
H2648 C2663 0.930 . S
C2649 H2637 0.930 . S
C2649 C2650 1.399 . S
C2649 C2654 1.399 . S
C2650 C2649 1.399 . S
C2650 C2651 1.376 . S
C2651 H2638 0.930 . S
C2651 C2650 1.376 . S
C2651 C2652 1.388 . S
C2652 H2639 0.930 . S
C2652 C2651 1.388 . S
C2652 C2653 1.390 . S
C2653 C2652 1.390 . S
C2653 C2654 1.394 . S
C2653 C2659 1.465 . S
C2654 C2649 1.399 . S
C2654 C2653 1.394 . S
C2654 C2655 1.516 . S
C2655 C2654 1.516 . S
C2655 C2656 1.502 . S
C2655 C2657 1.561 . S
C2655 C2658 1.526 . S
C2656 H2640 0.959 . S
C2656 H2641 0.959 . S
C2656 H2642 0.961 . S
C2656 C2655 1.502 . S
C2657 H2643 0.960 . S
C2657 H2644 0.961 . S
C2657 H2645 0.959 . S
C2657 C2655 1.561 . S
C2658 C2655 1.526 . S
C2658 C2659 1.396 . S
C2658 C2663 1.390 . S
C2659 C2653 1.465 . S
C2659 C2658 1.396 . S
C2659 C2660 1.399 . S
C2660 H2646 0.929 . S
C2660 C2659 1.399 . S
C2660 C2661 1.385 . S
C2661 H2647 0.931 . S
C2661 C2660 1.385 . S
C2661 C2662 1.389 . S
C2662 C2661 1.389 . S
C2662 C2663 1.387 . S
C2663 H2648 0.930 . S
C2663 C2658 1.390 . S
C2663 C2662 1.387 . S
H2664 C2676 0.930 . S
H2665 C2678 0.930 . S
H2666 C2679 0.930 . S
H2667 C2683 0.959 . S
H2668 C2683 0.959 . S
H2669 C2683 0.961 . S
H2670 C2684 0.960 . S
H2671 C2684 0.961 . S
H2672 C2684 0.959 . S
H2673 C2687 0.929 . S
H2674 C2688 0.931 . S
H2675 C2690 0.930 . S
C2676 H2664 0.930 . S
C2676 C2677 1.399 . S
C2676 C2681 1.399 . S
C2677 C2676 1.399 . S
C2677 C2678 1.376 . S
C2678 H2665 0.930 . S
C2678 C2677 1.376 . S
C2678 C2679 1.388 . S
C2679 H2666 0.930 . S
C2679 C2678 1.388 . S
C2679 C2680 1.390 . S
C2680 C2679 1.390 . S
C2680 C2681 1.394 . S
C2680 C2686 1.465 . S
C2681 C2676 1.399 . S
C2681 C2680 1.394 . S
C2681 C2682 1.516 . S
C2682 C2681 1.516 . S
C2682 C2683 1.502 . S
C2682 C2684 1.561 . S
C2682 C2685 1.526 . S
C2683 H2667 0.959 . S
C2683 H2668 0.959 . S
C2683 H2669 0.961 . S
C2683 C2682 1.502 . S
C2684 H2670 0.960 . S
C2684 H2671 0.961 . S
C2684 H2672 0.959 . S
C2684 C2682 1.561 . S
C2685 C2682 1.526 . S
C2685 C2686 1.396 . S
C2685 C2690 1.390 . S
C2686 C2680 1.465 . S
C2686 C2685 1.396 . S
C2686 C2687 1.399 . S
C2687 H2673 0.929 . S
C2687 C2686 1.399 . S
C2687 C2688 1.385 . S
C2688 H2674 0.931 . S
C2688 C2687 1.385 . S
C2688 C2689 1.389 . S
C2689 C2688 1.389 . S
C2689 C2690 1.387 . S
C2690 H2675 0.930 . S
C2690 C2685 1.390 . S
C2690 C2689 1.387 . S
H2691 C2703 0.930 . S
H2692 C2705 0.930 . S
H2693 C2706 0.930 . S
H2694 C2710 0.959 . S
H2695 C2710 0.959 . S
H2696 C2710 0.961 . S
H2697 C2711 0.960 . S
H2698 C2711 0.961 . S
H2699 C2711 0.959 . S
H2700 C2714 0.929 . S
H2701 C2715 0.931 . S
H2702 C2717 0.930 . S
C2703 H2691 0.930 . S
C2703 C2704 1.399 . S
C2703 C2708 1.399 . S
C2704 C2703 1.399 . S
C2704 C2705 1.376 . S
C2705 H2692 0.930 . S
C2705 C2704 1.376 . S
C2705 C2706 1.388 . S
C2706 H2693 0.930 . S
C2706 C2705 1.388 . S
C2706 C2707 1.390 . S
C2707 C2706 1.390 . S
C2707 C2708 1.394 . S
C2707 C2713 1.465 . S
C2708 C2703 1.399 . S
C2708 C2707 1.394 . S
C2708 C2709 1.516 . S
C2709 C2708 1.516 . S
C2709 C2710 1.502 . S
C2709 C2711 1.561 . S
C2709 C2712 1.526 . S
C2710 H2694 0.959 . S
C2710 H2695 0.959 . S
C2710 H2696 0.961 . S
C2710 C2709 1.502 . S
C2711 H2697 0.960 . S
C2711 H2698 0.961 . S
C2711 H2699 0.959 . S
C2711 C2709 1.561 . S
C2712 C2709 1.526 . S
C2712 C2713 1.396 . S
C2712 C2717 1.390 . S
C2713 C2707 1.465 . S
C2713 C2712 1.396 . S
C2713 C2714 1.399 . S
C2714 H2700 0.929 . S
C2714 C2713 1.399 . S
C2714 C2715 1.385 . S
C2715 H2701 0.931 . S
C2715 C2714 1.385 . S
C2715 C2716 1.389 . S
C2716 C2715 1.389 . S
C2716 C2717 1.387 . S
C2717 H2702 0.930 . S
C2717 C2712 1.390 . S
C2717 C2716 1.387 . S
H2718 C2730 0.930 1_565 S
H2719 C2732 0.930 . S
H2720 C2733 0.930 . S
H2721 C2737 0.959 . S
H2722 C2737 0.959 . S
H2723 C2737 0.961 . S
H2724 C2738 0.960 . S
H2725 C2738 0.961 . S
H2726 C2738 0.959 . S
H2727 C2741 0.929 . S
H2728 C2742 0.931 . S
H2729 C2744 0.930 . S
C2730 H2718 0.930 1_545 S
C2730 C2731 1.399 . S
C2730 C2735 1.399 . S
C2731 C2730 1.399 . S
C2731 C2732 1.376 . S
C2732 H2719 0.930 . S
C2732 C2731 1.376 . S
C2732 C2733 1.388 . S
C2733 H2720 0.930 . S
C2733 C2732 1.388 . S
C2733 C2734 1.390 . S
C2734 C2733 1.390 . S
C2734 C2735 1.394 . S
C2734 C2740 1.465 . S
C2735 C2730 1.399 . S
C2735 C2734 1.394 . S
C2735 C2736 1.516 1_545 S
C2736 C2735 1.516 1_565 S
C2736 C2737 1.502 . S
C2736 C2738 1.561 . S
C2736 C2739 1.524 1_565 S
C2737 H2721 0.959 . S
C2737 H2722 0.959 . S
C2737 H2723 0.961 . S
C2737 C2736 1.502 . S
C2738 H2724 0.960 . S
C2738 H2725 0.961 . S
C2738 H2726 0.959 . S
C2738 C2736 1.561 . S
C2739 C2736 1.524 1_545 S
C2739 C2740 1.433 . S
C2739 C2744 1.361 1_545 S
C2740 C2734 1.465 . S
C2740 C2739 1.433 . S
C2740 C2741 1.399 . S
C2741 H2727 0.929 . S
C2741 C2740 1.399 . S
C2741 C2742 1.385 . S
C2742 H2728 0.931 . S
C2742 C2741 1.385 . S
C2742 C2743 1.389 . S
C2743 C2742 1.389 . S
C2743 C2744 1.387 1_545 S
C2744 H2729 0.930 . S
C2744 C2739 1.361 1_565 S
C2744 C2743 1.387 1_565 S
H2745 C2757 0.930 . S
H2746 C2759 0.930 . S
H2747 C2760 0.930 . S
H2748 C2764 0.959 . S
H2749 C2764 0.959 . S
H2750 C2764 0.961 . S
H2751 C2765 0.960 . S
H2752 C2765 0.961 . S
H2753 C2765 0.959 . S
H2754 C2768 0.929 . S
H2755 C2769 0.931 . S
H2756 C2771 0.930 . S
C2757 H2745 0.930 . S
C2757 C2758 1.399 1_455 S
C2757 C2762 1.399 . S
C2758 C2757 1.399 1_655 S
C2758 C2759 1.376 . S
C2759 H2746 0.930 . S
C2759 C2758 1.376 . S
C2759 C2760 1.388 . S
C2760 H2747 0.930 . S
C2760 C2759 1.388 . S
C2760 C2761 1.390 . S
C2761 C2760 1.390 . S
C2761 C2762 1.393 1_655 S
C2761 C2767 1.465 . S
C2762 C2757 1.399 . S
C2762 C2761 1.393 1_455 S
C2762 C2763 1.516 . S
C2763 C2762 1.516 . S
C2763 C2764 1.502 . S
C2763 C2765 1.561 . S
C2763 C2766 1.526 . S
C2764 H2748 0.959 . S
C2764 H2749 0.959 . S
C2764 H2750 0.961 . S
C2764 C2763 1.502 . S
C2765 H2751 0.960 . S
C2765 H2752 0.961 . S
C2765 H2753 0.959 . S
C2765 C2763 1.561 . S
C2766 C2763 1.526 . S
C2766 C2767 1.396 1_455 S
C2766 C2771 1.390 . S
C2767 C2761 1.465 . S
C2767 C2766 1.396 1_655 S
C2767 C2768 1.399 . S
C2768 H2754 0.929 . S
C2768 C2767 1.399 . S
C2768 C2769 1.385 . S
C2769 H2755 0.931 . S
C2769 C2768 1.385 . S
C2769 C2770 1.389 . S
C2770 C2769 1.389 . S
C2770 C2771 1.387 1_655 S
C2771 H2756 0.930 . S
C2771 C2766 1.390 . S
C2771 C2770 1.387 1_455 S
H2772 C2784 0.930 . S
H2773 C2786 0.930 . S
H2774 C2787 0.930 . S
H2775 C2791 0.959 . S
H2776 C2791 0.959 . S
H2777 C2791 0.961 . S
H2778 C2792 0.960 . S
H2779 C2792 0.961 . S
H2780 C2792 0.959 . S
H2781 C2795 0.929 . S
H2782 C2796 0.931 . S
H2783 C2798 0.930 . S
C2784 H2772 0.930 . S
C2784 C2785 1.399 . S
C2784 C2789 1.399 . S
C2785 C2784 1.399 . S
C2785 C2786 1.376 . S
C2786 H2773 0.930 . S
C2786 C2785 1.376 . S
C2786 C2787 1.388 . S
C2787 H2774 0.930 . S
C2787 C2786 1.388 . S
C2787 C2788 1.390 . S
C2788 C2787 1.390 . S
C2788 C2789 1.394 . S
C2788 C2794 1.465 . S
C2789 C2784 1.399 . S
C2789 C2788 1.394 . S
C2789 C2790 1.516 . S
C2790 C2789 1.516 . S
C2790 C2791 1.502 . S
C2790 C2792 1.561 . S
C2790 C2793 1.526 . S
C2791 H2775 0.959 . S
C2791 H2776 0.959 . S
C2791 H2777 0.961 . S
C2791 C2790 1.502 . S
C2792 H2778 0.960 . S
C2792 H2779 0.961 . S
C2792 H2780 0.959 . S
C2792 C2790 1.561 . S
C2793 C2790 1.526 . S
C2793 C2794 1.396 . S
C2793 C2798 1.390 . S
C2794 C2788 1.465 . S
C2794 C2793 1.396 . S
C2794 C2795 1.399 . S
C2795 H2781 0.929 . S
C2795 C2794 1.399 . S
C2795 C2796 1.385 . S
C2796 H2782 0.931 . S
C2796 C2795 1.385 . S
C2796 C2797 1.389 . S
C2797 C2796 1.389 . S
C2797 C2798 1.387 . S
C2798 H2783 0.930 . S
C2798 C2793 1.390 . S
C2798 C2797 1.387 . S
H2799 C2811 0.930 . S
H2800 C2813 0.930 . S
H2801 C2814 0.930 . S
H2802 C2818 0.959 . S
H2803 C2818 0.959 . S
H2804 C2818 0.961 . S
H2805 C2819 0.960 . S
H2806 C2819 0.961 . S
H2807 C2819 0.959 . S
H2808 C2822 0.929 . S
H2809 C2823 0.931 . S
H2810 C2825 0.930 . S
C2811 H2799 0.930 . S
C2811 C2812 1.399 . S
C2811 C2816 1.399 . S
C2812 C2811 1.399 . S
C2812 C2813 1.376 . S
C2813 H2800 0.930 . S
C2813 C2812 1.376 . S
C2813 C2814 1.388 . S
C2814 H2801 0.930 . S
C2814 C2813 1.388 . S
C2814 C2815 1.390 . S
C2815 C2814 1.390 . S
C2815 C2816 1.394 . S
C2815 C2821 1.465 . S
C2816 C2811 1.399 . S
C2816 C2815 1.394 . S
C2816 C2817 1.516 . S
C2817 C2816 1.516 . S
C2817 C2818 1.502 . S
C2817 C2819 1.561 . S
C2817 C2820 1.526 . S
C2818 H2802 0.959 . S
C2818 H2803 0.959 . S
C2818 H2804 0.961 . S
C2818 C2817 1.502 . S
C2819 H2805 0.960 . S
C2819 H2806 0.961 . S
C2819 H2807 0.959 . S
C2819 C2817 1.561 . S
C2820 C2817 1.526 . S
C2820 C2821 1.396 . S
C2820 C2825 1.390 . S
C2821 C2815 1.465 . S
C2821 C2820 1.396 . S
C2821 C2822 1.399 . S
C2822 H2808 0.929 . S
C2822 C2821 1.399 . S
C2822 C2823 1.385 . S
C2823 H2809 0.931 . S
C2823 C2822 1.385 . S
C2823 C2824 1.389 . S
C2824 C2823 1.389 . S
C2824 C2825 1.387 . S
C2825 H2810 0.930 . S
C2825 C2820 1.390 . S
C2825 C2824 1.387 . S
H2826 C2838 0.930 . S
H2827 C2840 0.930 . S
H2828 C2841 0.930 . S
H2829 C2845 0.959 . S
H2830 C2845 0.959 . S
H2831 C2845 0.961 . S
H2832 C2846 0.960 . S
H2833 C2846 0.961 . S
H2834 C2846 0.959 . S
H2835 C2849 0.929 . S
H2836 C2850 0.931 . S
H2837 C2852 0.930 . S
C2838 H2826 0.930 . S
C2838 C2839 1.399 . S
C2838 C2843 1.399 . S
C2839 C2838 1.399 . S
C2839 C2840 1.376 . S
C2840 H2827 0.930 . S
C2840 C2839 1.376 . S
C2840 C2841 1.388 . S
C2841 H2828 0.930 . S
C2841 C2840 1.388 . S
C2841 C2842 1.390 . S
C2842 C2841 1.390 . S
C2842 C2843 1.394 . S
C2842 C2848 1.465 . S
C2843 C2838 1.399 . S
C2843 C2842 1.394 . S
C2843 C2844 1.516 . S
C2844 C2843 1.516 . S
C2844 C2845 1.502 . S
C2844 C2846 1.561 . S
C2844 C2847 1.526 . S
C2845 H2829 0.959 . S
C2845 H2830 0.959 . S
C2845 H2831 0.961 . S
C2845 C2844 1.502 . S
C2846 H2832 0.960 . S
C2846 H2833 0.961 . S
C2846 H2834 0.959 . S
C2846 C2844 1.561 . S
C2847 C2844 1.526 . S
C2847 C2848 1.396 . S
C2847 C2852 1.390 . S
C2848 C2842 1.465 . S
C2848 C2847 1.396 . S
C2848 C2849 1.399 . S
C2849 H2835 0.929 . S
C2849 C2848 1.399 . S
C2849 C2850 1.385 . S
C2850 H2836 0.931 . S
C2850 C2849 1.385 . S
C2850 C2851 1.389 . S
C2851 C2850 1.389 . S
C2851 C2852 1.387 . S
C2852 H2837 0.930 . S
C2852 C2847 1.390 . S
C2852 C2851 1.387 . S
H2853 C2865 0.930 . S
H2854 C2867 0.930 . S
H2855 C2868 0.930 . S
H2856 C2872 0.959 . S
H2857 C2872 0.959 . S
H2858 C2872 0.961 . S
H2859 C2873 0.960 . S
H2860 C2873 0.961 . S
H2861 C2873 0.959 . S
H2862 C2876 0.929 . S
H2863 C2877 0.931 . S
H2864 C2879 0.930 . S
C2865 H2853 0.930 . S
C2865 C2866 1.399 . S
C2865 C2870 1.399 . S
C2866 C2865 1.399 . S
C2866 C2867 1.376 . S
C2867 H2854 0.930 . S
C2867 C2866 1.376 . S
C2867 C2868 1.388 . S
C2868 H2855 0.930 . S
C2868 C2867 1.388 . S
C2868 C2869 1.390 . S
C2869 C2868 1.390 . S
C2869 C2870 1.394 . S
C2869 C2875 1.465 . S
C2870 C2865 1.399 . S
C2870 C2869 1.394 . S
C2870 C2871 1.516 . S
C2871 C2870 1.516 . S
C2871 C2872 1.502 . S
C2871 C2873 1.561 . S
C2871 C2874 1.526 . S
C2872 H2856 0.959 . S
C2872 H2857 0.959 . S
C2872 H2858 0.961 . S
C2872 C2871 1.502 . S
C2873 H2859 0.960 . S
C2873 H2860 0.961 . S
C2873 H2861 0.959 . S
C2873 C2871 1.561 . S
C2874 C2871 1.526 . S
C2874 C2875 1.396 . S
C2874 C2879 1.390 . S
C2875 C2869 1.465 . S
C2875 C2874 1.396 . S
C2875 C2876 1.399 . S
C2876 H2862 0.929 . S
C2876 C2875 1.399 . S
C2876 C2877 1.385 . S
C2877 H2863 0.931 . S
C2877 C2876 1.385 . S
C2877 C2878 1.389 . S
C2878 C2877 1.389 . S
C2878 C2879 1.387 . S
C2879 H2864 0.930 . S
C2879 C2874 1.390 . S
C2879 C2878 1.387 . S
H2880 C2892 0.930 . S
H2881 C2894 0.930 . S
H2882 C2895 0.930 . S
H2883 C2899 0.959 . S
H2884 C2899 0.959 . S
H2885 C2899 0.961 . S
H2886 C2900 0.960 . S
H2887 C2900 0.961 . S
H2888 C2900 0.959 . S
H2889 C2903 0.929 . S
H2890 C2904 0.931 . S
H2891 C2906 0.930 . S
C2892 H2880 0.930 . S
C2892 C2893 1.399 . S
C2892 C2897 1.399 . S
C2893 C2892 1.399 . S
C2893 C2894 1.376 . S
C2894 H2881 0.930 . S
C2894 C2893 1.376 . S
C2894 C2895 1.388 . S
C2895 H2882 0.930 . S
C2895 C2894 1.388 . S
C2895 C2896 1.390 . S
C2896 C2895 1.390 . S
C2896 C2897 1.394 . S
C2896 C2902 1.465 . S
C2897 C2892 1.399 . S
C2897 C2896 1.394 . S
C2897 C2898 1.516 . S
C2898 C2897 1.516 . S
C2898 C2899 1.502 . S
C2898 C2900 1.561 . S
C2898 C2901 1.526 . S
C2899 H2883 0.959 . S
C2899 H2884 0.959 . S
C2899 H2885 0.961 . S
C2899 C2898 1.502 . S
C2900 H2886 0.960 . S
C2900 H2887 0.961 . S
C2900 H2888 0.959 . S
C2900 C2898 1.561 . S
C2901 C2898 1.526 . S
C2901 C2902 1.396 . S
C2901 C2906 1.390 . S
C2902 C2896 1.465 . S
C2902 C2901 1.396 . S
C2902 C2903 1.399 . S
C2903 H2889 0.929 . S
C2903 C2902 1.399 . S
C2903 C2904 1.385 . S
C2904 H2890 0.931 . S
C2904 C2903 1.385 . S
C2904 C2905 1.389 . S
C2905 C2904 1.389 . S
C2905 C2906 1.387 . S
C2906 H2891 0.930 . S
C2906 C2901 1.390 . S
C2906 C2905 1.387 . S
H2907 C2919 0.930 . S
H2908 C2921 0.930 . S
H2909 C2922 0.930 . S
H2910 C2926 0.959 . S
H2911 C2926 0.959 . S
H2912 C2926 0.961 . S
H2913 C2927 0.960 . S
H2914 C2927 0.961 . S
H2915 C2927 0.959 . S
H2916 C2930 0.929 . S
H2917 C2931 0.931 . S
H2918 C2933 0.930 . S
C2919 H2907 0.930 . S
C2919 C2920 1.399 . S
C2919 C2924 1.399 . S
C2920 C2919 1.399 . S
C2920 C2921 1.376 . S
C2921 H2908 0.930 . S
C2921 C2920 1.376 . S
C2921 C2922 1.388 . S
C2922 H2909 0.930 . S
C2922 C2921 1.388 . S
C2922 C2923 1.390 . S
C2923 C2922 1.390 . S
C2923 C2924 1.394 . S
C2923 C2929 1.465 . S
C2924 C2919 1.399 . S
C2924 C2923 1.394 . S
C2924 C2925 1.516 . S
C2925 C2924 1.516 . S
C2925 C2926 1.502 . S
C2925 C2927 1.561 . S
C2925 C2928 1.526 . S
C2926 H2910 0.959 . S
C2926 H2911 0.959 . S
C2926 H2912 0.961 . S
C2926 C2925 1.502 . S
C2927 H2913 0.960 . S
C2927 H2914 0.961 . S
C2927 H2915 0.959 . S
C2927 C2925 1.561 . S
C2928 C2925 1.526 . S
C2928 C2929 1.396 . S
C2928 C2933 1.390 . S
C2929 C2923 1.465 . S
C2929 C2928 1.396 . S
C2929 C2930 1.399 . S
C2930 H2916 0.929 . S
C2930 C2929 1.399 . S
C2930 C2931 1.385 . S
C2931 H2917 0.931 . S
C2931 C2930 1.385 . S
C2931 C2932 1.389 . S
C2932 C2931 1.389 . S
C2932 C2933 1.387 . S
C2933 H2918 0.930 . S
C2933 C2928 1.390 . S
C2933 C2932 1.387 . S
H2934 C2946 0.930 . S
H2935 C2948 0.930 . S
H2936 C2949 0.930 . S
H2937 C2953 0.959 . S
H2938 C2953 0.959 . S
H2939 C2953 0.961 . S
H2940 C2954 0.960 . S
H2941 C2954 0.961 . S
H2942 C2954 0.959 . S
H2943 C2957 0.929 . S
H2944 C2958 0.931 . S
H2945 C2960 0.930 . S
C2946 H2934 0.930 . S
C2946 C2947 1.399 . S
C2946 C2951 1.399 . S
C2947 C2946 1.399 . S
C2947 C2948 1.376 . S
C2948 H2935 0.930 . S
C2948 C2947 1.376 . S
C2948 C2949 1.388 . S
C2949 H2936 0.930 . S
C2949 C2948 1.388 . S
C2949 C2950 1.390 . S
C2950 C2949 1.390 . S
C2950 C2951 1.394 . S
C2950 C2956 1.465 . S
C2951 C2946 1.399 . S
C2951 C2950 1.394 . S
C2951 C2952 1.516 . S
C2952 C2951 1.516 . S
C2952 C2953 1.502 . S
C2952 C2954 1.561 . S
C2952 C2955 1.526 . S
C2953 H2937 0.959 . S
C2953 H2938 0.959 . S
C2953 H2939 0.961 . S
C2953 C2952 1.502 . S
C2954 H2940 0.960 . S
C2954 H2941 0.961 . S
C2954 H2942 0.959 . S
C2954 C2952 1.561 . S
C2955 C2952 1.526 . S
C2955 C2956 1.396 . S
C2955 C2960 1.390 . S
C2956 C2950 1.465 . S
C2956 C2955 1.396 . S
C2956 C2957 1.399 . S
C2957 H2943 0.929 . S
C2957 C2956 1.399 . S
C2957 C2958 1.385 . S
C2958 H2944 0.931 . S
C2958 C2957 1.385 . S
C2958 C2959 1.389 . S
C2959 C2958 1.389 . S
C2959 C2960 1.387 . S
C2960 H2945 0.930 . S
C2960 C2955 1.390 . S
C2960 C2959 1.387 . S
H2961 C2973 0.930 1_455 S
H2962 C2975 0.930 . S
H2963 C2976 0.930 . S
H2964 C2980 0.959 . S
H2965 C2980 0.959 . S
H2966 C2980 0.961 . S
H2967 C2981 0.960 . S
H2968 C2981 0.961 . S
H2969 C2981 0.959 . S
H2970 C2984 0.929 . S
H2971 C2985 0.931 . S
H2972 C2987 0.930 . S
C2973 H2961 0.930 1_655 S
C2973 C2974 1.399 . S
C2973 C2978 1.399 . S
C2974 C2973 1.399 . S
C2974 C2975 1.376 . S
C2975 H2962 0.930 . S
C2975 C2974 1.376 . S
C2975 C2976 1.388 . S
C2976 H2963 0.930 . S
C2976 C2975 1.388 . S
C2976 C2977 1.390 . S
C2977 C2976 1.390 . S
C2977 C2978 1.394 . S
C2977 C2983 1.465 . S
C2978 C2973 1.399 . S
C2978 C2977 1.394 . S
C2978 C2979 1.516 1_655 S
C2979 C2978 1.516 1_455 S
C2979 C2980 1.502 . S
C2979 C2981 1.561 . S
C2979 C2982 1.526 1_455 S
C2980 H2964 0.959 . S
C2980 H2965 0.959 . S
C2980 H2966 0.961 . S
C2980 C2979 1.502 . S
C2981 H2967 0.960 . S
C2981 H2968 0.961 . S
C2981 H2969 0.959 . S
C2981 C2979 1.561 . S
C2982 C2979 1.526 1_655 S
C2982 C2983 1.396 . S
C2982 C2987 1.390 1_655 S
C2983 C2977 1.465 . S
C2983 C2982 1.396 . S
C2983 C2984 1.399 . S
C2984 H2970 0.929 . S
C2984 C2983 1.399 . S
C2984 C2985 1.385 . S
C2985 H2971 0.931 . S
C2985 C2984 1.385 . S
C2985 C2986 1.389 . S
C2986 C2985 1.389 . S
C2986 C2987 1.387 1_655 S
C2987 H2972 0.930 . S
C2987 C2982 1.390 1_455 S
C2987 C2986 1.387 1_455 S
H2988 C3000 0.930 . S
H2989 C3002 0.930 . S
H2990 C3003 0.930 . S
H2991 C3007 0.959 . S
H2992 C3007 0.959 . S
H2993 C3007 0.961 . S
H2994 C3008 0.960 . S
H2995 C3008 0.961 . S
H2996 C3008 0.959 . S
H2997 C3011 0.929 . S
H2998 C3012 0.931 . S
H2999 C3014 0.930 . S
C3000 H2988 0.930 . S
C3000 C3001 1.399 . S
C3000 C3005 1.399 . S
C3001 C3000 1.399 . S
C3001 C3002 1.376 . S
C3002 H2989 0.930 . S
C3002 C3001 1.376 . S
C3002 C3003 1.388 . S
C3003 H2990 0.930 . S
C3003 C3002 1.388 . S
C3003 C3004 1.390 . S
C3004 C3003 1.390 . S
C3004 C3005 1.394 . S
C3004 C3010 1.465 . S
C3005 C3000 1.399 . S
C3005 C3004 1.394 . S
C3005 C3006 1.516 . S
C3006 C3005 1.516 . S
C3006 C3007 1.502 . S
C3006 C3008 1.561 . S
C3006 C3009 1.526 . S
C3007 H2991 0.959 . S
C3007 H2992 0.959 . S
C3007 H2993 0.961 . S
C3007 C3006 1.502 . S
C3008 H2994 0.960 . S
C3008 H2995 0.961 . S
C3008 H2996 0.959 . S
C3008 C3006 1.561 . S
C3009 C3006 1.526 . S
C3009 C3010 1.396 . S
C3009 C3014 1.390 . S
C3010 C3004 1.465 . S
C3010 C3009 1.396 . S
C3010 C3011 1.399 . S
C3011 H2997 0.929 . S
C3011 C3010 1.399 . S
C3011 C3012 1.385 . S
C3012 H2998 0.931 . S
C3012 C3011 1.385 . S
C3012 C3013 1.389 . S
C3013 C3012 1.389 . S
C3013 C3014 1.387 . S
C3014 H2999 0.930 . S
C3014 C3009 1.390 . S
C3014 C3013 1.387 . S
H3015 C3027 0.930 . S
H3016 C3029 0.909 1_565 S
H3017 C3030 0.947 . S
H3018 C3034 0.959 . S
H3019 C3034 0.959 . S
H3020 C3034 0.961 . S
H3021 C3035 0.960 . S
H3022 C3035 0.961 . S
H3023 C3035 0.959 . S
H3024 C3038 0.929 . S
H3025 C3039 0.931 . S
H3026 C3041 0.930 . S
C3027 H3015 0.930 . S
C3027 C3028 1.399 . S
C3027 C3032 1.399 . S
C3028 C3027 1.399 . S
C3028 C3029 1.376 . S
C3029 H3016 0.909 1_545 S
C3029 C3028 1.376 . S
C3029 C3030 1.405 1_545 S
C3030 H3017 0.947 . S
C3030 C3029 1.405 1_565 S
C3030 C3031 1.359 1_565 S
C3031 C3030 1.359 1_545 S
C3031 C3032 1.394 . S
C3031 C3037 1.465 . S
C3032 C3027 1.399 . S
C3032 C3031 1.394 . S
C3032 C3033 1.516 . S
C3033 C3032 1.516 . S
C3033 C3034 1.502 . S
C3033 C3035 1.561 . S
C3033 C3036 1.526 . S
C3034 H3018 0.959 . S
C3034 H3019 0.959 . S
C3034 H3020 0.961 . S
C3034 C3033 1.502 . S
C3035 H3021 0.960 . S
C3035 H3022 0.961 . S
C3035 H3023 0.959 . S
C3035 C3033 1.561 . S
C3036 C3033 1.526 . S
C3036 C3037 1.396 . S
C3036 C3041 1.390 . S
C3037 C3031 1.465 . S
C3037 C3036 1.396 . S
C3037 C3038 1.399 1_545 S
C3038 H3024 0.929 . S
C3038 C3037 1.399 1_565 S
C3038 C3039 1.385 . S
C3039 H3025 0.931 . S
C3039 C3038 1.385 . S
C3039 C3040 1.389 1_565 S
C3040 C3039 1.389 1_545 S
C3040 C3041 1.387 . S
C3041 H3026 0.930 . S
C3041 C3036 1.390 . S
C3041 C3040 1.387 . S
C1111 C8 1.381 . S
C1123 C711 1.462 . S
C1138 C18 1.493 . S
C1150 C759 1.540 . S
C1177 C807 1.526 . S
C1165 C31 1.411 . S
C1192 C34 1.408 1_565 S
C1204 C831 1.509 . S
C1219 C5 1.433 . S
C1231 C903 1.490 . S
C1246 C21 1.482 . S
C1258 C951 1.538 . S
C1273 C47 1.448 . S
C1285 C879 1.486 . S
C1312 C927 1.540 . S
C1300 C57 1.505 . S
C1339 C855 1.536 . S
C1327 C70 1.501 . S
C1354 C73 1.446 . S
C1366 C783 1.477 . S
C1393 C687 1.528 . S
C1381 C44 1.426 . S
C1408 C60 1.493 . S
C1420 C735 1.549 . S
C1435 C86 1.587 . S
C1447 C999 1.623 . S
C1462 C96 1.527 . S
C1474 C1047 1.553 . S
C1501 C1071 1.626 . S
C1489 C109 1.612 . S
C1516 C112 1.551 . S
C1528 C255 1.600 . S
C1543 C83 1.618 . S
C1555 C327 1.628 . S
C1570 C99 1.530 . S
C1582 C375 1.583 . S
C1597 C125 1.465 . S
C1609 C303 1.536 . S
C1624 C135 1.571 . S
C1636 C351 1.583 . S
C1663 C279 1.622 . S
C1651 C148 1.616 . S
C1690 C1095 1.615 . S
C1678 C151 1.614 . S
C1717 C975 1.607 . S
C1705 C122 1.572 . S
C1744 C1023 1.629 . S
C1732 C138 1.594 . S
C1759 C164 1.485 . S
C1771 C423 1.539 . S
C1786 C174 1.558 . S
C1798 C471 1.570 . S
C1813 C187 1.577 . S
C1825 C495 1.599 . S
C1840 C190 1.655 . S
C1852 C543 1.651 . S
C1879 C615 1.604 . S
C1867 C161 1.583 . S
C1906 C663 1.601 . S
C1894 C177 1.551 . S
C1933 C591 1.615 . S
C1921 C203 1.543 . S
C1960 C639 1.587 . S
C1948 C213 1.581 . S
C1975 C226 1.616 . S
C1987 C567 1.600 . S
C2014 C519 1.609 . S
C2002 C229 1.595 . S
C2029 C200 1.559 . S
C2041 C399 1.614 . S
C2068 C447 1.603 . S
C2056 C216 1.578 . S
C2095 C264 1.485 . S
C2083 C0 1.403 . S
C2110 C23 1.401 . S
C2122 C318 1.411 . S
C2149 C366 1.428 . S
C2137 C36 1.492 . S
C2176 C414 1.474 . S
C2164 C26 1.443 . S
C2203 C462 1.393 . S
C2191 C10 1.485 . S
C2230 C504 1.436 . S
C2218 C13 1.371 . S
C2245 C39 1.442 . S
C2257 C510 1.499 . S
C2272 C62 1.409 . S
C2284 C408 1.326 . S
C2299 C75 1.448 . S
C2311 C456 1.422 . S
C2326 C65 1.427 . S
C2338 C312 1.516 . S
C2365 C360 1.408 . S
C2353 C49 1.458 . S
C2380 C52 1.408 . S
C2392 C270 1.398 . S
C2419 C552 1.438 . S
C2407 C78 1.429 . S
C2434 C101 1.508 . S
C2446 C606 1.445 . S
C2461 C114 1.515 . S
C2473 C654 1.467 . S
C2500 C702 1.312 . S
C2488 C104 1.291 . S
C2515 C88 1.418 . S
C2527 C750 1.358 . S
C2542 C91 1.231 . S
C2554 C798 1.223 . S
C2569 C117 1.222 . S
C2581 C792 1.269 . S
C2596 C140 1.241 . S
C2608 C696 1.249 . S
C2635 C744 1.416 . S
C2623 C153 1.429 . S
C2650 C143 1.460 . S
C2662 C600 1.403 . S
C2677 C127 1.521 . S
C2689 C648 1.468 . S
C2716 C558 1.529 . S
C2704 C130 1.446 . S
C2743 C840 1.284 . S
C2731 C156 1.282 . S
C2758 C179 1.234 . S
C2770 C894 1.238 . S
C2785 C192 1.432 . S
C2797 C942 1.382 . S
C2824 C990 1.416 . S
C2812 C182 1.419 . S
C2851 C1038 1.451 . S
C2839 C166 1.518 . S
C2866 C169 1.438 . S
C2878 C1080 1.534 . S
C2893 C195 1.402 . S
C2905 C1086 1.471 . S
C2920 C218 1.492 . S
C2932 C984 1.449 . S
C2959 C1032 1.463 . S
C2947 C231 1.482 . S
C2986 C888 1.259 . S
C2974 C221 1.287 . S
C3013 C936 1.379 . S
C3001 C205 1.412 . S
C3028 C208 1.215 . S
C3040 C846 1.263 . S
