# Generated by pormake.
# Topology tsx, (6,3)-cn, num edge types: 1
# Building blocks:
#     Node 0, Type 0, BuildingBlock: LEVNOQ01_clean_sbu_1, # of connection points: 6
#     Node 1, Type 0, BuildingBlock: LEVNOQ01_clean_sbu_1, # of connection points: 6
#     Node 2, Type 1, BuildingBlock: BELTOD_clean_linker_0, # of connection points: 3
#     Node 3, Type 1, BuildingBlock: BELTOD_clean_linker_0, # of connection points: 3
#     Node 4, Type 1, BuildingBlock: BELTOD_clean_linker_0, # of connection points: 3
#     Node 5, Type 1, BuildingBlock: BELTOD_clean_linker_0, # of connection points: 3
#     Edge 6, Type (0, 1), BuildingBlock: TEMPAE_clean_linker_10, # of connection points: 2
#     Edge 7, Type (0, 1), BuildingBlock: TEMPAE_clean_linker_10, # of connection points: 2
#     Edge 8, Type (0, 1), BuildingBlock: TEMPAE_clean_linker_10, # of connection points: 2
#     Edge 9, Type (0, 1), BuildingBlock: TEMPAE_clean_linker_10, # of connection points: 2
#     Edge 10, Type (0, 1), BuildingBlock: TEMPAE_clean_linker_10, # of connection points: 2
#     Edge 11, Type (0, 1), BuildingBlock: TEMPAE_clean_linker_10, # of connection points: 2
#     Edge 12, Type (0, 1), BuildingBlock: TEMPAE_clean_linker_10, # of connection points: 2
#     Edge 13, Type (0, 1), BuildingBlock: TEMPAE_clean_linker_10, # of connection points: 2
#     Edge 14, Type (0, 1), BuildingBlock: TEMPAE_clean_linker_10, # of connection points: 2
#     Edge 15, Type (0, 1), BuildingBlock: TEMPAE_clean_linker_10, # of connection points: 2
#     Edge 16, Type (0, 1), BuildingBlock: TEMPAE_clean_linker_10, # of connection points: 2
#     Edge 17, Type (0, 1), BuildingBlock: TEMPAE_clean_linker_10, # of connection points: 2
# Relax obj value: 0.118
# Max RMSD: 0.151
# Mean RMSD: 0.110
data_MOF--net-tsx--node1-LEVNOQ01_clean_sbu_1--node2-BELTOD_clean_linker_0--edge1-TEMPAE_clean_linker_10
_symmetry_space_group_name_H-M    P1
_symmetry_Int_Tables_number       1
_symmetry_cell_setting            triclinic
loop_
_symmetry_equiv_pos_as_xyz
'x, y, z'
_cell_length_a     21.360887
_cell_length_b     26.0769
_cell_length_c     41.680708
_cell_angle_alpha  98.286467
_cell_angle_beta   90.865386
_cell_angle_gamma 90.300743
loop_
_atom_site_label
_atom_site_type_symbol
_atom_site_fract_x
_atom_site_fract_y
_atom_site_fract_z
_atom_type_partial_charge
O0 O 0.14216 -0.01153 0.06957 0.0
Mg1 Mg 0.17252 0.0134 0.02651 0.0
O2 O 0.04258 -0.00371 0.05666 0.0
Mg3 Mg 0.0488 0.0108 0.00281 0.0
O4 O 0.12724 0.07561 0.01269 0.0
O5 O 0.22412 0.07867 0.03488 0.0
O6 O 0.06261 0.03208 0.94949 0.0
O7 O 0.98131 0.07931 0.01441 0.0
Mg8 Mg 0.96836 -0.01229 0.95828 0.0
O9 O 0.96406 0.94977 -0.00257 0.0
O10 O 0.03007 0.96098 0.92049 0.0
O11 O 0.93971 0.06672 0.9652 0.0
O12 O 0.89131 0.9436 0.95708 0.0
C13 C 0.16763 0.92453 0.98323 0.0
C14 C 0.08494 -0.01318 0.07685 0.0
C15 C 0.1785 0.10119 0.02197 0.0
C16 C 0.05925 0.00334 0.92213 0.0
C17 C 0.94664 0.09442 0.99259 0.0
C18 C 0.91185 0.93076 0.98402 0.0
O19 O 0.20911 0.95899 0.99018 0.0
O20 O 0.11054 0.93557 0.98942 0.0
O21 O 0.62359 0.53195 0.58227 0.0
Mg22 Mg 0.67321 0.53772 0.54046 0.0
O23 O 0.53858 0.4992 0.55537 0.0
Mg24 Mg 0.54754 0.5143 0.50091 0.0
O25 O 0.62455 0.57739 0.51042 0.0
O26 O 0.71521 0.60581 0.53432 0.0
O27 O 0.56349 0.5382 0.44756 0.0
O28 O 0.47799 0.58077 0.51238 0.0
Mg29 Mg 0.47397 0.49063 0.45731 0.0
O30 O 0.46458 0.4485 0.49392 0.0
O31 O 0.53481 0.46613 0.41869 0.0
O32 O 0.43164 0.56499 0.46455 0.0
O33 O 0.40131 0.44279 0.4498 0.0
C34 C 0.67331 0.4338 0.4993 0.0
C35 C 0.57044 0.51011 0.58175 0.0
C36 C 0.66795 0.61277 0.51582 0.0
C37 C 0.56171 0.5093 0.42021 0.0
C38 C 0.4382 0.59284 0.4919 0.0
C39 C 0.41608 0.4282 0.47711 0.0
O40 O 0.70613 0.46728 0.51725 0.0
O41 O 0.61757 0.44407 0.49055 0.0
P42 P 0.10452 0.03393 0.42196 0.0
H43 H 0.08393 0.11799 0.47459 0.0
H44 H 0.98953 0.16683 0.49135 0.0
H45 H 0.87684 0.05532 0.42888 0.0
H46 H 0.97113 0.00616 0.41215 0.0
H47 H 0.22976 -0.00567 0.42542 0.0
H48 H 0.27305 0.91907 0.44633 0.0
H49 H 0.08884 0.87768 0.47577 0.0
H50 H 0.04518 0.95345 0.45443 0.0
H51 H 0.12294 0.08996 0.36741 0.0
H52 H 0.05005 0.9411 0.38274 0.0
O53 O 0.15932 0.08045 0.42701 0.0
H54 H 0.09683 0.0705 0.31004 0.0
H55 H 0.02 0.92221 0.3253 0.0
C56 C 0.03463 0.05957 0.44132 0.0
C57 C 0.03882 0.1031 0.46522 0.0
C58 C 0.98502 0.13072 0.47497 0.0
C59 C 0.92659 0.11461 0.46119 0.0
C60 C 0.92161 0.06805 0.43986 0.0
C61 C 0.97554 0.04039 0.43008 0.0
C62 C 0.13462 0.97976 0.43895 0.0
C63 C 0.19869 0.96944 0.43664 0.0
C64 C 0.22331 0.92651 0.4485 0.0
C65 C 0.18412 0.89312 0.46273 0.0
C66 C 0.11984 0.90348 0.46523 0.0
C67 C 0.09504 0.94651 0.45306 0.0
C68 C 0.0891 0.01677 0.37923 0.0
C69 C 0.10127 0.05296 0.35837 0.0
C70 C 0.08525 0.04202 0.32556 0.0
C71 C 0.0551 -0.00492 0.31297 0.0
C72 C 0.0434 0.95859 0.33402 0.0
C73 C 0.06049 0.96934 0.36688 0.0
P74 P 0.05436 0.00587 0.58141 0.0
H75 H 0.03617 0.95391 0.51599 0.0
H76 H 0.94586 0.90672 0.48909 0.0
H77 H 0.82946 0.96921 0.56876 0.0
H78 H 0.91979 0.01643 0.59554 0.0
H79 H 0.1856 0.0299 0.57462 0.0
H80 H 0.23974 0.10272 0.55648 0.0
H81 H 0.06192 0.17437 0.54118 0.0
H82 H 0.00754 0.10049 0.55912 0.0
H83 H 0.05088 0.93935 0.63137 0.0
H84 H 0.0215 0.10109 0.62504 0.0
O85 O 0.10277 0.95541 0.57569 0.0
H86 H 0.03643 0.95608 0.6897 0.0
H87 H 0.00539 0.11816 0.68374 0.0
C88 C 0.98477 -0.01271 0.55796 0.0
C89 C 0.99065 0.95913 0.52694 0.0
C90 C 0.93907 0.93267 0.51151 0.0
C91 C 0.88108 0.93473 0.52695 0.0
C92 C 0.87373 0.96776 0.55633 0.0
C93 C 0.92547 -0.00584 0.57178 0.0
C94 C 0.09271 0.05957 0.5676 0.0
C95 C 0.15814 0.06095 0.56704 0.0
C96 C 0.18902 0.10251 0.55663 0.0
C97 C 0.1549 0.14376 0.54703 0.0
C98 C 0.0892 0.14291 0.54836 0.0
C99 C 0.05821 0.1008 0.55844 0.0
C100 C 0.0389 0.01916 0.62406 0.0
C101 C 0.0409 0.97849 0.64256 0.0
C102 C 0.03187 -0.01193 0.67591 0.0
C103 C 0.01983 0.03854 0.69142 0.0
C104 C 0.01544 0.07903 0.67256 0.0
C105 C 0.02464 0.06932 0.63904 0.0
P106 P 0.59715 0.53143 0.92495 0.0
H107 H 0.58121 0.62434 0.97147 0.0
H108 H 0.48848 0.67126 0.99096 0.0
H109 H 0.37293 0.54129 0.94889 0.0
H110 H 0.46669 0.49631 0.92726 0.0
H111 H 0.72214 0.50995 0.94799 0.0
H112 H 0.76627 0.43746 0.97107 0.0
H113 H 0.58561 0.36088 0.96275 0.0
H114 H 0.54175 0.43356 0.93871 0.0
H115 H 0.52318 0.58854 0.88375 0.0
H116 H 0.62238 0.44359 0.87357 0.0
O117 O 0.65223 0.57752 0.92698 0.0
H118 H 0.49701 0.57449 0.82603 0.0
H119 H 0.59708 0.42962 0.8153 0.0
C120 C 0.53074 0.5575 0.94746 0.0
C121 C 0.53611 0.6056 0.96696 0.0
C122 C 0.48271 0.6321 0.9785 0.0
C123 C 0.4228 0.61036 0.97127 0.0
C124 C 0.41818 0.55965 0.95437 0.0
C125 C 0.47182 0.53359 0.94231 0.0
C126 C 0.62853 0.47732 0.94186 0.0
C127 C 0.69174 0.47782 0.95123 0.0
C128 C 0.71685 0.43651 0.96476 0.0
C129 C 0.67917 0.39385 0.9692 0.0
C130 C 0.61571 0.3933 0.95965 0.0
C131 C 0.5906 0.43481 0.94599 0.0
C132 C 0.57371 0.51669 0.88303 0.0
C133 C 0.53854 0.55324 0.86914 0.0
C134 C 0.52394 0.54535 0.83609 0.0
C135 C 0.54491 0.50094 0.81614 0.0
C136 C 0.57946 0.46382 0.8302 0.0
C137 C 0.59412 0.47183 0.86344 0.0
P138 P 0.55524 0.50642 0.07597 0.0
H139 H 0.52832 0.47353 0.00748 0.0
H140 H 0.43912 0.42645 0.97924 0.0
H141 H 0.33878 0.44308 0.06944 0.0
H142 H 0.42686 0.49038 0.09699 0.0
H143 H 0.68246 0.5352 0.06192 0.0
H144 H 0.7281 0.6153 0.04822 0.0
H145 H 0.54412 0.68204 0.04582 0.0
H146 H 0.49777 0.60089 0.05878 0.0
H147 H 0.54959 0.4391 0.12568 0.0
H148 H 0.53424 0.60288 0.12149 0.0
O149 O 0.60678 0.45835 0.06895 0.0
H150 H 0.53813 0.45548 0.18445 0.0
H151 H 0.52205 0.61948 0.18023 0.0
C152 C 0.48447 0.48464 0.05434 0.0
C153 C 0.48628 0.46815 0.02084 0.0
C154 C 0.43538 0.44126 0.00478 0.0
C155 C 0.38195 0.4306 0.02212 0.0
C156 C 0.37871 0.45108 0.0552 0.0
C157 C 0.42957 0.47779 0.07116 0.0
C158 C 0.58681 0.56221 0.06119 0.0
C159 C 0.65166 0.56655 0.05785 0.0
C160 C 0.67773 0.61223 0.05021 0.0
C161 C 0.6393 0.65424 0.04617 0.0
C162 C 0.57422 0.64967 0.0487 0.0
C163 C 0.54797 0.60357 0.05602 0.0
C164 C 0.54408 0.51972 0.1192 0.0
C165 C 0.54356 0.47858 0.13739 0.0
C166 C 0.53637 0.488 0.17097 0.0
C167 C 0.52925 0.53886 0.18706 0.0
C168 C 0.52818 0.57996 0.16861 0.0
C169 C 0.53514 0.57042 0.13494 0.0
C170 C 0.22206 0.18798 0.04182 0.0
C171 C 0.18623 0.15626 0.01846 0.0
C172 C 0.24086 0.23759 0.03688 0.0
C173 C 0.22405 0.25582 0.00753 0.0
C174 C 0.18398 0.22543 0.98479 0.0
C175 C 0.16514 0.17577 0.99063 0.0
C176 C 0.28238 0.26896 0.06223 0.0
C177 C 0.16451 0.2436 0.95341 0.0
C178 C 0.27181 0.39609 0.01648 0.0
C179 C 0.33508 0.39099 0.00805 0.0
C180 C 0.23149 0.35286 0.01251 0.0
C181 C 0.25526 0.30364 -0.0001 0.0
C182 C 0.31648 0.29984 0.98721 0.0
C183 C 0.35576 0.3436 0.99149 0.0
C184 C 0.16595 0.35893 0.02539 0.0
C185 C 0.34346 0.24828 0.97302 0.0
H186 H 0.23751 0.17312 0.0636 0.0
H187 H 0.13734 0.15114 0.97255 0.0
H188 H 0.32987 0.27281 0.05237 0.0
H189 H 0.26349 0.30857 0.06875 0.0
H190 H 0.2869 0.25086 0.0847 0.0
H191 H 0.12225 0.22247 0.94252 0.0
H192 H 0.15496 0.28579 0.95703 0.0
H193 H 0.20314 0.23645 0.93586 0.0
H194 H 0.25509 0.43301 0.02851 0.0
H195 H 0.40446 0.33916 0.98476 0.0
H196 H 0.16515 0.34788 0.05012 0.0
H197 H 0.13254 0.3332 0.00994 0.0
H198 H 0.14978 0.39962 0.02691 0.0
H199 H 0.35591 0.22602 0.99297 0.0
H200 H 0.38636 0.25306 0.95896 0.0
H201 H 0.30868 0.22506 0.95697 0.0
C202 C 0.15672 0.831 0.989 0.0
C203 C 0.18796 0.87021 0.97564 0.0
C204 C 0.1842 0.78214 0.98909 0.0
C205 C 0.24372 0.77238 0.9751 0.0
C206 C 0.27313 0.81069 0.95951 0.0
C207 C 0.24504 0.85923 0.96016 0.0
C208 C 0.15154 0.7425 0.00611 0.0
C209 C 0.33619 0.80156 0.94381 0.0
C210 C 0.36447 0.68296 0.00363 0.0
C211 C 0.36663 0.64382 0.97678 0.0
C212 C 0.32125 0.72343 0.00462 0.0
C213 C 0.27816 0.724 0.97851 0.0
C214 C 0.27535 0.68155 0.95326 0.0
C215 C 0.31999 0.64216 0.95251 0.0
C216 C 0.32556 0.76782 0.03217 0.0
C217 C 0.22878 0.67999 0.92554 0.0
H218 H 0.11294 0.8396 0.00141 0.0
H219 H 0.26916 0.88952 0.94981 0.0
H220 H 0.15466 0.70322 0.99192 0.0
H221 H 0.17482 0.74118 0.02995 0.0
H222 H 0.10144 0.75205 0.01036 0.0
H223 H 0.35092 0.83419 0.93113 0.0
H224 H 0.37219 0.79646 0.96255 0.0
H225 H 0.33497 0.76552 0.92605 0.0
H226 H 0.39913 0.68373 0.02297 0.0
H227 H 0.321 0.61228 0.93158 0.0
H228 H 0.27844 0.77796 0.04183 0.0
H229 H 0.34486 0.80254 0.0231 0.0
H230 H 0.35629 0.75871 0.05231 0.0
H231 H 0.18139 0.69039 0.93477 0.0
H232 H 0.22639 0.64118 0.91052 0.0
H233 H 0.24252 0.70888 0.90978 0.0
C234 C 0.81133 0.91174 0.00809 0.0
C235 C 0.87269 0.89676 0.00035 0.0
C236 C 0.7695 0.87746 0.01964 0.0
C237 C 0.78933 0.82661 0.02236 0.0
C238 C 0.85224 0.81205 0.01571 0.0
C239 C 0.89365 0.84777 0.00509 0.0
C240 C 0.7035 0.89491 0.0275 0.0
C241 C 0.8747 0.75784 0.01792 0.0
C242 C 0.69846 0.73436 0.06671 0.0
C243 C 0.66853 0.70322 0.04079 0.0
C244 C 0.73545 0.77675 0.06136 0.0
C245 C 0.74326 0.78717 0.02927 0.0
C246 C 0.71042 0.75717 0.00324 0.0
C247 C 0.6732 0.71541 0.00938 0.0
C248 C 0.76858 0.80861 0.08978 0.0
C249 C 0.71736 0.76731 0.96869 0.0
H250 H 0.79574 0.95002 0.00442 0.0
H251 H 0.94119 0.83649 -0.00123 0.0
H252 H 0.67046 0.87463 0.00908 0.0
H253 H 0.68988 0.88473 0.0514 0.0
H254 H 0.69801 0.93735 0.02794 0.0
H255 H 0.92595 0.75388 0.01422 0.0
H256 H 0.8634 0.74676 0.04189 0.0
H257 H 0.8501 0.72999 -0.00079 0.0
H258 H 0.69459 0.7244 0.09099 0.0
H259 H 0.6503 0.69086 0.98945 0.0
H260 H 0.76358 0.85061 0.08852 0.0
H261 H 0.81933 0.79979 0.089 0.0
H262 H 0.75034 0.8004 0.11335 0.0
H263 H 0.70696 0.80841 0.96684 0.0
H264 H 0.68591 0.74226 0.95155 0.0
H265 H 0.76646 0.76015 0.96102 0.0
C266 C 0.86315 0.14806 0.02094 0.0
C267 C 0.91189 0.14288 -0.00131 0.0
C268 C 0.82079 0.18924 0.02182 0.0
C269 C 0.82856 0.22604 0.00027 0.0
C270 C 0.88028 0.22236 0.97918 0.0
C271 C 0.92081 0.18026 0.97832 0.0
C272 C 0.76563 0.19123 0.04415 0.0
C273 C 0.89102 0.26139 0.95629 0.0
C274 C 0.69713 0.29863 0.9658 0.0
C275 C 0.70794 0.34902 0.98178 0.0
C276 C 0.73297 0.25706 0.9735 0.0
C277 C 0.78078 0.26635 -0.0024 0.0
C278 C 0.78825 0.3163 0.01563 0.0
C279 C 0.75158 0.35709 0.00753 0.0
C280 C 0.72294 0.20406 0.95408 0.0
C281 C 0.83809 0.32748 0.0418 0.0
H282 H 0.85589 0.11821 0.03616 0.0
H283 H 0.95844 0.17555 0.96096 0.0
H284 H 0.75737 0.23138 0.05612 0.0
H285 H 0.72286 0.17822 0.02975 0.0
H286 H 0.77225 0.16573 0.06309 0.0
H287 H 0.93627 0.25534 0.94354 0.0
H288 H 0.85267 0.2584 0.93785 0.0
H289 H 0.89052 0.30134 0.96973 0.0
H290 H 0.66348 0.29219 0.94587 0.0
H291 H 0.75898 0.39588 0.02041 0.0
H292 H 0.72169 0.17393 0.97033 0.0
H293 H 0.76258 0.19497 0.93735 0.0
H294 H 0.67882 0.20171 0.93947 0.0
H295 H 0.83643 0.29815 0.05858 0.0
H296 H 0.83298 0.36661 0.05605 0.0
H297 H 0.88496 0.32512 0.03057 0.0
C298 C 0.64098 0.70483 0.52227 0.0
C299 C 0.66514 0.66174 0.50261 0.0
C300 C 0.66363 0.75481 0.52015 0.0
C301 C 0.71112 0.76128 0.49767 0.0
C302 C 0.72851 0.71864 0.47459 0.0
C303 C 0.70574 0.66901 0.47761 0.0
C304 C 0.6439 0.79897 0.54535 0.0
C305 C 0.77811 0.72394 0.44986 0.0
C306 C 0.78504 0.89492 0.49755 0.0
C307 C 0.83649 0.89172 0.51832 0.0
C308 C 0.74334 0.85263 0.49023 0.0
C309 C 0.75386 0.80691 0.50423 0.0
C310 C 0.80618 0.80412 0.52524 0.0
C311 C 0.84679 0.84652 0.53188 0.0
C312 C 0.68851 0.85663 0.46755 0.0
C313 C 0.81946 0.75639 0.5409 0.0
H314 H 0.61028 0.69888 0.54193 0.0
H315 H 0.72501 0.63542 0.46271 0.0
H316 H 0.67975 0.80486 0.56512 0.0
H317 H 0.64022 0.83561 0.53488 0.0
H318 H 0.59829 0.79076 0.55611 0.0
H319 H 0.7759 0.69134 0.42952 0.0
H320 H 0.77324 0.76102 0.43996 0.0
H321 H 0.82506 0.72386 0.46164 0.0
H322 H 0.77761 0.93021 0.48714 0.0
H323 H 0.8869 0.84459 0.54795 0.0
H324 H 0.64411 0.84937 0.47966 0.0
H325 H 0.6921 0.82648 0.44599 0.0
H326 H 0.68607 0.89524 0.45931 0.0
H327 H 0.77878 0.74722 0.55536 0.0
H328 H 0.86149 0.76126 0.55712 0.0
H329 H 0.82705 0.7226 0.52197 0.0
C330 C 0.67119 0.34213 0.46956 0.0
C331 C 0.69908 0.38074 0.49228 0.0
C332 C 0.69727 0.29217 0.4636 0.0
C333 C 0.75183 0.28085 0.48099 0.0
C334 C 0.77803 0.31893 0.50505 0.0
C335 C 0.75163 0.3682 0.51024 0.0
C336 C 0.66787 0.25205 0.43805 0.0
C337 C 0.83603 0.3086 0.52434 0.0
C338 C 0.82515 0.14946 0.48416 0.0
C339 C 0.87527 0.15209 0.46327 0.0
C340 C 0.78076 0.18945 0.48842 0.0
C341 C 0.7875 0.2325 0.47141 0.0
C342 C 0.83627 0.23324 0.44886 0.0
C343 C 0.87959 0.19299 0.44514 0.0
C344 C 0.72936 0.18728 0.51262 0.0
C345 C 0.84573 0.2785 0.43049 0.0
H346 H 0.62992 0.35118 0.45607 0.0
H347 H 0.77279 0.39714 0.52852 0.0
H348 H 0.70029 0.24312 0.41749 0.0
H349 H 0.65969 0.21546 0.44808 0.0
H350 H 0.62273 0.26531 0.42865 0.0
H351 H 0.84678 0.34066 0.54428 0.0
H352 H 0.83041 0.27228 0.53498 0.0
H353 H 0.87686 0.30361 0.50806 0.0
H354 H 0.82219 0.11742 0.49802 0.0
H355 H 0.91856 0.19439 0.42887 0.0
H356 H 0.68397 0.19874 0.5026 0.0
H357 H 0.74007 0.2151 0.53478 0.0
H358 H 0.72433 0.148 0.51969 0.0
H359 H 0.80123 0.28814 0.41876 0.0
H360 H 0.88191 0.2706 0.41157 0.0
H361 H 0.86064 0.31314 0.44763 0.0
C362 C 0.32077 0.37234 0.47142 0.0
C363 C 0.37585 0.38883 0.48886 0.0
C364 C 0.28178 0.33453 0.48122 0.0
C365 C 0.29815 0.31257 0.5092 0.0
C366 C 0.35287 0.32964 0.52737 0.0
C367 C 0.39121 0.36777 0.51698 0.0
C368 C 0.22351 0.31764 0.46136 0.0
C369 C 0.37152 0.30682 0.55736 0.0
C370 C 0.17368 0.23873 0.54811 0.0
C371 C 0.18858 0.18741 0.53592 0.0
C372 C 0.20879 0.28012 0.5395 0.0
C373 C 0.25974 0.26963 0.51829 0.0
C374 C 0.27372 0.21794 0.5052 0.0
C375 C 0.23785 0.17744 0.51415 0.0
C376 C 0.19213 0.33491 0.55351 0.0
C377 C 0.32678 0.20538 0.48187 0.0
H378 H 0.30795 0.38881 0.44983 0.0
H379 H 0.43344 0.38057 0.53063 0.0
H380 H 0.22502 0.27541 0.45267 0.0
H381 H 0.18147 0.3248 0.47661 0.0
H382 H 0.21791 0.33836 0.44 0.0
H383 H 0.41369 0.3261 0.56967 0.0
H384 H 0.33244 0.31022 0.57475 0.0
H385 H 0.38138 0.26492 0.55073 0.0
H386 H 0.13571 0.24641 0.56505 0.0
H387 H 0.24853 0.13775 0.50423 0.0
H388 H 0.18429 0.3586 0.53377 0.0
H389 H 0.23162 0.35299 0.56876 0.0
H390 H 0.14947 0.33653 0.56853 0.0
H391 H 0.31885 0.22424 0.45995 0.0
H392 H 0.33179 0.16303 0.47418 0.0
H393 H 0.37152 0.22091 0.4933 0.0
C394 C 0.3315 0.62797 0.49654 0.0
C395 C 0.39603 0.63649 0.50029 0.0
C396 C 0.29009 0.66959 0.49856 0.0
C397 C 0.31448 0.72069 0.50327 0.0
C398 C 0.37926 0.72935 0.5101 0.0
C399 C 0.41954 0.68677 0.50879 0.0
C400 C 0.22129 0.6585 0.49207 0.0
C401 C 0.40695 0.78333 0.51532 0.0
C402 C 0.24425 0.81224 0.45067 0.0
C403 C 0.21098 0.84623 0.4731 0.0
C404 C 0.27667 0.77054 0.46025 0.0
C405 C 0.2761 0.76293 0.49322 0.0
C406 C 0.24046 0.79599 0.51584 0.0
C407 C 0.20784 0.83744 0.50541 0.0
C408 C 0.31304 0.73552 0.43517 0.0
C409 C 0.23826 0.78846 0.55102 0.0
H410 H 0.31366 0.58867 0.49056 0.0
H411 H 0.46966 0.69292 0.5119 0.0
H412 H 0.19184 0.688 0.50643 0.0
H413 H 0.21071 0.65944 0.46602 0.0
H414 H 0.20806 0.61957 0.49775 0.0
H415 H 0.45529 0.78399 0.52561 0.0
H416 H 0.40855 0.79834 0.49173 0.0
H417 H 0.37745 0.81 0.53174 0.0
H418 H 0.24581 0.81902 0.42562 0.0
H419 H 0.18194 0.86404 0.52264 0.0
H420 H 0.29758 0.6947 0.43452 0.0
H421 H 0.36364 0.73754 0.44169 0.0
H422 H 0.30711 0.74616 0.41044 0.0
H423 H 0.22359 0.74822 0.5531 0.0
H424 H 0.20558 0.81578 0.56507 0.0
H425 H 0.2857 0.79435 0.56218 0.0
C426 C 0.00739 0.96639 0.11832 0.0
C427 C 0.06896 0.97714 0.10991 0.0
C428 C -0.00718 0.96057 0.15045 0.0
C429 C 0.04067 0.9673 0.17466 0.0
C430 C 0.1031 0.97642 0.16594 0.0
C431 C 0.11646 0.98057 0.13372 0.0
C432 C 0.92602 0.94903 0.15842 0.0
C433 C 0.15567 -0.0156 0.19093 0.0
C434 C 0.01819 0.02544 0.2616 0.0
C435 C 0.03764 -0.0154 0.27787 0.0
C436 C 0.01335 0.01911 0.22773 0.0
C437 C 0.02631 0.97026 0.20965 0.0
C438 C 0.0382 0.92731 0.22603 0.0
C439 C 0.04474 0.93509 0.25999 0.0
C440 C 0.00011 0.06593 0.21126 0.0
C441 C 0.04858 0.87399 0.20753 0.0
H442 H 0.97054 0.96298 0.09994 0.0
H443 H 0.16425 -0.01139 0.12749 0.0
H444 H 0.9236 0.9255 0.17854 0.0
H445 H 0.90129 -0.01402 0.166 0.0
H446 H 0.90063 0.92814 0.13692 0.0
H447 H 0.20159 -0.00878 0.18004 0.0
H448 H 0.14537 0.01819 0.20945 0.0
H449 H 0.15987 0.94998 0.20361 0.0
H450 H 0.00971 0.06328 0.27528 0.0
H451 H 0.05893 0.90296 0.2722 0.0
H452 H 0.96217 0.05713 0.19283 0.0
H453 H 0.0426 0.07626 0.1985 0.0
H454 H 0.98633 0.10014 0.22872 0.0
H455 H 0.01352 0.86541 0.18752 0.0
H456 H 0.04566 0.84345 0.22349 0.0
H457 H 0.09561 0.87231 0.19651 0.0
C458 C 0.0166 0.06215 0.88616 0.0
C459 C 0.06296 0.02686 0.89232 0.0
C460 C 0.0073 0.07504 0.85493 0.0
C461 C 0.04646 0.05292 0.82963 0.0
C462 C 0.09717 0.02114 0.83662 0.0
C463 C 0.10396 0.00747 0.86784 0.0
C464 C 0.9519 0.10812 0.84864 0.0
C465 C 0.14129 -0.00168 0.81049 0.0
C466 C 0.98604 0.01275 0.74404 0.0
C467 C 0.01621 0.04855 0.72734 0.0
C468 C -0.00762 0.01579 0.77774 0.0
C469 C 0.02941 0.05588 0.79524 0.0
C470 C 0.05523 0.09486 0.77897 0.0
C471 C 0.04851 0.09065 0.7451 0.0
C472 C 0.96271 0.97409 0.79431 0.0
C473 C 0.0931 0.13915 0.79704 0.0
H474 H 0.98433 0.07647 0.90515 0.0
H475 H 0.13949 0.97997 0.87275 0.0
H476 H 0.96284 0.13401 0.83055 0.0
H477 H 0.91239 0.08256 0.83873 0.0
H478 H 0.93611 0.13205 0.87127 0.0
H479 H 0.18277 0.98036 0.82066 0.0
H480 H 0.11629 0.96819 0.79342 0.0
H481 H 0.15762 0.02865 0.79637 0.0
H482 H 0.95948 -0.01901 0.73054 0.0
H483 H 0.0717 0.11865 0.7324 0.0
H484 H 0.9361 -0.0083 0.81572 0.0
H485 H -0.00016 0.94969 0.8031 0.0
H486 H 0.93058 0.94861 0.77782 0.0
H487 H 0.06688 0.15819 0.81822 0.0
H488 H 0.10512 0.16871 0.78138 0.0
H489 H 0.13712 0.12407 0.80648 0.0
C490 C 0.59731 0.47255 0.63086 0.0
C491 C 0.55094 0.49244 0.61208 0.0
C492 C 0.58656 0.4657 0.66289 0.0
C493 C 0.52757 0.4788 0.67653 0.0
C494 C 0.47834 0.49386 0.65668 0.0
C495 C 0.49066 0.50067 0.62441 0.0
C496 C 0.64061 0.44957 0.68294 0.0
C497 C 0.41437 0.50677 0.67024 0.0
C498 C 0.51529 0.44828 0.76261 0.0
C499 C 0.53452 0.49559 0.78053 0.0
C500 C 0.50853 0.44286 0.72866 0.0
C501 C 0.52223 0.48556 0.7124 0.0
C502 C 0.53992 0.53375 0.73053 0.0
C503 C 0.54571 0.53815 0.76431 0.0
C504 C 0.4888 0.39115 0.71013 0.0
C505 C 0.55628 0.58004 0.71415 0.0
H506 H 0.64362 0.46511 0.62097 0.0
H507 H 0.45465 0.51563 0.60974 0.0
H508 H 0.65725 0.48349 0.7002 0.0
H509 H 0.62572 0.41925 0.69736 0.0
H510 H 0.68061 0.43458 0.66769 0.0
H511 H 0.37851 0.50709 0.65069 0.0
H512 H 0.39988 0.47861 0.68634 0.0
H513 H 0.41585 0.54574 0.68501 0.0
H514 H 0.50594 0.41546 0.77513 0.0
H515 H 0.56145 0.5746 0.77797 0.0
H516 H 0.52798 0.3742 0.69505 0.0
H517 H 0.44915 0.39625 0.69341 0.0
H518 H 0.47465 0.36319 0.72648 0.0
H519 H 0.59891 0.57162 0.69946 0.0
H520 H 0.56517 0.61555 0.73184 0.0
H521 H 0.51787 0.58801 0.69741 0.0
C522 C 0.52461 0.56891 0.38301 0.0
C523 C 0.56754 0.53127 0.38982 0.0
C524 C 0.51561 0.57976 0.3512 0.0
C525 C 0.55158 0.55309 0.32589 0.0
C526 C 0.59855 0.51815 0.33328 0.0
C527 C 0.60505 0.50685 0.36509 0.0
C528 C 0.46387 0.61615 0.34448 0.0
C529 C 0.63905 0.48997 0.30715 0.0
C530 C 0.49145 0.51555 0.23976 0.0
C531 C 0.52635 0.54863 0.22307 0.0
C532 C 0.49577 0.51916 0.27363 0.0
C533 C 0.53624 0.55661 0.29127 0.0
C534 C 0.56766 0.59281 0.27485 0.0
C535 C 0.5624 0.58837 0.2409 0.0
C536 C 0.45977 0.48084 0.2903 0.0
C537 C 0.60984 0.63416 0.29291 0.0
H538 H 0.4944 0.58676 0.40209 0.0
H539 H 0.63748 0.4772 0.37036 0.0
H540 H 0.47771 0.64032 0.32591 0.0
H541 H 0.42208 0.59309 0.33494 0.0
H542 H 0.45022 0.64197 0.36682 0.0
H543 H 0.67765 0.46857 0.31733 0.0
H544 H 0.60997 0.46186 0.29068 0.0
H545 H 0.65958 0.51775 0.29234 0.0
H546 H 0.46214 0.48568 0.2262 0.0
H547 H 0.58932 0.61427 0.2282 0.0
H548 H 0.43492 0.50117 0.31157 0.0
H549 H 0.49284 0.45329 0.29931 0.0
H550 H 0.42501 0.45829 0.27378 0.0
H551 H 0.58538 0.65524 0.31408 0.0
H552 H 0.62557 0.6626 0.27722 0.0
H553 H 0.65171 0.61581 0.30233 0.0
loop_
_geom_bond_atom_site_label_1
_geom_bond_atom_site_label_2
_geom_bond_distance
_geom_bond_site_symmetry_2
_ccdc_geom_bond_type
O0 Mg1 1.990 . S
O0 C14 1.253 . S
Mg1 O0 1.990 . S
Mg1 O4 2.180 . S
Mg1 O5 2.117 . S
Mg1 O19 2.030 1_545 S
O2 Mg3 2.086 . S
O2 C14 1.260 . S
Mg3 O2 2.086 . S
Mg3 O4 2.100 . S
Mg3 O6 2.065 1_554 S
Mg3 O7 2.072 . S
Mg3 O9 2.097 1_444 S
Mg3 O20 2.079 1_544 S
O4 Mg1 2.180 . S
O4 Mg3 2.100 . S
O4 C15 1.279 . S
O5 Mg1 2.117 . S
O5 C15 1.250 . S
O6 Mg3 2.065 1_556 S
O6 C16 1.264 . S
O7 Mg3 2.072 . S
O7 C17 1.254 1_454 S
Mg8 O9 2.180 1_545 S
Mg8 O10 2.030 . S
Mg8 O11 1.990 . S
Mg8 O12 2.117 1_545 S
O9 Mg3 2.097 1_666 S
O9 Mg8 2.180 1_565 S
O9 C18 1.279 1_556 S
O10 Mg8 2.030 . S
O10 C16 1.248 1_655 S
O11 Mg8 1.990 . S
O11 C17 1.261 . S
O12 Mg8 2.117 1_565 S
O12 C18 1.250 1_556 S
C13 O19 1.248 . S
C13 O20 1.264 1_554 S
C14 O0 1.253 . S
C14 O2 1.260 . S
C15 O4 1.279 . S
C15 O5 1.250 . S
C16 O6 1.264 . S
C16 O10 1.248 1_455 S
C17 O7 1.254 1_656 S
C17 O11 1.261 . S
C18 O9 1.279 1_554 S
C18 O12 1.250 1_554 S
O19 Mg1 2.030 1_565 S
O19 C13 1.248 . S
O20 Mg3 2.079 1_566 S
O20 C13 1.264 1_556 S
O21 Mg22 1.990 . S
O21 C35 1.253 . S
Mg22 O21 1.990 . S
Mg22 O25 2.180 . S
Mg22 O26 2.117 . S
Mg22 O40 2.030 . S
O23 Mg24 2.072 . S
O23 C35 1.260 . S
Mg24 O23 2.072 . S
Mg24 O25 2.099 . S
Mg24 O27 2.079 . S
Mg24 O28 2.072 . S
Mg24 O30 2.099 . S
Mg24 O41 2.079 . S
O25 Mg22 2.180 . S
O25 Mg24 2.099 . S
O25 C36 1.279 . S
O26 Mg22 2.117 . S
O26 C36 1.250 . S
O27 Mg24 2.079 . S
O27 C37 1.264 . S
O28 Mg24 2.072 . S
O28 C38 1.260 . S
Mg29 O30 2.180 . S
Mg29 O31 2.030 . S
Mg29 O32 1.990 . S
Mg29 O33 2.117 . S
O30 Mg24 2.099 . S
O30 Mg29 2.180 . S
O30 C39 1.279 . S
O31 Mg29 2.030 . S
O31 C37 1.248 . S
O32 Mg29 1.990 . S
O32 C38 1.253 . S
O33 Mg29 2.117 . S
O33 C39 1.250 . S
C34 O40 1.248 . S
C34 O41 1.264 . S
C35 O21 1.253 . S
C35 O23 1.260 . S
C36 O25 1.279 . S
C36 O26 1.250 . S
C37 O27 1.264 . S
C37 O31 1.248 . S
C38 O28 1.260 . S
C38 O32 1.253 . S
C39 O30 1.279 . S
C39 O33 1.250 . S
O40 Mg22 2.030 . S
O40 C34 1.248 . S
O41 Mg24 2.079 . S
O41 C34 1.264 . S
P42 O53 1.490 . S
P42 C56 1.812 . S
P42 C62 1.803 1_545 S
P42 C68 1.819 . S
H43 C57 0.941 . S
H44 C58 0.940 . S
H45 C60 0.940 . S
H46 C61 0.940 . S
H47 C63 0.939 . S
H48 C64 0.942 . S
H49 C66 0.940 . S
H50 C67 0.939 . S
H51 C69 0.941 . S
H52 C73 0.939 . S
O53 P42 1.490 . S
H54 C70 0.939 . S
H55 C72 0.940 . S
C56 P42 1.812 . S
C56 C57 1.389 . S
C56 C61 1.391 1_455 S
C57 H43 0.941 . S
C57 C56 1.389 . S
C57 C58 1.397 1_455 S
C58 H44 0.940 . S
C58 C57 1.397 1_655 S
C58 C59 1.378 . S
C59 C58 1.378 . S
C59 C60 1.378 . S
C60 H45 0.940 . S
C60 C59 1.378 . S
C60 C61 1.396 . S
C61 H46 0.940 . S
C61 C56 1.391 1_655 S
C61 C60 1.396 . S
C62 P42 1.803 1_565 S
C62 C63 1.378 . S
C62 C67 1.400 . S
C63 H47 0.939 . S
C63 C62 1.378 . S
C63 C64 1.361 . S
C64 H48 0.942 . S
C64 C63 1.361 . S
C64 C65 1.369 . S
C65 C64 1.369 . S
C65 C66 1.404 . S
C66 H49 0.940 . S
C66 C65 1.404 . S
C66 C67 1.389 . S
C67 H50 0.939 . S
C67 C62 1.400 . S
C67 C66 1.389 . S
C68 P42 1.819 . S
C68 C69 1.391 . S
C68 C73 1.391 1_545 S
C69 H51 0.941 . S
C69 C68 1.391 . S
C69 C70 1.396 . S
C70 H54 0.939 . S
C70 C69 1.396 . S
C70 C71 1.397 . S
C71 C70 1.397 . S
C71 C72 1.385 1_545 S
C72 H55 0.940 . S
C72 C71 1.385 1_565 S
C72 C73 1.388 . S
C73 H52 0.939 . S
C73 C68 1.391 1_565 S
C73 C72 1.388 . S
P74 O85 1.490 1_545 S
P74 C88 1.802 1_445 S
P74 C94 1.803 . S
P74 C100 1.819 . S
H75 C89 0.941 . S
H76 C90 0.939 . S
H77 C92 0.940 1_545 S
H78 C93 0.940 . S
H79 C95 0.939 . S
H80 C96 0.942 . S
H81 C98 0.940 . S
H82 C99 0.955 . S
H83 C101 0.941 1_565 S
H84 C105 0.939 . S
O85 P74 1.490 1_565 S
H86 C102 0.939 1_565 S
H87 C104 0.940 . S
C88 P74 1.802 1_665 S
C88 C89 1.390 1_655 S
C88 C93 1.399 1_565 S
C89 H75 0.941 . S
C89 C88 1.390 1_455 S
C89 C90 1.397 1_455 S
C90 H76 0.939 . S
C90 C89 1.397 1_655 S
C90 C91 1.378 . S
C91 C90 1.378 . S
C91 C92 1.378 . S
C92 H77 0.940 1_565 S
C92 C91 1.378 . S
C92 C93 1.396 1_565 S
C93 H78 0.940 . S
C93 C88 1.399 1_545 S
C93 C92 1.396 1_545 S
C94 P74 1.803 . S
C94 C95 1.378 . S
C94 C99 1.400 . S
C95 H79 0.939 . S
C95 C94 1.378 . S
C95 C96 1.361 . S
C96 H80 0.942 . S
C96 C95 1.361 . S
C96 C97 1.369 . S
C97 C96 1.369 . S
C97 C98 1.404 . S
C98 H81 0.940 . S
C98 C97 1.404 . S
C98 C99 1.389 . S
C99 H82 0.955 . S
C99 C94 1.400 . S
C99 C98 1.389 . S
C100 P74 1.819 . S
C100 C101 1.391 . S
C100 C105 1.391 . S
C101 H83 0.941 1_545 S
C101 C100 1.391 . S
C101 C102 1.396 . S
C102 H86 0.939 1_545 S
C102 C101 1.396 . S
C102 C103 1.397 . S
C103 C102 1.397 . S
C103 C104 1.385 . S
C104 H87 0.940 . S
C104 C103 1.385 . S
C104 C105 1.388 . S
C105 H84 0.939 . S
C105 C100 1.391 . S
C105 C104 1.388 . S
P106 O117 1.490 . S
P106 C120 1.812 . S
P106 C126 1.803 . S
P106 C132 1.819 . S
H107 C121 0.941 . S
H108 C122 0.939 1_554 S
H109 C124 0.940 . S
H110 C125 0.940 . S
H111 C127 0.939 . S
H112 C128 0.942 . S
H113 C130 0.940 . S
H114 C131 0.939 . S
H115 C133 0.941 . S
H116 C137 0.939 . S
O117 P106 1.490 . S
H118 C134 0.939 . S
H119 C136 0.940 . S
C120 P106 1.812 . S
C120 C121 1.389 . S
C120 C125 1.391 . S
C121 H107 0.941 . S
C121 C120 1.389 . S
C121 C122 1.397 . S
C122 H108 0.939 1_556 S
C122 C121 1.397 . S
C122 C123 1.378 . S
C123 C122 1.378 . S
C123 C124 1.378 . S
C124 H109 0.940 . S
C124 C123 1.378 . S
C124 C125 1.396 . S
C125 H110 0.940 . S
C125 C120 1.391 . S
C125 C124 1.396 . S
C126 P106 1.803 . S
C126 C127 1.378 . S
C126 C131 1.400 . S
C127 H111 0.939 . S
C127 C126 1.378 . S
C127 C128 1.361 . S
C128 H112 0.942 . S
C128 C127 1.361 . S
C128 C129 1.369 . S
C129 C128 1.369 . S
C129 C130 1.404 . S
C130 H113 0.940 . S
C130 C129 1.404 . S
C130 C131 1.389 . S
C131 H114 0.939 . S
C131 C126 1.400 . S
C131 C130 1.389 . S
C132 P106 1.819 . S
C132 C133 1.391 . S
C132 C137 1.391 . S
C133 H115 0.941 . S
C133 C132 1.391 . S
C133 C134 1.396 . S
C134 H118 0.939 . S
C134 C133 1.396 . S
C134 C135 1.397 . S
C135 C134 1.397 . S
C135 C136 1.385 . S
C136 H119 0.940 . S
C136 C135 1.385 . S
C136 C137 1.388 . S
C137 H116 0.939 . S
C137 C132 1.391 . S
C137 C136 1.388 . S
P138 O149 1.490 . S
P138 C152 1.812 . S
P138 C158 1.803 . S
P138 C164 1.819 . S
H139 C153 0.941 . S
H140 C154 0.939 . S
H141 C156 0.940 . S
H142 C157 0.940 . S
H143 C159 0.939 . S
H144 C160 0.942 . S
H145 C162 0.940 . S
H146 C163 0.939 . S
H147 C165 0.941 . S
H148 C169 0.939 . S
O149 P138 1.490 . S
H150 C166 0.939 . S
H151 C168 0.940 . S
C152 P138 1.812 . S
C152 C153 1.389 . S
C152 C157 1.391 . S
C153 H139 0.941 . S
C153 C152 1.389 . S
C153 C154 1.397 . S
C154 H140 0.939 . S
C154 C153 1.397 . S
C154 C155 1.378 . S
C155 C154 1.378 . S
C155 C156 1.378 . S
C156 H141 0.940 . S
C156 C155 1.378 . S
C156 C157 1.396 . S
C157 H142 0.940 . S
C157 C152 1.391 . S
C157 C156 1.396 . S
C158 P138 1.803 . S
C158 C159 1.378 . S
C158 C163 1.400 . S
C159 H143 0.939 . S
C159 C158 1.378 . S
C159 C160 1.361 . S
C160 H144 0.942 . S
C160 C159 1.361 . S
C160 C161 1.369 . S
C161 C160 1.369 . S
C161 C162 1.404 . S
C162 H145 0.940 . S
C162 C161 1.404 . S
C162 C163 1.389 . S
C163 H146 0.939 . S
C163 C158 1.400 . S
C163 C162 1.389 . S
C164 P138 1.819 . S
C164 C165 1.391 . S
C164 C169 1.391 . S
C165 H147 0.941 . S
C165 C164 1.391 . S
C165 C166 1.396 . S
C166 H150 0.939 . S
C166 C165 1.396 . S
C166 C167 1.397 . S
C167 C166 1.397 . S
C167 C168 1.385 . S
C168 H151 0.940 . S
C168 C167 1.385 . S
C168 C169 1.388 . S
C169 H148 0.939 . S
C169 C164 1.391 . S
C169 C168 1.388 . S
C170 C171 1.391 . S
C170 C172 1.394 . S
C170 H186 0.931 . S
C171 C170 1.391 . S
C171 C175 1.376 1_554 S
C172 C170 1.394 . S
C172 C173 1.369 . S
C172 C176 1.531 . S
C173 C172 1.369 . S
C173 C174 1.410 1_554 S
C173 C181 1.503 . S
C174 C173 1.410 1_556 S
C174 C175 1.392 . S
C174 C177 1.511 . S
C175 C171 1.376 1_556 S
C175 C174 1.392 . S
C175 H187 0.929 . S
C176 C172 1.531 . S
C176 H188 0.960 . S
C176 H189 0.962 . S
C176 H190 0.960 . S
C177 C174 1.511 . S
C177 H191 0.961 . S
C177 H192 0.961 . S
C177 H193 0.961 . S
C178 C179 1.370 . S
C178 C180 1.363 . S
C178 H194 0.931 . S
C179 C178 1.370 . S
C179 C183 1.408 . S
C180 C178 1.363 . S
C180 C181 1.370 . S
C180 C184 1.524 . S
C181 C173 1.503 . S
C181 C180 1.370 . S
C181 C182 1.403 . S
C182 C181 1.403 . S
C182 C183 1.404 . S
C182 C185 1.539 1_554 S
C183 C179 1.408 . S
C183 C182 1.404 . S
C183 H195 0.930 . S
C184 C180 1.524 . S
C184 H196 0.956 . S
C184 H197 0.961 . S
C184 H198 0.961 . S
C185 C182 1.539 1_556 S
C185 H199 0.958 1_556 S
C185 H200 0.961 . S
C185 H201 0.960 . S
H186 C170 0.931 . S
H187 C175 0.929 . S
H188 C176 0.960 . S
H189 C176 0.962 . S
H190 C176 0.960 . S
H191 C177 0.961 . S
H192 C177 0.961 . S
H193 C177 0.961 . S
H194 C178 0.931 . S
H195 C183 0.930 . S
H196 C184 0.956 . S
H197 C184 0.961 . S
H198 C184 0.961 . S
H199 C185 0.958 1_554 S
H200 C185 0.961 . S
H201 C185 0.960 . S
C202 C203 1.411 . S
C202 C204 1.394 . S
C202 H218 0.931 . S
C203 C202 1.411 . S
C203 C207 1.354 1_554 S
C204 C202 1.394 . S
C204 C205 1.369 1_554 S
C204 C208 1.531 . S
C205 C204 1.369 1_556 S
C205 C206 1.410 . S
C205 C213 1.503 . S
C206 C205 1.410 . S
C206 C207 1.392 . S
C206 C209 1.511 . S
C207 C203 1.354 1_556 S
C207 C206 1.392 . S
C207 H219 0.929 . S
C208 C204 1.531 . S
C208 H220 0.960 . S
C208 H221 0.962 . S
C208 H222 0.960 . S
C209 C206 1.511 . S
C209 H223 0.961 . S
C209 H224 0.961 . S
C209 H225 0.961 . S
C210 C211 1.370 1_554 S
C210 C212 1.363 . S
C210 H226 0.931 . S
C211 C210 1.370 1_556 S
C211 C215 1.408 . S
C212 C210 1.363 . S
C212 C213 1.370 1_554 S
C212 C216 1.524 . S
C213 C205 1.503 . S
C213 C212 1.370 1_556 S
C213 C214 1.403 . S
C214 C213 1.403 . S
C214 C215 1.404 . S
C214 C217 1.539 . S
C215 C211 1.408 . S
C215 C214 1.404 . S
C215 H227 0.930 . S
C216 C212 1.524 . S
C216 H228 0.956 . S
C216 H229 0.961 . S
C216 H230 0.961 . S
C217 C214 1.539 . S
C217 H231 0.958 . S
C217 H232 0.961 . S
C217 H233 0.960 . S
H218 C202 0.931 . S
H219 C207 0.929 . S
H220 C208 0.960 . S
H221 C208 0.962 . S
H222 C208 0.960 . S
H223 C209 0.961 . S
H224 C209 0.961 . S
H225 C209 0.961 . S
H226 C210 0.931 . S
H227 C215 0.930 . S
H228 C216 0.956 . S
H229 C216 0.961 . S
H230 C216 0.961 . S
H231 C217 0.958 . S
H232 C217 0.961 . S
H233 C217 0.960 . S
C234 C235 1.391 . S
C234 C236 1.394 . S
C234 H250 0.931 . S
C235 C234 1.391 . S
C235 C239 1.376 . S
C236 C234 1.394 . S
C236 C237 1.369 . S
C236 C240 1.531 . S
C237 C236 1.369 . S
C237 C238 1.410 . S
C237 C245 1.503 . S
C238 C237 1.410 . S
C238 C239 1.392 . S
C238 C241 1.511 . S
C239 C235 1.376 . S
C239 C238 1.392 . S
C239 H251 0.929 . S
C240 C236 1.531 . S
C240 H252 0.960 . S
C240 H253 0.962 . S
C240 H254 0.960 . S
C241 C238 1.511 . S
C241 H255 0.961 . S
C241 H256 0.961 . S
C241 H257 0.961 1_554 S
C242 C243 1.370 . S
C242 C244 1.363 . S
C242 H258 0.931 . S
C243 C242 1.370 . S
C243 C247 1.408 . S
C244 C242 1.363 . S
C244 C245 1.370 . S
C244 C248 1.524 . S
C245 C237 1.503 . S
C245 C244 1.370 . S
C245 C246 1.403 1_554 S
C246 C245 1.403 1_556 S
C246 C247 1.404 1_556 S
C246 C249 1.539 . S
C247 C243 1.408 . S
C247 C246 1.404 1_554 S
C247 H259 0.930 1_554 S
C248 C244 1.524 . S
C248 H260 0.956 . S
C248 H261 0.961 . S
C248 H262 0.961 . S
C249 C246 1.539 . S
C249 H263 0.958 . S
C249 H264 0.961 . S
C249 H265 0.960 . S
H250 C234 0.931 . S
H251 C239 0.929 . S
H252 C240 0.960 . S
H253 C240 0.962 . S
H254 C240 0.960 . S
H255 C241 0.961 . S
H256 C241 0.961 . S
H257 C241 0.961 1_556 S
H258 C242 0.931 . S
H259 C247 0.930 1_556 S
H260 C248 0.956 . S
H261 C248 0.961 . S
H262 C248 0.961 . S
H263 C249 0.958 . S
H264 C249 0.961 . S
H265 C249 0.960 . S
C266 C267 1.391 . S
C266 C268 1.394 . S
C266 H282 0.931 . S
C267 C266 1.391 . S
C267 C271 1.376 1_554 S
C268 C266 1.394 . S
C268 C269 1.369 1_554 S
C268 C272 1.531 . S
C269 C268 1.369 1_556 S
C269 C270 1.410 . S
C269 C277 1.503 . S
C270 C269 1.410 . S
C270 C271 1.392 . S
C270 C273 1.511 . S
C271 C267 1.376 1_556 S
C271 C270 1.392 . S
C271 H283 0.929 . S
C272 C268 1.531 . S
C272 H284 0.960 . S
C272 H285 0.962 . S
C272 H286 0.960 . S
C273 C270 1.511 . S
C273 H287 0.961 . S
C273 H288 0.961 . S
C273 H289 0.961 . S
C274 C275 1.370 . S
C274 C276 1.363 . S
C274 H290 0.931 . S
C275 C274 1.370 . S
C275 C279 1.407 1_556 S
C276 C274 1.363 . S
C276 C277 1.370 . S
C276 C280 1.524 . S
C277 C269 1.503 . S
C277 C276 1.370 . S
C277 C278 1.403 1_556 S
C278 C277 1.403 1_554 S
C278 C279 1.404 . S
C278 C281 1.539 . S
C279 C275 1.407 1_554 S
C279 C278 1.404 . S
C279 H291 0.930 . S
C280 C276 1.524 . S
C280 H292 0.956 . S
C280 H293 0.961 . S
C280 H294 0.961 . S
C281 C278 1.539 . S
C281 H295 0.958 . S
C281 H296 0.961 . S
C281 H297 0.960 . S
H282 C266 0.931 . S
H283 C271 0.929 . S
H284 C272 0.960 . S
H285 C272 0.962 . S
H286 C272 0.960 . S
H287 C273 0.961 . S
H288 C273 0.961 . S
H289 C273 0.961 . S
H290 C274 0.931 . S
H291 C279 0.930 . S
H292 C280 0.956 . S
H293 C280 0.961 . S
H294 C280 0.961 . S
H295 C281 0.958 . S
H296 C281 0.961 . S
H297 C281 0.960 . S
C298 C299 1.391 . S
C298 C300 1.394 . S
C298 H314 0.931 . S
C299 C298 1.391 . S
C299 C303 1.376 . S
C300 C298 1.394 . S
C300 C301 1.369 . S
C300 C304 1.531 . S
C301 C300 1.369 . S
C301 C302 1.410 . S
C301 C309 1.503 . S
C302 C301 1.410 . S
C302 C303 1.392 . S
C302 C305 1.511 . S
C303 C299 1.376 . S
C303 C302 1.392 . S
C303 H315 0.929 . S
C304 C300 1.531 . S
C304 H316 0.960 . S
C304 H317 0.962 . S
C304 H318 0.960 . S
C305 C302 1.511 . S
C305 H319 0.961 . S
C305 H320 0.961 . S
C305 H321 0.961 . S
C306 C307 1.370 . S
C306 C308 1.363 . S
C306 H322 0.931 . S
C307 C306 1.370 . S
C307 C311 1.408 . S
C308 C306 1.363 . S
C308 C309 1.370 . S
C308 C312 1.524 . S
C309 C301 1.503 . S
C309 C308 1.370 . S
C309 C310 1.403 . S
C310 C309 1.403 . S
C310 C311 1.404 . S
C310 C313 1.539 . S
C311 C307 1.408 . S
C311 C310 1.404 . S
C311 H323 0.930 . S
C312 C308 1.524 . S
C312 H324 0.956 . S
C312 H325 0.961 . S
C312 H326 0.961 . S
C313 C310 1.539 . S
C313 H327 0.958 . S
C313 H328 0.961 . S
C313 H329 0.960 . S
H314 C298 0.931 . S
H315 C303 0.929 . S
H316 C304 0.960 . S
H317 C304 0.962 . S
H318 C304 0.960 . S
H319 C305 0.961 . S
H320 C305 0.961 . S
H321 C305 0.961 . S
H322 C306 0.931 . S
H323 C311 0.930 . S
H324 C312 0.956 . S
H325 C312 0.961 . S
H326 C312 0.961 . S
H327 C313 0.958 . S
H328 C313 0.961 . S
H329 C313 0.960 . S
C330 C331 1.391 . S
C330 C332 1.394 . S
C330 H346 0.931 . S
C331 C330 1.391 . S
C331 C335 1.376 . S
C332 C330 1.394 . S
C332 C333 1.369 . S
C332 C336 1.531 . S
C333 C332 1.369 . S
C333 C334 1.410 . S
C333 C341 1.503 . S
C334 C333 1.410 . S
C334 C335 1.392 . S
C334 C337 1.511 . S
C335 C331 1.376 . S
C335 C334 1.392 . S
C335 H347 0.929 . S
C336 C332 1.531 . S
C336 H348 0.960 . S
C336 H349 0.962 . S
C336 H350 0.960 . S
C337 C334 1.511 . S
C337 H351 0.961 . S
C337 H352 0.961 . S
C337 H353 0.961 . S
C338 C339 1.370 . S
C338 C340 1.363 . S
C338 H354 0.931 . S
C339 C338 1.370 . S
C339 C343 1.408 . S
C340 C338 1.363 . S
C340 C341 1.370 . S
C340 C344 1.524 . S
C341 C333 1.503 . S
C341 C340 1.370 . S
C341 C342 1.403 . S
C342 C341 1.403 . S
C342 C343 1.404 . S
C342 C345 1.539 . S
C343 C339 1.408 . S
C343 C342 1.404 . S
C343 H355 0.930 . S
C344 C340 1.524 . S
C344 H356 0.956 . S
C344 H357 0.961 . S
C344 H358 0.961 . S
C345 C342 1.539 . S
C345 H359 0.958 . S
C345 H360 0.961 . S
C345 H361 0.960 . S
H346 C330 0.931 . S
H347 C335 0.929 . S
H348 C336 0.960 . S
H349 C336 0.962 . S
H350 C336 0.960 . S
H351 C337 0.961 . S
H352 C337 0.961 . S
H353 C337 0.961 . S
H354 C338 0.931 . S
H355 C343 0.930 . S
H356 C344 0.956 . S
H357 C344 0.961 . S
H358 C344 0.961 . S
H359 C345 0.958 . S
H360 C345 0.961 . S
H361 C345 0.960 . S
C362 C363 1.391 . S
C362 C364 1.394 . S
C362 H378 0.931 . S
C363 C362 1.391 . S
C363 C367 1.376 . S
C364 C362 1.394 . S
C364 C365 1.369 . S
C364 C368 1.531 . S
C365 C364 1.369 . S
C365 C366 1.410 . S
C365 C373 1.503 . S
C366 C365 1.410 . S
C366 C367 1.392 . S
C366 C369 1.511 . S
C367 C363 1.376 . S
C367 C366 1.392 . S
C367 H379 0.929 . S
C368 C364 1.531 . S
C368 H380 0.960 . S
C368 H381 0.962 . S
C368 H382 0.960 . S
C369 C366 1.511 . S
C369 H383 0.961 . S
C369 H384 0.961 . S
C369 H385 0.961 . S
C370 C371 1.370 . S
C370 C372 1.363 . S
C370 H386 0.931 . S
C371 C370 1.370 . S
C371 C375 1.408 . S
C372 C370 1.363 . S
C372 C373 1.370 . S
C372 C376 1.524 . S
C373 C365 1.503 . S
C373 C372 1.370 . S
C373 C374 1.403 . S
C374 C373 1.403 . S
C374 C375 1.404 . S
C374 C377 1.539 . S
C375 C371 1.408 . S
C375 C374 1.404 . S
C375 H387 0.930 . S
C376 C372 1.524 . S
C376 H388 0.956 . S
C376 H389 0.961 . S
C376 H390 0.961 . S
C377 C374 1.539 . S
C377 H391 0.958 . S
C377 H392 0.961 . S
C377 H393 0.960 . S
H378 C362 0.931 . S
H379 C367 0.929 . S
H380 C368 0.960 . S
H381 C368 0.962 . S
H382 C368 0.960 . S
H383 C369 0.961 . S
H384 C369 0.961 . S
H385 C369 0.961 . S
H386 C370 0.931 . S
H387 C375 0.930 . S
H388 C376 0.956 . S
H389 C376 0.961 . S
H390 C376 0.961 . S
H391 C377 0.958 . S
H392 C377 0.961 . S
H393 C377 0.960 . S
C394 C395 1.391 . S
C394 C396 1.394 . S
C394 H410 0.931 . S
C395 C394 1.391 . S
C395 C399 1.376 . S
C396 C394 1.394 . S
C396 C397 1.369 . S
C396 C400 1.531 . S
C397 C396 1.369 . S
C397 C398 1.410 . S
C397 C405 1.503 . S
C398 C397 1.410 . S
C398 C399 1.392 . S
C398 C401 1.511 . S
C399 C395 1.376 . S
C399 C398 1.392 . S
C399 H411 0.929 . S
C400 C396 1.531 . S
C400 H412 0.960 . S
C400 H413 0.962 . S
C400 H414 0.960 . S
C401 C398 1.511 . S
C401 H415 0.961 . S
C401 H416 0.961 . S
C401 H417 0.961 . S
C402 C403 1.370 . S
C402 C404 1.363 . S
C402 H418 0.931 . S
C403 C402 1.370 . S
C403 C407 1.408 . S
C404 C402 1.363 . S
C404 C405 1.370 . S
C404 C408 1.524 . S
C405 C397 1.503 . S
C405 C404 1.370 . S
C405 C406 1.403 . S
C406 C405 1.403 . S
C406 C407 1.404 . S
C406 C409 1.539 . S
C407 C403 1.408 . S
C407 C406 1.404 . S
C407 H419 0.930 . S
C408 C404 1.524 . S
C408 H420 0.956 . S
C408 H421 0.961 . S
C408 H422 0.961 . S
C409 C406 1.539 . S
C409 H423 0.958 . S
C409 H424 0.961 . S
C409 H425 0.960 . S
H410 C394 0.931 . S
H411 C399 0.929 . S
H412 C400 0.960 . S
H413 C400 0.962 . S
H414 C400 0.960 . S
H415 C401 0.961 . S
H416 C401 0.961 . S
H417 C401 0.961 . S
H418 C402 0.931 . S
H419 C407 0.930 . S
H420 C408 0.956 . S
H421 C408 0.961 . S
H422 C408 0.961 . S
H423 C409 0.958 . S
H424 C409 0.961 . S
H425 C409 0.960 . S
C426 C427 1.391 1_665 S
C426 C428 1.394 . S
C426 H442 0.931 . S
C427 C426 1.391 1_445 S
C427 C431 1.376 . S
C428 C426 1.394 . S
C428 C429 1.369 1_655 S
C428 C432 1.531 . S
C429 C428 1.369 1_455 S
C429 C430 1.410 1_565 S
C429 C437 1.503 . S
C430 C429 1.410 1_545 S
C430 C431 1.392 . S
C430 C433 1.511 . S
C431 C427 1.376 . S
C431 C430 1.392 . S
C431 H443 0.929 . S
C432 C428 1.531 . S
C432 H444 0.960 . S
C432 H445 0.962 1_565 S
C432 H446 0.960 . S
C433 C430 1.511 . S
C433 H447 0.961 . S
C433 H448 0.961 . S
C433 H449 0.961 1_545 S
C434 C435 1.370 1_545 S
C434 C436 1.363 . S
C434 H450 0.931 . S
C435 C434 1.370 1_565 S
C435 C439 1.408 . S
C436 C434 1.363 . S
C436 C437 1.370 1_545 S
C436 C440 1.524 . S
C437 C429 1.503 . S
C437 C436 1.370 1_565 S
C437 C438 1.403 . S
C438 C437 1.403 . S
C438 C439 1.404 . S
C438 C441 1.539 . S
C439 C435 1.408 . S
C439 C438 1.404 . S
C439 H451 0.930 . S
C440 C436 1.524 . S
C440 H452 0.956 1_455 S
C440 H453 0.961 . S
C440 H454 0.961 . S
C441 C438 1.539 . S
C441 H455 0.958 . S
C441 H456 0.961 . S
C441 H457 0.960 . S
H442 C426 0.931 . S
H443 C431 0.929 . S
H444 C432 0.960 . S
H445 C432 0.962 1_545 S
H446 C432 0.960 . S
H447 C433 0.961 . S
H448 C433 0.961 . S
H449 C433 0.961 1_565 S
H450 C434 0.931 . S
H451 C439 0.930 . S
H452 C440 0.956 1_655 S
H453 C440 0.961 . S
H454 C440 0.961 . S
H455 C441 0.958 . S
H456 C441 0.961 . S
H457 C441 0.960 . S
C458 C459 1.391 1_655 S
C458 C460 1.394 . S
C458 H474 0.931 . S
C459 C458 1.391 1_455 S
C459 C463 1.376 . S
C460 C458 1.394 . S
C460 C461 1.369 1_655 S
C460 C464 1.531 . S
C461 C460 1.369 1_455 S
C461 C462 1.410 . S
C461 C469 1.503 . S
C462 C461 1.410 . S
C462 C463 1.392 . S
C462 C465 1.511 . S
C463 C459 1.376 . S
C463 C462 1.392 . S
C463 H475 0.929 . S
C464 C460 1.531 . S
C464 H476 0.960 . S
C464 H477 0.962 . S
C464 H478 0.960 . S
C465 C462 1.511 . S
C465 H479 0.961 . S
C465 H480 0.961 . S
C465 H481 0.961 . S
C466 C467 1.370 1_655 S
C466 C468 1.364 . S
C466 H482 0.931 . S
C467 C466 1.370 1_455 S
C467 C471 1.408 . S
C468 C466 1.364 . S
C468 C469 1.369 1_655 S
C468 C472 1.525 1_545 S
C469 C461 1.503 . S
C469 C468 1.369 1_455 S
C469 C470 1.403 . S
C470 C469 1.403 . S
C470 C471 1.404 . S
C470 C473 1.539 . S
C471 C467 1.408 . S
C471 C470 1.404 . S
C471 H483 0.930 . S
C472 C468 1.525 1_565 S
C472 H484 0.956 . S
C472 H485 0.961 1_655 S
C472 H486 0.961 . S
C473 C470 1.539 . S
C473 H487 0.958 . S
C473 H488 0.961 . S
C473 H489 0.960 . S
H474 C458 0.931 . S
H475 C463 0.929 . S
H476 C464 0.960 . S
H477 C464 0.962 . S
H478 C464 0.960 . S
H479 C465 0.961 . S
H480 C465 0.961 . S
H481 C465 0.961 . S
H482 C466 0.931 . S
H483 C471 0.930 . S
H484 C472 0.956 . S
H485 C472 0.961 1_455 S
H486 C472 0.961 . S
H487 C473 0.958 . S
H488 C473 0.961 . S
H489 C473 0.960 . S
C490 C491 1.391 . S
C490 C492 1.394 . S
C490 H506 0.931 . S
C491 C490 1.391 . S
C491 C495 1.376 . S
C492 C490 1.394 . S
C492 C493 1.369 . S
C492 C496 1.531 . S
C493 C492 1.369 . S
C493 C494 1.410 . S
C493 C501 1.503 . S
C494 C493 1.410 . S
C494 C495 1.392 . S
C494 C497 1.511 . S
C495 C491 1.376 . S
C495 C494 1.392 . S
C495 H507 0.929 . S
C496 C492 1.531 . S
C496 H508 0.960 . S
C496 H509 0.962 . S
C496 H510 0.960 . S
C497 C494 1.511 . S
C497 H511 0.961 . S
C497 H512 0.961 . S
C497 H513 0.961 . S
C498 C499 1.370 . S
C498 C500 1.363 . S
C498 H514 0.931 . S
C499 C498 1.370 . S
C499 C503 1.408 . S
C500 C498 1.363 . S
C500 C501 1.370 . S
C500 C504 1.524 . S
C501 C493 1.503 . S
C501 C500 1.370 . S
C501 C502 1.403 . S
C502 C501 1.403 . S
C502 C503 1.404 . S
C502 C505 1.539 . S
C503 C499 1.408 . S
C503 C502 1.404 . S
C503 H515 0.930 . S
C504 C500 1.524 . S
C504 H516 0.956 . S
C504 H517 0.961 . S
C504 H518 0.961 . S
C505 C502 1.539 . S
C505 H519 0.958 . S
C505 H520 0.961 . S
C505 H521 0.960 . S
H506 C490 0.931 . S
H507 C495 0.929 . S
H508 C496 0.960 . S
H509 C496 0.962 . S
H510 C496 0.960 . S
H511 C497 0.961 . S
H512 C497 0.961 . S
H513 C497 0.961 . S
H514 C498 0.931 . S
H515 C503 0.930 . S
H516 C504 0.956 . S
H517 C504 0.961 . S
H518 C504 0.961 . S
H519 C505 0.958 . S
H520 C505 0.961 . S
H521 C505 0.960 . S
C522 C523 1.391 . S
C522 C524 1.394 . S
C522 H538 0.931 . S
C523 C522 1.391 . S
C523 C527 1.376 . S
C524 C522 1.394 . S
C524 C525 1.369 . S
C524 C528 1.531 . S
C525 C524 1.369 . S
C525 C526 1.410 . S
C525 C533 1.503 . S
C526 C525 1.410 . S
C526 C527 1.392 . S
C526 C529 1.511 . S
C527 C523 1.376 . S
C527 C526 1.392 . S
C527 H539 0.929 . S
C528 C524 1.531 . S
C528 H540 0.960 . S
C528 H541 0.962 . S
C528 H542 0.960 . S
C529 C526 1.511 . S
C529 H543 0.961 . S
C529 H544 0.961 . S
C529 H545 0.961 . S
C530 C531 1.370 . S
C530 C532 1.363 . S
C530 H546 0.931 . S
C531 C530 1.370 . S
C531 C535 1.408 . S
C532 C530 1.363 . S
C532 C533 1.370 . S
C532 C536 1.524 . S
C533 C525 1.503 . S
C533 C532 1.370 . S
C533 C534 1.403 . S
C534 C533 1.403 . S
C534 C535 1.404 . S
C534 C537 1.539 . S
C535 C531 1.408 . S
C535 C534 1.404 . S
C535 H547 0.930 . S
C536 C532 1.524 . S
C536 H548 0.956 . S
C536 H549 0.961 . S
C536 H550 0.961 . S
C537 C534 1.539 . S
C537 H551 0.958 . S
C537 H552 0.961 . S
C537 H553 0.960 . S
H538 C522 0.931 . S
H539 C527 0.929 . S
H540 C528 0.960 . S
H541 C528 0.962 . S
H542 C528 0.960 . S
H543 C529 0.961 . S
H544 C529 0.961 . S
H545 C529 0.961 . S
H546 C530 0.931 . S
H547 C535 0.930 . S
H548 C536 0.956 . S
H549 C536 0.961 . S
H550 C536 0.961 . S
H551 C537 0.958 . S
H552 C537 0.961 . S
H553 C537 0.960 . S
C179 C155 1.390 . S
C171 C15 1.260 . S
C203 C13 1.501 . S
C211 C123 1.453 . S
C235 C18 1.240 . S
C243 C161 1.426 . S
C267 C17 1.364 1_554 S
C275 C129 1.346 . S
C299 C36 1.218 . S
C307 C91 1.383 . S
C331 C34 1.468 . S
C339 C59 1.440 . S
C371 C97 1.412 . S
C363 C39 1.300 . S
C403 C65 1.358 . S
C395 C38 1.334 . S
C427 C14 1.516 . S
C435 C71 1.525 1_565 S
C459 C16 1.387 . S
C467 C103 1.379 . S
C499 C135 1.514 . S
C491 C35 1.483 . S
C523 C37 1.392 . S
C531 C167 1.376 . S
