# Generated by pormake.
# Topology zzz, (3,6)-cn, num edge types: 1
# Building blocks:
#     Node 0, Type 0, BuildingBlock: VETTIZ_charged_linker_0, # of connection points: 3
#     Node 1, Type 0, BuildingBlock: VETTIZ_charged_linker_0, # of connection points: 3
#     Node 2, Type 0, BuildingBlock: VETTIZ_charged_linker_0, # of connection points: 3
#     Node 3, Type 0, BuildingBlock: VETTIZ_charged_linker_0, # of connection points: 3
#     Node 4, Type 0, BuildingBlock: VETTIZ_charged_linker_0, # of connection points: 3
#     Node 5, Type 0, BuildingBlock: VETTIZ_charged_linker_0, # of connection points: 3
#     Node 6, Type 0, BuildingBlock: VETTIZ_charged_linker_0, # of connection points: 3
#     Node 7, Type 0, BuildingBlock: VETTIZ_charged_linker_0, # of connection points: 3
#     Node 8, Type 1, BuildingBlock: PAMTUU_clean_sbu_0, # of connection points: 6
#     Node 9, Type 1, BuildingBlock: PAMTUU_clean_sbu_0, # of connection points: 6
#     Node 10, Type 1, BuildingBlock: PAMTUU_clean_sbu_0, # of connection points: 6
#     Node 11, Type 1, BuildingBlock: PAMTUU_clean_sbu_0, # of connection points: 6
#     Edge 12, Type (0, 1), BuildingBlock: UVAHIK_clean_linker_0, # of connection points: 2
#     Edge 13, Type (0, 1), BuildingBlock: UVAHIK_clean_linker_0, # of connection points: 2
#     Edge 14, Type (0, 1), BuildingBlock: UVAHIK_clean_linker_0, # of connection points: 2
#     Edge 15, Type (0, 1), BuildingBlock: UVAHIK_clean_linker_0, # of connection points: 2
#     Edge 16, Type (0, 1), BuildingBlock: UVAHIK_clean_linker_0, # of connection points: 2
#     Edge 17, Type (0, 1), BuildingBlock: UVAHIK_clean_linker_0, # of connection points: 2
#     Edge 18, Type (0, 1), BuildingBlock: UVAHIK_clean_linker_0, # of connection points: 2
#     Edge 19, Type (0, 1), BuildingBlock: UVAHIK_clean_linker_0, # of connection points: 2
#     Edge 20, Type (0, 1), BuildingBlock: UVAHIK_clean_linker_0, # of connection points: 2
#     Edge 21, Type (0, 1), BuildingBlock: UVAHIK_clean_linker_0, # of connection points: 2
#     Edge 22, Type (0, 1), BuildingBlock: UVAHIK_clean_linker_0, # of connection points: 2
#     Edge 23, Type (0, 1), BuildingBlock: UVAHIK_clean_linker_0, # of connection points: 2
#     Edge 24, Type (0, 1), BuildingBlock: UVAHIK_clean_linker_0, # of connection points: 2
#     Edge 25, Type (0, 1), BuildingBlock: UVAHIK_clean_linker_0, # of connection points: 2
#     Edge 26, Type (0, 1), BuildingBlock: UVAHIK_clean_linker_0, # of connection points: 2
#     Edge 27, Type (0, 1), BuildingBlock: UVAHIK_clean_linker_0, # of connection points: 2
#     Edge 28, Type (0, 1), BuildingBlock: UVAHIK_clean_linker_0, # of connection points: 2
#     Edge 29, Type (0, 1), BuildingBlock: UVAHIK_clean_linker_0, # of connection points: 2
#     Edge 30, Type (0, 1), BuildingBlock: UVAHIK_clean_linker_0, # of connection points: 2
#     Edge 31, Type (0, 1), BuildingBlock: UVAHIK_clean_linker_0, # of connection points: 2
#     Edge 32, Type (0, 1), BuildingBlock: UVAHIK_clean_linker_0, # of connection points: 2
#     Edge 33, Type (0, 1), BuildingBlock: UVAHIK_clean_linker_0, # of connection points: 2
#     Edge 34, Type (0, 1), BuildingBlock: UVAHIK_clean_linker_0, # of connection points: 2
#     Edge 35, Type (0, 1), BuildingBlock: UVAHIK_clean_linker_0, # of connection points: 2
# Relax obj value: 0.366
# Max RMSD: 0.263
# Mean RMSD: 0.222
data_MOF--net-zzz--node1-PAMTUU_clean_sbu_0--node2-VETTIZ_charged_linker_0--edge1-UVAHIK_clean_linker_0
_symmetry_space_group_name_H-M    P1
_symmetry_Int_Tables_number       1
_symmetry_cell_setting            triclinic
loop_
_symmetry_equiv_pos_as_xyz
'x, y, z'
_cell_length_a     71.49993
_cell_length_b     75.451368
_cell_length_c     25.430961
_cell_angle_alpha  97.556064
_cell_angle_beta   90.364416
_cell_angle_gamma 90.733428
loop_
_atom_site_label
_atom_site_type_symbol
_atom_site_fract_x
_atom_site_fract_y
_atom_site_fract_z
_atom_type_partial_charge
C0 C 0.8055 0.48475 0.37394 0.0
C1 C 0.82186 0.47652 0.39031 0.0
C2 C 0.82734 0.46013 0.36244 0.0
C3 C 0.80109 0.4603 0.30213 0.0
C4 C 0.79512 0.4762 0.3298 0.0
C5 C 0.77693 0.4821 0.30645 0.0
H6 H 0.70846 0.46275 0.11502 0.0
C7 C 0.78794 0.45478 0.25796 0.0
C8 C 0.77338 0.46725 0.26011 0.0
H9 H 0.70983 0.50847 0.23624 0.0
H10 H 0.73954 0.49851 0.26977 0.0
H11 H 0.74876 0.46672 0.08284 0.0
H12 H 0.72267 0.43323 0.1857 0.0
H13 H 0.73843 0.41986 0.14565 0.0
H14 H 0.71956 0.43045 0.11496 0.0
H15 H 0.73781 0.44585 0.05729 0.0
H16 H 0.76222 0.44735 0.07623 0.0
C17 C 0.78029 0.5004 0.28713 0.0
C18 C 0.76161 0.48241 0.34894 0.0
C19 C 0.80585 0.40314 0.12036 0.0
C20 C 0.79814 0.39632 0.07072 0.0
C21 C 0.78012 0.4017 0.05731 0.0
C22 C 0.77049 0.41454 0.09139 0.0
C23 C 0.77909 0.4223 0.13903 0.0
C24 C 0.79624 0.41618 0.15339 0.0
C25 C 0.80368 0.42637 0.20408 0.0
C26 C 0.78854 0.4402 0.21662 0.0
C27 C 0.7742 0.4377 0.17865 0.0
C28 C 0.82269 0.43509 0.19181 0.0
C29 C 0.80468 0.41322 0.24615 0.0
C30 C 0.71492 0.47053 0.1494 0.0
C31 C 0.70657 0.48616 0.17365 0.0
C32 C 0.71592 0.49624 0.21706 0.0
C33 C 0.73309 0.49041 0.23656 0.0
C34 C 0.7411 0.47447 0.2119 0.0
C35 C 0.73194 0.46505 0.16861 0.0
C36 C 0.7425 0.44913 0.14426 0.0
C37 C 0.75921 0.44984 0.18109 0.0
C38 C 0.75862 0.46467 0.22118 0.0
C39 C 0.74807 0.45224 0.08713 0.0
C40 C 0.73021 0.43221 0.14729 0.0
H41 H 0.82236 0.43967 0.29945 0.0
H42 H 0.80088 0.49729 0.39515 0.0
H43 H 0.76177 0.46986 0.36751 0.0
H44 H 0.74743 0.48335 0.33234 0.0
H45 H 0.76389 0.49382 0.38078 0.0
H46 H 0.79333 0.50023 0.26343 0.0
H47 H 0.78179 0.51115 0.32127 0.0
H48 H 0.76892 0.50397 0.26112 0.0
H49 H 0.81979 0.39953 0.13154 0.0
H50 H 0.77384 0.39653 0.01942 0.0
H51 H 0.75704 0.4184 0.07828 0.0
H52 H 0.82226 0.43985 0.15223 0.0
H53 H 0.83424 0.42538 0.19144 0.0
H54 H 0.82639 0.44708 0.21972 0.0
H55 H 0.79487 0.40165 0.23657 0.0
H56 H 0.80035 0.41949 0.286 0.0
H57 H 0.81895 0.40775 0.24883 0.0
H58 H 0.83982 0.4536 0.37427 0.0
C59 C 0.81713 0.45203 0.31884 0.0
C60 C 0.93584 0.76107 0.06791 0.0
C61 C 0.9348 0.77979 0.07037 0.0
C62 C 0.93325 0.79014 0.12057 0.0
C63 C 0.93861 0.76396 0.16371 0.0
C64 C 0.93797 0.75346 0.11502 0.0
C65 C 0.94186 0.73415 0.11965 0.0
H66 H 0.98676 0.67494 0.24795 0.0
C67 C 0.94534 0.75291 0.20345 0.0
C68 C 0.94722 0.73541 0.17825 0.0
H69 H 0.95307 0.66517 0.10489 0.0
H70 H 0.94254 0.69554 0.11823 0.0
H71 H 1.00173 0.71581 0.23605 0.0
H72 H 0.95215 0.69954 0.31564 0.0
H73 H 0.96476 0.71646 0.3562 0.0
H74 H 0.9753 0.69502 0.33803 0.0
H75 H 1.00326 0.70452 0.29391 0.0
H76 H 0.99959 0.72825 0.29953 0.0
C77 C 0.95841 0.72804 0.0829 0.0
C78 C 0.92355 0.72313 0.10626 0.0
C79 C 0.96621 0.78473 0.38157 0.0
C80 C 0.97773 0.78021 0.42229 0.0
C81 C 0.98484 0.76273 0.41844 0.0
C82 C 0.98021 0.7499 0.37453 0.0
C83 C 0.96873 0.75479 0.33363 0.0
C84 C 0.9622 0.77209 0.33771 0.0
C85 C 0.95215 0.77595 0.28879 0.0
C86 C 0.95264 0.75782 0.25537 0.0
C87 C 0.96224 0.74529 0.28157 0.0
C88 C 0.96358 0.79049 0.26413 0.0
C89 C 0.93186 0.78131 0.30401 0.0
C90 C 0.97715 0.67947 0.21961 0.0
C91 C 0.97093 0.66775 0.17482 0.0
C92 C 0.95806 0.67392 0.13949 0.0
C93 C 0.9521 0.69158 0.14685 0.0
C94 C 0.95914 0.70337 0.18968 0.0
C95 C 0.97065 0.69719 0.22692 0.0
C96 C 0.97463 0.71161 0.2731 0.0
C97 C 0.96397 0.72736 0.25613 0.0
C98 C 0.95564 0.72242 0.20602 0.0
C99 C 0.99594 0.71526 0.27632 0.0
C100 C 0.9664 0.7054 0.32373 0.0
H101 H 0.93432 0.79096 0.2039 0.0
H102 H 0.9363 0.75268 0.03002 0.0
H103 H 0.91121 0.73176 0.10289 0.0
H104 H 0.91992 0.71484 0.13781 0.0
H105 H 0.92463 0.71429 0.0679 0.0
H106 H 0.97039 0.73761 0.09036 0.0
H107 H 0.95426 0.72732 0.04051 0.0
H108 H 0.96369 0.71479 0.08873 0.0
H109 H 0.96112 0.79825 0.38252 0.0
H110 H 0.99398 0.75905 0.44925 0.0
H111 H 0.98603 0.73682 0.37348 0.0
H112 H 0.97786 0.79262 0.28169 0.0
H113 H 0.95657 0.80364 0.2702 0.0
H114 H 0.96609 0.78672 0.22121 0.0
H115 H 0.92602 0.77257 0.33206 0.0
H116 H 0.9222 0.77973 0.26954 0.0
H117 H 0.93136 0.79535 0.32361 0.0
H118 H 0.93231 0.80456 0.12433 0.0
C119 C 0.93491 0.78228 0.16711 0.0
C120 C 0.825 0.98311 0.18068 0.0
C121 C 0.8399 0.9928 0.16043 0.0
C122 C 0.83905 0.01158 0.16542 0.0
C123 C 0.80748 0.01045 0.19681 0.0
C124 C 0.80906 0.99256 0.20129 0.0
C125 C 0.79192 0.98598 0.22895 0.0
H126 H 0.70124 0.00161 0.29966 0.0
C127 C 0.78855 0.01615 0.21052 0.0
C128 C 0.77987 0.00292 0.2364 0.0
H129 H 0.74022 0.97706 0.39781 0.0
H130 H 0.76587 0.98454 0.34055 0.0
H131 H 0.72361 0.03361 0.31378 0.0
H132 H 0.72158 0.99315 0.17793 0.0
H133 H 0.72034 0.01419 0.15539 0.0
H134 H 0.70254 0.00762 0.19895 0.0
H135 H 0.70589 0.03363 0.26356 0.0
H136 H 0.72814 0.045 0.25953 0.0
C137 C 0.79801 0.97966 0.28156 0.0
C138 C 0.78199 0.97081 0.19238 0.0
C139 C 0.76083 0.0585 0.0921 0.0
C140 C 0.74234 0.06352 0.08322 0.0
C141 C 0.72802 0.05808 0.11563 0.0
C142 C 0.73188 0.04721 0.15468 0.0
C143 C 0.75028 0.04167 0.16174 0.0
C144 C 0.7645 0.04765 0.13169 0.0
C145 C 0.7832 0.04031 0.14467 0.0
C146 C 0.77766 0.02874 0.18739 0.0
C147 C 0.75833 0.02925 0.19572 0.0
C148 C 0.79657 0.05606 0.16584 0.0
C149 C 0.79056 0.02902 0.09396 0.0
C150 C 0.71507 -0.00293 0.30844 0.0
C151 C 0.71837 0.98842 0.35327 0.0
C152 C 0.73695 0.98313 0.36266 0.0
C153 C 0.75177 0.98696 0.32886 0.0
C154 C 0.74799 0.99572 0.28454 0.0
C155 C 0.72998 0.0014 0.27694 0.0
C156 C 0.72924 0.01531 0.23992 0.0
C157 C 0.74978 0.01739 0.22752 0.0
C158 C 0.7606 0.00489 0.25021 0.0
C159 C 0.7212 0.03279 0.27025 0.0
C160 C 0.71776 0.00732 0.1904 0.0
H161 H 0.82278 0.03477 0.18779 0.0
H162 H 0.8257 0.96876 0.17991 0.0
H163 H 0.77831 0.97526 0.15368 0.0
H164 H 0.76889 0.96666 0.21093 0.0
H165 H 0.79114 0.95896 0.1848 0.0
H166 H 0.80031 0.99121 0.31298 0.0
H167 H 0.81123 0.97206 0.27664 0.0
H168 H 0.78754 0.97032 0.29495 0.0
H169 H 0.77209 0.06262 0.06796 0.0
H170 H 0.7136 0.06151 0.10911 0.0
H171 H 0.72022 0.04314 0.1767 0.0
H172 H 0.79049 0.06935 0.16237 0.0
H173 H 0.80985 0.05558 0.14327 0.0
H174 H 0.79992 0.05604 0.20857 0.0
H175 H 0.79222 0.03733 0.0613 0.0
H176 H 0.78068 0.01782 0.08034 0.0
H177 H 0.80438 0.02326 0.09991 0.0
H178 H 0.85054 0.01937 0.15225 0.0
C179 C 0.82296 0.02046 0.18427 0.0
C180 C 0.56224 0.73371 0.27021 0.0
C181 C 0.56325 0.71519 0.27361 0.0
C182 C 0.56042 0.70291 0.22772 0.0
C183 C 0.55448 0.727 0.17636 0.0
C184 C 0.55802 0.73935 0.22059 0.0
C185 C 0.55687 0.75833 0.207 0.0
H186 H 0.53188 0.81202 0.02107 0.0
C187 C 0.54915 0.73663 0.13192 0.0
C188 C 0.55047 0.75509 0.14894 0.0
H189 H 0.55698 0.82959 0.17409 0.0
H190 H 0.5581 0.79861 0.19249 0.0
H191 H 0.55949 0.77936 0.99083 0.0
H192 H 0.50424 0.78372 0.05673 0.0
H193 H 0.5046 0.76306 0.01609 0.0
H194 H 0.50816 0.78344 0.98705 0.0
H195 H 0.53923 0.78475 0.95428 0.0
H196 H 0.54565 0.76194 0.95735 0.0
C197 C 0.57667 0.76682 0.21296 0.0
C198 C 0.54223 0.76862 0.24288 0.0
C199 C 0.52626 0.70017 0.96184 0.0
C200 C 0.51749 0.70464 0.91609 0.0
C201 C 0.51439 0.7227 0.911 0.0
C202 C 0.52034 0.73623 0.95118 0.0
C203 C 0.52917 0.73152 0.99704 0.0
C204 C 0.53173 0.71371 0.00183 0.0
C205 C 0.53989 0.71094 0.05452 0.0
C206 C 0.54219 0.73011 0.0806 0.0
C207 C 0.53623 0.74208 0.04659 0.0
C208 C 0.55908 0.70177 0.04444 0.0
C209 C 0.52535 0.7002 0.08339 0.0
C210 C 0.53752 0.80927 0.05878 0.0
C211 C 0.54412 0.82321 0.0964 0.0
C212 C 0.55177 0.81901 0.14451 0.0
C213 C 0.55244 0.80107 0.15498 0.0
C214 C 0.54576 0.78724 0.11646 0.0
C215 C 0.53862 0.79162 0.06918 0.0
C216 C 0.53281 0.77561 0.03126 0.0
C217 C 0.53789 0.76071 0.06269 0.0
C218 C 0.54524 0.76737 0.1132 0.0
C219 C 0.54476 0.77533 0.98048 0.0
C220 C 0.51139 0.77644 0.02175 0.0
H221 H 0.5539 0.69848 0.1464 0.0
H222 H 0.5647 0.74341 0.30495 0.0
H223 H 0.52895 0.76076 0.24211 0.0
H224 H 0.53877 0.78158 0.22996 0.0
H225 H 0.54731 0.77113 0.28461 0.0
H226 H 0.5874 0.75697 0.19746 0.0
H227 H 0.58006 0.77142 0.25529 0.0
H228 H 0.57842 0.77814 0.18997 0.0
H229 H 0.52836 0.6863 0.96706 0.0
H230 H 0.50749 0.7263 0.87595 0.0
H231 H 0.51776 0.74979 0.94509 0.0
H232 H 0.56636 0.70673 0.01055 0.0
H233 H 0.55735 0.68705 0.03476 0.0
H234 H 0.56892 0.70475 0.07825 0.0
H235 H 0.51087 0.70182 0.0686 0.0
H236 H 0.52457 0.70488 0.12639 0.0
H237 H 0.52836 0.68568 0.0775 0.0
H238 H 0.56123 0.68866 0.22955 0.0
C239 C 0.55608 0.70867 0.17941 0.0
C240 C 0.32785 0.50465 0.29743 0.0
C241 C 0.33871 0.51004 0.34365 0.0
C242 C 0.33288 0.52457 0.37966 0.0
C243 C 0.30588 0.52843 0.32476 0.0
C244 C 0.31133 0.5141 0.28882 0.0
C245 C 0.29748 0.51061 0.24286 0.0
H246 H 0.21645 0.53688 0.12989 0.0
C247 C 0.28853 0.53575 0.3052 0.0
C248 C 0.28337 0.52558 0.25671 0.0
H249 H 0.24978 0.4914 0.07017 0.0
H250 H 0.27188 0.49877 0.14358 0.0
H251 H 0.21809 0.53038 0.24812 0.0
H252 H 0.24982 0.56416 0.15743 0.0
H253 H 0.24724 0.57654 0.22032 0.0
H254 H 0.22672 0.56973 0.18055 0.0
H255 H 0.20879 0.55019 0.22641 0.0
H256 H 0.22106 0.55086 0.2887 0.0
C257 C 0.2885 0.49195 0.2439 0.0
C258 C 0.30781 0.51249 0.1908 0.0
C259 C 0.2565 0.58589 0.42221 0.0
C260 C 0.23987 0.59516 0.41622 0.0
C261 C 0.23074 0.59303 0.36648 0.0
C262 C 0.23725 0.58079 0.32463 0.0
C263 C 0.25305 0.57052 0.33257 0.0
C264 C 0.26283 0.57373 0.37991 0.0
C265 C 0.27955 0.56192 0.38077 0.0
C266 C 0.27758 0.5504 0.32722 0.0
C267 C 0.26193 0.55533 0.29961 0.0
C268 C 0.2772 0.55074 0.42744 0.0
C269 C 0.29735 0.57406 0.38407 0.0
C270 C 0.22863 0.52858 0.13166 0.0
C271 C 0.23137 0.51367 0.09345 0.0
C272 C 0.24722 0.50298 0.099 0.0
C273 C 0.26005 0.50728 0.14163 0.0
C274 C 0.25693 0.52232 0.17957 0.0
C275 C 0.24134 0.5326 0.17365 0.0
C276 C 0.23943 0.54775 0.21742 0.0
C277 C 0.25642 0.54511 0.25106 0.0
C278 C 0.26689 0.53021 0.22929 0.0
C279 C 0.22088 0.54486 0.24675 0.0
C280 C 0.24071 0.56553 0.19303 0.0
H281 H 0.31318 0.54466 0.39992 0.0
H282 H 0.33207 0.49345 0.26914 0.0
H283 H 0.31638 0.52501 0.19515 0.0
H284 H 0.29812 0.51325 0.15728 0.0
H285 H 0.31732 0.50107 0.18013 0.0
H286 H 0.28435 0.49015 0.28497 0.0
H287 H 0.2985 0.48125 0.22976 0.0
H288 H 0.27563 0.48993 0.21965 0.0
H289 H 0.26388 0.5874 0.4599 0.0
H290 H 0.21782 0.59993 0.36099 0.0
H291 H 0.22921 0.57922 0.28854 0.0
H292 H 0.2623 0.54673 0.43154 0.0
H293 H 0.28172 0.55853 0.46563 0.0
H294 H 0.28485 0.53803 0.42179 0.0
H295 H 0.2947 0.58696 0.36872 0.0
H296 H 0.30885 0.568 0.35913 0.0
H297 H 0.30243 0.57731 0.42563 0.0
H298 H 0.34104 0.5289 0.41524 0.0
C299 C 0.31668 0.53377 0.3705 0.0
C300 C 0.10241 0.22245 0.42535 0.0
C301 C 0.10405 0.20389 0.42523 0.0
C302 C 0.10806 0.1931 0.37717 0.0
C303 C 0.10353 0.21832 0.32936 0.0
C304 C 0.10223 0.22941 0.37681 0.0
C305 C 0.09898 0.24852 0.3684 0.0
H306 H 0.05654 0.3046 0.22572 0.0
C307 C 0.09799 0.22851 0.28631 0.0
C308 C 0.09567 0.24631 0.30835 0.0
H309 H 0.08999 0.31712 0.36855 0.0
H310 H 0.1009 0.28686 0.35961 0.0
H311 H 0.0919 0.27985 0.16382 0.0
H312 H 0.04218 0.26281 0.24147 0.0
H313 H 0.04485 0.25102 0.17703 0.0
H314 H 0.04078 0.27465 0.18466 0.0
H315 H 0.06889 0.28276 0.13761 0.0
H316 H 0.08062 0.26164 0.12504 0.0
C317 C 0.11701 0.25955 0.3856 0.0
C318 C 0.08142 0.25538 0.39965 0.0
C319 C 0.07553 0.19221 0.11649 0.0
C320 C 0.06458 0.1958 0.07349 0.0
C321 C 0.05952 0.21363 0.06999 0.0
C322 C 0.06474 0.22753 0.11053 0.0
C323 C 0.07514 0.22349 0.15468 0.0
C324 C 0.08048 0.20601 0.15634 0.0
C325 C 0.09088 0.20353 0.20597 0.0
C326 C 0.09108 0.22245 0.23455 0.0
C327 C 0.08193 0.23428 0.20465 0.0
C328 C 0.11093 0.1974 0.19039 0.0
C329 C 0.07957 0.19017 0.23585 0.0
C330 C 0.06605 0.30066 0.25527 0.0
C331 C 0.07209 0.31312 0.29867 0.0
C332 C 0.085 0.30776 0.33527 0.0
C333 C 0.09112 0.29018 0.33071 0.0
C334 C 0.08409 0.27766 0.28979 0.0
C335 C 0.0727 0.28298 0.25093 0.0
C336 C 0.06937 0.26782 0.2063 0.0
C337 C 0.08008 0.25261 0.22658 0.0
C338 C 0.08787 0.25856 0.27682 0.0
C339 C 0.07802 0.27323 0.15517 0.0
C340 C 0.04816 0.26382 0.20169 0.0
H341 H 0.11028 0.19131 0.29376 0.0
H342 H 0.1 0.23108 0.46209 0.0
H343 H 0.06926 0.24626 0.38877 0.0
H344 H 0.07736 0.26885 0.39198 0.0
H345 H 0.08387 0.25618 0.44306 0.0
H346 H 0.12837 0.25123 0.39914 0.0
H347 H 0.1143 0.27016 0.41921 0.0
H348 H 0.12299 0.26586 0.35224 0.0
H349 H 0.07975 0.17865 0.11999 0.0
H350 H 0.05108 0.21669 0.03692 0.0
H351 H 0.06019 0.2408 0.1066 0.0
H352 H 0.11645 0.2047 0.15837 0.0
H353 H 0.1111 0.18288 0.17562 0.0
H354 H 0.12105 0.20028 0.22356 0.0
H355 H 0.0658 0.18632 0.21685 0.0
H356 H 0.07603 0.19596 0.27684 0.0
H357 H 0.08723 0.17753 0.23725 0.0
H358 H 0.10962 0.17878 0.37578 0.0
C359 C 0.10797 0.20028 0.32928 0.0
C360 C 0.30748 0.00096 0.12935 0.0
C361 C 0.32728 0.00183 0.12661 0.0
C362 C 0.33767 0.00558 0.17392 0.0
C363 C 0.30926 0.00777 0.22563 0.0
C364 C 0.29872 0.00392 0.17965 0.0
C365 C 0.27796 0.00292 0.19236 0.0
H366 H 0.2108 0.0196 0.38585 0.0
C367 C 0.29651 0.01097 0.27123 0.0
C368 C 0.27792 0.0087 0.25245 0.0
H369 H 0.20102 0.99287 0.22763 0.0
H370 H 0.23413 -0.00299 0.2063 0.0
H371 H 0.23856 -0.00181 0.40967 0.0
H372 H 0.24297 0.04949 0.35945 0.0
H373 H 0.25996 0.04904 0.40968 0.0
H374 H 0.23571 0.04468 0.42358 0.0
H375 H 0.24215 0.01752 0.45729 0.0
H376 H 0.26141 0.0042 0.42973 0.0
C377 C 0.27136 0.98331 0.17816 0.0
C378 C 0.26714 0.01598 0.16217 0.0
C379 C 0.32206 0.01777 0.45952 0.0
C380 C 0.31302 0.02083 0.50896 0.0
C381 C 0.29479 0.02768 0.51103 0.0
C382 C 0.28495 0.02944 0.46441 0.0
C383 C 0.29332 0.02405 0.41518 0.0
C384 C 0.31194 0.01955 0.41313 0.0
C385 C 0.31867 0.01556 0.35678 0.0
C386 C 0.30033 0.01607 0.32606 0.0
C387 C 0.28561 0.02076 0.36077 0.0
C388 C 0.32725 -0.00335 0.34902 0.0
C389 C 0.33244 0.03076 0.34618 0.0
C390 C 0.21565 0.01498 0.34614 0.0
C391 C 0.20334 0.00623 0.30827 0.0
C392 C 0.21032 -0.00022 0.25751 0.0
C393 C 0.22951 0.00202 0.24546 0.0
C394 C 0.24189 0.01014 0.28523 0.0
C395 C 0.23465 0.01626 0.33464 0.0
C396 C 0.24939 0.02212 0.37518 0.0
C397 C 0.26688 0.01873 0.34253 0.0
C398 C 0.26276 0.01219 0.28911 0.0
C399 C 0.24787 0.01006 0.42045 0.0
C400 C 0.24691 0.04237 0.39347 0.0
H401 H 0.33768 0.01135 0.25725 0.0
H402 H 0.29916 -0.00212 0.09353 0.0
H403 H 0.27341 0.02964 0.17027 0.0
H404 H 0.25233 0.01695 0.17414 0.0
H405 H 0.26757 0.01167 0.11871 0.0
H406 H 0.2817 0.97405 0.19222 0.0
H407 H 0.26975 0.97982 0.13452 0.0
H408 H 0.25805 0.98049 0.19719 0.0
H409 H 0.33621 0.01281 0.4566 0.0
H410 H 0.28777 0.03081 0.54869 0.0
H411 H 0.27088 0.03408 0.46853 0.0
H412 H 0.31807 0.98701 0.36662 0.0
H413 H 0.3412 -0.00326 0.36856 0.0
H414 H 0.32885 0.99115 0.30693 0.0
H415 H 0.32936 0.03582 0.30807 0.0
H416 H 0.34718 0.02629 0.34609 0.0
H417 H 0.33147 0.0427 0.37673 0.0
H418 H 0.35281 0.00628 0.17281 0.0
C419 C 0.32884 0.00864 0.22301 0.0
C420 C 0.47994 0.25197 0.18783 0.0
C421 C 0.47714 0.27025 0.18318 0.0
C422 C 0.4746 0.2824 0.22926 0.0
C423 C 0.47994 0.25907 0.28385 0.0
C424 C 0.48085 0.2466 0.23906 0.0
C425 C 0.48261 0.22783 0.25401 0.0
H426 H 0.49617 0.17694 0.45571 0.0
C427 C 0.48355 0.25009 0.33077 0.0
C428 C 0.48485 0.23162 0.31438 0.0
H429 H 0.48304 0.15704 0.29258 0.0
H430 H 0.48362 0.18758 0.27032 0.0
H431 H 0.52605 0.20458 0.43086 0.0
H432 H 0.46782 0.20953 0.46953 0.0
H433 H 0.48042 0.22676 0.50878 0.0
H434 H 0.48576 0.20388 0.51404 0.0
H435 H 0.51847 0.20791 0.49838 0.0
H436 H 0.52378 0.22653 0.46268 0.0
C437 C 0.50009 0.21898 0.22745 0.0
C438 C 0.46424 0.21752 0.23765 0.0
C439 C 0.49902 0.289 0.50355 0.0
C440 C 0.50728 0.28536 0.55098 0.0
C441 C 0.51018 0.26753 0.55917 0.0
C442 C 0.505 0.25344 0.51989 0.0
C443 C 0.49731 0.25732 0.4716 0.0
C444 C 0.49451 0.27489 0.46422 0.0
C445 C 0.4882 0.27677 0.4089 0.0
C446 C 0.48762 0.25734 0.38397 0.0
C447 C 0.49262 0.24605 0.42098 0.0
C448 C 0.50342 0.28787 0.38393 0.0
C449 C 0.46844 0.28514 0.41199 0.0
C450 C 0.49311 0.17909 0.41526 0.0
C451 C 0.48905 0.1646 0.37629 0.0
C452 C 0.48598 0.16801 0.32358 0.0
C453 C 0.48608 0.18572 0.3109 0.0
C454 C 0.48928 0.20012 0.35134 0.0
C455 C 0.49301 0.19649 0.4023 0.0
C456 C 0.49647 0.213 0.44077 0.0
C457 C 0.49286 0.22732 0.40583 0.0
C458 C 0.48891 0.21994 0.35296 0.0
C459 C 0.51719 0.21306 0.45959 0.0
C460 C 0.48197 0.21339 0.48598 0.0
H461 H 0.47432 0.28704 0.31258 0.0
H462 H 0.48141 0.24228 0.15278 0.0
H463 H 0.45194 0.2262 0.24719 0.0
H464 H 0.46202 0.20591 0.25914 0.0
H465 H 0.46393 0.21292 0.19431 0.0
H466 H 0.51247 0.22805 0.23507 0.0
H467 H 0.49802 0.21599 0.18383 0.0
H468 H 0.50359 0.20642 0.24289 0.0
H469 H 0.49716 0.30267 0.49592 0.0
H470 H 0.51669 0.26457 0.59552 0.0
H471 H 0.50753 0.24011 0.52824 0.0
H472 H 0.51767 0.28423 0.39638 0.0
H473 H 0.50171 0.30241 0.39666 0.0
H474 H 0.50369 0.28553 0.3403 0.0
H475 H 0.46096 0.28255 0.44852 0.0
H476 H 0.45916 0.27925 0.37904 0.0
H477 H 0.46925 0.29986 0.41226 0.0
H478 H 0.47229 0.29643 0.22658 0.0
C479 C 0.47592 0.27694 0.27928 0.0
Tb480 Tb 1.0082 -0.00285 0.69433 0.0
Tb481 Tb 0.03638 0.98092 0.77574 0.0
C482 C 0.99312 0.98527 0.79889 0.0
C483 C 0.9929 0.0323 0.62531 0.0
C484 C 1.00178 0.06782 0.61155 0.0
C485 C 0.98588 0.0592 0.58642 0.0
C486 C 0.98137 0.04151 0.59364 0.0
C487 C 1.00878 0.04091 0.6498 0.0
C488 C 0.01312 0.05846 0.64332 0.0
C489 C 0.98882 0.01391 0.63494 0.0
O490 O 0.01567 0.01835 0.75807 0.0
O491 O 0.04433 0.00908 0.78283 0.0
O492 O 0.05151 0.98009 0.70101 0.0
O493 O 0.03651 0.003 0.66915 0.0
O494 O 0.04661 0.98 0.85314 0.0
O495 O 0.05646 0.9617 0.78722 0.0
O496 O 0.0182 0.95908 0.74172 0.0
O497 O 0.01068 0.9689 0.663 0.0
O498 O 0.98981 0.98489 0.74785 0.0
O499 O 0.01026 0.9876 0.818 0.0
C500 C 0.03217 0.02185 0.78022 0.0
O501 O 1.00137 0.00227 0.61721 0.0
O502 O 0.98443 0.01242 0.68382 0.0
C503 C 0.05064 0.99202 0.66788 0.0
C504 C 0.04741 0.94932 0.86204 0.0
C505 C 0.03097 0.91647 0.87855 0.0
C506 C 0.05051 0.91812 0.87472 0.0
C507 C 0.05868 0.93446 0.86599 0.0
C508 C 0.02802 0.94787 0.8695 0.0
C509 C 0.01989 0.93161 0.87754 0.0
C510 C 0.05474 0.96476 0.83854 0.0
C511 C 0.01274 0.95585 0.69205 0.0
H512 H 0.97699 0.06613 0.5614 0.0
H513 H 0.96904 0.03506 0.57449 0.0
H514 H 0.01799 0.03399 0.67385 0.0
H515 H 0.02571 0.06452 0.66207 0.0
H516 H 0.0593 0.90657 0.87543 0.0
H517 H 0.0736 0.93521 0.85928 0.0
H518 H 0.01893 0.95901 0.86587 0.0
H519 H 1.00482 0.93072 0.88114 0.0
Tb520 Tb 0.50902 0.97395 0.68045 0.0
Tb521 Tb 0.52653 0.00696 0.76184 0.0
C522 C 0.52595 0.96818 0.79025 0.0
C523 C 0.47692 0.93754 0.63572 0.0
C524 C 0.44076 0.92833 0.66714 0.0
C525 C 0.45595 0.92862 0.7027 0.0
C526 C 0.47384 0.9334 0.68731 0.0
C527 C 0.46234 0.9351 0.59844 0.0
C528 C 0.44442 0.93058 0.61395 0.0
C529 C 0.49355 0.94798 0.62403 0.0
O530 O 0.48506 0.98591 0.72515 0.0
O531 O 0.4999 0.00137 0.79811 0.0
O532 O 0.50749 0.01715 0.70596 0.0
O533 O 0.51292 -0.0037 0.63538 0.0
O534 O 0.5391 0.01827 0.83374 0.0
O535 O 0.53221 0.03452 0.77296 0.0
O536 O 0.54819 0.00097 0.7022 0.0
O537 O 0.53899 0.97277 0.6644 0.0
O538 O 0.51166 0.96506 0.75772 0.0
O539 O 0.53658 0.98247 0.78936 0.0
C540 C 0.48466 0.9943 0.77411 0.0
O541 O 0.49015 0.96465 0.61928 0.0
O542 O 0.50843 0.94643 0.65301 0.0
C543 C 0.50834 0.01261 0.65451 0.0
C544 C 0.55993 0.04171 0.81964 0.0
C545 C 0.59573 0.0575 0.8157 0.0
C546 C 0.58009 0.06806 0.83085 0.0
C547 C 0.56235 0.06021 0.83281 0.0
C548 C 0.57541 0.03111 0.80398 0.0
C549 C 0.59317 0.03892 0.80226 0.0
C550 C 0.54103 0.03387 0.81748 0.0
C551 C 0.55147 0.98588 0.67165 0.0
H552 H 0.45378 0.92654 0.74356 0.0
H553 H 0.48488 0.93517 0.71698 0.0
H554 H 0.46441 0.93831 0.55856 0.0
H555 H 0.43319 0.93065 0.58522 0.0
H556 H 0.58153 0.08241 0.84081 0.0
H557 H 0.55046 0.06862 0.84392 0.0
H558 H 0.57376 0.01681 0.79283 0.0
H559 H 0.60492 0.03034 0.79127 0.0
Tb560 Tb 0.51178 0.48732 0.78386 0.0
Tb561 Tb 0.54072 0.50428 0.70049 0.0
C562 C 0.49958 0.49326 0.66692 0.0
C563 C 0.4929 0.45383 0.86669 0.0
C564 C 0.4928 0.42045 0.9067 0.0
C565 C 0.48114 0.4344 0.92858 0.0
C566 C 0.48117 0.45087 0.90869 0.0
C567 C 0.50499 0.44018 0.84568 0.0
C568 C 0.50494 0.42367 0.86544 0.0
C569 C 0.49133 0.47056 0.84257 0.0
O570 O 0.53382 0.46848 0.76339 0.0
O571 O 0.54132 0.47522 0.68077 0.0
O572 O 0.55737 0.49837 0.76805 0.0
O573 O 0.53461 0.50085 0.83158 0.0
O574 O 0.55025 0.5068 0.62364 0.0
O575 O 0.56377 0.52126 0.69271 0.0
O576 O 0.52677 0.52658 0.74577 0.0
O577 O 0.50069 0.51375 0.78014 0.0
O578 O 0.49917 0.48267 0.70421 0.0
O579 O 0.51317 0.50498 0.66462 0.0
C580 C 0.5407 0.46396 0.71606 0.0
O581 O 0.5024 0.48386 0.86064 0.0
O582 O 0.49039 0.46857 0.79105 0.0
C583 C 0.55238 0.50078 0.81814 0.0
C584 C 0.56248 0.53594 0.61656 0.0
C585 C 0.56339 0.56857 0.57233 0.0
C586 C 0.57987 0.56133 0.59086 0.0
C587 C 0.57941 0.54521 0.6125 0.0
C588 C 0.5459 0.54314 0.59894 0.0
C589 C 0.54636 0.55925 0.57686 0.0
C590 C 0.56249 0.51922 0.64115 0.0
C591 C 0.51 0.52759 0.76684 0.0
H592 H 0.47187 0.43259 0.96101 0.0
H593 H 0.47174 0.46119 0.92549 0.0
H594 H 0.51411 0.4421 0.813 0.0
H595 H 0.514 0.41327 0.84716 0.0
H596 H 0.59319 0.56822 0.58932 0.0
H597 H 0.59233 0.54004 0.62652 0.0
H598 H 0.53261 0.53634 0.60221 0.0
H599 H 0.5334 0.56424 0.56268 0.0
Tb600 Tb 0.03353 0.50818 0.69917 0.0
Tb601 Tb 0.0207 0.47635 0.76751 0.0
C602 C 0.01934 0.51635 0.8152 0.0
C603 C 0.05682 0.54801 0.65278 0.0
C604 C 0.08406 0.57525 0.65293 0.0
C605 C 0.06729 0.57583 0.62406 0.0
C606 C 0.05381 0.5623 0.62394 0.0
C607 C 0.07305 0.5478 0.68399 0.0
C608 C 0.0866 0.56135 0.68405 0.0
C609 C 0.04318 0.5332 0.64798 0.0
O610 O 0.05965 0.49913 0.73219 0.0
O611 O 0.04786 0.48533 0.8007 0.0
O612 O 0.03808 0.46544 0.7014 0.0
O613 O 0.02917 0.48409 0.64326 0.0
O614 O 0.01279 0.46679 0.8383 0.0
O615 O 0.01684 0.44872 0.76638 0.0
O616 O 0.99666 0.479 0.71601 0.0
O617 O 1.00308 0.50678 0.6917 0.0
O618 O 0.03252 0.51958 0.78198 0.0
O619 O 1.00964 0.50129 0.80811 0.0
C620 C 0.06193 0.49234 0.77703 0.0
O621 O 0.04994 0.51709 0.63964 0.0
O622 O 0.02981 0.53447 0.68281 0.0
C623 C 0.03502 0.46843 0.65252 0.0
C624 C 0.99432 0.44023 0.82481 0.0
C625 C 0.96198 0.41981 0.83995 0.0
C626 C 0.97958 0.4117 0.83437 0.0
C627 C 0.99558 0.42184 0.82703 0.0
C628 C 0.9768 0.44842 0.82952 0.0
C629 C 0.96078 0.43831 0.83733 0.0
C630 C 0.01138 0.45032 0.81541 0.0
C631 C 0.99162 0.49311 0.6942 0.0
H632 H 0.06484 0.5865 0.60029 0.0
H633 H 0.04124 0.56273 0.60011 0.0
H634 H 0.0755 0.5369 0.70687 0.0
H635 H 0.09944 0.56045 0.70632 0.0
H636 H 0.981 0.39747 0.83527 0.0
H637 H 1.00899 0.41527 0.82272 0.0
H638 H 0.97552 0.4626 0.82731 0.0
H639 H 0.9475 0.44505 0.84218 0.0
C640 C 0.17198 0.01698 0.34104 0.0
C641 C 0.18401 0.00263 0.32593 0.0
C642 C 0.1561 0.01473 0.3718 0.0
C643 C 0.13993 0.98764 0.47311 0.0
H644 H 0.0919 0.00936 0.4552 0.0
C645 C 0.0785 0.97899 0.61672 0.0
C646 C 0.06569 0.99296 0.62773 0.0
C647 C 0.0922 0.97953 0.57758 0.0
C648 C 0.10528 0.00341 0.46151 0.0
H649 H 0.18866 0.97463 0.33062 0.0
H650 H 0.1609 0.9706 0.38423 0.0
H651 H 0.11625 0.01112 0.38924 0.0
H652 H 0.05756 0.01867 0.60631 0.0
H653 H 0.08175 0.01998 0.53986 0.0
H654 H 0.12943 0.98049 0.54614 0.0
C655 C 0.16365 0.98359 0.37195 0.0
C656 C 0.11924 0.00433 0.42325 0.0
C657 C 0.17939 0.9858 0.34049 0.0
C658 C 0.06711 0.0076 0.59884 0.0
C659 C 0.08096 0.00826 0.56018 0.0
C660 C 0.12609 0.98692 0.51171 0.0
C661 C 0.15207 -0.00185 0.38926 0.0
C662 C 0.13677 -0.00354 0.42849 0.0
C663 C 0.09371 0.99419 0.54856 0.0
C664 C 0.1085 0.99482 0.50674 0.0
H665 H 0.17548 0.03021 0.33161 0.0
H666 H 0.14763 0.02627 0.38466 0.0
H667 H 0.15337 0.98171 0.47907 0.0
H668 H 0.07776 0.96741 0.63769 0.0
H669 H 0.10139 0.96823 0.56957 0.0
C670 C 0.47824 0.14392 0.43951 0.0
C671 C 0.48765 0.14633 0.39252 0.0
C672 C 0.47876 0.12761 0.45973 0.0
C673 C 0.50725 0.0868 0.45631 0.0
H674 H 0.46626 0.07177 0.54008 0.0
C675 C 0.50969 0.0233 0.56479 0.0
C676 C 0.50429 0.02607 0.61834 0.0
C677 C 0.50667 0.03646 0.5316 0.0
C678 C 0.47785 0.0758 0.5169 0.0
H679 H 0.50424 0.1331 0.32846 0.0
H680 H 0.50483 0.10424 0.36321 0.0
H681 H 0.46212 0.09676 0.48962 0.0
H682 H 0.49116 0.04477 0.67857 0.0
H683 H 0.48562 0.06751 0.62059 0.0
H684 H 0.52292 0.06569 0.48387 0.0
C685 C 0.49734 0.1152 0.38503 0.0
C686 C 0.47552 0.09019 0.48801 0.0
C687 C 0.49684 0.13166 0.36471 0.0
C688 C 0.49549 0.04217 0.63758 0.0
C689 C 0.49223 0.05519 0.60425 0.0
C690 C 0.50951 0.07225 0.48482 0.0
C691 C 0.48857 0.11306 0.4334 0.0
C692 C 0.49033 0.09622 0.45835 0.0
C693 C 0.49789 0.05257 0.55096 0.0
C694 C 0.49497 0.06685 0.51645 0.0
H695 H 0.47083 0.15488 0.46163 0.0
H696 H 0.47202 0.1267 0.4973 0.0
H697 H 0.51906 0.0911 0.43451 0.0
H698 H 0.51657 0.01109 0.54873 0.0
H699 H 0.51112 0.03401 0.49068 0.0
C700 C 0.37349 0.50831 0.34156 0.0
C701 C 0.35633 0.50134 0.3566 0.0
C702 C 0.39013 0.50479 0.3676 0.0
C703 C 0.41163 0.47716 0.46341 0.0
H704 H 0.44141 0.52003 0.50526 0.0
C705 C 0.46806 0.4816 0.6311 0.0
C706 C 0.48417 0.49221 0.62665 0.0
C707 C 0.45328 0.48131 0.59432 0.0
C708 C 0.43353 0.5078 0.49337 0.0
H709 H 0.34317 0.48477 0.40931 0.0
H710 H 0.37218 0.47827 0.4541 0.0
H711 H 0.41498 0.52102 0.44532 0.0
H712 H 0.4974 0.51051 0.57876 0.0
H713 H 0.47201 0.50969 0.51442 0.0
H714 H 0.43017 0.46397 0.51187 0.0
C715 C 0.37293 0.48629 0.42183 0.0
C716 C 0.41829 0.50838 0.45876 0.0
C717 C 0.35628 0.48988 0.39592 0.0
C718 C 0.48521 0.50225 0.58385 0.0
C719 C 0.47051 0.50188 0.54697 0.0
C720 C 0.42698 0.47655 0.49788 0.0
C721 C 0.38998 0.49428 0.40951 0.0
C722 C 0.40703 0.49311 0.44346 0.0
C723 C 0.45421 0.49156 0.55185 0.0
C724 C 0.43811 0.49191 0.51371 0.0
H725 H 0.37384 0.51753 0.31232 0.0
H726 H 0.40301 0.51097 0.35645 0.0
H727 H 0.40339 0.46509 0.45225 0.0
H728 H 0.46669 0.47374 0.6636 0.0
H729 H 0.44093 0.47336 0.60004 0.0
C730 C 0.04579 0.33404 0.32308 0.0
C731 C 0.06465 0.33148 0.30956 0.0
C732 C 0.03993 0.35049 0.34955 0.0
C733 C 0.03739 0.37884 0.44602 0.0
H734 H 0.05823 0.42532 0.42779 0.0
C735 C 0.04184 0.43646 0.61832 0.0
C736 C 0.03757 0.45382 0.60801 0.0
C737 C 0.04339 0.42245 0.5768 0.0
C738 C 0.05212 0.41248 0.43319 0.0
H739 H 0.09183 0.34438 0.30898 0.0
H740 H 0.08168 0.37307 0.35432 0.0
H741 H 0.06284 0.39989 0.35915 0.0
H742 H 0.03179 0.47004 0.54558 0.0
H743 H 0.03461 0.44555 0.473 0.0
H744 H 0.02692 0.3913 0.52031 0.0
C745 C 0.07132 0.36252 0.34471 0.0
C746 C 0.05486 0.39787 0.39398 0.0
C747 C 0.07717 0.34608 0.31864 0.0
C748 C 0.03513 0.45685 0.55498 0.0
C749 C 0.0368 0.44282 0.51333 0.0
C750 C 0.03474 0.39339 0.48526 0.0
C751 C 0.05282 0.3647 0.36268 0.0
C752 C 0.0478 0.38079 0.40033 0.0
C753 C 0.04079 0.4254 0.52378 0.0
C754 C 0.04238 0.41032 0.47987 0.0
H755 H 0.03592 0.32293 0.31707 0.0
H756 H 0.02551 0.35181 0.36211 0.0
H757 H 0.03194 0.36587 0.45269 0.0
H758 H 0.04381 0.4336 0.65861 0.0
H759 H 0.0468 0.40928 0.58627 0.0
C760 C 0.85276 0.97508 0.07884 0.0
C761 C 0.85584 0.98416 0.13009 0.0
C762 C 0.86766 0.97186 0.04322 0.0
C763 C 0.91966 0.97171 0.03126 0.0
H764 H 0.91006 0.98729 0.89447 0.0
C765 C 0.98021 0.98612 0.89124 0.0
C766 C 0.97735 0.98315 0.83596 0.0
C767 C 0.96543 0.98437 0.92629 0.0
C768 C 0.91303 0.98255 0.93195 0.0
H769 H 0.87706 -0.00386 0.18507 0.0
H770 H 0.90312 0.99002 0.12386 0.0
H771 H 0.88457 0.98603 0.95686 0.0
H772 H 0.95655 0.97557 0.77449 0.0
H773 H 0.93094 0.97203 0.83523 0.0
H774 H 0.94808 0.96812 0.0065 0.0
C775 C 0.88923 0.98538 0.11089 0.0
C776 C 0.89832 0.98184 0.96792 0.0
C777 C 0.87432 0.98881 0.14617 0.0
C778 C 0.95929 0.97813 0.81674 0.0
C779 C 0.94452 0.9762 0.85181 0.0
C780 C 0.93435 0.97222 0.99506 0.0
C781 C 0.88602 0.97749 0.05825 0.0
C782 C 0.90145 0.97663 0.01835 0.0
C783 C 0.94729 0.97938 0.90726 0.0
C784 C 0.93136 0.97789 0.945 0.0
H785 H 0.83864 0.97168 0.06499 0.0
H786 H 0.86469 0.96558 0.00322 0.0
H787 H 0.92257 0.96746 0.0695 0.0
H788 H 0.99389 0.99005 0.90768 0.0
H789 H 0.96822 0.98728 0.96843 0.0
C790 C 0.55913 0.85252 0.08118 0.0
C791 C 0.54299 0.84179 0.08317 0.0
C792 C 0.55855 0.86812 0.05639 0.0
C793 C 0.53262 0.88426 0.94855 0.0
H794 H 0.55367 0.93132 0.99565 0.0
C795 C 0.51528 0.94288 0.83724 0.0
C796 C 0.5293 0.95546 0.82918 0.0
C797 C 0.5182 0.93021 0.87162 0.0
C798 C 0.54795 0.91818 0.98164 0.0
H799 H 0.51335 0.8397 0.06509 0.0
H800 H 0.51228 0.86679 0.02254 0.0
H801 H 0.55648 0.90746 0.05237 0.0
H802 H 0.5573 0.96483 0.8524 0.0
H803 H 0.56261 0.94227 0.91216 0.0
H804 H 0.52435 0.89451 0.87782 0.0
C805 C 0.52546 0.86309 0.03905 0.0
C806 C 0.54951 0.90456 0.01422 0.0
C807 C 0.52603 0.84764 0.06371 0.0
C808 C 0.54624 0.95529 0.85762 0.0
C809 C 0.54923 0.94241 0.89201 0.0
C810 C 0.53122 0.8977 0.91603 0.0
C811 C 0.54182 0.87312 0.03314 0.0
C812 C 0.54147 0.88756 0.99841 0.0
C813 C 0.53532 0.92951 0.89874 0.0
C814 C 0.53845 0.91499 0.93249 0.0
H815 H 0.57241 0.84824 0.0955 0.0
H816 H 0.57137 0.87561 0.05249 0.0
H817 H 0.52673 0.87117 0.93454 0.0
H818 H 0.50192 0.94274 0.81684 0.0
H819 H 0.50693 0.92089 0.87684 0.0
C820 C 0.67403 0.47859 0.14013 0.0
C821 C 0.68835 0.4915 0.15181 0.0
C822 C 0.65817 0.4822 0.11107 0.0
C823 C 0.62227 0.49427 0.06341 0.0
H824 H 0.63103 0.51916 0.94175 0.0
C825 C 0.56261 0.50463 0.9144 0.0
C826 C 0.56721 0.50241 0.86023 0.0
C827 C 0.57663 0.50544 0.95363 0.0
C828 C 0.62831 0.5121 0.97539 0.0
H829 H 0.69677 0.51867 0.14405 0.0
H830 H 0.66882 0.52518 0.09373 0.0
H831 H 0.65629 0.51681 0.00516 0.0
H832 H 0.59039 0.49951 0.80526 0.0
H833 H 0.61464 0.50063 0.87308 0.0
H834 H 0.59455 0.48889 0.0325 0.0
C835 C 0.67003 0.51211 0.10654 0.0
C836 C 0.64278 0.51098 0.01232 0.0
C837 C 0.68594 0.50849 0.13599 0.0
C838 C 0.58624 0.50128 0.84645 0.0
C839 C 0.60023 0.50206 0.88558 0.0
C840 C 0.60782 0.49537 0.02646 0.0
C841 C 0.6561 0.49886 0.09265 0.0
C842 C 0.64008 0.50177 0.05644 0.0
C843 C 0.59567 0.50404 0.93981 0.0
C844 C 0.61069 0.50405 0.98137 0.0
H845 H 0.67544 0.46537 0.15186 0.0
H846 H 0.64797 0.47156 0.10092 0.0
H847 H 0.61951 0.48729 0.09717 0.0
H848 H 0.54813 0.50562 0.92667 0.0
H849 H 0.57252 0.50722 0.99485 0.0
C850 C 0.99751 0.64712 0.15086 0.0
C851 C 0.97839 0.64949 0.1612 0.0
C852 C 1.00386 0.63096 0.12372 0.0
C853 C 0.99064 0.58378 0.07417 0.0
H854 H 0.01984 0.59225 0.95185 0.0
C855 C 0.99911 0.53 0.89031 0.0
C856 C 0.01589 0.52991 0.86179 0.0
C857 C 0.99578 0.54347 0.93262 0.0
C858 C 0.01202 0.58948 0.98622 0.0
H859 H 0.95115 0.6365 0.15543 0.0
H860 H 0.96221 0.60824 0.10898 0.0
H861 H 0.01284 0.61704 0.01932 0.0
H862 H 0.04269 0.54339 0.85704 0.0
H863 H 0.0372 0.56634 0.93129 0.0
H864 H 0.98973 0.55617 0.04079 0.0
C865 C 0.97234 0.61878 0.12148 0.0
C866 C 1.008 0.60377 0.02505 0.0
C867 C 0.96599 0.63496 0.14806 0.0
C868 C 0.02947 0.54321 0.87757 0.0
C869 C 0.02627 0.55647 0.92014 0.0
C870 C 0.99482 0.56939 0.03548 0.0
C871 C 0.99121 0.61686 0.10694 0.0
C872 C 0.99709 0.60116 0.06921 0.0
C873 C 1.00925 0.55702 0.94776 0.0
C874 C 1.00541 0.57207 0.99061 0.0
H875 H 1.00732 0.65817 0.16012 0.0
H876 H 0.01853 0.6298 0.11367 0.0
H877 H 0.98225 0.58132 0.10786 0.0
H878 H 0.98836 0.51994 0.87909 0.0
H879 H 0.98242 0.54351 0.95243 0.0
C880 C 0.08035 0.20008 0.49429 0.0
C881 C 0.09764 0.1952 0.47103 0.0
C882 C 0.07087 0.18855 0.52394 0.0
C883 C 0.06665 0.14051 0.51916 0.0
H884 H 0.03055 0.15147 0.63154 0.0
C885 C 1.0092 0.09011 0.55001 0.0
C886 C 1.00779 0.08596 0.60202 0.0
C887 C 0.01893 0.10546 0.53997 0.0
C888 C 0.04061 0.14824 0.6002 0.0
H889 H 0.11977 0.17574 0.46684 0.0
H890 H 0.10332 0.15568 0.51938 0.0
H891 H 0.05287 0.17459 0.61177 0.0
H892 H 0.01377 0.09541 0.68476 0.0
H893 H 0.03087 0.12217 0.66715 0.0
H894 H 0.05452 0.11429 0.50725 0.0
C895 C 0.09685 0.16817 0.51334 0.0
C896 C 0.05336 0.16144 0.58891 0.0
C897 C 0.10631 0.17967 0.48353 0.0
C898 C 0.01486 0.09821 0.64417 0.0
C899 C 0.02456 0.11357 0.63414 0.0
C900 C 0.05391 0.12742 0.5302 0.0
C901 C 0.07855 0.17198 0.53096 0.0
C902 C 0.06645 0.15772 0.54801 0.0
C903 C 0.02737 0.11693 0.58177 0.0
C904 C 0.04061 0.13117 0.57035 0.0
H905 H 0.07322 0.2119 0.48516 0.0
H906 H 0.0568 0.19189 0.53693 0.0
H907 H 0.07627 0.13727 0.4867 0.0
H908 H 1.00393 0.08089 0.51679 0.0
H909 H 0.02058 0.10793 0.49923 0.0
C910 C 0.31031 0.00463 0.58833 0.0
C911 C 0.32139 0.01442 0.55643 0.0
C912 C 0.31852 0.99557 0.62679 0.0
C913 C 0.36334 0.98898 0.69616 0.0
H914 H 0.34927 0.93875 0.67 0.0
C915 C 0.41736 0.94048 0.73512 0.0
C916 C 0.42118 0.92971 0.68692 0.0
C917 C 0.39961 0.94767 0.74453 0.0
C918 C 0.35322 0.95274 0.67854 0.0
H919 H 0.34958 0.02358 0.54293 0.0
H920 H 0.364 0.00754 0.60935 0.0
H921 H 0.32932 0.9609 0.63747 0.0
H922 H 0.40834 0.91501 0.61658 0.0
H923 H 0.37796 0.9285 0.63099 0.0
H924 H 0.38806 0.98083 0.73278 0.0
C925 C 0.34892 0.00696 0.60499 0.0
C926 C 0.3417 0.96549 0.66025 0.0
C927 C 0.34071 0.016 0.56644 0.0
C928 C 0.40611 0.92393 0.65291 0.0
C929 C 0.38851 0.93149 0.6617 0.0
C930 C 0.37487 0.97626 0.7143 0.0
C931 C 0.33799 -0.00388 0.63423 0.0
C932 C 0.34722 0.98362 0.66623 0.0
C933 C 0.38559 0.94463 0.70541 0.0
C934 C 0.3705 0.95789 0.70285 0.0
H935 H 0.29539 0.00297 0.58136 0.0
H936 H 0.30973 0.98746 0.649 0.0
H937 H 0.36774 0.0029 0.70231 0.0
H938 H 0.42842 0.94507 0.76307 0.0
H939 H 0.39746 0.95712 0.77975 0.0
C940 C 0.53397 0.30282 0.59552 0.0
C941 C 0.51458 0.30045 0.5883 0.0
C942 C 0.54128 0.31921 0.61941 0.0
C943 C 0.54931 0.35935 0.62085 0.0
H944 H 0.52802 0.38794 0.74316 0.0
C945 C 0.54528 0.43649 0.65073 0.0
C946 C 0.5465 0.44524 0.70287 0.0
C947 C 0.54651 0.41784 0.641 0.0
C948 C 0.53437 0.38007 0.7094 0.0
H949 H 0.48754 0.31259 0.60293 0.0
H950 H 0.50024 0.34108 0.64617 0.0
H951 H 0.51984 0.35627 0.72433 0.0
H952 H 0.55202 0.44169 0.78488 0.0
H953 H 0.55426 0.40933 0.76778 0.0
H954 H 0.56317 0.3834 0.60458 0.0
C955 C 0.50981 0.33039 0.63333 0.0
C956 C 0.52959 0.36198 0.69855 0.0
C957 C 0.50253 0.31414 0.60869 0.0
C958 C 0.55069 0.43526 0.74432 0.0
C959 C 0.55194 0.41673 0.73463 0.0
C960 C 0.55395 0.37753 0.63139 0.0
C961 C 0.52925 0.3333 0.63707 0.0
C962 C 0.53669 0.35155 0.65357 0.0
C963 C 0.54904 0.40777 0.68329 0.0
C964 C 0.54623 0.38813 0.67521 0.0
H965 H 0.54347 0.29247 0.57934 0.0
H966 H 0.55631 0.32114 0.62207 0.0
H967 H 0.55481 0.35162 0.58555 0.0
H968 H 0.54202 0.44387 0.61813 0.0
H969 H 0.54417 0.41125 0.60099 0.0
C970 C 0.22142 0.62077 0.46167 0.0
C971 C 0.2302 0.60432 0.46322 0.0
C972 C 0.2086 0.6271 0.50086 0.0
C973 C 0.18447 0.61392 0.62244 0.0
H974 H 0.14078 0.62887 0.55003 0.0
C975 C 0.11104 0.59528 0.6883 0.0
C976 C 0.09964 0.58784 0.64557 0.0
C977 C 0.12702 0.60537 0.67938 0.0
C978 C 0.15283 0.62468 0.57101 0.0
H979 H 0.23363 0.58227 0.50888 0.0
H980 H 0.21095 0.59262 0.57512 0.0
H981 H 0.17125 0.63184 0.5118 0.0
H982 H 0.09583 0.58548 0.56028 0.0
H983 H 0.12357 0.60241 0.54454 0.0
H984 H 0.16568 0.6047 0.67812 0.0
C985 C 0.21412 0.60116 0.54526 0.0
C986 C 0.17051 0.6267 0.54949 0.0
C987 C 0.22717 0.59508 0.50685 0.0
C988 C 0.10411 0.59128 0.59421 0.0
C989 C 0.12007 0.60116 0.58525 0.0
C990 C 0.16671 0.61142 0.64314 0.0
C991 C 0.20392 0.61681 0.54144 0.0
C992 C 0.18648 0.62023 0.57303 0.0
C993 C 0.13201 0.60803 0.62748 0.0
C994 C 0.1506 0.61568 0.61565 0.0
H995 H 0.22374 0.62827 0.42871 0.0
H996 H 0.20155 0.63951 0.49739 0.0
H997 H 0.19649 0.60956 0.64318 0.0
H998 H 0.10781 0.59298 0.72842 0.0
H999 H 0.13573 0.61063 0.71296 0.0
C1000 C 0.93168 0.80575 0.0183 0.0
C1001 C 0.93897 0.7888 0.02302 0.0
C1002 C 0.93992 0.81659 0.98416 0.0
C1003 C 0.98681 0.82255 0.9307 0.0
H1004 H 0.96367 0.86325 0.87969 0.0
C1005 C 0.02695 0.88823 0.91922 0.0
C1006 C 0.02181 0.89893 0.88062 0.0
C1007 C 0.01695 0.87249 0.92395 0.0
C1008 C 0.97041 0.8518 0.89274 0.0
H1009 H 0.95908 0.7691 0.98987 0.0
H1010 H 0.97255 0.78752 0.9284 0.0
H1011 H 0.94411 0.83905 0.90393 0.0
H1012 H 1.00313 0.90117 0.81445 0.0
H1013 H 0.98599 0.87345 0.82162 0.0
H1014 H 0.0131 0.83523 0.91933 0.0
C1015 C 0.96106 0.7928 0.95295 0.0
C1016 C 0.95915 0.83801 0.90726 0.0
C1017 C 0.95305 0.78207 0.98773 0.0
C1018 C 1.00713 0.89324 0.84515 0.0
C1019 C 0.99729 0.87742 0.84941 0.0
C1020 C 0.99807 0.83623 0.91565 0.0
C1021 C 0.9554 0.81057 0.95322 0.0
C1022 C 0.96718 0.82348 0.92809 0.0
C1023 C 1.00179 0.86704 0.88963 0.0
C1024 C 0.99 0.85131 0.8982 0.0
H1025 H 0.92048 0.81117 0.04376 0.0
H1026 H 0.93505 0.83016 0.98538 0.0
H1027 H 0.99358 0.81172 0.94709 0.0
H1028 H 0.03818 0.89242 0.94707 0.0
H1029 H 0.02066 0.86499 0.9559 0.0
C1030 C 0.72367 0.0858 0.04163 0.0
C1031 C 0.73734 0.07252 0.03684 0.0
C1032 C 0.71495 0.09066 0.99657 0.0
C1033 C 0.70093 0.06655 0.87038 0.0
H1034 H 0.67054 0.10862 0.86843 0.0
C1035 C 0.6202 0.07875 0.85871 0.0
C1036 C 0.61481 0.06559 0.81688 0.0
C1037 C 0.63877 0.08457 0.86447 0.0
C1038 C 0.67908 0.09684 0.86775 0.0
H1039 H 0.75433 0.05556 0.9812 0.0
H1040 H 0.73928 0.06426 0.90226 0.0
H1041 H 0.6999 0.11087 0.91859 0.0
H1042 H 0.62439 0.04946 0.74542 0.0
H1043 H 0.65702 0.05938 0.75622 0.0
H1044 H 0.67956 0.05221 0.823 0.0
C1045 C 0.73503 0.07067 0.94087 0.0
C1046 C 0.69589 0.09812 0.89646 0.0
C1047 C 0.74374 0.06578 0.98609 0.0
C1048 C 0.62819 0.0593 0.77883 0.0
C1049 C 0.64684 0.06508 0.78473 0.0
C1050 C 0.6842 0.06529 0.84158 0.0
C1051 C 0.71974 0.08231 0.94575 0.0
C1052 C 0.70631 0.08271 0.90108 0.0
C1053 C 0.65243 0.07732 0.82867 0.0
C1054 C 0.6725 0.08015 0.84297 0.0
H1055 H 0.71872 0.09144 0.08034 0.0
H1056 H 0.70323 0.09964 0.00212 0.0
H1057 H 0.70851 0.05436 0.87298 0.0
H1058 H 0.61033 0.08378 0.88905 0.0
H1059 H 0.64262 0.09377 0.8993 0.0
C1060 C 0.49201 0.68631 0.86763 0.0
C1061 C 0.51116 0.69008 0.87546 0.0
C1062 C 0.4861 0.66992 0.83989 0.0
C1063 C 0.50303 0.62884 0.75762 0.0
H1064 H 0.46995 0.60402 0.84467 0.0
C1065 C 0.49902 0.55302 0.72395 0.0
C1066 C 0.501 0.54501 0.77034 0.0
C1067 C 0.49379 0.57084 0.72672 0.0
C1068 C 0.47913 0.61076 0.81974 0.0
H1069 H 0.53915 0.68065 0.85789 0.0
H1070 H 0.52899 0.65222 0.80909 0.0
H1071 H 0.47368 0.63641 0.86308 0.0
H1072 H 0.49823 0.54866 0.8556 0.0
H1073 H 0.48983 0.58019 0.86121 0.0
H1074 H 0.50977 0.60324 0.7171 0.0
C1075 C 0.51844 0.66176 0.82377 0.0
C1076 C 0.48106 0.62937 0.82978 0.0
C1077 C 0.5243 0.67799 0.85181 0.0
C1078 C 0.49663 0.55465 0.81941 0.0
C1079 C 0.49173 0.57266 0.82239 0.0
C1080 C 0.5012 0.61028 0.74779 0.0
C1081 C 0.4993 0.65722 0.81934 0.0
C1082 C 0.49365 0.63849 0.80024 0.0
C1083 C 0.49094 0.58113 0.77615 0.0
C1084 C 0.48979 0.60093 0.78008 0.0
H1085 H 0.48169 0.69544 0.88614 0.0
H1086 H 0.47127 0.66682 0.83675 0.0
H1087 H 0.51266 0.63553 0.73376 0.0
H1088 H 0.50225 0.54566 0.68562 0.0
H1089 H 0.49286 0.57676 0.69027 0.0
C1090 C 0.81201 0.39228 0.98039 0.0
C1091 C 0.81034 0.38644 0.03039 0.0
C1092 C 0.82732 0.38729 0.9483 0.0
C1093 C 0.86187 0.37563 0.88546 0.0
H1094 H 0.90496 0.38566 0.97837 0.0
C1095 C 0.92767 0.4126 0.82771 0.0
C1096 C 0.94506 0.40915 0.85008 0.0
C1097 C 0.91152 0.40361 0.8409 0.0
C1098 C 0.89325 0.38237 0.9515 0.0
H1099 H 0.82186 0.36884 0.08273 0.0
H1100 H 0.84853 0.35989 0.02628 0.0
H1101 H 0.87505 0.37915 0.01564 0.0
H1102 H 0.95917 0.39291 0.90216 0.0
H1103 H 0.93113 0.3769 0.92386 0.0
H1104 H 0.88011 0.37985 0.82159 0.0
C1105 C 0.83829 0.36872 0.01252 0.0
C1106 C 0.876 0.37857 0.97296 0.0
C1107 C 0.82301 0.37379 0.04476 0.0
C1108 C 0.94605 0.39586 0.88392 0.0
C1109 C 0.92992 0.38679 0.89679 0.0
C1110 C 0.87919 0.37943 0.8639 0.0
C1111 C 0.84121 0.37631 0.96556 0.0
C1112 C 0.85995 0.37583 0.94054 0.0
C1113 C 0.91239 0.39088 0.87655 0.0
C1114 C 0.89492 0.38351 0.89702 0.0
H1115 H 0.80255 0.40212 0.96827 0.0
H1116 H 0.82912 0.39346 0.91253 0.0
H1117 H 0.84981 0.37334 0.85934 0.0
H1118 H 0.92646 0.4225 0.80071 0.0
H1119 H 0.89824 0.40725 0.82496 0.0
C1120 C 0.0485 0.16619 0.05476 0.0
C1121 C 0.0579 0.1804 0.03528 0.0
C1122 C 0.04539 0.14997 0.02249 0.0
C1123 C 0.04474 0.127 0.88468 0.0
H1124 H 0.05583 0.08557 0.95448 0.0
C1125 C 0.0243 0.05444 0.79644 0.0
C1126 C 0.03659 0.04053 0.80401 0.0
C1127 C 0.02789 0.07197 0.82009 0.0
C1128 C 0.05287 0.09695 0.93408 0.0
H1129 H 0.07056 0.18915 0.96591 0.0
H1130 H 0.06502 0.1606 0.90872 0.0
H1131 H 0.05932 0.11539 0.00321 0.0
H1132 H 0.06261 0.03438 0.84143 0.0
H1133 H 0.06886 0.065 0.88297 0.0
H1134 H 0.03833 0.10841 0.81535 0.0
C1135 C 0.06002 0.16209 0.94915 0.0
C1136 C 0.05463 0.1141 0.96229 0.0
C1137 C 0.06313 0.17844 0.9817 0.0
C1138 C 0.05279 0.04471 0.83499 0.0
C1139 C 0.05632 0.06226 0.85898 0.0
C1140 C 0.04287 0.10978 0.85641 0.0
C1141 C 0.05167 0.14747 0.96981 0.0
C1142 C 0.05038 0.12934 0.93825 0.0
C1143 C 0.04381 0.07609 0.8523 0.0
C1144 C 0.04679 0.09452 0.88093 0.0
H1145 H 0.04423 0.16739 0.09588 0.0
H1146 H 0.03848 0.13919 0.03934 0.0
H1147 H 0.04136 0.13844 0.86495 0.0
H1148 H 0.01171 0.05179 0.77265 0.0
H1149 H 0.01786 0.08219 0.81442 0.0
C1150 C 0.3494 0.98398 0.06535 0.0
C1151 C 0.33792 -0.001 0.07597 0.0
C1152 C 0.36307 0.98315 0.02572 0.0
C1153 C 0.39301 0.01317 0.95706 0.0
H1154 H 0.40769 0.96921 0.87184 0.0
C1155 C 0.46552 0.00514 0.85498 0.0
C1156 C 0.46656 0.99547 0.8038 0.0
C1157 C 0.44878 0.00585 0.88374 0.0
C1158 C 0.40369 0.98167 0.89482 0.0
H1159 H 0.33162 0.02482 0.05275 0.0
H1160 H 0.35534 0.02337 0.98297 0.0
H1161 H 0.37968 0.96952 0.92658 0.0
H1162 H 0.4504 0.97897 0.74299 0.0
H1163 H 0.42122 0.98045 0.7929 0.0
H1164 H 0.41709 0.02528 0.9257 0.0
C1165 C 0.35379 0.01217 0.00526 0.0
C1166 C 0.38768 0.98181 0.92675 0.0
C1167 C 0.33997 0.01291 0.04467 0.0
C1168 C 0.45024 0.98659 0.78217 0.0
C1169 C 0.43349 0.98728 0.81107 0.0
C1170 C 0.40908 0.01299 0.92544 0.0
C1171 C 0.36588 -0.00254 0.99607 0.0
C1172 C 0.38216 -0.00247 0.95877 0.0
C1173 C 0.43251 -0.00316 0.86243 0.0
C1174 C 0.41478 -0.00279 0.89415 0.0
H1175 H 0.34845 0.97326 0.08971 0.0
H1176 H 0.37216 0.97169 0.02048 0.0
H1177 H 0.38943 0.0255 0.98145 0.0
H1178 H 0.47772 0.01213 0.87324 0.0
H1179 H 0.44871 0.01319 0.9233 0.0
C1180 C 0.46252 0.28708 0.11603 0.0
C1181 C 0.47797 0.27776 0.13221 0.0
C1182 C 0.4647 0.29947 0.08002 0.0
C1183 C 0.50088 0.33022 0.04173 0.0
H1184 H 0.4629 0.34205 0.94316 0.0
C1185 C 0.50814 0.39246 0.93049 0.0
C1186 C 0.49189 0.40252 0.92588 0.0
C1187 C 0.50716 0.37571 0.94868 0.0
C1188 C 0.4736 0.33903 0.97084 0.0
H1189 H 0.50758 0.27333 0.12121 0.0
H1190 H 0.51141 0.29474 0.05732 0.0
H1191 H 0.45985 0.31453 0.98337 0.0
H1192 H 0.46177 0.40239 0.93576 0.0
H1193 H 0.46014 0.37358 0.96867 0.0
H1194 H 0.51437 0.35493 0.03052 0.0
C1195 C 0.4976 0.29258 0.07277 0.0
C1196 C 0.47188 0.32318 0.99375 0.0
C1197 C 0.49538 0.28008 0.10861 0.0
C1198 C 0.47464 0.39523 0.93951 0.0
C1199 C 0.47366 0.37851 0.95768 0.0
C1200 C 0.50259 0.34609 0.01893 0.0
C1201 C 0.48244 0.30298 0.05972 0.0
C1202 C 0.48534 0.31868 0.03018 0.0
C1203 C 0.4899 0.3685 0.96269 0.0
C1204 C 0.48881 0.35089 0.98383 0.0
H1205 H 0.44904 0.28581 0.13449 0.0
H1206 H 0.45272 0.30726 0.07136 0.0
H1207 H 0.51138 0.3274 0.07027 0.0
H1208 H 0.52169 0.39764 0.92075 0.0
H1209 H 0.51996 0.36836 0.95149 0.0
C1210 C 0.2089 0.52347 0.02648 0.0
C1211 C 0.21725 0.50949 0.0495 0.0
C1212 C 0.19383 0.52018 0.99103 0.0
C1213 C 0.15603 0.48645 0.95077 0.0
H1214 H 0.14603 0.5178 0.84506 0.0
C1215 C 0.0826 0.48914 0.85559 0.0
C1216 C 0.08076 0.49303 0.80319 0.0
C1217 C 0.10005 0.49003 0.88117 0.0
C1218 C 0.14861 0.5087 0.87378 0.0
H1219 H 0.2167 0.48082 0.05039 0.0
H1220 H 0.19081 0.47494 0.98685 0.0
H1221 H 0.17549 0.52059 0.89367 0.0
H1222 H 0.09617 0.50078 0.73658 0.0
H1223 H 0.12673 0.50182 0.78045 0.0
H1224 H 0.12942 0.47418 0.92969 0.0
C1225 C 0.1956 0.48861 0.99757 0.0
C1226 C 0.16552 0.5105 0.90247 0.0
C1227 C 0.21069 0.49193 0.03352 0.0
C1228 C 0.09699 0.49774 0.77693 0.0
C1229 C 0.11456 0.49844 0.80241 0.0
C1230 C 0.13921 0.48453 0.92167 0.0
C1231 C 0.18665 0.50275 0.97662 0.0
C1232 C 0.16938 0.49964 0.94224 0.0
C1233 C 0.11639 0.49465 0.85509 0.0
C1234 C 0.13503 0.49585 0.88336 0.0
H1235 H 0.21373 0.53715 0.03696 0.0
H1236 H 0.18737 0.53154 0.97659 0.0
H1237 H 0.15824 0.47789 0.98115 0.0
H1238 H 0.07044 0.48564 0.87749 0.0
H1239 H 0.10061 0.48742 0.92198 0.0
C1240 C 0.969 0.80464 0.49343 0.0
C1241 C 0.98303 0.79448 0.4658 0.0
C1242 C 0.97345 0.82068 0.52538 0.0
C1243 C 0.98743 0.85202 0.60469 0.0
H1244 H 0.01965 0.88344 0.53536 0.0
C1245 C 1.00914 0.92331 0.70182 0.0
C1246 C 1.00896 0.93698 0.66907 0.0
C1247 C 1.00656 0.9054 0.68032 0.0
C1248 C 0.01058 0.87485 0.55518 0.0
H1249 H 0.01279 0.79266 0.45175 0.0
H1250 H 0.02069 0.82077 0.50795 0.0
H1251 H 0.01483 0.85246 0.49563 0.0
H1252 H 1.00577 0.94245 0.58794 0.0
H1253 H 1.00122 0.91115 0.55039 0.0
H1254 H 0.98288 0.87455 0.66367 0.0
C1255 C 1.00621 0.81633 0.50473 0.0
C1256 C 1.00802 0.85702 0.53279 0.0
C1257 C 1.00175 0.80014 0.47315 0.0
C1258 C 1.00596 0.93229 0.61431 0.0
C1259 C 1.0035 0.91433 0.59274 0.0
C1260 C 0.99012 0.86983 0.62733 0.0
C1261 C 0.99204 0.82704 0.52996 0.0
C1262 C 0.99623 0.84544 0.55689 0.0
C1263 C 1.00386 0.90066 0.62546 0.0
C1264 C 1.00152 0.88154 0.60245 0.0
H1265 H 0.95443 0.80062 0.48804 0.0
H1266 H 0.96218 0.82862 0.54387 0.0
H1267 H 0.97833 0.84344 0.62438 0.0
H1268 H 0.01145 0.92638 0.7442 0.0
H1269 H 1.00707 0.89522 0.7066 0.0
C1270 C 0.6889 8e-05 0.39936 0.0
C1271 C 0.70268 0.98675 0.39175 0.0
C1272 C 0.67337 -0.00175 0.43142 0.0
C1273 C 0.65517 0.97984 0.54487 0.0
H1274 H 0.60655 0.98282 0.47812 0.0
C1275 C 0.58522 0.99477 0.65988 0.0
C1276 C 0.56961 0.9839 0.6427 0.0
C1277 C 0.60205 0.99338 0.63148 0.0
C1278 C 0.62 0.98186 0.49734 0.0
H1279 H 0.7111 0.96146 0.41571 0.0
H1280 H 0.68412 0.9587 0.47397 0.0
H1281 H 0.63498 0.98359 0.42526 0.0
H1282 H 0.55965 0.963 0.58192 0.0
H1283 H 0.5888 0.96099 0.53164 0.0
H1284 H 0.64014 0.97887 0.61753 0.0
C1285 C 0.68536 0.97035 0.45342 0.0
C1286 C 0.63628 0.98235 0.46709 0.0
C1287 C 0.70085 0.97198 0.42017 0.0
C1288 C 0.57136 0.97154 0.59651 0.0
C1289 C 0.58805 0.97043 0.56752 0.0
C1290 C 0.63885 0.97976 0.5755 0.0
C1291 C 0.67125 0.98331 0.4584 0.0
C1292 C 0.65407 0.98141 0.49045 0.0
C1293 C 0.6036 0.98137 0.58451 0.0
C1294 C 0.62105 0.98082 0.55209 0.0
H1295 H 0.69002 0.01209 0.38047 0.0
H1296 H 0.66296 0.00865 0.43532 0.0
H1297 H 0.66868 0.97923 0.56402 0.0
H1298 H 0.58444 0.00442 0.69527 0.0
H1299 H 0.6137 0.0021 0.64546 0.0
C1300 C 0.5832 0.69817 0.32898 0.0
C1301 C 0.56669 0.70767 0.32367 0.0
C1302 C 0.58417 0.6855 0.36439 0.0
C1303 C 0.56029 0.66631 0.47429 0.0
H1304 H 0.57943 0.62176 0.40258 0.0
C1305 C 0.54963 0.59815 0.55553 0.0
C1306 C 0.56412 0.5856 0.54794 0.0
C1307 C 0.55044 0.61403 0.53232 0.0
C1308 C 0.57432 0.63411 0.42383 0.0
H1309 H 0.53863 0.71215 0.3532 0.0
H1310 H 0.54034 0.69016 0.41592 0.0
H1311 H 0.58098 0.64853 0.35933 0.0
H1312 H 0.59078 0.58014 0.5092 0.0
H1313 H 0.59252 0.60787 0.47088 0.0
H1314 H 0.55361 0.65177 0.53892 0.0
C1315 C 0.55263 0.6926 0.39309 0.0
C1316 C 0.57522 0.64953 0.39888 0.0
C1317 C 0.55168 0.70531 0.35753 0.0
C1318 C 0.57945 0.58949 0.51674 0.0
C1319 C 0.58032 0.60537 0.49395 0.0
C1320 C 0.55952 0.65084 0.49958 0.0
C1321 C 0.56857 0.68193 0.39502 0.0
C1322 C 0.56825 0.66586 0.42368 0.0
C1323 C 0.56577 0.61785 0.50098 0.0
C1324 C 0.56654 0.63449 0.47466 0.0
H1325 H 0.59484 0.69952 0.30264 0.0
H1326 H 0.59679 0.67777 0.36558 0.0
H1327 H 0.55481 0.67866 0.49455 0.0
H1328 H 0.53769 0.5958 0.57979 0.0
H1329 H 0.53886 0.62316 0.53832 0.0
C1330 C 0.83595 0.47458 0.47914 0.0
C1331 C 0.83393 0.48417 0.43573 0.0
C1332 C 0.85129 0.47775 0.51376 0.0
C1333 C 0.89191 0.50808 0.55476 0.0
H1334 H 0.91551 0.46399 0.58028 0.0
C1335 C 0.9679 0.50656 0.63767 0.0
C1336 C 0.97251 0.49351 0.67021 0.0
C1337 C 0.95025 0.50651 0.61316 0.0
C1338 C 0.90904 0.4765 0.5746 0.0
H1339 H 0.84595 0.50518 0.39594 0.0
H1340 H 0.8727 0.51101 0.45699 0.0
H1341 H 0.88579 0.46287 0.53325 0.0
H1342 H 0.96176 0.47044 0.70349 0.0
H1343 H 0.93095 0.4706 0.66211 0.0
H1344 H 0.91523 0.52172 0.59623 0.0
C1345 C 0.86232 0.5011 0.4646 0.0
C1346 C 0.8919 0.47584 0.54738 0.0
C1347 C 0.84691 0.49789 0.42981 0.0
C1348 C 0.95882 0.48062 0.67838 0.0
C1349 C 0.94111 0.48066 0.65424 0.0
C1350 C 0.90905 0.50876 0.58245 0.0
C1351 C 0.86512 0.49054 0.50571 0.0
C1352 C 0.88307 0.4916 0.53689 0.0
C1353 C 0.93658 0.49349 0.6207 0.0
C1354 C 0.91795 0.49295 0.59263 0.0
H1355 H 0.8263 0.46374 0.48414 0.0
H1356 H 0.85274 0.4696 0.54552 0.0
H1357 H 0.8855 0.52049 0.54775 0.0
H1358 H 0.97806 0.51667 0.63013 0.0
H1359 H 0.94754 0.51647 0.58716 0.0
loop_
_geom_bond_atom_site_label_1
_geom_bond_atom_site_label_2
_geom_bond_distance
_geom_bond_site_symmetry_2
_ccdc_geom_bond_type
C0 C1 1.391 . S
C0 C4 1.391 . S
C0 H42 0.948 . S
C1 C0 1.391 . S
C1 C2 1.391 . S
C2 C1 1.391 . S
C2 H58 0.947 . S
C2 C59 1.392 . S
C3 C4 1.391 . S
C3 C7 1.397 . S
C3 C59 1.419 . S
C4 C0 1.391 . S
C4 C3 1.391 . S
C4 C5 1.399 . S
C5 C4 1.399 . S
C5 C8 1.396 . S
C5 C17 1.453 . S
C5 C18 1.684 . S
H6 C30 0.948 . S
C7 C3 1.397 . S
C7 C8 1.394 . S
C7 C26 1.723 . S
C8 C5 1.396 . S
C8 C7 1.394 . S
C8 C38 1.723 . S
H9 C32 0.947 . S
H10 C33 0.948 . S
H11 C39 0.982 . S
H12 C40 0.979 . S
H13 C40 0.980 . S
H14 C40 0.983 . S
H15 C39 0.979 . S
H16 C39 0.977 . S
C17 C5 1.453 . S
C17 H46 0.982 . S
C17 H47 0.979 . S
C17 H48 0.977 . S
C18 C5 1.684 . S
C18 H43 0.979 . S
C18 H44 0.980 . S
C18 H45 0.983 . S
C19 C20 1.391 . S
C19 C24 1.391 . S
C19 H49 0.948 . S
C20 C19 1.391 . S
C20 C21 1.391 . S
C21 C20 1.391 . S
C21 C22 1.392 . S
C21 H50 0.947 . S
C22 C21 1.392 . S
C22 C23 1.419 . S
C22 H51 0.948 . S
C23 C22 1.419 . S
C23 C24 1.391 . S
C23 C27 1.397 . S
C24 C19 1.391 . S
C24 C23 1.391 . S
C24 C25 1.399 . S
C25 C24 1.399 . S
C25 C26 1.396 . S
C25 C28 1.453 . S
C25 C29 1.684 . S
C26 C7 1.723 . S
C26 C25 1.396 . S
C26 C27 1.394 . S
C27 C23 1.397 . S
C27 C26 1.394 . S
C27 C37 1.723 . S
C28 C25 1.453 . S
C28 H52 0.982 . S
C28 H53 0.979 . S
C28 H54 0.977 . S
C29 C25 1.684 . S
C29 H55 0.979 . S
C29 H56 0.980 . S
C29 H57 0.983 . S
C30 H6 0.948 . S
C30 C31 1.391 . S
C30 C35 1.391 . S
C31 C30 1.391 . S
C31 C32 1.391 . S
C32 H9 0.947 . S
C32 C31 1.391 . S
C32 C33 1.392 . S
C33 H10 0.948 . S
C33 C32 1.392 . S
C33 C34 1.419 . S
C34 C33 1.419 . S
C34 C35 1.391 . S
C34 C38 1.397 . S
C35 C30 1.391 . S
C35 C34 1.391 . S
C35 C36 1.399 . S
C36 C35 1.399 . S
C36 C37 1.396 . S
C36 C39 1.453 . S
C36 C40 1.684 . S
C37 C27 1.723 . S
C37 C36 1.396 . S
C37 C38 1.394 . S
C38 C8 1.723 . S
C38 C34 1.397 . S
C38 C37 1.394 . S
C39 H11 0.982 . S
C39 H15 0.979 . S
C39 H16 0.977 . S
C39 C36 1.453 . S
C40 H12 0.979 . S
C40 H13 0.980 . S
C40 H14 0.983 . S
C40 C36 1.684 . S
H41 C59 0.948 . S
H42 C0 0.948 . S
H43 C18 0.979 . S
H44 C18 0.980 . S
H45 C18 0.983 . S
H46 C17 0.982 . S
H47 C17 0.979 . S
H48 C17 0.977 . S
H49 C19 0.948 . S
H50 C21 0.947 . S
H51 C22 0.948 . S
H52 C28 0.982 . S
H53 C28 0.979 . S
H54 C28 0.977 . S
H55 C29 0.979 . S
H56 C29 0.980 . S
H57 C29 0.983 . S
H58 C2 0.947 . S
C59 C2 1.392 . S
C59 C3 1.419 . S
C59 H41 0.948 . S
C60 C61 1.391 . S
C60 C64 1.391 . S
C60 H102 0.948 . S
C61 C60 1.391 . S
C61 C62 1.391 . S
C62 C61 1.391 . S
C62 H118 0.947 . S
C62 C119 1.392 . S
C63 C64 1.391 . S
C63 C67 1.397 . S
C63 C119 1.419 . S
C64 C60 1.391 . S
C64 C63 1.391 . S
C64 C65 1.399 . S
C65 C64 1.399 . S
C65 C68 1.396 . S
C65 C77 1.453 . S
C65 C78 1.684 . S
H66 C90 0.948 . S
C67 C63 1.397 . S
C67 C68 1.394 . S
C67 C86 1.723 . S
C68 C65 1.396 . S
C68 C67 1.394 . S
C68 C98 1.723 . S
H69 C92 0.947 . S
H70 C93 0.948 . S
H71 C99 0.982 . S
H72 C100 0.979 . S
H73 C100 0.980 . S
H74 C100 0.983 . S
H75 C99 0.979 . S
H76 C99 0.977 . S
C77 C65 1.453 . S
C77 H106 0.982 . S
C77 H107 0.979 . S
C77 H108 0.977 . S
C78 C65 1.684 . S
C78 H103 0.979 . S
C78 H104 0.980 . S
C78 H105 0.983 . S
C79 C80 1.391 . S
C79 C84 1.391 . S
C79 H109 0.948 . S
C80 C79 1.391 . S
C80 C81 1.391 . S
C81 C80 1.391 . S
C81 C82 1.392 . S
C81 H110 0.947 . S
C82 C81 1.392 . S
C82 C83 1.419 . S
C82 H111 0.948 . S
C83 C82 1.419 . S
C83 C84 1.391 . S
C83 C87 1.397 . S
C84 C79 1.391 . S
C84 C83 1.391 . S
C84 C85 1.399 . S
C85 C84 1.399 . S
C85 C86 1.396 . S
C85 C88 1.453 . S
C85 C89 1.684 . S
C86 C67 1.723 . S
C86 C85 1.396 . S
C86 C87 1.394 . S
C87 C83 1.397 . S
C87 C86 1.394 . S
C87 C97 1.723 . S
C88 C85 1.453 . S
C88 H112 0.982 . S
C88 H113 0.979 . S
C88 H114 0.977 . S
C89 C85 1.684 . S
C89 H115 0.979 . S
C89 H116 0.980 . S
C89 H117 0.983 . S
C90 H66 0.948 . S
C90 C91 1.391 . S
C90 C95 1.391 . S
C91 C90 1.391 . S
C91 C92 1.391 . S
C92 H69 0.947 . S
C92 C91 1.391 . S
C92 C93 1.392 . S
C93 H70 0.948 . S
C93 C92 1.392 . S
C93 C94 1.419 . S
C94 C93 1.419 . S
C94 C95 1.391 . S
C94 C98 1.397 . S
C95 C90 1.391 . S
C95 C94 1.391 . S
C95 C96 1.399 . S
C96 C95 1.399 . S
C96 C97 1.396 . S
C96 C99 1.453 . S
C96 C100 1.684 . S
C97 C87 1.723 . S
C97 C96 1.396 . S
C97 C98 1.394 . S
C98 C68 1.723 . S
C98 C94 1.397 . S
C98 C97 1.394 . S
C99 H71 0.982 . S
C99 H75 0.979 . S
C99 H76 0.977 . S
C99 C96 1.453 . S
C100 H72 0.979 . S
C100 H73 0.980 . S
C100 H74 0.983 . S
C100 C96 1.684 . S
H101 C119 0.948 . S
H102 C60 0.948 . S
H103 C78 0.979 . S
H104 C78 0.980 . S
H105 C78 0.983 . S
H106 C77 0.982 . S
H107 C77 0.979 . S
H108 C77 0.977 . S
H109 C79 0.948 . S
H110 C81 0.947 . S
H111 C82 0.948 . S
H112 C88 0.982 . S
H113 C88 0.979 . S
H114 C88 0.977 . S
H115 C89 0.979 . S
H116 C89 0.980 . S
H117 C89 0.983 . S
H118 C62 0.947 . S
C119 C62 1.392 . S
C119 C63 1.419 . S
C119 H101 0.948 . S
C120 C121 1.391 . S
C120 C124 1.391 . S
C120 H162 0.948 . S
C121 C120 1.391 . S
C121 C122 1.391 . S
C122 C121 1.391 . S
C122 H178 0.947 . S
C122 C179 1.392 . S
C123 C124 1.406 . S
C123 C127 1.397 1_565 S
C123 C179 1.418 . S
C124 C120 1.391 . S
C124 C123 1.406 . S
C124 C125 1.399 . S
C125 C124 1.399 . S
C125 C128 1.386 1_565 S
C125 C137 1.453 1_565 S
C125 C138 1.684 . S
H126 C150 0.948 . S
C127 C123 1.397 1_545 S
C127 C128 1.401 . S
C127 C146 1.717 . S
C128 C125 1.386 1_545 S
C128 C127 1.401 . S
C128 C158 1.719 . S
H129 C152 0.947 . S
H130 C153 0.948 . S
H131 C159 0.982 . S
H132 C160 0.979 . S
H133 C160 0.980 . S
H134 C160 0.983 . S
H135 C159 0.979 . S
H136 C159 0.977 . S
C137 C125 1.453 1_545 S
C137 H166 0.982 . S
C137 H167 0.979 . S
C137 H168 0.977 . S
C138 C125 1.684 . S
C138 H163 0.979 . S
C138 H164 0.980 . S
C138 H165 0.983 . S
C139 C140 1.391 . S
C139 C144 1.391 . S
C139 H169 0.948 . S
C140 C139 1.391 . S
C140 C141 1.391 . S
C141 C140 1.391 . S
C141 C142 1.392 . S
C141 H170 0.947 . S
C142 C141 1.392 . S
C142 C143 1.419 . S
C142 H171 0.948 . S
C143 C142 1.419 . S
C143 C144 1.391 . S
C143 C147 1.397 1_565 S
C144 C139 1.391 . S
C144 C143 1.391 . S
C144 C145 1.399 . S
C145 C144 1.399 . S
C145 C146 1.395 1_565 S
C145 C148 1.453 1_565 S
C145 C149 1.684 . S
C146 C127 1.717 . S
C146 C145 1.395 1_545 S
C146 C147 1.389 . S
C147 C143 1.397 1_545 S
C147 C146 1.389 . S
C147 C157 1.729 . S
C148 C145 1.453 1_545 S
C148 H172 0.982 . S
C148 H173 0.979 . S
C148 H174 0.977 . S
C149 C145 1.684 . S
C149 H175 0.979 . S
C149 H176 0.980 . S
C149 H177 0.983 . S
C150 H126 0.948 . S
C150 C151 1.391 . S
C150 C155 1.391 . S
C151 C150 1.391 . S
C151 C152 1.391 . S
C152 H129 0.947 . S
C152 C151 1.391 . S
C152 C153 1.392 . S
C153 H130 0.948 . S
C153 C152 1.392 . S
C153 C154 1.419 . S
C154 C153 1.419 . S
C154 C155 1.391 . S
C154 C158 1.398 1_565 S
C155 C150 1.391 . S
C155 C154 1.391 . S
C155 C156 1.399 . S
C156 C155 1.399 . S
C156 C157 1.384 1_565 S
C156 C159 1.453 1_565 S
C156 C160 1.684 . S
C157 C147 1.729 . S
C157 C156 1.384 1_545 S
C157 C158 1.389 . S
C158 C128 1.719 . S
C158 C154 1.398 1_545 S
C158 C157 1.389 . S
C159 H131 0.982 . S
C159 H135 0.979 . S
C159 H136 0.977 . S
C159 C156 1.453 1_545 S
C160 H132 0.979 . S
C160 H133 0.980 . S
C160 H134 0.983 . S
C160 C156 1.684 . S
H161 C179 0.948 . S
H162 C120 0.948 . S
H163 C138 0.979 . S
H164 C138 0.980 . S
H165 C138 0.983 . S
H166 C137 0.982 . S
H167 C137 0.979 . S
H168 C137 0.977 . S
H169 C139 0.948 . S
H170 C141 0.947 . S
H171 C142 0.948 . S
H172 C148 0.982 . S
H173 C148 0.979 . S
H174 C148 0.977 . S
H175 C149 0.979 . S
H176 C149 0.980 . S
H177 C149 0.983 . S
H178 C122 0.947 . S
C179 C122 1.392 . S
C179 C123 1.418 . S
C179 H161 0.948 . S
C180 C181 1.391 . S
C180 C184 1.391 . S
C180 H222 0.948 . S
C181 C180 1.391 . S
C181 C182 1.391 . S
C182 C181 1.391 . S
C182 H238 0.947 . S
C182 C239 1.392 . S
C183 C184 1.391 . S
C183 C187 1.397 . S
C183 C239 1.419 . S
C184 C180 1.391 . S
C184 C183 1.391 . S
C184 C185 1.399 . S
C185 C184 1.399 . S
C185 C188 1.396 . S
C185 C197 1.453 . S
C185 C198 1.684 . S
H186 C210 0.948 . S
C187 C183 1.397 . S
C187 C188 1.394 . S
C187 C206 1.723 1_554 S
C188 C185 1.396 . S
C188 C187 1.394 . S
C188 C218 1.723 . S
H189 C212 0.947 . S
H190 C213 0.948 . S
H191 C219 0.982 . S
H192 C220 0.979 . S
H193 C220 0.980 . S
H194 C220 0.983 . S
H195 C219 0.979 . S
H196 C219 0.977 . S
C197 C185 1.453 . S
C197 H226 0.982 . S
C197 H227 0.979 . S
C197 H228 0.977 . S
C198 C185 1.684 . S
C198 H223 0.979 . S
C198 H224 0.980 . S
C198 H225 0.983 . S
C199 C200 1.391 . S
C199 C204 1.391 . S
C199 H229 0.948 . S
C200 C199 1.391 . S
C200 C201 1.391 . S
C201 C200 1.391 . S
C201 C202 1.392 . S
C201 H230 0.947 . S
C202 C201 1.392 . S
C202 C203 1.419 . S
C202 H231 0.948 . S
C203 C202 1.419 . S
C203 C204 1.391 . S
C203 C207 1.397 . S
C204 C199 1.391 . S
C204 C203 1.391 . S
C204 C205 1.399 . S
C205 C204 1.399 . S
C205 C206 1.396 . S
C205 C208 1.453 . S
C205 C209 1.684 1_556 S
C206 C187 1.723 1_556 S
C206 C205 1.396 . S
C206 C207 1.394 . S
C207 C203 1.397 . S
C207 C206 1.394 . S
C207 C217 1.723 . S
C208 C205 1.453 . S
C208 H232 0.982 . S
C208 H233 0.979 . S
C208 H234 0.977 1_556 S
C209 C205 1.684 1_554 S
C209 H235 0.979 1_554 S
C209 H236 0.980 . S
C209 H237 0.983 1_554 S
C210 H186 0.948 . S
C210 C211 1.391 . S
C210 C215 1.391 . S
C211 C210 1.391 . S
C211 C212 1.391 1_556 S
C212 H189 0.947 . S
C212 C211 1.391 1_554 S
C212 C213 1.392 . S
C213 H190 0.948 . S
C213 C212 1.392 . S
C213 C214 1.419 1_554 S
C214 C213 1.419 1_556 S
C214 C215 1.391 . S
C214 C218 1.397 1_556 S
C215 C210 1.391 . S
C215 C214 1.391 . S
C215 C216 1.399 . S
C216 C215 1.399 . S
C216 C217 1.396 . S
C216 C219 1.453 . S
C216 C220 1.684 . S
C217 C207 1.723 . S
C217 C216 1.396 . S
C217 C218 1.394 1_556 S
C218 C188 1.723 . S
C218 C214 1.397 1_554 S
C218 C217 1.394 1_554 S
C219 H191 0.982 . S
C219 H195 0.979 . S
C219 H196 0.977 . S
C219 C216 1.453 . S
C220 H192 0.979 . S
C220 H193 0.980 . S
C220 H194 0.983 . S
C220 C216 1.684 . S
H221 C239 0.948 . S
H222 C180 0.948 . S
H223 C198 0.979 . S
H224 C198 0.980 . S
H225 C198 0.983 . S
H226 C197 0.982 . S
H227 C197 0.979 . S
H228 C197 0.977 . S
H229 C199 0.948 . S
H230 C201 0.947 . S
H231 C202 0.948 . S
H232 C208 0.982 . S
H233 C208 0.979 . S
H234 C208 0.977 1_554 S
H235 C209 0.979 1_556 S
H236 C209 0.980 . S
H237 C209 0.983 1_556 S
H238 C182 0.947 . S
C239 C182 1.392 . S
C239 C183 1.419 . S
C239 H221 0.948 . S
C240 C241 1.391 . S
C240 C244 1.391 . S
C240 H282 0.948 . S
C241 C240 1.391 . S
C241 C242 1.391 . S
C242 C241 1.391 . S
C242 H298 0.947 . S
C242 C299 1.392 . S
C243 C244 1.391 . S
C243 C247 1.397 . S
C243 C299 1.419 . S
C244 C240 1.391 . S
C244 C243 1.391 . S
C244 C245 1.399 . S
C245 C244 1.399 . S
C245 C248 1.396 . S
C245 C257 1.453 . S
C245 C258 1.684 . S
H246 C270 0.948 1_556 S
C247 C243 1.397 . S
C247 C248 1.394 . S
C247 C266 1.723 . S
C248 C245 1.396 . S
C248 C247 1.394 . S
C248 C278 1.723 . S
H249 C272 0.947 . S
H250 C273 0.948 . S
H251 C279 0.982 . S
H252 C280 0.979 . S
H253 C280 0.980 . S
H254 C280 0.983 . S
H255 C279 0.979 . S
H256 C279 0.977 . S
C257 C245 1.453 . S
C257 H286 0.982 . S
C257 H287 0.979 . S
C257 H288 0.977 . S
C258 C245 1.684 . S
C258 H283 0.979 . S
C258 H284 0.980 . S
C258 H285 0.983 . S
C259 C260 1.391 . S
C259 C264 1.391 . S
C259 H289 0.948 . S
C260 C259 1.391 . S
C260 C261 1.391 . S
C261 C260 1.391 . S
C261 C262 1.392 . S
C261 H290 0.947 . S
C262 C261 1.392 . S
C262 C263 1.419 . S
C262 H291 0.948 . S
C263 C262 1.419 . S
C263 C264 1.391 . S
C263 C267 1.397 . S
C264 C259 1.391 . S
C264 C263 1.391 . S
C264 C265 1.399 . S
C265 C264 1.399 . S
C265 C266 1.396 . S
C265 C268 1.453 . S
C265 C269 1.684 . S
C266 C247 1.723 . S
C266 C265 1.396 . S
C266 C267 1.394 . S
C267 C263 1.397 . S
C267 C266 1.394 . S
C267 C277 1.723 . S
C268 C265 1.453 . S
C268 H292 0.982 . S
C268 H293 0.979 . S
C268 H294 0.977 . S
C269 C265 1.684 . S
C269 H295 0.979 . S
C269 H296 0.980 . S
C269 H297 0.983 . S
C270 H246 0.948 1_554 S
C270 C271 1.391 1_554 S
C270 C275 1.391 . S
C271 C270 1.391 1_556 S
C271 C272 1.391 . S
C272 H249 0.947 . S
C272 C271 1.391 . S
C272 C273 1.392 1_556 S
C273 H250 0.948 . S
C273 C272 1.392 1_554 S
C273 C274 1.419 . S
C274 C273 1.419 . S
C274 C275 1.391 . S
C274 C278 1.397 . S
C275 C270 1.391 . S
C275 C274 1.391 . S
C275 C276 1.399 . S
C276 C275 1.399 . S
C276 C277 1.396 . S
C276 C279 1.453 . S
C276 C280 1.684 . S
C277 C267 1.723 . S
C277 C276 1.396 . S
C277 C278 1.394 . S
C278 C248 1.723 . S
C278 C274 1.397 . S
C278 C277 1.394 . S
C279 H251 0.982 . S
C279 H255 0.979 . S
C279 H256 0.977 . S
C279 C276 1.453 . S
C280 H252 0.979 . S
C280 H253 0.980 . S
C280 H254 0.983 . S
C280 C276 1.684 . S
H281 C299 0.948 . S
H282 C240 0.948 . S
H283 C258 0.979 . S
H284 C258 0.980 . S
H285 C258 0.983 . S
H286 C257 0.982 . S
H287 C257 0.979 . S
H288 C257 0.977 . S
H289 C259 0.948 . S
H290 C261 0.947 . S
H291 C262 0.948 . S
H292 C268 0.982 . S
H293 C268 0.979 . S
H294 C268 0.977 . S
H295 C269 0.979 . S
H296 C269 0.980 . S
H297 C269 0.983 . S
H298 C242 0.947 . S
C299 C242 1.392 . S
C299 C243 1.419 . S
C299 H281 0.948 . S
C300 C301 1.391 . S
C300 C304 1.391 . S
C300 H342 0.948 . S
C301 C300 1.391 . S
C301 C302 1.391 . S
C302 C301 1.391 . S
C302 H358 0.947 . S
C302 C359 1.392 . S
C303 C304 1.391 . S
C303 C307 1.397 . S
C303 C359 1.419 . S
C304 C300 1.391 . S
C304 C303 1.391 . S
C304 C305 1.399 . S
C305 C304 1.399 . S
C305 C308 1.396 . S
C305 C317 1.453 . S
C305 C318 1.684 . S
H306 C330 0.948 . S
C307 C303 1.397 . S
C307 C308 1.394 . S
C307 C326 1.723 . S
C308 C305 1.396 . S
C308 C307 1.394 . S
C308 C338 1.723 . S
H309 C332 0.947 . S
H310 C333 0.948 . S
H311 C339 0.982 . S
H312 C340 0.979 . S
H313 C340 0.980 . S
H314 C340 0.983 . S
H315 C339 0.979 . S
H316 C339 0.977 . S
C317 C305 1.453 . S
C317 H346 0.982 . S
C317 H347 0.979 . S
C317 H348 0.977 . S
C318 C305 1.684 . S
C318 H343 0.979 . S
C318 H344 0.980 . S
C318 H345 0.983 . S
C319 C320 1.391 . S
C319 C324 1.391 . S
C319 H349 0.948 . S
C320 C319 1.391 . S
C320 C321 1.391 . S
C321 C320 1.391 . S
C321 C322 1.392 . S
C321 H350 0.947 1_554 S
C322 C321 1.392 . S
C322 C323 1.419 . S
C322 H351 0.948 . S
C323 C322 1.419 . S
C323 C324 1.391 . S
C323 C327 1.397 . S
C324 C319 1.391 . S
C324 C323 1.391 . S
C324 C325 1.399 . S
C325 C324 1.399 . S
C325 C326 1.396 . S
C325 C328 1.453 . S
C325 C329 1.684 . S
C326 C307 1.723 . S
C326 C325 1.396 . S
C326 C327 1.394 . S
C327 C323 1.397 . S
C327 C326 1.394 . S
C327 C337 1.723 . S
C328 C325 1.453 . S
C328 H352 0.982 . S
C328 H353 0.979 . S
C328 H354 0.977 . S
C329 C325 1.684 . S
C329 H355 0.979 . S
C329 H356 0.980 . S
C329 H357 0.983 . S
C330 H306 0.948 . S
C330 C331 1.391 . S
C330 C335 1.391 . S
C331 C330 1.391 . S
C331 C332 1.391 . S
C332 H309 0.947 . S
C332 C331 1.391 . S
C332 C333 1.392 . S
C333 H310 0.948 . S
C333 C332 1.392 . S
C333 C334 1.419 . S
C334 C333 1.419 . S
C334 C335 1.391 . S
C334 C338 1.397 . S
C335 C330 1.391 . S
C335 C334 1.391 . S
C335 C336 1.399 . S
C336 C335 1.399 . S
C336 C337 1.396 . S
C336 C339 1.453 . S
C336 C340 1.684 . S
C337 C327 1.723 . S
C337 C336 1.396 . S
C337 C338 1.394 . S
C338 C308 1.723 . S
C338 C334 1.397 . S
C338 C337 1.394 . S
C339 H311 0.982 . S
C339 H315 0.979 . S
C339 H316 0.977 . S
C339 C336 1.453 . S
C340 H312 0.979 . S
C340 H313 0.980 . S
C340 H314 0.983 . S
C340 C336 1.684 . S
H341 C359 0.948 . S
H342 C300 0.948 . S
H343 C318 0.979 . S
H344 C318 0.980 . S
H345 C318 0.983 . S
H346 C317 0.982 . S
H347 C317 0.979 . S
H348 C317 0.977 . S
H349 C319 0.948 . S
H350 C321 0.947 1_556 S
H351 C322 0.948 . S
H352 C328 0.982 . S
H353 C328 0.979 . S
H354 C328 0.977 . S
H355 C329 0.979 . S
H356 C329 0.980 . S
H357 C329 0.983 . S
H358 C302 0.947 . S
C359 C302 1.392 . S
C359 C303 1.419 . S
C359 H341 0.948 . S
C360 C361 1.391 . S
C360 C364 1.391 1_556 S
C360 H402 0.948 . S
C361 C360 1.391 . S
C361 C362 1.391 . S
C362 C361 1.391 . S
C362 H418 0.947 . S
C362 C419 1.392 1_556 S
C363 C364 1.391 . S
C363 C367 1.398 1_545 S
C363 C419 1.419 . S
C364 C360 1.391 1_554 S
C364 C363 1.391 . S
C364 C365 1.399 . S
C365 C364 1.399 . S
C365 C368 1.382 1_545 S
C365 C377 1.453 1_545 S
C365 C378 1.684 . S
H366 C390 0.948 . S
C367 C363 1.398 1_565 S
C367 C368 1.394 . S
C367 C386 1.715 . S
C368 C365 1.382 1_565 S
C368 C367 1.394 . S
C368 C398 1.728 . S
H369 C392 0.947 . S
H370 C393 0.948 . S
H371 C399 0.982 . S
H372 C400 0.979 . S
H373 C400 0.980 . S
H374 C400 0.983 . S
H375 C399 0.979 . S
H376 C399 0.977 . S
C377 C365 1.453 1_565 S
C377 H406 0.982 . S
C377 H407 0.979 . S
C377 H408 0.977 . S
C378 C365 1.684 . S
C378 H403 0.979 . S
C378 H404 0.980 . S
C378 H405 0.983 . S
C379 C380 1.391 . S
C379 C384 1.391 . S
C379 H409 0.948 . S
C380 C379 1.391 . S
C380 C381 1.391 . S
C381 C380 1.391 . S
C381 C382 1.392 . S
C381 H410 0.947 . S
C382 C381 1.392 . S
C382 C383 1.419 . S
C382 H411 0.948 . S
C383 C382 1.419 . S
C383 C384 1.391 . S
C383 C387 1.397 1_545 S
C384 C379 1.391 . S
C384 C383 1.391 . S
C384 C385 1.399 . S
C385 C384 1.399 . S
C385 C386 1.391 1_545 S
C385 C388 1.453 1_545 S
C385 C389 1.684 . S
C386 C367 1.715 . S
C386 C385 1.391 1_565 S
C386 C387 1.399 . S
C387 C383 1.397 1_565 S
C387 C386 1.399 . S
C387 C397 1.722 . S
C388 C385 1.453 1_565 S
C388 H412 0.982 . S
C388 H413 0.979 . S
C388 H414 0.977 . S
C389 C385 1.684 . S
C389 H415 0.979 . S
C389 H416 0.980 . S
C389 H417 0.983 . S
C390 H366 0.948 . S
C390 C391 1.391 . S
C390 C395 1.391 . S
C391 C390 1.391 . S
C391 C392 1.391 . S
C392 H369 0.947 . S
C392 C391 1.391 . S
C392 C393 1.392 . S
C393 H370 0.948 . S
C393 C392 1.392 . S
C393 C394 1.419 . S
C394 C393 1.419 . S
C394 C395 1.391 . S
C394 C398 1.397 1_545 S
C395 C390 1.391 . S
C395 C394 1.391 . S
C395 C396 1.399 . S
C396 C395 1.399 . S
C396 C397 1.393 1_545 S
C396 C399 1.453 1_545 S
C396 C400 1.684 . S
C397 C387 1.722 . S
C397 C396 1.393 1_565 S
C397 C398 1.386 . S
C398 C368 1.728 . S
C398 C394 1.397 1_565 S
C398 C397 1.386 . S
C399 H371 0.982 . S
C399 H375 0.979 . S
C399 H376 0.977 . S
C399 C396 1.453 1_565 S
C400 H372 0.979 . S
C400 H373 0.980 . S
C400 H374 0.983 . S
C400 C396 1.684 . S
H401 C419 0.948 . S
H402 C360 0.948 . S
H403 C378 0.979 . S
H404 C378 0.980 . S
H405 C378 0.983 . S
H406 C377 0.982 . S
H407 C377 0.979 . S
H408 C377 0.977 . S
H409 C379 0.948 . S
H410 C381 0.947 . S
H411 C382 0.948 . S
H412 C388 0.982 . S
H413 C388 0.979 . S
H414 C388 0.977 . S
H415 C389 0.979 . S
H416 C389 0.980 . S
H417 C389 0.983 . S
H418 C362 0.947 . S
C419 C362 1.392 1_554 S
C419 C363 1.419 . S
C419 H401 0.948 . S
C420 C421 1.391 . S
C420 C424 1.391 . S
C420 H462 0.948 . S
C421 C420 1.391 . S
C421 C422 1.391 . S
C422 C421 1.391 . S
C422 H478 0.947 . S
C422 C479 1.392 . S
C423 C424 1.391 . S
C423 C427 1.397 . S
C423 C479 1.419 . S
C424 C420 1.391 . S
C424 C423 1.391 . S
C424 C425 1.399 . S
C425 C424 1.399 . S
C425 C428 1.396 . S
C425 C437 1.453 . S
C425 C438 1.684 . S
H426 C450 0.948 . S
C427 C423 1.397 . S
C427 C428 1.394 . S
C427 C446 1.723 . S
C428 C425 1.396 . S
C428 C427 1.394 . S
C428 C458 1.723 . S
H429 C452 0.947 . S
H430 C453 0.948 . S
H431 C459 0.982 . S
H432 C460 0.979 . S
H433 C460 0.980 . S
H434 C460 0.983 . S
H435 C459 0.979 . S
H436 C459 0.977 . S
C437 C425 1.453 . S
C437 H466 0.982 . S
C437 H467 0.979 . S
C437 H468 0.977 . S
C438 C425 1.684 . S
C438 H463 0.979 . S
C438 H464 0.980 . S
C438 H465 0.983 . S
C439 C440 1.391 . S
C439 C444 1.391 . S
C439 H469 0.948 . S
C440 C439 1.391 . S
C440 C441 1.391 . S
C441 C440 1.391 . S
C441 C442 1.392 . S
C441 H470 0.947 . S
C442 C441 1.392 . S
C442 C443 1.419 . S
C442 H471 0.948 . S
C443 C442 1.419 . S
C443 C444 1.391 . S
C443 C447 1.397 . S
C444 C439 1.391 . S
C444 C443 1.391 . S
C444 C445 1.399 . S
C445 C444 1.399 . S
C445 C446 1.396 . S
C445 C448 1.453 . S
C445 C449 1.684 . S
C446 C427 1.723 . S
C446 C445 1.396 . S
C446 C447 1.394 . S
C447 C443 1.397 . S
C447 C446 1.394 . S
C447 C457 1.723 . S
C448 C445 1.453 . S
C448 H472 0.982 . S
C448 H473 0.979 . S
C448 H474 0.977 . S
C449 C445 1.684 . S
C449 H475 0.979 . S
C449 H476 0.980 . S
C449 H477 0.983 . S
C450 H426 0.948 . S
C450 C451 1.391 . S
C450 C455 1.391 . S
C451 C450 1.391 . S
C451 C452 1.391 . S
C452 H429 0.947 . S
C452 C451 1.391 . S
C452 C453 1.392 . S
C453 H430 0.948 . S
C453 C452 1.392 . S
C453 C454 1.419 . S
C454 C453 1.419 . S
C454 C455 1.391 . S
C454 C458 1.397 . S
C455 C450 1.391 . S
C455 C454 1.391 . S
C455 C456 1.399 . S
C456 C455 1.399 . S
C456 C457 1.396 . S
C456 C459 1.453 . S
C456 C460 1.684 . S
C457 C447 1.723 . S
C457 C456 1.396 . S
C457 C458 1.394 . S
C458 C428 1.723 . S
C458 C454 1.397 . S
C458 C457 1.394 . S
C459 H431 0.982 . S
C459 H435 0.979 . S
C459 H436 0.977 . S
C459 C456 1.453 . S
C460 H432 0.979 . S
C460 H433 0.980 . S
C460 H434 0.983 . S
C460 C456 1.684 . S
H461 C479 0.948 . S
H462 C420 0.948 . S
H463 C438 0.979 . S
H464 C438 0.980 . S
H465 C438 0.983 . S
H466 C437 0.982 . S
H467 C437 0.979 . S
H468 C437 0.977 . S
H469 C439 0.948 . S
H470 C441 0.947 . S
H471 C442 0.948 . S
H472 C448 0.982 . S
H473 C448 0.979 . S
H474 C448 0.977 . S
H475 C449 0.979 . S
H476 C449 0.980 . S
H477 C449 0.983 . S
H478 C422 0.947 . S
C479 C422 1.392 . S
C479 C423 1.419 . S
C479 H461 0.948 . S
Tb480 C489 2.764 . S
Tb480 O490 2.323 . S
Tb480 O493 2.298 . S
Tb480 O497 2.324 1_445 S
Tb480 O498 2.354 1_455 S
Tb480 O501 2.412 . S
Tb480 O502 2.401 1_455 S
Tb481 O491 2.322 1_565 S
Tb481 O492 2.349 . S
Tb481 O494 2.415 . S
Tb481 O495 2.399 . S
Tb481 O496 2.325 . S
Tb481 O499 2.303 1_455 S
Tb481 C510 2.764 . S
C482 O498 1.261 . S
C482 O499 1.257 1_545 S
C483 C486 1.358 1_455 S
C483 C487 1.332 . S
C483 C489 1.504 . S
C484 C485 1.373 1_455 S
C484 C488 1.308 . S
C485 C484 1.373 1_655 S
C485 C486 1.429 . S
C485 H512 0.932 . S
C486 C483 1.358 1_655 S
C486 C485 1.429 . S
C486 H513 0.930 . S
C487 C483 1.332 . S
C487 C488 1.394 . S
C487 H514 0.932 . S
C488 C484 1.308 . S
C488 C487 1.394 . S
C488 H515 0.929 . S
C489 Tb480 2.764 . S
C489 C483 1.504 . S
C489 O501 1.239 . S
C489 O502 1.263 1_455 S
O490 Tb480 2.323 . S
O490 C500 1.236 . S
O491 Tb481 2.322 1_545 S
O491 C500 1.257 . S
O492 Tb481 2.349 . S
O492 C503 1.261 . S
O493 Tb480 2.298 . S
O493 C503 1.257 1_545 S
O494 Tb481 2.415 . S
O494 C510 1.239 . S
O495 Tb481 2.399 . S
O495 C510 1.263 . S
O496 Tb481 2.325 . S
O496 C511 1.236 1_455 S
O497 Tb480 2.324 1_665 S
O497 C511 1.257 . S
O498 Tb480 2.354 1_655 S
O498 C482 1.261 . S
O499 Tb481 2.303 1_655 S
O499 C482 1.257 1_565 S
C500 O490 1.236 . S
C500 O491 1.257 . S
O501 Tb480 2.412 . S
O501 C489 1.239 . S
O502 Tb480 2.401 1_655 S
O502 C489 1.263 1_655 S
C503 O492 1.261 . S
C503 O493 1.257 1_565 S
C504 C507 1.358 . S
C504 C508 1.332 . S
C504 C510 1.504 . S
C505 C506 1.373 . S
C505 C509 1.308 . S
C506 C505 1.373 . S
C506 C507 1.429 . S
C506 H516 0.932 . S
C507 C504 1.358 . S
C507 C506 1.429 . S
C507 H517 0.930 . S
C508 C504 1.332 . S
C508 C509 1.394 . S
C508 H518 0.932 1_455 S
C509 C505 1.308 . S
C509 C508 1.394 . S
C509 H519 0.929 1_455 S
C510 Tb481 2.764 . S
C510 O494 1.239 . S
C510 O495 1.263 . S
C510 C504 1.504 . S
C511 O496 1.236 1_655 S
C511 O497 1.257 . S
H512 C485 0.932 . S
H513 C486 0.930 . S
H514 C487 0.932 . S
H515 C488 0.929 . S
H516 C506 0.932 . S
H517 C507 0.930 . S
H518 C508 0.932 1_655 S
H519 C509 0.929 1_655 S
Tb520 C529 2.764 . S
Tb520 O530 2.325 . S
Tb520 O533 2.303 1_565 S
Tb520 O537 2.322 . S
Tb520 O538 2.349 . S
Tb520 O541 2.415 1_565 S
Tb520 O542 2.399 . S
Tb521 O531 2.322 . S
Tb521 O532 2.349 . S
Tb521 O534 2.415 1_545 S
Tb521 O535 2.399 . S
Tb521 O536 2.325 . S
Tb521 O539 2.303 1_545 S
Tb521 C550 2.764 . S
C522 O538 1.261 . S
C522 O539 1.257 . S
C523 C526 1.358 . S
C523 C527 1.332 . S
C523 C529 1.504 . S
C524 C525 1.373 . S
C524 C528 1.308 . S
C525 C524 1.373 . S
C525 C526 1.429 . S
C525 H552 0.932 . S
C526 C523 1.358 . S
C526 C525 1.429 . S
C526 H553 0.930 . S
C527 C523 1.332 . S
C527 C528 1.394 . S
C527 H554 0.932 1_565 S
C528 C524 1.308 . S
C528 C527 1.394 . S
C528 H555 0.929 1_565 S
C529 Tb520 2.764 . S
C529 C523 1.504 . S
C529 O541 1.239 1_565 S
C529 O542 1.263 . S
O530 Tb520 2.325 . S
O530 C540 1.236 1_565 S
O531 Tb521 2.322 . S
O531 C540 1.257 . S
O532 Tb521 2.349 . S
O532 C543 1.261 . S
O533 Tb520 2.303 1_545 S
O533 C543 1.257 . S
O534 Tb521 2.415 1_565 S
O534 C550 1.239 1_565 S
O535 Tb521 2.399 . S
O535 C550 1.263 . S
O536 Tb521 2.325 . S
O536 C551 1.236 1_545 S
O537 Tb520 2.322 . S
O537 C551 1.257 . S
O538 Tb520 2.349 . S
O538 C522 1.261 . S
O539 Tb521 2.303 1_565 S
O539 C522 1.257 . S
C540 O530 1.236 1_545 S
C540 O531 1.257 . S
O541 Tb520 2.415 1_545 S
O541 C529 1.239 1_545 S
O542 Tb520 2.399 . S
O542 C529 1.263 . S
C543 O532 1.261 . S
C543 O533 1.257 . S
C544 C547 1.358 . S
C544 C548 1.332 . S
C544 C550 1.504 . S
C545 C546 1.373 . S
C545 C549 1.308 . S
C546 C545 1.373 . S
C546 C547 1.429 . S
C546 H556 0.932 . S
C547 C544 1.358 . S
C547 C546 1.429 . S
C547 H557 0.930 . S
C548 C544 1.332 . S
C548 C549 1.394 . S
C548 H558 0.932 1_545 S
C549 C545 1.308 . S
C549 C548 1.394 . S
C549 H559 0.929 1_545 S
C550 Tb521 2.764 . S
C550 O534 1.239 1_545 S
C550 O535 1.263 . S
C550 C544 1.504 . S
C551 O536 1.236 1_565 S
C551 O537 1.257 . S
H552 C525 0.932 . S
H553 C526 0.930 . S
H554 C527 0.932 1_545 S
H555 C528 0.929 1_545 S
H556 C546 0.932 . S
H557 C547 0.930 . S
H558 C548 0.932 1_565 S
H559 C549 0.929 1_565 S
Tb560 C569 2.764 . S
Tb560 O570 2.325 . S
Tb560 O573 2.303 . S
Tb560 O577 2.322 . S
Tb560 O578 2.349 . S
Tb560 O581 2.415 . S
Tb560 O582 2.399 . S
Tb561 O571 2.322 . S
Tb561 O572 2.349 . S
Tb561 O574 2.415 . S
Tb561 O575 2.399 . S
Tb561 O576 2.325 . S
Tb561 O579 2.303 . S
Tb561 C590 2.764 . S
C562 O578 1.261 . S
C562 O579 1.257 . S
C563 C566 1.358 . S
C563 C567 1.332 . S
C563 C569 1.504 . S
C564 C565 1.373 . S
C564 C568 1.308 . S
C565 C564 1.373 . S
C565 C566 1.429 . S
C565 H592 0.932 . S
C566 C563 1.358 . S
C566 C565 1.429 . S
C566 H593 0.930 . S
C567 C563 1.332 . S
C567 C568 1.394 . S
C567 H594 0.932 . S
C568 C564 1.308 . S
C568 C567 1.394 . S
C568 H595 0.929 . S
C569 Tb560 2.764 . S
C569 C563 1.504 . S
C569 O581 1.239 . S
C569 O582 1.263 . S
O570 Tb560 2.325 . S
O570 C580 1.236 . S
O571 Tb561 2.322 . S
O571 C580 1.257 . S
O572 Tb561 2.349 . S
O572 C583 1.261 . S
O573 Tb560 2.303 . S
O573 C583 1.257 . S
O574 Tb561 2.415 . S
O574 C590 1.239 . S
O575 Tb561 2.399 . S
O575 C590 1.263 . S
O576 Tb561 2.325 . S
O576 C591 1.236 . S
O577 Tb560 2.322 . S
O577 C591 1.257 . S
O578 Tb560 2.349 . S
O578 C562 1.261 . S
O579 Tb561 2.303 . S
O579 C562 1.257 . S
C580 O570 1.236 . S
C580 O571 1.257 . S
O581 Tb560 2.415 . S
O581 C569 1.239 . S
O582 Tb560 2.399 . S
O582 C569 1.263 . S
C583 O572 1.261 . S
C583 O573 1.257 . S
C584 C587 1.358 . S
C584 C588 1.332 . S
C584 C590 1.504 . S
C585 C586 1.373 . S
C585 C589 1.308 . S
C586 C585 1.373 . S
C586 C587 1.429 . S
C586 H596 0.932 . S
C587 C584 1.358 . S
C587 C586 1.429 . S
C587 H597 0.930 . S
C588 C584 1.332 . S
C588 C589 1.394 . S
C588 H598 0.932 . S
C589 C585 1.308 . S
C589 C588 1.394 . S
C589 H599 0.929 . S
C590 Tb561 2.764 . S
C590 O574 1.239 . S
C590 O575 1.263 . S
C590 C584 1.504 . S
C591 O576 1.236 . S
C591 O577 1.257 . S
H592 C565 0.932 . S
H593 C566 0.930 . S
H594 C567 0.932 . S
H595 C568 0.929 . S
H596 C586 0.932 . S
H597 C587 0.930 . S
H598 C588 0.932 . S
H599 C589 0.929 . S
Tb600 C609 2.764 . S
Tb600 O610 2.325 . S
Tb600 O613 2.303 . S
Tb600 O617 2.322 1_455 S
Tb600 O618 2.349 . S
Tb600 O621 2.415 . S
Tb600 O622 2.399 . S
Tb601 O611 2.322 . S
Tb601 O612 2.349 . S
Tb601 O614 2.415 1_455 S
Tb601 O615 2.399 1_455 S
Tb601 O616 2.325 1_455 S
Tb601 O619 2.303 . S
Tb601 C630 2.764 1_455 S
C602 O618 1.261 . S
C602 O619 1.257 . S
C603 C606 1.358 . S
C603 C607 1.332 . S
C603 C609 1.504 . S
C604 C605 1.373 . S
C604 C608 1.308 . S
C605 C604 1.373 . S
C605 C606 1.429 . S
C605 H632 0.932 . S
C606 C603 1.358 . S
C606 C605 1.429 . S
C606 H633 0.930 . S
C607 C603 1.332 . S
C607 C608 1.394 . S
C607 H634 0.932 . S
C608 C604 1.308 . S
C608 C607 1.394 . S
C608 H635 0.929 . S
C609 Tb600 2.764 . S
C609 C603 1.504 . S
C609 O621 1.239 . S
C609 O622 1.263 . S
O610 Tb600 2.325 . S
O610 C620 1.236 . S
O611 Tb601 2.322 . S
O611 C620 1.257 . S
O612 Tb601 2.349 . S
O612 C623 1.261 . S
O613 Tb600 2.303 . S
O613 C623 1.257 . S
O614 Tb601 2.415 1_655 S
O614 C630 1.239 . S
O615 Tb601 2.399 1_655 S
O615 C630 1.263 . S
O616 Tb601 2.325 1_655 S
O616 C631 1.236 . S
O617 Tb600 2.322 1_655 S
O617 C631 1.257 . S
O618 Tb600 2.349 . S
O618 C602 1.261 . S
O619 Tb601 2.303 . S
O619 C602 1.257 . S
C620 O610 1.236 . S
C620 O611 1.257 . S
O621 Tb600 2.415 . S
O621 C609 1.239 . S
O622 Tb600 2.399 . S
O622 C609 1.263 . S
C623 O612 1.261 . S
C623 O613 1.257 . S
C624 C627 1.358 . S
C624 C628 1.332 . S
C624 C630 1.504 . S
C625 C626 1.373 . S
C625 C629 1.308 . S
C626 C625 1.373 . S
C626 C627 1.429 . S
C626 H636 0.932 . S
C627 C624 1.358 . S
C627 C626 1.429 . S
C627 H637 0.930 . S
C628 C624 1.332 . S
C628 C629 1.394 . S
C628 H638 0.932 . S
C629 C625 1.308 . S
C629 C628 1.394 . S
C629 H639 0.929 . S
C630 Tb601 2.764 1_655 S
C630 O614 1.239 . S
C630 O615 1.263 . S
C630 C624 1.504 . S
C631 O616 1.236 . S
C631 O617 1.257 . S
H632 C605 0.932 . S
H633 C606 0.930 . S
H634 C607 0.932 . S
H635 C608 0.929 . S
H636 C626 0.932 . S
H637 C627 0.930 . S
H638 C628 0.932 . S
H639 C629 0.929 . S
C640 C641 1.350 1_545 S
C640 C642 1.327 . S
C640 H665 0.950 . S
C641 C640 1.350 1_565 S
C641 C657 1.347 . S
C642 C640 1.327 . S
C642 C661 1.407 1_545 S
C642 H666 0.950 . S
C643 C660 1.574 . S
C643 C662 1.404 . S
C643 H667 0.949 . S
H644 C648 0.949 . S
C645 C646 1.349 . S
C645 C647 1.327 . S
C645 H668 0.950 . S
C646 C645 1.349 . S
C646 C658 1.349 1_565 S
C647 C645 1.327 . S
C647 C663 1.429 . S
C647 H669 0.950 . S
C648 H644 0.949 . S
C648 C656 1.574 . S
C648 C664 1.368 1_545 S
H649 C657 0.950 . S
H650 C655 0.950 . S
H651 C656 0.949 . S
H652 C658 0.950 . S
H653 C659 0.950 . S
H654 C660 0.949 . S
C655 H650 0.950 . S
C655 C657 1.327 . S
C655 C661 1.447 . S
C656 C648 1.574 . S
C656 H651 0.949 . S
C656 C662 1.337 1_545 S
C657 C641 1.347 . S
C657 H649 0.950 . S
C657 C655 1.327 . S
C658 C646 1.349 1_545 S
C658 H652 0.950 . S
C658 C659 1.327 . S
C659 H653 0.950 . S
C659 C658 1.327 . S
C659 C663 1.429 1_545 S
C660 C643 1.574 . S
C660 H654 0.949 . S
C660 C664 1.368 . S
C661 C642 1.407 1_565 S
C661 C655 1.447 . S
C661 C662 1.521 . S
C662 C643 1.404 . S
C662 C656 1.337 1_565 S
C662 C661 1.521 . S
C663 C647 1.429 . S
C663 C659 1.429 1_565 S
C663 C664 1.523 . S
C664 C648 1.368 1_565 S
C664 C660 1.368 . S
C664 C663 1.523 . S
H665 C640 0.950 . S
H666 C642 0.950 . S
H667 C643 0.949 . S
H668 C645 0.950 . S
H669 C647 0.950 . S
C670 C671 1.349 . S
C670 C672 1.327 . S
C670 H695 0.950 . S
C671 C670 1.349 . S
C671 C687 1.349 . S
C672 C670 1.327 . S
C672 C691 1.429 . S
C672 H696 0.950 . S
C673 C690 1.574 . S
C673 C692 1.368 . S
C673 H697 0.949 . S
H674 C678 0.949 . S
C675 C676 1.349 . S
C675 C677 1.327 . S
C675 H698 0.950 . S
C676 C675 1.349 . S
C676 C688 1.349 . S
C677 C675 1.327 . S
C677 C693 1.429 . S
C677 H699 0.950 . S
C678 H674 0.949 . S
C678 C686 1.574 . S
C678 C694 1.368 . S
H679 C687 0.950 . S
H680 C685 0.950 . S
H681 C686 0.949 . S
H682 C688 0.950 . S
H683 C689 0.950 . S
H684 C690 0.949 . S
C685 H680 0.950 . S
C685 C687 1.327 . S
C685 C691 1.429 . S
C686 C678 1.574 . S
C686 H681 0.949 . S
C686 C692 1.368 . S
C687 C671 1.349 . S
C687 H679 0.950 . S
C687 C685 1.327 . S
C688 C676 1.349 . S
C688 H682 0.950 . S
C688 C689 1.327 . S
C689 H683 0.950 . S
C689 C688 1.327 . S
C689 C693 1.429 . S
C690 C673 1.574 . S
C690 H684 0.949 . S
C690 C694 1.368 . S
C691 C672 1.429 . S
C691 C685 1.429 . S
C691 C692 1.523 . S
C692 C673 1.368 . S
C692 C686 1.368 . S
C692 C691 1.523 . S
C693 C677 1.429 . S
C693 C689 1.429 . S
C693 C694 1.523 . S
C694 C678 1.368 . S
C694 C690 1.368 . S
C694 C693 1.523 . S
H695 C670 0.950 . S
H696 C672 0.950 . S
H697 C673 0.949 . S
H698 C675 0.950 . S
H699 C677 0.950 . S
C700 C701 1.349 . S
C700 C702 1.327 . S
C700 H725 0.950 . S
C701 C700 1.349 . S
C701 C717 1.349 . S
C702 C700 1.327 . S
C702 C721 1.429 . S
C702 H726 0.950 . S
C703 C720 1.574 . S
C703 C722 1.368 . S
C703 H727 0.949 . S
H704 C708 0.949 . S
C705 C706 1.349 . S
C705 C707 1.327 . S
C705 H728 0.950 . S
C706 C705 1.349 . S
C706 C718 1.349 . S
C707 C705 1.327 . S
C707 C723 1.429 . S
C707 H729 0.950 . S
C708 H704 0.949 . S
C708 C716 1.574 . S
C708 C724 1.368 . S
H709 C717 0.950 . S
H710 C715 0.950 . S
H711 C716 0.949 . S
H712 C718 0.950 . S
H713 C719 0.950 . S
H714 C720 0.949 . S
C715 H710 0.950 . S
C715 C717 1.327 . S
C715 C721 1.429 . S
C716 C708 1.574 . S
C716 H711 0.949 . S
C716 C722 1.368 . S
C717 C701 1.349 . S
C717 H709 0.950 . S
C717 C715 1.327 . S
C718 C706 1.349 . S
C718 H712 0.950 . S
C718 C719 1.327 . S
C719 H713 0.950 . S
C719 C718 1.327 . S
C719 C723 1.429 . S
C720 C703 1.574 . S
C720 H714 0.949 . S
C720 C724 1.368 . S
C721 C702 1.429 . S
C721 C715 1.429 . S
C721 C722 1.523 . S
C722 C703 1.368 . S
C722 C716 1.368 . S
C722 C721 1.523 . S
C723 C707 1.429 . S
C723 C719 1.429 . S
C723 C724 1.523 . S
C724 C708 1.368 . S
C724 C720 1.368 . S
C724 C723 1.523 . S
H725 C700 0.950 . S
H726 C702 0.950 . S
H727 C703 0.949 . S
H728 C705 0.950 . S
H729 C707 0.950 . S
C730 C731 1.349 . S
C730 C732 1.327 . S
C730 H755 0.950 . S
C731 C730 1.349 . S
C731 C747 1.349 . S
C732 C730 1.327 . S
C732 C751 1.429 . S
C732 H756 0.950 . S
C733 C750 1.574 . S
C733 C752 1.368 . S
C733 H757 0.949 . S
H734 C738 0.949 . S
C735 C736 1.349 . S
C735 C737 1.327 . S
C735 H758 0.950 . S
C736 C735 1.349 . S
C736 C748 1.349 . S
C737 C735 1.327 . S
C737 C753 1.429 . S
C737 H759 0.950 . S
C738 H734 0.949 . S
C738 C746 1.574 . S
C738 C754 1.368 . S
H739 C747 0.950 . S
H740 C745 0.950 . S
H741 C746 0.949 . S
H742 C748 0.950 . S
H743 C749 0.950 . S
H744 C750 0.949 . S
C745 H740 0.950 . S
C745 C747 1.327 . S
C745 C751 1.429 . S
C746 C738 1.574 . S
C746 H741 0.949 . S
C746 C752 1.368 . S
C747 C731 1.349 . S
C747 H739 0.950 . S
C747 C745 1.327 . S
C748 C736 1.349 . S
C748 H742 0.950 . S
C748 C749 1.327 . S
C749 H743 0.950 . S
C749 C748 1.327 . S
C749 C753 1.429 . S
C750 C733 1.574 . S
C750 H744 0.949 . S
C750 C754 1.368 . S
C751 C732 1.429 . S
C751 C745 1.429 . S
C751 C752 1.523 . S
C752 C733 1.368 . S
C752 C746 1.368 . S
C752 C751 1.523 . S
C753 C737 1.429 . S
C753 C749 1.429 . S
C753 C754 1.523 . S
C754 C738 1.368 . S
C754 C750 1.368 . S
C754 C753 1.523 . S
H755 C730 0.950 . S
H756 C732 0.950 . S
H757 C733 0.949 . S
H758 C735 0.950 . S
H759 C737 0.950 . S
C760 C761 1.342 1_565 S
C760 C762 1.327 . S
C760 H785 0.950 . S
C761 C760 1.342 1_545 S
C761 C777 1.357 . S
C762 C760 1.327 . S
C762 C781 1.400 1_565 S
C762 H786 0.950 . S
C763 C780 1.574 . S
C763 C782 1.411 . S
C763 H787 0.949 . S
H764 C768 0.949 . S
C765 C766 1.349 . S
C765 C767 1.327 . S
C765 H788 0.950 . S
C766 C765 1.349 . S
C766 C778 1.349 1_545 S
C767 C765 1.327 . S
C767 C783 1.429 . S
C767 H789 0.950 . S
C768 H764 0.949 . S
C768 C776 1.574 1_556 S
C768 C784 1.368 1_565 S
H769 C777 0.950 . S
H770 C775 0.950 . S
H771 C776 0.949 . S
H772 C778 0.950 . S
H773 C779 0.950 . S
H774 C780 0.949 . S
C775 H770 0.950 . S
C775 C777 1.327 . S
C775 C781 1.452 . S
C776 C768 1.574 1_554 S
C776 H771 0.949 . S
C776 C782 1.332 1_565 S
C777 C761 1.357 . S
C777 H769 0.950 . S
C777 C775 1.327 . S
C778 C766 1.349 1_565 S
C778 H772 0.950 . S
C778 C779 1.327 . S
C779 H773 0.950 . S
C779 C778 1.327 . S
C779 C783 1.429 1_565 S
C780 C763 1.574 . S
C780 H774 0.949 . S
C780 C784 1.368 1_554 S
C781 C762 1.400 1_545 S
C781 C775 1.452 . S
C781 C782 1.521 . S
C782 C763 1.411 . S
C782 C776 1.332 1_545 S
C782 C781 1.521 . S
C783 C767 1.429 . S
C783 C779 1.429 1_545 S
C783 C784 1.523 . S
C784 C768 1.368 1_545 S
C784 C780 1.368 1_556 S
C784 C783 1.523 . S
H785 C760 0.950 . S
H786 C762 0.950 . S
H787 C763 0.949 . S
H788 C765 0.950 . S
H789 C767 0.950 . S
C790 C791 1.349 . S
C790 C792 1.327 . S
C790 H815 0.950 . S
C791 C790 1.349 . S
C791 C807 1.349 . S
C792 C790 1.327 . S
C792 C811 1.429 . S
C792 H816 0.950 . S
C793 C810 1.574 . S
C793 C812 1.368 . S
C793 H817 0.949 . S
H794 C798 0.949 . S
C795 C796 1.349 . S
C795 C797 1.327 . S
C795 H818 0.950 . S
C796 C795 1.349 . S
C796 C808 1.349 . S
C797 C795 1.327 . S
C797 C813 1.429 . S
C797 H819 0.950 . S
C798 H794 0.949 . S
C798 C806 1.574 . S
C798 C814 1.368 . S
H799 C807 0.950 . S
H800 C805 0.950 . S
H801 C806 0.949 . S
H802 C808 0.950 . S
H803 C809 0.950 . S
H804 C810 0.949 . S
C805 H800 0.950 . S
C805 C807 1.327 . S
C805 C811 1.429 . S
C806 C798 1.574 . S
C806 H801 0.949 . S
C806 C812 1.368 . S
C807 C791 1.349 . S
C807 H799 0.950 . S
C807 C805 1.327 . S
C808 C796 1.349 . S
C808 H802 0.950 . S
C808 C809 1.327 . S
C809 H803 0.950 . S
C809 C808 1.327 . S
C809 C813 1.429 . S
C810 C793 1.574 . S
C810 H804 0.949 . S
C810 C814 1.368 . S
C811 C792 1.429 . S
C811 C805 1.429 . S
C811 C812 1.523 . S
C812 C793 1.368 . S
C812 C806 1.368 . S
C812 C811 1.523 . S
C813 C797 1.429 . S
C813 C809 1.429 . S
C813 C814 1.523 . S
C814 C798 1.368 . S
C814 C810 1.368 . S
C814 C813 1.523 . S
H815 C790 0.950 . S
H816 C792 0.950 . S
H817 C793 0.949 . S
H818 C795 0.950 . S
H819 C797 0.950 . S
C820 C821 1.349 . S
C820 C822 1.327 . S
C820 H845 0.950 . S
C821 C820 1.349 . S
C821 C837 1.349 . S
C822 C820 1.327 . S
C822 C841 1.429 . S
C822 H846 0.950 . S
C823 C840 1.574 . S
C823 C842 1.368 . S
C823 H847 0.949 . S
H824 C828 0.949 . S
C825 C826 1.349 . S
C825 C827 1.327 . S
C825 H848 0.950 . S
C826 C825 1.349 . S
C826 C838 1.349 . S
C827 C825 1.327 . S
C827 C843 1.429 . S
C827 H849 0.950 . S
C828 H824 0.949 . S
C828 C836 1.574 1_556 S
C828 C844 1.368 . S
H829 C837 0.950 . S
H830 C835 0.950 . S
H831 C836 0.949 . S
H832 C838 0.950 . S
H833 C839 0.950 . S
H834 C840 0.949 . S
C835 H830 0.950 . S
C835 C837 1.327 . S
C835 C841 1.429 . S
C836 C828 1.574 1_554 S
C836 H831 0.949 . S
C836 C842 1.368 . S
C837 C821 1.349 . S
C837 H829 0.950 . S
C837 C835 1.327 . S
C838 C826 1.349 . S
C838 H832 0.950 . S
C838 C839 1.327 . S
C839 H833 0.950 . S
C839 C838 1.327 . S
C839 C843 1.429 . S
C840 C823 1.574 . S
C840 H834 0.949 . S
C840 C844 1.368 1_554 S
C841 C822 1.429 . S
C841 C835 1.429 . S
C841 C842 1.523 . S
C842 C823 1.368 . S
C842 C836 1.368 . S
C842 C841 1.523 . S
C843 C827 1.429 . S
C843 C839 1.429 . S
C843 C844 1.523 . S
C844 C828 1.368 . S
C844 C840 1.368 1_556 S
C844 C843 1.523 . S
H845 C820 0.950 . S
H846 C822 0.950 . S
H847 C823 0.949 . S
H848 C825 0.950 . S
H849 C827 0.950 . S
C850 C851 1.349 . S
C850 C852 1.327 . S
C850 H875 0.950 . S
C851 C850 1.349 . S
C851 C867 1.349 . S
C852 C850 1.327 . S
C852 C871 1.429 . S
C852 H876 0.950 . S
C853 C870 1.574 1_554 S
C853 C872 1.368 . S
C853 H877 0.949 . S
H854 C858 0.949 . S
C855 C856 1.349 . S
C855 C857 1.327 . S
C855 H878 0.950 . S
C856 C855 1.349 . S
C856 C868 1.349 1_655 S
C857 C855 1.327 . S
C857 C873 1.429 . S
C857 H879 0.950 . S
C858 H854 0.949 . S
C858 C866 1.574 1_556 S
C858 C874 1.368 . S
H859 C867 0.950 . S
H860 C865 0.950 . S
H861 C866 0.949 . S
H862 C868 0.950 . S
H863 C869 0.950 1_455 S
H864 C870 0.949 . S
C865 H860 0.950 . S
C865 C867 1.327 . S
C865 C871 1.429 . S
C866 C858 1.574 1_554 S
C866 H861 0.949 . S
C866 C872 1.368 . S
C867 C851 1.349 . S
C867 H859 0.950 . S
C867 C865 1.327 . S
C868 C856 1.349 1_455 S
C868 H862 0.950 . S
C868 C869 1.327 1_455 S
C869 H863 0.950 1_655 S
C869 C868 1.327 1_655 S
C869 C873 1.429 . S
C870 C853 1.574 1_556 S
C870 H864 0.949 . S
C870 C874 1.368 . S
C871 C852 1.429 . S
C871 C865 1.429 . S
C871 C872 1.523 . S
C872 C853 1.368 . S
C872 C866 1.368 . S
C872 C871 1.523 . S
C873 C857 1.429 . S
C873 C869 1.429 . S
C873 C874 1.523 . S
C874 C858 1.368 . S
C874 C870 1.368 . S
C874 C873 1.523 . S
H875 C850 0.950 . S
H876 C852 0.950 . S
H877 C853 0.949 . S
H878 C855 0.950 . S
H879 C857 0.950 . S
C880 C881 1.349 . S
C880 C882 1.327 . S
C880 H905 0.950 . S
C881 C880 1.349 . S
C881 C897 1.349 . S
C882 C880 1.327 . S
C882 C901 1.429 . S
C882 H906 0.950 . S
C883 C900 1.574 . S
C883 C902 1.368 . S
C883 H907 0.949 . S
H884 C888 0.949 . S
C885 C886 1.349 . S
C885 C887 1.327 . S
C885 H908 0.950 . S
C886 C885 1.349 . S
C886 C898 1.349 1_455 S
C887 C885 1.327 . S
C887 C903 1.429 . S
C887 H909 0.950 . S
C888 H884 0.949 . S
C888 C896 1.574 . S
C888 C904 1.368 . S
H889 C897 0.950 . S
H890 C895 0.950 . S
H891 C896 0.949 . S
H892 C898 0.950 . S
H893 C899 0.950 . S
H894 C900 0.949 . S
C895 H890 0.950 . S
C895 C897 1.327 . S
C895 C901 1.429 . S
C896 C888 1.574 . S
C896 H891 0.949 . S
C896 C902 1.368 . S
C897 C881 1.349 . S
C897 H889 0.950 . S
C897 C895 1.327 . S
C898 C886 1.349 1_655 S
C898 H892 0.950 . S
C898 C899 1.327 1_655 S
C899 H893 0.950 . S
C899 C898 1.327 1_455 S
C899 C903 1.429 . S
C900 C883 1.574 . S
C900 H894 0.949 . S
C900 C904 1.368 . S
C901 C882 1.429 . S
C901 C895 1.429 . S
C901 C902 1.523 . S
C902 C883 1.368 . S
C902 C896 1.368 . S
C902 C901 1.523 . S
C903 C887 1.429 . S
C903 C899 1.429 . S
C903 C904 1.523 . S
C904 C888 1.368 . S
C904 C900 1.368 . S
C904 C903 1.523 . S
H905 C880 0.950 . S
H906 C882 0.950 . S
H907 C883 0.949 . S
H908 C885 0.950 . S
H909 C887 0.950 . S
C910 C911 1.349 1_565 S
C910 C912 1.327 . S
C910 H935 0.950 . S
C911 C910 1.349 1_545 S
C911 C927 1.349 . S
C912 C910 1.327 . S
C912 C931 1.429 . S
C912 H936 0.950 . S
C913 C930 1.574 . S
C913 C932 1.368 . S
C913 H937 0.949 . S
H914 C918 0.949 . S
C915 C916 1.349 . S
C915 C917 1.327 . S
C915 H938 0.950 . S
C916 C915 1.349 . S
C916 C928 1.349 . S
C917 C915 1.327 . S
C917 C933 1.429 . S
C917 H939 0.950 . S
C918 H914 0.949 . S
C918 C926 1.574 . S
C918 C934 1.368 . S
H919 C927 0.950 . S
H920 C925 0.949 . S
H921 C926 0.949 . S
H922 C928 0.950 . S
H923 C929 0.950 . S
H924 C930 0.949 . S
C925 H920 0.949 . S
C925 C927 1.336 . S
C925 C931 1.423 1_545 S
C926 C918 1.574 . S
C926 H921 0.949 . S
C926 C932 1.368 . S
C927 C911 1.349 . S
C927 H919 0.950 . S
C927 C925 1.336 . S
C928 C916 1.349 . S
C928 H922 0.950 . S
C928 C929 1.327 . S
C929 H923 0.950 . S
C929 C928 1.327 . S
C929 C933 1.429 . S
C930 C913 1.574 . S
C930 H924 0.949 . S
C930 C934 1.368 . S
C931 C912 1.429 . S
C931 C925 1.423 1_565 S
C931 C932 1.523 . S
C932 C913 1.368 . S
C932 C926 1.368 . S
C932 C931 1.523 . S
C933 C917 1.429 . S
C933 C929 1.429 . S
C933 C934 1.523 . S
C934 C918 1.368 . S
C934 C930 1.368 . S
C934 C933 1.523 . S
H935 C910 0.950 . S
H936 C912 0.950 . S
H937 C913 0.949 . S
H938 C915 0.950 . S
H939 C917 0.950 . S
C940 C941 1.349 . S
C940 C942 1.327 . S
C940 H965 0.950 . S
C941 C940 1.349 . S
C941 C957 1.349 . S
C942 C940 1.327 . S
C942 C961 1.429 . S
C942 H966 0.950 . S
C943 C960 1.574 . S
C943 C962 1.368 . S
C943 H967 0.949 . S
H944 C948 0.949 . S
C945 C946 1.349 . S
C945 C947 1.327 . S
C945 H968 0.950 . S
C946 C945 1.349 . S
C946 C958 1.349 . S
C947 C945 1.327 . S
C947 C963 1.429 . S
C947 H969 0.950 . S
C948 H944 0.949 . S
C948 C956 1.574 . S
C948 C964 1.368 . S
H949 C957 0.950 . S
H950 C955 0.950 . S
H951 C956 0.949 . S
H952 C958 0.950 . S
H953 C959 0.950 . S
H954 C960 0.949 . S
C955 H950 0.950 . S
C955 C957 1.327 . S
C955 C961 1.429 . S
C956 C948 1.574 . S
C956 H951 0.949 . S
C956 C962 1.368 . S
C957 C941 1.349 . S
C957 H949 0.950 . S
C957 C955 1.327 . S
C958 C946 1.349 . S
C958 H952 0.950 . S
C958 C959 1.327 . S
C959 H953 0.950 . S
C959 C958 1.327 . S
C959 C963 1.429 . S
C960 C943 1.574 . S
C960 H954 0.949 . S
C960 C964 1.368 . S
C961 C942 1.429 . S
C961 C955 1.429 . S
C961 C962 1.523 . S
C962 C943 1.368 . S
C962 C956 1.368 . S
C962 C961 1.523 . S
C963 C947 1.429 . S
C963 C959 1.429 . S
C963 C964 1.523 . S
C964 C948 1.368 . S
C964 C960 1.368 . S
C964 C963 1.523 . S
H965 C940 0.950 . S
H966 C942 0.950 . S
H967 C943 0.949 . S
H968 C945 0.950 . S
H969 C947 0.950 . S
C970 C971 1.349 . S
C970 C972 1.327 . S
C970 H995 0.950 . S
C971 C970 1.349 . S
C971 C987 1.349 . S
C972 C970 1.327 . S
C972 C991 1.429 . S
C972 H996 0.950 . S
C973 C990 1.574 . S
C973 C992 1.368 . S
C973 H997 0.949 . S
H974 C978 0.949 . S
C975 C976 1.349 . S
C975 C977 1.327 . S
C975 H998 0.950 . S
C976 C975 1.349 . S
C976 C988 1.349 . S
C977 C975 1.327 . S
C977 C993 1.429 . S
C977 H999 0.950 . S
C978 H974 0.949 . S
C978 C986 1.574 . S
C978 C994 1.368 . S
H979 C987 0.950 . S
H980 C985 0.950 . S
H981 C986 0.949 . S
H982 C988 0.950 . S
H983 C989 0.950 . S
H984 C990 0.949 . S
C985 H980 0.950 . S
C985 C987 1.327 . S
C985 C991 1.429 . S
C986 C978 1.574 . S
C986 H981 0.949 . S
C986 C992 1.368 . S
C987 C971 1.349 . S
C987 H979 0.950 . S
C987 C985 1.327 . S
C988 C976 1.349 . S
C988 H982 0.950 . S
C988 C989 1.327 . S
C989 H983 0.950 . S
C989 C988 1.327 . S
C989 C993 1.429 . S
C990 C973 1.574 . S
C990 H984 0.949 . S
C990 C994 1.368 . S
C991 C972 1.429 . S
C991 C985 1.429 . S
C991 C992 1.523 . S
C992 C973 1.368 . S
C992 C986 1.368 . S
C992 C991 1.523 . S
C993 C977 1.429 . S
C993 C989 1.429 . S
C993 C994 1.523 . S
C994 C978 1.368 . S
C994 C990 1.368 . S
C994 C993 1.523 . S
H995 C970 0.950 . S
H996 C972 0.950 . S
H997 C973 0.949 . S
H998 C975 0.950 . S
H999 C977 0.950 . S
C1000 C1001 1.349 . S
C1000 C1002 1.327 . S
C1000 H1025 0.950 . S
C1001 C1000 1.349 . S
C1001 C1017 1.349 . S
C1002 C1000 1.327 . S
C1002 C1021 1.429 . S
C1002 H1026 0.950 1_554 S
C1003 C1020 1.574 . S
C1003 C1022 1.368 . S
C1003 H1027 0.949 . S
H1004 C1008 0.949 . S
C1005 C1006 1.349 . S
C1005 C1007 1.327 . S
C1005 H1028 0.950 . S
C1006 C1005 1.349 . S
C1006 C1018 1.349 . S
C1007 C1005 1.327 . S
C1007 C1023 1.429 . S
C1007 H1029 0.950 1_556 S
C1008 H1004 0.949 . S
C1008 C1016 1.574 . S
C1008 C1024 1.368 . S
H1009 C1017 0.950 . S
H1010 C1015 0.950 . S
H1011 C1016 0.949 . S
H1012 C1018 0.950 . S
H1013 C1019 0.950 1_655 S
H1014 C1020 0.949 1_455 S
C1015 H1010 0.950 . S
C1015 C1017 1.327 . S
C1015 C1021 1.429 . S
C1016 C1008 1.574 . S
C1016 H1011 0.949 . S
C1016 C1022 1.368 1_556 S
C1017 C1001 1.349 . S
C1017 H1009 0.950 . S
C1017 C1015 1.327 . S
C1018 C1006 1.349 . S
C1018 H1012 0.950 . S
C1018 C1019 1.327 . S
C1019 H1013 0.950 1_455 S
C1019 C1018 1.327 . S
C1019 C1023 1.429 . S
C1020 C1003 1.574 . S
C1020 H1014 0.949 1_655 S
C1020 C1024 1.368 1_554 S
C1021 C1002 1.429 . S
C1021 C1015 1.429 . S
C1021 C1022 1.523 . S
C1022 C1003 1.368 . S
C1022 C1016 1.368 1_554 S
C1022 C1021 1.523 . S
C1023 C1007 1.429 . S
C1023 C1019 1.429 . S
C1023 C1024 1.523 1_455 S
C1024 C1008 1.368 . S
C1024 C1020 1.368 1_556 S
C1024 C1023 1.523 1_655 S
H1025 C1000 0.950 . S
H1026 C1002 0.950 1_556 S
H1027 C1003 0.949 . S
H1028 C1005 0.950 . S
H1029 C1007 0.950 1_554 S
C1030 C1031 1.349 1_545 S
C1030 C1032 1.327 . S
C1030 H1055 0.950 . S
C1031 C1030 1.349 1_565 S
C1031 C1047 1.349 . S
C1032 C1030 1.327 . S
C1032 C1051 1.429 . S
C1032 H1056 0.950 . S
C1033 C1050 1.574 . S
C1033 C1052 1.368 1_565 S
C1033 H1057 0.949 . S
H1034 C1038 0.949 . S
C1035 C1036 1.349 . S
C1035 C1037 1.327 . S
C1035 H1058 0.950 1_545 S
C1036 C1035 1.349 . S
C1036 C1048 1.349 . S
C1037 C1035 1.327 . S
C1037 C1053 1.429 . S
C1037 H1059 0.950 1_545 S
C1038 H1034 0.949 . S
C1038 C1046 1.574 . S
C1038 C1054 1.368 . S
H1039 C1047 0.950 . S
H1040 C1045 0.950 . S
H1041 C1046 0.949 . S
H1042 C1048 0.950 . S
H1043 C1049 0.950 . S
H1044 C1050 0.949 . S
C1045 H1040 0.950 . S
C1045 C1047 1.327 . S
C1045 C1051 1.429 1_565 S
C1046 C1038 1.574 . S
C1046 H1041 0.949 . S
C1046 C1052 1.368 . S
C1047 C1031 1.349 . S
C1047 H1039 0.950 . S
C1047 C1045 1.327 . S
C1048 C1036 1.349 . S
C1048 H1042 0.950 . S
C1048 C1049 1.327 . S
C1049 H1043 0.950 . S
C1049 C1048 1.327 . S
C1049 C1053 1.429 . S
C1050 C1033 1.574 . S
C1050 H1044 0.949 . S
C1050 C1054 1.368 1_565 S
C1051 C1032 1.429 . S
C1051 C1045 1.429 1_545 S
C1051 C1052 1.523 . S
C1052 C1033 1.368 1_545 S
C1052 C1046 1.368 . S
C1052 C1051 1.523 . S
C1053 C1037 1.429 . S
C1053 C1049 1.429 . S
C1053 C1054 1.523 1_556 S
C1054 C1038 1.368 . S
C1054 C1050 1.368 1_545 S
C1054 C1053 1.523 1_554 S
H1055 C1030 0.950 . S
H1056 C1032 0.950 . S
H1057 C1033 0.949 . S
H1058 C1035 0.950 1_565 S
H1059 C1037 0.950 1_565 S
C1060 C1061 1.349 . S
C1060 C1062 1.327 . S
C1060 H1085 0.950 . S
C1061 C1060 1.349 . S
C1061 C1077 1.349 . S
C1062 C1060 1.327 . S
C1062 C1081 1.429 . S
C1062 H1086 0.950 . S
C1063 C1080 1.574 . S
C1063 C1082 1.368 . S
C1063 H1087 0.949 . S
H1064 C1068 0.949 . S
C1065 C1066 1.349 . S
C1065 C1067 1.327 . S
C1065 H1088 0.950 . S
C1066 C1065 1.349 . S
C1066 C1078 1.349 . S
C1067 C1065 1.327 . S
C1067 C1083 1.429 . S
C1067 H1089 0.950 . S
C1068 H1064 0.949 . S
C1068 C1076 1.574 . S
C1068 C1084 1.368 . S
H1069 C1077 0.950 . S
H1070 C1075 0.950 . S
H1071 C1076 0.949 . S
H1072 C1078 0.950 . S
H1073 C1079 0.950 . S
H1074 C1080 0.949 . S
C1075 H1070 0.950 . S
C1075 C1077 1.327 . S
C1075 C1081 1.429 . S
C1076 C1068 1.574 . S
C1076 H1071 0.949 . S
C1076 C1082 1.368 . S
C1077 C1061 1.349 . S
C1077 H1069 0.950 . S
C1077 C1075 1.327 . S
C1078 C1066 1.349 . S
C1078 H1072 0.950 . S
C1078 C1079 1.327 . S
C1079 H1073 0.950 . S
C1079 C1078 1.327 . S
C1079 C1083 1.429 . S
C1080 C1063 1.574 . S
C1080 H1074 0.949 . S
C1080 C1084 1.368 . S
C1081 C1062 1.429 . S
C1081 C1075 1.429 . S
C1081 C1082 1.523 . S
C1082 C1063 1.368 . S
C1082 C1076 1.368 . S
C1082 C1081 1.523 . S
C1083 C1067 1.429 . S
C1083 C1079 1.429 . S
C1083 C1084 1.523 . S
C1084 C1068 1.368 . S
C1084 C1080 1.368 . S
C1084 C1083 1.523 . S
H1085 C1060 0.950 . S
H1086 C1062 0.950 . S
H1087 C1063 0.949 . S
H1088 C1065 0.950 . S
H1089 C1067 0.950 . S
C1090 C1091 1.349 . S
C1090 C1092 1.327 . S
C1090 H1115 0.950 . S
C1091 C1090 1.349 . S
C1091 C1107 1.349 . S
C1092 C1090 1.327 . S
C1092 C1111 1.429 . S
C1092 H1116 0.950 . S
C1093 C1110 1.574 1_554 S
C1093 C1112 1.368 . S
C1093 H1117 0.949 . S
H1094 C1098 0.949 . S
C1095 C1096 1.349 . S
C1095 C1097 1.327 . S
C1095 H1118 0.950 . S
C1096 C1095 1.349 . S
C1096 C1108 1.349 . S
C1097 C1095 1.327 . S
C1097 C1113 1.429 . S
C1097 H1119 0.950 . S
C1098 H1094 0.949 . S
C1098 C1106 1.574 . S
C1098 C1114 1.368 . S
H1099 C1107 0.950 . S
H1100 C1105 0.950 . S
H1101 C1106 0.949 . S
H1102 C1108 0.950 . S
H1103 C1109 0.950 1_554 S
H1104 C1110 0.949 . S
C1105 H1100 0.950 . S
C1105 C1107 1.327 . S
C1105 C1111 1.429 . S
C1106 C1098 1.574 . S
C1106 H1101 0.949 . S
C1106 C1112 1.368 . S
C1107 C1091 1.349 . S
C1107 H1099 0.950 . S
C1107 C1105 1.327 . S
C1108 C1096 1.349 . S
C1108 H1102 0.950 . S
C1108 C1109 1.327 . S
C1109 H1103 0.950 1_556 S
C1109 C1108 1.327 . S
C1109 C1113 1.429 . S
C1110 C1093 1.574 1_556 S
C1110 H1104 0.949 . S
C1110 C1114 1.368 1_556 S
C1111 C1092 1.429 . S
C1111 C1105 1.429 . S
C1111 C1112 1.523 . S
C1112 C1093 1.368 . S
C1112 C1106 1.368 . S
C1112 C1111 1.523 . S
C1113 C1097 1.429 . S
C1113 C1109 1.429 . S
C1113 C1114 1.523 1_556 S
C1114 C1098 1.368 . S
C1114 C1110 1.368 1_554 S
C1114 C1113 1.523 1_554 S
H1115 C1090 0.950 . S
H1116 C1092 0.950 . S
H1117 C1093 0.949 . S
H1118 C1095 0.950 . S
H1119 C1097 0.950 . S
C1120 C1121 1.349 . S
C1120 C1122 1.327 . S
C1120 H1145 0.950 1_556 S
C1121 C1120 1.349 . S
C1121 C1137 1.349 . S
C1122 C1120 1.327 . S
C1122 C1141 1.429 . S
C1122 H1146 0.950 . S
C1123 C1140 1.574 . S
C1123 C1142 1.368 . S
C1123 H1147 0.949 . S
H1124 C1128 0.949 . S
C1125 C1126 1.349 . S
C1125 C1127 1.327 . S
C1125 H1148 0.950 . S
C1126 C1125 1.349 . S
C1126 C1138 1.349 . S
C1127 C1125 1.327 . S
C1127 C1143 1.429 . S
C1127 H1149 0.950 . S
C1128 H1124 0.949 . S
C1128 C1136 1.574 . S
C1128 C1144 1.368 . S
H1129 C1137 0.950 . S
H1130 C1135 0.950 . S
H1131 C1136 0.949 . S
H1132 C1138 0.950 . S
H1133 C1139 0.950 . S
H1134 C1140 0.949 . S
C1135 H1130 0.950 . S
C1135 C1137 1.327 . S
C1135 C1141 1.429 . S
C1136 C1128 1.574 . S
C1136 H1131 0.949 . S
C1136 C1142 1.368 . S
C1137 C1121 1.349 . S
C1137 H1129 0.950 . S
C1137 C1135 1.327 . S
C1138 C1126 1.349 . S
C1138 H1132 0.950 . S
C1138 C1139 1.327 . S
C1139 H1133 0.950 . S
C1139 C1138 1.327 . S
C1139 C1143 1.429 . S
C1140 C1123 1.574 . S
C1140 H1134 0.949 . S
C1140 C1144 1.368 . S
C1141 C1122 1.429 . S
C1141 C1135 1.429 . S
C1141 C1142 1.523 . S
C1142 C1123 1.368 . S
C1142 C1136 1.368 . S
C1142 C1141 1.523 . S
C1143 C1127 1.429 . S
C1143 C1139 1.429 . S
C1143 C1144 1.523 . S
C1144 C1128 1.368 . S
C1144 C1140 1.368 . S
C1144 C1143 1.523 . S
H1145 C1120 0.950 1_554 S
H1146 C1122 0.950 . S
H1147 C1123 0.949 . S
H1148 C1125 0.950 . S
H1149 C1127 0.950 . S
C1150 C1151 1.331 1_565 S
C1150 C1152 1.327 . S
C1150 H1175 0.950 . S
C1151 C1150 1.331 1_545 S
C1151 C1167 1.370 . S
C1152 C1150 1.327 . S
C1152 C1171 1.429 1_565 S
C1152 H1176 0.950 . S
C1153 C1170 1.574 . S
C1153 C1172 1.368 . S
C1153 H1177 0.949 . S
H1154 C1158 0.949 . S
C1155 C1156 1.349 . S
C1155 C1157 1.327 . S
C1155 H1178 0.950 . S
C1156 C1155 1.349 . S
C1156 C1168 1.349 1_545 S
C1157 C1155 1.327 . S
C1157 C1173 1.429 . S
C1157 H1179 0.950 . S
C1158 H1154 0.949 . S
C1158 C1166 1.574 . S
C1158 C1174 1.368 1_565 S
H1159 C1167 0.950 . S
H1160 C1165 0.950 . S
H1161 C1166 0.949 . S
H1162 C1168 0.950 . S
H1163 C1169 0.950 . S
H1164 C1170 0.949 . S
C1165 H1160 0.950 . S
C1165 C1167 1.327 . S
C1165 C1171 1.429 . S
C1166 C1158 1.574 . S
C1166 H1161 0.949 . S
C1166 C1172 1.368 1_565 S
C1167 C1151 1.370 . S
C1167 H1159 0.950 . S
C1167 C1165 1.327 . S
C1168 C1156 1.349 1_565 S
C1168 H1162 0.950 . S
C1168 C1169 1.327 . S
C1169 H1163 0.950 . S
C1169 C1168 1.327 . S
C1169 C1173 1.429 1_565 S
C1170 C1153 1.574 . S
C1170 H1164 0.949 . S
C1170 C1174 1.368 . S
C1171 C1152 1.429 1_545 S
C1171 C1165 1.429 . S
C1171 C1172 1.523 . S
C1172 C1153 1.368 . S
C1172 C1166 1.368 1_545 S
C1172 C1171 1.523 . S
C1173 C1157 1.429 . S
C1173 C1169 1.429 1_545 S
C1173 C1174 1.523 . S
C1174 C1158 1.368 1_545 S
C1174 C1170 1.368 . S
C1174 C1173 1.523 . S
H1175 C1150 0.950 . S
H1176 C1152 0.950 . S
H1177 C1153 0.949 . S
H1178 C1155 0.950 . S
H1179 C1157 0.950 . S
C1180 C1181 1.349 . S
C1180 C1182 1.327 . S
C1180 H1205 0.950 . S
C1181 C1180 1.349 . S
C1181 C1197 1.349 . S
C1182 C1180 1.327 . S
C1182 C1201 1.429 . S
C1182 H1206 0.950 . S
C1183 C1200 1.574 . S
C1183 C1202 1.368 . S
C1183 H1207 0.949 . S
H1184 C1188 0.949 . S
C1185 C1186 1.347 1_554 S
C1185 C1187 1.327 . S
C1185 H1208 0.950 . S
C1186 C1185 1.347 1_556 S
C1186 C1198 1.349 . S
C1187 C1185 1.327 . S
C1187 C1203 1.429 . S
C1187 H1209 0.950 . S
C1188 H1184 0.949 . S
C1188 C1196 1.574 . S
C1188 C1204 1.368 . S
H1189 C1197 0.950 . S
H1190 C1195 0.950 . S
H1191 C1196 0.949 . S
H1192 C1198 0.950 . S
H1193 C1199 0.950 1_556 S
H1194 C1200 0.949 . S
C1195 H1190 0.950 . S
C1195 C1197 1.327 . S
C1195 C1201 1.429 . S
C1196 C1188 1.574 . S
C1196 H1191 0.949 . S
C1196 C1202 1.368 . S
C1197 C1181 1.349 . S
C1197 H1189 0.950 . S
C1197 C1195 1.327 . S
C1198 C1186 1.349 . S
C1198 H1192 0.950 . S
C1198 C1199 1.327 1_556 S
C1199 H1193 0.950 1_554 S
C1199 C1198 1.327 1_554 S
C1199 C1203 1.429 . S
C1200 C1183 1.574 . S
C1200 H1194 0.949 . S
C1200 C1204 1.368 . S
C1201 C1182 1.429 . S
C1201 C1195 1.429 . S
C1201 C1202 1.523 . S
C1202 C1183 1.368 . S
C1202 C1196 1.368 . S
C1202 C1201 1.523 . S
C1203 C1187 1.429 . S
C1203 C1199 1.429 . S
C1203 C1204 1.523 . S
C1204 C1188 1.368 . S
C1204 C1200 1.368 . S
C1204 C1203 1.523 . S
H1205 C1180 0.950 . S
H1206 C1182 0.950 . S
H1207 C1183 0.949 . S
H1208 C1185 0.950 . S
H1209 C1187 0.950 . S
C1210 C1211 1.349 . S
C1210 C1212 1.327 . S
C1210 H1235 0.950 . S
C1211 C1210 1.349 . S
C1211 C1227 1.349 . S
C1212 C1210 1.327 . S
C1212 C1231 1.429 . S
C1212 H1236 0.950 . S
C1213 C1230 1.574 . S
C1213 C1232 1.368 . S
C1213 H1237 0.949 . S
H1214 C1218 0.949 . S
C1215 C1216 1.349 . S
C1215 C1217 1.327 . S
C1215 H1238 0.950 . S
C1216 C1215 1.349 . S
C1216 C1228 1.349 . S
C1217 C1215 1.327 . S
C1217 C1233 1.429 . S
C1217 H1239 0.950 . S
C1218 H1214 0.949 . S
C1218 C1226 1.574 . S
C1218 C1234 1.368 . S
H1219 C1227 0.950 . S
H1220 C1225 0.950 . S
H1221 C1226 0.949 . S
H1222 C1228 0.950 . S
H1223 C1229 0.950 . S
H1224 C1230 0.949 . S
C1225 H1220 0.950 . S
C1225 C1227 1.327 . S
C1225 C1231 1.429 . S
C1226 C1218 1.574 . S
C1226 H1221 0.949 . S
C1226 C1232 1.368 . S
C1227 C1211 1.349 . S
C1227 H1219 0.950 . S
C1227 C1225 1.327 . S
C1228 C1216 1.349 . S
C1228 H1222 0.950 . S
C1228 C1229 1.327 . S
C1229 H1223 0.950 . S
C1229 C1228 1.327 . S
C1229 C1233 1.429 . S
C1230 C1213 1.574 . S
C1230 H1224 0.949 . S
C1230 C1234 1.368 . S
C1231 C1212 1.429 . S
C1231 C1225 1.429 . S
C1231 C1232 1.523 . S
C1232 C1213 1.368 . S
C1232 C1226 1.368 . S
C1232 C1231 1.523 . S
C1233 C1217 1.429 . S
C1233 C1229 1.429 . S
C1233 C1234 1.523 . S
C1234 C1218 1.368 . S
C1234 C1230 1.368 . S
C1234 C1233 1.523 . S
H1235 C1210 0.950 . S
H1236 C1212 0.950 . S
H1237 C1213 0.949 . S
H1238 C1215 0.950 . S
H1239 C1217 0.950 . S
C1240 C1241 1.349 . S
C1240 C1242 1.327 . S
C1240 H1265 0.950 . S
C1241 C1240 1.349 . S
C1241 C1257 1.349 . S
C1242 C1240 1.327 . S
C1242 C1261 1.429 . S
C1242 H1266 0.950 . S
C1243 C1260 1.574 . S
C1243 C1262 1.368 . S
C1243 H1267 0.949 . S
H1244 C1248 0.949 . S
C1245 C1246 1.349 . S
C1245 C1247 1.327 . S
C1245 H1268 0.950 . S
C1246 C1245 1.349 . S
C1246 C1258 1.349 . S
C1247 C1245 1.327 . S
C1247 C1263 1.429 . S
C1247 H1269 0.950 . S
C1248 H1244 0.949 . S
C1248 C1256 1.574 . S
C1248 C1264 1.368 . S
H1249 C1257 0.950 . S
H1250 C1255 0.950 . S
H1251 C1256 0.949 . S
H1252 C1258 0.950 . S
H1253 C1259 0.950 . S
H1254 C1260 0.949 . S
C1255 H1250 0.950 . S
C1255 C1257 1.327 . S
C1255 C1261 1.429 . S
C1256 C1248 1.574 . S
C1256 H1251 0.949 . S
C1256 C1262 1.368 . S
C1257 C1241 1.349 . S
C1257 H1249 0.950 . S
C1257 C1255 1.327 . S
C1258 C1246 1.349 . S
C1258 H1252 0.950 . S
C1258 C1259 1.327 . S
C1259 H1253 0.950 . S
C1259 C1258 1.327 . S
C1259 C1263 1.429 . S
C1260 C1243 1.574 . S
C1260 H1254 0.949 . S
C1260 C1264 1.368 . S
C1261 C1242 1.429 . S
C1261 C1255 1.429 . S
C1261 C1262 1.523 . S
C1262 C1243 1.368 . S
C1262 C1256 1.368 . S
C1262 C1261 1.523 . S
C1263 C1247 1.429 . S
C1263 C1259 1.429 . S
C1263 C1264 1.523 . S
C1264 C1248 1.368 . S
C1264 C1260 1.368 . S
C1264 C1263 1.523 . S
H1265 C1240 0.950 . S
H1266 C1242 0.950 . S
H1267 C1243 0.949 . S
H1268 C1245 0.950 . S
H1269 C1247 0.950 . S
C1270 C1271 1.332 1_545 S
C1270 C1272 1.327 . S
C1270 H1295 0.950 . S
C1271 C1270 1.332 1_565 S
C1271 C1287 1.368 . S
C1272 C1270 1.327 . S
C1272 C1291 1.429 1_545 S
C1272 H1296 0.950 . S
C1273 C1290 1.574 . S
C1273 C1292 1.368 . S
C1273 H1297 0.949 . S
H1274 C1278 0.949 . S
C1275 C1276 1.349 . S
C1275 C1277 1.327 . S
C1275 H1298 0.950 . S
C1276 C1275 1.349 . S
C1276 C1288 1.349 1_565 S
C1277 C1275 1.327 . S
C1277 C1293 1.429 . S
C1277 H1299 0.950 . S
C1278 H1274 0.949 . S
C1278 C1286 1.574 . S
C1278 C1294 1.368 1_545 S
H1279 C1287 0.950 . S
H1280 C1285 0.950 . S
H1281 C1286 0.949 . S
H1282 C1288 0.950 . S
H1283 C1289 0.950 . S
H1284 C1290 0.949 . S
C1285 H1280 0.950 . S
C1285 C1287 1.327 . S
C1285 C1291 1.429 . S
C1286 C1278 1.574 . S
C1286 H1281 0.949 . S
C1286 C1292 1.368 1_545 S
C1287 C1271 1.368 . S
C1287 H1279 0.950 . S
C1287 C1285 1.327 . S
C1288 C1276 1.349 1_545 S
C1288 H1282 0.950 . S
C1288 C1289 1.327 . S
C1289 H1283 0.950 . S
C1289 C1288 1.327 . S
C1289 C1293 1.429 1_545 S
C1290 C1273 1.574 . S
C1290 H1284 0.949 . S
C1290 C1294 1.368 . S
C1291 C1272 1.429 1_565 S
C1291 C1285 1.429 . S
C1291 C1292 1.523 . S
C1292 C1273 1.368 . S
C1292 C1286 1.368 1_565 S
C1292 C1291 1.523 . S
C1293 C1277 1.429 . S
C1293 C1289 1.429 1_565 S
C1293 C1294 1.523 . S
C1294 C1278 1.368 1_565 S
C1294 C1290 1.368 . S
C1294 C1293 1.523 . S
H1295 C1270 0.950 . S
H1296 C1272 0.950 . S
H1297 C1273 0.949 . S
H1298 C1275 0.950 . S
H1299 C1277 0.950 . S
C1300 C1301 1.349 . S
C1300 C1302 1.327 . S
C1300 H1325 0.950 . S
C1301 C1300 1.349 . S
C1301 C1317 1.349 . S
C1302 C1300 1.327 . S
C1302 C1321 1.429 . S
C1302 H1326 0.950 . S
C1303 C1320 1.574 . S
C1303 C1322 1.368 . S
C1303 H1327 0.949 . S
H1304 C1308 0.949 . S
C1305 C1306 1.349 . S
C1305 C1307 1.327 . S
C1305 H1328 0.950 . S
C1306 C1305 1.349 . S
C1306 C1318 1.349 . S
C1307 C1305 1.327 . S
C1307 C1323 1.429 . S
C1307 H1329 0.950 . S
C1308 H1304 0.949 . S
C1308 C1316 1.574 . S
C1308 C1324 1.368 . S
H1309 C1317 0.950 . S
H1310 C1315 0.950 . S
H1311 C1316 0.949 . S
H1312 C1318 0.950 . S
H1313 C1319 0.950 . S
H1314 C1320 0.949 . S
C1315 H1310 0.950 . S
C1315 C1317 1.327 . S
C1315 C1321 1.429 . S
C1316 C1308 1.574 . S
C1316 H1311 0.949 . S
C1316 C1322 1.368 . S
C1317 C1301 1.349 . S
C1317 H1309 0.950 . S
C1317 C1315 1.327 . S
C1318 C1306 1.349 . S
C1318 H1312 0.950 . S
C1318 C1319 1.327 . S
C1319 H1313 0.950 . S
C1319 C1318 1.327 . S
C1319 C1323 1.429 . S
C1320 C1303 1.574 . S
C1320 H1314 0.949 . S
C1320 C1324 1.368 . S
C1321 C1302 1.429 . S
C1321 C1315 1.429 . S
C1321 C1322 1.523 . S
C1322 C1303 1.368 . S
C1322 C1316 1.368 . S
C1322 C1321 1.523 . S
C1323 C1307 1.429 . S
C1323 C1319 1.429 . S
C1323 C1324 1.523 . S
C1324 C1308 1.368 . S
C1324 C1320 1.368 . S
C1324 C1323 1.523 . S
H1325 C1300 0.950 . S
H1326 C1302 0.950 . S
H1327 C1303 0.949 . S
H1328 C1305 0.950 . S
H1329 C1307 0.950 . S
C1330 C1331 1.349 . S
C1330 C1332 1.327 . S
C1330 H1355 0.950 . S
C1331 C1330 1.349 . S
C1331 C1347 1.349 . S
C1332 C1330 1.327 . S
C1332 C1351 1.429 . S
C1332 H1356 0.950 . S
C1333 C1350 1.574 . S
C1333 C1352 1.368 . S
C1333 H1357 0.949 . S
H1334 C1338 0.949 . S
C1335 C1336 1.349 . S
C1335 C1337 1.327 . S
C1335 H1358 0.950 . S
C1336 C1335 1.349 . S
C1336 C1348 1.349 . S
C1337 C1335 1.327 . S
C1337 C1353 1.429 . S
C1337 H1359 0.950 . S
C1338 H1334 0.949 . S
C1338 C1346 1.574 . S
C1338 C1354 1.368 . S
H1339 C1347 0.950 . S
H1340 C1345 0.950 . S
H1341 C1346 0.949 . S
H1342 C1348 0.950 . S
H1343 C1349 0.950 . S
H1344 C1350 0.949 . S
C1345 H1340 0.950 . S
C1345 C1347 1.327 . S
C1345 C1351 1.429 . S
C1346 C1338 1.574 . S
C1346 H1341 0.949 . S
C1346 C1352 1.368 . S
C1347 C1331 1.349 . S
C1347 H1339 0.950 . S
C1347 C1345 1.327 . S
C1348 C1336 1.349 . S
C1348 H1342 0.950 . S
C1348 C1349 1.327 . S
C1349 H1343 0.950 . S
C1349 C1348 1.327 . S
C1349 C1353 1.429 . S
C1350 C1333 1.574 . S
C1350 H1344 0.949 . S
C1350 C1354 1.368 . S
C1351 C1332 1.429 . S
C1351 C1345 1.429 . S
C1351 C1352 1.523 . S
C1352 C1333 1.368 . S
C1352 C1346 1.368 . S
C1352 C1351 1.523 . S
C1353 C1337 1.429 . S
C1353 C1349 1.429 . S
C1353 C1354 1.523 . S
C1354 C1338 1.368 . S
C1354 C1350 1.368 . S
C1354 C1353 1.523 . S
H1355 C1330 0.950 . S
H1356 C1332 0.950 . S
H1357 C1333 0.949 . S
H1358 C1335 0.950 . S
H1359 C1337 0.950 . S
C641 C391 1.980 1_565 S
C646 C503 2.016 . S
C676 C543 1.567 . S
C671 C451 1.558 . S
C706 C562 2.091 . S
C701 C241 1.838 . S
C736 C623 1.645 . S
C731 C331 1.424 . S
C766 C482 2.015 . S
C761 C121 1.763 1_545 S
C791 C211 1.517 . S
C796 C522 1.573 . S
C821 C31 2.056 . S
C826 C583 2.092 . S
C851 C91 1.472 . S
C856 C602 1.645 1_655 S
C886 C484 0.528 . S
C881 C301 0.601 . S
C916 C524 0.352 . S
C911 C380 0.178 . S
C946 C580 0.549 . S
C941 C440 0.548 . S
C971 C260 0.490 . S
C976 C604 0.275 . S
C1001 C61 0.532 . S
C1006 C505 0.534 . S
C1036 C545 0.352 . S
C1031 C140 0.512 . S
C1066 C591 0.549 . S
C1061 C200 0.601 . S
C1091 C20 0.186 . S
C1096 C625 0.275 . S
C1121 C320 2.263 1_556 S
C1126 C500 2.396 . S
C1151 C361 2.435 . S
C1156 C540 2.902 . S
C1186 C564 1.858 . S
C1181 C421 1.675 . S
C1216 C620 2.861 . S
C1211 C271 2.743 . S
C1241 C80 2.307 . S
C1246 C511 2.407 . S
C1276 C551 2.902 . S
C1271 C151 2.762 . S
C1306 C585 1.857 . S
C1301 C181 1.657 . S
C1331 C1 2.422 . S
C1336 C631 2.861 . S
