# Generated by pormake.
# Topology ssa, (4,4)-cn, num edge types: 1
# Building blocks:
#     Node 0, Type 0, BuildingBlock: KOZSID_clean_sbu_0, # of connection points: 4
#     Node 1, Type 0, BuildingBlock: KOZSID_clean_sbu_0, # of connection points: 4
#     Node 2, Type 0, BuildingBlock: KOZSID_clean_sbu_0, # of connection points: 4
#     Node 3, Type 0, BuildingBlock: KOZSID_clean_sbu_0, # of connection points: 4
#     Node 4, Type 0, BuildingBlock: KOZSID_clean_sbu_0, # of connection points: 4
#     Node 5, Type 0, BuildingBlock: KOZSID_clean_sbu_0, # of connection points: 4
#     Node 6, Type 1, BuildingBlock: NAWXER_clean_linker_0, # of connection points: 4
#     Node 7, Type 1, BuildingBlock: NAWXER_clean_linker_0, # of connection points: 4
#     Node 8, Type 1, BuildingBlock: NAWXER_clean_linker_0, # of connection points: 4
#     Node 9, Type 1, BuildingBlock: NAWXER_clean_linker_0, # of connection points: 4
#     Node 10, Type 1, BuildingBlock: NAWXER_clean_linker_0, # of connection points: 4
#     Node 11, Type 1, BuildingBlock: NAWXER_clean_linker_0, # of connection points: 4
#     Edge 12, Type (0, 1), BuildingBlock: XUDNAN_clean_linker_2, # of connection points: 2
#     Edge 13, Type (0, 1), BuildingBlock: XUDNAN_clean_linker_2, # of connection points: 2
#     Edge 14, Type (0, 1), BuildingBlock: XUDNAN_clean_linker_2, # of connection points: 2
#     Edge 15, Type (0, 1), BuildingBlock: XUDNAN_clean_linker_2, # of connection points: 2
#     Edge 16, Type (0, 1), BuildingBlock: XUDNAN_clean_linker_2, # of connection points: 2
#     Edge 17, Type (0, 1), BuildingBlock: XUDNAN_clean_linker_2, # of connection points: 2
#     Edge 18, Type (0, 1), BuildingBlock: XUDNAN_clean_linker_2, # of connection points: 2
#     Edge 19, Type (0, 1), BuildingBlock: XUDNAN_clean_linker_2, # of connection points: 2
#     Edge 20, Type (0, 1), BuildingBlock: XUDNAN_clean_linker_2, # of connection points: 2
#     Edge 21, Type (0, 1), BuildingBlock: XUDNAN_clean_linker_2, # of connection points: 2
#     Edge 22, Type (0, 1), BuildingBlock: XUDNAN_clean_linker_2, # of connection points: 2
#     Edge 23, Type (0, 1), BuildingBlock: XUDNAN_clean_linker_2, # of connection points: 2
#     Edge 24, Type (0, 1), BuildingBlock: XUDNAN_clean_linker_2, # of connection points: 2
#     Edge 25, Type (0, 1), BuildingBlock: XUDNAN_clean_linker_2, # of connection points: 2
#     Edge 26, Type (0, 1), BuildingBlock: XUDNAN_clean_linker_2, # of connection points: 2
#     Edge 27, Type (0, 1), BuildingBlock: XUDNAN_clean_linker_2, # of connection points: 2
#     Edge 28, Type (0, 1), BuildingBlock: XUDNAN_clean_linker_2, # of connection points: 2
#     Edge 29, Type (0, 1), BuildingBlock: XUDNAN_clean_linker_2, # of connection points: 2
#     Edge 30, Type (0, 1), BuildingBlock: XUDNAN_clean_linker_2, # of connection points: 2
#     Edge 31, Type (0, 1), BuildingBlock: XUDNAN_clean_linker_2, # of connection points: 2
#     Edge 32, Type (0, 1), BuildingBlock: XUDNAN_clean_linker_2, # of connection points: 2
#     Edge 33, Type (0, 1), BuildingBlock: XUDNAN_clean_linker_2, # of connection points: 2
#     Edge 34, Type (0, 1), BuildingBlock: XUDNAN_clean_linker_2, # of connection points: 2
#     Edge 35, Type (0, 1), BuildingBlock: XUDNAN_clean_linker_2, # of connection points: 2
# Relax obj value: 0.006
# Max RMSD: 0.022
# Mean RMSD: 0.013
data_MOF--net-ssa--node1-KOZSID_clean_sbu_0--node2-NAWXER_clean_linker_0--edge1-XUDNAN_clean_linker_2
_symmetry_space_group_name_H-M    P1
_symmetry_Int_Tables_number       1
_symmetry_cell_setting            triclinic
loop_
_symmetry_equiv_pos_as_xyz
'x, y, z'
_cell_length_a     62.912662
_cell_length_b     64.288852
_cell_length_c     44.887632
_cell_angle_alpha  87.688291
_cell_angle_beta   90.017212
_cell_angle_gamma 122.10726
loop_
_atom_site_label
_atom_site_type_symbol
_atom_site_fract_x
_atom_site_fract_y
_atom_site_fract_z
_atom_type_partial_charge
C0 C 0.96877 0.52093 0.98803 0.0
C1 C 0.94774 0.51873 0.00148 0.0
C2 C 0.94288 0.50474 0.02717 0.0
C3 C 0.96123 0.49936 0.02806 0.0
N4 N 0.97771 0.50928 0.00465 0.0
Co5 Co 0.00732 0.50612 0.9972 0.0
N6 N 0.99906 0.48405 0.03393 0.0
C7 C 0.9793 0.47599 0.05304 0.0
C8 C 0.97897 0.46172 0.07675 0.0
C9 C 0.99988 0.46074 0.07275 0.0
C10 C 0.01177 0.47445 0.04661 0.0
N11 N 0.0372 0.5033 0.99001 0.0
C12 C 0.04642 0.4921 0.00701 0.0
C13 C 0.06802 0.49507 0.9942 0.0
C14 C 0.07294 0.50908 0.9685 0.0
C15 C 0.05411 0.51377 0.96702 0.0
N16 N 0.01537 0.52793 0.96021 0.0
C17 C 0.03469 0.53536 0.94056 0.0
C18 C 0.03464 0.54913 0.9165 0.0
C19 C 0.01391 0.5504 0.92079 0.0
C20 C 0.00253 0.53738 0.94746 0.0
N21 N 0.02868 0.53524 0.02117 0.0
C22 C 0.06263 0.57177 0.05881 0.0
C23 C 0.06959 0.57108 0.02957 0.0
C24 C 0.05234 0.55306 0.01113 0.0
C25 C 0.03786 0.55508 0.06829 0.0
C26 C 0.02128 0.53701 0.04921 0.0
N27 N 0.98614 0.47683 0.97337 0.0
C28 C 0.9816 0.45264 0.93119 0.0
C29 C 0.95723 0.43452 0.94046 0.0
C30 C 0.94725 0.43814 0.9661 0.0
C31 C 0.962 0.45921 0.98224 0.0
C32 C 0.99548 0.47352 0.94764 0.0
H33 H 0.95355 0.46073 0.00191 0.0
H34 H 0.01377 0.48666 0.93906 0.0
H35 H 0.05889 0.55346 0.98916 0.0
H36 H 0.00287 0.52421 0.05799 0.0
C37 C 0.96257 0.48383 0.04953 0.0
C38 C 0.97899 0.53361 0.95906 0.0
C39 C 0.03574 0.47889 0.03561 0.0
C40 C 0.05209 0.52838 0.94473 0.0
H41 H 0.93677 0.52613 0.9933 0.0
H42 H 0.92748 0.49873 0.04298 0.0
H43 H 0.96559 0.45371 0.09529 0.0
H44 H 0.00599 0.45151 0.08787 0.0
H45 H 0.07924 0.48806 0.00274 0.0
H46 H 0.08857 0.5154 0.95297 0.0
H47 H 0.0478 0.55686 0.89773 0.0
H48 H 0.00765 0.55946 0.90563 0.0
H49 H 0.08848 0.5841 0.02113 0.0
H50 H 0.03165 0.55518 0.09076 0.0
H51 H 0.98993 0.45081 0.91113 0.0
H52 H 0.92839 0.42451 0.97408 0.0
C53 C 0.53765 0.01185 0.55357 0.0
C54 C 0.53962 1.00042 0.57934 0.0
C55 C 0.51846 0.97742 0.58144 0.0
C56 C 0.50487 0.9762 0.55695 0.0
N57 N 0.51636 0.99679 0.53891 0.0
Co58 Co 0.50241 0.00406 0.50258 0.0
N59 N 0.46966 0.97167 0.50785 0.0
C60 C 0.46341 0.95408 0.52971 0.0
C61 C 0.44064 0.93296 0.52602 0.0
C62 C 0.43201 0.93701 0.49993 0.0
C63 C 0.45002 0.96061 0.48923 0.0
N64 N 0.48843 0.01161 0.46658 0.0
C65 C 0.46652 0.99717 0.45274 0.0
C66 C 0.46395 0.00946 0.42823 0.0
C67 C 0.48543 0.0322 0.42588 0.0
C68 C 0.49974 0.03257 0.44914 0.0
N69 N 0.53525 0.03625 0.49699 0.0
C70 C 0.54204 0.05348 0.47455 0.0
C71 C 0.5654 0.07411 0.47764 0.0
C72 C 0.57378 0.07006 0.50398 0.0
C73 C 0.55493 0.04714 0.51541 0.0
N74 N 0.51502 0.98813 0.47698 0.0
C75 C 0.52517 0.96193 0.43624 0.0
C76 C 0.53125 0.9859 0.42917 0.0
C77 C 0.52603 0.9985 0.44962 0.0
C78 C 0.51554 0.95202 0.46494 0.0
C79 C 0.51094 0.96544 0.48488 0.0
N80 N 0.48959 0.0199 0.52802 0.0
C81 C 0.48678 0.05495 0.53889 0.0
C82 C 0.47248 0.0429 0.56478 0.0
C83 C 0.46685 0.01913 0.57198 0.0
C84 C 0.47565 0.00812 0.55355 0.0
C85 C 0.49492 0.04316 0.52091 0.0
H86 H 0.47108 0.99016 0.56054 0.0
H87 H 0.50556 0.05332 0.5014 0.0
H88 H 0.53042 0.01635 0.4424 0.0
H89 H 0.5033 0.95671 0.50619 0.0
C90 C 0.48035 0.95707 0.55181 0.0
C91 C 0.5554 0.0376 0.54517 0.0
C92 C 0.44872 0.97116 0.46031 0.0
C93 C 0.52473 0.05116 0.4533 0.0
H94 H 0.55439 0.00828 0.59545 0.0
H95 H 0.51307 0.96367 0.59943 0.0
H96 H 0.43191 0.91615 0.53989 0.0
H97 H 0.41485 0.9236 0.48959 0.0
H98 H 0.44856 0.00231 0.41293 0.0
H99 H 0.49049 0.04635 0.40851 0.0
H100 H 0.57461 0.09069 0.46337 0.0
H101 H 0.59123 0.08295 0.51436 0.0
H102 H 0.5396 0.99486 0.40767 0.0
H103 H 0.51058 0.93359 0.47175 0.0
H104 H 0.49137 0.0733 0.53223 0.0
H105 H 0.45601 0.00916 0.59201 0.0
C106 C 0.54401 0.53523 0.95524 0.0
C107 C 0.54931 0.55199 0.93161 0.0
C108 C 0.52919 0.5546 0.92956 0.0
C109 C 0.51291 0.53943 0.95207 0.0
N110 N 0.52168 0.52776 0.96883 0.0
Co111 Co 0.50384 0.50307 0.00279 0.0
N112 N 0.47257 0.50376 0.99684 0.0
C113 C 0.46898 0.5173 0.97589 0.0
C114 C 0.44564 0.51403 0.97741 0.0
C115 C 0.43367 0.4977 0.00097 0.0
C116 C 0.45056 0.49206 0.01267 0.0
N117 N 0.48596 0.4783 0.03674 0.0
C118 C 0.46279 0.46926 0.04907 0.0
C119 C 0.45824 0.45336 0.07353 0.0
C120 C 0.47918 0.45229 0.07674 0.0
C121 C 0.49536 0.46763 0.05432 0.0
N122 N 0.53517 0.50242 0.00859 0.0
C123 C 0.53908 0.48946 0.03 0.0
C124 C 0.5616 0.49115 0.02695 0.0
C125 C 0.57255 0.50558 0.00169 0.0
C126 C 0.55604 0.51205 0.99082 0.0
N127 N 0.51593 0.53007 0.03102 0.0
C128 C 0.53139 0.56753 0.0718 0.0
C129 C 0.53471 0.54798 0.07777 0.0
C130 C 0.52674 0.52952 0.05735 0.0
C131 C 0.52048 0.5682 0.04504 0.0
C132 C 0.51318 0.5496 0.02505 0.0
N133 N 0.49195 0.47626 0.97452 0.0
C134 C 0.49068 0.44017 0.95833 0.0
C135 C 0.48132 0.4419 0.93064 0.0
C136 C 0.47611 0.46041 0.92615 0.0
C137 C 0.48171 0.47732 0.94801 0.0
C138 C 0.49544 0.45716 0.9799 0.0
H139 H 0.4781 0.49141 0.94266 0.0
H140 H 0.50258 0.45487 1.00048 0.0
H141 H 0.52934 0.51492 0.06358 0.0
H142 H 0.50527 0.55145 0.005 0.0
C143 C 0.48829 0.53368 0.95589 0.0
C144 C 0.55975 0.52544 0.96231 0.0
C145 C 0.44507 0.47613 0.03937 0.0
C146 C 0.51998 0.4735 0.05038 0.0
H147 H 0.56558 0.5606 0.91667 0.0
H148 H 0.52625 0.56533 0.91276 0.0
H149 H 0.43836 0.52283 0.96339 0.0
H150 H 0.41477 0.49102 0.00896 0.0
H151 H 0.44176 0.44395 0.0881 0.0
H152 H 0.48251 0.44212 0.09393 0.0
H153 H 0.56859 0.48184 0.04051 0.0
H154 H 0.59017 0.50982 0.9919 0.0
H155 H 0.54296 0.54666 0.09838 0.0
H156 H 0.51785 0.58321 0.03932 0.0
H157 H 0.49512 0.4263 0.96321 0.0
H158 H 0.46799 0.46217 0.90568 0.0
C159 C 0.95521 0.4497 0.51527 0.0
C160 C 0.93055 0.4343 0.50674 0.0
C161 C 0.92721 0.44559 0.48243 0.0
C162 C 0.9498 0.46722 0.47768 0.0
N163 N 0.96764 0.47018 0.49694 0.0
Co164 Co 0.00191 0.50042 0.50081 0.0
N165 N 0.99586 0.51832 0.46764 0.0
C166 C 0.97514 0.50945 0.45097 0.0
C167 C 0.9769 0.52573 0.42895 0.0
C168 C 1.00046 0.54598 0.43113 0.0
C169 C 0.01172 0.54075 0.45438 0.0
N170 N 0.03565 0.53105 0.50582 0.0
C171 C 0.04762 0.5524 0.48901 0.0
C172 C 0.07132 0.5687 0.49965 0.0
C173 C 0.07448 0.55714 0.52384 0.0
C174 C 0.0527 0.5345 0.52658 0.0
N175 N 0.00841 0.48213 0.53293 0.0
C176 C 0.03006 0.4901 0.54746 0.0
C177 C 0.02862 0.47336 0.5686 0.0
C178 C 0.00446 0.45376 0.56791 0.0
C179 C 0.99253 0.45985 0.54647 0.0
N180 N 0.01649 0.48916 0.47084 0.0
C181 C 0.03902 0.47711 0.42573 0.0
C182 C 0.05234 0.48945 0.45072 0.0
C183 C 0.04077 0.49494 0.47289 0.0
C184 C 0.01389 0.47026 0.42427 0.0
C185 C 0.00315 0.47652 0.44675 0.0
N186 N 0.98745 0.51177 0.53072 0.0
C187 C 0.98559 0.52305 0.58098 0.0
C188 C 0.96546 0.52576 0.57414 0.0
C189 C 0.95681 0.5216 0.54495 0.0
C190 C 0.9678 0.51449 0.5239 0.0
C191 C 0.99636 0.51639 0.5591 0.0
H192 H 0.95993 0.51115 0.50231 0.0
H193 H 0.01171 0.51481 0.56583 0.0
H194 H 0.05212 0.50433 0.4912 0.0
H195 H 0.98412 0.47121 0.44391 0.0
C196 C 0.95432 0.4858 0.45667 0.0
C197 C 0.96556 0.44523 0.54213 0.0
C198 C 0.03809 0.55686 0.4614 0.0
C199 C 0.04959 0.51476 0.54457 0.0
H200 H 0.91607 0.41713 0.51742 0.0
H201 H 0.91003 0.43928 0.47048 0.0
H202 H 0.96291 0.52301 0.41288 0.0
H203 H 0.00874 0.56246 0.41671 0.0
H204 H 0.08544 0.58663 0.49026 0.0
H205 H 0.09131 0.56382 0.53664 0.0
H206 H 0.04289 0.47577 0.58405 0.0
H207 H 0.99613 0.43743 0.5826 0.0
H208 H 0.07192 0.49555 0.45301 0.0
H209 H 0.00243 0.46016 0.40584 0.0
H210 H 0.99286 0.52561 0.60329 0.0
H211 H 0.94164 0.52389 0.53812 0.0
C212 C 0.4706 0.9907 0.05694 0.0
C213 C 0.4711 0.00184 0.08297 0.0
C214 C 0.49229 0.02485 0.08109 0.0
C215 C 0.50345 0.0264 0.05415 0.0
N216 N 0.49042 0.00591 0.03854 0.0
Co217 Co 0.49996 0.99976 0.99879 0.0
N218 N 0.534 0.0307 0.99946 0.0
C219 C 0.54325 0.04691 0.0214 0.0
C220 C 0.56764 0.06576 0.01634 0.0
C221 C 0.57444 0.0613 0.98962 0.0
C222 C 0.55359 0.04001 0.97974 0.0
N223 N 0.50901 0.99401 0.95849 0.0
C224 C 0.53052 0.00745 0.94192 0.0
C225 C 0.5284 0.99769 0.91423 0.0
C226 C 0.50481 0.97728 0.91339 0.0
C227 C 0.49382 0.97582 0.94038 0.0
N228 N 0.4665 0.96807 0.99902 0.0
C229 C 0.45693 0.9518 0.9772 0.0
C230 C 0.43438 0.93081 0.98485 0.0
C231 C 0.42959 0.93354 0.01362 0.0
C232 C 0.44957 0.95615 0.02172 0.0
N233 N 0.48581 0.018 0.97891 0.0
C234 C 0.46765 0.04448 0.94827 0.0
C235 C 0.45699 0.01947 0.94434 0.0
C236 C 0.4663 0.00674 0.95963 0.0
C237 C 0.48718 0.05597 0.9682 0.0
C238 C 0.49572 0.04247 0.98335 0.0
N239 N 0.51399 0.98173 0.01844 0.0
C240 C 0.51953 0.94733 0.02064 0.0
C241 C 0.53218 0.95485 0.04746 0.0
C242 C 0.53576 0.97622 0.05935 0.0
C243 C 0.52664 0.98934 0.04454 0.0
C244 C 0.51068 0.96094 0.0066 0.0
H245 H 0.52987 0.00551 0.05464 0.0
H246 H 0.50092 0.95418 0.98634 0.0
H247 H 0.45744 0.98788 0.95507 0.0
H248 H 0.51045 0.05244 0.99838 0.0
C249 C 0.52808 0.04455 0.04566 0.0
C250 C 0.45227 0.96506 0.0516 0.0
C251 C 0.55316 0.02967 0.95122 0.0
C252 C 0.47008 0.95654 0.9502 0.0
H253 H 0.45811 0.99381 0.10188 0.0
H254 H 0.49956 0.0382 0.09821 0.0
H255 H 0.57905 0.08106 0.03027 0.0
H256 H 0.59262 0.07258 0.97855 0.0
H257 H 0.54244 0.00457 0.89643 0.0
H258 H 0.49675 0.96479 0.89542 0.0
H259 H 0.42315 0.9151 0.97144 0.0
H260 H 0.41354 0.9202 0.02735 0.0
H261 H 0.44187 0.00982 0.92895 0.0
H262 H 0.49576 0.07529 0.97228 0.0
H263 H 0.51595 0.9307 0.01075 0.0
H264 H 0.5457 0.98292 0.07991 0.0
C265 C 0.50867 0.55201 0.49136 0.0
C266 C 0.50121 0.56718 0.50212 0.0
C267 C 0.48694 0.55553 0.52728 0.0
C268 C 0.48629 0.53392 0.5303 0.0
N269 N 0.49984 0.5313 0.50905 0.0
Co270 Co 0.50137 0.50135 0.5026 0.0
N271 N 0.47656 0.48234 0.53611 0.0
C272 C 0.46626 0.49084 0.55472 0.0
C273 C 0.45025 0.47371 0.576 0.0
C274 C 0.45054 0.45309 0.57094 0.0
C275 C 0.46688 0.4589 0.54682 0.0
N276 N 0.50227 0.47121 0.49526 0.0
C277 C 0.48981 0.44867 0.50943 0.0
C278 C 0.49636 0.43315 0.49747 0.0
C279 C 0.5134 0.44628 0.47491 0.0
C280 C 0.51641 0.469 0.47438 0.0
N281 N 0.52656 0.52053 0.46963 0.0
C282 C 0.53958 0.51338 0.45362 0.0
C283 C 0.55522 0.53054 0.43208 0.0
C284 C 0.55155 0.54956 0.43406 0.0
C285 C 0.53372 0.54275 0.45667 0.0
N286 N 0.52908 0.51225 0.53154 0.0
C287 C 0.56481 0.52236 0.57605 0.0
C288 C 0.56498 0.51156 0.54973 0.0
C289 C 0.54741 0.50707 0.52786 0.0
C290 C 0.54719 0.52915 0.57891 0.0
C291 C 0.52964 0.52387 0.55675 0.0
N292 N 0.47379 0.49037 0.47402 0.0
C293 C 0.45611 0.47473 0.42617 0.0
C294 C 0.43497 0.47554 0.43318 0.0
C295 C 0.4335 0.48386 0.46085 0.0
C296 C 0.45284 0.49084 0.48097 0.0
C297 C 0.47535 0.48249 0.44665 0.0
H298 H 0.45049 0.49657 0.50202 0.0
H299 H 0.49138 0.48207 0.43988 0.0
H300 H 0.54886 0.4989 0.50852 0.0
H301 H 0.51654 0.52909 0.56093 0.0
C302 C 0.4713 0.51473 0.55105 0.0
C303 C 0.52249 0.55692 0.46321 0.0
C304 C 0.47275 0.44158 0.53518 0.0
C305 C 0.53377 0.48919 0.45616 0.0
H306 H 0.50479 0.58443 0.49238 0.0
H307 H 0.47715 0.56153 0.54087 0.0
H308 H 0.43957 0.47593 0.5931 0.0
H309 H 0.43995 0.43575 0.58364 0.0
H310 H 0.49003 0.41444 0.50472 0.0
H311 H 0.523 0.44021 0.46111 0.0
H312 H 0.56677 0.52882 0.41571 0.0
H313 H 0.5601 0.56606 0.41965 0.0
H314 H 0.57811 0.50582 0.54616 0.0
H315 H 0.54667 0.53835 0.59832 0.0
H316 H 0.45794 0.46849 0.40481 0.0
H317 H 0.41726 0.48454 0.46714 0.0
C318 C 0.31057 0.47101 0.18295 0.0
C319 C 0.30335 0.45419 0.16022 0.0
C320 C 0.29247 0.47207 0.19983 0.0
C321 C 0.26678 0.45598 0.19473 0.0
C322 C 0.27765 0.43882 0.15449 0.0
C323 C 0.25962 0.43973 0.17152 0.0
C324 C 0.2471 0.45621 0.21266 0.0
C325 C 0.28973 0.43636 0.27554 0.0
C326 C 0.2999 0.45131 0.30015 0.0
C327 C 0.2721 0.43747 0.25773 0.0
C328 C 0.26495 0.45431 0.26324 0.0
C329 C 0.2918 0.46737 0.30636 0.0
C330 C 0.27463 0.4689 0.28807 0.0
C331 C 0.24659 0.4561 0.24423 0.0
C332 C 0.1441 0.43967 0.26986 0.0
C333 C 0.15 0.45648 0.29221 0.0
C334 C 0.16312 0.43915 0.25451 0.0
C335 C 0.18848 0.456 0.26053 0.0
C336 C 0.17527 0.47237 0.2994 0.0
C337 C 0.19434 0.47214 0.28367 0.0
C338 C 0.20895 0.45682 0.24302 0.0
C339 C 0.16425 0.47349 0.17919 0.0
C340 C 0.15264 0.45609 0.15717 0.0
C341 C 0.18309 0.47421 0.19653 0.0
C342 C 0.19038 0.45726 0.19257 0.0
C343 C 0.16077 0.43987 0.15248 0.0
C344 C 0.17945 0.44049 0.16995 0.0
C345 C 0.20949 0.45688 0.2115 0.0
H346 H 0.33016 0.48311 0.18805 0.0
H347 H 0.29856 0.48532 0.21701 0.0
H348 H 0.27138 0.4261 0.13668 0.0
H349 H 0.23996 0.42743 0.16676 0.0
H350 H 0.2955 0.42388 0.26969 0.0
H351 H 0.26415 0.42515 0.23958 0.0
H352 H 0.29849 0.47867 0.32554 0.0
H353 H 0.26899 0.48163 0.29328 0.0
H354 H 0.12473 0.4269 0.26429 0.0
H355 H 0.15799 0.42579 0.23765 0.0
H356 H 0.18033 0.4855 0.31655 0.0
H357 H 0.21372 0.48503 0.28906 0.0
H358 H 0.15845 0.48624 0.18345 0.0
H359 H 0.19175 0.48782 0.21328 0.0
H360 H 0.15272 0.42665 0.13525 0.0
H361 H 0.18504 0.4275 0.16612 0.0
N362 N 0.22841 0.45639 0.19769 0.0
N363 N 0.22764 0.45665 0.25807 0.0
C364 C 0.84871 0.29183 0.78898 0.0
C365 C 0.84237 0.29856 0.81544 0.0
C366 C 0.83003 0.27454 0.77096 0.0
C367 C 0.80455 0.26393 0.77867 0.0
C368 C 0.81684 0.28758 0.82334 0.0
C369 C 0.79817 0.27041 0.8052 0.0
C370 C 0.78441 0.24546 0.75994 0.0
C371 C 0.82483 0.31558 0.7023 0.0
C372 C 0.84058 0.31449 0.68092 0.0
C373 C 0.80625 0.29426 0.71785 0.0
C374 C 0.8028 0.27143 0.71204 0.0
C375 C 0.83684 0.2914 0.67516 0.0
C376 C 0.81791 0.27006 0.6903 0.0
C377 C 0.78364 0.24893 0.72879 0.0
C378 C 0.69083 0.1831 0.67515 0.0
C379 C 0.68303 0.15814 0.67595 0.0
C380 C 0.7115 0.19989 0.69128 0.0
C381 C 0.72455 0.19202 0.70891 0.0
C382 C 0.69671 0.15041 0.69273 0.0
C383 C 0.71728 0.16721 0.70914 0.0
C384 C 0.74537 0.20991 0.72727 0.0
C385 C 0.71523 0.15202 0.81372 0.0
C386 C 0.68971 0.144 0.81155 0.0
C387 C 0.73339 0.17213 0.79612 0.0
C388 C 0.72642 0.18451 0.77583 0.0
C389 C 0.68278 0.1565 0.79124 0.0
C390 C 0.70098 0.17668 0.77372 0.0
C391 C 0.7461 0.20643 0.75846 0.0
H392 H 0.86815 0.3 0.78204 0.0
H393 H 0.83556 0.26932 0.75118 0.0
H394 H 0.81125 0.29196 0.8438 0.0
H395 H 0.77865 0.26225 0.81184 0.0
H396 H 0.82665 0.33284 0.70691 0.0
H397 H 0.7945 0.29558 0.73436 0.0
H398 H 0.84879 0.28975 0.65935 0.0
H399 H 0.81551 0.25254 0.68563 0.0
H400 H 0.68089 0.18965 0.66206 0.0
H401 H 0.7169 0.21896 0.6906 0.0
H402 H 0.69112 0.13129 0.69375 0.0
H403 H 0.72734 0.16081 0.72225 0.0
H404 H 0.72127 0.14313 0.82952 0.0
H405 H 0.75295 0.17808 0.79841 0.0
H406 H 0.66327 0.15072 0.78892 0.0
H407 H 0.69518 0.18636 0.75887 0.0
N408 N 0.76559 0.22432 0.77355 0.0
N409 N 0.76418 0.23108 0.71362 0.0
C410 C 0.56681 0.70604 0.22778 0.0
C411 C 0.5538 0.69754 0.20106 0.0
C412 C 0.5661 0.72416 0.24317 0.0
C413 C 0.55174 0.73369 0.23275 0.0
C414 C 0.53994 0.70759 0.19033 0.0
C415 C 0.5389 0.72537 0.20601 0.0
C416 C 0.5509 0.75318 0.24844 0.0
C417 C 0.51618 0.68768 0.31155 0.0
C418 C 0.53417 0.68908 0.33145 0.0
C419 C 0.52039 0.70857 0.29535 0.0
C420 C 0.54244 0.73141 0.29906 0.0
C421 C 0.55589 0.71229 0.33584 0.0
C422 C 0.55983 0.73332 0.32003 0.0
C423 C 0.54779 0.75279 0.27966 0.0
C424 C 0.52311 0.82993 0.29404 0.0
C425 C 0.53945 0.84433 0.31638 0.0
C426 C 0.52585 0.81215 0.28085 0.0
C427 C 0.54503 0.80841 0.28962 0.0
C428 C 0.55811 0.83992 0.32583 0.0
C429 C 0.56075 0.822 0.31269 0.0
C430 C 0.54862 0.79032 0.27477 0.0
C431 C 0.56911 0.85239 0.20649 0.0
C432 C 0.55667 0.84487 0.1794 0.0
C433 C 0.56764 0.83497 0.22758 0.0
C434 C 0.55297 0.80972 0.22227 0.0
C435 C 0.54232 0.81974 0.17395 0.0
C436 C 0.54042 0.80237 0.19519 0.0
C437 C 0.55158 0.79065 0.24345 0.0
H438 H 0.57757 0.69872 0.23692 0.0
H439 H 0.57714 0.73092 0.26295 0.0
H440 H 0.53019 0.70206 0.1695 0.0
H441 H 0.52801 0.73267 0.19716 0.0
H442 H 0.49886 0.67039 0.3082 0.0
H443 H 0.5066 0.70684 0.27951 0.0
H444 H 0.5703 0.71416 0.35071 0.0
H445 H 0.57697 0.75086 0.32311 0.0
H446 H 0.50811 0.83234 0.28673 0.0
H447 H 0.51307 0.80141 0.26363 0.0
H448 H 0.5711 0.85073 0.34284 0.0
H449 H 0.57553 0.81923 0.31995 0.0
H450 H 0.58052 0.87174 0.21096 0.0
H451 H 0.57836 0.84133 0.24767 0.0
H452 H 0.53245 0.81353 0.15325 0.0
H453 H 0.52911 0.78309 0.19036 0.0
N454 N 0.55256 0.77204 0.23168 0.0
N455 N 0.54692 0.77142 0.29173 0.0
C456 C 0.86065 0.56833 0.72492 0.0
C457 C 0.85573 0.54793 0.70874 0.0
C458 C 0.8415 0.5679 0.74127 0.0
C459 C 0.81697 0.54725 0.74143 0.0
C460 C 0.83096 0.52734 0.70892 0.0
C461 C 0.81175 0.52717 0.72477 0.0
C462 C 0.79674 0.54635 0.7592 0.0
C463 C 0.84567 0.53475 0.82134 0.0
C464 C 0.85772 0.55302 0.84228 0.0
C465 C 0.82592 0.5328 0.80479 0.0
C466 C 0.81806 0.54934 0.80839 0.0
C467 C 0.84932 0.56912 0.84643 0.0
C468 C 0.82964 0.56722 0.82973 0.0
C469 C 0.79744 0.54776 0.79058 0.0
C470 C 0.69154 0.51625 0.82014 0.0
C471 C 0.69345 0.53506 0.83721 0.0
C472 C 0.71265 0.51914 0.8057 0.0
C473 C 0.73622 0.54075 0.80825 0.0
C474 C 0.71736 0.55638 0.84053 0.0
C475 C 0.73859 0.55908 0.82641 0.0
C476 C 0.75793 0.54457 0.7906 0.0
C477 C 0.70883 0.55735 0.73189 0.0
C478 C 0.69733 0.5404 0.70952 0.0
C479 C 0.72895 0.5591 0.7473 0.0
C480 C 0.73746 0.54338 0.74134 0.0
C481 C 0.70671 0.52563 0.70233 0.0
C482 C 0.7266 0.52708 0.71817 0.0
C483 C 0.75766 0.54399 0.75914 0.0
H484 H 0.87925 0.58476 0.72484 0.0
H485 H 0.8458 0.58372 0.75374 0.0
H486 H 0.82638 0.51108 0.69732 0.0
H487 H 0.79291 0.51103 0.72473 0.0
H488 H 0.85167 0.52211 0.81743 0.0
H489 H 0.81676 0.51829 0.78921 0.0
H490 H 0.85781 0.58307 0.86278 0.0
H491 H 0.82364 0.57994 0.83324 0.0
H492 H 0.67369 0.49925 0.81775 0.0
H493 H 0.71052 0.50462 0.79211 0.0
H494 H 0.71962 0.57135 0.85325 0.0
H495 H 0.75667 0.57589 0.82862 0.0
H496 H 0.70229 0.56931 0.7374 0.0
H497 H 0.73772 0.57268 0.76404 0.0
H498 H 0.69817 0.51245 0.6851 0.0
H499 H 0.73308 0.51503 0.71285 0.0
N500 N 0.77692 0.54454 0.74463 0.0
N501 N 0.77794 0.54677 0.80516 0.0
C502 C 0.18477 0.69553 0.22265 0.0
C503 C 0.17308 0.69793 0.1972 0.0
C504 C 0.19923 0.7156 0.24027 0.0
C505 C 0.20227 0.73846 0.23276 0.0
C506 C 0.17584 0.72074 0.18997 0.0
C507 C 0.19057 0.74092 0.20743 0.0
C508 C 0.21897 0.76014 0.25016 0.0
C509 C 0.15119 0.70704 0.30446 0.0
C510 C 0.1564 0.69847 0.33097 0.0
C511 C 0.1702 0.72813 0.28902 0.0
C512 C 0.19494 0.74037 0.29922 0.0
C513 C 0.18061 0.71171 0.34242 0.0
C514 C 0.19977 0.73246 0.3266 0.0
C515 C 0.21608 0.76081 0.2813 0.0
C516 C 0.30617 0.86303 0.30448 0.0
C517 C 0.31387 0.85714 0.33114 0.0
C518 C 0.28601 0.84463 0.28911 0.0
C519 C 0.27395 0.81988 0.29948 0.0
C520 C 0.30061 0.83278 0.34278 0.0
C521 C 0.28085 0.81428 0.32702 0.0
C522 C 0.25491 0.79963 0.28144 0.0
C523 C 0.32616 0.83804 0.22533 0.0
C524 C 0.32451 0.84869 0.19813 0.0
C525 C 0.30457 0.8219 0.24243 0.0
C526 C 0.28093 0.81652 0.23303 0.0
C527 C 0.30075 0.84298 0.18861 0.0
C528 C 0.27918 0.82697 0.20585 0.0
C529 C 0.25785 0.7987 0.25034 0.0
H530 H 0.18289 0.67814 0.22878 0.0
H531 H 0.20843 0.7134 0.25946 0.0
H532 H 0.16728 0.72318 0.17028 0.0
H533 H 0.19293 0.75848 0.2011 0.0
H534 H 0.13249 0.69722 0.29552 0.0
H535 H 0.16563 0.73447 0.26874 0.0
H536 H 0.18496 0.70536 0.36289 0.0
H537 H 0.21858 0.74174 0.33521 0.0
H538 H 0.31603 0.8818 0.29534 0.0
H539 H 0.28042 0.84968 0.26862 0.0
H540 H 0.30628 0.82791 0.36335 0.0
H541 H 0.27166 0.79543 0.33577 0.0
H542 H 0.34415 0.84213 0.23343 0.0
H543 H 0.30633 0.81349 0.26291 0.0
H544 H 0.29873 0.85044 0.16749 0.0
H545 H 0.26108 0.82269 0.19791 0.0
N546 N 0.23964 0.77915 0.23594 0.0
N547 N 0.23422 0.78051 0.29569 0.0
C548 C 0.42502 0.14989 0.79631 0.0
C549 C 0.4424 0.15644 0.81924 0.0
C550 C 0.42612 0.16784 0.77665 0.0
C551 C 0.44495 0.19272 0.77906 0.0
C552 C 0.46097 0.18143 0.82195 0.0
C553 C 0.46216 0.19938 0.80212 0.0
C554 C 0.44599 0.21193 0.7586 0.0
C555 C 0.46203 0.1661 0.70086 0.0
C556 C 0.4427 0.15193 0.68117 0.0
C557 C 0.46223 0.18478 0.71603 0.0
C558 C 0.44315 0.18968 0.71173 0.0
C559 C 0.42376 0.15703 0.67671 0.0
C560 C 0.42414 0.17591 0.69162 0.0
C561 C 0.44341 0.20964 0.72742 0.0
C562 C 0.46486 0.30665 0.67882 0.0
C563 C 0.44352 0.29998 0.66174 0.0
C564 C 0.4651 0.28966 0.69907 0.0
C565 C 0.44414 0.26562 0.7024 0.0
C566 C 0.42247 0.27584 0.66556 0.0
C567 C 0.42293 0.25878 0.68535 0.0
C568 C 0.44442 0.24724 0.72286 0.0
C569 C 0.43779 0.30051 0.77752 0.0
C570 C 0.4559 0.31153 0.7995 0.0
C571 C 0.43466 0.28023 0.76308 0.0
C572 C 0.45023 0.27114 0.76952 0.0
C573 C 0.47067 0.30179 0.80699 0.0
C574 C 0.46792 0.28184 0.79206 0.0
C575 C 0.44772 0.24998 0.75395 0.0
H576 H 0.41059 0.13084 0.79338 0.0
H577 H 0.41206 0.16223 0.75972 0.0
H578 H 0.47438 0.18717 0.83967 0.0
H579 H 0.4766 0.21849 0.80473 0.0
H580 H 0.47682 0.16254 0.70479 0.0
H581 H 0.47738 0.1955 0.731 0.0
H582 H 0.40881 0.14661 0.66138 0.0
H583 H 0.40939 0.17956 0.68774 0.0
H584 H 0.48163 0.32483 0.67616 0.0
H585 H 0.48178 0.29516 0.71178 0.0
H586 H 0.40548 0.27007 0.6534 0.0
H587 H 0.40657 0.24027 0.68769 0.0
H588 H 0.42585 0.30743 0.77179 0.0
H589 H 0.4199 0.27162 0.74707 0.0
H590 H 0.48474 0.30998 0.8239 0.0
H591 H 0.4799 0.27499 0.79786 0.0
N592 N 0.44836 0.23215 0.77057 0.0
N593 N 0.44239 0.22722 0.71083 0.0
H594 H 0.07974 0.50722 0.0641 0.0
H595 H 0.0231 0.43165 0.04732 0.0
H596 H 0.04644 0.41743 0.07751 0.0
H597 H 0.13263 0.50021 0.05902 0.0
H598 H 0.1496 0.521 0.08807 0.0
H599 H 0.12802 0.52499 0.06595 0.0
H600 H 0.10411 0.52301 0.11401 0.0
H601 H 0.12556 0.51894 0.13632 0.0
H602 H 0.09227 0.49683 0.13993 0.0
H603 H 0.07583 0.4117 0.10951 0.0
H604 H 0.10978 0.4145 0.13998 0.0
H605 H 0.14838 0.49417 0.13422 0.0
C606 C 0.07233 0.4877 0.06696 0.0
C607 C 0.04964 0.47039 0.05381 0.0
C608 C 0.04041 0.44502 0.05758 0.0
C609 C 0.05352 0.43686 0.07461 0.0
C610 C 0.07586 0.45438 0.08743 0.0
C611 C 0.08527 0.47928 0.08371 0.0
C612 C 0.10997 0.49429 0.09929 0.0
C613 C 0.13131 0.51111 0.07673 0.0
C614 C 0.10784 0.50914 0.12384 0.0
C615 C 0.11299 0.47395 0.1124 0.0
C616 C 0.09307 0.45109 0.10537 0.0
C617 C 0.09161 0.4295 0.115 0.0
C618 C 0.1111 0.43131 0.13214 0.0
C619 C 0.13191 0.45455 0.13937 0.0
C620 C 0.13268 0.47611 0.12937 0.0
H621 H 0.60269 0.05161 0.56289 0.0
H622 H 0.54176 0.06304 0.57835 0.0
H623 H 0.56724 0.09415 0.61511 0.0
H624 H 0.6241 0.05878 0.63977 0.0
H625 H 0.65683 0.0747 0.62877 0.0
H626 H 0.63334 0.05258 0.60485 0.0
H627 H 0.65012 0.08556 0.56132 0.0
H628 H 0.6736 0.10779 0.58509 0.0
H629 H 0.65222 0.11426 0.56644 0.0
H630 H 0.59996 0.12521 0.64801 0.0
H631 H 0.63751 0.15388 0.67589 0.0
H632 H 0.67742 0.12223 0.63946 0.0
C633 C 0.59477 0.06053 0.5744 0.0
C634 C 0.57038 0.05505 0.56826 0.0
C635 C 0.56044 0.06709 0.58317 0.0
C636 C 0.57475 0.0847 0.60397 0.0
C637 C 0.59889 0.08993 0.6095 0.0
C638 C 0.60882 0.07816 0.59527 0.0
C639 C 0.63551 0.08774 0.60465 0.0
C640 C 0.63756 0.06723 0.62045 0.0
C641 C 0.65395 0.09954 0.57778 0.0
C642 C 0.63912 0.10687 0.62618 0.0
C643 C 0.61775 0.10782 0.62863 0.0
C644 C 0.61676 0.12457 0.64639 0.0
C645 C 0.63821 0.14085 0.662 0.0
C646 C 0.66035 0.14027 0.65982 0.0
C647 C 0.66066 0.12289 0.64183 0.0
H648 H 0.50413 0.5862 0.09208 0.0
H649 H 0.57624 0.59296 0.0999 0.0
H650 H 0.58973 0.62652 0.13463 0.0
H651 H 0.52645 0.65004 0.09325 0.0
H652 H 0.50023 0.64558 0.11522 0.0
H653 H 0.49622 0.62191 0.09143 0.0
H654 H 0.47951 0.59045 0.13661 0.0
H655 H 0.4834 0.61401 0.16053 0.0
H656 H 0.49825 0.59715 0.16938 0.0
H657 H 0.59596 0.66079 0.16635 0.0
H658 H 0.59392 0.69176 0.19464 0.0
H659 H 0.51658 0.66062 0.16853 0.0
C660 C 0.52277 0.59479 0.10109 0.0
C661 C 0.53922 0.58712 0.09328 0.0
C662 C 0.56334 0.59852 0.10579 0.0
C663 C 0.57116 0.61762 0.12541 0.0
C664 C 0.55452 0.62486 0.13253 0.0
C665 C 0.53074 0.61363 0.12097 0.0
C666 C 0.5164 0.62469 0.13237 0.0
C667 C 0.50942 0.63624 0.10652 0.0
C668 C 0.49301 0.60543 0.15082 0.0
C669 C 0.53595 0.64414 0.15182 0.0
C670 C 0.55783 0.644 0.15155 0.0
C671 C 0.5788 0.66084 0.16706 0.0
C672 C 0.57737 0.67828 0.18329 0.0
C673 C 0.55502 0.67867 0.18415 0.0
C674 C 0.53406 0.66115 0.16822 0.0
H675 H 0.91559 0.51099 0.58002 0.0
H676 H 0.98798 0.55619 0.62085 0.0
H677 H 0.96782 0.56626 0.6599 0.0
H678 H 0.89427 0.55245 0.59226 0.0
H679 H 0.86209 0.52785 0.59899 0.0
H680 H 0.88217 0.52361 0.57476 0.0
H681 H 0.87238 0.48499 0.60696 0.0
H682 H 0.85241 0.48921 0.63141 0.0
H683 H 0.87805 0.48749 0.64641 0.0
H684 H 0.9394 0.57025 0.69563 0.0
H685 H 0.90549 0.56986 0.72352 0.0
H686 H 0.85277 0.52586 0.65598 0.0
C687 C 0.92741 0.52331 0.59682 0.0
C688 C 0.95346 0.53258 0.59727 0.0
C689 C 0.96792 0.54831 0.62021 0.0
C690 C 0.95668 0.55433 0.64243 0.0
C691 C 0.931 0.54479 0.64127 0.0
C692 C 0.9166 0.52985 0.61887 0.0
C693 C 0.88947 0.52242 0.62234 0.0
C694 C 0.88154 0.53217 0.59549 0.0
C695 C 0.87206 0.49436 0.62706 0.0
C696 C 0.89083 0.53539 0.65034 0.0
C697 C 0.91489 0.54803 0.66105 0.0
C698 C 0.92055 0.56071 0.68721 0.0
C699 C 0.90112 0.56054 0.70278 0.0
C700 C 0.8763 0.54804 0.69198 0.0
C701 C 0.87132 0.5354 0.66525 0.0
H702 H 0.41066 0.95869 0.07985 0.0
H703 H 0.46062 0.93159 0.07832 0.0
H704 H 0.43447 0.89986 0.11782 0.0
H705 H 0.39665 0.94867 0.16051 0.0
H706 H 0.36434 0.93937 0.15595 0.0
H707 H 0.38799 0.96083 0.12917 0.0
H708 H 0.36265 0.93236 0.08662 0.0
H709 H 0.33902 0.91075 0.11324 0.0
H710 H 0.35425 0.9008 0.0887 0.0
H711 H 0.40156 0.86982 0.15497 0.0
H712 H 0.36431 0.84342 0.18753 0.0
H713 H 0.33618 0.8908 0.16563 0.0
C714 C 0.41619 0.94627 0.08833 0.0
C715 C 0.43761 0.9475 0.07665 0.0
C716 C 0.44429 0.93084 0.0875 0.0
C717 C 0.4296 0.91287 0.10981 0.0
C718 C 0.40839 0.91195 0.12087 0.0
C719 C 0.40174 0.92826 0.1106 0.0
C720 C 0.3775 0.92267 0.12531 0.0
C721 C 0.38189 0.94417 0.14384 0.0
C722 C 0.35716 0.91626 0.10208 0.0
C723 C 0.37132 0.90043 0.14509 0.0
C724 C 0.38944 0.89463 0.14232 0.0
C725 C 0.3874 0.87435 0.15762 0.0
C726 C 0.36622 0.85954 0.1762 0.0
C727 C 0.34734 0.86507 0.17931 0.0
C728 C 0.35015 0.88594 0.16362 0.0
H729 H 0.48466 0.43278 0.59077 0.0
H730 H 0.43935 0.39623 0.51492 0.0
H731 H 0.42572 0.35571 0.53971 0.0
H732 H 0.50589 0.39275 0.60611 0.0
H733 H 0.5041 0.3933 0.64612 0.0
H734 H 0.50923 0.41924 0.62312 0.0
H735 H 0.47029 0.41615 0.64757 0.0
H736 H 0.46515 0.39031 0.67089 0.0
H737 H 0.4404 0.38746 0.64772 0.0
H738 H 0.42022 0.31978 0.57085 0.0
H739 H 0.42047 0.29041 0.60747 0.0
H740 H 0.46673 0.35034 0.66518 0.0
C741 C 0.47158 0.41616 0.5797 0.0
C742 C 0.46301 0.41735 0.55103 0.0
C743 C 0.44604 0.39545 0.53692 0.0
C744 C 0.43826 0.37248 0.55081 0.0
C745 C 0.44737 0.37187 0.57894 0.0
C746 C 0.46337 0.39311 0.59343 0.0
C747 C 0.4706 0.38737 0.62342 0.0
C748 C 0.49915 0.39884 0.62475 0.0
C749 C 0.46103 0.39582 0.64891 0.0
C750 C 0.45664 0.3596 0.62325 0.0
C751 C 0.4434 0.35105 0.59739 0.0
C752 C 0.4301 0.3262 0.59148 0.0
C753 C 0.43022 0.30961 0.61261 0.0
C754 C 0.44335 0.31784 0.6396 0.0
C755 C 0.45662 0.34327 0.64484 0.0
H756 H 0.53839 0.92728 0.44428 0.0
H757 H 0.51676 0.96219 0.3763 0.0
H758 H 0.51975 0.93721 0.33842 0.0
H759 H 0.58174 0.92095 0.39856 0.0
H760 H 0.57235 0.89108 0.41477 0.0
H761 H 0.56996 0.91271 0.43656 0.0
H762 H 0.52273 0.8806 0.44704 0.0
H763 H 0.52498 0.85886 0.42534 0.0
H764 H 0.50222 0.86685 0.41618 0.0
H765 H 0.52424 0.90808 0.30787 0.0
H766 H 0.52904 0.87595 0.28686 0.0
H767 H 0.5451 0.85787 0.37492 0.0
C768 C 0.53422 0.92969 0.42147 0.0
C769 C 0.52766 0.94707 0.41337 0.0
C770 C 0.5225 0.94958 0.38311 0.0
C771 C 0.52393 0.9353 0.36138 0.0
C772 C 0.53037 0.91838 0.37016 0.0
C773 C 0.53534 0.91541 0.39947 0.0
C774 C 0.54099 0.89527 0.40307 0.0
C775 C 0.56786 0.90563 0.41388 0.0
C776 C 0.52157 0.87415 0.42415 0.0
C777 C 0.53832 0.88736 0.37122 0.0
C778 C 0.53231 0.90104 0.35261 0.0
C779 C 0.52882 0.89715 0.32224 0.0
C780 C 0.5314 0.8787 0.31056 0.0
C781 C 0.53724 0.86415 0.32921 0.0
C782 C 0.54085 0.86874 0.35996 0.0
H783 H 0.61119 0.54848 0.96239 0.0
H784 H 0.54606 0.50359 0.90928 0.0
H785 H 0.57345 0.50303 0.8701 0.0
H786 H 0.65577 0.58395 0.90177 0.0
H787 H 0.68126 0.58342 0.91931 0.0
H788 H 0.65684 0.58207 0.94187 0.0
H789 H 0.64824 0.54171 0.96856 0.0
H790 H 0.67268 0.54297 0.94617 0.0
H791 H 0.64137 0.51603 0.94667 0.0
H792 H 0.60783 0.50699 0.8373 0.0
H793 H 0.64621 0.51295 0.81406 0.0
H794 H 0.68852 0.55169 0.89113 0.0
C795 C 0.60279 0.53853 0.94249 0.0
C796 C 0.57661 0.52592 0.93875 0.0
C797 C 0.56616 0.51334 0.91236 0.0
C798 C 0.58153 0.51293 0.89009 0.0
C799 C 0.60727 0.52509 0.89472 0.0
C800 C 0.61782 0.5375 0.92034 0.0
C801 C 0.64577 0.54776 0.9206 0.0
C802 C 0.66079 0.57598 0.9209 0.0
C803 C 0.6524 0.53643 0.94707 0.0
C804 C 0.64929 0.53911 0.89116 0.0
C805 C 0.62691 0.52635 0.87643 0.0
C806 C 0.62543 0.51674 0.84875 0.0
C807 C 0.64737 0.52004 0.83587 0.0
C808 C 0.6705 0.53249 0.85086 0.0
C809 C 0.67132 0.54226 0.87884 0.0
H810 H 0.06685 0.60719 0.46383 0.0
H811 H 0.04786 0.54727 0.40654 0.0
H812 H 0.07491 0.57718 0.36611 0.0
H813 H 0.07046 0.65033 0.40812 0.0
H814 H 0.09736 0.67663 0.42347 0.0
H815 H 0.07591 0.65062 0.44758 0.0
H816 H 0.11261 0.64671 0.46652 0.0
H817 H 0.13422 0.67285 0.44268 0.0
H818 H 0.13247 0.64408 0.43998 0.0
H819 H 0.10258 0.61347 0.33163 0.0
H820 H 0.13293 0.65385 0.30673 0.0
H821 H 0.13701 0.69002 0.38787 0.0
C822 C 0.06873 0.60046 0.44288 0.0
C823 C 0.05553 0.57506 0.43814 0.0
C824 C 0.05797 0.56676 0.41039 0.0
C825 C 0.0732 0.58356 0.38739 0.0
C826 C 0.08606 0.60853 0.39273 0.0
C827 C 0.08432 0.61697 0.41992 0.0
C828 C 0.10091 0.64471 0.4202 0.0
C829 C 0.08521 0.65625 0.42513 0.0
C830 C 0.12126 0.65254 0.44374 0.0
C831 C 0.11211 0.65055 0.38887 0.0
C832 C 0.10299 0.62943 0.37328 0.0
C833 C 0.11001 0.63013 0.34364 0.0
C834 C 0.12709 0.65306 0.32967 0.0
C835 C 0.13716 0.6748 0.34552 0.0
C836 C 0.12956 0.67354 0.37544 0.0
H837 H 0.49616 0.08917 0.91829 0.0
H838 H 0.41905 0.03125 0.93954 0.0
H839 H 0.40415 0.0541 0.90985 0.0
H840 H 0.48725 0.14042 0.92037 0.0
H841 H 0.50865 0.15715 0.88936 0.0
H842 H 0.51318 0.13666 0.91319 0.0
H843 H 0.51243 0.11316 0.86722 0.0
H844 H 0.50788 0.13355 0.84326 0.0
H845 H 0.48594 0.10081 0.84301 0.0
H846 H 0.39776 0.08308 0.87759 0.0
H847 H 0.40014 0.11558 0.84393 0.0
H848 H 0.48152 0.15387 0.84233 0.0
C849 C 0.47615 0.08148 0.917 0.0
C850 C 0.45872 0.05853 0.93129 0.0
C851 C 0.43268 0.04877 0.92862 0.0
C852 C 0.42407 0.06165 0.91194 0.0
C853 C 0.44175 0.08418 0.89798 0.0
C854 C 0.46724 0.09398 0.90026 0.0
C855 C 0.48229 0.11809 0.88222 0.0
C856 C 0.49882 0.13933 0.9025 0.0
C857 C 0.49806 0.11628 0.85746 0.0
C858 C 0.46127 0.12031 0.86943 0.0
C859 C 0.43805 0.10063 0.87891 0.0
C860 C 0.41584 0.09855 0.86993 0.0
C861 C 0.4174 0.11703 0.85062 0.0
C862 C 0.44101 0.13727 0.84031 0.0
C863 C 0.46318 0.13885 0.85004 0.0
H864 H 0.41656 0.50239 0.40916 0.0
H865 H 0.40714 0.43053 0.40965 0.0
H866 H 0.37133 0.41624 0.37574 0.0
H867 H 0.35179 0.48273 0.40755 0.0
H868 H 0.35652 0.50744 0.38231 0.0
H869 H 0.38124 0.51189 0.40664 0.0
H870 H 0.41167 0.52462 0.36109 0.0
H871 H 0.38709 0.52036 0.33663 0.0
H872 H 0.40291 0.50426 0.33072 0.0
H873 H 0.33507 0.40933 0.34439 0.0
H874 H 0.30335 0.41098 0.31416 0.0
H875 H 0.33923 0.48878 0.33015 0.0
C876 C 0.40691 0.48367 0.40203 0.0
C877 C 0.41434 0.46742 0.41199 0.0
C878 C 0.40161 0.44316 0.40209 0.0
C879 C 0.38127 0.43491 0.38298 0.0
C880 C 0.37425 0.45133 0.37366 0.0
C881 C 0.38691 0.47531 0.3825 0.0
C882 C 0.37605 0.48943 0.3686 0.0
C883 C 0.36579 0.49839 0.39272 0.0
C884 C 0.39559 0.51094 0.34804 0.0
C885 C 0.35504 0.46955 0.35094 0.0
C886 C 0.3542 0.44768 0.35435 0.0
C887 C 0.33582 0.42648 0.34112 0.0
C888 C 0.31795 0.4277 0.32372 0.0
C889 C 0.31873 0.45009 0.31923 0.0
C890 C 0.3377 0.47125 0.33317 0.0
H891 H 0.90895 0.41331 0.92078 0.0
H892 H 0.97307 0.40511 0.92158 0.0
H893 H 0.95013 0.36865 0.89115 0.0
H894 H 0.86034 0.34783 0.92402 0.0
H895 H 0.84016 0.35167 0.89894 0.0
H896 H 0.86104 0.37625 0.92228 0.0
H897 H 0.88046 0.40581 0.87555 0.0
H898 H 0.85969 0.38132 0.85209 0.0
H899 H 0.89315 0.39764 0.84539 0.0
H900 H 0.92082 0.33384 0.85979 0.0
H901 H 0.88728 0.30325 0.82871 0.0
H902 H 0.84267 0.33495 0.84638 0.0
C903 C 0.91795 0.40358 0.91488 0.0
C904 C 0.94273 0.41192 0.92355 0.0
C905 C 0.95414 0.39904 0.915 0.0
C906 C 0.94124 0.37829 0.89784 0.0
C907 C 0.91697 0.3707 0.8893 0.0
C908 C 0.90542 0.38293 0.89746 0.0
C909 C 0.87961 0.37157 0.88418 0.0
C910 C 0.85907 0.36121 0.90883 0.0
C911 C 0.87816 0.39019 0.86305 0.0
C912 C 0.87855 0.35114 0.86718 0.0
C913 C 0.90023 0.35089 0.87061 0.0
C914 C 0.90376 0.33388 0.85686 0.0
C915 C 0.88466 0.31669 0.83904 0.0
C916 C 0.86232 0.31669 0.83487 0.0
C917 C 0.85933 0.33419 0.84932 0.0
H918 H 0.93397 0.50469 0.93298 0.0
H919 H 0.99177 0.58073 0.94537 0.0
H920 H 0.96728 0.59425 0.9163 0.0
H921 H 0.91812 0.51282 0.85789 0.0
H922 H 0.88499 0.49088 0.8638 0.0
H923 H 0.90742 0.48745 0.88483 0.0
H924 H 0.88579 0.48708 0.93414 0.0
H925 H 0.86328 0.49051 0.91329 0.0
H926 H 0.8817 0.51221 0.94093 0.0
H927 H 0.93624 0.59915 0.88607 0.0
H928 H 0.90101 0.59536 0.85728 0.0
H929 H 0.8627 0.51582 0.86649 0.0
C930 C 0.94143 0.52416 0.92933 0.0
C931 C 0.96474 0.54178 0.94096 0.0
C932 C 0.97399 0.5671 0.93623 0.0
C933 C 0.96022 0.57487 0.91987 0.0
C934 C 0.9372 0.55702 0.90866 0.0
C935 C 0.92785 0.53219 0.91324 0.0
C936 C 0.90242 0.51675 0.8994 0.0
C937 C 0.9033 0.50105 0.87503 0.0
C938 C 0.8821 0.5007 0.92337 0.0
C939 C 0.89893 0.53675 0.8862 0.0
C940 C 0.91919 0.55984 0.89174 0.0
C941 C 0.92023 0.58116 0.8817 0.0
C942 C 0.90002 0.57881 0.86553 0.0
C943 C 0.87898 0.5553 0.85963 0.0
C944 C 0.87858 0.53406 0.87023 0.0
H945 H 0.39701 0.94367 0.46103 0.0
H946 H 0.4626 0.96307 0.40687 0.0
H947 H 0.43513 0.93743 0.36689 0.0
H948 H 0.36142 0.88003 0.4415 0.0
H949 H 0.33172 0.878 0.44203 0.0
H950 H 0.35656 0.89908 0.46543 0.0
H951 H 0.35374 0.93502 0.44201 0.0
H952 H 0.329 0.91409 0.41839 0.0
H953 H 0.3569 0.94069 0.40211 0.0
H954 H 0.40059 0.91047 0.33262 0.0
H955 H 0.36126 0.88067 0.30808 0.0
H956 H 0.31816 0.8755 0.3864 0.0
C957 C 0.40549 0.94228 0.44083 0.0
C958 C 0.43183 0.95514 0.43693 0.0
C959 C 0.4424 0.95328 0.41011 0.0
C960 C 0.42698 0.93882 0.38737 0.0
C961 C 0.40105 0.92613 0.39199 0.0
C962 C 0.39036 0.92743 0.41821 0.0
C963 C 0.362 0.91096 0.41811 0.0
C964 C 0.35236 0.89082 0.44326 0.0
C965 C 0.34969 0.9261 0.42028 0.0
C966 C 0.3584 0.90028 0.38771 0.0
C967 C 0.38116 0.90958 0.37284 0.0
C968 C 0.38267 0.90295 0.3441 0.0
C969 C 0.36032 0.88615 0.33032 0.0
C970 C 0.33692 0.87593 0.34548 0.0
C971 C 0.33593 0.88308 0.3745 0.0
H972 H 0.46825 0.39327 0.93567 0.0
H973 H 0.48703 0.45258 0.87005 0.0
H974 H 0.48092 0.42525 0.82984 0.0
H975 H 0.50219 0.37113 0.89726 0.0
H976 H 0.47983 0.33931 0.90773 0.0
H977 H 0.48406 0.36304 0.93157 0.0
H978 H 0.43649 0.34642 0.92961 0.0
H979 H 0.43212 0.32267 0.90569 0.0
H980 H 0.42211 0.34323 0.89395 0.0
H981 H 0.47227 0.39141 0.7964 0.0
H982 H 0.46479 0.35417 0.77238 0.0
H983 H 0.45554 0.31818 0.85943 0.0
C984 C 0.47131 0.40071 0.91293 0.0
C985 C 0.47774 0.42516 0.90632 0.0
C986 C 0.48131 0.4338 0.87599 0.0
C987 C 0.47812 0.41845 0.85286 0.0
C988 C 0.47174 0.39455 0.86024 0.0
C989 C 0.46867 0.38579 0.88953 0.0
C990 C 0.46286 0.35966 0.89139 0.0
C991 C 0.48347 0.35821 0.90797 0.0
C992 C 0.43685 0.34195 0.90602 0.0
C993 C 0.46312 0.35513 0.85856 0.0
C994 C 0.46799 0.37541 0.84097 0.0
C995 C 0.46858 0.37546 0.80993 0.0
C996 C 0.46424 0.35426 0.7965 0.0
C997 C 0.45973 0.33347 0.8141 0.0
C998 C 0.45919 0.33396 0.84552 0.0
H999 H 0.07648 0.46689 0.42989 0.0
H1000 H 0.03054 0.47667 0.36543 0.0
H1001 H 0.05226 0.47007 0.32476 0.0
H1002 H 0.13323 0.50097 0.38656 0.0
H1003 H 0.1448 0.48167 0.39822 0.0
H1004 H 0.12404 0.48483 0.42257 0.0
H1005 H 0.09345 0.43753 0.42568 0.0
H1006 H 0.11411 0.4342 0.40133 0.0
H1007 H 0.08175 0.42132 0.39181 0.0
H1008 H 0.07982 0.46352 0.29075 0.0
H1009 H 0.1125 0.45945 0.26604 0.0
H1010 H 0.14239 0.45708 0.35231 0.0
C1011 C 0.07094 0.46778 0.40728 0.0
C1012 C 0.05151 0.47215 0.40113 0.0
C1013 C 0.04485 0.47278 0.37104 0.0
C1014 C 0.05724 0.46924 0.34766 0.0
C1015 C 0.07644 0.46529 0.35459 0.0
C1016 C 0.08336 0.46469 0.38365 0.0
C1017 C 0.10549 0.46141 0.38502 0.0
C1018 C 0.12823 0.48354 0.39891 0.0
C1019 C 0.09826 0.43717 0.40196 0.0
C1020 C 0.11009 0.46049 0.35213 0.0
C1021 C 0.09292 0.46244 0.33497 0.0
C1022 C 0.09334 0.46195 0.30397 0.0
C1023 C 0.11187 0.45955 0.29015 0.0
C1024 C 0.12992 0.45797 0.30729 0.0
C1025 C 0.12892 0.45841 0.33868 0.0
H1026 H 0.5698 0.07362 0.9216 0.0
H1027 H 0.58523 0.01577 0.93399 0.0
H1028 H 0.62155 0.03821 0.89841 0.0
H1029 H 0.58581 0.0866 0.84326 0.0
H1030 H 0.60002 0.11931 0.84549 0.0
H1031 H 0.57519 0.09847 0.87146 0.0
H1032 H 0.60385 0.1205 0.91575 0.0
H1033 H 0.62873 0.1415 0.88995 0.0
H1034 H 0.63414 0.12386 0.91769 0.0
H1035 H 0.65605 0.06717 0.86161 0.0
H1036 H 0.68691 0.10086 0.82724 0.0
H1037 H 0.64931 0.14026 0.84045 0.0
C1038 C 0.58093 0.0658 0.91674 0.0
C1039 C 0.57501 0.04314 0.93028 0.0
C1040 C 0.58972 0.0332 0.92363 0.0
C1041 C 0.61025 0.04577 0.90352 0.0
C1042 C 0.61568 0.06818 0.89046 0.0
C1043 C 0.60149 0.07814 0.89689 0.0
C1044 C 0.61151 0.10268 0.88034 0.0
C1045 C 0.59197 0.10169 0.85886 0.0
C1046 C 0.62007 0.12335 0.90224 0.0
C1047 C 0.63357 0.10501 0.86355 0.0
C1048 C 0.63563 0.08491 0.86959 0.0
C1049 C 0.65467 0.08304 0.85677 0.0
C1050 C 0.67217 0.10232 0.83741 0.0
C1051 C 0.67056 0.12322 0.83114 0.0
C1052 C 0.65088 0.1244 0.84439 0.0
H1053 H 0.54408 0.60702 0.46348 0.0
H1054 H 0.5007 0.54402 0.40942 0.0
H1055 H 0.50003 0.57111 0.3691 0.0
H1056 H 0.51036 0.63637 0.44308 0.0
H1057 H 0.53771 0.66708 0.44342 0.0
H1058 H 0.53592 0.6429 0.46716 0.0
H1059 H 0.57793 0.65195 0.44404 0.0
H1060 H 0.57978 0.67606 0.42011 0.0
H1061 H 0.58101 0.65142 0.40419 0.0
H1062 H 0.50468 0.60503 0.33475 0.0
H1063 H 0.51192 0.64294 0.30937 0.0
H1064 H 0.54861 0.68343 0.38799 0.0
C1065 C 0.53428 0.599 0.44322 0.0
C1066 C 0.52221 0.57351 0.43946 0.0
C1067 C 0.50997 0.56357 0.41254 0.0
C1068 C 0.50951 0.57878 0.38962 0.0
C1069 C 0.52126 0.60383 0.39415 0.0
C1070 C 0.53323 0.61386 0.42035 0.0
C1071 C 0.54352 0.64119 0.41997 0.0
C1072 C 0.53113 0.64724 0.44488 0.0
C1073 C 0.57227 0.65602 0.42221 0.0
C1074 C 0.5355 0.64496 0.38943 0.0
C1075 C 0.52293 0.62322 0.37483 0.0
C1076 C 0.51419 0.62212 0.34611 0.0
C1077 C 0.51821 0.6438 0.33199 0.0
C1078 C 0.5305 0.6663 0.34673 0.0
C1079 C 0.5393 0.66672 0.37587 0.0
H1080 H 0.49898 0.09014 0.58348 0.0
H1081 H 0.42533 0.02298 0.58921 0.0
H1082 H 0.40973 0.04339 0.62005 0.0
H1083 H 0.4986 0.10782 0.65879 0.0
H1084 H 0.51483 0.1402 0.64858 0.0
H1085 H 0.52016 0.12021 0.62717 0.0
H1086 H 0.50792 0.13466 0.57905 0.0
H1087 H 0.50254 0.15467 0.60031 0.0
H1088 H 0.47798 0.13211 0.57778 0.0
H1089 H 0.40181 0.07165 0.64865 0.0
H1090 H 0.40268 0.10512 0.67506 0.0
H1091 H 0.48172 0.15355 0.65146 0.0
C1092 C 0.47955 0.07977 0.59116 0.0
C1093 C 0.46332 0.05499 0.58392 0.0
C1094 C 0.43812 0.04191 0.59472 0.0
C1095 C 0.42907 0.05338 0.61211 0.0
C1096 C 0.44553 0.07786 0.61872 0.0
C1097 C 0.47028 0.09085 0.60876 0.0
C1098 C 0.48414 0.11691 0.61917 0.0
C1099 C 0.5057 0.12155 0.63965 0.0
C1100 C 0.4937 0.13569 0.59249 0.0
C1101 C 0.46326 0.11662 0.63635 0.0
C1102 C 0.44111 0.09396 0.63571 0.0
C1103 C 0.41908 0.08944 0.64941 0.0
C1104 C 0.41971 0.10857 0.66422 0.0
C1105 C 0.44226 0.13187 0.66537 0.0
C1106 C 0.46429 0.13583 0.65127 0.0
H1107 H 0.43313 0.50431 0.07056 0.0
H1108 H 0.40465 0.42924 0.04769 0.0
H1109 H 0.3657 0.41521 0.07739 0.0
H1110 H 0.4077 0.4913 0.14583 0.0
H1111 H 0.39989 0.51453 0.14386 0.0
H1112 H 0.42575 0.51845 0.12169 0.0
H1113 H 0.40582 0.52383 0.07381 0.0
H1114 H 0.37995 0.52004 0.0958 0.0
H1115 H 0.37409 0.50043 0.06526 0.0
H1116 H 0.33027 0.40957 0.10975 0.0
H1117 H 0.29968 0.41255 0.14056 0.0
H1118 H 0.3503 0.49187 0.14 0.0
C1119 C 0.41865 0.48493 0.07199 0.0
C1120 C 0.42178 0.4677 0.05729 0.0
C1121 C 0.40251 0.44254 0.05919 0.0
C1122 C 0.38043 0.43448 0.07593 0.0
C1123 C 0.3779 0.45191 0.0903 0.0
C1124 C 0.3964 0.47663 0.08833 0.0
C1125 C 0.38864 0.49166 0.10506 0.0
C1126 C 0.40656 0.50475 0.13063 0.0
C1127 C 0.38702 0.51007 0.08371 0.0
C1128 C 0.3629 0.47152 0.11685 0.0
C1129 C 0.35714 0.44874 0.1082 0.0
C1130 C 0.33449 0.42733 0.11646 0.0
C1131 C 0.31714 0.42926 0.13382 0.0
C1132 C 0.32238 0.45247 0.14257 0.0
C1133 C 0.34572 0.47382 0.134 0.0
H1134 H 0.93281 0.39516 0.54352 0.0
H1135 H 0.96104 0.45892 0.59701 0.0
H1136 H 0.93307 0.43236 0.63916 0.0
H1137 H 0.86848 0.36652 0.56868 0.0
H1138 H 0.86214 0.33571 0.56783 0.0
H1139 H 0.88553 0.35958 0.54281 0.0
H1140 H 0.91859 0.35045 0.56272 0.0
H1141 H 0.89532 0.32663 0.58791 0.0
H1142 H 0.92424 0.35131 0.60216 0.0
H1143 H 0.9023 0.39869 0.67533 0.0
H1144 H 0.86946 0.36093 0.70231 0.0
H1145 H 0.8581 0.31993 0.62294 0.0
C1146 C 0.93291 0.40346 0.56408 0.0
C1147 C 0.94878 0.42899 0.56715 0.0
C1148 C 0.94887 0.43932 0.59443 0.0
C1149 C 0.93309 0.42442 0.61838 0.0
C1150 C 0.91727 0.3993 0.61449 0.0
C1151 C 0.9169 0.38893 0.58795 0.0
C1152 C 0.89734 0.36166 0.58911 0.0
C1153 C 0.87718 0.35551 0.56573 0.0
C1154 C 0.90961 0.34663 0.58525 0.0
C1155 C 0.88684 0.35829 0.62048 0.0
C1156 C 0.89875 0.38015 0.63485 0.0
C1157 C 0.89262 0.3815 0.66421 0.0
C1158 C 0.87373 0.35992 0.67926 0.0
C1159 C 0.86084 0.3373 0.66482 0.0
C1160 C 0.86764 0.33669 0.63495 0.0
H1161 H 0.5296 0.94347 0.10757 0.0
H1162 H 0.55453 0.9327 0.02263 0.0
H1163 H 0.56647 0.90576 0.04801 0.0
H1164 H 0.57894 0.94377 0.15264 0.0
H1165 H 0.55778 0.92756 0.18401 0.0
H1166 H 0.55296 0.94752 0.1595 0.0
H1167 H 0.50763 0.91156 0.15031 0.0
H1168 H 0.51232 0.8915 0.17469 0.0
H1169 H 0.50264 0.88326 0.13696 0.0
H1170 H 0.57215 0.87729 0.08156 0.0
H1171 H 0.57204 0.84966 0.1216 0.0
H1172 H 0.54512 0.88002 0.18518 0.0
C1173 C 0.53811 0.93591 0.0944 0.0
C1174 C 0.5411 0.94018 0.06308 0.0
C1175 C 0.55178 0.92946 0.04658 0.0
C1176 C 0.5588 0.9143 0.06082 0.0
C1177 C 0.55524 0.91018 0.09162 0.0
C1178 C 0.54531 0.92079 0.10828 0.0
C1179 C 0.54227 0.91237 0.14088 0.0
C1180 C 0.55899 0.9341 0.16041 0.0
C1181 C 0.51457 0.89887 0.15131 0.0
C1182 C 0.55152 0.89493 0.13981 0.0
C1183 C 0.55901 0.89404 0.11118 0.0
C1184 C 0.56671 0.87809 0.10415 0.0
C1185 C 0.56652 0.86245 0.12693 0.0
C1186 C 0.5588 0.86298 0.15635 0.0
C1187 C 0.55157 0.87967 0.16294 0.0
H1188 H 0.61343 0.53262 0.57175 0.0
H1189 H 0.5555 0.51901 0.6365 0.0
H1190 H 0.58362 0.52361 0.67723 0.0
H1191 H 0.63339 0.49705 0.61247 0.0
H1192 H 0.66603 0.5173 0.60181 0.0
H1193 H 0.64204 0.5147 0.57748 0.0
H1194 H 0.66195 0.56183 0.5775 0.0
H1195 H 0.68602 0.56458 0.60182 0.0
H1196 H 0.66694 0.57641 0.6125 0.0
H1197 H 0.61779 0.52934 0.71115 0.0
H1198 H 0.65516 0.53405 0.73582 0.0
H1199 H 0.68957 0.54078 0.64936 0.0
C1200 C 0.60648 0.53044 0.59443 0.0
C1201 C 0.58218 0.5257 0.60067 0.0
C1202 C 0.57418 0.52329 0.63087 0.0
C1203 C 0.58996 0.52566 0.65427 0.0
C1204 C 0.61363 0.53015 0.64725 0.0
C1205 C 0.62182 0.53235 0.6181 0.0
C1206 C 0.64777 0.53623 0.61666 0.0
C1207 C 0.64726 0.51506 0.60119 0.0
C1208 C 0.66679 0.56126 0.60121 0.0
C1209 C 0.65284 0.53579 0.6496 0.0
C1210 C 0.63299 0.53251 0.66685 0.0
C1211 C 0.63343 0.53188 0.69789 0.0
C1212 C 0.65471 0.53463 0.71168 0.0
C1213 C 0.67513 0.53772 0.69445 0.0
C1214 C 0.6741 0.53823 0.66302 0.0
H1215 H 0.06117 0.6054 0.09346 0.0
H1216 H 0.107 0.57612 0.07093 0.0
H1217 H 0.13952 0.60427 0.10513 0.0
H1218 H 0.11227 0.66815 0.09633 0.0
H1219 H 0.09904 0.67513 0.1271 0.0
H1220 H 0.07869 0.65181 0.10207 0.0
H1221 H 0.05795 0.62019 0.14677 0.0
H1222 H 0.07822 0.64343 0.17195 0.0
H1223 H 0.07732 0.61494 0.17162 0.0
H1224 H 0.16693 0.6353 0.14147 0.0
H1225 H 0.18885 0.66918 0.17581 0.0
H1226 H 0.12636 0.67993 0.17356 0.0
C1227 C 0.078 0.60488 0.09598 0.0
C1228 C 0.08168 0.58866 0.07967 0.0
C1229 C 0.104 0.58858 0.08315 0.0
C1230 C 0.12248 0.60439 0.10259 0.0
C1231 C 0.11844 0.62032 0.1182 0.0
C1232 C 0.09687 0.62086 0.11501 0.0
C1233 C 0.09779 0.64053 0.13352 0.0
C1234 C 0.0969 0.66006 0.11356 0.0
C1235 C 0.07656 0.62908 0.15738 0.0
C1236 C 0.12324 0.65097 0.14751 0.0
C1237 C 0.13468 0.63883 0.13859 0.0
C1238 C 0.15818 0.64496 0.14864 0.0
C1239 C 0.17043 0.66413 0.16823 0.0
C1240 C 0.15929 0.67711 0.17734 0.0
C1241 C 0.13537 0.67039 0.1668 0.0
loop_
_geom_bond_atom_site_label_1
_geom_bond_atom_site_label_2
_geom_bond_distance
_geom_bond_site_symmetry_2
_ccdc_geom_bond_type
C0 C1 1.443 . S
C0 N4 1.376 1_556 S
C0 C38 1.389 . S
C1 C0 1.443 . S
C1 C2 1.340 1_556 S
C1 H41 0.951 . S
C2 C1 1.340 1_554 S
C2 C3 1.439 . S
C2 H42 0.950 . S
C3 C2 1.439 . S
C3 N4 1.374 . S
C3 C37 1.395 . S
N4 C0 1.376 1_554 S
N4 C3 1.374 . S
N4 Co5 1.974 1_655 S
Co5 N4 1.974 1_455 S
Co5 N6 2.017 1_455 S
Co5 N11 2.043 1_554 S
Co5 N16 1.973 1_554 S
Co5 N21 2.297 . S
Co5 N27 2.269 1_454 S
N6 Co5 2.017 1_655 S
N6 C7 1.376 . S
N6 C10 1.383 1_655 S
C7 N6 1.376 . S
C7 C8 1.446 . S
C7 C37 1.391 . S
C8 C7 1.446 . S
C8 C9 1.339 1_655 S
C8 H43 0.949 . S
C9 C8 1.339 1_455 S
C9 C10 1.439 . S
C9 H44 0.950 . S
C10 N6 1.383 1_455 S
C10 C9 1.439 . S
C10 C39 1.392 . S
N11 Co5 2.043 1_556 S
N11 C12 1.376 1_556 S
N11 C15 1.374 . S
C12 N11 1.376 1_554 S
C12 C13 1.443 . S
C12 C39 1.389 . S
C13 C12 1.443 . S
C13 C14 1.340 1_554 S
C13 H45 0.951 . S
C14 C13 1.340 1_556 S
C14 C15 1.439 . S
C14 H46 0.950 . S
C15 N11 1.374 . S
C15 C14 1.439 . S
C15 C40 1.395 . S
N16 Co5 1.973 1_556 S
N16 C17 1.376 . S
N16 C20 1.383 1_455 S
C17 N16 1.376 . S
C17 C18 1.446 . S
C17 C40 1.391 . S
C18 C17 1.446 . S
C18 C19 1.339 1_455 S
C18 H47 0.949 . S
C19 C18 1.339 1_655 S
C19 C20 1.439 . S
C19 H48 0.950 . S
C20 N16 1.383 1_655 S
C20 C19 1.439 . S
C20 C38 1.392 . S
N21 Co5 2.297 . S
N21 C24 1.332 . S
N21 C26 1.332 . S
C22 C23 1.386 . S
C22 C25 1.388 . S
C23 C22 1.386 . S
C23 C24 1.382 . S
C23 H49 0.950 . S
C24 N21 1.332 . S
C24 C23 1.382 . S
C24 H35 0.952 1_554 S
C25 C22 1.388 . S
C25 C26 1.382 . S
C25 H50 0.950 . S
C26 N21 1.332 . S
C26 C25 1.382 . S
C26 H36 0.948 . S
N27 Co5 2.269 1_656 S
N27 C31 1.332 . S
N27 C32 1.332 . S
C28 C29 1.388 . S
C28 C32 1.382 . S
C28 H51 0.950 . S
C29 C28 1.388 . S
C29 C30 1.386 . S
C30 C29 1.386 . S
C30 C31 1.382 . S
C30 H52 0.950 . S
C31 N27 1.332 . S
C31 C30 1.382 . S
C31 H33 0.952 1_556 S
C32 N27 1.332 . S
C32 C28 1.382 . S
C32 H34 0.948 . S
H33 C31 0.952 1_554 S
H34 C32 0.948 . S
H35 C24 0.952 1_556 S
H36 C26 0.948 . S
C37 C3 1.395 . S
C37 C7 1.391 . S
C38 C0 1.389 . S
C38 C20 1.392 . S
C39 C10 1.392 . S
C39 C12 1.389 . S
C40 C15 1.395 . S
C40 C17 1.391 . S
H41 C1 0.951 . S
H42 C2 0.950 . S
H43 C8 0.949 . S
H44 C9 0.950 . S
H45 C13 0.951 . S
H46 C14 0.950 . S
H47 C18 0.949 . S
H48 C19 0.950 . S
H49 C23 0.950 . S
H50 C25 0.950 . S
H51 C28 0.950 . S
H52 C30 0.950 . S
C53 C54 1.443 . S
C53 N57 1.376 1_545 S
C53 C91 1.389 . S
C54 C53 1.443 . S
C54 C55 1.340 1_545 S
C54 H94 0.951 . S
C55 C54 1.340 1_565 S
C55 C56 1.439 . S
C55 H95 0.950 . S
C56 C55 1.439 . S
C56 N57 1.374 . S
C56 C90 1.395 . S
N57 C53 1.376 1_565 S
N57 C56 1.374 . S
N57 Co58 1.997 1_565 S
Co58 N57 1.997 1_545 S
Co58 N59 1.972 1_545 S
Co58 N64 2.021 . S
Co58 N69 2.019 . S
Co58 N74 2.240 1_545 S
Co58 N80 2.326 . S
N59 Co58 1.972 1_565 S
N59 C60 1.376 . S
N59 C63 1.383 . S
C60 N59 1.376 . S
C60 C61 1.446 . S
C60 C90 1.391 . S
C61 C60 1.446 . S
C61 C62 1.339 . S
C61 H96 0.949 . S
C62 C61 1.339 . S
C62 C63 1.439 . S
C62 H97 0.950 . S
C63 N59 1.383 . S
C63 C62 1.439 . S
C63 C92 1.392 . S
N64 Co58 2.021 . S
N64 C65 1.376 1_545 S
N64 C68 1.374 . S
C65 N64 1.376 1_565 S
C65 C66 1.443 . S
C65 C92 1.389 . S
C66 C65 1.443 . S
C66 C67 1.340 1_565 S
C66 H98 0.951 . S
C67 C66 1.340 1_545 S
C67 C68 1.439 . S
C67 H99 0.950 . S
C68 N64 1.374 . S
C68 C67 1.439 . S
C68 C93 1.395 . S
N69 Co58 2.019 . S
N69 C70 1.376 . S
N69 C73 1.383 . S
C70 N69 1.376 . S
C70 C71 1.446 . S
C70 C93 1.391 . S
C71 C70 1.446 . S
C71 C72 1.339 . S
C71 H100 0.949 . S
C72 C71 1.339 . S
C72 C73 1.439 . S
C72 H101 0.950 . S
C73 N69 1.383 . S
C73 C72 1.439 . S
C73 C91 1.392 . S
N74 Co58 2.240 1_565 S
N74 C77 1.332 . S
N74 C79 1.332 . S
C75 C76 1.386 . S
C75 C78 1.388 . S
C76 C75 1.386 . S
C76 C77 1.382 . S
C76 H102 0.950 . S
C77 N74 1.332 . S
C77 C76 1.382 . S
C77 H88 0.952 1_565 S
C78 C75 1.388 . S
C78 C79 1.382 . S
C78 H103 0.950 . S
C79 N74 1.332 . S
C79 C78 1.382 . S
C79 H89 0.948 . S
N80 Co58 2.326 . S
N80 C84 1.332 . S
N80 C85 1.332 . S
C81 C82 1.388 . S
C81 C85 1.382 . S
C81 H104 0.950 . S
C82 C81 1.388 . S
C82 C83 1.386 . S
C83 C82 1.386 . S
C83 C84 1.382 . S
C83 H105 0.950 . S
C84 N80 1.332 . S
C84 C83 1.382 . S
C84 H86 0.952 1_545 S
C85 N80 1.332 . S
C85 C81 1.382 . S
C85 H87 0.948 . S
H86 C84 0.952 1_565 S
H87 C85 0.948 . S
H88 C77 0.952 1_545 S
H89 C79 0.948 . S
C90 C56 1.395 . S
C90 C60 1.391 . S
C91 C53 1.389 . S
C91 C73 1.392 . S
C92 C63 1.392 . S
C92 C65 1.389 . S
C93 C68 1.395 . S
C93 C70 1.391 . S
H94 C54 0.951 . S
H95 C55 0.950 . S
H96 C61 0.949 . S
H97 C62 0.950 . S
H98 C66 0.951 . S
H99 C67 0.950 . S
H100 C71 0.949 . S
H101 C72 0.950 . S
H102 C76 0.950 . S
H103 C78 0.950 . S
H104 C81 0.950 . S
H105 C83 0.950 . S
C106 C107 1.443 . S
C106 N110 1.376 . S
C106 C144 1.389 . S
C107 C106 1.443 . S
C107 C108 1.340 . S
C107 H147 0.951 . S
C108 C107 1.340 . S
C108 C109 1.439 . S
C108 H148 0.950 . S
C109 C108 1.439 . S
C109 N110 1.374 . S
C109 C143 1.395 . S
N110 C106 1.376 . S
N110 C109 1.374 . S
N110 Co111 1.992 1_556 S
Co111 N110 1.992 1_554 S
Co111 N112 1.991 1_554 S
Co111 N117 2.024 . S
Co111 N122 1.998 . S
Co111 N127 2.292 . S
Co111 N133 2.273 1_554 S
N112 Co111 1.991 1_556 S
N112 C113 1.376 . S
N112 C116 1.383 1_556 S
C113 N112 1.376 . S
C113 C114 1.446 . S
C113 C143 1.391 . S
C114 C113 1.446 . S
C114 C115 1.339 . S
C114 H149 0.949 . S
C115 C114 1.339 . S
C115 C116 1.439 1_556 S
C115 H150 0.950 1_556 S
C116 N112 1.383 1_554 S
C116 C115 1.439 1_554 S
C116 C145 1.392 . S
N117 Co111 2.024 . S
N117 C118 1.376 . S
N117 C121 1.374 . S
C118 N117 1.376 . S
C118 C119 1.443 . S
C118 C145 1.389 . S
C119 C118 1.443 . S
C119 C120 1.340 . S
C119 H151 0.951 . S
C120 C119 1.340 . S
C120 C121 1.439 . S
C120 H152 0.950 . S
C121 N117 1.374 . S
C121 C120 1.439 . S
C121 C146 1.395 . S
N122 Co111 1.998 . S
N122 C123 1.376 . S
N122 C126 1.383 1_554 S
C123 N122 1.376 . S
C123 C124 1.446 . S
C123 C146 1.391 . S
C124 C123 1.446 . S
C124 C125 1.339 . S
C124 H153 0.949 . S
C125 C124 1.339 . S
C125 C126 1.439 1_554 S
C125 H154 0.950 1_554 S
C126 N122 1.383 1_556 S
C126 C125 1.439 1_556 S
C126 C144 1.392 . S
N127 Co111 2.292 . S
N127 C130 1.332 . S
N127 C132 1.332 . S
C128 C129 1.386 . S
C128 C131 1.388 . S
C129 C128 1.386 . S
C129 C130 1.382 . S
C129 H155 0.950 . S
C130 N127 1.332 . S
C130 C129 1.382 . S
C130 H141 0.952 . S
C131 C128 1.388 . S
C131 C132 1.382 . S
C131 H156 0.950 . S
C132 N127 1.332 . S
C132 C131 1.382 . S
C132 H142 0.948 . S
N133 Co111 2.273 1_556 S
N133 C137 1.332 . S
N133 C138 1.332 . S
C134 C135 1.388 . S
C134 C138 1.382 . S
C134 H157 0.950 . S
C135 C134 1.388 . S
C135 C136 1.386 . S
C136 C135 1.386 . S
C136 C137 1.382 . S
C136 H158 0.950 . S
C137 N133 1.332 . S
C137 C136 1.382 . S
C137 H139 0.952 . S
C138 N133 1.332 . S
C138 C134 1.382 . S
C138 H140 0.948 . S
H139 C137 0.952 . S
H140 C138 0.948 . S
H141 C130 0.952 . S
H142 C132 0.948 . S
C143 C109 1.395 . S
C143 C113 1.391 . S
C144 C106 1.389 . S
C144 C126 1.392 . S
C145 C116 1.392 . S
C145 C118 1.389 . S
C146 C121 1.395 . S
C146 C123 1.391 . S
H147 C107 0.951 . S
H148 C108 0.950 . S
H149 C114 0.949 . S
H150 C115 0.950 1_554 S
H151 C119 0.951 . S
H152 C120 0.950 . S
H153 C124 0.949 . S
H154 C125 0.950 1_556 S
H155 C129 0.950 . S
H156 C131 0.950 . S
H157 C134 0.950 . S
H158 C136 0.950 . S
C159 C160 1.443 . S
C159 N163 1.376 . S
C159 C197 1.389 . S
C160 C159 1.443 . S
C160 C161 1.340 . S
C160 H200 0.951 . S
C161 C160 1.340 . S
C161 C162 1.439 . S
C161 H201 0.950 . S
C162 C161 1.439 . S
C162 N163 1.374 . S
C162 C196 1.395 . S
N163 C159 1.376 . S
N163 C162 1.374 . S
N163 Co164 1.985 1_655 S
Co164 N163 1.985 1_455 S
Co164 N165 1.980 1_455 S
Co164 N170 2.031 . S
Co164 N175 2.010 . S
Co164 N180 2.311 . S
Co164 N186 2.254 1_455 S
N165 Co164 1.980 1_655 S
N165 C166 1.376 . S
N165 C169 1.383 1_655 S
C166 N165 1.376 . S
C166 C167 1.446 . S
C166 C196 1.391 . S
C167 C166 1.446 . S
C167 C168 1.339 1_655 S
C167 H202 0.949 . S
C168 C167 1.339 1_455 S
C168 C169 1.439 . S
C168 H203 0.950 . S
C169 N165 1.383 1_455 S
C169 C168 1.439 . S
C169 C198 1.392 . S
N170 Co164 2.031 . S
N170 C171 1.376 . S
N170 C174 1.374 . S
C171 N170 1.376 . S
C171 C172 1.443 . S
C171 C198 1.389 . S
C172 C171 1.443 . S
C172 C173 1.340 . S
C172 H204 0.951 . S
C173 C172 1.340 . S
C173 C174 1.439 . S
C173 H205 0.950 . S
C174 N170 1.374 . S
C174 C173 1.439 . S
C174 C199 1.395 . S
N175 Co164 2.010 . S
N175 C176 1.376 . S
N175 C179 1.383 1_455 S
C176 N175 1.376 . S
C176 C177 1.446 . S
C176 C199 1.391 . S
C177 C176 1.446 . S
C177 C178 1.339 1_455 S
C177 H206 0.949 . S
C178 C177 1.339 1_655 S
C178 C179 1.439 . S
C178 H207 0.950 . S
C179 N175 1.383 1_655 S
C179 C178 1.439 . S
C179 C197 1.392 . S
N180 Co164 2.311 . S
N180 C183 1.332 . S
N180 C185 1.332 . S
C181 C182 1.386 . S
C181 C184 1.388 . S
C182 C181 1.386 . S
C182 C183 1.382 . S
C182 H208 0.950 . S
C183 N180 1.332 . S
C183 C182 1.382 . S
C183 H194 0.952 . S
C184 C181 1.388 . S
C184 C185 1.382 . S
C184 H209 0.950 . S
C185 N180 1.332 . S
C185 C184 1.382 . S
C185 H195 0.948 . S
N186 Co164 2.254 1_655 S
N186 C190 1.332 . S
N186 C191 1.332 . S
C187 C188 1.388 . S
C187 C191 1.382 . S
C187 H210 0.950 . S
C188 C187 1.388 . S
C188 C189 1.386 . S
C189 C188 1.386 . S
C189 C190 1.382 . S
C189 H211 0.950 . S
C190 N186 1.332 . S
C190 C189 1.382 . S
C190 H192 0.952 . S
C191 N186 1.332 . S
C191 C187 1.382 . S
C191 H193 0.948 . S
H192 C190 0.952 . S
H193 C191 0.948 . S
H194 C183 0.952 . S
H195 C185 0.948 . S
C196 C162 1.395 . S
C196 C166 1.391 . S
C197 C159 1.389 . S
C197 C179 1.392 . S
C198 C169 1.392 . S
C198 C171 1.389 . S
C199 C174 1.395 . S
C199 C176 1.391 . S
H200 C160 0.951 . S
H201 C161 0.950 . S
H202 C167 0.949 . S
H203 C168 0.950 . S
H204 C172 0.951 . S
H205 C173 0.950 . S
H206 C177 0.949 . S
H207 C178 0.950 . S
H208 C182 0.950 . S
H209 C184 0.950 . S
H210 C187 0.950 . S
H211 C189 0.950 . S
C212 C213 1.443 . S
C212 N216 1.376 1_565 S
C212 C250 1.389 . S
C213 C212 1.443 . S
C213 C214 1.340 1_565 S
C213 H253 0.951 . S
C214 C213 1.340 1_545 S
C214 C215 1.439 . S
C214 H254 0.950 . S
C215 C214 1.439 . S
C215 N216 1.374 . S
C215 C249 1.395 . S
N216 C212 1.376 1_545 S
N216 C215 1.374 . S
N216 Co217 2.041 . S
Co217 N216 2.041 . S
Co217 N218 2.022 . S
Co217 N223 1.976 1_544 S
Co217 N228 1.968 1_544 S
Co217 N233 2.316 1_554 S
Co217 N239 2.250 1_545 S
N218 Co217 2.022 . S
N218 C219 1.376 . S
N218 C222 1.383 1_554 S
C219 N218 1.376 . S
C219 C220 1.446 . S
C219 C249 1.391 . S
C220 C219 1.446 . S
C220 C221 1.339 1_554 S
C220 H255 0.949 . S
C221 C220 1.339 1_556 S
C221 C222 1.439 . S
C221 H256 0.950 . S
C222 N218 1.383 1_556 S
C222 C221 1.439 . S
C222 C251 1.392 . S
N223 Co217 1.976 1_566 S
N223 C224 1.376 1_565 S
N223 C227 1.374 . S
C224 N223 1.376 1_545 S
C224 C225 1.443 . S
C224 C251 1.389 . S
C225 C224 1.443 . S
C225 C226 1.340 1_545 S
C225 H257 0.951 . S
C226 C225 1.340 1_565 S
C226 C227 1.439 . S
C226 H258 0.950 . S
C227 N223 1.374 . S
C227 C226 1.439 . S
C227 C252 1.395 . S
N228 Co217 1.968 1_566 S
N228 C229 1.376 . S
N228 C232 1.383 1_556 S
C229 N228 1.376 . S
C229 C230 1.446 . S
C229 C252 1.391 . S
C230 C229 1.446 . S
C230 C231 1.339 1_556 S
C230 H259 0.949 . S
C231 C230 1.339 1_554 S
C231 C232 1.439 . S
C231 H260 0.950 . S
C232 N228 1.383 1_554 S
C232 C231 1.439 . S
C232 C250 1.392 . S
N233 Co217 2.316 1_556 S
N233 C236 1.332 . S
N233 C238 1.332 . S
C234 C235 1.386 . S
C234 C237 1.388 . S
C235 C234 1.386 . S
C235 C236 1.382 . S
C235 H261 0.950 . S
C236 N233 1.332 . S
C236 C235 1.382 . S
C236 H247 0.952 1_545 S
C237 C234 1.388 . S
C237 C238 1.382 . S
C237 H262 0.950 . S
C238 N233 1.332 . S
C238 C237 1.382 . S
C238 H248 0.948 . S
N239 Co217 2.250 1_565 S
N239 C243 1.332 . S
N239 C244 1.332 . S
C240 C241 1.388 . S
C240 C244 1.382 . S
C240 H263 0.950 . S
C241 C240 1.388 . S
C241 C242 1.386 . S
C242 C241 1.386 . S
C242 C243 1.382 . S
C242 H264 0.950 . S
C243 N239 1.332 . S
C243 C242 1.382 . S
C243 H245 0.952 1_565 S
C244 N239 1.332 . S
C244 C240 1.382 . S
C244 H246 0.948 . S
H245 C243 0.952 1_545 S
H246 C244 0.948 . S
H247 C236 0.952 1_565 S
H248 C238 0.948 . S
C249 C215 1.395 . S
C249 C219 1.391 . S
C250 C212 1.389 . S
C250 C232 1.392 . S
C251 C222 1.392 . S
C251 C224 1.389 . S
C252 C227 1.395 . S
C252 C229 1.391 . S
H253 C213 0.951 . S
H254 C214 0.950 . S
H255 C220 0.949 . S
H256 C221 0.950 . S
H257 C225 0.951 . S
H258 C226 0.950 . S
H259 C230 0.949 . S
H260 C231 0.950 . S
H261 C235 0.950 . S
H262 C237 0.950 . S
H263 C240 0.950 . S
H264 C242 0.950 . S
C265 C266 1.443 . S
C265 N269 1.376 . S
C265 C303 1.389 . S
C266 C265 1.443 . S
C266 C267 1.340 . S
C266 H306 0.951 . S
C267 C266 1.340 . S
C267 C268 1.439 . S
C267 H307 0.950 . S
C268 C267 1.439 . S
C268 N269 1.374 . S
C268 C302 1.395 . S
N269 C265 1.376 . S
N269 C268 1.374 . S
N269 Co270 2.008 . S
Co270 N269 2.008 . S
Co270 N271 1.995 . S
Co270 N276 2.008 . S
Co270 N281 1.995 . S
Co270 N286 2.282 . S
Co270 N292 2.282 . S
N271 Co270 1.995 . S
N271 C272 1.376 . S
N271 C275 1.383 . S
C272 N271 1.376 . S
C272 C273 1.446 . S
C272 C302 1.391 . S
C273 C272 1.446 . S
C273 C274 1.339 . S
C273 H308 0.949 . S
C274 C273 1.339 . S
C274 C275 1.439 . S
C274 H309 0.950 . S
C275 N271 1.383 . S
C275 C274 1.439 . S
C275 C304 1.392 . S
N276 Co270 2.008 . S
N276 C277 1.376 . S
N276 C280 1.374 . S
C277 N276 1.376 . S
C277 C278 1.443 . S
C277 C304 1.389 . S
C278 C277 1.443 . S
C278 C279 1.340 . S
C278 H310 0.951 . S
C279 C278 1.340 . S
C279 C280 1.439 . S
C279 H311 0.950 . S
C280 N276 1.374 . S
C280 C279 1.439 . S
C280 C305 1.395 . S
N281 Co270 1.995 . S
N281 C282 1.376 . S
N281 C285 1.383 . S
C282 N281 1.376 . S
C282 C283 1.446 . S
C282 C305 1.391 . S
C283 C282 1.446 . S
C283 C284 1.339 . S
C283 H312 0.949 . S
C284 C283 1.339 . S
C284 C285 1.439 . S
C284 H313 0.950 . S
C285 N281 1.383 . S
C285 C284 1.439 . S
C285 C303 1.392 . S
N286 Co270 2.282 . S
N286 C289 1.332 . S
N286 C291 1.332 . S
C287 C288 1.386 . S
C287 C290 1.388 . S
C288 C287 1.386 . S
C288 C289 1.382 . S
C288 H314 0.950 . S
C289 N286 1.332 . S
C289 C288 1.382 . S
C289 H300 0.952 . S
C290 C287 1.388 . S
C290 C291 1.382 . S
C290 H315 0.950 . S
C291 N286 1.332 . S
C291 C290 1.382 . S
C291 H301 0.948 . S
N292 Co270 2.282 . S
N292 C296 1.332 . S
N292 C297 1.332 . S
C293 C294 1.388 . S
C293 C297 1.382 . S
C293 H316 0.950 . S
C294 C293 1.388 . S
C294 C295 1.386 . S
C295 C294 1.386 . S
C295 C296 1.382 . S
C295 H317 0.950 . S
C296 N292 1.332 . S
C296 C295 1.382 . S
C296 H298 0.952 . S
C297 N292 1.332 . S
C297 C293 1.382 . S
C297 H299 0.948 . S
H298 C296 0.952 . S
H299 C297 0.948 . S
H300 C289 0.952 . S
H301 C291 0.948 . S
C302 C268 1.395 . S
C302 C272 1.391 . S
C303 C265 1.389 . S
C303 C285 1.392 . S
C304 C275 1.392 . S
C304 C277 1.389 . S
C305 C280 1.395 . S
C305 C282 1.391 . S
H306 C266 0.951 . S
H307 C267 0.950 . S
H308 C273 0.949 . S
H309 C274 0.950 . S
H310 C278 0.951 . S
H311 C279 0.950 . S
H312 C283 0.949 . S
H313 C284 0.950 . S
H314 C288 0.950 . S
H315 C290 0.950 . S
H316 C293 0.950 . S
H317 C295 0.950 . S
C318 C319 1.384 . S
C318 C320 1.384 . S
C318 H346 0.931 . S
C319 C318 1.384 . S
C319 C322 1.382 . S
C320 C318 1.384 . S
C320 C321 1.381 . S
C320 H347 0.930 . S
C321 C320 1.381 . S
C321 C323 1.381 . S
C321 C324 1.487 . S
C322 C319 1.382 . S
C322 C323 1.387 . S
C322 H348 0.930 . S
C323 C321 1.381 . S
C323 C322 1.387 . S
C323 H349 0.931 . S
C324 C321 1.487 . S
C324 C331 1.399 . S
C324 N362 1.343 . S
C325 C326 1.384 . S
C325 C327 1.384 . S
C325 H350 0.931 . S
C326 C325 1.384 . S
C326 C329 1.382 . S
C327 C325 1.384 . S
C327 C328 1.381 . S
C327 H351 0.930 . S
C328 C327 1.381 . S
C328 C330 1.381 . S
C328 C331 1.487 . S
C329 C326 1.382 . S
C329 C330 1.387 . S
C329 H352 0.930 . S
C330 C328 1.381 . S
C330 C329 1.387 . S
C330 H353 0.931 . S
C331 C324 1.399 . S
C331 C328 1.487 . S
C331 N363 1.343 . S
C332 C333 1.384 . S
C332 C334 1.384 . S
C332 H354 0.931 . S
C333 C332 1.384 . S
C333 C336 1.382 . S
C334 C332 1.384 . S
C334 C335 1.381 . S
C334 H355 0.930 . S
C335 C334 1.381 . S
C335 C337 1.381 . S
C335 C338 1.487 . S
C336 C333 1.382 . S
C336 C337 1.387 . S
C336 H356 0.930 . S
C337 C335 1.381 . S
C337 C336 1.387 . S
C337 H357 0.931 . S
C338 C335 1.487 . S
C338 C345 1.399 . S
C338 N363 1.343 . S
C339 C340 1.384 . S
C339 C341 1.384 . S
C339 H358 0.931 . S
C340 C339 1.384 . S
C340 C343 1.382 . S
C341 C339 1.384 . S
C341 C342 1.381 . S
C341 H359 0.930 . S
C342 C341 1.381 . S
C342 C344 1.381 . S
C342 C345 1.487 . S
C343 C340 1.382 . S
C343 C344 1.387 . S
C343 H360 0.930 . S
C344 C342 1.381 . S
C344 C343 1.387 . S
C344 H361 0.931 . S
C345 C338 1.399 . S
C345 C342 1.487 . S
C345 N362 1.343 . S
H346 C318 0.931 . S
H347 C320 0.930 . S
H348 C322 0.930 . S
H349 C323 0.931 . S
H350 C325 0.931 . S
H351 C327 0.930 . S
H352 C329 0.930 . S
H353 C330 0.931 . S
H354 C332 0.931 . S
H355 C334 0.930 . S
H356 C336 0.930 . S
H357 C337 0.931 . S
H358 C339 0.931 . S
H359 C341 0.930 . S
H360 C343 0.930 . S
H361 C344 0.931 . S
N362 C324 1.343 . S
N362 C345 1.343 . S
N363 C331 1.343 . S
N363 C338 1.343 . S
C364 C365 1.384 . S
C364 C366 1.384 . S
C364 H392 0.931 . S
C365 C364 1.384 . S
C365 C368 1.382 . S
C366 C364 1.384 . S
C366 C367 1.381 . S
C366 H393 0.930 . S
C367 C366 1.381 . S
C367 C369 1.381 . S
C367 C370 1.487 . S
C368 C365 1.382 . S
C368 C369 1.387 . S
C368 H394 0.930 . S
C369 C367 1.381 . S
C369 C368 1.387 . S
C369 H395 0.931 . S
C370 C367 1.487 . S
C370 C377 1.399 . S
C370 N408 1.343 . S
C371 C372 1.384 . S
C371 C373 1.384 . S
C371 H396 0.931 . S
C372 C371 1.384 . S
C372 C375 1.382 . S
C373 C371 1.384 . S
C373 C374 1.381 . S
C373 H397 0.930 . S
C374 C373 1.381 . S
C374 C376 1.381 . S
C374 C377 1.487 . S
C375 C372 1.382 . S
C375 C376 1.387 . S
C375 H398 0.930 . S
C376 C374 1.381 . S
C376 C375 1.387 . S
C376 H399 0.931 . S
C377 C370 1.399 . S
C377 C374 1.487 . S
C377 N409 1.343 . S
C378 C379 1.384 . S
C378 C380 1.384 . S
C378 H400 0.931 . S
C379 C378 1.384 . S
C379 C382 1.382 . S
C380 C378 1.384 . S
C380 C381 1.381 . S
C380 H401 0.930 . S
C381 C380 1.381 . S
C381 C383 1.381 . S
C381 C384 1.487 . S
C382 C379 1.382 . S
C382 C383 1.387 . S
C382 H402 0.930 . S
C383 C381 1.381 . S
C383 C382 1.387 . S
C383 H403 0.931 . S
C384 C381 1.487 . S
C384 C391 1.399 . S
C384 N409 1.343 . S
C385 C386 1.384 . S
C385 C387 1.384 . S
C385 H404 0.931 . S
C386 C385 1.384 . S
C386 C389 1.382 . S
C387 C385 1.384 . S
C387 C388 1.381 . S
C387 H405 0.930 . S
C388 C387 1.381 . S
C388 C390 1.381 . S
C388 C391 1.487 . S
C389 C386 1.382 . S
C389 C390 1.387 . S
C389 H406 0.930 . S
C390 C388 1.381 . S
C390 C389 1.387 . S
C390 H407 0.931 . S
C391 C384 1.399 . S
C391 C388 1.487 . S
C391 N408 1.343 . S
H392 C364 0.931 . S
H393 C366 0.930 . S
H394 C368 0.930 . S
H395 C369 0.931 . S
H396 C371 0.931 . S
H397 C373 0.930 . S
H398 C375 0.930 . S
H399 C376 0.931 . S
H400 C378 0.931 . S
H401 C380 0.930 . S
H402 C382 0.930 . S
H403 C383 0.931 . S
H404 C385 0.931 . S
H405 C387 0.930 . S
H406 C389 0.930 . S
H407 C390 0.931 . S
N408 C370 1.343 . S
N408 C391 1.343 . S
N409 C377 1.343 . S
N409 C384 1.343 . S
C410 C411 1.384 . S
C410 C412 1.384 . S
C410 H438 0.931 . S
C411 C410 1.384 . S
C411 C414 1.382 . S
C412 C410 1.384 . S
C412 C413 1.381 . S
C412 H439 0.930 . S
C413 C412 1.381 . S
C413 C415 1.381 . S
C413 C416 1.487 . S
C414 C411 1.382 . S
C414 C415 1.387 . S
C414 H440 0.930 . S
C415 C413 1.381 . S
C415 C414 1.387 . S
C415 H441 0.931 . S
C416 C413 1.487 . S
C416 C423 1.399 . S
C416 N454 1.343 . S
C417 C418 1.384 . S
C417 C419 1.384 . S
C417 H442 0.931 . S
C418 C417 1.384 . S
C418 C421 1.382 . S
C419 C417 1.384 . S
C419 C420 1.381 . S
C419 H443 0.930 . S
C420 C419 1.381 . S
C420 C422 1.381 . S
C420 C423 1.487 . S
C421 C418 1.382 . S
C421 C422 1.387 . S
C421 H444 0.930 . S
C422 C420 1.381 . S
C422 C421 1.387 . S
C422 H445 0.931 . S
C423 C416 1.399 . S
C423 C420 1.487 . S
C423 N455 1.343 . S
C424 C425 1.384 . S
C424 C426 1.384 . S
C424 H446 0.931 . S
C425 C424 1.384 . S
C425 C428 1.382 . S
C426 C424 1.384 . S
C426 C427 1.381 . S
C426 H447 0.930 . S
C427 C426 1.381 . S
C427 C429 1.381 . S
C427 C430 1.487 . S
C428 C425 1.382 . S
C428 C429 1.387 . S
C428 H448 0.930 . S
C429 C427 1.381 . S
C429 C428 1.387 . S
C429 H449 0.931 . S
C430 C427 1.487 . S
C430 C437 1.399 . S
C430 N455 1.343 . S
C431 C432 1.384 . S
C431 C433 1.384 . S
C431 H450 0.931 . S
C432 C431 1.384 . S
C432 C435 1.382 . S
C433 C431 1.384 . S
C433 C434 1.381 . S
C433 H451 0.930 . S
C434 C433 1.381 . S
C434 C436 1.381 . S
C434 C437 1.487 . S
C435 C432 1.382 . S
C435 C436 1.387 . S
C435 H452 0.930 . S
C436 C434 1.381 . S
C436 C435 1.387 . S
C436 H453 0.931 . S
C437 C430 1.399 . S
C437 C434 1.487 . S
C437 N454 1.343 . S
H438 C410 0.931 . S
H439 C412 0.930 . S
H440 C414 0.930 . S
H441 C415 0.931 . S
H442 C417 0.931 . S
H443 C419 0.930 . S
H444 C421 0.930 . S
H445 C422 0.931 . S
H446 C424 0.931 . S
H447 C426 0.930 . S
H448 C428 0.930 . S
H449 C429 0.931 . S
H450 C431 0.931 . S
H451 C433 0.930 . S
H452 C435 0.930 . S
H453 C436 0.931 . S
N454 C416 1.343 . S
N454 C437 1.343 . S
N455 C423 1.343 . S
N455 C430 1.343 . S
C456 C457 1.384 . S
C456 C458 1.384 . S
C456 H484 0.931 . S
C457 C456 1.384 . S
C457 C460 1.382 . S
C458 C456 1.384 . S
C458 C459 1.381 . S
C458 H485 0.930 . S
C459 C458 1.381 . S
C459 C461 1.381 . S
C459 C462 1.487 . S
C460 C457 1.382 . S
C460 C461 1.387 . S
C460 H486 0.930 . S
C461 C459 1.381 . S
C461 C460 1.387 . S
C461 H487 0.931 . S
C462 C459 1.487 . S
C462 C469 1.399 . S
C462 N500 1.343 . S
C463 C464 1.384 . S
C463 C465 1.384 . S
C463 H488 0.931 . S
C464 C463 1.384 . S
C464 C467 1.382 . S
C465 C463 1.384 . S
C465 C466 1.381 . S
C465 H489 0.930 . S
C466 C465 1.381 . S
C466 C468 1.381 . S
C466 C469 1.487 . S
C467 C464 1.382 . S
C467 C468 1.387 . S
C467 H490 0.930 . S
C468 C466 1.381 . S
C468 C467 1.387 . S
C468 H491 0.931 . S
C469 C462 1.399 . S
C469 C466 1.487 . S
C469 N501 1.343 . S
C470 C471 1.384 . S
C470 C472 1.384 . S
C470 H492 0.931 . S
C471 C470 1.384 . S
C471 C474 1.382 . S
C472 C470 1.384 . S
C472 C473 1.381 . S
C472 H493 0.930 . S
C473 C472 1.381 . S
C473 C475 1.381 . S
C473 C476 1.487 . S
C474 C471 1.382 . S
C474 C475 1.387 . S
C474 H494 0.930 . S
C475 C473 1.381 . S
C475 C474 1.387 . S
C475 H495 0.931 . S
C476 C473 1.487 . S
C476 C483 1.399 . S
C476 N501 1.343 . S
C477 C478 1.384 . S
C477 C479 1.384 . S
C477 H496 0.931 . S
C478 C477 1.384 . S
C478 C481 1.382 . S
C479 C477 1.384 . S
C479 C480 1.381 . S
C479 H497 0.930 . S
C480 C479 1.381 . S
C480 C482 1.381 . S
C480 C483 1.487 . S
C481 C478 1.382 . S
C481 C482 1.387 . S
C481 H498 0.930 . S
C482 C480 1.381 . S
C482 C481 1.387 . S
C482 H499 0.931 . S
C483 C476 1.399 . S
C483 C480 1.487 . S
C483 N500 1.343 . S
H484 C456 0.931 . S
H485 C458 0.930 . S
H486 C460 0.930 . S
H487 C461 0.931 . S
H488 C463 0.931 . S
H489 C465 0.930 . S
H490 C467 0.930 . S
H491 C468 0.931 . S
H492 C470 0.931 . S
H493 C472 0.930 . S
H494 C474 0.930 . S
H495 C475 0.931 . S
H496 C477 0.931 . S
H497 C479 0.930 . S
H498 C481 0.930 . S
H499 C482 0.931 . S
N500 C462 1.343 . S
N500 C483 1.343 . S
N501 C469 1.343 . S
N501 C476 1.343 . S
C502 C503 1.384 . S
C502 C504 1.384 . S
C502 H530 0.931 . S
C503 C502 1.384 . S
C503 C506 1.382 . S
C504 C502 1.384 . S
C504 C505 1.381 . S
C504 H531 0.930 . S
C505 C504 1.381 . S
C505 C507 1.381 . S
C505 C508 1.487 . S
C506 C503 1.382 . S
C506 C507 1.387 . S
C506 H532 0.930 . S
C507 C505 1.381 . S
C507 C506 1.387 . S
C507 H533 0.931 . S
C508 C505 1.487 . S
C508 C515 1.399 . S
C508 N546 1.343 . S
C509 C510 1.384 . S
C509 C511 1.384 . S
C509 H534 0.931 . S
C510 C509 1.384 . S
C510 C513 1.382 . S
C511 C509 1.384 . S
C511 C512 1.381 . S
C511 H535 0.930 . S
C512 C511 1.381 . S
C512 C514 1.381 . S
C512 C515 1.487 . S
C513 C510 1.382 . S
C513 C514 1.387 . S
C513 H536 0.930 . S
C514 C512 1.381 . S
C514 C513 1.387 . S
C514 H537 0.931 . S
C515 C508 1.399 . S
C515 C512 1.487 . S
C515 N547 1.343 . S
C516 C517 1.384 . S
C516 C518 1.384 . S
C516 H538 0.931 . S
C517 C516 1.384 . S
C517 C520 1.382 . S
C518 C516 1.384 . S
C518 C519 1.381 . S
C518 H539 0.930 . S
C519 C518 1.381 . S
C519 C521 1.381 . S
C519 C522 1.487 . S
C520 C517 1.382 . S
C520 C521 1.387 . S
C520 H540 0.930 . S
C521 C519 1.381 . S
C521 C520 1.387 . S
C521 H541 0.931 . S
C522 C519 1.487 . S
C522 C529 1.399 . S
C522 N547 1.343 . S
C523 C524 1.384 . S
C523 C525 1.384 . S
C523 H542 0.931 . S
C524 C523 1.384 . S
C524 C527 1.382 . S
C525 C523 1.384 . S
C525 C526 1.381 . S
C525 H543 0.930 . S
C526 C525 1.381 . S
C526 C528 1.381 . S
C526 C529 1.487 . S
C527 C524 1.382 . S
C527 C528 1.387 . S
C527 H544 0.930 . S
C528 C526 1.381 . S
C528 C527 1.387 . S
C528 H545 0.931 . S
C529 C522 1.399 . S
C529 C526 1.487 . S
C529 N546 1.343 . S
H530 C502 0.931 . S
H531 C504 0.930 . S
H532 C506 0.930 . S
H533 C507 0.931 . S
H534 C509 0.931 . S
H535 C511 0.930 . S
H536 C513 0.930 . S
H537 C514 0.931 . S
H538 C516 0.931 . S
H539 C518 0.930 . S
H540 C520 0.930 . S
H541 C521 0.931 . S
H542 C523 0.931 . S
H543 C525 0.930 . S
H544 C527 0.930 . S
H545 C528 0.931 . S
N546 C508 1.343 . S
N546 C529 1.343 . S
N547 C515 1.343 . S
N547 C522 1.343 . S
C548 C549 1.384 . S
C548 C550 1.384 . S
C548 H576 0.931 . S
C549 C548 1.384 . S
C549 C552 1.382 . S
C550 C548 1.384 . S
C550 C551 1.381 . S
C550 H577 0.930 . S
C551 C550 1.381 . S
C551 C553 1.381 . S
C551 C554 1.487 . S
C552 C549 1.382 . S
C552 C553 1.387 . S
C552 H578 0.930 . S
C553 C551 1.381 . S
C553 C552 1.387 . S
C553 H579 0.931 . S
C554 C551 1.487 . S
C554 C561 1.399 . S
C554 N592 1.343 . S
C555 C556 1.384 . S
C555 C557 1.384 . S
C555 H580 0.931 . S
C556 C555 1.384 . S
C556 C559 1.382 . S
C557 C555 1.384 . S
C557 C558 1.381 . S
C557 H581 0.930 . S
C558 C557 1.381 . S
C558 C560 1.381 . S
C558 C561 1.487 . S
C559 C556 1.382 . S
C559 C560 1.387 . S
C559 H582 0.930 . S
C560 C558 1.381 . S
C560 C559 1.387 . S
C560 H583 0.931 . S
C561 C554 1.399 . S
C561 C558 1.487 . S
C561 N593 1.343 . S
C562 C563 1.384 . S
C562 C564 1.384 . S
C562 H584 0.931 . S
C563 C562 1.384 . S
C563 C566 1.382 . S
C564 C562 1.384 . S
C564 C565 1.381 . S
C564 H585 0.930 . S
C565 C564 1.381 . S
C565 C567 1.381 . S
C565 C568 1.487 . S
C566 C563 1.382 . S
C566 C567 1.387 . S
C566 H586 0.930 . S
C567 C565 1.381 . S
C567 C566 1.387 . S
C567 H587 0.931 . S
C568 C565 1.487 . S
C568 C575 1.399 . S
C568 N593 1.343 . S
C569 C570 1.384 . S
C569 C571 1.384 . S
C569 H588 0.931 . S
C570 C569 1.384 . S
C570 C573 1.382 . S
C571 C569 1.384 . S
C571 C572 1.381 . S
C571 H589 0.930 . S
C572 C571 1.381 . S
C572 C574 1.381 . S
C572 C575 1.487 . S
C573 C570 1.382 . S
C573 C574 1.387 . S
C573 H590 0.930 . S
C574 C572 1.381 . S
C574 C573 1.387 . S
C574 H591 0.931 . S
C575 C568 1.399 . S
C575 C572 1.487 . S
C575 N592 1.343 . S
H576 C548 0.931 . S
H577 C550 0.930 . S
H578 C552 0.930 . S
H579 C553 0.931 . S
H580 C555 0.931 . S
H581 C557 0.930 . S
H582 C559 0.930 . S
H583 C560 0.931 . S
H584 C562 0.931 . S
H585 C564 0.930 . S
H586 C566 0.930 . S
H587 C567 0.931 . S
H588 C569 0.931 . S
H589 C571 0.930 . S
H590 C573 0.930 . S
H591 C574 0.931 . S
N592 C554 1.343 . S
N592 C575 1.343 . S
N593 C561 1.343 . S
N593 C568 1.343 . S
H594 C606 0.930 . S
H595 C608 0.930 . S
H596 C609 0.930 . S
H597 C613 0.959 . S
H598 C613 0.959 . S
H599 C613 0.961 . S
H600 C614 0.960 . S
H601 C614 0.961 . S
H602 C614 0.959 . S
H603 C617 0.929 . S
H604 C618 0.931 . S
H605 C620 0.930 . S
C606 H594 0.930 . S
C606 C607 1.399 . S
C606 C611 1.399 . S
C607 C606 1.399 . S
C607 C608 1.376 . S
C608 H595 0.930 . S
C608 C607 1.376 . S
C608 C609 1.388 . S
C609 H596 0.930 . S
C609 C608 1.388 . S
C609 C610 1.390 . S
C610 C609 1.390 . S
C610 C611 1.394 . S
C610 C616 1.465 . S
C611 C606 1.399 . S
C611 C610 1.394 . S
C611 C612 1.516 . S
C612 C611 1.516 . S
C612 C613 1.502 . S
C612 C614 1.561 . S
C612 C615 1.526 . S
C613 H597 0.959 . S
C613 H598 0.959 . S
C613 H599 0.961 . S
C613 C612 1.502 . S
C614 H600 0.960 . S
C614 H601 0.961 . S
C614 H602 0.959 . S
C614 C612 1.561 . S
C615 C612 1.526 . S
C615 C616 1.396 . S
C615 C620 1.390 . S
C616 C610 1.465 . S
C616 C615 1.396 . S
C616 C617 1.399 . S
C617 H603 0.929 . S
C617 C616 1.399 . S
C617 C618 1.385 . S
C618 H604 0.931 . S
C618 C617 1.385 . S
C618 C619 1.389 . S
C619 C618 1.389 . S
C619 C620 1.387 . S
C620 H605 0.930 . S
C620 C615 1.390 . S
C620 C619 1.387 . S
H621 C633 0.930 . S
H622 C635 0.930 . S
H623 C636 0.930 . S
H624 C640 0.959 . S
H625 C640 0.959 . S
H626 C640 0.961 . S
H627 C641 0.960 . S
H628 C641 0.961 . S
H629 C641 0.959 . S
H630 C644 0.929 . S
H631 C645 0.931 . S
H632 C647 0.930 . S
C633 H621 0.930 . S
C633 C634 1.399 . S
C633 C638 1.399 . S
C634 C633 1.399 . S
C634 C635 1.376 . S
C635 H622 0.930 . S
C635 C634 1.376 . S
C635 C636 1.388 . S
C636 H623 0.930 . S
C636 C635 1.388 . S
C636 C637 1.390 . S
C637 C636 1.390 . S
C637 C638 1.394 . S
C637 C643 1.465 . S
C638 C633 1.399 . S
C638 C637 1.394 . S
C638 C639 1.516 . S
C639 C638 1.516 . S
C639 C640 1.502 . S
C639 C641 1.561 . S
C639 C642 1.526 . S
C640 H624 0.959 . S
C640 H625 0.959 . S
C640 H626 0.961 . S
C640 C639 1.502 . S
C641 H627 0.960 . S
C641 H628 0.961 . S
C641 H629 0.959 . S
C641 C639 1.561 . S
C642 C639 1.526 . S
C642 C643 1.396 . S
C642 C647 1.390 . S
C643 C637 1.465 . S
C643 C642 1.396 . S
C643 C644 1.399 . S
C644 H630 0.929 . S
C644 C643 1.399 . S
C644 C645 1.385 . S
C645 H631 0.931 . S
C645 C644 1.385 . S
C645 C646 1.389 . S
C646 C645 1.389 . S
C646 C647 1.387 . S
C647 H632 0.930 . S
C647 C642 1.390 . S
C647 C646 1.387 . S
H648 C660 0.930 . S
H649 C662 0.930 . S
H650 C663 0.930 . S
H651 C667 0.959 . S
H652 C667 0.959 . S
H653 C667 0.961 . S
H654 C668 0.960 . S
H655 C668 0.961 . S
H656 C668 0.959 . S
H657 C671 0.929 . S
H658 C672 0.931 . S
H659 C674 0.930 . S
C660 H648 0.930 . S
C660 C661 1.399 . S
C660 C665 1.399 . S
C661 C660 1.399 . S
C661 C662 1.376 . S
C662 H649 0.930 . S
C662 C661 1.376 . S
C662 C663 1.388 . S
C663 H650 0.930 . S
C663 C662 1.388 . S
C663 C664 1.390 . S
C664 C663 1.390 . S
C664 C665 1.394 . S
C664 C670 1.465 . S
C665 C660 1.399 . S
C665 C664 1.394 . S
C665 C666 1.516 . S
C666 C665 1.516 . S
C666 C667 1.502 . S
C666 C668 1.561 . S
C666 C669 1.526 . S
C667 H651 0.959 . S
C667 H652 0.959 . S
C667 H653 0.961 . S
C667 C666 1.502 . S
C668 H654 0.960 . S
C668 H655 0.961 . S
C668 H656 0.959 . S
C668 C666 1.561 . S
C669 C666 1.526 . S
C669 C670 1.396 . S
C669 C674 1.390 . S
C670 C664 1.465 . S
C670 C669 1.396 . S
C670 C671 1.399 . S
C671 H657 0.929 . S
C671 C670 1.399 . S
C671 C672 1.385 . S
C672 H658 0.931 . S
C672 C671 1.385 . S
C672 C673 1.389 . S
C673 C672 1.389 . S
C673 C674 1.387 . S
C674 H659 0.930 . S
C674 C669 1.390 . S
C674 C673 1.387 . S
H675 C687 0.930 . S
H676 C689 0.930 . S
H677 C690 0.930 . S
H678 C694 0.959 . S
H679 C694 0.959 . S
H680 C694 0.961 . S
H681 C695 0.960 . S
H682 C695 0.961 . S
H683 C695 0.959 . S
H684 C698 0.929 . S
H685 C699 0.931 . S
H686 C701 0.930 . S
C687 H675 0.930 . S
C687 C688 1.399 . S
C687 C692 1.399 . S
C688 C687 1.399 . S
C688 C689 1.376 . S
C689 H676 0.930 . S
C689 C688 1.376 . S
C689 C690 1.388 . S
C690 H677 0.930 . S
C690 C689 1.388 . S
C690 C691 1.390 . S
C691 C690 1.390 . S
C691 C692 1.394 . S
C691 C697 1.465 . S
C692 C687 1.399 . S
C692 C691 1.394 . S
C692 C693 1.516 . S
C693 C692 1.516 . S
C693 C694 1.502 . S
C693 C695 1.561 . S
C693 C696 1.526 . S
C694 H678 0.959 . S
C694 H679 0.959 . S
C694 H680 0.961 . S
C694 C693 1.502 . S
C695 H681 0.960 . S
C695 H682 0.961 . S
C695 H683 0.959 . S
C695 C693 1.561 . S
C696 C693 1.526 . S
C696 C697 1.396 . S
C696 C701 1.390 . S
C697 C691 1.465 . S
C697 C696 1.396 . S
C697 C698 1.399 . S
C698 H684 0.929 . S
C698 C697 1.399 . S
C698 C699 1.385 . S
C699 H685 0.931 . S
C699 C698 1.385 . S
C699 C700 1.389 . S
C700 C699 1.389 . S
C700 C701 1.387 . S
C701 H686 0.930 . S
C701 C696 1.390 . S
C701 C700 1.387 . S
H702 C714 0.930 . S
H703 C716 0.930 . S
H704 C717 0.930 . S
H705 C721 0.959 . S
H706 C721 0.959 . S
H707 C721 0.961 . S
H708 C722 0.960 . S
H709 C722 0.961 . S
H710 C722 0.959 . S
H711 C725 0.929 . S
H712 C726 0.931 . S
H713 C728 0.930 . S
C714 H702 0.930 . S
C714 C715 1.399 . S
C714 C719 1.399 . S
C715 C714 1.399 . S
C715 C716 1.376 . S
C716 H703 0.930 . S
C716 C715 1.376 . S
C716 C717 1.388 . S
C717 H704 0.930 . S
C717 C716 1.388 . S
C717 C718 1.390 . S
C718 C717 1.390 . S
C718 C719 1.394 . S
C718 C724 1.465 . S
C719 C714 1.399 . S
C719 C718 1.394 . S
C719 C720 1.516 . S
C720 C719 1.516 . S
C720 C721 1.502 . S
C720 C722 1.561 . S
C720 C723 1.526 . S
C721 H705 0.959 . S
C721 H706 0.959 . S
C721 H707 0.961 . S
C721 C720 1.502 . S
C722 H708 0.960 . S
C722 H709 0.961 . S
C722 H710 0.959 . S
C722 C720 1.561 . S
C723 C720 1.526 . S
C723 C724 1.396 . S
C723 C728 1.390 . S
C724 C718 1.465 . S
C724 C723 1.396 . S
C724 C725 1.399 . S
C725 H711 0.929 . S
C725 C724 1.399 . S
C725 C726 1.385 . S
C726 H712 0.931 . S
C726 C725 1.385 . S
C726 C727 1.389 . S
C727 C726 1.389 . S
C727 C728 1.387 . S
C728 H713 0.930 . S
C728 C723 1.390 . S
C728 C727 1.387 . S
H729 C741 0.930 . S
H730 C743 0.930 . S
H731 C744 0.930 . S
H732 C748 0.959 . S
H733 C748 0.959 . S
H734 C748 0.961 . S
H735 C749 0.960 . S
H736 C749 0.961 . S
H737 C749 0.959 . S
H738 C752 0.929 . S
H739 C753 0.931 . S
H740 C755 0.930 . S
C741 H729 0.930 . S
C741 C742 1.399 . S
C741 C746 1.399 . S
C742 C741 1.399 . S
C742 C743 1.376 . S
C743 H730 0.930 . S
C743 C742 1.376 . S
C743 C744 1.388 . S
C744 H731 0.930 . S
C744 C743 1.388 . S
C744 C745 1.390 . S
C745 C744 1.390 . S
C745 C746 1.394 . S
C745 C751 1.465 . S
C746 C741 1.399 . S
C746 C745 1.394 . S
C746 C747 1.516 . S
C747 C746 1.516 . S
C747 C748 1.502 . S
C747 C749 1.561 . S
C747 C750 1.526 . S
C748 H732 0.959 . S
C748 H733 0.959 . S
C748 H734 0.961 . S
C748 C747 1.502 . S
C749 H735 0.960 . S
C749 H736 0.961 . S
C749 H737 0.959 . S
C749 C747 1.561 . S
C750 C747 1.526 . S
C750 C751 1.396 . S
C750 C755 1.390 . S
C751 C745 1.465 . S
C751 C750 1.396 . S
C751 C752 1.399 . S
C752 H738 0.929 . S
C752 C751 1.399 . S
C752 C753 1.385 . S
C753 H739 0.931 . S
C753 C752 1.385 . S
C753 C754 1.389 . S
C754 C753 1.389 . S
C754 C755 1.387 . S
C755 H740 0.930 . S
C755 C750 1.390 . S
C755 C754 1.387 . S
H756 C768 0.930 . S
H757 C770 0.930 . S
H758 C771 0.930 . S
H759 C775 0.959 . S
H760 C775 0.959 . S
H761 C775 0.961 . S
H762 C776 0.960 . S
H763 C776 0.961 . S
H764 C776 0.959 . S
H765 C779 0.929 . S
H766 C780 0.931 . S
H767 C782 0.930 . S
C768 H756 0.930 . S
C768 C769 1.399 . S
C768 C773 1.399 . S
C769 C768 1.399 . S
C769 C770 1.376 . S
C770 H757 0.930 . S
C770 C769 1.376 . S
C770 C771 1.388 . S
C771 H758 0.930 . S
C771 C770 1.388 . S
C771 C772 1.390 . S
C772 C771 1.390 . S
C772 C773 1.394 . S
C772 C778 1.465 . S
C773 C768 1.399 . S
C773 C772 1.394 . S
C773 C774 1.516 . S
C774 C773 1.516 . S
C774 C775 1.502 . S
C774 C776 1.561 . S
C774 C777 1.526 . S
C775 H759 0.959 . S
C775 H760 0.959 . S
C775 H761 0.961 . S
C775 C774 1.502 . S
C776 H762 0.960 . S
C776 H763 0.961 . S
C776 H764 0.959 . S
C776 C774 1.561 . S
C777 C774 1.526 . S
C777 C778 1.396 . S
C777 C782 1.390 . S
C778 C772 1.465 . S
C778 C777 1.396 . S
C778 C779 1.399 . S
C779 H765 0.929 . S
C779 C778 1.399 . S
C779 C780 1.385 . S
C780 H766 0.931 . S
C780 C779 1.385 . S
C780 C781 1.389 . S
C781 C780 1.389 . S
C781 C782 1.387 . S
C782 H767 0.930 . S
C782 C777 1.390 . S
C782 C781 1.387 . S
H783 C795 0.930 . S
H784 C797 0.930 . S
H785 C798 0.930 . S
H786 C802 0.959 . S
H787 C802 0.959 . S
H788 C802 0.961 . S
H789 C803 0.960 . S
H790 C803 0.961 . S
H791 C803 0.959 . S
H792 C806 0.929 . S
H793 C807 0.931 . S
H794 C809 0.930 . S
C795 H783 0.930 . S
C795 C796 1.399 . S
C795 C800 1.399 . S
C796 C795 1.399 . S
C796 C797 1.376 . S
C797 H784 0.930 . S
C797 C796 1.376 . S
C797 C798 1.388 . S
C798 H785 0.930 . S
C798 C797 1.388 . S
C798 C799 1.390 . S
C799 C798 1.390 . S
C799 C800 1.394 . S
C799 C805 1.465 . S
C800 C795 1.399 . S
C800 C799 1.394 . S
C800 C801 1.516 . S
C801 C800 1.516 . S
C801 C802 1.502 . S
C801 C803 1.561 . S
C801 C804 1.526 . S
C802 H786 0.959 . S
C802 H787 0.959 . S
C802 H788 0.961 . S
C802 C801 1.502 . S
C803 H789 0.960 . S
C803 H790 0.961 . S
C803 H791 0.959 . S
C803 C801 1.561 . S
C804 C801 1.526 . S
C804 C805 1.396 . S
C804 C809 1.390 . S
C805 C799 1.465 . S
C805 C804 1.396 . S
C805 C806 1.399 . S
C806 H792 0.929 . S
C806 C805 1.399 . S
C806 C807 1.385 . S
C807 H793 0.931 . S
C807 C806 1.385 . S
C807 C808 1.389 . S
C808 C807 1.389 . S
C808 C809 1.387 . S
C809 H794 0.930 . S
C809 C804 1.390 . S
C809 C808 1.387 . S
H810 C822 0.930 . S
H811 C824 0.930 . S
H812 C825 0.930 . S
H813 C829 0.959 . S
H814 C829 0.959 . S
H815 C829 0.961 . S
H816 C830 0.960 . S
H817 C830 0.961 . S
H818 C830 0.959 . S
H819 C833 0.929 . S
H820 C834 0.931 . S
H821 C836 0.930 . S
C822 H810 0.930 . S
C822 C823 1.399 . S
C822 C827 1.399 . S
C823 C822 1.399 . S
C823 C824 1.376 . S
C824 H811 0.930 . S
C824 C823 1.376 . S
C824 C825 1.388 . S
C825 H812 0.930 . S
C825 C824 1.388 . S
C825 C826 1.390 . S
C826 C825 1.390 . S
C826 C827 1.394 . S
C826 C832 1.465 . S
C827 C822 1.399 . S
C827 C826 1.394 . S
C827 C828 1.516 . S
C828 C827 1.516 . S
C828 C829 1.502 . S
C828 C830 1.561 . S
C828 C831 1.526 . S
C829 H813 0.959 . S
C829 H814 0.959 . S
C829 H815 0.961 . S
C829 C828 1.502 . S
C830 H816 0.960 . S
C830 H817 0.961 . S
C830 H818 0.959 . S
C830 C828 1.561 . S
C831 C828 1.526 . S
C831 C832 1.396 . S
C831 C836 1.390 . S
C832 C826 1.465 . S
C832 C831 1.396 . S
C832 C833 1.399 . S
C833 H819 0.929 . S
C833 C832 1.399 . S
C833 C834 1.385 . S
C834 H820 0.931 . S
C834 C833 1.385 . S
C834 C835 1.389 . S
C835 C834 1.389 . S
C835 C836 1.387 . S
C836 H821 0.930 . S
C836 C831 1.390 . S
C836 C835 1.387 . S
H837 C849 0.930 . S
H838 C851 0.930 . S
H839 C852 0.930 . S
H840 C856 0.959 . S
H841 C856 0.959 . S
H842 C856 0.961 . S
H843 C857 0.960 . S
H844 C857 0.961 . S
H845 C857 0.959 . S
H846 C860 0.929 . S
H847 C861 0.931 . S
H848 C863 0.930 . S
C849 H837 0.930 . S
C849 C850 1.399 . S
C849 C854 1.399 . S
C850 C849 1.399 . S
C850 C851 1.376 . S
C851 H838 0.930 . S
C851 C850 1.376 . S
C851 C852 1.388 . S
C852 H839 0.930 . S
C852 C851 1.388 . S
C852 C853 1.390 . S
C853 C852 1.390 . S
C853 C854 1.394 . S
C853 C859 1.465 . S
C854 C849 1.399 . S
C854 C853 1.394 . S
C854 C855 1.516 . S
C855 C854 1.516 . S
C855 C856 1.502 . S
C855 C857 1.561 . S
C855 C858 1.526 . S
C856 H840 0.959 . S
C856 H841 0.959 . S
C856 H842 0.961 . S
C856 C855 1.502 . S
C857 H843 0.960 . S
C857 H844 0.961 . S
C857 H845 0.959 . S
C857 C855 1.561 . S
C858 C855 1.526 . S
C858 C859 1.396 . S
C858 C863 1.390 . S
C859 C853 1.465 . S
C859 C858 1.396 . S
C859 C860 1.399 . S
C860 H846 0.929 . S
C860 C859 1.399 . S
C860 C861 1.385 . S
C861 H847 0.931 . S
C861 C860 1.385 . S
C861 C862 1.389 . S
C862 C861 1.389 . S
C862 C863 1.387 . S
C863 H848 0.930 . S
C863 C858 1.390 . S
C863 C862 1.387 . S
H864 C876 0.930 . S
H865 C878 0.930 . S
H866 C879 0.930 . S
H867 C883 0.959 . S
H868 C883 0.959 . S
H869 C883 0.961 . S
H870 C884 0.960 . S
H871 C884 0.961 . S
H872 C884 0.959 . S
H873 C887 0.929 . S
H874 C888 0.931 . S
H875 C890 0.930 . S
C876 H864 0.930 . S
C876 C877 1.399 . S
C876 C881 1.399 . S
C877 C876 1.399 . S
C877 C878 1.376 . S
C878 H865 0.930 . S
C878 C877 1.376 . S
C878 C879 1.388 . S
C879 H866 0.930 . S
C879 C878 1.388 . S
C879 C880 1.390 . S
C880 C879 1.390 . S
C880 C881 1.394 . S
C880 C886 1.465 . S
C881 C876 1.399 . S
C881 C880 1.394 . S
C881 C882 1.516 . S
C882 C881 1.516 . S
C882 C883 1.502 . S
C882 C884 1.561 . S
C882 C885 1.526 . S
C883 H867 0.959 . S
C883 H868 0.959 . S
C883 H869 0.961 . S
C883 C882 1.502 . S
C884 H870 0.960 . S
C884 H871 0.961 . S
C884 H872 0.959 . S
C884 C882 1.561 . S
C885 C882 1.526 . S
C885 C886 1.396 . S
C885 C890 1.390 . S
C886 C880 1.465 . S
C886 C885 1.396 . S
C886 C887 1.399 . S
C887 H873 0.929 . S
C887 C886 1.399 . S
C887 C888 1.385 . S
C888 H874 0.931 . S
C888 C887 1.385 . S
C888 C889 1.389 . S
C889 C888 1.389 . S
C889 C890 1.387 . S
C890 H875 0.930 . S
C890 C885 1.390 . S
C890 C889 1.387 . S
H891 C903 0.930 . S
H892 C905 0.930 . S
H893 C906 0.930 . S
H894 C910 0.959 . S
H895 C910 0.959 . S
H896 C910 0.961 . S
H897 C911 0.960 . S
H898 C911 0.961 . S
H899 C911 0.959 . S
H900 C914 0.929 . S
H901 C915 0.931 . S
H902 C917 0.930 . S
C903 H891 0.930 . S
C903 C904 1.399 . S
C903 C908 1.399 . S
C904 C903 1.399 . S
C904 C905 1.376 . S
C905 H892 0.930 . S
C905 C904 1.376 . S
C905 C906 1.388 . S
C906 H893 0.930 . S
C906 C905 1.388 . S
C906 C907 1.390 . S
C907 C906 1.390 . S
C907 C908 1.394 . S
C907 C913 1.465 . S
C908 C903 1.399 . S
C908 C907 1.394 . S
C908 C909 1.516 . S
C909 C908 1.516 . S
C909 C910 1.502 . S
C909 C911 1.561 . S
C909 C912 1.526 . S
C910 H894 0.959 . S
C910 H895 0.959 . S
C910 H896 0.961 . S
C910 C909 1.502 . S
C911 H897 0.960 . S
C911 H898 0.961 . S
C911 H899 0.959 . S
C911 C909 1.561 . S
C912 C909 1.526 . S
C912 C913 1.396 . S
C912 C917 1.390 . S
C913 C907 1.465 . S
C913 C912 1.396 . S
C913 C914 1.399 . S
C914 H900 0.929 . S
C914 C913 1.399 . S
C914 C915 1.385 . S
C915 H901 0.931 . S
C915 C914 1.385 . S
C915 C916 1.389 . S
C916 C915 1.389 . S
C916 C917 1.387 . S
C917 H902 0.930 . S
C917 C912 1.390 . S
C917 C916 1.387 . S
H918 C930 0.930 . S
H919 C932 0.930 . S
H920 C933 0.930 . S
H921 C937 0.959 . S
H922 C937 0.959 . S
H923 C937 0.961 . S
H924 C938 0.960 . S
H925 C938 0.961 . S
H926 C938 0.959 . S
H927 C941 0.929 . S
H928 C942 0.931 . S
H929 C944 0.930 . S
C930 H918 0.930 . S
C930 C931 1.399 . S
C930 C935 1.399 . S
C931 C930 1.399 . S
C931 C932 1.376 . S
C932 H919 0.930 . S
C932 C931 1.376 . S
C932 C933 1.388 . S
C933 H920 0.930 . S
C933 C932 1.388 . S
C933 C934 1.390 . S
C934 C933 1.390 . S
C934 C935 1.394 . S
C934 C940 1.465 . S
C935 C930 1.399 . S
C935 C934 1.394 . S
C935 C936 1.516 . S
C936 C935 1.516 . S
C936 C937 1.502 . S
C936 C938 1.561 . S
C936 C939 1.526 . S
C937 H921 0.959 . S
C937 H922 0.959 . S
C937 H923 0.961 . S
C937 C936 1.502 . S
C938 H924 0.960 . S
C938 H925 0.961 . S
C938 H926 0.959 . S
C938 C936 1.561 . S
C939 C936 1.526 . S
C939 C940 1.396 . S
C939 C944 1.390 . S
C940 C934 1.465 . S
C940 C939 1.396 . S
C940 C941 1.399 . S
C941 H927 0.929 . S
C941 C940 1.399 . S
C941 C942 1.385 . S
C942 H928 0.931 . S
C942 C941 1.385 . S
C942 C943 1.389 . S
C943 C942 1.389 . S
C943 C944 1.387 . S
C944 H929 0.930 . S
C944 C939 1.390 . S
C944 C943 1.387 . S
H945 C957 0.930 . S
H946 C959 0.930 . S
H947 C960 0.930 . S
H948 C964 0.959 . S
H949 C964 0.959 . S
H950 C964 0.961 . S
H951 C965 0.960 . S
H952 C965 0.961 . S
H953 C965 0.959 . S
H954 C968 0.929 . S
H955 C969 0.931 . S
H956 C971 0.930 . S
C957 H945 0.930 . S
C957 C958 1.399 . S
C957 C962 1.399 . S
C958 C957 1.399 . S
C958 C959 1.376 . S
C959 H946 0.930 . S
C959 C958 1.376 . S
C959 C960 1.388 . S
C960 H947 0.930 . S
C960 C959 1.388 . S
C960 C961 1.390 . S
C961 C960 1.390 . S
C961 C962 1.394 . S
C961 C967 1.465 . S
C962 C957 1.399 . S
C962 C961 1.394 . S
C962 C963 1.516 . S
C963 C962 1.516 . S
C963 C964 1.502 . S
C963 C965 1.561 . S
C963 C966 1.526 . S
C964 H948 0.959 . S
C964 H949 0.959 . S
C964 H950 0.961 . S
C964 C963 1.502 . S
C965 H951 0.960 . S
C965 H952 0.961 . S
C965 H953 0.959 . S
C965 C963 1.561 . S
C966 C963 1.526 . S
C966 C967 1.396 . S
C966 C971 1.390 . S
C967 C961 1.465 . S
C967 C966 1.396 . S
C967 C968 1.399 . S
C968 H954 0.929 . S
C968 C967 1.399 . S
C968 C969 1.385 . S
C969 H955 0.931 . S
C969 C968 1.385 . S
C969 C970 1.389 . S
C970 C969 1.389 . S
C970 C971 1.387 . S
C971 H956 0.930 . S
C971 C966 1.390 . S
C971 C970 1.387 . S
H972 C984 0.930 . S
H973 C986 0.930 . S
H974 C987 0.930 . S
H975 C991 0.959 . S
H976 C991 0.959 . S
H977 C991 0.961 . S
H978 C992 0.960 . S
H979 C992 0.961 . S
H980 C992 0.959 . S
H981 C995 0.929 . S
H982 C996 0.931 . S
H983 C998 0.930 . S
C984 H972 0.930 . S
C984 C985 1.399 . S
C984 C989 1.399 . S
C985 C984 1.399 . S
C985 C986 1.376 . S
C986 H973 0.930 . S
C986 C985 1.376 . S
C986 C987 1.388 . S
C987 H974 0.930 . S
C987 C986 1.388 . S
C987 C988 1.390 . S
C988 C987 1.390 . S
C988 C989 1.394 . S
C988 C994 1.465 . S
C989 C984 1.399 . S
C989 C988 1.394 . S
C989 C990 1.516 . S
C990 C989 1.516 . S
C990 C991 1.502 . S
C990 C992 1.561 . S
C990 C993 1.526 . S
C991 H975 0.959 . S
C991 H976 0.959 . S
C991 H977 0.961 . S
C991 C990 1.502 . S
C992 H978 0.960 . S
C992 H979 0.961 . S
C992 H980 0.959 . S
C992 C990 1.561 . S
C993 C990 1.526 . S
C993 C994 1.396 . S
C993 C998 1.390 . S
C994 C988 1.465 . S
C994 C993 1.396 . S
C994 C995 1.399 . S
C995 H981 0.929 . S
C995 C994 1.399 . S
C995 C996 1.385 . S
C996 H982 0.931 . S
C996 C995 1.385 . S
C996 C997 1.389 . S
C997 C996 1.389 . S
C997 C998 1.387 . S
C998 H983 0.930 . S
C998 C993 1.390 . S
C998 C997 1.387 . S
H999 C1011 0.930 . S
H1000 C1013 0.930 . S
H1001 C1014 0.930 . S
H1002 C1018 0.959 . S
H1003 C1018 0.959 . S
H1004 C1018 0.961 . S
H1005 C1019 0.960 . S
H1006 C1019 0.961 . S
H1007 C1019 0.959 . S
H1008 C1022 0.929 . S
H1009 C1023 0.931 . S
H1010 C1025 0.930 . S
C1011 H999 0.930 . S
C1011 C1012 1.399 . S
C1011 C1016 1.399 . S
C1012 C1011 1.399 . S
C1012 C1013 1.376 . S
C1013 H1000 0.930 . S
C1013 C1012 1.376 . S
C1013 C1014 1.388 . S
C1014 H1001 0.930 . S
C1014 C1013 1.388 . S
C1014 C1015 1.390 . S
C1015 C1014 1.390 . S
C1015 C1016 1.394 . S
C1015 C1021 1.465 . S
C1016 C1011 1.399 . S
C1016 C1015 1.394 . S
C1016 C1017 1.516 . S
C1017 C1016 1.516 . S
C1017 C1018 1.502 . S
C1017 C1019 1.561 . S
C1017 C1020 1.526 . S
C1018 H1002 0.959 . S
C1018 H1003 0.959 . S
C1018 H1004 0.961 . S
C1018 C1017 1.502 . S
C1019 H1005 0.960 . S
C1019 H1006 0.961 . S
C1019 H1007 0.959 . S
C1019 C1017 1.561 . S
C1020 C1017 1.526 . S
C1020 C1021 1.396 . S
C1020 C1025 1.390 . S
C1021 C1015 1.465 . S
C1021 C1020 1.396 . S
C1021 C1022 1.399 . S
C1022 H1008 0.929 . S
C1022 C1021 1.399 . S
C1022 C1023 1.385 . S
C1023 H1009 0.931 . S
C1023 C1022 1.385 . S
C1023 C1024 1.389 . S
C1024 C1023 1.389 . S
C1024 C1025 1.387 . S
C1025 H1010 0.930 . S
C1025 C1020 1.390 . S
C1025 C1024 1.387 . S
H1026 C1038 0.930 . S
H1027 C1040 0.930 . S
H1028 C1041 0.930 . S
H1029 C1045 0.959 . S
H1030 C1045 0.959 . S
H1031 C1045 0.961 . S
H1032 C1046 0.960 . S
H1033 C1046 0.961 . S
H1034 C1046 0.959 . S
H1035 C1049 0.929 . S
H1036 C1050 0.931 . S
H1037 C1052 0.930 . S
C1038 H1026 0.930 . S
C1038 C1039 1.399 . S
C1038 C1043 1.399 . S
C1039 C1038 1.399 . S
C1039 C1040 1.376 . S
C1040 H1027 0.930 . S
C1040 C1039 1.376 . S
C1040 C1041 1.388 . S
C1041 H1028 0.930 . S
C1041 C1040 1.388 . S
C1041 C1042 1.390 . S
C1042 C1041 1.390 . S
C1042 C1043 1.394 . S
C1042 C1048 1.465 . S
C1043 C1038 1.399 . S
C1043 C1042 1.394 . S
C1043 C1044 1.516 . S
C1044 C1043 1.516 . S
C1044 C1045 1.502 . S
C1044 C1046 1.561 . S
C1044 C1047 1.526 . S
C1045 H1029 0.959 . S
C1045 H1030 0.959 . S
C1045 H1031 0.961 . S
C1045 C1044 1.502 . S
C1046 H1032 0.960 . S
C1046 H1033 0.961 . S
C1046 H1034 0.959 . S
C1046 C1044 1.561 . S
C1047 C1044 1.526 . S
C1047 C1048 1.396 . S
C1047 C1052 1.390 . S
C1048 C1042 1.465 . S
C1048 C1047 1.396 . S
C1048 C1049 1.399 . S
C1049 H1035 0.929 . S
C1049 C1048 1.399 . S
C1049 C1050 1.385 . S
C1050 H1036 0.931 . S
C1050 C1049 1.385 . S
C1050 C1051 1.389 . S
C1051 C1050 1.389 . S
C1051 C1052 1.387 . S
C1052 H1037 0.930 . S
C1052 C1047 1.390 . S
C1052 C1051 1.387 . S
H1053 C1065 0.930 . S
H1054 C1067 0.930 . S
H1055 C1068 0.930 . S
H1056 C1072 0.959 . S
H1057 C1072 0.959 . S
H1058 C1072 0.961 . S
H1059 C1073 0.960 . S
H1060 C1073 0.961 . S
H1061 C1073 0.959 . S
H1062 C1076 0.929 . S
H1063 C1077 0.931 . S
H1064 C1079 0.930 . S
C1065 H1053 0.930 . S
C1065 C1066 1.399 . S
C1065 C1070 1.399 . S
C1066 C1065 1.399 . S
C1066 C1067 1.376 . S
C1067 H1054 0.930 . S
C1067 C1066 1.376 . S
C1067 C1068 1.388 . S
C1068 H1055 0.930 . S
C1068 C1067 1.388 . S
C1068 C1069 1.390 . S
C1069 C1068 1.390 . S
C1069 C1070 1.394 . S
C1069 C1075 1.465 . S
C1070 C1065 1.399 . S
C1070 C1069 1.394 . S
C1070 C1071 1.516 . S
C1071 C1070 1.516 . S
C1071 C1072 1.502 . S
C1071 C1073 1.561 . S
C1071 C1074 1.526 . S
C1072 H1056 0.959 . S
C1072 H1057 0.959 . S
C1072 H1058 0.961 . S
C1072 C1071 1.502 . S
C1073 H1059 0.960 . S
C1073 H1060 0.961 . S
C1073 H1061 0.959 . S
C1073 C1071 1.561 . S
C1074 C1071 1.526 . S
C1074 C1075 1.396 . S
C1074 C1079 1.390 . S
C1075 C1069 1.465 . S
C1075 C1074 1.396 . S
C1075 C1076 1.399 . S
C1076 H1062 0.929 . S
C1076 C1075 1.399 . S
C1076 C1077 1.385 . S
C1077 H1063 0.931 . S
C1077 C1076 1.385 . S
C1077 C1078 1.389 . S
C1078 C1077 1.389 . S
C1078 C1079 1.387 . S
C1079 H1064 0.930 . S
C1079 C1074 1.390 . S
C1079 C1078 1.387 . S
H1080 C1092 0.930 . S
H1081 C1094 0.930 . S
H1082 C1095 0.930 . S
H1083 C1099 0.959 . S
H1084 C1099 0.959 . S
H1085 C1099 0.961 . S
H1086 C1100 0.960 . S
H1087 C1100 0.961 . S
H1088 C1100 0.959 . S
H1089 C1103 0.929 . S
H1090 C1104 0.931 . S
H1091 C1106 0.930 . S
C1092 H1080 0.930 . S
C1092 C1093 1.399 . S
C1092 C1097 1.399 . S
C1093 C1092 1.399 . S
C1093 C1094 1.376 . S
C1094 H1081 0.930 . S
C1094 C1093 1.376 . S
C1094 C1095 1.388 . S
C1095 H1082 0.930 . S
C1095 C1094 1.388 . S
C1095 C1096 1.390 . S
C1096 C1095 1.390 . S
C1096 C1097 1.394 . S
C1096 C1102 1.465 . S
C1097 C1092 1.399 . S
C1097 C1096 1.394 . S
C1097 C1098 1.516 . S
C1098 C1097 1.516 . S
C1098 C1099 1.502 . S
C1098 C1100 1.561 . S
C1098 C1101 1.526 . S
C1099 H1083 0.959 . S
C1099 H1084 0.959 . S
C1099 H1085 0.961 . S
C1099 C1098 1.502 . S
C1100 H1086 0.960 . S
C1100 H1087 0.961 . S
C1100 H1088 0.959 . S
C1100 C1098 1.561 . S
C1101 C1098 1.526 . S
C1101 C1102 1.396 . S
C1101 C1106 1.390 . S
C1102 C1096 1.465 . S
C1102 C1101 1.396 . S
C1102 C1103 1.399 . S
C1103 H1089 0.929 . S
C1103 C1102 1.399 . S
C1103 C1104 1.385 . S
C1104 H1090 0.931 . S
C1104 C1103 1.385 . S
C1104 C1105 1.389 . S
C1105 C1104 1.389 . S
C1105 C1106 1.387 . S
C1106 H1091 0.930 . S
C1106 C1101 1.390 . S
C1106 C1105 1.387 . S
H1107 C1119 0.930 . S
H1108 C1121 0.930 . S
H1109 C1122 0.930 . S
H1110 C1126 0.959 . S
H1111 C1126 0.959 . S
H1112 C1126 0.961 . S
H1113 C1127 0.960 . S
H1114 C1127 0.961 . S
H1115 C1127 0.959 . S
H1116 C1130 0.929 . S
H1117 C1131 0.931 . S
H1118 C1133 0.930 . S
C1119 H1107 0.930 . S
C1119 C1120 1.399 . S
C1119 C1124 1.399 . S
C1120 C1119 1.399 . S
C1120 C1121 1.376 . S
C1121 H1108 0.930 . S
C1121 C1120 1.376 . S
C1121 C1122 1.388 . S
C1122 H1109 0.930 . S
C1122 C1121 1.388 . S
C1122 C1123 1.390 . S
C1123 C1122 1.390 . S
C1123 C1124 1.394 . S
C1123 C1129 1.465 . S
C1124 C1119 1.399 . S
C1124 C1123 1.394 . S
C1124 C1125 1.516 . S
C1125 C1124 1.516 . S
C1125 C1126 1.502 . S
C1125 C1127 1.561 . S
C1125 C1128 1.526 . S
C1126 H1110 0.959 . S
C1126 H1111 0.959 . S
C1126 H1112 0.961 . S
C1126 C1125 1.502 . S
C1127 H1113 0.960 . S
C1127 H1114 0.961 . S
C1127 H1115 0.959 . S
C1127 C1125 1.561 . S
C1128 C1125 1.526 . S
C1128 C1129 1.396 . S
C1128 C1133 1.390 . S
C1129 C1123 1.465 . S
C1129 C1128 1.396 . S
C1129 C1130 1.399 . S
C1130 H1116 0.929 . S
C1130 C1129 1.399 . S
C1130 C1131 1.385 . S
C1131 H1117 0.931 . S
C1131 C1130 1.385 . S
C1131 C1132 1.389 . S
C1132 C1131 1.389 . S
C1132 C1133 1.387 . S
C1133 H1118 0.930 . S
C1133 C1128 1.390 . S
C1133 C1132 1.387 . S
H1134 C1146 0.930 . S
H1135 C1148 0.930 . S
H1136 C1149 0.930 . S
H1137 C1153 0.959 . S
H1138 C1153 0.959 . S
H1139 C1153 0.961 . S
H1140 C1154 0.960 . S
H1141 C1154 0.961 . S
H1142 C1154 0.959 . S
H1143 C1157 0.929 . S
H1144 C1158 0.931 . S
H1145 C1160 0.930 . S
C1146 H1134 0.930 . S
C1146 C1147 1.399 . S
C1146 C1151 1.399 . S
C1147 C1146 1.399 . S
C1147 C1148 1.376 . S
C1148 H1135 0.930 . S
C1148 C1147 1.376 . S
C1148 C1149 1.388 . S
C1149 H1136 0.930 . S
C1149 C1148 1.388 . S
C1149 C1150 1.390 . S
C1150 C1149 1.390 . S
C1150 C1151 1.394 . S
C1150 C1156 1.465 . S
C1151 C1146 1.399 . S
C1151 C1150 1.394 . S
C1151 C1152 1.516 . S
C1152 C1151 1.516 . S
C1152 C1153 1.502 . S
C1152 C1154 1.561 . S
C1152 C1155 1.526 . S
C1153 H1137 0.959 . S
C1153 H1138 0.959 . S
C1153 H1139 0.961 . S
C1153 C1152 1.502 . S
C1154 H1140 0.960 . S
C1154 H1141 0.961 . S
C1154 H1142 0.959 . S
C1154 C1152 1.561 . S
C1155 C1152 1.526 . S
C1155 C1156 1.396 . S
C1155 C1160 1.390 . S
C1156 C1150 1.465 . S
C1156 C1155 1.396 . S
C1156 C1157 1.399 . S
C1157 H1143 0.929 . S
C1157 C1156 1.399 . S
C1157 C1158 1.385 . S
C1158 H1144 0.931 . S
C1158 C1157 1.385 . S
C1158 C1159 1.389 . S
C1159 C1158 1.389 . S
C1159 C1160 1.387 . S
C1160 H1145 0.930 . S
C1160 C1155 1.390 . S
C1160 C1159 1.387 . S
H1161 C1173 0.930 . S
H1162 C1175 0.930 . S
H1163 C1176 0.930 . S
H1164 C1180 0.959 . S
H1165 C1180 0.959 . S
H1166 C1180 0.961 . S
H1167 C1181 0.960 . S
H1168 C1181 0.961 . S
H1169 C1181 0.959 . S
H1170 C1184 0.929 . S
H1171 C1185 0.931 . S
H1172 C1187 0.930 . S
C1173 H1161 0.930 . S
C1173 C1174 1.399 . S
C1173 C1178 1.399 . S
C1174 C1173 1.399 . S
C1174 C1175 1.376 . S
C1175 H1162 0.930 . S
C1175 C1174 1.376 . S
C1175 C1176 1.388 . S
C1176 H1163 0.930 . S
C1176 C1175 1.388 . S
C1176 C1177 1.390 . S
C1177 C1176 1.390 . S
C1177 C1178 1.394 . S
C1177 C1183 1.465 . S
C1178 C1173 1.399 . S
C1178 C1177 1.394 . S
C1178 C1179 1.516 . S
C1179 C1178 1.516 . S
C1179 C1180 1.502 . S
C1179 C1181 1.561 . S
C1179 C1182 1.526 . S
C1180 H1164 0.959 . S
C1180 H1165 0.959 . S
C1180 H1166 0.961 . S
C1180 C1179 1.502 . S
C1181 H1167 0.960 . S
C1181 H1168 0.961 . S
C1181 H1169 0.959 . S
C1181 C1179 1.561 . S
C1182 C1179 1.526 . S
C1182 C1183 1.396 . S
C1182 C1187 1.390 . S
C1183 C1177 1.465 . S
C1183 C1182 1.396 . S
C1183 C1184 1.399 . S
C1184 H1170 0.929 . S
C1184 C1183 1.399 . S
C1184 C1185 1.385 . S
C1185 H1171 0.931 . S
C1185 C1184 1.385 . S
C1185 C1186 1.389 . S
C1186 C1185 1.389 . S
C1186 C1187 1.387 . S
C1187 H1172 0.930 . S
C1187 C1182 1.390 . S
C1187 C1186 1.387 . S
H1188 C1200 0.930 . S
H1189 C1202 0.930 . S
H1190 C1203 0.930 . S
H1191 C1207 0.959 . S
H1192 C1207 0.959 . S
H1193 C1207 0.961 . S
H1194 C1208 0.960 . S
H1195 C1208 0.961 . S
H1196 C1208 0.959 . S
H1197 C1211 0.929 . S
H1198 C1212 0.931 . S
H1199 C1214 0.930 . S
C1200 H1188 0.930 . S
C1200 C1201 1.399 . S
C1200 C1205 1.399 . S
C1201 C1200 1.399 . S
C1201 C1202 1.376 . S
C1202 H1189 0.930 . S
C1202 C1201 1.376 . S
C1202 C1203 1.388 . S
C1203 H1190 0.930 . S
C1203 C1202 1.388 . S
C1203 C1204 1.390 . S
C1204 C1203 1.390 . S
C1204 C1205 1.394 . S
C1204 C1210 1.465 . S
C1205 C1200 1.399 . S
C1205 C1204 1.394 . S
C1205 C1206 1.516 . S
C1206 C1205 1.516 . S
C1206 C1207 1.502 . S
C1206 C1208 1.561 . S
C1206 C1209 1.526 . S
C1207 H1191 0.959 . S
C1207 H1192 0.959 . S
C1207 H1193 0.961 . S
C1207 C1206 1.502 . S
C1208 H1194 0.960 . S
C1208 H1195 0.961 . S
C1208 H1196 0.959 . S
C1208 C1206 1.561 . S
C1209 C1206 1.526 . S
C1209 C1210 1.396 . S
C1209 C1214 1.390 . S
C1210 C1204 1.465 . S
C1210 C1209 1.396 . S
C1210 C1211 1.399 . S
C1211 H1197 0.929 . S
C1211 C1210 1.399 . S
C1211 C1212 1.385 . S
C1212 H1198 0.931 . S
C1212 C1211 1.385 . S
C1212 C1213 1.389 . S
C1213 C1212 1.389 . S
C1213 C1214 1.387 . S
C1214 H1199 0.930 . S
C1214 C1209 1.390 . S
C1214 C1213 1.387 . S
H1215 C1227 0.930 . S
H1216 C1229 0.930 . S
H1217 C1230 0.930 . S
H1218 C1234 0.959 . S
H1219 C1234 0.959 . S
H1220 C1234 0.961 . S
H1221 C1235 0.960 . S
H1222 C1235 0.961 . S
H1223 C1235 0.959 . S
H1224 C1238 0.929 . S
H1225 C1239 0.931 . S
H1226 C1241 0.930 . S
C1227 H1215 0.930 . S
C1227 C1228 1.399 . S
C1227 C1232 1.399 . S
C1228 C1227 1.399 . S
C1228 C1229 1.376 . S
C1229 H1216 0.930 . S
C1229 C1228 1.376 . S
C1229 C1230 1.388 . S
C1230 H1217 0.930 . S
C1230 C1229 1.388 . S
C1230 C1231 1.390 . S
C1231 C1230 1.390 . S
C1231 C1232 1.394 . S
C1231 C1237 1.465 . S
C1232 C1227 1.399 . S
C1232 C1231 1.394 . S
C1232 C1233 1.516 . S
C1233 C1232 1.516 . S
C1233 C1234 1.502 . S
C1233 C1235 1.561 . S
C1233 C1236 1.526 . S
C1234 H1218 0.959 . S
C1234 H1219 0.959 . S
C1234 H1220 0.961 . S
C1234 C1233 1.502 . S
C1235 H1221 0.960 . S
C1235 H1222 0.961 . S
C1235 H1223 0.959 . S
C1235 C1233 1.561 . S
C1236 C1233 1.526 . S
C1236 C1237 1.396 . S
C1236 C1241 1.390 . S
C1237 C1231 1.465 . S
C1237 C1236 1.396 . S
C1237 C1238 1.399 . S
C1238 H1224 0.929 . S
C1238 C1237 1.399 . S
C1238 C1239 1.385 . S
C1239 H1225 0.931 . S
C1239 C1238 1.385 . S
C1239 C1240 1.389 . S
C1240 C1239 1.389 . S
C1240 C1241 1.387 . S
C1241 H1226 0.930 . S
C1241 C1236 1.390 . S
C1241 C1240 1.387 . S
C607 C39 1.757 . S
C619 C340 1.771 . S
C634 C91 1.746 . S
C646 C379 1.711 . S
C673 C411 1.603 . S
C661 C128 1.594 . S
C700 C457 1.544 . S
C688 C188 1.554 . S
C727 C524 1.633 . S
C715 C250 1.672 . S
C754 C563 1.735 . S
C742 C304 1.729 . S
C769 C75 1.664 . S
C781 C425 1.617 . S
C796 C144 1.769 . S
C808 C471 1.721 . S
C835 C510 1.665 . S
C823 C198 1.714 . S
C862 C549 1.559 . S
C850 C234 1.567 . S
C877 C294 1.534 . S
C889 C326 1.545 . S
C916 C365 1.577 . S
C904 C29 1.562 . S
C943 C464 1.771 . S
C931 C38 1.757 . S
C958 C92 1.731 . S
C970 C517 1.712 . S
C997 C570 1.563 . S
C985 C135 1.606 . S
C1012 C181 1.564 . S
C1024 C333 1.509 . S
C1039 C251 1.648 . S
C1051 C386 1.657 . S
C1066 C303 1.741 . S
C1078 C418 1.708 . S
C1093 C82 1.645 . S
C1105 C556 1.646 . S
C1132 C319 1.759 . S
C1120 C145 1.747 . S
C1147 C197 1.713 . S
C1159 C372 1.673 . S
C1174 C241 1.576 . S
C1186 C432 1.541 . S
C1201 C287 1.543 . S
C1213 C478 1.510 . S
C1228 C22 1.585 . S
C1240 C503 1.549 . S
