# Generated by pormake.
# Topology zzz, (3,6)-cn, num edge types: 1
# Building blocks:
#     Node 0, Type 0, BuildingBlock: BELTOD_clean_linker_0, # of connection points: 3
#     Node 1, Type 0, BuildingBlock: BELTOD_clean_linker_0, # of connection points: 3
#     Node 2, Type 0, BuildingBlock: BELTOD_clean_linker_0, # of connection points: 3
#     Node 3, Type 0, BuildingBlock: BELTOD_clean_linker_0, # of connection points: 3
#     Node 4, Type 0, BuildingBlock: BELTOD_clean_linker_0, # of connection points: 3
#     Node 5, Type 0, BuildingBlock: BELTOD_clean_linker_0, # of connection points: 3
#     Node 6, Type 0, BuildingBlock: BELTOD_clean_linker_0, # of connection points: 3
#     Node 7, Type 0, BuildingBlock: BELTOD_clean_linker_0, # of connection points: 3
#     Node 8, Type 1, BuildingBlock: VOLQOD_clean_sbu_1, # of connection points: 6
#     Node 9, Type 1, BuildingBlock: VOLQOD_clean_sbu_1, # of connection points: 6
#     Node 10, Type 1, BuildingBlock: VOLQOD_clean_sbu_1, # of connection points: 6
#     Node 11, Type 1, BuildingBlock: VOLQOD_clean_sbu_1, # of connection points: 6
#     Edge 12, Type (0, 1), BuildingBlock: CIFDUS_clean_linker_0, # of connection points: 2
#     Edge 13, Type (0, 1), BuildingBlock: CIFDUS_clean_linker_0, # of connection points: 2
#     Edge 14, Type (0, 1), BuildingBlock: CIFDUS_clean_linker_0, # of connection points: 2
#     Edge 15, Type (0, 1), BuildingBlock: CIFDUS_clean_linker_0, # of connection points: 2
#     Edge 16, Type (0, 1), BuildingBlock: CIFDUS_clean_linker_0, # of connection points: 2
#     Edge 17, Type (0, 1), BuildingBlock: CIFDUS_clean_linker_0, # of connection points: 2
#     Edge 18, Type (0, 1), BuildingBlock: CIFDUS_clean_linker_0, # of connection points: 2
#     Edge 19, Type (0, 1), BuildingBlock: CIFDUS_clean_linker_0, # of connection points: 2
#     Edge 20, Type (0, 1), BuildingBlock: CIFDUS_clean_linker_0, # of connection points: 2
#     Edge 21, Type (0, 1), BuildingBlock: CIFDUS_clean_linker_0, # of connection points: 2
#     Edge 22, Type (0, 1), BuildingBlock: CIFDUS_clean_linker_0, # of connection points: 2
#     Edge 23, Type (0, 1), BuildingBlock: CIFDUS_clean_linker_0, # of connection points: 2
#     Edge 24, Type (0, 1), BuildingBlock: CIFDUS_clean_linker_0, # of connection points: 2
#     Edge 25, Type (0, 1), BuildingBlock: CIFDUS_clean_linker_0, # of connection points: 2
#     Edge 26, Type (0, 1), BuildingBlock: CIFDUS_clean_linker_0, # of connection points: 2
#     Edge 27, Type (0, 1), BuildingBlock: CIFDUS_clean_linker_0, # of connection points: 2
#     Edge 28, Type (0, 1), BuildingBlock: CIFDUS_clean_linker_0, # of connection points: 2
#     Edge 29, Type (0, 1), BuildingBlock: CIFDUS_clean_linker_0, # of connection points: 2
#     Edge 30, Type (0, 1), BuildingBlock: CIFDUS_clean_linker_0, # of connection points: 2
#     Edge 31, Type (0, 1), BuildingBlock: CIFDUS_clean_linker_0, # of connection points: 2
#     Edge 32, Type (0, 1), BuildingBlock: CIFDUS_clean_linker_0, # of connection points: 2
#     Edge 33, Type (0, 1), BuildingBlock: CIFDUS_clean_linker_0, # of connection points: 2
#     Edge 34, Type (0, 1), BuildingBlock: CIFDUS_clean_linker_0, # of connection points: 2
#     Edge 35, Type (0, 1), BuildingBlock: CIFDUS_clean_linker_0, # of connection points: 2
# Relax obj value: 0.333
# Max RMSD: 0.254
# Mean RMSD: 0.197
data_MOF--net-zzz--node1-VOLQOD_clean_sbu_1--node2-BELTOD_clean_linker_0--edge1-CIFDUS_clean_linker_0
_symmetry_space_group_name_H-M    P1
_symmetry_Int_Tables_number       1
_symmetry_cell_setting            triclinic
loop_
_symmetry_equiv_pos_as_xyz
'x, y, z'
_cell_length_a     48.537413
_cell_length_b     47.698489
_cell_length_c     18.833514
_cell_angle_alpha  90.040438
_cell_angle_beta   90.202106
_cell_angle_gamma 92.180534
loop_
_atom_site_label
_atom_site_type_symbol
_atom_site_fract_x
_atom_site_fract_y
_atom_site_fract_z
_atom_type_partial_charge
P0 P 0.7802 0.4009 0.16238 0.0
H1 H 0.78457 0.4113 0.31573 0.0
H2 H 0.81862 0.4387 0.38607 0.0
H3 H 0.85356 0.47342 0.19335 0.0
H4 H 0.81933 0.4464 0.12341 0.0
H5 H 0.7326 0.37245 0.09997 0.0
H6 H 0.69393 0.38867 0.0309 0.0
H7 H 0.72149 0.47469 0.06901 0.0
H8 H 0.76091 0.45802 0.13637 0.0
H9 H 0.82712 0.36455 0.15946 0.0
H10 H 0.78286 0.41494 0.01059 0.0
O11 O 0.77195 0.37308 0.21276 0.0
H12 H 0.86272 0.35747 0.07003 0.0
H13 H 0.8182 0.40834 0.92217 0.0
C14 C 0.79988 0.42632 0.21437 0.0
C15 C 0.79906 0.4254 0.28874 0.0
C16 C 0.81842 0.44116 0.32889 0.0
C17 C 0.83888 0.45788 0.29497 0.0
C18 C 0.83815 0.46048 0.22069 0.0
C19 C 0.81863 0.44499 0.18075 0.0
C20 C 0.74923 0.41401 0.12452 0.0
C21 C 0.72996 0.39481 0.09484 0.0
C22 C 0.70782 0.40418 0.0553 0.0
C23 C 0.70442 0.43305 0.04465 0.0
C24 C 0.72359 0.45232 0.0757 0.0
C25 C 0.74594 0.44284 0.11503 0.0
C26 C 0.80221 0.39002 0.09162 0.0
C27 C 0.82462 0.37336 0.10694 0.0
C28 C 0.845 0.36946 0.05595 0.0
C29 C 0.84333 0.3824 0.98902 0.0
C30 C 0.81993 0.39765 0.97262 0.0
C31 C 0.79966 0.40157 0.02358 0.0
P32 P 0.04567 0.75306 0.2162 0.0
H33 H 0.04905 0.75928 0.37043 0.0
H34 H 0.0257 0.78981 0.45242 0.0
H35 H 0.96999 0.81294 0.28464 0.0
H36 H 0.99404 0.78292 0.20228 0.0
H37 H 0.07223 0.70093 0.18471 0.0
H38 H 0.05619 0.65745 0.12733 0.0
H39 H 0.97402 0.68859 0.11332 0.0
H40 H 0.98997 0.73195 0.17358 0.0
H41 H 0.08748 0.79756 0.1889 0.0
H42 H 0.01451 0.76286 0.08528 0.0
O43 O 0.07619 0.74822 0.25455 0.0
H44 H 0.09262 0.83283 0.09513 0.0
H45 H 0.01867 0.79842 0.99397 0.0
C46 C 0.02368 0.76925 0.27986 0.0
C47 C 0.03145 0.77044 0.35153 0.0
C48 C 0.01788 0.78779 0.39866 0.0
C49 C 0.99618 0.80419 0.37489 0.0
C50 C 0.98696 0.80102 0.30432 0.0
C51 C 0.00063 0.78371 0.25719 0.0
C52 C 0.03228 0.71966 0.18398 0.0
C53 C 0.0506 0.69824 0.17109 0.0
C54 C 0.04143 0.67338 0.1382 0.0
C55 C 0.01388 0.66972 0.11607 0.0
C56 C 0.99537 0.69097 0.12994 0.0
C57 C 0.00446 0.71567 0.16448 0.0
C58 C 0.05094 0.77715 0.14345 0.0
C59 C 0.07275 0.7973 0.14559 0.0
C60 C 0.07549 0.81765 0.0923 0.0
C61 C 0.05617 0.81845 0.0365 0.0
C62 C 0.0344 0.7981 0.03484 0.0
C63 C 0.03188 0.77768 0.08757 0.0
P64 P 0.75729 0.07462 0.18316 0.0
H65 H 0.75016 0.08086 0.33639 0.0
H66 H 0.72553 0.05211 0.42371 0.0
H67 H 0.71425 0.98592 0.26806 0.0
H68 H 0.73724 0.0156 0.17982 0.0
H69 H 0.80168 0.11 0.12534 0.0
H70 H 0.84012 0.10013 0.04813 0.0
H71 H 0.82062 0.0112 0.06774 0.0
H72 H 0.78378 0.02132 0.14973 0.0
H73 H 0.71154 0.11137 0.15029 0.0
H74 H 0.74631 0.03698 0.06295 0.0
O75 O 0.76029 0.10686 0.21763 0.0
H76 H 0.67711 0.11074 0.05444 0.0
H77 H 0.712 0.03575 0.96958 0.0
C78 C 0.74543 0.05056 0.25122 0.0
C79 C 0.74282 0.05998 0.32126 0.0
C80 C 0.7289 0.0433 0.3716 0.0
C81 C 0.71752 0.0167 0.35294 0.0
C82 C 0.72218 0.0065 0.28404 0.0
C83 C 0.73568 0.0234 0.23348 0.0
C84 C 0.78974 0.06645 0.14346 0.0
C85 C 0.80627 0.08834 0.11505 0.0
C86 C 0.82799 0.08262 0.06962 0.0
C87 C 0.83311 0.05485 0.04967 0.0
C88 C 0.8175 0.03286 0.08175 0.0
C89 C 0.79619 0.03864 0.12874 0.0
C90 C 0.7319 0.07455 0.11312 0.0
C91 C 0.71189 0.095 0.11049 0.0
C92 C 0.69213 0.09453 0.05595 0.0
C93 C 0.69208 0.07347 0.00358 0.0
C94 C 0.7119 0.05279 0.00763 0.0
C95 C 0.73155 0.05336 0.06163 0.0
P96 P 0.47475 0.74398 0.21735 0.0
H97 H 0.47504 0.73789 0.37184 0.0
H98 H 0.50469 0.71179 0.44996 0.0
H99 H 0.56222 0.70184 0.27798 0.0
H100 H 0.53202 0.72772 0.19945 0.0
H101 H 0.43842 0.77508 0.12945 0.0
H102 H 0.44509 0.81525 0.05149 0.0
H103 H 0.53037 0.82386 0.11784 0.0
H104 H 0.52353 0.78268 0.19504 0.0
H105 H 0.44413 0.68984 0.21692 0.0
H106 H 0.50095 0.73564 0.08015 0.0
O107 O 0.44471 0.74565 0.25975 0.0
H108 H 0.44506 0.64929 0.13655 0.0
H109 H 0.50173 0.69561 3e-05 0.0
C110 C 0.50114 0.73453 0.27955 0.0
C111 C 0.49446 0.73096 0.35137 0.0
C112 C 0.51158 0.71604 0.39628 0.0
C113 C 0.53569 0.70429 0.37004 0.0
C114 C 0.54357 0.71019 0.29958 0.0
C115 C 0.52641 0.72519 0.25473 0.0
C116 C 0.48028 0.77625 0.16904 0.0
C117 C 0.45845 0.7859 0.12828 0.0
C118 C 0.46232 0.80898 0.08369 0.0
C119 C 0.48822 0.8231 0.07879 0.0
C120 C 0.51019 0.81343 0.1201 0.0
C121 C 0.50626 0.79007 0.1648 0.0
C122 C 0.4721 0.71588 0.15383 0.0
C123 C 0.45629 0.69138 0.1689 0.0
C124 C 0.45681 0.66828 0.12306 0.0
C125 C 0.47355 0.66932 0.06234 0.0
C126 C 0.48883 0.69416 0.04681 0.0
C127 C 0.48821 0.71716 0.09231 0.0
P128 P 0.23279 0.49499 0.29249 0.0
H129 H 0.22918 0.44847 0.1919 0.0
H130 H 0.20945 0.44665 0.07254 0.0
H131 H 0.2128 0.53714 0.06395 0.0
H132 H 0.23257 0.53889 0.18366 0.0
H133 H 0.25322 0.47894 0.42968 0.0
H134 H 0.29702 0.48667 0.49072 0.0
H135 H 0.32897 0.53262 0.30908 0.0
H136 H 0.28477 0.52396 0.24708 0.0
H137 H 0.17348 0.49703 0.28866 0.0
H138 H 0.24165 0.55174 0.35415 0.0
O139 O 0.21959 0.4644 0.32239 0.0
H140 H 0.14119 0.5299 0.33575 0.0
H141 H 0.20931 0.58537 0.40047 0.0
C142 C 0.23165 0.49382 0.19716 0.0
C143 C 0.22678 0.46792 0.16336 0.0
C144 C 0.21543 0.46688 0.09519 0.0
C145 C 0.20906 0.49176 0.05989 0.0
C146 C 0.21748 0.51766 0.09007 0.0
C147 C 0.22876 0.51867 0.15853 0.0
C148 C 0.26606 0.50028 0.33331 0.0
C149 C 0.26973 0.49041 0.40254 0.0
C150 C 0.29471 0.49522 0.43786 0.0
C151 C 0.31651 0.5104 0.40502 0.0
C152 C 0.31268 0.52058 0.33554 0.0
C153 C 0.28751 0.51566 0.30001 0.0
C154 C 0.20984 0.5215 0.32031 0.0
C155 C 0.18145 0.5164 0.31242 0.0
C156 C 0.16299 0.53555 0.33831 0.0
C157 C 0.17261 0.56037 0.37226 0.0
C158 C 0.20123 0.56633 0.37541 0.0
C159 C 0.21973 0.54703 0.34939 0.0
P160 P 0.12588 0.24609 0.21994 0.0
H161 H 0.16062 0.22875 0.10194 0.0
H162 H 0.14971 0.19707 0.0033 0.0
H163 H 0.06285 0.20326 0.04858 0.0
H164 H 0.07391 0.23578 0.14408 0.0
H165 H 0.14452 0.2818 0.33504 0.0
H166 H 0.12573 0.32309 0.38959 0.0
H167 H 0.06518 0.32675 0.22141 0.0
H168 H 0.08426 0.28507 0.1668 0.0
H169 H 0.13783 0.18935 0.26324 0.0
H170 H 0.07129 0.24602 0.28667 0.0
O171 O 0.15954 0.2434 0.2358 0.0
H172 H 0.10867 0.1513 0.31209 0.0
H173 H 0.04178 0.20802 0.33311 0.0
C174 C 0.11811 0.23467 0.1307 0.0
C175 C 0.13919 0.22432 0.08852 0.0
C176 C 0.13291 0.20575 0.03275 0.0
C177 C 0.10541 0.19688 0.01894 0.0
C178 C 0.08427 0.20958 0.05693 0.0
C179 C 0.09059 0.22843 0.11187 0.0
C180 C 0.11602 0.28052 0.24646 0.0
C181 C 0.12776 0.29198 0.30852 0.0
C182 C 0.11696 0.31564 0.33978 0.0
C183 C 0.09391 0.32822 0.30994 0.0
C184 C 0.08281 0.31737 0.24595 0.0
C185 C 0.09384 0.29368 0.21436 0.0
C186 C 0.10702 0.22066 0.27288 0.0
C187 C 0.11719 0.19377 0.28056 0.0
C188 C 0.10029 0.17194 0.30719 0.0
C189 C 0.07274 0.17655 0.32552 0.0
C190 C 0.06293 0.2038 0.32007 0.0
C191 C 0.07992 0.22564 0.29382 0.0
P192 P 0.29036 0.03603 0.1969 0.0
H193 H 0.29766 0.07826 0.08519 0.0
H194 H 0.31895 0.07413 0.96878 0.0
H195 H 0.31136 0.98375 0.98503 0.0
H196 H 0.2889 0.98818 0.09943 0.0
H197 H 0.27708 0.0263 0.34315 0.0
H198 H 0.23459 0.01763 0.40702 0.0
H199 H 0.18843 0.02836 0.2124 0.0
H200 H 0.23204 0.03485 0.14723 0.0
H201 H 0.34979 0.03693 0.21876 0.0
H202 H 0.28111 0.9778 0.24515 0.0
O203 O 0.30273 0.06767 0.22184 0.0
H204 H 0.38047 0.00352 0.27286 0.0
H205 H 0.31166 0.94453 0.30124 0.0
C206 C 0.29234 0.0335 0.10174 0.0
C207 C 0.29945 0.05758 0.06229 0.0
C208 C 0.312 0.05517 0.99599 0.0
C209 C 0.31791 0.0286 0.9686 0.0
C210 C 0.30738 0.00459 0.00431 0.0
C211 C 0.29447 0.00707 0.07015 0.0
C212 C 0.25769 0.03052 0.24027 0.0
C213 C 0.25784 0.02644 0.31385 0.0
C214 C 0.23334 0.02192 0.3507 0.0
C215 C 0.20781 0.02254 0.31538 0.0
C216 C 0.20766 0.0273 0.24133 0.0
C217 C 0.23251 0.0312 0.20395 0.0
C218 C 0.31309 0.01029 0.23083 0.0
C219 C 0.34136 0.01673 0.23599 0.0
C220 C 0.35888 0.99748 0.26605 0.0
C221 C 0.34832 0.9715 0.29138 0.0
C222 C 0.3202 0.96447 0.2825 0.0
C223 C 0.30277 0.98359 0.25123 0.0
P224 P 0.43246 0.26388 0.19711 0.0
H225 H 0.39274 0.30027 0.13236 0.0
H226 H 0.39728 0.33322 0.0351 0.0
H227 H 0.47405 0.29665 0.97528 0.0
H228 H 0.46761 0.26166 0.06887 0.0
H229 H 0.39877 0.21359 0.22943 0.0
H230 H 0.41122 0.17075 0.29009 0.0
H231 H 0.49735 0.19152 0.2539 0.0
H232 H 0.48478 0.23442 0.19255 0.0
H233 H 0.48731 0.28926 0.16131 0.0
H234 H 0.4349 0.28149 0.3455 0.0
O235 O 0.40205 0.26794 0.23634 0.0
H236 H 0.5209 0.31706 0.22923 0.0
H237 H 0.46886 0.30937 0.41421 0.0
C238 C 0.43024 0.27887 0.10926 0.0
C239 C 0.40998 0.29846 0.09659 0.0
C240 C 0.41292 0.31782 0.0414 0.0
C241 C 0.43675 0.31874 0.99906 0.0
C242 C 0.45549 0.297 0.00687 0.0
C243 C 0.45193 0.2769 0.0608 0.0
C244 C 0.44085 0.22762 0.20785 0.0
C245 C 0.4203 0.20853 0.23202 0.0
C246 C 0.42744 0.18411 0.26741 0.0
C247 C 0.45528 0.17825 0.27866 0.0
C248 C 0.47572 0.1956 0.24655 0.0
C249 C 0.46853 0.22015 0.21123 0.0
C250 C 0.45784 0.28421 0.24726 0.0
C251 C 0.48266 0.29376 0.21591 0.0
C252 C 0.50216 0.30947 0.25508 0.0
C253 C 0.49742 0.31549 0.32675 0.0
C254 C 0.47313 0.30487 0.35904 0.0
C255 C 0.45353 0.28927 0.31958 0.0
O256 O 0.0827 0.01233 0.65684 0.0
Zn257 Zn 0.0522 0.01185 0.73036 0.0
O258 O 0.01595 0.00794 0.68247 0.0
Zn259 Zn 0.99485 0.04113 0.70012 0.0
Zn260 Zn 0.02063 0.00424 0.58068 0.0
Zn261 Zn 0.99518 0.97483 0.7161 0.0
O262 O 0.95989 0.03153 0.75231 0.0
O263 O 0.96209 0.98584 0.77383 0.0
O264 O 0.05638 0.04876 0.78448 0.0
O265 O 0.01649 0.06809 0.76157 0.0
O266 O 0.98824 0.06356 0.61178 0.0
O267 O 0.00832 0.03819 0.52981 0.0
O268 O 0.00131 0.96987 0.54139 0.0
O269 O 0.05781 0.97902 0.79766 0.0
O270 O 0.98358 0.94834 0.63606 0.0
O271 O 0.01942 0.95292 0.77909 0.0
C272 C 0.08279 0.0077 0.59012 0.0
C273 C 0.95033 0.00912 0.78135 0.0
C274 C 0.99615 0.06018 0.54812 0.0
C275 C 0.04021 0.06908 0.7905 0.0
C276 C 0.98781 0.94936 0.56935 0.0
C277 C 0.04295 0.95678 0.80823 0.0
O278 O 0.06051 0.0028 0.55585 0.0
O279 O 0.50671 0.05879 0.58955 0.0
Zn280 Zn 0.51033 0.03311 0.6755 0.0
O281 O 0.51717 0.99435 0.64497 0.0
Zn282 Zn 0.48569 0.96991 0.67156 0.0
Zn283 Zn 0.52162 0.99319 0.54266 0.0
Zn284 Zn 0.55097 0.98042 0.68756 0.0
O285 O 0.49722 0.94163 0.74369 0.0
O286 O 0.54282 0.94707 0.75274 0.0
O287 O 0.47439 0.03484 0.72944 0.0
O288 O 0.45597 0.99177 0.71778 0.0
O289 O 0.46814 0.95048 0.58646 0.0
O290 O 0.49414 0.96666 0.49789 0.0
O291 O 0.55894 0.9818 0.51422 0.0
O292 O 0.54132 0.04795 0.74021 0.0
O293 O 0.5802 0.97151 0.61467 0.0
O294 O 0.56831 0.01122 0.74594 0.0
C295 C 0.50966 0.0547 0.52307 0.0
C296 C 0.5201 0.93477 0.77069 0.0
C297 C 0.47401 0.95143 0.52061 0.0
C298 C 0.45457 0.01697 0.73929 0.0
C299 C 0.58005 0.9737 0.54727 0.0
C300 C 0.56296 0.03632 0.76237 0.0
O301 O 0.51578 0.03083 0.49886 0.0
O302 O 0.46914 0.50813 0.63017 0.0
Zn303 Zn 0.49926 0.50127 0.70286 0.0
O304 O 0.5355 0.5002 0.65485 0.0
Zn305 Zn 0.55133 0.46428 0.67295 0.0
Zn306 Zn 0.53152 0.50444 0.55279 0.0
Zn307 Zn 0.56115 0.52992 0.68906 0.0
O308 O 0.58442 0.4688 0.73512 0.0
O309 O 0.59547 0.51447 0.73532 0.0
O310 O 0.48903 0.46374 0.75111 0.0
O311 O 0.5247 0.43835 0.72257 0.0
O312 O 0.56039 0.44388 0.5839 0.0
O313 O 0.5447 0.47125 0.4991 0.0
O314 O 0.5505 0.53965 0.5175 0.0
O315 O 0.49973 0.53249 0.7769 0.0
O316 O 0.57014 0.55922 0.61291 0.0
O317 O 0.54249 0.55039 0.76617 0.0
C318 C 0.4694 0.50932 0.56246 0.0
C319 C 0.6002 0.48939 0.75396 0.0
C320 C 0.55562 0.44869 0.51871 0.0
C321 C 0.50126 0.44052 0.75136 0.0
C322 C 0.5643 0.55973 0.54685 0.0
C323 C 0.51895 0.54996 0.79578 0.0
O324 O 0.49171 0.50755 0.52778 0.0
O325 O 0.96168 0.52423 0.60921 0.0
Zn326 Zn 0.99689 0.53304 0.6661 0.0
O327 O 0.01447 0.49824 0.69653 0.0
Zn328 Zn 0.01363 0.49476 0.79885 0.0
Zn329 Zn 0.99531 0.46567 0.65389 0.0
Zn330 Zn 0.053 0.49909 0.66922 0.0
O331 O 0.0507 0.4869 0.84053 0.0
O332 O 0.07936 0.49493 0.75097 0.0
O333 O 0.98906 0.55733 0.75218 0.0
O334 O 0.00181 0.53065 0.84229 0.0
O335 O 0.98777 0.46361 0.82842 0.0
O336 O 0.97601 0.4413 0.72858 0.0
O337 O 0.02085 0.44303 0.59383 0.0
O338 O 0.02295 0.55619 0.60217 0.0
O339 O 0.06026 0.4681 0.60004 0.0
O340 O 0.06238 0.53501 0.62105 0.0
C341 C 0.95368 0.50143 0.57872 0.0
C342 C 0.07505 0.4889 0.81581 0.0
C343 C 0.97481 0.44377 0.79592 0.0
C344 C 0.99264 0.55351 0.81863 0.0
C345 C 0.04595 0.44727 0.57585 0.0
C346 C 0.04898 0.55496 0.59492 0.0
O347 O 0.96579 0.47858 0.58883 0.0
H348 H 0.19741 0.03936 0.45099 0.0
H349 H 0.15937 0.99559 0.27287 0.0
H350 H 0.11761 0.98684 0.34249 0.0
H351 H 0.09221 0.99095 0.45448 0.0
H352 H 0.13187 0.03168 0.63466 0.0
H353 H 0.1733 0.04103 0.56423 0.0
C354 C 0.18027 0.02742 0.42739 0.0
C355 C 0.1818 0.01807 0.3565 0.0
C356 C 0.15673 0.02154 0.46845 0.0
C357 C 0.15881 0.00347 0.32674 0.0
C358 C 0.13498 0.99815 0.36684 0.0
C359 C 0.10998 0.0017 0.47858 0.0
C360 C 0.10888 0.01064 0.54982 0.0
C361 C 0.13379 0.00697 0.43784 0.0
C362 C 0.13217 0.02441 0.58018 0.0
C363 C 0.15581 0.02996 0.53977 0.0
H364 H 0.49346 0.13774 0.26567 0.0
H365 H 0.43435 0.17083 0.41096 0.0
H366 H 0.44717 0.13694 0.50096 0.0
H367 H 0.47467 0.09738 0.53841 0.0
H368 H 0.53205 0.06233 0.39165 0.0
H369 H 0.52079 0.09758 0.30298 0.0
C370 C 0.48343 0.13746 0.31704 0.0
C371 C 0.4628 0.15659 0.33127 0.0
C372 C 0.49075 0.11768 0.36863 0.0
C373 C 0.44993 0.15598 0.39811 0.0
C374 C 0.4574 0.13675 0.4499 0.0
C375 C 0.48493 0.09769 0.48732 0.0
C376 C 0.50431 0.07743 0.47186 0.0
C377 C 0.47775 0.11748 0.4358 0.0
C378 C 0.51707 0.07776 0.40489 0.0
C379 C 0.5106 0.09786 0.35408 0.0
H380 H 0.36823 0.50684 0.35107 0.0
H381 H 0.32476 0.5235 0.54517 0.0
H382 H 0.36818 0.52528 0.61097 0.0
H383 H 0.4183 0.51968 0.61454 0.0
H384 H 0.46169 0.5041 0.41943 0.0
H385 H 0.41861 0.50483 0.35311 0.0
C386 C 0.36828 0.5114 0.4075 0.0
C387 C 0.34322 0.5147 0.44314 0.0
C388 C 0.39334 0.51246 0.4451 0.0
C389 C 0.3437 0.52031 0.51655 0.0
C390 C 0.36854 0.52144 0.55426 0.0
C391 C 0.41837 0.51658 0.55749 0.0
C392 C 0.44323 0.51161 0.52236 0.0
C393 C 0.39345 0.51705 0.51932 0.0
C394 C 0.4429 0.5079 0.44817 0.0
C395 C 0.41823 0.50827 0.41 0.0
H396 H 0.1185 0.37292 0.37806 0.0
H397 H 0.03876 0.33401 0.33161 0.0
H398 H 0.01675 0.36776 0.40845 0.0
H399 H 0.02046 0.40649 0.49467 0.0
H400 H 0.10047 0.44482 0.54216 0.0
H401 H 0.12201 0.41285 0.46004 0.0
C402 C 0.09629 0.37188 0.38461 0.0
C403 C 0.08034 0.35089 0.34933 0.0
C404 C 0.08382 0.39102 0.42984 0.0
C405 C 0.05153 0.35013 0.35745 0.0
C406 C 0.03894 0.36925 0.40201 0.0
C407 C 0.04261 0.40785 0.48716 0.0
C408 C 0.0588 0.4279 0.52519 0.0
C409 C 0.05493 0.38946 0.43947 0.0
C410 C 0.08746 0.42955 0.51395 0.0
C411 C 0.09984 0.41129 0.46688 0.0
H412 H 0.86676 0.01005 0.0364 0.0
H413 H 0.84416 0.0864 0.93112 0.0
H414 H 0.87736 0.07826 0.83802 0.0
H415 H 0.91366 0.05042 0.78756 0.0
H416 H 0.93476 0.9727 0.8875 0.0
H417 H 0.9004 0.9799 0.97976 0.0
C418 C 0.86876 0.02476 0.99273 0.0
C419 C 0.85323 0.04915 0.99219 0.0
C420 C 0.88741 0.01958 0.93771 0.0
C421 C 0.85641 0.06795 0.93488 0.0
C422 C 0.87518 0.06316 0.8808 0.0
C423 C 0.91058 0.03489 0.82912 0.0
C424 C 0.92688 0.01117 0.83087 0.0
C425 C 0.89094 0.0392 0.882 0.0
C426 C 0.92241 0.99111 0.8847 0.0
C427 C 0.90292 0.99533 0.93783 0.0
H428 H 0.53234 0.8363 0.99246 0.0
H429 H 0.45233 0.86462 0.05363 0.0
H430 H 0.45513 0.90094 0.9631 0.0
H431 H 0.47915 0.9236 0.86376 0.0
H432 H 0.56038 0.89827 0.8059 0.0
H433 H 0.5584 0.86206 0.89852 0.0
C434 C 0.51573 0.85071 0.98685 0.0
C435 C 0.49191 0.84728 0.02915 0.0
C436 C 0.51758 0.87196 0.93494 0.0
C437 C 0.47058 0.8662 0.02074 0.0
C438 C 0.47219 0.88711 0.96912 0.0
C439 C 0.49642 0.9101 0.87123 0.0
C440 C 0.51969 0.91326 0.82735 0.0
C441 C 0.49533 0.88985 0.92517 0.0
C442 C 0.54217 0.89609 0.83879 0.0
C443 C 0.54102 0.87541 0.8917 0.0
H444 H 0.7054 0.47608 0.94805 0.0
H445 H 0.65164 0.4114 0.03878 0.0
H446 H 0.61536 0.42289 0.95556 0.0
H447 H 0.5993 0.44994 0.85514 0.0
H448 H 0.65072 0.51703 0.76815 0.0
H449 H 0.68753 0.50623 0.85271 0.0
C450 C 0.6856 0.46483 0.95052 0.0
C451 C 0.6815 0.44255 0.99902 0.0
C452 C 0.66452 0.47184 0.90298 0.0
C453 C 0.65569 0.42813 0.00097 0.0
C454 C 0.63484 0.43477 0.9536 0.0
C455 C 0.61863 0.46215 0.8544 0.0
C456 C 0.62258 0.48388 0.80476 0.0
C457 C 0.6392 0.45623 0.90376 0.0
C458 C 0.64737 0.50004 0.80562 0.0
C459 C 0.66834 0.49386 0.85391 0.0
H460 H 0.98923 0.6678 0.98653 0.0
H461 H 0.02046 0.61527 0.15225 0.0
H462 H 0.01329 0.57388 0.07683 0.0
H463 H 0.00301 0.55367 0.96035 0.0
H464 H 0.97455 0.60633 0.79087 0.0
H465 H 0.97532 0.64656 0.87152 0.0
C466 C 0.99385 0.64716 0.00644 0.0
C467 C 0.00537 0.64447 0.07462 0.0
C468 C 0.99042 0.62358 0.96195 0.0
C469 C 0.01167 0.61775 0.09976 0.0
C470 C 0.00763 0.59415 0.05665 0.0
C471 C 0.99658 0.57382 0.941 0.0
C472 C 0.98901 0.57695 0.86925 0.0
C473 C 0.99777 0.59695 0.98702 0.0
C474 C 0.98064 0.60328 0.84561 0.0
C475 C 0.98116 0.62634 0.89169 0.0
H476 H 0.03431 0.17642 0.43092 0.0
H477 H 0.06922 0.12347 0.27125 0.0
H478 H 0.043 0.08299 0.31776 0.0
H479 H 0.01569 0.06177 0.41334 0.0
H480 H 0.98212 0.11426 0.5761 0.0
H481 H 0.00089 0.15598 0.51594 0.0
C482 C 0.03573 0.15616 0.4053 0.0
C483 C 0.05427 0.15284 0.3489 0.0
C484 C 0.02063 0.13291 0.43241 0.0
C485 C 0.05581 0.12642 0.31627 0.0
C486 C 0.04061 0.1033 0.34235 0.0
C487 C 0.0118 0.08235 0.43483 0.0
C488 C 0.99815 0.08477 0.50022 0.0
C489 C 0.02373 0.10614 0.40189 0.0
C490 C 0.99284 0.11168 0.52631 0.0
C491 C 0.00388 0.13559 0.4924 0.0
H492 H 0.39919 0.95394 0.25892 0.0
H493 H 0.33739 0.95057 0.42277 0.0
H494 H 0.37146 0.93552 0.50892 0.0
H495 H 0.4203 0.93571 0.54234 0.0
H496 H 0.48252 0.94249 0.37941 0.0
H497 H 0.44687 0.9428 0.2881 0.0
C498 C 0.3931 0.94901 0.31301 0.0
C499 C 0.36614 0.95394 0.33512 0.0
C500 C 0.41299 0.94133 0.36268 0.0
C501 C 0.35815 0.94705 0.40478 0.0
C502 C 0.37769 0.9387 0.45421 0.0
C503 C 0.42609 0.93614 0.48676 0.0
C504 C 0.45395 0.94013 0.46777 0.0
C505 C 0.40547 0.93756 0.43466 0.0
C506 C 0.46114 0.94015 0.39547 0.0
C507 C 0.44076 0.94053 0.34317 0.0
H508 H 0.5194 0.36521 0.28157 0.0
H509 H 0.51784 0.30888 0.4607 0.0
H510 H 0.5426 0.34434 0.53282 0.0
H511 H 0.55704 0.39341 0.54976 0.0
H512 H 0.55437 0.45112 0.37357 0.0
H513 H 0.5401 0.41264 0.29436 0.0
C514 C 0.52519 0.36044 0.3358 0.0
C515 C 0.51655 0.33469 0.36626 0.0
C516 C 0.53865 0.38117 0.37732 0.0
C517 C 0.52391 0.3288 0.43669 0.0
C518 C 0.53811 0.349 0.47775 0.0
C519 C 0.55422 0.3975 0.4936 0.0
C520 C 0.55629 0.42517 0.4678 0.0
C521 C 0.54452 0.37563 0.44941 0.0
C522 C 0.55261 0.43003 0.39485 0.0
C523 C 0.54421 0.40809 0.34969 0.0
H524 H 0.12005 0.57432 0.33736 0.0
H525 H 0.18097 0.58263 0.50444 0.0
H526 H 0.14518 0.59203 0.58982 0.0
H527 H 0.09706 0.58225 0.62195 0.0
H528 H 0.03594 0.5679 0.45848 0.0
H529 H 0.07083 0.57706 0.36709 0.0
C530 C 0.12553 0.57899 0.3921 0.0
C531 C 0.15304 0.57667 0.41485 0.0
C532 C 0.10459 0.58277 0.44205 0.0
C533 C 0.16 0.58388 0.48528 0.0
C534 C 0.13943 0.58895 0.53461 0.0
C535 C 0.09121 0.5826 0.56627 0.0
C536 C 0.06433 0.57387 0.54649 0.0
C537 C 0.11165 0.58617 0.5145 0.0
C538 C 0.05663 0.57452 0.47466 0.0
C539 C 0.07671 0.57927 0.42245 0.0
H540 H 0.0715 0.87395 0.05438 0.0
H541 H 0.04431 0.81376 0.89491 0.0
H542 H 0.03952 0.8514 0.80915 0.0
H543 H 0.03887 0.90154 0.78259 0.0
H544 H 0.06841 0.96202 0.93775 0.0
H545 H 0.07726 0.92398 0.02175 0.0
C546 C 0.06517 0.86893 0.00046 0.0
C547 C 0.05761 0.84102 0.98188 0.0
C548 C 0.06281 0.89071 0.95076 0.0
C549 C 0.0494 0.83508 0.91156 0.0
C550 C 0.04682 0.85657 0.86221 0.0
C551 C 0.04762 0.90631 0.83453 0.0
C552 C 0.05269 0.93438 0.85466 0.0
C553 C 0.05271 0.88448 0.88185 0.0
C554 C 0.06439 0.94046 0.9214 0.0
C555 C 0.06926 0.91876 0.96941 0.0
H556 H 0.63688 0.08318 0.01182 0.0
H557 H 0.70043 0.06088 0.86443 0.0
H558 H 0.66573 0.05004 0.77395 0.0
H559 H 0.61734 0.0413 0.74175 0.0
H560 H 0.55329 0.06494 0.88503 0.0
H561 H 0.58819 0.08158 0.97174 0.0
C562 C 0.64318 0.07663 0.95939 0.0
C563 C 0.67119 0.07209 0.94565 0.0
C564 C 0.62305 0.07055 0.90709 0.0
C565 C 0.67896 0.06368 0.87721 0.0
C566 C 0.65916 0.0576 0.82524 0.0
C567 C 0.61111 0.05067 0.79144 0.0
C568 C 0.58301 0.05175 0.80775 0.0
C569 C 0.63115 0.06002 0.84045 0.0
C570 C 0.57493 0.06406 0.87166 0.0
C571 C 0.59485 0.07333 0.92127 0.0
H572 H 0.52115 0.64845 0.01777 0.0
H573 H 0.43309 0.63374 0.00719 0.0
H574 H 0.43916 0.59398 0.92657 0.0
H575 H 0.46985 0.56531 0.8534 0.0
H576 H 0.55794 0.58173 0.86526 0.0
H577 H 0.55144 0.61892 0.95079 0.0
C578 C 0.50327 0.63659 0.99757 0.0
C579 C 0.47673 0.6442 0.01729 0.0
C580 C 0.50693 0.61412 0.95129 0.0
C581 C 0.45374 0.62825 0.99243 0.0
C582 C 0.45722 0.60563 0.94621 0.0
C583 C 0.48759 0.57687 0.87524 0.0
C584 C 0.51431 0.57087 0.85219 0.0
C585 C 0.48375 0.59861 0.92444 0.0
C586 C 0.5371 0.58605 0.88119 0.0
C587 C 0.53346 0.60736 0.9303 0.0
H588 H 0.89661 0.392 0.02662 0.0
H589 H 0.84422 0.37786 0.84361 0.0
H590 H 0.88241 0.39186 0.76519 0.0
H591 H 0.92836 0.41506 0.75068 0.0
H592 H 0.97927 0.43109 0.93575 0.0
H593 H 0.94422 0.40868 0.01114 0.0
C594 C 0.89374 0.39102 0.96952 0.0
C595 C 0.86754 0.38415 0.94105 0.0
C596 C 0.91549 0.39976 0.9251 0.0
C597 C 0.86412 0.38345 0.86686 0.0
C598 C 0.88593 0.39149 0.82204 0.0
C599 C 0.93203 0.41297 0.80724 0.0
C600 C 0.95617 0.42506 0.83776 0.0
C601 C 0.91138 0.40079 0.85077 0.0
C602 C 0.96066 0.42229 0.91115 0.0
C603 C 0.94062 0.40952 0.95436 0.0
H604 H 0.06077 0.18815 0.93151 0.0
H605 H 0.13501 0.14944 0.00244 0.0
H606 H 0.12201 0.10699 0.93668 0.0
H607 H 0.08819 0.07957 0.86459 0.0
H608 H 0.01263 0.11763 0.80085 0.0
H609 H 0.0272 0.16102 0.86001 0.0
C610 C 0.07412 0.17045 0.93295 0.0
C611 C 0.09887 0.17225 0.97209 0.0
C612 C 0.06607 0.14563 0.89713 0.0
C613 C 0.11608 0.1491 0.97183 0.0
C614 C 0.10849 0.12455 0.93493 0.0
C615 C 0.0749 0.09733 0.86371 0.0
C616 C 0.04928 0.09512 0.82851 0.0
C617 C 0.08331 0.12239 0.89831 0.0
C618 C 0.03239 0.11849 0.82784 0.0
C619 C 0.04073 0.14347 0.86146 0.0
H620 H 0.36456 0.06088 0.94701 0.0
H621 H 0.31831 0.98945 0.86105 0.0
H622 H 0.35629 0.98016 0.7806 0.0
H623 H 0.40401 0.99019 0.74154 0.0
H624 H 0.4494 0.06245 0.82577 0.0
H625 H 0.40998 0.07386 0.89903 0.0
C626 C 0.36229 0.04374 0.90935 0.0
C627 C 0.33852 0.02581 0.91068 0.0
C628 C 0.38419 0.0385 0.86333 0.0
C629 C 0.33646 0.00338 0.86214 0.0
C630 C 0.35818 0.99806 0.81602 0.0
C631 C 0.40523 0.00854 0.7756 0.0
C632 C 0.42979 0.02523 0.77882 0.0
C633 C 0.38242 0.01506 0.81747 0.0
C634 C 0.43083 0.04918 0.8224 0.0
C635 C 0.4083 0.05569 0.86446 0.0
H636 H 0.46533 0.32149 0.87302 0.0
H637 H 0.42412 0.37348 0.02438 0.0
H638 H 0.43776 0.41511 0.95749 0.0
H639 H 0.46463 0.43772 0.86126 0.0
H640 H 0.50954 0.3862 0.71704 0.0
H641 H 0.49171 0.34391 0.77641 0.0
C642 C 0.45936 0.34186 0.89176 0.0
C643 C 0.44345 0.3439 0.95384 0.0
C644 C 0.46824 0.36613 0.85454 0.0
C645 C 0.43569 0.37075 0.97603 0.0
C646 C 0.44381 0.39484 0.9382 0.0
C647 C 0.47024 0.41722 0.84246 0.0
C648 C 0.48846 0.41517 0.78506 0.0
C649 C 0.46046 0.39287 0.87803 0.0
C650 C 0.49572 0.38842 0.7616 0.0
C651 C 0.48551 0.36417 0.79544 0.0
H652 H 0.15984 0.46433 0.05902 0.0
H653 H 0.21243 0.51847 0.93078 0.0
H654 H 0.17592 0.5208 0.8405 0.0
H655 H 0.1279 0.50966 0.8025 0.0
H656 H 0.07488 0.45834 0.93736 0.0
H657 H 0.11281 0.45249 0.0206 0.0
C658 C 0.16353 0.47613 0.01052 0.0
C659 C 0.18886 0.49085 0.00078 0.0
C660 C 0.14227 0.47808 0.96057 0.0
C661 C 0.19311 0.5068 0.93889 0.0
C662 C 0.17224 0.50819 0.88759 0.0
C663 C 0.12478 0.49698 0.84979 0.0
C664 C 0.09862 0.48448 0.86384 0.0
C665 C 0.14656 0.49427 0.89847 0.0
C666 C 0.09476 0.46834 0.92563 0.0
C667 C 0.11644 0.46493 0.97316 0.0
H668 H 0.98554 0.85719 0.33425 0.0
H669 H 0.98534 0.80326 0.51814 0.0
H670 H 0.97839 0.84367 0.59517 0.0
H671 H 0.97905 0.89501 0.61078 0.0
H672 H 0.98117 0.94848 0.42589 0.0
H673 H 0.97977 0.90742 0.34868 0.0
C674 C 0.98308 0.85403 0.39093 0.0
C675 C 0.98623 0.82722 0.42034 0.0
C676 C 0.97961 0.87737 0.43486 0.0
C677 C 0.98344 0.82374 0.49417 0.0
C678 C 0.97943 0.84684 0.53825 0.0
C679 C 0.97844 0.89766 0.55361 0.0
C680 C 0.98054 0.92477 0.52414 0.0
C681 C 0.9785 0.8739 0.50934 0.0
C682 C 0.97987 0.92784 0.44993 0.0
C683 C 0.97917 0.90436 0.40569 0.0
H684 H 0.67029 0.98782 0.31644 0.0
H685 H 0.71962 0.01245 0.49891 0.0
H686 H 0.6822 0.99673 0.57763 0.0
H687 H 0.63303 0.98273 0.59283 0.0
H688 H 0.58427 0.95936 0.40855 0.0
H689 H 0.62441 0.96675 0.3326 0.0
C690 C 0.67343 0.98891 0.37341 0.0
C691 C 0.6977 0.00175 0.40141 0.0
C692 C 0.6518 0.98011 0.41821 0.0
C693 C 0.70093 0.00327 0.47565 0.0
C694 C 0.67956 0.99419 0.52079 0.0
C695 C 0.63145 0.97841 0.53638 0.0
C696 C 0.60566 0.97086 0.50618 0.0
C697 C 0.65449 0.98358 0.49249 0.0
C698 C 0.60385 0.96548 0.4329 0.0
C699 C 0.62676 0.96984 0.38937 0.0
H700 H 0.55433 0.65473 0.32293 0.0
H701 H 0.5477 0.70457 0.51291 0.0
H702 H 0.56097 0.66464 0.5851 0.0
H703 H 0.5672 0.61366 0.59487 0.0
H704 H 0.57133 0.56389 0.40413 0.0
H705 H 0.56724 0.60588 0.33161 0.0
C706 C 0.55667 0.65724 0.37988 0.0
C707 C 0.54972 0.6826 0.41239 0.0
C708 C 0.56371 0.63405 0.42109 0.0
C709 C 0.5525 0.68518 0.48654 0.0
C710 C 0.5601 0.66234 0.52787 0.0
C711 C 0.5681 0.61216 0.53746 0.0
C712 C 0.56934 0.58566 0.50492 0.0
C713 C 0.56469 0.63634 0.49592 0.0
C714 C 0.5702 0.58402 0.43044 0.0
C715 C 0.5677 0.60801 0.38891 0.0
H716 H 0.84012 0.48972 0.41626 0.0
H717 H 0.89225 0.4496 0.2648 0.0
H718 H 0.93275 0.46152 0.33711 0.0
H719 H 0.95281 0.47943 0.44815 0.0
H720 H 0.9022 0.52156 0.59879 0.0
H721 H 0.86161 0.51311 0.52206 0.0
C722 C 0.86044 0.48399 0.39892 0.0
C723 C 0.86324 0.46876 0.33546 0.0
C724 C 0.8838 0.49114 0.4407 0.0
C725 C 0.88963 0.46154 0.31311 0.0
C726 C 0.91278 0.46818 0.35462 0.0
C727 C 0.93293 0.48713 0.4635 0.0
C728 C 0.93025 0.50085 0.52884 0.0
C729 C 0.91002 0.48242 0.4191 0.0
C730 C 0.9046 0.51102 0.54835 0.0
C731 C 0.88144 0.50601 0.50477 0.0
loop_
_geom_bond_atom_site_label_1
_geom_bond_atom_site_label_2
_geom_bond_distance
_geom_bond_site_symmetry_2
_ccdc_geom_bond_type
P0 O11 1.490 . S
P0 C14 1.812 . S
P0 C20 1.803 . S
P0 C26 1.819 1_554 S
H1 C15 0.941 . S
H2 C16 0.939 . S
H3 C18 0.940 . S
H4 C19 0.940 . S
H5 C21 0.939 . S
H6 C22 0.942 . S
H7 C24 0.940 . S
H8 C25 0.939 . S
H9 C27 0.941 1_554 S
H10 C31 0.939 . S
O11 P0 1.490 . S
H12 C28 0.939 . S
H13 C30 0.940 . S
C14 P0 1.812 . S
C14 C15 1.389 . S
C14 C19 1.391 . S
C15 H1 0.941 . S
C15 C14 1.389 . S
C15 C16 1.397 . S
C16 H2 0.939 . S
C16 C15 1.397 . S
C16 C17 1.378 . S
C17 C16 1.378 . S
C17 C18 1.378 . S
C18 H3 0.940 . S
C18 C17 1.378 . S
C18 C19 1.396 . S
C19 H4 0.940 . S
C19 C14 1.391 . S
C19 C18 1.396 . S
C20 P0 1.803 . S
C20 C21 1.378 1_554 S
C20 C25 1.400 . S
C21 H5 0.939 . S
C21 C20 1.378 1_556 S
C21 C22 1.361 . S
C22 H6 0.942 . S
C22 C21 1.361 . S
C22 C23 1.369 . S
C23 C22 1.369 . S
C23 C24 1.404 1_556 S
C24 H7 0.940 . S
C24 C23 1.404 1_554 S
C24 C25 1.389 . S
C25 H8 0.939 . S
C25 C20 1.400 . S
C25 C24 1.389 . S
C26 P0 1.819 1_556 S
C26 C27 1.391 . S
C26 C31 1.391 . S
C27 H9 0.941 1_556 S
C27 C26 1.391 . S
C27 C28 1.396 . S
C28 H12 0.939 . S
C28 C27 1.396 . S
C28 C29 1.397 . S
C29 C28 1.397 . S
C29 C30 1.385 . S
C30 H13 0.940 . S
C30 C29 1.385 . S
C30 C31 1.388 . S
C31 H10 0.939 . S
C31 C26 1.391 . S
C31 C30 1.388 . S
P32 O43 1.490 . S
P32 C46 1.812 . S
P32 C52 1.803 . S
P32 C58 1.819 . S
H33 C47 0.941 . S
H34 C48 0.939 . S
H35 C50 0.940 . S
H36 C51 0.940 . S
H37 C53 0.939 . S
H38 C54 0.940 1_556 S
H39 C56 0.940 . S
H40 C57 0.939 . S
H41 C59 0.941 . S
H42 C63 0.925 1_655 S
O43 P32 1.490 . S
H44 C60 0.939 . S
H45 C62 0.940 . S
C46 P32 1.812 . S
C46 C47 1.389 . S
C46 C51 1.391 1_455 S
C47 H33 0.941 . S
C47 C46 1.389 . S
C47 C48 1.397 . S
C48 H34 0.939 . S
C48 C47 1.397 . S
C48 C49 1.399 . S
C49 C48 1.399 . S
C49 C50 1.365 1_455 S
C50 H35 0.940 . S
C50 C49 1.365 1_655 S
C50 C51 1.396 . S
C51 H36 0.940 . S
C51 C46 1.391 1_655 S
C51 C50 1.396 . S
C52 P32 1.803 . S
C52 C53 1.378 . S
C52 C57 1.400 1_455 S
C53 H37 0.939 . S
C53 C52 1.378 . S
C53 C54 1.361 . S
C54 H38 0.940 1_554 S
C54 C53 1.361 . S
C54 C55 1.369 1_455 S
C55 C54 1.369 1_655 S
C55 C56 1.404 . S
C56 H39 0.940 . S
C56 C55 1.404 . S
C56 C57 1.389 . S
C57 H40 0.939 . S
C57 C52 1.400 1_655 S
C57 C56 1.389 . S
C58 P32 1.819 . S
C58 C59 1.391 . S
C58 C63 1.421 1_554 S
C59 H41 0.941 . S
C59 C58 1.391 . S
C59 C60 1.396 . S
C60 H44 0.939 . S
C60 C59 1.396 . S
C60 C61 1.397 1_554 S
C61 C60 1.397 1_556 S
C61 C62 1.385 1_455 S
C62 H45 0.940 . S
C62 C61 1.385 1_655 S
C62 C63 1.374 1_655 S
C63 H42 0.925 1_455 S
C63 C58 1.421 1_556 S
C63 C62 1.374 1_455 S
P64 O75 1.490 . S
P64 C78 1.812 . S
P64 C84 1.803 . S
P64 C90 1.819 . S
H65 C79 0.941 . S
H66 C80 0.939 . S
H67 C82 0.940 . S
H68 C83 0.948 . S
H69 C85 0.939 . S
H70 C86 0.946 . S
H71 C88 0.940 . S
H72 C89 0.963 . S
H73 C91 0.941 . S
H74 C95 0.928 1_565 S
O75 P64 1.490 . S
H76 C92 0.939 . S
H77 C94 0.940 . S
C78 P64 1.812 . S
C78 C79 1.389 . S
C78 C83 1.379 1_545 S
C79 H65 0.941 . S
C79 C78 1.389 . S
C79 C80 1.397 . S
C80 H66 0.939 . S
C80 C79 1.397 . S
C80 C81 1.378 . S
C81 C80 1.378 . S
C81 C82 1.378 1_545 S
C82 H67 0.940 . S
C82 C81 1.378 1_565 S
C82 C83 1.401 . S
C83 H68 0.948 . S
C83 C78 1.379 1_565 S
C83 C82 1.401 . S
C84 P64 1.803 . S
C84 C85 1.378 . S
C84 C89 1.361 1_545 S
C85 H69 0.939 . S
C85 C84 1.378 . S
C85 C86 1.359 1_554 S
C86 H70 0.946 . S
C86 C85 1.359 1_556 S
C86 C87 1.367 1_556 S
C87 C86 1.367 1_554 S
C87 C88 1.404 1_545 S
C88 H71 0.940 . S
C88 C87 1.404 1_565 S
C88 C89 1.406 . S
C89 H72 0.963 . S
C89 C84 1.361 1_565 S
C89 C88 1.406 . S
C90 P64 1.819 . S
C90 C91 1.391 . S
C90 C95 1.391 1_554 S
C91 H73 0.941 . S
C91 C90 1.391 . S
C91 C92 1.396 1_554 S
C92 H76 0.939 . S
C92 C91 1.396 1_556 S
C92 C93 1.397 . S
C93 C92 1.397 . S
C93 C94 1.385 1_545 S
C94 H77 0.940 . S
C94 C93 1.385 1_565 S
C94 C95 1.388 1_565 S
C95 H74 0.928 1_545 S
C95 C90 1.391 1_556 S
C95 C94 1.388 1_545 S
P96 O107 1.490 . S
P96 C110 1.812 . S
P96 C116 1.803 . S
P96 C122 1.819 1_554 S
H97 C111 0.941 . S
H98 C112 0.939 . S
H99 C114 0.940 . S
H100 C115 0.940 . S
H101 C117 0.940 1_556 S
H102 C118 0.942 . S
H103 C120 0.940 . S
H104 C121 0.939 . S
H105 C123 0.941 1_554 S
H106 C127 0.939 . S
O107 P96 1.490 . S
H108 C124 0.939 . S
H109 C126 0.940 . S
C110 P96 1.812 . S
C110 C111 1.389 . S
C110 C115 1.391 . S
C111 H97 0.941 . S
C111 C110 1.389 . S
C111 C112 1.397 . S
C112 H98 0.939 . S
C112 C111 1.397 . S
C112 C113 1.378 . S
C113 C112 1.378 . S
C113 C114 1.378 . S
C114 H99 0.940 . S
C114 C113 1.378 . S
C114 C115 1.396 . S
C115 H100 0.940 . S
C115 C110 1.391 . S
C115 C114 1.396 . S
C116 P96 1.803 . S
C116 C117 1.378 . S
C116 C121 1.400 . S
C117 H101 0.940 1_554 S
C117 C116 1.378 . S
C117 C118 1.361 1_554 S
C118 H102 0.942 . S
C118 C117 1.361 1_556 S
C118 C119 1.369 1_556 S
C119 C118 1.369 1_554 S
C119 C120 1.404 . S
C120 H103 0.940 . S
C120 C119 1.404 . S
C120 C121 1.389 . S
C121 H104 0.939 . S
C121 C116 1.400 . S
C121 C120 1.389 . S
C122 P96 1.819 1_556 S
C122 C123 1.391 . S
C122 C127 1.391 . S
C123 H105 0.941 1_556 S
C123 C122 1.391 . S
C123 C124 1.396 . S
C124 H108 0.939 . S
C124 C123 1.396 . S
C124 C125 1.397 . S
C125 C124 1.397 . S
C125 C126 1.385 . S
C126 H109 0.940 . S
C126 C125 1.385 . S
C126 C127 1.388 . S
C127 H106 0.939 . S
C127 C122 1.391 . S
C127 C126 1.388 . S
P128 O139 1.490 . S
P128 C142 1.812 . S
P128 C148 1.803 . S
P128 C154 1.819 . S
H129 C143 0.941 . S
H130 C144 0.939 . S
H131 C146 0.940 . S
H132 C147 0.940 . S
H133 C149 0.939 . S
H134 C150 0.942 . S
H135 C152 0.940 . S
H136 C153 0.939 . S
H137 C155 0.941 . S
H138 C159 0.939 . S
O139 P128 1.490 . S
H140 C156 0.939 . S
H141 C158 0.940 . S
C142 P128 1.812 . S
C142 C143 1.389 . S
C142 C147 1.391 . S
C143 H129 0.941 . S
C143 C142 1.389 . S
C143 C144 1.397 . S
C144 H130 0.939 . S
C144 C143 1.397 . S
C144 C145 1.378 . S
C145 C144 1.378 . S
C145 C146 1.378 . S
C146 H131 0.940 . S
C146 C145 1.378 . S
C146 C147 1.396 . S
C147 H132 0.940 . S
C147 C142 1.391 . S
C147 C146 1.396 . S
C148 P128 1.803 . S
C148 C149 1.378 . S
C148 C153 1.400 . S
C149 H133 0.939 . S
C149 C148 1.378 . S
C149 C150 1.361 . S
C150 H134 0.942 . S
C150 C149 1.361 . S
C150 C151 1.369 . S
C151 C150 1.369 . S
C151 C152 1.404 . S
C152 H135 0.940 . S
C152 C151 1.404 . S
C152 C153 1.389 . S
C153 H136 0.939 . S
C153 C148 1.400 . S
C153 C152 1.389 . S
C154 P128 1.819 . S
C154 C155 1.391 . S
C154 C159 1.391 . S
C155 H137 0.941 . S
C155 C154 1.391 . S
C155 C156 1.396 . S
C156 H140 0.939 . S
C156 C155 1.396 . S
C156 C157 1.397 . S
C157 C156 1.397 . S
C157 C158 1.385 . S
C158 H141 0.940 . S
C158 C157 1.385 . S
C158 C159 1.388 . S
C159 H138 0.939 . S
C159 C154 1.391 . S
C159 C158 1.388 . S
P160 O171 1.490 . S
P160 C174 1.812 . S
P160 C180 1.803 . S
P160 C186 1.819 . S
H161 C175 0.941 . S
H162 C176 0.939 . S
H163 C178 0.940 . S
H164 C179 0.940 . S
H165 C181 0.939 . S
H166 C182 0.942 . S
H167 C184 0.940 . S
H168 C185 0.939 . S
H169 C187 0.941 . S
H170 C191 0.939 . S
O171 P160 1.490 . S
H172 C188 0.939 . S
H173 C190 0.940 . S
C174 P160 1.812 . S
C174 C175 1.389 . S
C174 C179 1.391 . S
C175 H161 0.941 . S
C175 C174 1.389 . S
C175 C176 1.397 . S
C176 H162 0.939 . S
C176 C175 1.397 . S
C176 C177 1.378 . S
C177 C176 1.378 . S
C177 C178 1.378 . S
C178 H163 0.940 . S
C178 C177 1.378 . S
C178 C179 1.396 . S
C179 H164 0.940 . S
C179 C174 1.391 . S
C179 C178 1.396 . S
C180 P160 1.803 . S
C180 C181 1.378 . S
C180 C185 1.400 . S
C181 H165 0.939 . S
C181 C180 1.378 . S
C181 C182 1.361 . S
C182 H166 0.942 . S
C182 C181 1.361 . S
C182 C183 1.369 . S
C183 C182 1.369 . S
C183 C184 1.404 . S
C184 H167 0.940 . S
C184 C183 1.404 . S
C184 C185 1.389 . S
C185 H168 0.939 . S
C185 C180 1.400 . S
C185 C184 1.389 . S
C186 P160 1.819 . S
C186 C187 1.391 . S
C186 C191 1.391 . S
C187 H169 0.941 . S
C187 C186 1.391 . S
C187 C188 1.396 . S
C188 H172 0.939 . S
C188 C187 1.396 . S
C188 C189 1.397 . S
C189 C188 1.397 . S
C189 C190 1.385 . S
C190 H173 0.940 . S
C190 C189 1.385 . S
C190 C191 1.388 . S
C191 H170 0.939 . S
C191 C186 1.391 . S
C191 C190 1.388 . S
P192 O203 1.490 . S
P192 C206 1.812 . S
P192 C212 1.803 . S
P192 C218 1.819 . S
H193 C207 0.941 . S
H194 C208 0.939 . S
H195 C210 0.940 . S
H196 C211 0.943 . S
H197 C213 0.939 . S
H198 C214 0.942 . S
H199 C216 0.940 . S
H200 C217 0.959 . S
H201 C219 0.941 . S
H202 C223 0.933 1_565 S
O203 P192 1.490 . S
H204 C220 0.939 . S
H205 C222 0.940 . S
C206 P192 1.812 . S
C206 C207 1.389 . S
C206 C211 1.387 1_545 S
C207 H193 0.941 . S
C207 C206 1.389 . S
C207 C208 1.397 . S
C208 H194 0.939 . S
C208 C207 1.397 . S
C208 C209 1.378 . S
C209 C208 1.378 . S
C209 C210 1.378 1_545 S
C210 H195 0.940 . S
C210 C209 1.378 1_565 S
C210 C211 1.398 . S
C211 H196 0.943 . S
C211 C206 1.387 1_565 S
C211 C210 1.398 . S
C212 P192 1.803 . S
C212 C213 1.378 . S
C212 C217 1.370 1_545 S
C213 H197 0.939 . S
C213 C212 1.378 . S
C213 C214 1.361 . S
C214 H198 0.942 . S
C214 C213 1.361 . S
C214 C215 1.369 . S
C215 C214 1.369 . S
C215 C216 1.404 1_545 S
C216 H199 0.940 . S
C216 C215 1.404 1_565 S
C216 C217 1.400 . S
C217 H200 0.959 . S
C217 C212 1.370 1_565 S
C217 C216 1.400 . S
C218 P192 1.819 . S
C218 C219 1.391 . S
C218 C223 1.391 . S
C219 H201 0.941 . S
C219 C218 1.391 . S
C219 C220 1.396 . S
C220 H204 0.939 . S
C220 C219 1.396 . S
C220 C221 1.397 . S
C221 C220 1.397 . S
C221 C222 1.385 1_545 S
C222 H205 0.940 . S
C222 C221 1.385 1_565 S
C222 C223 1.388 1_565 S
C223 H202 0.933 1_545 S
C223 C218 1.391 . S
C223 C222 1.388 1_545 S
P224 O235 1.490 . S
P224 C238 1.812 . S
P224 C244 1.803 . S
P224 C250 1.819 . S
H225 C239 0.941 . S
H226 C240 0.939 . S
H227 C242 0.940 . S
H228 C243 0.940 . S
H229 C245 0.939 . S
H230 C246 0.942 . S
H231 C248 0.940 . S
H232 C249 0.939 . S
H233 C251 0.941 . S
H234 C255 0.939 . S
O235 P224 1.490 . S
H236 C252 0.939 . S
H237 C254 0.940 . S
C238 P224 1.812 . S
C238 C239 1.389 . S
C238 C243 1.391 . S
C239 H225 0.941 . S
C239 C238 1.389 . S
C239 C240 1.397 . S
C240 H226 0.939 . S
C240 C239 1.397 . S
C240 C241 1.378 . S
C241 C240 1.378 . S
C241 C242 1.378 . S
C242 H227 0.940 . S
C242 C241 1.378 . S
C242 C243 1.396 . S
C243 H228 0.940 . S
C243 C238 1.391 . S
C243 C242 1.396 . S
C244 P224 1.803 . S
C244 C245 1.378 . S
C244 C249 1.400 . S
C245 H229 0.939 . S
C245 C244 1.378 . S
C245 C246 1.361 . S
C246 H230 0.942 . S
C246 C245 1.361 . S
C246 C247 1.369 . S
C247 C246 1.369 . S
C247 C248 1.404 . S
C248 H231 0.940 . S
C248 C247 1.404 . S
C248 C249 1.389 . S
C249 H232 0.939 . S
C249 C244 1.400 . S
C249 C248 1.389 . S
C250 P224 1.819 . S
C250 C251 1.391 . S
C250 C255 1.391 . S
C251 H233 0.941 . S
C251 C250 1.391 . S
C251 C252 1.396 . S
C252 H236 0.939 . S
C252 C251 1.396 . S
C252 C253 1.397 . S
C253 C252 1.397 . S
C253 C254 1.385 . S
C254 H237 0.940 . S
C254 C253 1.385 . S
C254 C255 1.388 . S
C255 H234 0.939 . S
C255 C250 1.391 . S
C255 C254 1.388 . S
O256 Zn257 1.954 . S
O256 C272 1.228 . S
Zn257 O256 1.954 . S
Zn257 O258 1.948 . S
Zn257 O264 1.888 1_565 S
Zn257 O269 1.961 . S
O258 Zn257 1.948 . S
O258 Zn259 1.900 1_565 S
O258 Zn260 1.953 . S
O258 Zn261 1.964 . S
Zn259 O258 1.900 1_545 S
Zn259 O262 1.933 1_455 S
Zn259 O265 1.941 . S
Zn259 O266 1.965 . S
Zn260 O258 1.953 . S
Zn260 O267 1.938 1_565 S
Zn260 O268 1.906 . S
Zn260 O278 1.953 . S
Zn261 O258 1.964 . S
Zn261 O263 1.932 1_455 S
Zn261 O270 1.977 1_455 S
Zn261 O271 1.910 . S
O262 Zn259 1.933 1_655 S
O262 C273 1.226 . S
O263 Zn261 1.932 1_655 S
O263 C273 1.307 1_565 S
O264 Zn257 1.888 1_545 S
O264 C275 1.253 . S
O265 Zn259 1.941 . S
O265 C275 1.283 . S
O266 Zn259 1.965 . S
O266 C274 1.303 . S
O267 Zn260 1.938 1_545 S
O267 C274 1.247 . S
O268 Zn260 1.906 . S
O268 C276 1.304 . S
O269 Zn257 1.961 . S
O269 C277 1.311 . S
O270 Zn261 1.977 1_655 S
O270 C276 1.272 1_655 S
O271 Zn261 1.910 . S
O271 C277 1.231 . S
C272 O256 1.228 . S
C272 O278 1.298 . S
C273 O262 1.226 . S
C273 O263 1.307 1_545 S
C274 O266 1.303 . S
C274 O267 1.247 . S
C275 O264 1.253 . S
C275 O265 1.283 . S
C276 O268 1.304 . S
C276 O270 1.272 1_455 S
C277 O269 1.311 . S
C277 O271 1.231 . S
O278 Zn260 1.953 . S
O278 C272 1.298 . S
O279 Zn280 1.953 . S
O279 C295 1.225 . S
Zn280 O279 1.953 . S
Zn280 O281 1.949 . S
Zn280 O287 1.919 . S
Zn280 O292 1.924 . S
O281 Zn280 1.949 . S
O281 Zn282 1.923 1_545 S
O281 Zn283 1.950 . S
O281 Zn284 1.945 1_545 S
Zn282 O281 1.923 1_565 S
Zn282 O285 1.933 . S
Zn282 O288 1.941 . S
Zn282 O289 1.965 . S
Zn283 O281 1.950 . S
Zn283 O290 1.938 . S
Zn283 O291 1.890 1_545 S
Zn283 O301 1.953 . S
Zn284 O281 1.945 1_565 S
Zn284 O286 1.932 . S
Zn284 O293 1.977 . S
Zn284 O294 1.910 1_565 S
O285 Zn282 1.933 . S
O285 C296 1.226 . S
O286 Zn284 1.932 . S
O286 C296 1.307 . S
O287 Zn280 1.919 . S
O287 C298 1.253 . S
O288 Zn282 1.941 . S
O288 C298 1.283 1_565 S
O289 Zn282 1.965 . S
O289 C297 1.303 . S
O290 Zn283 1.938 . S
O290 C297 1.247 1_545 S
O291 Zn283 1.890 1_565 S
O291 C299 1.328 . S
O292 Zn280 1.924 . S
O292 C300 1.311 . S
O293 Zn284 1.977 . S
O293 C299 1.272 . S
O294 Zn284 1.910 1_545 S
O294 C300 1.231 . S
C295 O279 1.225 . S
C295 O301 1.298 . S
C296 O285 1.226 . S
C296 O286 1.307 . S
C297 O289 1.303 . S
C297 O290 1.247 1_565 S
C298 O287 1.253 . S
C298 O288 1.283 1_545 S
C299 O291 1.328 . S
C299 O293 1.272 . S
C300 O292 1.311 . S
C300 O294 1.231 . S
O301 Zn283 1.953 . S
O301 C295 1.298 . S
O302 Zn303 1.953 . S
O302 C318 1.225 . S
Zn303 O302 1.953 . S
Zn303 O304 1.949 . S
Zn303 O310 1.919 . S
Zn303 O315 1.924 . S
O304 Zn303 1.949 . S
O304 Zn305 1.923 . S
O304 Zn306 1.950 . S
O304 Zn307 1.945 . S
Zn305 O304 1.923 . S
Zn305 O308 1.933 . S
Zn305 O311 1.941 . S
Zn305 O312 1.965 . S
Zn306 O304 1.950 . S
Zn306 O313 1.938 . S
Zn306 O314 1.906 . S
Zn306 O324 1.953 . S
Zn307 O304 1.945 . S
Zn307 O309 1.932 . S
Zn307 O316 1.977 . S
Zn307 O317 1.910 . S
O308 Zn305 1.933 . S
O308 C319 1.226 . S
O309 Zn307 1.932 . S
O309 C319 1.307 . S
O310 Zn303 1.919 . S
O310 C321 1.253 . S
O311 Zn305 1.941 . S
O311 C321 1.283 . S
O312 Zn305 1.965 . S
O312 C320 1.303 . S
O313 Zn306 1.938 . S
O313 C320 1.247 . S
O314 Zn306 1.906 . S
O314 C322 1.304 . S
O315 Zn303 1.924 . S
O315 C323 1.311 . S
O316 Zn307 1.977 . S
O316 C322 1.272 . S
O317 Zn307 1.910 . S
O317 C323 1.231 . S
C318 O302 1.225 . S
C318 O324 1.298 . S
C319 O308 1.226 . S
C319 O309 1.307 . S
C320 O312 1.303 . S
C320 O313 1.247 . S
C321 O310 1.253 . S
C321 O311 1.283 . S
C322 O314 1.304 . S
C322 O316 1.272 . S
C323 O315 1.311 . S
C323 O317 1.231 . S
O324 Zn306 1.953 . S
O324 C318 1.298 . S
O325 Zn326 1.953 1_655 S
O325 C341 1.225 . S
Zn326 O325 1.953 1_455 S
Zn326 O327 1.949 . S
Zn326 O333 1.919 . S
Zn326 O338 1.924 . S
O327 Zn326 1.949 . S
O327 Zn328 1.923 . S
O327 Zn329 1.950 1_455 S
O327 Zn330 1.945 . S
Zn328 O327 1.923 . S
Zn328 O331 1.933 . S
Zn328 O334 1.941 1_455 S
Zn328 O335 1.965 1_455 S
Zn329 O327 1.950 1_655 S
Zn329 O336 1.938 . S
Zn329 O337 1.906 1_655 S
Zn329 O347 1.953 . S
Zn330 O327 1.945 . S
Zn330 O332 1.932 . S
Zn330 O339 1.977 . S
Zn330 O340 1.910 . S
O331 Zn328 1.933 . S
O331 C342 1.226 . S
O332 Zn330 1.932 . S
O332 C342 1.307 . S
O333 Zn326 1.919 . S
O333 C344 1.253 . S
O334 Zn328 1.941 1_655 S
O334 C344 1.283 1_655 S
O335 Zn328 1.965 1_655 S
O335 C343 1.303 . S
O336 Zn329 1.938 . S
O336 C343 1.247 . S
O337 Zn329 1.906 1_455 S
O337 C345 1.304 . S
O338 Zn326 1.924 . S
O338 C346 1.311 . S
O339 Zn330 1.977 . S
O339 C345 1.272 . S
O340 Zn330 1.910 . S
O340 C346 1.231 . S
C341 O325 1.225 . S
C341 O347 1.298 . S
C342 O331 1.226 . S
C342 O332 1.307 . S
C343 O335 1.303 . S
C343 O336 1.247 . S
C344 O333 1.253 . S
C344 O334 1.283 1_455 S
C345 O337 1.304 . S
C345 O339 1.272 . S
C346 O338 1.311 . S
C346 O340 1.231 . S
O347 Zn329 1.953 . S
O347 C341 1.298 . S
H348 C354 0.930 . S
H349 C357 0.930 . S
H350 C358 0.930 . S
H351 C359 0.930 . S
H352 C362 0.930 . S
H353 C363 0.930 . S
C354 H348 0.930 . S
C354 C355 1.355 1_545 S
C354 C356 1.415 . S
C355 C354 1.355 1_565 S
C355 C357 1.419 . S
C356 C354 1.415 . S
C356 C361 1.425 1_545 S
C356 C363 1.409 . S
C357 H349 0.930 . S
C357 C355 1.419 . S
C357 C358 1.362 . S
C358 H350 0.930 . S
C358 C357 1.362 . S
C358 C361 1.409 . S
C359 H351 0.930 . S
C359 C360 1.355 . S
C359 C361 1.415 . S
C360 C359 1.355 . S
C360 C362 1.419 1_565 S
C361 C356 1.425 1_565 S
C361 C358 1.409 . S
C361 C359 1.415 . S
C362 H352 0.930 . S
C362 C360 1.419 1_545 S
C362 C363 1.362 . S
C363 H353 0.930 . S
C363 C356 1.409 . S
C363 C362 1.362 . S
H364 C370 0.930 . S
H365 C373 0.930 . S
H366 C374 0.930 . S
H367 C375 0.930 . S
H368 C378 0.930 . S
H369 C379 0.930 . S
C370 H364 0.930 . S
C370 C371 1.355 . S
C370 C372 1.415 . S
C371 C370 1.355 . S
C371 C373 1.419 . S
C372 C370 1.415 . S
C372 C377 1.425 . S
C372 C379 1.409 . S
C373 H365 0.930 . S
C373 C371 1.419 . S
C373 C374 1.362 . S
C374 H366 0.930 . S
C374 C373 1.362 . S
C374 C377 1.409 . S
C375 H367 0.930 . S
C375 C376 1.355 . S
C375 C377 1.415 . S
C376 C375 1.355 . S
C376 C378 1.419 . S
C377 C372 1.425 . S
C377 C374 1.409 . S
C377 C375 1.415 . S
C378 H368 0.930 . S
C378 C376 1.419 . S
C378 C379 1.362 . S
C379 H369 0.930 . S
C379 C372 1.409 . S
C379 C378 1.362 . S
H380 C386 0.930 . S
H381 C389 0.930 . S
H382 C390 0.930 . S
H383 C391 0.930 . S
H384 C394 0.930 . S
H385 C395 0.930 . S
C386 H380 0.930 . S
C386 C387 1.355 . S
C386 C388 1.415 . S
C387 C386 1.355 . S
C387 C389 1.419 . S
C388 C386 1.415 . S
C388 C393 1.425 . S
C388 C395 1.409 . S
C389 H381 0.930 . S
C389 C387 1.419 . S
C389 C390 1.362 . S
C390 H382 0.930 . S
C390 C389 1.362 . S
C390 C393 1.409 . S
C391 H383 0.930 . S
C391 C392 1.355 . S
C391 C393 1.415 . S
C392 C391 1.355 . S
C392 C394 1.419 . S
C393 C388 1.425 . S
C393 C390 1.409 . S
C393 C391 1.415 . S
C394 H384 0.930 . S
C394 C392 1.419 . S
C394 C395 1.362 . S
C395 H385 0.930 . S
C395 C388 1.409 . S
C395 C394 1.362 . S
H396 C402 0.930 . S
H397 C405 0.930 . S
H398 C406 0.930 . S
H399 C407 0.930 . S
H400 C410 0.930 . S
H401 C411 0.930 . S
C402 H396 0.930 . S
C402 C403 1.355 . S
C402 C404 1.415 . S
C403 C402 1.355 . S
C403 C405 1.419 . S
C404 C402 1.415 . S
C404 C409 1.425 . S
C404 C411 1.409 . S
C405 H397 0.930 . S
C405 C403 1.419 . S
C405 C406 1.362 . S
C406 H398 0.930 . S
C406 C405 1.362 . S
C406 C409 1.409 . S
C407 H399 0.930 . S
C407 C408 1.355 . S
C407 C409 1.415 . S
C408 C407 1.355 . S
C408 C410 1.419 . S
C409 C404 1.425 . S
C409 C406 1.409 . S
C409 C407 1.415 . S
C410 H400 0.930 . S
C410 C408 1.419 . S
C410 C411 1.362 . S
C411 H401 0.930 . S
C411 C404 1.409 . S
C411 C410 1.362 . S
H412 C418 0.930 1_554 S
H413 C421 0.930 . S
H414 C422 0.930 . S
H415 C423 0.930 . S
H416 C426 0.930 . S
H417 C427 0.930 . S
C418 H412 0.930 1_556 S
C418 C419 1.363 . S
C418 C420 1.415 . S
C419 C418 1.363 . S
C419 C421 1.411 1_545 S
C420 C418 1.415 . S
C420 C425 1.428 . S
C420 C427 1.409 . S
C421 H413 0.930 . S
C421 C419 1.411 1_565 S
C421 C422 1.362 . S
C422 H414 0.930 . S
C422 C421 1.362 . S
C422 C425 1.407 1_565 S
C423 H415 0.930 . S
C423 C424 1.354 1_565 S
C423 C425 1.414 1_565 S
C424 C423 1.354 1_545 S
C424 C426 1.419 . S
C425 C420 1.428 . S
C425 C422 1.407 1_545 S
C425 C423 1.414 1_545 S
C426 H416 0.930 . S
C426 C424 1.419 . S
C426 C427 1.362 . S
C427 H417 0.930 . S
C427 C420 1.409 . S
C427 C426 1.362 . S
H428 C434 0.930 . S
H429 C437 0.930 1_554 S
H430 C438 0.930 . S
H431 C439 0.930 . S
H432 C442 0.930 . S
H433 C443 0.930 . S
C434 H428 0.930 . S
C434 C435 1.355 . S
C434 C436 1.415 . S
C435 C434 1.355 . S
C435 C437 1.419 . S
C436 C434 1.415 . S
C436 C441 1.425 . S
C436 C443 1.409 . S
C437 H429 0.930 1_556 S
C437 C435 1.419 . S
C437 C438 1.362 . S
C438 H430 0.930 . S
C438 C437 1.362 . S
C438 C441 1.409 . S
C439 H431 0.930 . S
C439 C440 1.355 . S
C439 C441 1.415 . S
C440 C439 1.355 . S
C440 C442 1.419 . S
C441 C436 1.425 . S
C441 C438 1.409 . S
C441 C439 1.415 . S
C442 H432 0.930 . S
C442 C440 1.419 . S
C442 C443 1.362 . S
C443 H433 0.930 . S
C443 C436 1.409 . S
C443 C442 1.362 . S
H444 C450 0.930 . S
H445 C453 0.930 1_554 S
H446 C454 0.930 . S
H447 C455 0.930 . S
H448 C458 0.930 . S
H449 C459 0.930 . S
C450 H444 0.930 . S
C450 C451 1.355 . S
C450 C452 1.415 . S
C451 C450 1.355 . S
C451 C453 1.419 . S
C452 C450 1.415 . S
C452 C457 1.425 . S
C452 C459 1.409 . S
C453 H445 0.930 1_556 S
C453 C451 1.419 . S
C453 C454 1.362 . S
C454 H446 0.930 . S
C454 C453 1.362 . S
C454 C457 1.409 . S
C455 H447 0.930 . S
C455 C456 1.355 . S
C455 C457 1.415 . S
C456 C455 1.355 . S
C456 C458 1.419 . S
C457 C452 1.425 . S
C457 C454 1.409 . S
C457 C455 1.415 . S
C458 H448 0.930 . S
C458 C456 1.419 . S
C458 C459 1.362 . S
C459 H449 0.930 . S
C459 C452 1.409 . S
C459 C458 1.362 . S
H460 C466 0.930 . S
H461 C469 0.930 . S
H462 C470 0.930 . S
H463 C471 0.930 . S
H464 C474 0.930 . S
H465 C475 0.930 . S
C466 H460 0.930 . S
C466 C467 1.362 . S
C466 C468 1.415 . S
C467 C466 1.362 . S
C467 C469 1.418 1_656 S
C468 C466 1.415 . S
C468 C473 1.425 1_655 S
C468 C475 1.409 . S
C469 H461 0.930 . S
C469 C467 1.418 1_454 S
C469 C470 1.362 1_554 S
C470 H462 0.930 . S
C470 C469 1.362 1_556 S
C470 C473 1.409 . S
C471 H463 0.930 . S
C471 C472 1.355 . S
C471 C473 1.415 . S
C472 C471 1.355 . S
C472 C474 1.419 1_455 S
C473 C468 1.425 1_455 S
C473 C470 1.409 . S
C473 C471 1.415 . S
C474 H464 0.930 . S
C474 C472 1.419 1_655 S
C474 C475 1.362 . S
C475 H465 0.930 . S
C475 C468 1.409 . S
C475 C474 1.362 . S
H476 C482 0.930 . S
H477 C485 0.930 . S
H478 C486 0.930 . S
H479 C487 0.930 . S
H480 C490 0.930 . S
H481 C491 0.930 . S
C482 H476 0.930 . S
C482 C483 1.355 . S
C482 C484 1.415 . S
C483 C482 1.355 . S
C483 C485 1.419 . S
C484 C482 1.415 . S
C484 C489 1.425 . S
C484 C491 1.409 . S
C485 H477 0.930 . S
C485 C483 1.419 . S
C485 C486 1.362 . S
C486 H478 0.930 . S
C486 C485 1.362 . S
C486 C489 1.409 . S
C487 H479 0.930 . S
C487 C488 1.355 . S
C487 C489 1.415 . S
C488 C487 1.355 . S
C488 C490 1.419 . S
C489 C484 1.425 . S
C489 C486 1.409 . S
C489 C487 1.415 . S
C490 H480 0.930 . S
C490 C488 1.419 . S
C490 C491 1.362 . S
C491 H481 0.930 . S
C491 C484 1.409 . S
C491 C490 1.362 . S
H492 C498 0.930 . S
H493 C501 0.930 . S
H494 C502 0.930 . S
H495 C503 0.930 . S
H496 C506 0.930 . S
H497 C507 0.930 . S
C498 H492 0.930 . S
C498 C499 1.355 1_545 S
C498 C500 1.415 . S
C499 C498 1.355 1_565 S
C499 C501 1.419 . S
C500 C498 1.415 . S
C500 C505 1.425 1_545 S
C500 C507 1.409 . S
C501 H493 0.930 . S
C501 C499 1.419 . S
C501 C502 1.362 . S
C502 H494 0.930 . S
C502 C501 1.362 . S
C502 C505 1.409 . S
C503 H495 0.930 . S
C503 C504 1.362 . S
C503 C505 1.415 . S
C504 C503 1.362 . S
C504 C506 1.408 1_565 S
C505 C500 1.425 1_565 S
C505 C502 1.409 . S
C505 C503 1.415 . S
C506 H496 0.930 . S
C506 C504 1.408 1_545 S
C506 C507 1.362 . S
C507 H497 0.930 . S
C507 C500 1.409 . S
C507 C506 1.362 . S
H508 C514 0.930 . S
H509 C517 0.930 . S
H510 C518 0.930 . S
H511 C519 0.930 . S
H512 C522 0.930 . S
H513 C523 0.930 . S
C514 H508 0.930 . S
C514 C515 1.355 . S
C514 C516 1.415 . S
C515 C514 1.355 . S
C515 C517 1.419 . S
C516 C514 1.415 . S
C516 C521 1.425 . S
C516 C523 1.409 . S
C517 H509 0.930 . S
C517 C515 1.419 . S
C517 C518 1.362 . S
C518 H510 0.930 . S
C518 C517 1.362 . S
C518 C521 1.409 . S
C519 H511 0.930 . S
C519 C520 1.355 . S
C519 C521 1.415 . S
C520 C519 1.355 . S
C520 C522 1.419 . S
C521 C516 1.425 . S
C521 C518 1.409 . S
C521 C519 1.415 . S
C522 H512 0.930 . S
C522 C520 1.419 . S
C522 C523 1.362 . S
C523 H513 0.930 . S
C523 C516 1.409 . S
C523 C522 1.362 . S
H524 C530 0.930 . S
H525 C533 0.930 . S
H526 C534 0.930 . S
H527 C535 0.930 . S
H528 C538 0.930 . S
H529 C539 0.930 . S
C530 H524 0.930 . S
C530 C531 1.355 . S
C530 C532 1.415 . S
C531 C530 1.355 . S
C531 C533 1.419 . S
C532 C530 1.415 . S
C532 C537 1.425 . S
C532 C539 1.409 . S
C533 H525 0.930 . S
C533 C531 1.419 . S
C533 C534 1.362 . S
C534 H526 0.930 . S
C534 C533 1.362 . S
C534 C537 1.409 . S
C535 H527 0.930 . S
C535 C536 1.355 . S
C535 C537 1.415 . S
C536 C535 1.355 . S
C536 C538 1.419 . S
C537 C532 1.425 . S
C537 C534 1.409 . S
C537 C535 1.415 . S
C538 H528 0.930 . S
C538 C536 1.419 . S
C538 C539 1.362 . S
C539 H529 0.930 . S
C539 C532 1.409 . S
C539 C538 1.362 . S
H540 C546 0.930 . S
H541 C549 0.930 . S
H542 C550 0.930 . S
H543 C551 0.930 . S
H544 C554 0.930 . S
H545 C555 0.930 1_655 S
C546 H540 0.930 . S
C546 C547 1.355 . S
C546 C548 1.415 1_655 S
C547 C546 1.355 . S
C547 C549 1.419 1_655 S
C548 C546 1.415 1_455 S
C548 C553 1.425 . S
C548 C555 1.409 . S
C549 H541 0.930 . S
C549 C547 1.419 1_455 S
C549 C550 1.362 . S
C550 H542 0.930 . S
C550 C549 1.362 . S
C550 C553 1.409 . S
C551 H543 0.930 . S
C551 C552 1.355 . S
C551 C553 1.415 . S
C552 C551 1.355 . S
C552 C554 1.419 . S
C553 C548 1.425 . S
C553 C550 1.409 . S
C553 C551 1.415 . S
C554 H544 0.930 . S
C554 C552 1.419 . S
C554 C555 1.362 . S
C555 H545 0.930 1_455 S
C555 C548 1.409 . S
C555 C554 1.362 . S
H556 C562 0.930 . S
H557 C565 0.930 . S
H558 C566 0.930 . S
H559 C567 0.930 . S
H560 C570 0.930 1_565 S
H561 C571 0.930 . S
C562 H556 0.930 . S
C562 C563 1.341 1_565 S
C562 C564 1.415 1_565 S
C563 C562 1.341 1_545 S
C563 C565 1.452 . S
C564 C562 1.415 1_545 S
C564 C569 1.425 . S
C564 C571 1.409 1_545 S
C565 H557 0.930 . S
C565 C563 1.452 . S
C565 C566 1.362 . S
C566 H558 0.930 . S
C566 C565 1.362 . S
C566 C569 1.409 . S
C567 H559 0.930 . S
C567 C568 1.355 . S
C567 C569 1.415 . S
C568 C567 1.355 . S
C568 C570 1.419 . S
C569 C564 1.425 . S
C569 C566 1.409 . S
C569 C567 1.415 . S
C570 H560 0.930 1_545 S
C570 C568 1.419 . S
C570 C571 1.362 1_545 S
C571 H561 0.930 . S
C571 C564 1.409 1_565 S
C571 C570 1.362 1_565 S
H572 C578 0.930 . S
H573 C581 0.930 . S
H574 C582 0.930 . S
H575 C583 0.930 . S
H576 C586 0.930 . S
H577 C587 0.930 . S
C578 H572 0.930 . S
C578 C579 1.355 . S
C578 C580 1.415 . S
C579 C578 1.355 . S
C579 C581 1.419 . S
C580 C578 1.415 . S
C580 C585 1.425 . S
C580 C587 1.409 . S
C581 H573 0.930 . S
C581 C579 1.419 . S
C581 C582 1.362 . S
C582 H574 0.930 . S
C582 C581 1.362 . S
C582 C585 1.409 . S
C583 H575 0.930 . S
C583 C584 1.355 . S
C583 C585 1.415 . S
C584 C583 1.355 . S
C584 C586 1.419 . S
C585 C580 1.425 . S
C585 C582 1.409 . S
C585 C583 1.415 . S
C586 H576 0.930 . S
C586 C584 1.419 . S
C586 C587 1.362 . S
C587 H577 0.930 . S
C587 C580 1.409 . S
C587 C586 1.362 . S
H588 C594 0.930 . S
H589 C597 0.930 . S
H590 C598 0.930 . S
H591 C599 0.930 . S
H592 C602 0.930 . S
H593 C603 0.930 . S
C594 H588 0.930 . S
C594 C595 1.355 . S
C594 C596 1.415 . S
C595 C594 1.355 . S
C595 C597 1.419 . S
C596 C594 1.415 . S
C596 C601 1.425 . S
C596 C603 1.409 . S
C597 H589 0.930 . S
C597 C595 1.419 . S
C597 C598 1.362 . S
C598 H590 0.930 . S
C598 C597 1.362 . S
C598 C601 1.409 . S
C599 H591 0.930 . S
C599 C600 1.355 . S
C599 C601 1.415 . S
C600 C599 1.355 . S
C600 C602 1.419 . S
C601 C596 1.425 . S
C601 C598 1.409 . S
C601 C599 1.415 . S
C602 H592 0.930 . S
C602 C600 1.419 . S
C602 C603 1.362 . S
C603 H593 0.930 . S
C603 C596 1.409 . S
C603 C602 1.362 . S
H604 C610 0.930 . S
H605 C613 0.930 . S
H606 C614 0.930 . S
H607 C615 0.930 1_554 S
H608 C618 0.930 . S
H609 C619 0.930 . S
C610 H604 0.930 . S
C610 C611 1.355 1_556 S
C610 C612 1.415 . S
C611 C610 1.355 1_554 S
C611 C613 1.419 . S
C612 C610 1.415 . S
C612 C617 1.425 1_556 S
C612 C619 1.409 . S
C613 H605 0.930 . S
C613 C611 1.419 . S
C613 C614 1.362 . S
C614 H606 0.930 . S
C614 C613 1.362 . S
C614 C617 1.409 . S
C615 H607 0.930 1_556 S
C615 C616 1.355 . S
C615 C617 1.415 1_556 S
C616 C615 1.355 . S
C616 C618 1.419 . S
C617 C612 1.425 1_554 S
C617 C614 1.409 . S
C617 C615 1.415 1_554 S
C618 H608 0.930 . S
C618 C616 1.419 . S
C618 C619 1.362 . S
C619 H609 0.930 . S
C619 C612 1.409 . S
C619 C618 1.362 . S
H620 C626 0.930 . S
H621 C629 0.930 . S
H622 C630 0.930 . S
H623 C631 0.930 . S
H624 C634 0.930 . S
H625 C635 0.930 . S
C626 H620 0.930 . S
C626 C627 1.355 1_545 S
C626 C628 1.415 1_554 S
C627 C626 1.355 1_565 S
C627 C629 1.419 1_554 S
C628 C626 1.415 1_556 S
C628 C633 1.425 1_545 S
C628 C635 1.409 . S
C629 H621 0.930 . S
C629 C627 1.419 1_556 S
C629 C630 1.362 . S
C630 H622 0.930 . S
C630 C629 1.362 . S
C630 C633 1.409 . S
C631 H623 0.930 . S
C631 C632 1.355 1_565 S
C631 C633 1.415 . S
C632 C631 1.355 1_545 S
C632 C634 1.419 . S
C633 C628 1.425 1_565 S
C633 C630 1.409 . S
C633 C631 1.415 . S
C634 H624 0.930 . S
C634 C632 1.419 . S
C634 C635 1.362 . S
C635 H625 0.930 . S
C635 C628 1.409 . S
C635 C634 1.362 . S
H636 C642 0.930 . S
H637 C645 0.930 . S
H638 C646 0.930 1_554 S
H639 C647 0.930 . S
H640 C650 0.930 . S
H641 C651 0.930 . S
C642 H636 0.930 . S
C642 C643 1.355 . S
C642 C644 1.415 . S
C643 C642 1.355 . S
C643 C645 1.419 1_556 S
C644 C642 1.415 . S
C644 C649 1.425 . S
C644 C651 1.409 . S
C645 H637 0.930 . S
C645 C643 1.419 1_554 S
C645 C646 1.362 1_554 S
C646 H638 0.930 1_556 S
C646 C645 1.362 1_556 S
C646 C649 1.409 . S
C647 H639 0.930 . S
C647 C648 1.355 . S
C647 C649 1.415 . S
C648 C647 1.355 . S
C648 C650 1.419 . S
C649 C644 1.425 . S
C649 C646 1.409 . S
C649 C647 1.415 . S
C650 H640 0.930 . S
C650 C648 1.419 . S
C650 C651 1.362 . S
C651 H641 0.930 . S
C651 C644 1.409 . S
C651 C650 1.362 . S
H652 C658 0.930 . S
H653 C661 0.930 . S
H654 C662 0.930 . S
H655 C663 0.930 . S
H656 C666 0.930 . S
H657 C667 0.930 . S
C658 H652 0.930 . S
C658 C659 1.355 . S
C658 C660 1.415 . S
C659 C658 1.355 . S
C659 C661 1.419 . S
C660 C658 1.415 . S
C660 C665 1.425 . S
C660 C667 1.409 . S
C661 H653 0.930 . S
C661 C659 1.419 . S
C661 C662 1.362 . S
C662 H654 0.930 . S
C662 C661 1.362 . S
C662 C665 1.409 . S
C663 H655 0.930 . S
C663 C664 1.355 . S
C663 C665 1.415 . S
C664 C663 1.355 . S
C664 C666 1.419 . S
C665 C660 1.425 . S
C665 C662 1.409 . S
C665 C663 1.415 . S
C666 H656 0.930 . S
C666 C664 1.419 . S
C666 C667 1.362 . S
C667 H657 0.930 . S
C667 C660 1.409 . S
C667 C666 1.362 . S
H668 C674 0.930 . S
H669 C677 0.930 . S
H670 C678 0.930 . S
H671 C679 0.930 . S
H672 C682 0.930 . S
H673 C683 0.930 . S
C674 H668 0.930 . S
C674 C675 1.355 1_455 S
C674 C676 1.415 . S
C675 C674 1.355 1_655 S
C675 C677 1.419 . S
C676 C674 1.415 . S
C676 C681 1.425 1_455 S
C676 C683 1.409 . S
C677 H669 0.930 . S
C677 C675 1.419 . S
C677 C678 1.362 . S
C678 H670 0.930 . S
C678 C677 1.362 . S
C678 C681 1.409 . S
C679 H671 0.930 . S
C679 C680 1.355 . S
C679 C681 1.415 . S
C680 C679 1.355 . S
C680 C682 1.419 1_655 S
C681 C676 1.425 1_655 S
C681 C678 1.409 . S
C681 C679 1.415 . S
C682 H672 0.930 . S
C682 C680 1.419 1_455 S
C682 C683 1.362 . S
C683 H673 0.930 . S
C683 C676 1.409 . S
C683 C682 1.362 . S
H684 C690 0.930 . S
H685 C693 0.930 . S
H686 C694 0.930 . S
H687 C695 0.930 1_545 S
H688 C698 0.930 . S
H689 C699 0.930 . S
C690 H684 0.930 . S
C690 C691 1.355 . S
C690 C692 1.415 . S
C691 C690 1.355 . S
C691 C693 1.419 1_565 S
C692 C690 1.415 . S
C692 C697 1.425 . S
C692 C699 1.409 . S
C693 H685 0.930 . S
C693 C691 1.419 1_545 S
C693 C694 1.362 . S
C694 H686 0.930 . S
C694 C693 1.362 . S
C694 C697 1.409 1_545 S
C695 H687 0.930 1_565 S
C695 C696 1.355 . S
C695 C697 1.415 . S
C696 C695 1.355 . S
C696 C698 1.419 . S
C697 C692 1.425 . S
C697 C694 1.409 1_565 S
C697 C695 1.415 . S
C698 H688 0.930 . S
C698 C696 1.419 . S
C698 C699 1.362 . S
C699 H689 0.930 . S
C699 C692 1.409 . S
C699 C698 1.362 . S
H700 C706 0.930 . S
H701 C709 0.930 . S
H702 C710 0.930 . S
H703 C711 0.930 . S
H704 C714 0.930 . S
H705 C715 0.930 . S
C706 H700 0.930 . S
C706 C707 1.355 . S
C706 C708 1.415 . S
C707 C706 1.355 . S
C707 C709 1.419 . S
C708 C706 1.415 . S
C708 C713 1.425 . S
C708 C715 1.409 . S
C709 H701 0.930 . S
C709 C707 1.419 . S
C709 C710 1.362 . S
C710 H702 0.930 . S
C710 C709 1.362 . S
C710 C713 1.409 . S
C711 H703 0.930 . S
C711 C712 1.355 . S
C711 C713 1.415 . S
C712 C711 1.355 . S
C712 C714 1.419 . S
C713 C708 1.425 . S
C713 C710 1.409 . S
C713 C711 1.415 . S
C714 H704 0.930 . S
C714 C712 1.419 . S
C714 C715 1.362 . S
C715 H705 0.930 . S
C715 C708 1.409 . S
C715 C714 1.362 . S
H716 C722 0.930 . S
H717 C725 0.930 . S
H718 C726 0.930 . S
H719 C727 0.930 . S
H720 C730 0.930 . S
H721 C731 0.930 . S
C722 H716 0.930 . S
C722 C723 1.355 . S
C722 C724 1.415 . S
C723 C722 1.355 . S
C723 C725 1.419 . S
C724 C722 1.415 . S
C724 C729 1.425 . S
C724 C731 1.409 . S
C725 H717 0.930 . S
C725 C723 1.419 . S
C725 C726 1.362 . S
C726 H718 0.930 . S
C726 C725 1.362 . S
C726 C729 1.409 . S
C727 H719 0.930 . S
C727 C728 1.355 . S
C727 C729 1.415 . S
C728 C727 1.355 . S
C728 C730 1.419 . S
C729 C724 1.425 . S
C729 C726 1.409 . S
C729 C727 1.415 . S
C730 H720 0.930 . S
C730 C728 1.419 . S
C730 C731 1.362 . S
C731 H721 0.930 . S
C731 C724 1.409 . S
C731 C730 1.362 . S
C355 C215 1.646 1_565 S
C360 C272 1.628 . S
C376 C295 1.805 . S
C371 C247 1.813 . S
C392 C318 1.695 . S
C387 C151 1.627 . S
C408 C345 1.576 . S
C403 C183 1.716 . S
C424 C273 1.561 . S
C419 C87 1.528 1_556 S
C435 C119 1.518 1_556 S
C440 C296 1.620 . S
C451 C23 1.498 . S
C456 C319 1.523 . S
C467 C55 1.603 1_556 S
C472 C344 1.659 . S
C488 C274 0.415 . S
C483 C189 0.427 . S
C504 C297 0.300 . S
C499 C221 0.505 1_565 S
C520 C320 0.361 . S
C515 C253 0.396 . S
C531 C157 0.607 . S
C536 C346 0.677 . S
C547 C61 0.585 1_655 S
C552 C277 0.562 . S
C568 C300 0.526 . S
C563 C93 0.539 . S
C584 C323 0.577 . S
C579 C125 0.580 . S
C595 C29 0.505 . S
C600 C343 0.193 . S
C611 C177 1.821 . S
C616 C275 1.759 . S
C627 C209 1.760 1_565 S
C632 C298 1.756 . S
C648 C321 1.760 . S
C643 C241 1.749 1_556 S
C664 C342 1.600 . S
C659 C145 1.510 1_556 S
C675 C49 1.869 1_655 S
C680 C276 1.795 1_655 S
C696 C299 1.726 . S
C691 C81 1.755 1_565 S
C712 C322 1.701 . S
C707 C113 1.747 . S
C723 C17 1.818 . S
C728 C341 1.889 . S
