# Generated by pormake.
# Topology ctn, (3,4)-cn, num edge types: 1
# Building blocks:
#     Node 0, Type 0, BuildingBlock: BETDIP_clean_linker_0, # of connection points: 3
#     Node 1, Type 0, BuildingBlock: BETDIP_clean_linker_0, # of connection points: 3
#     Node 2, Type 0, BuildingBlock: BETDIP_clean_linker_0, # of connection points: 3
#     Node 3, Type 0, BuildingBlock: BETDIP_clean_linker_0, # of connection points: 3
#     Node 4, Type 0, BuildingBlock: BETDIP_clean_linker_0, # of connection points: 3
#     Node 5, Type 0, BuildingBlock: BETDIP_clean_linker_0, # of connection points: 3
#     Node 6, Type 0, BuildingBlock: BETDIP_clean_linker_0, # of connection points: 3
#     Node 7, Type 0, BuildingBlock: BETDIP_clean_linker_0, # of connection points: 3
#     Node 8, Type 0, BuildingBlock: BETDIP_clean_linker_0, # of connection points: 3
#     Node 9, Type 0, BuildingBlock: BETDIP_clean_linker_0, # of connection points: 3
#     Node 10, Type 0, BuildingBlock: BETDIP_clean_linker_0, # of connection points: 3
#     Node 11, Type 0, BuildingBlock: BETDIP_clean_linker_0, # of connection points: 3
#     Node 12, Type 0, BuildingBlock: BETDIP_clean_linker_0, # of connection points: 3
#     Node 13, Type 0, BuildingBlock: BETDIP_clean_linker_0, # of connection points: 3
#     Node 14, Type 0, BuildingBlock: BETDIP_clean_linker_0, # of connection points: 3
#     Node 15, Type 0, BuildingBlock: BETDIP_clean_linker_0, # of connection points: 3
#     Node 16, Type 1, BuildingBlock: AZAVOO_clean_sbu_0, # of connection points: 4
#     Node 17, Type 1, BuildingBlock: AZAVOO_clean_sbu_0, # of connection points: 4
#     Node 18, Type 1, BuildingBlock: AZAVOO_clean_sbu_0, # of connection points: 4
#     Node 19, Type 1, BuildingBlock: AZAVOO_clean_sbu_0, # of connection points: 4
#     Node 20, Type 1, BuildingBlock: AZAVOO_clean_sbu_0, # of connection points: 4
#     Node 21, Type 1, BuildingBlock: AZAVOO_clean_sbu_0, # of connection points: 4
#     Node 22, Type 1, BuildingBlock: AZAVOO_clean_sbu_0, # of connection points: 4
#     Node 23, Type 1, BuildingBlock: AZAVOO_clean_sbu_0, # of connection points: 4
#     Node 24, Type 1, BuildingBlock: AZAVOO_clean_sbu_0, # of connection points: 4
#     Node 25, Type 1, BuildingBlock: AZAVOO_clean_sbu_0, # of connection points: 4
#     Node 26, Type 1, BuildingBlock: AZAVOO_clean_sbu_0, # of connection points: 4
#     Node 27, Type 1, BuildingBlock: AZAVOO_clean_sbu_0, # of connection points: 4
#     Edge 28, Type (0, 1), BuildingBlock: XUDNAN_clean_linker_2, # of connection points: 2
#     Edge 29, Type (0, 1), BuildingBlock: XUDNAN_clean_linker_2, # of connection points: 2
#     Edge 30, Type (0, 1), BuildingBlock: XUDNAN_clean_linker_2, # of connection points: 2
#     Edge 31, Type (0, 1), BuildingBlock: XUDNAN_clean_linker_2, # of connection points: 2
#     Edge 32, Type (0, 1), BuildingBlock: XUDNAN_clean_linker_2, # of connection points: 2
#     Edge 33, Type (0, 1), BuildingBlock: XUDNAN_clean_linker_2, # of connection points: 2
#     Edge 34, Type (0, 1), BuildingBlock: XUDNAN_clean_linker_2, # of connection points: 2
#     Edge 35, Type (0, 1), BuildingBlock: XUDNAN_clean_linker_2, # of connection points: 2
#     Edge 36, Type (0, 1), BuildingBlock: XUDNAN_clean_linker_2, # of connection points: 2
#     Edge 37, Type (0, 1), BuildingBlock: XUDNAN_clean_linker_2, # of connection points: 2
#     Edge 38, Type (0, 1), BuildingBlock: XUDNAN_clean_linker_2, # of connection points: 2
#     Edge 39, Type (0, 1), BuildingBlock: XUDNAN_clean_linker_2, # of connection points: 2
#     Edge 40, Type (0, 1), BuildingBlock: XUDNAN_clean_linker_2, # of connection points: 2
#     Edge 41, Type (0, 1), BuildingBlock: XUDNAN_clean_linker_2, # of connection points: 2
#     Edge 42, Type (0, 1), BuildingBlock: XUDNAN_clean_linker_2, # of connection points: 2
#     Edge 43, Type (0, 1), BuildingBlock: XUDNAN_clean_linker_2, # of connection points: 2
#     Edge 44, Type (0, 1), BuildingBlock: XUDNAN_clean_linker_2, # of connection points: 2
#     Edge 45, Type (0, 1), BuildingBlock: XUDNAN_clean_linker_2, # of connection points: 2
#     Edge 46, Type (0, 1), BuildingBlock: XUDNAN_clean_linker_2, # of connection points: 2
#     Edge 47, Type (0, 1), BuildingBlock: XUDNAN_clean_linker_2, # of connection points: 2
#     Edge 48, Type (0, 1), BuildingBlock: XUDNAN_clean_linker_2, # of connection points: 2
#     Edge 49, Type (0, 1), BuildingBlock: XUDNAN_clean_linker_2, # of connection points: 2
#     Edge 50, Type (0, 1), BuildingBlock: XUDNAN_clean_linker_2, # of connection points: 2
#     Edge 51, Type (0, 1), BuildingBlock: XUDNAN_clean_linker_2, # of connection points: 2
#     Edge 52, Type (0, 1), BuildingBlock: XUDNAN_clean_linker_2, # of connection points: 2
#     Edge 53, Type (0, 1), BuildingBlock: XUDNAN_clean_linker_2, # of connection points: 2
#     Edge 54, Type (0, 1), BuildingBlock: XUDNAN_clean_linker_2, # of connection points: 2
#     Edge 55, Type (0, 1), BuildingBlock: XUDNAN_clean_linker_2, # of connection points: 2
#     Edge 56, Type (0, 1), BuildingBlock: XUDNAN_clean_linker_2, # of connection points: 2
#     Edge 57, Type (0, 1), BuildingBlock: XUDNAN_clean_linker_2, # of connection points: 2
#     Edge 58, Type (0, 1), BuildingBlock: XUDNAN_clean_linker_2, # of connection points: 2
#     Edge 59, Type (0, 1), BuildingBlock: XUDNAN_clean_linker_2, # of connection points: 2
#     Edge 60, Type (0, 1), BuildingBlock: XUDNAN_clean_linker_2, # of connection points: 2
#     Edge 61, Type (0, 1), BuildingBlock: XUDNAN_clean_linker_2, # of connection points: 2
#     Edge 62, Type (0, 1), BuildingBlock: XUDNAN_clean_linker_2, # of connection points: 2
#     Edge 63, Type (0, 1), BuildingBlock: XUDNAN_clean_linker_2, # of connection points: 2
#     Edge 64, Type (0, 1), BuildingBlock: XUDNAN_clean_linker_2, # of connection points: 2
#     Edge 65, Type (0, 1), BuildingBlock: XUDNAN_clean_linker_2, # of connection points: 2
#     Edge 66, Type (0, 1), BuildingBlock: XUDNAN_clean_linker_2, # of connection points: 2
#     Edge 67, Type (0, 1), BuildingBlock: XUDNAN_clean_linker_2, # of connection points: 2
#     Edge 68, Type (0, 1), BuildingBlock: XUDNAN_clean_linker_2, # of connection points: 2
#     Edge 69, Type (0, 1), BuildingBlock: XUDNAN_clean_linker_2, # of connection points: 2
#     Edge 70, Type (0, 1), BuildingBlock: XUDNAN_clean_linker_2, # of connection points: 2
#     Edge 71, Type (0, 1), BuildingBlock: XUDNAN_clean_linker_2, # of connection points: 2
#     Edge 72, Type (0, 1), BuildingBlock: XUDNAN_clean_linker_2, # of connection points: 2
#     Edge 73, Type (0, 1), BuildingBlock: XUDNAN_clean_linker_2, # of connection points: 2
#     Edge 74, Type (0, 1), BuildingBlock: XUDNAN_clean_linker_2, # of connection points: 2
#     Edge 75, Type (0, 1), BuildingBlock: XUDNAN_clean_linker_2, # of connection points: 2
# Relax obj value: 0.067
# Max RMSD: 0.204
# Mean RMSD: 0.114
data_MOF--net-ctn--node1-AZAVOO_clean_sbu_0--node2-BETDIP_clean_linker_0--edge1-XUDNAN_clean_linker_2
_symmetry_space_group_name_H-M    P1
_symmetry_Int_Tables_number       1
_symmetry_cell_setting            triclinic
loop_
_symmetry_equiv_pos_as_xyz
'x, y, z'
_cell_length_a     51.504064
_cell_length_b     52.734377
_cell_length_c     57.836523
_cell_angle_alpha  93.58642
_cell_angle_beta   96.864237
_cell_angle_gamma 96.172145
loop_
_atom_site_label
_atom_site_type_symbol
_atom_site_fract_x
_atom_site_fract_y
_atom_site_fract_z
_atom_type_partial_charge
H0 H 1.00213 0.04427 0.0365 0.0
H1 H 0.05445 0.01655 0.99107 0.0
H2 H 0.0446 0.98066 0.05453 0.0
H3 H 0.0553 0.05446 0.97782 0.0
C4 C 0.0367 0.06159 0.98005 0.0
C5 C 0.01608 0.03104 0.03283 0.0
C6 C 0.02201 0.01239 0.04839 0.0
C7 C 0.028 0.03302 0.01242 0.0
C8 C 0.04542 0.01546 0.00694 0.0
C9 C 0.05144 0.99635 0.02192 0.0
C10 C 0.03979 0.9951 0.04274 0.0
N11 N 0.02182 0.05281 0.99778 0.0
H12 H 0.27036 0.71756 0.21321 0.0
H13 H 0.34726 0.75761 0.23416 0.0
H14 H 0.31223 0.70624 0.27991 0.0
H15 H 0.32861 0.78873 0.21445 0.0
C16 C 0.31826 0.77764 0.19898 0.0
C17 C 0.28764 0.72184 0.2261 0.0
C18 C 0.28934 0.70936 0.24683 0.0
C19 C 0.3081 0.73989 0.22185 0.0
C20 C 0.33079 0.74492 0.23825 0.0
C21 C 0.33257 0.73334 0.25958 0.0
C22 C 0.31165 0.71531 0.26359 0.0
N23 N 0.30542 0.75277 0.20099 0.0
H24 H 0.98003 0.51935 0.02079 0.0
H25 H 0.03744 0.49449 0.07145 0.0
H26 H 0.9872 0.5495 0.09271 0.0
H27 H 0.02402 0.45682 0.04869 0.0
C28 C 0.02375 0.46325 0.03118 0.0
C29 C 0.9893 0.52032 0.03871 0.0
C30 C 0.98079 0.53623 0.05604 0.0
C31 C 0.00911 0.50483 0.04426 0.0
C32 C 0.02181 0.50625 0.06721 0.0
C33 C 0.01433 0.52249 0.08484 0.0
C34 C 0.99354 0.53733 0.07917 0.0
N35 N 0.01531 0.4874 0.02655 0.0
H36 H 0.70824 0.79366 0.19339 0.0
H37 H 0.7244 0.8704 0.22445 0.0
H38 H 0.77836 0.83937 0.18138 0.0
H39 H 0.68765 0.78716 0.22457 0.0
C40 C 0.68068 0.80495 0.23024 0.0
C41 C 0.72104 0.81151 0.19663 0.0
C42 C 0.74359 0.81475 0.18528 0.0
C43 C 0.71465 0.83152 0.2113 0.0
C44 C 0.73053 0.85501 0.21391 0.0
C45 C 0.75412 0.85841 0.20373 0.0
C46 C 0.76029 0.83791 0.18924 0.0
N47 N 0.69276 0.8287 0.22414 0.0
H48 H 0.02492 0.97339 0.45295 0.0
H49 H 0.08254 0.01853 0.50305 0.0
H50 H 0.06125 0.04619 0.43587 0.0
H51 H 0.057 0.99597 0.52855 0.0
C52 C 0.05434 0.9769 0.51972 0.0
C53 C 0.03854 0.9906 0.45748 0.0
C54 C 0.04102 0.00941 0.44139 0.0
C55 C 0.05308 0.9938 0.47975 0.0
C56 C 0.07079 0.01604 0.48607 0.0
C57 C 0.07347 0.03513 0.47034 0.0
C58 C 0.05851 0.03172 0.44814 0.0
N59 N 0.05003 0.97377 0.49491 0.0
H60 H 0.20042 0.73055 0.7933 0.0
H61 H 0.23758 0.67826 0.75223 0.0
H62 H 0.27807 0.71317 0.81813 0.0
H63 H 0.20988 0.69749 0.72144 0.0
C64 C 0.19225 0.69937 0.72971 0.0
C65 C 0.2176 0.72095 0.79094 0.0
C66 C 0.23954 0.72433 0.80813 0.0
C67 C 0.21717 0.70524 0.77056 0.0
C68 C 0.23859 0.69145 0.76752 0.0
C69 C 0.26045 0.6935 0.78509 0.0
C70 C 0.26093 0.71055 0.80502 0.0
N71 N 0.19391 0.70281 0.7544 0.0
H72 H 0.01031 0.54757 0.47106 0.0
H73 H 0.95692 0.47916 0.45405 0.0
H74 H 0.93506 0.54124 0.49697 0.0
H75 H 0.97842 0.48823 0.41646 0.0
C76 C 0.9982 0.48916 0.4257 0.0
C77 C 0.99137 0.53697 0.47233 0.0
C78 C 0.97309 0.5479 0.48489 0.0
C79 C 0.98538 0.51259 0.46083 0.0
C80 C 0.96129 0.49821 0.46274 0.0
C81 C 0.94318 0.50818 0.47624 0.0
C82 C 0.94911 0.53321 0.48697 0.0
N83 N 0.00436 0.50273 0.44801 0.0
H84 H 0.79302 0.8088 0.75662 0.0
H85 H 0.82899 0.77045 0.81362 0.0
H86 H 0.76047 0.80847 0.82157 0.0
H87 H 0.8322 0.80962 0.74411 0.0
C88 C 0.84139 0.79336 0.75041 0.0
C89 C 0.7938 0.80335 0.77438 0.0
C90 C 0.77432 0.81024 0.78789 0.0
C91 C 0.81366 0.78901 0.78365 0.0
C92 C 0.81356 0.78122 0.80642 0.0
C93 C 0.79462 0.7884 0.82032 0.0
C94 C 0.775 0.80271 0.81082 0.0
N95 N 0.8341 0.7821 0.77079 0.0
H96 H 0.29212 0.3177 0.25829 0.0
H97 H 0.3115 0.24936 0.28929 0.0
H98 H 0.2696 0.30281 0.32564 0.0
H99 H 0.33953 0.24699 0.26298 0.0
C100 C 0.33725 0.26172 0.25086 0.0
C101 C 0.29102 0.30521 0.27244 0.0
C102 C 0.27872 0.31242 0.29173 0.0
C103 C 0.30348 0.28305 0.27166 0.0
C104 C 0.3026 0.26698 0.29013 0.0
C105 C 0.29013 0.27362 0.30977 0.0
C106 C 0.27812 0.29655 0.31033 0.0
N107 N 0.31795 0.27885 0.25259 0.0
H108 H 0.44585 1.00065 0.51588 0.0
H109 H 0.51046 0.97831 0.56088 0.0
H110 H 0.46095 0.03105 0.5877 0.0
H111 H 0.52722 0.9818 0.52169 0.0
C112 C 0.51099 0.96776 0.514 0.0
C113 C 0.45753 0.00204 0.53289 0.0
C114 C 0.45094 0.01772 0.55133 0.0
C115 C 0.47916 0.98814 0.53619 0.0
C116 C 0.49427 0.98977 0.55821 0.0
C117 C 0.4879 0.00506 0.57705 0.0
C118 C 0.46597 0.0189 0.57347 0.0
N119 N 0.48485 0.97172 0.5175 0.0
H120 H 0.21281 0.29879 0.68606 0.0
H121 H 0.23738 0.36419 0.73486 0.0
H122 H 0.283 0.34753 0.67914 0.0
H123 H 0.21246 0.34345 0.75815 0.0
C124 C 0.19711 0.33114 0.747 0.0
C125 C 0.22696 0.31518 0.69246 0.0
C126 C 0.24802 0.32208 0.68006 0.0
C127 C 0.22342 0.32979 0.71267 0.0
C128 C 0.24105 0.35192 0.72025 0.0
C129 C 0.26284 0.35881 0.70833 0.0
C130 C 0.26621 0.3433 0.68843 0.0
N131 N 0.20122 0.32219 0.72415 0.0
H132 H 0.77417 0.19358 0.70744 0.0
H133 H 0.84326 0.2464 0.72818 0.0
H134 H 0.81015 0.19999 0.77882 0.0
H135 H 0.81215 0.27123 0.70353 0.0
C136 C 0.81027 0.2568 0.68898 0.0
C137 C 0.78966 0.20204 0.72093 0.0
C138 C 0.79033 0.19431 0.74371 0.0
C139 C 0.80794 0.2217 0.71575 0.0
C140 C 0.82828 0.23244 0.73301 0.0
C141 C 0.82981 0.22454 0.75591 0.0
C142 C 0.81013 0.20583 0.7612 0.0
N143 N 0.80557 0.23051 0.69303 0.0
H144 H 0.51545 0.54557 0.54624 0.0
H145 H 0.56605 0.51843 0.49904 0.0
H146 H 0.56216 0.48479 0.56455 0.0
H147 H 0.53253 0.53013 0.47252 0.0
C148 C 0.5306 0.5488 0.48079 0.0
C149 C 0.52983 0.53287 0.54242 0.0
C150 C 0.53765 0.51525 0.55843 0.0
C151 C 0.5395 0.53373 0.5209 0.0
C152 C 0.55771 0.51707 0.5153 0.0
C153 C 0.56589 0.49916 0.53082 0.0
C154 C 0.55589 0.49848 0.55247 0.0
N155 N 0.53103 0.55196 0.50542 0.0
H156 H 0.52947 0.48092 0.95944 0.0
H157 H 0.60284 0.50557 0.00192 0.0
H158 H 0.58501 0.53781 0.93602 0.0
H159 H 0.59539 0.45785 0.00507 0.0
C160 C 0.57538 0.45729 0.00941 0.0
C161 C 0.54813 0.49302 0.96206 0.0
C162 C 0.5552 0.50914 0.9448 0.0
C163 C 0.56542 0.49114 0.98223 0.0
C164 C 0.58964 0.50667 0.98604 0.0
C165 C 0.59645 0.52423 0.96978 0.0
C166 C 0.57917 0.5253 0.94912 0.0
N167 N 0.55794 0.47315 0.99819 0.0
H168 H 0.70744 0.23288 0.28917 0.0
H169 H 0.74467 0.18635 0.24255 0.0
H170 H 0.78892 0.2215 0.30652 0.0
H171 H 0.71239 0.19909 0.21538 0.0
C172 C 0.69568 0.20211 0.22461 0.0
C173 C 0.72487 0.22458 0.28509 0.0
C174 C 0.74845 0.22969 0.30031 0.0
C175 C 0.72339 0.20954 0.26417 0.0
C176 C 0.7456 0.19826 0.25864 0.0
C177 C 0.76909 0.20201 0.27424 0.0
C178 C 0.77049 0.21779 0.29502 0.0
N179 N 0.69911 0.20664 0.24929 0.0
H180 H 0.49455 0.04258 0.96325 0.0
H181 H 0.43682 0.97755 0.94091 0.0
H182 H 0.42883 0.02585 0.0014 0.0
H183 H 0.45655 0.97375 0.91005 0.0
C184 C 0.47537 0.98554 0.91209 0.0
C185 C 0.47653 0.03084 0.96543 0.0
C186 C 0.4629 0.03662 0.98433 0.0
C187 C 0.46742 0.00966 0.94954 0.0
C188 C 0.44422 0.99414 0.95269 0.0
C189 C 0.43008 1.00014 0.97122 0.0
C190 C 0.43958 0.02133 0.98694 0.0
N191 N 0.48243 0.00459 0.93099 0.0
Mg192 Mg 0.22967 0.84409 0.00979 0.0
O193 O 0.26561 0.87142 0.00368 0.0
O194 O 0.30053 0.84944 0.00659 0.0
Mg195 Mg 0.28716 0.8084 0.01454 0.0
C196 C 0.29015 0.87004 0.00307 0.0
C197 C 0.18857 0.88104 0.01377 0.0
O198 O 0.19311 0.87294 0.03471 0.0
O199 O 0.22903 0.82522 0.97297 0.0
O200 O 0.26338 0.80256 0.97789 0.0
O201 O 0.23881 0.85471 0.04785 0.0
O202 O 0.25394 0.82211 0.03002 0.0
C203 C 0.24384 0.80962 0.9651 0.0
C204 C 0.25355 0.83639 0.04884 0.0
O205 O 0.20106 0.87267 0.99771 0.0
Mg206 Mg 0.15897 0.51119 0.28391 0.0
O207 O 0.13265 0.50702 0.24824 0.0
O208 O 0.15972 0.51511 0.22151 0.0
Mg209 Mg 0.2022 0.52498 0.23924 0.0
C210 C 0.13662 0.50956 0.22705 0.0
C211 C 0.1337 0.48473 0.32205 0.0
O212 O 0.15918 0.48535 0.32821 0.0
O213 O 0.176 0.47281 0.27765 0.0
O214 O 0.20488 0.48571 0.25366 0.0
O215 O 0.15478 0.55341 0.28673 0.0
O216 O 0.18675 0.53669 0.2713 0.0
C217 C 0.19531 0.469 0.26636 0.0
C218 C 0.17573 0.55662 0.27643 0.0
O219 O 0.1258 0.49295 0.30253 0.0
Mg220 Mg 0.8054 0.68974 0.01895 0.0
O221 O 0.76798 0.66132 0.00902 0.0
O222 O 0.73326 0.68336 0.00793 0.0
Mg223 Mg 0.74816 0.72554 0.01897 0.0
C224 C 0.74315 0.66231 0.00554 0.0
C225 C 0.85281 0.65984 0.02401 0.0
O226 O 0.85892 0.67946 0.0396 0.0
O227 O 0.80165 0.70508 0.98201 0.0
O228 O 0.76917 0.72933 0.98644 0.0
O229 O 0.80284 0.68576 0.05712 0.0
O230 O 0.78479 0.71494 0.03706 0.0
C231 C 0.78672 0.72163 0.9747 0.0
C232 C 0.789 0.70482 0.05659 0.0
O233 O 0.83129 0.65859 0.01036 0.0
Mg234 Mg 0.93887 0.05136 0.23817 0.0
O235 O 0.90485 0.01849 0.2309 0.0
O236 O 0.92157 0.98256 0.22047 0.0
Mg237 Mg 0.96629 0.99133 0.2239 0.0
C238 C 0.90211 0.99467 0.22418 0.0
C239 C 0.91211 0.1 0.24207 0.0
O240 O 0.92975 0.10433 0.2277 0.0
O241 O 0.95032 0.03674 0.27446 0.0
O242 O 0.96673 1.00102 0.26319 0.0
O243 O 0.93709 0.05791 0.19977 0.0
O244 O 0.96119 0.03081 0.21707 0.0
C245 C 0.96101 0.01652 0.27919 0.0
C246 C 0.95264 0.0404 0.19814 0.0
O247 O 0.91076 0.07876 0.25144 0.0
Mg248 Mg 0.28701 0.18091 0.51196 0.0
O249 O 0.24305 0.16348 0.50618 0.0
O250 O 0.21982 0.19646 0.50019 0.0
Mg251 Mg 0.24689 0.23372 0.50156 0.0
C252 C 0.22104 0.17261 0.50206 0.0
C253 C 0.32479 0.13874 0.50651 0.0
O254 O 0.33848 0.15827 0.4989 0.0
O255 O 0.28638 0.18529 0.47221 0.0
O256 O 0.26269 0.2184 0.46884 0.0
O257 O 0.28486 0.18996 0.55036 0.0
O258 O 0.27672 0.21637 0.52311 0.0
C259 C 0.27574 0.20181 0.45999 0.0
C260 C 0.27774 0.21177 0.54471 0.0
O261 O 0.30162 0.14119 0.51124 0.0
Mg262 Mg 0.44506 0.55304 0.74367 0.0
O263 O 0.41272 0.51865 0.73825 0.0
O264 O 0.4307 0.48327 0.72846 0.0
Mg265 Mg 0.4751 0.49428 0.73034 0.0
C266 C 0.41089 0.49469 0.73243 0.0
C267 C 0.39971 0.58923 0.74575 0.0
O268 O 0.40004 0.58738 0.72304 0.0
O269 O 0.45884 0.54004 0.77996 0.0
O270 O 0.47623 0.5045 0.76964 0.0
O271 O 0.44197 0.55841 0.70484 0.0
O272 O 0.46797 0.53326 0.72276 0.0
C273 C 0.47032 0.52044 0.78518 0.0
C274 C 0.45866 0.54186 0.7036 0.0
O275 O 0.4158 0.57777 0.75864 0.0
Mg276 Mg 0.74167 0.34646 0.50345 0.0
O277 O 0.77793 0.37607 0.50293 0.0
O278 O 0.81285 0.35427 0.50295 0.0
Mg279 Mg 0.80015 0.31166 0.50503 0.0
C280 C 0.80259 0.37526 0.5024 0.0
C281 C 0.70845 0.39137 0.51252 0.0
O282 O 0.72216 0.39065 0.53308 0.0
O283 O 0.74344 0.33397 0.46461 0.0
O284 O 0.77746 0.31072 0.46856 0.0
O285 O 0.74775 0.34717 0.54292 0.0
O286 O 0.765 0.32112 0.51949 0.0
C287 C 0.75862 0.31915 0.45599 0.0
C288 C 0.7624 0.32901 0.5404 0.0
O289 O 0.71292 0.37644 0.4956 0.0
Mg290 Mg 0.64726 0.999 0.76867 0.0
O291 O 0.62011 0.99898 0.73418 0.0
O292 O 0.6455 0.00362 0.70571 0.0
Mg293 Mg 0.68886 0.00886 0.72256 0.0
C294 C 0.62279 1.00074 0.71265 0.0
C295 C 0.61156 0.99402 0.80668 0.0
O296 O 0.63043 0.01209 0.81531 0.0
O297 O 0.65793 0.95923 0.75892 0.0
O298 O 0.68714 0.96727 0.73389 0.0
O299 O 0.64782 0.04098 0.77467 0.0
O300 O 0.67685 0.02278 0.75608 0.0
C301 C 0.67497 0.95197 0.74638 0.0
C302 C 0.66812 0.04345 0.76345 0.0
O303 O 0.61256 0.98319 0.78659 0.0
Mg304 Mg 0.04762 0.26635 0.89414 0.0
O305 O 0.00637 0.26389 0.87329 0.0
O306 O 0.97675 0.25225 0.89723 0.0
Mg307 Mg 0.99863 0.24918 0.93362 0.0
C308 C 0.98265 0.2581 0.87726 0.0
C309 C 0.06161 0.27418 0.84406 0.0
O310 O 0.04399 0.25395 0.84009 0.0
O311 O 0.04114 0.305 0.91149 0.0
O312 O 0.01354 0.292 0.93661 0.0
O313 O 0.04954 0.22423 0.88667 0.0
O314 O 0.03275 0.24085 0.91672 0.0
C315 C 0.02773 0.30963 0.92817 0.0
C316 C 0.03736 0.22085 0.90474 0.0
O317 O 0.06688 0.28481 0.86469 0.0
Mg318 Mg 0.54824 0.75791 0.40082 0.0
O319 O 0.50715 0.75648 0.38042 0.0
O320 O 0.47685 0.74299 0.40298 0.0
Mg321 Mg 0.49904 0.74013 0.43932 0.0
C322 C 0.4833 0.75006 0.38355 0.0
C323 C 0.57901 0.76491 0.35867 0.0
O324 O 0.58193 0.74126 0.36335 0.0
O325 O 0.54244 0.79561 0.41931 0.0
O326 O 0.51204 0.78403 0.4424 0.0
O327 O 0.5486 0.71668 0.39117 0.0
O328 O 0.53427 0.73139 0.42338 0.0
C329 C 0.52748 0.80115 0.4345 0.0
C330 C 0.5379 0.71207 0.40982 0.0
O331 O 0.56586 0.7779 0.37131 0.0
Mg332 Mg 0.98961 0.75825 0.59624 0.0
O333 O 0.02698 0.74904 0.61849 0.0
O334 O 0.05793 0.744 0.5952 0.0
Mg335 Mg 0.04011 0.74931 0.55772 0.0
C336 C 0.05018 0.7443 0.61537 0.0
C337 C 0.97008 0.75381 0.64481 0.0
O338 O 0.98093 0.73253 0.64228 0.0
O339 O 0.00844 0.79926 0.59282 0.0
O340 O 0.0361 0.79168 0.56682 0.0
O341 O 0.97594 0.7163 0.58902 0.0
O342 O 1.00048 0.7387 0.56705 0.0
C343 C 0.02504 0.80714 0.57931 0.0
C344 C 0.98903 0.71689 0.57126 0.0
O345 O 0.97124 0.7696 0.62911 0.0
Mg346 Mg 0.48675 0.24612 0.09052 0.0
O347 O 0.52513 0.24128 0.11381 0.0
O348 O 0.55465 0.23154 0.0903 0.0
Mg349 Mg 0.53572 0.23133 0.05246 0.0
C350 C 0.54803 0.23556 0.11068 0.0
C351 C 0.46475 0.24997 0.13838 0.0
O352 O 0.47291 0.22721 0.13873 0.0
O353 O 0.50406 0.2851 0.08112 0.0
O354 O 0.53302 0.27498 0.05721 0.0
O355 O 0.47456 0.20491 0.09124 0.0
O356 O 0.49694 0.22123 0.06418 0.0
C357 C 0.52131 0.29156 0.0678 0.0
C358 C 0.48708 0.20131 0.07342 0.0
O359 O 0.46911 0.26347 0.12146 0.0
H360 H 0.25901 0.71766 0.85369 0.0
H361 H 0.21963 0.77054 0.81098 0.0
H362 H 0.21525 0.79731 0.84643 0.0
H363 H 0.22181 0.72146 0.90117 0.0
H364 H 0.24934 0.72069 0.92341 0.0
H365 H 0.24968 0.70558 0.89467 0.0
H366 H 0.29387 0.73265 0.89103 0.0
H367 H 0.29384 0.74762 0.91989 0.0
H368 H 0.29637 0.76701 0.8955 0.0
H369 H 0.21294 0.81721 0.88674 0.0
H370 H 0.21732 0.83124 0.92878 0.0
H371 H 0.26061 0.76697 0.94488 0.0
C372 C 0.24987 0.73508 0.8517 0.0
C373 C 0.23935 0.74171 0.82945 0.0
C374 C 0.2273 0.76463 0.8278 0.0
C375 C 0.22482 0.78008 0.84785 0.0
C376 C 0.23482 0.77264 0.86948 0.0
C377 C 0.2475 0.75092 0.87152 0.0
C378 C 0.25683 0.74744 0.89684 0.0
C379 C 0.24362 0.7223 0.90446 0.0
C380 C 0.28702 0.74877 0.90106 0.0
C381 C 0.24722 0.77047 0.90869 0.0
C382 C 0.23436 0.78464 0.89263 0.0
C383 C 0.22317 0.80639 0.89948 0.0
C384 C 0.22561 0.81412 0.9234 0.0
C385 C 0.23939 0.80028 0.9401 0.0
C386 C 0.25013 0.77808 0.93254 0.0
H387 H 1.00033 0.48888 0.37877 0.0
H388 H 0.04508 0.4746 0.44405 0.0
H389 H 0.08286 0.46641 0.42317 0.0
H390 H 0.02841 0.44287 0.33992 0.0
H391 H 0.02923 0.46435 0.31691 0.0
H392 H 0.00429 0.46514 0.33624 0.0
H393 H 0.01854 0.51352 0.34673 0.0
H394 H 0.04346 0.51287 0.32748 0.0
H395 H 0.05243 0.52431 0.35771 0.0
H396 H 0.11669 0.46325 0.39613 0.0
H397 H 0.14568 0.4684 0.36546 0.0
H398 H 0.08004 0.48698 0.31761 0.0
C399 C 0.01789 0.48337 0.38847 0.0
C400 C 0.01982 0.48205 0.41291 0.0
C401 C 0.04327 0.47557 0.42528 0.0
C402 C 0.06474 0.47077 0.41355 0.0
C403 C 0.06247 0.47272 0.38949 0.0
C404 C 0.03971 0.479 0.37706 0.0
C405 C 0.04347 0.48261 0.3518 0.0
C406 C 0.02527 0.46254 0.33524 0.0
C407 C 0.03923 0.50995 0.34558 0.0
C408 C 0.07208 0.47802 0.35214 0.0
C409 C 0.08244 0.47183 0.37394 0.0
C410 C 0.10875 0.46786 0.37893 0.0
C411 C 0.12508 0.47087 0.36135 0.0
C412 C 0.11518 0.47811 0.33909 0.0
C413 C 0.08816 0.4812 0.33435 0.0
H414 H 0.80057 0.74225 0.83974 0.0
H415 H 0.79223 0.82195 0.85731 0.0
H416 H 0.79257 0.81338 0.89868 0.0
H417 H 0.75835 0.71637 0.87884 0.0
H418 H 0.77759 0.69101 0.88708 0.0
H419 H 0.77873 0.70341 0.85886 0.0
H420 H 0.82943 0.7132 0.86764 0.0
H421 H 0.82845 0.7008 0.89591 0.0
H422 H 0.84376 0.73278 0.89365 0.0
H423 H 0.79069 0.79657 0.93694 0.0
H424 H 0.78665 0.77209 0.97132 0.0
H425 H 0.79697 0.7025 0.93094 0.0
C426 C 0.79921 0.7579 0.85241 0.0
C427 C 0.79622 0.78278 0.8453 0.0
C428 C 0.79418 0.80272 0.86231 0.0
C429 C 0.79455 0.79808 0.88587 0.0
C430 C 0.79707 0.77337 0.89228 0.0
C431 C 0.79943 0.75355 0.87619 0.0
C432 C 0.80061 0.72856 0.88794 0.0
C433 C 0.77744 0.70867 0.87756 0.0
C434 C 0.82714 0.71823 0.88618 0.0
C435 C 0.79806 0.73748 0.91301 0.0
C436 C 0.79621 0.76348 0.91493 0.0
C437 C 0.79237 0.77626 0.93576 0.0
C438 C 0.78999 0.76213 0.95517 0.0
C439 C 0.79155 0.73543 0.95382 0.0
C440 C 0.79609 0.72295 0.93253 0.0
H441 H 0.01969 0.04531 0.41397 0.0
H442 H 0.0291 0.96436 0.41386 0.0
H443 H 0.00541 0.95735 0.37412 0.0
H444 H 0.95496 0.03879 0.37887 0.0
H445 H 0.96287 0.06635 0.363 0.0
H446 H 0.97828 0.06498 0.39249 0.0
H447 H 0.02431 0.07246 0.37866 0.0
H448 H 0.00906 0.074 0.34918 0.0
H449 H 0.03242 0.05145 0.35545 0.0
H450 H 0.98352 0.95904 0.33391 0.0
H451 H 0.96649 0.9696 0.29458 0.0
H452 H 0.97218 0.04977 0.31914 0.0
C453 C 0.01677 0.02608 0.40566 0.0
C454 C 0.02608 0.00534 0.4174 0.0
C455 C 0.02165 0.98051 0.40571 0.0
C456 C 0.0083 0.97631 0.383 0.0
C457 C 0.99952 0.99712 0.37201 0.0
C458 C 0.00365 0.02155 0.38283 0.0
C459 C 0.99364 0.04076 0.3664 0.0
C460 C 0.97109 0.05347 0.37575 0.0
C461 C 0.0162 0.06085 0.36217 0.0
C462 C 0.98373 0.02333 0.34452 0.0
C463 C 0.9871 0.9982 0.34836 0.0
C464 C 0.98062 0.97861 0.33072 0.0
C465 C 0.971 0.98485 0.30839 0.0
C466 C 0.96795 0.01052 0.30373 0.0
C467 C 0.97392 0.02994 0.32222 0.0
H468 H 0.25181 0.27086 0.67017 0.0
H469 H 0.24938 0.34329 0.63883 0.0
H470 H 0.25434 0.32217 0.60057 0.0
H471 H 0.3017 0.24937 0.63843 0.0
H472 H 0.28802 0.21623 0.63511 0.0
H473 H 0.28224 0.23644 0.65979 0.0
H474 H 0.23191 0.22501 0.64877 0.0
H475 H 0.23754 0.20473 0.62404 0.0
H476 H 0.21696 0.23005 0.61986 0.0
H477 H 0.26074 0.29422 0.56642 0.0
H478 H 0.2703 0.26112 0.53792 0.0
H479 H 0.27022 0.20614 0.59081 0.0
C480 C 0.25201 0.28207 0.65512 0.0
C481 C 0.25012 0.30863 0.65727 0.0
C482 C 0.25086 0.32293 0.63742 0.0
C483 C 0.25356 0.3111 0.61565 0.0
C484 C 0.25566 0.28497 0.61408 0.0
C485 C 0.25507 0.27057 0.63321 0.0
C486 C 0.25924 0.24306 0.62678 0.0
C487 C 0.28429 0.23586 0.64086 0.0
C488 C 0.23496 0.22463 0.63005 0.0
C489 C 0.26246 0.2444 0.60111 0.0
C490 C 0.26001 0.26874 0.59421 0.0
C491 C 0.26254 0.27504 0.57154 0.0
C492 C 0.26788 0.25601 0.55543 0.0
C493 C 0.2708 0.23094 0.56203 0.0
C494 C 0.26798 0.22508 0.58521 0.0
H495 H 0.52468 0.55514 0.58648 0.0
H496 H 0.52328 0.47245 0.58105 0.0
H497 H 0.50166 0.47023 0.61681 0.0
H498 H 0.53649 0.56476 0.64883 0.0
H499 H 0.51525 0.58966 0.65049 0.0
H500 H 0.53136 0.58472 0.62488 0.0
H501 H 0.48613 0.57952 0.59905 0.0
H502 H 0.46985 0.58425 0.62461 0.0
H503 H 0.46043 0.55583 0.60516 0.0
H504 H 0.48025 0.47701 0.65334 0.0
H505 H 0.4616 0.49245 0.68832 0.0
H506 H 0.47442 0.57035 0.66872 0.0
C507 C 0.51968 0.53648 0.59262 0.0
C508 C 0.52583 0.51395 0.58079 0.0
C509 C 0.5193 0.49005 0.58988 0.0
C510 C 0.50673 0.48856 0.61009 0.0
C511 C 0.50058 0.51109 0.62099 0.0
C512 C 0.50685 0.53461 0.61258 0.0
C513 C 0.498 0.55596 0.62749 0.0
C514 C 0.52169 0.57488 0.63858 0.0
C515 C 0.47738 0.56969 0.61322 0.0
C516 C 0.48587 0.5408 0.64572 0.0
C517 C 0.48763 0.51495 0.64166 0.0
C518 C 0.47872 0.49719 0.65664 0.0
C519 C 0.46826 0.50614 0.67651 0.0
C520 C 0.4666 0.53254 0.68116 0.0
C521 C 0.47506 0.55001 0.66532 0.0
H522 H 0.79513 0.30168 0.67446 0.0
H523 H 0.81937 0.22972 0.64954 0.0
H524 H 0.81364 0.24267 0.60907 0.0
H525 H 0.74401 0.30305 0.62822 0.0
H526 H 0.74866 0.33723 0.62655 0.0
H527 H 0.75761 0.32372 0.65378 0.0
H528 H 0.80496 0.34685 0.65606 0.0
H529 H 0.79615 0.36041 0.62877 0.0
H530 H 0.82372 0.34202 0.63209 0.0
H531 H 0.80357 0.26227 0.57163 0.0
H532 H 0.78635 0.28554 0.53875 0.0
H533 H 0.76613 0.34425 0.58733 0.0
C534 C 0.7996 0.2889 0.66045 0.0
C535 C 0.80784 0.26483 0.66496 0.0
C536 C 0.81303 0.24825 0.64632 0.0
C537 C 0.80998 0.2555 0.62336 0.0
C538 C 0.80151 0.27927 0.6194 0.0
C539 C 0.79616 0.29566 0.63736 0.0
C540 C 0.7851 0.31909 0.62807 0.0
C541 C 0.75719 0.32086 0.63454 0.0
C542 C 0.80359 0.34354 0.63677 0.0
C543 C 0.78471 0.3131 0.60206 0.0
C544 C 0.79473 0.29026 0.59755 0.0
C545 C 0.79586 0.28026 0.57492 0.0
C546 C 0.78609 0.29373 0.55634 0.0
C547 C 0.77504 0.31683 0.56045 0.0
C548 C 0.77462 0.32674 0.58365 0.0
H549 H 0.54177 0.00784 0.58668 0.0
H550 H 0.47055 0.00389 0.62017 0.0
H551 H 0.49721 0.00249 0.6585 0.0
H552 H 0.57412 0.96416 0.62145 0.0
H553 H 0.60644 0.98143 0.62242 0.0
H554 H 0.58189 0.98323 0.59784 0.0
H555 H 0.58752 0.03267 0.6045 0.0
H556 H 0.61221 0.03104 0.62902 0.0
H557 H 0.58384 0.04741 0.63272 0.0
H558 H 0.53172 0.99972 0.69304 0.0
H559 H 0.57129 0.99803 0.72126 0.0
H560 H 0.6199 0.00346 0.66494 0.0
C561 C 0.53172 0.00666 0.60206 0.0
C562 C 0.504 0.00594 0.60037 0.0
C563 C 0.49175 0.00477 0.62102 0.0
C564 C 0.50672 0.00378 0.64285 0.0
C565 C 0.53395 0.00408 0.64379 0.0
C566 C 0.54634 0.00568 0.62394 0.0
C567 C 0.57583 0.00555 0.62962 0.0
C568 C 0.58511 0.9822 0.61709 0.0
C569 C 0.59072 0.03066 0.62361 0.0
C570 C 0.57814 0.00347 0.65577 0.0
C571 C 0.55376 0.00261 0.66361 0.0
C572 C 0.55091 1.00048 0.68709 0.0
C573 C 0.57356 0.99946 0.70299 0.0
C574 C 0.59885 1.00062 0.69543 0.0
C575 C 0.60096 0.00253 0.6714 0.0
H576 H 0.85374 0.20069 0.79267 0.0
H577 H 0.85715 0.27307 0.76034 0.0
H578 H 0.89697 0.28905 0.78724 0.0
H579 H 0.87295 0.23011 0.85218 0.0
H580 H 0.89102 0.20414 0.86101 0.0
H581 H 0.86296 0.1982 0.83879 0.0
H582 H 0.89193 0.17821 0.81054 0.0
H583 H 0.92015 0.18435 0.83254 0.0
H584 H 0.92148 0.19663 0.80426 0.0
H585 H 0.93884 0.2958 0.81547 0.0
H586 H 0.97582 0.29508 0.84701 0.0
H587 H 0.94155 0.22103 0.86423 0.0
C588 C 0.86234 0.22012 0.79143 0.0
C589 C 0.8523 0.23529 0.77385 0.0
C590 C 0.86475 0.26054 0.77297 0.0
C591 C 0.88733 0.26997 0.78836 0.0
C592 C 0.89693 0.25425 0.80503 0.0
C593 C 0.88447 0.23011 0.80705 0.0
C594 C 0.89835 0.21736 0.82697 0.0
C595 C 0.88024 0.21216 0.84586 0.0
C596 C 0.90858 0.19268 0.81803 0.0
C597 C 0.9208 0.23798 0.8356 0.0
C598 C 0.91987 0.25896 0.82248 0.0
C599 C 0.93951 0.27969 0.82616 0.0
C600 C 0.96045 0.27909 0.84396 0.0
C601 C 0.96117 0.25818 0.85808 0.0
C602 C 0.9411 0.23743 0.85386 0.0
H603 H 0.48039 0.9215 0.50261 0.0
H604 H 0.55472 0.96395 0.49299 0.0
H605 H 0.56601 0.9266 0.46977 0.0
H606 H 0.50627 0.86256 0.51128 0.0
H607 H 0.47763 0.84282 0.49646 0.0
H608 H 0.47423 0.87356 0.51042 0.0
H609 H 0.45145 0.88707 0.47144 0.0
H610 H 0.45471 0.85631 0.45737 0.0
H611 H 0.46782 0.88515 0.44562 0.0
H612 H 0.56952 0.88467 0.44829 0.0
H613 H 0.56654 0.83995 0.43204 0.0
H614 H 0.49106 0.82362 0.45765 0.0
C615 C 0.49881 0.92302 0.49525 0.0
C616 C 0.51659 0.94566 0.49919 0.0
C617 C 0.54082 0.94678 0.4899 0.0
C618 C 0.54735 0.92572 0.4767 0.0
C619 C 0.52954 0.90358 0.47324 0.0
C620 C 0.50585 0.90198 0.48237 0.0
C621 C 0.49109 0.87535 0.47742 0.0
C622 C 0.48708 0.86284 0.50025 0.0
C623 C 0.4647 0.87602 0.46204 0.0
C624 C 0.51025 0.86222 0.46421 0.0
C625 C 0.53211 0.87896 0.46173 0.0
C626 C 0.5525 0.87136 0.45013 0.0
C627 C 0.55059 0.84591 0.44092 0.0
C628 C 0.52862 0.82821 0.44364 0.0
C629 C 0.50818 0.83661 0.4554 0.0
H630 H 0.18594 0.34079 0.79137 0.0
H631 H 0.15375 0.30014 0.72483 0.0
H632 H 0.11424 0.28355 0.74193 0.0
H633 H 0.16448 0.29237 0.82691 0.0
H634 H 0.15692 0.31415 0.84977 0.0
H635 H 0.18189 0.32415 0.83191 0.0
H636 H 0.15745 0.363 0.82086 0.0
H637 H 0.13235 0.35307 0.83867 0.0
H638 H 0.12338 0.3578 0.80829 0.0
H639 H 0.07938 0.26952 0.76671 0.0
H640 H 0.05186 0.25853 0.79757 0.0
H641 H 0.1064 0.30852 0.84808 0.0
C642 C 0.17042 0.32859 0.78038 0.0
C643 C 0.17289 0.32178 0.75681 0.0
C644 C 0.15232 0.30563 0.74295 0.0
C645 C 0.12975 0.29616 0.75249 0.0
C646 C 0.128 0.30309 0.77585 0.0
C647 C 0.14776 0.31896 0.78963 0.0
C648 C 0.14147 0.32263 0.81448 0.0
C649 C 0.16243 0.31273 0.83178 0.0
C650 C 0.13848 0.3508 0.82095 0.0
C651 C 0.1153 0.30601 0.81262 0.0
C652 C 0.10782 0.29505 0.79015 0.0
C653 C 0.08492 0.27815 0.78433 0.0
C654 C 0.06942 0.27202 0.802 0.0
C655 C 0.07688 0.28273 0.82524 0.0
C656 C 0.09997 0.30023 0.83045 0.0
H657 H 0.52742 0.59938 0.49458 0.0
H658 H 0.52671 0.54683 0.43366 0.0
H659 H 0.52374 0.58267 0.40826 0.0
H660 H 0.48227 0.64187 0.46673 0.0
H661 H 0.50036 0.67029 0.48223 0.0
H662 H 0.49972 0.64019 0.49543 0.0
H663 H 0.55073 0.64477 0.50105 0.0
H664 H 0.55152 0.67484 0.48793 0.0
H665 H 0.56816 0.64955 0.47614 0.0
H666 H 0.52517 0.62428 0.39002 0.0
H667 H 0.5312 0.66914 0.37999 0.0
H668 H 0.53015 0.69494 0.45257 0.0
C669 C 0.52617 0.59536 0.47587 0.0
C670 C 0.52714 0.57033 0.46597 0.0
C671 C 0.52586 0.56588 0.44148 0.0
C672 C 0.52409 0.58608 0.42695 0.0
C673 C 0.52348 0.61059 0.43721 0.0
C674 C 0.52438 0.61533 0.46109 0.0
C675 C 0.52514 0.64369 0.46776 0.0
C676 C 0.50039 0.64934 0.47868 0.0
C677 C 0.55039 0.6538 0.48418 0.0
C678 C 0.52527 0.65419 0.44397 0.0
C679 C 0.52406 0.63472 0.42659 0.0
C680 C 0.52573 0.63968 0.40341 0.0
C681 C 0.52921 0.66521 0.3979 0.0
C682 C 0.53092 0.68547 0.41547 0.0
C683 C 0.52839 0.67983 0.43871 0.0
H684 H 0.86021 0.81198 0.71198 0.0
H685 H 0.87119 0.75447 0.76162 0.0
H686 H 0.90688 0.73978 0.74111 0.0
H687 H 0.8704 0.77346 0.66163 0.0
H688 H 0.88758 0.79927 0.64844 0.0
H689 H 0.86363 0.8059 0.66759 0.0
H690 H 0.89868 0.83787 0.6934 0.0
H691 H 0.92278 0.83125 0.67436 0.0
H692 H 0.92934 0.82727 0.70516 0.0
H693 H 0.94034 0.7304 0.7145 0.0
H694 H 0.96858 0.72631 0.68322 0.0
H695 H 0.93624 0.79011 0.65083 0.0
C696 C 0.87025 0.79638 0.71857 0.0
C697 C 0.86298 0.78441 0.7384 0.0
C698 C 0.87643 0.76397 0.74648 0.0
C699 C 0.89678 0.75552 0.73497 0.0
C700 C 0.90348 0.76774 0.71546 0.0
C701 C 0.89062 0.78771 0.70729 0.0
C702 C 0.90116 0.79708 0.68556 0.0
C703 C 0.8794 0.79371 0.66457 0.0
C704 C 0.91374 0.82502 0.68989 0.0
C705 C 0.92176 0.77905 0.68263 0.0
C706 C 0.92285 0.76237 0.70013 0.0
C707 C 0.93976 0.74345 0.70078 0.0
C708 C 0.95573 0.74128 0.6829 0.0
C709 C 0.95473 0.75792 0.66458 0.0
C710 C 0.9377 0.77726 0.66469 0.0
H711 H 0.05739 0.92669 0.50595 0.0
H712 H 0.04349 0.97635 0.5647 0.0
H713 H 0.03546 0.93852 0.58742 0.0
H714 H 0.0089 0.87534 0.51192 0.0
H715 H 0.0287 0.85077 0.504 0.0
H716 H 0.03369 0.8818 0.49286 0.0
H717 H 0.08302 0.88609 0.50983 0.0
H718 H 0.07818 0.85505 0.52103 0.0
H719 H 0.09195 0.88252 0.54046 0.0
H720 H 0.02577 0.89422 0.60248 0.0
H721 H 0.01874 0.84815 0.60943 0.0
H722 H 0.04201 0.82877 0.54145 0.0
C723 C 0.05271 0.92963 0.52361 0.0
C724 C 0.05079 0.95437 0.53357 0.0
C725 C 0.04498 0.95747 0.55681 0.0
C726 C 0.04036 0.93612 0.5698 0.0
C727 C 0.04212 0.91188 0.55937 0.0
C728 C 0.04851 0.90863 0.5369 0.0
C729 C 0.04943 0.88071 0.52968 0.0
C730 C 0.02896 0.87163 0.50836 0.0
C731 C 0.0773 0.87581 0.52498 0.0
C732 C 0.04215 0.86865 0.55143 0.0
C733 C 0.03782 0.88682 0.56837 0.0
C734 C 0.02949 0.87987 0.58945 0.0
C735 C 0.0255 0.85369 0.59324 0.0
C736 C 0.03018 0.83486 0.57616 0.0
C737 C 0.03877 0.84265 0.5551 0.0
H738 H 0.18434 0.70647 0.68288 0.0
H739 H 0.14404 0.70248 0.74456 0.0
H740 H 0.10372 0.71337 0.72196 0.0
H741 H 0.15535 0.7599 0.66083 0.0
H742 H 0.15232 0.74825 0.63054 0.0
H743 H 0.17797 0.73892 0.65114 0.0
H744 H 0.16152 0.69114 0.63952 0.0
H745 H 0.13595 0.70032 0.61873 0.0
H746 H 0.12757 0.67951 0.64095 0.0
H747 H 0.06835 0.72663 0.6935 0.0
H748 H 0.03931 0.73919 0.66021 0.0
H749 H 0.10186 0.73439 0.61646 0.0
C750 C 0.1669 0.70758 0.69148 0.0
C751 C 0.1674 0.7037 0.71548 0.0
C752 C 0.14425 0.70549 0.72623 0.0
C753 C 0.12119 0.71167 0.71354 0.0
C754 C 0.12147 0.71592 0.69006 0.0
C755 C 0.1436 0.71377 0.67903 0.0
C756 C 0.1386 0.71974 0.65367 0.0
C757 C 0.15716 0.74309 0.64877 0.0
C758 C 0.14105 0.69628 0.63725 0.0
C759 C 0.11032 0.72575 0.65229 0.0
C760 C 0.10087 0.72344 0.67351 0.0
C761 C 0.07546 0.72836 0.67673 0.0
C762 C 0.05912 0.73558 0.6577 0.0
C763 C 0.06819 0.73778 0.63562 0.0
C764 C 0.09424 0.73287 0.63304 0.0
H765 H 0.96154 0.5684 0.52721 0.0
H766 H 0.99729 0.58868 0.46554 0.0
H767 H 0.0072 0.63329 0.48204 0.0
H768 H 0.93016 0.62554 0.53338 0.0
H769 H 0.9353 0.62787 0.56486 0.0
H770 H 0.93228 0.59705 0.54887 0.0
H771 H 0.97729 0.58852 0.57025 0.0
H772 H 0.9805 0.61937 0.58624 0.0
H773 H 0.00596 0.61109 0.56929 0.0
H774 H 0.01238 0.67573 0.50439 0.0
H775 H 0.01104 0.71396 0.5307 0.0
H776 H 0.97072 0.66705 0.57758 0.0
C777 C 0.97136 0.58221 0.51711 0.0
C778 C 0.97889 0.57483 0.49514 0.0
C779 C 0.99186 0.5936 0.48263 0.0
C780 C 0.99745 0.61908 0.49178 0.0
C781 C 0.98984 0.62563 0.51345 0.0
C782 C 0.97696 0.60783 0.52594 0.0
C783 C 0.97017 0.62023 0.54848 0.0
C784 C 0.9402 0.61751 0.54891 0.0
C785 C 0.98433 0.60914 0.56983 0.0
C786 C 0.98106 0.6478 0.54656 0.0
C787 C 0.99248 0.65038 0.52628 0.0
C788 C 0.0036 0.67396 0.52039 0.0
C789 C 0.00282 0.69557 0.53552 0.0
C790 C 0.99094 0.69352 0.5563 0.0
C791 C 0.98005 0.66923 0.56189 0.0
H792 H 0.7921 0.87953 0.17752 0.0
H793 H 0.75975 0.89277 0.24291 0.0
H794 H 0.78992 0.93205 0.25185 0.0
H795 H 0.85792 0.89544 0.20404 0.0
H796 H 0.8692 0.90931 0.17879 0.0
H797 H 0.84184 0.88452 0.17518 0.0
H798 H 0.8131 0.91421 0.15207 0.0
H799 H 0.84036 0.93921 0.15579 0.0
H800 H 0.80933 0.94531 0.16519 0.0
H801 H 0.82459 0.96969 0.25472 0.0
H802 H 0.86566 0.99859 0.25418 0.0
H803 H 0.88009 0.95701 0.19079 0.0
C804 C 0.79114 0.89037 0.19382 0.0
C805 C 0.77255 0.88275 0.20905 0.0
C806 C 0.77255 0.89823 0.23012 0.0
C807 C 0.78993 0.92069 0.2356 0.0
C808 C 0.8079 0.92734 0.22027 0.0
C809 C 0.80904 0.91234 0.20007 0.0
C810 C 0.83237 0.92201 0.18806 0.0
C811 C 0.85146 0.90161 0.18644 0.0
C812 C 0.82323 0.9307 0.16384 0.0
C813 C 0.84433 0.94456 0.20489 0.0
C814 C 0.82944 0.94776 0.22298 0.0
C815 C 0.83645 0.96736 0.24066 0.0
C816 C 0.85968 0.98374 0.24016 0.0
C817 C 0.8759 0.97991 0.22248 0.0
C818 C 0.86795 0.96027 0.2045 0.0
H819 H 0.7906 0.16046 0.29157 0.0
H820 H 0.79998 0.21818 0.24215 0.0
H821 H 0.83868 0.19931 0.23001 0.0
H822 H 0.86062 0.1557 0.30832 0.0
H823 H 0.85604 0.12151 0.30989 0.0
H824 H 0.83004 0.14036 0.31575 0.0
H825 H 0.79793 0.11242 0.28391 0.0
H826 H 0.82381 0.0935 0.27794 0.0
H827 H 0.80651 0.10869 0.25466 0.0
H828 H 0.87555 0.17426 0.2229 0.0
H829 H 0.9075 0.14329 0.21942 0.0
H830 H 0.87387 0.09984 0.27226 0.0
C831 C 0.80108 0.16917 0.27838 0.0
C832 C 0.79267 0.19088 0.26786 0.0
C833 C 0.80638 0.20164 0.25041 0.0
C834 C 0.82833 0.19108 0.24348 0.0
C835 C 0.83616 0.1696 0.25405 0.0
C836 C 0.82293 0.15862 0.27103 0.0
C837 C 0.83484 0.13486 0.27871 0.0
C838 C 0.84605 0.13832 0.30471 0.0
C839 C 0.81456 0.11096 0.27349 0.0
C840 C 0.85669 0.13414 0.26328 0.0
C841 C 0.85716 0.15456 0.24941 0.0
C842 C 0.87539 0.1582 0.23367 0.0
C843 C 0.89352 0.14043 0.23186 0.0
C844 C 0.8933 0.11902 0.24554 0.0
C845 C 0.87461 0.11596 0.26156 0.0
H846 H 0.42195 0.94808 0.97262 0.0
H847 H 0.38289 0.0167 0.97769 0.0
H848 H 0.3423 0.99077 0.98534 0.0
H849 H 0.36499 0.90525 0.94467 0.0
H850 H 0.3737 0.87862 0.96085 0.0
H851 H 0.39907 0.90245 0.95442 0.0
H852 H 0.41639 0.91014 0.99854 0.0
H853 H 0.39101 0.88645 0.00511 0.0
H854 H 0.3942 0.91844 0.01891 0.0
H855 H 0.30636 0.95748 0.99325 0.0
H856 H 0.27787 0.91935 0.00171 0.0
H857 H 0.34094 0.87262 0.99256 0.0
C858 C 0.40469 0.95753 0.97498 0.0
C859 C 0.40541 0.98432 0.97445 0.0
C860 C 0.38267 0.99617 0.97809 0.0
C861 C 0.35956 0.98162 0.98237 0.0
C862 C 0.35957 0.95526 0.98307 0.0
C863 C 0.38154 0.94332 0.97951 0.0
C864 C 0.37674 0.91488 0.98218 0.0
C865 C 0.37874 0.89939 0.95916 0.0
C866 C 0.39571 0.90703 0.00239 0.0
C867 C 0.34869 0.91272 0.9879 0.0
C868 C 0.33908 0.93618 0.98816 0.0
C869 C 0.31366 0.93898 0.99307 0.0
C870 C 0.29762 0.9172 0.99785 0.0
C871 C 0.30714 0.89296 0.99788 0.0
C872 C 0.33306 0.89084 0.9928 0.0
H873 H 0.22831 0.32636 0.29236 0.0
H874 H 0.31012 0.3567 0.2932 0.0
H875 H 0.29708 0.39985 0.28865 0.0
H876 H 0.20205 0.36335 0.24916 0.0
H877 H 0.17286 0.36943 0.26193 0.0
H878 H 0.18818 0.34103 0.26801 0.0
H879 H 0.19227 0.35346 0.31241 0.0
H880 H 0.17659 0.38175 0.30649 0.0
H881 H 0.20837 0.38451 0.32389 0.0
H882 H 0.27602 0.43751 0.27878 0.0
H883 H 0.24792 0.47082 0.26879 0.0
H884 H 0.17843 0.41886 0.27601 0.0
C885 C 0.24339 0.34232 0.2923 0.0
C886 C 0.27026 0.33838 0.29324 0.0
C887 C 0.28951 0.35947 0.29259 0.0
C888 C 0.28228 0.384 0.28997 0.0
C889 C 0.25569 0.38723 0.28823 0.0
C890 C 0.23646 0.36723 0.28978 0.0
C891 C 0.20922 0.37629 0.28638 0.0
C892 C 0.19207 0.36165 0.2651 0.0
C893 C 0.19582 0.37386 0.30862 0.0
C894 C 0.21628 0.40422 0.28202 0.0
C895 C 0.24326 0.40983 0.28313 0.0
C896 C 0.25489 0.43355 0.27825 0.0
C897 C 0.23865 0.45229 0.27234 0.0
C898 C 0.21093 0.44751 0.27155 0.0
C899 C 0.19956 0.42312 0.27663 0.0
H900 H 0.12642 0.03948 0.48624 0.0
H901 H 0.06187 0.08403 0.46831 0.0
H902 H 0.09242 0.12387 0.4766 0.0
H903 H 0.16276 0.08458 0.53312 0.0
H904 H 0.19453 0.07889 0.52513 0.0
H905 H 0.16731 0.05388 0.51965 0.0
H906 H 0.17389 0.0498 0.47593 0.0
H907 H 0.20104 0.07484 0.48125 0.0
H908 H 0.17364 0.0777 0.45944 0.0
H909 H 0.12955 0.15839 0.48516 0.0
H910 H 0.17146 0.18623 0.49242 0.0
H911 H 0.21328 0.11983 0.50386 0.0
C912 C 0.11875 0.0577 0.48449 0.0
C913 C 0.0918 0.05882 0.47682 0.0
C914 C 0.08246 0.08287 0.47419 0.0
C915 C 0.09963 0.10555 0.47892 0.0
C916 C 0.12613 0.10384 0.48614 0.0
C917 C 0.13575 0.08059 0.48887 0.0
C918 C 0.16543 0.08423 0.49554 0.0
C919 C 0.17294 0.07484 0.51981 0.0
C920 C 0.17931 0.07085 0.47693 0.0
C921 C 0.17095 0.11313 0.49589 0.0
C922 C 0.1479 0.12396 0.49061 0.0
C923 C 0.14774 0.15018 0.4894 0.0
C924 C 0.17177 0.16584 0.49355 0.0
C925 C 0.19586 0.15533 0.49873 0.0
C926 C 0.1953 0.12854 0.50003 0.0
H927 H 0.77922 0.14475 0.72532 0.0
H928 H 0.7552 0.20018 0.7746 0.0
H929 H 0.71934 0.16819 0.78299 0.0
H930 H 0.71443 0.11322 0.70277 0.0
H931 H 0.72482 0.08166 0.70107 0.0
H932 H 0.74776 0.1092 0.69805 0.0
H933 H 0.78006 0.09616 0.73194 0.0
H934 H 0.75733 0.06849 0.73492 0.0
H935 H 0.7687 0.09098 0.75975 0.0
H936 H 0.6859 0.13067 0.78539 0.0
H937 H 0.66011 0.08856 0.78551 0.0
H938 H 0.70757 0.05632 0.73646 0.0
C939 C 0.76629 0.15005 0.73781 0.0
C940 C 0.76969 0.17482 0.74929 0.0
C941 C 0.75278 0.1812 0.76574 0.0
C942 C 0.73234 0.16325 0.77047 0.0
C943 C 0.72937 0.13897 0.75878 0.0
C944 C 0.7461 0.1322 0.74305 0.0
C945 C 0.73953 0.10438 0.73392 0.0
C946 C 0.73113 0.10199 0.70738 0.0
C947 C 0.76279 0.0891 0.74054 0.0
C948 C 0.71652 0.09656 0.74701 0.0
C949 C 0.71075 0.11694 0.76094 0.0
C950 C 0.69028 0.11454 0.77462 0.0
C951 C 0.67567 0.09053 0.77447 0.0
C952 C 0.68182 0.0691 0.76101 0.0
C953 C 0.70236 0.07231 0.74691 0.0
H954 H 0.44416 0.05338 0.5195 0.0
H955 H 0.40729 0.01646 0.57407 0.0
H956 H 0.36909 0.04103 0.56639 0.0
H957 H 0.42501 0.11534 0.53322 0.0
H958 H 0.42025 0.12321 0.50324 0.0
H959 H 0.44357 0.1015 0.51214 0.0
H960 H 0.4198 0.06729 0.48029 0.0
H961 H 0.39624 0.08884 0.47143 0.0
H962 H 0.38508 0.05754 0.47976 0.0
H963 H 0.33471 0.06949 0.5522 0.0
H964 H 0.30952 0.10328 0.53644 0.0
H965 H 0.37034 0.12355 0.4928 0.0
C966 C 0.42793 0.05041 0.5297 0.0
C967 C 0.42843 0.03293 0.54724 0.0
C968 C 0.40715 0.02979 0.56056 0.0
C969 C 0.38537 0.04353 0.55621 0.0
C970 C 0.38538 0.06056 0.53867 0.0
C971 C 0.4063 0.06432 0.52588 0.0
C972 C 0.40229 0.08494 0.5091 0.0
C973 C 0.42406 0.10759 0.51477 0.0
C974 C 0.40076 0.07399 0.48364 0.0
C975 C 0.37587 0.09228 0.51447 0.0
C976 C 0.36622 0.0777 0.53128 0.0
C977 C 0.34212 0.08104 0.53907 0.0
C978 C 0.32787 0.10021 0.5299 0.0
C979 C 0.33793 0.11611 0.51338 0.0
C980 C 0.36208 0.11173 0.50538 0.0
H981 H 0.60899 0.48442 0.55775 0.0
H982 H 0.56531 0.47326 0.48821 0.0
H983 H 0.5976 0.44573 0.47561 0.0
H984 H 0.67345 0.48698 0.54001 0.0
H985 H 0.68684 0.46967 0.56368 0.0
H986 H 0.66017 0.48839 0.56746 0.0
H987 H 0.63224 0.44851 0.57919 0.0
H988 H 0.65892 0.42974 0.57566 0.0
H989 H 0.62673 0.41971 0.55991 0.0
H990 H 0.63503 0.41968 0.47027 0.0
H991 H 0.6737 0.39548 0.47331 0.0
H992 H 0.69281 0.42319 0.54632 0.0
C993 C 0.60605 0.47595 0.53995 0.0
C994 C 0.58466 0.48121 0.52394 0.0
C995 C 0.58174 0.46989 0.50072 0.0
C996 C 0.59993 0.45413 0.4934 0.0
C997 C 0.62101 0.4497 0.50947 0.0
C998 C 0.62408 0.46013 0.53231 0.0
C999 C 0.64848 0.45226 0.54608 0.0
C1000 C 0.66841 0.47572 0.55482 0.0
C1001 C 0.64115 0.43662 0.56641 0.0
C1002 C 0.65858 0.43579 0.52743 0.0
C1003 C 0.64251 0.43462 0.50641 0.0
C1004 C 0.64777 0.42045 0.48666 0.0
C1005 C 0.66983 0.40681 0.48853 0.0
C1006 C 0.68638 0.4074 0.51001 0.0
C1007 C 0.68067 0.42234 0.52959 0.0
H1008 H 0.77228 0.22606 0.34514 0.0
H1009 H 0.7273 0.2751 0.30255 0.0
H1010 H 0.72511 0.30368 0.33746 0.0
H1011 H 0.73856 0.23106 0.3945 0.0
H1012 H 0.76742 0.23191 0.41562 0.0
H1013 H 0.76648 0.21579 0.38712 0.0
H1014 H 0.80918 0.24376 0.38065 0.0
H1015 H 0.81039 0.25982 0.40925 0.0
H1016 H 0.81059 0.27812 0.38396 0.0
H1017 H 0.72512 0.32548 0.37771 0.0
H1018 H 0.73067 0.34034 0.41975 0.0
H1019 H 0.77713 0.27808 0.43527 0.0
C1020 C 0.76238 0.24304 0.34308 0.0
C1021 C 0.74967 0.24809 0.32113 0.0
C1022 C 0.73672 0.27047 0.31927 0.0
C1023 C 0.73547 0.28694 0.33898 0.0
C1024 C 0.74756 0.28104 0.36046 0.0
C1025 C 0.76108 0.25982 0.36258 0.0
C1026 C 0.77211 0.25765 0.38772 0.0
C1027 C 0.76044 0.23262 0.39676 0.0
C1028 C 0.80236 0.25999 0.39056 0.0
C1029 C 0.76239 0.28073 0.39937 0.0
C1030 C 0.74819 0.29397 0.38343 0.0
C1031 C 0.73647 0.31542 0.39036 0.0
C1032 C 0.7396 0.32367 0.41424 0.0
C1033 C 0.7545 0.31056 0.43079 0.0
C1034 C 0.76591 0.2888 0.42308 0.0
H1035 H 0.52403 0.01196 0.90978 0.0
H1036 H 0.46678 0.95163 0.87385 0.0
H1037 H 0.49585 0.94604 0.84319 0.0
H1038 H 0.54282 0.0399 0.85888 0.0
H1039 H 0.577 0.04732 0.87068 0.0
H1040 H 0.55201 0.04589 0.88997 0.0
H1041 H 0.57539 0.01236 0.91301 0.0
H1042 H 0.60045 0.01368 0.89377 0.0
H1043 H 0.58218 0.98346 0.89767 0.0
H1044 H 0.53096 0.94798 0.81595 0.0
H1045 H 0.56913 0.95736 0.79435 0.0
H1046 H 0.60299 0.01626 0.84864 0.0
C1047 C 0.51761 0.99749 0.89554 0.0
C1048 C 0.49316 0.98217 0.89413 0.0
C1049 C 0.48549 0.96352 0.87518 0.0
C1050 C 0.50185 0.96021 0.85774 0.0
C1051 C 0.52583 0.97569 0.85958 0.0
C1052 C 0.53368 0.99394 0.87803 0.0
C1053 C 0.56013 0.00843 0.87578 0.0
C1054 C 0.55784 0.03708 0.8737 0.0
C1055 C 0.58075 0.00422 0.89627 0.0
C1056 C 0.56589 0.99562 0.85311 0.0
C1057 C 0.54594 0.97674 0.84403 0.0
C1058 C 0.54676 0.96265 0.82296 0.0
C1059 C 0.5685 0.96811 0.81082 0.0
C1060 C 0.58909 0.98749 0.81981 0.0
C1061 C 0.58768 0.00124 0.84131 0.0
H1062 H 0.25247 0.26432 0.33943 0.0
H1063 H 0.33041 0.2468 0.32713 0.0
H1064 H 0.33253 0.22119 0.3613 0.0
H1065 H 0.26781 0.27472 0.40034 0.0
H1066 H 0.23587 0.26153 0.4066 0.0
H1067 H 0.2391 0.27549 0.37936 0.0
H1068 H 0.21657 0.23323 0.35689 0.0
H1069 H 0.21352 0.21905 0.38413 0.0
H1070 H 0.23002 0.20366 0.36231 0.0
H1071 H 0.32752 0.19969 0.39889 0.0
H1072 H 0.31728 0.18802 0.43796 0.0
H1073 H 0.24393 0.2215 0.42635 0.0
C1074 C 0.26998 0.25506 0.34377 0.0
C1075 C 0.29107 0.25743 0.33016 0.0
C1076 C 0.31357 0.24482 0.33669 0.0
C1077 C 0.31506 0.23025 0.35621 0.0
C1078 C 0.29397 0.22846 0.36925 0.0
C1079 C 0.27194 0.24069 0.36335 0.0
C1080 C 0.25297 0.23768 0.38132 0.0
C1081 C 0.24871 0.26391 0.39257 0.0
C1082 C 0.22672 0.2225 0.37051 0.0
C1083 C 0.26807 0.22243 0.39855 0.0
C1084 C 0.29145 0.21681 0.39113 0.0
C1085 C 0.30914 0.2038 0.40477 0.0
C1086 C 0.30312 0.19709 0.42688 0.0
C1087 C 0.27983 0.20381 0.43519 0.0
C1088 C 0.26188 0.21601 0.42047 0.0
H1089 H 0.54291 0.54773 0.91608 0.0
H1090 H 0.53082 0.46542 0.92045 0.0
H1091 H 0.50414 0.46059 0.88204 0.0
H1092 H 0.47764 0.55403 0.88465 0.0
H1093 H 0.4903 0.57774 0.86647 0.0
H1094 H 0.50683 0.57549 0.89543 0.0
H1095 H 0.55035 0.57013 0.87836 0.0
H1096 H 0.534 0.5725 0.84941 0.0
H1097 H 0.55089 0.54506 0.85582 0.0
H1098 H 0.48198 0.46351 0.84247 0.0
H1099 H 0.46587 0.47425 0.80286 0.0
H1100 H 0.49117 0.55462 0.82267 0.0
C1101 C 0.53449 0.52873 0.90901 0.0
C1102 C 0.53862 0.50701 0.92163 0.0
C1103 C 0.52738 0.48247 0.91158 0.0
C1104 C 0.51226 0.47946 0.88965 0.0
C1105 C 0.50847 0.50115 0.87778 0.0
C1106 C 0.51922 0.52533 0.88697 0.0
C1107 C 0.51311 0.54517 0.86975 0.0
C1108 C 0.49595 0.56424 0.87967 0.0
C1109 C 0.53861 0.55903 0.86293 0.0
C1110 C 0.49781 0.5282 0.84933 0.0
C1111 C 0.49529 0.50289 0.85455 0.0
C1112 C 0.4835 0.48327 0.83823 0.0
C1113 C 0.47445 0.48955 0.81579 0.0
C1114 C 0.47705 0.51524 0.80984 0.0
C1115 C 0.48842 0.5349 0.82697 0.0
H1116 H 0.75254 0.81785 0.13997 0.0
H1117 H 0.74767 0.76483 0.19401 0.0
H1118 H 0.75732 0.73002 0.1666 0.0
H1119 H 0.7209 0.7731 0.09242 0.0
H1120 H 0.74135 0.78571 0.07163 0.0
H1121 H 0.7344 0.8063 0.09561 0.0
H1122 H 0.78441 0.81833 0.10848 0.0
H1123 H 0.7915 0.79792 0.08446 0.0
H1124 H 0.80512 0.79331 0.11388 0.0
H1125 H 0.76991 0.70167 0.13353 0.0
H1126 H 0.78233 0.68174 0.09708 0.0
H1127 H 0.77567 0.75291 0.06427 0.0
C1128 C 0.75364 0.79891 0.146 0.0
C1129 C 0.7496 0.79394 0.16907 0.0
C1130 C 0.75075 0.7689 0.17635 0.0
C1131 C 0.75621 0.74909 0.16094 0.0
C1132 C 0.76004 0.75459 0.13823 0.0
C1133 C 0.75858 0.77886 0.13075 0.0
C1134 C 0.76305 0.77976 0.10542 0.0
C1135 C 0.73846 0.78662 0.09039 0.0
C1136 C 0.78747 0.79843 0.10292 0.0
C1137 C 0.76763 0.7523 0.09986 0.0
C1138 C 0.76598 0.73807 0.11901 0.0
C1139 C 0.77092 0.71254 0.11834 0.0
C1140 C 0.77795 0.70139 0.09761 0.0
C1141 C 0.77959 0.71568 0.07781 0.0
C1142 C 0.77405 0.74134 0.07898 0.0
H1143 H 0.01069 0.05253 0.07708 0.0
H1144 H 0.00537 0.96955 0.07005 0.0
H1145 H 0.98597 0.96772 0.10697 0.0
H1146 H 0.02694 0.06088 0.13858 0.0
H1147 H 0.00721 0.08671 0.14235 0.0
H1148 H 0.02066 0.08152 0.11534 0.0
H1149 H 0.97388 0.07833 0.09241 0.0
H1150 H 0.96027 0.08351 0.11937 0.0
H1151 H 0.94817 0.05555 0.09997 0.0
H1152 H 0.96863 0.97495 0.14545 0.0
H1153 H 0.95369 0.99076 0.18214 0.0
H1154 H 0.96756 0.06874 0.16295 0.0
C1155 C 0.00511 0.0339 0.08301 0.0
C1156 C 0.00976 0.01118 0.07052 0.0
C1157 C 1.00255 0.98729 0.07938 0.0
C1158 C 0.99127 0.98602 0.10027 0.0
C1159 C 0.98699 0.00877 0.11204 0.0
C1160 C 0.99352 0.03225 0.10366 0.0
C1161 C 0.98697 0.05387 0.11971 0.0
C1162 C 0.01193 0.07179 0.12958 0.0
C1163 C 0.96608 0.06868 0.10711 0.0
C1164 C 0.97599 0.0389 0.13859 0.0
C1165 C 0.97627 0.0129 0.13386 0.0
C1166 C 0.9682 0.99524 0.14926 0.0
C1167 C 0.95993 0.0044 0.17014 0.0
C1168 C 0.95958 0.03093 0.17536 0.0
C1169 C 0.96732 0.04833 0.1592 0.0
H1170 H 0.29873 0.75613 0.15483 0.0
H1171 H 0.32802 0.82832 0.19422 0.0
H1172 H 0.3184 0.85122 0.15873 0.0
H1173 H 0.32401 0.77332 0.09984 0.0
H1174 H 0.29571 0.75629 0.08189 0.0
H1175 H 0.30672 0.7454 0.10993 0.0
H1176 H 0.26028 0.7478 0.12236 0.0
H1177 H 0.24915 0.75865 0.0944 0.0
H1178 H 0.24586 0.77742 0.1208 0.0
H1179 H 0.30051 0.86648 0.12076 0.0
H1180 H 0.27799 0.87299 0.08174 0.0
H1181 H 0.26343 0.79088 0.06591 0.0
C1182 C 0.30338 0.77672 0.15589 0.0
C1183 C 0.31395 0.79059 0.17721 0.0
C1184 C 0.31989 0.81746 0.17797 0.0
C1185 C 0.31455 0.83058 0.15794 0.0
C1186 C 0.30377 0.81644 0.13722 0.0
C1187 C 0.29857 0.79008 0.13594 0.0
C1188 C 0.28615 0.77959 0.11169 0.0
C1189 C 0.30423 0.76265 0.10016 0.0
C1190 C 0.25874 0.76501 0.11237 0.0
C1191 C 0.28432 0.80422 0.09979 0.0
C1192 C 0.29463 0.82526 0.11485 0.0
C1193 C 0.29294 0.85018 0.10862 0.0
C1194 C 0.28008 0.8537 0.08651 0.0
C1195 C 0.26948 0.83243 0.07085 0.0
C1196 C 0.27208 0.80742 0.0774 0.0
H1197 H 0.06732 0.52462 0.09853 0.0
H1198 H 0.99229 0.52034 0.12589 0.0
H1199 H 0.01504 0.51565 0.16541 0.0
H1200 H 0.09431 0.4775 0.13205 0.0
H1201 H 0.12733 0.49378 0.13631 0.0
H1202 H 0.1053 0.49824 0.11066 0.0
H1203 H 0.11215 0.54731 0.12057 0.0
H1204 H 0.1345 0.54304 0.14607 0.0
H1205 H 0.10639 0.56008 0.14891 0.0
H1206 H 0.0465 0.50914 0.20182 0.0
H1207 H 0.08377 0.50526 0.23211 0.0
H1208 H 0.1376 0.51323 0.17999 0.0
C1209 C 0.05564 0.52283 0.11285 0.0
C1210 C 0.02799 0.52278 0.1091 0.0
C1211 C 0.01351 0.52069 0.12838 0.0
C1212 C 0.02625 0.51779 0.15084 0.0
C1213 C 0.05348 0.51715 0.15373 0.0
C1214 C 0.06799 0.51992 0.13525 0.0
C1215 C 0.09694 0.51845 0.14274 0.0
C1216 C 0.10652 0.49563 0.12966 0.0
C1217 C 0.11346 0.54373 0.13938 0.0
C1218 C 0.09656 0.5143 0.16836 0.0
C1219 C 0.07135 0.5135 0.17443 0.0
C1220 C 0.06631 0.50982 0.19723 0.0
C1221 C 0.08763 0.50748 0.21431 0.0
C1222 C 0.11374 0.50889 0.20855 0.0
C1223 C 0.11798 0.512 0.18511 0.0
H1224 H 0.35554 0.7035 0.29251 0.0
H1225 H 0.36268 0.78016 0.26835 0.0
H1226 H 0.40247 0.79182 0.29632 0.0
H1227 H 0.37385 0.72536 0.35374 0.0
H1228 H 0.39091 0.69806 0.36032 0.0
H1229 H 0.36362 0.695 0.33734 0.0
H1230 H 0.39326 0.67789 0.30817 0.0
H1231 H 0.42069 0.68105 0.33101 0.0
H1232 H 0.42365 0.69668 0.30445 0.0
H1233 H 0.4429 0.79473 0.32524 0.0
H1234 H 0.47829 0.7903 0.35715 0.0
H1235 H 0.4418 0.71427 0.3665 0.0
C1236 C 0.36513 0.72286 0.29318 0.0
C1237 C 0.35602 0.7406 0.27757 0.0
C1238 C 0.36958 0.76571 0.27927 0.0
C1239 C 0.39216 0.7727 0.29534 0.0
C1240 C 0.40069 0.75467 0.31013 0.0
C1241 C 0.38733 0.73045 0.30959 0.0
C1242 C 0.40005 0.71516 0.32827 0.0
C1243 C 0.38097 0.70798 0.34597 0.0
C1244 C 0.41 0.69129 0.31731 0.0
C1245 C 0.42273 0.73455 0.33922 0.0
C1246 C 0.42295 0.75707 0.32819 0.0
C1247 C 0.44275 0.77735 0.33426 0.0
C1248 C 0.46277 0.77466 0.35228 0.0
C1249 C 0.46244 0.75211 0.3643 0.0
C1250 C 0.44215 0.73184 0.35774 0.0
H1251 H 0.02137 0.41212 0.03321 0.0
H1252 H 0.03227 0.47192 0.98599 0.0
H1253 H 0.03613 0.43923 0.95419 0.0
H1254 H 0.06531 0.37028 0.01127 0.0
H1255 H 0.04415 0.34162 0.01476 0.0
H1256 H 0.04391 0.36996 0.03377 0.0
H1257 H 0.99351 0.3685 0.0222 0.0
H1258 H 0.99361 0.3402 0.00315 0.0
H1259 H 0.9805 0.36791 0.99179 0.0
H1260 H 0.03917 0.39904 0.92766 0.0
H1261 H 0.03775 0.35537 0.90841 0.0
H1262 H 0.02187 0.323 0.9731 0.0
C1263 C 0.0248 0.41832 0.01621 0.0
C1264 C 0.02669 0.44441 0.01199 0.0
C1265 C 0.03079 0.45192 0.98951 0.0
C1266 C 0.03307 0.43352 0.97141 0.0
C1267 C 0.03091 0.40779 0.97612 0.0
C1268 C 0.02663 0.40026 0.99797 0.0
C1269 C 0.02365 0.37151 0.99843 0.0
C1270 C 0.04557 0.36284 0.01557 0.0
C1271 C 0.99618 0.36145 0.00422 0.0
C1272 C 0.02687 0.36392 0.97342 0.0
C1273 C 0.0314 0.385 0.9608 0.0
C1274 C 0.03549 0.38242 0.93737 0.0
C1275 C 0.03471 0.35761 0.92659 0.0
C1276 C 0.02941 0.33588 0.9392 0.0
C1277 C 0.02557 0.33925 0.9629 0.0
H1278 H 0.66307 0.76352 0.25181 0.0
H1279 H 0.65724 0.84473 0.24896 0.0
H1280 H 0.62876 0.84312 0.28052 0.0
H1281 H 0.59612 0.74491 0.26426 0.0
H1282 H 0.60623 0.72143 0.28377 0.0
H1283 H 0.62452 0.72883 0.2599 0.0
H1284 H 0.66725 0.7395 0.289 0.0
H1285 H 0.64909 0.73224 0.31294 0.0
H1286 H 0.6681 0.76303 0.31316 0.0
H1287 H 0.60237 0.83271 0.31378 0.0
H1288 H 0.58073 0.81446 0.346 0.0
H1289 H 0.6049 0.74037 0.32706 0.0
C1290 C 0.65548 0.78088 0.25763 0.0
C1291 C 0.66224 0.80419 0.24796 0.0
C1292 C 0.65226 0.82663 0.25615 0.0
C1293 C 0.63605 0.82589 0.27403 0.0
C1294 C 0.63007 0.8026 0.28348 0.0
C1295 C 0.63947 0.7805 0.27551 0.0
C1296 C 0.63121 0.75816 0.2892 0.0
C1297 C 0.61346 0.73709 0.27333 0.0
C1298 C 0.65535 0.74763 0.30182 0.0
C1299 C 0.61594 0.77116 0.30632 0.0
C1300 C 0.61529 0.79674 0.30268 0.0
C1301 C 0.60265 0.81266 0.31671 0.0
C1302 C 0.59044 0.80215 0.33497 0.0
C1303 C 0.59115 0.77601 0.33908 0.0
C1304 C 0.60399 0.76042 0.32442 0.0
H1305 H 0.06514 0.08664 0.9501 0.0
H1306 H 0.99175 0.08546 0.98006 0.0
H1307 H 0.98139 0.12348 0.9595 0.0
H1308 H 0.08143 0.15253 0.95636 0.0
H1309 H 0.09555 0.15495 0.92942 0.0
H1310 H 0.09554 0.12579 0.94394 0.0
H1311 H 0.07129 0.1004 0.9063 0.0
H1312 H 0.07118 0.12958 0.89164 0.0
H1313 H 0.04068 0.10979 0.89296 0.0
H1314 H 0.98122 0.16391 0.9393 0.0
H1315 H 0.99165 0.20445 0.92149 0.0
H1316 H 0.06506 0.17963 0.9044 0.0
C1317 C 0.04665 0.09413 0.95193 0.0
C1318 C 0.02922 0.08315 0.96658 0.0
C1319 C 0.00538 0.09358 0.96889 0.0
C1320 C 0.99927 0.11509 0.95718 0.0
C1321 C 0.0171 0.12576 0.94314 0.0
C1322 C 0.04027 0.11559 0.94038 0.0
C1323 C 0.05704 0.13187 0.92583 0.0
C1324 C 0.08397 0.14188 0.93973 0.0
C1325 C 0.06023 0.11702 0.90281 0.0
C1326 C 0.04011 0.15328 0.92153 0.0
C1327 C 0.017 0.14919 0.93141 0.0
C1328 C 0.9991 0.16719 0.93128 0.0
C1329 C 0.0053 0.19027 0.92133 0.0
C1330 C 0.02919 0.19513 0.91173 0.0
C1331 C 0.04643 0.17612 0.91125 0.0
H1332 H 0.37366 0.23032 0.23993 0.0
H1333 H 0.34265 0.30089 0.222 0.0
H1334 H 0.37398 0.30686 0.19326 0.0
H1335 H 0.44205 0.251 0.23404 0.0
H1336 H 0.44792 0.22043 0.22123 0.0
H1337 H 0.42377 0.22208 0.24123 0.0
H1338 H 0.38815 0.1972 0.21016 0.0
H1339 H 0.41221 0.19532 0.19015 0.0
H1340 H 0.38225 0.20902 0.18164 0.0
H1341 H 0.40812 0.305 0.16597 0.0
H1342 H 0.44069 0.29385 0.14015 0.0
H1343 H 0.44925 0.22416 0.17515 0.0
C1344 C 0.37357 0.24704 0.22998 0.0
C1345 C 0.35574 0.2651 0.23323 0.0
C1346 C 0.35606 0.28671 0.21982 0.0
C1347 C 0.37389 0.29037 0.20349 0.0
C1348 C 0.39126 0.27225 0.20072 0.0
C1349 C 0.39116 0.25091 0.21346 0.0
C1350 C 0.41117 0.23382 0.20637 0.0
C1351 C 0.43249 0.23172 0.22695 0.0
C1352 C 0.39763 0.20728 0.19649 0.0
C1353 C 0.42231 0.24876 0.18752 0.0
C1354 C 0.41075 0.271 0.18472 0.0
C1355 C 0.41739 0.28767 0.16803 0.0
C1356 C 0.43597 0.2812 0.15348 0.0
C1357 C 0.44758 0.25814 0.15559 0.0
C1358 C 0.44087 0.24199 0.17313 0.0
H1359 H 0.59517 0.4119 0.01524 0.0
H1360 H 0.53143 0.45435 0.03198 0.0
H1361 H 0.51247 0.41749 0.05139 0.0
H1362 H 0.55556 0.35286 1.00026 0.0
H1363 H 0.57999 0.33346 0.01197 0.0
H1364 H 0.59009 0.36406 0.0017 0.0
H1365 H 0.61723 0.37824 0.04197 0.0
H1366 H 0.60724 0.34764 0.05235 0.0
H1367 H 0.60132 0.37664 0.06804 0.0
H1368 H 0.49965 0.37545 0.06772 0.0
H1369 H 0.49219 0.33057 0.07747 0.0
H1370 H 0.563 0.31459 0.0481 0.0
C1371 C 0.57747 0.41352 0.02337 0.0
C1372 C 0.56484 0.43596 0.02232 0.0
C1373 C 0.54142 0.43731 0.03266 0.0
C1374 C 0.53057 0.41651 0.04378 0.0
C1375 C 0.54328 0.39446 0.04422 0.0
C1376 C 0.56614 0.39277 0.03417 0.0
C1377 C 0.57478 0.36625 0.03547 0.0
C1378 C 0.57511 0.35341 0.01089 0.0
C1379 C 0.60174 0.36726 0.05035 0.0
C1380 C 0.55306 0.35321 0.04758 0.0
C1381 C 0.53533 0.36993 0.0528 0.0
C1382 C 0.51345 0.3622 0.06377 0.0
C1383 C 0.50941 0.33665 0.06927 0.0
C1384 C 0.52695 0.31897 0.06352 0.0
C1385 C 0.54918 0.32756 0.0527 0.0
H1386 H 0.68445 0.20318 0.1773 0.0
H1387 H 0.64967 0.21073 0.24179 0.0
H1388 H 0.60848 0.2205 0.21972 0.0
H1389 H 0.65558 0.25428 0.15018 0.0
H1390 H 0.65004 0.23822 0.12128 0.0
H1391 H 0.67672 0.23102 0.14199 0.0
H1392 H 0.65859 0.18295 0.13685 0.0
H1393 H 0.63197 0.18998 0.11597 0.0
H1394 H 0.62496 0.17338 0.14122 0.0
H1395 H 0.5714 0.23073 0.19087 0.0
H1396 H 0.54032 0.23867 0.15691 0.0
H1397 H 0.59901 0.22435 0.11109 0.0
C1398 C 0.66805 0.20667 0.1867 0.0
C1399 C 0.67031 0.20623 0.21123 0.0
C1400 C 0.64849 0.21101 0.223 0.0
C1401 C 0.62497 0.21661 0.21062 0.0
C1402 C 0.62351 0.2173 0.18648 0.0
C1403 C 0.64438 0.2123 0.1746 0.0
C1404 C 0.63767 0.21444 0.14862 0.0
C1405 C 0.6561 0.23576 0.14002 0.0
C1406 C 0.63833 0.18865 0.13486 0.0
C1407 C 0.60984 0.2215 0.14781 0.0
C1408 C 0.60207 0.2231 0.16983 0.0
C1409 C 0.57723 0.22946 0.1735 0.0
C1410 C 0.55973 0.23402 0.15409 0.0
C1411 C 0.56714 0.23216 0.13127 0.0
C1412 C 0.59265 0.22596 0.12825 0.0
H1413 H 0.47745 0.08652 0.97599 0.0
H1414 H 0.46973 0.03586 0.03163 0.0
H1415 H 0.48114 0.0727 0.06088 0.0
H1416 H 0.53223 0.13304 0.0084 0.0
H1417 H 0.51874 0.16006 0.99601 0.0
H1418 H 0.51406 0.12938 0.97952 0.0
H1419 H 0.46359 0.13079 0.97458 0.0
H1420 H 0.46808 0.16133 0.99107 0.0
H1421 H 0.44719 0.13512 1.00015 0.0
H1422 H 0.48703 0.11461 0.08348 0.0
H1423 H 0.48752 0.15949 0.0984 0.0
H1424 H 0.49248 0.18394 0.02867 0.0
C1425 C 0.47898 0.0832 0.99437 0.0
C1426 C 0.47284 0.05841 0.00164 0.0
C1427 C 0.47431 0.05475 0.02577 0.0
C1428 C 0.48094 0.07551 0.04248 0.0
C1429 C 0.48619 0.09981 0.03479 0.0
C1430 C 0.48548 0.10381 0.01133 0.0
C1431 C 0.48948 0.13216 0.00775 0.0
C1432 C 0.51516 0.13906 0.9973 0.0
C1433 C 0.46566 0.14031 0.99249 0.0
C1434 C 0.49147 0.14343 0.03276 0.0
C1435 C 0.48987 0.12435 0.04806 0.0
C1436 C 0.48885 0.12975 0.07178 0.0
C1437 C 0.48901 0.15527 0.08006 0.0
C1438 C 0.49027 0.1751 0.0647 0.0
C1439 C 0.49212 0.16915 0.04084 0.0
H1440 H 0.29284 0.38935 0.68163 0.0
H1441 H 0.27708 0.38155 0.75328 0.0
H1442 H 0.30946 0.41899 0.76616 0.0
H1443 H 0.36182 0.4005 0.69682 0.0
H1444 H 0.36679 0.422 0.6743 0.0
H1445 H 0.3393 0.39734 0.67016 0.0
H1446 H 0.3074 0.43156 0.66247 0.0
H1447 H 0.33481 0.45639 0.66677 0.0
H1448 H 0.30795 0.45799 0.68393 0.0
H1449 H 0.34497 0.45673 0.77154 0.0
H1450 H 0.38437 0.48763 0.76964 0.0
H1451 H 0.38126 0.46592 0.69581 0.0
C1452 C 0.29612 0.39509 0.70012 0.0
C1453 C 0.2819 0.38215 0.71629 0.0
C1454 C 0.28689 0.39124 0.74023 0.0
C1455 C 0.30548 0.41251 0.74782 0.0
C1456 C 0.31935 0.42432 0.7314 0.0
C1457 C 0.31519 0.41563 0.70811 0.0
C1458 C 0.33459 0.42978 0.69433 0.0
C1459 C 0.35164 0.4113 0.68326 0.0
C1460 C 0.32033 0.44483 0.67578 0.0
C1461 C 0.35064 0.44759 0.7136 0.0
C1462 C 0.34107 0.44466 0.73475 0.0
C1463 C 0.35262 0.45915 0.75509 0.0
C1464 C 0.37485 0.47668 0.75385 0.0
C1465 C 0.38556 0.47902 0.73259 0.0
C1466 C 0.37324 0.46445 0.71221 0.0
H1467 H 0.28349 0.67906 0.74606 0.0
H1468 H 0.28637 0.67008 0.82044 0.0
H1469 H 0.32256 0.64343 0.81854 0.0
H1470 H 0.29543 0.61432 0.73001 0.0
H1471 H 0.31527 0.62347 0.70758 0.0
H1472 H 0.28987 0.64243 0.71478 0.0
H1473 H 0.3242 0.68264 0.72268 0.0
H1474 H 0.34972 0.66379 0.71556 0.0
H1475 H 0.35319 0.68207 0.74338 0.0
H1476 H 0.35857 0.61772 0.80884 0.0
H1477 H 0.39117 0.59383 0.79165 0.0
H1478 H 0.36437 0.61815 0.72335 0.0
C1479 C 0.29161 0.67138 0.76193 0.0
C1480 C 0.28217 0.67706 0.78347 0.0
C1481 C 0.29356 0.66663 0.80381 0.0
C1482 C 0.31405 0.65126 0.8029 0.0
C1483 C 0.32298 0.64624 0.78149 0.0
C1484 C 0.31208 0.65586 0.76134 0.0
C1485 C 0.32521 0.64725 0.74053 0.0
C1486 C 0.30525 0.63089 0.72214 0.0
C1487 C 0.33889 0.67031 0.72992 0.0
C1488 C 0.34514 0.6313 0.75217 0.0
C1489 C 0.34354 0.63105 0.77582 0.0
C1490 C 0.35998 0.61775 0.79032 0.0
C1491 C 0.37848 0.60424 0.78039 0.0
C1492 C 0.3804 0.60404 0.75614 0.0
C1493 C 0.36344 0.61785 0.74194 0.0
H1494 H 0.93699 0.45736 0.48444 0.0
H1495 H 0.89348 0.52296 0.47606 0.0
H1496 H 0.85294 0.49664 0.4832 0.0
H1497 H 0.88573 0.41048 0.45521 0.0
H1498 H 0.8935 0.38614 0.4746 0.0
H1499 H 0.91895 0.4104 0.46917 0.0
H1500 H 0.92972 0.42256 0.51368 0.0
H1501 H 0.90416 0.39846 0.51924 0.0
H1502 H 0.90393 0.43122 0.53009 0.0
H1503 H 0.81692 0.46268 0.49112 0.0
H1504 H 0.78839 0.42379 0.49793 0.0
H1505 H 0.85586 0.38072 0.50052 0.0
C1506 C 0.9189 0.46617 0.48384 0.0
C1507 C 0.91847 0.49226 0.4797 0.0
C1508 C 0.89441 0.5031 0.47947 0.0
C1509 C 0.87125 0.48828 0.48342 0.0
C1510 C 0.87245 0.46265 0.48757 0.0
C1511 C 0.89566 0.45169 0.48771 0.0
C1512 C 0.89174 0.42372 0.4924 0.0
C1513 C 0.89783 0.40669 0.4716 0.0
C1514 C 0.90837 0.41871 0.51521 0.0
C1515 C 0.86266 0.42058 0.49478 0.0
C1516 C 0.85185 0.44323 0.49203 0.0
C1517 C 0.8252 0.44484 0.49332 0.0
C1518 C 0.80915 0.42265 0.49725 0.0
C1519 C 0.8198 0.39912 0.4998 0.0
C1520 C 0.847 0.39833 0.49872 0.0
H1521 H 0.78051 0.85302 0.76325 0.0
H1522 H 0.72165 0.80371 0.79219 0.0
H1523 H 0.68835 0.83248 0.78074 0.0
H1524 H 0.76072 0.9107 0.78247 0.0
H1525 H 0.76679 0.92721 0.75694 0.0
H1526 H 0.78518 0.90125 0.76485 0.0
H1527 H 0.77018 0.87799 0.72387 0.0
H1528 H 0.75174 0.90397 0.7158 0.0
H1529 H 0.73554 0.87169 0.71339 0.0
H1530 H 0.66283 0.86897 0.7703 0.0
H1531 H 0.64695 0.91025 0.76126 0.0
H1532 H 0.72183 0.93528 0.73783 0.0
C1533 C 0.76045 0.8479 0.76658 0.0
C1534 C 0.7537 0.82607 0.77861 0.0
C1535 C 0.72734 0.82042 0.78317 0.0
C1536 C 0.70824 0.83656 0.77659 0.0
C1537 C 0.71567 0.85821 0.76524 0.0
C1538 C 0.7411 0.86382 0.7601 0.0
C1539 C 0.74441 0.88923 0.74926 0.0
C1540 C 0.76551 0.90821 0.76428 0.0
C1541 C 0.75085 0.88549 0.72408 0.0
C1542 C 0.71711 0.89739 0.74975 0.0
C1543 C 0.70077 0.87912 0.75885 0.0
C1544 C 0.67529 0.88321 0.76275 0.0
C1545 C 0.66644 0.90674 0.75759 0.0
C1546 C 0.68298 0.92591 0.74856 0.0
C1547 C 0.70845 0.92083 0.74417 0.0
H1548 H 0.60483 0.57627 0.96779 0.0
H1549 H 0.64532 0.50993 0.98221 0.0
H1550 H 0.68761 0.53783 0.99113 0.0
H1551 H 0.65692 0.61216 0.94152 0.0
H1552 H 0.65115 0.64255 0.95479 0.0
H1553 H 0.62441 0.61718 0.94806 0.0
H1554 H 0.61527 0.62046 0.99117 0.0
H1555 H 0.64197 0.64579 0.99804 0.0
H1556 H 0.64151 0.61757 0.01411 0.0
H1557 H 0.72533 0.57304 0.99911 0.0
H1558 H 0.75544 0.61309 0.0076 0.0
H1559 H 0.69011 0.65683 0.98949 0.0
C1560 C 0.62269 0.56764 0.97252 0.0
C1561 C 0.6219 0.54095 0.9742 0.0
C1562 C 0.64555 0.53035 0.98088 0.0
C1563 C 0.66963 0.54602 0.98588 0.0
C1564 C 0.66973 0.5723 0.98428 0.0
C1565 C 0.64687 0.58306 0.97788 0.0
C1566 C 0.65218 0.61197 0.9787 0.0
C1567 C 0.64579 0.62152 0.95431 0.0
C1568 C 0.63682 0.62469 0.99657 0.0
C1569 C 0.68156 0.61579 0.98669 0.0
C1570 C 0.69134 0.59265 0.98956 0.0
C1571 C 0.71789 0.59128 0.99691 0.0
C1572 C 0.73487 0.61417 0.00165 0.0
C1573 C 0.72522 0.63819 0.99929 0.0
C1574 C 0.69817 0.63884 0.99156 0.0
H1575 H 0.29305 0.65943 0.25432 0.0
H1576 H 0.23746 0.71545 0.24798 0.0
H1577 H 0.20154 0.68247 0.2547 0.0
H1578 H 0.24894 0.60712 0.22362 0.0
H1579 H 0.26155 0.58348 0.24174 0.0
H1580 H 0.28268 0.61172 0.23713 0.0
H1581 H 0.29285 0.62239 0.28189 0.0
H1582 H 0.27183 0.59415 0.28664 0.0
H1583 H 0.26605 0.62497 0.29898 0.0
H1584 H 0.17221 0.6432 0.26391 0.0
H1585 H 0.15154 0.60049 0.27205 0.0
H1586 H 0.22626 0.57025 0.26927 0.0
C1587 C 0.27331 0.6647 0.25448 0.0
C1588 C 0.26788 0.68987 0.2509 0.0
C1589 C 0.24184 0.69616 0.25079 0.0
C1590 C 0.22142 0.67761 0.25461 0.0
C1591 C 0.22739 0.65284 0.25809 0.0
C1592 C 0.25268 0.64634 0.25778 0.0
C1593 C 0.25389 0.6183 0.26122 0.0
C1594 C 0.26225 0.60434 0.23964 0.0
C1595 C 0.27224 0.61476 0.28351 0.0
C1596 C 0.22541 0.61005 0.2638 0.0
C1597 C 0.2104 0.63021 0.26215 0.0
C1598 C 0.18373 0.62722 0.26498 0.0
C1599 C 0.17216 0.60297 0.26962 0.0
C1600 C 0.18724 0.58208 0.271 0.0
C1601 C 0.21412 0.58577 0.26792 0.0
H1602 H 0.97501 0.58636 0.06962 0.0
H1603 H 0.93501 0.51906 0.02783 0.0
H1604 H 0.89888 0.54362 0.01409 0.0
H1605 H 0.91559 0.60964 0.08714 0.0
H1606 H 0.92778 0.6428 0.08586 0.0
H1607 H 0.95047 0.61978 0.09256 0.0
H1608 H 0.97548 0.63345 0.05821 0.0
H1609 H 0.95267 0.65629 0.05124 0.0
H1610 H 0.95778 0.63221 0.02924 0.0
H1611 H 0.8676 0.57576 0.00372 0.0
H1612 H 0.8417 0.61248 1.00011 0.0
H1613 H 0.90118 0.65863 0.04933 0.0
C1614 C 0.95849 0.57672 0.05782 0.0
C1615 C 0.95808 0.55083 0.0496 0.0
C1616 C 0.9361 0.539 0.03403 0.0
C1617 C 0.91539 0.55276 0.02616 0.0
C1618 C 0.91672 0.57837 0.03412 0.0
C1619 C 0.93752 0.5902 0.0498 0.0
C1620 C 0.93393 0.61793 0.0557 0.0
C1621 C 0.93181 0.62281 0.08186 0.0
C1622 C 0.9563 0.63603 0.04814 0.0
C1623 C 0.90793 0.61978 0.04087 0.0
C1624 C 0.89841 0.59679 0.02844 0.0
C1625 C 0.8748 0.59386 0.01344 0.0
C1626 C 0.86028 0.61486 0.0114 0.0
C1627 C 0.86934 0.63845 0.02441 0.0
C1628 C 0.89365 0.64087 0.03913 0.0
H1629 H 0.08964 0.97741 0.05138 0.0
H1630 H 0.05588 0.97375 0.97858 0.0
H1631 H 0.08867 0.9457 0.96809 0.0
H1632 H 0.15694 0.97729 0.04208 0.0
H1633 H 0.16473 0.95703 0.06529 0.0
H1634 H 0.13907 0.97746 0.06704 0.0
H1635 H 0.10587 0.93829 0.0722 0.0
H1636 H 0.1315 0.91778 0.07072 0.0
H1637 H 0.10136 0.91117 0.05094 0.0
H1638 H 0.12607 0.91838 0.96543 0.0
H1639 H 0.16226 0.8911 0.97161 0.0
H1640 H 0.16934 0.91097 0.04622 0.0
C1641 C 0.08885 0.97051 0.03326 0.0
C1642 C 0.07025 0.97812 0.01582 0.0
C1643 C 0.07026 0.96874 0.99226 0.0
C1644 C 0.08875 0.95267 0.9861 0.0
C1645 C 0.107 0.94586 0.0037 0.0
C1646 C 0.10697 0.95424 0.02683 0.0
C1647 C 0.12813 0.94355 0.0425 0.0
C1648 C 0.14842 0.96512 0.05496 0.0
C1649 C 0.11598 0.92669 0.06012 0.0
C1650 C 0.14001 0.92779 0.0246 0.0
C1651 C 0.12781 0.92955 0.00226 0.0
C1652 C 0.1357 0.91677 0.98287 0.0
C1653 C 0.15632 0.90142 0.98651 0.0
C1654 C 0.16848 0.89881 0.00937 0.0
C1655 C 0.1603 0.91242 0.02853 0.0
loop_
_geom_bond_atom_site_label_1
_geom_bond_atom_site_label_2
_geom_bond_distance
_geom_bond_site_symmetry_2
_ccdc_geom_bond_type
H0 C5 0.930 . S
H1 C8 0.901 1_556 S
H2 C10 0.930 . S
H3 C4 1.016 . S
C4 H3 1.016 . S
C4 N11 1.286 1_556 S
C5 H0 0.930 . S
C5 C6 1.397 . S
C5 C7 1.361 . S
C6 C5 1.397 . S
C6 C10 1.390 . S
C7 C5 1.361 . S
C7 C8 1.393 . S
C7 N11 1.413 . S
C8 H1 0.901 1_554 S
C8 C7 1.393 . S
C8 C9 1.399 . S
C9 C8 1.399 . S
C9 C10 1.381 . S
C10 H2 0.930 . S
C10 C6 1.390 . S
C10 C9 1.381 . S
N11 C4 1.286 1_554 S
N11 C7 1.413 . S
H12 C17 0.930 . S
H13 C20 0.930 . S
H14 C22 0.930 . S
H15 C16 1.016 . S
C16 H15 1.016 . S
C16 N23 1.286 . S
C17 H12 0.930 . S
C17 C18 1.397 . S
C17 C19 1.361 . S
C18 C17 1.397 . S
C18 C22 1.390 . S
C19 C17 1.361 . S
C19 C20 1.393 . S
C19 N23 1.413 . S
C20 H13 0.930 . S
C20 C19 1.393 . S
C20 C21 1.399 . S
C21 C20 1.399 . S
C21 C22 1.381 . S
C22 H14 0.930 . S
C22 C18 1.390 . S
C22 C21 1.381 . S
N23 C16 1.286 . S
N23 C19 1.413 . S
H24 C29 0.930 . S
H25 C32 0.930 1_455 S
H26 C34 0.930 . S
H27 C28 1.016 1_455 S
C28 H27 1.016 1_655 S
C28 N35 1.286 . S
C29 H24 0.930 . S
C29 C30 1.397 . S
C29 C31 1.361 . S
C30 C29 1.397 . S
C30 C34 1.390 . S
C31 C29 1.361 . S
C31 C32 1.393 . S
C31 N35 1.413 . S
C32 H25 0.930 1_655 S
C32 C31 1.393 . S
C32 C33 1.399 . S
C33 C32 1.399 . S
C33 C34 1.381 . S
C34 H26 0.930 . S
C34 C30 1.390 . S
C34 C33 1.381 . S
N35 C28 1.286 . S
N35 C31 1.413 . S
H36 C41 0.930 . S
H37 C44 0.930 . S
H38 C46 0.930 . S
H39 C40 1.016 . S
C40 H39 1.016 . S
C40 N47 1.286 . S
C41 H36 0.930 . S
C41 C42 1.397 . S
C41 C43 1.361 . S
C42 C41 1.397 . S
C42 C46 1.390 . S
C43 C41 1.361 . S
C43 C44 1.393 . S
C43 N47 1.413 . S
C44 H37 0.930 . S
C44 C43 1.393 . S
C44 C45 1.399 . S
C45 C44 1.399 . S
C45 C46 1.381 . S
C46 H38 0.930 . S
C46 C42 1.390 . S
C46 C45 1.381 . S
N47 C40 1.286 . S
N47 C43 1.413 . S
H48 C53 0.930 . S
H49 C56 0.930 . S
H50 C58 0.930 . S
H51 C52 1.016 . S
C52 H51 1.016 . S
C52 N59 1.286 . S
C53 H48 0.930 . S
C53 C54 1.397 . S
C53 C55 1.361 . S
C54 C53 1.397 . S
C54 C58 1.390 1_565 S
C55 C53 1.361 . S
C55 C56 1.393 . S
C55 N59 1.413 . S
C56 H49 0.930 . S
C56 C55 1.393 . S
C56 C57 1.399 1_565 S
C57 C56 1.399 1_545 S
C57 C58 1.381 . S
C58 H50 0.930 . S
C58 C54 1.390 1_545 S
C58 C57 1.381 . S
N59 C52 1.286 . S
N59 C55 1.413 . S
H60 C65 0.930 . S
H61 C68 0.930 . S
H62 C70 0.930 . S
H63 C64 1.016 . S
C64 H63 1.016 . S
C64 N71 1.286 . S
C65 H60 0.930 . S
C65 C66 1.397 . S
C65 C67 1.361 . S
C66 C65 1.397 . S
C66 C70 1.390 . S
C67 C65 1.361 . S
C67 C68 1.393 . S
C67 N71 1.413 . S
C68 H61 0.930 . S
C68 C67 1.393 . S
C68 C69 1.399 . S
C69 C68 1.399 . S
C69 C70 1.381 . S
C70 H62 0.930 . S
C70 C66 1.390 . S
C70 C69 1.381 . S
N71 C64 1.286 . S
N71 C67 1.413 . S
H72 C77 0.927 . S
H73 C80 0.930 . S
H74 C82 0.930 . S
H75 C76 1.010 1_655 S
C76 H75 1.010 1_455 S
C76 N83 1.282 1_455 S
C77 H72 0.927 . S
C77 C78 1.397 . S
C77 C79 1.361 . S
C78 C77 1.397 . S
C78 C82 1.390 . S
C79 C77 1.361 . S
C79 C80 1.393 . S
C79 N83 1.419 . S
C80 H73 0.930 . S
C80 C79 1.393 . S
C80 C81 1.399 . S
C81 C80 1.399 . S
C81 C82 1.381 . S
C82 H74 0.930 . S
C82 C78 1.390 . S
C82 C81 1.381 . S
N83 C76 1.282 1_655 S
N83 C79 1.419 . S
H84 C89 0.930 . S
H85 C92 0.930 . S
H86 C94 0.930 . S
H87 C88 1.016 . S
C88 H87 1.016 . S
C88 N95 1.286 . S
C89 H84 0.930 . S
C89 C90 1.397 . S
C89 C91 1.361 . S
C90 C89 1.397 . S
C90 C94 1.390 . S
C91 C89 1.361 . S
C91 C92 1.393 . S
C91 N95 1.413 . S
C92 H85 0.930 . S
C92 C91 1.393 . S
C92 C93 1.399 . S
C93 C92 1.399 . S
C93 C94 1.381 . S
C94 H86 0.930 . S
C94 C90 1.390 . S
C94 C93 1.381 . S
N95 C88 1.286 . S
N95 C91 1.413 . S
H96 C101 0.930 . S
H97 C104 0.930 . S
H98 C106 0.930 . S
H99 C100 1.016 . S
C100 H99 1.016 . S
C100 N107 1.286 . S
C101 H96 0.930 . S
C101 C102 1.397 . S
C101 C103 1.361 . S
C102 C101 1.397 . S
C102 C106 1.390 . S
C103 C101 1.361 . S
C103 C104 1.393 . S
C103 N107 1.413 . S
C104 H97 0.930 . S
C104 C103 1.393 . S
C104 C105 1.399 . S
C105 C104 1.399 . S
C105 C106 1.381 . S
C106 H98 0.930 . S
C106 C102 1.390 . S
C106 C105 1.381 . S
N107 C100 1.286 . S
N107 C103 1.413 . S
H108 C113 0.930 . S
H109 C116 0.930 . S
H110 C118 0.930 . S
H111 C112 1.016 . S
C112 H111 1.016 . S
C112 N119 1.286 . S
C113 H108 0.930 . S
C113 C114 1.397 1_565 S
C113 C115 1.361 . S
C114 C113 1.397 1_545 S
C114 C118 1.390 . S
C115 C113 1.361 . S
C115 C116 1.393 . S
C115 N119 1.413 . S
C116 H109 0.930 . S
C116 C115 1.393 . S
C116 C117 1.399 . S
C117 C116 1.399 . S
C117 C118 1.381 1_565 S
C118 H110 0.930 . S
C118 C114 1.390 . S
C118 C117 1.381 1_545 S
N119 C112 1.286 . S
N119 C115 1.413 . S
H120 C125 0.930 . S
H121 C128 0.930 . S
H122 C130 0.930 . S
H123 C124 1.016 . S
C124 H123 1.016 . S
C124 N131 1.286 . S
C125 H120 0.930 . S
C125 C126 1.397 . S
C125 C127 1.361 . S
C126 C125 1.397 . S
C126 C130 1.390 . S
C127 C125 1.361 . S
C127 C128 1.393 . S
C127 N131 1.413 . S
C128 H121 0.930 . S
C128 C127 1.393 . S
C128 C129 1.399 . S
C129 C128 1.399 . S
C129 C130 1.381 . S
C130 H122 0.930 . S
C130 C126 1.390 . S
C130 C129 1.381 . S
N131 C124 1.286 . S
N131 C127 1.413 . S
H132 C137 0.930 . S
H133 C140 0.930 . S
H134 C142 0.930 . S
H135 C136 1.016 . S
C136 H135 1.016 . S
C136 N143 1.286 . S
C137 H132 0.930 . S
C137 C138 1.397 . S
C137 C139 1.361 . S
C138 C137 1.397 . S
C138 C142 1.390 . S
C139 C137 1.361 . S
C139 C140 1.393 . S
C139 N143 1.413 . S
C140 H133 0.930 . S
C140 C139 1.393 . S
C140 C141 1.399 . S
C141 C140 1.399 . S
C141 C142 1.381 . S
C142 H134 0.930 . S
C142 C138 1.390 . S
C142 C141 1.381 . S
N143 C136 1.286 . S
N143 C139 1.413 . S
H144 C149 0.930 . S
H145 C152 0.930 . S
H146 C154 0.930 . S
H147 C148 1.016 . S
C148 H147 1.016 . S
C148 N155 1.286 . S
C149 H144 0.930 . S
C149 C150 1.397 . S
C149 C151 1.361 . S
C150 C149 1.397 . S
C150 C154 1.390 . S
C151 C149 1.361 . S
C151 C152 1.393 . S
C151 N155 1.413 . S
C152 H145 0.930 . S
C152 C151 1.393 . S
C152 C153 1.399 . S
C153 C152 1.399 . S
C153 C154 1.381 . S
C154 H146 0.930 . S
C154 C150 1.390 . S
C154 C153 1.381 . S
N155 C148 1.286 . S
N155 C151 1.413 . S
H156 C161 0.930 . S
H157 C164 0.930 . S
H158 C166 0.930 . S
H159 C160 1.014 1_554 S
C160 H159 1.014 1_556 S
C160 N167 1.291 . S
C161 H156 0.930 . S
C161 C162 1.397 . S
C161 C163 1.361 . S
C162 C161 1.397 . S
C162 C166 1.390 . S
C163 C161 1.361 . S
C163 C164 1.393 . S
C163 N167 1.413 . S
C164 H157 0.930 . S
C164 C163 1.393 . S
C164 C165 1.399 . S
C165 C164 1.399 . S
C165 C166 1.381 . S
C166 H158 0.930 . S
C166 C162 1.390 . S
C166 C165 1.381 . S
N167 C160 1.291 . S
N167 C163 1.413 . S
H168 C173 0.930 . S
H169 C176 0.930 . S
H170 C178 0.930 . S
H171 C172 1.016 . S
C172 H171 1.016 . S
C172 N179 1.286 . S
C173 H168 0.930 . S
C173 C174 1.397 . S
C173 C175 1.361 . S
C174 C173 1.397 . S
C174 C178 1.390 . S
C175 C173 1.361 . S
C175 C176 1.393 . S
C175 N179 1.413 . S
C176 H169 0.930 . S
C176 C175 1.393 . S
C176 C177 1.399 . S
C177 C176 1.399 . S
C177 C178 1.381 . S
C178 H170 0.930 . S
C178 C174 1.390 . S
C178 C177 1.381 . S
N179 C172 1.286 . S
N179 C175 1.413 . S
H180 C185 0.930 . S
H181 C188 0.930 1_565 S
H182 C190 0.930 1_554 S
H183 C184 1.016 1_565 S
C184 H183 1.016 1_545 S
C184 N191 1.286 . S
C185 H180 0.930 . S
C185 C186 1.397 . S
C185 C187 1.361 . S
C186 C185 1.397 . S
C186 C190 1.390 . S
C187 C185 1.361 . S
C187 C188 1.393 . S
C187 N191 1.413 . S
C188 H181 0.930 1_545 S
C188 C187 1.393 . S
C188 C189 1.399 . S
C189 C188 1.399 . S
C189 C190 1.381 . S
C190 H182 0.930 1_556 S
C190 C186 1.390 . S
C190 C189 1.381 . S
N191 C184 1.286 . S
N191 C187 1.413 . S
Mg192 O193 2.028 . S
Mg192 O199 1.986 1_554 S
Mg192 O201 2.114 . S
Mg192 O202 2.251 . S
Mg192 O205 2.010 . S
O193 Mg192 2.028 . S
O193 C196 1.250 . S
O194 Mg195 2.028 . S
O194 C196 1.248 . S
Mg195 O194 2.028 . S
Mg195 O200 2.032 1_554 S
Mg195 O202 2.079 . S
C196 O193 1.250 . S
C196 O194 1.248 . S
C197 O198 1.264 . S
C197 O205 1.249 . S
O198 C197 1.264 . S
O199 Mg192 1.986 1_556 S
O199 C203 1.246 . S
O200 Mg195 2.032 1_556 S
O200 C203 1.259 . S
O201 Mg192 2.114 . S
O201 C204 1.252 . S
O202 Mg192 2.251 . S
O202 Mg195 2.079 . S
O202 C204 1.273 . S
C203 O199 1.246 . S
C203 O200 1.259 . S
C204 O201 1.252 . S
C204 O202 1.273 . S
O205 Mg192 2.010 . S
O205 C197 1.249 . S
Mg206 O207 2.028 . S
Mg206 O213 1.986 . S
Mg206 O215 2.114 . S
Mg206 O216 2.251 . S
Mg206 O219 2.010 . S
O207 Mg206 2.028 . S
O207 C210 1.250 . S
O208 Mg209 2.028 . S
O208 C210 1.248 . S
Mg209 O208 2.028 . S
Mg209 O214 2.032 . S
Mg209 O216 2.079 . S
C210 O207 1.250 . S
C210 O208 1.248 . S
C211 O212 1.264 . S
C211 O219 1.249 . S
O212 C211 1.264 . S
O213 Mg206 1.986 . S
O213 C217 1.246 . S
O214 Mg209 2.032 . S
O214 C217 1.259 . S
O215 Mg206 2.114 . S
O215 C218 1.252 . S
O216 Mg206 2.251 . S
O216 Mg209 2.079 . S
O216 C218 1.273 . S
C217 O213 1.246 . S
C217 O214 1.259 . S
C218 O215 1.252 . S
C218 O216 1.273 . S
O219 Mg206 2.010 . S
O219 C211 1.249 . S
Mg220 O221 2.028 . S
Mg220 O227 1.986 1_554 S
Mg220 O229 2.114 . S
Mg220 O230 2.251 . S
Mg220 O233 2.010 . S
O221 Mg220 2.028 . S
O221 C224 1.247 1_554 S
O222 Mg223 2.028 . S
O222 C224 1.253 . S
Mg223 O222 2.028 . S
Mg223 O228 2.032 . S
Mg223 O230 2.079 1_556 S
C224 O221 1.247 1_556 S
C224 O222 1.253 . S
C225 O226 1.264 . S
C225 O233 1.249 . S
O226 C225 1.264 . S
O227 Mg220 1.986 1_556 S
O227 C231 1.246 . S
O228 Mg223 2.032 . S
O228 C231 1.259 . S
O229 Mg220 2.114 . S
O229 C232 1.252 . S
O230 Mg220 2.251 . S
O230 Mg223 2.079 1_554 S
O230 C232 1.273 . S
C231 O227 1.246 . S
C231 O228 1.259 . S
C232 O229 1.252 . S
C232 O230 1.273 . S
O233 Mg220 2.010 . S
O233 C225 1.249 . S
Mg234 O235 2.028 . S
Mg234 O241 1.986 . S
Mg234 O243 2.114 . S
Mg234 O244 2.251 . S
Mg234 O247 2.010 . S
O235 Mg234 2.028 . S
O235 C238 1.250 1_545 S
O236 Mg237 2.028 . S
O236 C238 1.248 . S
Mg237 O236 2.028 . S
Mg237 O242 2.032 1_565 S
Mg237 O244 2.079 1_565 S
C238 O235 1.250 1_565 S
C238 O236 1.248 . S
C239 O240 1.264 . S
C239 O247 1.249 . S
O240 C239 1.264 . S
O241 Mg234 1.986 . S
O241 C245 1.246 . S
O242 Mg237 2.032 1_545 S
O242 C245 1.259 . S
O243 Mg234 2.114 . S
O243 C246 1.252 . S
O244 Mg234 2.251 . S
O244 Mg237 2.079 1_545 S
O244 C246 1.273 . S
C245 O241 1.246 . S
C245 O242 1.259 . S
C246 O243 1.252 . S
C246 O244 1.273 . S
O247 Mg234 2.010 . S
O247 C239 1.249 . S
Mg248 O249 2.028 . S
Mg248 O255 1.986 . S
Mg248 O257 2.114 . S
Mg248 O258 2.251 . S
Mg248 O261 2.010 . S
O249 Mg248 2.028 . S
O249 C252 1.250 . S
O250 Mg251 2.028 . S
O250 C252 1.248 . S
Mg251 O250 2.028 . S
Mg251 O256 2.032 . S
Mg251 O258 2.079 . S
C252 O249 1.250 . S
C252 O250 1.248 . S
C253 O254 1.264 . S
C253 O261 1.249 . S
O254 C253 1.264 . S
O255 Mg248 1.986 . S
O255 C259 1.246 . S
O256 Mg251 2.032 . S
O256 C259 1.259 . S
O257 Mg248 2.114 . S
O257 C260 1.252 . S
O258 Mg248 2.251 . S
O258 Mg251 2.079 . S
O258 C260 1.273 . S
C259 O255 1.246 . S
C259 O256 1.259 . S
C260 O257 1.252 . S
C260 O258 1.273 . S
O261 Mg248 2.010 . S
O261 C253 1.249 . S
Mg262 O263 2.028 . S
Mg262 O269 1.986 . S
Mg262 O271 2.114 . S
Mg262 O272 2.251 . S
Mg262 O275 2.010 . S
O263 Mg262 2.028 . S
O263 C266 1.250 . S
O264 Mg265 2.028 . S
O264 C266 1.248 . S
Mg265 O264 2.028 . S
Mg265 O270 2.032 . S
Mg265 O272 2.079 . S
C266 O263 1.250 . S
C266 O264 1.248 . S
C267 O268 1.264 . S
C267 O275 1.249 . S
O268 C267 1.264 . S
O269 Mg262 1.986 . S
O269 C273 1.246 . S
O270 Mg265 2.032 . S
O270 C273 1.259 . S
O271 Mg262 2.114 . S
O271 C274 1.252 . S
O272 Mg262 2.251 . S
O272 Mg265 2.079 . S
O272 C274 1.273 . S
C273 O269 1.246 . S
C273 O270 1.259 . S
C274 O271 1.252 . S
C274 O272 1.273 . S
O275 Mg262 2.010 . S
O275 C267 1.249 . S
Mg276 O277 2.028 . S
Mg276 O283 1.986 . S
Mg276 O285 2.114 . S
Mg276 O286 2.251 . S
Mg276 O289 2.010 . S
O277 Mg276 2.028 . S
O277 C280 1.250 . S
O278 Mg279 2.028 . S
O278 C280 1.248 . S
Mg279 O278 2.028 . S
Mg279 O284 2.032 . S
Mg279 O286 2.079 . S
C280 O277 1.250 . S
C280 O278 1.248 . S
C281 O282 1.264 . S
C281 O289 1.249 . S
O282 C281 1.264 . S
O283 Mg276 1.986 . S
O283 C287 1.246 . S
O284 Mg279 2.032 . S
O284 C287 1.259 . S
O285 Mg276 2.114 . S
O285 C288 1.252 . S
O286 Mg276 2.251 . S
O286 Mg279 2.079 . S
O286 C288 1.273 . S
C287 O283 1.246 . S
C287 O284 1.259 . S
C288 O285 1.252 . S
C288 O286 1.273 . S
O289 Mg276 2.010 . S
O289 C281 1.249 . S
Mg290 O291 2.028 1_545 S
Mg290 O297 1.986 1_545 S
Mg290 O299 2.114 . S
Mg290 O300 2.251 . S
Mg290 O303 2.010 . S
O291 Mg290 2.028 1_565 S
O291 C294 1.250 . S
O292 Mg293 2.028 . S
O292 C294 1.248 . S
Mg293 O292 2.028 . S
Mg293 O298 2.032 . S
Mg293 O300 2.079 1_565 S
C294 O291 1.250 . S
C294 O292 1.248 . S
C295 O296 1.264 . S
C295 O303 1.249 . S
O296 C295 1.264 . S
O297 Mg290 1.986 1_565 S
O297 C301 1.246 . S
O298 Mg293 2.032 . S
O298 C301 1.259 . S
O299 Mg290 2.114 . S
O299 C302 1.252 . S
O300 Mg290 2.251 . S
O300 Mg293 2.079 1_545 S
O300 C302 1.273 . S
C301 O297 1.246 . S
C301 O298 1.259 . S
C302 O299 1.252 . S
C302 O300 1.273 . S
O303 Mg290 2.010 . S
O303 C295 1.249 . S
Mg304 O305 2.028 1_455 S
Mg304 O311 1.986 . S
Mg304 O313 2.114 . S
Mg304 O314 2.251 . S
Mg304 O317 2.010 . S
O305 Mg304 2.028 1_655 S
O305 C308 1.250 . S
O306 Mg307 2.028 . S
O306 C308 1.248 . S
Mg307 O306 2.028 . S
Mg307 O312 2.032 . S
Mg307 O314 2.079 1_655 S
C308 O305 1.250 . S
C308 O306 1.248 . S
C309 O310 1.264 . S
C309 O317 1.249 . S
O310 C309 1.264 . S
O311 Mg304 1.986 . S
O311 C315 1.246 . S
O312 Mg307 2.032 . S
O312 C315 1.259 1_655 S
O313 Mg304 2.114 . S
O313 C316 1.252 . S
O314 Mg304 2.251 . S
O314 Mg307 2.079 1_455 S
O314 C316 1.273 . S
C315 O311 1.246 . S
C315 O312 1.259 1_455 S
C316 O313 1.252 . S
C316 O314 1.273 . S
O317 Mg304 2.010 . S
O317 C309 1.249 . S
Mg318 O319 2.028 . S
Mg318 O325 1.986 . S
Mg318 O327 2.114 . S
Mg318 O328 2.251 . S
Mg318 O331 2.010 . S
O319 Mg318 2.028 . S
O319 C322 1.250 . S
O320 Mg321 2.028 . S
O320 C322 1.248 . S
Mg321 O320 2.028 . S
Mg321 O326 2.032 . S
Mg321 O328 2.079 . S
C322 O319 1.250 . S
C322 O320 1.248 . S
C323 O324 1.264 . S
C323 O331 1.249 . S
O324 C323 1.264 . S
O325 Mg318 1.986 . S
O325 C329 1.246 . S
O326 Mg321 2.032 . S
O326 C329 1.259 . S
O327 Mg318 2.114 . S
O327 C330 1.252 . S
O328 Mg318 2.251 . S
O328 Mg321 2.079 . S
O328 C330 1.273 . S
C329 O325 1.246 . S
C329 O326 1.259 . S
C330 O327 1.252 . S
C330 O328 1.273 . S
O331 Mg318 2.010 . S
O331 C323 1.249 . S
Mg332 O333 2.028 1_655 S
Mg332 O339 1.989 . S
Mg332 O341 2.114 . S
Mg332 O342 2.251 1_655 S
Mg332 O345 2.010 . S
O333 Mg332 2.028 1_455 S
O333 C336 1.250 . S
O334 Mg335 2.028 . S
O334 C336 1.248 . S
Mg335 O334 2.028 . S
Mg335 O340 2.032 . S
Mg335 O342 2.079 . S
C336 O333 1.250 . S
C336 O334 1.248 . S
C337 O338 1.264 . S
C337 O345 1.249 . S
O338 C337 1.264 . S
O339 Mg332 1.989 . S
O339 C343 1.237 1_655 S
O340 Mg335 2.032 . S
O340 C343 1.259 . S
O341 Mg332 2.114 . S
O341 C344 1.252 . S
O342 Mg332 2.251 1_455 S
O342 Mg335 2.079 . S
O342 C344 1.273 1_455 S
C343 O339 1.237 1_455 S
C343 O340 1.259 . S
C344 O341 1.252 . S
C344 O342 1.273 1_655 S
O345 Mg332 2.010 . S
O345 C337 1.249 . S
Mg346 O347 2.028 . S
Mg346 O353 1.986 . S
Mg346 O355 2.114 . S
Mg346 O356 2.251 . S
Mg346 O359 2.010 . S
O347 Mg346 2.028 . S
O347 C350 1.250 . S
O348 Mg349 2.028 . S
O348 C350 1.248 . S
Mg349 O348 2.028 . S
Mg349 O354 2.032 . S
Mg349 O356 2.079 . S
C350 O347 1.250 . S
C350 O348 1.248 . S
C351 O352 1.264 . S
C351 O359 1.249 . S
O352 C351 1.264 . S
O353 Mg346 1.986 . S
O353 C357 1.246 . S
O354 Mg349 2.032 . S
O354 C357 1.259 . S
O355 Mg346 2.114 . S
O355 C358 1.252 . S
O356 Mg346 2.251 . S
O356 Mg349 2.079 . S
O356 C358 1.273 . S
C357 O353 1.246 . S
C357 O354 1.259 . S
C358 O355 1.252 . S
C358 O356 1.273 . S
O359 Mg346 2.010 . S
O359 C351 1.249 . S
H360 C372 0.930 . S
H361 C374 0.930 . S
H362 C375 0.930 . S
H363 C379 0.959 . S
H364 C379 0.959 . S
H365 C379 0.961 . S
H366 C380 0.960 . S
H367 C380 0.961 . S
H368 C380 0.959 . S
H369 C383 0.929 . S
H370 C384 0.931 . S
H371 C386 0.930 . S
C372 H360 0.930 . S
C372 C373 1.399 . S
C372 C377 1.399 . S
C373 C372 1.399 . S
C373 C374 1.376 . S
C374 H361 0.930 . S
C374 C373 1.376 . S
C374 C375 1.388 . S
C375 H362 0.930 . S
C375 C374 1.388 . S
C375 C376 1.390 . S
C376 C375 1.390 . S
C376 C377 1.394 . S
C376 C382 1.465 . S
C377 C372 1.399 . S
C377 C376 1.394 . S
C377 C378 1.516 . S
C378 C377 1.516 . S
C378 C379 1.502 . S
C378 C380 1.561 . S
C378 C381 1.526 . S
C379 H363 0.959 . S
C379 H364 0.959 . S
C379 H365 0.961 . S
C379 C378 1.502 . S
C380 H366 0.960 . S
C380 H367 0.961 . S
C380 H368 0.959 . S
C380 C378 1.561 . S
C381 C378 1.526 . S
C381 C382 1.396 . S
C381 C386 1.390 . S
C382 C376 1.465 . S
C382 C381 1.396 . S
C382 C383 1.399 . S
C383 H369 0.929 . S
C383 C382 1.399 . S
C383 C384 1.385 . S
C384 H370 0.931 . S
C384 C383 1.385 . S
C384 C385 1.389 . S
C385 C384 1.389 . S
C385 C386 1.387 . S
C386 H371 0.930 . S
C386 C381 1.390 . S
C386 C385 1.387 . S
H387 C399 0.930 . S
H388 C401 0.930 . S
H389 C402 0.930 . S
H390 C406 0.959 . S
H391 C406 0.959 . S
H392 C406 0.961 . S
H393 C407 0.960 . S
H394 C407 0.961 . S
H395 C407 0.959 . S
H396 C410 0.929 . S
H397 C411 0.931 . S
H398 C413 0.930 . S
C399 H387 0.930 . S
C399 C400 1.399 . S
C399 C404 1.399 . S
C400 C399 1.399 . S
C400 C401 1.376 . S
C401 H388 0.930 . S
C401 C400 1.376 . S
C401 C402 1.388 . S
C402 H389 0.930 . S
C402 C401 1.388 . S
C402 C403 1.390 . S
C403 C402 1.390 . S
C403 C404 1.394 . S
C403 C409 1.465 . S
C404 C399 1.399 . S
C404 C403 1.394 . S
C404 C405 1.516 . S
C405 C404 1.516 . S
C405 C406 1.502 . S
C405 C407 1.561 . S
C405 C408 1.526 . S
C406 H390 0.959 . S
C406 H391 0.959 . S
C406 H392 0.961 . S
C406 C405 1.502 . S
C407 H393 0.960 . S
C407 H394 0.961 . S
C407 H395 0.959 . S
C407 C405 1.561 . S
C408 C405 1.526 . S
C408 C409 1.396 . S
C408 C413 1.390 . S
C409 C403 1.465 . S
C409 C408 1.396 . S
C409 C410 1.399 . S
C410 H396 0.929 . S
C410 C409 1.399 . S
C410 C411 1.385 . S
C411 H397 0.931 . S
C411 C410 1.385 . S
C411 C412 1.389 . S
C412 C411 1.389 . S
C412 C413 1.387 . S
C413 H398 0.930 . S
C413 C408 1.390 . S
C413 C412 1.387 . S
H414 C426 0.930 . S
H415 C428 0.930 . S
H416 C429 0.930 . S
H417 C433 0.959 . S
H418 C433 0.959 . S
H419 C433 0.961 . S
H420 C434 0.960 . S
H421 C434 0.961 . S
H422 C434 0.959 . S
H423 C437 0.929 . S
H424 C438 0.931 . S
H425 C440 0.930 . S
C426 H414 0.930 . S
C426 C427 1.399 . S
C426 C431 1.399 . S
C427 C426 1.399 . S
C427 C428 1.376 . S
C428 H415 0.930 . S
C428 C427 1.376 . S
C428 C429 1.388 . S
C429 H416 0.930 . S
C429 C428 1.388 . S
C429 C430 1.390 . S
C430 C429 1.390 . S
C430 C431 1.394 . S
C430 C436 1.465 . S
C431 C426 1.399 . S
C431 C430 1.394 . S
C431 C432 1.516 . S
C432 C431 1.516 . S
C432 C433 1.502 . S
C432 C434 1.561 . S
C432 C435 1.526 . S
C433 H417 0.959 . S
C433 H418 0.959 . S
C433 H419 0.961 . S
C433 C432 1.502 . S
C434 H420 0.960 . S
C434 H421 0.961 . S
C434 H422 0.959 . S
C434 C432 1.561 . S
C435 C432 1.526 . S
C435 C436 1.396 . S
C435 C440 1.390 . S
C436 C430 1.465 . S
C436 C435 1.396 . S
C436 C437 1.399 . S
C437 H423 0.929 . S
C437 C436 1.399 . S
C437 C438 1.385 . S
C438 H424 0.931 . S
C438 C437 1.385 . S
C438 C439 1.389 . S
C439 C438 1.389 . S
C439 C440 1.387 . S
C440 H425 0.930 . S
C440 C435 1.390 . S
C440 C439 1.387 . S
H441 C453 0.930 . S
H442 C455 0.930 . S
H443 C456 0.930 . S
H444 C460 0.959 . S
H445 C460 0.959 . S
H446 C460 0.961 . S
H447 C461 0.960 . S
H448 C461 0.961 . S
H449 C461 0.959 . S
H450 C464 0.948 . S
H451 C465 0.931 . S
H452 C467 0.930 . S
C453 H441 0.930 . S
C453 C454 1.399 1_545 S
C453 C458 1.399 . S
C454 C453 1.399 1_565 S
C454 C455 1.376 . S
C455 H442 0.930 . S
C455 C454 1.376 . S
C455 C456 1.388 . S
C456 H443 0.930 . S
C456 C455 1.388 . S
C456 C457 1.403 . S
C457 C456 1.403 . S
C457 C458 1.382 1_565 S
C457 C463 1.461 1_565 S
C458 C453 1.399 . S
C458 C457 1.382 1_545 S
C458 C459 1.516 . S
C459 C458 1.516 . S
C459 C460 1.502 1_455 S
C459 C461 1.561 . S
C459 C462 1.527 . S
C460 H444 0.959 . S
C460 H445 0.959 . S
C460 H446 0.961 . S
C460 C459 1.502 1_655 S
C461 H447 0.960 . S
C461 H448 0.961 . S
C461 H449 0.959 . S
C461 C459 1.561 . S
C462 C459 1.527 . S
C462 C463 1.399 . S
C462 C467 1.386 1_455 S
C463 C457 1.461 1_545 S
C463 C462 1.399 . S
C463 C464 1.403 1_545 S
C464 H450 0.948 . S
C464 C463 1.403 1_565 S
C464 C465 1.364 1_455 S
C465 H451 0.931 . S
C465 C464 1.364 1_655 S
C465 C466 1.389 1_565 S
C466 C465 1.389 1_545 S
C466 C467 1.387 . S
C467 H452 0.930 . S
C467 C462 1.386 1_655 S
C467 C466 1.387 . S
H468 C480 0.930 . S
H469 C482 0.930 . S
H470 C483 0.930 . S
H471 C487 0.959 . S
H472 C487 0.959 . S
H473 C487 0.961 . S
H474 C488 0.960 . S
H475 C488 0.961 . S
H476 C488 0.959 . S
H477 C491 0.929 . S
H478 C492 0.931 . S
H479 C494 0.930 . S
C480 H468 0.930 . S
C480 C481 1.399 . S
C480 C485 1.399 . S
C481 C480 1.399 . S
C481 C482 1.376 . S
C482 H469 0.930 . S
C482 C481 1.376 . S
C482 C483 1.388 . S
C483 H470 0.930 . S
C483 C482 1.388 . S
C483 C484 1.390 . S
C484 C483 1.390 . S
C484 C485 1.394 . S
C484 C490 1.465 . S
C485 C480 1.399 . S
C485 C484 1.394 . S
C485 C486 1.516 . S
C486 C485 1.516 . S
C486 C487 1.502 . S
C486 C488 1.561 . S
C486 C489 1.526 . S
C487 H471 0.959 . S
C487 H472 0.959 . S
C487 H473 0.961 . S
C487 C486 1.502 . S
C488 H474 0.960 . S
C488 H475 0.961 . S
C488 H476 0.959 . S
C488 C486 1.561 . S
C489 C486 1.526 . S
C489 C490 1.396 . S
C489 C494 1.390 . S
C490 C484 1.465 . S
C490 C489 1.396 . S
C490 C491 1.399 . S
C491 H477 0.929 . S
C491 C490 1.399 . S
C491 C492 1.385 . S
C492 H478 0.931 . S
C492 C491 1.385 . S
C492 C493 1.389 . S
C493 C492 1.389 . S
C493 C494 1.387 . S
C494 H479 0.930 . S
C494 C489 1.390 . S
C494 C493 1.387 . S
H495 C507 0.930 . S
H496 C509 0.930 . S
H497 C510 0.930 . S
H498 C514 0.959 . S
H499 C514 0.959 . S
H500 C514 0.961 . S
H501 C515 0.960 . S
H502 C515 0.961 . S
H503 C515 0.959 . S
H504 C518 0.929 . S
H505 C519 0.931 . S
H506 C521 0.930 . S
C507 H495 0.930 . S
C507 C508 1.399 . S
C507 C512 1.399 . S
C508 C507 1.399 . S
C508 C509 1.376 . S
C509 H496 0.930 . S
C509 C508 1.376 . S
C509 C510 1.388 . S
C510 H497 0.930 . S
C510 C509 1.388 . S
C510 C511 1.390 . S
C511 C510 1.390 . S
C511 C512 1.394 . S
C511 C517 1.465 . S
C512 C507 1.399 . S
C512 C511 1.394 . S
C512 C513 1.516 . S
C513 C512 1.516 . S
C513 C514 1.502 . S
C513 C515 1.561 . S
C513 C516 1.526 . S
C514 H498 0.959 . S
C514 H499 0.959 . S
C514 H500 0.961 . S
C514 C513 1.502 . S
C515 H501 0.960 . S
C515 H502 0.961 . S
C515 H503 0.959 . S
C515 C513 1.561 . S
C516 C513 1.526 . S
C516 C517 1.396 . S
C516 C521 1.390 . S
C517 C511 1.465 . S
C517 C516 1.396 . S
C517 C518 1.399 . S
C518 H504 0.929 . S
C518 C517 1.399 . S
C518 C519 1.385 . S
C519 H505 0.931 . S
C519 C518 1.385 . S
C519 C520 1.389 . S
C520 C519 1.389 . S
C520 C521 1.387 . S
C521 H506 0.930 . S
C521 C516 1.390 . S
C521 C520 1.387 . S
H522 C534 0.930 . S
H523 C536 0.930 . S
H524 C537 0.930 . S
H525 C541 0.959 . S
H526 C541 0.959 . S
H527 C541 0.961 . S
H528 C542 0.960 . S
H529 C542 0.961 . S
H530 C542 0.959 . S
H531 C545 0.929 . S
H532 C546 0.931 . S
H533 C548 0.930 . S
C534 H522 0.930 . S
C534 C535 1.399 . S
C534 C539 1.399 . S
C535 C534 1.399 . S
C535 C536 1.376 . S
C536 H523 0.930 . S
C536 C535 1.376 . S
C536 C537 1.388 . S
C537 H524 0.930 . S
C537 C536 1.388 . S
C537 C538 1.390 . S
C538 C537 1.390 . S
C538 C539 1.394 . S
C538 C544 1.465 . S
C539 C534 1.399 . S
C539 C538 1.394 . S
C539 C540 1.516 . S
C540 C539 1.516 . S
C540 C541 1.502 . S
C540 C542 1.561 . S
C540 C543 1.526 . S
C541 H525 0.959 . S
C541 H526 0.959 . S
C541 H527 0.961 . S
C541 C540 1.502 . S
C542 H528 0.960 . S
C542 H529 0.961 . S
C542 H530 0.959 . S
C542 C540 1.561 . S
C543 C540 1.526 . S
C543 C544 1.396 . S
C543 C548 1.390 . S
C544 C538 1.465 . S
C544 C543 1.396 . S
C544 C545 1.399 . S
C545 H531 0.929 . S
C545 C544 1.399 . S
C545 C546 1.385 . S
C546 H532 0.931 . S
C546 C545 1.385 . S
C546 C547 1.389 . S
C547 C546 1.389 . S
C547 C548 1.387 . S
C548 H533 0.930 . S
C548 C543 1.390 . S
C548 C547 1.387 . S
H549 C561 0.930 . S
H550 C563 0.930 . S
H551 C564 0.930 . S
H552 C568 0.959 . S
H553 C568 0.959 . S
H554 C568 0.961 . S
H555 C569 0.960 . S
H556 C569 0.961 . S
H557 C569 0.959 . S
H558 C572 0.929 . S
H559 C573 0.931 . S
H560 C575 0.930 . S
C561 H549 0.930 . S
C561 C562 1.399 1_545 S
C561 C566 1.399 1_545 S
C562 C561 1.399 1_565 S
C562 C563 1.376 . S
C563 H550 0.930 . S
C563 C562 1.376 . S
C563 C564 1.388 . S
C564 H551 0.930 . S
C564 C563 1.388 . S
C564 C565 1.390 . S
C565 C564 1.390 . S
C565 C566 1.394 . S
C565 C571 1.465 . S
C566 C561 1.399 1_565 S
C566 C565 1.394 . S
C566 C567 1.516 1_565 S
C567 C566 1.516 1_545 S
C567 C568 1.502 . S
C567 C569 1.561 . S
C567 C570 1.526 . S
C568 H552 0.959 . S
C568 H553 0.959 . S
C568 H554 0.961 . S
C568 C567 1.502 . S
C569 H555 0.960 . S
C569 H556 0.961 . S
C569 H557 0.959 . S
C569 C567 1.561 . S
C570 C567 1.526 . S
C570 C571 1.396 1_545 S
C570 C575 1.390 . S
C571 C565 1.465 . S
C571 C570 1.396 1_565 S
C571 C572 1.399 . S
C572 H558 0.929 . S
C572 C571 1.399 . S
C572 C573 1.385 . S
C573 H559 0.931 . S
C573 C572 1.385 . S
C573 C574 1.389 . S
C574 C573 1.389 . S
C574 C575 1.387 1_565 S
C575 H560 0.930 . S
C575 C570 1.390 . S
C575 C574 1.387 1_545 S
H576 C588 0.930 . S
H577 C590 0.930 . S
H578 C591 0.930 . S
H579 C595 0.959 . S
H580 C595 0.959 . S
H581 C595 0.961 . S
H582 C596 0.960 . S
H583 C596 0.961 . S
H584 C596 0.959 . S
H585 C599 0.929 . S
H586 C600 0.931 . S
H587 C602 0.930 . S
C588 H576 0.930 . S
C588 C589 1.399 . S
C588 C593 1.399 . S
C589 C588 1.399 . S
C589 C590 1.376 . S
C590 H577 0.930 . S
C590 C589 1.376 . S
C590 C591 1.388 . S
C591 H578 0.930 . S
C591 C590 1.388 . S
C591 C592 1.390 . S
C592 C591 1.390 . S
C592 C593 1.394 . S
C592 C598 1.465 . S
C593 C588 1.399 . S
C593 C592 1.394 . S
C593 C594 1.516 . S
C594 C593 1.516 . S
C594 C595 1.502 . S
C594 C596 1.561 . S
C594 C597 1.526 . S
C595 H579 0.959 . S
C595 H580 0.959 . S
C595 H581 0.961 . S
C595 C594 1.502 . S
C596 H582 0.960 . S
C596 H583 0.961 . S
C596 H584 0.959 . S
C596 C594 1.561 . S
C597 C594 1.526 . S
C597 C598 1.396 . S
C597 C602 1.390 . S
C598 C592 1.465 . S
C598 C597 1.396 . S
C598 C599 1.399 . S
C599 H585 0.929 . S
C599 C598 1.399 . S
C599 C600 1.385 . S
C600 H586 0.931 . S
C600 C599 1.385 . S
C600 C601 1.389 . S
C601 C600 1.389 . S
C601 C602 1.387 . S
C602 H587 0.930 . S
C602 C597 1.390 . S
C602 C601 1.387 . S
H603 C615 0.930 . S
H604 C617 0.930 . S
H605 C618 0.930 . S
H606 C622 0.959 . S
H607 C622 0.959 . S
H608 C622 0.961 . S
H609 C623 0.960 . S
H610 C623 0.961 . S
H611 C623 0.959 . S
H612 C626 0.929 . S
H613 C627 0.931 . S
H614 C629 0.930 . S
C615 H603 0.930 . S
C615 C616 1.399 . S
C615 C620 1.399 . S
C616 C615 1.399 . S
C616 C617 1.376 . S
C617 H604 0.930 . S
C617 C616 1.376 . S
C617 C618 1.388 . S
C618 H605 0.930 . S
C618 C617 1.388 . S
C618 C619 1.390 . S
C619 C618 1.390 . S
C619 C620 1.394 . S
C619 C625 1.465 . S
C620 C615 1.399 . S
C620 C619 1.394 . S
C620 C621 1.516 . S
C621 C620 1.516 . S
C621 C622 1.502 . S
C621 C623 1.561 . S
C621 C624 1.526 . S
C622 H606 0.959 . S
C622 H607 0.959 . S
C622 H608 0.961 . S
C622 C621 1.502 . S
C623 H609 0.960 . S
C623 H610 0.961 . S
C623 H611 0.959 . S
C623 C621 1.561 . S
C624 C621 1.526 . S
C624 C625 1.396 . S
C624 C629 1.390 . S
C625 C619 1.465 . S
C625 C624 1.396 . S
C625 C626 1.399 . S
C626 H612 0.929 . S
C626 C625 1.399 . S
C626 C627 1.385 . S
C627 H613 0.931 . S
C627 C626 1.385 . S
C627 C628 1.389 . S
C628 C627 1.389 . S
C628 C629 1.387 . S
C629 H614 0.930 . S
C629 C624 1.390 . S
C629 C628 1.387 . S
H630 C642 0.930 . S
H631 C644 0.930 . S
H632 C645 0.930 . S
H633 C649 0.959 . S
H634 C649 0.959 . S
H635 C649 0.961 . S
H636 C650 0.960 . S
H637 C650 0.961 . S
H638 C650 0.959 . S
H639 C653 0.929 . S
H640 C654 0.931 . S
H641 C656 0.930 . S
C642 H630 0.930 . S
C642 C643 1.399 . S
C642 C647 1.399 . S
C643 C642 1.399 . S
C643 C644 1.376 . S
C644 H631 0.930 . S
C644 C643 1.376 . S
C644 C645 1.388 . S
C645 H632 0.930 . S
C645 C644 1.388 . S
C645 C646 1.390 . S
C646 C645 1.390 . S
C646 C647 1.394 . S
C646 C652 1.465 . S
C647 C642 1.399 . S
C647 C646 1.394 . S
C647 C648 1.516 . S
C648 C647 1.516 . S
C648 C649 1.502 . S
C648 C650 1.561 . S
C648 C651 1.526 . S
C649 H633 0.959 . S
C649 H634 0.959 . S
C649 H635 0.961 . S
C649 C648 1.502 . S
C650 H636 0.960 . S
C650 H637 0.961 . S
C650 H638 0.959 . S
C650 C648 1.561 . S
C651 C648 1.526 . S
C651 C652 1.396 . S
C651 C656 1.390 . S
C652 C646 1.465 . S
C652 C651 1.396 . S
C652 C653 1.399 . S
C653 H639 0.929 . S
C653 C652 1.399 . S
C653 C654 1.385 . S
C654 H640 0.931 . S
C654 C653 1.385 . S
C654 C655 1.389 . S
C655 C654 1.389 . S
C655 C656 1.387 . S
C656 H641 0.930 . S
C656 C651 1.390 . S
C656 C655 1.387 . S
H657 C669 0.930 . S
H658 C671 0.930 . S
H659 C672 0.930 . S
H660 C676 0.959 . S
H661 C676 0.959 . S
H662 C676 0.961 . S
H663 C677 0.960 . S
H664 C677 0.961 . S
H665 C677 0.959 . S
H666 C680 0.929 . S
H667 C681 0.931 . S
H668 C683 0.930 . S
C669 H657 0.930 . S
C669 C670 1.399 . S
C669 C674 1.399 . S
C670 C669 1.399 . S
C670 C671 1.376 . S
C671 H658 0.930 . S
C671 C670 1.376 . S
C671 C672 1.388 . S
C672 H659 0.930 . S
C672 C671 1.388 . S
C672 C673 1.390 . S
C673 C672 1.390 . S
C673 C674 1.394 . S
C673 C679 1.465 . S
C674 C669 1.399 . S
C674 C673 1.394 . S
C674 C675 1.516 . S
C675 C674 1.516 . S
C675 C676 1.502 . S
C675 C677 1.561 . S
C675 C678 1.526 . S
C676 H660 0.959 . S
C676 H661 0.959 . S
C676 H662 0.961 . S
C676 C675 1.502 . S
C677 H663 0.960 . S
C677 H664 0.961 . S
C677 H665 0.959 . S
C677 C675 1.561 . S
C678 C675 1.526 . S
C678 C679 1.396 . S
C678 C683 1.390 . S
C679 C673 1.465 . S
C679 C678 1.396 . S
C679 C680 1.399 . S
C680 H666 0.929 . S
C680 C679 1.399 . S
C680 C681 1.385 . S
C681 H667 0.931 . S
C681 C680 1.385 . S
C681 C682 1.389 . S
C682 C681 1.389 . S
C682 C683 1.387 . S
C683 H668 0.930 . S
C683 C678 1.390 . S
C683 C682 1.387 . S
H684 C696 0.930 . S
H685 C698 0.930 . S
H686 C699 0.930 . S
H687 C703 0.959 . S
H688 C703 0.959 . S
H689 C703 0.961 . S
H690 C704 0.960 . S
H691 C704 0.961 . S
H692 C704 0.959 . S
H693 C707 0.929 . S
H694 C708 0.931 . S
H695 C710 0.930 . S
C696 H684 0.930 . S
C696 C697 1.399 . S
C696 C701 1.399 . S
C697 C696 1.399 . S
C697 C698 1.376 . S
C698 H685 0.930 . S
C698 C697 1.376 . S
C698 C699 1.388 . S
C699 H686 0.930 . S
C699 C698 1.388 . S
C699 C700 1.390 . S
C700 C699 1.390 . S
C700 C701 1.394 . S
C700 C706 1.465 . S
C701 C696 1.399 . S
C701 C700 1.394 . S
C701 C702 1.516 . S
C702 C701 1.516 . S
C702 C703 1.502 . S
C702 C704 1.561 . S
C702 C705 1.526 . S
C703 H687 0.959 . S
C703 H688 0.959 . S
C703 H689 0.961 . S
C703 C702 1.502 . S
C704 H690 0.960 . S
C704 H691 0.961 . S
C704 H692 0.959 . S
C704 C702 1.561 . S
C705 C702 1.526 . S
C705 C706 1.396 . S
C705 C710 1.390 . S
C706 C700 1.465 . S
C706 C705 1.396 . S
C706 C707 1.399 . S
C707 H693 0.929 . S
C707 C706 1.399 . S
C707 C708 1.385 . S
C708 H694 0.931 . S
C708 C707 1.385 . S
C708 C709 1.389 . S
C709 C708 1.389 . S
C709 C710 1.387 . S
C710 H695 0.930 . S
C710 C705 1.390 . S
C710 C709 1.387 . S
H711 C723 0.930 . S
H712 C725 0.930 . S
H713 C726 0.930 . S
H714 C730 0.959 . S
H715 C730 0.959 . S
H716 C730 0.961 . S
H717 C731 0.960 . S
H718 C731 0.961 . S
H719 C731 0.959 . S
H720 C734 0.929 . S
H721 C735 0.931 . S
H722 C737 0.930 . S
C723 H711 0.930 . S
C723 C724 1.399 . S
C723 C728 1.399 . S
C724 C723 1.399 . S
C724 C725 1.376 . S
C725 H712 0.930 . S
C725 C724 1.376 . S
C725 C726 1.388 . S
C726 H713 0.930 . S
C726 C725 1.388 . S
C726 C727 1.390 . S
C727 C726 1.390 . S
C727 C728 1.394 . S
C727 C733 1.465 . S
C728 C723 1.399 . S
C728 C727 1.394 . S
C728 C729 1.516 . S
C729 C728 1.516 . S
C729 C730 1.502 1_455 S
C729 C731 1.561 . S
C729 C732 1.526 . S
C730 H714 0.959 . S
C730 H715 0.959 . S
C730 H716 0.961 . S
C730 C729 1.502 1_655 S
C731 H717 0.960 . S
C731 H718 0.961 . S
C731 H719 0.959 . S
C731 C729 1.561 . S
C732 C729 1.526 . S
C732 C733 1.396 . S
C732 C737 1.390 . S
C733 C727 1.465 . S
C733 C732 1.396 . S
C733 C734 1.399 . S
C734 H720 0.929 . S
C734 C733 1.399 . S
C734 C735 1.385 . S
C735 H721 0.931 . S
C735 C734 1.385 . S
C735 C736 1.389 . S
C736 C735 1.389 . S
C736 C737 1.387 . S
C737 H722 0.930 . S
C737 C732 1.390 . S
C737 C736 1.387 . S
H738 C750 0.930 . S
H739 C752 0.930 . S
H740 C753 0.930 . S
H741 C757 0.959 . S
H742 C757 0.959 . S
H743 C757 0.961 . S
H744 C758 0.960 . S
H745 C758 0.961 . S
H746 C758 0.959 . S
H747 C761 0.929 . S
H748 C762 0.931 . S
H749 C764 0.930 . S
C750 H738 0.930 . S
C750 C751 1.399 . S
C750 C755 1.399 . S
C751 C750 1.399 . S
C751 C752 1.376 . S
C752 H739 0.930 . S
C752 C751 1.376 . S
C752 C753 1.388 . S
C753 H740 0.930 . S
C753 C752 1.388 . S
C753 C754 1.390 . S
C754 C753 1.390 . S
C754 C755 1.394 . S
C754 C760 1.465 . S
C755 C750 1.399 . S
C755 C754 1.394 . S
C755 C756 1.516 . S
C756 C755 1.516 . S
C756 C757 1.502 . S
C756 C758 1.561 . S
C756 C759 1.526 . S
C757 H741 0.959 . S
C757 H742 0.959 . S
C757 H743 0.961 . S
C757 C756 1.502 . S
C758 H744 0.960 . S
C758 H745 0.961 . S
C758 H746 0.959 . S
C758 C756 1.561 . S
C759 C756 1.526 . S
C759 C760 1.396 . S
C759 C764 1.390 . S
C760 C754 1.465 . S
C760 C759 1.396 . S
C760 C761 1.399 . S
C761 H747 0.929 . S
C761 C760 1.399 . S
C761 C762 1.385 . S
C762 H748 0.931 . S
C762 C761 1.385 . S
C762 C763 1.389 . S
C763 C762 1.389 . S
C763 C764 1.387 . S
C764 H749 0.930 . S
C764 C759 1.390 . S
C764 C763 1.387 . S
H765 C777 0.930 . S
H766 C779 0.930 . S
H767 C780 0.930 . S
H768 C784 0.959 . S
H769 C784 0.959 . S
H770 C784 0.961 . S
H771 C785 0.960 . S
H772 C785 0.961 . S
H773 C785 0.959 . S
H774 C788 0.929 . S
H775 C789 0.931 . S
H776 C791 0.930 . S
C777 H765 0.930 . S
C777 C778 1.399 . S
C777 C782 1.399 . S
C778 C777 1.399 . S
C778 C779 1.376 . S
C779 H766 0.930 . S
C779 C778 1.376 . S
C779 C780 1.388 . S
C780 H767 0.930 . S
C780 C779 1.388 . S
C780 C781 1.390 . S
C781 C780 1.390 . S
C781 C782 1.394 . S
C781 C787 1.465 . S
C782 C777 1.399 . S
C782 C781 1.394 . S
C782 C783 1.516 . S
C783 C782 1.516 . S
C783 C784 1.502 . S
C783 C785 1.561 1_655 S
C783 C786 1.526 . S
C784 H768 0.959 . S
C784 H769 0.959 . S
C784 H770 0.961 . S
C784 C783 1.502 . S
C785 H771 0.960 . S
C785 H772 0.961 . S
C785 H773 0.959 . S
C785 C783 1.561 1_455 S
C786 C783 1.526 . S
C786 C787 1.396 . S
C786 C791 1.390 . S
C787 C781 1.465 . S
C787 C786 1.396 . S
C787 C788 1.399 . S
C788 H774 0.929 . S
C788 C787 1.399 . S
C788 C789 1.385 . S
C789 H775 0.931 . S
C789 C788 1.385 . S
C789 C790 1.389 . S
C790 C789 1.389 . S
C790 C791 1.387 . S
C791 H776 0.930 . S
C791 C786 1.390 . S
C791 C790 1.387 . S
H792 C804 0.930 . S
H793 C806 0.930 . S
H794 C807 0.930 . S
H795 C811 0.959 . S
H796 C811 0.959 . S
H797 C811 0.961 . S
H798 C812 0.960 . S
H799 C812 0.961 . S
H800 C812 0.959 . S
H801 C815 0.929 . S
H802 C816 0.931 . S
H803 C818 0.930 . S
C804 H792 0.930 . S
C804 C805 1.399 . S
C804 C809 1.399 . S
C805 C804 1.399 . S
C805 C806 1.376 . S
C806 H793 0.930 . S
C806 C805 1.376 . S
C806 C807 1.388 . S
C807 H794 0.930 . S
C807 C806 1.388 . S
C807 C808 1.390 . S
C808 C807 1.390 . S
C808 C809 1.394 . S
C808 C814 1.465 . S
C809 C804 1.399 . S
C809 C808 1.394 . S
C809 C810 1.516 . S
C810 C809 1.516 . S
C810 C811 1.502 . S
C810 C812 1.561 . S
C810 C813 1.526 . S
C811 H795 0.959 . S
C811 H796 0.959 . S
C811 H797 0.961 . S
C811 C810 1.502 . S
C812 H798 0.960 . S
C812 H799 0.961 . S
C812 H800 0.959 . S
C812 C810 1.561 . S
C813 C810 1.526 . S
C813 C814 1.396 . S
C813 C818 1.390 . S
C814 C808 1.465 . S
C814 C813 1.396 . S
C814 C815 1.399 . S
C815 H801 0.929 . S
C815 C814 1.399 . S
C815 C816 1.385 . S
C816 H802 0.931 . S
C816 C815 1.385 . S
C816 C817 1.389 . S
C817 C816 1.389 . S
C817 C818 1.387 . S
C818 H803 0.930 . S
C818 C813 1.390 . S
C818 C817 1.387 . S
H819 C831 0.930 . S
H820 C833 0.930 . S
H821 C834 0.930 . S
H822 C838 0.959 . S
H823 C838 0.959 . S
H824 C838 0.961 . S
H825 C839 0.960 . S
H826 C839 0.961 . S
H827 C839 0.959 . S
H828 C842 0.929 . S
H829 C843 0.931 . S
H830 C845 0.930 . S
C831 H819 0.930 . S
C831 C832 1.399 . S
C831 C836 1.399 . S
C832 C831 1.399 . S
C832 C833 1.376 . S
C833 H820 0.930 . S
C833 C832 1.376 . S
C833 C834 1.388 . S
C834 H821 0.930 . S
C834 C833 1.388 . S
C834 C835 1.390 . S
C835 C834 1.390 . S
C835 C836 1.394 . S
C835 C841 1.465 . S
C836 C831 1.399 . S
C836 C835 1.394 . S
C836 C837 1.516 . S
C837 C836 1.516 . S
C837 C838 1.502 . S
C837 C839 1.561 . S
C837 C840 1.526 . S
C838 H822 0.959 . S
C838 H823 0.959 . S
C838 H824 0.961 . S
C838 C837 1.502 . S
C839 H825 0.960 . S
C839 H826 0.961 . S
C839 H827 0.959 . S
C839 C837 1.561 . S
C840 C837 1.526 . S
C840 C841 1.396 . S
C840 C845 1.390 . S
C841 C835 1.465 . S
C841 C840 1.396 . S
C841 C842 1.399 . S
C842 H828 0.929 . S
C842 C841 1.399 . S
C842 C843 1.385 . S
C843 H829 0.931 . S
C843 C842 1.385 . S
C843 C844 1.389 . S
C844 C843 1.389 . S
C844 C845 1.387 . S
C845 H830 0.930 . S
C845 C840 1.390 . S
C845 C844 1.387 . S
H846 C858 0.951 . S
H847 C860 0.930 . S
H848 C861 0.930 . S
H849 C865 0.959 . S
H850 C865 0.959 . S
H851 C865 0.961 . S
H852 C866 0.960 1_545 S
H853 C866 0.961 . S
H854 C866 0.959 . S
H855 C869 0.929 . S
H856 C870 0.931 . S
H857 C872 0.930 . S
C858 H846 0.951 . S
C858 C859 1.374 1_554 S
C858 C863 1.400 . S
C859 C858 1.374 1_556 S
C859 C860 1.376 . S
C860 H847 0.930 . S
C860 C859 1.376 . S
C860 C861 1.388 . S
C861 H848 0.930 . S
C861 C860 1.388 . S
C861 C862 1.390 . S
C862 C861 1.390 . S
C862 C863 1.381 1_556 S
C862 C868 1.465 . S
C863 C858 1.400 . S
C863 C862 1.381 1_554 S
C863 C864 1.530 . S
C864 C863 1.530 . S
C864 C865 1.502 . S
C864 C866 1.561 . S
C864 C867 1.526 . S
C865 H849 0.959 . S
C865 H850 0.959 . S
C865 H851 0.961 . S
C865 C864 1.502 . S
C866 H852 0.960 1_565 S
C866 H853 0.961 . S
C866 H854 0.959 . S
C866 C864 1.561 . S
C867 C864 1.526 . S
C867 C868 1.396 1_554 S
C867 C872 1.390 . S
C868 C862 1.465 . S
C868 C867 1.396 1_556 S
C868 C869 1.399 . S
C869 H855 0.929 . S
C869 C868 1.399 . S
C869 C870 1.385 . S
C870 H856 0.931 . S
C870 C869 1.385 . S
C870 C871 1.389 1_556 S
C871 C870 1.389 1_554 S
C871 C872 1.387 . S
C872 H857 0.930 . S
C872 C867 1.390 . S
C872 C871 1.387 . S
H873 C885 0.930 . S
H874 C887 0.930 . S
H875 C888 0.930 . S
H876 C892 0.959 . S
H877 C892 0.959 . S
H878 C892 0.961 . S
H879 C893 0.960 . S
H880 C893 0.961 . S
H881 C893 0.959 . S
H882 C896 0.929 . S
H883 C897 0.931 . S
H884 C899 0.930 . S
C885 H873 0.930 . S
C885 C886 1.399 . S
C885 C890 1.399 . S
C886 C885 1.399 . S
C886 C887 1.376 . S
C887 H874 0.930 . S
C887 C886 1.376 . S
C887 C888 1.388 . S
C888 H875 0.930 . S
C888 C887 1.388 . S
C888 C889 1.390 . S
C889 C888 1.390 . S
C889 C890 1.394 . S
C889 C895 1.465 . S
C890 C885 1.399 . S
C890 C889 1.394 . S
C890 C891 1.516 . S
C891 C890 1.516 . S
C891 C892 1.502 . S
C891 C893 1.561 . S
C891 C894 1.526 . S
C892 H876 0.959 . S
C892 H877 0.959 . S
C892 H878 0.961 . S
C892 C891 1.502 . S
C893 H879 0.960 . S
C893 H880 0.961 . S
C893 H881 0.959 . S
C893 C891 1.561 . S
C894 C891 1.526 . S
C894 C895 1.396 . S
C894 C899 1.390 . S
C895 C889 1.465 . S
C895 C894 1.396 . S
C895 C896 1.399 . S
C896 H882 0.929 . S
C896 C895 1.399 . S
C896 C897 1.385 . S
C897 H883 0.931 . S
C897 C896 1.385 . S
C897 C898 1.389 . S
C898 C897 1.389 . S
C898 C899 1.387 . S
C899 H884 0.930 . S
C899 C894 1.390 . S
C899 C898 1.387 . S
H900 C912 0.930 . S
H901 C914 0.930 . S
H902 C915 0.930 . S
H903 C919 0.959 . S
H904 C919 0.959 . S
H905 C919 0.961 . S
H906 C920 0.960 . S
H907 C920 0.961 . S
H908 C920 0.959 . S
H909 C923 0.929 . S
H910 C924 0.931 . S
H911 C926 0.930 . S
C912 H900 0.930 . S
C912 C913 1.399 . S
C912 C917 1.399 . S
C913 C912 1.399 . S
C913 C914 1.376 . S
C914 H901 0.930 . S
C914 C913 1.376 . S
C914 C915 1.388 . S
C915 H902 0.930 . S
C915 C914 1.388 . S
C915 C916 1.390 . S
C916 C915 1.390 . S
C916 C917 1.394 . S
C916 C922 1.465 . S
C917 C912 1.399 . S
C917 C916 1.394 . S
C917 C918 1.516 . S
C918 C917 1.516 . S
C918 C919 1.502 . S
C918 C920 1.561 . S
C918 C921 1.526 . S
C919 H903 0.959 . S
C919 H904 0.959 . S
C919 H905 0.961 . S
C919 C918 1.502 . S
C920 H906 0.960 . S
C920 H907 0.961 . S
C920 H908 0.959 . S
C920 C918 1.561 . S
C921 C918 1.526 . S
C921 C922 1.396 . S
C921 C926 1.390 . S
C922 C916 1.465 . S
C922 C921 1.396 . S
C922 C923 1.399 . S
C923 H909 0.929 . S
C923 C922 1.399 . S
C923 C924 1.385 . S
C924 H910 0.931 . S
C924 C923 1.385 . S
C924 C925 1.389 . S
C925 C924 1.389 . S
C925 C926 1.387 . S
C926 H911 0.930 . S
C926 C921 1.390 . S
C926 C925 1.387 . S
H927 C939 0.930 . S
H928 C941 0.930 . S
H929 C942 0.930 . S
H930 C946 0.959 . S
H931 C946 0.959 . S
H932 C946 0.961 . S
H933 C947 0.960 . S
H934 C947 0.961 . S
H935 C947 0.959 . S
H936 C950 0.929 . S
H937 C951 0.931 . S
H938 C953 0.930 . S
C939 H927 0.930 . S
C939 C940 1.399 . S
C939 C944 1.399 . S
C940 C939 1.399 . S
C940 C941 1.376 . S
C941 H928 0.930 . S
C941 C940 1.376 . S
C941 C942 1.388 . S
C942 H929 0.930 . S
C942 C941 1.388 . S
C942 C943 1.390 . S
C943 C942 1.390 . S
C943 C944 1.394 . S
C943 C949 1.465 . S
C944 C939 1.399 . S
C944 C943 1.394 . S
C944 C945 1.516 . S
C945 C944 1.516 . S
C945 C946 1.502 . S
C945 C947 1.561 . S
C945 C948 1.526 . S
C946 H930 0.959 . S
C946 H931 0.959 . S
C946 H932 0.961 . S
C946 C945 1.502 . S
C947 H933 0.960 . S
C947 H934 0.961 . S
C947 H935 0.959 . S
C947 C945 1.561 . S
C948 C945 1.526 . S
C948 C949 1.396 . S
C948 C953 1.390 . S
C949 C943 1.465 . S
C949 C948 1.396 . S
C949 C950 1.399 . S
C950 H936 0.929 . S
C950 C949 1.399 . S
C950 C951 1.385 . S
C951 H937 0.931 . S
C951 C950 1.385 . S
C951 C952 1.389 . S
C952 C951 1.389 . S
C952 C953 1.387 . S
C953 H938 0.930 . S
C953 C948 1.390 . S
C953 C952 1.387 . S
H954 C966 0.930 . S
H955 C968 0.930 . S
H956 C969 0.930 . S
H957 C973 0.959 . S
H958 C973 0.959 . S
H959 C973 0.961 . S
H960 C974 0.960 . S
H961 C974 0.961 . S
H962 C974 0.959 . S
H963 C977 0.929 . S
H964 C978 0.931 . S
H965 C980 0.930 . S
C966 H954 0.930 . S
C966 C967 1.399 . S
C966 C971 1.399 . S
C967 C966 1.399 . S
C967 C968 1.376 . S
C968 H955 0.930 . S
C968 C967 1.376 . S
C968 C969 1.388 . S
C969 H956 0.930 . S
C969 C968 1.388 . S
C969 C970 1.390 . S
C970 C969 1.390 . S
C970 C971 1.394 . S
C970 C976 1.465 . S
C971 C966 1.399 . S
C971 C970 1.394 . S
C971 C972 1.516 . S
C972 C971 1.516 . S
C972 C973 1.502 . S
C972 C974 1.561 . S
C972 C975 1.526 . S
C973 H957 0.959 . S
C973 H958 0.959 . S
C973 H959 0.961 . S
C973 C972 1.502 . S
C974 H960 0.960 . S
C974 H961 0.961 . S
C974 H962 0.959 . S
C974 C972 1.561 . S
C975 C972 1.526 . S
C975 C976 1.396 . S
C975 C980 1.390 . S
C976 C970 1.465 . S
C976 C975 1.396 . S
C976 C977 1.399 . S
C977 H963 0.929 . S
C977 C976 1.399 . S
C977 C978 1.385 . S
C978 H964 0.931 . S
C978 C977 1.385 . S
C978 C979 1.389 . S
C979 C978 1.389 . S
C979 C980 1.387 . S
C980 H965 0.930 . S
C980 C975 1.390 . S
C980 C979 1.387 . S
H981 C993 0.930 . S
H982 C995 0.930 . S
H983 C996 0.930 . S
H984 C1000 0.959 . S
H985 C1000 0.959 . S
H986 C1000 0.961 . S
H987 C1001 0.960 . S
H988 C1001 0.961 . S
H989 C1001 0.959 . S
H990 C1004 0.929 . S
H991 C1005 0.931 . S
H992 C1007 0.930 . S
C993 H981 0.930 . S
C993 C994 1.399 . S
C993 C998 1.399 . S
C994 C993 1.399 . S
C994 C995 1.376 . S
C995 H982 0.930 . S
C995 C994 1.376 . S
C995 C996 1.388 . S
C996 H983 0.930 . S
C996 C995 1.388 . S
C996 C997 1.390 . S
C997 C996 1.390 . S
C997 C998 1.394 . S
C997 C1003 1.465 . S
C998 C993 1.399 . S
C998 C997 1.394 . S
C998 C999 1.516 . S
C999 C998 1.516 . S
C999 C1000 1.502 . S
C999 C1001 1.561 . S
C999 C1002 1.526 . S
C1000 H984 0.959 . S
C1000 H985 0.959 . S
C1000 H986 0.961 . S
C1000 C999 1.502 . S
C1001 H987 0.960 . S
C1001 H988 0.961 . S
C1001 H989 0.959 . S
C1001 C999 1.561 . S
C1002 C999 1.526 . S
C1002 C1003 1.396 . S
C1002 C1007 1.390 . S
C1003 C997 1.465 . S
C1003 C1002 1.396 . S
C1003 C1004 1.399 . S
C1004 H990 0.929 . S
C1004 C1003 1.399 . S
C1004 C1005 1.385 . S
C1005 H991 0.931 . S
C1005 C1004 1.385 . S
C1005 C1006 1.389 . S
C1006 C1005 1.389 . S
C1006 C1007 1.387 . S
C1007 H992 0.930 . S
C1007 C1002 1.390 . S
C1007 C1006 1.387 . S
H1008 C1020 0.930 . S
H1009 C1022 0.930 . S
H1010 C1023 0.930 . S
H1011 C1027 0.959 . S
H1012 C1027 0.959 . S
H1013 C1027 0.961 . S
H1014 C1028 0.960 . S
H1015 C1028 0.961 . S
H1016 C1028 0.959 . S
H1017 C1031 0.929 . S
H1018 C1032 0.931 . S
H1019 C1034 0.930 . S
C1020 H1008 0.930 . S
C1020 C1021 1.399 . S
C1020 C1025 1.399 . S
C1021 C1020 1.399 . S
C1021 C1022 1.376 . S
C1022 H1009 0.930 . S
C1022 C1021 1.376 . S
C1022 C1023 1.388 . S
C1023 H1010 0.930 . S
C1023 C1022 1.388 . S
C1023 C1024 1.390 . S
C1024 C1023 1.390 . S
C1024 C1025 1.394 . S
C1024 C1030 1.465 . S
C1025 C1020 1.399 . S
C1025 C1024 1.394 . S
C1025 C1026 1.516 . S
C1026 C1025 1.516 . S
C1026 C1027 1.502 . S
C1026 C1028 1.561 . S
C1026 C1029 1.526 . S
C1027 H1011 0.959 . S
C1027 H1012 0.959 . S
C1027 H1013 0.961 . S
C1027 C1026 1.502 . S
C1028 H1014 0.960 . S
C1028 H1015 0.961 . S
C1028 H1016 0.959 . S
C1028 C1026 1.561 . S
C1029 C1026 1.526 . S
C1029 C1030 1.396 . S
C1029 C1034 1.390 . S
C1030 C1024 1.465 . S
C1030 C1029 1.396 . S
C1030 C1031 1.399 . S
C1031 H1017 0.929 . S
C1031 C1030 1.399 . S
C1031 C1032 1.385 . S
C1032 H1018 0.931 . S
C1032 C1031 1.385 . S
C1032 C1033 1.389 . S
C1033 C1032 1.389 . S
C1033 C1034 1.387 . S
C1034 H1019 0.930 . S
C1034 C1029 1.390 . S
C1034 C1033 1.387 . S
H1035 C1047 0.930 . S
H1036 C1049 0.930 . S
H1037 C1050 0.930 . S
H1038 C1054 0.959 . S
H1039 C1054 0.959 . S
H1040 C1054 0.961 . S
H1041 C1055 0.960 . S
H1042 C1055 0.961 . S
H1043 C1055 0.959 1_565 S
H1044 C1058 0.929 . S
H1045 C1059 0.931 . S
H1046 C1061 0.930 . S
C1047 H1035 0.930 . S
C1047 C1048 1.399 . S
C1047 C1052 1.399 . S
C1048 C1047 1.399 . S
C1048 C1049 1.376 1_545 S
C1049 H1036 0.930 . S
C1049 C1048 1.376 1_565 S
C1049 C1050 1.388 . S
C1050 H1037 0.930 . S
C1050 C1049 1.388 . S
C1050 C1051 1.383 1_565 S
C1051 C1050 1.383 1_545 S
C1051 C1052 1.403 . S
C1051 C1057 1.464 1_545 S
C1052 C1047 1.399 . S
C1052 C1051 1.403 . S
C1052 C1053 1.516 . S
C1053 C1052 1.516 . S
C1053 C1054 1.502 . S
C1053 C1055 1.561 . S
C1053 C1056 1.526 . S
C1054 H1038 0.959 . S
C1054 H1039 0.959 . S
C1054 H1040 0.961 . S
C1054 C1053 1.502 . S
C1055 H1041 0.960 . S
C1055 H1042 0.961 . S
C1055 H1043 0.959 1_545 S
C1055 C1053 1.561 . S
C1056 C1053 1.526 . S
C1056 C1057 1.389 1_545 S
C1056 C1061 1.390 . S
C1057 C1051 1.464 1_565 S
C1057 C1056 1.389 1_565 S
C1057 C1058 1.405 . S
C1058 H1044 0.929 . S
C1058 C1057 1.405 . S
C1058 C1059 1.385 . S
C1059 H1045 0.931 . S
C1059 C1058 1.385 . S
C1059 C1060 1.389 1_565 S
C1060 C1059 1.389 1_545 S
C1060 C1061 1.387 . S
C1061 H1046 0.930 . S
C1061 C1056 1.390 . S
C1061 C1060 1.387 . S
H1062 C1074 0.930 . S
H1063 C1076 0.930 . S
H1064 C1077 0.930 . S
H1065 C1081 0.959 . S
H1066 C1081 0.959 . S
H1067 C1081 0.961 . S
H1068 C1082 0.960 . S
H1069 C1082 0.961 . S
H1070 C1082 0.959 . S
H1071 C1085 0.929 . S
H1072 C1086 0.931 . S
H1073 C1088 0.930 . S
C1074 H1062 0.930 . S
C1074 C1075 1.399 . S
C1074 C1079 1.399 . S
C1075 C1074 1.399 . S
C1075 C1076 1.376 . S
C1076 H1063 0.930 . S
C1076 C1075 1.376 . S
C1076 C1077 1.388 . S
C1077 H1064 0.930 . S
C1077 C1076 1.388 . S
C1077 C1078 1.390 . S
C1078 C1077 1.390 . S
C1078 C1079 1.394 . S
C1078 C1084 1.465 . S
C1079 C1074 1.399 . S
C1079 C1078 1.394 . S
C1079 C1080 1.516 . S
C1080 C1079 1.516 . S
C1080 C1081 1.502 . S
C1080 C1082 1.561 . S
C1080 C1083 1.526 . S
C1081 H1065 0.959 . S
C1081 H1066 0.959 . S
C1081 H1067 0.961 . S
C1081 C1080 1.502 . S
C1082 H1068 0.960 . S
C1082 H1069 0.961 . S
C1082 H1070 0.959 . S
C1082 C1080 1.561 . S
C1083 C1080 1.526 . S
C1083 C1084 1.396 . S
C1083 C1088 1.390 . S
C1084 C1078 1.465 . S
C1084 C1083 1.396 . S
C1084 C1085 1.399 . S
C1085 H1071 0.929 . S
C1085 C1084 1.399 . S
C1085 C1086 1.385 . S
C1086 H1072 0.931 . S
C1086 C1085 1.385 . S
C1086 C1087 1.389 . S
C1087 C1086 1.389 . S
C1087 C1088 1.387 . S
C1088 H1073 0.930 . S
C1088 C1083 1.390 . S
C1088 C1087 1.387 . S
H1089 C1101 0.930 . S
H1090 C1103 0.930 . S
H1091 C1104 0.930 . S
H1092 C1108 0.959 . S
H1093 C1108 0.959 . S
H1094 C1108 0.961 . S
H1095 C1109 0.960 . S
H1096 C1109 0.961 . S
H1097 C1109 0.959 . S
H1098 C1112 0.929 . S
H1099 C1113 0.931 . S
H1100 C1115 0.930 . S
C1101 H1089 0.930 . S
C1101 C1102 1.399 . S
C1101 C1106 1.399 . S
C1102 C1101 1.399 . S
C1102 C1103 1.376 . S
C1103 H1090 0.930 . S
C1103 C1102 1.376 . S
C1103 C1104 1.388 . S
C1104 H1091 0.930 . S
C1104 C1103 1.388 . S
C1104 C1105 1.390 . S
C1105 C1104 1.390 . S
C1105 C1106 1.394 . S
C1105 C1111 1.465 . S
C1106 C1101 1.399 . S
C1106 C1105 1.394 . S
C1106 C1107 1.516 . S
C1107 C1106 1.516 . S
C1107 C1108 1.502 . S
C1107 C1109 1.561 . S
C1107 C1110 1.526 . S
C1108 H1092 0.959 . S
C1108 H1093 0.959 . S
C1108 H1094 0.961 . S
C1108 C1107 1.502 . S
C1109 H1095 0.960 . S
C1109 H1096 0.961 . S
C1109 H1097 0.959 . S
C1109 C1107 1.561 . S
C1110 C1107 1.526 . S
C1110 C1111 1.396 . S
C1110 C1115 1.390 . S
C1111 C1105 1.465 . S
C1111 C1110 1.396 . S
C1111 C1112 1.399 . S
C1112 H1098 0.929 . S
C1112 C1111 1.399 . S
C1112 C1113 1.385 . S
C1113 H1099 0.931 . S
C1113 C1112 1.385 . S
C1113 C1114 1.389 . S
C1114 C1113 1.389 . S
C1114 C1115 1.387 . S
C1115 H1100 0.930 . S
C1115 C1110 1.390 . S
C1115 C1114 1.387 . S
H1116 C1128 0.930 . S
H1117 C1130 0.930 . S
H1118 C1131 0.930 . S
H1119 C1135 0.959 . S
H1120 C1135 0.959 . S
H1121 C1135 0.961 . S
H1122 C1136 0.960 . S
H1123 C1136 0.961 . S
H1124 C1136 0.959 . S
H1125 C1139 0.929 . S
H1126 C1140 0.931 . S
H1127 C1142 0.930 . S
C1128 H1116 0.930 . S
C1128 C1129 1.399 . S
C1128 C1133 1.399 . S
C1129 C1128 1.399 . S
C1129 C1130 1.376 . S
C1130 H1117 0.930 . S
C1130 C1129 1.376 . S
C1130 C1131 1.388 . S
C1131 H1118 0.930 . S
C1131 C1130 1.388 . S
C1131 C1132 1.390 . S
C1132 C1131 1.390 . S
C1132 C1133 1.394 . S
C1132 C1138 1.465 . S
C1133 C1128 1.399 . S
C1133 C1132 1.394 . S
C1133 C1134 1.516 . S
C1134 C1133 1.516 . S
C1134 C1135 1.502 . S
C1134 C1136 1.561 . S
C1134 C1137 1.526 . S
C1135 H1119 0.959 . S
C1135 H1120 0.959 . S
C1135 H1121 0.961 . S
C1135 C1134 1.502 . S
C1136 H1122 0.960 . S
C1136 H1123 0.961 . S
C1136 H1124 0.959 . S
C1136 C1134 1.561 . S
C1137 C1134 1.526 . S
C1137 C1138 1.396 . S
C1137 C1142 1.390 . S
C1138 C1132 1.465 . S
C1138 C1137 1.396 . S
C1138 C1139 1.399 . S
C1139 H1125 0.929 . S
C1139 C1138 1.399 . S
C1139 C1140 1.385 . S
C1140 H1126 0.931 . S
C1140 C1139 1.385 . S
C1140 C1141 1.389 . S
C1141 C1140 1.389 . S
C1141 C1142 1.387 . S
C1142 H1127 0.930 . S
C1142 C1137 1.390 . S
C1142 C1141 1.387 . S
H1143 C1155 0.930 . S
H1144 C1157 0.930 1_565 S
H1145 C1158 0.930 1_565 S
H1146 C1162 0.959 . S
H1147 C1162 0.959 . S
H1148 C1162 0.961 . S
H1149 C1163 0.960 . S
H1150 C1163 0.961 . S
H1151 C1163 0.959 . S
H1152 C1166 0.929 1_565 S
H1153 C1167 0.931 1_565 S
H1154 C1169 0.930 . S
C1155 H1143 0.930 . S
C1155 C1156 1.399 . S
C1155 C1160 1.399 . S
C1156 C1155 1.399 . S
C1156 C1157 1.376 . S
C1157 H1144 0.930 1_545 S
C1157 C1156 1.376 . S
C1157 C1158 1.388 1_455 S
C1158 H1145 0.930 1_545 S
C1158 C1157 1.388 1_655 S
C1158 C1159 1.390 . S
C1159 C1158 1.390 . S
C1159 C1160 1.394 1_655 S
C1159 C1165 1.465 . S
C1160 C1155 1.399 . S
C1160 C1159 1.394 1_455 S
C1160 C1161 1.516 1_455 S
C1161 C1160 1.516 1_655 S
C1161 C1162 1.502 1_655 S
C1161 C1163 1.561 . S
C1161 C1164 1.526 . S
C1162 H1146 0.959 . S
C1162 H1147 0.959 . S
C1162 H1148 0.961 . S
C1162 C1161 1.502 1_455 S
C1163 H1149 0.960 . S
C1163 H1150 0.961 . S
C1163 H1151 0.959 . S
C1163 C1161 1.561 . S
C1164 C1161 1.526 . S
C1164 C1165 1.396 . S
C1164 C1169 1.390 . S
C1165 C1159 1.465 . S
C1165 C1164 1.396 . S
C1165 C1166 1.399 . S
C1166 H1152 0.929 1_545 S
C1166 C1165 1.399 . S
C1166 C1167 1.385 . S
C1167 H1153 0.931 1_545 S
C1167 C1166 1.385 . S
C1167 C1168 1.389 . S
C1168 C1167 1.389 . S
C1168 C1169 1.387 . S
C1169 H1154 0.930 . S
C1169 C1164 1.390 . S
C1169 C1168 1.387 . S
H1170 C1182 0.930 . S
H1171 C1184 0.930 . S
H1172 C1185 0.930 . S
H1173 C1189 0.959 . S
H1174 C1189 0.959 . S
H1175 C1189 0.961 . S
H1176 C1190 0.960 . S
H1177 C1190 0.961 . S
H1178 C1190 0.959 . S
H1179 C1193 0.929 . S
H1180 C1194 0.931 . S
H1181 C1196 0.930 . S
C1182 H1170 0.930 . S
C1182 C1183 1.399 . S
C1182 C1187 1.399 . S
C1183 C1182 1.399 . S
C1183 C1184 1.376 . S
C1184 H1171 0.930 . S
C1184 C1183 1.376 . S
C1184 C1185 1.388 . S
C1185 H1172 0.930 . S
C1185 C1184 1.388 . S
C1185 C1186 1.390 . S
C1186 C1185 1.390 . S
C1186 C1187 1.394 . S
C1186 C1192 1.465 . S
C1187 C1182 1.399 . S
C1187 C1186 1.394 . S
C1187 C1188 1.516 . S
C1188 C1187 1.516 . S
C1188 C1189 1.502 . S
C1188 C1190 1.561 . S
C1188 C1191 1.526 . S
C1189 H1173 0.959 . S
C1189 H1174 0.959 . S
C1189 H1175 0.961 . S
C1189 C1188 1.502 . S
C1190 H1176 0.960 . S
C1190 H1177 0.961 . S
C1190 H1178 0.959 . S
C1190 C1188 1.561 . S
C1191 C1188 1.526 . S
C1191 C1192 1.396 . S
C1191 C1196 1.390 . S
C1192 C1186 1.465 . S
C1192 C1191 1.396 . S
C1192 C1193 1.399 . S
C1193 H1179 0.929 . S
C1193 C1192 1.399 . S
C1193 C1194 1.385 . S
C1194 H1180 0.931 . S
C1194 C1193 1.385 . S
C1194 C1195 1.389 . S
C1195 C1194 1.389 . S
C1195 C1196 1.387 . S
C1196 H1181 0.930 . S
C1196 C1191 1.390 . S
C1196 C1195 1.387 . S
H1197 C1209 0.930 . S
H1198 C1211 0.930 1_655 S
H1199 C1212 0.930 . S
H1200 C1216 0.959 . S
H1201 C1216 0.959 . S
H1202 C1216 0.961 . S
H1203 C1217 0.960 . S
H1204 C1217 0.961 . S
H1205 C1217 0.959 . S
H1206 C1220 0.929 . S
H1207 C1221 0.931 . S
H1208 C1223 0.930 . S
C1209 H1197 0.930 . S
C1209 C1210 1.399 . S
C1209 C1214 1.399 . S
C1210 C1209 1.399 . S
C1210 C1211 1.376 . S
C1211 H1198 0.930 1_455 S
C1211 C1210 1.376 . S
C1211 C1212 1.388 . S
C1212 H1199 0.930 . S
C1212 C1211 1.388 . S
C1212 C1213 1.390 . S
C1213 C1212 1.390 . S
C1213 C1214 1.394 . S
C1213 C1219 1.465 . S
C1214 C1209 1.399 . S
C1214 C1213 1.394 . S
C1214 C1215 1.516 . S
C1215 C1214 1.516 . S
C1215 C1216 1.502 . S
C1215 C1217 1.561 . S
C1215 C1218 1.526 . S
C1216 H1200 0.959 . S
C1216 H1201 0.959 . S
C1216 H1202 0.961 . S
C1216 C1215 1.502 . S
C1217 H1203 0.960 . S
C1217 H1204 0.961 . S
C1217 H1205 0.959 . S
C1217 C1215 1.561 . S
C1218 C1215 1.526 . S
C1218 C1219 1.396 . S
C1218 C1223 1.390 . S
C1219 C1213 1.465 . S
C1219 C1218 1.396 . S
C1219 C1220 1.399 . S
C1220 H1206 0.929 . S
C1220 C1219 1.399 . S
C1220 C1221 1.385 . S
C1221 H1207 0.931 . S
C1221 C1220 1.385 . S
C1221 C1222 1.389 . S
C1222 C1221 1.389 . S
C1222 C1223 1.387 . S
C1223 H1208 0.930 . S
C1223 C1218 1.390 . S
C1223 C1222 1.387 . S
H1224 C1236 0.930 . S
H1225 C1238 0.930 . S
H1226 C1239 0.930 . S
H1227 C1243 0.959 . S
H1228 C1243 0.959 . S
H1229 C1243 0.961 . S
H1230 C1244 0.960 . S
H1231 C1244 0.961 . S
H1232 C1244 0.959 . S
H1233 C1247 0.929 . S
H1234 C1248 0.931 . S
H1235 C1250 0.930 . S
C1236 H1224 0.930 . S
C1236 C1237 1.399 . S
C1236 C1241 1.399 . S
C1237 C1236 1.399 . S
C1237 C1238 1.376 . S
C1238 H1225 0.930 . S
C1238 C1237 1.376 . S
C1238 C1239 1.388 . S
C1239 H1226 0.930 . S
C1239 C1238 1.388 . S
C1239 C1240 1.390 . S
C1240 C1239 1.390 . S
C1240 C1241 1.394 . S
C1240 C1246 1.465 . S
C1241 C1236 1.399 . S
C1241 C1240 1.394 . S
C1241 C1242 1.516 . S
C1242 C1241 1.516 . S
C1242 C1243 1.502 . S
C1242 C1244 1.561 . S
C1242 C1245 1.526 . S
C1243 H1227 0.959 . S
C1243 H1228 0.959 . S
C1243 H1229 0.961 . S
C1243 C1242 1.502 . S
C1244 H1230 0.960 . S
C1244 H1231 0.961 . S
C1244 H1232 0.959 . S
C1244 C1242 1.561 . S
C1245 C1242 1.526 . S
C1245 C1246 1.396 . S
C1245 C1250 1.390 . S
C1246 C1240 1.465 . S
C1246 C1245 1.396 . S
C1246 C1247 1.399 . S
C1247 H1233 0.929 . S
C1247 C1246 1.399 . S
C1247 C1248 1.385 . S
C1248 H1234 0.931 . S
C1248 C1247 1.385 . S
C1248 C1249 1.389 . S
C1249 C1248 1.389 . S
C1249 C1250 1.387 . S
C1250 H1235 0.930 . S
C1250 C1245 1.390 . S
C1250 C1249 1.387 . S
H1251 C1263 0.927 1_454 S
H1252 C1265 0.930 . S
H1253 C1266 0.930 . S
H1254 C1270 0.959 . S
H1255 C1270 0.959 . S
H1256 C1270 0.961 1_554 S
H1257 C1271 0.960 . S
H1258 C1271 0.961 . S
H1259 C1271 0.959 . S
H1260 C1274 0.929 . S
H1261 C1275 0.931 . S
H1262 C1277 0.930 . S
C1263 H1251 0.927 1_656 S
C1263 C1264 1.399 . S
C1263 C1268 1.399 . S
C1264 C1263 1.399 . S
C1264 C1265 1.376 . S
C1265 H1252 0.930 . S
C1265 C1264 1.376 . S
C1265 C1266 1.388 . S
C1266 H1253 0.930 . S
C1266 C1265 1.388 . S
C1266 C1267 1.390 . S
C1267 C1266 1.390 . S
C1267 C1268 1.394 . S
C1267 C1273 1.465 . S
C1268 C1263 1.399 . S
C1268 C1267 1.394 . S
C1268 C1269 1.516 1_655 S
C1269 C1268 1.516 1_455 S
C1269 C1270 1.502 . S
C1269 C1271 1.561 1_455 S
C1269 C1272 1.526 . S
C1270 H1254 0.959 . S
C1270 H1255 0.959 . S
C1270 H1256 0.961 1_556 S
C1270 C1269 1.502 . S
C1271 H1257 0.960 . S
C1271 H1258 0.961 . S
C1271 H1259 0.959 . S
C1271 C1269 1.561 1_655 S
C1272 C1269 1.526 . S
C1272 C1273 1.396 1_455 S
C1272 C1277 1.390 . S
C1273 C1267 1.465 . S
C1273 C1272 1.396 1_655 S
C1273 C1274 1.399 . S
C1274 H1260 0.929 . S
C1274 C1273 1.399 . S
C1274 C1275 1.385 . S
C1275 H1261 0.931 . S
C1275 C1274 1.385 . S
C1275 C1276 1.389 1_655 S
C1276 C1275 1.389 1_455 S
C1276 C1277 1.387 . S
C1277 H1262 0.930 . S
C1277 C1272 1.390 . S
C1277 C1276 1.387 . S
H1278 C1290 0.930 . S
H1279 C1292 0.930 . S
H1280 C1293 0.930 . S
H1281 C1297 0.959 . S
H1282 C1297 0.959 . S
H1283 C1297 0.961 . S
H1284 C1298 0.960 . S
H1285 C1298 0.961 . S
H1286 C1298 0.959 . S
H1287 C1301 0.929 . S
H1288 C1302 0.931 . S
H1289 C1304 0.930 . S
C1290 H1278 0.930 . S
C1290 C1291 1.399 . S
C1290 C1295 1.399 . S
C1291 C1290 1.399 . S
C1291 C1292 1.376 . S
C1292 H1279 0.930 . S
C1292 C1291 1.376 . S
C1292 C1293 1.388 . S
C1293 H1280 0.930 . S
C1293 C1292 1.388 . S
C1293 C1294 1.390 . S
C1294 C1293 1.390 . S
C1294 C1295 1.394 . S
C1294 C1300 1.465 . S
C1295 C1290 1.399 . S
C1295 C1294 1.394 . S
C1295 C1296 1.516 . S
C1296 C1295 1.516 . S
C1296 C1297 1.502 . S
C1296 C1298 1.561 . S
C1296 C1299 1.526 . S
C1297 H1281 0.959 . S
C1297 H1282 0.959 . S
C1297 H1283 0.961 . S
C1297 C1296 1.502 . S
C1298 H1284 0.960 . S
C1298 H1285 0.961 . S
C1298 H1286 0.959 . S
C1298 C1296 1.561 . S
C1299 C1296 1.526 . S
C1299 C1300 1.396 . S
C1299 C1304 1.390 . S
C1300 C1294 1.465 . S
C1300 C1299 1.396 . S
C1300 C1301 1.399 . S
C1301 H1287 0.929 . S
C1301 C1300 1.399 . S
C1301 C1302 1.385 . S
C1302 H1288 0.931 . S
C1302 C1301 1.385 . S
C1302 C1303 1.389 . S
C1303 C1302 1.389 . S
C1303 C1304 1.387 . S
C1304 H1289 0.930 . S
C1304 C1299 1.390 . S
C1304 C1303 1.387 . S
H1305 C1317 0.930 . S
H1306 C1319 0.930 1_554 S
H1307 C1320 0.930 1_655 S
H1308 C1324 0.959 . S
H1309 C1324 0.959 . S
H1310 C1324 0.961 . S
H1311 C1325 0.960 . S
H1312 C1325 0.961 . S
H1313 C1325 0.959 . S
H1314 C1328 0.929 1_655 S
H1315 C1329 0.931 1_655 S
H1316 C1331 0.930 . S
C1317 H1305 0.930 . S
C1317 C1318 1.399 . S
C1317 C1322 1.399 . S
C1318 C1317 1.399 . S
C1318 C1319 1.376 . S
C1319 H1306 0.930 1_556 S
C1319 C1318 1.376 . S
C1319 C1320 1.388 . S
C1320 H1307 0.930 1_455 S
C1320 C1319 1.388 . S
C1320 C1321 1.390 . S
C1321 C1320 1.390 . S
C1321 C1322 1.394 . S
C1321 C1327 1.465 . S
C1322 C1317 1.399 . S
C1322 C1321 1.394 . S
C1322 C1323 1.516 . S
C1323 C1322 1.516 . S
C1323 C1324 1.502 . S
C1323 C1325 1.561 . S
C1323 C1326 1.526 . S
C1324 H1308 0.959 . S
C1324 H1309 0.959 . S
C1324 H1310 0.961 . S
C1324 C1323 1.502 . S
C1325 H1311 0.960 . S
C1325 H1312 0.961 . S
C1325 H1313 0.959 . S
C1325 C1323 1.561 . S
C1326 C1323 1.526 . S
C1326 C1327 1.396 . S
C1326 C1331 1.390 . S
C1327 C1321 1.465 . S
C1327 C1326 1.396 . S
C1327 C1328 1.399 . S
C1328 H1314 0.929 1_455 S
C1328 C1327 1.399 . S
C1328 C1329 1.385 . S
C1329 H1315 0.931 1_455 S
C1329 C1328 1.385 . S
C1329 C1330 1.389 . S
C1330 C1329 1.389 . S
C1330 C1331 1.387 . S
C1331 H1316 0.930 . S
C1331 C1326 1.390 . S
C1331 C1330 1.387 . S
H1332 C1344 0.930 . S
H1333 C1346 0.930 . S
H1334 C1347 0.930 . S
H1335 C1351 0.959 . S
H1336 C1351 0.959 . S
H1337 C1351 0.961 . S
H1338 C1352 0.960 . S
H1339 C1352 0.961 . S
H1340 C1352 0.959 . S
H1341 C1355 0.929 . S
H1342 C1356 0.931 . S
H1343 C1358 0.930 . S
C1344 H1332 0.930 . S
C1344 C1345 1.399 . S
C1344 C1349 1.399 . S
C1345 C1344 1.399 . S
C1345 C1346 1.376 . S
C1346 H1333 0.930 . S
C1346 C1345 1.376 . S
C1346 C1347 1.388 . S
C1347 H1334 0.930 . S
C1347 C1346 1.388 . S
C1347 C1348 1.390 . S
C1348 C1347 1.390 . S
C1348 C1349 1.394 . S
C1348 C1354 1.465 . S
C1349 C1344 1.399 . S
C1349 C1348 1.394 . S
C1349 C1350 1.516 . S
C1350 C1349 1.516 . S
C1350 C1351 1.502 . S
C1350 C1352 1.561 . S
C1350 C1353 1.526 . S
C1351 H1335 0.959 . S
C1351 H1336 0.959 . S
C1351 H1337 0.961 . S
C1351 C1350 1.502 . S
C1352 H1338 0.960 . S
C1352 H1339 0.961 . S
C1352 H1340 0.959 . S
C1352 C1350 1.561 . S
C1353 C1350 1.526 . S
C1353 C1354 1.396 . S
C1353 C1358 1.390 . S
C1354 C1348 1.465 . S
C1354 C1353 1.396 . S
C1354 C1355 1.399 . S
C1355 H1341 0.929 . S
C1355 C1354 1.399 . S
C1355 C1356 1.385 . S
C1356 H1342 0.931 . S
C1356 C1355 1.385 . S
C1356 C1357 1.389 . S
C1357 C1356 1.389 . S
C1357 C1358 1.387 . S
C1358 H1343 0.930 . S
C1358 C1353 1.390 . S
C1358 C1357 1.387 . S
H1359 C1371 0.930 . S
H1360 C1373 0.930 . S
H1361 C1374 0.930 1_556 S
H1362 C1378 0.959 . S
H1363 C1378 0.959 . S
H1364 C1378 0.961 . S
H1365 C1379 0.960 . S
H1366 C1379 0.961 . S
H1367 C1379 0.959 . S
H1368 C1382 0.929 . S
H1369 C1383 0.931 . S
H1370 C1385 0.930 . S
C1371 H1359 0.930 . S
C1371 C1372 1.399 . S
C1371 C1376 1.399 . S
C1372 C1371 1.399 . S
C1372 C1373 1.376 1_554 S
C1373 H1360 0.930 . S
C1373 C1372 1.376 1_556 S
C1373 C1374 1.388 1_556 S
C1374 H1361 0.930 1_554 S
C1374 C1373 1.388 1_554 S
C1374 C1375 1.390 . S
C1375 C1374 1.390 . S
C1375 C1376 1.394 . S
C1375 C1381 1.465 . S
C1376 C1371 1.399 . S
C1376 C1375 1.394 . S
C1376 C1377 1.516 . S
C1377 C1376 1.516 . S
C1377 C1378 1.502 . S
C1377 C1379 1.561 . S
C1377 C1380 1.526 . S
C1378 H1362 0.959 . S
C1378 H1363 0.959 . S
C1378 H1364 0.961 . S
C1378 C1377 1.502 . S
C1379 H1365 0.960 . S
C1379 H1366 0.961 . S
C1379 H1367 0.959 . S
C1379 C1377 1.561 . S
C1380 C1377 1.526 . S
C1380 C1381 1.396 . S
C1380 C1385 1.390 . S
C1381 C1375 1.465 . S
C1381 C1380 1.396 . S
C1381 C1382 1.399 . S
C1382 H1368 0.929 . S
C1382 C1381 1.399 . S
C1382 C1383 1.385 . S
C1383 H1369 0.931 . S
C1383 C1382 1.385 . S
C1383 C1384 1.389 . S
C1384 C1383 1.389 . S
C1384 C1385 1.387 . S
C1385 H1370 0.930 . S
C1385 C1380 1.390 . S
C1385 C1384 1.387 . S
H1386 C1398 0.930 . S
H1387 C1400 0.930 . S
H1388 C1401 0.930 . S
H1389 C1405 0.959 . S
H1390 C1405 0.959 . S
H1391 C1405 0.961 . S
H1392 C1406 0.960 . S
H1393 C1406 0.961 . S
H1394 C1406 0.959 . S
H1395 C1409 0.929 . S
H1396 C1410 0.931 . S
H1397 C1412 0.930 . S
C1398 H1386 0.930 . S
C1398 C1399 1.399 . S
C1398 C1403 1.399 . S
C1399 C1398 1.399 . S
C1399 C1400 1.376 . S
C1400 H1387 0.930 . S
C1400 C1399 1.376 . S
C1400 C1401 1.388 . S
C1401 H1388 0.930 . S
C1401 C1400 1.388 . S
C1401 C1402 1.390 . S
C1402 C1401 1.390 . S
C1402 C1403 1.394 . S
C1402 C1408 1.465 . S
C1403 C1398 1.399 . S
C1403 C1402 1.394 . S
C1403 C1404 1.516 . S
C1404 C1403 1.516 . S
C1404 C1405 1.502 . S
C1404 C1406 1.561 . S
C1404 C1407 1.526 . S
C1405 H1389 0.959 . S
C1405 H1390 0.959 . S
C1405 H1391 0.961 . S
C1405 C1404 1.502 . S
C1406 H1392 0.960 . S
C1406 H1393 0.961 . S
C1406 H1394 0.959 . S
C1406 C1404 1.561 . S
C1407 C1404 1.526 . S
C1407 C1408 1.396 . S
C1407 C1412 1.390 . S
C1408 C1402 1.465 . S
C1408 C1407 1.396 . S
C1408 C1409 1.399 . S
C1409 H1395 0.929 . S
C1409 C1408 1.399 . S
C1409 C1410 1.385 . S
C1410 H1396 0.931 . S
C1410 C1409 1.385 . S
C1410 C1411 1.389 . S
C1411 C1410 1.389 . S
C1411 C1412 1.387 . S
C1412 H1397 0.930 . S
C1412 C1407 1.390 . S
C1412 C1411 1.387 . S
H1413 C1425 0.930 1_556 S
H1414 C1427 0.930 . S
H1415 C1428 0.930 . S
H1416 C1432 0.960 . S
H1417 C1432 0.956 1_556 S
H1418 C1432 0.957 1_556 S
H1419 C1433 0.960 1_556 S
H1420 C1433 0.961 . S
H1421 C1433 0.959 . S
H1422 C1436 0.929 . S
H1423 C1437 0.931 . S
H1424 C1439 0.930 . S
C1425 H1413 0.930 1_554 S
C1425 C1426 1.399 . S
C1425 C1430 1.399 . S
C1426 C1425 1.399 . S
C1426 C1427 1.376 . S
C1427 H1414 0.930 . S
C1427 C1426 1.376 . S
C1427 C1428 1.388 . S
C1428 H1415 0.930 . S
C1428 C1427 1.388 . S
C1428 C1429 1.390 . S
C1429 C1428 1.390 . S
C1429 C1430 1.394 . S
C1429 C1435 1.465 . S
C1430 C1425 1.399 . S
C1430 C1429 1.394 . S
C1430 C1431 1.516 . S
C1431 C1430 1.516 . S
C1431 C1432 1.505 . S
C1431 C1433 1.561 . S
C1431 C1434 1.526 . S
C1432 H1416 0.960 . S
C1432 H1417 0.956 1_554 S
C1432 H1418 0.957 1_554 S
C1432 C1431 1.505 . S
C1433 H1419 0.960 1_554 S
C1433 H1420 0.961 . S
C1433 H1421 0.959 . S
C1433 C1431 1.561 . S
C1434 C1431 1.526 . S
C1434 C1435 1.396 . S
C1434 C1439 1.390 . S
C1435 C1429 1.465 . S
C1435 C1434 1.396 . S
C1435 C1436 1.399 . S
C1436 H1422 0.929 . S
C1436 C1435 1.399 . S
C1436 C1437 1.385 . S
C1437 H1423 0.931 . S
C1437 C1436 1.385 . S
C1437 C1438 1.389 . S
C1438 C1437 1.389 . S
C1438 C1439 1.387 . S
C1439 H1424 0.930 . S
C1439 C1434 1.390 . S
C1439 C1438 1.387 . S
H1440 C1452 0.930 . S
H1441 C1454 0.930 . S
H1442 C1455 0.930 . S
H1443 C1459 0.959 . S
H1444 C1459 0.959 . S
H1445 C1459 0.961 . S
H1446 C1460 0.960 . S
H1447 C1460 0.961 . S
H1448 C1460 0.959 . S
H1449 C1463 0.929 . S
H1450 C1464 0.931 . S
H1451 C1466 0.930 . S
C1452 H1440 0.930 . S
C1452 C1453 1.399 . S
C1452 C1457 1.399 . S
C1453 C1452 1.399 . S
C1453 C1454 1.376 . S
C1454 H1441 0.930 . S
C1454 C1453 1.376 . S
C1454 C1455 1.388 . S
C1455 H1442 0.930 . S
C1455 C1454 1.388 . S
C1455 C1456 1.390 . S
C1456 C1455 1.390 . S
C1456 C1457 1.394 . S
C1456 C1462 1.465 . S
C1457 C1452 1.399 . S
C1457 C1456 1.394 . S
C1457 C1458 1.516 . S
C1458 C1457 1.516 . S
C1458 C1459 1.502 . S
C1458 C1460 1.561 . S
C1458 C1461 1.526 . S
C1459 H1443 0.959 . S
C1459 H1444 0.959 . S
C1459 H1445 0.961 . S
C1459 C1458 1.502 . S
C1460 H1446 0.960 . S
C1460 H1447 0.961 . S
C1460 H1448 0.959 . S
C1460 C1458 1.561 . S
C1461 C1458 1.526 . S
C1461 C1462 1.396 . S
C1461 C1466 1.390 . S
C1462 C1456 1.465 . S
C1462 C1461 1.396 . S
C1462 C1463 1.399 . S
C1463 H1449 0.929 . S
C1463 C1462 1.399 . S
C1463 C1464 1.385 . S
C1464 H1450 0.931 . S
C1464 C1463 1.385 . S
C1464 C1465 1.389 . S
C1465 C1464 1.389 . S
C1465 C1466 1.387 . S
C1466 H1451 0.930 . S
C1466 C1461 1.390 . S
C1466 C1465 1.387 . S
H1467 C1479 0.930 . S
H1468 C1481 0.930 . S
H1469 C1482 0.930 . S
H1470 C1486 0.959 . S
H1471 C1486 0.959 . S
H1472 C1486 0.961 . S
H1473 C1487 0.960 . S
H1474 C1487 0.961 . S
H1475 C1487 0.959 . S
H1476 C1490 0.929 . S
H1477 C1491 0.931 . S
H1478 C1493 0.930 . S
C1479 H1467 0.930 . S
C1479 C1480 1.399 . S
C1479 C1484 1.399 . S
C1480 C1479 1.399 . S
C1480 C1481 1.376 . S
C1481 H1468 0.930 . S
C1481 C1480 1.376 . S
C1481 C1482 1.388 . S
C1482 H1469 0.930 . S
C1482 C1481 1.388 . S
C1482 C1483 1.390 . S
C1483 C1482 1.390 . S
C1483 C1484 1.394 . S
C1483 C1489 1.465 . S
C1484 C1479 1.399 . S
C1484 C1483 1.394 . S
C1484 C1485 1.516 . S
C1485 C1484 1.516 . S
C1485 C1486 1.502 . S
C1485 C1487 1.561 . S
C1485 C1488 1.526 . S
C1486 H1470 0.959 . S
C1486 H1471 0.959 . S
C1486 H1472 0.961 . S
C1486 C1485 1.502 . S
C1487 H1473 0.960 . S
C1487 H1474 0.961 . S
C1487 H1475 0.959 . S
C1487 C1485 1.561 . S
C1488 C1485 1.526 . S
C1488 C1489 1.396 . S
C1488 C1493 1.390 . S
C1489 C1483 1.465 . S
C1489 C1488 1.396 . S
C1489 C1490 1.399 . S
C1490 H1476 0.929 . S
C1490 C1489 1.399 . S
C1490 C1491 1.385 . S
C1491 H1477 0.931 . S
C1491 C1490 1.385 . S
C1491 C1492 1.389 . S
C1492 C1491 1.389 . S
C1492 C1493 1.387 . S
C1493 H1478 0.930 . S
C1493 C1488 1.390 . S
C1493 C1492 1.387 . S
H1494 C1506 0.930 . S
H1495 C1508 0.930 . S
H1496 C1509 0.930 . S
H1497 C1513 0.959 . S
H1498 C1513 0.959 . S
H1499 C1513 0.961 . S
H1500 C1514 0.960 . S
H1501 C1514 0.961 . S
H1502 C1514 0.959 . S
H1503 C1517 0.929 . S
H1504 C1518 0.931 . S
H1505 C1520 0.930 . S
C1506 H1494 0.930 . S
C1506 C1507 1.399 . S
C1506 C1511 1.399 . S
C1507 C1506 1.399 . S
C1507 C1508 1.376 . S
C1508 H1495 0.930 . S
C1508 C1507 1.376 . S
C1508 C1509 1.388 . S
C1509 H1496 0.930 . S
C1509 C1508 1.388 . S
C1509 C1510 1.390 . S
C1510 C1509 1.390 . S
C1510 C1511 1.394 . S
C1510 C1516 1.465 . S
C1511 C1506 1.399 . S
C1511 C1510 1.394 . S
C1511 C1512 1.516 . S
C1512 C1511 1.516 . S
C1512 C1513 1.502 . S
C1512 C1514 1.561 . S
C1512 C1515 1.526 . S
C1513 H1497 0.959 . S
C1513 H1498 0.959 . S
C1513 H1499 0.961 . S
C1513 C1512 1.502 . S
C1514 H1500 0.960 . S
C1514 H1501 0.961 . S
C1514 H1502 0.959 . S
C1514 C1512 1.561 . S
C1515 C1512 1.526 . S
C1515 C1516 1.396 . S
C1515 C1520 1.390 . S
C1516 C1510 1.465 . S
C1516 C1515 1.396 . S
C1516 C1517 1.399 . S
C1517 H1503 0.929 . S
C1517 C1516 1.399 . S
C1517 C1518 1.385 . S
C1518 H1504 0.931 . S
C1518 C1517 1.385 . S
C1518 C1519 1.389 . S
C1519 C1518 1.389 . S
C1519 C1520 1.387 . S
C1520 H1505 0.930 . S
C1520 C1515 1.390 . S
C1520 C1519 1.387 . S
H1521 C1533 0.930 . S
H1522 C1535 0.930 . S
H1523 C1536 0.930 . S
H1524 C1540 0.959 . S
H1525 C1540 0.959 . S
H1526 C1540 0.961 . S
H1527 C1541 0.960 . S
H1528 C1541 0.961 . S
H1529 C1541 0.959 . S
H1530 C1544 0.929 . S
H1531 C1545 0.931 . S
H1532 C1547 0.930 . S
C1533 H1521 0.930 . S
C1533 C1534 1.399 . S
C1533 C1538 1.399 . S
C1534 C1533 1.399 . S
C1534 C1535 1.376 . S
C1535 H1522 0.930 . S
C1535 C1534 1.376 . S
C1535 C1536 1.388 . S
C1536 H1523 0.930 . S
C1536 C1535 1.388 . S
C1536 C1537 1.390 . S
C1537 C1536 1.390 . S
C1537 C1538 1.394 . S
C1537 C1543 1.465 . S
C1538 C1533 1.399 . S
C1538 C1537 1.394 . S
C1538 C1539 1.516 . S
C1539 C1538 1.516 . S
C1539 C1540 1.502 . S
C1539 C1541 1.561 . S
C1539 C1542 1.526 . S
C1540 H1524 0.959 . S
C1540 H1525 0.959 . S
C1540 H1526 0.961 . S
C1540 C1539 1.502 . S
C1541 H1527 0.960 . S
C1541 H1528 0.961 . S
C1541 H1529 0.959 . S
C1541 C1539 1.561 . S
C1542 C1539 1.526 . S
C1542 C1543 1.396 . S
C1542 C1547 1.390 . S
C1543 C1537 1.465 . S
C1543 C1542 1.396 . S
C1543 C1544 1.399 . S
C1544 H1530 0.929 . S
C1544 C1543 1.399 . S
C1544 C1545 1.385 . S
C1545 H1531 0.931 . S
C1545 C1544 1.385 . S
C1545 C1546 1.389 . S
C1546 C1545 1.389 . S
C1546 C1547 1.387 . S
C1547 H1532 0.930 . S
C1547 C1542 1.390 . S
C1547 C1546 1.387 . S
H1548 C1560 0.930 . S
H1549 C1562 0.928 1_554 S
H1550 C1563 0.930 . S
H1551 C1567 0.959 . S
H1552 C1567 0.959 . S
H1553 C1567 0.961 . S
H1554 C1568 0.960 . S
H1555 C1568 0.961 . S
H1556 C1568 0.959 . S
H1557 C1571 0.929 . S
H1558 C1572 0.931 . S
H1559 C1574 0.930 . S
C1560 H1548 0.930 . S
C1560 C1561 1.399 . S
C1560 C1565 1.399 . S
C1561 C1560 1.399 . S
C1561 C1562 1.380 . S
C1562 H1549 0.928 1_556 S
C1562 C1561 1.380 . S
C1562 C1563 1.388 1_556 S
C1563 H1550 0.930 . S
C1563 C1562 1.388 1_554 S
C1563 C1564 1.390 1_554 S
C1564 C1563 1.390 1_556 S
C1564 C1565 1.394 . S
C1564 C1570 1.467 . S
C1565 C1560 1.399 . S
C1565 C1564 1.394 . S
C1565 C1566 1.516 . S
C1566 C1565 1.516 . S
C1566 C1567 1.502 . S
C1566 C1568 1.561 . S
C1566 C1569 1.526 . S
C1567 H1551 0.959 . S
C1567 H1552 0.959 . S
C1567 H1553 0.961 . S
C1567 C1566 1.502 . S
C1568 H1554 0.960 . S
C1568 H1555 0.961 . S
C1568 H1556 0.959 . S
C1568 C1566 1.561 . S
C1569 C1566 1.526 . S
C1569 C1570 1.436 . S
C1569 C1574 1.390 . S
C1570 C1564 1.467 . S
C1570 C1569 1.436 . S
C1570 C1571 1.367 1_556 S
C1571 H1557 0.929 . S
C1571 C1570 1.367 1_554 S
C1571 C1572 1.385 . S
C1572 H1558 0.931 . S
C1572 C1571 1.385 . S
C1572 C1573 1.389 1_554 S
C1573 C1572 1.389 1_556 S
C1573 C1574 1.387 . S
C1574 H1559 0.930 . S
C1574 C1569 1.390 . S
C1574 C1573 1.387 . S
H1575 C1587 0.930 . S
H1576 C1589 0.930 . S
H1577 C1590 0.930 . S
H1578 C1594 0.959 . S
H1579 C1594 0.959 . S
H1580 C1594 0.961 . S
H1581 C1595 0.960 . S
H1582 C1595 0.961 . S
H1583 C1595 0.959 . S
H1584 C1598 0.929 . S
H1585 C1599 0.931 . S
H1586 C1601 0.930 . S
C1587 H1575 0.930 . S
C1587 C1588 1.399 . S
C1587 C1592 1.399 . S
C1588 C1587 1.399 . S
C1588 C1589 1.376 . S
C1589 H1576 0.930 . S
C1589 C1588 1.376 . S
C1589 C1590 1.388 . S
C1590 H1577 0.930 . S
C1590 C1589 1.388 . S
C1590 C1591 1.390 . S
C1591 C1590 1.390 . S
C1591 C1592 1.394 . S
C1591 C1597 1.465 . S
C1592 C1587 1.399 . S
C1592 C1591 1.394 . S
C1592 C1593 1.516 . S
C1593 C1592 1.516 . S
C1593 C1594 1.502 . S
C1593 C1595 1.561 . S
C1593 C1596 1.526 . S
C1594 H1578 0.959 . S
C1594 H1579 0.959 . S
C1594 H1580 0.961 . S
C1594 C1593 1.502 . S
C1595 H1581 0.960 . S
C1595 H1582 0.961 . S
C1595 H1583 0.959 . S
C1595 C1593 1.561 . S
C1596 C1593 1.526 . S
C1596 C1597 1.396 . S
C1596 C1601 1.390 . S
C1597 C1591 1.465 . S
C1597 C1596 1.396 . S
C1597 C1598 1.399 . S
C1598 H1584 0.929 . S
C1598 C1597 1.399 . S
C1598 C1599 1.385 . S
C1599 H1585 0.931 . S
C1599 C1598 1.385 . S
C1599 C1600 1.389 . S
C1600 C1599 1.389 . S
C1600 C1601 1.387 . S
C1601 H1586 0.930 . S
C1601 C1596 1.390 . S
C1601 C1600 1.387 . S
H1602 C1614 0.930 . S
H1603 C1616 0.930 . S
H1604 C1617 0.930 . S
H1605 C1621 0.959 . S
H1606 C1621 0.959 1_556 S
H1607 C1621 0.961 1_556 S
H1608 C1622 0.960 . S
H1609 C1622 0.961 . S
H1610 C1622 0.959 . S
H1611 C1625 0.929 . S
H1612 C1626 0.931 . S
H1613 C1628 0.930 1_556 S
C1614 H1602 0.930 . S
C1614 C1615 1.399 . S
C1614 C1619 1.399 . S
C1615 C1614 1.399 . S
C1615 C1616 1.376 . S
C1616 H1603 0.930 . S
C1616 C1615 1.376 . S
C1616 C1617 1.388 . S
C1617 H1604 0.930 . S
C1617 C1616 1.388 . S
C1617 C1618 1.390 . S
C1618 C1617 1.390 . S
C1618 C1619 1.394 . S
C1618 C1624 1.465 . S
C1619 C1614 1.399 . S
C1619 C1618 1.394 . S
C1619 C1620 1.516 . S
C1620 C1619 1.516 . S
C1620 C1621 1.502 . S
C1620 C1622 1.561 1_554 S
C1620 C1623 1.526 . S
C1621 H1605 0.959 . S
C1621 H1606 0.959 1_554 S
C1621 H1607 0.961 1_554 S
C1621 C1620 1.502 . S
C1622 H1608 0.960 . S
C1622 H1609 0.961 . S
C1622 H1610 0.959 . S
C1622 C1620 1.561 1_556 S
C1623 C1620 1.526 . S
C1623 C1624 1.396 . S
C1623 C1628 1.390 . S
C1624 C1618 1.465 . S
C1624 C1623 1.396 . S
C1624 C1625 1.399 . S
C1625 H1611 0.929 . S
C1625 C1624 1.399 . S
C1625 C1626 1.385 . S
C1626 H1612 0.931 . S
C1626 C1625 1.385 . S
C1626 C1627 1.389 . S
C1627 C1626 1.389 . S
C1627 C1628 1.387 . S
C1628 H1613 0.930 1_554 S
C1628 C1623 1.390 . S
C1628 C1627 1.387 . S
H1629 C1641 0.930 1_545 S
H1630 C1643 0.906 1_556 S
H1631 C1644 0.930 . S
H1632 C1648 0.971 . S
H1633 C1648 0.959 . S
H1634 C1648 0.961 . S
H1635 C1649 0.960 . S
H1636 C1649 0.961 . S
H1637 C1649 0.959 . S
H1638 C1652 0.929 . S
H1639 C1653 0.931 . S
H1640 C1655 0.930 . S
C1641 H1629 0.930 1_565 S
C1641 C1642 1.386 1_565 S
C1641 C1646 1.399 . S
C1642 C1641 1.386 1_545 S
C1642 C1643 1.406 1_545 S
C1643 H1630 0.906 1_554 S
C1643 C1642 1.406 1_565 S
C1643 C1644 1.375 1_554 S
C1644 H1631 0.930 . S
C1644 C1643 1.375 1_556 S
C1644 C1645 1.390 1_556 S
C1645 C1644 1.390 1_554 S
C1645 C1646 1.394 . S
C1645 C1651 1.465 . S
C1646 C1641 1.399 . S
C1646 C1645 1.394 . S
C1646 C1647 1.516 . S
C1647 C1646 1.516 . S
C1647 C1648 1.502 . S
C1647 C1649 1.561 . S
C1647 C1650 1.526 . S
C1648 H1632 0.971 . S
C1648 H1633 0.959 . S
C1648 H1634 0.961 . S
C1648 C1647 1.502 . S
C1649 H1635 0.960 . S
C1649 H1636 0.961 . S
C1649 H1637 0.959 . S
C1649 C1647 1.561 . S
C1650 C1647 1.526 . S
C1650 C1651 1.396 . S
C1650 C1655 1.390 . S
C1651 C1645 1.465 . S
C1651 C1650 1.396 . S
C1651 C1652 1.399 1_554 S
C1652 H1638 0.929 . S
C1652 C1651 1.399 1_556 S
C1652 C1653 1.385 . S
C1653 H1639 0.931 . S
C1653 C1652 1.385 . S
C1653 C1654 1.389 1_556 S
C1654 C1653 1.389 1_554 S
C1654 C1655 1.387 . S
C1655 H1640 0.930 . S
C1655 C1650 1.390 . S
C1655 C1654 1.387 . S
C385 C203 1.693 . S
C373 C66 1.704 . S
C412 C211 1.009 . S
C400 C76 1.203 . S
C427 C93 1.759 . S
C439 C231 1.745 . S
C466 C245 1.436 . S
C454 C54 1.488 . S
C493 C260 1.503 . S
C481 C126 1.489 . S
C520 C274 1.822 . S
C508 C150 1.837 . S
C535 C136 1.233 . S
C547 C288 1.251 . S
C574 C294 1.711 . S
C562 C117 1.751 . S
C589 C141 1.326 . S
C601 C308 1.302 . S
C628 C329 1.344 . S
C616 C112 1.355 . S
C643 C124 1.488 . S
C655 C309 1.297 . S
C682 C330 1.305 . S
C670 C148 1.278 . S
C697 C88 1.272 . S
C709 C337 1.126 . S
C724 C52 1.577 . S
C736 C343 1.557 . S
C751 C64 1.281 . S
C763 C336 1.272 . S
C778 C78 1.171 . S
C790 C344 1.189 . S
C805 C45 1.707 . S
C817 C238 1.687 . S
C832 C177 1.866 . S
C844 C239 1.672 . S
C871 C196 1.370 . S
C859 C189 1.414 1_565 S
C898 C217 1.521 . S
C886 C102 1.551 . S
C913 C57 1.701 . S
C925 C252 1.678 . S
C952 C302 1.467 . S
C940 C138 1.461 . S
C979 C253 1.546 . S
C967 C114 1.721 . S
C1006 C281 1.426 . S
C994 C153 1.753 . S
C1033 C287 1.664 . S
C1021 C174 1.717 . S
C1048 C184 1.193 . S
C1060 C295 1.083 . S
C1075 C105 1.761 . S
C1087 C259 1.752 . S
C1114 C273 1.436 . S
C1102 C162 1.488 . S
C1129 C42 1.501 . S
C1141 C232 1.493 . S
C1168 C246 1.824 . S
C1156 C6 1.838 . S
C1195 C204 1.240 . S
C1183 C16 1.245 . S
C1222 C210 1.707 . S
C1210 C33 1.752 1_455 S
C1237 C21 1.327 . S
C1249 C322 1.294 . S
C1264 C28 1.383 1_556 S
C1276 C315 1.364 . S
C1291 C40 1.468 . S
C1303 C323 1.277 . S
C1318 C4 1.309 . S
C1330 C316 1.293 . S
C1357 C351 1.068 . S
C1345 C100 1.288 . S
C1384 C357 1.563 . S
C1372 C160 1.587 1_554 S
C1411 C350 1.260 . S
C1399 C172 1.280 . S
C1426 C186 1.195 1_554 S
C1438 C358 1.181 . S
C1453 C129 1.708 . S
C1465 C266 1.684 . S
C1492 C267 1.618 . S
C1480 C69 1.853 . S
C1519 C280 1.366 . S
C1507 C81 1.416 . S
C1546 C301 1.561 . S
C1534 C90 1.566 . S
C1561 C165 1.723 . S
C1573 C224 1.706 . S
C1600 C218 1.462 . S
C1588 C18 1.466 . S
C1615 C30 1.720 . S
C1627 C225 1.555 . S
C1654 C197 1.421 . S
C1642 C9 1.777 . S
