# Generated by pormake.
# Topology rtl, (3,6)-cn, num edge types: 1
# Building blocks:
#     Node 0, Type 0, BuildingBlock: PAMTOO_clean_linker_0, # of connection points: 3
#     Node 1, Type 0, BuildingBlock: PAMTOO_clean_linker_0, # of connection points: 3
#     Node 2, Type 0, BuildingBlock: PAMTOO_clean_linker_0, # of connection points: 3
#     Node 3, Type 0, BuildingBlock: PAMTOO_clean_linker_0, # of connection points: 3
#     Node 4, Type 1, BuildingBlock: FUNLAD_clean_sbu_0, # of connection points: 6
#     Node 5, Type 1, BuildingBlock: FUNLAD_clean_sbu_0, # of connection points: 6
#     Edge 6, Type (0, 1), BuildingBlock: MIFKUJ_clean_linker_0, # of connection points: 2
#     Edge 7, Type (0, 1), BuildingBlock: MIFKUJ_clean_linker_0, # of connection points: 2
#     Edge 8, Type (0, 1), BuildingBlock: MIFKUJ_clean_linker_0, # of connection points: 2
#     Edge 9, Type (0, 1), BuildingBlock: MIFKUJ_clean_linker_0, # of connection points: 2
#     Edge 10, Type (0, 1), BuildingBlock: MIFKUJ_clean_linker_0, # of connection points: 2
#     Edge 11, Type (0, 1), BuildingBlock: MIFKUJ_clean_linker_0, # of connection points: 2
#     Edge 12, Type (0, 1), BuildingBlock: MIFKUJ_clean_linker_0, # of connection points: 2
#     Edge 13, Type (0, 1), BuildingBlock: MIFKUJ_clean_linker_0, # of connection points: 2
#     Edge 14, Type (0, 1), BuildingBlock: MIFKUJ_clean_linker_0, # of connection points: 2
#     Edge 15, Type (0, 1), BuildingBlock: MIFKUJ_clean_linker_0, # of connection points: 2
#     Edge 16, Type (0, 1), BuildingBlock: MIFKUJ_clean_linker_0, # of connection points: 2
#     Edge 17, Type (0, 1), BuildingBlock: MIFKUJ_clean_linker_0, # of connection points: 2
# Relax obj value: 0.003
# Max RMSD: 0.051
# Mean RMSD: 0.038
data_MOF--net-rtl--node1-FUNLAD_clean_sbu_0--node2-PAMTOO_clean_linker_0--edge1-MIFKUJ_clean_linker_0
_symmetry_space_group_name_H-M    P1
_symmetry_Int_Tables_number       1
_symmetry_cell_setting            triclinic
loop_
_symmetry_equiv_pos_as_xyz
'x, y, z'
_cell_length_a     50.960453
_cell_length_b     50.95627
_cell_length_c     27.446287
_cell_angle_alpha  92.154096
_cell_angle_beta   90.981591
_cell_angle_gamma 89.989029
loop_
_atom_site_label
_atom_site_type_symbol
_atom_site_fract_x
_atom_site_fract_y
_atom_site_fract_z
_atom_type_partial_charge
H0 H 0.14787 0.87283 0.00866 0.0
H1 H 0.19066 0.81218 0.0807 0.0
H2 H 0.19222 0.81583 0.92456 0.0
H3 H 0.1917 0.76259 0.95894 0.0
C4 C 0.20194 0.7656 0.99485 0.0
O5 O 0.21031 0.79129 0.0005 0.0
H6 H 0.1878 0.76119 0.02393 0.0
C7 C 0.16089 0.85598 0.00691 0.0
C8 C 0.16908 0.84587 0.96142 0.0
C9 C 0.1683 0.84384 0.05005 0.0
C10 C 0.18457 0.82162 0.04762 0.0
C11 C 0.19344 0.81176 0.00242 0.0
C12 C 0.18546 0.82369 0.95937 0.0
H13 H 0.64094 0.63906 0.52516 0.0
H14 H 0.68783 0.69402 0.44904 0.0
H15 H 0.69316 0.69184 0.6053 0.0
H16 H 0.69183 0.74501 0.5626 0.0
C17 C 0.70348 0.74067 0.5293 0.0
O18 O 0.71059 0.71451 0.52789 0.0
H19 H 0.69111 0.7449 0.49675 0.0
C20 C 0.65538 0.65471 0.52566 0.0
C21 C 0.66626 0.66389 0.5704 0.0
C22 C 0.66274 0.66551 0.48166 0.0
C23 C 0.68179 0.68546 0.48261 0.0
C24 C 0.69254 0.69507 0.52721 0.0
C25 C 0.68466 0.6844 0.57105 0.0
H26 H 0.87453 0.14779 0.01111 0.0
H27 H 0.81589 0.1936 0.93845 0.0
H28 H 0.81818 0.19253 0.09494 0.0
H29 H 0.76524 0.19455 0.05514 0.0
C30 C 0.76881 0.20439 0.02037 0.0
O31 O 0.79467 0.21227 0.0189 0.0
H32 H 0.76454 0.19011 0.98954 0.0
C33 C 0.85809 0.1613 0.01293 0.0
C34 C 0.84785 0.16904 0.05842 0.0
C35 C 0.84665 0.16991 0.96954 0.0
C36 C 0.82483 0.18668 0.9717 0.0
C37 C 0.81478 0.19499 0.01694 0.0
C38 C 0.82614 0.18604 0.06017 0.0
H39 H 0.37841 0.35446 0.49675 0.0
H40 H 0.32032 0.30863 0.5676 0.0
H41 H 0.32038 0.311 0.4113 0.0
H42 H 0.26731 0.31167 0.45748 0.0
C43 C 0.27195 0.29951 0.48936 0.0
O44 O 0.29762 0.29103 0.48654 0.0
H45 H 0.26925 0.31175 0.52333 0.0
C46 C 0.36186 0.34106 0.49467 0.0
C47 C 0.35098 0.33359 0.44893 0.0
C48 C 0.35079 0.33249 0.53776 0.0
C49 C 0.32894 0.31568 0.53473 0.0
C50 C 0.31812 0.30786 0.48917 0.0
C51 C 0.32894 0.31704 0.44637 0.0
C52 C 0.03095 0.97516 0.43874 0.0
N53 N 0.04787 0.04757 0.51131 0.0
C54 C 0.07374 0.04099 0.51015 0.0
C55 C 0.09298 0.06052 0.50898 0.0
C56 C 0.08554 0.0871 0.50904 0.0
C57 C 0.05869 0.09325 0.51084 0.0
C58 C 0.04014 0.07313 0.51186 0.0
Zn59 Zn 0.0196 0.01892 0.5107 0.0
C60 C 0.97681 0.02978 0.43873 0.0
N61 N 0.95973 0.9598 0.50822 0.0
C62 C 0.96616 0.93386 0.50768 0.0
C63 C 0.93422 0.96766 0.50924 0.0
C64 C 0.91402 0.9492 0.51033 0.0
C65 C 0.92004 0.9223 0.51029 0.0
C66 C 0.94653 0.91469 0.50858 0.0
Zn67 Zn 0.9885 0.988 0.50887 0.0
O68 O 0.03997 0.99684 0.45634 0.0
C69 C 0.0316 0.97729 0.5807 0.0
O70 O 0.0092 0.96663 0.45384 0.0
H71 H 0.92948 0.98836 0.50945 0.0
H72 H 0.07948 0.02055 0.50963 0.0
H73 H 0.98656 0.92801 0.50699 0.0
O74 O 0.04016 0.99893 0.5657 0.0
O75 O 0.01015 0.96794 0.56309 0.0
H76 H 0.01949 0.07798 0.51282 0.0
O77 O 0.96835 0.00986 0.56389 0.0
O78 O 0.99864 0.04047 0.56511 0.0
O79 O 0.96747 0.00867 0.45465 0.0
O80 O 0.99866 0.03839 0.45557 0.0
C81 C 0.97712 0.03176 0.58082 0.0
H82 H 0.11342 0.05482 0.50709 0.0
H83 H 0.05201 0.11344 0.51175 0.0
H84 H 0.89387 0.95596 0.51087 0.0
H85 H 0.95208 0.89418 0.50892 0.0
C86 C 0.47657 0.47479 0.93554 0.0
N87 N 0.54835 0.45999 0.00645 0.0
C88 C 0.54095 0.43431 0.00475 0.0
C89 C 0.55978 0.41441 0.00446 0.0
C90 C 0.58657 0.4209 0.00615 0.0
C91 C 0.59368 0.44758 0.00807 0.0
C92 C 0.57416 0.46689 0.00804 0.0
Zn93 Zn 0.5196 0.48821 0.007 0.0
C94 C 0.5299 0.5303 0.93869 0.0
N95 N 0.45831 0.54598 0.00946 0.0
C96 C 0.43281 0.53819 0.01165 0.0
C97 C 0.46466 0.57185 0.00702 0.0
C98 C 0.445 0.59098 0.00622 0.0
C99 C 0.41856 0.58346 0.00866 0.0
C100 C 0.41257 0.55669 0.01165 0.0
Zn101 Zn 0.48746 0.51808 0.00898 0.0
O102 O 0.49847 0.46665 0.95186 0.0
C103 C 0.47745 0.47574 0.07743 0.0
O104 O 0.4672 0.49631 0.95255 0.0
H105 H 0.48503 0.57768 0.00557 0.0
H106 H 0.52035 0.4292 0.00381 0.0
H107 H 0.42811 0.51754 0.01314 0.0
O108 O 0.49953 0.46801 0.06149 0.0
O109 O 0.46733 0.4966 0.06145 0.0
H110 H 0.57964 0.48742 0.00928 0.0
O111 O 0.508 0.53912 0.06577 0.0
O112 O 0.54035 0.51061 0.06177 0.0
O113 O 0.50854 0.53908 0.95626 0.0
O114 O 0.53907 0.50864 0.95289 0.0
C115 C 0.53045 0.5315 0.08044 0.0
H116 H 0.55339 0.39412 0.00366 0.0
H117 H 0.61411 0.45346 0.00897 0.0
H118 H 0.45042 0.61146 0.00429 0.0
H119 H 0.39241 0.55008 0.01309 0.0
H120 H 0.22509 0.29232 0.44024 0.0
H121 H 0.19427 0.25561 0.44473 0.0
H122 H 0.24617 0.21838 0.54694 0.0
H123 H 0.27701 0.25519 0.54271 0.0
H124 H 0.2267 0.18344 0.47501 0.0
H125 H 0.19355 0.24846 0.58843 0.0
H126 H 0.17842 0.29244 0.61589 0.0
H127 H 0.11606 0.28868 0.50864 0.0
H128 H 0.13106 0.2448 0.48004 0.0
H129 H 0.13368 0.09028 0.55544 0.0
H130 H 0.1662 0.12543 0.55187 0.0
H131 H 0.11516 0.16717 0.4546 0.0
H132 H 0.08273 0.13202 0.45743 0.0
H133 H 0.13498 0.19948 0.52617 0.0
H134 H 0.16846 0.13478 0.4118 0.0
H135 H 0.18359 0.09085 0.38404 0.0
H136 H 0.24527 0.09394 0.49267 0.0
H137 H 0.23026 0.13777 0.52156 0.0
C138 C 0.22999 0.27618 0.46332 0.0
C139 C 0.25364 0.27631 0.49038 0.0
C140 C 0.21235 0.25531 0.46605 0.0
C141 C 0.21792 0.2343 0.49625 0.0
C142 C 0.24157 0.23433 0.52321 0.0
C143 C 0.25915 0.2553 0.52073 0.0
C144 C 0.19885 0.21249 0.5001 0.0
C145 C 0.20675 0.18686 0.48686 0.0
C146 C 0.17269 0.21707 0.51464 0.0
C147 C 0.1636 0.24345 0.53176 0.0
C148 C 0.17675 0.2571 0.5704 0.0
C149 C 0.16817 0.282 0.58623 0.0
C150 C 0.14634 0.29338 0.56393 0.0
C151 C 0.133 0.27986 0.52583 0.0
C152 C 0.14151 0.25496 0.50982 0.0
C153 C 0.12948 0.10679 0.53283 0.0
C154 C 0.10554 0.1083 0.50675 0.0
C155 C 0.14808 0.1269 0.53093 0.0
C156 C 0.14318 0.14886 0.50271 0.0
C157 C 0.11931 0.15046 0.47676 0.0
C158 C 0.10074 0.13037 0.47859 0.0
C159 C 0.16273 0.17039 0.5007 0.0
C160 C 0.15494 0.19601 0.51438 0.0
C161 C 0.18897 0.16578 0.48651 0.0
C162 C 0.19805 0.13944 0.46919 0.0
C163 C 0.18511 0.126 0.43006 0.0
C164 C 0.19369 0.10113 0.41406 0.0
C165 C 0.21533 0.08957 0.43667 0.0
C166 C 0.22848 0.1029 0.47525 0.0
C167 C 0.21995 0.12776 0.49143 0.0
H168 H 0.22195 0.07032 0.42422 0.0
H169 H 0.13972 0.31265 0.57626 0.0
H170 H 0.24149 0.76023 0.92936 0.0
H171 H 0.27942 0.73061 0.9317 0.0
H172 H 0.25246 0.7005 0.06699 0.0
H173 H 0.21495 0.73059 0.0652 0.0
H174 H 0.30368 0.70773 0.07192 0.0
H175 H 0.24395 0.66592 0.95678 0.0
H176 H 0.21489 0.66259 0.88405 0.0
H177 H 0.28006 0.67848 0.7925 0.0
H178 H 0.30946 0.68225 0.86481 0.0
H179 H 0.3764 0.5879 0.06854 0.0
H180 H 0.34093 0.62036 0.06622 0.0
H181 H 0.37704 0.65619 0.94427 0.0
H182 H 0.41267 0.62384 0.94657 0.0
H183 H 0.32235 0.64674 0.9316 0.0
H184 H 0.38222 0.68682 0.0489 0.0
H185 H 0.41058 0.68864 0.12262 0.0
H186 H 0.34393 0.67409 0.21136 0.0
H187 H 0.31521 0.67179 0.13803 0.0
C188 C 0.24378 0.74726 0.95952 0.0
C189 C 0.22525 0.74746 0.99682 0.0
C190 C 0.26533 0.73028 0.96078 0.0
C191 C 0.26861 0.71299 0.99916 0.0
C192 C 0.25033 0.71357 0.03694 0.0
C193 C 0.22886 0.73066 0.03581 0.0
C194 C 0.29103 0.69428 -7e-05 0.0
C195 C 0.30754 0.69419 0.04144 0.0
C196 C 0.29646 0.67691 0.95981 0.0
C197 C 0.27884 0.67465 0.91626 0.0
C198 C 0.25204 0.66892 0.92118 0.0
C199 C 0.23552 0.66691 0.88002 0.0
C200 C 0.24561 0.6704 0.83369 0.0
C201 C 0.27226 0.67583 0.82842 0.0
C202 C 0.28887 0.67789 0.86947 0.0
C203 C 0.37674 0.60269 0.04123 0.0
C204 C 0.3973 0.60338 0.00777 0.0
C205 C 0.35657 0.62128 0.0401 0.0
C206 C 0.35645 0.64074 0.00521 0.0
C207 C 0.37682 0.64136 0.97152 0.0
C208 C 0.39721 0.62299 0.97306 0.0
C209 C 0.33481 0.66019 0.00357 0.0
C210 C 0.31847 0.66037 0.96194 0.0
C211 C 0.3294 0.67745 0.04372 0.0
C212 C 0.34661 0.67886 0.08789 0.0
C213 C 0.37364 0.68376 0.08407 0.0
C214 C 0.38978 0.68494 0.1258 0.0
C215 C 0.37908 0.68141 0.17163 0.0
C216 C 0.3522 0.67678 0.17583 0.0
C217 C 0.33598 0.67556 0.13419 0.0
H218 H 0.3916 0.68234 0.2039 0.0
H219 H 0.23278 0.66883 0.80187 0.0
H220 H 0.74682 0.73552 0.47153 0.0
H221 H 0.7847 0.76511 0.46834 0.0
H222 H 0.75111 0.81514 0.5812 0.0
H223 H 0.71332 0.78558 0.58453 0.0
H224 H 0.76825 0.84288 0.50462 0.0
H225 H 0.80201 0.77591 0.6076 0.0
H226 H 0.81279 0.73059 0.62924 0.0
H227 H 0.86324 0.72264 0.50584 0.0
H228 H 0.85246 0.76782 0.48305 0.0
H229 H 0.87633 0.92444 0.56671 0.0
H230 H 0.84068 0.89254 0.56886 0.0
H231 H 0.87976 0.84318 0.46157 0.0
H232 H 0.91563 0.87509 0.45927 0.0
H233 H 0.86023 0.81432 0.53226 0.0
H234 H 0.82747 0.88089 0.42935 0.0
H235 H 0.81673 0.92596 0.40608 0.0
H236 H 0.76427 0.9343 0.52644 0.0
H237 H 0.77499 0.88939 0.55087 0.0
C238 C 0.74778 0.75263 0.49612 0.0
C239 C 0.72749 0.75796 0.52911 0.0
C240 C 0.76936 0.76952 0.49425 0.0
C241 C 0.77087 0.79218 0.52496 0.0
C242 C 0.75042 0.7977 0.55739 0.0
C243 C 0.72893 0.78076 0.55945 0.0
C244 C 0.79339 0.81054 0.52244 0.0
C245 C 0.78834 0.83672 0.51128 0.0
C246 C 0.81966 0.8023 0.52964 0.0
C247 C 0.8262 0.77515 0.54333 0.0
C248 C 0.81522 0.76442 0.58483 0.0
C249 C 0.82137 0.73877 0.59736 0.0
C250 C 0.83863 0.72372 0.56886 0.0
C251 C 0.84983 0.73431 0.52784 0.0
C252 C 0.84373 0.75994 0.51512 0.0
C253 C 0.87728 0.90689 0.54327 0.0
C254 C 0.89873 0.90243 0.51248 0.0
C255 C 0.85688 0.88864 0.5446 0.0
C256 C 0.85732 0.86564 0.51481 0.0
C257 C 0.87897 0.86081 0.48481 0.0
C258 C 0.89948 0.87904 0.48361 0.0
C259 C 0.83507 0.84677 0.51493 0.0
C260 C 0.84016 0.82048 0.5255 0.0
C261 C 0.80881 0.85486 0.50688 0.0
C262 C 0.80223 0.88186 0.4922 0.0
C263 C 0.8138 0.89241 0.45108 0.0
C264 C 0.80769 0.91791 0.43765 0.0
C265 C 0.78988 0.93301 0.46484 0.0
C266 C 0.77809 0.9226 0.50545 0.0
C267 C 0.78416 0.89711 0.51909 0.0
H268 H 0.78517 0.95275 0.45437 0.0
H269 H 0.84337 0.70387 0.57862 0.0
H270 H 0.77049 0.24967 0.07722 0.0
H271 H 0.74114 0.28773 0.0742 0.0
H272 H 0.69698 0.24945 0.95623 0.0
H273 H 0.72678 0.21175 0.95834 0.0
H274 H 0.70405 0.29938 0.93779 0.0
H275 H 0.67474 0.25233 0.0751 0.0
H276 H 0.67932 0.23076 0.15375 0.0
H277 H 0.70485 0.30352 0.223 0.0
H278 H 0.70075 0.32545 0.14459 0.0
H279 H 0.5873 0.37518 0.95065 0.0
H280 H 0.61976 0.3399 0.95278 0.0
H281 H 0.66432 0.38381 0.06319 0.0
H282 H 0.63158 0.41901 0.06199 0.0
H283 H 0.65834 0.33246 0.08596 0.0
H284 H 0.68557 0.37973 0.94773 0.0
H285 H 0.67981 0.40077 0.86883 0.0
H286 H 0.65685 0.32683 0.8009 0.0
H287 H 0.66212 0.3054 0.8796 0.0
C288 C 0.75461 0.24956 0.05047 0.0
C289 C 0.75102 0.22795 0.01771 0.0
C290 C 0.73775 0.27118 0.04896 0.0
C291 C 0.71665 0.27137 0.0153 0.0
C292 C 0.71313 0.2498 0.98244 0.0
C293 C 0.73011 0.22826 0.98372 0.0
C294 C 0.69819 0.29398 0.01432 0.0
C295 C 0.69383 0.3064 0.97009 0.0
C296 C 0.68526 0.30358 0.05667 0.0
C297 C 0.6877 0.29045 0.10387 0.0
C298 C 0.68152 0.26368 0.10702 0.0
C299 C 0.684 0.2514 0.15157 0.0
C300 C 0.69244 0.26574 0.19332 0.0
C301 C 0.69835 0.29242 0.19062 0.0
C302 C 0.69594 0.30479 0.14615 0.0
C303 C 0.60395 0.3773 0.97553 0.0
C304 C 0.60684 0.39991 0.00618 0.0
C305 C 0.62261 0.35722 0.9764 0.0
C306 C 0.64459 0.35932 0.00784 0.0
C307 C 0.64755 0.38183 0.03853 0.0
C308 C 0.62894 0.402 0.03753 0.0
C309 C 0.66413 0.33772 0.00942 0.0
C310 C 0.66867 0.32549 0.05375 0.0
C311 C 0.67708 0.3282 0.96711 0.0
C312 C 0.67401 0.34101 0.91968 0.0
C313 C 0.67909 0.36799 0.91606 0.0
C314 C 0.67595 0.37998 0.87135 0.0
C315 C 0.66791 0.36516 0.8299 0.0
C316 C 0.66305 0.3383 0.83305 0.0
C317 C 0.66614 0.32621 0.87769 0.0
H318 H 0.66549 0.37448 0.79532 0.0
H319 H 0.69434 0.2562 0.22777 0.0
H320 H 0.17315 0.89353 0.08862 0.0
H321 H 0.15185 0.91229 0.16143 0.0
H322 H 0.11803 0.83674 0.18849 0.0
H323 H 0.13983 0.81776 0.11607 0.0
H324 H 0.08154 0.88093 0.18414 0.0
H325 H 0.16167 0.85576 0.26378 0.0
H326 H 0.20968 0.85329 0.27517 0.0
H327 H 0.21394 0.93737 0.29015 0.0
H328 H 0.16597 0.94037 0.2781 0.0
H329 H 0.02174 0.92488 0.40413 0.0
H330 H 0.04674 0.89964 0.34332 0.0
H331 H 0.09844 0.96575 0.32765 0.0
H332 H 0.07403 0.99081 0.38947 0.0
H333 H 0.12621 0.92278 0.32913 0.0
H334 H 0.04879 0.9496 0.24294 0.0
H335 H 1.00128 0.95451 0.22737 0.0
H336 H 0.9923 0.87066 0.21955 0.0
H337 H 0.03974 0.86526 0.23574 0.0
C338 C 0.16154 0.88088 0.11069 0.0
C339 C 0.15813 0.85424 0.09706 0.0
C340 C 0.14943 0.89156 0.15216 0.0
C341 C 0.13342 0.87586 0.18024 0.0
C342 C 0.13039 0.84911 0.16726 0.0
C343 C 0.14292 0.83829 0.12622 0.0
C344 C 0.11858 0.88795 0.22118 0.0
C345 C 0.0912 0.88964 0.21638 0.0
C346 C 0.13137 0.90002 0.26225 0.0
C347 C 0.16023 0.89829 0.26959 0.0
C348 C 0.17286 0.87374 0.26905 0.0
C349 C 0.20007 0.87224 0.27572 0.0
C350 C 0.21486 0.89516 0.28326 0.0
C351 C 0.20246 0.91963 0.28425 0.0
C352 C 0.17525 0.92124 0.27755 0.0
C353 C 0.03841 0.93406 0.38768 0.0
C354 C 0.04581 0.95991 0.40144 0.0
C355 C 0.05265 0.91962 0.3528 0.0
C356 C 0.0743 0.93088 0.33038 0.0
C357 C 0.08184 0.95661 0.34443 0.0
C358 C 0.06778 0.97096 0.37965 0.0
C359 C 0.08904 0.91598 0.29211 0.0
C360 C 0.11643 0.91384 0.29724 0.0
C361 C 0.07629 0.90386 0.25085 0.0
C362 C 0.04776 0.90703 0.24112 0.0
C363 C 0.03665 0.93221 0.23831 0.0
C364 C 0.00974 0.93509 0.2293 0.0
C365 C 0.99376 0.91291 0.22263 0.0
C366 C 0.00469 0.88782 0.22482 0.0
C367 C 0.03159 0.88484 0.23388 0.0
H368 H 0.97294 0.91518 0.21564 0.0
H369 H 0.23592 0.89396 0.28844 0.0
H370 H 0.66438 0.612 0.58913 0.0
H371 H 0.64305 0.59164 0.65721 0.0
H372 H 0.62646 0.66826 0.72161 0.0
H373 H 0.64817 0.68881 0.65337 0.0
H374 H 0.63873 0.63215 0.79136 0.0
H375 H 0.58064 0.63853 0.65505 0.0
H376 H 0.56637 0.63383 0.56891 0.0
H377 H 0.57314 0.55001 0.57438 0.0
H378 H 0.5881 0.55422 0.66029 0.0
H379 H 0.52784 0.58309 0.92476 0.0
H380 H 0.55312 0.608 0.86669 0.0
H381 H 0.58923 0.53631 0.81304 0.0
H382 H 0.5647 0.51139 0.87183 0.0
H383 H 0.56511 0.57299 0.73988 0.0
H384 H 0.62585 0.56836 0.87684 0.0
H385 H 0.63927 0.57451 0.96322 0.0
H386 H 0.62469 0.65731 0.95679 0.0
H387 H 0.61071 0.65157 0.87048 0.0
C388 C 0.65655 0.62449 0.61822 0.0
C389 C 0.65759 0.65195 0.6158 0.0
C390 C 0.64436 0.61286 0.65702 0.0
C391 C 0.63266 0.62845 0.69386 0.0
C392 C 0.63525 0.65589 0.69338 0.0
C393 C 0.64767 0.66759 0.65453 0.0
C394 C 0.61609 0.61597 0.73038 0.0
C395 C 0.62241 0.61952 0.78016 0.0
C396 C 0.59481 0.59942 0.71572 0.0
C397 C 0.58572 0.59672 0.66405 0.0
C398 C 0.57934 0.6191 0.63778 0.0
C399 C 0.57112 0.61653 0.58899 0.0
C400 C 0.56891 0.59165 0.56617 0.0
C401 C 0.57493 0.56928 0.59209 0.0
C402 C 0.58328 0.57175 0.64084 0.0
C403 C 0.54114 0.57266 0.9005 0.0
C404 C 0.54432 0.54532 0.90273 0.0
C405 C 0.5556 0.5869 0.86759 0.0
C406 C 0.57302 0.57393 0.83586 0.0
C407 C 0.57587 0.54661 0.83739 0.0
C408 C 0.5619 0.53245 0.87099 0.0
C409 C 0.58813 0.58875 0.80053 0.0
C410 C 0.58137 0.58572 0.75097 0.0
C411 C 0.60871 0.606 0.81548 0.0
C412 C 0.6169 0.60948 0.8674 0.0
C413 C 0.62517 0.58783 0.894 0.0
C414 C 0.63295 0.59124 0.94291 0.0
C415 C 0.63276 0.61626 0.9655 0.0
C416 C 0.62477 0.63793 0.93925 0.0
C417 C 0.61692 0.6346 0.89034 0.0
H418 H 0.63895 0.61886 0.00327 0.0
H419 H 0.56242 0.58972 0.52848 0.0
H420 H 0.89968 0.16693 0.0838 0.0
H421 H 0.91963 0.14457 0.15236 0.0
H422 H 0.84273 0.12434 0.20266 0.0
H423 H 0.82262 0.14715 0.13422 0.0
H424 H 0.8752 0.1364 0.27875 0.0
H425 H 0.8777 0.07913 0.13786 0.0
H426 H 0.88622 0.06592 0.05234 0.0
H427 H 0.96853 0.08072 0.07567 0.0
H428 H 0.96044 0.09418 0.16144 0.0
H429 H 0.92448 0.02713 0.41501 0.0
H430 H 0.90073 0.0524 0.3539 0.0
H431 H 0.97289 0.09032 0.31652 0.0
H432 H 0.99664 0.06568 0.37815 0.0
H433 H 0.94051 0.06752 0.23498 0.0
H434 H 0.93575 0.12539 0.37855 0.0
H435 H 0.9253 0.13615 0.46431 0.0
H436 H 0.84437 0.11673 0.43546 0.0
H437 H 0.85445 0.10555 0.3495 0.0
C438 C 0.88703 0.15792 0.10974 0.0
C439 C 0.85962 0.15851 0.10344 0.0
C440 C 0.89843 0.14511 0.14883 0.0
C441 C 0.88268 0.13226 0.18201 0.0
C442 C 0.85525 0.13401 0.17735 0.0
C443 C 0.84379 0.14707 0.13835 0.0
C444 C 0.89503 0.11597 0.21985 0.0
C445 C 0.8892 0.12111 0.26911 0.0
C446 C 0.91338 0.09604 0.20738 0.0
C447 C 0.91843 0.08788 0.15592 0.0
C448 C 0.89759 0.07974 0.12466 0.0
C449 C 0.90235 0.07218 0.07614 0.0
C450 C 0.9279 0.07259 0.05847 0.0
C451 C 0.94875 0.08045 0.08939 0.0
C452 C 0.94409 0.08799 0.13799 0.0
C453 C 0.93526 0.04084 0.39371 0.0
C454 C 0.9624 0.04444 0.4013 0.0
C455 C 0.92167 0.0553 0.35904 0.0
C456 C 0.93511 0.07322 0.33095 0.0
C457 C 0.96223 0.07658 0.33797 0.0
C458 C 0.97572 0.06253 0.37321 0.0
C459 C 0.92101 0.0883 0.29366 0.0
C460 C 0.92645 0.08279 0.24448 0.0
C461 C 0.90204 0.10752 0.30623 0.0
C462 C 0.89591 0.11434 0.35777 0.0
C463 C 0.91578 0.12317 0.3906 0.0
C464 C 0.9099 0.1294 0.43923 0.0
C465 C 0.88419 0.12703 0.45541 0.0
C466 C 0.86429 0.11851 0.42291 0.0
C467 C 0.87006 0.11226 0.37421 0.0
H468 H 0.87967 0.13186 0.49307 0.0
H469 H 0.93155 0.06674 0.02088 0.0
H470 H 0.40202 0.33354 0.56797 0.0
H471 H 0.42041 0.35482 0.64237 0.0
H472 H 0.34244 0.37552 0.68896 0.0
H473 H 0.32392 0.35421 0.61439 0.0
H474 H 0.37746 0.41797 0.69 0.0
H475 H 0.37459 0.3306 0.74878 0.0
H476 H 0.38275 0.28287 0.7457 0.0
H477 H 0.46581 0.29667 0.74263 0.0
H478 H 0.45815 0.34449 0.74498 0.0
H479 H 0.42413 0.47641 0.91371 0.0
H480 H 0.40001 0.44956 0.85232 0.0
H481 H 0.47222 0.41161 0.80944 0.0
H482 H 0.49614 0.43746 0.87242 0.0
H483 H 0.4364 0.37663 0.81064 0.0
H484 H 0.44085 0.46215 0.74267 0.0
H485 H 0.43471 0.51013 0.74111 0.0
H486 H 0.35155 0.50038 0.75567 0.0
H487 H 0.35724 0.45234 0.75793 0.0
C488 C 0.38881 0.34233 0.59444 0.0
C489 C 0.36157 0.34228 0.5855 0.0
C490 C 0.3993 0.35436 0.63695 0.0
C491 C 0.38276 0.36667 0.67118 0.0
C492 C 0.3555 0.36606 0.66299 0.0
C493 C 0.34495 0.35375 0.62065 0.0
C494 C 0.39418 0.3817 0.71365 0.0
C495 C 0.38995 0.4089 0.71701 0.0
C496 C 0.41109 0.36991 0.74782 0.0
C497 C 0.41577 0.34114 0.74669 0.0
C498 C 0.39459 0.32346 0.74707 0.0
C499 C 0.39913 0.29639 0.74553 0.0
C500 C 0.42478 0.28674 0.74388 0.0
C501 C 0.44595 0.30416 0.74388 0.0
C502 C 0.44152 0.33126 0.74539 0.0
C503 C 0.43483 0.46237 0.89108 0.0
C504 C 0.46203 0.45912 0.89763 0.0
C505 C 0.42105 0.44709 0.85586 0.0
C506 C 0.43432 0.42881 0.82556 0.0
C507 C 0.4615 0.42552 0.83232 0.0
C508 C 0.47518 0.44039 0.86819 0.0
C509 C 0.42004 0.4131 0.78677 0.0
C510 C 0.42373 0.38575 0.78401 0.0
C511 C 0.40297 0.42482 0.75255 0.0
C512 C 0.39951 0.45369 0.751 0.0
C513 C 0.42128 0.47026 0.74588 0.0
C514 C 0.41787 0.49745 0.74482 0.0
C515 C 0.39276 0.5083 0.74843 0.0
C516 C 0.37099 0.49196 0.75296 0.0
C517 C 0.37429 0.46475 0.7541 0.0
H518 H 0.39017 0.52936 0.74761 0.0
H519 H 0.42825 0.26577 0.74267 0.0
H520 H 0.6107 0.65705 0.46385 0.0
H521 H 0.59011 0.63598 0.39164 0.0
H522 H 0.6654 0.63062 0.32246 0.0
H523 H 0.68624 0.65184 0.39511 0.0
H524 H 0.6262 0.64329 0.25775 0.0
H525 H 0.6418 0.57867 0.37488 0.0
H526 H 0.64112 0.55844 0.45499 0.0
H527 H 0.55688 0.55736 0.44988 0.0
H528 H 0.55701 0.57821 0.37022 0.0
H529 H 0.58341 0.53317 0.09671 0.0
H530 H 0.60736 0.55868 0.1608 0.0
H531 H 0.53421 0.58914 0.21558 0.0
H532 H 0.51016 0.56443 0.15071 0.0
H533 H 0.57497 0.56245 0.28501 0.0
H534 H 0.56112 0.62998 0.16745 0.0
H535 H 0.56376 0.64882 0.08627 0.0
H536 H 0.64769 0.64151 0.09105 0.0
H537 H 0.6455 0.62206 0.17189 0.0
C538 C 0.62287 0.6515 0.43318 0.0
C539 C 0.65014 0.65571 0.43536 0.0
C540 C 0.61108 0.63948 0.39195 0.0
C541 C 0.6263 0.63125 0.35211 0.0
C542 C 0.65333 0.63671 0.35297 0.0
C543 C 0.66519 0.64885 0.39437 0.0
C544 C 0.61397 0.6159 0.31083 0.0
C545 C 0.6153 0.62543 0.26361 0.0
C546 C 0.59964 0.59263 0.31855 0.0
C547 C 0.59942 0.58027 0.36672 0.0
C548 C 0.62311 0.5744 0.39105 0.0
C549 C 0.62283 0.5628 0.43638 0.0
C550 C 0.59898 0.55667 0.45755 0.0
C551 C 0.57535 0.56216 0.43345 0.0
C552 C 0.57551 0.5739 0.38823 0.0
C553 C 0.57246 0.54539 0.12233 0.0
C554 C 0.54494 0.54684 0.11884 0.0
C555 C 0.58615 0.55998 0.15868 0.0
C556 C 0.57248 0.57578 0.19257 0.0
C557 C 0.54503 0.57709 0.18948 0.0
C558 C 0.53137 0.56302 0.15246 0.0
C559 C 0.58676 0.59019 0.23246 0.0
C560 C 0.58592 0.58031 0.27932 0.0
C561 C 0.60178 0.61286 0.22426 0.0
C562 C 0.60311 0.62419 0.1754 0.0
C563 C 0.58011 0.632 0.15089 0.0
C564 C 0.58153 0.64287 0.105 0.0
C565 C 0.60587 0.64628 0.08344 0.0
C566 C 0.62884 0.6388 0.10773 0.0
C567 C 0.62752 0.62783 0.15357 0.0
H568 H 0.60692 0.65481 0.04802 0.0
H569 H 0.59882 0.54759 0.49255 0.0
H570 H 0.82106 0.14283 0.89564 0.0
H571 H 0.8407 0.12168 0.82298 0.0
H572 H 0.91604 0.15459 0.86524 0.0
H573 H 0.89661 0.1752 0.93838 0.0
H574 H 0.9014 0.15551 0.75937 0.0
H575 H 0.90824 0.09811 0.89634 0.0
H576 H 0.88986 0.07404 0.964 0.0
H577 H 0.83915 0.03084 0.86348 0.0
H578 H 0.8569 0.05513 0.79517 0.0
H579 H 0.99316 0.07551 0.63393 0.0
H580 H 0.9683 0.10099 0.6945 0.0
H581 H 0.90212 0.04897 0.67064 0.0
H582 H 0.92717 0.02291 0.61109 0.0
H583 H 0.90868 0.05847 0.76349 0.0
H584 H 0.9032 0.11193 0.6253 0.0
H585 H 0.91947 0.13625 0.55605 0.0
H586 H 0.96452 0.18676 0.65429 0.0
H587 H 0.94881 0.16247 0.72421 0.0
C588 C 0.84168 0.14593 0.88874 0.0
C589 C 0.8574 0.16054 0.92236 0.0
C590 C 0.85286 0.13384 0.84746 0.0
C591 C 0.8798 0.13658 0.83897 0.0
C592 C 0.8952 0.15237 0.87114 0.0
C593 C 0.88415 0.16402 0.91284 0.0
C594 C 0.89245 0.12115 0.79914 0.0
C595 C 0.9032 0.13432 0.76024 0.0
C596 C 0.89411 0.09348 0.7999 0.0
C597 C 0.88365 0.07866 0.84077 0.0
C598 C 0.89299 0.08367 0.88872 0.0
C599 C 0.88272 0.06995 0.92719 0.0
C600 C 0.8633 0.05095 0.91812 0.0
C601 C 0.85416 0.0456 0.87048 0.0
C602 C 0.8643 0.05934 0.83187 0.0
C603 C 0.97331 0.06949 0.64155 0.0
C604 C 0.96214 0.04719 0.61768 0.0
C605 C 0.95903 0.08419 0.67597 0.0
C606 C 0.93314 0.07718 0.68661 0.0
C607 C 0.92202 0.05482 0.663 0.0
C608 C 0.93638 0.03994 0.62894 0.0
C609 C 0.91796 0.09275 0.72334 0.0
C610 C 0.90674 0.07963 0.76195 0.0
C611 C 0.91559 0.12044 0.72186 0.0
C612 C 0.925 0.13522 0.67998 0.0
C613 C 0.91672 0.1281 0.63214 0.0
C614 C 0.92582 0.14191 0.59274 0.0
C615 C 0.94306 0.16301 0.60072 0.0
C616 C 0.95118 0.17039 0.64815 0.0
C617 C 0.94217 0.15663 0.6877 0.0
H618 H 0.95008 0.17366 0.57014 0.0
H619 H 0.85539 0.04034 0.94798 0.0
H620 H 0.32608 0.36025 0.37726 0.0
H621 H 0.34641 0.38274 0.31014 0.0
H622 H 0.42216 0.35265 0.35355 0.0
H623 H 0.40195 0.3311 0.42167 0.0
H624 H 0.42661 0.40179 0.34034 0.0
H625 H 0.38721 0.33062 0.24634 0.0
H626 H 0.35149 0.30122 0.21663 0.0
H627 H 0.30966 0.367 0.16038 0.0
H628 H 0.34498 0.39686 0.19034 0.0
H629 H 0.49701 0.43576 0.13073 0.0
H630 H 0.47405 0.41031 0.19064 0.0
H631 H 0.40353 0.45495 0.16552 0.0
H632 H 0.42641 0.48074 0.10574 0.0
H633 H 0.39577 0.39914 0.16781 0.0
H634 H 0.43658 0.46979 0.26287 0.0
H635 H 0.4736 0.49795 0.29093 0.0
H636 H 0.51435 0.43063 0.34359 0.0
H637 H 0.47771 0.40199 0.31516 0.0
C638 C 0.34698 0.35811 0.37176 0.0
C639 C 0.36249 0.344 0.40446 0.0
C640 C 0.3586 0.37091 0.33339 0.0
C641 C 0.38586 0.3693 0.32647 0.0
C642 C 0.40115 0.35433 0.35819 0.0
C643 C 0.38961 0.34193 0.39695 0.0
C644 C 0.39877 0.38454 0.28838 0.0
C645 C 0.42005 0.40081 0.3025 0.0
C646 C 0.38989 0.38392 0.23913 0.0
C647 C 0.36863 0.36601 0.22102 0.0
C648 C 0.3703 0.33885 0.22798 0.0
C649 C 0.35014 0.3221 0.21103 0.0
C650 C 0.32829 0.33225 0.18675 0.0
C651 C 0.32658 0.35917 0.17925 0.0
C652 C 0.34668 0.37601 0.19616 0.0
C653 C 0.47662 0.44019 0.13792 0.0
C654 C 0.46356 0.46037 0.11369 0.0
C655 C 0.46355 0.42564 0.17216 0.0
C656 C 0.43715 0.43085 0.18255 0.0
C657 C 0.42391 0.45065 0.1579 0.0
C658 C 0.43705 0.46544 0.12402 0.0
C659 C 0.42361 0.41592 0.21996 0.0
C660 C 0.40223 0.3999 0.20571 0.0
C661 C 0.43254 0.4165 0.26901 0.0
C662 C 0.45451 0.43371 0.28645 0.0
C663 C 0.45352 0.46096 0.28007 0.0
C664 C 0.47442 0.47701 0.29611 0.0
C665 C 0.49634 0.46608 0.31892 0.0
C666 C 0.49737 0.43907 0.32586 0.0
C667 C 0.47654 0.42292 0.30982 0.0
H668 H 0.5125 0.47854 0.33131 0.0
H669 H 0.3127 0.31925 0.17365 0.0
H670 H 0.14398 0.82217 0.88304 0.0
H671 H 0.12261 0.84359 0.81451 0.0
H672 H 0.15137 0.91877 0.87024 0.0
H673 H 0.1718 0.89743 0.93968 0.0
H674 H 0.10272 0.92339 0.84933 0.0
H675 H 0.1753 0.88591 0.7631 0.0
H676 H 0.20546 0.85095 0.73469 0.0
H677 H 0.14114 0.80939 0.66432 0.0
H678 H 0.11052 0.84395 0.69288 0.0
H679 H 0.0715 0.99613 0.63974 0.0
H680 H 0.09641 0.97254 0.70128 0.0
H681 H 0.05128 0.90254 0.66668 0.0
H682 H 0.02595 0.92608 0.60537 0.0
H683 H 0.10789 0.89497 0.67489 0.0
H684 H 0.0358 0.93398 0.76328 0.0
H685 H 0.00716 0.97055 0.79021 0.0
H686 H 0.07358 0.01117 0.85516 0.0
H687 H 0.1027 0.975 0.82795 0.0
C688 C 0.1461 0.84319 0.88001 0.0
C689 C 0.15949 0.85819 0.91648 0.0
C690 C 0.13394 0.85545 0.84082 0.0
C691 C 0.13548 0.88285 0.83687 0.0
C692 C 0.14976 0.89766 0.87249 0.0
C693 C 0.16151 0.88547 0.91203 0.0
C694 C 0.12083 0.89635 0.79766 0.0
C695 C 0.10426 0.91736 0.81115 0.0
C696 C 0.12221 0.88821 0.74782 0.0
C697 C 0.14058 0.8674 0.73055 0.0
C698 C 0.16755 0.86922 0.7419 0.0
C699 C 0.18474 0.84949 0.72571 0.0
C700 C 0.17521 0.82793 0.69783 0.0
C701 C 0.14849 0.82609 0.68598 0.0
C702 C 0.13121 0.84575 0.70211 0.0
C703 C 0.06686 0.97571 0.64518 0.0
C704 C 0.04667 0.963 0.61787 0.0
C705 C 0.0811 0.96229 0.68034 0.0
C706 C 0.07561 0.93585 0.6885 0.0
C707 C 0.0558 0.92294 0.66078 0.0
C708 C 0.04127 0.93646 0.62604 0.0
C709 C 0.09021 0.92194 0.72684 0.0
C710 C 0.10659 0.90089 0.71316 0.0
C711 C 0.08897 0.93023 0.77645 0.0
C712 C 0.07146 0.95191 0.79314 0.0
C713 C 0.04434 0.95082 0.78293 0.0
C714 C 0.02801 0.97145 0.79832 0.0
C715 C 0.03855 0.9932 0.82426 0.0
C716 C 0.06544 0.99433 0.835 0.0
C717 C 0.08186 0.97376 0.81963 0.0
H718 H 0.02588 0.00916 0.83614 0.0
H719 H 0.18855 0.81268 0.68533 0.0
loop_
_geom_bond_atom_site_label_1
_geom_bond_atom_site_label_2
_geom_bond_distance
_geom_bond_site_symmetry_2
_ccdc_geom_bond_type
H0 C7 0.929 . S
H1 C10 0.930 . S
H2 C12 0.929 . S
H3 C4 0.969 . S
C4 H3 0.969 . S
C4 O5 1.550 1_554 S
C4 H6 0.973 . S
O5 C4 1.550 1_556 S
O5 C11 1.412 1_556 S
H6 C4 0.973 . S
C7 H0 0.929 . S
C7 C8 1.400 1_554 S
C7 C9 1.364 . S
C8 C7 1.400 1_556 S
C8 C12 1.377 . S
C9 C7 1.364 . S
C9 C10 1.374 . S
C10 H1 0.930 . S
C10 C9 1.374 . S
C10 C11 1.385 . S
C11 O5 1.412 1_554 S
C11 C10 1.385 . S
C11 C12 1.393 1_554 S
C12 H2 0.929 . S
C12 C8 1.377 . S
C12 C11 1.393 1_556 S
H13 C20 0.929 . S
H14 C23 0.930 . S
H15 C25 0.929 . S
H16 C17 0.969 . S
C17 H16 0.969 . S
C17 O18 1.550 . S
C17 H19 0.973 . S
O18 C17 1.550 . S
O18 C24 1.412 . S
H19 C17 0.973 . S
C20 H13 0.929 . S
C20 C21 1.400 . S
C20 C22 1.364 . S
C21 C20 1.400 . S
C21 C25 1.377 . S
C22 C20 1.364 . S
C22 C23 1.374 . S
C23 H14 0.930 . S
C23 C22 1.374 . S
C23 C24 1.383 . S
C24 O18 1.412 . S
C24 C23 1.383 . S
C24 C25 1.394 . S
C25 H15 0.929 . S
C25 C21 1.377 . S
C25 C24 1.394 . S
H26 C33 0.929 . S
H27 C36 0.930 . S
H28 C38 0.929 . S
H29 C30 0.969 . S
C30 H29 0.969 . S
C30 O31 1.550 1_556 S
C30 H32 0.973 . S
O31 C30 1.550 1_554 S
O31 C37 1.412 . S
H32 C30 0.973 . S
C33 H26 0.929 . S
C33 C34 1.400 . S
C33 C35 1.364 1_554 S
C34 C33 1.400 . S
C34 C38 1.377 . S
C35 C33 1.364 1_556 S
C35 C36 1.374 . S
C36 H27 0.930 . S
C36 C35 1.374 . S
C36 C37 1.383 1_556 S
C37 O31 1.412 . S
C37 C36 1.383 1_554 S
C37 C38 1.394 . S
C38 H28 0.929 . S
C38 C34 1.377 . S
C38 C37 1.394 . S
H39 C46 0.929 . S
H40 C49 0.930 . S
H41 C51 0.929 . S
H42 C43 0.969 . S
C43 H42 0.969 . S
C43 O44 1.550 . S
C43 H45 0.973 . S
O44 C43 1.550 . S
O44 C50 1.412 . S
H45 C43 0.973 . S
C46 H39 0.929 . S
C46 C47 1.400 . S
C46 C48 1.364 . S
C47 C46 1.400 . S
C47 C51 1.377 . S
C48 C46 1.364 . S
C48 C49 1.374 . S
C49 H40 0.930 . S
C49 C48 1.374 . S
C49 C50 1.383 . S
C50 O44 1.412 . S
C50 C49 1.383 . S
C50 C51 1.394 . S
C51 H41 0.929 . S
C51 C47 1.377 . S
C51 C50 1.394 . S
C52 O68 1.251 . S
C52 O70 1.254 . S
N53 C54 1.333 . S
N53 C58 1.307 . S
N53 Zn59 2.020 . S
C54 N53 1.333 . S
C54 C55 1.379 . S
C54 H72 0.952 . S
C55 C54 1.379 . S
C55 C56 1.390 . S
C55 H82 0.949 . S
C56 C55 1.390 . S
C56 C57 1.357 . S
C57 C56 1.357 . S
C57 C58 1.370 . S
C57 H83 0.950 . S
C58 N53 1.307 . S
C58 C57 1.370 . S
C58 H76 0.948 . S
Zn59 N53 2.020 . S
Zn59 O68 2.039 1_545 S
Zn59 O74 2.034 1_545 S
Zn59 O78 2.025 1_455 S
Zn59 O80 2.024 1_455 S
C60 O79 1.246 . S
C60 O80 1.249 . S
N61 C62 1.307 . S
N61 C63 1.333 . S
N61 Zn67 2.020 . S
C62 N61 1.307 . S
C62 C66 1.370 . S
C62 H73 0.948 . S
C63 N61 1.333 . S
C63 C64 1.379 . S
C63 H71 0.952 . S
C64 C63 1.379 . S
C64 C65 1.390 . S
C64 H84 0.949 . S
C65 C64 1.390 . S
C65 C66 1.357 . S
C66 C62 1.370 . S
C66 C65 1.357 . S
C66 H85 0.950 . S
Zn67 N61 2.020 . S
Zn67 O70 2.025 1_655 S
Zn67 O75 2.024 1_655 S
Zn67 O77 2.039 1_565 S
Zn67 O79 2.034 1_565 S
O68 C52 1.251 . S
O68 Zn59 2.039 1_565 S
C69 O74 1.246 . S
C69 O75 1.249 . S
O70 C52 1.254 . S
O70 Zn67 2.025 1_455 S
H71 C63 0.952 . S
H72 C54 0.952 . S
H73 C62 0.948 . S
O74 Zn59 2.034 1_565 S
O74 C69 1.246 . S
O75 Zn67 2.024 1_455 S
O75 C69 1.249 . S
H76 C58 0.948 . S
O77 Zn67 2.039 1_545 S
O77 C81 1.251 . S
O78 Zn59 2.025 1_655 S
O78 C81 1.254 . S
O79 C60 1.246 . S
O79 Zn67 2.034 1_545 S
O80 Zn59 2.024 1_655 S
O80 C60 1.249 . S
C81 O77 1.251 . S
C81 O78 1.254 . S
H82 C55 0.949 . S
H83 C57 0.950 . S
H84 C64 0.949 . S
H85 C66 0.950 . S
C86 O102 1.251 . S
C86 O104 1.254 . S
N87 C88 1.333 1_554 S
N87 C92 1.307 . S
N87 Zn93 2.020 . S
C88 N87 1.333 1_556 S
C88 C89 1.379 . S
C88 H106 0.952 . S
C89 C88 1.379 . S
C89 C90 1.390 1_556 S
C89 H116 0.949 . S
C90 C89 1.390 1_554 S
C90 C91 1.357 . S
C91 C90 1.357 . S
C91 C92 1.370 . S
C91 H117 0.950 . S
C92 N87 1.307 . S
C92 C91 1.370 . S
C92 H110 0.948 . S
Zn93 N87 2.020 . S
Zn93 O102 2.039 1_554 S
Zn93 O108 2.034 . S
Zn93 O112 2.025 . S
Zn93 O114 2.024 1_554 S
C94 O113 1.246 . S
C94 O114 1.249 . S
N95 C96 1.307 1_554 S
N95 C97 1.333 . S
N95 Zn101 2.020 . S
C96 N95 1.307 1_556 S
C96 C100 1.370 . S
C96 H107 0.948 . S
C97 N95 1.333 . S
C97 C98 1.379 . S
C97 H105 0.952 . S
C98 C97 1.379 . S
C98 C99 1.390 . S
C98 H118 0.949 . S
C99 C98 1.390 . S
C99 C100 1.353 1_554 S
C100 C96 1.370 . S
C100 C99 1.353 1_556 S
C100 H119 0.954 . S
Zn101 N95 2.020 . S
Zn101 O104 2.025 1_554 S
Zn101 O109 2.024 . S
Zn101 O111 2.039 . S
Zn101 O113 2.034 1_554 S
O102 C86 1.251 . S
O102 Zn93 2.039 1_556 S
C103 O108 1.246 . S
C103 O109 1.249 . S
O104 C86 1.254 . S
O104 Zn101 2.025 1_556 S
H105 C97 0.952 . S
H106 C88 0.952 . S
H107 C96 0.948 . S
O108 Zn93 2.034 . S
O108 C103 1.246 . S
O109 Zn101 2.024 . S
O109 C103 1.249 . S
H110 C92 0.948 . S
O111 Zn101 2.039 . S
O111 C115 1.251 . S
O112 Zn93 2.025 . S
O112 C115 1.254 . S
O113 C94 1.246 . S
O113 Zn101 2.034 1_556 S
O114 Zn93 2.024 1_556 S
O114 C94 1.249 . S
C115 O111 1.251 . S
C115 O112 1.254 . S
H116 C89 0.949 . S
H117 C91 0.950 . S
H118 C98 0.949 . S
H119 C100 0.954 . S
H120 C138 0.951 . S
H121 C140 0.951 . S
H122 C142 0.950 . S
H123 C143 0.950 . S
H124 C145 0.950 . S
H125 C148 0.950 . S
H126 C149 0.950 . S
H127 C151 0.950 . S
H128 C152 0.950 . S
H129 C153 0.951 . S
H130 C155 0.951 . S
H131 C157 0.950 . S
H132 C158 0.950 . S
H133 C160 0.950 . S
H134 C163 0.950 . S
H135 C164 0.950 . S
H136 C166 0.950 . S
H137 C167 0.950 . S
C138 H120 0.951 . S
C138 C139 1.366 . S
C138 C140 1.388 . S
C139 C138 1.366 . S
C139 C143 1.385 . S
C140 H121 0.951 . S
C140 C138 1.388 . S
C140 C141 1.366 . S
C141 C140 1.366 . S
C141 C142 1.414 . S
C141 C144 1.499 . S
C142 H122 0.950 . S
C142 C141 1.414 . S
C142 C143 1.374 . S
C143 H123 0.950 . S
C143 C139 1.385 . S
C143 C142 1.374 . S
C144 C141 1.499 . S
C144 C145 1.373 . S
C144 C146 1.389 . S
C145 H124 0.950 . S
C145 C144 1.373 . S
C145 C161 1.377 . S
C146 C144 1.389 . S
C146 C147 1.524 . S
C146 C160 1.377 . S
C147 C146 1.524 . S
C147 C148 1.397 . S
C147 C152 1.363 . S
C148 H125 0.950 . S
C148 C147 1.397 . S
C148 C149 1.334 . S
C149 H126 0.950 . S
C149 C148 1.334 . S
C149 C150 1.287 . S
C150 C149 1.287 . S
C150 C151 1.524 . S
C150 H169 0.913 . S
C151 H127 0.950 . S
C151 C150 1.524 . S
C151 C152 1.415 . S
C152 H128 0.950 . S
C152 C147 1.363 . S
C152 C151 1.415 . S
C153 H129 0.951 . S
C153 C154 1.366 . S
C153 C155 1.388 . S
C154 C153 1.366 . S
C154 C158 1.385 . S
C155 H130 0.951 . S
C155 C153 1.388 . S
C155 C156 1.366 . S
C156 C155 1.366 . S
C156 C157 1.414 . S
C156 C159 1.499 . S
C157 H131 0.950 . S
C157 C156 1.414 . S
C157 C158 1.374 . S
C158 H132 0.950 . S
C158 C154 1.385 . S
C158 C157 1.374 . S
C159 C156 1.499 . S
C159 C160 1.373 . S
C159 C161 1.389 . S
C160 H133 0.950 . S
C160 C146 1.377 . S
C160 C159 1.373 . S
C161 C145 1.377 . S
C161 C159 1.389 . S
C161 C162 1.524 . S
C162 C161 1.524 . S
C162 C163 1.397 . S
C162 C167 1.363 . S
C163 H134 0.950 . S
C163 C162 1.397 . S
C163 C164 1.334 . S
C164 H135 0.950 . S
C164 C163 1.334 . S
C164 C165 1.287 . S
C165 C164 1.287 . S
C165 C166 1.524 . S
C165 H168 0.999 . S
C166 H136 0.950 . S
C166 C165 1.524 . S
C166 C167 1.415 . S
C167 H137 0.950 . S
C167 C162 1.363 . S
C167 C166 1.415 . S
H168 C165 0.999 . S
H169 C150 0.913 . S
H170 C188 0.951 . S
H171 C190 0.951 . S
H172 C192 0.950 . S
H173 C193 0.950 . S
H174 C195 0.950 . S
H175 C198 0.950 1_554 S
H176 C199 0.950 . S
H177 C201 0.950 . S
H178 C202 0.950 . S
H179 C203 0.951 . S
H180 C205 0.951 . S
H181 C207 0.950 . S
H182 C208 0.950 . S
H183 C210 0.950 . S
H184 C213 0.950 . S
H185 C214 0.950 . S
H186 C216 0.950 . S
H187 C217 0.950 . S
C188 H170 0.951 . S
C188 C189 1.366 1_556 S
C188 C190 1.388 . S
C189 C188 1.366 1_554 S
C189 C193 1.385 . S
C190 H171 0.951 . S
C190 C188 1.388 . S
C190 C191 1.366 1_556 S
C191 C190 1.366 1_554 S
C191 C192 1.414 . S
C191 C194 1.499 . S
C192 H172 0.950 . S
C192 C191 1.414 . S
C192 C193 1.374 . S
C193 H173 0.950 . S
C193 C189 1.385 . S
C193 C192 1.374 . S
C194 C191 1.499 . S
C194 C195 1.373 . S
C194 C196 1.389 1_554 S
C195 H174 0.950 . S
C195 C194 1.373 . S
C195 C211 1.377 . S
C196 C194 1.389 1_556 S
C196 C197 1.524 . S
C196 C210 1.377 . S
C197 C196 1.524 . S
C197 C198 1.397 . S
C197 C202 1.363 . S
C198 H175 0.950 1_556 S
C198 C197 1.397 . S
C198 C199 1.334 . S
C199 H176 0.950 . S
C199 C198 1.334 . S
C199 C200 1.287 . S
C200 C199 1.287 . S
C200 C201 1.524 . S
C200 H219 0.913 . S
C201 H177 0.950 . S
C201 C200 1.524 . S
C201 C202 1.415 . S
C202 H178 0.950 . S
C202 C197 1.363 . S
C202 C201 1.415 . S
C203 H179 0.951 . S
C203 C204 1.366 . S
C203 C205 1.388 . S
C204 C203 1.366 . S
C204 C208 1.385 1_554 S
C205 H180 0.951 . S
C205 C203 1.388 . S
C205 C206 1.366 . S
C206 C205 1.366 . S
C206 C207 1.414 1_554 S
C206 C209 1.499 . S
C207 H181 0.950 . S
C207 C206 1.414 1_556 S
C207 C208 1.374 . S
C208 H182 0.950 . S
C208 C204 1.385 1_556 S
C208 C207 1.374 . S
C209 C206 1.499 . S
C209 C210 1.373 1_554 S
C209 C211 1.389 . S
C210 H183 0.950 . S
C210 C196 1.377 . S
C210 C209 1.373 1_556 S
C211 C195 1.377 . S
C211 C209 1.389 . S
C211 C212 1.524 . S
C212 C211 1.524 . S
C212 C213 1.397 . S
C212 C217 1.363 . S
C213 H184 0.950 . S
C213 C212 1.397 . S
C213 C214 1.334 . S
C214 H185 0.950 . S
C214 C213 1.334 . S
C214 C215 1.287 . S
C215 C214 1.287 . S
C215 C216 1.524 . S
C215 H218 0.999 . S
C216 H186 0.950 . S
C216 C215 1.524 . S
C216 C217 1.415 . S
C217 H187 0.950 . S
C217 C212 1.363 . S
C217 C216 1.415 . S
H218 C215 0.999 . S
H219 C200 0.913 . S
H220 C238 0.951 . S
H221 C240 0.951 . S
H222 C242 0.950 . S
H223 C243 0.950 . S
H224 C245 0.950 . S
H225 C248 0.950 . S
H226 C249 0.950 . S
H227 C251 0.950 . S
H228 C252 0.950 . S
H229 C253 0.951 . S
H230 C255 0.951 . S
H231 C257 0.950 . S
H232 C258 0.950 . S
H233 C260 0.950 . S
H234 C263 0.950 . S
H235 C264 0.950 . S
H236 C266 0.950 . S
H237 C267 0.950 . S
C238 H220 0.951 . S
C238 C239 1.366 . S
C238 C240 1.388 . S
C239 C238 1.366 . S
C239 C243 1.385 . S
C240 H221 0.951 . S
C240 C238 1.388 . S
C240 C241 1.366 . S
C241 C240 1.366 . S
C241 C242 1.414 . S
C241 C244 1.499 . S
C242 H222 0.950 . S
C242 C241 1.414 . S
C242 C243 1.374 . S
C243 H223 0.950 . S
C243 C239 1.385 . S
C243 C242 1.374 . S
C244 C241 1.499 . S
C244 C245 1.373 . S
C244 C246 1.389 . S
C245 H224 0.950 . S
C245 C244 1.373 . S
C245 C261 1.377 . S
C246 C244 1.389 . S
C246 C247 1.524 . S
C246 C260 1.377 . S
C247 C246 1.524 . S
C247 C248 1.397 . S
C247 C252 1.363 . S
C248 H225 0.950 . S
C248 C247 1.397 . S
C248 C249 1.334 . S
C249 H226 0.950 . S
C249 C248 1.334 . S
C249 C250 1.287 . S
C250 C249 1.287 . S
C250 C251 1.524 . S
C250 H269 0.913 . S
C251 H227 0.950 . S
C251 C250 1.524 . S
C251 C252 1.415 . S
C252 H228 0.950 . S
C252 C247 1.363 . S
C252 C251 1.415 . S
C253 H229 0.951 . S
C253 C254 1.366 . S
C253 C255 1.388 . S
C254 C253 1.366 . S
C254 C258 1.385 . S
C255 H230 0.951 . S
C255 C253 1.388 . S
C255 C256 1.366 . S
C256 C255 1.366 . S
C256 C257 1.414 . S
C256 C259 1.499 . S
C257 H231 0.950 . S
C257 C256 1.414 . S
C257 C258 1.374 . S
C258 H232 0.950 . S
C258 C254 1.385 . S
C258 C257 1.374 . S
C259 C256 1.499 . S
C259 C260 1.373 . S
C259 C261 1.389 . S
C260 H233 0.950 . S
C260 C246 1.377 . S
C260 C259 1.373 . S
C261 C245 1.377 . S
C261 C259 1.389 . S
C261 C262 1.524 . S
C262 C261 1.524 . S
C262 C263 1.397 . S
C262 C267 1.363 . S
C263 H234 0.950 . S
C263 C262 1.397 . S
C263 C264 1.334 . S
C264 H235 0.950 . S
C264 C263 1.334 . S
C264 C265 1.287 . S
C265 C264 1.287 . S
C265 C266 1.524 . S
C265 H268 0.999 . S
C266 H236 0.950 . S
C266 C265 1.524 . S
C266 C267 1.415 . S
C267 H237 0.950 . S
C267 C262 1.363 . S
C267 C266 1.415 . S
H268 C265 0.999 . S
H269 C250 0.913 . S
H270 C288 0.951 . S
H271 C290 0.951 . S
H272 C292 0.950 . S
H273 C293 0.950 . S
H274 C295 0.950 . S
H275 C298 0.950 . S
H276 C299 0.950 . S
H277 C301 0.950 . S
H278 C302 0.950 . S
H279 C303 0.951 . S
H280 C305 0.951 . S
H281 C307 0.950 . S
H282 C308 0.950 . S
H283 C310 0.950 . S
H284 C313 0.950 . S
H285 C314 0.950 . S
H286 C316 0.950 . S
H287 C317 0.950 . S
C288 H270 0.951 . S
C288 C289 1.353 1_554 S
C288 C290 1.388 . S
C289 C288 1.353 1_556 S
C289 C293 1.397 . S
C290 H271 0.951 . S
C290 C288 1.388 . S
C290 C291 1.366 . S
C291 C290 1.366 . S
C291 C292 1.414 1_554 S
C291 C294 1.499 . S
C292 H272 0.950 . S
C292 C291 1.414 1_556 S
C292 C293 1.374 . S
C293 H273 0.950 . S
C293 C289 1.397 . S
C293 C292 1.374 . S
C294 C291 1.499 . S
C294 C295 1.373 1_554 S
C294 C296 1.389 . S
C295 H274 0.950 . S
C295 C294 1.373 1_556 S
C295 C311 1.377 . S
C296 C294 1.389 . S
C296 C297 1.524 . S
C296 C310 1.377 . S
C297 C296 1.524 . S
C297 C298 1.397 . S
C297 C302 1.363 . S
C298 H275 0.950 . S
C298 C297 1.397 . S
C298 C299 1.334 . S
C299 H276 0.950 . S
C299 C298 1.334 . S
C299 C300 1.287 . S
C300 C299 1.287 . S
C300 C301 1.524 . S
C300 H319 0.913 . S
C301 H277 0.950 . S
C301 C300 1.524 . S
C301 C302 1.415 . S
C302 H278 0.950 . S
C302 C297 1.363 . S
C302 C301 1.415 . S
C303 H279 0.951 . S
C303 C304 1.366 1_556 S
C303 C305 1.388 . S
C304 C303 1.366 1_554 S
C304 C308 1.385 . S
C305 H280 0.951 . S
C305 C303 1.388 . S
C305 C306 1.366 . S
C306 C305 1.366 . S
C306 C307 1.414 1_556 S
C306 C309 1.498 1_556 S
C307 H281 0.950 . S
C307 C306 1.414 1_554 S
C307 C308 1.374 . S
C308 H282 0.950 . S
C308 C304 1.385 . S
C308 C307 1.374 . S
C309 C306 1.498 1_554 S
C309 C310 1.379 . S
C309 C311 1.384 1_554 S
C310 H283 0.950 . S
C310 C296 1.377 . S
C310 C309 1.379 . S
C311 C295 1.377 . S
C311 C309 1.384 1_556 S
C311 C312 1.524 . S
C312 C311 1.524 . S
C312 C313 1.397 . S
C312 C317 1.363 . S
C313 H284 0.950 . S
C313 C312 1.397 . S
C313 C314 1.334 . S
C314 H285 0.950 . S
C314 C313 1.334 . S
C314 C315 1.287 . S
C315 C314 1.287 . S
C315 C316 1.524 . S
C315 H318 0.999 . S
C316 H286 0.950 . S
C316 C315 1.524 . S
C316 C317 1.415 . S
C317 H287 0.950 . S
C317 C312 1.363 . S
C317 C316 1.415 . S
H318 C315 0.999 . S
H319 C300 0.913 . S
H320 C338 0.951 . S
H321 C340 0.951 . S
H322 C342 0.950 . S
H323 C343 0.950 . S
H324 C345 0.950 . S
H325 C348 0.950 . S
H326 C349 0.950 . S
H327 C351 0.950 . S
H328 C352 0.950 . S
H329 C353 0.951 . S
H330 C355 0.951 . S
H331 C357 0.950 . S
H332 C358 0.950 . S
H333 C360 0.950 . S
H334 C363 0.950 . S
H335 C364 0.950 . S
H336 C366 0.950 1_655 S
H337 C367 0.950 . S
C338 H320 0.951 . S
C338 C339 1.366 . S
C338 C340 1.388 . S
C339 C338 1.366 . S
C339 C343 1.385 . S
C340 H321 0.951 . S
C340 C338 1.388 . S
C340 C341 1.366 . S
C341 C340 1.366 . S
C341 C342 1.414 . S
C341 C344 1.499 . S
C342 H322 0.950 . S
C342 C341 1.414 . S
C342 C343 1.374 . S
C343 H323 0.950 . S
C343 C339 1.385 . S
C343 C342 1.374 . S
C344 C341 1.499 . S
C344 C345 1.373 . S
C344 C346 1.389 . S
C345 H324 0.950 . S
C345 C344 1.373 . S
C345 C361 1.377 . S
C346 C344 1.389 . S
C346 C347 1.524 . S
C346 C360 1.377 . S
C347 C346 1.524 . S
C347 C348 1.397 . S
C347 C352 1.363 . S
C348 H325 0.950 . S
C348 C347 1.397 . S
C348 C349 1.334 . S
C349 H326 0.950 . S
C349 C348 1.334 . S
C349 C350 1.287 . S
C350 C349 1.287 . S
C350 C351 1.524 . S
C350 H369 0.913 . S
C351 H327 0.950 . S
C351 C350 1.524 . S
C351 C352 1.415 . S
C352 H328 0.950 . S
C352 C347 1.363 . S
C352 C351 1.415 . S
C353 H329 0.951 . S
C353 C354 1.366 . S
C353 C355 1.388 . S
C354 C353 1.366 . S
C354 C358 1.385 . S
C355 H330 0.951 . S
C355 C353 1.388 . S
C355 C356 1.366 . S
C356 C355 1.366 . S
C356 C357 1.414 . S
C356 C359 1.499 . S
C357 H331 0.950 . S
C357 C356 1.414 . S
C357 C358 1.374 . S
C358 H332 0.950 . S
C358 C354 1.385 . S
C358 C357 1.374 . S
C359 C356 1.499 . S
C359 C360 1.373 . S
C359 C361 1.389 . S
C360 H333 0.950 . S
C360 C346 1.377 . S
C360 C359 1.373 . S
C361 C345 1.377 . S
C361 C359 1.389 . S
C361 C362 1.524 . S
C362 C361 1.524 . S
C362 C363 1.397 . S
C362 C367 1.363 . S
C363 H334 0.950 . S
C363 C362 1.397 . S
C363 C364 1.334 . S
C364 H335 0.950 . S
C364 C363 1.334 . S
C364 C365 1.287 . S
C365 C364 1.287 . S
C365 C366 1.524 . S
C365 H368 0.998 1_455 S
C366 H336 0.950 1_455 S
C366 C365 1.524 . S
C366 C367 1.415 . S
C367 H337 0.950 . S
C367 C362 1.363 . S
C367 C366 1.415 . S
H368 C365 0.998 1_655 S
H369 C350 0.913 . S
H370 C388 0.951 . S
H371 C390 0.951 . S
H372 C392 0.950 . S
H373 C393 0.950 . S
H374 C395 0.950 . S
H375 C398 0.950 . S
H376 C399 0.950 . S
H377 C401 0.950 . S
H378 C402 0.950 . S
H379 C403 0.951 . S
H380 C405 0.951 . S
H381 C407 0.950 . S
H382 C408 0.950 . S
H383 C410 0.950 . S
H384 C413 0.950 . S
H385 C414 0.950 . S
H386 C416 0.950 . S
H387 C417 0.950 . S
C388 H370 0.951 . S
C388 C389 1.366 . S
C388 C390 1.388 . S
C389 C388 1.366 . S
C389 C393 1.385 . S
C390 H371 0.951 . S
C390 C388 1.388 . S
C390 C391 1.366 . S
C391 C390 1.366 . S
C391 C392 1.414 . S
C391 C394 1.499 . S
C392 H372 0.950 . S
C392 C391 1.414 . S
C392 C393 1.374 . S
C393 H373 0.950 . S
C393 C389 1.385 . S
C393 C392 1.374 . S
C394 C391 1.499 . S
C394 C395 1.373 . S
C394 C396 1.389 . S
C395 H374 0.950 . S
C395 C394 1.373 . S
C395 C411 1.377 . S
C396 C394 1.389 . S
C396 C397 1.524 . S
C396 C410 1.377 . S
C397 C396 1.524 . S
C397 C398 1.397 . S
C397 C402 1.363 . S
C398 H375 0.950 . S
C398 C397 1.397 . S
C398 C399 1.334 . S
C399 H376 0.950 . S
C399 C398 1.334 . S
C399 C400 1.287 . S
C400 C399 1.287 . S
C400 C401 1.524 . S
C400 H419 0.913 . S
C401 H377 0.950 . S
C401 C400 1.524 . S
C401 C402 1.415 . S
C402 H378 0.950 . S
C402 C397 1.363 . S
C402 C401 1.415 . S
C403 H379 0.951 . S
C403 C404 1.366 . S
C403 C405 1.388 . S
C404 C403 1.366 . S
C404 C408 1.385 . S
C405 H380 0.951 . S
C405 C403 1.388 . S
C405 C406 1.366 . S
C406 C405 1.366 . S
C406 C407 1.414 . S
C406 C409 1.499 . S
C407 H381 0.950 . S
C407 C406 1.414 . S
C407 C408 1.374 . S
C408 H382 0.950 . S
C408 C404 1.385 . S
C408 C407 1.374 . S
C409 C406 1.499 . S
C409 C410 1.373 . S
C409 C411 1.389 . S
C410 H383 0.950 . S
C410 C396 1.377 . S
C410 C409 1.373 . S
C411 C395 1.377 . S
C411 C409 1.389 . S
C411 C412 1.524 . S
C412 C411 1.524 . S
C412 C413 1.397 . S
C412 C417 1.363 . S
C413 H384 0.950 . S
C413 C412 1.397 . S
C413 C414 1.334 . S
C414 H385 0.950 . S
C414 C413 1.334 . S
C414 C415 1.287 . S
C415 C414 1.287 . S
C415 C416 1.524 . S
C415 H418 0.999 . S
C416 H386 0.950 . S
C416 C415 1.524 . S
C416 C417 1.415 . S
C417 H387 0.950 . S
C417 C412 1.363 . S
C417 C416 1.415 . S
H418 C415 0.999 . S
H419 C400 0.913 . S
H420 C438 0.951 . S
H421 C440 0.951 . S
H422 C442 0.950 . S
H423 C443 0.950 . S
H424 C445 0.950 . S
H425 C448 0.950 . S
H426 C449 0.950 . S
H427 C451 0.950 . S
H428 C452 0.950 . S
H429 C453 0.951 . S
H430 C455 0.951 . S
H431 C457 0.950 . S
H432 C458 0.950 . S
H433 C460 0.950 . S
H434 C463 0.950 . S
H435 C464 0.950 . S
H436 C466 0.950 . S
H437 C467 0.950 . S
C438 H420 0.951 . S
C438 C439 1.366 . S
C438 C440 1.388 . S
C439 C438 1.366 . S
C439 C443 1.385 . S
C440 H421 0.951 . S
C440 C438 1.388 . S
C440 C441 1.366 . S
C441 C440 1.366 . S
C441 C442 1.414 . S
C441 C444 1.499 . S
C442 H422 0.950 . S
C442 C441 1.414 . S
C442 C443 1.374 . S
C443 H423 0.950 . S
C443 C439 1.385 . S
C443 C442 1.374 . S
C444 C441 1.499 . S
C444 C445 1.373 . S
C444 C446 1.389 . S
C445 H424 0.950 . S
C445 C444 1.373 . S
C445 C461 1.377 . S
C446 C444 1.389 . S
C446 C447 1.524 . S
C446 C460 1.377 . S
C447 C446 1.524 . S
C447 C448 1.397 . S
C447 C452 1.363 . S
C448 H425 0.950 . S
C448 C447 1.397 . S
C448 C449 1.334 . S
C449 H426 0.950 . S
C449 C448 1.334 . S
C449 C450 1.287 . S
C450 C449 1.287 . S
C450 C451 1.524 . S
C450 H469 0.913 . S
C451 H427 0.950 . S
C451 C450 1.524 . S
C451 C452 1.415 . S
C452 H428 0.950 . S
C452 C447 1.363 . S
C452 C451 1.415 . S
C453 H429 0.951 . S
C453 C454 1.366 . S
C453 C455 1.388 . S
C454 C453 1.366 . S
C454 C458 1.385 . S
C455 H430 0.951 . S
C455 C453 1.388 . S
C455 C456 1.366 . S
C456 C455 1.366 . S
C456 C457 1.414 . S
C456 C459 1.499 . S
C457 H431 0.950 . S
C457 C456 1.414 . S
C457 C458 1.374 . S
C458 H432 0.950 . S
C458 C454 1.385 . S
C458 C457 1.374 . S
C459 C456 1.499 . S
C459 C460 1.373 . S
C459 C461 1.389 . S
C460 H433 0.950 . S
C460 C446 1.377 . S
C460 C459 1.373 . S
C461 C445 1.377 . S
C461 C459 1.389 . S
C461 C462 1.524 . S
C462 C461 1.524 . S
C462 C463 1.397 . S
C462 C467 1.363 . S
C463 H434 0.950 . S
C463 C462 1.397 . S
C463 C464 1.334 . S
C464 H435 0.950 . S
C464 C463 1.334 . S
C464 C465 1.287 . S
C465 C464 1.287 . S
C465 C466 1.524 . S
C465 H468 0.999 . S
C466 H436 0.950 . S
C466 C465 1.524 . S
C466 C467 1.415 . S
C467 H437 0.950 . S
C467 C462 1.363 . S
C467 C466 1.415 . S
H468 C465 0.999 . S
H469 C450 0.913 . S
H470 C488 0.951 . S
H471 C490 0.951 . S
H472 C492 0.950 . S
H473 C493 0.950 . S
H474 C495 0.950 . S
H475 C498 0.950 . S
H476 C499 0.950 . S
H477 C501 0.950 . S
H478 C502 0.950 . S
H479 C503 0.951 . S
H480 C505 0.951 . S
H481 C507 0.950 . S
H482 C508 0.950 . S
H483 C510 0.950 . S
H484 C513 0.950 . S
H485 C514 0.950 . S
H486 C516 0.950 . S
H487 C517 0.950 . S
C488 H470 0.951 . S
C488 C489 1.366 . S
C488 C490 1.388 . S
C489 C488 1.366 . S
C489 C493 1.385 . S
C490 H471 0.951 . S
C490 C488 1.388 . S
C490 C491 1.366 . S
C491 C490 1.366 . S
C491 C492 1.414 . S
C491 C494 1.499 . S
C492 H472 0.950 . S
C492 C491 1.414 . S
C492 C493 1.374 . S
C493 H473 0.950 . S
C493 C489 1.385 . S
C493 C492 1.374 . S
C494 C491 1.499 . S
C494 C495 1.373 . S
C494 C496 1.389 . S
C495 H474 0.950 . S
C495 C494 1.373 . S
C495 C511 1.377 . S
C496 C494 1.389 . S
C496 C497 1.524 . S
C496 C510 1.377 . S
C497 C496 1.524 . S
C497 C498 1.397 . S
C497 C502 1.363 . S
C498 H475 0.950 . S
C498 C497 1.397 . S
C498 C499 1.334 . S
C499 H476 0.950 . S
C499 C498 1.334 . S
C499 C500 1.287 . S
C500 C499 1.287 . S
C500 C501 1.524 . S
C500 H519 0.913 . S
C501 H477 0.950 . S
C501 C500 1.524 . S
C501 C502 1.415 . S
C502 H478 0.950 . S
C502 C497 1.363 . S
C502 C501 1.415 . S
C503 H479 0.951 . S
C503 C504 1.366 . S
C503 C505 1.388 . S
C504 C503 1.366 . S
C504 C508 1.385 . S
C505 H480 0.951 . S
C505 C503 1.388 . S
C505 C506 1.366 . S
C506 C505 1.366 . S
C506 C507 1.414 . S
C506 C509 1.499 . S
C507 H481 0.950 . S
C507 C506 1.414 . S
C507 C508 1.374 . S
C508 H482 0.950 . S
C508 C504 1.385 . S
C508 C507 1.374 . S
C509 C506 1.499 . S
C509 C510 1.373 . S
C509 C511 1.389 . S
C510 H483 0.950 . S
C510 C496 1.377 . S
C510 C509 1.373 . S
C511 C495 1.377 . S
C511 C509 1.389 . S
C511 C512 1.524 . S
C512 C511 1.524 . S
C512 C513 1.397 . S
C512 C517 1.363 . S
C513 H484 0.950 . S
C513 C512 1.397 . S
C513 C514 1.334 . S
C514 H485 0.950 . S
C514 C513 1.334 . S
C514 C515 1.287 . S
C515 C514 1.287 . S
C515 C516 1.524 . S
C515 H518 0.999 . S
C516 H486 0.950 . S
C516 C515 1.524 . S
C516 C517 1.415 . S
C517 H487 0.950 . S
C517 C512 1.363 . S
C517 C516 1.415 . S
H518 C515 0.999 . S
H519 C500 0.913 . S
H520 C538 0.951 . S
H521 C540 0.951 . S
H522 C542 0.950 . S
H523 C543 0.950 . S
H524 C545 0.950 . S
H525 C548 0.950 . S
H526 C549 0.950 . S
H527 C551 0.950 . S
H528 C552 0.950 . S
H529 C553 0.951 . S
H530 C555 0.951 . S
H531 C557 0.950 . S
H532 C558 0.950 . S
H533 C560 0.950 . S
H534 C563 0.950 . S
H535 C564 0.950 . S
H536 C566 0.950 . S
H537 C567 0.950 . S
C538 H520 0.951 . S
C538 C539 1.366 . S
C538 C540 1.388 . S
C539 C538 1.366 . S
C539 C543 1.385 . S
C540 H521 0.951 . S
C540 C538 1.388 . S
C540 C541 1.366 . S
C541 C540 1.366 . S
C541 C542 1.414 . S
C541 C544 1.499 . S
C542 H522 0.950 . S
C542 C541 1.414 . S
C542 C543 1.374 . S
C543 H523 0.950 . S
C543 C539 1.385 . S
C543 C542 1.374 . S
C544 C541 1.499 . S
C544 C545 1.373 . S
C544 C546 1.389 . S
C545 H524 0.950 . S
C545 C544 1.373 . S
C545 C561 1.377 . S
C546 C544 1.389 . S
C546 C547 1.524 . S
C546 C560 1.377 . S
C547 C546 1.524 . S
C547 C548 1.397 . S
C547 C552 1.363 . S
C548 H525 0.950 . S
C548 C547 1.397 . S
C548 C549 1.334 . S
C549 H526 0.950 . S
C549 C548 1.334 . S
C549 C550 1.287 . S
C550 C549 1.287 . S
C550 C551 1.524 . S
C550 H569 0.913 . S
C551 H527 0.950 . S
C551 C550 1.524 . S
C551 C552 1.415 . S
C552 H528 0.950 . S
C552 C547 1.363 . S
C552 C551 1.415 . S
C553 H529 0.951 . S
C553 C554 1.366 . S
C553 C555 1.388 . S
C554 C553 1.366 . S
C554 C558 1.385 . S
C555 H530 0.951 . S
C555 C553 1.388 . S
C555 C556 1.366 . S
C556 C555 1.366 . S
C556 C557 1.414 . S
C556 C559 1.499 . S
C557 H531 0.950 . S
C557 C556 1.414 . S
C557 C558 1.374 . S
C558 H532 0.950 . S
C558 C554 1.385 . S
C558 C557 1.374 . S
C559 C556 1.499 . S
C559 C560 1.373 . S
C559 C561 1.389 . S
C560 H533 0.950 . S
C560 C546 1.377 . S
C560 C559 1.373 . S
C561 C545 1.377 . S
C561 C559 1.389 . S
C561 C562 1.524 . S
C562 C561 1.524 . S
C562 C563 1.397 . S
C562 C567 1.363 . S
C563 H534 0.950 . S
C563 C562 1.397 . S
C563 C564 1.334 . S
C564 H535 0.950 . S
C564 C563 1.334 . S
C564 C565 1.287 . S
C565 C564 1.287 . S
C565 C566 1.524 . S
C565 H568 0.999 . S
C566 H536 0.950 . S
C566 C565 1.524 . S
C566 C567 1.415 . S
C567 H537 0.950 . S
C567 C562 1.363 . S
C567 C566 1.415 . S
H568 C565 0.999 . S
H569 C550 0.913 . S
H570 C588 0.951 . S
H571 C590 0.951 . S
H572 C592 0.950 . S
H573 C593 0.950 . S
H574 C595 0.950 . S
H575 C598 0.950 . S
H576 C599 0.950 . S
H577 C601 0.950 . S
H578 C602 0.950 . S
H579 C603 0.951 . S
H580 C605 0.951 . S
H581 C607 0.950 . S
H582 C608 0.950 . S
H583 C610 0.950 . S
H584 C613 0.950 . S
H585 C614 0.950 . S
H586 C616 0.950 . S
H587 C617 0.950 . S
C588 H570 0.951 . S
C588 C589 1.366 . S
C588 C590 1.388 . S
C589 C588 1.366 . S
C589 C593 1.385 . S
C590 H571 0.951 . S
C590 C588 1.388 . S
C590 C591 1.366 . S
C591 C590 1.366 . S
C591 C592 1.414 . S
C591 C594 1.499 . S
C592 H572 0.950 . S
C592 C591 1.414 . S
C592 C593 1.374 . S
C593 H573 0.950 . S
C593 C589 1.385 . S
C593 C592 1.374 . S
C594 C591 1.499 . S
C594 C595 1.373 . S
C594 C596 1.389 . S
C595 H574 0.950 . S
C595 C594 1.373 . S
C595 C611 1.377 . S
C596 C594 1.389 . S
C596 C597 1.524 . S
C596 C610 1.377 . S
C597 C596 1.524 . S
C597 C598 1.397 . S
C597 C602 1.363 . S
C598 H575 0.950 . S
C598 C597 1.397 . S
C598 C599 1.334 . S
C599 H576 0.950 . S
C599 C598 1.334 . S
C599 C600 1.287 . S
C600 C599 1.287 . S
C600 C601 1.524 . S
C600 H619 0.913 . S
C601 H577 0.950 . S
C601 C600 1.524 . S
C601 C602 1.415 . S
C602 H578 0.950 . S
C602 C597 1.363 . S
C602 C601 1.415 . S
C603 H579 0.951 . S
C603 C604 1.366 . S
C603 C605 1.388 . S
C604 C603 1.366 . S
C604 C608 1.385 . S
C605 H580 0.951 . S
C605 C603 1.388 . S
C605 C606 1.366 . S
C606 C605 1.366 . S
C606 C607 1.414 . S
C606 C609 1.499 . S
C607 H581 0.950 . S
C607 C606 1.414 . S
C607 C608 1.374 . S
C608 H582 0.950 . S
C608 C604 1.385 . S
C608 C607 1.374 . S
C609 C606 1.499 . S
C609 C610 1.373 . S
C609 C611 1.389 . S
C610 H583 0.950 . S
C610 C596 1.377 . S
C610 C609 1.373 . S
C611 C595 1.377 . S
C611 C609 1.389 . S
C611 C612 1.524 . S
C612 C611 1.524 . S
C612 C613 1.397 . S
C612 C617 1.363 . S
C613 H584 0.950 . S
C613 C612 1.397 . S
C613 C614 1.334 . S
C614 H585 0.950 . S
C614 C613 1.334 . S
C614 C615 1.287 . S
C615 C614 1.287 . S
C615 C616 1.524 . S
C615 H618 0.999 . S
C616 H586 0.950 . S
C616 C615 1.524 . S
C616 C617 1.415 . S
C617 H587 0.950 . S
C617 C612 1.363 . S
C617 C616 1.415 . S
H618 C615 0.999 . S
H619 C600 0.913 . S
H620 C638 0.951 . S
H621 C640 0.951 . S
H622 C642 0.950 . S
H623 C643 0.950 . S
H624 C645 0.950 . S
H625 C648 0.950 . S
H626 C649 0.950 . S
H627 C651 0.950 . S
H628 C652 0.950 . S
H629 C653 0.951 . S
H630 C655 0.951 . S
H631 C657 0.950 . S
H632 C658 0.950 . S
H633 C660 0.950 . S
H634 C663 0.950 . S
H635 C664 0.950 . S
H636 C666 0.950 . S
H637 C667 0.950 . S
C638 H620 0.951 . S
C638 C639 1.366 . S
C638 C640 1.388 . S
C639 C638 1.366 . S
C639 C643 1.385 . S
C640 H621 0.951 . S
C640 C638 1.388 . S
C640 C641 1.366 . S
C641 C640 1.366 . S
C641 C642 1.414 . S
C641 C644 1.499 . S
C642 H622 0.950 . S
C642 C641 1.414 . S
C642 C643 1.374 . S
C643 H623 0.950 . S
C643 C639 1.385 . S
C643 C642 1.374 . S
C644 C641 1.499 . S
C644 C645 1.373 . S
C644 C646 1.389 . S
C645 H624 0.950 . S
C645 C644 1.373 . S
C645 C661 1.377 . S
C646 C644 1.389 . S
C646 C647 1.524 . S
C646 C660 1.377 . S
C647 C646 1.524 . S
C647 C648 1.397 . S
C647 C652 1.363 . S
C648 H625 0.950 . S
C648 C647 1.397 . S
C648 C649 1.334 . S
C649 H626 0.950 . S
C649 C648 1.334 . S
C649 C650 1.287 . S
C650 C649 1.287 . S
C650 C651 1.524 . S
C650 H669 0.913 . S
C651 H627 0.950 . S
C651 C650 1.524 . S
C651 C652 1.415 . S
C652 H628 0.950 . S
C652 C647 1.363 . S
C652 C651 1.415 . S
C653 H629 0.951 . S
C653 C654 1.366 . S
C653 C655 1.388 . S
C654 C653 1.366 . S
C654 C658 1.385 . S
C655 H630 0.951 . S
C655 C653 1.388 . S
C655 C656 1.366 . S
C656 C655 1.366 . S
C656 C657 1.414 . S
C656 C659 1.499 . S
C657 H631 0.950 . S
C657 C656 1.414 . S
C657 C658 1.374 . S
C658 H632 0.950 . S
C658 C654 1.385 . S
C658 C657 1.374 . S
C659 C656 1.499 . S
C659 C660 1.373 . S
C659 C661 1.389 . S
C660 H633 0.950 . S
C660 C646 1.377 . S
C660 C659 1.373 . S
C661 C645 1.377 . S
C661 C659 1.389 . S
C661 C662 1.524 . S
C662 C661 1.524 . S
C662 C663 1.397 . S
C662 C667 1.363 . S
C663 H634 0.950 . S
C663 C662 1.397 . S
C663 C664 1.334 . S
C664 H635 0.950 . S
C664 C663 1.334 . S
C664 C665 1.287 . S
C665 C664 1.287 . S
C665 C666 1.524 . S
C665 H668 0.999 . S
C666 H636 0.950 . S
C666 C665 1.524 . S
C666 C667 1.415 . S
C667 H637 0.950 . S
C667 C662 1.363 . S
C667 C666 1.415 . S
H668 C665 0.999 . S
H669 C650 0.913 . S
H670 C688 0.951 . S
H671 C690 0.951 . S
H672 C692 0.950 . S
H673 C693 0.950 . S
H674 C695 0.950 . S
H675 C698 0.950 . S
H676 C699 0.950 . S
H677 C701 0.950 . S
H678 C702 0.950 . S
H679 C703 0.951 . S
H680 C705 0.951 . S
H681 C707 0.950 . S
H682 C708 0.950 . S
H683 C710 0.950 . S
H684 C713 0.950 . S
H685 C714 0.950 . S
H686 C716 0.963 . S
H687 C717 0.950 . S
C688 H670 0.951 . S
C688 C689 1.366 . S
C688 C690 1.388 . S
C689 C688 1.366 . S
C689 C693 1.385 . S
C690 H671 0.951 . S
C690 C688 1.388 . S
C690 C691 1.366 . S
C691 C690 1.366 . S
C691 C692 1.414 . S
C691 C694 1.499 . S
C692 H672 0.950 . S
C692 C691 1.414 . S
C692 C693 1.374 . S
C693 H673 0.950 . S
C693 C689 1.385 . S
C693 C692 1.374 . S
C694 C691 1.499 . S
C694 C695 1.373 . S
C694 C696 1.389 . S
C695 H674 0.950 . S
C695 C694 1.373 . S
C695 C711 1.377 . S
C696 C694 1.389 . S
C696 C697 1.524 . S
C696 C710 1.377 . S
C697 C696 1.524 . S
C697 C698 1.397 . S
C697 C702 1.363 . S
C698 H675 0.950 . S
C698 C697 1.397 . S
C698 C699 1.334 . S
C699 H676 0.950 . S
C699 C698 1.334 . S
C699 C700 1.287 . S
C700 C699 1.287 . S
C700 C701 1.524 . S
C700 H719 0.913 . S
C701 H677 0.950 . S
C701 C700 1.524 . S
C701 C702 1.415 . S
C702 H678 0.950 . S
C702 C697 1.363 . S
C702 C701 1.415 . S
C703 H679 0.951 . S
C703 C704 1.366 . S
C703 C705 1.388 . S
C704 C703 1.366 . S
C704 C708 1.385 . S
C705 H680 0.951 . S
C705 C703 1.388 . S
C705 C706 1.366 . S
C706 C705 1.366 . S
C706 C707 1.414 . S
C706 C709 1.499 . S
C707 H681 0.950 . S
C707 C706 1.414 . S
C707 C708 1.374 . S
C708 H682 0.950 . S
C708 C704 1.385 . S
C708 C707 1.374 . S
C709 C706 1.499 . S
C709 C710 1.373 . S
C709 C711 1.389 . S
C710 H683 0.950 . S
C710 C696 1.377 . S
C710 C709 1.373 . S
C711 C695 1.377 . S
C711 C709 1.389 . S
C711 C712 1.524 . S
C712 C711 1.524 . S
C712 C713 1.397 . S
C712 C717 1.363 . S
C713 H684 0.950 . S
C713 C712 1.397 . S
C713 C714 1.334 . S
C714 H685 0.950 . S
C714 C713 1.334 . S
C714 C715 1.287 . S
C715 C714 1.287 . S
C715 C716 1.521 1_565 S
C715 H718 0.999 1_565 S
C716 H686 0.963 . S
C716 C715 1.521 1_545 S
C716 C717 1.402 1_545 S
C717 H687 0.950 . S
C717 C712 1.363 . S
C717 C716 1.402 1_565 S
H718 C715 0.999 1_545 S
H719 C700 0.913 . S
C154 C56 1.510 . S
C139 C43 1.457 . S
C189 C4 1.463 . S
C204 C99 1.512 . S
C239 C17 1.462 . S
C254 C65 1.511 . S
C289 C30 1.473 . S
C304 C90 1.512 . S
C354 C52 1.512 . S
C339 C9 1.491 . S
C404 C94 1.510 . S
C389 C21 1.509 . S
C439 C34 1.510 . S
C454 C60 1.510 . S
C489 C48 1.493 . S
C504 C86 1.511 . S
C554 C115 1.511 . S
C539 C22 1.494 . S
C604 C81 1.512 . S
C589 C35 1.492 . S
C654 C103 1.510 . S
C639 C47 1.508 . S
C689 C8 1.509 . S
C704 C69 1.510 . S
