# Generated by pormake.
# Topology pyr, (3,6)-cn, num edge types: 1
# Building blocks:
#     Node 0, Type 0, BuildingBlock: PAMTOO_clean_linker_0, # of connection points: 3
#     Node 1, Type 0, BuildingBlock: PAMTOO_clean_linker_0, # of connection points: 3
#     Node 2, Type 0, BuildingBlock: PAMTOO_clean_linker_0, # of connection points: 3
#     Node 3, Type 0, BuildingBlock: PAMTOO_clean_linker_0, # of connection points: 3
#     Node 4, Type 0, BuildingBlock: PAMTOO_clean_linker_0, # of connection points: 3
#     Node 5, Type 0, BuildingBlock: PAMTOO_clean_linker_0, # of connection points: 3
#     Node 6, Type 0, BuildingBlock: PAMTOO_clean_linker_0, # of connection points: 3
#     Node 7, Type 0, BuildingBlock: PAMTOO_clean_linker_0, # of connection points: 3
#     Node 8, Type 1, BuildingBlock: PAMTOO_clean_sbu_0, # of connection points: 6
#     Node 9, Type 1, BuildingBlock: PAMTOO_clean_sbu_0, # of connection points: 6
#     Node 10, Type 1, BuildingBlock: PAMTOO_clean_sbu_0, # of connection points: 6
#     Node 11, Type 1, BuildingBlock: PAMTOO_clean_sbu_0, # of connection points: 6
#     Edge 12, Type (0, 1), None
#     Edge 13, Type (0, 1), None
#     Edge 14, Type (0, 1), None
#     Edge 15, Type (0, 1), None
#     Edge 16, Type (0, 1), None
#     Edge 17, Type (0, 1), None
#     Edge 18, Type (0, 1), None
#     Edge 19, Type (0, 1), None
#     Edge 20, Type (0, 1), None
#     Edge 21, Type (0, 1), None
#     Edge 22, Type (0, 1), None
#     Edge 23, Type (0, 1), None
#     Edge 24, Type (0, 1), None
#     Edge 25, Type (0, 1), None
#     Edge 26, Type (0, 1), None
#     Edge 27, Type (0, 1), None
#     Edge 28, Type (0, 1), None
#     Edge 29, Type (0, 1), None
#     Edge 30, Type (0, 1), None
#     Edge 31, Type (0, 1), None
#     Edge 32, Type (0, 1), None
#     Edge 33, Type (0, 1), None
#     Edge 34, Type (0, 1), None
#     Edge 35, Type (0, 1), None
# Relax obj value: 0.492
# Max RMSD: 0.322
# Mean RMSD: 0.162
data_MOF--net-pyr--node1-PAMTOO_clean_sbu_0--node2-PAMTOO_clean_linker_0--edge1-none
_symmetry_space_group_name_H-M    P1
_symmetry_Int_Tables_number       1
_symmetry_cell_setting            triclinic
loop_
_symmetry_equiv_pos_as_xyz
'x, y, z'
_cell_length_a     16.964924
_cell_length_b     16.933074
_cell_length_c     16.627405
_cell_angle_alpha  92.65288
_cell_angle_beta   87.63958
_cell_angle_gamma 109.34156
loop_
_atom_site_label
_atom_site_type_symbol
_atom_site_fract_x
_atom_site_fract_y
_atom_site_fract_z
_atom_type_partial_charge
H0 H 0.29465 0.33581 0.51122 0.0
H1 H 0.53846 0.31175 0.511 0.0
H2 H 0.45696 0.39735 0.30083 0.0
H3 H 0.64383 0.30688 0.42591 0.0
C4 C 0.63139 0.32309 0.36483 0.0
O5 O 0.58523 0.37683 0.36942 0.0
H6 H 0.69326 0.35691 0.3368 0.0
C7 C 0.35441 0.34274 0.48116 0.0
C8 C 0.36801 0.36864 0.40132 0.0
C9 C 0.41582 0.32124 0.52053 0.0
C10 C 0.49165 0.32889 0.48076 0.0
C11 C 0.5074 0.3579 0.4025 0.0
C12 C 0.44463 0.37516 0.36168 0.0
H13 H 1.01384 1.03994 0.96072 0.0
H14 H 0.95514 0.90283 0.73504 0.0
H15 H 0.14638 0.87361 0.87893 0.0
H16 H 0.14838 0.91669 0.67452 0.0
C17 C 0.13599 0.8507 0.69141 0.0
O18 O 0.06924 0.82678 0.74646 0.0
H19 H 0.11718 0.81093 0.63581 0.0
C20 C 1.02107 0.99191 0.91842 0.0
C21 C 0.08574 0.95965 0.92831 0.0
C22 C 0.9766 0.97679 0.84714 0.0
C23 C 0.98939 0.91732 0.78987 0.0
C24 C 0.05169 0.88064 0.80167 0.0
C25 C 0.09873 0.90188 0.87077 0.0
H26 H 0.78619 0.38953 0.15545 0.0
H27 H 0.59996 0.3702 0.97913 0.0
H28 H 0.81412 0.59449 1.00062 0.0
H29 H 0.6868 0.64095 0.94343 0.0
C30 C 0.64358 0.58384 0.91415 0.0
O31 O 0.67972 0.51985 0.91411 0.0
H32 H 0.58497 0.56445 0.95153 0.0
C33 C 0.76268 0.41621 1.1076 0.0
C34 C 0.80814 0.49793 1.08462 0.0
C35 C 0.68733 0.3687 1.07127 0.0
C36 C 0.65707 0.40596 1.00882 0.0
C37 C 0.70251 0.48817 0.98205 0.0
C38 C 0.77788 0.53297 1.02126 0.0
H39 H 0.80574 0.91315 0.65903 0.0
H40 H 0.81395 0.69167 0.52511 0.0
H41 H 1.0156 0.92335 0.49792 0.0
H42 H 0.89053 0.75463 0.34476 0.0
C43 C 0.92107 0.71638 0.37623 0.0
O44 O 0.95699 0.76124 0.44673 0.0
H45 H 0.87179 0.65782 0.39455 0.0
C46 C 0.83622 0.88295 0.61493 0.0
C47 C 0.91514 0.92928 0.58125 0.0
C48 C 0.79878 0.79708 0.59664 0.0
C49 C 0.84099 0.75782 0.53997 0.0
C50 C 0.91728 0.80253 0.50043 0.0
C51 C 0.95485 0.8887 0.52338 0.0
H52 H 0.49872 1.03319 0.90388 0.0
H53 H 0.64947 0.9272 1.03676 0.0
H54 H 0.68283 0.93862 0.78391 0.0
H55 H 0.71837 0.7899 0.85023 0.0
C56 C 0.73028 0.81665 0.91259 0.0
O57 O 0.73486 0.89942 0.9138 0.0
H58 H 0.67815 0.7813 0.95339 0.0
C59 C 0.54412 1.00099 0.90438 0.0
C60 C 0.58517 0.98697 0.83224 0.0
C61 C 0.56904 0.98317 0.97877 0.0
C62 C 0.62774 0.9407 0.98028 0.0
C63 C 0.66708 0.92408 0.90967 0.0
C64 C 0.64577 0.94651 0.83625 0.0
H65 H 0.07652 0.24182 0.45814 0.0
H66 H 0.98816 0.45037 0.43097 0.0
H67 H 0.13355 0.44539 0.63154 0.0
H68 H 1.00835 0.59094 0.64994 0.0
C69 C 0.9956 0.52559 0.62635 0.0
O70 O 0.05088 0.52781 0.56212 0.0
H71 H 1.00817 0.49016 0.67628 0.0
C72 C 0.0791 0.30549 0.47374 0.0
C73 C 0.10969 0.33875 0.54877 0.0
C74 C 0.03196 0.34282 0.43092 0.0
C75 C 1.02536 0.41999 0.46047 0.0
C76 C 0.0648 0.45837 0.53068 0.0
C77 C 0.11104 0.4198 0.5726 0.0
H78 H 0.32765 0.87592 0.21107 0.0
H79 H 0.28853 0.67449 0.37351 0.0
H80 H 0.51642 0.88486 0.38144 0.0
H81 H 0.52042 0.69332 0.41166 0.0
C82 C 0.46421 0.67744 0.45241 0.0
O83 O 0.42942 0.74216 0.45191 0.0
H84 H 0.41894 0.61835 0.42814 0.0
C85 C 0.34967 0.84808 0.25904 0.0
C86 C 0.42865 0.89119 0.29215 0.0
C87 C 0.2984 0.76956 0.28634 0.0
C88 C 0.32757 0.73369 0.34993 0.0
C89 C 0.40666 0.77381 0.38443 0.0
C90 C 0.45688 0.85251 0.35428 0.0
H91 H 1.00469 0.38856 0.94409 0.0
H92 H 0.22658 0.60901 0.95648 0.0
H93 H 0.20549 0.42399 0.76743 0.0
H94 H 0.34664 0.46266 0.83906 0.0
C95 C 0.36771 0.53011 0.82435 0.0
O96 O 0.30094 0.56092 0.82587 0.0
H97 H 0.41222 0.56509 0.87102 0.0
C98 C 0.06555 0.42557 0.92047 0.0
C99 C 0.10147 0.39347 0.85315 0.0
C100 C 0.10946 0.50466 0.9588 0.0
C101 C 0.19095 0.5495 0.92856 0.0
C102 C 0.22454 0.51908 0.85908 0.0
C103 C 0.17819 0.4442 0.82132 0.0
Dy104 Dy 0.10122 0.14674 0.72941 0.0
Dy105 Dy 0.91928 0.1724 0.71461 0.0
C106 C 0.06617 0.30741 0.81417 0.0
O107 O 1.01113 1.11984 0.83129 0.0
O108 O 0.89711 1.04659 0.77147 0.0
O109 O 0.19809 0.15778 0.81473 0.0
O110 O 0.19569 1.08975 0.7012 0.0
O111 O 0.91202 1.06757 0.62267 0.0
O112 O 0.02628 1.0319 0.65585 0.0
O113 O 1.01392 0.27155 0.64716 0.0
O114 O 0.12611 0.22538 0.62208 0.0
O115 O 0.83884 0.20554 0.63487 0.0
O116 O 0.80917 0.19462 0.76346 0.0
C117 C 0.95185 1.04891 0.82499 0.0
O118 O 0.11946 0.27842 0.77274 0.0
O119 O 0.98523 0.26493 0.81481 0.0
C120 C 0.32049 0.19132 0.73287 0.0
C121 C 0.39849 0.28506 0.60087 0.0
C122 C 0.35922 0.32044 0.66097 0.0
C123 C 0.32246 0.27475 0.72799 0.0
C124 C 0.37249 0.16207 0.68058 0.0
C125 C 0.41128 0.20883 0.61435 0.0
C126 C 0.24157 1.13044 0.76058 0.0
C127 C 0.95671 1.01659 0.61582 0.0
C128 C 0.08564 0.27756 0.61117 0.0
C129 C 0.69749 0.15994 0.67729 0.0
C130 C 0.58262 1.03308 0.75829 0.0
C131 C 0.61982 1.01377 0.68584 0.0
C132 C 0.6792 1.07806 0.64572 0.0
C133 C 0.63811 0.17945 0.72785 0.0
C134 C 0.57913 1.11505 0.76852 0.0
C135 C 0.78473 0.20702 0.69265 0.0
H136 H 0.35039 0.37997 0.6526 0.0
H137 H 0.28465 0.30006 0.76867 0.0
H138 H 0.37253 1.09828 0.68351 0.0
H139 H 0.44279 0.18088 0.56926 0.0
H140 H 0.61905 0.95097 0.67025 0.0
H141 H 0.72156 1.06195 0.60256 0.0
H142 H 0.6484 0.24333 0.74944 0.0
H143 H 0.54524 1.13319 0.81841 0.0
Dy144 Dy 0.47956 0.14539 0.16527 0.0
Dy145 Dy 0.64859 1.11759 0.20759 0.0
C146 C 0.47907 0.97649 0.26068 0.0
O147 O 0.54074 0.2454 0.25823 0.0
O148 O 0.62704 0.18739 0.3163 0.0
O149 O 0.35162 1.117 0.20908 0.0
O150 O 0.39765 0.19705 1.10759 0.0
O151 O 0.68032 0.24657 0.15044 0.0
O152 O 0.56235 0.24578 1.08845 0.0
O153 O 0.59139 1.01857 1.11687 0.0
O154 O 0.51063 1.07927 1.05418 0.0
O155 O 0.77191 1.13404 0.15623 0.0
O156 O 0.73605 1.08052 0.27366 0.0
C157 C 0.59245 0.24532 0.31463 0.0
O158 O 0.442 1.0145 0.21471 0.0
O159 O 0.55916 1.01009 0.27483 0.0
C160 C 0.26768 1.09495 1.09714 0.0
C161 C 0.14688 0.99629 0.99187 0.0
C162 C 0.12279 1.02689 1.06591 0.0
C163 C 0.18312 1.07683 1.11799 0.0
C164 C 0.29167 1.0589 1.0268 0.0
C165 C 0.23203 1.01102 0.97417 0.0
C166 C 0.33218 0.15102 0.14748 0.0
C167 C 0.64172 0.28178 1.10224 0.0
C168 C 0.55143 1.02539 1.05391 0.0
C169 C 0.86512 0.18202 0.26085 0.0
C170 C 0.97894 0.29382 0.36471 0.0
C171 C 0.90121 0.30325 0.35177 0.0
C172 C 0.8459 0.24907 0.29897 0.0
C173 C 0.94401 0.17488 0.26851 0.0
C174 C 1.00138 0.23159 0.31902 0.0
C175 C 0.79757 1.11531 0.22343 0.0
H176 H 0.05759 1.01493 1.08233 0.0
H177 H 0.16396 1.10272 0.17324 0.0
H178 H 0.35695 1.07075 1.01055 0.0
H179 H 0.25353 0.98999 0.91762 0.0
H180 H 0.88001 0.34889 0.3855 0.0
H181 H 0.78541 0.25603 0.29232 0.0
H182 H 0.95988 1.12382 0.23837 0.0
H183 H 0.06176 0.22407 0.32472 0.0
Dy184 Dy 0.57996 0.55607 0.64344 0.0
Dy185 Dy 0.53281 0.71771 0.72223 0.0
C186 C 0.62159 0.60748 0.83014 0.0
O187 O 0.47196 0.50536 0.73148 0.0
O188 O 0.42178 0.60571 0.70197 0.0
O189 O 0.60091 0.43659 0.64864 0.0
O190 O 0.62417 0.50226 0.53764 0.0
O191 O 0.5159 0.7244 0.58921 0.0
O192 O 0.49607 0.58687 0.55257 0.0
O193 O 0.67011 0.77996 0.68371 0.0
O194 O 0.68977 0.66672 0.61402 0.0
O195 O 0.50725 0.83425 0.7199 0.0
O196 O 0.45648 0.75187 0.81715 0.0
C197 C 0.41375 0.53999 0.74317 0.0
O198 O 0.64333 0.57412 0.76336 0.0
O199 O 0.57888 0.66086 0.82728 0.0
C200 C 0.7311 0.4524 0.57953 0.0
C201 C 0.90478 0.4918 0.60275 0.0
C202 C 0.87635 0.52551 0.53879 0.0
C203 C 0.79047 0.50538 0.52676 0.0
C204 C 0.76001 0.4143 0.63996 0.0
C205 C 0.84581 0.43381 0.65146 0.0
C206 C 0.64159 0.4473 0.5795 0.0
C207 C 0.49156 0.66166 0.53637 0.0
C208 C 0.71566 0.74645 0.63474 0.0
C209 C 0.36963 0.8229 0.76507 0.0
C210 C 0.21463 0.83933 0.72315 0.0
C211 C 0.22699 0.76102 0.71675 0.0
C212 C 0.30365 0.75297 0.73716 0.0
C213 C 0.35634 0.90056 0.77341 0.0
C214 C 0.28 0.90868 0.75269 0.0
C215 C 0.4537 0.81699 0.78007 0.0
H216 H 0.92046 0.57051 0.50053 0.0
H217 H 0.77075 0.53528 0.47893 0.0
H218 H 0.71633 0.3732 0.68146 0.0
H219 H 0.86594 0.4069 0.70135 0.0
H220 H 0.17815 0.70652 0.69357 0.0
H221 H 0.31199 0.69244 0.7291 0.0
H222 H 0.40565 0.95575 0.79405 0.0
H223 H 0.27265 0.96979 0.75809 0.0
Dy224 Dy 0.05936 0.6999 1.13376 0.0
Dy225 Dy 0.05812 0.56212 0.21318 0.0
C226 C 0.98065 0.69117 0.31408 0.0
O227 O 0.18916 0.75547 0.18618 0.0
O228 O 0.16728 0.65345 0.2761 0.0
O229 O 0.06373 0.82279 1.09956 0.0
O230 O 0.05802 0.72557 1.00773 0.0
O231 O 0.10545 0.59452 1.08311 0.0
O232 O 0.10856 0.59577 1.08148 0.0
O233 O 0.93072 0.50232 0.16062 0.0
O234 O 0.92428 0.6243 1.11683 0.0
O235 O 0.11953 0.47177 0.17765 0.0
O236 O 0.04724 0.45955 0.28895 0.0
C237 C 0.21485 0.72506 0.24814 0.0
O238 O 1.00728 0.73785 0.25109 0.0
O239 O 0.98781 0.61521 0.31174 0.0
C240 C 0.96177 0.79914 0.99833 0.0
C241 C 0.81044 0.8099 0.9426 0.0
C242 C 0.84335 0.85019 1.01546 0.0
C243 C 0.91821 0.84497 1.04303 0.0
C244 C 0.92689 0.75625 0.92691 0.0
C245 C 0.85234 0.762 0.89909 0.0
C246 C 0.04241 0.79475 1.02627 0.0
C247 C 0.06648 0.53835 1.02754 0.0
C248 C 0.89028 0.54343 1.12344 0.0
C249 C 0.16912 0.4188 0.28508 0.0
C250 C 0.30162 0.38802 0.35976 0.0
C251 C 0.26723 0.34215 0.28982 0.0
C252 C 0.20109 0.35708 0.25312 0.0
C253 C 0.20564 0.46694 0.35333 0.0
C254 C 0.27027 0.45043 0.39139 0.0
C255 C 0.09939 0.43302 0.24486 0.0
H256 H 0.81138 0.88634 1.05074 0.0
H257 H 0.9422 0.87754 1.09903 0.0
H258 H 0.95813 0.71943 0.8916 0.0
H259 H 0.82764 0.72933 0.84328 0.0
H260 H 0.29027 0.29348 0.26473 0.0
H261 H 0.17439 0.31996 0.19996 0.0
H262 H 0.18325 0.51615 0.37805 0.0
H263 H 0.29591 0.48643 0.44541 0.0
loop_
_geom_bond_atom_site_label_1
_geom_bond_atom_site_label_2
_geom_bond_distance
_geom_bond_site_symmetry_2
_ccdc_geom_bond_type
H0 C7 0.929 . S
H1 C10 0.930 . S
H2 C12 0.929 . S
H3 C4 0.969 . S
C4 H3 0.969 . S
C4 O5 1.550 . S
C4 H6 0.973 . S
O5 C4 1.550 . S
O5 C11 1.412 . S
H6 C4 0.973 . S
C7 H0 0.929 . S
C7 C8 1.400 . S
C7 C9 1.364 . S
C8 C7 1.400 . S
C8 C12 1.377 . S
C9 C7 1.364 . S
C9 C10 1.374 . S
C10 H1 0.930 . S
C10 C9 1.374 . S
C10 C11 1.383 . S
C11 O5 1.412 . S
C11 C10 1.383 . S
C11 C12 1.394 . S
C12 H2 0.929 . S
C12 C8 1.377 . S
C12 C11 1.394 . S
H13 C20 0.929 1_655 S
H14 C23 0.930 1_655 S
H15 C25 0.929 . S
H16 C17 0.969 . S
C17 H16 0.969 . S
C17 O18 1.550 . S
C17 H19 0.973 . S
O18 C17 1.550 . S
O18 C24 1.412 . S
H19 C17 0.973 . S
C20 H13 0.929 1_455 S
C20 C21 1.400 . S
C20 C22 1.364 1_455 S
C21 C20 1.400 . S
C21 C25 1.377 . S
C22 C20 1.364 1_655 S
C22 C23 1.374 1_655 S
C23 H14 0.930 1_455 S
C23 C22 1.374 1_455 S
C23 C24 1.383 . S
C24 O18 1.412 . S
C24 C23 1.383 . S
C24 C25 1.394 . S
C25 H15 0.929 . S
C25 C21 1.377 . S
C25 C24 1.394 . S
H26 C33 0.929 . S
H27 C36 0.930 . S
H28 C38 0.929 . S
H29 C30 0.969 . S
C30 H29 0.969 . S
C30 O31 1.550 . S
C30 H32 0.973 . S
O31 C30 1.550 . S
O31 C37 1.412 . S
H32 C30 0.973 . S
C33 H26 0.929 . S
C33 C34 1.400 . S
C33 C35 1.364 . S
C34 C33 1.400 . S
C34 C38 1.377 . S
C35 C33 1.364 . S
C35 C36 1.374 . S
C36 H27 0.930 . S
C36 C35 1.374 . S
C36 C37 1.383 . S
C37 O31 1.412 . S
C37 C36 1.383 . S
C37 C38 1.394 . S
C38 H28 0.929 . S
C38 C34 1.377 . S
C38 C37 1.394 . S
H39 C46 0.929 . S
H40 C49 0.930 . S
H41 C51 0.929 1_455 S
H42 C43 0.969 . S
C43 H42 0.969 . S
C43 O44 1.550 . S
C43 H45 0.973 . S
O44 C43 1.550 . S
O44 C50 1.412 . S
H45 C43 0.973 . S
C46 H39 0.929 . S
C46 C47 1.400 . S
C46 C48 1.364 . S
C47 C46 1.400 . S
C47 C51 1.377 . S
C48 C46 1.364 . S
C48 C49 1.374 . S
C49 H40 0.930 . S
C49 C48 1.374 . S
C49 C50 1.383 . S
C50 O44 1.412 . S
C50 C49 1.383 . S
C50 C51 1.394 . S
C51 H41 0.929 1_655 S
C51 C47 1.377 . S
C51 C50 1.394 . S
H52 C59 0.929 . S
H53 C62 0.930 . S
H54 C64 0.929 . S
H55 C56 0.969 . S
C56 H55 0.969 . S
C56 O57 1.550 . S
C56 H58 0.973 . S
O57 C56 1.550 . S
O57 C63 1.412 . S
H58 C56 0.973 . S
C59 H52 0.929 . S
C59 C60 1.400 . S
C59 C61 1.364 . S
C60 C59 1.400 . S
C60 C64 1.377 . S
C61 C59 1.364 . S
C61 C62 1.374 . S
C62 H53 0.930 . S
C62 C61 1.374 . S
C62 C63 1.383 . S
C63 O57 1.412 . S
C63 C62 1.383 . S
C63 C64 1.394 . S
C64 H54 0.929 . S
C64 C60 1.377 . S
C64 C63 1.394 . S
H65 C72 0.929 . S
H66 C75 0.930 . S
H67 C77 0.929 . S
H68 C69 0.969 . S
C69 H68 0.969 . S
C69 O70 1.550 1_655 S
C69 H71 0.973 . S
O70 C69 1.550 1_455 S
O70 C76 1.412 1_455 S
H71 C69 0.973 . S
C72 H65 0.929 . S
C72 C73 1.400 . S
C72 C74 1.364 1_455 S
C73 C72 1.400 . S
C73 C77 1.377 . S
C74 C72 1.364 1_655 S
C74 C75 1.374 . S
C75 H66 0.930 . S
C75 C74 1.374 . S
C75 C76 1.383 . S
C76 O70 1.412 1_655 S
C76 C75 1.383 . S
C76 C77 1.394 1_655 S
C77 H67 0.929 . S
C77 C73 1.377 . S
C77 C76 1.394 1_455 S
H78 C85 0.929 . S
H79 C88 0.930 . S
H80 C90 0.929 . S
H81 C82 0.969 . S
C82 H81 0.969 . S
C82 O83 1.550 . S
C82 H84 0.973 . S
O83 C82 1.550 . S
O83 C89 1.412 . S
H84 C82 0.973 . S
C85 H78 0.929 . S
C85 C86 1.400 . S
C85 C87 1.364 . S
C86 C85 1.400 . S
C86 C90 1.377 . S
C87 C85 1.364 . S
C87 C88 1.374 . S
C88 H79 0.930 . S
C88 C87 1.374 . S
C88 C89 1.383 . S
C89 O83 1.412 . S
C89 C88 1.383 . S
C89 C90 1.394 . S
C90 H80 0.929 . S
C90 C86 1.377 . S
C90 C89 1.394 . S
H91 C98 0.929 1_655 S
H92 C101 0.930 . S
H93 C103 0.929 . S
H94 C95 0.969 . S
C95 H94 0.969 . S
C95 O96 1.550 . S
C95 H97 0.973 . S
O96 C95 1.550 . S
O96 C102 1.412 . S
H97 C95 0.973 . S
C98 H91 0.929 1_455 S
C98 C99 1.400 . S
C98 C100 1.364 . S
C99 C98 1.400 . S
C99 C103 1.377 . S
C100 C98 1.364 . S
C100 C101 1.374 . S
C101 H92 0.930 . S
C101 C100 1.374 . S
C101 C102 1.383 . S
C102 O96 1.412 . S
C102 C101 1.383 . S
C102 C103 1.394 . S
C103 H93 0.929 . S
C103 C99 1.377 . S
C103 C102 1.394 . S
Dy104 O107 2.307 1_545 S
Dy104 O109 2.395 . S
Dy104 O110 2.379 . S
Dy104 O112 2.339 1_545 S
Dy104 O114 2.298 . S
Dy104 O118 2.275 . S
Dy104 C126 2.738 . S
Dy105 O108 2.298 1_545 S
Dy105 O111 2.275 1_545 S
Dy105 O113 2.307 . S
Dy105 O115 2.395 1_545 S
Dy105 O116 2.379 1_545 S
Dy105 O119 2.339 . S
Dy105 C135 2.738 1_545 S
C106 O118 1.254 . S
C106 O119 1.257 1_455 S
O107 Dy104 2.307 1_565 S
O107 C117 1.266 . S
O108 Dy105 2.298 1_565 S
O108 C117 1.236 1_655 S
O109 Dy104 2.395 . S
O109 C126 1.255 . S
O110 Dy104 2.379 . S
O110 C126 1.249 . S
O111 Dy105 2.275 1_565 S
O111 C127 1.254 . S
O112 Dy104 2.339 1_565 S
O112 C127 1.257 1_455 S
O113 Dy105 2.307 . S
O113 C128 1.266 . S
O114 Dy104 2.298 . S
O114 C128 1.236 1_455 S
O115 Dy105 2.395 1_565 S
O115 C135 1.255 . S
O116 Dy105 2.379 1_565 S
O116 C135 1.249 . S
C117 O107 1.266 . S
C117 O108 1.236 1_455 S
O118 Dy104 2.275 . S
O118 C106 1.254 . S
O119 Dy105 2.339 . S
O119 C106 1.257 1_655 S
C120 C123 1.344 . S
C120 C124 1.328 . S
C120 C126 1.516 . S
C121 C122 1.304 . S
C121 C125 1.323 . S
C122 C121 1.304 . S
C122 C123 1.371 . S
C122 H136 0.930 . S
C123 C120 1.344 . S
C123 C122 1.371 . S
C123 H137 0.931 . S
C124 C120 1.328 . S
C124 C125 1.433 . S
C124 H138 0.931 . S
C125 C121 1.323 . S
C125 C124 1.433 . S
C125 H139 0.933 . S
C126 Dy104 2.738 . S
C126 O109 1.255 . S
C126 O110 1.249 . S
C126 C120 1.516 . S
C127 O111 1.254 . S
C127 O112 1.257 1_655 S
C128 O113 1.266 . S
C128 O114 1.236 1_655 S
C129 C132 1.344 . S
C129 C133 1.328 . S
C129 C135 1.516 . S
C130 C131 1.304 . S
C130 C134 1.323 . S
C131 C130 1.304 . S
C131 C132 1.371 . S
C131 H140 0.930 . S
C132 C129 1.344 . S
C132 C131 1.371 . S
C132 H141 0.931 . S
C133 C129 1.328 . S
C133 C134 1.433 . S
C133 H142 0.931 . S
C134 C130 1.323 . S
C134 C133 1.433 . S
C134 H143 0.933 . S
C135 Dy105 2.738 1_565 S
C135 O115 1.255 . S
C135 O116 1.249 . S
C135 C129 1.516 . S
H136 C122 0.930 . S
H137 C123 0.931 . S
H138 C124 0.931 . S
H139 C125 0.933 . S
H140 C131 0.930 . S
H141 C132 0.931 . S
H142 C133 0.931 . S
H143 C134 0.933 . S
Dy144 O147 2.307 1_556 S
Dy144 O149 2.395 1_545 S
Dy144 O150 2.379 1_545 S
Dy144 O152 2.339 . S
Dy144 O154 2.298 1_545 S
Dy144 O158 2.275 1_546 S
Dy144 C166 2.738 1_545 S
Dy145 O148 2.298 . S
Dy145 O151 2.275 1_554 S
Dy145 O153 2.307 1_544 S
Dy145 O155 2.395 . S
Dy145 O156 2.379 . S
Dy145 O159 2.339 1_545 S
Dy145 C175 2.738 . S
C146 O158 1.254 . S
C146 O159 1.257 . S
O147 Dy144 2.307 1_554 S
O147 C157 1.266 . S
O148 Dy145 2.298 . S
O148 C157 1.236 . S
O149 Dy144 2.395 1_565 S
O149 C166 1.255 . S
O150 Dy144 2.379 1_565 S
O150 C166 1.249 . S
O151 Dy145 2.275 1_556 S
O151 C167 1.254 . S
O152 Dy144 2.339 . S
O152 C167 1.257 . S
O153 Dy145 2.307 1_566 S
O153 C168 1.266 . S
O154 Dy144 2.298 1_565 S
O154 C168 1.236 . S
O155 Dy145 2.395 . S
O155 C175 1.255 . S
O156 Dy145 2.379 . S
O156 C175 1.249 . S
C157 O147 1.266 . S
C157 O148 1.236 . S
O158 Dy144 2.275 1_564 S
O158 C146 1.254 . S
O159 Dy145 2.339 1_565 S
O159 C146 1.257 . S
C160 C163 1.344 . S
C160 C164 1.328 . S
C160 C166 1.516 . S
C161 C162 1.304 . S
C161 C165 1.323 . S
C162 C161 1.304 . S
C162 C163 1.371 . S
C162 H176 0.930 . S
C163 C160 1.344 . S
C163 C162 1.371 . S
C163 H177 0.931 . S
C164 C160 1.328 . S
C164 C165 1.433 . S
C164 H178 0.931 . S
C165 C161 1.323 . S
C165 C164 1.433 . S
C165 H179 0.933 . S
C166 Dy144 2.738 1_565 S
C166 O149 1.255 . S
C166 O150 1.249 . S
C166 C160 1.516 . S
C167 O151 1.254 . S
C167 O152 1.257 . S
C168 O153 1.266 . S
C168 O154 1.236 . S
C169 C172 1.344 . S
C169 C173 1.328 . S
C169 C175 1.516 . S
C170 C171 1.304 . S
C170 C174 1.323 . S
C171 C170 1.304 . S
C171 C172 1.371 . S
C171 H180 0.930 . S
C172 C169 1.344 . S
C172 C171 1.371 . S
C172 H181 0.931 . S
C173 C169 1.328 . S
C173 C174 1.433 . S
C173 H182 0.931 . S
C174 C170 1.323 . S
C174 C173 1.433 . S
C174 H183 0.933 . S
C175 Dy145 2.738 . S
C175 O155 1.255 . S
C175 O156 1.249 . S
C175 C169 1.516 . S
H176 C162 0.930 . S
H177 C163 0.931 . S
H178 C164 0.931 . S
H179 C165 0.933 . S
H180 C171 0.930 . S
H181 C172 0.931 . S
H182 C173 0.931 . S
H183 C174 0.933 . S
Dy184 O187 2.307 . S
Dy184 O189 2.395 . S
Dy184 O190 2.379 . S
Dy184 O192 2.339 . S
Dy184 O194 2.298 . S
Dy184 O198 2.275 . S
Dy184 C206 2.738 . S
Dy185 O188 2.298 . S
Dy185 O191 2.275 . S
Dy185 O193 2.307 . S
Dy185 O195 2.395 . S
Dy185 O196 2.379 . S
Dy185 O199 2.339 . S
Dy185 C215 2.738 . S
C186 O198 1.254 . S
C186 O199 1.257 . S
O187 Dy184 2.307 . S
O187 C197 1.266 . S
O188 Dy185 2.298 . S
O188 C197 1.236 . S
O189 Dy184 2.395 . S
O189 C206 1.255 . S
O190 Dy184 2.379 . S
O190 C206 1.249 . S
O191 Dy185 2.275 . S
O191 C207 1.254 . S
O192 Dy184 2.339 . S
O192 C207 1.257 . S
O193 Dy185 2.307 . S
O193 C208 1.266 . S
O194 Dy184 2.298 . S
O194 C208 1.236 . S
O195 Dy185 2.395 . S
O195 C215 1.255 . S
O196 Dy185 2.379 . S
O196 C215 1.249 . S
C197 O187 1.266 . S
C197 O188 1.236 . S
O198 Dy184 2.275 . S
O198 C186 1.254 . S
O199 Dy185 2.339 . S
O199 C186 1.257 . S
C200 C203 1.344 . S
C200 C204 1.328 . S
C200 C206 1.516 . S
C201 C202 1.304 . S
C201 C205 1.323 . S
C202 C201 1.304 . S
C202 C203 1.371 . S
C202 H216 0.930 . S
C203 C200 1.344 . S
C203 C202 1.371 . S
C203 H217 0.931 . S
C204 C200 1.328 . S
C204 C205 1.433 . S
C204 H218 0.931 . S
C205 C201 1.323 . S
C205 C204 1.433 . S
C205 H219 0.933 . S
C206 Dy184 2.738 . S
C206 O189 1.255 . S
C206 O190 1.249 . S
C206 C200 1.516 . S
C207 O191 1.254 . S
C207 O192 1.257 . S
C208 O193 1.266 . S
C208 O194 1.236 . S
C209 C212 1.344 . S
C209 C213 1.328 . S
C209 C215 1.516 . S
C210 C211 1.304 . S
C210 C214 1.323 . S
C211 C210 1.304 . S
C211 C212 1.371 . S
C211 H220 0.930 . S
C212 C209 1.344 . S
C212 C211 1.371 . S
C212 H221 0.931 . S
C213 C209 1.328 . S
C213 C214 1.433 . S
C213 H222 0.931 . S
C214 C210 1.323 . S
C214 C213 1.433 . S
C214 H223 0.933 . S
C215 Dy185 2.738 . S
C215 O195 1.255 . S
C215 O196 1.249 . S
C215 C209 1.516 . S
H216 C202 0.930 . S
H217 C203 0.931 . S
H218 C204 0.931 . S
H219 C205 0.933 . S
H220 C211 0.930 . S
H221 C212 0.931 . S
H222 C213 0.931 . S
H223 C214 0.933 . S
Dy224 O227 2.307 1_655 S
Dy224 O229 2.395 . S
Dy224 O230 2.379 1_554 S
Dy224 O232 2.339 1_654 S
Dy224 O234 2.298 . S
Dy224 O238 2.275 . S
Dy224 C246 2.738 1_554 S
Dy225 O228 2.298 . S
Dy225 O231 2.275 . S
Dy225 O233 2.307 1_455 S
Dy225 O235 2.395 . S
Dy225 O236 2.379 . S
Dy225 O239 2.339 1_455 S
Dy225 C255 2.738 . S
C226 O238 1.254 . S
C226 O239 1.257 . S
O227 Dy224 2.307 1_455 S
O227 C237 1.266 . S
O228 Dy225 2.298 . S
O228 C237 1.236 . S
O229 Dy224 2.395 . S
O229 C246 1.255 1_554 S
O230 Dy224 2.379 1_556 S
O230 C246 1.249 . S
O231 Dy225 2.275 . S
O231 C247 1.254 1_554 S
O232 Dy224 2.339 1_456 S
O232 C247 1.257 . S
O233 Dy225 2.307 1_655 S
O233 C248 1.266 . S
O234 Dy224 2.298 . S
O234 C248 1.236 . S
O235 Dy225 2.395 . S
O235 C255 1.255 . S
O236 Dy225 2.379 . S
O236 C255 1.249 . S
C237 O227 1.266 . S
C237 O228 1.236 . S
O238 Dy224 2.275 . S
O238 C226 1.254 . S
O239 Dy225 2.339 1_655 S
O239 C226 1.257 . S
C240 C243 1.344 . S
C240 C244 1.328 . S
C240 C246 1.516 . S
C241 C242 1.304 . S
C241 C245 1.323 . S
C242 C241 1.304 . S
C242 C243 1.371 . S
C242 H256 0.930 . S
C243 C240 1.344 . S
C243 C242 1.371 . S
C243 H257 0.931 1_556 S
C244 C240 1.328 . S
C244 C245 1.433 . S
C244 H258 0.931 . S
C245 C241 1.323 . S
C245 C244 1.433 . S
C245 H259 0.933 . S
C246 Dy224 2.738 1_556 S
C246 O229 1.255 1_556 S
C246 O230 1.249 . S
C246 C240 1.516 . S
C247 O231 1.254 1_556 S
C247 O232 1.257 . S
C248 O233 1.266 . S
C248 O234 1.236 . S
C249 C252 1.344 . S
C249 C253 1.328 . S
C249 C255 1.516 . S
C250 C251 1.304 . S
C250 C254 1.323 . S
C251 C250 1.304 . S
C251 C252 1.371 . S
C251 H260 0.930 . S
C252 C249 1.344 . S
C252 C251 1.371 . S
C252 H261 0.931 . S
C253 C249 1.328 . S
C253 C254 1.433 . S
C253 H262 0.931 . S
C254 C250 1.323 . S
C254 C253 1.433 . S
C254 H263 0.933 . S
C255 Dy225 2.738 . S
C255 O235 1.255 . S
C255 O236 1.249 . S
C255 C249 1.516 . S
H256 C242 0.930 . S
H257 C243 0.931 1_554 S
H258 C244 0.931 . S
H259 C245 0.933 . S
H260 C251 0.930 . S
H261 C252 0.931 . S
H262 C253 0.931 . S
H263 C254 0.933 . S
C9 C121 1.495 . S
C21 C161 1.702 . S
C186 C30 3.554 . S
C43 C226 3.562 . S
C157 C4 2.422 . S
C117 C22 2.624 1_455 S
C248 C34 2.313 1_554 S
C208 C48 2.485 . S
C8 C250 2.776 . S
C167 C35 3.338 . S
C47 C127 3.764 . S
C17 C210 3.056 . S
C130 C60 1.183 . S
C74 C170 1.238 . S
C82 C207 2.895 . S
C100 C247 4.571 . S
C61 C168 2.748 . S
C128 C73 2.109 1_655 S
C237 C87 2.745 . S
C197 C95 2.573 . S
C56 C241 2.371 . S
C146 C86 3.545 . S
C106 C99 3.805 . S
C69 C201 1.792 . S
