# Generated by pormake.
# Topology nom, (4,4)-cn, num edge types: 1
# Building blocks:
#     Node 0, Type 0, BuildingBlock: AZAVOO_clean_linker_0, # of connection points: 4
#     Node 1, Type 0, BuildingBlock: AZAVOO_clean_linker_0, # of connection points: 4
#     Node 2, Type 0, BuildingBlock: AZAVOO_clean_linker_0, # of connection points: 4
#     Node 3, Type 0, BuildingBlock: AZAVOO_clean_linker_0, # of connection points: 4
#     Node 4, Type 0, BuildingBlock: AZAVOO_clean_linker_0, # of connection points: 4
#     Node 5, Type 0, BuildingBlock: AZAVOO_clean_linker_0, # of connection points: 4
#     Node 6, Type 1, BuildingBlock: NAHDIM_clean_sbu_0, # of connection points: 4
#     Node 7, Type 1, BuildingBlock: NAHDIM_clean_sbu_0, # of connection points: 4
#     Node 8, Type 1, BuildingBlock: NAHDIM_clean_sbu_0, # of connection points: 4
#     Node 9, Type 1, BuildingBlock: NAHDIM_clean_sbu_0, # of connection points: 4
#     Node 10, Type 1, BuildingBlock: NAHDIM_clean_sbu_0, # of connection points: 4
#     Node 11, Type 1, BuildingBlock: NAHDIM_clean_sbu_0, # of connection points: 4
#     Edge 12, Type (0, 1), BuildingBlock: AJUNOK_clean_linker_0, # of connection points: 2
#     Edge 13, Type (0, 1), BuildingBlock: AJUNOK_clean_linker_0, # of connection points: 2
#     Edge 14, Type (0, 1), BuildingBlock: AJUNOK_clean_linker_0, # of connection points: 2
#     Edge 15, Type (0, 1), BuildingBlock: AJUNOK_clean_linker_0, # of connection points: 2
#     Edge 16, Type (0, 1), BuildingBlock: AJUNOK_clean_linker_0, # of connection points: 2
#     Edge 17, Type (0, 1), BuildingBlock: AJUNOK_clean_linker_0, # of connection points: 2
#     Edge 18, Type (0, 1), BuildingBlock: AJUNOK_clean_linker_0, # of connection points: 2
#     Edge 19, Type (0, 1), BuildingBlock: AJUNOK_clean_linker_0, # of connection points: 2
#     Edge 20, Type (0, 1), BuildingBlock: AJUNOK_clean_linker_0, # of connection points: 2
#     Edge 21, Type (0, 1), BuildingBlock: AJUNOK_clean_linker_0, # of connection points: 2
#     Edge 22, Type (0, 1), BuildingBlock: AJUNOK_clean_linker_0, # of connection points: 2
#     Edge 23, Type (0, 1), BuildingBlock: AJUNOK_clean_linker_0, # of connection points: 2
#     Edge 24, Type (0, 1), BuildingBlock: AJUNOK_clean_linker_0, # of connection points: 2
#     Edge 25, Type (0, 1), BuildingBlock: AJUNOK_clean_linker_0, # of connection points: 2
#     Edge 26, Type (0, 1), BuildingBlock: AJUNOK_clean_linker_0, # of connection points: 2
#     Edge 27, Type (0, 1), BuildingBlock: AJUNOK_clean_linker_0, # of connection points: 2
#     Edge 28, Type (0, 1), BuildingBlock: AJUNOK_clean_linker_0, # of connection points: 2
#     Edge 29, Type (0, 1), BuildingBlock: AJUNOK_clean_linker_0, # of connection points: 2
#     Edge 30, Type (0, 1), BuildingBlock: AJUNOK_clean_linker_0, # of connection points: 2
#     Edge 31, Type (0, 1), BuildingBlock: AJUNOK_clean_linker_0, # of connection points: 2
#     Edge 32, Type (0, 1), BuildingBlock: AJUNOK_clean_linker_0, # of connection points: 2
#     Edge 33, Type (0, 1), BuildingBlock: AJUNOK_clean_linker_0, # of connection points: 2
#     Edge 34, Type (0, 1), BuildingBlock: AJUNOK_clean_linker_0, # of connection points: 2
#     Edge 35, Type (0, 1), BuildingBlock: AJUNOK_clean_linker_0, # of connection points: 2
# Relax obj value: 0.170
# Max RMSD: 0.228
# Mean RMSD: 0.169
data_MOF--net-nom--node1-NAHDIM_clean_sbu_0--node2-AZAVOO_clean_linker_0--edge1-AJUNOK_clean_linker_0
_symmetry_space_group_name_H-M    P1
_symmetry_Int_Tables_number       1
_symmetry_cell_setting            triclinic
loop_
_symmetry_equiv_pos_as_xyz
'x, y, z'
_cell_length_a     36.982227
_cell_length_b     39.575336
_cell_length_c     46.378043
_cell_angle_alpha  90.040475
_cell_angle_beta   90.415126
_cell_angle_gamma 122.49556
loop_
_atom_site_label
_atom_site_type_symbol
_atom_site_fract_x
_atom_site_fract_y
_atom_site_fract_z
_atom_type_partial_charge
H0 H 0.08296 0.46622 0.10934 0.0
H1 H 0.31326 0.70121 0.38289 0.0
H2 H 0.99165 0.43392 0.26413 0.0
H3 H 0.94502 0.39601 0.2233 0.0
H4 H 0.93608 0.4972 0.20081 0.0
H5 H 0.9812 0.53423 0.24256 0.0
H6 H 0.08515 0.47719 0.23526 0.0
H7 H 0.08638 0.46356 0.18387 0.0
H8 H 0.0576 0.55315 0.16278 0.0
H9 H 0.0569 0.5667 0.21421 0.0
H10 H 0.17346 0.54171 0.27574 0.0
H11 H 0.24631 0.58817 0.25789 0.0
H12 H 0.206 0.66461 0.22399 0.0
H13 H 0.1337 0.61829 0.24179 0.0
H14 H 0.14071 0.5275 0.34021 0.0
H15 H 0.20678 0.56418 0.36892 0.0
H16 H 0.22846 0.67604 0.33659 0.0
H17 H 0.16213 0.63897 0.30814 0.0
H18 H 0.04665 0.48509 0.35946 0.0
H19 H 0.06869 0.4972 0.41038 0.0
H20 H 0.1112 0.62167 0.4007 0.0
H21 H 0.08905 0.60939 0.34992 0.0
H22 H 0.95099 0.44831 0.30918 0.0
H23 H 0.88381 0.43679 0.32805 0.0
H24 H 0.94739 0.56279 0.34911 0.0
H25 H 0.01252 0.57467 0.32692 0.0
O26 O 0.08263 0.47228 0.12953 0.0
O27 O 0.06363 0.51575 0.11995 0.0
O28 O 0.27369 0.62767 0.38834 0.0
O29 O 0.28715 0.68596 0.37159 0.0
C30 C 0.02892 0.51314 0.27355 0.0
C31 C 0.06888 0.53002 0.25959 0.0
C32 C 0.10721 0.55367 0.27525 0.0
C33 C 0.10604 0.55814 0.30528 0.0
C34 C 0.06624 0.54195 0.31927 0.0
C35 C 0.02747 0.52103 0.30318 0.0
C36 C 0.98968 0.48675 0.2563 0.0
C37 C 0.97794 0.44716 0.25118 0.0
C38 C 0.95207 0.4259 0.22752 0.0
C39 C 0.93824 0.44421 0.2083 0.0
C40 C 0.9465 0.48241 0.21515 0.0
C41 C 0.97195 0.5035 0.23911 0.0
C42 C 0.07072 0.52274 0.22837 0.0
C43 C 0.07933 0.49393 0.21947 0.0
C44 C 0.07994 0.4862 0.19013 0.0
C45 C 0.07202 0.50723 0.16921 0.0
C46 C 0.06373 0.53635 0.17831 0.0
C47 C 0.06329 0.54414 0.20764 0.0
C48 C 0.14851 0.57676 0.26 0.0
C49 C 0.18023 0.56796 0.26377 0.0
C50 C 0.22164 0.59444 0.25366 0.0
C51 C 0.23156 0.62977 0.23946 0.0
C52 C 0.199 0.63721 0.23431 0.0
C53 C 0.15777 0.61087 0.24451 0.0
C54 C 0.14671 0.58061 0.32214 0.0
C55 C 0.1598 0.55993 0.33938 0.0
C56 C 0.19751 0.58095 0.35576 0.0
C57 C 0.22283 0.62307 0.35513 0.0
C58 C 0.2097 0.64364 0.33761 0.0
C59 C 0.17192 0.62257 0.32128 0.0
C60 C 0.0663 0.54636 0.35104 0.0
C61 C 0.05906 0.51456 0.36864 0.0
C62 C 0.07211 0.52161 0.39755 0.0
C63 C 0.09231 0.5605 0.40916 0.0
C64 C 0.09569 0.59144 0.39222 0.0
C65 C 0.08287 0.58443 0.3633 0.0
C66 C 0.98691 0.51238 0.31653 0.0
C67 C 0.95025 0.47348 0.3175 0.0
C68 C 0.91202 0.46683 0.32896 0.0
C69 C 0.91017 0.49877 0.34064 0.0
C70 C 0.94734 0.53748 0.34016 0.0
C71 C 0.98492 0.54426 0.32784 0.0
C72 C 0.07246 0.4988 0.13807 0.0
C73 C 0.26271 0.64554 0.37271 0.0
H74 H 0.56903 0.07861 0.29906 0.0
H75 H 0.5453 0.24893 0.58466 0.0
H76 H 0.55188 0.99575 0.44601 0.0
H77 H 0.54738 0.9557 0.40433 0.0
H78 H 0.40986 0.8992 0.40219 0.0
H79 H 0.41474 0.94005 0.44372 0.0
H80 H 0.57811 0.08052 0.42512 0.0
H81 H 0.58744 0.08691 0.37278 0.0
H82 H 0.44971 0.01941 0.36118 0.0
H83 H 0.44091 0.01369 0.41355 0.0
H84 H 0.59398 0.13847 0.47458 0.0
H85 H 0.62015 0.20577 0.45617 0.0
H86 H 0.49287 0.16544 0.42467 0.0
H87 H 0.46705 0.09797 0.44287 0.0
H88 H 0.57917 0.10946 0.53615 0.0
H89 H 0.60186 0.16877 0.56595 0.0
H90 H 0.48723 0.16546 0.54059 0.0
H91 H 0.46462 0.10573 0.51118 0.0
H92 H 0.54685 0.02764 0.55136 0.0
H93 H 0.55582 0.04549 0.60254 0.0
H94 H 0.43648 0.04095 0.60061 0.0
H95 H 0.42893 0.02508 0.549 0.0
H96 H 0.5118 0.94841 0.50285 0.0
H97 H 0.47195 0.87786 0.51752 0.0
H98 H 0.35913 0.8824 0.53075 0.0
H99 H 0.39928 0.95287 0.51651 0.0
O100 O 0.56465 0.07628 0.31969 0.0
O101 O 0.49365 0.04144 0.31494 0.0
O102 O 0.59425 0.22449 0.58665 0.0
O103 O 0.53665 0.22505 0.57346 0.0
C104 C 0.48845 0.00303 0.46686 0.0
C105 C 0.50318 0.04105 0.45474 0.0
C106 C 0.51255 0.07352 0.47267 0.0
C107 C 0.50745 0.06816 0.50275 0.0
C108 C 0.49085 0.02971 0.51477 0.0
C109 C 0.48044 0.99685 0.49675 0.0
C110 C 0.48365 0.97085 0.44773 0.0
C111 C 0.52064 0.97372 0.43714 0.0
C112 C 0.51806 0.95096 0.41332 0.0
C113 C 0.4784 0.92504 0.39974 0.0
C114 C 0.44092 0.9196 0.41199 0.0
C115 C 0.44354 0.94245 0.43586 0.0
C116 C 0.50887 0.04669 0.42306 0.0
C117 C 0.55005 0.0675 0.41122 0.0
C118 C 0.55525 0.07093 0.38132 0.0
C119 C 0.51931 0.05356 0.36278 0.0
C120 C 0.47807 0.0331 0.37483 0.0
C121 C 0.47294 0.0298 0.40471 0.0
C122 C 0.52868 0.11353 0.46007 0.0
C123 C 0.57188 0.14416 0.46351 0.0
C124 C 0.58669 0.18247 0.45307 0.0
C125 C 0.55854 0.19072 0.43891 0.0
C126 C 0.51538 0.15973 0.43506 0.0
C127 C 0.50058 0.12136 0.44554 0.0
C128 C 0.52015 0.10322 0.52169 0.0
C129 C 0.55879 0.12134 0.53733 0.0
C130 C 0.57177 0.15533 0.5542 0.0
C131 C 0.54646 0.17201 0.55552 0.0
C132 C 0.50754 0.15349 0.53998 0.0
C133 C 0.49451 0.11936 0.5232 0.0
C134 C 0.48749 0.02548 0.5465 0.0
C135 C 0.52182 0.02895 0.56227 0.0
C136 C 0.52695 0.03928 0.59149 0.0
C137 C 0.49752 0.04584 0.60532 0.0
C138 C 0.46035 0.03733 0.59025 0.0
C139 C 0.45562 0.02766 0.56092 0.0
C140 C 0.45842 0.95573 0.50865 0.0
C141 C 0.4787 0.93429 0.50938 0.0
C142 C 0.45588 0.89406 0.51767 0.0
C143 C 0.41247 0.87467 0.52546 0.0
C144 C 0.39272 0.89668 0.5255 0.0
C145 C 0.41555 0.93687 0.51724 0.0
C146 C 0.52491 0.05666 0.33104 0.0
C147 C 0.56071 0.20875 0.57283 0.0
H148 H 0.61757 0.54015 0.81339 0.0
H149 H 0.61856 0.36189 0.53651 0.0
H150 H 0.59696 0.61432 0.67015 0.0
H151 H 0.58045 0.64023 0.71265 0.0
H152 H 0.44603 0.54975 0.70143 0.0
H153 H 0.46284 0.52322 0.65943 0.0
H154 H 0.63244 0.56056 0.68817 0.0
H155 H 0.63933 0.55935 0.74067 0.0
H156 H 0.50165 0.48044 0.74703 0.0
H157 H 0.49522 0.4825 0.69462 0.0
H158 H 0.64642 0.50402 0.64082 0.0
H159 H 0.65738 0.45126 0.65778 0.0
H160 H 0.52466 0.37973 0.6831 0.0
H161 H 0.51366 0.4319 0.66561 0.0
H162 H 0.64335 0.53403 0.57978 0.0
H163 H 0.67049 0.49845 0.55366 0.0
H164 H 0.55284 0.38586 0.57156 0.0
H165 H 0.52577 0.42193 0.59711 0.0
H166 H 0.60865 0.58049 0.56063 0.0
H167 H 0.62205 0.56998 0.51092 0.0
H168 H 0.50207 0.45523 0.50948 0.0
H169 H 0.49006 0.4651 0.55974 0.0
H170 H 0.54868 0.61671 0.60706 0.0
H171 H 0.49307 0.6316 0.59725 0.0
H172 H 0.40008 0.50568 0.58368 0.0
H173 H 0.45525 0.49093 0.59346 0.0
O174 O 0.61416 0.54019 0.79268 0.0
O175 O 0.5432 0.49991 0.79476 0.0
O176 O 0.66623 0.43564 0.53483 0.0
O177 O 0.60804 0.37681 0.54585 0.0
C178 C 0.54271 0.54402 0.643 0.0
C179 C 0.55938 0.52272 0.65586 0.0
C180 C 0.57038 0.50044 0.63857 0.0
C181 C 0.56805 0.50197 0.60832 0.0
C182 C 0.55041 0.52245 0.59548 0.0
C183 C 0.53556 0.54172 0.61288 0.0
C184 C 0.53111 0.56677 0.66193 0.0
C185 C 0.56378 0.60111 0.67622 0.0
C186 C 0.55437 0.61586 0.70043 0.0
C187 C 0.51216 0.59639 0.71047 0.0
C188 C 0.47892 0.5648 0.69422 0.0
C189 C 0.48838 0.54989 0.67012 0.0
C190 C 0.56335 0.52196 0.68771 0.0
C191 C 0.60384 0.54321 0.701 0.0
C192 C 0.60765 0.54244 0.73096 0.0
C193 C 0.57099 0.52005 0.74808 0.0
C194 C 0.53048 0.49834 0.73454 0.0
C195 C 0.5267 0.49946 0.70463 0.0
C196 C 0.57928 0.4717 0.65205 0.0
C197 C 0.61992 0.47712 0.6503 0.0
C198 C 0.62605 0.44705 0.65983 0.0
C199 C 0.5917 0.41152 0.67148 0.0
C200 C 0.55159 0.40697 0.67428 0.0
C201 C 0.54536 0.43673 0.66445 0.0
C202 C 0.58261 0.48054 0.59023 0.0
C203 C 0.62324 0.50175 0.57762 0.0
C204 C 0.63876 0.48132 0.56289 0.0
C205 C 0.614 0.43925 0.56081 0.0
C206 C 0.57285 0.41821 0.57295 0.0
C207 C 0.55723 0.43872 0.58745 0.0
C208 C 0.54854 0.52347 0.56373 0.0
C209 C 0.58434 0.55393 0.54913 0.0
C210 C 0.59205 0.54777 0.5208 0.0
C211 C 0.56377 0.5112 0.50678 0.0
C212 C 0.52502 0.48315 0.52018 0.0
C213 C 0.51768 0.48904 0.54866 0.0
C214 C 0.50608 0.55276 0.60076 0.0
C215 C 0.51663 0.59255 0.60107 0.0
C216 C 0.48495 0.60098 0.59556 0.0
C217 C 0.44244 0.56966 0.59 0.0
C218 C 0.43264 0.53023 0.58804 0.0
C219 C 0.46421 0.52187 0.59333 0.0
C220 C 0.57509 0.51933 0.7799 0.0
C221 C 0.63114 0.41729 0.54636 0.0
H222 H 0.05795 0.43725 0.99258 0.0
H223 H 0.28753 0.52329 0.70609 0.0
H224 H 0.98176 0.45084 0.84247 0.0
H225 H 0.93917 0.43557 0.88589 0.0
H226 H 0.89943 0.31132 0.87854 0.0
H227 H 0.94396 0.32746 0.83545 0.0
H228 H 0.06619 0.47693 0.87032 0.0
H229 H 0.0679 0.47235 0.92291 0.0
H230 H 0.02719 0.34782 0.91506 0.0
H231 H 0.02571 0.3529 0.86248 0.0
H232 H 0.13639 0.51539 0.82294 0.0
H233 H 0.20849 0.54875 0.84402 0.0
H234 H 0.19128 0.43374 0.86098 0.0
H235 H 0.11884 0.40022 0.83936 0.0
H236 H 0.11627 0.51438 0.7607 0.0
H237 H 0.18226 0.55014 0.73271 0.0
H238 H 0.1993 0.45104 0.74399 0.0
H239 H 0.13262 0.41518 0.77138 0.0
H240 H 0.02424 0.4776 0.74532 0.0
H241 H 0.04999 0.50782 0.69778 0.0
H242 H 0.08221 0.42031 0.67871 0.0
H243 H 0.05609 0.39012 0.72605 0.0
H244 H 0.939 0.42303 0.79005 0.0
H245 H 0.86524 0.3823 0.77228 0.0
H246 H 0.8943 0.30149 0.73143 0.0
H247 H 0.96738 0.34105 0.75097 0.0
O248 O 0.05739 0.4385 0.97176 0.0
O249 O 0.04078 0.37585 0.96646 0.0
O250 O 0.24815 0.55757 0.70861 0.0
O251 O 0.26079 0.50937 0.71648 0.0
C252 C 0.00335 0.4032 0.81716 0.0
C253 C 0.04333 0.41774 0.83084 0.0
C254 C 0.08097 0.43628 0.81453 0.0
C255 C 0.079 0.44014 0.78445 0.0
C256 C 0.03883 0.4242 0.77045 0.0
C257 C 0.00077 0.40514 0.78679 0.0
C258 C 0.96586 0.39025 0.83584 0.0
C259 C 0.96249 0.42001 0.84956 0.0
C260 C 0.93835 0.41125 0.87451 0.0
C261 C 0.9169 0.37246 0.88608 0.0
C262 C 0.91673 0.34176 0.87058 0.0
C263 C 0.94134 0.35068 0.84566 0.0
C264 C 0.04591 0.41527 0.8627 0.0
C265 C 0.05793 0.44879 0.88004 0.0
C266 C 0.05872 0.44603 0.91005 0.0
C267 C 0.04767 0.40971 0.92319 0.0
C268 C 0.03597 0.37625 0.90563 0.0
C269 C 0.03511 0.37905 0.87563 0.0
C270 C 0.12297 0.45558 0.82931 0.0
C271 C 0.14808 0.49741 0.83135 0.0
C272 C 0.18892 0.5163 0.84345 0.0
C273 C 0.20494 0.49357 0.85396 0.0
C274 C 0.17914 0.45161 0.85312 0.0
C275 C 0.13819 0.43262 0.84073 0.0
C276 C 0.11944 0.46201 0.76775 0.0
C277 C 0.13408 0.50029 0.75685 0.0
C278 C 0.17187 0.52071 0.74098 0.0
C279 C 0.19604 0.50341 0.73608 0.0
C280 C 0.18144 0.46519 0.74733 0.0
C281 C 0.14343 0.44466 0.763 0.0
C282 C 0.03831 0.43168 0.73913 0.0
C283 C 0.0348 0.46371 0.73031 0.0
C284 C 0.05008 0.48128 0.70334 0.0
C285 C 0.06846 0.46664 0.68471 0.0
C286 C 0.06781 0.43198 0.69247 0.0
C287 C 0.05268 0.41454 0.71946 0.0
C288 C 0.95836 0.38468 0.77218 0.0
C289 C 0.92951 0.39667 0.77715 0.0
C290 C 0.88752 0.37364 0.76659 0.0
C291 C 0.87398 0.33875 0.75026 0.0
C292 C 0.9037 0.32803 0.7441 0.0
C293 C 0.9455 0.35076 0.75503 0.0
C294 C 0.04835 0.40683 0.95507 0.0
C295 C 0.23648 0.52517 0.71951 0.0
H296 H 0.4009 0.99109 0.79982 0.0
H297 H 0.41312 0.75778 0.06147 0.0
H298 H 0.45199 0.06064 0.94425 0.0
H299 H 0.48222 0.10781 0.90434 0.0
H300 H 0.6067 0.12706 0.92262 0.0
H301 H 0.5756 0.07768 0.961 0.0
H302 H 0.39313 0.96666 0.92463 0.0
H303 H 0.38337 0.97157 0.87286 0.0
H304 H 0.51917 0.02425 0.86022 0.0
H305 H 0.5283 0.01845 0.91184 0.0
H306 H 0.37474 0.88178 0.96047 0.0
H307 H 0.3622 0.82112 0.93595 0.0
H308 H 0.49378 0.88683 0.90761 0.0
H309 H 0.50597 0.94643 0.93196 0.0
H310 H 0.38917 0.90976 0.0318 0.0
H311 H 0.36508 0.84688 0.05705 0.0
H312 H 0.46682 0.84069 0.01731 0.0
H313 H 0.49086 0.90379 0.99252 0.0
H314 H 0.44582 0.99308 0.06237 0.0
H315 H 0.45542 0.97521 0.11148 0.0
H316 H 0.55015 0.9528 0.07979 0.0
H317 H 0.54009 0.97 0.03105 0.0
H318 H 0.49198 0.08599 0.01746 0.0
H319 H 0.54853 0.14912 0.03999 0.0
H320 H 0.63374 0.10591 0.03984 0.0
H321 H 0.57796 0.04383 0.0169 0.0
O322 O 0.40538 0.98904 0.82017 0.0
O323 O 0.47557 0.0169 0.81499 0.0
O324 O 0.3695 0.7867 0.07105 0.0
O325 O 0.42146 0.78227 0.05135 0.0
C326 C 0.49052 0.02619 0.97046 0.0
C327 C 0.46727 0.9907 0.95367 0.0
C328 C 0.45238 0.95315 0.9664 0.0
C329 C 0.45739 0.9505 0.99632 0.0
C330 C 0.48114 0.98581 0.01301 0.0
C331 C 0.49883 0.02366 -5e-05 0.0
C332 C 0.51143 0.06539 0.95543 0.0
C333 C 0.48617 0.07638 0.94045 0.0
C334 C 0.50356 0.10346 0.91763 0.0
C335 C 0.54677 0.12074 0.91009 0.0
C336 C 0.57315 0.11371 0.92769 0.0
C337 C 0.55556 0.08599 0.95004 0.0
C338 C 0.46147 0.99275 0.92205 0.0
C339 C 0.42066 0.97912 0.91061 0.0
C340 C 0.41522 0.98204 0.88105 0.0
C341 C 0.45054 -0.00146 0.86242 0.0
C342 C 0.49132 0.01158 0.87395 0.0
C343 C 0.49665 0.00845 0.90346 0.0
C344 C 0.44112 0.91849 0.94769 0.0
C345 C 0.40031 0.88318 0.94819 0.0
C346 C 0.39326 0.84875 0.93426 0.0
C347 C 0.42688 0.84956 0.91957 0.0
C348 C 0.46694 0.88561 0.91797 0.0
C349 C 0.47399 0.91968 0.93196 0.0
C350 C 0.44133 0.911 0.01004 0.0
C351 C 0.40594 0.89456 0.0284 0.0
C352 C 0.39234 0.85872 0.04284 0.0
C353 C 0.414 0.83871 0.03915 0.0
C354 C 0.44935 0.85523 0.02057 0.0
C355 C 0.46297 0.89113 0.00623 0.0
C356 C 0.49209 0.98255 0.04326 0.0
C357 C 0.46933 0.98523 0.06626 0.0
C358 C 0.47485 0.97511 0.09416 0.0
C359 C 0.50307 0.96219 0.09913 0.0
C360 C 0.52784 0.96222 0.07635 0.0
C361 C 0.52226 0.97217 0.04862 0.0
C362 C 0.5307 0.06015 0.01603 0.0
C363 C 0.52261 0.08999 0.02282 0.0
C364 C 0.55472 0.12577 0.03569 0.0
C365 C 0.59504 0.13183 0.04209 0.0
C366 C 0.60253 0.10144 0.03592 0.0
C367 C 0.57072 0.06603 0.02283 0.0
C368 C 0.44477 0.0021 0.8311 0.0
C369 C 0.40014 0.80099 0.05482 0.0
H370 H 0.53284 0.47615 0.93498 0.0
H371 H 0.70491 0.44406 0.22115 0.0
H372 H 0.49068 0.54303 0.08583 0.0
H373 H 0.46894 0.56298 0.04247 0.0
H374 H 0.59859 0.66437 0.03284 0.0
H375 H 0.61961 0.64526 0.07713 0.0
H376 H 0.51827 0.48203 0.06017 0.0
H377 H 0.51219 0.46934 0.00813 0.0
H378 H 0.63043 0.5836 0.99554 0.0
H379 H 0.63642 0.59553 0.04765 0.0
H380 H 0.55642 0.44496 0.10304 0.0
H381 H 0.58807 0.40729 0.08697 0.0
H382 H 0.70311 0.5182 0.06243 0.0
H383 H 0.67125 0.55538 0.07829 0.0
H384 H 0.54907 0.46114 0.16443 0.0
H385 H 0.57118 0.42338 0.19328 0.0
H386 H 0.70397 0.51297 0.17575 0.0
H387 H 0.68129 0.54984 0.14632 0.0
H388 H 0.52916 0.52271 0.19009 0.0
H389 H 0.54088 0.50793 0.23931 0.0
H390 H 0.67778 0.58493 0.2273 0.0
H391 H 0.66554 0.60147 0.17923 0.0
H392 H 0.50282 0.57598 0.13833 0.0
H393 H 0.49306 0.6284 0.15734 0.0
H394 H 0.62798 0.70146 0.17821 0.0
H395 H 0.63797 0.64944 0.15831 0.0
O396 O 0.53561 0.48197 0.95544 0.0
O397 O 0.59402 0.54275 0.9498 0.0
O398 O 0.62646 0.41156 0.2164 0.0
O399 O 0.69525 0.45797 0.20938 0.0
C400 C 0.57236 0.57257 0.10273 0.0
C401 C 0.58212 0.54638 0.08926 0.0
C402 C 0.59646 0.52618 0.10591 0.0
C403 C 0.59994 0.531 0.13602 0.0
C404 C 0.5912 0.55787 0.14949 0.0
C405 C 0.57781 0.57912 0.13286 0.0
C406 C 0.5567 0.59264 0.08441 0.0
C407 C 0.51381 0.57071 0.07521 0.0
C408 C 0.50166 0.58175 0.05023 0.0
C409 C 0.53254 0.61429 0.03385 0.0
C410 C 0.5743 0.63897 0.045 0.0
C411 C 0.58629 0.62825 0.07033 0.0
C412 C 0.57751 0.53986 0.05756 0.0
C413 C 0.54267 0.50432 0.04608 0.0
C414 C 0.53937 0.49712 0.01638 0.0
C415 C 0.57089 0.52542 0.99768 0.0
C416 C 0.60558 0.5612 0.00933 0.0
C417 C 0.60898 0.56821 0.03904 0.0
C418 C 0.6117 0.50273 0.09177 0.0
C419 C 0.58798 0.46085 0.09348 0.0
C420 C 0.60604 0.43952 0.08438 0.0
C421 C 0.64785 0.45992 0.07335 0.0
C422 C 0.6705 0.50171 0.07028 0.0
C423 C 0.65249 0.52297 0.07942 0.0
C424 C 0.61361 0.50824 0.15348 0.0
C425 C 0.58289 0.47247 0.16684 0.0
C426 C 0.59563 0.45105 0.18334 0.0
C427 C 0.63939 0.46538 0.18709 0.0
C428 C 0.67005 0.50119 0.17345 0.0
C429 C 0.65722 0.5223 0.15664 0.0
C430 C 0.59656 0.56276 0.18111 0.0
C431 C 0.5615 0.53807 0.19878 0.0
C432 C 0.56833 0.52896 0.2266 0.0
C433 C 0.6103 0.5438 0.23664 0.0
C434 C 0.64504 0.5727 0.22019 0.0
C435 C 0.63815 0.58244 0.19271 0.0
C436 C 0.57115 0.6091 0.14665 0.0
C437 C 0.53027 0.60326 0.14698 0.0
C438 C 0.52472 0.63303 0.1579 0.0
C439 C 0.5599 0.66881 0.16899 0.0
C440 C 0.60049 0.67399 0.1698 0.0
C441 C 0.60614 0.6444 0.15849 0.0
C442 C 0.56769 0.5174 0.9662 0.0
C443 C 0.65312 0.44323 0.20517 0.0
C444 C 0.62697 0.35549 0.40414 0.0
O445 O 0.65435 0.38395 0.42183 0.0
O446 O 0.71479 0.44094 0.3715 0.0
Zn447 Zn 0.65314 0.42504 0.37381 0.0
O448 O 0.64105 0.44915 0.40791 0.0
C449 C 0.65963 0.47583 0.32809 0.0
O450 O 0.69626 0.49983 0.34138 0.0
O451 O 0.61915 0.36549 0.37997 0.0
C452 C 0.62873 0.47358 0.40629 0.0
O453 O 0.62723 0.48802 0.38118 0.0
C454 C 0.74821 0.47424 0.37842 0.0
O455 O 0.74483 0.50341 0.38855 0.0
O456 O 0.63529 0.44035 0.3374 0.0
C457 C 0.30924 0.70147 0.54171 0.0
O458 O 0.31393 0.67908 0.52308 0.0
O459 O 0.29535 0.60939 0.56207 0.0
Zn460 Zn 0.25045 0.62372 0.56036 0.0
O461 O 0.21809 0.60468 0.52267 0.0
C462 C 0.18026 0.55898 0.58969 0.0
O463 O 0.18132 0.54103 0.56617 0.0
O464 O 0.28175 0.68416 0.56159 0.0
C465 C 0.18655 0.6085 0.51804 0.0
O466 O 0.17621 0.62536 0.538 0.0
C467 C 0.30444 0.59913 0.58564 0.0
O468 O 0.28362 0.5971 0.60906 0.0
O469 O 0.2078 0.59633 0.59274 0.0
C470 C 0.60649 0.2782 0.70537 0.0
O471 O 0.6256 0.2653 0.68906 0.0
O472 O 0.66855 0.24798 0.73795 0.0
Zn473 Zn 0.60449 0.21987 0.74005 0.0
O474 O 0.57477 0.17653 0.70995 0.0
C475 C 0.60112 0.18435 0.79451 0.0
O476 O 0.6305 0.18045 0.78212 0.0
O477 O 0.59267 0.26208 0.72984 0.0
C478 C 0.56333 0.13999 0.7108 0.0
O479 O 0.57195 0.12618 0.73384 0.0
C480 C 0.69089 0.23363 0.73122 0.0
O481 O 0.67205 0.19522 0.72549 0.0
O482 O 0.5842 0.19996 0.78037 0.0
C483 C 0.43903 0.71363 0.89321 0.0
O484 O 0.42153 0.68291 0.9108 0.0
O485 O 0.40565 0.6208 0.87022 0.0
Zn486 Zn 0.46671 0.66644 0.87223 0.0
O487 O 0.49406 0.66404 0.90906 0.0
C488 C 0.4794 0.62771 0.82647 0.0
O489 O 0.45012 0.59743 0.84162 0.0
O490 O 0.46334 0.71504 0.87338 0.0
C491 C 0.49652 0.63408 0.91509 0.0
O492 O 0.48445 0.60579 0.89565 0.0
C493 C 0.38235 0.59373 0.88828 0.0
O494 O 0.39789 0.59365 0.91381 0.0
O495 O 0.49455 0.66311 0.83589 0.0
C496 C 0.74812 0.38784 0.06357 0.0
O497 O 0.74532 0.3638 0.08417 0.0
O498 O 0.7609 0.31123 0.04658 0.0
Zn499 Zn 0.80688 0.36925 0.04672 0.0
O500 O 0.8394 0.38741 0.08433 0.0
C501 C 0.85099 0.35541 0.00225 0.0
O502 O 0.84009 0.32373 0.01793 0.0
O503 O 0.775 0.39668 0.04357 0.0
C504 C 0.86494 0.37849 0.09493 0.0
O505 O 0.87354 0.3553 0.08021 0.0
C506 C 0.74694 0.28682 0.06746 0.0
O507 O 0.76564 0.29829 0.09288 0.0
O508 O 0.84232 0.38061 0.01122 0.0
C509 C 0.52142 0.78534 0.20743 0.0
O510 O 0.49593 0.79084 0.1911 0.0
O511 O 0.43204 0.77443 0.24375 0.0
Zn512 Zn 0.49263 0.82177 0.2427 0.0
O513 O 0.49719 0.85726 0.20998 0.0
C514 C 0.47685 0.8582 0.28762 0.0
O515 O 0.44604 0.8494 0.26899 0.0
O516 O 0.52827 0.79845 0.23326 0.0
C517 C 0.50786 0.89354 0.20887 0.0
O518 O 0.51945 0.91515 0.23261 0.0
C519 C 0.40539 0.76454 0.22308 0.0
O520 O 0.41702 0.7868 0.19984 0.0
O521 O 0.5044 0.84958 0.28123 0.0
C522 C 0.30716 0.67473 0.25577 0.0
C523 C 0.27657 0.66131 0.23342 0.0
C524 C 0.34883 0.7077 0.25198 0.0
C525 C 0.36155 0.72861 0.2257 0.0
H526 H 0.2984 0.66054 0.27672 0.0
H527 H 0.37089 0.71733 0.27011 0.0
S528 S 0.29411 0.70286 0.15962 0.0
N529 N 0.26213 0.6694 0.18358 0.0
N530 N 0.34059 0.73169 0.17629 0.0
C531 C 0.33155 0.7146 0.20282 0.0
C532 C 0.28903 0.68092 0.20674 0.0
C533 C 0.59768 0.26414 0.44879 0.0
C534 C 0.57413 0.2321 0.42943 0.0
C535 C 0.61388 0.30369 0.44044 0.0
C536 C 0.60726 0.3129 0.41233 0.0
H537 H 0.6036 0.2586 0.47067 0.0
H538 H 0.63196 0.32722 0.45623 0.0
S539 S 0.54779 0.23954 0.35333 0.0
N540 N 0.54501 0.21187 0.38089 0.0
N541 N 0.57517 0.28633 0.36509 0.0
C542 C 0.58324 0.28102 0.3928 0.0
C543 C 0.56673 0.24061 0.40137 0.0
C544 C 0.40592 0.60138 0.56753 0.0
C545 C 0.40742 0.57725 0.58908 0.0
C546 C 0.3721 0.60781 0.56628 0.0
C547 C 0.33916 0.59099 0.5869 0.0
H548 H 0.43076 0.61493 0.55138 0.0
H549 H 0.37211 0.62656 0.54927 0.0
S550 S 0.32938 0.52605 0.64796 0.0
N551 N 0.37374 0.53674 0.63152 0.0
N552 N 0.31057 0.54918 0.62956 0.0
C553 C 0.34072 0.56711 0.60872 0.0
C554 C 0.37475 0.56015 0.6097 0.0
C555 C 0.80703 0.27034 0.74672 0.0
C556 C 0.82817 0.31187 0.74183 0.0
C557 C 0.7628 0.24477 0.74194 0.0
C558 C 0.73806 0.25992 0.73248 0.0
H559 H 0.82445 0.25766 0.75542 0.0
H560 H 0.74761 0.21327 0.74698 0.0
S561 S 0.77864 0.36513 0.71247 0.0
N562 N 0.82163 0.36603 0.72368 0.0
N563 N 0.73827 0.31817 0.71563 0.0
C564 C 0.759 0.30098 0.72623 0.0
C565 C 0.80409 0.32691 0.73069 0.0
C566 C 0.40905 0.78065 0.92956 0.0
C567 C 0.42299 0.81218 0.9099 0.0
C568 C 0.41321 0.74832 0.92348 0.0
C569 C 0.43173 0.74647 0.89759 0.0
H570 H 0.39702 0.78199 0.95049 0.0
H571 H 0.40335 0.72547 0.93978 0.0
S572 S 0.46756 0.81889 0.83728 0.0
N573 N 0.45158 0.83767 0.86228 0.0
N574 N 0.45997 0.77699 0.85085 0.0
C575 C 0.44355 0.77672 0.87703 0.0
C576 C 0.43903 0.80955 0.88319 0.0
C577 C 0.67083 0.41502 0.09095 0.0
C578 C 0.67002 0.43861 0.06867 0.0
C579 C 0.69569 0.39828 0.08879 0.0
C580 C 0.7208 0.4046 0.0643 0.0
H581 H 0.65334 0.41064 0.11069 0.0
H582 H 0.69589 0.38103 0.10684 0.0
S583 S 0.72641 0.46123 -0.00114 0.0
N584 N 0.69378 0.46534 0.02059 0.0
N585 N 0.741 0.43408 0.01643 0.0
C586 C 0.71913 0.42711 0.04141 0.0
C587 C 0.69366 0.4441 0.04364 0.0
C588 C 0.38905 0.80464 0.51179 0.0
C589 C 0.387 0.83087 0.53117 0.0
C590 C 0.36393 0.76309 0.51557 0.0
C591 C 0.33562 0.74585 0.53894 0.0
H592 H 0.4096 0.81628 0.49311 0.0
H593 H 0.36657 0.74439 0.49977 0.0
S594 S 0.32009 0.80171 0.5968 0.0
N595 N 0.35583 0.83695 0.57529 0.0
N596 N 0.3082 0.75869 0.58238 0.0
C597 C 0.33368 0.77179 0.55878 0.0
C598 C 0.35939 0.81427 0.55488 0.0
C599 C 0.58541 0.36198 0.70755 0.0
C600 C 0.59689 0.37835 0.67979 0.0
C601 C 0.58848 0.32951 0.71556 0.0
C602 C 0.6029 0.31207 0.69601 0.0
H603 H 0.57412 0.3745 0.72322 0.0
H604 H 0.5796 0.31815 0.73729 0.0
S605 S 0.63386 0.34258 0.61986 0.0
N606 N 0.62126 0.37405 0.63227 0.0
N607 N 0.62713 0.31293 0.64709 0.0
C608 C 0.614 0.32801 0.66798 0.0
C609 C 0.611 0.3612 0.65993 0.0
C610 C 0.28159 0.53873 0.84302 0.0
C611 C 0.25006 0.5144 0.86305 0.0
C612 C 0.32442 0.56293 0.85135 0.0
C613 C 0.33737 0.564 0.88016 0.0
H614 H 0.27285 0.53977 0.82082 0.0
H615 H 0.34735 0.58173 0.83509 0.0
S616 S 0.26667 0.50311 0.94035 0.0
N617 N 0.23399 0.4904 0.9123 0.0
N618 N 0.31512 0.53637 0.9284 0.0
C619 C 0.30623 0.53826 0.90019 0.0
C620 C 0.26236 0.51332 0.89152 0.0
C621 C 0.64213 0.20501 0.03447 0.0
C622 C 0.63116 0.17153 0.05142 0.0
C623 C 0.67945 0.24211 0.04015 0.0
C624 C 0.70708 0.24726 0.06316 0.0
H625 H 0.62258 0.20218 0.01598 0.0
H626 H 0.68682 0.26688 0.02614 0.0
S627 S 0.69093 0.16918 0.11508 0.0
N628 N 0.64935 0.1458 0.09286 0.0
N629 N 0.71972 0.21603 0.10385 0.0
C630 C 0.69565 0.21431 0.08095 0.0
C631 C 0.65769 0.17628 0.07495 0.0
C632 C 0.56211 0.71518 0.20679 0.0
C633 C 0.55432 0.70147 0.17809 0.0
C634 C 0.55321 0.74377 0.21603 0.0
C635 C 0.53653 0.75969 0.19676 0.0
H636 H 0.57369 0.70267 0.22236 0.0
H637 H 0.558 0.75233 0.23859 0.0
S638 S 0.51654 0.73716 0.11828 0.0
N639 N 0.53308 0.70825 0.12994 0.0
N640 N 0.51695 0.7623 0.14683 0.0
C641 C 0.53104 0.74768 0.16758 0.0
C642 C 0.53973 0.71844 0.15837 0.0
C643 C 0.85839 0.52093 0.34614 0.0
C644 C 0.86939 0.49254 0.35206 0.0
C645 C 0.81992 0.51565 0.35588 0.0
C646 C 0.79047 0.48133 0.37131 0.0
H647 H 0.87915 0.54707 0.33323 0.0
H648 H 0.8124 0.5378 0.3503 0.0
S649 S 0.80458 0.39968 0.39487 0.0
N650 N 0.84868 0.43046 0.37686 0.0
N651 N 0.7751 0.41951 0.39348 0.0
C652 C 0.80098 0.45298 0.37782 0.0
C653 C 0.84069 0.4588 0.36858 0.0
C654 C 0.10645 0.59056 0.45868 0.0
C655 C 0.11443 0.57004 0.43751 0.0
C656 C 0.1295 0.60232 0.4848 0.0
C657 C 0.16185 0.59453 0.49052 0.0
H658 H 0.08236 0.59773 0.45496 0.0
H659 H 0.12223 0.61816 0.50041 0.0
S660 S 0.19585 0.54274 0.44122 0.0
N661 N 0.15716 0.54301 0.42347 0.0
N662 N 0.20068 0.56511 0.47235 0.0
C663 C 0.17004 0.57393 0.46938 0.0
C664 C 0.14629 0.5617 0.44294 0.0
C665 C 0.52579 0.05555 0.65612 0.0
C666 C 0.50904 0.06708 0.63356 0.0
C667 C 0.5419 0.07846 0.68153 0.0
C668 C 0.54235 0.11401 0.68514 0.0
H669 H 0.52724 0.02906 0.65387 0.0
H670 H 0.5554 0.06891 0.698 0.0
S671 S 0.50013 0.15619 0.6331 0.0
N672 N 0.49276 0.1158 0.6169 0.0
N673 N 0.52218 0.15828 0.66463 0.0
C674 C 0.52435 0.12509 0.66312 0.0
C675 C 0.5079 0.10178 0.63736 0.0
C676 C 0.51747 0.64357 0.74889 0.0
C677 C 0.50398 0.60452 0.73999 0.0
C678 C 0.51061 0.65128 0.77723 0.0
C679 C 0.49042 0.6202 0.79757 0.0
H680 H 0.53285 0.66812 0.73376 0.0
H681 H 0.52037 0.68158 0.78301 0.0
S682 S 0.4543 0.51364 0.78557 0.0
N683 N 0.47295 0.53524 0.75409 0.0
N684 N 0.46043 0.54947 0.80724 0.0
C685 C 0.4784 0.58132 0.78906 0.0
C686 C 0.48506 0.57354 0.7603 0.0
C687 C 0.87449 0.38228 0.92326 0.0
C688 C 0.89831 0.36553 0.91541 0.0
C689 C 0.85996 0.37938 0.95149 0.0
C690 C 0.86827 0.35924 0.97294 0.0
H691 H 0.86715 0.39794 0.90745 0.0
H692 H 0.84157 0.39261 0.95642 0.0
S693 S 0.93099 0.31187 0.96408 0.0
N694 N 0.93127 0.32969 0.93185 0.0
N695 N 0.90257 0.32303 0.98469 0.0
C696 C 0.89183 0.34216 0.96544 0.0
C697 C 0.90715 0.34556 0.93674 0.0
C698 C 0.5134 0.96654 0.15284 0.0
C699 C 0.50357 0.94453 0.12706 0.0
C700 C 0.51498 0.94998 0.17925 0.0
C701 C 0.50633 0.91071 0.18074 0.0
H702 H 0.52049 0.9969 0.15251 0.0
H703 H 0.52299 0.96811 0.19858 0.0
S704 S 0.47615 0.8401 0.11894 0.0
N705 N 0.4831 0.88124 0.10449 0.0
N706 N 0.4861 0.84997 0.15369 0.0
C707 C 0.4957 0.88828 0.15493 0.0
C708 C 0.49428 0.90522 0.12821 0.0
C709 C 0.65238 0.55023 0.28106 0.0
C710 C 0.61862 0.52569 0.26185 0.0
C711 C 0.6653 0.53372 0.3023 0.0
C712 C 0.64479 0.49197 0.30538 0.0
H713 H 0.66952 0.58255 0.27934 0.0
H714 H 0.69172 0.55402 0.31639 0.0
S715 S 0.55384 0.41432 0.26111 0.0
N716 N 0.56449 0.45724 0.24753 0.0
N717 N 0.58825 0.42633 0.28797 0.0
C718 C 0.61017 0.46698 0.28691 0.0
C719 C 0.59716 0.4838 0.26508 0.0
C720 C 0.49816 0.88696 0.36701 0.0
C721 C 0.47698 0.9073 0.37126 0.0
C722 C 0.49864 0.87168 0.33978 0.0
C723 C 0.47795 0.87621 0.31588 0.0
H724 H 0.51425 0.88266 0.3849 0.0
H725 H 0.51478 0.85569 0.33756 0.0
S726 S 0.42222 0.93117 0.31511 0.0
N727 N 0.4379 0.93402 0.34891 0.0
N728 N 0.43822 0.90497 0.29794 0.0
C729 C 0.45747 0.89728 0.31979 0.0
C730 C 0.45712 0.91289 0.34742 0.0
C731 C 0.59604 0.52719 0.45746 0.0
C732 C 0.57783 0.5002 0.48052 0.0
C733 C 0.61254 0.51839 0.43349 0.0
C734 C 0.61212 0.48267 0.43203 0.0
H735 H 0.59758 0.55531 0.45798 0.0
H736 H 0.62617 0.53996 0.41615 0.0
S737 S 0.56721 0.40167 0.48647 0.0
N738 N 0.56006 0.43609 0.50026 0.0
N739 N 0.59084 0.41959 0.45522 0.0
C740 C 0.59384 0.45537 0.45487 0.0
C741 C 0.57669 0.4641 0.47909 0.0
C742 C 0.12574 0.53105 0.66276 0.0
C743 C 0.09337 0.49031 0.6593 0.0
C744 C 0.15301 0.55324 0.64 0.0
C745 C 0.14905 0.53555 0.61285 0.0
H746 H 0.13104 0.54557 0.68356 0.0
H747 H 0.17808 0.58422 0.64401 0.0
S748 S 0.0667 0.43052 0.59208 0.0
N749 N 0.057 0.43378 0.62632 0.0
N750 N 0.10804 0.47515 0.58344 0.0
C751 C 0.11579 0.49508 0.60888 0.0
C752 C 0.08808 0.47255 0.63212 0.0
C753 C 0.58398 0.12746 0.86387 0.0
C754 C 0.56232 0.13985 0.88151 0.0
C755 C 0.59657 0.14232 0.83597 0.0
C756 C 0.5876 0.16985 0.82432 0.0
H757 H 0.59036 0.10523 0.87139 0.0
H758 H 0.61276 0.13143 0.82324 0.0
S759 S 0.53345 0.21337 0.86203 0.0
N760 N 0.53397 0.18257 0.8858 0.0
N761 N 0.55688 0.21004 0.83294 0.0
C762 C 0.56623 0.18281 0.84174 0.0
C763 C 0.55373 0.16788 0.87038 0.0
C764 C 0.5334 0.65649 0.99328 0.0
C765 C 0.52296 0.61898 0.00362 0.0
C766 C 0.52541 0.66128 0.96445 0.0
C767 C 0.50726 0.62883 0.94488 0.0
H768 H 0.54739 0.68218 0.00764 0.0
H769 H 0.53338 0.69063 0.95752 0.0
S770 S 0.47586 0.52467 0.96126 0.0
N771 N 0.49504 0.54916 0.99201 0.0
N772 N 0.47978 0.55797 0.938 0.0
C773 C 0.49743 0.5913 0.95493 0.0
C774 C 0.5053 0.58642 0.98427 0.0
C775 C 0.88239 0.42428 0.16973 0.0
C776 C 0.91882 0.42533 0.17997 0.0
C777 C 0.86513 0.40878 0.14234 0.0
C778 C 0.88359 0.39365 0.12407 0.0
H779 H 0.86712 0.4356 0.18297 0.0
H780 H 0.83702 0.40869 0.13548 0.0
S781 S 0.98054 0.39119 0.14026 0.0
N782 N 0.97383 0.41126 0.16933 0.0
N783 N 0.94086 0.38138 0.11811 0.0
C784 C 0.91993 0.39433 0.13411 0.0
C785 C 0.93767 0.41036 0.16197 0.0
loop_
_geom_bond_atom_site_label_1
_geom_bond_atom_site_label_2
_geom_bond_distance
_geom_bond_site_symmetry_2
_ccdc_geom_bond_type
H0 O26 0.856 . S
H1 O29 0.854 . S
H2 C37 0.930 1_455 S
H3 C38 0.930 . S
H4 C40 0.930 . S
H5 C41 0.930 . S
H6 C43 0.931 . S
H7 C44 0.930 . S
H8 C46 0.930 . S
H9 C47 0.929 . S
H10 C49 0.930 . S
H11 C50 0.931 . S
H12 C52 0.930 . S
H13 C53 0.929 . S
H14 C55 0.931 . S
H15 C56 0.930 . S
H16 C58 0.930 . S
H17 C59 0.932 . S
H18 C61 0.930 . S
H19 C62 0.929 . S
H20 C64 0.931 . S
H21 C65 0.930 . S
H22 C67 0.929 . S
H23 C68 0.931 . S
H24 C70 0.930 . S
H25 C71 0.929 . S
O26 H0 0.856 . S
O26 C72 1.300 . S
O27 C72 1.209 . S
O28 C73 1.199 . S
O29 H1 0.854 . S
O29 C73 1.297 . S
C30 C31 1.404 . S
C30 C35 1.397 . S
C30 C36 1.492 . S
C31 C30 1.404 . S
C31 C32 1.396 . S
C31 C42 1.492 . S
C32 C31 1.396 . S
C32 C33 1.397 . S
C32 C48 1.509 . S
C33 C32 1.397 . S
C33 C34 1.412 . S
C33 C54 1.485 . S
C34 C33 1.412 . S
C34 C35 1.388 . S
C34 C60 1.490 . S
C35 C30 1.397 . S
C35 C34 1.388 . S
C35 C66 1.519 1_455 S
C36 C30 1.492 . S
C36 C37 1.363 1_455 S
C36 C41 1.390 1_455 S
C37 H2 0.930 1_655 S
C37 C36 1.363 1_655 S
C37 C38 1.372 . S
C38 H3 0.930 . S
C38 C37 1.372 . S
C38 C39 1.383 . S
C39 C38 1.383 . S
C39 C40 1.395 . S
C40 H4 0.930 . S
C40 C39 1.395 . S
C40 C41 1.362 . S
C41 H5 0.930 . S
C41 C36 1.390 1_655 S
C41 C40 1.362 . S
C42 C31 1.492 . S
C42 C43 1.377 . S
C42 C47 1.397 . S
C43 H6 0.931 . S
C43 C42 1.377 . S
C43 C44 1.376 . S
C44 H7 0.930 . S
C44 C43 1.376 . S
C44 C45 1.376 . S
C45 C44 1.376 . S
C45 C46 1.378 . S
C45 C72 1.486 . S
C46 H8 0.930 . S
C46 C45 1.378 . S
C46 C47 1.376 . S
C47 H9 0.929 . S
C47 C42 1.397 . S
C47 C46 1.376 . S
C48 C32 1.509 . S
C48 C49 1.391 . S
C48 C53 1.386 . S
C49 H10 0.930 . S
C49 C48 1.391 . S
C49 C50 1.375 . S
C50 H11 0.931 . S
C50 C49 1.375 . S
C50 C51 1.375 . S
C51 C50 1.375 . S
C51 C52 1.361 . S
C52 H12 0.930 . S
C52 C51 1.361 . S
C52 C53 1.399 . S
C53 H13 0.929 . S
C53 C48 1.386 . S
C53 C52 1.399 . S
C54 C33 1.485 . S
C54 C55 1.394 . S
C54 C59 1.360 . S
C55 H14 0.931 . S
C55 C54 1.394 . S
C55 C56 1.372 . S
C56 H15 0.930 . S
C56 C55 1.372 . S
C56 C57 1.397 . S
C57 C56 1.397 . S
C57 C58 1.390 . S
C57 C73 1.476 . S
C58 H16 0.930 . S
C58 C57 1.390 . S
C58 C59 1.366 . S
C59 H17 0.932 . S
C59 C54 1.360 . S
C59 C58 1.366 . S
C60 C34 1.490 . S
C60 C61 1.380 . S
C60 C65 1.386 . S
C61 H18 0.930 . S
C61 C60 1.380 . S
C61 C62 1.381 . S
C62 H19 0.929 . S
C62 C61 1.381 . S
C62 C63 1.371 . S
C63 C62 1.371 . S
C63 C64 1.380 . S
C64 H20 0.931 . S
C64 C63 1.380 . S
C64 C65 1.387 . S
C65 H21 0.930 . S
C65 C60 1.386 . S
C65 C64 1.387 . S
C66 C35 1.519 1_655 S
C66 C67 1.377 . S
C66 C71 1.361 . S
C67 H22 0.929 . S
C67 C66 1.377 . S
C67 C68 1.386 . S
C68 H23 0.931 . S
C68 C67 1.386 . S
C68 C69 1.363 . S
C69 C68 1.363 . S
C69 C70 1.385 . S
C70 H24 0.930 . S
C70 C69 1.385 . S
C70 C71 1.396 . S
C71 H25 0.929 . S
C71 C66 1.361 . S
C71 C70 1.396 . S
C72 O26 1.300 . S
C72 O27 1.209 . S
C72 C45 1.486 . S
C73 O28 1.199 . S
C73 O29 1.297 . S
C73 C57 1.476 . S
H74 O100 0.856 . S
H75 O103 0.854 . S
H76 C111 0.930 1_545 S
H77 C112 0.930 . S
H78 C114 0.930 . S
H79 C115 0.930 . S
H80 C117 0.931 . S
H81 C118 0.930 . S
H82 C120 0.930 . S
H83 C121 0.929 . S
H84 C123 0.930 . S
H85 C124 0.931 . S
H86 C126 0.930 . S
H87 C127 0.929 . S
H88 C129 0.931 . S
H89 C130 0.930 . S
H90 C132 0.930 . S
H91 C133 0.932 . S
H92 C135 0.930 . S
H93 C136 0.929 . S
H94 C138 0.931 . S
H95 C139 0.930 . S
H96 C141 0.929 . S
H97 C142 0.931 . S
H98 C144 0.930 . S
H99 C145 0.929 . S
O100 H74 0.856 . S
O100 C146 1.300 . S
O101 C146 1.209 . S
O102 C147 1.199 . S
O103 H75 0.854 . S
O103 C147 1.297 . S
C104 C105 1.404 . S
C104 C109 1.397 . S
C104 C110 1.492 1_545 S
C105 C104 1.404 . S
C105 C106 1.396 . S
C105 C116 1.492 . S
C106 C105 1.396 . S
C106 C107 1.397 . S
C106 C122 1.509 . S
C107 C106 1.397 . S
C107 C108 1.412 . S
C107 C128 1.485 . S
C108 C107 1.412 . S
C108 C109 1.388 . S
C108 C134 1.490 . S
C109 C104 1.397 . S
C109 C108 1.388 . S
C109 C140 1.519 1_545 S
C110 C104 1.492 1_565 S
C110 C111 1.363 . S
C110 C115 1.390 . S
C111 H76 0.930 1_565 S
C111 C110 1.363 . S
C111 C112 1.372 . S
C112 H77 0.930 . S
C112 C111 1.372 . S
C112 C113 1.383 . S
C113 C112 1.383 . S
C113 C114 1.395 . S
C114 H78 0.930 . S
C114 C113 1.395 . S
C114 C115 1.362 . S
C115 H79 0.930 . S
C115 C110 1.390 . S
C115 C114 1.362 . S
C116 C105 1.492 . S
C116 C117 1.377 . S
C116 C121 1.397 . S
C117 H80 0.931 . S
C117 C116 1.377 . S
C117 C118 1.376 . S
C118 H81 0.930 . S
C118 C117 1.376 . S
C118 C119 1.376 . S
C119 C118 1.376 . S
C119 C120 1.378 . S
C119 C146 1.486 . S
C120 H82 0.930 . S
C120 C119 1.378 . S
C120 C121 1.376 . S
C121 H83 0.929 . S
C121 C116 1.397 . S
C121 C120 1.376 . S
C122 C106 1.509 . S
C122 C123 1.391 . S
C122 C127 1.386 . S
C123 H84 0.930 . S
C123 C122 1.391 . S
C123 C124 1.375 . S
C124 H85 0.931 . S
C124 C123 1.375 . S
C124 C125 1.375 . S
C125 C124 1.375 . S
C125 C126 1.361 . S
C126 H86 0.930 . S
C126 C125 1.361 . S
C126 C127 1.399 . S
C127 H87 0.929 . S
C127 C122 1.386 . S
C127 C126 1.399 . S
C128 C107 1.485 . S
C128 C129 1.394 . S
C128 C133 1.360 . S
C129 H88 0.931 . S
C129 C128 1.394 . S
C129 C130 1.372 . S
C130 H89 0.930 . S
C130 C129 1.372 . S
C130 C131 1.397 . S
C131 C130 1.397 . S
C131 C132 1.390 . S
C131 C147 1.476 . S
C132 H90 0.930 . S
C132 C131 1.390 . S
C132 C133 1.366 . S
C133 H91 0.932 . S
C133 C128 1.360 . S
C133 C132 1.366 . S
C134 C108 1.490 . S
C134 C135 1.380 . S
C134 C139 1.386 . S
C135 H92 0.930 . S
C135 C134 1.380 . S
C135 C136 1.381 . S
C136 H93 0.929 . S
C136 C135 1.381 . S
C136 C137 1.371 . S
C137 C136 1.371 . S
C137 C138 1.380 . S
C138 H94 0.931 . S
C138 C137 1.380 . S
C138 C139 1.387 . S
C139 H95 0.930 . S
C139 C134 1.386 . S
C139 C138 1.387 . S
C140 C109 1.519 1_565 S
C140 C141 1.377 . S
C140 C145 1.361 . S
C141 H96 0.929 . S
C141 C140 1.377 . S
C141 C142 1.386 . S
C142 H97 0.931 . S
C142 C141 1.386 . S
C142 C143 1.363 . S
C143 C142 1.363 . S
C143 C144 1.385 . S
C144 H98 0.930 . S
C144 C143 1.385 . S
C144 C145 1.396 . S
C145 H99 0.929 . S
C145 C140 1.361 . S
C145 C144 1.396 . S
C146 O100 1.300 . S
C146 O101 1.209 . S
C146 C119 1.486 . S
C147 O102 1.199 . S
C147 O103 1.297 . S
C147 C131 1.476 . S
H148 O174 0.856 . S
H149 O177 0.854 . S
H150 C185 0.930 . S
H151 C186 0.930 . S
H152 C188 0.930 . S
H153 C189 0.930 . S
H154 C191 0.931 . S
H155 C192 0.930 . S
H156 C194 0.930 . S
H157 C195 0.929 . S
H158 C197 0.930 . S
H159 C198 0.931 . S
H160 C200 0.930 . S
H161 C201 0.929 . S
H162 C203 0.931 . S
H163 C204 0.930 . S
H164 C206 0.930 . S
H165 C207 0.932 . S
H166 C209 0.930 . S
H167 C210 0.929 . S
H168 C212 0.931 . S
H169 C213 0.930 . S
H170 C215 0.929 . S
H171 C216 0.931 . S
H172 C218 0.930 . S
H173 C219 0.929 . S
O174 H148 0.856 . S
O174 C220 1.300 . S
O175 C220 1.209 . S
O176 C221 1.199 . S
O177 H149 0.854 . S
O177 C221 1.297 . S
C178 C179 1.404 . S
C178 C183 1.397 . S
C178 C184 1.492 . S
C179 C178 1.404 . S
C179 C180 1.396 . S
C179 C190 1.492 . S
C180 C179 1.396 . S
C180 C181 1.397 . S
C180 C196 1.509 . S
C181 C180 1.397 . S
C181 C182 1.412 . S
C181 C202 1.485 . S
C182 C181 1.412 . S
C182 C183 1.388 . S
C182 C208 1.490 . S
C183 C178 1.397 . S
C183 C182 1.388 . S
C183 C214 1.519 . S
C184 C178 1.492 . S
C184 C185 1.363 . S
C184 C189 1.390 . S
C185 H150 0.930 . S
C185 C184 1.363 . S
C185 C186 1.372 . S
C186 H151 0.930 . S
C186 C185 1.372 . S
C186 C187 1.383 . S
C187 C186 1.383 . S
C187 C188 1.395 . S
C188 H152 0.930 . S
C188 C187 1.395 . S
C188 C189 1.362 . S
C189 H153 0.930 . S
C189 C184 1.390 . S
C189 C188 1.362 . S
C190 C179 1.492 . S
C190 C191 1.377 . S
C190 C195 1.397 . S
C191 H154 0.931 . S
C191 C190 1.377 . S
C191 C192 1.376 . S
C192 H155 0.930 . S
C192 C191 1.376 . S
C192 C193 1.376 . S
C193 C192 1.376 . S
C193 C194 1.378 . S
C193 C220 1.486 . S
C194 H156 0.930 . S
C194 C193 1.378 . S
C194 C195 1.376 . S
C195 H157 0.929 . S
C195 C190 1.397 . S
C195 C194 1.376 . S
C196 C180 1.509 . S
C196 C197 1.391 . S
C196 C201 1.386 . S
C197 H158 0.930 . S
C197 C196 1.391 . S
C197 C198 1.375 . S
C198 H159 0.931 . S
C198 C197 1.375 . S
C198 C199 1.375 . S
C199 C198 1.375 . S
C199 C200 1.361 . S
C200 H160 0.930 . S
C200 C199 1.361 . S
C200 C201 1.399 . S
C201 H161 0.929 . S
C201 C196 1.386 . S
C201 C200 1.399 . S
C202 C181 1.485 . S
C202 C203 1.394 . S
C202 C207 1.360 . S
C203 H162 0.931 . S
C203 C202 1.394 . S
C203 C204 1.372 . S
C204 H163 0.930 . S
C204 C203 1.372 . S
C204 C205 1.397 . S
C205 C204 1.397 . S
C205 C206 1.390 . S
C205 C221 1.476 . S
C206 H164 0.930 . S
C206 C205 1.390 . S
C206 C207 1.366 . S
C207 H165 0.932 . S
C207 C202 1.360 . S
C207 C206 1.366 . S
C208 C182 1.490 . S
C208 C209 1.380 . S
C208 C213 1.386 . S
C209 H166 0.930 . S
C209 C208 1.380 . S
C209 C210 1.381 . S
C210 H167 0.929 . S
C210 C209 1.381 . S
C210 C211 1.371 . S
C211 C210 1.371 . S
C211 C212 1.380 . S
C212 H168 0.931 . S
C212 C211 1.380 . S
C212 C213 1.387 . S
C213 H169 0.930 . S
C213 C208 1.386 . S
C213 C212 1.387 . S
C214 C183 1.519 . S
C214 C215 1.377 . S
C214 C219 1.361 . S
C215 H170 0.929 . S
C215 C214 1.377 . S
C215 C216 1.386 . S
C216 H171 0.931 . S
C216 C215 1.386 . S
C216 C217 1.363 . S
C217 C216 1.363 . S
C217 C218 1.385 . S
C218 H172 0.930 . S
C218 C217 1.385 . S
C218 C219 1.396 . S
C219 H173 0.929 . S
C219 C214 1.361 . S
C219 C218 1.396 . S
C220 O174 1.300 . S
C220 O175 1.209 . S
C220 C193 1.486 . S
C221 O176 1.199 . S
C221 O177 1.297 . S
C221 C205 1.476 . S
H222 O248 0.856 . S
H223 O251 0.854 . S
H224 C259 0.930 1_455 S
H225 C260 0.930 . S
H226 C262 0.930 . S
H227 C263 0.930 . S
H228 C265 0.931 . S
H229 C266 0.930 . S
H230 C268 0.930 . S
H231 C269 0.929 . S
H232 C271 0.930 . S
H233 C272 0.931 . S
H234 C274 0.930 . S
H235 C275 0.929 . S
H236 C277 0.931 . S
H237 C278 0.930 . S
H238 C280 0.930 . S
H239 C281 0.932 . S
H240 C283 0.930 . S
H241 C284 0.929 . S
H242 C286 0.931 . S
H243 C287 0.930 . S
H244 C289 0.929 . S
H245 C290 0.931 . S
H246 C292 0.930 . S
H247 C293 0.929 . S
O248 H222 0.856 . S
O248 C294 1.300 . S
O249 C294 1.209 . S
O250 C295 1.199 . S
O251 H223 0.854 . S
O251 C295 1.297 . S
C252 C253 1.404 . S
C252 C257 1.397 . S
C252 C258 1.492 1_455 S
C253 C252 1.404 . S
C253 C254 1.396 . S
C253 C264 1.492 . S
C254 C253 1.396 . S
C254 C255 1.397 . S
C254 C270 1.509 . S
C255 C254 1.397 . S
C255 C256 1.412 . S
C255 C276 1.485 . S
C256 C255 1.412 . S
C256 C257 1.388 . S
C256 C282 1.490 . S
C257 C252 1.397 . S
C257 C256 1.388 . S
C257 C288 1.519 1_455 S
C258 C252 1.492 1_655 S
C258 C259 1.363 . S
C258 C263 1.390 . S
C259 H224 0.930 1_655 S
C259 C258 1.363 . S
C259 C260 1.372 . S
C260 H225 0.930 . S
C260 C259 1.372 . S
C260 C261 1.383 . S
C261 C260 1.383 . S
C261 C262 1.395 . S
C262 H226 0.930 . S
C262 C261 1.395 . S
C262 C263 1.362 . S
C263 H227 0.930 . S
C263 C258 1.390 . S
C263 C262 1.362 . S
C264 C253 1.492 . S
C264 C265 1.377 . S
C264 C269 1.397 . S
C265 H228 0.931 . S
C265 C264 1.377 . S
C265 C266 1.376 . S
C266 H229 0.930 . S
C266 C265 1.376 . S
C266 C267 1.376 . S
C267 C266 1.376 . S
C267 C268 1.378 . S
C267 C294 1.486 . S
C268 H230 0.930 . S
C268 C267 1.378 . S
C268 C269 1.376 . S
C269 H231 0.929 . S
C269 C264 1.397 . S
C269 C268 1.376 . S
C270 C254 1.509 . S
C270 C271 1.391 . S
C270 C275 1.386 . S
C271 H232 0.930 . S
C271 C270 1.391 . S
C271 C272 1.375 . S
C272 H233 0.931 . S
C272 C271 1.375 . S
C272 C273 1.375 . S
C273 C272 1.375 . S
C273 C274 1.361 . S
C274 H234 0.930 . S
C274 C273 1.361 . S
C274 C275 1.399 . S
C275 H235 0.929 . S
C275 C270 1.386 . S
C275 C274 1.399 . S
C276 C255 1.485 . S
C276 C277 1.394 . S
C276 C281 1.360 . S
C277 H236 0.931 . S
C277 C276 1.394 . S
C277 C278 1.372 . S
C278 H237 0.930 . S
C278 C277 1.372 . S
C278 C279 1.397 . S
C279 C278 1.397 . S
C279 C280 1.390 . S
C279 C295 1.476 . S
C280 H238 0.930 . S
C280 C279 1.390 . S
C280 C281 1.366 . S
C281 H239 0.932 . S
C281 C276 1.360 . S
C281 C280 1.366 . S
C282 C256 1.490 . S
C282 C283 1.380 . S
C282 C287 1.386 . S
C283 H240 0.930 . S
C283 C282 1.380 . S
C283 C284 1.381 . S
C284 H241 0.929 . S
C284 C283 1.381 . S
C284 C285 1.371 . S
C285 C284 1.371 . S
C285 C286 1.380 . S
C286 H242 0.931 . S
C286 C285 1.380 . S
C286 C287 1.387 . S
C287 H243 0.930 . S
C287 C282 1.386 . S
C287 C286 1.387 . S
C288 C257 1.519 1_655 S
C288 C289 1.377 . S
C288 C293 1.361 . S
C289 H244 0.929 . S
C289 C288 1.377 . S
C289 C290 1.386 . S
C290 H245 0.931 . S
C290 C289 1.386 . S
C290 C291 1.363 . S
C291 C290 1.363 . S
C291 C292 1.385 . S
C292 H246 0.930 . S
C292 C291 1.385 . S
C292 C293 1.396 . S
C293 H247 0.929 . S
C293 C288 1.361 . S
C293 C292 1.396 . S
C294 O248 1.300 . S
C294 O249 1.209 . S
C294 C267 1.486 . S
C295 O250 1.199 . S
C295 O251 1.297 . S
C295 C279 1.476 . S
H296 O322 0.856 . S
H297 O325 0.854 . S
H298 C333 0.930 . S
H299 C334 0.930 . S
H300 C336 0.930 . S
H301 C337 0.930 . S
H302 C339 0.931 . S
H303 C340 0.930 . S
H304 C342 0.930 . S
H305 C343 0.929 . S
H306 C345 0.930 . S
H307 C346 0.931 . S
H308 C348 0.930 . S
H309 C349 0.929 . S
H310 C351 0.931 . S
H311 C352 0.930 . S
H312 C354 0.930 . S
H313 C355 0.938 . S
H314 C357 0.930 . S
H315 C358 0.927 1_545 S
H316 C360 0.931 . S
H317 C361 0.930 . S
H318 C363 0.929 . S
H319 C364 0.931 . S
H320 C366 0.930 . S
H321 C367 0.929 . S
O322 H296 0.856 . S
O322 C368 1.300 . S
O323 C368 1.209 . S
O324 C369 1.199 . S
O325 H297 0.854 . S
O325 C369 1.297 . S
C326 C327 1.385 1_545 S
C326 C331 1.399 . S
C326 C332 1.509 . S
C327 C326 1.385 1_565 S
C327 C328 1.396 . S
C327 C338 1.492 . S
C328 C327 1.396 . S
C328 C329 1.397 . S
C328 C344 1.509 . S
C329 C328 1.397 . S
C329 C330 1.412 1_556 S
C329 C350 1.485 1_556 S
C330 C329 1.412 1_554 S
C330 C331 1.388 1_564 S
C330 C356 1.490 . S
C331 C326 1.399 . S
C331 C330 1.388 1_546 S
C331 C362 1.519 . S
C332 C326 1.509 . S
C332 C333 1.363 . S
C332 C337 1.390 . S
C333 H298 0.930 . S
C333 C332 1.363 . S
C333 C334 1.372 . S
C334 H299 0.930 . S
C334 C333 1.372 . S
C334 C335 1.383 . S
C335 C334 1.383 . S
C335 C336 1.395 . S
C336 H300 0.930 . S
C336 C335 1.395 . S
C336 C337 1.362 . S
C337 H301 0.930 . S
C337 C332 1.390 . S
C337 C336 1.362 . S
C338 C327 1.492 . S
C338 C339 1.377 . S
C338 C343 1.397 . S
C339 H302 0.931 . S
C339 C338 1.377 . S
C339 C340 1.376 . S
C340 H303 0.930 . S
C340 C339 1.376 . S
C340 C341 1.376 . S
C341 C340 1.376 . S
C341 C342 1.378 . S
C341 C368 1.486 . S
C342 H304 0.930 . S
C342 C341 1.378 . S
C342 C343 1.376 . S
C343 H305 0.929 . S
C343 C338 1.397 . S
C343 C342 1.376 . S
C344 C328 1.509 . S
C344 C345 1.391 . S
C344 C349 1.386 . S
C345 H306 0.930 . S
C345 C344 1.391 . S
C345 C346 1.375 . S
C346 H307 0.931 . S
C346 C345 1.375 . S
C346 C347 1.375 . S
C347 C346 1.375 . S
C347 C348 1.361 . S
C348 H308 0.930 . S
C348 C347 1.361 . S
C348 C349 1.399 . S
C349 H309 0.929 . S
C349 C344 1.386 . S
C349 C348 1.399 . S
C350 C329 1.485 1_554 S
C350 C351 1.394 . S
C350 C355 1.360 . S
C351 H310 0.931 . S
C351 C350 1.394 . S
C351 C352 1.372 . S
C352 H311 0.930 . S
C352 C351 1.372 . S
C352 C353 1.397 . S
C353 C352 1.397 . S
C353 C354 1.390 . S
C353 C369 1.476 . S
C354 H312 0.930 . S
C354 C353 1.390 . S
C354 C355 1.366 . S
C355 H313 0.938 . S
C355 C350 1.360 . S
C355 C354 1.366 . S
C356 C330 1.490 . S
C356 C357 1.380 . S
C356 C361 1.386 . S
C357 H314 0.930 . S
C357 C356 1.380 . S
C357 C358 1.381 . S
C358 H315 0.927 1_565 S
C358 C357 1.381 . S
C358 C359 1.371 . S
C359 C358 1.371 . S
C359 C360 1.380 . S
C360 H316 0.931 . S
C360 C359 1.380 . S
C360 C361 1.387 . S
C361 H317 0.930 . S
C361 C356 1.386 . S
C361 C360 1.387 . S
C362 C331 1.519 . S
C362 C363 1.377 . S
C362 C367 1.361 1_556 S
C363 H318 0.929 . S
C363 C362 1.377 . S
C363 C364 1.386 1_556 S
C364 H319 0.931 . S
C364 C363 1.386 1_554 S
C364 C365 1.363 . S
C365 C364 1.363 . S
C365 C366 1.385 . S
C366 H320 0.930 . S
C366 C365 1.385 . S
C366 C367 1.396 . S
C367 H321 0.929 . S
C367 C362 1.361 1_554 S
C367 C366 1.396 . S
C368 O322 1.300 . S
C368 O323 1.209 . S
C368 C341 1.486 . S
C369 O324 1.199 . S
C369 O325 1.297 . S
C369 C353 1.476 . S
H370 O396 0.856 . S
H371 O399 0.854 . S
H372 C407 0.930 . S
H373 C408 0.930 . S
H374 C410 0.930 . S
H375 C411 0.930 . S
H376 C413 0.931 . S
H377 C414 0.930 . S
H378 C416 0.928 . S
H379 C417 0.929 . S
H380 C419 0.930 . S
H381 C420 0.931 . S
H382 C422 0.930 . S
H383 C423 0.929 . S
H384 C425 0.931 . S
H385 C426 0.930 . S
H386 C428 0.930 . S
H387 C429 0.932 . S
H388 C431 0.930 . S
H389 C432 0.929 . S
H390 C434 0.931 . S
H391 C435 0.930 . S
H392 C437 0.929 . S
H393 C438 0.931 . S
H394 C440 0.930 . S
H395 C441 0.929 . S
O396 H370 0.856 . S
O396 C442 1.300 . S
O397 C442 1.209 . S
O398 C443 1.199 . S
O399 H371 0.854 . S
O399 C443 1.297 . S
C400 C401 1.404 . S
C400 C405 1.397 . S
C400 C406 1.492 . S
C401 C400 1.404 . S
C401 C402 1.396 . S
C401 C412 1.492 . S
C402 C401 1.396 . S
C402 C403 1.397 . S
C402 C418 1.509 . S
C403 C402 1.397 . S
C403 C404 1.412 . S
C403 C424 1.485 . S
C404 C403 1.412 . S
C404 C405 1.388 . S
C404 C430 1.490 . S
C405 C400 1.397 . S
C405 C404 1.388 . S
C405 C436 1.519 . S
C406 C400 1.492 . S
C406 C407 1.363 . S
C406 C411 1.390 . S
C407 H372 0.930 . S
C407 C406 1.363 . S
C407 C408 1.372 . S
C408 H373 0.930 . S
C408 C407 1.372 . S
C408 C409 1.383 . S
C409 C408 1.383 . S
C409 C410 1.395 . S
C410 H374 0.930 . S
C410 C409 1.395 . S
C410 C411 1.362 . S
C411 H375 0.930 . S
C411 C406 1.390 . S
C411 C410 1.362 . S
C412 C401 1.492 . S
C412 C413 1.377 . S
C412 C417 1.397 . S
C413 H376 0.931 . S
C413 C412 1.377 . S
C413 C414 1.376 . S
C414 H377 0.930 . S
C414 C413 1.376 . S
C414 C415 1.376 1_554 S
C415 C414 1.376 1_556 S
C415 C416 1.378 1_556 S
C415 C442 1.486 . S
C416 H378 0.928 . S
C416 C415 1.378 1_554 S
C416 C417 1.376 . S
C417 H379 0.929 . S
C417 C412 1.397 . S
C417 C416 1.376 . S
C418 C402 1.509 . S
C418 C419 1.391 . S
C418 C423 1.386 . S
C419 H380 0.930 . S
C419 C418 1.391 . S
C419 C420 1.375 . S
C420 H381 0.931 . S
C420 C419 1.375 . S
C420 C421 1.375 . S
C421 C420 1.375 . S
C421 C422 1.361 . S
C422 H382 0.930 . S
C422 C421 1.361 . S
C422 C423 1.399 . S
C423 H383 0.929 . S
C423 C418 1.386 . S
C423 C422 1.399 . S
C424 C403 1.485 . S
C424 C425 1.394 . S
C424 C429 1.360 . S
C425 H384 0.931 . S
C425 C424 1.394 . S
C425 C426 1.372 . S
C426 H385 0.930 . S
C426 C425 1.372 . S
C426 C427 1.397 . S
C427 C426 1.397 . S
C427 C428 1.390 . S
C427 C443 1.476 . S
C428 H386 0.930 . S
C428 C427 1.390 . S
C428 C429 1.366 . S
C429 H387 0.932 . S
C429 C424 1.360 . S
C429 C428 1.366 . S
C430 C404 1.490 . S
C430 C431 1.380 . S
C430 C435 1.386 . S
C431 H388 0.930 . S
C431 C430 1.380 . S
C431 C432 1.381 . S
C432 H389 0.929 . S
C432 C431 1.381 . S
C432 C433 1.371 . S
C433 C432 1.371 . S
C433 C434 1.380 . S
C434 H390 0.931 . S
C434 C433 1.380 . S
C434 C435 1.387 . S
C435 H391 0.930 . S
C435 C430 1.386 . S
C435 C434 1.387 . S
C436 C405 1.519 . S
C436 C437 1.377 . S
C436 C441 1.361 . S
C437 H392 0.929 . S
C437 C436 1.377 . S
C437 C438 1.386 . S
C438 H393 0.931 . S
C438 C437 1.386 . S
C438 C439 1.363 . S
C439 C438 1.363 . S
C439 C440 1.385 . S
C440 H394 0.930 . S
C440 C439 1.385 . S
C440 C441 1.396 . S
C441 H395 0.929 . S
C441 C436 1.361 . S
C441 C440 1.396 . S
C442 O396 1.300 . S
C442 O397 1.209 . S
C442 C415 1.486 . S
C443 O398 1.199 . S
C443 O399 1.297 . S
C443 C427 1.476 . S
C444 O445 1.160 . S
C444 O451 1.185 . S
O445 C444 1.160 . S
O446 Zn447 1.899 . S
O446 C454 1.284 . S
Zn447 O446 1.899 . S
Zn447 O448 2.032 . S
Zn447 O451 2.086 . S
Zn447 O456 1.977 . S
O448 Zn447 2.032 . S
O448 C452 1.278 . S
C449 O450 1.203 . S
C449 O456 1.267 . S
O450 C449 1.203 . S
O451 C444 1.185 . S
O451 Zn447 2.086 . S
C452 O448 1.278 . S
C452 O453 1.211 . S
O453 C452 1.211 . S
C454 O446 1.284 . S
C454 O455 1.273 . S
O455 C454 1.273 . S
O456 Zn447 1.977 . S
O456 C449 1.267 . S
C457 O458 1.160 . S
C457 O464 1.185 . S
O458 C457 1.160 . S
O459 Zn460 1.899 . S
O459 C467 1.284 . S
Zn460 O459 1.899 . S
Zn460 O461 2.032 . S
Zn460 O464 2.086 . S
Zn460 O469 1.977 . S
O461 Zn460 2.032 . S
O461 C465 1.278 . S
C462 O463 1.203 . S
C462 O469 1.267 . S
O463 C462 1.203 . S
O464 C457 1.185 . S
O464 Zn460 2.086 . S
C465 O461 1.278 . S
C465 O466 1.211 . S
O466 C465 1.211 . S
C467 O459 1.284 . S
C467 O468 1.273 . S
O468 C467 1.273 . S
O469 Zn460 1.977 . S
O469 C462 1.267 . S
C470 O471 1.160 . S
C470 O477 1.185 . S
O471 C470 1.160 . S
O472 Zn473 1.899 . S
O472 C480 1.284 . S
Zn473 O472 1.899 . S
Zn473 O474 2.032 . S
Zn473 O477 2.086 . S
Zn473 O482 1.977 . S
O474 Zn473 2.032 . S
O474 C478 1.278 . S
C475 O476 1.203 . S
C475 O482 1.267 . S
O476 C475 1.203 . S
O477 C470 1.185 . S
O477 Zn473 2.086 . S
C478 O474 1.278 . S
C478 O479 1.211 . S
O479 C478 1.211 . S
C480 O472 1.284 . S
C480 O481 1.273 . S
O481 C480 1.273 . S
O482 Zn473 1.977 . S
O482 C475 1.267 . S
C483 O484 1.160 . S
C483 O490 1.185 . S
O484 C483 1.160 . S
O485 Zn486 1.899 . S
O485 C493 1.284 . S
Zn486 O485 1.899 . S
Zn486 O487 2.032 . S
Zn486 O490 2.086 . S
Zn486 O495 1.977 . S
O487 Zn486 2.032 . S
O487 C491 1.278 . S
C488 O489 1.203 . S
C488 O495 1.267 . S
O489 C488 1.203 . S
O490 C483 1.185 . S
O490 Zn486 2.086 . S
C491 O487 1.278 . S
C491 O492 1.211 . S
O492 C491 1.211 . S
C493 O485 1.284 . S
C493 O494 1.273 . S
O494 C493 1.273 . S
O495 Zn486 1.977 . S
O495 C488 1.267 . S
C496 O497 1.160 . S
C496 O503 1.185 . S
O497 C496 1.160 . S
O498 Zn499 1.899 . S
O498 C506 1.284 . S
Zn499 O498 1.899 . S
Zn499 O500 2.032 . S
Zn499 O503 2.086 . S
Zn499 O508 1.977 . S
O500 Zn499 2.032 . S
O500 C504 1.278 . S
C501 O502 1.203 . S
C501 O508 1.267 . S
O502 C501 1.203 . S
O503 C496 1.185 . S
O503 Zn499 2.086 . S
C504 O500 1.278 . S
C504 O505 1.211 . S
O505 C504 1.211 . S
C506 O498 1.284 . S
C506 O507 1.273 . S
O507 C506 1.273 . S
O508 Zn499 1.977 . S
O508 C501 1.267 . S
C509 O510 1.160 . S
C509 O516 1.185 . S
O510 C509 1.160 . S
O511 Zn512 1.899 . S
O511 C519 1.284 . S
Zn512 O511 1.899 . S
Zn512 O513 2.032 . S
Zn512 O516 2.086 . S
Zn512 O521 1.977 . S
O513 Zn512 2.032 . S
O513 C517 1.278 . S
C514 O515 1.203 . S
C514 O521 1.267 . S
O515 C514 1.203 . S
O516 C509 1.185 . S
O516 Zn512 2.086 . S
C517 O513 1.278 . S
C517 O518 1.211 . S
O518 C517 1.211 . S
C519 O511 1.284 . S
C519 O520 1.273 . S
O520 C519 1.273 . S
O521 Zn512 1.977 . S
O521 C514 1.267 . S
C522 C523 1.369 . S
C522 C524 1.419 . S
C522 H526 0.930 . S
C523 C522 1.369 . S
C523 C532 1.429 . S
C524 C522 1.419 . S
C524 C525 1.363 . S
C524 H527 0.929 . S
C525 C524 1.363 . S
C525 C531 1.428 . S
H526 C522 0.930 . S
H527 C524 0.929 . S
S528 N529 1.613 . S
S528 N530 1.610 . S
N529 S528 1.613 . S
N529 C532 1.350 . S
N530 S528 1.610 . S
N530 C531 1.351 . S
C531 C525 1.428 . S
C531 N530 1.351 . S
C531 C532 1.434 . S
C532 C523 1.429 . S
C532 N529 1.350 . S
C532 C531 1.434 . S
C533 C534 1.369 . S
C533 C535 1.419 . S
C533 H537 0.930 . S
C534 C533 1.369 . S
C534 C543 1.429 . S
C535 C533 1.419 . S
C535 C536 1.363 . S
C535 H538 0.929 . S
C536 C535 1.363 . S
C536 C542 1.428 . S
H537 C533 0.930 . S
H538 C535 0.929 . S
S539 N540 1.613 . S
S539 N541 1.610 . S
N540 S539 1.613 . S
N540 C543 1.350 . S
N541 S539 1.610 . S
N541 C542 1.351 . S
C542 C536 1.428 . S
C542 N541 1.351 . S
C542 C543 1.434 . S
C543 C534 1.429 . S
C543 N540 1.350 . S
C543 C542 1.434 . S
C544 C545 1.369 . S
C544 C546 1.419 . S
C544 H548 0.930 . S
C545 C544 1.369 . S
C545 C554 1.429 . S
C546 C544 1.419 . S
C546 C547 1.363 . S
C546 H549 0.929 . S
C547 C546 1.363 . S
C547 C553 1.428 . S
H548 C544 0.930 . S
H549 C546 0.929 . S
S550 N551 1.613 . S
S550 N552 1.610 . S
N551 S550 1.613 . S
N551 C554 1.350 . S
N552 S550 1.610 . S
N552 C553 1.351 . S
C553 C547 1.428 . S
C553 N552 1.351 . S
C553 C554 1.434 . S
C554 C545 1.429 . S
C554 N551 1.350 . S
C554 C553 1.434 . S
C555 C556 1.369 . S
C555 C557 1.419 . S
C555 H559 0.930 . S
C556 C555 1.369 . S
C556 C565 1.429 . S
C557 C555 1.419 . S
C557 C558 1.363 . S
C557 H560 0.929 . S
C558 C557 1.363 . S
C558 C564 1.428 . S
H559 C555 0.930 . S
H560 C557 0.929 . S
S561 N562 1.613 . S
S561 N563 1.610 . S
N562 S561 1.613 . S
N562 C565 1.350 . S
N563 S561 1.610 . S
N563 C564 1.351 . S
C564 C558 1.428 . S
C564 N563 1.351 . S
C564 C565 1.434 . S
C565 C556 1.429 . S
C565 N562 1.350 . S
C565 C564 1.434 . S
C566 C567 1.369 . S
C566 C568 1.419 . S
C566 H570 0.930 . S
C567 C566 1.369 . S
C567 C576 1.429 . S
C568 C566 1.419 . S
C568 C569 1.363 . S
C568 H571 0.929 . S
C569 C568 1.363 . S
C569 C575 1.428 . S
H570 C566 0.930 . S
H571 C568 0.929 . S
S572 N573 1.613 . S
S572 N574 1.610 . S
N573 S572 1.613 . S
N573 C576 1.350 . S
N574 S572 1.610 . S
N574 C575 1.351 . S
C575 C569 1.428 . S
C575 N574 1.351 . S
C575 C576 1.434 . S
C576 C567 1.429 . S
C576 N573 1.350 . S
C576 C575 1.434 . S
C577 C578 1.369 . S
C577 C579 1.419 . S
C577 H581 0.930 . S
C578 C577 1.369 . S
C578 C587 1.429 . S
C579 C577 1.419 . S
C579 C580 1.363 . S
C579 H582 0.929 . S
C580 C579 1.363 . S
C580 C586 1.428 . S
H581 C577 0.930 . S
H582 C579 0.929 . S
S583 N584 1.613 1_556 S
S583 N585 1.610 1_556 S
N584 S583 1.613 1_554 S
N584 C587 1.350 . S
N585 S583 1.610 1_554 S
N585 C586 1.351 . S
C586 C580 1.428 . S
C586 N585 1.351 . S
C586 C587 1.434 . S
C587 C578 1.429 . S
C587 N584 1.350 . S
C587 C586 1.434 . S
C588 C589 1.369 . S
C588 C590 1.419 . S
C588 H592 0.930 . S
C589 C588 1.369 . S
C589 C598 1.429 . S
C590 C588 1.419 . S
C590 C591 1.363 . S
C590 H593 0.929 . S
C591 C590 1.363 . S
C591 C597 1.428 . S
H592 C588 0.930 . S
H593 C590 0.929 . S
S594 N595 1.613 . S
S594 N596 1.610 . S
N595 S594 1.613 . S
N595 C598 1.350 . S
N596 S594 1.610 . S
N596 C597 1.351 . S
C597 C591 1.428 . S
C597 N596 1.351 . S
C597 C598 1.434 . S
C598 C589 1.429 . S
C598 N595 1.350 . S
C598 C597 1.434 . S
C599 C600 1.369 . S
C599 C601 1.419 . S
C599 H603 0.930 . S
C600 C599 1.369 . S
C600 C609 1.429 . S
C601 C599 1.419 . S
C601 C602 1.363 . S
C601 H604 0.929 . S
C602 C601 1.363 . S
C602 C608 1.428 . S
H603 C599 0.930 . S
H604 C601 0.929 . S
S605 N606 1.613 . S
S605 N607 1.610 . S
N606 S605 1.613 . S
N606 C609 1.350 . S
N607 S605 1.610 . S
N607 C608 1.351 . S
C608 C602 1.428 . S
C608 N607 1.351 . S
C608 C609 1.434 . S
C609 C600 1.429 . S
C609 N606 1.350 . S
C609 C608 1.434 . S
C610 C611 1.369 . S
C610 C612 1.419 . S
C610 H614 0.930 . S
C611 C610 1.369 . S
C611 C620 1.429 . S
C612 C610 1.419 . S
C612 C613 1.363 . S
C612 H615 0.929 . S
C613 C612 1.363 . S
C613 C619 1.428 . S
H614 C610 0.930 . S
H615 C612 0.929 . S
S616 N617 1.613 . S
S616 N618 1.610 . S
N617 S616 1.613 . S
N617 C620 1.350 . S
N618 S616 1.610 . S
N618 C619 1.351 . S
C619 C613 1.428 . S
C619 N618 1.351 . S
C619 C620 1.434 . S
C620 C611 1.429 . S
C620 N617 1.350 . S
C620 C619 1.434 . S
C621 C622 1.369 . S
C621 C623 1.419 . S
C621 H625 0.933 1_554 S
C622 C621 1.369 . S
C622 C631 1.429 . S
C623 C621 1.419 . S
C623 C624 1.363 . S
C623 H626 0.929 . S
C624 C623 1.363 . S
C624 C630 1.428 . S
H625 C621 0.933 1_556 S
H626 C623 0.929 . S
S627 N628 1.613 . S
S627 N629 1.610 . S
N628 S627 1.613 . S
N628 C631 1.350 . S
N629 S627 1.610 . S
N629 C630 1.351 . S
C630 C624 1.428 . S
C630 N629 1.351 . S
C630 C631 1.434 . S
C631 C622 1.429 . S
C631 N628 1.350 . S
C631 C630 1.434 . S
C632 C633 1.369 . S
C632 C634 1.419 . S
C632 H636 0.930 . S
C633 C632 1.369 . S
C633 C642 1.429 . S
C634 C632 1.419 . S
C634 C635 1.363 . S
C634 H637 0.929 . S
C635 C634 1.363 . S
C635 C641 1.428 . S
H636 C632 0.930 . S
H637 C634 0.929 . S
S638 N639 1.613 . S
S638 N640 1.610 . S
N639 S638 1.613 . S
N639 C642 1.350 . S
N640 S638 1.610 . S
N640 C641 1.351 . S
C641 C635 1.428 . S
C641 N640 1.351 . S
C641 C642 1.434 . S
C642 C633 1.429 . S
C642 N639 1.350 . S
C642 C641 1.434 . S
C643 C644 1.369 . S
C643 C645 1.419 . S
C643 H647 0.930 . S
C644 C643 1.369 . S
C644 C653 1.429 . S
C645 C643 1.419 . S
C645 C646 1.363 . S
C645 H648 0.929 . S
C646 C645 1.363 . S
C646 C652 1.428 . S
H647 C643 0.930 . S
H648 C645 0.929 . S
S649 N650 1.613 . S
S649 N651 1.610 . S
N650 S649 1.613 . S
N650 C653 1.350 . S
N651 S649 1.610 . S
N651 C652 1.351 . S
C652 C646 1.428 . S
C652 N651 1.351 . S
C652 C653 1.434 . S
C653 C644 1.429 . S
C653 N650 1.350 . S
C653 C652 1.434 . S
C654 C655 1.369 . S
C654 C656 1.419 . S
C654 H658 0.930 . S
C655 C654 1.369 . S
C655 C664 1.429 . S
C656 C654 1.419 . S
C656 C657 1.363 . S
C656 H659 0.929 . S
C657 C656 1.363 . S
C657 C663 1.428 . S
H658 C654 0.930 . S
H659 C656 0.929 . S
S660 N661 1.613 . S
S660 N662 1.610 . S
N661 S660 1.613 . S
N661 C664 1.350 . S
N662 S660 1.610 . S
N662 C663 1.351 . S
C663 C657 1.428 . S
C663 N662 1.351 . S
C663 C664 1.434 . S
C664 C655 1.429 . S
C664 N661 1.350 . S
C664 C663 1.434 . S
C665 C666 1.369 . S
C665 C667 1.419 . S
C665 H669 0.930 . S
C666 C665 1.369 . S
C666 C675 1.429 . S
C667 C665 1.419 . S
C667 C668 1.363 . S
C667 H670 0.929 . S
C668 C667 1.363 . S
C668 C674 1.428 . S
H669 C665 0.930 . S
H670 C667 0.929 . S
S671 N672 1.613 . S
S671 N673 1.610 . S
N672 S671 1.613 . S
N672 C675 1.350 . S
N673 S671 1.610 . S
N673 C674 1.351 . S
C674 C668 1.428 . S
C674 N673 1.351 . S
C674 C675 1.434 . S
C675 C666 1.429 . S
C675 N672 1.350 . S
C675 C674 1.434 . S
C676 C677 1.369 . S
C676 C678 1.419 . S
C676 H680 0.930 . S
C677 C676 1.369 . S
C677 C686 1.429 . S
C678 C676 1.419 . S
C678 C679 1.363 . S
C678 H681 0.929 . S
C679 C678 1.363 . S
C679 C685 1.428 . S
H680 C676 0.930 . S
H681 C678 0.929 . S
S682 N683 1.613 . S
S682 N684 1.610 . S
N683 S682 1.613 . S
N683 C686 1.350 . S
N684 S682 1.610 . S
N684 C685 1.351 . S
C685 C679 1.428 . S
C685 N684 1.351 . S
C685 C686 1.434 . S
C686 C677 1.429 . S
C686 N683 1.350 . S
C686 C685 1.434 . S
C687 C688 1.369 . S
C687 C689 1.419 . S
C687 H691 0.930 . S
C688 C687 1.369 . S
C688 C697 1.429 . S
C689 C687 1.419 . S
C689 C690 1.363 . S
C689 H692 0.929 . S
C690 C689 1.363 . S
C690 C696 1.428 . S
H691 C687 0.930 . S
H692 C689 0.929 . S
S693 N694 1.613 . S
S693 N695 1.610 . S
N694 S693 1.613 . S
N694 C697 1.350 . S
N695 S693 1.610 . S
N695 C696 1.351 . S
C696 C690 1.428 . S
C696 N695 1.351 . S
C696 C697 1.434 . S
C697 C688 1.429 . S
C697 N694 1.350 . S
C697 C696 1.434 . S
C698 C699 1.369 . S
C698 C700 1.419 . S
C698 H702 0.930 . S
C699 C698 1.369 . S
C699 C708 1.429 . S
C700 C698 1.419 . S
C700 C701 1.363 . S
C700 H703 0.929 . S
C701 C700 1.363 . S
C701 C707 1.428 . S
H702 C698 0.930 . S
H703 C700 0.929 . S
S704 N705 1.613 . S
S704 N706 1.610 . S
N705 S704 1.613 . S
N705 C708 1.350 . S
N706 S704 1.610 . S
N706 C707 1.351 . S
C707 C701 1.428 . S
C707 N706 1.351 . S
C707 C708 1.434 . S
C708 C699 1.429 . S
C708 N705 1.350 . S
C708 C707 1.434 . S
C709 C710 1.369 . S
C709 C711 1.419 . S
C709 H713 0.930 . S
C710 C709 1.369 . S
C710 C719 1.429 . S
C711 C709 1.419 . S
C711 C712 1.363 . S
C711 H714 0.929 . S
C712 C711 1.363 . S
C712 C718 1.428 . S
H713 C709 0.930 . S
H714 C711 0.929 . S
S715 N716 1.613 . S
S715 N717 1.610 . S
N716 S715 1.613 . S
N716 C719 1.350 . S
N717 S715 1.610 . S
N717 C718 1.351 . S
C718 C712 1.428 . S
C718 N717 1.351 . S
C718 C719 1.434 . S
C719 C710 1.429 . S
C719 N716 1.350 . S
C719 C718 1.434 . S
C720 C721 1.369 . S
C720 C722 1.419 . S
C720 H724 0.930 . S
C721 C720 1.369 . S
C721 C730 1.429 . S
C722 C720 1.419 . S
C722 C723 1.363 . S
C722 H725 0.929 . S
C723 C722 1.363 . S
C723 C729 1.428 . S
H724 C720 0.930 . S
H725 C722 0.929 . S
S726 N727 1.619 . S
S726 N728 1.627 . S
N727 S726 1.619 . S
N727 C730 1.350 . S
N728 S726 1.627 . S
N728 C729 1.351 . S
C729 C723 1.428 . S
C729 N728 1.351 . S
C729 C730 1.434 . S
C730 C721 1.429 . S
C730 N727 1.350 . S
C730 C729 1.434 . S
C731 C732 1.369 . S
C731 C733 1.419 . S
C731 H735 0.930 . S
C732 C731 1.369 . S
C732 C741 1.429 . S
C733 C731 1.419 . S
C733 C734 1.363 . S
C733 H736 0.929 . S
C734 C733 1.363 . S
C734 C740 1.428 . S
H735 C731 0.930 . S
H736 C733 0.929 . S
S737 N738 1.613 . S
S737 N739 1.610 . S
N738 S737 1.613 . S
N738 C741 1.350 . S
N739 S737 1.610 . S
N739 C740 1.351 . S
C740 C734 1.428 . S
C740 N739 1.351 . S
C740 C741 1.434 . S
C741 C732 1.429 . S
C741 N738 1.350 . S
C741 C740 1.434 . S
C742 C743 1.369 . S
C742 C744 1.419 . S
C742 H746 0.930 . S
C743 C742 1.369 . S
C743 C752 1.429 . S
C744 C742 1.419 . S
C744 C745 1.363 . S
C744 H747 0.929 . S
C745 C744 1.363 . S
C745 C751 1.428 . S
H746 C742 0.930 . S
H747 C744 0.929 . S
S748 N749 1.613 . S
S748 N750 1.610 . S
N749 S748 1.613 . S
N749 C752 1.350 . S
N750 S748 1.610 . S
N750 C751 1.351 . S
C751 C745 1.428 . S
C751 N750 1.351 . S
C751 C752 1.434 . S
C752 C743 1.429 . S
C752 N749 1.350 . S
C752 C751 1.434 . S
C753 C754 1.369 . S
C753 C755 1.419 . S
C753 H757 0.930 . S
C754 C753 1.369 . S
C754 C763 1.429 . S
C755 C753 1.419 . S
C755 C756 1.363 . S
C755 H758 0.929 . S
C756 C755 1.363 . S
C756 C762 1.428 . S
H757 C753 0.930 . S
H758 C755 0.929 . S
S759 N760 1.613 . S
S759 N761 1.610 . S
N760 S759 1.613 . S
N760 C763 1.350 . S
N761 S759 1.610 . S
N761 C762 1.351 . S
C762 C756 1.428 . S
C762 N761 1.351 . S
C762 C763 1.434 . S
C763 C754 1.429 . S
C763 N760 1.350 . S
C763 C762 1.434 . S
C764 C765 1.369 . S
C764 C766 1.419 1_554 S
C764 H768 0.930 . S
C765 C764 1.369 . S
C765 C774 1.429 . S
C766 C764 1.419 1_556 S
C766 C767 1.363 . S
C766 H769 0.929 . S
C767 C766 1.363 . S
C767 C773 1.428 . S
H768 C764 0.930 . S
H769 C766 0.929 . S
S770 N771 1.613 1_556 S
S770 N772 1.610 . S
N771 S770 1.613 1_554 S
N771 C774 1.350 . S
N772 S770 1.610 . S
N772 C773 1.351 . S
C773 C767 1.428 . S
C773 N772 1.351 . S
C773 C774 1.434 1_556 S
C774 C765 1.429 . S
C774 N771 1.350 . S
C774 C773 1.434 1_554 S
C775 C776 1.369 . S
C775 C777 1.419 . S
C775 H779 0.930 . S
C776 C775 1.369 . S
C776 C785 1.429 . S
C777 C775 1.419 . S
C777 C778 1.363 . S
C777 H780 0.929 . S
C778 C777 1.363 . S
C778 C784 1.428 . S
H779 C775 0.930 . S
H780 C777 0.929 . S
S781 N782 1.613 . S
S781 N783 1.610 . S
N782 S781 1.613 . S
N782 C785 1.350 . S
N783 S781 1.610 . S
N783 C784 1.351 . S
C784 C778 1.428 . S
C784 N783 1.351 . S
C784 C785 1.434 . S
C785 C776 1.429 . S
C785 N782 1.350 . S
C785 C784 1.434 . S
C525 C519 1.427 . S
C523 C51 1.392 . S
C534 C125 1.520 . S
C536 C444 1.421 . S
C545 C217 2.501 . S
C547 C467 2.560 . S
C556 C291 1.504 . S
C558 C480 1.500 . S
C569 C483 1.024 . S
C567 C347 1.080 . S
C578 C421 0.955 . S
C580 C496 0.937 . S
C589 C143 2.188 . S
C591 C457 2.068 . S
C600 C199 1.557 . S
C602 C470 1.472 . S
C611 C273 0.684 . S
C613 C493 0.672 . S
C624 C506 1.727 . S
C622 C365 1.669 . S
C635 C509 1.760 . S
C633 C439 1.930 . S
C646 C454 2.412 . S
C644 C69 2.379 . S
C655 C63 1.497 . S
C657 C465 1.600 . S
C666 C137 1.541 . S
C668 C478 1.628 . S
C679 C488 1.390 . S
C677 C187 1.351 . S
C688 C261 1.490 . S
C690 C501 1.485 1_556 S
C701 C517 1.666 . S
C699 C359 1.512 . S
C712 C449 1.295 . S
C710 C433 1.209 . S
C723 C514 1.559 . S
C721 C113 1.660 . S
C732 C211 1.423 . S
C734 C452 1.528 . S
C745 C462 1.684 . S
C743 C285 1.624 . S
C754 C335 1.419 . S
C756 C475 1.518 . S
C765 C409 1.312 . S
C767 C491 1.422 . S
C776 C39 1.640 . S
C778 C504 1.701 . S
