# Generated by pormake.
# Topology nom, (4,4)-cn, num edge types: 1
# Building blocks:
#     Node 0, Type 0, BuildingBlock: AZAVOO_clean_linker_0, # of connection points: 4
#     Node 1, Type 0, BuildingBlock: AZAVOO_clean_linker_0, # of connection points: 4
#     Node 2, Type 0, BuildingBlock: AZAVOO_clean_linker_0, # of connection points: 4
#     Node 3, Type 0, BuildingBlock: AZAVOO_clean_linker_0, # of connection points: 4
#     Node 4, Type 0, BuildingBlock: AZAVOO_clean_linker_0, # of connection points: 4
#     Node 5, Type 0, BuildingBlock: AZAVOO_clean_linker_0, # of connection points: 4
#     Node 6, Type 1, BuildingBlock: TATPOV_clean_sbu_0, # of connection points: 4
#     Node 7, Type 1, BuildingBlock: TATPOV_clean_sbu_0, # of connection points: 4
#     Node 8, Type 1, BuildingBlock: TATPOV_clean_sbu_0, # of connection points: 4
#     Node 9, Type 1, BuildingBlock: TATPOV_clean_sbu_0, # of connection points: 4
#     Node 10, Type 1, BuildingBlock: TATPOV_clean_sbu_0, # of connection points: 4
#     Node 11, Type 1, BuildingBlock: TATPOV_clean_sbu_0, # of connection points: 4
#     Edge 12, Type (0, 1), BuildingBlock: XIVTED_clean_linker_0, # of connection points: 2
#     Edge 13, Type (0, 1), BuildingBlock: XIVTED_clean_linker_0, # of connection points: 2
#     Edge 14, Type (0, 1), BuildingBlock: XIVTED_clean_linker_0, # of connection points: 2
#     Edge 15, Type (0, 1), BuildingBlock: XIVTED_clean_linker_0, # of connection points: 2
#     Edge 16, Type (0, 1), BuildingBlock: XIVTED_clean_linker_0, # of connection points: 2
#     Edge 17, Type (0, 1), BuildingBlock: XIVTED_clean_linker_0, # of connection points: 2
#     Edge 18, Type (0, 1), BuildingBlock: XIVTED_clean_linker_0, # of connection points: 2
#     Edge 19, Type (0, 1), BuildingBlock: XIVTED_clean_linker_0, # of connection points: 2
#     Edge 20, Type (0, 1), BuildingBlock: XIVTED_clean_linker_0, # of connection points: 2
#     Edge 21, Type (0, 1), BuildingBlock: XIVTED_clean_linker_0, # of connection points: 2
#     Edge 22, Type (0, 1), BuildingBlock: XIVTED_clean_linker_0, # of connection points: 2
#     Edge 23, Type (0, 1), BuildingBlock: XIVTED_clean_linker_0, # of connection points: 2
#     Edge 24, Type (0, 1), BuildingBlock: XIVTED_clean_linker_0, # of connection points: 2
#     Edge 25, Type (0, 1), BuildingBlock: XIVTED_clean_linker_0, # of connection points: 2
#     Edge 26, Type (0, 1), BuildingBlock: XIVTED_clean_linker_0, # of connection points: 2
#     Edge 27, Type (0, 1), BuildingBlock: XIVTED_clean_linker_0, # of connection points: 2
#     Edge 28, Type (0, 1), BuildingBlock: XIVTED_clean_linker_0, # of connection points: 2
#     Edge 29, Type (0, 1), BuildingBlock: XIVTED_clean_linker_0, # of connection points: 2
#     Edge 30, Type (0, 1), BuildingBlock: XIVTED_clean_linker_0, # of connection points: 2
#     Edge 31, Type (0, 1), BuildingBlock: XIVTED_clean_linker_0, # of connection points: 2
#     Edge 32, Type (0, 1), BuildingBlock: XIVTED_clean_linker_0, # of connection points: 2
#     Edge 33, Type (0, 1), BuildingBlock: XIVTED_clean_linker_0, # of connection points: 2
#     Edge 34, Type (0, 1), BuildingBlock: XIVTED_clean_linker_0, # of connection points: 2
#     Edge 35, Type (0, 1), BuildingBlock: XIVTED_clean_linker_0, # of connection points: 2
# Relax obj value: 0.159
# Max RMSD: 0.227
# Mean RMSD: 0.171
data_MOF--net-nom--node1-TATPOV_clean_sbu_0--node2-AZAVOO_clean_linker_0--edge1-XIVTED_clean_linker_0
_symmetry_space_group_name_H-M    P1
_symmetry_Int_Tables_number       1
_symmetry_cell_setting            triclinic
loop_
_symmetry_equiv_pos_as_xyz
'x, y, z'
_cell_length_a     47.875725
_cell_length_b     49.738855
_cell_length_c     60.631163
_cell_angle_alpha  90.604296
_cell_angle_beta   90.476947
_cell_angle_gamma 120.93412
loop_
_atom_site_label
_atom_site_type_symbol
_atom_site_fract_x
_atom_site_fract_y
_atom_site_fract_z
_atom_type_partial_charge
H0 H 0.02728 0.39661 0.16056 0.0
H1 H 0.2528 0.59953 0.34958 0.0
H2 H 0.98095 0.39981 0.27085 0.0
H3 H 0.94239 0.38507 0.23996 0.0
H4 H 0.94794 0.4743 0.24613 0.0
H5 H 0.98737 0.48931 0.27638 0.0
H6 H 0.05384 0.41976 0.25543 0.0
H7 H 0.0453 0.40343 0.21651 0.0
H8 H 0.0229 0.47534 0.20202 0.0
H9 H 0.03205 0.49172 0.24084 0.0
H10 H 0.12849 0.46985 0.28361 0.0
H11 H 0.18105 0.50155 0.26533 0.0
H12 H 0.1455 0.55755 0.23621 0.0
H13 H 0.09406 0.52648 0.25456 0.0
H14 H 0.10885 0.46748 0.33569 0.0
H15 H 0.16313 0.49576 0.35299 0.0
H16 H 0.18335 0.57977 0.31898 0.0
H17 H 0.12889 0.55134 0.30207 0.0
H18 H 0.04374 0.45129 0.35747 0.0
H19 H 0.06023 0.4728 0.39521 0.0
H20 H 0.09571 0.56596 0.37066 0.0
H21 H 0.07952 0.54441 0.33324 0.0
H22 H 0.96492 0.4195 0.32202 0.0
H23 H 0.91883 0.4208 0.33825 0.0
H24 H 0.976 0.52218 0.33971 0.0
H25 H 0.02025 0.52049 0.32197 0.0
O26 O 0.03105 0.40375 0.1758 0.0
O27 O 0.01888 0.44054 0.16939 0.0
O28 O 0.21944 0.54412 0.36038 0.0
O29 O 0.23118 0.58781 0.34304 0.0
C30 C 0.0193 0.45925 0.28734 0.0
C31 C 0.04685 0.46539 0.27484 0.0
C32 C 0.07827 0.48176 0.28454 0.0
C33 C 0.08206 0.49005 0.30717 0.0
C34 C 0.05476 0.48425 0.31964 0.0
C35 C 0.02344 0.46986 0.30955 0.0
C36 C 0.98732 0.44579 0.27567 0.0
C37 C 0.97268 0.41558 0.26619 0.0
C38 C 0.95067 0.4072 0.24849 0.0
C39 C 0.94283 0.42888 0.24028 0.0
C40 C 0.95411 0.4574 0.25183 0.0
C41 C 0.97629 0.46584 0.26937 0.0
C42 C 0.04317 0.45663 0.251 0.0
C43 C 0.04728 0.43204 0.24379 0.0
C44 C 0.04228 0.42272 0.22156 0.0
C45 C 0.03319 0.43794 0.20617 0.0
C46 C 0.02971 0.463 0.21344 0.0
C47 C 0.03484 0.47235 0.23562 0.0
C48 C 0.10736 0.49572 0.27028 0.0
C49 C 0.13191 0.48843 0.27276 0.0
C50 C 0.16188 0.50661 0.2624 0.0
C51 C 0.16745 0.53202 0.24925 0.0
C52 C 0.14194 0.53779 0.24578 0.0
C53 C 0.11236 0.51998 0.25628 0.0
C54 C 0.11511 0.5073 0.3175 0.0
C55 C 0.12508 0.49199 0.33202 0.0
C56 C 0.15607 0.50819 0.34186 0.0
C57 C 0.17763 0.54002 0.33731 0.0
C58 C 0.16742 0.55529 0.3228 0.0
C59 C 0.13638 0.53909 0.31306 0.0
C60 C 0.06009 0.49627 0.34272 0.0
C61 C 0.05447 0.47623 0.36039 0.0
C62 C 0.06415 0.48856 0.38183 0.0
C63 C 0.07921 0.52103 0.38584 0.0
C64 C 0.08378 0.54082 0.36813 0.0
C65 C 0.07452 0.52857 0.34677 0.0
C66 C -0.00378 0.4699 0.32115 0.0
C67 C 0.96736 0.44191 0.32595 0.0
C68 C 0.94115 0.44274 0.33535 0.0
C69 C 0.94348 0.47161 0.34022 0.0
C70 C 0.97285 0.49948 0.33582 0.0
C71 C -0.00139 0.4986 0.32609 0.0
C72 C 0.02727 0.4276 0.18267 0.0
C73 C 0.21063 0.55732 0.34765 0.0
H74 H 0.57472 0.07184 0.33994 0.0
H75 H 0.54044 0.23094 0.54359 0.0
H76 H 0.52922 0.00347 0.45326 0.0
H77 H 0.51689 0.96017 0.42777 0.0
H78 H 0.41843 0.94133 0.41999 0.0
H79 H 0.4308 0.98372 0.44625 0.0
H80 H 0.56615 0.07671 0.43596 0.0
H81 H 0.57953 0.07869 0.3969 0.0
H82 H 0.47772 0.03804 0.3794 0.0
H83 H 0.46477 0.03654 0.41849 0.0
H84 H 0.57792 0.13151 0.47172 0.0
H85 H 0.60207 0.18432 0.4568 0.0
H86 H 0.51337 0.15554 0.41971 0.0
H87 H 0.48922 0.10287 0.43496 0.0
H88 H 0.55734 0.10876 0.51971 0.0
H89 H 0.57425 0.15681 0.54117 0.0
H90 H 0.5011 0.16789 0.50716 0.0
H91 H 0.48412 0.11955 0.48605 0.0
H92 H 0.52146 0.03633 0.53071 0.0
H93 H 0.52213 0.04532 0.57051 0.0
H94 H 0.45374 0.07661 0.56105 0.0
H95 H 0.45247 0.06654 0.5214 0.0
H96 H 0.49836 0.98105 0.49908 0.0
H97 H 0.46346 0.9306 0.51679 0.0
H98 H 0.38362 0.94783 0.51497 0.0
H99 H 0.41898 -0.00162 0.49802 0.0
O100 O 0.56892 0.07097 0.35528 0.0
O101 O 0.51627 0.04989 0.34717 0.0
O102 O 0.57121 0.20489 0.55253 0.0
O103 O 0.53419 0.21182 0.53537 0.0
C104 C 0.48985 0.02556 0.46431 0.0
C105 C 0.50651 0.05485 0.45374 0.0
C106 C 0.51569 0.0827 0.46576 0.0
C107 C 0.50907 0.08132 0.48852 0.0
C108 C 0.49231 0.052 0.49906 0.0
C109 C 0.48201 0.02406 0.48683 0.0
C110 C 0.48088 -0.00338 0.45153 0.0
C111 C 0.5048 0.98942 0.44639 0.0
C112 C 0.49777 0.9649 0.43165 0.0
C113 C 0.46675 0.94739 0.42156 0.0
C114 C 0.44244 0.95392 0.4276 0.0
C115 C 0.44943 0.97823 0.44255 0.0
C116 C 0.51451 0.05635 0.43001 0.0
C117 C 0.54682 0.06834 0.42364 0.0
C118 C 0.55436 0.06938 0.40133 0.0
C119 C 0.52968 0.05845 0.38502 0.0
C120 C 0.4973 0.04658 0.39153 0.0
C121 C 0.48982 0.04562 0.41383 0.0
C122 C 0.53176 0.11342 0.45454 0.0
C123 C 0.56384 0.13655 0.46022 0.0
C124 C 0.57752 0.16667 0.45175 0.0
C125 C 0.55949 0.17409 0.43723 0.0
C126 C 0.5279 0.15044 0.43075 0.0
C127 C 0.5141 0.12038 0.43942 0.0
C128 C 0.5195 0.11069 0.50136 0.0
C129 C 0.54494 0.12156 0.51699 0.0
C130 C 0.55458 0.14903 0.52918 0.0
C131 C 0.53902 0.16621 0.52587 0.0
C132 C 0.5136 0.15525 0.51012 0.0
C133 C 0.50389 0.1277 0.49801 0.0
C134 C 0.48713 0.05104 0.5232 0.0
C135 C 0.50586 0.04417 0.53735 0.0
C136 C 0.50648 0.04966 0.56003 0.0
C137 C 0.4884 0.06217 0.56891 0.0
C138 C 0.4678 0.0668 0.55481 0.0
C139 C 0.46711 0.06118 0.53213 0.0
C140 C 0.46115 0.9933 0.49731 0.0
C141 C 0.47332 0.97381 0.50257 0.0
C142 C 0.45328 0.94497 0.5126 0.0
C143 C 0.42067 0.93509 0.51743 0.0
C144 C 0.40871 0.95483 0.51196 0.0
C145 C 0.42879 0.98365 0.5021 0.0
C146 C 0.53775 0.05946 0.36134 0.0
C147 C 0.5492 0.19544 0.53876 0.0
H148 H 0.5542 0.56975 0.78932 0.0
H149 H 0.59512 0.42945 0.56871 0.0
H150 H 0.54848 0.61329 0.67555 0.0
H151 H 0.53017 0.62809 0.7084 0.0
H152 H 0.43258 0.54994 0.6965 0.0
H153 H 0.45142 0.53492 0.66383 0.0
H154 H 0.57921 0.57685 0.69462 0.0
H155 H 0.57865 0.5799 0.73494 0.0
H156 H 0.47617 0.50911 0.73388 0.0
H157 H 0.47706 0.5065 0.69358 0.0
H158 H 0.6012 0.53304 0.66376 0.0
H159 H 0.61298 0.49687 0.68348 0.0
H160 H 0.50991 0.43479 0.69366 0.0
H161 H 0.49856 0.47072 0.67412 0.0
H162 H 0.60149 0.55614 0.61261 0.0
H163 H 0.62623 0.53292 0.59018 0.0
H164 H 0.54422 0.44053 0.60292 0.0
H165 H 0.51949 0.46412 0.625 0.0
H166 H 0.56713 0.59064 0.59508 0.0
H167 H 0.58794 0.58736 0.55913 0.0
H168 H 0.51773 0.48782 0.556 0.0
H169 H 0.49609 0.49183 0.59125 0.0
H170 H 0.5235 0.61442 0.62872 0.0
H171 H 0.48649 0.62937 0.6124 0.0
H172 H 0.42186 0.53337 0.59093 0.0
H173 H 0.45884 0.51872 0.60726 0.0
O174 O 0.55407 0.56769 0.77343 0.0
O175 O 0.5014 0.53125 0.77194 0.0
O176 O 0.62729 0.48729 0.57129 0.0
O177 O 0.5862 0.4392 0.57787 0.0
C178 C 0.515 0.55673 0.65483 0.0
C179 C 0.52821 0.54137 0.66673 0.0
C180 C 0.54096 0.5253 0.65543 0.0
C181 C 0.54256 0.5263 0.63227 0.0
C182 C 0.52833 0.54072 0.62027 0.0
C183 C 0.51358 0.55514 0.63153 0.0
C184 C 0.50136 0.5728 0.66756 0.0
C185 C 0.5228 0.60037 0.67937 0.0
C186 C 0.51227 0.60875 0.69821 0.0
C187 C 0.48012 0.58966 0.70533 0.0
C188 C 0.45766 0.56469 0.6916 0.0
C189 C 0.46826 0.55629 0.67278 0.0
C190 C 0.52815 0.54163 0.69124 0.0
C191 C 0.55674 0.56192 0.70317 0.0
C192 C 0.5563 0.56367 0.72618 0.0
C193 C 0.52728 0.54494 0.73763 0.0
C194 C 0.49886 0.52404 0.72557 0.0
C195 C 0.4993 0.52245 0.70258 0.0
C196 C 0.54906 0.50456 0.66774 0.0
C197 C 0.58132 0.51168 0.6704 0.0
C198 C 0.58795 0.49102 0.68158 0.0
C199 C 0.56239 0.46318 0.69034 0.0
C200 C 0.5302 0.45636 0.68759 0.0
C201 C 0.52363 0.47679 0.67636 0.0
C202 C 0.55874 0.5118 0.62042 0.0
C203 C 0.58904 0.53088 0.61066 0.0
C204 C 0.60307 0.51756 0.59782 0.0
C205 C 0.58713 0.48485 0.59469 0.0
C206 C 0.55711 0.46578 0.60496 0.0
C207 C 0.54302 0.47916 0.6177 0.0
C208 C 0.53056 0.54136 0.5959 0.0
C209 C 0.5551 0.56852 0.58602 0.0
C210 C 0.56736 0.56643 0.56567 0.0
C211 C 0.55539 0.53709 0.55509 0.0
C212 C 0.52772 0.51078 0.56365 0.0
C213 C 0.51517 0.51301 0.58383 0.0
C214 C 0.49386 0.56546 0.61923 0.0
C215 C 0.50154 0.59674 0.62026 0.0
C216 C 0.4803 0.60518 0.61101 0.0
C217 C 0.45112 0.58251 0.60046 0.0
C218 C 0.44427 0.55148 0.59868 0.0
C219 C 0.46539 0.54306 0.60802 0.0
C220 C 0.52668 0.54742 0.76202 0.0
C221 C 0.60154 0.47065 0.58059 0.0
H222 H 0.98685 0.39592 0.94722 0.0
H223 H 0.20745 0.50469 0.73889 0.0
H224 H 0.94607 0.42275 0.82526 0.0
H225 H 0.90656 0.40273 0.85491 0.0
H226 H 0.90964 0.31751 0.85511 0.0
H227 H 0.94838 0.33727 0.82477 0.0
H228 H 0.00694 0.44275 0.85718 0.0
H229 H -0.00035 0.43168 0.89664 0.0
H230 H 0.00082 0.34635 0.88486 0.0
H231 H 0.00773 0.35758 0.8454 0.0
H232 H 0.08471 0.48268 0.83036 0.0
H233 H 0.13442 0.49921 0.85191 0.0
H234 H 0.11271 0.4033 0.85197 0.0
H235 H 0.06426 0.38759 0.82915 0.0
H236 H 0.07572 0.49565 0.78311 0.0
H237 H 0.12846 0.52656 0.76534 0.0
H238 H 0.13812 0.44478 0.76267 0.0
H239 H 0.08509 0.41403 0.78015 0.0
H240 H 0.00679 0.47228 0.7673 0.0
H241 H 0.02872 0.50381 0.73441 0.0
H242 H 0.05626 0.43896 0.70971 0.0
H243 H 0.03443 0.40768 0.74292 0.0
H244 H 0.94897 0.43476 0.78295 0.0
H245 H 0.89482 0.41117 0.76564 0.0
H246 H 0.89857 0.32836 0.74897 0.0
H247 H 0.95241 0.35199 0.7667 0.0
O248 O 0.99057 0.40025 0.93165 0.0
O249 O -0.00662 0.35766 0.92496 0.0
O250 O 0.18023 0.53427 0.74752 0.0
O251 O 0.18662 0.49305 0.74604 0.0
C252 C 0.98205 0.39804 0.81179 0.0
C253 C 0.01053 0.40716 0.82448 0.0
C254 C 0.04132 0.42424 0.81477 0.0
C255 C 0.04388 0.43353 0.79263 0.0
C256 C 0.01542 0.42508 0.78 0.0
C257 C 0.98448 0.40676 0.78948 0.0
C258 C 0.95015 0.38151 0.82292 0.0
C259 C 0.93675 0.399 0.83075 0.0
C260 C 0.9143 0.38758 0.8478 0.0
C261 C 0.90542 0.35875 0.85744 0.0
C262 C 0.91622 0.33985 0.84798 0.0
C263 C 0.93816 0.35103 0.8306 0.0
C264 C 0.00812 0.40109 0.84853 0.0
C265 C 0.00589 0.42183 0.86322 0.0
C266 C 0.00165 0.4154 0.88572 0.0
C267 C -0.00027 0.38816 0.89392 0.0
C268 C 0.00234 0.3676 0.87911 0.0
C269 C 0.00644 0.37401 0.8566 0.0
C270 C 0.07102 0.43399 0.82825 0.0
C271 C 0.09088 0.46535 0.835 0.0
C272 C 0.11903 0.47462 0.84755 0.0
C273 C 0.12755 0.45255 0.85383 0.0
C274 C 0.10718 0.421 0.84723 0.0
C275 C 0.07932 0.41188 0.83437 0.0
C276 C 0.07654 0.45259 0.78275 0.0
C277 C 0.08926 0.48447 0.77862 0.0
C278 C 0.11939 0.50206 0.76851 0.0
C279 C 0.13747 0.48811 0.76252 0.0
C280 C 0.12481 0.45624 0.76702 0.0
C281 C 0.09459 0.43863 0.77705 0.0
C282 C 0.01891 0.43764 0.75747 0.0
C283 C 0.01625 0.46413 0.75435 0.0
C284 C 0.02905 0.48227 0.73557 0.0
C285 C 0.04477 0.47421 0.71959 0.0
C286 C 0.04488 0.44614 0.72192 0.0
C287 C 0.03199 0.42797 0.7407 0.0
C288 C 0.95447 0.39503 0.77601 0.0
C289 C 0.93832 0.41182 0.77512 0.0
C290 C 0.90746 0.39833 0.76518 0.0
C291 C 0.89231 0.36779 0.75607 0.0
C292 C 0.9094 0.35173 0.75611 0.0
C293 C 0.9402 0.36524 0.76605 0.0
C294 C -0.00554 0.38104 0.91776 0.0
C295 C 0.16937 0.50664 0.75159 0.0
H296 H 0.43748 0.99417 0.83709 0.0
H297 H 0.417 0.79017 0.02553 0.0
H298 H 0.46865 0.03887 0.95345 0.0
H299 H 0.48668 0.08353 0.92942 0.0
H300 H 0.58567 0.10331 0.93515 0.0
H301 H 0.56689 0.05752 0.95863 0.0
H302 H 0.43049 0.97027 0.93174 0.0
H303 H 0.42353 0.97626 0.8924 0.0
H304 H 0.52687 0.01577 0.88339 0.0
H305 H 0.53338 0.00924 0.92268 0.0
H306 H 0.40971 0.90968 0.96084 0.0
H307 H 0.38733 0.85927 0.94113 0.0
H308 H 0.48222 0.89008 0.91407 0.0
H309 H 0.50417 0.94013 0.93371 0.0
H310 H 0.4246 0.927 0.0132 0.0
H311 H 0.39858 0.87483 0.02932 0.0
H312 H 0.46837 0.85764 -0.00282 0.0
H313 H 0.49447 0.91002 0.98146 0.0
H314 H 0.47065 0.00034 0.03271 0.0
H315 H 0.4671 0.98746 0.0717 0.0
H316 H 0.51934 0.93924 0.05936 0.0
H317 H 0.52473 0.95426 0.02078 0.0
H318 H 0.49742 0.05711 0.0038 0.0
H319 H 0.53566 0.10636 0.02301 0.0
H320 H 0.60724 0.07799 0.02503 0.0
H321 H 0.56855 0.02868 0.00646 0.0
O322 O 0.44073 0.99173 0.85255 0.0
O323 O 0.49402 0.01203 0.84882 0.0
O324 O 0.39202 0.82121 0.03599 0.0
O325 O 0.42697 0.811 0.01951 0.0
C326 C 0.50381 0.01374 0.9676 0.0
C327 C 0.48664 0.98657 0.95407 0.0
C328 C 0.4736 0.95668 0.96332 0.0
C329 C 0.47682 0.95384 0.98624 0.0
C330 C 0.49467 0.98104 -0.00028 0.0
C331 C 0.50869 0.01101 -0.00972 0.0
C332 C 0.51641 0.04488 0.9576 0.0
C333 C 0.49435 0.05335 0.94997 0.0
C334 C 0.50481 0.07904 0.93631 0.0
C335 C 0.53765 0.09691 0.93015 0.0
C336 C 0.56014 0.08973 0.93927 0.0
C337 C 0.54957 0.06383 0.95288 0.0
C338 C 0.48243 0.98943 0.93005 0.0
C339 C 0.45154 0.98003 0.9212 0.0
C340 C 0.44767 0.98357 0.89875 0.0
C341 C 0.47466 -0.00342 0.88476 0.0
C342 C 0.50558 0.00573 0.8937 0.0
C343 C 0.50938 0.00208 0.91614 0.0
C344 C 0.45859 0.92835 0.94882 0.0
C345 C 0.42541 0.90565 0.95029 0.0
C346 C 0.41274 0.87693 0.93909 0.0
C347 C 0.43306 0.87064 0.92615 0.0
C348 C 0.46581 0.8943 0.92365 0.0
C349 C 0.47846 0.92287 0.93493 0.0
C350 C 0.46134 0.92223 -0.00387 0.0
C351 C 0.43429 0.91195 0.00975 0.0
C352 C 0.41945 0.88214 0.01889 0.0
C353 C 0.43136 0.86202 0.0145 0.0
C354 C 0.45855 0.87249 0.00088 0.0
C355 C 0.47346 0.90237 -0.00817 0.0
C356 C 0.49754 0.97786 0.02385 0.0
C357 C 0.48217 0.98782 0.0386 0.0
C358 C 0.47979 0.98003 0.06083 0.0
C359 C 0.49226 0.96164 0.06867 0.0
C360 C 0.50955 0.95352 0.05406 0.0
C361 C 0.51243 0.96184 0.0319 0.0
C362 C 0.53033 0.03947 0.00371 0.0
C363 C 0.52124 0.06147 0.0087 0.0
C364 C 0.54317 0.08962 0.01956 0.0
C365 C 0.57464 0.09626 0.02548 0.0
C366 C 0.58312 0.07354 0.02105 0.0
C367 C 0.56112 0.04539 0.01032 0.0
C368 C 0.47052 0.00062 0.86096 0.0
C369 C 0.41552 0.83023 0.02402 0.0
H370 H 0.60996 0.61218 -0.00597 0.0
H371 H 0.69229 0.48249 0.21222 0.0
H372 H 0.54482 0.58712 0.12361 0.0
H373 H 0.52045 0.60463 0.09651 0.0
H374 H 0.61557 0.68439 0.08262 0.0
H375 H 0.63987 0.66567 0.10953 0.0
H376 H 0.57495 0.56994 0.08464 0.0
H377 H 0.58003 0.58133 0.04524 0.0
H378 H 0.68392 0.64336 0.05442 0.0
H379 H 0.67837 0.63218 0.09391 0.0
H380 H 0.60581 0.5296 0.0946 0.0
H381 H 0.63262 0.50712 0.07345 0.0
H382 H 0.72361 0.57052 0.10718 0.0
H383 H 0.69675 0.59318 0.12782 0.0
H384 H 0.59942 0.50634 0.14192 0.0
H385 H 0.61347 0.47053 0.15925 0.0
H386 H 0.69137 0.5485 0.19594 0.0
H387 H 0.67735 0.5841 0.17823 0.0
H388 H 0.56827 0.5273 0.17905 0.0
H389 H 0.56563 0.51053 0.21718 0.0
H390 H 0.64494 0.60326 0.23517 0.0
H391 H 0.64703 0.61979 0.1971 0.0
H392 H 0.54678 0.57825 0.17314 0.0
H393 H 0.52576 0.6068 0.19351 0.0
H394 H 0.61585 0.69378 0.18238 0.0
H395 H 0.6362 0.6651 0.16169 0.0
O396 O 0.60858 0.60772 0.00961 0.0
O397 O 0.66205 0.63828 0.015 0.0
O398 O 0.64649 0.45698 0.18537 0.0
O399 O 0.68647 0.49618 0.20492 0.0
C400 C 0.60864 0.60841 0.12929 0.0
C401 C 0.62275 0.59489 0.11622 0.0
C402 C 0.63313 0.5759 0.12607 0.0
C403 C 0.62806 0.56922 0.14873 0.0
C404 C 0.61377 0.58262 0.16176 0.0
C405 C 0.60505 0.60305 0.15218 0.0
C406 C 0.59408 0.62489 0.11829 0.0
C407 C 0.56024 0.60902 0.11534 0.0
C408 C 0.54635 0.61923 0.09977 0.0
C409 C 0.56608 0.64573 0.08697 0.0
C410 C 0.59973 0.6635 0.09177 0.0
C411 C 0.61365 0.65306 0.10729 0.0
C412 C 0.62627 0.60036 0.0921 0.0
C413 C 0.59878 0.58596 0.07809 0.0
C414 C 0.60176 0.5925 0.05559 0.0
C415 C 0.63237 0.61333 0.04668 0.0
C416 C 0.65998 0.62726 0.06076 0.0
C417 C 0.65692 0.62083 0.08328 0.0
C418 C 0.64941 0.56297 0.11268 0.0
C419 C 0.6316 0.53878 0.09719 0.0
C420 C 0.64689 0.52589 0.08525 0.0
C421 C 0.68024 0.5371 0.08862 0.0
C422 C 0.69803 0.56171 0.10395 0.0
C423 C 0.68271 0.57451 0.11588 0.0
C424 C 0.63736 0.54777 0.15883 0.0
C425 C 0.61966 0.51565 0.15357 0.0
C426 C 0.62767 0.49525 0.16356 0.0
C427 C 0.65351 0.50665 0.17903 0.0
C428 C 0.67131 0.53894 0.18413 0.0
C429 C 0.66335 0.55932 0.17406 0.0
C430 C 0.60792 0.5747 0.18539 0.0
C431 C 0.58447 0.54415 0.1914 0.0
C432 C 0.58319 0.53456 0.21311 0.0
C433 C 0.6053 0.55545 0.22913 0.0
C434 C 0.62734 0.58667 0.22328 0.0
C435 C 0.62862 0.59621 0.20156 0.0
C436 C 0.59296 0.61965 0.16595 0.0
C437 C 0.56202 0.60342 0.17534 0.0
C438 C 0.55014 0.61978 0.18703 0.0
C439 C 0.56907 0.65264 0.18949 0.0
C440 C 0.60041 0.66859 0.18049 0.0
C441 C 0.61218 0.65225 0.16878 0.0
C442 C 0.63537 0.62058 0.02283 0.0
C443 C 0.66185 0.48502 0.1899 0.0
Zn444 Zn 0.72558 0.52626 0.40374 0.0
Zn445 Zn 0.68577 0.46426 0.40188 0.0
O446 O 0.73181 0.47109 0.3979 0.0
O447 O 0.76474 0.52225 0.39843 0.0
O448 O 0.65862 0.41746 0.40537 0.0
O449 O 0.71161 0.52999 0.43427 0.0
O450 O 0.6748 0.47993 0.43023 0.0
C451 C 0.76038 0.49499 0.39644 0.0
C452 C 0.67651 0.50272 0.36796 0.0
O453 O 0.6686 0.47546 0.37454 0.0
O454 O 0.69899 0.52695 0.37782 0.0
C455 C 0.65193 0.39683 0.39041 0.0
O456 O 0.66165 0.40569 0.37017 0.0
C457 C 0.68673 0.50559 0.4412 0.0
Zn458 Zn 0.18836 0.67017 0.56782 0.0
Zn459 Zn 0.23015 0.64896 0.56782 0.0
O460 O 0.25869 0.69704 0.56584 0.0
O461 O 0.22565 0.71534 0.56833 0.0
O462 O 0.26433 0.63701 0.57172 0.0
O463 O 0.16767 0.64678 0.59579 0.0
O464 O 0.20175 0.62953 0.59516 0.0
C465 C 0.25418 0.72016 0.56642 0.0
C466 C 0.18201 0.63018 0.52976 0.0
O467 O 0.2048 0.62815 0.53912 0.0
O468 O 0.17175 0.64675 0.53846 0.0
C469 C 0.27364 0.62416 0.5577 0.0
O470 O 0.25981 0.61642 0.53802 0.0
C471 C 0.17805 0.63018 0.60403 0.0
Zn472 Zn 0.52148 0.20642 0.74977 0.0
Zn473 Zn 0.58618 0.22852 0.74404 0.0
O474 O 0.58263 0.26743 0.73948 0.0
O475 O 0.53065 0.25036 0.74454 0.0
O476 O 0.63405 0.24459 0.74111 0.0
O477 O 0.52557 0.19435 0.78088 0.0
O478 O 0.57749 0.21159 0.77548 0.0
C479 C 0.55915 0.27248 0.74034 0.0
C480 C 0.53521 0.17652 0.71354 0.0
O481 O 0.56466 0.19525 0.71956 0.0
O482 O 0.51218 0.17648 0.72376 0.0
C483 C 0.6528 0.26708 0.72874 0.0
O484 O 0.64068 0.28041 0.7165 0.0
C485 C 0.55279 0.19917 0.7879 0.0
Zn486 Zn 0.41937 0.56054 0.90794 0.0
Zn487 Zn 0.41838 0.6148 0.90506 0.0
O488 O 0.3707 0.58022 0.9072 0.0
O489 O 0.37016 0.53571 0.90816 0.0
O490 O 0.41488 0.65326 0.90491 0.0
O491 O 0.44421 0.57713 0.93694 0.0
O492 O 0.44656 0.6222 0.93253 0.0
C493 C 0.35505 0.55042 0.90795 0.0
C494 C 0.44572 0.59503 0.86727 0.0
O495 O 0.43819 0.61402 0.8756 0.0
O496 O 0.44137 0.5715 0.87807 0.0
C497 C 0.41459 0.66815 0.88808 0.0
O498 O 0.41771 0.65902 0.86832 0.0
C499 C 0.45364 0.60481 0.94352 0.0
Zn500 Zn 0.86043 0.43081 0.04215 0.0
Zn501 Zn 0.8061 0.37464 0.04907 0.0
O502 O 0.78892 0.40443 0.04731 0.0
O503 O 0.83202 0.45027 0.04011 0.0
O504 O 0.76507 0.3329 0.05227 0.0
O505 O 0.87 0.41293 0.01505 0.0
O506 O 0.82381 0.36855 0.01985 0.0
C507 C 0.80172 0.43352 0.04351 0.0
C508 C 0.86028 0.40375 0.08434 0.0
O509 O 0.83278 0.38114 0.07757 0.0
O510 O 0.87666 0.42724 0.07221 0.0
C511 C 0.76432 0.30893 0.06006 0.0
O512 O 0.79146 0.3113 0.06728 0.0
C513 C 0.84929 0.38529 0.00869 0.0
Zn514 Zn 0.37492 0.80446 0.2412 0.0
Zn515 Zn 0.42563 0.7955 0.2411 0.0
O516 O 0.38502 0.75157 0.23659 0.0
O517 O 0.34386 0.75919 0.23286 0.0
O518 O 0.46115 0.78534 0.23869 0.0
O519 O 0.39579 0.83621 0.21718 0.0
O520 O 0.43574 0.82652 0.21586 0.0
C521 C 0.35487 0.74088 0.2329 0.0
C522 C 0.41158 0.82113 0.28261 0.0
O523 O 0.43044 0.81471 0.27209 0.0
O524 O 0.38601 0.81756 0.27337 0.0
C525 C 0.4589 0.76224 0.24907 0.0
O526 O 0.43486 0.7472 0.26285 0.0
C527 C 0.42196 0.84091 0.20865 0.0
H528 H 0.22551 0.55598 0.27182 0.0
H529 H 0.29808 0.71204 0.20919 0.0
H530 H 0.18474 0.562 0.2096 0.0
H531 H 0.35991 0.69269 0.2498 0.0
H532 H 0.25719 0.65618 0.20811 0.0
H533 H 0.27651 0.60371 0.26307 0.0
C534 C 0.22757 0.56672 0.256 0.0
C535 C 0.20055 0.55531 0.24161 0.0
C536 C 0.27993 0.66402 0.21694 0.0
C537 C 0.25847 0.61041 0.23187 0.0
C538 C 0.30316 0.69591 0.21767 0.0
C539 C 0.33217 0.70692 0.2298 0.0
C540 C 0.28536 0.64308 0.22894 0.0
C541 C 0.33773 0.68506 0.24033 0.0
C542 C 0.25667 0.59412 0.25109 0.0
C543 C 0.20465 0.57047 0.22145 0.0
N544 N 0.31418 0.65416 0.24006 0.0
N545 N 0.23278 0.59765 0.21741 0.0
H546 H 0.59038 0.22751 0.46251 0.0
H547 H 0.63007 0.34525 0.36292 0.0
H548 H 0.55858 0.19508 0.3956 0.0
H549 H 0.63754 0.37212 0.43165 0.0
H550 H 0.60666 0.29052 0.37384 0.0
H551 H 0.61154 0.2813 0.45077 0.0
C552 C 0.5881 0.23177 0.44528 0.0
C553 C 0.57288 0.20683 0.42997 0.0
C554 C 0.61329 0.30843 0.38648 0.0
C555 C 0.59681 0.26841 0.41642 0.0
C556 C 0.62666 0.33966 0.38027 0.0
C557 C 0.63587 0.36336 0.39639 0.0
C558 C 0.60948 0.30095 0.40896 0.0
C559 C 0.63084 0.35471 0.41862 0.0
C560 C 0.59993 0.26246 0.43862 0.0
C561 C 0.57004 0.21366 0.40794 0.0
N562 N 0.61821 0.32431 0.42423 0.0
N563 N 0.58205 0.24386 0.40178 0.0
H564 H 0.41422 0.56326 0.56219 0.0
H565 H 0.31082 0.64235 0.59551 0.0
H566 H 0.43221 0.61969 0.62109 0.0
H567 H 0.29783 0.59385 0.53334 0.0
H568 H 0.35511 0.63374 0.60506 0.0
H569 H 0.37152 0.57387 0.55117 0.0
C570 C 0.40926 0.57796 0.57277 0.0
C571 C 0.42686 0.5906 0.59261 0.0
C572 C 0.34265 0.625 0.58931 0.0
C573 C 0.378 0.60282 0.5801 0.0
C574 C 0.31723 0.62984 0.58385 0.0
C575 C 0.30047 0.61877 0.56358 0.0
C576 C 0.35142 0.60881 0.57448 0.0
C577 C 0.31004 0.60281 0.54914 0.0
C578 C 0.38496 0.58408 0.56643 0.0
C579 C 0.41961 0.60976 0.60553 0.0
N580 N 0.33482 0.59823 0.55489 0.0
N581 N 0.39567 0.61512 0.59911 0.0
H582 H 0.86171 0.39169 0.7315 0.0
H583 H 0.68498 0.24164 0.74886 0.0
H584 H 0.84421 0.30744 0.76356 0.0
H585 H 0.7015 0.32114 0.71064 0.0
H586 H 0.74368 0.2646 0.75267 0.0
H587 H 0.80357 0.36571 0.72209 0.0
C588 C 0.84568 0.36769 0.73644 0.0
C589 C 0.85785 0.35175 0.74837 0.0
C590 C 0.73453 0.27696 0.74331 0.0
C591 C 0.7914 0.32192 0.73769 0.0
C592 C 0.70096 0.26386 0.74115 0.0
C593 C 0.68829 0.2796 0.72956 0.0
C594 C 0.75569 0.3062 0.73398 0.0
C595 C 0.71021 0.30823 0.71978 0.0
C596 C 0.81255 0.35283 0.73099 0.0
C597 C 0.83604 0.32055 0.75413 0.0
N598 N 0.74287 0.32077 0.72239 0.0
N599 N 0.8039 0.30678 0.74889 0.0
H600 H 0.39569 0.81534 0.94716 0.0
H601 H 0.42614 0.71373 0.85815 0.0
H602 H 0.44508 0.85292 0.88589 0.0
H603 H 0.39514 0.68547 0.92492 0.0
H604 H 0.42374 0.76122 0.86489 0.0
H605 H 0.38466 0.7637 0.9356 0.0
C606 C 0.40358 0.81261 0.93104 0.0
C607 C 0.42157 0.83855 0.91754 0.0
C608 C 0.41723 0.74444 0.87797 0.0
C609 C 0.40974 0.77954 0.90444 0.0
C610 C 0.41857 0.71737 0.87414 0.0
C611 C 0.41125 0.69585 0.8911 0.0
C612 C 0.4082 0.74977 0.89882 0.0
C613 C 0.40144 0.70163 0.91146 0.0
C614 C 0.39758 0.78314 0.92454 0.0
C615 C 0.43159 0.83362 0.89695 0.0
N616 N 0.40035 0.72807 0.91476 0.0
N617 N 0.42583 0.80472 0.8911 0.0
H618 H 0.74071 0.56579 0.07013 0.0
H619 H 0.73601 0.40462 0.04989 0.0
H620 H 0.65627 0.47455 0.0811 0.0
H621 H 0.8215 0.4958 0.04049 0.0
H622 H 0.70445 0.42971 0.05663 0.0
H623 H 0.76874 0.54052 0.05482 0.0
C624 C 0.72801 0.54043 0.0692 0.0
C625 C 0.69623 0.52224 0.07711 0.0
C626 C 0.73004 0.44423 0.05289 0.0
C627 C 0.72809 0.49316 0.05955 0.0
C628 C 0.74811 0.42991 0.04901 0.0
C629 C 0.78159 0.44816 0.04489 0.0
C630 C 0.74556 0.47706 0.05275 0.0
C631 C 0.79583 0.48081 0.04379 0.0
C632 C 0.74396 0.52602 0.06038 0.0
C633 C 0.6807 0.4895 0.07511 0.0
N634 N 0.77781 0.49423 0.04793 0.0
N635 N 0.6969 0.47601 0.06673 0.0
H636 H 0.37344 0.92046 0.54833 0.0
H637 H 0.31546 0.7383 0.55199 0.0
H638 H 0.41812 0.87907 0.51025 0.0
H639 H 0.25574 0.77557 0.57263 0.0
H640 H 0.35854 0.79129 0.54251 0.0
H641 H 0.33518 0.86889 0.56288 0.0
C642 C 0.37524 0.90058 0.54297 0.0
C643 C 0.39889 0.9042 0.52776 0.0
C644 C 0.33609 0.78785 0.54927 0.0
C645 C 0.35539 0.84504 0.54479 0.0
C646 C 0.31153 0.75764 0.5548 0.0
C647 C 0.28181 0.75242 0.56298 0.0
C648 C 0.33103 0.81308 0.55214 0.0
C649 C 0.27813 0.77843 0.56622 0.0
C650 C 0.35346 0.87115 0.55141 0.0
C651 C 0.40052 0.87758 0.52201 0.0
N652 N 0.3024 0.80759 0.56074 0.0
N653 N 0.37898 0.84914 0.53045 0.0
H654 H 0.53459 0.43121 0.72797 0.0
H655 H 0.61059 0.32114 0.71927 0.0
H656 H 0.60401 0.44308 0.67836 0.0
H657 H 0.52041 0.29561 0.75154 0.0
H658 H 0.61679 0.37186 0.71006 0.0
H659 H 0.53823 0.38781 0.74305 0.0
C660 C 0.5508 0.42481 0.72035 0.0
C661 C 0.56855 0.44037 0.70162 0.0
C662 C 0.59582 0.35518 0.7193 0.0
C663 C 0.57295 0.39082 0.71888 0.0
C664 C 0.59229 0.32632 0.7246 0.0
C665 C 0.56475 0.30402 0.73598 0.0
C666 C 0.57189 0.36186 0.72574 0.0
C667 C 0.54181 0.31194 0.74251 0.0
C668 C 0.55289 0.40008 0.72898 0.0
C669 C 0.58984 0.43166 0.69278 0.0
N670 N 0.54587 0.34016 0.73727 0.0
N671 N 0.5912 0.40717 0.70135 0.0
H672 H 0.16955 0.43076 0.84947 0.0
H673 H 0.3141 0.57298 0.91366 0.0
H674 H 0.15607 0.49777 0.8866 0.0
H675 H 0.3144 0.4883 0.89776 0.0
H676 H 0.25586 0.54564 0.90488 0.0
H677 H 0.22213 0.45078 0.86781 0.0
C678 C 0.17731 0.44931 0.86174 0.0
C679 C 0.15833 0.46274 0.86631 0.0
C680 C 0.26858 0.53291 0.90366 0.0
C681 C 0.21908 0.48632 0.88698 0.0
C682 C 0.30182 0.54851 0.90863 0.0
C683 C 0.31919 0.53299 0.90616 0.0
C684 C 0.25278 0.50178 0.89582 0.0
C685 C 0.30201 0.50123 0.89976 0.0
C686 C 0.20747 0.46083 0.87215 0.0
C687 C 0.17015 0.48718 0.88212 0.0
N688 N 0.26984 0.4868 0.89444 0.0
N689 N 0.19997 0.49846 0.89167 0.0
H690 H 0.62162 0.11023 0.05741 0.0
H691 H 0.70528 0.29548 0.04316 0.0
H692 H 0.58445 0.15376 0.01441 0.0
H693 H 0.75347 0.25215 0.07427 0.0
H694 H 0.65646 0.24391 0.03814 0.0
H695 H 0.66583 0.16228 0.06903 0.0
C696 C 0.62262 0.13068 0.05048 0.0
C697 C 0.59937 0.12751 0.03473 0.0
C698 C 0.67763 0.24569 0.0462 0.0
C699 C 0.6497 0.18713 0.04819 0.0
C700 C 0.70554 0.27516 0.04912 0.0
C701 C 0.73368 0.27813 0.05894 0.0
C702 C 0.67775 0.21893 0.05318 0.0
C703 C 0.73243 0.25094 0.06645 0.0
C704 C 0.6478 0.16037 0.0572 0.0
C705 C 0.60154 0.15492 0.02673 0.0
N706 N 0.70498 0.22242 0.06328 0.0
N707 N 0.62637 0.18352 0.03344 0.0
H708 H 0.53152 0.63708 0.22664 0.0
H709 H 0.50831 0.78515 0.21923 0.0
H710 H 0.576 0.70868 0.17746 0.0
H711 H 0.45718 0.71018 0.26528 0.0
H712 H 0.53808 0.76031 0.20657 0.0
H713 H 0.508 0.66584 0.24337 0.0
C714 C 0.53636 0.65883 0.21936 0.0
C715 C 0.55573 0.6704 0.20056 0.0
C716 C 0.52052 0.74939 0.21956 0.0
C717 C 0.52915 0.70361 0.21978 0.0
C718 C 0.50357 0.76364 0.22686 0.0
C719 C 0.47998 0.7496 0.24322 0.0
C720 C 0.51383 0.72084 0.22864 0.0
C721 C 0.475 0.72176 0.25254 0.0
C722 C 0.52308 0.67533 0.229 0.0
C723 C 0.56159 0.699 0.19208 0.0
N724 N 0.49159 0.70817 0.245 0.0
N725 N 0.54827 0.71451 0.20169 0.0
H726 H 0.89687 0.432 0.36967 0.0
H727 H 0.82071 0.54039 0.38345 0.0
H728 H 0.92541 0.51448 0.33102 0.0
H729 H 0.7634 0.4411 0.39574 0.0
H730 H 0.86484 0.53367 0.37061 0.0
H731 H 0.85201 0.43665 0.38465 0.0
C732 C 0.89374 0.45097 0.36423 0.0
C733 C 0.91539 0.47311 0.34921 0.0
C734 C 0.84265 0.51336 0.3762 0.0
C735 C 0.86469 0.47887 0.36673 0.0
C736 C 0.81748 0.51719 0.38367 0.0
C737 C 0.78818 0.49123 0.39059 0.0
C738 C 0.83881 0.48344 0.37584 0.0
C739 C 0.78551 0.46172 0.39044 0.0
C740 C 0.86824 0.45365 0.3729 0.0
C741 C 0.91015 0.49735 0.34302 0.0
N742 N 0.81056 0.4586 0.38317 0.0
N743 N 0.88558 0.49969 0.35192 0.0
H744 H 0.07206 0.56551 0.40746 0.0
H745 H 0.19228 0.58739 0.50769 0.0
H746 H 0.11504 0.50817 0.41467 0.0
H747 H 0.13677 0.63354 0.50416 0.0
H748 H 0.16565 0.55888 0.47331 0.0
H749 H 0.09659 0.59122 0.44278 0.0
C750 C 0.08658 0.55826 0.41657 0.0
C751 C 0.09158 0.53474 0.40814 0.0
C752 C 0.15931 0.57521 0.48013 0.0
C753 C 0.11994 0.56417 0.44857 0.0
C754 C 0.17458 0.59158 0.4997 0.0
C755 C 0.1668 0.61294 0.50884 0.0
C756 C 0.13628 0.58042 0.4696 0.0
C757 C 0.14358 0.61733 0.49779 0.0
C758 C 0.10054 0.57289 0.43675 0.0
C759 C 0.11036 0.52603 0.4207 0.0
N760 N 0.12926 0.60131 0.47878 0.0
N761 N 0.12408 0.54091 0.44024 0.0
H762 H 0.44299 0.05747 0.59863 0.0
H763 H 0.57822 0.16983 0.68793 0.0
H764 H 0.54597 0.09355 0.59207 0.0
H765 H 0.4756 0.1357 0.69457 0.0
H766 H 0.56605 0.13793 0.65441 0.0
H767 H 0.45363 0.08191 0.63538 0.0
C768 C 0.46779 0.07031 0.60498 0.0
C769 C 0.49362 0.0735 0.5922 0.0
C770 C 0.54615 0.13726 0.66326 0.0
C771 C 0.50598 0.10154 0.63422 0.0
C772 C 0.55309 0.1555 0.68243 0.0
C773 C 0.52793 0.15568 0.69402 0.0
C774 C 0.51381 0.11909 0.65552 0.0
C775 C 0.49582 0.13646 0.68612 0.0
C776 C 0.47384 0.08419 0.62598 0.0
C777 C 0.52522 0.09009 0.60139 0.0
N778 N 0.48971 0.11911 0.66729 0.0
N779 N 0.53051 0.10366 0.62173 0.0
H780 H 0.44779 0.54156 0.73356 0.0
H781 H 0.46054 0.64343 0.83904 0.0
H782 H 0.49585 0.64236 0.73049 0.0
H783 H 0.45227 0.55288 0.84207 0.0
H784 H 0.46875 0.64364 0.79912 0.0
H785 H 0.44197 0.5448 0.77312 0.0
C786 C 0.45655 0.56439 0.74113 0.0
C787 C 0.47219 0.59174 0.72864 0.0
C788 C 0.46546 0.62394 0.80865 0.0
C789 C 0.46608 0.59562 0.77417 0.0
C790 C 0.46086 0.6238 0.8314 0.0
C791 C 0.45552 0.59799 0.84393 0.0
C792 C 0.46416 0.59789 0.79839 0.0
C793 C 0.45619 0.57324 0.83314 0.0
C794 C 0.45362 0.56624 0.7638 0.0
C795 C 0.48366 0.62072 0.73953 0.0
N796 N 0.46001 0.57365 0.81099 0.0
N797 N 0.48032 0.62193 0.76174 0.0
H798 H 0.92824 0.34506 0.89407 0.0
H799 H 0.80288 0.34773 0.97807 0.0
H800 H 0.85071 0.35841 0.87131 0.0
H801 H 0.90638 0.39639 -0.00884 0.0
H802 H 0.81229 0.33363 0.94096 0.0
H803 H 0.91167 0.34519 0.93216 0.0
C804 C 0.90715 0.34711 0.89707 0.0
C805 C 0.89086 0.35186 0.87959 0.0
C806 C 0.83276 0.34698 0.95217 0.0
C807 C 0.87172 0.35172 0.92293 0.0
C808 C 0.82747 0.35489 0.97327 0.0
C809 C 0.85398 0.37338 0.98754 0.0
C810 C 0.86463 0.35689 0.94568 0.0
C811 C 0.88537 0.38231 0.98054 0.0
C812 C 0.89789 0.34738 0.91876 0.0
C813 C 0.8639 0.35477 0.88438 0.0
N814 N 0.88985 0.37389 0.96009 0.0
N815 N 0.85515 0.35473 0.90569 0.0
H816 H 0.43587 0.94151 0.0914 0.0
H817 H 0.47878 0.85898 0.18649 0.0
H818 H 0.5304 0.95065 0.09734 0.0
H819 H 0.39602 0.87159 0.18766 0.0
H820 H 0.49852 0.89206 0.15387 0.0
H821 H 0.4214 0.91595 0.12682 0.0
C822 C 0.4539 0.93872 0.10028 0.0
C823 C 0.48453 0.94846 0.09124 0.0
C824 C 0.47619 0.88774 0.16142 0.0
C825 C 0.4675 0.91804 0.1318 0.0
C826 C 0.46486 0.86881 0.18 0.0
C827 C 0.43556 0.86229 0.18976 0.0
C828 C 0.45792 0.89997 0.15247 0.0
C829 C 0.41863 0.87579 0.18067 0.0
C830 C 0.44545 0.9238 0.12051 0.0
C831 C 0.50635 0.94319 0.10344 0.0
N832 N 0.42992 0.89374 0.16249 0.0
N833 N 0.49732 0.92811 0.12301 0.0
H834 H 0.61496 0.58518 0.26926 0.0
H835 H 0.63946 0.45989 0.33523 0.0
H836 H 0.60168 0.5002 0.23924 0.0
H837 H 0.67519 0.55503 0.35746 0.0
H838 H 0.61534 0.46957 0.30257 0.0
H839 H 0.62653 0.56938 0.30455 0.0
C840 C 0.61421 0.56308 0.27013 0.0
C841 C 0.60768 0.54417 0.25122 0.0
C842 C 0.62828 0.48818 0.31473 0.0
C843 C 0.62084 0.5259 0.29154 0.0
C844 C 0.64198 0.48266 0.33334 0.0
C845 C 0.65972 0.50682 0.3489 0.0
C846 C 0.63209 0.5179 0.3119 0.0
C847 C 0.66215 0.53586 0.34571 0.0
C848 C 0.62075 0.55404 0.29027 0.0
C849 C 0.60639 0.51544 0.25342 0.0
N850 N 0.64861 0.54059 0.32757 0.0
N851 N 0.61324 0.50731 0.27318 0.0
H852 H 0.50868 0.95069 0.38954 0.0
H853 H 0.37013 0.81945 0.3138 0.0
H854 H 0.41032 0.89135 0.41214 0.0
H855 H 0.47173 0.85279 0.30299 0.0
H856 H 0.38439 0.84584 0.34983 0.0
H857 H 0.49623 0.91535 0.35798 0.0
C858 C 0.48463 0.92995 0.38817 0.0
C859 C 0.46045 0.92422 0.40358 0.0
C860 C 0.40355 0.84709 0.33972 0.0
C861 C 0.44587 0.88408 0.36699 0.0
C862 C 0.39545 0.83213 0.31911 0.0
C863 C 0.41984 0.83416 0.30533 0.0
C864 C 0.43636 0.86476 0.34646 0.0
C865 C 0.4522 0.85068 0.31311 0.0
C866 C 0.47752 0.90986 0.37002 0.0
C867 C 0.42955 0.8972 0.4005 0.0
N868 N 0.45961 0.86579 0.33305 0.0
N869 N 0.42305 0.87838 0.38243 0.0
H870 H 0.53281 0.49766 0.51851 0.0
H871 H 0.70922 0.55259 0.47239 0.0
H872 H 0.62163 0.56624 0.5521 0.0
H873 H 0.62369 0.46492 0.45285 0.0
H874 H 0.67723 0.5601 0.50032 0.0
H875 H 0.56529 0.4879 0.49226 0.0
C876 C 0.55908 0.5108 0.52033 0.0
C877 C 0.57443 0.53305 0.53748 0.0
C878 C 0.66555 0.53907 0.49007 0.0
C879 C 0.61169 0.52201 0.50745 0.0
C880 C 0.68381 0.53472 0.47416 0.0
C881 C 0.6691 0.50811 0.46025 0.0
C882 C 0.6322 0.5169 0.49184 0.0
C883 C 0.63607 0.48573 0.46328 0.0
C884 C 0.57759 0.50515 0.50536 0.0
C885 C 0.60864 0.54948 0.53886 0.0
N886 N 0.61861 0.49081 0.47858 0.0
N887 N 0.62607 0.54368 0.52405 0.0
H888 H 0.0282 0.51021 0.69494 0.0
H889 H 0.19328 0.59151 0.62634 0.0
H890 H 0.10487 0.48979 0.70429 0.0
H891 H 0.12245 0.62057 0.62381 0.0
H892 H 0.16094 0.55345 0.65442 0.0
H893 H 0.06168 0.54957 0.66789 0.0
C894 C 0.05202 0.51392 0.69127 0.0
C895 C 0.06361 0.49649 0.70185 0.0
C896 C 0.15258 0.56829 0.64781 0.0
C897 C 0.10212 0.54156 0.67085 0.0
C898 C 0.1711 0.59011 0.63181 0.0
C899 C 0.16059 0.60928 0.62263 0.0
C900 C 0.12319 0.56543 0.6546 0.0
C901 C 0.13157 0.60633 0.63038 0.0
C902 C 0.07114 0.53641 0.67582 0.0
C903 C 0.09461 0.50218 0.69626 0.0
N904 N 0.11383 0.58471 0.6458 0.0
N905 N 0.11276 0.52421 0.68118 0.0
H906 H 0.51651 0.13812 0.92275 0.0
H907 H 0.60061 0.19043 0.80515 0.0
H908 H 0.57999 0.10826 0.89644 0.0
H909 H 0.51151 0.18711 0.82216 0.0
H910 H 0.60267 0.17194 0.84211 0.0
H911 H 0.52449 0.16841 0.88946 0.0
C912 C 0.53242 0.1382 0.91013 0.0
C913 C 0.54718 0.12017 0.91231 0.0
C914 C 0.58285 0.17553 0.83775 0.0
C915 C 0.55666 0.15507 0.87432 0.0
C916 C 0.58166 0.1861 0.81671 0.0
C917 C 0.55563 0.18994 0.81051 0.0
C918 C 0.5581 0.16926 0.85274 0.0
C919 C 0.53179 0.18406 0.82616 0.0
C920 C 0.53698 0.15553 0.89117 0.0
C921 C 0.56821 0.12187 0.89561 0.0
N922 N 0.53357 0.17396 0.84654 0.0
N923 N 0.57207 0.13874 0.87723 0.0
H924 H 0.59514 0.66624 0.04677 0.0
H925 H 0.43786 0.57281 0.98157 0.0
H926 H 0.50489 0.63701 0.08042 0.0
H927 H 0.50732 0.6619 0.95395 0.0
H928 H 0.46567 0.59114 0.01749 0.0
H929 H 0.56785 0.66296 0.01179 0.0
C930 C 0.56993 0.66009 0.04702 0.0
C931 C 0.55219 0.65135 0.0667 0.0
C932 C 0.47462 0.60669 0.00357 0.0
C933 C 0.52085 0.64642 0.02657 0.0
C934 C 0.45906 0.59619 0.98313 0.0
C935 C 0.47056 0.6159 0.96493 0.0
C936 C 0.50243 0.63667 0.00559 0.0
C937 C 0.49788 0.64612 0.96772 0.0
C938 C 0.55438 0.65803 0.02696 0.0
C939 C 0.51933 0.64299 0.06567 0.0
N940 N 0.51344 0.65548 0.98769 0.0
N941 N 0.50446 0.63984 0.04585 0.0
H942 H 0.96307 0.47174 0.20778 0.0
H943 H 0.83088 0.35999 0.117 0.0
H944 H 0.89085 0.37559 0.22128 0.0
H945 H 0.91711 0.44903 0.10356 0.0
H946 H 0.84981 0.36482 0.15545 0.0
H947 H 0.94296 0.46405 0.17 0.0
C948 C 0.94251 0.4491 0.2029 0.0
C949 C 0.92829 0.4244 0.21784 0.0
C950 C 0.86459 0.38312 0.14397 0.0
C951 C 0.90552 0.41513 0.17415 0.0
C952 C 0.85387 0.38037 0.12204 0.0
C953 C 0.87233 0.40422 0.10702 0.0
C954 C 0.89379 0.41 0.15089 0.0
C955 C 0.90191 0.43009 0.11449 0.0
C956 C 0.93129 0.44458 0.18118 0.0
C957 C 0.90241 0.39527 0.21029 0.0
N958 N 0.91154 0.43235 0.13585 0.0
N959 N 0.89173 0.39143 0.18893 0.0
loop_
_geom_bond_atom_site_label_1
_geom_bond_atom_site_label_2
_geom_bond_distance
_geom_bond_site_symmetry_2
_ccdc_geom_bond_type
H0 O26 0.856 . S
H1 O29 0.854 . S
H2 C37 0.940 . S
H3 C38 0.930 . S
H4 C40 0.930 . S
H5 C41 0.930 . S
H6 C43 0.931 . S
H7 C44 0.930 . S
H8 C46 0.930 . S
H9 C47 0.929 . S
H10 C49 0.930 . S
H11 C50 0.931 . S
H12 C52 0.930 . S
H13 C53 0.929 . S
H14 C55 0.931 . S
H15 C56 0.930 . S
H16 C58 0.930 . S
H17 C59 0.932 . S
H18 C61 0.930 . S
H19 C62 0.929 . S
H20 C64 0.931 . S
H21 C65 0.930 . S
H22 C67 0.929 . S
H23 C68 0.931 . S
H24 C70 0.930 . S
H25 C71 0.929 1_455 S
O26 H0 0.856 . S
O26 C72 1.300 . S
O27 C72 1.209 . S
O28 C73 1.199 . S
O29 H1 0.854 . S
O29 C73 1.297 . S
C30 C31 1.404 . S
C30 C35 1.397 . S
C30 C36 1.492 . S
C31 C30 1.404 . S
C31 C32 1.396 . S
C31 C42 1.492 . S
C32 C31 1.396 . S
C32 C33 1.397 . S
C32 C48 1.509 . S
C33 C32 1.397 . S
C33 C34 1.412 . S
C33 C54 1.485 . S
C34 C33 1.412 . S
C34 C35 1.388 . S
C34 C60 1.490 . S
C35 C30 1.397 . S
C35 C34 1.388 . S
C35 C66 1.519 1_455 S
C36 C30 1.492 . S
C36 C37 1.360 . S
C36 C41 1.390 1_455 S
C37 H2 0.940 . S
C37 C36 1.360 . S
C37 C38 1.366 1_455 S
C38 H3 0.930 . S
C38 C37 1.366 1_655 S
C38 C39 1.383 . S
C39 C38 1.383 . S
C39 C40 1.395 . S
C40 H4 0.930 . S
C40 C39 1.395 . S
C40 C41 1.362 . S
C41 H5 0.930 . S
C41 C36 1.390 1_655 S
C41 C40 1.362 . S
C42 C31 1.492 . S
C42 C43 1.377 . S
C42 C47 1.397 . S
C43 H6 0.931 . S
C43 C42 1.377 . S
C43 C44 1.376 . S
C44 H7 0.930 . S
C44 C43 1.376 . S
C44 C45 1.376 . S
C45 C44 1.376 . S
C45 C46 1.378 . S
C45 C72 1.486 . S
C46 H8 0.930 . S
C46 C45 1.378 . S
C46 C47 1.376 . S
C47 H9 0.929 . S
C47 C42 1.397 . S
C47 C46 1.376 . S
C48 C32 1.509 . S
C48 C49 1.391 . S
C48 C53 1.386 . S
C49 H10 0.930 . S
C49 C48 1.391 . S
C49 C50 1.375 . S
C50 H11 0.931 . S
C50 C49 1.375 . S
C50 C51 1.375 . S
C51 C50 1.375 . S
C51 C52 1.361 . S
C52 H12 0.930 . S
C52 C51 1.361 . S
C52 C53 1.399 . S
C53 H13 0.929 . S
C53 C48 1.386 . S
C53 C52 1.399 . S
C54 C33 1.485 . S
C54 C55 1.394 . S
C54 C59 1.360 . S
C55 H14 0.931 . S
C55 C54 1.394 . S
C55 C56 1.372 . S
C56 H15 0.930 . S
C56 C55 1.372 . S
C56 C57 1.397 . S
C57 C56 1.397 . S
C57 C58 1.390 . S
C57 C73 1.476 . S
C58 H16 0.930 . S
C58 C57 1.390 . S
C58 C59 1.366 . S
C59 H17 0.932 . S
C59 C54 1.360 . S
C59 C58 1.366 . S
C60 C34 1.490 . S
C60 C61 1.380 . S
C60 C65 1.386 . S
C61 H18 0.930 . S
C61 C60 1.380 . S
C61 C62 1.381 . S
C62 H19 0.929 . S
C62 C61 1.381 . S
C62 C63 1.371 . S
C63 C62 1.371 . S
C63 C64 1.380 . S
C64 H20 0.931 . S
C64 C63 1.380 . S
C64 C65 1.387 . S
C65 H21 0.930 . S
C65 C60 1.386 . S
C65 C64 1.387 . S
C66 C35 1.519 1_655 S
C66 C67 1.377 . S
C66 C71 1.361 . S
C67 H22 0.929 . S
C67 C66 1.377 . S
C67 C68 1.386 . S
C68 H23 0.931 . S
C68 C67 1.386 . S
C68 C69 1.363 . S
C69 C68 1.363 . S
C69 C70 1.385 . S
C70 H24 0.930 . S
C70 C69 1.385 . S
C70 C71 1.396 . S
C71 H25 0.929 1_655 S
C71 C66 1.361 . S
C71 C70 1.396 . S
C72 O26 1.300 . S
C72 O27 1.209 . S
C72 C45 1.486 . S
C73 O28 1.199 . S
C73 O29 1.297 . S
C73 C57 1.476 . S
H74 O100 0.856 . S
H75 O103 0.854 . S
H76 C111 0.930 . S
H77 C112 0.930 . S
H78 C114 0.930 . S
H79 C115 0.930 . S
H80 C117 0.931 . S
H81 C118 0.930 . S
H82 C120 0.930 . S
H83 C121 0.929 . S
H84 C123 0.930 . S
H85 C124 0.931 . S
H86 C126 0.930 . S
H87 C127 0.929 . S
H88 C129 0.931 . S
H89 C130 0.930 . S
H90 C132 0.930 . S
H91 C133 0.932 . S
H92 C135 0.930 . S
H93 C136 0.929 . S
H94 C138 0.931 . S
H95 C139 0.930 . S
H96 C141 0.929 . S
H97 C142 0.931 . S
H98 C144 0.930 . S
H99 C145 0.929 . S
O100 H74 0.856 . S
O100 C146 1.300 . S
O101 C146 1.209 . S
O102 C147 1.199 . S
O103 H75 0.854 . S
O103 C147 1.297 . S
C104 C105 1.404 . S
C104 C109 1.397 . S
C104 C110 1.492 . S
C105 C104 1.404 . S
C105 C106 1.396 . S
C105 C116 1.492 . S
C106 C105 1.396 . S
C106 C107 1.397 . S
C106 C122 1.509 . S
C107 C106 1.397 . S
C107 C108 1.412 . S
C107 C128 1.485 . S
C108 C107 1.412 . S
C108 C109 1.388 . S
C108 C134 1.490 . S
C109 C104 1.397 . S
C109 C108 1.388 . S
C109 C140 1.519 1_545 S
C110 C104 1.492 . S
C110 C111 1.363 . S
C110 C115 1.390 1_545 S
C111 H76 0.930 . S
C111 C110 1.363 . S
C111 C112 1.372 1_545 S
C112 H77 0.930 . S
C112 C111 1.372 1_565 S
C112 C113 1.383 . S
C113 C112 1.383 . S
C113 C114 1.395 . S
C114 H78 0.930 . S
C114 C113 1.395 . S
C114 C115 1.362 . S
C115 H79 0.930 . S
C115 C110 1.390 1_565 S
C115 C114 1.362 . S
C116 C105 1.492 . S
C116 C117 1.377 . S
C116 C121 1.397 . S
C117 H80 0.931 . S
C117 C116 1.377 . S
C117 C118 1.376 . S
C118 H81 0.930 . S
C118 C117 1.376 . S
C118 C119 1.376 . S
C119 C118 1.376 . S
C119 C120 1.378 . S
C119 C146 1.486 . S
C120 H82 0.930 . S
C120 C119 1.378 . S
C120 C121 1.376 . S
C121 H83 0.929 . S
C121 C116 1.397 . S
C121 C120 1.376 . S
C122 C106 1.509 . S
C122 C123 1.391 . S
C122 C127 1.386 . S
C123 H84 0.930 . S
C123 C122 1.391 . S
C123 C124 1.375 . S
C124 H85 0.931 . S
C124 C123 1.375 . S
C124 C125 1.375 . S
C125 C124 1.375 . S
C125 C126 1.361 . S
C126 H86 0.930 . S
C126 C125 1.361 . S
C126 C127 1.399 . S
C127 H87 0.929 . S
C127 C122 1.386 . S
C127 C126 1.399 . S
C128 C107 1.485 . S
C128 C129 1.394 . S
C128 C133 1.360 . S
C129 H88 0.931 . S
C129 C128 1.394 . S
C129 C130 1.372 . S
C130 H89 0.930 . S
C130 C129 1.372 . S
C130 C131 1.397 . S
C131 C130 1.397 . S
C131 C132 1.390 . S
C131 C147 1.476 . S
C132 H90 0.930 . S
C132 C131 1.390 . S
C132 C133 1.366 . S
C133 H91 0.932 . S
C133 C128 1.360 . S
C133 C132 1.366 . S
C134 C108 1.490 . S
C134 C135 1.380 . S
C134 C139 1.386 . S
C135 H92 0.930 . S
C135 C134 1.380 . S
C135 C136 1.381 . S
C136 H93 0.929 . S
C136 C135 1.381 . S
C136 C137 1.371 . S
C137 C136 1.371 . S
C137 C138 1.380 . S
C138 H94 0.931 . S
C138 C137 1.380 . S
C138 C139 1.387 . S
C139 H95 0.930 . S
C139 C134 1.386 . S
C139 C138 1.387 . S
C140 C109 1.519 1_565 S
C140 C141 1.377 . S
C140 C145 1.361 . S
C141 H96 0.929 . S
C141 C140 1.377 . S
C141 C142 1.386 . S
C142 H97 0.931 . S
C142 C141 1.386 . S
C142 C143 1.363 . S
C143 C142 1.363 . S
C143 C144 1.385 . S
C144 H98 0.930 . S
C144 C143 1.385 . S
C144 C145 1.396 . S
C145 H99 0.929 . S
C145 C140 1.361 . S
C145 C144 1.396 . S
C146 O100 1.300 . S
C146 O101 1.209 . S
C146 C119 1.486 . S
C147 O102 1.199 . S
C147 O103 1.297 . S
C147 C131 1.476 . S
H148 O174 0.856 . S
H149 O177 0.854 . S
H150 C185 0.930 . S
H151 C186 0.930 . S
H152 C188 0.930 . S
H153 C189 0.930 . S
H154 C191 0.931 . S
H155 C192 0.930 . S
H156 C194 0.930 . S
H157 C195 0.929 . S
H158 C197 0.930 . S
H159 C198 0.931 . S
H160 C200 0.930 . S
H161 C201 0.929 . S
H162 C203 0.931 . S
H163 C204 0.930 . S
H164 C206 0.930 . S
H165 C207 0.932 . S
H166 C209 0.930 . S
H167 C210 0.929 . S
H168 C212 0.931 . S
H169 C213 0.930 . S
H170 C215 0.929 . S
H171 C216 0.931 . S
H172 C218 0.930 . S
H173 C219 0.929 . S
O174 H148 0.856 . S
O174 C220 1.300 . S
O175 C220 1.209 . S
O176 C221 1.199 . S
O177 H149 0.854 . S
O177 C221 1.297 . S
C178 C179 1.404 . S
C178 C183 1.397 . S
C178 C184 1.492 . S
C179 C178 1.404 . S
C179 C180 1.396 . S
C179 C190 1.492 . S
C180 C179 1.396 . S
C180 C181 1.397 . S
C180 C196 1.509 . S
C181 C180 1.397 . S
C181 C182 1.412 . S
C181 C202 1.485 . S
C182 C181 1.412 . S
C182 C183 1.388 . S
C182 C208 1.490 . S
C183 C178 1.397 . S
C183 C182 1.388 . S
C183 C214 1.519 . S
C184 C178 1.492 . S
C184 C185 1.363 . S
C184 C189 1.390 . S
C185 H150 0.930 . S
C185 C184 1.363 . S
C185 C186 1.372 . S
C186 H151 0.930 . S
C186 C185 1.372 . S
C186 C187 1.383 . S
C187 C186 1.383 . S
C187 C188 1.395 . S
C188 H152 0.930 . S
C188 C187 1.395 . S
C188 C189 1.362 . S
C189 H153 0.930 . S
C189 C184 1.390 . S
C189 C188 1.362 . S
C190 C179 1.492 . S
C190 C191 1.377 . S
C190 C195 1.397 . S
C191 H154 0.931 . S
C191 C190 1.377 . S
C191 C192 1.376 . S
C192 H155 0.930 . S
C192 C191 1.376 . S
C192 C193 1.376 . S
C193 C192 1.376 . S
C193 C194 1.378 . S
C193 C220 1.486 . S
C194 H156 0.930 . S
C194 C193 1.378 . S
C194 C195 1.376 . S
C195 H157 0.929 . S
C195 C190 1.397 . S
C195 C194 1.376 . S
C196 C180 1.509 . S
C196 C197 1.391 . S
C196 C201 1.386 . S
C197 H158 0.930 . S
C197 C196 1.391 . S
C197 C198 1.375 . S
C198 H159 0.931 . S
C198 C197 1.375 . S
C198 C199 1.375 . S
C199 C198 1.375 . S
C199 C200 1.361 . S
C200 H160 0.930 . S
C200 C199 1.361 . S
C200 C201 1.399 . S
C201 H161 0.929 . S
C201 C196 1.386 . S
C201 C200 1.399 . S
C202 C181 1.485 . S
C202 C203 1.394 . S
C202 C207 1.360 . S
C203 H162 0.931 . S
C203 C202 1.394 . S
C203 C204 1.372 . S
C204 H163 0.930 . S
C204 C203 1.372 . S
C204 C205 1.397 . S
C205 C204 1.397 . S
C205 C206 1.390 . S
C205 C221 1.476 . S
C206 H164 0.930 . S
C206 C205 1.390 . S
C206 C207 1.366 . S
C207 H165 0.932 . S
C207 C202 1.360 . S
C207 C206 1.366 . S
C208 C182 1.490 . S
C208 C209 1.380 . S
C208 C213 1.386 . S
C209 H166 0.930 . S
C209 C208 1.380 . S
C209 C210 1.381 . S
C210 H167 0.929 . S
C210 C209 1.381 . S
C210 C211 1.371 . S
C211 C210 1.371 . S
C211 C212 1.380 . S
C212 H168 0.931 . S
C212 C211 1.380 . S
C212 C213 1.387 . S
C213 H169 0.930 . S
C213 C208 1.386 . S
C213 C212 1.387 . S
C214 C183 1.519 . S
C214 C215 1.377 . S
C214 C219 1.361 . S
C215 H170 0.929 . S
C215 C214 1.377 . S
C215 C216 1.386 . S
C216 H171 0.931 . S
C216 C215 1.386 . S
C216 C217 1.363 . S
C217 C216 1.363 . S
C217 C218 1.385 . S
C218 H172 0.930 . S
C218 C217 1.385 . S
C218 C219 1.396 . S
C219 H173 0.929 . S
C219 C214 1.361 . S
C219 C218 1.396 . S
C220 O174 1.300 . S
C220 O175 1.209 . S
C220 C193 1.486 . S
C221 O176 1.199 . S
C221 O177 1.297 . S
C221 C205 1.476 . S
H222 O248 0.856 . S
H223 O251 0.854 . S
H224 C259 0.930 1_455 S
H225 C260 0.930 . S
H226 C262 0.930 . S
H227 C263 0.930 . S
H228 C265 0.931 . S
H229 C266 0.930 . S
H230 C268 0.930 . S
H231 C269 0.929 . S
H232 C271 0.930 . S
H233 C272 0.931 . S
H234 C274 0.930 . S
H235 C275 0.929 . S
H236 C277 0.931 . S
H237 C278 0.930 . S
H238 C280 0.930 . S
H239 C281 0.932 . S
H240 C283 0.930 . S
H241 C284 0.929 . S
H242 C286 0.931 . S
H243 C287 0.930 . S
H244 C289 0.929 . S
H245 C290 0.931 . S
H246 C292 0.930 . S
H247 C293 0.945 . S
O248 H222 0.856 . S
O248 C294 1.300 . S
O249 C294 1.209 . S
O250 C295 1.199 . S
O251 H223 0.854 . S
O251 C295 1.297 . S
C252 C253 1.404 . S
C252 C257 1.397 . S
C252 C258 1.492 . S
C253 C252 1.404 . S
C253 C254 1.396 . S
C253 C264 1.492 . S
C254 C253 1.396 . S
C254 C255 1.397 . S
C254 C270 1.509 . S
C255 C254 1.397 . S
C255 C256 1.412 . S
C255 C276 1.485 . S
C256 C255 1.412 . S
C256 C257 1.388 . S
C256 C282 1.490 . S
C257 C252 1.397 . S
C257 C256 1.388 . S
C257 C288 1.519 1_455 S
C258 C252 1.492 . S
C258 C259 1.363 1_455 S
C258 C263 1.390 1_455 S
C259 H224 0.930 1_655 S
C259 C258 1.363 1_655 S
C259 C260 1.372 . S
C260 H225 0.930 . S
C260 C259 1.372 . S
C260 C261 1.383 . S
C261 C260 1.383 . S
C261 C262 1.395 . S
C262 H226 0.930 . S
C262 C261 1.395 . S
C262 C263 1.362 . S
C263 H227 0.930 . S
C263 C258 1.390 1_655 S
C263 C262 1.362 . S
C264 C253 1.492 . S
C264 C265 1.377 . S
C264 C269 1.397 . S
C265 H228 0.931 . S
C265 C264 1.377 . S
C265 C266 1.376 . S
C266 H229 0.930 . S
C266 C265 1.376 . S
C266 C267 1.376 . S
C267 C266 1.376 . S
C267 C268 1.378 . S
C267 C294 1.486 . S
C268 H230 0.930 . S
C268 C267 1.378 . S
C268 C269 1.376 . S
C269 H231 0.929 . S
C269 C264 1.397 . S
C269 C268 1.376 . S
C270 C254 1.509 . S
C270 C271 1.391 . S
C270 C275 1.386 . S
C271 H232 0.930 . S
C271 C270 1.391 . S
C271 C272 1.375 . S
C272 H233 0.931 . S
C272 C271 1.375 . S
C272 C273 1.375 . S
C273 C272 1.375 . S
C273 C274 1.361 . S
C274 H234 0.930 . S
C274 C273 1.361 . S
C274 C275 1.399 . S
C275 H235 0.929 . S
C275 C270 1.386 . S
C275 C274 1.399 . S
C276 C255 1.485 . S
C276 C277 1.394 . S
C276 C281 1.360 . S
C277 H236 0.931 . S
C277 C276 1.394 . S
C277 C278 1.372 . S
C278 H237 0.930 . S
C278 C277 1.372 . S
C278 C279 1.397 . S
C279 C278 1.397 . S
C279 C280 1.390 . S
C279 C295 1.476 . S
C280 H238 0.930 . S
C280 C279 1.390 . S
C280 C281 1.366 . S
C281 H239 0.932 . S
C281 C276 1.360 . S
C281 C280 1.366 . S
C282 C256 1.490 . S
C282 C283 1.380 . S
C282 C287 1.386 . S
C283 H240 0.930 . S
C283 C282 1.380 . S
C283 C284 1.381 . S
C284 H241 0.929 . S
C284 C283 1.381 . S
C284 C285 1.371 . S
C285 C284 1.371 . S
C285 C286 1.380 . S
C286 H242 0.931 . S
C286 C285 1.380 . S
C286 C287 1.387 . S
C287 H243 0.930 . S
C287 C282 1.386 . S
C287 C286 1.387 . S
C288 C257 1.519 1_655 S
C288 C289 1.377 . S
C288 C293 1.361 . S
C289 H244 0.929 . S
C289 C288 1.377 . S
C289 C290 1.386 . S
C290 H245 0.931 . S
C290 C289 1.386 . S
C290 C291 1.363 . S
C291 C290 1.363 . S
C291 C292 1.385 . S
C292 H246 0.930 . S
C292 C291 1.385 . S
C292 C293 1.396 . S
C293 H247 0.945 . S
C293 C288 1.361 . S
C293 C292 1.396 . S
C294 O248 1.300 . S
C294 O249 1.209 . S
C294 C267 1.486 . S
C295 O250 1.199 . S
C295 O251 1.297 . S
C295 C279 1.476 . S
H296 O322 0.856 . S
H297 O325 0.854 . S
H298 C333 0.930 . S
H299 C334 0.930 . S
H300 C336 0.930 . S
H301 C337 0.930 . S
H302 C339 0.931 . S
H303 C340 0.930 . S
H304 C342 0.930 . S
H305 C343 0.929 . S
H306 C345 0.930 . S
H307 C346 0.931 . S
H308 C348 0.930 . S
H309 C349 0.929 . S
H310 C351 0.931 . S
H311 C352 0.930 . S
H312 C354 0.930 . S
H313 C355 0.932 . S
H314 C357 0.930 . S
H315 C358 0.929 1_545 S
H316 C360 0.931 . S
H317 C361 0.930 . S
H318 C363 0.929 1_556 S
H319 C364 0.931 . S
H320 C366 0.930 . S
H321 C367 0.929 . S
O322 H296 0.856 . S
O322 C368 1.300 . S
O323 C368 1.209 . S
O324 C369 1.199 . S
O325 H297 0.854 . S
O325 C369 1.297 . S
C326 C327 1.404 . S
C326 C331 1.397 1_565 S
C326 C332 1.492 1_565 S
C327 C326 1.404 . S
C327 C328 1.396 . S
C327 C338 1.492 . S
C328 C327 1.396 . S
C328 C329 1.397 . S
C328 C344 1.509 . S
C329 C328 1.397 . S
C329 C330 1.412 1_556 S
C329 C350 1.485 1_556 S
C330 C329 1.412 1_554 S
C330 C331 1.388 1_564 S
C330 C356 1.490 . S
C331 C326 1.397 1_545 S
C331 C330 1.388 1_546 S
C331 C362 1.519 1_556 S
C332 C326 1.492 1_545 S
C332 C333 1.363 . S
C332 C337 1.390 . S
C333 H298 0.930 . S
C333 C332 1.363 . S
C333 C334 1.372 . S
C334 H299 0.930 . S
C334 C333 1.372 . S
C334 C335 1.383 . S
C335 C334 1.383 . S
C335 C336 1.395 . S
C336 H300 0.930 . S
C336 C335 1.395 . S
C336 C337 1.362 . S
C337 H301 0.930 . S
C337 C332 1.390 . S
C337 C336 1.362 . S
C338 C327 1.492 . S
C338 C339 1.377 . S
C338 C343 1.397 . S
C339 H302 0.931 . S
C339 C338 1.377 . S
C339 C340 1.376 . S
C340 H303 0.930 . S
C340 C339 1.376 . S
C340 C341 1.376 . S
C341 C340 1.376 . S
C341 C342 1.378 . S
C341 C368 1.486 . S
C342 H304 0.930 . S
C342 C341 1.378 . S
C342 C343 1.376 . S
C343 H305 0.929 . S
C343 C338 1.397 . S
C343 C342 1.376 . S
C344 C328 1.509 . S
C344 C345 1.391 . S
C344 C349 1.386 . S
C345 H306 0.930 . S
C345 C344 1.391 . S
C345 C346 1.375 . S
C346 H307 0.931 . S
C346 C345 1.375 . S
C346 C347 1.375 . S
C347 C346 1.375 . S
C347 C348 1.361 . S
C348 H308 0.930 . S
C348 C347 1.361 . S
C348 C349 1.399 . S
C349 H309 0.929 . S
C349 C344 1.386 . S
C349 C348 1.399 . S
C350 C329 1.485 1_554 S
C350 C351 1.394 . S
C350 C355 1.360 . S
C351 H310 0.931 . S
C351 C350 1.394 . S
C351 C352 1.372 . S
C352 H311 0.930 . S
C352 C351 1.372 . S
C352 C353 1.397 . S
C353 C352 1.397 . S
C353 C354 1.390 . S
C353 C369 1.476 . S
C354 H312 0.930 . S
C354 C353 1.390 . S
C354 C355 1.366 . S
C355 H313 0.932 . S
C355 C350 1.360 . S
C355 C354 1.366 . S
C356 C330 1.490 . S
C356 C357 1.380 . S
C356 C361 1.386 . S
C357 H314 0.930 . S
C357 C356 1.380 . S
C357 C358 1.381 . S
C358 H315 0.929 1_565 S
C358 C357 1.381 . S
C358 C359 1.371 . S
C359 C358 1.371 . S
C359 C360 1.380 . S
C360 H316 0.931 . S
C360 C359 1.380 . S
C360 C361 1.387 . S
C361 H317 0.930 . S
C361 C356 1.386 . S
C361 C360 1.387 . S
C362 C331 1.519 1_554 S
C362 C363 1.377 . S
C362 C367 1.361 . S
C363 H318 0.929 1_554 S
C363 C362 1.377 . S
C363 C364 1.386 . S
C364 H319 0.931 . S
C364 C363 1.386 . S
C364 C365 1.363 . S
C365 C364 1.363 . S
C365 C366 1.385 . S
C366 H320 0.930 . S
C366 C365 1.385 . S
C366 C367 1.396 . S
C367 H321 0.929 . S
C367 C362 1.361 . S
C367 C366 1.396 . S
C368 O322 1.300 . S
C368 O323 1.209 . S
C368 C341 1.486 . S
C369 O324 1.199 . S
C369 O325 1.297 . S
C369 C353 1.476 . S
H370 O396 0.856 . S
H371 O399 0.854 . S
H372 C407 0.930 . S
H373 C408 0.930 . S
H374 C410 0.930 . S
H375 C411 0.930 . S
H376 C413 0.931 . S
H377 C414 0.930 . S
H378 C416 0.930 . S
H379 C417 0.929 . S
H380 C419 0.930 . S
H381 C420 0.931 . S
H382 C422 0.930 . S
H383 C423 0.929 . S
H384 C425 0.931 . S
H385 C426 0.930 . S
H386 C428 0.930 . S
H387 C429 0.932 . S
H388 C431 0.930 . S
H389 C432 0.929 . S
H390 C434 0.931 . S
H391 C435 0.930 . S
H392 C437 0.929 . S
H393 C438 0.931 . S
H394 C440 0.930 . S
H395 C441 0.929 . S
O396 H370 0.856 . S
O396 C442 1.300 . S
O397 C442 1.209 . S
O398 C443 1.199 . S
O399 H371 0.854 . S
O399 C443 1.297 . S
C400 C401 1.404 . S
C400 C405 1.397 . S
C400 C406 1.492 . S
C401 C400 1.404 . S
C401 C402 1.396 . S
C401 C412 1.492 . S
C402 C401 1.396 . S
C402 C403 1.397 . S
C402 C418 1.509 . S
C403 C402 1.397 . S
C403 C404 1.412 . S
C403 C424 1.485 . S
C404 C403 1.412 . S
C404 C405 1.388 . S
C404 C430 1.490 . S
C405 C400 1.397 . S
C405 C404 1.388 . S
C405 C436 1.519 . S
C406 C400 1.492 . S
C406 C407 1.363 . S
C406 C411 1.390 . S
C407 H372 0.930 . S
C407 C406 1.363 . S
C407 C408 1.372 . S
C408 H373 0.930 . S
C408 C407 1.372 . S
C408 C409 1.383 . S
C409 C408 1.383 . S
C409 C410 1.395 . S
C410 H374 0.930 . S
C410 C409 1.395 . S
C410 C411 1.362 . S
C411 H375 0.930 . S
C411 C406 1.390 . S
C411 C410 1.362 . S
C412 C401 1.492 . S
C412 C413 1.377 . S
C412 C417 1.397 . S
C413 H376 0.931 . S
C413 C412 1.377 . S
C413 C414 1.376 . S
C414 H377 0.930 . S
C414 C413 1.376 . S
C414 C415 1.376 . S
C415 C414 1.376 . S
C415 C416 1.378 . S
C415 C442 1.486 . S
C416 H378 0.930 . S
C416 C415 1.378 . S
C416 C417 1.376 . S
C417 H379 0.929 . S
C417 C412 1.397 . S
C417 C416 1.376 . S
C418 C402 1.509 . S
C418 C419 1.391 . S
C418 C423 1.386 . S
C419 H380 0.930 . S
C419 C418 1.391 . S
C419 C420 1.375 . S
C420 H381 0.931 . S
C420 C419 1.375 . S
C420 C421 1.375 . S
C421 C420 1.375 . S
C421 C422 1.361 . S
C422 H382 0.930 . S
C422 C421 1.361 . S
C422 C423 1.399 . S
C423 H383 0.929 . S
C423 C418 1.386 . S
C423 C422 1.399 . S
C424 C403 1.485 . S
C424 C425 1.394 . S
C424 C429 1.360 . S
C425 H384 0.931 . S
C425 C424 1.394 . S
C425 C426 1.372 . S
C426 H385 0.930 . S
C426 C425 1.372 . S
C426 C427 1.397 . S
C427 C426 1.397 . S
C427 C428 1.390 . S
C427 C443 1.476 . S
C428 H386 0.930 . S
C428 C427 1.390 . S
C428 C429 1.366 . S
C429 H387 0.932 . S
C429 C424 1.360 . S
C429 C428 1.366 . S
C430 C404 1.490 . S
C430 C431 1.380 . S
C430 C435 1.386 . S
C431 H388 0.930 . S
C431 C430 1.380 . S
C431 C432 1.381 . S
C432 H389 0.929 . S
C432 C431 1.381 . S
C432 C433 1.371 . S
C433 C432 1.371 . S
C433 C434 1.380 . S
C434 H390 0.931 . S
C434 C433 1.380 . S
C434 C435 1.387 . S
C435 H391 0.930 . S
C435 C430 1.386 . S
C435 C434 1.387 . S
C436 C405 1.519 . S
C436 C437 1.377 . S
C436 C441 1.361 . S
C437 H392 0.929 . S
C437 C436 1.377 . S
C437 C438 1.386 . S
C438 H393 0.931 . S
C438 C437 1.386 . S
C438 C439 1.363 . S
C439 C438 1.363 . S
C439 C440 1.385 . S
C440 H394 0.930 . S
C440 C439 1.385 . S
C440 C441 1.396 . S
C441 H395 0.929 . S
C441 C436 1.361 . S
C441 C440 1.396 . S
C442 O396 1.300 . S
C442 O397 1.209 . S
C442 C415 1.486 . S
C443 O398 1.199 . S
C443 O399 1.297 . S
C443 C427 1.476 . S
Zn444 O447 2.031 . S
Zn444 O449 2.049 . S
Zn444 O454 2.067 . S
Zn445 O446 1.962 . S
Zn445 O448 1.986 . S
Zn445 O450 1.996 . S
Zn445 O453 1.943 . S
O446 Zn445 1.962 . S
O446 C451 1.254 . S
O447 Zn444 2.031 . S
O447 C451 1.269 . S
O448 Zn445 1.986 . S
O448 C455 1.262 . S
O449 Zn444 2.049 . S
O449 C457 1.260 . S
O450 Zn445 1.996 . S
O450 C457 1.257 . S
C451 O446 1.254 . S
C451 O447 1.269 . S
C452 O453 1.249 . S
C452 O454 1.270 . S
O453 Zn445 1.943 . S
O453 C452 1.249 . S
O454 Zn444 2.067 . S
O454 C452 1.270 . S
C455 O448 1.262 . S
C455 O456 1.232 . S
O456 C455 1.232 . S
C457 O449 1.260 . S
C457 O450 1.257 . S
Zn458 O461 2.031 . S
Zn458 O463 2.049 . S
Zn458 O468 2.067 . S
Zn459 O460 1.962 . S
Zn459 O462 1.986 . S
Zn459 O464 1.996 . S
Zn459 O467 1.943 . S
O460 Zn459 1.962 . S
O460 C465 1.254 . S
O461 Zn458 2.031 . S
O461 C465 1.269 . S
O462 Zn459 1.986 . S
O462 C469 1.262 . S
O463 Zn458 2.049 . S
O463 C471 1.260 . S
O464 Zn459 1.996 . S
O464 C471 1.257 . S
C465 O460 1.254 . S
C465 O461 1.269 . S
C466 O467 1.249 . S
C466 O468 1.270 . S
O467 Zn459 1.943 . S
O467 C466 1.249 . S
O468 Zn458 2.067 . S
O468 C466 1.270 . S
C469 O462 1.262 . S
C469 O470 1.232 . S
O470 C469 1.232 . S
C471 O463 1.260 . S
C471 O464 1.257 . S
Zn472 O475 2.031 . S
Zn472 O477 2.049 . S
Zn472 O482 2.067 . S
Zn473 O474 1.962 . S
Zn473 O476 1.986 . S
Zn473 O478 1.996 . S
Zn473 O481 1.943 . S
O474 Zn473 1.962 . S
O474 C479 1.254 . S
O475 Zn472 2.031 . S
O475 C479 1.269 . S
O476 Zn473 1.986 . S
O476 C483 1.262 . S
O477 Zn472 2.049 . S
O477 C485 1.260 . S
O478 Zn473 1.996 . S
O478 C485 1.257 . S
C479 O474 1.254 . S
C479 O475 1.269 . S
C480 O481 1.249 . S
C480 O482 1.270 . S
O481 Zn473 1.943 . S
O481 C480 1.249 . S
O482 Zn472 2.067 . S
O482 C480 1.270 . S
C483 O476 1.262 . S
C483 O484 1.232 . S
O484 C483 1.232 . S
C485 O477 1.260 . S
C485 O478 1.257 . S
Zn486 O489 2.031 . S
Zn486 O491 2.049 . S
Zn486 O496 2.067 . S
Zn487 O488 1.962 . S
Zn487 O490 1.986 . S
Zn487 O492 1.996 . S
Zn487 O495 1.943 . S
O488 Zn487 1.962 . S
O488 C493 1.254 . S
O489 Zn486 2.031 . S
O489 C493 1.269 . S
O490 Zn487 1.986 . S
O490 C497 1.262 . S
O491 Zn486 2.049 . S
O491 C499 1.260 . S
O492 Zn487 1.996 . S
O492 C499 1.257 . S
C493 O488 1.254 . S
C493 O489 1.269 . S
C494 O495 1.249 . S
C494 O496 1.270 . S
O495 Zn487 1.943 . S
O495 C494 1.249 . S
O496 Zn486 2.067 . S
O496 C494 1.270 . S
C497 O490 1.262 . S
C497 O498 1.232 . S
O498 C497 1.232 . S
C499 O491 1.260 . S
C499 O492 1.257 . S
Zn500 O503 2.031 . S
Zn500 O505 2.049 . S
Zn500 O510 2.067 . S
Zn501 O502 1.962 . S
Zn501 O504 1.986 . S
Zn501 O506 1.996 . S
Zn501 O509 1.943 . S
O502 Zn501 1.962 . S
O502 C507 1.254 . S
O503 Zn500 2.031 . S
O503 C507 1.269 . S
O504 Zn501 1.986 . S
O504 C511 1.262 . S
O505 Zn500 2.049 . S
O505 C513 1.260 . S
O506 Zn501 1.996 . S
O506 C513 1.257 . S
C507 O502 1.254 . S
C507 O503 1.269 . S
C508 O509 1.249 . S
C508 O510 1.270 . S
O509 Zn501 1.943 . S
O509 C508 1.249 . S
O510 Zn500 2.067 . S
O510 C508 1.270 . S
C511 O504 1.262 . S
C511 O512 1.232 . S
O512 C511 1.232 . S
C513 O505 1.260 . S
C513 O506 1.257 . S
Zn514 O517 2.031 . S
Zn514 O519 2.049 . S
Zn514 O524 2.067 . S
Zn515 O516 1.962 . S
Zn515 O518 1.986 . S
Zn515 O520 1.996 . S
Zn515 O523 1.943 . S
O516 Zn515 1.962 . S
O516 C521 1.254 . S
O517 Zn514 2.031 . S
O517 C521 1.269 . S
O518 Zn515 1.986 . S
O518 C525 1.262 . S
O519 Zn514 2.049 . S
O519 C527 1.260 . S
O520 Zn515 1.996 . S
O520 C527 1.257 . S
C521 O516 1.254 . S
C521 O517 1.269 . S
C522 O523 1.249 . S
C522 O524 1.270 . S
O523 Zn515 1.943 . S
O523 C522 1.249 . S
O524 Zn514 2.067 . S
O524 C522 1.270 . S
C525 O518 1.262 . S
C525 O526 1.232 . S
O526 C525 1.232 . S
C527 O519 1.260 . S
C527 O520 1.257 . S
H528 C534 0.930 . S
H529 C538 0.930 . S
H530 C543 0.929 . S
H531 C541 0.929 . S
H532 C536 0.929 . S
H533 C542 0.929 . S
C534 H528 0.930 . S
C534 C535 1.367 . S
C534 C542 1.378 . S
C535 C534 1.367 . S
C535 C543 1.433 . S
C536 H532 0.929 . S
C536 C538 1.378 . S
C536 C540 1.350 . S
C537 C540 1.463 . S
C537 C542 1.350 . S
C537 N545 1.427 . S
C538 H529 0.930 . S
C538 C536 1.378 . S
C538 C539 1.367 . S
C539 C538 1.367 . S
C539 C541 1.433 . S
C540 C536 1.350 . S
C540 C537 1.463 . S
C540 N544 1.427 . S
C541 H531 0.929 . S
C541 C539 1.433 . S
C541 N544 1.384 . S
C542 H533 0.929 . S
C542 C534 1.378 . S
C542 C537 1.350 . S
C543 H530 0.929 . S
C543 C535 1.433 . S
C543 N545 1.384 . S
N544 C540 1.427 . S
N544 C541 1.384 . S
N545 C537 1.427 . S
N545 C543 1.384 . S
H546 C552 0.930 . S
H547 C556 0.930 . S
H548 C561 0.929 . S
H549 C559 0.929 . S
H550 C554 0.929 . S
H551 C560 0.929 . S
C552 H546 0.930 . S
C552 C553 1.367 . S
C552 C560 1.378 . S
C553 C552 1.367 . S
C553 C561 1.433 . S
C554 H550 0.929 . S
C554 C556 1.378 . S
C554 C558 1.350 . S
C555 C558 1.463 . S
C555 C560 1.350 . S
C555 N563 1.427 . S
C556 H547 0.930 . S
C556 C554 1.378 . S
C556 C557 1.367 . S
C557 C556 1.367 . S
C557 C559 1.433 . S
C558 C554 1.350 . S
C558 C555 1.463 . S
C558 N562 1.427 . S
C559 H549 0.929 . S
C559 C557 1.433 . S
C559 N562 1.384 . S
C560 H551 0.929 . S
C560 C552 1.378 . S
C560 C555 1.350 . S
C561 H548 0.929 . S
C561 C553 1.433 . S
C561 N563 1.384 . S
N562 C558 1.427 . S
N562 C559 1.384 . S
N563 C555 1.427 . S
N563 C561 1.384 . S
H564 C570 0.930 . S
H565 C574 0.930 . S
H566 C579 0.929 . S
H567 C577 0.929 . S
H568 C572 0.929 . S
H569 C578 0.929 . S
C570 H564 0.930 . S
C570 C571 1.367 . S
C570 C578 1.378 . S
C571 C570 1.367 . S
C571 C579 1.433 . S
C572 H568 0.929 . S
C572 C574 1.378 . S
C572 C576 1.350 . S
C573 C576 1.463 . S
C573 C578 1.350 . S
C573 N581 1.427 . S
C574 H565 0.930 . S
C574 C572 1.378 . S
C574 C575 1.367 . S
C575 C574 1.367 . S
C575 C577 1.433 . S
C576 C572 1.350 . S
C576 C573 1.463 . S
C576 N580 1.427 . S
C577 H567 0.929 . S
C577 C575 1.433 . S
C577 N580 1.384 . S
C578 H569 0.929 . S
C578 C570 1.378 . S
C578 C573 1.350 . S
C579 H566 0.929 . S
C579 C571 1.433 . S
C579 N581 1.384 . S
N580 C576 1.427 . S
N580 C577 1.384 . S
N581 C573 1.427 . S
N581 C579 1.384 . S
H582 C588 0.930 . S
H583 C592 0.930 . S
H584 C597 0.929 . S
H585 C595 0.929 . S
H586 C590 0.929 . S
H587 C596 0.929 . S
C588 H582 0.930 . S
C588 C589 1.367 . S
C588 C596 1.378 . S
C589 C588 1.367 . S
C589 C597 1.433 . S
C590 H586 0.929 . S
C590 C592 1.378 . S
C590 C594 1.350 . S
C591 C594 1.463 . S
C591 C596 1.350 . S
C591 N599 1.427 . S
C592 H583 0.930 . S
C592 C590 1.378 . S
C592 C593 1.367 . S
C593 C592 1.367 . S
C593 C595 1.433 . S
C594 C590 1.350 . S
C594 C591 1.463 . S
C594 N598 1.427 . S
C595 H585 0.929 . S
C595 C593 1.433 . S
C595 N598 1.384 . S
C596 H587 0.929 . S
C596 C588 1.378 . S
C596 C591 1.350 . S
C597 H584 0.929 . S
C597 C589 1.433 . S
C597 N599 1.384 . S
N598 C594 1.427 . S
N598 C595 1.384 . S
N599 C591 1.427 . S
N599 C597 1.384 . S
H600 C606 0.930 . S
H601 C610 0.930 . S
H602 C615 0.929 . S
H603 C613 0.929 . S
H604 C608 0.929 . S
H605 C614 0.929 . S
C606 H600 0.930 . S
C606 C607 1.367 . S
C606 C614 1.378 . S
C607 C606 1.367 . S
C607 C615 1.433 . S
C608 H604 0.929 . S
C608 C610 1.378 . S
C608 C612 1.350 . S
C609 C612 1.463 . S
C609 C614 1.350 . S
C609 N617 1.427 . S
C610 H601 0.930 . S
C610 C608 1.378 . S
C610 C611 1.367 . S
C611 C610 1.367 . S
C611 C613 1.433 . S
C612 C608 1.350 . S
C612 C609 1.463 . S
C612 N616 1.427 . S
C613 H603 0.929 . S
C613 C611 1.433 . S
C613 N616 1.384 . S
C614 H605 0.929 . S
C614 C606 1.378 . S
C614 C609 1.350 . S
C615 H602 0.929 . S
C615 C607 1.433 . S
C615 N617 1.384 . S
N616 C612 1.427 . S
N616 C613 1.384 . S
N617 C609 1.427 . S
N617 C615 1.384 . S
H618 C624 0.930 . S
H619 C628 0.930 . S
H620 C633 0.929 . S
H621 C631 0.929 . S
H622 C626 0.929 . S
H623 C632 0.929 . S
C624 H618 0.930 . S
C624 C625 1.367 . S
C624 C632 1.378 . S
C625 C624 1.367 . S
C625 C633 1.433 . S
C626 H622 0.929 . S
C626 C628 1.378 . S
C626 C630 1.350 . S
C627 C630 1.463 . S
C627 C632 1.350 . S
C627 N635 1.427 . S
C628 H619 0.930 . S
C628 C626 1.378 . S
C628 C629 1.367 . S
C629 C628 1.367 . S
C629 C631 1.433 . S
C630 C626 1.350 . S
C630 C627 1.463 . S
C630 N634 1.427 . S
C631 H621 0.929 . S
C631 C629 1.433 . S
C631 N634 1.384 . S
C632 H623 0.929 . S
C632 C624 1.378 . S
C632 C627 1.350 . S
C633 H620 0.929 . S
C633 C625 1.433 . S
C633 N635 1.384 . S
N634 C630 1.427 . S
N634 C631 1.384 . S
N635 C627 1.427 . S
N635 C633 1.384 . S
H636 C642 0.930 . S
H637 C646 0.930 . S
H638 C651 0.929 . S
H639 C649 0.929 . S
H640 C644 0.929 . S
H641 C650 0.929 . S
C642 H636 0.930 . S
C642 C643 1.367 . S
C642 C650 1.378 . S
C643 C642 1.367 . S
C643 C651 1.433 . S
C644 H640 0.929 . S
C644 C646 1.378 . S
C644 C648 1.350 . S
C645 C648 1.463 . S
C645 C650 1.350 . S
C645 N653 1.427 . S
C646 H637 0.930 . S
C646 C644 1.378 . S
C646 C647 1.367 . S
C647 C646 1.367 . S
C647 C649 1.433 . S
C648 C644 1.350 . S
C648 C645 1.463 . S
C648 N652 1.427 . S
C649 H639 0.929 . S
C649 C647 1.433 . S
C649 N652 1.384 . S
C650 H641 0.929 . S
C650 C642 1.378 . S
C650 C645 1.350 . S
C651 H638 0.929 . S
C651 C643 1.433 . S
C651 N653 1.384 . S
N652 C648 1.427 . S
N652 C649 1.384 . S
N653 C645 1.427 . S
N653 C651 1.384 . S
H654 C660 0.930 . S
H655 C664 0.930 . S
H656 C669 0.929 . S
H657 C667 0.929 . S
H658 C662 0.929 . S
H659 C668 0.929 . S
C660 H654 0.930 . S
C660 C661 1.367 . S
C660 C668 1.378 . S
C661 C660 1.367 . S
C661 C669 1.433 . S
C662 H658 0.929 . S
C662 C664 1.378 . S
C662 C666 1.350 . S
C663 C666 1.463 . S
C663 C668 1.350 . S
C663 N671 1.427 . S
C664 H655 0.930 . S
C664 C662 1.378 . S
C664 C665 1.367 . S
C665 C664 1.367 . S
C665 C667 1.433 . S
C666 C662 1.350 . S
C666 C663 1.463 . S
C666 N670 1.427 . S
C667 H657 0.929 . S
C667 C665 1.433 . S
C667 N670 1.384 . S
C668 H659 0.929 . S
C668 C660 1.378 . S
C668 C663 1.350 . S
C669 H656 0.929 . S
C669 C661 1.433 . S
C669 N671 1.384 . S
N670 C666 1.427 . S
N670 C667 1.384 . S
N671 C663 1.427 . S
N671 C669 1.384 . S
H672 C678 0.930 . S
H673 C682 0.930 . S
H674 C687 0.929 . S
H675 C685 0.929 . S
H676 C680 0.929 . S
H677 C686 0.929 . S
C678 H672 0.930 . S
C678 C679 1.367 . S
C678 C686 1.378 . S
C679 C678 1.367 . S
C679 C687 1.433 . S
C680 H676 0.929 . S
C680 C682 1.378 . S
C680 C684 1.350 . S
C681 C684 1.463 . S
C681 C686 1.350 . S
C681 N689 1.427 . S
C682 H673 0.930 . S
C682 C680 1.378 . S
C682 C683 1.367 . S
C683 C682 1.367 . S
C683 C685 1.433 . S
C684 C680 1.350 . S
C684 C681 1.463 . S
C684 N688 1.427 . S
C685 H675 0.929 . S
C685 C683 1.433 . S
C685 N688 1.384 . S
C686 H677 0.929 . S
C686 C678 1.378 . S
C686 C681 1.350 . S
C687 H674 0.929 . S
C687 C679 1.433 . S
C687 N689 1.384 . S
N688 C684 1.427 . S
N688 C685 1.384 . S
N689 C681 1.427 . S
N689 C687 1.384 . S
H690 C696 0.930 . S
H691 C700 0.930 . S
H692 C705 0.929 . S
H693 C703 0.929 . S
H694 C698 0.929 . S
H695 C704 0.929 . S
C696 H690 0.930 . S
C696 C697 1.367 . S
C696 C704 1.378 . S
C697 C696 1.367 . S
C697 C705 1.433 . S
C698 H694 0.929 . S
C698 C700 1.378 . S
C698 C702 1.350 . S
C699 C702 1.463 . S
C699 C704 1.350 . S
C699 N707 1.427 . S
C700 H691 0.930 . S
C700 C698 1.378 . S
C700 C701 1.367 . S
C701 C700 1.367 . S
C701 C703 1.433 . S
C702 C698 1.350 . S
C702 C699 1.463 . S
C702 N706 1.427 . S
C703 H693 0.929 . S
C703 C701 1.433 . S
C703 N706 1.384 . S
C704 H695 0.929 . S
C704 C696 1.378 . S
C704 C699 1.350 . S
C705 H692 0.929 . S
C705 C697 1.433 . S
C705 N707 1.384 . S
N706 C702 1.427 . S
N706 C703 1.384 . S
N707 C699 1.427 . S
N707 C705 1.384 . S
H708 C714 0.930 . S
H709 C718 0.930 . S
H710 C723 0.929 . S
H711 C721 0.929 . S
H712 C716 0.929 . S
H713 C722 0.929 . S
C714 H708 0.930 . S
C714 C715 1.367 . S
C714 C722 1.378 . S
C715 C714 1.367 . S
C715 C723 1.433 . S
C716 H712 0.929 . S
C716 C718 1.378 . S
C716 C720 1.350 . S
C717 C720 1.463 . S
C717 C722 1.350 . S
C717 N725 1.427 . S
C718 H709 0.930 . S
C718 C716 1.378 . S
C718 C719 1.367 . S
C719 C718 1.367 . S
C719 C721 1.433 . S
C720 C716 1.350 . S
C720 C717 1.463 . S
C720 N724 1.427 . S
C721 H711 0.929 . S
C721 C719 1.433 . S
C721 N724 1.384 . S
C722 H713 0.929 . S
C722 C714 1.378 . S
C722 C717 1.350 . S
C723 H710 0.929 . S
C723 C715 1.433 . S
C723 N725 1.384 . S
N724 C720 1.427 . S
N724 C721 1.384 . S
N725 C717 1.427 . S
N725 C723 1.384 . S
H726 C732 0.930 . S
H727 C736 0.930 . S
H728 C741 0.929 . S
H729 C739 0.929 . S
H730 C734 0.929 . S
H731 C740 0.929 . S
C732 H726 0.930 . S
C732 C733 1.367 . S
C732 C740 1.378 . S
C733 C732 1.367 . S
C733 C741 1.433 . S
C734 H730 0.929 . S
C734 C736 1.378 . S
C734 C738 1.350 . S
C735 C738 1.463 . S
C735 C740 1.350 . S
C735 N743 1.427 . S
C736 H727 0.930 . S
C736 C734 1.378 . S
C736 C737 1.367 . S
C737 C736 1.367 . S
C737 C739 1.433 . S
C738 C734 1.350 . S
C738 C735 1.463 . S
C738 N742 1.427 . S
C739 H729 0.929 . S
C739 C737 1.433 . S
C739 N742 1.384 . S
C740 H731 0.929 . S
C740 C732 1.378 . S
C740 C735 1.350 . S
C741 H728 0.929 . S
C741 C733 1.433 . S
C741 N743 1.384 . S
N742 C738 1.427 . S
N742 C739 1.384 . S
N743 C735 1.427 . S
N743 C741 1.384 . S
H744 C750 0.930 . S
H745 C754 0.930 . S
H746 C759 0.929 . S
H747 C757 0.929 . S
H748 C752 0.929 . S
H749 C758 0.929 . S
C750 H744 0.930 . S
C750 C751 1.367 . S
C750 C758 1.378 . S
C751 C750 1.367 . S
C751 C759 1.433 . S
C752 H748 0.929 . S
C752 C754 1.378 . S
C752 C756 1.350 . S
C753 C756 1.463 . S
C753 C758 1.350 . S
C753 N761 1.427 . S
C754 H745 0.930 . S
C754 C752 1.378 . S
C754 C755 1.367 . S
C755 C754 1.367 . S
C755 C757 1.433 . S
C756 C752 1.350 . S
C756 C753 1.463 . S
C756 N760 1.427 . S
C757 H747 0.929 . S
C757 C755 1.433 . S
C757 N760 1.384 . S
C758 H749 0.929 . S
C758 C750 1.378 . S
C758 C753 1.350 . S
C759 H746 0.929 . S
C759 C751 1.433 . S
C759 N761 1.384 . S
N760 C756 1.427 . S
N760 C757 1.384 . S
N761 C753 1.427 . S
N761 C759 1.384 . S
H762 C768 0.930 . S
H763 C772 0.930 . S
H764 C777 0.929 . S
H765 C775 0.929 . S
H766 C770 0.929 . S
H767 C776 0.929 . S
C768 H762 0.930 . S
C768 C769 1.367 . S
C768 C776 1.378 . S
C769 C768 1.367 . S
C769 C777 1.433 . S
C770 H766 0.929 . S
C770 C772 1.378 . S
C770 C774 1.350 . S
C771 C774 1.463 . S
C771 C776 1.350 . S
C771 N779 1.427 . S
C772 H763 0.930 . S
C772 C770 1.378 . S
C772 C773 1.367 . S
C773 C772 1.367 . S
C773 C775 1.433 . S
C774 C770 1.350 . S
C774 C771 1.463 . S
C774 N778 1.427 . S
C775 H765 0.929 . S
C775 C773 1.433 . S
C775 N778 1.384 . S
C776 H767 0.929 . S
C776 C768 1.378 . S
C776 C771 1.350 . S
C777 H764 0.929 . S
C777 C769 1.433 . S
C777 N779 1.384 . S
N778 C774 1.427 . S
N778 C775 1.384 . S
N779 C771 1.427 . S
N779 C777 1.384 . S
H780 C786 0.930 . S
H781 C790 0.930 . S
H782 C795 0.929 . S
H783 C793 0.929 . S
H784 C788 0.929 . S
H785 C794 0.929 . S
C786 H780 0.930 . S
C786 C787 1.367 . S
C786 C794 1.378 . S
C787 C786 1.367 . S
C787 C795 1.433 . S
C788 H784 0.929 . S
C788 C790 1.378 . S
C788 C792 1.350 . S
C789 C792 1.463 . S
C789 C794 1.350 . S
C789 N797 1.427 . S
C790 H781 0.930 . S
C790 C788 1.378 . S
C790 C791 1.367 . S
C791 C790 1.367 . S
C791 C793 1.433 . S
C792 C788 1.350 . S
C792 C789 1.463 . S
C792 N796 1.427 . S
C793 H783 0.929 . S
C793 C791 1.433 . S
C793 N796 1.384 . S
C794 H785 0.929 . S
C794 C786 1.378 . S
C794 C789 1.350 . S
C795 H782 0.929 . S
C795 C787 1.433 . S
C795 N797 1.384 . S
N796 C792 1.427 . S
N796 C793 1.384 . S
N797 C789 1.427 . S
N797 C795 1.384 . S
H798 C804 0.930 . S
H799 C808 0.930 . S
H800 C813 0.929 . S
H801 C811 0.929 . S
H802 C806 0.929 . S
H803 C812 0.929 . S
C804 H798 0.930 . S
C804 C805 1.367 . S
C804 C812 1.378 . S
C805 C804 1.367 . S
C805 C813 1.433 . S
C806 H802 0.929 . S
C806 C808 1.378 . S
C806 C810 1.350 . S
C807 C810 1.463 . S
C807 C812 1.350 . S
C807 N815 1.427 . S
C808 H799 0.930 . S
C808 C806 1.378 . S
C808 C809 1.367 1_556 S
C809 C808 1.367 1_554 S
C809 C811 1.433 . S
C810 C806 1.350 . S
C810 C807 1.463 . S
C810 N814 1.427 . S
C811 H801 0.929 . S
C811 C809 1.433 . S
C811 N814 1.384 1_554 S
C812 H803 0.929 . S
C812 C804 1.378 . S
C812 C807 1.350 . S
C813 H800 0.929 . S
C813 C805 1.433 . S
C813 N815 1.384 . S
N814 C810 1.427 . S
N814 C811 1.384 1_556 S
N815 C807 1.427 . S
N815 C813 1.384 . S
H816 C822 0.930 . S
H817 C826 0.930 . S
H818 C831 0.929 1_545 S
H819 C829 0.929 . S
H820 C824 0.929 . S
H821 C830 0.929 . S
C822 H816 0.930 . S
C822 C823 1.367 . S
C822 C830 1.378 . S
C823 C822 1.367 . S
C823 C831 1.433 . S
C824 H820 0.929 . S
C824 C826 1.378 . S
C824 C828 1.350 . S
C825 C828 1.463 . S
C825 C830 1.350 . S
C825 N833 1.427 . S
C826 H817 0.930 . S
C826 C824 1.378 . S
C826 C827 1.367 . S
C827 C826 1.367 . S
C827 C829 1.433 . S
C828 C824 1.350 . S
C828 C825 1.463 . S
C828 N832 1.427 . S
C829 H819 0.929 . S
C829 C827 1.433 . S
C829 N832 1.384 . S
C830 H821 0.929 . S
C830 C822 1.378 . S
C830 C825 1.350 . S
C831 H818 0.929 1_565 S
C831 C823 1.433 . S
C831 N833 1.384 . S
N832 C828 1.427 . S
N832 C829 1.384 . S
N833 C825 1.427 . S
N833 C831 1.384 . S
H834 C840 0.930 . S
H835 C844 0.930 . S
H836 C849 0.929 . S
H837 C847 0.929 . S
H838 C842 0.929 . S
H839 C848 0.929 . S
C840 H834 0.930 . S
C840 C841 1.367 . S
C840 C848 1.378 . S
C841 C840 1.367 . S
C841 C849 1.433 . S
C842 H838 0.929 . S
C842 C844 1.378 . S
C842 C846 1.350 . S
C843 C846 1.463 . S
C843 C848 1.350 . S
C843 N851 1.427 . S
C844 H835 0.930 . S
C844 C842 1.378 . S
C844 C845 1.367 . S
C845 C844 1.367 . S
C845 C847 1.433 . S
C846 C842 1.350 . S
C846 C843 1.463 . S
C846 N850 1.427 . S
C847 H837 0.929 . S
C847 C845 1.433 . S
C847 N850 1.384 . S
C848 H839 0.929 . S
C848 C840 1.378 . S
C848 C843 1.350 . S
C849 H836 0.929 . S
C849 C841 1.433 . S
C849 N851 1.384 . S
N850 C846 1.427 . S
N850 C847 1.384 . S
N851 C843 1.427 . S
N851 C849 1.384 . S
H852 C858 0.930 . S
H853 C862 0.930 . S
H854 C867 0.929 . S
H855 C865 0.929 . S
H856 C860 0.929 . S
H857 C866 0.929 . S
C858 H852 0.930 . S
C858 C859 1.367 . S
C858 C866 1.378 . S
C859 C858 1.367 . S
C859 C867 1.433 . S
C860 H856 0.929 . S
C860 C862 1.378 . S
C860 C864 1.350 . S
C861 C864 1.463 . S
C861 C866 1.350 . S
C861 N869 1.427 . S
C862 H853 0.930 . S
C862 C860 1.378 . S
C862 C863 1.367 . S
C863 C862 1.367 . S
C863 C865 1.433 . S
C864 C860 1.350 . S
C864 C861 1.463 . S
C864 N868 1.427 . S
C865 H855 0.929 . S
C865 C863 1.433 . S
C865 N868 1.384 . S
C866 H857 0.929 . S
C866 C858 1.378 . S
C866 C861 1.350 . S
C867 H854 0.929 . S
C867 C859 1.433 . S
C867 N869 1.384 . S
N868 C864 1.427 . S
N868 C865 1.384 . S
N869 C861 1.427 . S
N869 C867 1.384 . S
H870 C876 0.930 . S
H871 C880 0.930 . S
H872 C885 0.929 . S
H873 C883 0.929 . S
H874 C878 0.929 . S
H875 C884 0.929 . S
C876 H870 0.930 . S
C876 C877 1.367 . S
C876 C884 1.378 . S
C877 C876 1.367 . S
C877 C885 1.433 . S
C878 H874 0.929 . S
C878 C880 1.378 . S
C878 C882 1.350 . S
C879 C882 1.463 . S
C879 C884 1.350 . S
C879 N887 1.427 . S
C880 H871 0.930 . S
C880 C878 1.378 . S
C880 C881 1.367 . S
C881 C880 1.367 . S
C881 C883 1.433 . S
C882 C878 1.350 . S
C882 C879 1.463 . S
C882 N886 1.427 . S
C883 H873 0.929 . S
C883 C881 1.433 . S
C883 N886 1.384 . S
C884 H875 0.929 . S
C884 C876 1.378 . S
C884 C879 1.350 . S
C885 H872 0.929 . S
C885 C877 1.433 . S
C885 N887 1.384 . S
N886 C882 1.427 . S
N886 C883 1.384 . S
N887 C879 1.427 . S
N887 C885 1.384 . S
H888 C894 0.930 . S
H889 C898 0.930 . S
H890 C903 0.929 . S
H891 C901 0.929 . S
H892 C896 0.929 . S
H893 C902 0.929 . S
C894 H888 0.930 . S
C894 C895 1.367 . S
C894 C902 1.378 . S
C895 C894 1.367 . S
C895 C903 1.433 . S
C896 H892 0.929 . S
C896 C898 1.378 . S
C896 C900 1.350 . S
C897 C900 1.463 . S
C897 C902 1.350 . S
C897 N905 1.427 . S
C898 H889 0.930 . S
C898 C896 1.378 . S
C898 C899 1.367 . S
C899 C898 1.367 . S
C899 C901 1.433 . S
C900 C896 1.350 . S
C900 C897 1.463 . S
C900 N904 1.427 . S
C901 H891 0.929 . S
C901 C899 1.433 . S
C901 N904 1.384 . S
C902 H893 0.929 . S
C902 C894 1.378 . S
C902 C897 1.350 . S
C903 H890 0.929 . S
C903 C895 1.433 . S
C903 N905 1.384 . S
N904 C900 1.427 . S
N904 C901 1.384 . S
N905 C897 1.427 . S
N905 C903 1.384 . S
H906 C912 0.930 . S
H907 C916 0.930 . S
H908 C921 0.929 . S
H909 C919 0.929 . S
H910 C914 0.929 . S
H911 C920 0.929 . S
C912 H906 0.930 . S
C912 C913 1.367 . S
C912 C920 1.378 . S
C913 C912 1.367 . S
C913 C921 1.433 . S
C914 H910 0.929 . S
C914 C916 1.378 . S
C914 C918 1.350 . S
C915 C918 1.463 . S
C915 C920 1.350 . S
C915 N923 1.427 . S
C916 H907 0.930 . S
C916 C914 1.378 . S
C916 C917 1.367 . S
C917 C916 1.367 . S
C917 C919 1.433 . S
C918 C914 1.350 . S
C918 C915 1.463 . S
C918 N922 1.427 . S
C919 H909 0.929 . S
C919 C917 1.433 . S
C919 N922 1.384 . S
C920 H911 0.929 . S
C920 C912 1.378 . S
C920 C915 1.350 . S
C921 H908 0.929 . S
C921 C913 1.433 . S
C921 N923 1.384 . S
N922 C918 1.427 . S
N922 C919 1.384 . S
N923 C915 1.427 . S
N923 C921 1.384 . S
H924 C930 0.930 . S
H925 C934 0.930 . S
H926 C939 0.929 . S
H927 C937 0.929 . S
H928 C932 0.929 1_554 S
H929 C938 0.929 . S
C930 H924 0.930 . S
C930 C931 1.367 . S
C930 C938 1.378 . S
C931 C930 1.367 . S
C931 C939 1.433 . S
C932 H928 0.929 1_556 S
C932 C934 1.378 . S
C932 C936 1.350 1_556 S
C933 C936 1.463 . S
C933 C938 1.350 . S
C933 N941 1.427 . S
C934 H925 0.930 . S
C934 C932 1.378 . S
C934 C935 1.367 . S
C935 C934 1.367 . S
C935 C937 1.433 . S
C936 C932 1.350 1_554 S
C936 C933 1.463 . S
C936 N940 1.427 1_554 S
C937 H927 0.929 . S
C937 C935 1.433 . S
C937 N940 1.384 . S
C938 H929 0.929 . S
C938 C930 1.378 . S
C938 C933 1.350 . S
C939 H926 0.929 . S
C939 C931 1.433 . S
C939 N941 1.384 . S
N940 C936 1.427 1_556 S
N940 C937 1.384 . S
N941 C933 1.427 . S
N941 C939 1.384 . S
H942 C948 0.930 . S
H943 C952 0.930 . S
H944 C957 0.929 . S
H945 C955 0.929 . S
H946 C950 0.929 . S
H947 C956 0.929 . S
C948 H942 0.930 . S
C948 C949 1.367 . S
C948 C956 1.378 . S
C949 C948 1.367 . S
C949 C957 1.433 . S
C950 H946 0.929 . S
C950 C952 1.378 . S
C950 C954 1.350 . S
C951 C954 1.463 . S
C951 C956 1.350 . S
C951 N959 1.427 . S
C952 H943 0.930 . S
C952 C950 1.378 . S
C952 C953 1.367 . S
C953 C952 1.367 . S
C953 C955 1.433 . S
C954 C950 1.350 . S
C954 C951 1.463 . S
C954 N958 1.427 . S
C955 H945 0.929 . S
C955 C953 1.433 . S
C955 N958 1.384 . S
C956 H947 0.929 . S
C956 C948 1.378 . S
C956 C951 1.350 . S
C957 H944 0.929 . S
C957 C949 1.433 . S
C957 N959 1.384 . S
N958 C954 1.427 . S
N958 C955 1.384 . S
N959 C951 1.427 . S
N959 C957 1.384 . S
C539 C521 1.324 . S
C535 C51 1.301 . S
C553 C125 1.388 . S
C557 C455 1.371 . S
C571 C217 2.421 . S
C575 C469 2.415 . S
C589 C291 1.432 . S
C593 C483 1.402 . S
C611 C497 0.901 . S
C607 C347 0.899 . S
C625 C421 0.794 . S
C629 C507 0.794 . S
C643 C143 2.316 . S
C647 C465 2.322 . S
C661 C199 1.591 . S
C665 C479 1.617 . S
C679 C273 0.467 . S
C683 C493 0.460 . S
C701 C511 1.592 . S
C697 C365 1.603 . S
C719 C525 1.787 . S
C715 C439 1.838 . S
C737 C451 2.413 . S
C733 C69 2.380 . S
C751 C63 1.404 . S
C755 C466 1.461 . S
C769 C137 1.655 . S
C773 C480 1.689 . S
C791 C494 1.411 . S
C787 C187 1.347 . S
C805 C261 1.443 . S
C809 C513 1.443 . S
C827 C527 1.376 . S
C823 C359 1.375 . S
C845 C452 1.050 . S
C841 C433 1.038 . S
C863 C522 1.607 . S
C859 C113 1.622 . S
C877 C211 1.188 . S
C881 C457 1.214 . S
C899 C471 1.469 . S
C895 C285 1.410 . S
C913 C335 1.326 . S
C917 C485 1.323 . S
C931 C409 1.301 . S
C935 C499 1.313 . S
C949 C39 1.636 . S
C953 C508 1.647 . S
