# Generated by pormake.
# Topology zzz, (3,6)-cn, num edge types: 1
# Building blocks:
#     Node 0, Type 0, BuildingBlock: QEWDON_clean_linker_0, # of connection points: 3
#     Node 1, Type 0, BuildingBlock: QEWDON_clean_linker_0, # of connection points: 3
#     Node 2, Type 0, BuildingBlock: QEWDON_clean_linker_0, # of connection points: 3
#     Node 3, Type 0, BuildingBlock: QEWDON_clean_linker_0, # of connection points: 3
#     Node 4, Type 0, BuildingBlock: QEWDON_clean_linker_0, # of connection points: 3
#     Node 5, Type 0, BuildingBlock: QEWDON_clean_linker_0, # of connection points: 3
#     Node 6, Type 0, BuildingBlock: QEWDON_clean_linker_0, # of connection points: 3
#     Node 7, Type 0, BuildingBlock: QEWDON_clean_linker_0, # of connection points: 3
#     Node 8, Type 1, BuildingBlock: KUMBOL_clean_sbu_0, # of connection points: 6
#     Node 9, Type 1, BuildingBlock: KUMBOL_clean_sbu_0, # of connection points: 6
#     Node 10, Type 1, BuildingBlock: KUMBOL_clean_sbu_0, # of connection points: 6
#     Node 11, Type 1, BuildingBlock: KUMBOL_clean_sbu_0, # of connection points: 6
#     Edge 12, Type (0, 1), BuildingBlock: XIVTED_clean_linker_0, # of connection points: 2
#     Edge 13, Type (0, 1), BuildingBlock: XIVTED_clean_linker_0, # of connection points: 2
#     Edge 14, Type (0, 1), BuildingBlock: XIVTED_clean_linker_0, # of connection points: 2
#     Edge 15, Type (0, 1), BuildingBlock: XIVTED_clean_linker_0, # of connection points: 2
#     Edge 16, Type (0, 1), BuildingBlock: XIVTED_clean_linker_0, # of connection points: 2
#     Edge 17, Type (0, 1), BuildingBlock: XIVTED_clean_linker_0, # of connection points: 2
#     Edge 18, Type (0, 1), BuildingBlock: XIVTED_clean_linker_0, # of connection points: 2
#     Edge 19, Type (0, 1), BuildingBlock: XIVTED_clean_linker_0, # of connection points: 2
#     Edge 20, Type (0, 1), BuildingBlock: XIVTED_clean_linker_0, # of connection points: 2
#     Edge 21, Type (0, 1), BuildingBlock: XIVTED_clean_linker_0, # of connection points: 2
#     Edge 22, Type (0, 1), BuildingBlock: XIVTED_clean_linker_0, # of connection points: 2
#     Edge 23, Type (0, 1), BuildingBlock: XIVTED_clean_linker_0, # of connection points: 2
#     Edge 24, Type (0, 1), BuildingBlock: XIVTED_clean_linker_0, # of connection points: 2
#     Edge 25, Type (0, 1), BuildingBlock: XIVTED_clean_linker_0, # of connection points: 2
#     Edge 26, Type (0, 1), BuildingBlock: XIVTED_clean_linker_0, # of connection points: 2
#     Edge 27, Type (0, 1), BuildingBlock: XIVTED_clean_linker_0, # of connection points: 2
#     Edge 28, Type (0, 1), BuildingBlock: XIVTED_clean_linker_0, # of connection points: 2
#     Edge 29, Type (0, 1), BuildingBlock: XIVTED_clean_linker_0, # of connection points: 2
#     Edge 30, Type (0, 1), BuildingBlock: XIVTED_clean_linker_0, # of connection points: 2
#     Edge 31, Type (0, 1), BuildingBlock: XIVTED_clean_linker_0, # of connection points: 2
#     Edge 32, Type (0, 1), BuildingBlock: XIVTED_clean_linker_0, # of connection points: 2
#     Edge 33, Type (0, 1), BuildingBlock: XIVTED_clean_linker_0, # of connection points: 2
#     Edge 34, Type (0, 1), BuildingBlock: XIVTED_clean_linker_0, # of connection points: 2
#     Edge 35, Type (0, 1), BuildingBlock: XIVTED_clean_linker_0, # of connection points: 2
# Relax obj value: 0.113
# Max RMSD: 0.150
# Mean RMSD: 0.075
data_MOF--net-zzz--node1-KUMBOL_clean_sbu_0--node2-QEWDON_clean_linker_0--edge1-XIVTED_clean_linker_0
_symmetry_space_group_name_H-M    P1
_symmetry_Int_Tables_number       1
_symmetry_cell_setting            triclinic
loop_
_symmetry_equiv_pos_as_xyz
'x, y, z'
_cell_length_a     53.943094
_cell_length_b     54.035099
_cell_length_c     14.3133
_cell_angle_alpha  91.242205
_cell_angle_beta   90.042125
_cell_angle_gamma 90.012796
loop_
_atom_site_label
_atom_site_type_symbol
_atom_site_fract_x
_atom_site_fract_y
_atom_site_fract_z
_atom_type_partial_charge
H0 H 0.76103 0.5667 0.12164 0.0
C1 C 0.77444 0.56317 0.17592 0.0
C2 C 0.79901 0.57025 0.1605 0.0
C3 C 0.76728 0.55229 0.26049 0.0
H4 H 0.8359 0.57222 0.21752 0.0
C5 C 0.81678 0.5671 0.23065 0.0
C6 C 0.81078 0.55622 0.31541 0.0
C7 C 0.78604 0.54831 0.32953 0.0
C8 C 0.74021 0.54636 0.27705 0.0
H9 H 0.7816 0.53938 0.39431 0.0
C10 C 0.72307 0.54196 0.20218 0.0
C11 C 0.69749 0.53804 0.21945 0.0
C12 C 0.73087 0.54645 0.36893 0.0
H13 H 0.74269 0.55049 0.42837 0.0
C14 C 0.70583 0.54216 0.38621 0.0
H15 H 0.72941 0.54113 0.13054 0.0
C16 C 0.68929 0.53811 0.31264 0.0
H17 H 0.66987 0.53547 0.32888 0.0
H18 H 0.6991 0.54237 0.45743 0.0
H19 H 0.99166 0.77367 0.09735 0.0
C20 C 0.99535 0.78718 0.15246 0.0
C21 C 0.98958 0.81198 0.13594 0.0
C22 C 1.00554 0.77993 0.23829 0.0
H23 H 0.98898 0.84916 0.19322 0.0
C24 C 0.99302 0.82992 0.20705 0.0
C25 C 1.00334 0.82389 0.29332 0.0
C26 C 1.01005 0.79885 0.30822 0.0
C27 C 1.01041 0.75267 0.25456 0.0
H28 H 1.0186 0.79433 0.37404 0.0
C29 C 1.01477 0.73505 0.17988 0.0
C30 C 1.01799 0.70945 0.19747 0.0
C31 C 1.00937 0.7437 0.34611 0.0
H32 H 1.00529 0.75588 0.40504 0.0
C33 C 1.01275 0.71864 0.36359 0.0
H34 H 1.01621 0.74102 0.10848 0.0
C35 C 1.017 0.70173 0.29049 0.0
H36 H 1.01918 0.68236 0.30685 0.0
H37 H 1.01175 0.71218 0.43458 0.0
H38 H 0.7812 0.98242 0.13159 0.0
C39 C 0.76795 0.98746 0.18538 0.0
C40 C 0.74275 0.98333 0.16674 0.0
C41 C 0.7759 0.99777 0.27176 0.0
H42 H 0.70561 0.98571 0.2218 0.0
C43 C 0.72516 0.9884 0.23668 0.0
C44 C 0.73203 0.99876 0.3232 0.0
C45 C 0.75739 1.00398 0.33989 0.0
C46 C 0.80337 1.00106 0.29087 0.0
H47 H 0.76246 1.01276 0.40579 0.0
C48 C 0.82123 1.00355 0.21783 0.0
C49 C 0.84707 1.0042 0.23711 0.0
C50 C 0.81221 1.00015 0.38334 0.0
H51 H 0.79976 0.99753 0.44143 0.0
C52 C 0.83749 1.00178 0.40288 0.0
H53 H 0.81529 1.00458 0.14589 0.0
C54 C 0.85472 1.00369 0.33096 0.0
H55 H 0.87418 1.00483 0.34924 0.0
H56 H 0.84383 1.00114 0.47457 0.0
H57 H 0.57367 0.79575 0.16587 0.0
C58 C 0.5696 0.78285 0.2204 0.0
C59 C 0.57457 0.75782 0.202 0.0
C60 C 0.56005 0.79092 0.30785 0.0
H61 H 0.5744 0.72104 0.25614 0.0
C62 C 0.57082 0.74047 0.2716 0.0
C63 C 0.56112 0.74737 0.35872 0.0
C64 C 0.55517 0.77256 0.37613 0.0
C65 C 0.55621 0.81834 0.32788 0.0
H66 H 0.54698 0.77756 0.44282 0.0
C67 C 0.55363 0.83585 0.25515 0.0
C68 C 0.55234 0.86166 0.27488 0.0
C69 C 0.55658 0.82755 0.42076 0.0
H70 H 0.55932 0.81547 0.47905 0.0
C71 C 0.55414 0.85281 0.44071 0.0
H72 H 0.55303 0.82971 0.18294 0.0
C73 C 0.55206 0.86967 0.36891 0.0
H74 H 0.55017 0.88911 0.38736 0.0
H75 H 0.55427 0.85943 0.51264 0.0
H76 H 0.29476 0.4956 0.18312 0.0
C77 C 0.2813 0.49901 0.1289 0.0
C78 C 0.2568 0.49179 0.14454 0.0
C79 C 0.2883 0.5099 0.04418 0.0
H80 H 0.21986 0.4896 0.08861 0.0
C81 C 0.23892 0.49484 0.07484 0.0
C82 C 0.24471 0.50584 0.99008 0.0
C83 C 0.26941 0.51386 0.97558 0.0
C84 C 0.31534 0.51589 0.027 0.0
H85 H 0.27372 0.52287 0.91085 0.0
C86 C 0.33261 0.52029 0.10145 0.0
C87 C 0.35813 0.5243 0.08348 0.0
C88 C 0.3245 0.51583 0.93488 0.0
H89 H 0.31259 0.51178 0.87574 0.0
C90 C 0.34951 0.52018 0.91695 0.0
H91 H 0.32641 0.52109 0.17327 0.0
C92 C 0.36616 0.52427 0.9901 0.0
H93 H 0.38554 0.52702 0.9734 0.0
H94 H 0.3561 0.52003 0.84556 0.0
H95 H 0.06533 0.2874 0.2031 0.0
C96 C 0.06077 0.27377 0.14933 0.0
C97 C 0.06641 0.24892 0.16569 0.0
C98 C 0.04939 0.28098 0.06561 0.0
H99 H 0.0658 0.21164 0.10854 0.0
C100 C 0.06197 0.23095 0.09527 0.0
C101 C 0.05072 0.23701 0.0107 0.0
C102 C 0.04393 0.26206 0.9968 0.0
C103 C 0.0441 0.3082 0.05047 0.0
H104 H 0.03447 0.2666 0.93273 0.0
C105 C 0.04029 0.32568 0.12603 0.0
C106 C 0.03658 0.35126 0.1094 0.0
C107 C 0.0441 0.31725 0.959 0.0
H108 H 0.04769 0.30515 0.89938 0.0
C109 C 0.04029 0.3423 0.94246 0.0
H110 H 0.03966 0.31956 0.19744 0.0
C111 C 0.03659 0.35909 0.0164 0.0
H112 H 0.0341 0.37845 1.00061 0.0
H113 H 0.04051 0.34885 0.87149 0.0
H114 H 0.27475 0.0765 0.17674 0.0
C115 C 0.28807 0.07165 0.12301 0.0
C116 C 0.31309 0.07702 0.1405 0.0
C117 C 0.28045 0.06032 0.03797 0.0
H118 H 0.35023 0.07579 0.08533 0.0
C119 C 0.3308 0.07213 0.07091 0.0
C120 C 0.32431 0.06061 0.98602 0.0
C121 C 0.29916 0.0542 0.97046 0.0
C122 C 0.2531 0.05585 0.01946 0.0
H123 H 0.29441 0.04455 0.90591 0.0
C124 C 0.2353 0.05363 0.09289 0.0
C125 C 0.2095 0.05191 0.07362 0.0
C126 C 0.24426 0.05536 0.92682 0.0
H127 H 0.25662 0.05771 0.86827 0.0
C128 C 0.21907 0.05263 0.90749 0.0
H129 H 0.24121 0.05366 0.16505 0.0
C130 C 0.20188 0.05103 0.97968 0.0
H131 H 0.18247 0.04904 0.96157 0.0
H132 H 0.21273 0.0522 0.83567 0.0
H133 H 0.48208 0.26601 0.14828 0.0
C134 C 0.48619 0.27888 0.09367 0.0
C135 C 0.48089 0.30387 0.11121 0.0
C136 C 0.49606 0.27076 1.00682 0.0
H137 H 0.48088 0.34056 0.05616 0.0
C138 C 0.48469 0.32114 0.04133 0.0
C139 C 0.4947 0.31419 0.95473 0.0
C140 C 0.50092 0.28902 0.93817 0.0
C141 C 0.50013 0.24335 0.98775 0.0
H142 H 0.50928 0.28393 0.87187 0.0
C143 C 0.50305 0.22609 0.06113 0.0
C144 C 0.50437 0.20023 0.04251 0.0
C145 C 0.49955 0.23388 0.89527 0.0
H146 H 0.49661 0.2458 0.83664 0.0
C147 C 0.50195 0.20856 0.87632 0.0
H148 H 0.50386 0.2325 0.13304 0.0
C149 C 0.50427 0.19192 0.94879 0.0
H150 H 0.50606 0.17242 0.93107 0.0
H151 H 0.50158 0.20171 0.80468 0.0
Gd152 Gd 1.00637 0.03577 0.56204 0.0
Gd153 Gd 0.0497 0.0239 0.74973 0.0
C154 C 0.05416 0.09176 0.95036 0.0
C155 C 0.09438 0.10895 0.91322 0.0
C156 C 0.07992 0.07118 0.8342 0.0
C157 C 0.05805 0.07237 0.88384 0.0
C158 C 0.09866 0.0891 0.85053 0.0
C159 C 0.07215 0.11029 0.96305 0.0
C160 C 0.0325 0.09178 1.00355 0.0
C161 C 1.01591 0.07223 0.99304 0.0
N162 N 0.0409 0.05424 0.86943 0.0
C163 C 1.02065 0.05336 0.92717 0.0
H164 H 1.00812 0.03803 0.92633 0.0
C165 C 0.1068 0.04758 0.73844 0.0
N166 N 0.08354 0.05174 0.77426 0.0
C167 C 0.1258 0.06489 0.75148 0.0
C168 C 0.12153 0.08607 0.80608 0.0
H169 H 0.11108 0.03065 0.70049 0.0
H170 H 0.06926 0.12544 0.01271 0.0
H171 H 0.0477 1.01825 0.38825 0.0
H172 H 0.02882 0.10632 0.05499 0.0
H173 H 0.99957 0.07144 0.03676 0.0
H174 H 0.10841 0.12301 0.9255 0.0
H175 H 0.9448 0.03299 0.60993 0.0
H176 H 0.02282 0.95121 0.2609 0.0
H177 H 0.0542 0.98421 0.27874 0.0
H178 H 0.94216 0.93976 0.38952 0.0
H179 H 0.14385 0.06163 0.72064 0.0
H180 H 0.13636 0.09936 0.81695 0.0
H181 H 0.98126 0.93465 0.30345 0.0
H182 H 0.91007 1.00407 0.5898 0.0
N183 N 1.01358 1.00457 0.44375 0.0
C184 C 1.01994 0.96613 0.31156 0.0
C185 C 0.03771 0.98462 0.32179 0.0
C186 C 0.99824 0.96761 0.36431 0.0
C187 C 0.99541 0.98743 0.42977 0.0
C188 C 0.03404 1.00392 0.38689 0.0
N189 N 0.97096 1.01005 0.53698 0.0
C190 C 0.97354 0.99013 0.47862 0.0
C191 C 0.92794 0.99962 0.5595 0.0
C192 C 0.93101 0.97799 0.50617 0.0
C193 C 0.94795 1.01576 0.57221 0.0
C194 C 0.95377 0.97334 0.46277 0.0
H195 H 0.91541 0.9656 0.49556 0.0
O196 O 0.97594 0.05608 0.50072 0.0
O197 O 0.03169 0.05401 0.66848 0.0
O198 O 1.01069 1.01277 0.79642 0.0
O199 O 0.98327 0.03047 0.69184 0.0
O200 O 0.99552 0.06691 0.66112 0.0
O201 O 1.01312 0.06121 0.44942 0.0
O202 O 0.08132 1.00438 0.80616 0.0
O203 O 0.0243 1.00587 0.64382 0.0
O204 O 0.04558 0.04519 0.51291 0.0
O205 O 0.07296 0.02856 0.62017 0.0
O206 O 0.05988 0.99185 0.6529 0.0
O207 O 0.04512 0.99977 0.86775 0.0
C208 C 1.01688 0.07061 0.69947 0.0
C209 C 0.95698 0.953 0.40142 0.0
C210 C 0.97919 0.95014 0.35221 0.0
C211 C 0.9907 0.07012 0.45379 0.0
C212 C 0.98813 0.0969 0.4737 0.0
C213 C 0.96444 0.10754 0.47861 0.0
C214 C 1.009 0.11159 0.49509 0.0
C215 C 1.00644 0.13694 0.5175 0.0
C216 C 0.96163 0.13241 0.50446 0.0
C217 C 0.98242 0.14708 0.52331 0.0
C218 C 0.98798 1.01947 0.77125 0.0
C219 C 0.03858 0.98879 0.6134 0.0
C220 C 0.06762 0.99114 0.86031 0.0
C221 C 0.0703 0.96421 0.84672 0.0
C222 C 0.0936 0.95323 0.85794 0.0
C223 C 0.05013 0.94959 0.81656 0.0
C224 C 0.05275 0.92389 0.8025 0.0
C225 C 0.09667 0.92794 0.84033 0.0
C226 C 0.07643 0.9133 0.81361 0.0
C227 C 0.06826 0.03881 0.53933 0.0
H228 H 0.94807 0.09651 0.46373 0.0
H229 H 0.02731 0.10336 0.49363 0.0
H230 H 0.94329 0.14048 0.50816 0.0
H231 H 0.9796 0.16659 0.53828 0.0
H232 H 0.10945 0.96428 0.8795 0.0
H233 H 0.03229 0.95822 0.80515 0.0
H234 H 0.1147 0.91953 0.8494 0.0
H235 H 0.07927 0.89354 0.80582 0.0
Gd236 Gd 0.52455 1.00678 0.5617 0.0
Gd237 Gd 0.53241 0.05369 0.75013 0.0
C238 C 0.46376 0.06738 0.93696 0.0
C239 C 0.45346 0.10996 0.9036 0.0
C240 C 0.48902 0.09005 0.82855 0.0
C241 C 0.48411 0.06847 0.87472 0.0
C242 C 0.47411 0.11127 0.84445 0.0
C243 C 0.44826 0.08803 0.94964 0.0
C244 C 0.45964 0.04567 0.98552 0.0
C245 C 0.47583 0.02589 0.97319 0.0
N246 N 0.49933 0.04869 0.86008 0.0
C247 C 0.49565 0.02773 0.91094 0.0
H248 H 0.50725 1.01176 0.90402 0.0
C249 C 0.5167 0.11302 0.73726 0.0
N250 N 0.50912 0.09078 0.77198 0.0
C251 C 0.5025 0.13442 0.75036 0.0
C252 C 0.48083 0.13345 0.80288 0.0
H253 H 0.53397 0.1143 0.69949 0.0
H254 H 0.43246 0.08736 0.99624 0.0
H255 H 0.54958 0.04901 0.40926 0.0
H256 H 0.44421 0.0441 0.03348 0.0
H257 H 0.47298 1.00903 0.01127 0.0
H258 H 0.44171 0.12597 0.91582 0.0
H259 H 0.52305 0.94615 0.61107 0.0
H260 H 0.61227 1.01681 0.27661 0.0
H261 H 0.58366 0.05193 0.30103 0.0
H262 H 0.61487 0.93467 0.39196 0.0
H263 H 0.50847 0.15171 0.72094 0.0
H264 H 0.46994 0.15012 0.81375 0.0
H265 H 0.62397 0.9734 0.31204 0.0
H266 H 0.54857 0.90877 0.5888 0.0
N267 N 0.55746 1.01194 0.45128 0.0
C268 C 0.59693 1.01516 0.32493 0.0
C269 C 0.58083 0.03498 0.3385 0.0
C270 C 0.59284 0.99334 0.37282 0.0
C271 C 0.57261 0.99216 0.43556 0.0
C272 C 0.56112 0.03303 0.40122 0.0
N273 N 0.54778 0.96973 0.53843 0.0
C274 C 0.56777 0.97051 0.48132 0.0
C275 C 0.55447 0.92609 0.55938 0.0
C276 C 0.57605 0.92711 0.50632 0.0
C277 C 0.54025 0.94747 0.57297 0.0
C278 C 0.58265 0.94931 0.46468 0.0
H279 H 0.58694 0.91047 0.49504 0.0
O280 O 0.50201 0.97708 0.50301 0.0
O281 O 0.50512 0.03224 0.66374 0.0
O282 O 0.54054 1.01576 0.80934 0.0
O283 O 0.5342 0.98572 0.6919 0.0
O284 O 0.49286 0.99595 0.65544 0.0
O285 O 0.50061 1.01327 0.44247 0.0
O286 O 0.55415 0.08356 0.81208 0.0
O287 O 0.55177 0.02825 0.64816 0.0
O288 O 0.51596 0.04466 0.50304 0.0
O289 O 0.52332 0.07476 0.61931 0.0
O290 O 0.5643 0.0644 0.6569 0.0
O291 O 0.5569 0.04686 0.86749 0.0
C292 C 0.4886 1.01752 0.69219 0.0
C293 C 0.60316 0.95068 0.40485 0.0
C294 C 0.60827 0.97267 0.3591 0.0
C295 C 0.48992 0.99173 0.44876 0.0
C296 C 0.46279 0.99135 0.46067 0.0
C297 C 0.45033 0.96857 0.4589 0.0
C298 C 0.44944 1.01321 0.48034 0.0
C299 C 0.42361 1.01254 0.49431 0.0
C300 C 0.42494 0.9676 0.47623 0.0
C301 C 0.41161 0.98935 0.49322 0.0
C302 C 0.53959 0.9924 0.77901 0.0
C303 C 0.56842 0.04283 0.61988 0.0
C304 C 0.56682 0.06882 0.86404 0.0
C305 C 0.5939 0.07026 0.85193 0.0
C306 C 0.6056 0.09341 0.85793 0.0
C307 C 0.60796 0.04911 0.82828 0.0
C308 C 0.63374 0.05081 0.8145 0.0
C309 C 0.63094 0.09544 0.84092 0.0
C310 C 0.64497 0.07437 0.81999 0.0
C311 C 0.51734 0.06804 0.53282 0.0
H312 H 0.46032 0.95148 0.4452 0.0
H313 H 0.45911 0.03077 0.48409 0.0
H314 H 0.41544 0.94995 0.47468 0.0
H315 H 0.39172 0.98794 0.50136 0.0
H316 H 0.59505 0.10998 0.87479 0.0
H317 H 0.59887 0.03129 0.82131 0.0
H318 H 0.63985 0.11338 0.84582 0.0
H319 H 0.6648 0.07654 0.81227 0.0
Gd320 Gd 0.50225 0.53765 0.73586 0.0
Gd321 Gd 0.55263 0.52358 0.57188 0.0
C322 C 0.63529 0.52432 0.64553 0.0
C323 C 0.65041 0.55898 0.55635 0.0
C324 C 0.60695 0.54708 0.54852 0.0
C325 C 0.61118 0.52841 0.61064 0.0
C326 C 0.62659 0.56229 0.51903 0.0
C327 C 0.65475 0.54002 0.61954 0.0
C328 C 0.63924 0.50419 0.70344 0.0
C329 C 0.61963 0.48826 0.72238 0.0
N330 N 0.59197 0.51348 0.63341 0.0
C331 C 0.59612 0.49298 0.68549 0.0
H332 H 0.58132 0.48044 0.70153 0.0
C333 C 0.57926 0.56613 0.44433 0.0
N334 N 0.5838 0.54962 0.51347 0.0
C335 C 0.59809 0.58169 0.41301 0.0
C336 C 0.62182 0.57995 0.45125 0.0
H337 H 0.56091 0.56776 0.41494 0.0
H338 H 0.67334 0.53729 0.64619 0.0
H339 H 0.47391 0.58083 0.60528 0.0
H340 H 0.65744 0.50047 0.73198 0.0
H341 H 0.62257 0.47235 0.76569 0.0
H342 H 0.66567 0.57063 0.53529 0.0
H343 H 0.49357 0.49357 0.89278 0.0
H344 H 0.39777 0.56105 0.57334 0.0
H345 H 0.43279 0.58905 0.54028 0.0
H346 H 0.38903 0.49087 0.76962 0.0
H347 H 0.59425 0.59505 0.35962 0.0
H348 H 0.6364 0.59197 0.42671 0.0
H349 H 0.38164 0.52424 0.6586 0.0
H350 H 0.46006 0.46635 0.94731 0.0
N351 N 0.46304 0.54785 0.67338 0.0
C352 C 0.41591 0.55727 0.6023 0.0
C353 C 0.43561 0.57314 0.5837 0.0
C354 C 0.41971 0.53713 0.66028 0.0
C355 C 0.44375 0.53298 0.69573 0.0
C356 C 0.45905 0.56835 0.62109 0.0
N357 N 0.4709 0.51171 0.79357 0.0
C358 C 0.44782 0.5143 0.75793 0.0
C359 C 0.45635 0.4797 0.89377 0.0
C360 C 0.4327 0.48147 0.85487 0.0
C361 C 0.47527 0.49522 0.86291 0.0
C362 C 0.4281 0.49914 0.78692 0.0
H363 H 0.41804 0.46949 0.87905 0.0
O364 O 0.4997 0.54508 0.88488 0.0
O365 O 0.5432 0.53469 0.71697 0.0
O366 O 0.54063 0.48911 0.65162 0.0
O367 O 0.49976 0.49691 0.69518 0.0
O368 O 0.52897 0.51982 0.83661 0.0
O369 O 0.49763 0.57538 0.78844 0.0
O370 O 0.55496 0.51615 0.42282 0.0
O371 O 0.51172 0.52648 0.59096 0.0
O372 O 0.51443 0.57212 0.65653 0.0
O373 O 0.5553 0.56423 0.61333 0.0
O374 O 0.5258 0.54141 0.47137 0.0
O375 O 0.55731 0.48586 0.51925 0.0
C376 C 0.54911 0.52437 0.79213 0.0
C377 C 0.40436 0.50249 0.74897 0.0
C378 C 0.40017 0.52147 0.68572 0.0
C379 C 0.50206 0.56886 0.8742 0.0
C380 C 0.52374 0.58055 0.92071 0.0
C381 C 0.53673 0.56795 0.9905 0.0
C382 C 0.53293 0.60336 0.89011 0.0
C383 C 0.55478 0.61357 0.92853 0.0
C384 C 0.55863 0.57769 0.0275 0.0
C385 C 0.56761 0.60031 0.99706 0.0
C386 C 0.51846 0.48144 0.67963 0.0
C387 C 0.50569 0.53679 0.51592 0.0
C388 C 0.55266 0.49237 0.43362 0.0
C389 C 0.53087 0.48068 0.38785 0.0
C390 C 0.51803 0.49308 0.31718 0.0
C391 C 0.52142 0.45814 0.42002 0.0
C392 C 0.4995 0.44796 0.38216 0.0
C393 C 0.49602 0.48341 0.28082 0.0
C394 C 0.4868 0.46103 0.31273 0.0
C395 C 0.53666 0.57975 0.62898 0.0
H396 H 0.53027 0.5503 0.0154 0.0
H397 H 0.52317 0.61309 0.83586 0.0
H398 H 0.56858 0.56776 0.08066 0.0
H399 H 0.58416 0.60777 0.02995 0.0
H400 H 0.52468 0.51053 0.29111 0.0
H401 H 0.53106 0.44858 0.47502 0.0
H402 H 0.48618 0.49319 0.22699 0.0
H403 H 0.4702 0.4536 0.28021 0.0
Gd404 Gd 1.0205 0.50705 0.73924 0.0
Gd405 Gd 0.03475 0.55367 0.56691 0.0
C406 C 0.03285 0.63753 0.62195 0.0
C407 C 0.99902 0.65037 0.52185 0.0
C408 C 1.01104 0.60702 0.52703 0.0
C409 C 0.02915 0.61274 0.59194 0.0
C410 C 0.99605 0.62581 0.48975 0.0
C411 C 1.01737 0.65622 0.58801 0.0
C412 C 0.05245 0.64291 0.68301 0.0
C413 C 0.0683 0.62395 0.70978 0.0
N414 N 0.04397 0.59425 0.6221 0.0
C415 C 0.06401 0.59971 0.67736 0.0
H416 H 0.0765 0.58548 0.69939 0.0
C417 C 0.99304 0.57706 0.42533 0.0
N418 N 1.00892 0.5832 0.49679 0.0
C419 C 0.97767 0.59498 0.38652 0.0
C420 C 0.979 0.61943 0.41954 0.0
H421 H 0.99177 0.55816 0.39976 0.0
H422 H 1.01985 0.67532 0.61069 0.0
H423 H 0.97878 0.47472 0.6089 0.0
H424 H 0.05587 0.66167 0.70799 0.0
H425 H 0.08382 0.62796 0.75561 0.0
H426 H 0.98762 0.66505 0.49444 0.0
H427 H 0.0637 0.50319 0.90609 0.0
H428 H 1.00017 0.39872 0.60073 0.0
H429 H 0.97176 0.4321 0.55348 0.0
H430 H 0.06881 0.39626 0.81285 0.0
H431 H 0.96481 0.58989 0.33129 0.0
H432 H 0.96716 0.63332 0.38911 0.0
H433 H 0.0365 0.38553 0.69745 0.0
H434 H 0.09108 0.47181 0.97444 0.0
N435 N 1.01157 0.46634 0.68515 0.0
C436 C 1.00345 0.41755 0.62532 0.0
C437 C 0.98734 0.43631 0.59876 0.0
C438 C 0.02312 0.42318 0.68578 0.0
C439 C 0.02663 0.44804 0.71528 0.0
C440 C 0.99146 0.46062 0.63067 0.0
N441 N 0.04668 0.47788 0.8097 0.0
C442 C 0.04476 0.45401 0.77982 0.0
C443 C 0.07819 0.46654 0.91955 0.0
C444 C 0.07708 0.44204 0.88687 0.0
C445 C 0.06258 0.48425 0.88082 0.0
C446 C 0.05999 0.43542 0.8171 0.0
H447 H 0.08912 0.42831 0.91725 0.0
O448 O 1.01204 0.50817 0.88721 0.0
O449 O 0.02258 0.54761 0.71207 0.0
O450 O 0.069 0.54403 0.65513 0.0
O451 O 0.06153 0.50418 0.70625 0.0
O452 O 0.03726 0.53627 0.83652 0.0
O453 O 0.98264 0.50184 0.78616 0.0
O454 O 0.04316 0.55303 0.4189 0.0
O455 O 0.03241 0.51315 0.59379 0.0
O456 O 0.98621 0.5165 0.65121 0.0
O457 O 0.99355 0.55623 0.59828 0.0
O458 O 1.01783 0.52462 0.46937 0.0
O459 O 0.07274 0.55803 0.52007 0.0
C460 C 0.03243 0.55534 0.78749 0.0
C461 C 0.05722 0.41079 0.78543 0.0
C462 C 0.03883 0.40468 0.71974 0.0
C463 C 0.98826 0.50895 0.87138 0.0
C464 C 0.97519 0.5311 0.9087 0.0
C465 C 0.9861 0.5459 0.97959 0.0
C466 C 0.95271 0.53874 0.86867 0.0
C467 C 0.94089 0.56063 0.89983 0.0
C468 C 0.97492 0.56795 0.009 0.0
C469 C 0.95248 0.57526 0.96998 0.0
C470 C 0.07686 0.52274 0.68954 0.0
C471 C 0.02249 0.5055 0.51835 0.0
C472 C 0.06691 0.55155 0.43441 0.0
C473 C 0.07942 0.52928 0.39518 0.0
C474 C 0.06791 0.51486 0.32454 0.0
C475 C 0.10202 0.5212 0.43297 0.0
C476 C 0.11335 0.49925 0.39982 0.0
C477 C 0.07862 0.49276 0.29314 0.0
C478 C 0.10118 0.48502 0.32994 0.0
C479 C 0.97828 0.53766 0.61589 0.0
H480 H 1.0035 0.54068 0.0114 0.0
H481 H 0.94442 0.52761 0.81312 0.0
H482 H 0.98353 0.57927 0.06329 0.0
H483 H 0.94381 0.5919 0.99782 0.0
H484 H 0.05041 0.52042 0.29439 0.0
H485 H 0.11077 0.53203 0.48834 0.0
H486 H 0.06957 0.48174 0.23904 0.0
H487 H 0.10948 0.46836 0.30063 0.0
H488 H 0.20986 0.02731 0.24217 0.0
H489 H 0.07052 0.06771 0.38252 0.0
H490 H 0.16445 0.07579 0.07851 0.0
H491 H 0.11457 1.01731 0.54296 0.0
H492 H 0.10531 0.07205 0.27381 0.0
H493 H 0.17625 0.02511 0.35766 0.0
C494 C 0.19298 0.03767 0.23069 0.0
C495 C 0.19009 0.05156 0.14939 0.0
C496 C 0.10745 0.06017 0.33323 0.0
C497 C 0.15122 0.04895 0.28164 0.0
C498 C 0.08751 0.05767 0.39549 0.0
C499 C 0.08953 0.04237 0.47334 0.0
C500 C 0.12973 0.04722 0.34816 0.0
C501 C 0.11215 0.02978 0.48559 0.0
C502 C 0.17367 0.03627 0.2965 0.0
C503 C 0.16754 0.06442 0.13874 0.0
N504 N 0.13122 0.03246 0.42401 0.0
N505 N 0.14911 0.06274 0.20343 0.0
H506 H 0.52872 0.20324 0.21333 0.0
H507 H 0.49224 0.06532 0.365 0.0
H508 H 0.48187 0.15443 0.0483 0.0
H509 H 0.53448 0.11602 0.53893 0.0
H510 H 0.48814 0.09769 0.24844 0.0
H511 H 0.53056 0.17185 0.33418 0.0
C512 C 0.51866 0.18608 0.20245 0.0
C513 C 0.50525 0.18164 0.11942 0.0
C514 C 0.49813 0.10182 0.31255 0.0
C515 C 0.50756 0.14524 0.25808 0.0
C516 C 0.50049 0.08329 0.37926 0.0
C517 C 0.51342 0.08793 0.46315 0.0
C518 C 0.50898 0.12522 0.32896 0.0
C519 C 0.52378 0.11164 0.47698 0.0
C520 C 0.51985 0.16803 0.27151 0.0
C521 C 0.49289 0.15871 0.10976 0.0
N522 N 0.52142 0.12926 0.41082 0.0
N523 N 0.49441 0.14147 0.17767 0.0
H524 H 0.39416 0.55984 0.0949 0.0
H525 H 0.46694 0.50313 0.53201 0.0
H526 H 0.36553 0.49782 0.24539 0.0
H527 H 0.4896 0.56783 0.38368 0.0
H528 H 0.42891 0.50113 0.4358 0.0
H529 H 0.42802 0.56358 0.20709 0.0
C530 C 0.39489 0.54705 0.15212 0.0
C531 C 0.37692 0.52839 0.15997 0.0
C532 C 0.44208 0.51592 0.42511 0.0
C533 C 0.41625 0.53243 0.29001 0.0
C534 C 0.4637 0.51716 0.48049 0.0
C535 C 0.48125 0.53601 0.46713 0.0
C536 C 0.43814 0.53349 0.35522 0.0
C537 C 0.47647 0.55318 0.39721 0.0
C538 C 0.41433 0.54919 0.21651 0.0
C539 C 0.37885 0.51257 0.23662 0.0
N540 N 0.45553 0.55152 0.34438 0.0
N541 N 0.39827 0.51477 0.29803 0.0
H542 H 0.06389 0.36017 0.27201 0.0
H543 H 0.9906 0.48708 0.38976 0.0
H544 H 1.00062 0.3869 0.12059 0.0
H545 H 0.05614 0.46667 0.5417 0.0
H546 H 0.99263 0.44802 0.30171 0.0
H547 H 0.05996 0.39591 0.38196 0.0
C548 C 0.04892 0.37325 0.26274 0.0
C549 C 0.03263 0.37044 0.18622 0.0
C550 C 1.00654 0.45178 0.35471 0.0
C551 C 0.02816 0.41163 0.31152 0.0
C552 C 1.00532 0.47416 0.4054 0.0
C553 C 0.02294 0.48009 0.47447 0.0
C554 C 0.02585 0.43493 0.37118 0.0
C555 C 0.04183 0.46267 0.49048 0.0
C556 C 0.04682 0.39379 0.32514 0.0
C557 C 1.01379 0.38826 0.17761 0.0
N558 N 0.04285 0.44094 0.43906 0.0
N559 N 1.01219 0.4079 0.23862 0.0
H560 H 0.84718 0.03064 0.07274 0.0
H561 H 0.98543 0.98881 0.92325 0.0
H562 H 0.8916 0.97935 0.22783 0.0
H563 H 0.94205 0.04165 0.77171 0.0
H564 H 0.9507 0.98394 0.03204 0.0
H565 H 0.88067 0.03326 0.95708 0.0
C566 C 0.8638 1.01976 0.0823 0.0
C567 C 0.86645 1.00494 0.16129 0.0
C568 C 0.94869 0.99647 0.9745 0.0
C569 C 0.90522 1.00803 0.02879 0.0
C570 C 0.96859 0.99926 0.91222 0.0
C571 C 0.96673 1.01543 0.83687 0.0
C572 C 0.92663 1.00999 0.96209 0.0
C573 C 0.94432 0.02853 0.82701 0.0
C574 C 0.88306 0.02139 0.01639 0.0
C575 C 0.88872 0.99144 0.16951 0.0
N576 N 0.9253 0.02556 0.88856 0.0
N577 N 0.9071 0.99337 0.10476 0.0
H578 H 0.57496 0.90745 0.27306 0.0
H579 H 0.52281 0.94438 0.76996 0.0
H580 H 0.5289 0.85932 0.10205 0.0
H581 H 0.56351 0.99491 0.94972 0.0
H582 H 0.52714 0.91236 0.88612 0.0
H583 H 0.57274 0.93875 0.15313 0.0
C584 C 0.56423 0.90339 0.21061 0.0
C585 C 0.55188 0.88052 0.1989 0.0
C586 C 0.53532 0.93037 0.9001 0.0
C587 C 0.54969 0.9166 0.05909 0.0
C588 C 0.53313 0.94869 0.83288 0.0
C589 C 0.54321 0.97242 0.84854 0.0
C590 C 0.54766 0.93563 0.98465 0.0
C591 C 0.5555 0.97693 0.93397 0.0
C592 C 0.56313 0.92135 0.14162 0.0
C593 C 0.5389 0.87642 0.11463 0.0
N594 N 0.55739 0.95877 0.9985 0.0
N595 N 0.53811 0.89424 0.04846 0.0
H596 H 0.69126 0.56415 0.05611 0.0
H597 H 0.56483 0.49251 0.92176 0.0
H598 H 0.66059 0.50329 0.20778 0.0
H599 H 0.58833 0.55761 0.77777 0.0
H600 H 0.60252 0.49437 0.01587 0.0
H601 H 0.65694 0.56013 0.94258 0.0
C602 C 0.67758 0.54972 0.06486 0.0
C603 C 0.67883 0.53414 0.14236 0.0
C604 C 0.59972 0.5082 0.96328 0.0
C605 C 0.63934 0.52957 0.01292 0.0
C606 C 0.57816 0.50707 0.90921 0.0
C607 C 0.57359 0.52462 0.84056 0.0
C608 C 0.617 0.5273 0.95035 0.0
C609 C 0.59137 0.54336 0.8285 0.0
C610 C 0.65787 0.54757 1.00038 0.0
C611 C 0.66034 0.51595 0.15018 0.0
N612 N 0.61227 0.54425 0.88296 0.0
N613 N 0.64151 0.51426 0.08699 0.0
H614 H 0.05472 0.67471 0.18981 0.0
H615 H 0.99864 0.5937 0.7597 0.0
H616 H 0.99125 0.69927 0.03445 0.0
H617 H 0.06291 0.5742 0.92078 0.0
H618 H 0.99617 0.63336 0.84904 0.0
H619 H 0.05893 0.63937 0.08222 0.0
C620 C 0.04177 0.67282 0.13218 0.0
C621 C 0.02258 0.69014 0.12176 0.0
C622 C 1.01096 0.6205 0.86405 0.0
C623 C 0.02703 0.64888 0.99717 0.0
C624 C 1.01246 0.59792 0.81257 0.0
C625 C 0.03131 0.58072 0.83157 0.0
C626 C 0.0283 0.62584 0.93561 0.0
C627 C 0.04823 0.58693 0.90291 0.0
C628 C 0.04413 0.65249 0.07054 0.0
C629 C 1.00644 0.68656 0.04507 0.0
N630 N 0.04634 0.60876 0.95171 0.0
N631 N 1.00886 0.66626 0.98643 0.0
H632 H 0.04619 0.26427 0.33189 0.0
H633 H 1.01463 0.17928 0.62613 0.0
H634 H 0.10127 0.21453 0.21673 0.0
H635 H 0.04945 0.1324 0.4161 0.0
H636 H 0.04352 0.21236 0.58749 0.0
H637 H 0.04452 0.23987 0.47121 0.0
C638 C 0.05882 0.24879 0.33763 0.0
C639 C 0.07306 0.24074 0.26081 0.0
C640 C 0.04502 0.19472 0.55075 0.0
C641 C 0.07092 0.21216 0.42029 0.0
C642 C 0.02851 0.17578 0.57282 0.0
C643 C 0.02851 0.15349 0.52027 0.0
C644 C 0.0613 0.19128 0.47488 0.0
C645 C 0.04799 0.14945 0.4567 0.0
C646 C 0.05787 0.23468 0.41798 0.0
C647 C 0.08919 0.22072 0.27292 0.0
N648 N 0.06313 0.16839 0.43412 0.0
N649 N 0.08708 0.20659 0.34979 0.0
H650 H 0.34547 0.11393 0.19445 0.0
H651 H 0.4331 0.05577 0.40311 0.0
H652 H 0.30124 0.05474 0.30329 0.0
H653 H 0.37986 0.02294 0.58862 0.0
H654 H 0.40308 0.08643 0.36254 0.0
H655 H 0.37178 0.11252 0.33335 0.0
C656 C 0.3409 0.10112 0.24903 0.0
C657 C 0.32188 0.08368 0.23579 0.0
C658 C 0.39794 0.07323 0.41483 0.0
C659 C 0.35264 0.08087 0.39125 0.0
C660 C 0.41537 0.05543 0.43838 0.0
C661 C 0.4087 0.03576 0.49585 0.0
C662 C 0.37343 0.07104 0.44704 0.0
C663 C 0.38537 0.03685 0.53947 0.0
C664 C 0.35611 0.10007 0.32776 0.0
C665 C 0.31618 0.06805 0.30964 0.0
N666 N 0.36824 0.05358 0.51142 0.0
N667 N 0.33203 0.06643 0.38295 0.0
H668 H 0.50797 0.30036 0.27024 0.0
H669 H 0.45183 0.42992 0.39777 0.0
H670 H 0.43966 0.3299 0.16384 0.0
H671 H 0.52841 0.40774 0.42315 0.0
H672 H 0.43999 0.3863 0.38607 0.0
H673 H 0.50659 0.33086 0.399 0.0
C674 C 0.49202 0.31247 0.27677 0.0
C675 C 0.47426 0.31324 0.20546 0.0
C676 C 0.45929 0.39105 0.39729 0.0
C677 C 0.4729 0.34838 0.35006 0.0
C678 C 0.46612 0.41595 0.40297 0.0
C679 C 0.4913 0.4226 0.40642 0.0
C680 C 0.47778 0.37278 0.39511 0.0
C681 C 0.50882 0.40367 0.41804 0.0
C682 C 0.49133 0.32999 0.34979 0.0
C683 C 0.45397 0.3292 0.21682 0.0
N684 N 0.50179 0.37963 0.4095 0.0
N685 N 0.45417 0.34667 0.28635 0.0
H686 H 0.25966 0.5176 0.309 0.0
H687 H 0.13422 0.45286 0.41868 0.0
H688 H 0.23374 0.4486 0.18848 0.0
H689 H 0.1516 0.53069 0.449 0.0
H690 H 0.17857 0.4438 0.41236 0.0
H691 H 0.23002 0.51323 0.43687 0.0
C692 C 0.2486 0.50089 0.31212 0.0
C693 C 0.24843 0.48379 0.23717 0.0
C694 C 0.17257 0.46276 0.42371 0.0
C695 C 0.21429 0.47902 0.38082 0.0
C696 C 0.14725 0.46802 0.4261 0.0
C697 C 0.13902 0.49272 0.4288 0.0
C698 C 0.18968 0.48233 0.42447 0.0
C699 C 0.15681 0.51139 0.44405 0.0
C700 C 0.23158 0.49847 0.38473 0.0
C701 C 0.23386 0.46245 0.24429 0.0
N702 N 0.18129 0.50586 0.43884 0.0
N703 N 0.21679 0.46098 0.31352 0.0
H704 H 0.95201 0.84264 0.07991 0.0
H705 H 1.00584 0.93157 0.87293 0.0
H706 H 1.01417 0.80044 0.97486 0.0
H707 H 0.04802 0.87908 0.70587 0.0
H708 H 0.97591 0.90011 0.90323 0.0
H709 H 0.95326 0.86771 0.9401 0.0
C710 C 0.96555 0.83832 0.02613 0.0
C711 C 0.98373 0.82025 0.04057 0.0
C712 C 0.99113 0.8953 0.85732 0.0
C713 C 0.98649 0.84986 0.88429 0.0
C714 C 1.00852 0.91362 0.8395 0.0
C715 C 0.0305 0.90772 0.79129 0.0
C716 C 0.99607 0.8707 0.82907 0.0
C717 C 0.03223 0.88409 0.74884 0.0
C718 C 0.96652 0.85285 0.94679 0.0
C719 C 1.00026 0.81472 0.96762 0.0
N720 N 1.01578 0.86617 0.7717 0.0
N721 N 1.0018 0.83003 0.89394 0.0
H722 H 0.70727 0.94965 0.11101 0.0
H723 H 0.67785 0.0432 0.71894 0.0
H724 H 0.75762 1.0041 1.00373 0.0
H725 H 0.62561 1.00589 0.8962 0.0
H726 H 0.70931 1.01279 0.76064 0.0
H727 H 0.68196 0.95334 0.97032 0.0
C728 C 0.71348 0.9617 0.05624 0.0
C729 C 0.73391 0.97742 0.07069 0.0
C730 C 0.69068 1.01086 0.78766 0.0
C731 C 0.70499 0.98195 0.91087 0.0
C732 C 0.67275 0.02837 0.76483 0.0
C733 C 0.64943 0.02813 0.80873 0.0
C734 C 0.68508 0.99296 0.8541 0.0
C735 C 0.64347 1.00752 0.86263 0.0
C736 C 0.69906 0.96378 0.97592 0.0
C737 C 0.74162 0.99211 0.99647 0.0
N738 N 0.66139 0.99117 0.88577 0.0
N739 N 0.72668 0.99465 0.92084 0.0
H740 H 0.54666 0.76133 0.04513 0.0
H741 H 0.60232 0.63179 0.91213 0.0
H742 H 0.61556 0.73185 0.14633 0.0
H743 H 0.5256 0.65386 0.8914 0.0
H744 H 0.61411 0.67542 0.9247 0.0
H745 H 0.54732 0.73075 0.91653 0.0
C746 C 0.56257 0.74923 0.03739 0.0
C747 C 0.58075 0.74851 0.10725 0.0
C748 C 0.59478 0.67066 0.91436 0.0
C749 C 0.5813 0.71328 0.96289 0.0
C750 C 0.58798 0.64576 0.90816 0.0
C751 C 0.56281 0.63906 0.90553 0.0
C752 C 0.57626 0.68889 0.91798 0.0
C753 C 0.5452 0.65797 0.89569 0.0
C754 C 0.56286 0.73165 0.96451 0.0
C755 C 0.60097 0.73254 0.09444 0.0
N756 N 0.55221 0.68202 0.90471 0.0
N757 N 0.60038 0.71502 0.0251 0.0
H758 H 0.792 0.54695 0.99144 0.0
H759 H 0.90344 0.52837 0.84968 0.0
H760 H 0.82582 0.61151 0.11921 0.0
H761 H 0.91922 0.60656 0.8776 0.0
H762 H 0.85989 0.53738 0.8508 0.0
H763 H 0.8202 0.55045 0.85872 0.0
C764 C 0.80479 0.5624 0.98989 0.0
C765 C 0.80748 0.57833 0.06786 0.0
C766 C 0.87262 0.55283 0.8532 0.0
C767 C 0.8406 0.58154 0.92008 0.0
C768 C 0.89789 0.54761 0.85269 0.0
C769 C 0.91525 0.56662 0.86873 0.0
C770 C 0.8646 0.57717 0.87253 0.0
C771 C 0.9065 0.59112 0.8709 0.0
C772 C 0.82118 0.56417 0.91482 0.0
C773 C 0.8239 0.59831 0.06165 0.0
N774 N 0.88177 0.59564 0.87657 0.0
N775 N 0.84041 0.59893 0.99036 0.0
H776 H 1.0054 0.21912 0.95043 0.0
H777 H 0.05967 0.09871 0.6763 0.0
H778 H 0.08374 0.20587 0.92188 0.0
H779 H 0.98749 0.10112 0.80416 0.0
H780 H 0.06773 0.14098 0.73842 0.0
H781 H 0.99728 0.17951 0.86726 0.0
C782 C 0.02089 0.20826 0.92424 0.0
C783 C 0.04529 0.21611 0.94227 0.0
C784 C 0.05018 0.13219 0.75327 0.0
C785 C 0.03616 0.1703 0.84806 0.0
C786 C 0.04568 0.10796 0.71853 0.0
C787 C 0.02327 0.09584 0.73846 0.0
C788 C 0.03187 0.14479 0.8061 0.0
C789 C 1.0053 0.10938 0.78931 0.0
C790 C 1.01626 0.18546 0.87779 0.0
C791 C 0.06463 0.20076 0.90867 0.0
N792 N 1.00999 0.13289 0.82149 0.0
N793 N 0.05969 0.17873 0.86354 0.0
H794 H 0.35667 0.09254 0.90437 0.0
H795 H 0.45579 0.98773 0.77944 0.0
H796 H 0.34001 1.01484 0.92107 0.0
H797 H 0.4627 0.06168 0.67635 0.0
H798 H 0.41386 0.99756 0.8342 0.0
H799 H 0.39544 0.08225 0.82257 0.0
C800 C 0.36089 0.07329 0.88861 0.0
C801 C 0.34482 0.05454 0.91861 0.0
C802 C 0.42447 1.01171 0.79975 0.0
C803 C 0.3898 0.04253 0.82735 0.0
C804 C 0.44851 1.00614 0.76885 0.0
C805 C 0.46322 0.02419 0.7265 0.0
C806 C 0.41477 0.03558 0.78828 0.0
C807 C 0.45244 0.04749 0.71201 0.0
C808 C 0.38312 0.06743 0.84232 0.0
C809 C 0.35155 0.02991 0.89793 0.0
N810 N 0.42907 0.05263 0.74405 0.0
N811 N 0.37361 0.02463 0.85488 0.0
H812 H 0.53842 0.33071 0.87694 0.0
H813 H 0.47467 0.45654 0.70662 0.0
H814 H 0.45984 0.3446 0.88149 0.0
H815 H 0.55371 0.44471 0.69999 0.0
H816 H 0.46899 0.41387 0.75516 0.0
H817 H 0.54453 0.36998 0.79525 0.0
C818 C 0.52241 0.34163 0.85819 0.0
C819 C 0.49856 0.33423 0.88547 0.0
C820 C 0.48762 0.4205 0.74278 0.0
C821 C 0.5054 0.37957 0.79426 0.0
C822 C 0.4909 0.44502 0.7153 0.0
C823 C 0.51477 0.45462 0.70075 0.0
C824 C 0.50834 0.40514 0.75626 0.0
C825 C 0.53496 0.43837 0.71119 0.0
C826 C 0.5259 0.36421 0.81254 0.0
C827 C 0.47853 0.34948 0.86133 0.0
N828 N 0.53132 0.4146 0.73908 0.0
N829 N 0.4824 0.37136 0.81811 0.0
H830 H 0.22696 0.54838 0.90774 0.0
H831 H 0.10221 0.48015 0.73031 0.0
H832 H 0.21424 0.46982 0.91893 0.0
H833 H 0.11308 0.55891 0.71011 0.0
H834 H 0.14466 0.47613 0.78729 0.0
H835 H 0.18752 0.55275 0.82201 0.0
C836 C 0.21624 0.53199 0.89004 0.0
C837 C 0.22405 0.50868 0.9205 0.0
C838 C 0.13789 0.49433 0.77015 0.0
C839 C 0.17851 0.51356 0.82413 0.0
C840 C 0.11347 0.49667 0.73775 0.0
C841 C 0.10364 0.51999 0.71658 0.0
C842 C 0.15295 0.51546 0.78211 0.0
C843 C 0.1196 0.54056 0.72611 0.0
C844 C 0.19356 0.5345 0.84194 0.0
C845 C 0.20903 0.48815 0.89698 0.0
N846 N 0.14328 0.53786 0.75883 0.0
N847 N 0.18709 0.4911 0.85126 0.0
H848 H 0.9685 0.85448 0.37248 0.0
H849 H 0.99512 0.96223 0.63875 0.0
H850 H 0.04733 0.84246 0.36617 0.0
H851 H 0.06665 0.95729 0.50681 0.0
H852 H 0.98537 0.92042 0.57815 0.0
H853 H 0.97513 0.89356 0.45828 0.0
C854 C 0.98723 0.85972 0.39186 0.0
C855 C 1.00733 0.84474 0.36347 0.0
C856 C 1.00305 0.92854 0.56074 0.0
C857 C 1.0153 0.89024 0.46168 0.0
C858 C 1.00858 0.95254 0.59539 0.0
C859 C 0.03131 0.96382 0.57432 0.0
C860 C 1.02052 0.91543 0.50527 0.0
C861 C 0.04858 0.94969 0.52228 0.0
C862 C 0.99104 0.88218 0.44111 0.0
C863 C 0.03123 0.853 0.38829 0.0
N864 N 0.04281 0.92647 0.48926 0.0
N865 N 0.03454 0.87524 0.43461 0.0
H866 H 0.69932 0.96691 0.40323 0.0
H867 H 0.60156 0.07246 0.53354 0.0
H868 H 0.71708 0.04445 0.39138 0.0
H869 H 0.59388 0.99837 0.63448 0.0
H870 H 0.64339 0.0623 0.47847 0.0
H871 H 0.66075 0.97739 0.48608 0.0
C872 C 0.6954 0.98614 0.42035 0.0
C873 C 0.71171 1.00481 0.39145 0.0
C874 C 0.63262 0.04819 0.51251 0.0
C875 C 0.66695 1.01705 0.48375 0.0
C876 C 0.60864 0.05395 0.54358 0.0
C877 C 0.59374 0.03596 0.58541 0.0
C878 C 0.64207 0.02419 0.52321 0.0
C879 C 0.60428 1.01252 0.59922 0.0
C880 C 0.67328 0.99212 0.46721 0.0
C881 C 0.70534 0.02944 0.4137 0.0
N882 N 0.62759 1.00719 0.56695 0.0
N883 N 0.68338 0.03485 0.45723 0.0
H884 H 0.51741 0.73103 0.43701 0.0
H885 H 0.58057 0.60444 0.60219 0.0
H886 H 0.59589 0.71663 0.43047 0.0
H887 H 0.5016 0.61673 0.61038 0.0
H888 H 0.58646 0.64719 0.55508 0.0
H889 H 0.51116 0.69165 0.51774 0.0
C890 C 0.53338 0.71997 0.45516 0.0
C891 C 0.55723 0.72726 0.42759 0.0
C892 C 0.56781 0.64065 0.56749 0.0
C893 C 0.55023 0.6818 0.51766 0.0
C894 C 0.5644 0.61608 0.59415 0.0
C895 C 0.54048 0.60659 0.60868 0.0
C896 C 0.54717 0.65616 0.55486 0.0
C897 C 0.52038 0.62299 0.59912 0.0
C898 C 0.5298 0.69733 0.50025 0.0
C899 C 0.5772 0.71184 0.45091 0.0
N900 N 0.52414 0.64681 0.57203 0.0
N901 N 0.57325 0.6899 0.49358 0.0
H902 H 0.83967 0.59277 0.39134 0.0
H903 H 0.9423 0.50123 0.60031 0.0
H904 H 0.82985 0.51372 0.39397 0.0
H905 H 0.95255 0.5798 0.5704 0.0
H906 H 0.89958 0.50543 0.5436 0.0
H907 H 0.87865 0.5884 0.47655 0.0
C908 C 0.84547 0.57447 0.41184 0.0
C909 C 0.83127 0.55361 0.38573 0.0
C910 C 0.91115 0.52176 0.54975 0.0
C911 C 0.87669 0.5483 0.48213 0.0
C912 C 0.93564 0.5194 0.58235 0.0
C913 C 0.95147 0.54011 0.58886 0.0
C914 C 0.90213 0.54507 0.52389 0.0
C915 C 0.94141 0.56317 0.56506 0.0
C916 C 0.86792 0.57196 0.45994 0.0
C917 C 0.83996 0.53034 0.41352 0.0
N918 N 0.91761 0.56496 0.53347 0.0
N919 N 0.86218 0.52829 0.45925 0.0
loop_
_geom_bond_atom_site_label_1
_geom_bond_atom_site_label_2
_geom_bond_distance
_geom_bond_site_symmetry_2
_ccdc_geom_bond_type
H0 C1 0.949 . S
C1 H0 0.949 . S
C1 C2 1.395 . S
C1 C3 1.391 . S
C2 C1 1.395 . S
C2 C5 1.390 . S
C3 C1 1.391 . S
C3 C7 1.387 . S
C3 C8 1.491 . S
H4 C5 0.950 . S
C5 C2 1.390 . S
C5 H4 0.950 . S
C5 C6 1.378 . S
C6 C5 1.378 . S
C6 C7 1.409 . S
C7 C3 1.387 . S
C7 C6 1.409 . S
C7 H9 0.951 . S
C8 C3 1.491 . S
C8 C10 1.382 . S
C8 C12 1.404 . S
H9 C7 0.951 . S
C10 C8 1.382 . S
C10 C11 1.390 . S
C10 H15 0.949 . S
C11 C10 1.390 . S
C11 C16 1.399 . S
C12 C8 1.404 . S
C12 H13 0.950 . S
C12 C14 1.375 . S
H13 C12 0.950 . S
C14 C12 1.375 . S
C14 C16 1.382 . S
C14 H18 0.950 . S
H15 C10 0.949 . S
C16 C11 1.399 . S
C16 C14 1.382 . S
C16 H17 0.952 . S
H17 C16 0.952 . S
H18 C14 0.950 . S
H19 C20 0.949 . S
C20 H19 0.949 . S
C20 C21 1.395 . S
C20 C22 1.391 . S
C21 C20 1.395 . S
C21 C24 1.390 . S
C22 C20 1.391 . S
C22 C26 1.387 . S
C22 C27 1.491 . S
H23 C24 0.950 . S
C24 C21 1.390 . S
C24 H23 0.950 . S
C24 C25 1.378 . S
C25 C24 1.378 . S
C25 C26 1.409 . S
C26 C22 1.387 . S
C26 C25 1.409 . S
C26 H28 0.951 . S
C27 C22 1.491 . S
C27 C29 1.382 . S
C27 C31 1.404 . S
H28 C26 0.951 . S
C29 C27 1.382 . S
C29 C30 1.390 . S
C29 H34 0.949 . S
C30 C29 1.390 . S
C30 C35 1.399 . S
C31 C27 1.404 . S
C31 H32 0.950 . S
C31 C33 1.375 . S
H32 C31 0.950 . S
C33 C31 1.375 . S
C33 C35 1.382 . S
C33 H37 0.950 . S
H34 C29 0.949 . S
C35 C30 1.399 . S
C35 C33 1.382 . S
C35 H36 0.952 . S
H36 C35 0.952 . S
H37 C33 0.950 . S
H38 C39 0.949 . S
C39 H38 0.949 . S
C39 C40 1.395 . S
C39 C41 1.391 . S
C40 C39 1.395 . S
C40 C43 1.390 . S
C41 C39 1.391 . S
C41 C45 1.387 . S
C41 C46 1.491 . S
H42 C43 0.950 . S
C43 C40 1.390 . S
C43 H42 0.950 . S
C43 C44 1.378 . S
C44 C43 1.378 . S
C44 C45 1.409 . S
C45 C41 1.387 . S
C45 C44 1.409 . S
C45 H47 0.951 . S
C46 C41 1.491 . S
C46 C48 1.382 . S
C46 C50 1.404 . S
H47 C45 0.951 . S
C48 C46 1.382 . S
C48 C49 1.390 . S
C48 H53 0.949 . S
C49 C48 1.390 . S
C49 C54 1.399 . S
C50 C46 1.404 . S
C50 H51 0.950 . S
C50 C52 1.375 . S
H51 C50 0.950 . S
C52 C50 1.375 . S
C52 C54 1.382 . S
C52 H56 0.950 . S
H53 C48 0.949 . S
C54 C49 1.399 . S
C54 C52 1.382 . S
C54 H55 0.952 . S
H55 C54 0.952 . S
H56 C52 0.950 . S
H57 C58 0.949 . S
C58 H57 0.949 . S
C58 C59 1.395 . S
C58 C60 1.391 . S
C59 C58 1.395 . S
C59 C62 1.390 . S
C60 C58 1.391 . S
C60 C64 1.387 . S
C60 C65 1.491 . S
H61 C62 0.950 . S
C62 C59 1.390 . S
C62 H61 0.950 . S
C62 C63 1.378 . S
C63 C62 1.378 . S
C63 C64 1.409 . S
C64 C60 1.387 . S
C64 C63 1.409 . S
C64 H66 0.951 . S
C65 C60 1.491 . S
C65 C67 1.382 . S
C65 C69 1.404 . S
H66 C64 0.951 . S
C67 C65 1.382 . S
C67 C68 1.390 . S
C67 H72 0.949 . S
C68 C67 1.390 . S
C68 C73 1.399 . S
C69 C65 1.404 . S
C69 H70 0.950 . S
C69 C71 1.375 . S
H70 C69 0.950 . S
C71 C69 1.375 . S
C71 C73 1.382 . S
C71 H75 0.950 . S
H72 C67 0.949 . S
C73 C68 1.399 . S
C73 C71 1.382 . S
C73 H74 0.952 . S
H74 C73 0.952 . S
H75 C71 0.950 . S
H76 C77 0.949 . S
C77 H76 0.949 . S
C77 C78 1.395 . S
C77 C79 1.391 1_554 S
C78 C77 1.395 . S
C78 C81 1.390 1_554 S
C79 C77 1.391 1_556 S
C79 C83 1.387 . S
C79 C84 1.491 . S
H80 C81 0.950 . S
C81 C78 1.390 1_556 S
C81 H80 0.950 . S
C81 C82 1.378 . S
C82 C81 1.378 . S
C82 C83 1.409 . S
C83 C79 1.387 . S
C83 C82 1.409 . S
C83 H85 0.951 . S
C84 C79 1.491 . S
C84 C86 1.382 1_556 S
C84 C88 1.404 . S
H85 C83 0.951 . S
C86 C84 1.382 1_554 S
C86 C87 1.390 . S
C86 H91 0.949 . S
C87 C86 1.390 . S
C87 C92 1.399 1_554 S
C88 C84 1.404 . S
C88 H89 0.950 . S
C88 C90 1.375 . S
H89 C88 0.950 . S
C90 C88 1.375 . S
C90 C92 1.382 . S
C90 H94 0.950 . S
H91 C86 0.949 . S
C92 C87 1.399 1_556 S
C92 C90 1.382 . S
C92 H93 0.952 . S
H93 C92 0.952 . S
H94 C90 0.950 . S
H95 C96 0.949 . S
C96 H95 0.949 . S
C96 C97 1.395 . S
C96 C98 1.391 1_554 S
C97 C96 1.395 . S
C97 C100 1.390 1_554 S
C98 C96 1.391 1_556 S
C98 C102 1.387 . S
C98 C103 1.491 . S
H99 C100 0.950 . S
C100 C97 1.390 1_556 S
C100 H99 0.950 . S
C100 C101 1.378 . S
C101 C100 1.378 . S
C101 C102 1.409 . S
C102 C98 1.387 . S
C102 C101 1.409 . S
C102 H104 0.951 . S
C103 C98 1.491 . S
C103 C105 1.382 1_556 S
C103 C107 1.404 . S
H104 C102 0.951 . S
C105 C103 1.382 1_554 S
C105 C106 1.390 . S
C105 H110 0.949 . S
C106 C105 1.390 . S
C106 C111 1.399 1_554 S
C107 C103 1.404 . S
C107 H108 0.950 . S
C107 C109 1.375 . S
H108 C107 0.950 . S
C109 C107 1.375 . S
C109 C111 1.382 . S
C109 H113 0.950 . S
H110 C105 0.949 . S
C111 C106 1.399 1_556 S
C111 C109 1.382 . S
C111 H112 0.952 . S
H112 C111 0.952 . S
H113 C109 0.950 . S
H114 C115 0.949 . S
C115 H114 0.949 . S
C115 C116 1.395 . S
C115 C117 1.391 1_554 S
C116 C115 1.395 . S
C116 C119 1.390 1_554 S
C117 C115 1.391 1_556 S
C117 C121 1.387 . S
C117 C122 1.491 . S
H118 C119 0.950 . S
C119 C116 1.390 1_556 S
C119 H118 0.950 . S
C119 C120 1.378 . S
C120 C119 1.378 . S
C120 C121 1.409 . S
C121 C117 1.387 . S
C121 C120 1.409 . S
C121 H123 0.951 . S
C122 C117 1.491 . S
C122 C124 1.382 1_556 S
C122 C126 1.404 . S
H123 C121 0.951 . S
C124 C122 1.382 1_554 S
C124 C125 1.390 . S
C124 H129 0.949 . S
C125 C124 1.390 . S
C125 C130 1.399 1_554 S
C126 C122 1.404 . S
C126 H127 0.950 . S
C126 C128 1.375 . S
H127 C126 0.950 . S
C128 C126 1.375 . S
C128 C130 1.382 . S
C128 H132 0.950 . S
H129 C124 0.949 . S
C130 C125 1.399 1_556 S
C130 C128 1.382 . S
C130 H131 0.952 . S
H131 C130 0.952 . S
H132 C128 0.950 . S
H133 C134 0.949 . S
C134 H133 0.949 . S
C134 C135 1.395 . S
C134 C136 1.391 1_554 S
C135 C134 1.395 . S
C135 C138 1.390 1_554 S
C136 C134 1.391 1_556 S
C136 C140 1.387 . S
C136 C141 1.491 . S
H137 C138 0.950 . S
C138 C135 1.390 1_556 S
C138 H137 0.950 . S
C138 C139 1.378 . S
C139 C138 1.378 . S
C139 C140 1.409 . S
C140 C136 1.387 . S
C140 C139 1.409 . S
C140 H142 0.951 . S
C141 C136 1.491 . S
C141 C143 1.382 1_556 S
C141 C145 1.404 . S
H142 C140 0.951 . S
C143 C141 1.382 1_554 S
C143 C144 1.390 . S
C143 H148 0.949 . S
C144 C143 1.390 . S
C144 C149 1.399 1_554 S
C145 C141 1.404 . S
C145 H146 0.950 . S
C145 C147 1.375 . S
H146 C145 0.950 . S
C147 C145 1.375 . S
C147 C149 1.382 . S
C147 H151 0.950 . S
H148 C143 0.949 . S
C149 C144 1.399 1_556 S
C149 C147 1.382 . S
C149 H150 0.952 . S
H150 C149 0.952 . S
H151 C147 0.950 . S
Gd152 N183 2.661 . S
Gd152 N189 2.601 . S
Gd152 O196 2.545 . S
Gd152 O197 2.606 1_655 S
Gd152 O199 2.429 . S
Gd152 O200 2.545 1_655 S
Gd152 O201 2.414 . S
Gd152 O203 2.362 1_545 S
Gd152 O204 2.324 1_655 S
Gd152 C211 2.828 . S
Gd153 N162 2.661 1_565 S
Gd153 N166 2.601 1_565 S
Gd153 O197 2.362 1_565 S
Gd153 O198 2.324 1_455 S
Gd153 O202 2.545 . S
Gd153 O203 2.606 1_455 S
Gd153 O205 2.436 . S
Gd153 O206 2.545 . S
Gd153 O207 2.412 . S
Gd153 C220 2.828 . S
C154 C157 1.417 1_554 S
C154 C159 1.431 . S
C154 C160 1.412 . S
C155 C158 1.437 1_554 S
C155 C159 1.317 . S
C155 H174 0.929 . S
C156 C157 1.426 . S
C156 C158 1.413 . S
C156 N166 1.359 . S
C157 C154 1.417 1_556 S
C157 C156 1.426 . S
C157 N162 1.350 . S
C158 C155 1.437 1_556 S
C158 C156 1.413 . S
C158 C168 1.391 . S
C159 C154 1.431 . S
C159 C155 1.317 . S
C159 H170 0.930 . S
C160 C154 1.412 . S
C160 C161 1.355 . S
C160 H172 0.930 . S
C161 C160 1.355 . S
C161 C163 1.402 1_554 S
C161 H173 0.930 1_455 S
N162 Gd153 2.661 1_545 S
N162 C157 1.350 . S
N162 C163 1.307 . S
C163 C161 1.402 1_556 S
C163 N162 1.307 . S
C163 H164 0.930 1_455 S
H164 C163 0.930 1_655 S
C165 N166 1.334 1_565 S
C165 C167 1.394 . S
C165 H169 0.930 . S
N166 Gd153 2.601 1_545 S
N166 C156 1.359 . S
N166 C165 1.334 1_545 S
C167 C165 1.394 . S
C167 C168 1.359 1_565 S
C167 H179 0.930 . S
C168 C158 1.391 . S
C168 C167 1.359 1_545 S
C168 H180 0.929 . S
H169 C165 0.930 . S
H170 C159 0.930 . S
H171 C188 0.930 . S
H172 C160 0.930 . S
H173 C161 0.930 1_655 S
H174 C155 0.929 . S
H175 C193 0.930 . S
H176 C184 0.930 . S
H177 C185 0.930 . S
H178 C209 0.929 . S
H179 C167 0.930 . S
H180 C168 0.929 . S
H181 C210 0.930 . S
H182 C191 0.930 . S
N183 Gd152 2.661 . S
N183 C187 1.350 1_545 S
N183 C188 1.307 1_645 S
C184 H176 0.930 . S
C184 C185 1.355 1_655 S
C184 C186 1.412 . S
C185 H177 0.930 . S
C185 C184 1.355 1_455 S
C185 C188 1.402 . S
C186 C184 1.412 . S
C186 C187 1.417 . S
C186 C210 1.431 . S
C187 N183 1.350 1_565 S
C187 C186 1.417 . S
C187 C190 1.426 1_565 S
C188 H171 0.930 . S
C188 N183 1.307 1_465 S
C188 C185 1.402 . S
N189 Gd152 2.601 . S
N189 C190 1.359 . S
N189 C193 1.334 . S
C190 C187 1.426 1_545 S
C190 N189 1.359 . S
C190 C194 1.413 . S
C191 H182 0.930 . S
C191 C192 1.359 . S
C191 C193 1.394 . S
C192 C191 1.359 . S
C192 C194 1.391 . S
C192 H195 0.929 . S
C193 H175 0.930 . S
C193 N189 1.334 . S
C193 C191 1.394 . S
C194 C190 1.413 . S
C194 C192 1.391 . S
C194 C209 1.437 1_545 S
H195 C192 0.929 . S
O196 Gd152 2.545 . S
O196 C211 1.258 . S
O197 Gd152 2.606 1_455 S
O197 Gd153 2.362 1_545 S
O197 C208 1.284 . S
O198 Gd153 2.324 1_655 S
O198 C218 1.253 1_565 S
O199 Gd152 2.429 . S
O199 C218 1.268 . S
O200 Gd152 2.545 1_455 S
O200 C208 1.250 . S
O201 Gd152 2.414 . S
O201 C211 1.258 . S
O202 Gd153 2.545 . S
O202 C220 1.258 . S
O203 Gd152 2.362 1_565 S
O203 Gd153 2.606 1_655 S
O203 C219 1.284 . S
O204 Gd152 2.324 1_455 S
O204 C227 1.254 . S
O205 Gd153 2.436 . S
O205 C227 1.241 1_565 S
O206 Gd153 2.545 . S
O206 C219 1.250 1_455 S
O207 Gd153 2.412 . S
O207 C220 1.252 . S
C208 O197 1.284 . S
C208 O200 1.250 . S
C209 H178 0.929 . S
C209 C194 1.437 1_565 S
C209 C210 1.317 . S
C210 H181 0.930 . S
C210 C186 1.431 . S
C210 C209 1.317 . S
C211 Gd152 2.828 . S
C211 O196 1.258 . S
C211 O201 1.258 . S
C211 C212 1.497 . S
C212 C211 1.497 . S
C212 C213 1.395 . S
C212 C214 1.380 1_655 S
C213 C212 1.395 . S
C213 C216 1.398 . S
C213 H228 0.930 . S
C214 C212 1.380 1_455 S
C214 C215 1.391 1_455 S
C214 H229 0.931 . S
C215 C214 1.391 1_655 S
C215 C217 1.387 . S
C216 C213 1.398 . S
C216 C217 1.380 . S
C216 H230 0.930 . S
C217 C215 1.387 . S
C217 C216 1.380 . S
C217 H231 0.930 . S
C218 O198 1.253 1_545 S
C218 O199 1.268 . S
C219 O203 1.284 . S
C219 O206 1.250 1_655 S
C220 Gd153 2.828 . S
C220 O202 1.258 . S
C220 O207 1.252 . S
C220 C221 1.497 . S
C221 C220 1.497 . S
C221 C222 1.395 . S
C221 C223 1.380 . S
C222 C221 1.395 . S
C222 C225 1.398 . S
C222 H232 0.930 . S
C223 C221 1.380 . S
C223 C224 1.391 . S
C223 H233 0.930 1_455 S
C224 C223 1.391 . S
C224 C226 1.387 1_556 S
C225 C222 1.398 . S
C225 C226 1.380 1_556 S
C225 H234 0.931 . S
C226 C224 1.387 1_554 S
C226 C225 1.380 1_554 S
C226 H235 0.930 . S
C227 O204 1.254 . S
C227 O205 1.241 1_545 S
H228 C213 0.930 . S
H229 C214 0.931 . S
H230 C216 0.930 . S
H231 C217 0.930 . S
H232 C222 0.930 . S
H233 C223 0.930 1_655 S
H234 C225 0.931 . S
H235 C226 0.930 . S
Gd236 N267 2.661 . S
Gd236 N273 2.601 . S
Gd236 O280 2.545 . S
Gd236 O281 2.606 1_565 S
Gd236 O283 2.429 . S
Gd236 O284 2.545 1_565 S
Gd236 O285 2.412 1_565 S
Gd236 O287 2.357 1_565 S
Gd236 O288 2.324 1_565 S
Gd236 C295 2.828 . S
Gd237 N246 2.661 . S
Gd237 N250 2.601 . S
Gd237 O281 2.362 . S
Gd237 O282 2.324 1_545 S
Gd237 O286 2.545 . S
Gd237 O287 2.625 . S
Gd237 O289 2.429 . S
Gd237 O290 2.545 . S
Gd237 O291 2.412 . S
Gd237 C304 2.828 . S
C238 C241 1.417 1_554 S
C238 C243 1.431 . S
C238 C244 1.412 . S
C239 C242 1.437 1_554 S
C239 C243 1.317 . S
C239 H258 0.929 . S
C240 C241 1.426 . S
C240 C242 1.413 . S
C240 N250 1.359 . S
C241 C238 1.417 1_556 S
C241 C240 1.426 . S
C241 N246 1.350 . S
C242 C239 1.437 1_556 S
C242 C240 1.413 . S
C242 C252 1.391 . S
C243 C238 1.431 . S
C243 C239 1.317 . S
C243 H254 0.930 . S
C244 C238 1.412 . S
C244 C245 1.355 . S
C244 H256 0.930 . S
C245 C244 1.355 . S
C245 C247 1.402 1_554 S
C245 H257 0.930 1_545 S
N246 Gd237 2.661 . S
N246 C241 1.350 . S
N246 C247 1.307 . S
C247 C245 1.402 1_556 S
C247 N246 1.307 . S
C247 H248 0.930 1_545 S
H248 C247 0.930 1_565 S
C249 N250 1.334 . S
C249 C251 1.394 . S
C249 H253 0.930 . S
N250 Gd237 2.601 . S
N250 C240 1.359 . S
N250 C249 1.334 . S
C251 C249 1.394 . S
C251 C252 1.359 . S
C251 H263 0.930 . S
C252 C242 1.391 . S
C252 C251 1.359 . S
C252 H264 0.929 . S
H253 C249 0.930 . S
H254 C243 0.930 . S
H255 C272 0.930 . S
H256 C244 0.930 . S
H257 C245 0.930 1_565 S
H258 C239 0.929 . S
H259 C277 0.930 . S
H260 C268 0.930 . S
H261 C269 0.930 . S
H262 C293 0.929 . S
H263 C251 0.930 . S
H264 C252 0.929 . S
H265 C294 0.930 . S
H266 C275 0.930 . S
N267 Gd236 2.661 . S
N267 C271 1.350 . S
N267 C272 1.307 1_565 S
C268 H260 0.930 . S
C268 C269 1.355 1_565 S
C268 C270 1.412 . S
C269 H261 0.930 . S
C269 C268 1.355 1_545 S
C269 C272 1.402 . S
C270 C268 1.412 . S
C270 C271 1.417 . S
C270 C294 1.431 . S
C271 N267 1.350 . S
C271 C270 1.417 . S
C271 C274 1.426 . S
C272 H255 0.930 . S
C272 N267 1.307 1_545 S
C272 C269 1.402 . S
N273 Gd236 2.601 . S
N273 C274 1.359 . S
N273 C277 1.334 . S
C274 C271 1.426 . S
C274 N273 1.359 . S
C274 C278 1.413 . S
C275 H266 0.930 . S
C275 C276 1.359 . S
C275 C277 1.394 . S
C276 C275 1.359 . S
C276 C278 1.391 . S
C276 H279 0.929 . S
C277 H259 0.930 . S
C277 N273 1.334 . S
C277 C275 1.394 . S
C278 C274 1.413 . S
C278 C276 1.391 . S
C278 C293 1.437 . S
H279 C276 0.929 . S
O280 Gd236 2.545 . S
O280 C295 1.258 . S
O281 Gd236 2.606 1_545 S
O281 Gd237 2.362 . S
O281 C292 1.284 . S
O282 Gd237 2.324 1_565 S
O282 C302 1.254 . S
O283 Gd236 2.429 . S
O283 C302 1.268 . S
O284 Gd236 2.545 1_545 S
O284 C292 1.250 . S
O285 Gd236 2.412 1_545 S
O285 C295 1.252 1_545 S
O286 Gd237 2.545 . S
O286 C304 1.258 . S
O287 Gd236 2.357 1_545 S
O287 Gd237 2.625 . S
O287 C303 1.286 . S
O288 Gd236 2.324 1_545 S
O288 C311 1.254 . S
O289 Gd237 2.429 . S
O289 C311 1.268 . S
O290 Gd237 2.545 . S
O290 C303 1.250 . S
O291 Gd237 2.412 . S
O291 C304 1.252 . S
C292 O281 1.284 . S
C292 O284 1.250 . S
C293 H262 0.929 . S
C293 C278 1.437 . S
C293 C294 1.317 . S
C294 H265 0.930 . S
C294 C270 1.431 . S
C294 C293 1.317 . S
C295 Gd236 2.828 . S
C295 O280 1.258 . S
C295 O285 1.252 1_565 S
C295 C296 1.497 . S
C296 C295 1.497 . S
C296 C297 1.395 . S
C296 C298 1.380 1_565 S
C297 C296 1.395 . S
C297 C300 1.398 . S
C297 H312 0.930 . S
C298 C296 1.380 1_545 S
C298 C299 1.394 . S
C298 H313 0.930 . S
C299 C298 1.394 . S
C299 C301 1.352 1_545 S
C300 C297 1.398 . S
C300 C301 1.380 . S
C300 H314 0.930 . S
C301 C299 1.352 1_565 S
C301 C300 1.380 . S
C301 H315 0.930 . S
C302 O282 1.254 . S
C302 O283 1.268 . S
C303 O287 1.286 . S
C303 O290 1.250 . S
C304 Gd237 2.828 . S
C304 O286 1.258 . S
C304 O291 1.252 . S
C304 C305 1.497 . S
C305 C304 1.497 . S
C305 C306 1.395 . S
C305 C307 1.380 . S
C306 C305 1.395 . S
C306 C309 1.398 . S
C306 H316 0.930 . S
C307 C305 1.380 . S
C307 C308 1.391 . S
C307 H317 0.930 . S
C308 C307 1.391 . S
C308 C310 1.387 1_556 S
C309 C306 1.398 . S
C309 C310 1.380 1_556 S
C309 H318 0.930 1_556 S
C310 C308 1.387 1_554 S
C310 C309 1.380 1_554 S
C310 H319 0.930 . S
C311 O288 1.254 . S
C311 O289 1.268 . S
H312 C297 0.930 . S
H313 C298 0.930 . S
H314 C300 0.930 . S
H315 C301 0.930 . S
H316 C306 0.930 . S
H317 C307 0.930 . S
H318 C309 0.930 1_554 S
H319 C310 0.930 . S
Gd320 N351 2.661 . S
Gd320 N357 2.601 . S
Gd320 O364 2.545 . S
Gd320 O365 2.606 . S
Gd320 O367 2.429 . S
Gd320 O368 2.545 . S
Gd320 O369 2.412 . S
Gd320 O371 2.362 . S
Gd320 O372 2.324 . S
Gd320 C379 2.828 . S
Gd321 N330 2.661 . S
Gd321 N334 2.601 . S
Gd321 O365 2.362 . S
Gd321 O366 2.324 . S
Gd321 O370 2.545 . S
Gd321 O371 2.606 . S
Gd321 O373 2.429 . S
Gd321 O374 2.545 . S
Gd321 O375 2.412 . S
Gd321 C388 2.828 . S
C322 C325 1.417 . S
C322 C327 1.431 . S
C322 C328 1.412 . S
C323 C326 1.437 . S
C323 C327 1.317 . S
C323 H342 0.929 . S
C324 C325 1.426 . S
C324 C326 1.413 . S
C324 N334 1.359 . S
C325 C322 1.417 . S
C325 C324 1.426 . S
C325 N330 1.350 . S
C326 C323 1.437 . S
C326 C324 1.413 . S
C326 C336 1.391 . S
C327 C322 1.431 . S
C327 C323 1.317 . S
C327 H338 0.930 . S
C328 C322 1.412 . S
C328 C329 1.355 . S
C328 H340 0.930 . S
C329 C328 1.355 . S
C329 C331 1.402 . S
C329 H341 0.930 . S
N330 Gd321 2.661 . S
N330 C325 1.350 . S
N330 C331 1.307 . S
C331 C329 1.402 . S
C331 N330 1.307 . S
C331 H332 0.930 . S
H332 C331 0.930 . S
C333 N334 1.334 . S
C333 C335 1.394 . S
C333 H337 0.930 . S
N334 Gd321 2.601 . S
N334 C324 1.359 . S
N334 C333 1.334 . S
C335 C333 1.394 . S
C335 C336 1.359 . S
C335 H347 0.930 . S
C336 C326 1.391 . S
C336 C335 1.359 . S
C336 H348 0.929 . S
H337 C333 0.930 . S
H338 C327 0.930 . S
H339 C356 0.930 . S
H340 C328 0.930 . S
H341 C329 0.930 . S
H342 C323 0.929 . S
H343 C361 0.930 . S
H344 C352 0.930 . S
H345 C353 0.930 . S
H346 C377 0.929 . S
H347 C335 0.930 . S
H348 C336 0.929 . S
H349 C378 0.930 . S
H350 C359 0.930 1_554 S
N351 Gd320 2.661 . S
N351 C355 1.350 . S
N351 C356 1.307 . S
C352 H344 0.930 . S
C352 C353 1.355 . S
C352 C354 1.412 . S
C353 H345 0.930 . S
C353 C352 1.355 . S
C353 C356 1.402 . S
C354 C352 1.412 . S
C354 C355 1.417 . S
C354 C378 1.431 . S
C355 N351 1.350 . S
C355 C354 1.417 . S
C355 C358 1.426 . S
C356 H339 0.930 . S
C356 N351 1.307 . S
C356 C353 1.402 . S
N357 Gd320 2.601 . S
N357 C358 1.359 . S
N357 C361 1.334 . S
C358 C355 1.426 . S
C358 N357 1.359 . S
C358 C362 1.413 . S
C359 H350 0.930 1_556 S
C359 C360 1.359 . S
C359 C361 1.394 . S
C360 C359 1.359 . S
C360 C362 1.391 . S
C360 H363 0.929 . S
C361 H343 0.930 . S
C361 N357 1.334 . S
C361 C359 1.394 . S
C362 C358 1.413 . S
C362 C360 1.391 . S
C362 C377 1.437 . S
H363 C360 0.929 . S
O364 Gd320 2.545 . S
O364 C379 1.258 . S
O365 Gd320 2.606 . S
O365 Gd321 2.362 . S
O365 C376 1.284 . S
O366 Gd321 2.324 . S
O366 C386 1.254 . S
O367 Gd320 2.429 . S
O367 C386 1.268 . S
O368 Gd320 2.545 . S
O368 C376 1.250 . S
O369 Gd320 2.412 . S
O369 C379 1.252 . S
O370 Gd321 2.545 . S
O370 C388 1.258 . S
O371 Gd320 2.362 . S
O371 Gd321 2.606 . S
O371 C387 1.284 . S
O372 Gd320 2.324 . S
O372 C395 1.254 . S
O373 Gd321 2.429 . S
O373 C395 1.268 . S
O374 Gd321 2.545 . S
O374 C387 1.250 . S
O375 Gd321 2.412 . S
O375 C388 1.252 . S
C376 O365 1.284 . S
C376 O368 1.250 . S
C377 H346 0.929 . S
C377 C362 1.437 . S
C377 C378 1.317 . S
C378 H349 0.930 . S
C378 C354 1.431 . S
C378 C377 1.317 . S
C379 Gd320 2.828 . S
C379 O364 1.258 . S
C379 O369 1.252 . S
C379 C380 1.497 . S
C380 C379 1.497 . S
C380 C381 1.395 1_556 S
C380 C382 1.380 . S
C381 C380 1.395 1_554 S
C381 C384 1.398 . S
C381 H396 0.930 . S
C382 C380 1.380 . S
C382 C383 1.391 1_556 S
C382 H397 0.930 . S
C383 C382 1.391 1_554 S
C383 C385 1.387 . S
C384 C381 1.398 . S
C384 C385 1.380 . S
C384 H398 0.930 . S
C385 C383 1.387 . S
C385 C384 1.380 . S
C385 H399 0.930 . S
C386 O366 1.254 . S
C386 O367 1.268 . S
C387 O371 1.284 . S
C387 O374 1.250 . S
C388 Gd321 2.828 . S
C388 O370 1.258 . S
C388 O375 1.252 . S
C388 C389 1.497 . S
C389 C388 1.497 . S
C389 C390 1.395 . S
C389 C391 1.380 . S
C390 C389 1.395 . S
C390 C393 1.398 . S
C390 H400 0.930 . S
C391 C389 1.380 . S
C391 C392 1.391 . S
C391 H401 0.930 . S
C392 C391 1.391 . S
C392 C394 1.387 . S
C393 C390 1.398 . S
C393 C394 1.380 . S
C393 H402 0.930 . S
C394 C392 1.387 . S
C394 C393 1.380 . S
C394 H403 0.930 . S
C395 O372 1.254 . S
C395 O373 1.268 . S
H396 C381 0.930 . S
H397 C382 0.930 . S
H398 C384 0.930 . S
H399 C385 0.930 . S
H400 C390 0.930 . S
H401 C391 0.930 . S
H402 C393 0.930 . S
H403 C394 0.930 . S
Gd404 N435 2.661 . S
Gd404 N441 2.601 . S
Gd404 O448 2.545 . S
Gd404 O449 2.606 1_655 S
Gd404 O451 2.429 1_655 S
Gd404 O452 2.545 . S
Gd404 O453 2.412 . S
Gd404 O455 2.362 1_655 S
Gd404 O456 2.324 . S
Gd404 C463 2.828 . S
Gd405 N414 2.661 . S
Gd405 N418 2.601 . S
Gd405 O449 2.362 . S
Gd405 O450 2.324 . S
Gd405 O454 2.545 . S
Gd405 O455 2.606 . S
Gd405 O457 2.429 1_455 S
Gd405 O458 2.545 . S
Gd405 O459 2.412 . S
Gd405 C472 2.828 . S
C406 C409 1.417 . S
C406 C411 1.431 . S
C406 C412 1.412 . S
C407 C410 1.437 . S
C407 C411 1.317 . S
C407 H426 0.929 . S
C408 C409 1.426 . S
C408 C410 1.413 . S
C408 N418 1.359 . S
C409 C406 1.417 . S
C409 C408 1.426 . S
C409 N414 1.350 . S
C410 C407 1.437 . S
C410 C408 1.413 . S
C410 C420 1.391 . S
C411 C406 1.431 . S
C411 C407 1.317 . S
C411 H422 0.930 . S
C412 C406 1.412 . S
C412 C413 1.355 . S
C412 H424 0.930 . S
C413 C412 1.355 . S
C413 C415 1.402 . S
C413 H425 0.930 . S
N414 Gd405 2.661 . S
N414 C409 1.350 . S
N414 C415 1.307 . S
C415 C413 1.402 . S
C415 N414 1.307 . S
C415 H416 0.930 . S
H416 C415 0.930 . S
C417 N418 1.334 . S
C417 C419 1.394 1_455 S
C417 H421 0.930 1_455 S
N418 Gd405 2.601 . S
N418 C408 1.359 . S
N418 C417 1.334 . S
C419 C417 1.394 1_655 S
C419 C420 1.359 1_655 S
C419 H431 0.930 . S
C420 C410 1.391 . S
C420 C419 1.359 1_455 S
C420 H432 0.929 . S
H421 C417 0.930 1_655 S
H422 C411 0.930 . S
H423 C440 0.930 . S
H424 C412 0.930 . S
H425 C413 0.930 . S
H426 C407 0.929 . S
H427 C445 0.930 . S
H428 C436 0.930 . S
H429 C437 0.930 . S
H430 C461 0.929 . S
H431 C419 0.930 . S
H432 C420 0.929 . S
H433 C462 0.930 . S
H434 C443 0.933 . S
N435 Gd404 2.661 . S
N435 C439 1.350 . S
N435 C440 1.307 . S
C436 H428 0.930 . S
C436 C437 1.355 . S
C436 C438 1.412 . S
C437 H429 0.930 . S
C437 C436 1.355 . S
C437 C440 1.402 . S
C438 C436 1.412 . S
C438 C439 1.417 . S
C438 C462 1.431 . S
C439 N435 1.350 . S
C439 C438 1.417 . S
C439 C442 1.426 . S
C440 H423 0.930 . S
C440 N435 1.307 . S
C440 C437 1.402 . S
N441 Gd404 2.601 . S
N441 C442 1.359 . S
N441 C445 1.334 1_655 S
C442 C439 1.426 . S
C442 N441 1.359 . S
C442 C446 1.413 . S
C443 H434 0.933 . S
C443 C444 1.359 . S
C443 C445 1.394 . S
C444 C443 1.359 . S
C444 C446 1.391 1_455 S
C444 H447 0.929 . S
C445 H427 0.930 . S
C445 N441 1.334 1_455 S
C445 C443 1.394 . S
C446 C442 1.413 . S
C446 C444 1.391 1_655 S
C446 C461 1.437 . S
H447 C444 0.929 . S
O448 Gd404 2.545 . S
O448 C463 1.258 . S
O449 Gd404 2.606 1_455 S
O449 Gd405 2.362 . S
O449 C460 1.284 1_455 S
O450 Gd405 2.324 . S
O450 C470 1.254 . S
O451 Gd404 2.429 1_455 S
O451 C470 1.268 . S
O452 Gd404 2.545 . S
O452 C460 1.250 . S
O453 Gd404 2.412 . S
O453 C463 1.252 . S
O454 Gd405 2.545 . S
O454 C472 1.258 . S
O455 Gd404 2.362 1_455 S
O455 Gd405 2.606 . S
O455 C471 1.284 . S
O456 Gd404 2.324 . S
O456 C479 1.254 . S
O457 Gd405 2.429 1_655 S
O457 C479 1.268 . S
O458 Gd405 2.545 . S
O458 C471 1.250 . S
O459 Gd405 2.412 . S
O459 C472 1.252 . S
C460 O449 1.284 1_655 S
C460 O452 1.250 . S
C461 H430 0.929 . S
C461 C446 1.437 . S
C461 C462 1.317 . S
C462 H433 0.930 . S
C462 C438 1.431 . S
C462 C461 1.317 . S
C463 Gd404 2.828 . S
C463 O448 1.258 . S
C463 O453 1.252 . S
C463 C464 1.497 . S
C464 C463 1.497 . S
C464 C465 1.395 1_556 S
C464 C466 1.380 . S
C465 C464 1.395 1_554 S
C465 C468 1.398 . S
C465 H480 0.930 . S
C466 C464 1.380 . S
C466 C467 1.391 1_556 S
C466 H481 0.930 . S
C467 C466 1.391 1_554 S
C467 C469 1.387 . S
C468 C465 1.398 . S
C468 C469 1.380 . S
C468 H482 0.930 . S
C469 C467 1.387 . S
C469 C468 1.380 . S
C469 H483 0.930 . S
C470 O450 1.254 . S
C470 O451 1.268 . S
C471 O455 1.284 . S
C471 O458 1.250 . S
C472 Gd405 2.828 . S
C472 O454 1.258 . S
C472 O459 1.252 . S
C472 C473 1.497 . S
C473 C472 1.497 . S
C473 C474 1.395 . S
C473 C475 1.380 . S
C474 C473 1.395 . S
C474 C477 1.398 . S
C474 H484 0.930 . S
C475 C473 1.380 . S
C475 C476 1.391 . S
C475 H485 0.930 . S
C476 C475 1.391 . S
C476 C478 1.387 . S
C477 C474 1.398 . S
C477 C478 1.380 . S
C477 H486 0.930 . S
C478 C476 1.387 . S
C478 C477 1.380 . S
C478 H487 0.930 . S
C479 O456 1.254 . S
C479 O457 1.268 . S
H480 C465 0.930 . S
H481 C466 0.930 . S
H482 C468 0.930 . S
H483 C469 0.930 . S
H484 C474 0.930 . S
H485 C475 0.930 . S
H486 C477 0.930 . S
H487 C478 0.930 . S
H488 C494 0.930 . S
H489 C498 0.930 . S
H490 C503 0.929 . S
H491 C501 0.929 1_565 S
H492 C496 0.929 . S
H493 C502 0.929 . S
C494 H488 0.930 . S
C494 C495 1.367 . S
C494 C502 1.378 . S
C495 C494 1.367 . S
C495 C503 1.433 . S
C496 H492 0.929 . S
C496 C498 1.378 . S
C496 C500 1.350 . S
C497 C500 1.463 . S
C497 C502 1.350 . S
C497 N505 1.427 . S
C498 H489 0.930 . S
C498 C496 1.378 . S
C498 C499 1.367 . S
C499 C498 1.367 . S
C499 C501 1.433 . S
C500 C496 1.350 . S
C500 C497 1.463 . S
C500 N504 1.427 . S
C501 H491 0.929 1_545 S
C501 C499 1.433 . S
C501 N504 1.384 . S
C502 H493 0.929 . S
C502 C494 1.378 . S
C502 C497 1.350 . S
C503 H490 0.929 . S
C503 C495 1.433 . S
C503 N505 1.384 . S
N504 C500 1.427 . S
N504 C501 1.384 . S
N505 C497 1.427 . S
N505 C503 1.384 . S
H506 C512 0.930 . S
H507 C516 0.930 . S
H508 C521 0.929 . S
H509 C519 0.929 . S
H510 C514 0.929 . S
H511 C520 0.929 . S
C512 H506 0.930 . S
C512 C513 1.367 . S
C512 C520 1.378 . S
C513 C512 1.367 . S
C513 C521 1.433 . S
C514 H510 0.929 . S
C514 C516 1.378 . S
C514 C518 1.350 . S
C515 C518 1.463 . S
C515 C520 1.350 . S
C515 N523 1.427 . S
C516 H507 0.930 . S
C516 C514 1.378 . S
C516 C517 1.367 . S
C517 C516 1.367 . S
C517 C519 1.433 . S
C518 C514 1.350 . S
C518 C515 1.463 . S
C518 N522 1.427 . S
C519 H509 0.929 . S
C519 C517 1.433 . S
C519 N522 1.384 . S
C520 H511 0.929 . S
C520 C512 1.378 . S
C520 C515 1.350 . S
C521 H508 0.929 . S
C521 C513 1.433 . S
C521 N523 1.384 . S
N522 C518 1.427 . S
N522 C519 1.384 . S
N523 C515 1.427 . S
N523 C521 1.384 . S
H524 C530 0.930 . S
H525 C534 0.930 . S
H526 C539 0.929 . S
H527 C537 0.929 . S
H528 C532 0.929 . S
H529 C538 0.929 . S
C530 H524 0.930 . S
C530 C531 1.367 . S
C530 C538 1.378 . S
C531 C530 1.367 . S
C531 C539 1.433 . S
C532 H528 0.929 . S
C532 C534 1.378 . S
C532 C536 1.350 . S
C533 C536 1.463 . S
C533 C538 1.350 . S
C533 N541 1.427 . S
C534 H525 0.930 . S
C534 C532 1.378 . S
C534 C535 1.367 . S
C535 C534 1.367 . S
C535 C537 1.433 . S
C536 C532 1.350 . S
C536 C533 1.463 . S
C536 N540 1.427 . S
C537 H527 0.929 . S
C537 C535 1.433 . S
C537 N540 1.384 . S
C538 H529 0.929 . S
C538 C530 1.378 . S
C538 C533 1.350 . S
C539 H526 0.929 . S
C539 C531 1.433 . S
C539 N541 1.384 . S
N540 C536 1.427 . S
N540 C537 1.384 . S
N541 C533 1.427 . S
N541 C539 1.384 . S
H542 C548 0.930 . S
H543 C552 0.930 . S
H544 C557 0.929 . S
H545 C555 0.929 . S
H546 C550 0.929 . S
H547 C556 0.929 . S
C548 H542 0.930 . S
C548 C549 1.367 . S
C548 C556 1.378 . S
C549 C548 1.367 . S
C549 C557 1.433 . S
C550 H546 0.929 . S
C550 C552 1.378 . S
C550 C554 1.350 . S
C551 C554 1.463 . S
C551 C556 1.350 . S
C551 N559 1.427 . S
C552 H543 0.930 . S
C552 C550 1.378 . S
C552 C553 1.367 . S
C553 C552 1.367 . S
C553 C555 1.433 . S
C554 C550 1.350 . S
C554 C551 1.463 . S
C554 N558 1.427 . S
C555 H545 0.929 . S
C555 C553 1.433 . S
C555 N558 1.384 . S
C556 H547 0.929 . S
C556 C548 1.378 . S
C556 C551 1.350 . S
C557 H544 0.929 . S
C557 C549 1.433 . S
C557 N559 1.384 . S
N558 C554 1.427 . S
N558 C555 1.384 . S
N559 C551 1.427 . S
N559 C557 1.384 . S
H560 C566 0.930 1_545 S
H561 C570 0.930 . S
H562 C575 0.929 . S
H563 C573 0.929 . S
H564 C568 0.929 . S
H565 C574 0.929 1_545 S
C566 H560 0.930 1_565 S
C566 C567 1.367 . S
C566 C574 1.378 . S
C567 C566 1.367 . S
C567 C575 1.433 . S
C568 H564 0.929 . S
C568 C570 1.378 . S
C568 C572 1.350 . S
C569 C572 1.463 1_554 S
C569 C574 1.350 . S
C569 N577 1.427 . S
C570 H561 0.930 . S
C570 C568 1.378 . S
C570 C571 1.367 . S
C571 C570 1.367 . S
C571 C573 1.433 1_565 S
C572 C568 1.350 . S
C572 C569 1.463 1_556 S
C572 N576 1.427 1_565 S
C573 H563 0.929 . S
C573 C571 1.433 1_545 S
C573 N576 1.384 . S
C574 H565 0.929 1_565 S
C574 C566 1.378 . S
C574 C569 1.350 . S
C575 H562 0.929 . S
C575 C567 1.433 . S
C575 N577 1.384 . S
N576 C572 1.427 1_545 S
N576 C573 1.384 . S
N577 C569 1.427 . S
N577 C575 1.384 . S
H578 C584 0.930 . S
H579 C588 0.930 . S
H580 C593 0.929 . S
H581 C591 0.929 . S
H582 C586 0.929 . S
H583 C592 0.929 . S
C584 H578 0.930 . S
C584 C585 1.367 . S
C584 C592 1.378 . S
C585 C584 1.367 . S
C585 C593 1.433 . S
C586 H582 0.929 . S
C586 C588 1.378 . S
C586 C590 1.350 . S
C587 C590 1.463 1_554 S
C587 C592 1.350 . S
C587 N595 1.427 . S
C588 H579 0.930 . S
C588 C586 1.378 . S
C588 C589 1.367 . S
C589 C588 1.367 . S
C589 C591 1.433 . S
C590 C586 1.350 . S
C590 C587 1.463 1_556 S
C590 N594 1.427 . S
C591 H581 0.929 . S
C591 C589 1.433 . S
C591 N594 1.384 . S
C592 H583 0.929 . S
C592 C584 1.378 . S
C592 C587 1.350 . S
C593 H580 0.929 . S
C593 C585 1.433 . S
C593 N595 1.384 . S
N594 C590 1.427 . S
N594 C591 1.384 . S
N595 C587 1.427 . S
N595 C593 1.384 . S
H596 C602 0.930 . S
H597 C606 0.930 . S
H598 C611 0.929 . S
H599 C609 0.929 . S
H600 C604 0.929 . S
H601 C610 0.929 . S
C602 H596 0.930 . S
C602 C603 1.367 . S
C602 C610 1.378 . S
C603 C602 1.367 . S
C603 C611 1.433 . S
C604 H600 0.929 . S
C604 C606 1.378 . S
C604 C608 1.350 . S
C605 C608 1.463 1_554 S
C605 C610 1.350 . S
C605 N613 1.427 . S
C606 H597 0.930 . S
C606 C604 1.378 . S
C606 C607 1.367 . S
C607 C606 1.367 . S
C607 C609 1.433 . S
C608 C604 1.350 . S
C608 C605 1.463 1_556 S
C608 N612 1.427 . S
C609 H599 0.929 . S
C609 C607 1.433 . S
C609 N612 1.384 . S
C610 H601 0.929 . S
C610 C602 1.378 . S
C610 C605 1.350 . S
C611 H598 0.929 . S
C611 C603 1.433 . S
C611 N613 1.384 . S
N612 C608 1.427 . S
N612 C609 1.384 . S
N613 C605 1.427 . S
N613 C611 1.384 . S
H614 C620 0.930 . S
H615 C624 0.940 . S
H616 C629 0.929 . S
H617 C627 0.929 . S
H618 C622 0.929 . S
H619 C628 0.929 . S
C620 H614 0.930 . S
C620 C621 1.367 . S
C620 C628 1.378 . S
C621 C620 1.367 . S
C621 C629 1.433 . S
C622 H618 0.929 . S
C622 C624 1.378 . S
C622 C626 1.350 . S
C623 C626 1.463 1_554 S
C623 C628 1.350 . S
C623 N631 1.427 1_554 S
C624 H615 0.940 . S
C624 C622 1.378 . S
C624 C625 1.367 . S
C625 C624 1.367 . S
C625 C627 1.433 . S
C626 C622 1.350 . S
C626 C623 1.463 1_556 S
C626 N630 1.427 . S
C627 H617 0.929 . S
C627 C625 1.433 . S
C627 N630 1.384 . S
C628 H619 0.929 . S
C628 C620 1.378 . S
C628 C623 1.350 . S
C629 H616 0.929 . S
C629 C621 1.433 . S
C629 N631 1.384 1_554 S
N630 C626 1.427 . S
N630 C627 1.384 . S
N631 C623 1.427 1_556 S
N631 C629 1.384 1_556 S
H632 C638 0.930 . S
H633 C642 0.930 . S
H634 C647 0.929 . S
H635 C645 0.929 . S
H636 C640 0.929 . S
H637 C646 0.929 . S
C638 H632 0.930 . S
C638 C639 1.367 . S
C638 C646 1.378 . S
C639 C638 1.367 . S
C639 C647 1.433 . S
C640 H636 0.929 . S
C640 C642 1.378 . S
C640 C644 1.350 . S
C641 C644 1.463 . S
C641 C646 1.350 . S
C641 N649 1.427 . S
C642 H633 0.930 . S
C642 C640 1.378 . S
C642 C643 1.367 . S
C643 C642 1.367 . S
C643 C645 1.433 1_455 S
C644 C640 1.350 . S
C644 C641 1.463 . S
C644 N648 1.427 . S
C645 H635 0.929 . S
C645 C643 1.433 1_655 S
C645 N648 1.384 1_655 S
C646 H637 0.929 . S
C646 C638 1.378 . S
C646 C641 1.350 . S
C647 H634 0.929 . S
C647 C639 1.433 . S
C647 N649 1.384 . S
N648 C644 1.427 . S
N648 C645 1.384 1_455 S
N649 C641 1.427 . S
N649 C647 1.384 . S
H650 C656 0.930 . S
H651 C660 0.930 1_565 S
H652 C665 0.929 1_556 S
H653 C663 0.929 . S
H654 C658 0.929 . S
H655 C664 0.929 . S
C656 H650 0.930 . S
C656 C657 1.367 . S
C656 C664 1.378 . S
C657 C656 1.367 . S
C657 C665 1.433 . S
C658 H654 0.929 . S
C658 C660 1.378 . S
C658 C662 1.350 . S
C659 C662 1.463 . S
C659 C664 1.350 . S
C659 N667 1.427 . S
C660 H651 0.930 1_545 S
C660 C658 1.378 . S
C660 C661 1.367 . S
C661 C660 1.367 . S
C661 C663 1.433 . S
C662 C658 1.350 . S
C662 C659 1.463 . S
C662 N666 1.427 . S
C663 H653 0.929 . S
C663 C661 1.433 . S
C663 N666 1.384 . S
C664 H655 0.929 . S
C664 C656 1.378 . S
C664 C659 1.350 . S
C665 H652 0.929 1_554 S
C665 C657 1.433 . S
C665 N667 1.384 . S
N666 C662 1.427 . S
N666 C663 1.384 . S
N667 C659 1.427 . S
N667 C665 1.384 . S
H668 C674 0.930 1_556 S
H669 C678 0.930 . S
H670 C683 0.929 . S
H671 C681 0.929 . S
H672 C676 0.929 . S
H673 C682 0.929 . S
C674 H668 0.930 1_554 S
C674 C675 1.367 . S
C674 C682 1.378 . S
C675 C674 1.367 . S
C675 C683 1.433 . S
C676 H672 0.929 . S
C676 C678 1.378 . S
C676 C680 1.350 . S
C677 C680 1.463 . S
C677 C682 1.350 . S
C677 N685 1.427 . S
C678 H669 0.930 . S
C678 C676 1.378 . S
C678 C679 1.367 . S
C679 C678 1.367 . S
C679 C681 1.433 . S
C680 C676 1.350 . S
C680 C677 1.463 . S
C680 N684 1.427 . S
C681 H671 0.929 . S
C681 C679 1.433 . S
C681 N684 1.384 . S
C682 H673 0.929 . S
C682 C674 1.378 . S
C682 C677 1.350 . S
C683 H670 0.929 . S
C683 C675 1.433 . S
C683 N685 1.384 . S
N684 C680 1.427 . S
N684 C681 1.384 . S
N685 C677 1.427 . S
N685 C683 1.384 . S
H686 C692 0.930 1_556 S
H687 C696 0.930 . S
H688 C701 0.929 . S
H689 C699 0.929 . S
H690 C694 0.929 . S
H691 C700 0.929 . S
C692 H686 0.930 1_554 S
C692 C693 1.367 . S
C692 C700 1.378 . S
C693 C692 1.367 . S
C693 C701 1.433 . S
C694 H690 0.929 . S
C694 C696 1.378 . S
C694 C698 1.350 . S
C695 C698 1.463 . S
C695 C700 1.350 . S
C695 N703 1.427 . S
C696 H687 0.930 . S
C696 C694 1.378 . S
C696 C697 1.367 . S
C697 C696 1.367 . S
C697 C699 1.433 . S
C698 C694 1.350 . S
C698 C695 1.463 . S
C698 N702 1.427 . S
C699 H689 0.929 . S
C699 C697 1.433 . S
C699 N702 1.384 . S
C700 H691 0.929 . S
C700 C692 1.378 . S
C700 C695 1.350 . S
C701 H688 0.929 . S
C701 C693 1.433 . S
C701 N703 1.384 . S
N702 C698 1.427 . S
N702 C699 1.384 . S
N703 C695 1.427 . S
N703 C701 1.384 . S
H704 C710 0.930 . S
H705 C714 0.930 . S
H706 C719 0.929 . S
H707 C717 0.929 . S
H708 C712 0.933 . S
H709 C718 0.929 . S
C710 H704 0.930 . S
C710 C711 1.367 . S
C710 C718 1.378 . S
C711 C710 1.367 . S
C711 C719 1.433 . S
C712 H708 0.933 . S
C712 C714 1.378 1_655 S
C712 C716 1.350 . S
C713 C716 1.463 . S
C713 C718 1.350 . S
C713 N721 1.427 . S
C714 H705 0.930 . S
C714 C712 1.378 1_455 S
C714 C715 1.367 1_554 S
C715 C714 1.367 1_556 S
C715 C717 1.433 1_455 S
C716 C712 1.350 . S
C716 C713 1.463 . S
C716 N720 1.427 1_554 S
C717 H707 0.929 . S
C717 C715 1.433 1_655 S
C717 N720 1.384 . S
C718 H709 0.929 . S
C718 C710 1.378 . S
C718 C713 1.350 . S
C719 H706 0.929 . S
C719 C711 1.433 . S
C719 N721 1.384 . S
N720 C716 1.427 1_556 S
N720 C717 1.384 . S
N721 C713 1.427 . S
N721 C719 1.384 . S
H722 C728 0.930 . S
H723 C732 0.930 . S
H724 C737 0.929 . S
H725 C735 0.929 . S
H726 C730 0.929 1_556 S
H727 C736 0.929 . S
C728 H722 0.930 . S
C728 C729 1.367 . S
C728 C736 1.378 . S
C729 C728 1.367 . S
C729 C737 1.433 . S
C730 H726 0.929 1_554 S
C730 C732 1.378 1_554 S
C730 C734 1.350 1_545 S
C731 C734 1.463 . S
C731 C736 1.350 . S
C731 N739 1.427 . S
C732 H723 0.930 . S
C732 C730 1.378 1_556 S
C732 C733 1.367 . S
C733 C732 1.367 . S
C733 C735 1.433 1_546 S
C734 C730 1.350 1_565 S
C734 C731 1.463 . S
C734 N738 1.427 . S
C735 H725 0.929 . S
C735 C733 1.433 1_564 S
C735 N738 1.384 . S
C736 H727 0.929 . S
C736 C728 1.378 . S
C736 C731 1.350 . S
C737 H724 0.929 . S
C737 C729 1.433 . S
C737 N739 1.384 . S
N738 C734 1.427 . S
N738 C735 1.384 . S
N739 C731 1.427 . S
N739 C737 1.384 . S
H740 C746 0.930 . S
H741 C750 0.930 . S
H742 C755 0.929 . S
H743 C753 0.929 . S
H744 C748 0.934 . S
H745 C754 0.929 . S
C746 H740 0.930 . S
C746 C747 1.367 . S
C746 C754 1.378 . S
C747 C746 1.367 . S
C747 C755 1.433 . S
C748 H744 0.934 . S
C748 C750 1.382 . S
C748 C752 1.340 1_556 S
C749 C752 1.463 . S
C749 C754 1.350 . S
C749 N757 1.427 . S
C750 H741 0.930 . S
C750 C748 1.382 . S
C750 C751 1.367 1_556 S
C751 C750 1.367 1_554 S
C751 C753 1.433 . S
C752 C748 1.340 1_554 S
C752 C749 1.463 . S
C752 N756 1.427 . S
C753 H743 0.929 . S
C753 C751 1.433 . S
C753 N756 1.384 . S
C754 H745 0.929 . S
C754 C746 1.378 . S
C754 C749 1.350 . S
C755 H742 0.929 . S
C755 C747 1.433 . S
C755 N757 1.384 . S
N756 C752 1.427 . S
N756 C753 1.384 . S
N757 C749 1.427 . S
N757 C755 1.384 . S
H758 C764 0.930 . S
H759 C768 0.930 . S
H760 C773 0.929 . S
H761 C771 0.929 . S
H762 C766 0.929 . S
H763 C772 0.929 . S
C764 H758 0.930 . S
C764 C765 1.367 . S
C764 C772 1.378 . S
C765 C764 1.367 . S
C765 C773 1.433 . S
C766 H762 0.929 . S
C766 C768 1.378 . S
C766 C770 1.350 1_556 S
C767 C770 1.463 . S
C767 C772 1.350 . S
C767 N775 1.427 . S
C768 H759 0.930 . S
C768 C766 1.378 . S
C768 C769 1.367 1_556 S
C769 C768 1.367 1_554 S
C769 C771 1.433 . S
C770 C766 1.350 1_554 S
C770 C767 1.463 . S
C770 N774 1.427 . S
C771 H761 0.929 . S
C771 C769 1.433 . S
C771 N774 1.384 . S
C772 H763 0.929 . S
C772 C764 1.378 . S
C772 C767 1.350 . S
C773 H760 0.929 . S
C773 C765 1.433 . S
C773 N775 1.384 . S
N774 C770 1.427 . S
N774 C771 1.384 . S
N775 C767 1.427 . S
N775 C773 1.384 . S
H776 C782 0.930 . S
H777 C786 0.930 . S
H778 C791 0.929 . S
H779 C789 0.942 . S
H780 C784 0.929 . S
H781 C790 0.929 . S
C782 H776 0.930 . S
C782 C783 1.367 . S
C782 C790 1.378 . S
C783 C782 1.367 . S
C783 C791 1.433 . S
C784 H780 0.929 . S
C784 C786 1.378 . S
C784 C788 1.350 . S
C785 C788 1.463 . S
C785 C790 1.350 . S
C785 N793 1.427 . S
C786 H777 0.930 . S
C786 C784 1.378 . S
C786 C787 1.367 . S
C787 C786 1.367 . S
C787 C789 1.433 . S
C788 C784 1.350 . S
C788 C785 1.463 . S
C788 N792 1.427 . S
C789 H779 0.942 . S
C789 C787 1.433 . S
C789 N792 1.384 . S
C790 H781 0.929 . S
C790 C782 1.378 . S
C790 C785 1.350 . S
C791 H778 0.929 . S
C791 C783 1.433 . S
C791 N793 1.384 . S
N792 C788 1.427 . S
N792 C789 1.384 . S
N793 C785 1.427 . S
N793 C791 1.384 . S
H794 C800 0.930 . S
H795 C804 0.930 . S
H796 C809 0.929 . S
H797 C807 0.929 . S
H798 C802 0.929 . S
H799 C808 0.929 . S
C800 H794 0.930 . S
C800 C801 1.367 . S
C800 C808 1.378 . S
C801 C800 1.367 . S
C801 C809 1.433 . S
C802 H798 0.929 . S
C802 C804 1.378 . S
C802 C806 1.350 . S
C803 C806 1.463 . S
C803 C808 1.350 . S
C803 N811 1.427 . S
C804 H795 0.930 . S
C804 C802 1.378 . S
C804 C805 1.367 . S
C805 C804 1.367 . S
C805 C807 1.433 . S
C806 C802 1.350 . S
C806 C803 1.463 . S
C806 N810 1.427 . S
C807 H797 0.929 . S
C807 C805 1.433 . S
C807 N810 1.384 . S
C808 H799 0.929 . S
C808 C800 1.378 . S
C808 C803 1.350 . S
C809 H796 0.929 . S
C809 C801 1.433 . S
C809 N811 1.384 . S
N810 C806 1.427 . S
N810 C807 1.384 . S
N811 C803 1.427 . S
N811 C809 1.384 . S
H812 C818 0.930 . S
H813 C822 0.930 . S
H814 C827 0.929 . S
H815 C825 0.929 . S
H816 C820 0.929 . S
H817 C826 0.929 . S
C818 H812 0.930 . S
C818 C819 1.367 . S
C818 C826 1.378 . S
C819 C818 1.367 . S
C819 C827 1.433 . S
C820 H816 0.929 . S
C820 C822 1.378 . S
C820 C824 1.350 . S
C821 C824 1.463 . S
C821 C826 1.350 . S
C821 N829 1.427 . S
C822 H813 0.930 . S
C822 C820 1.378 . S
C822 C823 1.367 . S
C823 C822 1.367 . S
C823 C825 1.433 . S
C824 C820 1.350 . S
C824 C821 1.463 . S
C824 N828 1.427 . S
C825 H815 0.929 . S
C825 C823 1.433 . S
C825 N828 1.384 . S
C826 H817 0.929 . S
C826 C818 1.378 . S
C826 C821 1.350 . S
C827 H814 0.929 . S
C827 C819 1.433 . S
C827 N829 1.384 . S
N828 C824 1.427 . S
N828 C825 1.384 . S
N829 C821 1.427 . S
N829 C827 1.384 . S
H830 C836 0.930 . S
H831 C840 0.930 . S
H832 C845 0.929 . S
H833 C843 0.929 . S
H834 C838 0.929 . S
H835 C844 0.929 . S
C836 H830 0.930 . S
C836 C837 1.367 . S
C836 C844 1.378 . S
C837 C836 1.367 . S
C837 C845 1.433 . S
C838 H834 0.929 . S
C838 C840 1.378 . S
C838 C842 1.350 . S
C839 C842 1.463 . S
C839 C844 1.350 . S
C839 N847 1.427 . S
C840 H831 0.930 . S
C840 C838 1.378 . S
C840 C841 1.367 . S
C841 C840 1.367 . S
C841 C843 1.433 . S
C842 C838 1.350 . S
C842 C839 1.463 . S
C842 N846 1.427 . S
C843 H833 0.929 . S
C843 C841 1.433 . S
C843 N846 1.384 . S
C844 H835 0.929 . S
C844 C836 1.378 . S
C844 C839 1.350 . S
C845 H832 0.929 . S
C845 C837 1.433 . S
C845 N847 1.384 . S
N846 C842 1.427 . S
N846 C843 1.384 . S
N847 C839 1.427 . S
N847 C845 1.384 . S
H848 C854 0.930 . S
H849 C858 0.930 . S
H850 C863 0.929 . S
H851 C861 0.929 . S
H852 C856 0.929 . S
H853 C862 0.929 . S
C854 H848 0.930 . S
C854 C855 1.367 . S
C854 C862 1.378 . S
C855 C854 1.367 . S
C855 C863 1.433 . S
C856 H852 0.929 . S
C856 C858 1.378 . S
C856 C860 1.350 . S
C857 C860 1.463 . S
C857 C862 1.350 . S
C857 N865 1.427 . S
C858 H849 0.930 . S
C858 C856 1.378 . S
C858 C859 1.367 . S
C859 C858 1.367 . S
C859 C861 1.433 . S
C860 C856 1.350 . S
C860 C857 1.463 . S
C860 N864 1.427 . S
C861 H851 0.929 . S
C861 C859 1.433 . S
C861 N864 1.384 . S
C862 H853 0.929 . S
C862 C854 1.378 . S
C862 C857 1.350 . S
C863 H850 0.929 . S
C863 C855 1.433 . S
C863 N865 1.384 . S
N864 C860 1.427 . S
N864 C861 1.384 . S
N865 C857 1.427 . S
N865 C863 1.384 . S
H866 C872 0.930 . S
H867 C876 0.930 . S
H868 C881 0.929 . S
H869 C879 0.929 . S
H870 C874 0.929 . S
H871 C880 0.929 . S
C872 H866 0.930 . S
C872 C873 1.367 . S
C872 C880 1.378 . S
C873 C872 1.367 . S
C873 C881 1.433 . S
C874 H870 0.929 . S
C874 C876 1.378 . S
C874 C878 1.350 . S
C875 C878 1.463 . S
C875 C880 1.350 . S
C875 N883 1.427 . S
C876 H867 0.930 . S
C876 C874 1.378 . S
C876 C877 1.367 . S
C877 C876 1.367 . S
C877 C879 1.433 . S
C878 C874 1.350 . S
C878 C875 1.463 . S
C878 N882 1.427 . S
C879 H869 0.929 . S
C879 C877 1.433 . S
C879 N882 1.384 . S
C880 H871 0.929 . S
C880 C872 1.378 . S
C880 C875 1.350 . S
C881 H868 0.929 . S
C881 C873 1.433 . S
C881 N883 1.384 . S
N882 C878 1.427 . S
N882 C879 1.384 . S
N883 C875 1.427 . S
N883 C881 1.384 . S
H884 C890 0.930 . S
H885 C894 0.930 . S
H886 C899 0.929 . S
H887 C897 0.929 . S
H888 C892 0.929 . S
H889 C898 0.929 . S
C890 H884 0.930 . S
C890 C891 1.367 . S
C890 C898 1.378 . S
C891 C890 1.367 . S
C891 C899 1.433 . S
C892 H888 0.929 . S
C892 C894 1.378 . S
C892 C896 1.350 . S
C893 C896 1.463 . S
C893 C898 1.350 . S
C893 N901 1.427 . S
C894 H885 0.930 . S
C894 C892 1.378 . S
C894 C895 1.367 . S
C895 C894 1.367 . S
C895 C897 1.433 . S
C896 C892 1.350 . S
C896 C893 1.463 . S
C896 N900 1.427 . S
C897 H887 0.929 . S
C897 C895 1.433 . S
C897 N900 1.384 . S
C898 H889 0.929 . S
C898 C890 1.378 . S
C898 C893 1.350 . S
C899 H886 0.929 . S
C899 C891 1.433 . S
C899 N901 1.384 . S
N900 C896 1.427 . S
N900 C897 1.384 . S
N901 C893 1.427 . S
N901 C899 1.384 . S
H902 C908 0.930 . S
H903 C912 0.930 . S
H904 C917 0.929 . S
H905 C915 0.929 . S
H906 C910 0.929 . S
H907 C916 0.929 . S
C908 H902 0.930 . S
C908 C909 1.367 . S
C908 C916 1.378 . S
C909 C908 1.367 . S
C909 C917 1.433 . S
C910 H906 0.929 . S
C910 C912 1.378 . S
C910 C914 1.350 . S
C911 C914 1.463 . S
C911 C916 1.350 . S
C911 N919 1.427 . S
C912 H903 0.930 . S
C912 C910 1.378 . S
C912 C913 1.367 . S
C913 C912 1.367 . S
C913 C915 1.433 . S
C914 C910 1.350 . S
C914 C911 1.463 . S
C914 N918 1.427 . S
C915 H905 0.929 . S
C915 C913 1.433 . S
C915 N918 1.384 . S
C916 H907 0.929 . S
C916 C908 1.378 . S
C916 C911 1.350 . S
C917 H904 0.929 . S
C917 C909 1.433 . S
C917 N919 1.384 . S
N918 C914 1.427 . S
N918 C915 1.384 . S
N919 C911 1.427 . S
N919 C917 1.384 . S
C495 C125 1.897 . S
C499 C227 1.943 . S
C517 C311 1.966 . S
C513 C144 1.906 . S
C535 C387 1.932 . S
C531 C87 1.994 . S
C553 C471 1.915 . S
C549 C106 1.996 . S
C571 C218 1.945 1_565 S
C567 C49 2.001 . S
C585 C68 2.016 . S
C589 C302 1.961 . S
C603 C11 2.111 . S
C607 C376 1.942 . S
C621 C30 2.093 . S
C625 C460 1.928 . S
C643 C215 0.711 1_455 S
C639 C97 0.683 . S
C661 C299 0.692 . S
C657 C116 0.690 . S
C679 C392 0.663 . S
C675 C135 0.636 . S
C693 C78 0.663 . S
C697 C476 0.691 . S
C711 C21 0.717 . S
C715 C224 0.689 . S
C733 C308 0.657 . S
C729 C40 0.666 . S
C751 C383 0.664 . S
C747 C59 0.635 . S
C765 C2 0.663 . S
C769 C467 0.691 . S
C783 C101 2.031 . S
C787 C208 2.077 . S
C801 C120 1.993 . S
C805 C292 2.031 . S
C823 C386 2.089 . S
C819 C139 1.906 . S
C841 C470 2.120 . S
C837 C82 1.941 . S
C855 C25 2.040 . S
C859 C219 2.076 . S
C877 C303 2.044 1_565 S
C873 C44 2.011 . S
C895 C395 2.089 . S
C891 C63 1.927 . S
C909 C6 1.954 . S
C913 C479 2.113 . S
