# Generated by pormake.
# Topology dag, (6,3)-cn, num edge types: 1
# Building blocks:
#     Node 0, Type 0, BuildingBlock: IZENUY_clean_sbu_0, # of connection points: 6
#     Node 1, Type 0, BuildingBlock: IZENUY_clean_sbu_0, # of connection points: 6
#     Node 2, Type 0, BuildingBlock: IZENUY_clean_sbu_0, # of connection points: 6
#     Node 3, Type 0, BuildingBlock: IZENUY_clean_sbu_0, # of connection points: 6
#     Node 4, Type 1, BuildingBlock: BELTOD_clean_linker_0, # of connection points: 3
#     Node 5, Type 1, BuildingBlock: BELTOD_clean_linker_0, # of connection points: 3
#     Node 6, Type 1, BuildingBlock: BELTOD_clean_linker_0, # of connection points: 3
#     Node 7, Type 1, BuildingBlock: BELTOD_clean_linker_0, # of connection points: 3
#     Node 8, Type 1, BuildingBlock: BELTOD_clean_linker_0, # of connection points: 3
#     Node 9, Type 1, BuildingBlock: BELTOD_clean_linker_0, # of connection points: 3
#     Node 10, Type 1, BuildingBlock: BELTOD_clean_linker_0, # of connection points: 3
#     Node 11, Type 1, BuildingBlock: BELTOD_clean_linker_0, # of connection points: 3
#     Edge 12, Type (0, 1), None
#     Edge 13, Type (0, 1), None
#     Edge 14, Type (0, 1), None
#     Edge 15, Type (0, 1), None
#     Edge 16, Type (0, 1), None
#     Edge 17, Type (0, 1), None
#     Edge 18, Type (0, 1), None
#     Edge 19, Type (0, 1), None
#     Edge 20, Type (0, 1), None
#     Edge 21, Type (0, 1), None
#     Edge 22, Type (0, 1), None
#     Edge 23, Type (0, 1), None
#     Edge 24, Type (0, 1), None
#     Edge 25, Type (0, 1), None
#     Edge 26, Type (0, 1), None
#     Edge 27, Type (0, 1), None
#     Edge 28, Type (0, 1), None
#     Edge 29, Type (0, 1), None
#     Edge 30, Type (0, 1), None
#     Edge 31, Type (0, 1), None
#     Edge 32, Type (0, 1), None
#     Edge 33, Type (0, 1), None
#     Edge 34, Type (0, 1), None
#     Edge 35, Type (0, 1), None
# Relax obj value: 0.236
# Max RMSD: 0.190
# Mean RMSD: 0.158
data_MOF--net-dag--node1-IZENUY_clean_sbu_0--node2-BELTOD_clean_linker_0--edge1-none
_symmetry_space_group_name_H-M    P1
_symmetry_Int_Tables_number       1
_symmetry_cell_setting            triclinic
loop_
_symmetry_equiv_pos_as_xyz
'x, y, z'
_cell_length_a     22.162723
_cell_length_b     23.705851
_cell_length_c     19.887091
_cell_angle_alpha  94.930107
_cell_angle_beta   89.899142
_cell_angle_gamma 90.473779
loop_
_atom_site_label
_atom_site_type_symbol
_atom_site_fract_x
_atom_site_fract_y
_atom_site_fract_z
_atom_type_partial_charge
Fe0 Fe 0.21716 0.8722 0.09176 0.0
Fe1 Fe 0.09642 0.89409 0.02302 0.0
O2 O 0.14909 0.8468 0.05285 0.0
Fe3 Fe 0.1322 0.77362 0.0439 0.0
O4 O 0.1728 0.757 0.1183 0.0
O5 O 0.2004 0.83883 0.16863 0.0
O6 O 0.18297 0.93697 0.13283 0.0
C7 C 0.12804 0.94872 0.14523 0.0
C8 C 0.25111 0.77416 0.00799 0.0
O9 O 0.08616 0.92828 0.10734 0.0
C10 C 0.09173 0.81044 0.92135 0.0
O11 O 0.24019 0.90829 0.01867 0.0
O12 O 0.15217 0.94653 0.00245 0.0
O13 O 0.19783 0.75996 0.99114 0.0
O14 O 0.26181 0.81112 0.0568 0.0
C15 C 0.02315 0.81635 0.08334 0.0
O16 O 0.1044 0.86189 0.93715 0.0
O17 O 0.08876 0.77628 0.96665 0.0
C18 C 0.20812 0.94353 0.99133 0.0
O19 O 0.02995 0.85062 0.03864 0.0
O20 O 0.06573 0.78443 0.0974 0.0
C21 C 0.18736 0.78724 0.17085 0.0
Fe22 Fe 0.7116 0.62139 0.4641 0.0
Fe23 Fe 0.61877 0.71018 0.52121 0.0
O24 O 0.64374 0.63917 0.50846 0.0
Fe25 Fe 0.59877 0.5853 0.53956 0.0
O26 O 0.66061 0.53794 0.55255 0.0
O27 O 0.74286 0.58604 0.5343 0.0
O28 O 0.75194 0.68556 0.4975 0.0
C29 C 0.73954 0.72379 0.54387 0.0
C30 C 0.62707 0.53943 0.41306 0.0
O31 O 0.68657 0.73156 0.56623 0.0
C32 C 0.51354 0.65502 0.48912 0.0
O33 O 0.68711 0.65484 0.38995 0.0
O34 O 0.65052 0.73217 0.44297 0.0
O35 O 0.58618 0.55358 0.45505 0.0
O36 O 0.68154 0.55453 0.42307 0.0
C37 C 0.59271 0.66469 0.64555 0.0
O38 O 0.55001 0.69296 0.47452 0.0
O39 O 0.52719 0.62148 0.53225 0.0
C40 C 0.66939 0.70525 0.38964 0.0
O41 O 0.58275 0.70094 0.6035 0.0
O42 O 0.60974 0.61546 0.62537 0.0
C43 C 0.71595 0.5473 0.56243 0.0
Fe44 Fe 0.87019 0.22384 0.02171 0.0
Fe45 Fe 0.8951 0.0985 0.03558 0.0
O46 O 0.84681 0.15178 0.01093 0.0
Fe47 Fe 0.77532 0.13176 0.97631 0.0
O48 O 0.79287 0.16324 0.89895 0.0
O49 O 0.83283 0.24327 0.94425 0.0
O50 O 0.93861 0.21059 0.97124 0.0
C51 C 0.97856 0.17635 0.9866 0.0
C52 C 0.75029 0.23205 0.05773 0.0
O53 O 0.96538 0.13659 0.02229 0.0
C54 C 0.78192 0.05939 0.07483 0.0
O55 O 0.9111 0.21584 0.10159 0.0
O56 O 0.89143 0.12761 0.12238 0.0
O57 O 0.73655 0.19513 0.01074 0.0
O58 O 0.80454 0.24342 0.07296 0.0
C59 C 0.85414 0.04864 0.91667 0.0
O60 O 0.83513 0.04932 0.0553 0.0
O61 O 0.75248 0.09892 0.05238 0.0
C62 C 0.9069 0.17758 0.14252 0.0
O63 O 0.90015 0.06713 0.94928 0.0
O64 O 0.80171 0.06452 0.93481 0.0
C65 C 0.81034 0.21356 0.89407 0.0
Fe66 Fe 0.3974 0.40227 0.53147 0.0
Fe67 Fe 0.28152 0.36716 0.59963 0.0
O68 O 0.35052 0.34835 0.55905 0.0
Fe69 Fe 0.37371 0.27688 0.54557 0.0
O70 O 0.44371 0.29133 0.59259 0.0
O71 O 0.46837 0.3638 0.53714 0.0
O72 O 0.40928 0.43062 0.61728 0.0
C73 C 0.36751 0.44591 0.65792 0.0
C74 C 0.40222 0.32531 0.42292 0.0
O75 O 0.31267 0.43313 0.64409 0.0
C76 C 0.25276 0.26725 0.51549 0.0
O77 O 0.33681 0.45269 0.51996 0.0
O78 O 0.25469 0.40226 0.52788 0.0
O79 O 0.4104 0.28716 0.46338 0.0
O80 O 0.38679 0.37473 0.44479 0.0
C81 C 0.31918 0.28333 0.67605 0.0
O82 O 0.24002 0.30425 0.5632 0.0
O83 O 0.30651 0.25697 0.49807 0.0
C84 C 0.28203 0.44335 0.50592 0.0
O85 O 0.30226 0.33354 0.67348 0.0
O86 O 0.33987 0.25481 0.62427 0.0
C87 C 0.48301 0.32562 0.57434 0.0
P88 P 0.05505 0.12419 0.3712 0.0
H89 H 0.00211 0.01663 0.31973 0.0
H90 H 0.02916 0.94753 0.22613 0.0
H91 H 0.19165 0.04286 0.19252 0.0
H92 H 0.16271 0.11353 0.28363 0.0
H93 H 0.05845 0.24187 0.4294 0.0
H94 H 0.13725 0.29915 0.49011 0.0
H95 H 0.25877 0.1574 0.46477 0.0
H96 H 0.17941 0.09991 0.40738 0.0
H97 H 0.92463 0.1216 0.35556 0.0
H98 H 0.07675 0.20656 0.2725 0.0
O99 O 0.01613 0.09526 0.43159 0.0
H100 H 0.86356 0.14229 0.25917 0.0
H101 H 0.01536 0.22721 0.17538 0.0
C102 C 0.08182 0.06884 0.31094 0.0
C103 C 0.0442 0.02207 0.29319 0.0
C104 C 0.05931 0.98299 0.23927 0.0
C105 C 0.11276 0.98969 0.20267 0.0
C106 C 0.15071 0.03626 0.22075 0.0
C107 C 0.13458 0.07627 0.27342 0.0
C108 C 0.11403 0.16747 0.41126 0.0
C109 C 0.10227 0.22339 0.43648 0.0
C110 C 0.14701 0.25587 0.47159 0.0
C111 C 0.20423 0.23285 0.48133 0.0
C112 C 0.21538 0.17651 0.45695 0.0
C113 C 0.17023 0.14377 0.42353 0.0
C114 C 0.00516 0.16276 0.32132 0.0
C115 C 0.94405 0.14728 0.31844 0.0
C116 C 0.90921 0.1587 0.263 0.0
C117 C 0.93508 0.1855 0.20961 0.0
C118 C 0.99422 0.20695 0.21628 0.0
C119 C 0.0293 0.19521 0.27179 0.0
P120 P 0.44691 0.62096 0.88188 0.0
H121 H 0.57671 0.61007 0.86086 0.0
H122 H 0.63549 0.62346 0.75951 0.0
H123 H 0.49097 0.72181 0.68495 0.0
H124 H 0.43151 0.70644 0.78465 0.0
H125 H 0.43336 0.68057 0.01551 0.0
H126 H 0.35548 0.74319 0.06649 0.0
H127 H 0.25917 0.73142 0.87719 0.0
H128 H 0.33844 0.67118 0.82551 0.0
H129 H 0.50962 0.53176 0.80271 0.0
H130 H 0.32344 0.57592 0.84058 0.0
O131 O 0.48446 0.59464 0.94463 0.0
H132 H 0.4794 0.46484 0.71024 0.0
H133 H 0.29257 0.5088 0.74625 0.0
C134 C 0.49924 0.65652 0.83014 0.0
C135 C 0.55867 0.63677 0.82433 0.0
C136 C 0.5922 0.64413 0.76617 0.0
C137 C 0.56726 0.67282 0.71411 0.0
C138 C 0.51127 0.69948 0.72437 0.0
C139 C 0.47713 0.69075 0.78173 0.0
C140 C 0.39045 0.66912 0.91744 0.0
C141 C 0.39563 0.69155 0.98482 0.0
C142 C 0.35141 0.72767 0.01382 0.0
C143 C 0.30107 0.74134 0.97589 0.0
C144 C 0.29716 0.72068 0.90773 0.0
C145 C 0.34219 0.68581 0.87839 0.0
C146 C 0.41943 0.56202 0.8261 0.0
C147 C 0.4621 0.52759 0.79094 0.0
C148 C 0.44465 0.4891 0.7377 0.0
C149 C 0.38369 0.48321 0.7189 0.0
C150 C 0.34008 0.51372 0.75816 0.0
C151 C 0.35787 0.55269 0.81179 0.0
P152 P 0.79756 0.87329 0.24445 0.0
H153 H 0.80925 0.99478 0.27831 0.0
H154 H 0.80057 0.07291 0.20762 0.0
H155 H 0.71531 0.96232 0.0524 0.0
H156 H 0.7199 0.88403 0.1256 0.0
H157 H 0.80489 0.74933 0.22749 0.0
H158 H 0.75321 0.68002 0.29062 0.0
H159 H 0.62361 0.80689 0.36141 0.0
H160 H 0.67579 0.87617 0.29799 0.0
H161 H 0.91493 0.83008 0.28263 0.0
H162 H 0.82025 0.8543 0.09794 0.0
O163 O 0.82321 0.89662 0.32079 0.0
H164 H 0.00638 0.80543 0.2174 0.0
H165 H 0.91149 0.83194 0.03352 0.0
C166 C 0.76649 0.93313 0.20656 0.0
C167 C 0.78532 0.98767 0.2309 0.0
C168 C 0.78005 0.03267 0.19063 0.0
C169 C 0.75731 0.02358 0.12493 0.0
C170 C 0.7319 0.97061 0.10354 0.0
C171 C 0.7354 0.92573 0.14495 0.0
C172 C 0.74443 0.81814 0.25858 0.0
C173 C 0.76365 0.76167 0.25378 0.0
C174 C 0.73396 0.72184 0.29009 0.0
C175 C 0.6854 0.73847 0.33254 0.0
C176 C 0.66155 0.79308 0.32991 0.0
C177 C 0.69108 0.83272 0.29328 0.0
C178 C 0.86135 0.84654 0.19552 0.0
C179 C 0.91351 0.82971 0.22818 0.0
C180 C 0.9655 0.81495 0.19093 0.0
C181 C 0.96586 0.81737 0.12069 0.0
C182 C 0.91237 0.83028 0.08781 0.0
C183 C 0.86027 0.84386 0.12487 0.0
P184 P 0.75236 0.31793 0.63178 0.0
H185 H 0.82211 0.38339 0.5391 0.0
H186 H 0.80577 0.47992 0.50904 0.0
H187 H 0.69394 0.51262 0.68541 0.0
H188 H 0.71031 0.41632 0.71551 0.0
H189 H 0.74229 0.20432 0.67261 0.0
H190 H 0.76576 0.16163 0.77647 0.0
H191 H 0.82896 0.32412 0.86606 0.0
H192 H 0.80554 0.36639 0.76119 0.0
H193 H 0.68385 0.34011 0.51366 0.0
H194 H 0.64508 0.28435 0.71017 0.0
O195 O 0.79052 0.28207 0.56982 0.0
H196 H 0.57608 0.34544 0.49097 0.0
H197 H 0.53649 0.28766 0.68648 0.0
C198 C 0.76735 0.39258 0.62965 0.0
C199 C 0.79712 0.41227 0.57364 0.0
C200 C 0.78817 0.46771 0.55659 0.0
C201 C 0.74883 0.50355 0.59509 0.0
C202 C 0.72523 0.48593 0.65555 0.0
C203 C 0.73452 0.43081 0.67278 0.0
C204 C 0.77129 0.28857 0.70952 0.0
C205 C 0.76124 0.23073 0.71464 0.0
C206 C 0.77477 0.2064 0.77417 0.0
C207 C 0.79899 0.23947 0.82998 0.0
C208 C 0.81021 0.29743 0.82419 0.0
C209 C 0.79651 0.32178 0.76432 0.0
C210 C 0.67278 0.31103 0.61307 0.0
C211 C 0.65216 0.32767 0.55132 0.0
C212 C 0.59048 0.33106 0.53863 0.0
C213 C 0.5479 0.31704 0.58712 0.0
C214 C 0.56839 0.29824 0.6481 0.0
C215 C 0.6305 0.29612 0.66146 0.0
P216 P 0.54539 0.37158 0.18577 0.0
H217 H 0.50527 0.48538 0.23037 0.0
H218 H 0.53705 0.55248 0.32457 0.0
H219 H 0.68051 0.44025 0.3711 0.0
H220 H 0.64723 0.37215 0.27907 0.0
H221 H 0.55402 0.25162 0.13692 0.0
H222 H 0.63719 0.19544 0.08536 0.0
H223 H 0.75253 0.34373 0.10204 0.0
H224 H 0.6688 0.40005 0.15028 0.0
H225 H 0.41801 0.3884 0.21215 0.0
H226 H 0.55974 0.28229 0.2774 0.0
O227 O 0.50932 0.40127 0.12442 0.0
H228 H 0.3602 0.37285 0.31328 0.0
H229 H 0.50135 0.26556 0.3783 0.0
C230 C 0.57556 0.42504 0.24587 0.0
C231 C 0.54437 0.47581 0.25982 0.0
C232 C 0.56202 0.51365 0.31389 0.0
C233 C 0.61127 0.50119 0.35415 0.0
C234 C 0.64308 0.45088 0.33967 0.0
C235 C 0.6244 0.41239 0.28675 0.0
C236 C 0.60596 0.3294 0.14943 0.0
C237 C 0.59729 0.27183 0.1298 0.0
C238 C 0.6447 0.23995 0.10044 0.0
C239 C 0.70139 0.26528 0.09104 0.0
C240 C 0.70969 0.32305 0.11021 0.0
C241 C 0.66185 0.35512 0.13776 0.0
C242 C 0.49287 0.33592 0.2367 0.0
C243 C 0.43513 0.35895 0.24608 0.0
C244 C 0.40225 0.35041 0.30426 0.0
C245 C 0.42656 0.31837 0.35371 0.0
C246 C 0.48126 0.28992 0.3406 0.0
C247 C 0.51458 0.29921 0.28265 0.0
P248 P 0.24781 0.17909 0.93366 0.0
H249 H 0.3215 0.10605 0.01247 0.0
H250 H 0.30428 0.00783 0.03696 0.0
H251 H 0.17055 0.9889 0.87901 0.0
H252 H 0.18852 0.08664 0.85389 0.0
H253 H 0.25771 0.29405 0.89919 0.0
H254 H 0.28808 0.33662 0.79743 0.0
H255 H 0.32239 0.17024 0.69834 0.0
H256 H 0.29258 0.12791 0.80172 0.0
H257 H 0.1772 0.16979 0.05396 0.0
H258 H 0.144 0.21067 0.85021 0.0
O259 O 0.28796 0.21026 -0.00242 0.0
H260 H 0.06904 0.16649 0.07487 0.0
H261 H 0.03444 0.20884 0.87172 0.0
C262 C 0.25568 0.10365 0.93189 0.0
C263 C 0.29072 0.07996 0.98081 0.0
C264 C 0.2812 0.02367 0.99453 0.0
C265 C 0.23589 0.99123 0.96003 0.0
C266 C 0.20591 0.01319 0.90601 0.0
C267 C 0.21605 0.06902 0.89175 0.0
C268 C 0.27222 0.20804 0.85769 0.0
C269 C 0.27206 0.26676 0.8557 0.0
C270 C 0.28958 0.29094 0.79736 0.0
C271 C 0.30739 0.25674 0.73943 0.0
C272 C 0.30906 0.1977 0.74209 0.0
C273 C 0.29152 0.17346 0.801 0.0
C274 C 0.16882 0.19136 0.95103 0.0
C275 C 0.14663 0.17988 0.01434 0.0
C276 C 0.0847 0.17763 0.02603 0.0
C277 C 0.04336 0.18731 0.97477 0.0
C278 C 0.06539 0.20175 0.91218 0.0
C279 C 0.12792 0.20294 0.90004 0.0
P280 P 0.29346 0.60458 0.31474 0.0
H281 H 0.24943 0.48777 0.29248 0.0
H282 H 0.25076 0.41824 0.3759 0.0
H283 H 0.25202 0.55312 0.53566 0.0
H284 H 0.24833 0.62281 0.45218 0.0
H285 H 0.34554 0.70299 0.26136 0.0
H286 H 0.30214 0.78162 0.2083 0.0
H287 H 0.12353 0.71858 0.2475 0.0
H288 H 0.16746 0.64155 0.3064 0.0
H289 H 0.38717 0.53428 0.36109 0.0
H290 H 0.34003 0.71132 0.38703 0.0
O291 O 0.31513 0.5666 0.24442 0.0
H292 H 0.47245 0.55326 0.4367 0.0
H293 H 0.4305 0.73146 0.45488 0.0
C294 C 0.25022 0.5605 0.36623 0.0
C295 C 0.24545 0.50257 0.34532 0.0
C296 C 0.24642 0.46267 0.39307 0.0
C297 C 0.25225 0.48073 0.4617 0.0
C298 C 0.24717 0.53848 0.4828 0.0
C299 C 0.24463 0.57829 0.43503 0.0
C300 C 0.25962 0.6677 0.28992 0.0
C301 C 0.29701 0.70799 0.26269 0.0
C302 C 0.27229 0.75324 0.23281 0.0
C303 C 0.20974 0.75681 0.22598 0.0
C304 C 0.17194 0.71747 0.25474 0.0
C305 C 0.19689 0.67323 0.28738 0.0
C306 C 0.35921 0.62172 0.36496 0.0
C307 C 0.39635 0.57748 0.38105 0.0
C308 C 0.44485 0.58837 0.42447 0.0
C309 C 0.45859 0.64409 0.44975 0.0
C310 C 0.42116 0.68841 0.43453 0.0
C311 C 0.37029 0.67692 0.39439 0.0
P312 P 0.8874 0.824 0.75358 0.0
H313 H 0.78362 0.87693 0.82069 0.0
H314 H 0.76997 0.96648 0.88752 0.0
H315 H 0.95022 0.01852 0.83581 0.0
H316 H 0.96231 0.93062 0.76548 0.0
H317 H 0.92434 0.74143 0.64538 0.0
H318 H 0.85624 0.69422 0.56204 0.0
H319 H 0.73217 0.83359 0.59335 0.0
H320 H 0.80091 0.88118 0.67509 0.0
H321 H 0.92648 0.72746 0.82305 0.0
H322 H 0.01297 0.85924 0.72086 0.0
O323 O 0.83799 0.78331 0.79116 0.0
H324 H 0.0122 0.72353 0.89658 0.0
H325 H 0.09669 0.86162 0.80198 0.0
C326 C 0.87538 0.89503 0.79095 0.0
C327 C 0.82017 0.90761 0.82293 0.0
C328 C 0.81228 0.95907 0.86096 0.0
C329 C 0.85983 -0.00135 0.86823 0.0
C330 C 0.91353 0.98791 0.83235 0.0
C331 C 0.92071 0.93691 0.79271 0.0
C332 C 0.86706 0.81426 0.66707 0.0
C333 C 0.88449 0.76364 0.63098 0.0
C334 C 0.84511 0.73624 0.5841 0.0
C335 C 0.78817 0.75943 0.57407 0.0
C336 C 0.77531 0.81431 0.60209 0.0
C337 C 0.81513 0.84198 0.64794 0.0
C338 C 0.96083 0.79836 0.77213 0.0
C339 C 0.96447 0.75523 0.81563 0.0
C340 C 0.01387 0.75311 0.85799 0.0
C341 C 0.05862 0.79548 0.85836 0.0
C342 C 0.06088 0.83054 0.80496 0.0
C343 C 0.01262 0.83012 0.7598 0.0
loop_
_geom_bond_atom_site_label_1
_geom_bond_atom_site_label_2
_geom_bond_distance
_geom_bond_site_symmetry_2
_ccdc_geom_bond_type
Fe0 O2 1.918 . S
Fe0 O5 1.997 . S
Fe0 O6 2.002 . S
Fe0 O11 1.976 . S
Fe0 O14 1.996 . S
Fe1 O2 1.918 . S
Fe1 O9 1.997 . S
Fe1 O12 1.996 1_554 S
Fe1 O16 1.976 1_554 S
Fe1 O19 2.002 . S
O2 Fe0 1.918 . S
O2 Fe1 1.918 . S
O2 Fe3 1.918 . S
Fe3 O2 1.918 . S
Fe3 O4 2.002 . S
Fe3 O13 1.976 1_554 S
Fe3 O17 1.996 1_554 S
Fe3 O20 1.997 . S
O4 Fe3 2.002 . S
O4 C21 1.295 . S
O5 Fe0 1.997 . S
O5 C21 1.235 . S
O6 Fe0 2.002 . S
O6 C7 1.295 . S
C7 O6 1.295 . S
C7 O9 1.235 . S
C8 O13 1.287 . S
C8 O14 1.255 1_556 S
O9 Fe1 1.997 . S
O9 C7 1.235 . S
C10 O16 1.287 . S
C10 O17 1.255 . S
O11 Fe0 1.976 . S
O11 C18 1.293 . S
O12 Fe1 1.996 1_556 S
O12 C18 1.254 1_556 S
O13 Fe3 1.976 1_556 S
O13 C8 1.287 . S
O14 Fe0 1.996 . S
O14 C8 1.255 1_554 S
C15 O19 1.295 . S
C15 O20 1.235 . S
O16 Fe1 1.976 1_556 S
O16 C10 1.287 . S
O17 Fe3 1.996 1_556 S
O17 C10 1.255 . S
C18 O11 1.293 . S
C18 O12 1.254 1_554 S
O19 Fe1 2.002 . S
O19 C15 1.295 . S
O20 Fe3 1.997 . S
O20 C15 1.235 . S
C21 O4 1.295 . S
C21 O5 1.235 . S
Fe22 O24 1.918 . S
Fe22 O27 1.997 . S
Fe22 O28 2.002 . S
Fe22 O33 1.976 . S
Fe22 O36 1.996 . S
Fe23 O24 1.918 . S
Fe23 O31 1.997 . S
Fe23 O34 1.996 . S
Fe23 O38 1.976 . S
Fe23 O41 2.002 . S
O24 Fe22 1.918 . S
O24 Fe23 1.918 . S
O24 Fe25 1.918 . S
Fe25 O24 1.918 . S
Fe25 O26 2.002 . S
Fe25 O35 1.976 . S
Fe25 O39 1.996 . S
Fe25 O42 1.997 . S
O26 Fe25 2.002 . S
O26 C43 1.295 . S
O27 Fe22 1.997 . S
O27 C43 1.235 . S
O28 Fe22 2.002 . S
O28 C29 1.295 . S
C29 O28 1.295 . S
C29 O31 1.235 . S
C30 O35 1.287 . S
C30 O36 1.255 . S
O31 Fe23 1.997 . S
O31 C29 1.235 . S
C32 O38 1.287 . S
C32 O39 1.255 . S
O33 Fe22 1.976 . S
O33 C40 1.287 . S
O34 Fe23 1.996 . S
O34 C40 1.255 . S
O35 Fe25 1.976 . S
O35 C30 1.287 . S
O36 Fe22 1.996 . S
O36 C30 1.255 . S
C37 O41 1.295 . S
C37 O42 1.235 . S
O38 Fe23 1.976 . S
O38 C32 1.287 . S
O39 Fe25 1.996 . S
O39 C32 1.255 . S
C40 O33 1.287 . S
C40 O34 1.255 . S
O41 Fe23 2.002 . S
O41 C37 1.295 . S
O42 Fe25 1.997 . S
O42 C37 1.235 . S
C43 O26 1.295 . S
C43 O27 1.235 . S
Fe44 O46 1.918 . S
Fe44 O49 1.997 1_554 S
Fe44 O50 2.002 1_554 S
Fe44 O55 1.976 . S
Fe44 O58 1.996 . S
Fe45 O46 1.918 . S
Fe45 O53 1.997 1_554 S
Fe45 O56 1.996 . S
Fe45 O60 1.976 . S
Fe45 O63 2.002 1_554 S
O46 Fe44 1.918 . S
O46 Fe45 1.918 . S
O46 Fe47 1.918 1_554 S
Fe47 O46 1.918 1_556 S
Fe47 O48 2.002 . S
Fe47 O57 1.976 1_556 S
Fe47 O61 1.996 1_556 S
Fe47 O64 1.997 . S
O48 Fe47 2.002 . S
O48 C65 1.295 . S
O49 Fe44 1.997 1_556 S
O49 C65 1.235 . S
O50 Fe44 2.002 1_556 S
O50 C51 1.295 . S
C51 O50 1.295 . S
C51 O53 1.235 . S
C52 O57 1.287 . S
C52 O58 1.255 . S
O53 Fe45 1.997 1_556 S
O53 C51 1.235 . S
C54 O60 1.287 . S
C54 O61 1.255 . S
O55 Fe44 1.976 . S
O55 C62 1.287 . S
O56 Fe45 1.996 . S
O56 C62 1.255 . S
O57 Fe47 1.976 1_554 S
O57 C52 1.287 . S
O58 Fe44 1.996 . S
O58 C52 1.255 . S
C59 O63 1.295 . S
C59 O64 1.235 . S
O60 Fe45 1.976 . S
O60 C54 1.287 . S
O61 Fe47 1.996 1_554 S
O61 C54 1.255 . S
C62 O55 1.287 . S
C62 O56 1.255 . S
O63 Fe45 2.002 1_556 S
O63 C59 1.295 . S
O64 Fe47 1.997 . S
O64 C59 1.235 . S
C65 O48 1.295 . S
C65 O49 1.235 . S
Fe66 O68 1.918 . S
Fe66 O71 1.997 . S
Fe66 O72 2.002 . S
Fe66 O77 1.976 . S
Fe66 O80 1.996 . S
Fe67 O68 1.918 . S
Fe67 O75 1.997 . S
Fe67 O78 1.996 . S
Fe67 O82 1.976 . S
Fe67 O85 2.002 . S
O68 Fe66 1.918 . S
O68 Fe67 1.918 . S
O68 Fe69 1.918 . S
Fe69 O68 1.918 . S
Fe69 O70 2.002 . S
Fe69 O79 1.976 . S
Fe69 O83 1.996 . S
Fe69 O86 1.997 . S
O70 Fe69 2.002 . S
O70 C87 1.295 . S
O71 Fe66 1.997 . S
O71 C87 1.235 . S
O72 Fe66 2.002 . S
O72 C73 1.295 . S
C73 O72 1.295 . S
C73 O75 1.235 . S
C74 O79 1.287 . S
C74 O80 1.255 . S
O75 Fe67 1.997 . S
O75 C73 1.235 . S
C76 O82 1.287 . S
C76 O83 1.255 . S
O77 Fe66 1.976 . S
O77 C84 1.287 . S
O78 Fe67 1.996 . S
O78 C84 1.255 . S
O79 Fe69 1.976 . S
O79 C74 1.287 . S
O80 Fe66 1.996 . S
O80 C74 1.255 . S
C81 O85 1.295 . S
C81 O86 1.235 . S
O82 Fe67 1.976 . S
O82 C76 1.287 . S
O83 Fe69 1.996 . S
O83 C76 1.255 . S
C84 O77 1.287 . S
C84 O78 1.255 . S
O85 Fe67 2.002 . S
O85 C81 1.295 . S
O86 Fe69 1.997 . S
O86 C81 1.235 . S
C87 O70 1.295 . S
C87 O71 1.235 . S
P88 O99 1.490 1_455 S
P88 C102 1.812 . S
P88 C108 1.803 . S
P88 C114 1.819 1_455 S
H89 C103 0.941 . S
H90 C104 0.939 . S
H91 C106 0.940 . S
H92 C107 0.940 . S
H93 C109 0.939 . S
H94 C110 0.942 . S
H95 C112 0.940 . S
H96 C113 0.939 . S
H97 C115 0.941 . S
H98 C119 0.951 . S
O99 P88 1.490 1_655 S
H100 C116 0.939 . S
H101 C118 0.940 . S
C102 P88 1.812 . S
C102 C103 1.389 1_545 S
C102 C107 1.391 . S
C103 H89 0.941 . S
C103 C102 1.389 1_565 S
C103 C104 1.397 . S
C104 H90 0.939 . S
C104 C103 1.397 . S
C104 C105 1.378 . S
C105 C104 1.378 . S
C105 C106 1.378 1_565 S
C106 H91 0.940 . S
C106 C105 1.378 1_545 S
C106 C107 1.396 . S
C107 H92 0.940 . S
C107 C102 1.391 . S
C107 C106 1.396 . S
C108 P88 1.803 . S
C108 C109 1.378 . S
C108 C113 1.400 . S
C109 H93 0.939 . S
C109 C108 1.378 . S
C109 C110 1.361 . S
C110 H94 0.942 . S
C110 C109 1.361 . S
C110 C111 1.369 . S
C111 C110 1.369 . S
C111 C112 1.404 . S
C112 H95 0.940 . S
C112 C111 1.404 . S
C112 C113 1.389 . S
C113 H96 0.939 . S
C113 C108 1.400 . S
C113 C112 1.389 . S
C114 P88 1.819 1_655 S
C114 C115 1.391 . S
C114 C119 1.388 1_655 S
C115 H97 0.941 . S
C115 C114 1.391 . S
C115 C116 1.396 . S
C116 H100 0.939 . S
C116 C115 1.396 . S
C116 C117 1.397 . S
C117 C116 1.397 . S
C117 C118 1.385 . S
C118 H101 0.940 . S
C118 C117 1.385 . S
C118 C119 1.381 1_655 S
C119 H98 0.951 . S
C119 C114 1.388 1_455 S
C119 C118 1.381 1_455 S
P120 O131 1.490 . S
P120 C134 1.812 . S
P120 C140 1.803 . S
P120 C146 1.819 . S
H121 C135 0.941 . S
H122 C136 0.939 . S
H123 C138 0.940 . S
H124 C139 0.940 . S
H125 C141 0.939 . S
H126 C142 0.942 . S
H127 C144 0.940 . S
H128 C145 0.939 . S
H129 C147 0.941 . S
H130 C151 0.939 . S
O131 P120 1.490 . S
H132 C148 0.939 . S
H133 C150 0.940 . S
C134 P120 1.812 . S
C134 C135 1.389 . S
C134 C139 1.391 . S
C135 H121 0.941 . S
C135 C134 1.389 . S
C135 C136 1.397 . S
C136 H122 0.939 . S
C136 C135 1.397 . S
C136 C137 1.378 . S
C137 C136 1.378 . S
C137 C138 1.378 . S
C138 H123 0.940 . S
C138 C137 1.378 . S
C138 C139 1.396 . S
C139 H124 0.940 . S
C139 C134 1.391 . S
C139 C138 1.396 . S
C140 P120 1.803 . S
C140 C141 1.378 1_556 S
C140 C145 1.400 . S
C141 H125 0.939 . S
C141 C140 1.378 1_554 S
C141 C142 1.361 . S
C142 H126 0.942 . S
C142 C141 1.361 . S
C142 C143 1.369 . S
C143 C142 1.369 . S
C143 C144 1.404 1_554 S
C144 H127 0.940 . S
C144 C143 1.404 1_556 S
C144 C145 1.389 . S
C145 H128 0.939 . S
C145 C140 1.400 . S
C145 C144 1.389 . S
C146 P120 1.819 . S
C146 C147 1.391 . S
C146 C151 1.391 . S
C147 H129 0.941 . S
C147 C146 1.391 . S
C147 C148 1.396 . S
C148 H132 0.939 . S
C148 C147 1.396 . S
C148 C149 1.397 . S
C149 C148 1.397 . S
C149 C150 1.385 . S
C150 H133 0.940 . S
C150 C149 1.385 . S
C150 C151 1.388 . S
C151 H130 0.939 . S
C151 C146 1.391 . S
C151 C150 1.388 . S
P152 O163 1.490 . S
P152 C166 1.812 . S
P152 C172 1.803 . S
P152 C178 1.819 . S
H153 C167 0.941 . S
H154 C168 0.939 . S
H155 C170 0.940 . S
H156 C171 0.940 . S
H157 C173 0.939 . S
H158 C174 0.942 . S
H159 C176 0.940 . S
H160 C177 0.939 . S
H161 C179 0.941 . S
H162 C183 0.939 . S
O163 P152 1.490 . S
H164 C180 0.939 . S
H165 C182 0.940 . S
C166 P152 1.812 . S
C166 C167 1.389 . S
C166 C171 1.391 . S
C167 H153 0.941 . S
C167 C166 1.389 . S
C167 C168 1.397 1_565 S
C168 H154 0.939 . S
C168 C167 1.397 1_545 S
C168 C169 1.378 1_545 S
C169 C168 1.378 1_565 S
C169 C170 1.378 . S
C170 H155 0.940 . S
C170 C169 1.378 . S
C170 C171 1.396 . S
C171 H156 0.940 . S
C171 C166 1.391 . S
C171 C170 1.396 . S
C172 P152 1.803 . S
C172 C173 1.378 . S
C172 C177 1.400 . S
C173 H157 0.939 . S
C173 C172 1.378 . S
C173 C174 1.361 . S
C174 H158 0.942 . S
C174 C173 1.361 . S
C174 C175 1.369 . S
C175 C174 1.369 . S
C175 C176 1.404 . S
C176 H159 0.940 . S
C176 C175 1.404 . S
C176 C177 1.389 . S
C177 H160 0.939 . S
C177 C172 1.400 . S
C177 C176 1.389 . S
C178 P152 1.819 . S
C178 C179 1.391 . S
C178 C183 1.391 . S
C179 H161 0.941 . S
C179 C178 1.391 . S
C179 C180 1.396 . S
C180 H164 0.939 . S
C180 C179 1.396 . S
C180 C181 1.397 . S
C181 C180 1.397 . S
C181 C182 1.385 . S
C182 H165 0.940 . S
C182 C181 1.385 . S
C182 C183 1.388 . S
C183 H162 0.939 . S
C183 C178 1.391 . S
C183 C182 1.388 . S
P184 O195 1.490 . S
P184 C198 1.812 . S
P184 C204 1.803 . S
P184 C210 1.819 . S
H185 C199 0.941 . S
H186 C200 0.939 . S
H187 C202 0.940 . S
H188 C203 0.940 . S
H189 C205 0.939 . S
H190 C206 0.942 . S
H191 C208 0.940 . S
H192 C209 0.939 . S
H193 C211 0.941 . S
H194 C215 0.939 . S
O195 P184 1.490 . S
H196 C212 0.939 . S
H197 C214 0.940 . S
C198 P184 1.812 . S
C198 C199 1.389 . S
C198 C203 1.391 . S
C199 H185 0.941 . S
C199 C198 1.389 . S
C199 C200 1.397 . S
C200 H186 0.939 . S
C200 C199 1.397 . S
C200 C201 1.378 . S
C201 C200 1.378 . S
C201 C202 1.378 . S
C202 H187 0.940 . S
C202 C201 1.378 . S
C202 C203 1.396 . S
C203 H188 0.940 . S
C203 C198 1.391 . S
C203 C202 1.396 . S
C204 P184 1.803 . S
C204 C205 1.378 . S
C204 C209 1.400 . S
C205 H189 0.939 . S
C205 C204 1.378 . S
C205 C206 1.361 . S
C206 H190 0.942 . S
C206 C205 1.361 . S
C206 C207 1.369 . S
C207 C206 1.369 . S
C207 C208 1.404 . S
C208 H191 0.940 . S
C208 C207 1.404 . S
C208 C209 1.389 . S
C209 H192 0.939 . S
C209 C204 1.400 . S
C209 C208 1.389 . S
C210 P184 1.819 . S
C210 C211 1.391 . S
C210 C215 1.391 . S
C211 H193 0.941 . S
C211 C210 1.391 . S
C211 C212 1.396 . S
C212 H196 0.939 . S
C212 C211 1.396 . S
C212 C213 1.397 . S
C213 C212 1.397 . S
C213 C214 1.385 . S
C214 H197 0.940 . S
C214 C213 1.385 . S
C214 C215 1.388 . S
C215 H194 0.939 . S
C215 C210 1.391 . S
C215 C214 1.388 . S
P216 O227 1.490 . S
P216 C230 1.812 . S
P216 C236 1.803 . S
P216 C242 1.819 . S
H217 C231 0.941 . S
H218 C232 0.939 . S
H219 C234 0.940 . S
H220 C235 0.940 . S
H221 C237 0.939 . S
H222 C238 0.942 1_556 S
H223 C240 0.940 . S
H224 C241 0.939 . S
H225 C243 0.941 . S
H226 C247 0.939 . S
O227 P216 1.490 . S
H228 C244 0.939 . S
H229 C246 0.940 . S
C230 P216 1.812 . S
C230 C231 1.389 . S
C230 C235 1.391 . S
C231 H217 0.941 . S
C231 C230 1.389 . S
C231 C232 1.397 . S
C232 H218 0.939 . S
C232 C231 1.397 . S
C232 C233 1.378 . S
C233 C232 1.378 . S
C233 C234 1.378 . S
C234 H219 0.940 . S
C234 C233 1.378 . S
C234 C235 1.396 . S
C235 H220 0.940 . S
C235 C230 1.391 . S
C235 C234 1.396 . S
C236 P216 1.803 . S
C236 C237 1.378 . S
C236 C241 1.400 . S
C237 H221 0.939 . S
C237 C236 1.378 . S
C237 C238 1.361 . S
C238 H222 0.942 1_554 S
C238 C237 1.361 . S
C238 C239 1.369 . S
C239 C238 1.369 . S
C239 C240 1.404 . S
C240 H223 0.940 . S
C240 C239 1.404 . S
C240 C241 1.389 . S
C241 H224 0.939 . S
C241 C236 1.400 . S
C241 C240 1.389 . S
C242 P216 1.819 . S
C242 C243 1.391 . S
C242 C247 1.391 . S
C243 H225 0.941 . S
C243 C242 1.391 . S
C243 C244 1.396 . S
C244 H228 0.939 . S
C244 C243 1.396 . S
C244 C245 1.397 . S
C245 C244 1.397 . S
C245 C246 1.385 . S
C246 H229 0.940 . S
C246 C245 1.385 . S
C246 C247 1.388 . S
C247 H226 0.939 . S
C247 C242 1.391 . S
C247 C246 1.388 . S
P248 O259 1.490 1_556 S
P248 C262 1.812 . S
P248 C268 1.803 . S
P248 C274 1.819 . S
H249 C263 0.941 . S
H250 C264 0.939 . S
H251 C266 0.940 . S
H252 C267 0.940 . S
H253 C269 0.939 . S
H254 C270 0.942 . S
H255 C272 0.940 . S
H256 C273 0.939 . S
H257 C275 0.941 . S
H258 C279 0.939 . S
O259 P248 1.490 1_554 S
H260 C276 0.939 . S
H261 C278 0.940 . S
C262 P248 1.812 . S
C262 C263 1.389 1_556 S
C262 C267 1.391 . S
C263 H249 0.941 . S
C263 C262 1.389 1_554 S
C263 C264 1.397 . S
C264 H250 0.939 . S
C264 C263 1.397 . S
C264 C265 1.378 . S
C265 C264 1.378 . S
C265 C266 1.378 1_554 S
C266 H251 0.940 . S
C266 C265 1.378 1_556 S
C266 C267 1.396 . S
C267 H252 0.940 . S
C267 C262 1.391 . S
C267 C266 1.396 . S
C268 P248 1.803 . S
C268 C269 1.378 . S
C268 C273 1.400 . S
C269 H253 0.939 . S
C269 C268 1.378 . S
C269 C270 1.361 . S
C270 H254 0.942 . S
C270 C269 1.361 . S
C270 C271 1.369 . S
C271 C270 1.369 . S
C271 C272 1.404 . S
C272 H255 0.940 . S
C272 C271 1.404 . S
C272 C273 1.389 . S
C273 H256 0.939 . S
C273 C268 1.400 . S
C273 C272 1.389 . S
C274 P248 1.819 . S
C274 C275 1.391 1_556 S
C274 C279 1.391 . S
C275 H257 0.941 . S
C275 C274 1.391 1_554 S
C275 C276 1.396 . S
C276 H260 0.939 . S
C276 C275 1.396 . S
C276 C277 1.397 1_554 S
C277 C276 1.397 1_556 S
C277 C278 1.385 . S
C278 H261 0.940 . S
C278 C277 1.385 . S
C278 C279 1.388 . S
C279 H258 0.939 . S
C279 C274 1.391 . S
C279 C278 1.388 . S
P280 O291 1.490 . S
P280 C294 1.812 . S
P280 C300 1.803 . S
P280 C306 1.819 . S
H281 C295 0.941 . S
H282 C296 0.939 . S
H283 C298 0.940 . S
H284 C299 0.940 . S
H285 C301 0.939 . S
H286 C302 0.942 . S
H287 C304 0.940 . S
H288 C305 0.939 . S
H289 C307 0.941 . S
H290 C311 0.939 . S
O291 P280 1.490 . S
H292 C308 0.939 . S
H293 C310 0.940 . S
C294 P280 1.812 . S
C294 C295 1.389 . S
C294 C299 1.391 . S
C295 H281 0.941 . S
C295 C294 1.389 . S
C295 C296 1.397 . S
C296 H282 0.939 . S
C296 C295 1.397 . S
C296 C297 1.378 . S
C297 C296 1.378 . S
C297 C298 1.378 . S
C298 H283 0.940 . S
C298 C297 1.378 . S
C298 C299 1.396 . S
C299 H284 0.940 . S
C299 C294 1.391 . S
C299 C298 1.396 . S
C300 P280 1.803 . S
C300 C301 1.378 . S
C300 C305 1.400 . S
C301 H285 0.939 . S
C301 C300 1.378 . S
C301 C302 1.361 . S
C302 H286 0.942 . S
C302 C301 1.361 . S
C302 C303 1.369 . S
C303 C302 1.369 . S
C303 C304 1.404 . S
C304 H287 0.940 . S
C304 C303 1.404 . S
C304 C305 1.389 . S
C305 H288 0.939 . S
C305 C300 1.400 . S
C305 C304 1.389 . S
C306 P280 1.819 . S
C306 C307 1.391 . S
C306 C311 1.391 . S
C307 H289 0.941 . S
C307 C306 1.391 . S
C307 C308 1.396 . S
C308 H292 0.939 . S
C308 C307 1.396 . S
C308 C309 1.397 . S
C309 C308 1.397 . S
C309 C310 1.385 . S
C310 H293 0.940 . S
C310 C309 1.385 . S
C310 C311 1.388 . S
C311 H290 0.939 . S
C311 C306 1.391 . S
C311 C310 1.388 . S
P312 O323 1.490 . S
P312 C326 1.812 . S
P312 C332 1.803 . S
P312 C338 1.819 . S
H313 C327 0.941 . S
H314 C328 0.939 . S
H315 C330 0.940 . S
H316 C331 0.940 . S
H317 C333 0.939 . S
H318 C334 0.942 . S
H319 C336 0.940 . S
H320 C337 0.939 . S
H321 C339 0.941 . S
H322 C343 0.939 . S
O323 P312 1.490 . S
H324 C340 0.939 . S
H325 C342 0.940 . S
C326 P312 1.812 . S
C326 C327 1.389 . S
C326 C331 1.391 . S
C327 H313 0.941 . S
C327 C326 1.389 . S
C327 C328 1.397 1_565 S
C328 H314 0.939 . S
C328 C327 1.397 1_545 S
C328 C329 1.378 . S
C329 C328 1.378 . S
C329 C330 1.378 . S
C330 H315 0.940 . S
C330 C329 1.378 . S
C330 C331 1.396 1_545 S
C331 H316 0.940 . S
C331 C326 1.391 . S
C331 C330 1.396 1_565 S
C332 P312 1.803 . S
C332 C333 1.378 . S
C332 C337 1.400 . S
C333 H317 0.939 . S
C333 C332 1.378 . S
C333 C334 1.361 . S
C334 H318 0.942 . S
C334 C333 1.361 . S
C334 C335 1.369 . S
C335 C334 1.369 . S
C335 C336 1.404 . S
C336 H319 0.940 . S
C336 C335 1.404 . S
C336 C337 1.389 . S
C337 H320 0.939 . S
C337 C332 1.400 . S
C337 C336 1.389 . S
C338 P312 1.819 . S
C338 C339 1.391 . S
C338 C343 1.391 . S
C339 H321 0.941 . S
C339 C338 1.391 . S
C339 C340 1.396 1_655 S
C340 H324 0.939 . S
C340 C339 1.396 1_455 S
C340 C341 1.397 . S
C341 C340 1.397 . S
C341 C342 1.385 . S
C342 H325 0.940 . S
C342 C341 1.385 . S
C342 C343 1.388 1_455 S
C343 H322 0.939 . S
C343 C338 1.391 . S
C343 C342 1.388 1_655 S
C7 C105 2.294 . S
C37 C137 2.296 . S
C54 C169 2.170 1_545 S
C213 C87 1.890 . S
C233 C30 2.122 . S
C51 C277 1.991 1_655 S
C84 C297 2.244 . S
C10 C341 1.818 . S
C59 C329 1.882 . S
C245 C74 2.317 . S
C265 C18 2.542 1_545 S
C32 C309 1.574 . S
C149 C73 2.335 . S
C15 C181 1.594 1_455 S
C201 C43 2.529 . S
C117 C62 2.286 . S
C303 C21 2.070 . S
C335 C29 1.402 . S
C52 C239 1.812 . S
C271 C81 2.498 . S
C175 C40 1.998 . S
C65 C207 2.435 . S
C111 C76 1.821 . S
C143 C8 1.825 1_554 S
