# Generated by pormake.
# Topology ptr, (4,4)-cn, num edge types: 1
# Building blocks:
#     Node 0, Type 0, BuildingBlock: TATPOV_clean_sbu_0, # of connection points: 4
#     Node 1, Type 0, BuildingBlock: TATPOV_clean_sbu_0, # of connection points: 4
#     Node 2, Type 0, BuildingBlock: TATPOV_clean_sbu_0, # of connection points: 4
#     Node 3, Type 0, BuildingBlock: TATPOV_clean_sbu_0, # of connection points: 4
#     Node 4, Type 0, BuildingBlock: TATPOV_clean_sbu_0, # of connection points: 4
#     Node 5, Type 0, BuildingBlock: TATPOV_clean_sbu_0, # of connection points: 4
#     Node 6, Type 0, BuildingBlock: TATPOV_clean_sbu_0, # of connection points: 4
#     Node 7, Type 0, BuildingBlock: TATPOV_clean_sbu_0, # of connection points: 4
#     Node 8, Type 0, BuildingBlock: TATPOV_clean_sbu_0, # of connection points: 4
#     Node 9, Type 0, BuildingBlock: TATPOV_clean_sbu_0, # of connection points: 4
#     Node 10, Type 0, BuildingBlock: TATPOV_clean_sbu_0, # of connection points: 4
#     Node 11, Type 0, BuildingBlock: TATPOV_clean_sbu_0, # of connection points: 4
#     Node 12, Type 0, BuildingBlock: TATPOV_clean_sbu_0, # of connection points: 4
#     Node 13, Type 0, BuildingBlock: TATPOV_clean_sbu_0, # of connection points: 4
#     Node 14, Type 0, BuildingBlock: TATPOV_clean_sbu_0, # of connection points: 4
#     Node 15, Type 0, BuildingBlock: TATPOV_clean_sbu_0, # of connection points: 4
#     Node 16, Type 0, BuildingBlock: TATPOV_clean_sbu_0, # of connection points: 4
#     Node 17, Type 0, BuildingBlock: TATPOV_clean_sbu_0, # of connection points: 4
#     Node 18, Type 1, BuildingBlock: KUFVIS_clean_linker_0, # of connection points: 4
#     Node 19, Type 1, BuildingBlock: KUFVIS_clean_linker_0, # of connection points: 4
#     Node 20, Type 1, BuildingBlock: KUFVIS_clean_linker_0, # of connection points: 4
#     Node 21, Type 1, BuildingBlock: KUFVIS_clean_linker_0, # of connection points: 4
#     Node 22, Type 1, BuildingBlock: KUFVIS_clean_linker_0, # of connection points: 4
#     Node 23, Type 1, BuildingBlock: KUFVIS_clean_linker_0, # of connection points: 4
#     Node 24, Type 1, BuildingBlock: KUFVIS_clean_linker_0, # of connection points: 4
#     Node 25, Type 1, BuildingBlock: KUFVIS_clean_linker_0, # of connection points: 4
#     Node 26, Type 1, BuildingBlock: KUFVIS_clean_linker_0, # of connection points: 4
#     Node 27, Type 1, BuildingBlock: KUFVIS_clean_linker_0, # of connection points: 4
#     Node 28, Type 1, BuildingBlock: KUFVIS_clean_linker_0, # of connection points: 4
#     Node 29, Type 1, BuildingBlock: KUFVIS_clean_linker_0, # of connection points: 4
#     Node 30, Type 1, BuildingBlock: KUFVIS_clean_linker_0, # of connection points: 4
#     Node 31, Type 1, BuildingBlock: KUFVIS_clean_linker_0, # of connection points: 4
#     Node 32, Type 1, BuildingBlock: KUFVIS_clean_linker_0, # of connection points: 4
#     Node 33, Type 1, BuildingBlock: KUFVIS_clean_linker_0, # of connection points: 4
#     Node 34, Type 1, BuildingBlock: KUFVIS_clean_linker_0, # of connection points: 4
#     Node 35, Type 1, BuildingBlock: KUFVIS_clean_linker_0, # of connection points: 4
#     Edge 36, Type (0, 1), BuildingBlock: KIFKEQ_clean_linker_1, # of connection points: 2
#     Edge 37, Type (0, 1), BuildingBlock: KIFKEQ_clean_linker_1, # of connection points: 2
#     Edge 38, Type (0, 1), BuildingBlock: KIFKEQ_clean_linker_1, # of connection points: 2
#     Edge 39, Type (0, 1), BuildingBlock: KIFKEQ_clean_linker_1, # of connection points: 2
#     Edge 40, Type (0, 1), BuildingBlock: KIFKEQ_clean_linker_1, # of connection points: 2
#     Edge 41, Type (0, 1), BuildingBlock: KIFKEQ_clean_linker_1, # of connection points: 2
#     Edge 42, Type (0, 1), BuildingBlock: KIFKEQ_clean_linker_1, # of connection points: 2
#     Edge 43, Type (0, 1), BuildingBlock: KIFKEQ_clean_linker_1, # of connection points: 2
#     Edge 44, Type (0, 1), BuildingBlock: KIFKEQ_clean_linker_1, # of connection points: 2
#     Edge 45, Type (0, 1), BuildingBlock: KIFKEQ_clean_linker_1, # of connection points: 2
#     Edge 46, Type (0, 1), BuildingBlock: KIFKEQ_clean_linker_1, # of connection points: 2
#     Edge 47, Type (0, 1), BuildingBlock: KIFKEQ_clean_linker_1, # of connection points: 2
#     Edge 48, Type (0, 1), BuildingBlock: KIFKEQ_clean_linker_1, # of connection points: 2
#     Edge 49, Type (0, 1), BuildingBlock: KIFKEQ_clean_linker_1, # of connection points: 2
#     Edge 50, Type (0, 1), BuildingBlock: KIFKEQ_clean_linker_1, # of connection points: 2
#     Edge 51, Type (0, 1), BuildingBlock: KIFKEQ_clean_linker_1, # of connection points: 2
#     Edge 52, Type (0, 1), BuildingBlock: KIFKEQ_clean_linker_1, # of connection points: 2
#     Edge 53, Type (0, 1), BuildingBlock: KIFKEQ_clean_linker_1, # of connection points: 2
#     Edge 54, Type (0, 1), BuildingBlock: KIFKEQ_clean_linker_1, # of connection points: 2
#     Edge 55, Type (0, 1), BuildingBlock: KIFKEQ_clean_linker_1, # of connection points: 2
#     Edge 56, Type (0, 1), BuildingBlock: KIFKEQ_clean_linker_1, # of connection points: 2
#     Edge 57, Type (0, 1), BuildingBlock: KIFKEQ_clean_linker_1, # of connection points: 2
#     Edge 58, Type (0, 1), BuildingBlock: KIFKEQ_clean_linker_1, # of connection points: 2
#     Edge 59, Type (0, 1), BuildingBlock: KIFKEQ_clean_linker_1, # of connection points: 2
#     Edge 60, Type (0, 1), BuildingBlock: KIFKEQ_clean_linker_1, # of connection points: 2
#     Edge 61, Type (0, 1), BuildingBlock: KIFKEQ_clean_linker_1, # of connection points: 2
#     Edge 62, Type (0, 1), BuildingBlock: KIFKEQ_clean_linker_1, # of connection points: 2
#     Edge 63, Type (0, 1), BuildingBlock: KIFKEQ_clean_linker_1, # of connection points: 2
#     Edge 64, Type (0, 1), BuildingBlock: KIFKEQ_clean_linker_1, # of connection points: 2
#     Edge 65, Type (0, 1), BuildingBlock: KIFKEQ_clean_linker_1, # of connection points: 2
#     Edge 66, Type (0, 1), BuildingBlock: KIFKEQ_clean_linker_1, # of connection points: 2
#     Edge 67, Type (0, 1), BuildingBlock: KIFKEQ_clean_linker_1, # of connection points: 2
#     Edge 68, Type (0, 1), BuildingBlock: KIFKEQ_clean_linker_1, # of connection points: 2
#     Edge 69, Type (0, 1), BuildingBlock: KIFKEQ_clean_linker_1, # of connection points: 2
#     Edge 70, Type (0, 1), BuildingBlock: KIFKEQ_clean_linker_1, # of connection points: 2
#     Edge 71, Type (0, 1), BuildingBlock: KIFKEQ_clean_linker_1, # of connection points: 2
#     Edge 72, Type (0, 1), BuildingBlock: KIFKEQ_clean_linker_1, # of connection points: 2
#     Edge 73, Type (0, 1), BuildingBlock: KIFKEQ_clean_linker_1, # of connection points: 2
#     Edge 74, Type (0, 1), BuildingBlock: KIFKEQ_clean_linker_1, # of connection points: 2
#     Edge 75, Type (0, 1), BuildingBlock: KIFKEQ_clean_linker_1, # of connection points: 2
#     Edge 76, Type (0, 1), BuildingBlock: KIFKEQ_clean_linker_1, # of connection points: 2
#     Edge 77, Type (0, 1), BuildingBlock: KIFKEQ_clean_linker_1, # of connection points: 2
#     Edge 78, Type (0, 1), BuildingBlock: KIFKEQ_clean_linker_1, # of connection points: 2
#     Edge 79, Type (0, 1), BuildingBlock: KIFKEQ_clean_linker_1, # of connection points: 2
#     Edge 80, Type (0, 1), BuildingBlock: KIFKEQ_clean_linker_1, # of connection points: 2
#     Edge 81, Type (0, 1), BuildingBlock: KIFKEQ_clean_linker_1, # of connection points: 2
#     Edge 82, Type (0, 1), BuildingBlock: KIFKEQ_clean_linker_1, # of connection points: 2
#     Edge 83, Type (0, 1), BuildingBlock: KIFKEQ_clean_linker_1, # of connection points: 2
#     Edge 84, Type (0, 1), BuildingBlock: KIFKEQ_clean_linker_1, # of connection points: 2
#     Edge 85, Type (0, 1), BuildingBlock: KIFKEQ_clean_linker_1, # of connection points: 2
#     Edge 86, Type (0, 1), BuildingBlock: KIFKEQ_clean_linker_1, # of connection points: 2
#     Edge 87, Type (0, 1), BuildingBlock: KIFKEQ_clean_linker_1, # of connection points: 2
#     Edge 88, Type (0, 1), BuildingBlock: KIFKEQ_clean_linker_1, # of connection points: 2
#     Edge 89, Type (0, 1), BuildingBlock: KIFKEQ_clean_linker_1, # of connection points: 2
#     Edge 90, Type (0, 1), BuildingBlock: KIFKEQ_clean_linker_1, # of connection points: 2
#     Edge 91, Type (0, 1), BuildingBlock: KIFKEQ_clean_linker_1, # of connection points: 2
#     Edge 92, Type (0, 1), BuildingBlock: KIFKEQ_clean_linker_1, # of connection points: 2
#     Edge 93, Type (0, 1), BuildingBlock: KIFKEQ_clean_linker_1, # of connection points: 2
#     Edge 94, Type (0, 1), BuildingBlock: KIFKEQ_clean_linker_1, # of connection points: 2
#     Edge 95, Type (0, 1), BuildingBlock: KIFKEQ_clean_linker_1, # of connection points: 2
#     Edge 96, Type (0, 1), BuildingBlock: KIFKEQ_clean_linker_1, # of connection points: 2
#     Edge 97, Type (0, 1), BuildingBlock: KIFKEQ_clean_linker_1, # of connection points: 2
#     Edge 98, Type (0, 1), BuildingBlock: KIFKEQ_clean_linker_1, # of connection points: 2
#     Edge 99, Type (0, 1), BuildingBlock: KIFKEQ_clean_linker_1, # of connection points: 2
#     Edge 100, Type (0, 1), BuildingBlock: KIFKEQ_clean_linker_1, # of connection points: 2
#     Edge 101, Type (0, 1), BuildingBlock: KIFKEQ_clean_linker_1, # of connection points: 2
#     Edge 102, Type (0, 1), BuildingBlock: KIFKEQ_clean_linker_1, # of connection points: 2
#     Edge 103, Type (0, 1), BuildingBlock: KIFKEQ_clean_linker_1, # of connection points: 2
#     Edge 104, Type (0, 1), BuildingBlock: KIFKEQ_clean_linker_1, # of connection points: 2
#     Edge 105, Type (0, 1), BuildingBlock: KIFKEQ_clean_linker_1, # of connection points: 2
#     Edge 106, Type (0, 1), BuildingBlock: KIFKEQ_clean_linker_1, # of connection points: 2
#     Edge 107, Type (0, 1), BuildingBlock: KIFKEQ_clean_linker_1, # of connection points: 2
# Relax obj value: 0.070
# Max RMSD: 0.192
# Mean RMSD: 0.120
data_MOF--net-ptr--node1-TATPOV_clean_sbu_0--node2-KUFVIS_clean_linker_0--edge1-KIFKEQ_clean_linker_1
_symmetry_space_group_name_H-M    P1
_symmetry_Int_Tables_number       1
_symmetry_cell_setting            triclinic
loop_
_symmetry_equiv_pos_as_xyz
'x, y, z'
_cell_length_a     78.271081
_cell_length_b     79.093462
_cell_length_c     49.573355
_cell_angle_alpha  89.286813
_cell_angle_beta   91.465354
_cell_angle_gamma 120.97258
loop_
_atom_site_label
_atom_site_type_symbol
_atom_site_fract_x
_atom_site_fract_y
_atom_site_fract_z
_atom_type_partial_charge
Zn0 Zn 0.99021 0.3832 0.00868 0.0
Zn1 Zn 1.02353 0.38273 0.00543 0.0
O2 O 1.00005 0.35329 0.0043 0.0
O3 O 0.97256 0.35393 0.00947 0.0
O4 O 0.04773 0.37957 0.0055 0.0
O5 O 0.99943 0.39841 0.04307 0.0
O6 O 0.02776 0.39902 0.0403 0.0
C7 C 0.98111 0.34422 0.00651 0.0
C8 C 1.01319 0.40357 0.96164 0.0
O9 O 0.02548 0.39888 0.97124 0.0
O10 O 0.99702 0.3981 0.97355 0.0
C11 C 0.06553 0.3931 0.00061 0.0
O12 O 0.06918 0.41084 -0.00562 0.0
C13 C 1.01672 0.40391 0.05236 0.0
Zn14 Zn 0.66704 0.62251 0.98453 0.0
Zn15 Zn 0.66373 0.65326 -0.00538 0.0
O16 O 0.69448 0.66497 -0.00703 0.0
O17 O 0.69666 0.63835 -0.0095 0.0
O18 O 0.66067 0.67688 0.0018 0.0
O19 O 0.64966 0.6077 0.01531 0.0
O20 O 0.65026 0.63473 0.02738 0.0
C21 C 0.70497 0.65686 -0.00726 0.0
C22 C 0.64535 0.6285 0.94276 0.0
O23 O 0.64736 0.64182 0.95902 0.0
O24 O 0.65398 0.61897 0.94802 0.0
C25 C 0.67314 0.69434 -0.0059 0.0
O26 O 0.68897 0.69759 0.98111 0.0
C27 C 0.64502 0.61675 0.03166 0.0
Zn28 Zn 0.39295 0.98477 0.00544 0.0
Zn29 Zn 0.39248 0.01787 -4e-05 0.0
O30 O 0.36245 0.99626 0.00409 0.0
O31 O 0.36384 0.9697 0.01347 0.0
O32 O 0.39264 0.04341 -0.00652 0.0
O33 O 0.40166 0.98607 0.96759 0.0
O34 O 0.40542 1.01563 0.9653 0.0
C35 C 0.35373 0.97796 0.0101 0.0
C36 C 0.41872 1.0143 0.0439 0.0
O37 O 0.41074 0.02363 0.03391 0.0
O38 O 0.41404 0.99758 0.03464 0.0
C39 C 0.38733 0.05182 0.01025 0.0
O40 O 0.38088 0.04365 0.03393 0.0
C41 C 0.40736 1.00202 0.95496 0.0
Zn42 Zn 0.06357 0.65366 -0.00209 0.0
Zn43 Zn 0.02821 0.65008 -0.00084 0.0
O44 O 0.04851 0.68061 -0.00017 0.0
O45 O 0.07776 0.68311 -0.00208 0.0
O46 O 1.00127 0.64807 -0.00338 0.0
O47 O 0.05709 0.63867 0.9632 0.0
O48 O 0.0272 0.63471 0.96481 0.0
C49 C 0.06751 0.69127 -0.00089 0.0
C50 C 0.04099 0.63197 0.04443 0.0
O51 O 0.02772 0.6351 0.0342 0.0
O52 O 0.05752 0.6387 0.03292 0.0
C53 C 0.99555 0.65705 0.01168 0.0
O54 O 1.0074 0.66823 0.03137 0.0
C55 C 0.03967 0.6315 0.95329 0.0
Zn56 Zn 0.38502 0.41662 0.00114 0.0
Zn57 Zn 0.3857 0.38399 -0.00328 0.0
O58 O 0.3553 0.37491 -0.00294 0.0
O59 O 0.35548 0.40273 -0.0003 0.0
O60 O 0.38539 0.35823 -0.00728 0.0
O61 O 0.40032 0.42746 0.96746 0.0
O62 O 0.40145 0.40038 0.96334 0.0
C63 C 0.34587 0.38413 -0.00193 0.0
C64 C 0.40601 0.41171 0.0454 0.0
O65 O 0.4019 0.39618 0.03239 0.0
O66 O 0.39981 0.42273 0.03657 0.0
C67 C 0.3734 0.34254 0.00532 0.0
O68 O 0.3608 0.34291 0.02197 0.0
C69 C 0.40597 0.41747 0.95482 0.0
Zn70 Zn 0.65797 0.05483 0.00596 0.0
Zn71 Zn 0.65786 0.0213 0.00428 0.0
O72 O 0.68777 0.04367 0.00328 0.0
O73 O 0.68766 0.0714 0.00264 0.0
O74 O 0.66033 0.99689 0.00627 0.0
O75 O 0.64548 0.04828 0.0422 0.0
O76 O 0.64216 0.019 0.03883 0.0
C77 C 0.6972 0.06248 0.00232 0.0
C78 C 0.63506 0.02994 0.96073 0.0
O79 O 0.64145 0.01886 0.9694 0.0
O80 O 0.63982 0.04576 0.97303 0.0
C81 C 0.65002 0.98062 -0.00629 0.0
O82 O 0.63565 0.97826 0.977 0.0
C83 C 0.63895 0.03107 0.05138 0.0
Zn84 Zn 0.65865 0.72179 0.33287 0.0
Zn85 Zn 0.69151 0.71994 0.33329 0.0
O86 O 0.66818 0.69071 0.33072 0.0
O87 O 0.64122 0.6927 0.32623 0.0
O88 O 0.71633 0.71781 0.33586 0.0
O89 O 0.66436 0.73264 0.37036 0.0
O90 O 0.6936 0.73505 0.36844 0.0
C91 C 0.64932 0.68237 0.32733 0.0
C92 C 0.68568 0.74489 0.29085 0.0
O93 O 0.69545 0.73692 0.29918 0.0
O94 O 0.66988 0.74124 0.30235 0.0
C95 C 0.71837 0.70501 0.32333 0.0
O96 O 0.7039 0.69247 0.30717 0.0
C97 C 0.68145 0.73838 0.38063 0.0
Zn98 Zn 0.31284 0.94334 0.32606 0.0
Zn99 Zn 0.31816 0.97836 0.33536 0.0
O100 O 0.34717 0.98411 0.33031 0.0
O101 O 0.34167 0.95507 0.31786 0.0
O102 O 0.32132 1.00498 0.34328 0.0
O103 O 0.30368 0.93439 0.36344 0.0
O104 O 0.30437 0.96224 0.36974 0.0
C105 C 0.35373 0.97315 0.32267 0.0
C106 C 0.28975 0.95207 0.28976 0.0
O107 O 0.29949 0.96886 0.30132 0.0
O108 O 0.29232 0.93818 0.29725 0.0
C109 C 0.32864 0.01947 0.32696 0.0
O110 O 0.33518 0.01765 0.30367 0.0
C111 C 0.30026 0.94525 0.37809 0.0
Zn112 Zn 0.05523 0.31085 0.3396 0.0
Zn113 Zn 0.05608 0.34448 0.33334 0.0
O114 O 0.02605 0.32264 0.33574 0.0
O115 O 0.02566 0.29467 0.3386 0.0
O116 O 0.05436 0.36919 0.32735 0.0
O117 O 0.07068 0.31568 0.30616 0.0
O118 O 0.07023 0.34303 0.29934 0.0
C119 C 1.01637 0.30384 0.33729 0.0
C120 C 0.07704 0.33781 0.38227 0.0
O121 O 0.07344 0.34938 0.36835 0.0
O122 O 0.06999 0.32018 0.37473 0.0
C123 C 0.06149 0.38433 0.34253 0.0
O124 O 0.07166 0.38518 0.36449 0.0
C125 C 0.07526 0.3308 0.29203 0.0
Zn126 Zn 0.72829 0.98776 0.32874 0.0
Zn127 Zn 0.69327 0.98541 0.3321 0.0
O128 O 0.71519 1.0152 0.33301 0.0
O129 O 0.74398 0.01736 0.32705 0.0
O130 O 0.66857 0.98766 0.3308 0.0
O131 O 0.71945 0.97198 0.29454 0.0
O132 O 0.6902 0.96944 0.29743 0.0
C133 C 0.73402 0.02565 0.33026 0.0
C134 C 0.70559 0.96666 0.37638 0.0
O135 O 0.6923 0.96991 0.36657 0.0
O136 O 0.72199 0.97326 0.36448 0.0
C137 C 0.65214 0.97787 0.34293 0.0
O138 O 0.64929 0.96345 0.35921 0.0
C139 C 0.70192 0.96544 0.28535 0.0
Zn140 Zn 0.07053 0.7561 0.34898 0.0
Zn141 Zn 0.06519 0.72104 0.33796 0.0
O142 O 0.03612 0.71521 0.34262 0.0
O143 O 0.04137 0.74407 0.35559 0.0
O144 O 0.06221 0.69475 0.3283 0.0
O145 O 0.08109 0.7663 0.31234 0.0
O146 O 0.07997 0.73837 0.30482 0.0
C147 C 0.0294 0.72604 0.35025 0.0
C148 C 0.09244 0.74551 0.38528 0.0
O149 O 0.08312 0.72917 0.37259 0.0
O150 O 0.09009 0.75968 0.37859 0.0
C151 C 0.05565 0.68003 0.34417 0.0
O152 O 0.0496 0.68126 0.36815 0.0
C153 C 0.08471 0.75573 0.29737 0.0
Zn154 Zn 0.33858 0.39434 0.33138 0.0
Zn155 Zn 0.33396 0.35892 0.33606 0.0
O156 O 0.36443 0.37871 0.33297 0.0
O157 O 0.36838 0.40828 0.33524 0.0
O158 O 0.33375 0.33319 0.34173 0.0
O159 O 0.322 0.38973 0.36369 0.0
O160 O 0.32057 0.36144 0.37041 0.0
C161 C 0.37581 0.39741 0.33409 0.0
C162 C 0.31569 0.36866 0.28724 0.0
O163 O 0.31715 0.35574 0.3012 0.0
O164 O 0.3247 0.38645 0.29502 0.0
C165 C 0.32721 0.31849 0.32584 0.0
O166 O 0.31844 0.31851 0.3029 0.0
C167 C 0.31637 0.37432 0.37763 0.0
Zn168 Zn 0.31761 0.04771 0.66531 0.0
Zn169 Zn 0.35289 0.05111 0.66963 0.0
O170 O 0.33272 0.02071 0.66939 0.0
O171 O 0.30342 0.01827 0.66819 0.0
O172 O 0.37971 0.05293 0.67402 0.0
O173 O 0.32315 0.0645 0.69801 0.0
O174 O 0.35189 0.06591 0.70341 0.0
C175 C 0.31371 1.01011 0.66928 0.0
C176 C 0.34205 0.06837 0.62048 0.0
O177 O 0.35496 0.0661 0.63372 0.0
O178 O 0.3246 0.06098 0.62932 0.0
C179 C 0.38541 0.0443 0.65824 0.0
O180 O 0.37378 0.03413 0.63776 0.0
C181 C 0.33928 0.07038 0.71124 0.0
Zn182 Zn 0.99968 0.28254 0.66019 0.0
Zn183 Zn 0.99889 0.31532 0.66759 0.0
O184 O 0.02935 0.32506 0.6641 0.0
O185 O 0.02922 0.29759 0.657 0.0
O186 O 0.99767 0.34024 0.67325 0.0
O187 O 0.98761 0.27206 0.69616 0.0
O188 O 0.98551 0.29852 0.70173 0.0
C189 C 0.03878 0.31612 0.6599 0.0
C190 C 0.97534 0.28709 0.62029 0.0
O191 O 0.98089 0.30296 0.63338 0.0
O192 O 0.98168 0.27584 0.6275 0.0
C193 C 1.01166 0.3577 0.66803 0.0
O194 O 0.02843 0.36046 0.65857 0.0
C195 C 0.98231 0.28181 0.71009 0.0
Zn196 Zn 0.72395 0.64719 0.65924 0.0
Zn197 Zn 0.72567 0.68172 0.661 0.0
O198 O 0.6954 0.6604 0.66283 0.0
O199 O 0.69418 0.63199 0.66107 0.0
O200 O 0.72614 0.70776 0.6596 0.0
O201 O 0.73679 0.65339 0.62348 0.0
O202 O 0.74036 0.68282 0.62584 0.0
C203 C 0.68534 0.64156 0.66252 0.0
C204 C 0.74741 0.67152 0.70448 0.0
O205 O 0.74206 0.68331 0.69538 0.0
O206 O 0.74166 0.65529 0.69264 0.0
C207 C 0.71376 0.71093 0.67137 0.0
O208 O 0.69998 0.69694 0.68628 0.0
C209 C 0.74326 0.6704 0.61366 0.0
Zn210 Zn 0.39989 0.32332 0.65855 0.0
Zn211 Zn 0.36433 0.31986 0.66104 0.0
O212 O 0.38471 0.35022 0.66041 0.0
O213 O 0.41391 0.35277 0.657 0.0
O214 O 0.33758 0.31825 0.65964 0.0
O215 O 0.39195 0.30718 0.62464 0.0
O216 O 0.36229 0.30372 0.62722 0.0
C217 C 0.40364 0.36088 0.65862 0.0
C218 C 0.37842 0.30305 0.70647 0.0
O219 O 0.36485 0.30574 0.69628 0.0
O220 O 0.39474 0.30954 0.69448 0.0
C221 C 0.33236 0.32718 0.67562 0.0
O222 O 0.34456 0.33774 0.69544 0.0
C223 C 0.37431 0.3 0.61548 0.0
Zn224 Zn 0.70974 0.07798 0.66466 0.0
Zn225 Zn 0.71527 0.04758 0.66215 0.0
O226 O 0.68436 0.03485 0.66342 0.0
O227 O 0.6802 0.06036 0.66139 0.0
O228 O 0.71889 0.02407 0.65828 0.0
O229 O 0.72515 0.08963 0.63126 0.0
O230 O 0.72923 0.06418 0.62828 0.0
C231 C 0.67292 0.04192 0.66194 0.0
C232 C 0.73302 0.07662 0.70954 0.0
O233 O 0.73103 0.06172 0.69693 0.0
O234 O 0.72445 0.08552 0.7006 0.0
C235 C 0.71084 1.00895 0.67347 0.0
O236 O 0.69978 1.00836 0.69338 0.0
C237 C 0.7321 0.08058 0.61913 0.0
Zn238 Zn 0.99214 0.71593 0.66133 0.0
Zn239 Zn 0.99028 0.68178 0.66594 0.0
O240 O 1.0206 0.70281 0.66395 0.0
O241 O 1.02188 0.73126 0.6649 0.0
O242 O 0.98981 0.65591 0.67063 0.0
O243 O 0.97552 0.7104 0.69377 0.0
O244 O 0.97619 0.68313 0.70017 0.0
C245 C 0.03071 0.72164 0.66469 0.0
C246 C 0.97049 0.69003 0.6173 0.0
O247 O 0.9734 0.67791 0.63097 0.0
O248 O 0.97816 0.70767 0.62527 0.0
C249 C 1.00127 0.65187 0.65807 0.0
O250 O 1.01379 0.6647 0.64074 0.0
C251 C 0.97088 0.69513 0.70757 0.0
H252 H 0.24211 0.33622 0.10446 0.0
H253 H 0.19705 0.33992 0.058 0.0
H254 H 0.20298 0.34967 0.14433 0.0
H255 H 0.17066 0.33726 0.14101 0.0
H256 H 0.13937 0.36267 0.10359 0.0
H257 H 0.1845 0.3602 0.05947 0.0
C258 C 0.22911 0.33773 0.10353 0.0
C259 C 0.22274 0.3418 0.12733 0.0
C260 C 0.22022 0.33734 0.07842 0.0
C261 C 0.20409 0.34057 0.07734 0.0
C262 C 0.19724 0.34469 0.10112 0.0
C263 C 0.20712 0.34564 0.12592 0.0
C264 C 0.18031 0.34857 0.10051 0.0
C265 C 0.1686 0.34452 0.12365 0.0
C266 C 0.15441 0.3502 0.12509 0.0
C267 C 0.15079 0.35879 0.10269 0.0
C268 C 0.16113 0.36187 0.07885 0.0
C269 C 0.17606 0.35697 0.07772 0.0
H270 H 0.66355 0.89674 0.10133 0.0
H271 H 0.67173 0.85588 0.05567 0.0
H272 H 0.66879 0.8519 0.14286 0.0
H273 H 0.69115 0.84364 0.13885 0.0
H274 H 0.68439 0.79107 0.1053 0.0
H275 H 0.66252 0.82304 0.06026 0.0
C276 C 0.66501 0.88384 0.10094 0.0
C277 C 0.66664 0.87548 0.12513 0.0
C278 C 0.66623 0.87647 0.07601 0.0
C279 C 0.66982 0.86076 0.07506 0.0
C280 C 0.67134 0.85185 0.09927 0.0
C281 C 0.66885 0.85899 0.12404 0.0
C282 C 0.67608 0.83562 0.09946 0.0
C283 C 0.68579 0.83316 0.12237 0.0
C284 C 0.68839 0.81696 0.12486 0.0
C285 C 0.68264 0.80378 0.10338 0.0
C286 C 0.67361 0.80604 0.07999 0.0
C287 C 0.67027 0.82193 0.07795 0.0
H288 H 0.23354 0.92711 0.09392 0.0
H289 H 0.19823 0.87101 0.05477 0.0
H290 H 0.18825 0.87864 0.1379 0.0
H291 H 0.17995 0.84786 0.14025 0.0
H292 H 0.12926 0.79716 0.1056 0.0
H293 H 0.16452 0.84753 0.05565 0.0
C294 C 0.22139 0.91193 0.09445 0.0
C295 C 0.21214 0.90398 0.11897 0.0
C296 C 0.2167 0.9002 0.07131 0.0
C297 C 0.20127 0.88026 0.07228 0.0
C298 C 0.19043 0.87221 0.09615 0.0
C299 C 0.19598 0.88447 0.11924 0.0
C300 C 0.17412 0.85088 0.09788 0.0
C301 C 0.17025 0.84087 0.12289 0.0
C302 C 0.15389 0.82172 0.12598 0.0
C303 C 0.14192 0.81198 0.1034 0.0
C304 C 0.14587 0.82096 0.07796 0.0
C305 C 0.16195 0.84047 0.07519 0.0
H306 H 0.37183 0.13386 0.9009 0.0
H307 H 0.3779 0.18317 0.94417 0.0
H308 H 0.35242 0.17014 0.86302 0.0
H309 H 0.36736 0.20173 0.85861 0.0
H310 H 0.36249 0.2466 0.89835 0.0
H311 H 0.36391 0.20172 0.94582 0.0
C312 C 0.36963 0.14631 0.90151 0.0
C313 C 0.36198 0.15104 0.87881 0.0
C314 C 0.37461 0.15736 0.92522 0.0
C315 C 0.37308 0.17433 0.926 0.0
C316 C 0.36583 0.17987 0.90307 0.0
C317 C 0.35951 0.16739 0.8801 0.0
C318 C 0.36514 0.19863 0.90232 0.0
C319 C 0.36563 0.20765 0.87718 0.0
C320 C 0.36397 0.22448 0.87549 0.0
C321 C 0.36289 0.23309 0.89929 0.0
C322 C 0.36327 0.22518 0.92449 0.0
C323 C 0.36417 0.20787 0.92612 0.0
H324 H 0.80296 0.11643 0.89193 0.0
H325 H 0.85064 0.16136 0.93981 0.0
H326 H 0.84897 0.167 0.85266 0.0
H327 H 0.8802 0.18653 0.85572 0.0
H328 H 0.9227 0.23723 0.90063 0.0
H329 H 0.8705 0.19314 0.93987 0.0
C330 C 0.81722 0.13012 0.89322 0.0
C331 C 0.82581 0.14038 0.86953 0.0
C332 C 0.82583 0.13784 0.91854 0.0
C333 C 0.84394 0.15603 0.92007 0.0
C334 C 0.85311 0.16696 0.8964 0.0
C335 C 0.84332 0.15896 0.87123 0.0
C336 C 0.87254 0.18657 0.89775 0.0
C337 C 0.88448 0.19449 0.87457 0.0
C338 C 0.90203 0.21313 0.87513 0.0
C339 C 0.90879 0.22316 0.89966 0.0
C340 C 0.89763 0.21577 0.92292 0.0
C341 C 0.8793 0.19787 0.92188 0.0
H342 H 0.81215 0.70078 0.89767 0.0
H343 H 0.85365 0.69199 0.94432 0.0
H344 H 0.84689 0.6812 0.85824 0.0
H345 H 0.87888 0.69251 0.86018 0.0
H346 H 0.91177 0.6695 0.89995 0.0
H347 H 0.86821 0.67438 0.94392 0.0
C348 C 0.82367 0.69704 0.89842 0.0
C349 C 0.82888 0.69149 0.87477 0.0
C350 C 0.83193 0.69639 0.92348 0.0
C351 C 0.84718 0.69195 0.92477 0.0
C352 C 0.85374 0.68745 0.90103 0.0
C353 C 0.84374 0.68653 0.87632 0.0
C354 C 0.87046 0.68318 0.90158 0.0
C355 C 0.88138 0.68593 0.87794 0.0
C356 C 0.89602 0.68074 0.87694 0.0
C357 C 0.90054 0.67364 0.90032 0.0
C358 C 0.89106 0.67204 0.92451 0.0
C359 C 0.87582 0.67647 0.92517 0.0
H360 H 0.90809 0.66773 0.4357 0.0
H361 H 0.87627 0.68902 0.3888 0.0
H362 H 0.85751 0.66589 0.46925 0.0
H363 H 0.85159 0.68994 0.47136 0.0
H364 H 0.80689 0.69638 0.42939 0.0
H365 H 0.84342 0.68135 0.38478 0.0
C366 C 0.8953 0.66952 0.43328 0.0
C367 C 0.88326 0.66623 0.45539 0.0
C368 C 0.89254 0.67713 0.40896 0.0
C369 C 0.87751 0.68194 0.40696 0.0
C370 C 0.86469 0.67824 0.42879 0.0
C371 C 0.86735 0.66954 0.45243 0.0
C372 C 0.84941 0.68442 0.42816 0.0
C373 C 0.84391 0.68927 0.45259 0.0
C374 C 0.82829 0.69306 0.45341 0.0
C375 C 0.81919 0.69375 0.42916 0.0
C376 C 0.82495 0.69009 0.40449 0.0
C377 C 0.8398 0.68507 0.40389 0.0
H378 H 0.33869 0.23223 0.43332 0.0
H379 H 0.34733 0.19209 0.38675 0.0
H380 H 0.34087 0.18528 0.47349 0.0
H381 H 0.36196 0.17554 0.47081 0.0
H382 H 0.35605 0.1243 0.43365 0.0
H383 H 0.33807 0.15952 0.38913 0.0
C384 C 0.33976 0.21911 0.43253 0.0
C385 C 0.34013 0.20977 0.45642 0.0
C386 C 0.34175 0.21246 0.40749 0.0
C387 C 0.34479 0.1964 0.40617 0.0
C388 C 0.34509 0.1865 0.4301 0.0
C389 C 0.34188 0.19302 0.45492 0.0
C390 C 0.34928 0.16987 0.42997 0.0
C391 C 0.35737 0.1659 0.45345 0.0
C392 C 0.35924 0.1492 0.45536 0.0
C393 C 0.355 0.13744 0.43249 0.0
C394 C 0.34797 0.14145 0.40849 0.0
C395 C 0.34462 0.15733 0.40734 0.0
H396 H 0.90507 0.25577 0.44185 0.0
H397 H 0.86398 0.206 0.39416 0.0
H398 H 0.85287 0.20975 0.47846 0.0
H399 H 0.83867 0.1786 0.47844 0.0
H400 H 0.79219 0.13003 0.43431 0.0
H401 H 0.83354 0.18168 0.39134 0.0
C402 C 0.8908 0.24217 0.43995 0.0
C403 C 0.87971 0.23361 0.46306 0.0
C404 C 0.88479 0.23261 0.41489 0.0
C405 C 0.86762 0.21368 0.41323 0.0
C406 C 0.85584 0.20465 0.43614 0.0
C407 C 0.86176 0.21545 0.46066 0.0
C408 C 0.83822 0.18376 0.43517 0.0
C409 C 0.83109 0.17275 0.45931 0.0
C410 C 0.8143 0.15363 0.45927 0.0
C411 C 0.80511 0.14486 0.4347 0.0
C412 C 0.81246 0.15476 0.41038 0.0
C413 C 0.82867 0.17426 0.4105 0.0
H414 H 0.05363 0.47219 0.2334 0.0
H415 H 0.04287 0.51112 0.27942 0.0
H416 H 0.05157 0.51922 0.19314 0.0
H417 H 0.02965 0.52819 0.19516 0.0
H418 H 0.03402 0.57871 0.23263 0.0
H419 H 0.05231 0.54383 0.27738 0.0
C420 C 0.05234 0.48519 0.23411 0.0
C421 C 0.05242 0.49476 0.21022 0.0
C422 C 0.04948 0.49136 0.25901 0.0
C423 C 0.04609 0.50719 0.26017 0.0
C424 C 0.04631 0.51737 0.23627 0.0
C425 C 0.05031 0.51131 0.21164 0.0
C426 C 0.0418 0.53377 0.23625 0.0
C427 C 0.03387 0.53771 0.21259 0.0
C428 C 0.03153 0.55415 0.21074 0.0
C429 C 0.0354 0.56575 0.23371 0.0
C430 C 0.0423 0.56174 0.25781 0.0
C431 C 0.04593 0.54605 0.25902 0.0
H432 H 0.48062 0.44799 0.22788 0.0
H433 H 0.52894 0.49568 0.27129 0.0
H434 H 0.52485 0.49726 0.18399 0.0
H435 H 0.5565 0.5161 0.18558 0.0
H436 H 0.59661 0.57157 0.2226 0.0
H437 H 0.54845 0.52752 0.26834 0.0
C438 C 0.49478 0.46181 0.22762 0.0
C439 C 0.50234 0.47122 0.20304 0.0
C440 C 0.50407 0.47089 0.25207 0.0
C441 C 0.52194 0.48924 0.25205 0.0
C442 C 0.53033 0.49903 0.22748 0.0
C443 C 0.51984 0.48988 0.20314 0.0
C444 C 0.54939 0.51891 0.22691 0.0
C445 C 0.56057 0.52558 0.20301 0.0
C446 C 0.57728 0.54466 0.20107 0.0
C447 C 0.58398 0.55663 0.22397 0.0
C448 C 0.57417 0.55016 0.24845 0.0
C449 C 0.55648 0.53165 0.24969 0.0
H450 H 0.47463 0.03283 0.23889 0.0
H451 H 0.50376 1.00565 0.27807 0.0
H452 H 0.51668 0.02568 0.19529 0.0
H453 H 0.52732 1.0062 0.19212 0.0
H454 H 0.56969 0.99549 0.23236 0.0
H455 H 0.53378 1.00958 0.27949 0.0
C456 C 0.48545 0.02819 0.2384 0.0
C457 C 0.49437 0.02899 0.21399 0.0
C458 C 0.48859 0.01967 0.26145 0.0
C459 C 0.50223 1.01309 0.26055 0.0
C460 C 0.51323 1.01561 0.23699 0.0
C461 C 0.50906 0.02381 0.21387 0.0
C462 C 0.52831 1.00906 0.23596 0.0
C463 C 0.5343 1.00559 0.21085 0.0
C464 C 0.54961 1.00134 0.20926 0.0
C465 C 0.55773 0.99859 0.23314 0.0
C466 C 0.55153 1.0009 0.25828 0.0
C467 C 0.53736 1.00673 0.25978 0.0
H468 H 0.57009 0.99993 0.76713 0.0
H469 H 0.5277 1.00769 0.72095 0.0
H470 H 0.53638 0.02074 0.80643 0.0
H471 H 0.50467 1.00981 0.80566 0.0
H472 H 0.46786 0.0275 0.76426 0.0
H473 H 0.51363 0.02593 0.72102 0.0
C474 C 0.55864 1.00376 0.76641 0.0
C475 C 0.55387 1.00983 0.78997 0.0
C476 C 0.54984 1.00377 0.74149 0.0
C477 C 0.53467 1.00832 0.74032 0.0
C478 C 0.5287 1.01355 0.76397 0.0
C479 C 0.53915 1.01499 0.78847 0.0
C480 C 0.51181 0.01756 0.76351 0.0
C481 C 0.50115 1.01505 0.78736 0.0
C482 C 0.48581 0.01928 0.78804 0.0
C483 C 0.48027 0.02503 0.76429 0.0
C484 C 0.49002 0.02712 0.74021 0.0
C485 C 0.50594 0.02366 0.73974 0.0
H486 H 1.00799 0.56496 0.7684 0.0
H487 H 1.01442 0.52258 0.72373 0.0
H488 H 1.00998 0.51865 0.81084 0.0
H489 H 0.03076 0.50835 0.80795 0.0
H490 H 1.02037 0.45413 0.77499 0.0
H491 H 1.00416 0.48977 0.72794 0.0
C492 C 1.00885 0.5517 0.76826 0.0
C493 C 1.0094 0.54291 0.7926 0.0
C494 C 1.0101 0.54413 0.74354 0.0
C495 C 1.01262 0.52773 0.74297 0.0
C496 C 1.01323 0.51846 0.76736 0.0
C497 C 1.0108 0.52594 0.7919 0.0
C498 C 1.01665 0.50134 0.76797 0.0
C499 C 0.02509 0.49787 0.79148 0.0
C500 C 0.02598 0.48069 0.79454 0.0
C501 C 1.02001 0.46761 0.77286 0.0
C502 C 1.01264 0.47104 0.74871 0.0
C503 C 1.01079 0.48781 0.74624 0.0
H504 H 0.57274 0.58984 0.76536 0.0
H505 H 0.53325 0.53613 0.72336 0.0
H506 H 0.52238 0.54405 0.80617 0.0
H507 H 0.51179 0.51247 0.80825 0.0
H508 H 0.46146 0.46332 0.77022 0.0
H509 H 0.49957 0.51427 0.72288 0.0
C510 C 0.55894 0.57567 0.76493 0.0
C511 C 0.54837 0.56802 0.78868 0.0
C512 C 0.55329 0.56442 0.74127 0.0
C513 C 0.53667 0.54511 0.74127 0.0
C514 C 0.5251 0.53733 0.76463 0.0
C515 C 0.53094 0.54933 0.78798 0.0
C516 C 0.50777 0.51647 0.76555 0.0
C517 C 0.50264 0.50603 0.79027 0.0
C518 C 0.4858 0.48704 0.7922 0.0
C519 C 0.47445 0.47802 0.76889 0.0
C520 C 0.47947 0.48756 0.74383 0.0
C521 C 0.49611 0.50682 0.74218 0.0
H522 H 0.71214 0.80231 0.56594 0.0
H523 H 0.7034 0.84279 0.61144 0.0
H524 H 0.71196 0.85003 0.52499 0.0
H525 H 0.69235 0.8615 0.52626 0.0
H526 H 0.69752 0.91204 0.56468 0.0
H527 H 0.71262 0.87488 0.60977 0.0
C528 C 0.71129 0.81557 0.56648 0.0
C529 C 0.71176 0.82519 0.54249 0.0
C530 C 0.70885 0.82218 0.59127 0.0
C531 C 0.70623 0.8385 0.59219 0.0
C532 C 0.70679 0.84873 0.56816 0.0
C533 C 0.71034 0.84215 0.54362 0.0
C534 C 0.70329 0.86583 0.56798 0.0
C535 C 0.69644 0.87069 0.54401 0.0
C536 C 0.69485 0.88758 0.54232 0.0
C537 C 0.69844 0.89881 0.56559 0.0
C538 C 0.70424 0.89392 0.58994 0.0
C539 C 0.70713 0.87777 0.59109 0.0
H540 H 0.14919 0.77491 0.57262 0.0
H541 H 0.18473 0.82857 0.6172 0.0
H542 H 0.20123 0.82243 0.53696 0.0
H543 H 0.20694 0.85304 0.53427 0.0
H544 H 0.25599 0.90363 0.57192 0.0
H545 H 0.21938 0.85222 0.61964 0.0
C546 C 0.16265 0.78931 0.57431 0.0
C547 C 0.17457 0.79762 0.55178 0.0
C548 C 0.16655 0.80019 0.59814 0.0
C549 C 0.18264 0.81982 0.59944 0.0
C550 C 0.19533 0.82824 0.57728 0.0
C551 C 0.19152 0.81654 0.55407 0.0
C552 C 0.21149 0.84956 0.57686 0.0
C553 C 0.21604 0.85995 0.55217 0.0
C554 C 0.23226 0.87924 0.55007 0.0
C555 C 0.24339 0.8887 0.57333 0.0
C556 C 0.23866 0.87926 0.59848 0.0
C557 C 0.22267 0.85963 0.6003 0.0
H558 H 0.15025 0.37354 0.56218 0.0
H559 H 0.19355 0.36875 0.61109 0.0
H560 H 0.19278 0.36428 0.52396 0.0
H561 H 0.22417 0.37537 0.52885 0.0
H562 H 0.25549 0.35055 0.56819 0.0
H563 H 0.20957 0.35249 0.6103 0.0
C564 C 0.16358 0.37261 0.56381 0.0
C565 C 0.17156 0.37029 0.54029 0.0
C566 C 0.17107 0.3716 0.58937 0.0
C567 C 0.1877 0.36915 0.59126 0.0
C568 C 0.19637 0.36702 0.56771 0.0
C569 C 0.18761 0.36714 0.54237 0.0
C570 C 0.21377 0.36372 0.569 0.0
C571 C 0.22591 0.36793 0.54619 0.0
C572 C 0.24062 0.36281 0.54536 0.0
C573 C 0.24427 0.3547 0.5684 0.0
C574 C 0.23366 0.35175 0.59195 0.0
C575 C 0.21817 0.35584 0.59222 0.0
H576 H 0.99471 0.41069 0.08713 0.0
H577 H 0.05545 0.42744 0.07103 0.0
H578 H 1.00636 0.43498 0.12287 0.0
H579 H 0.06726 0.45227 0.10701 0.0
H580 H 0.07368 0.47748 0.19549 0.0
H581 H 0.06684 0.45607 0.1566 0.0
H582 H 1.02383 0.47065 0.126 0.0
H583 H 0.02983 0.49112 0.16533 0.0
C584 C 1.01061 0.41956 0.09125 0.0
C585 C 1.02416 0.41722 0.07607 0.0
C586 C 1.0173 0.43366 0.11162 0.0
C587 C 0.03777 0.44591 0.11735 0.0
C588 C 0.05139 0.4431 0.10296 0.0
C589 C 0.04464 0.42886 0.08245 0.0
C590 C 0.0629 0.47626 0.18031 0.0
C591 C 0.05203 0.48575 0.18384 0.0
C592 C 0.05911 0.46411 0.15792 0.0
C593 C 0.04445 0.46129 0.13857 0.0
C594 C 0.03486 0.47212 0.14094 0.0
C595 C 0.03855 0.48414 0.16333 0.0
H596 H 0.6196 0.57735 0.03644 0.0
H597 H 0.64496 0.63196 0.08101 0.0
H598 H 0.60264 0.55892 0.07677 0.0
H599 H 0.62817 0.61333 0.12167 0.0
H600 H 0.61719 0.56894 0.19178 0.0
H601 H 0.63249 0.58684 0.15044 0.0
H602 H 0.57517 0.55676 0.10932 0.0
H603 H 0.55953 0.53946 0.15101 0.0
C604 C 0.62147 0.58541 0.05486 0.0
C605 C 0.63366 0.60608 0.05567 0.0
C606 C 0.6117 0.57486 0.07785 0.0
C607 C 0.61424 0.58473 0.10224 0.0
C608 C 0.62614 0.60542 0.10305 0.0
C609 C 0.63561 0.61605 0.07983 0.0
C610 C 0.60778 0.56617 0.174 0.0
C611 C 0.58706 0.55293 0.17486 0.0
C612 C 0.61657 0.57644 0.15038 0.0
C613 C 0.60492 0.57338 0.12695 0.0
C614 C 0.58442 0.5594 0.12725 0.0
C615 C 0.57553 0.54936 0.15104 0.0
H616 H 0.42095 0.03828 0.085 0.0
H617 H 0.44976 1.00882 0.05345 0.0
H618 H 0.44256 0.04742 0.1256 0.0
H619 H 0.47151 0.0183 0.0935 0.0
H620 H 0.51391 0.04732 0.16669 0.0
H621 H 0.49863 0.0489 0.12366 0.0
H622 H 0.44106 0.02085 0.16045 0.0
H623 H 0.45556 0.0178 0.20232 0.0
C624 C 0.43222 0.03422 0.08644 0.0
C625 C 0.43351 0.02261 0.06635 0.0
C626 C 0.44456 0.03946 0.10957 0.0
C627 C 0.45869 0.03357 0.11256 0.0
C628 C 0.46091 0.0232 0.09156 0.0
C629 C 0.44831 0.0176 0.0688 0.0
C630 C 0.49801 0.0415 0.16568 0.0
C631 C 0.48614 0.03257 0.18837 0.0
C632 C 0.48934 0.04262 0.1411 0.0
C633 C 0.46874 0.03527 0.13895 0.0
C634 C 0.45705 0.02709 0.16174 0.0
C635 C 0.46553 0.02549 0.18592 0.0
H636 H 0.40386 0.97396 0.9204 0.0
H637 H 0.43422 0.03703 0.93175 0.0
H638 H 0.42297 0.97864 0.88022 0.0
H639 H 0.45414 0.0418 0.89223 0.0
H640 H 0.47383 0.04397 0.80606 0.0
H641 H 0.45393 0.03985 0.84506 0.0
H642 H 0.45529 0.98756 0.86763 0.0
H643 H 0.47387 0.99084 0.82735 0.0
C644 C 0.41465 0.98885 0.91425 0.0
C645 C 0.41758 1.00514 0.92919 0.0
C646 C 0.42578 0.99154 0.89138 0.0
C647 C 0.44036 1.01058 0.88314 0.0
C648 C 0.44293 0.02692 0.89777 0.0
C649 C 0.43153 0.02422 0.92045 0.0
C650 C 0.46968 0.03145 0.81917 0.0
C651 C 0.47525 0.01759 0.81335 0.0
C652 C 0.45849 0.02924 0.8418 0.0
C653 C 0.45284 1.01329 0.85948 0.0
C654 C 0.45899 0.9998 0.85416 0.0
C655 C 0.46996 1.00185 0.83128 0.0
H656 H 0.98836 0.41262 0.93454 0.0
H657 H 0.04833 0.42326 0.93384 0.0
H658 H 0.99557 0.43449 0.89646 0.0
H659 H 0.05572 0.4457 0.89543 0.0
H660 H 0.0472 0.4623 0.80564 0.0
H661 H 0.04661 0.44525 0.84729 0.0
H662 H 1.01479 0.4692 0.88592 0.0
H663 H 1.01437 0.48528 0.84406 0.0
C664 C 1.00316 0.4197 0.92632 0.0
C665 C 1.01779 0.4162 0.93736 0.0
C666 C 1.00737 0.43245 0.90458 0.0
C667 C 0.02635 0.44219 0.89321 0.0
C668 C 0.04096 0.43846 0.90381 0.0
C669 C 0.03672 0.42559 0.92575 0.0
C670 C 0.04028 0.46411 0.82313 0.0
C671 C 0.03043 0.47481 0.82127 0.0
C672 C 0.04011 0.45447 0.84708 0.0
C673 C 0.03021 0.45546 0.86971 0.0
C674 C 1.02209 0.46772 0.8686 0.0
C675 C 1.02212 0.47721 0.84466 0.0
H676 H 0.63746 0.60008 0.90586 0.0
H677 H 0.62087 0.64254 0.92695 0.0
H678 H 0.61134 0.58649 0.8713 0.0
H679 H 0.59451 0.62876 0.89175 0.0
H680 H 0.55113 0.55091 0.83525 0.0
H681 H 0.5735 0.56721 0.87358 0.0
H682 H 0.59059 0.62401 0.8392 0.0
H683 H 0.56771 0.60767 0.80081 0.0
C684 C 0.62837 0.60667 0.90301 0.0
C685 C 0.6312 0.62233 0.91939 0.0
C686 C 0.61326 0.59873 0.88331 0.0
C687 C 0.60062 0.60629 0.87928 0.0
C688 C 0.60397 0.62258 0.89463 0.0
C689 C 0.61908 0.63048 0.91467 0.0
C690 C 0.55904 0.56686 0.83623 0.0
C691 C 0.55778 0.57798 0.81477 0.0
C692 C 0.57207 0.5762 0.85806 0.0
C693 C 0.5841 0.59685 0.859 0.0
C694 C 0.58157 0.60807 0.83887 0.0
C695 C 0.56853 0.5987 0.81689 0.0
H696 H 1.00207 0.60753 0.93144 0.0
H697 H 0.06386 0.62565 0.9212 0.0
H698 H 0.99251 0.5839 0.89443 0.0
H699 H 0.05442 0.60256 0.88416 0.0
H700 H 0.0327 0.54757 0.8372 0.0
H701 H 0.03809 0.56764 0.87687 0.0
H702 H 0.99474 0.58165 0.84588 0.0
H703 H 0.98855 0.56068 0.80677 0.0
C704 C 1.01361 0.60664 0.92113 0.0
C705 C 0.03371 0.61841 0.92939 0.0
C706 C 1.00814 0.5931 0.89994 0.0
C707 C 1.02267 0.5911 0.88659 0.0
C708 C 0.04278 0.6033 0.89443 0.0
C709 C 0.04822 0.61671 0.91556 0.0
C710 C 1.02389 0.55446 0.83915 0.0
C711 C 1.01034 0.55265 0.8186 0.0
C712 C 0.02722 0.56625 0.86173 0.0
C713 C 1.01717 0.57662 0.86429 0.0
C714 C 1.00276 0.57391 0.84455 0.0
C715 C 0.99936 0.56202 0.82199 0.0
H716 H 0.42921 0.40602 0.92908 0.0
H717 H 0.41146 0.44951 0.92686 0.0
H718 H 0.45204 0.42317 0.89205 0.0
H719 H 0.43361 0.46615 0.8899 0.0
H720 H 0.48529 0.50339 0.8402 0.0
H721 H 0.46834 0.48617 0.88101 0.0
H722 H 0.45241 0.4305 0.84437 0.0
H723 H 0.47044 0.44786 0.80414 0.0
C724 C 0.43002 0.41908 0.92053 0.0
C725 C 0.4186 0.42645 0.931 0.0
C726 C 0.44312 0.42893 0.89939 0.0
C727 C 0.44495 0.44627 0.88833 0.0
C728 C 0.43309 0.45323 0.89844 0.0
C729 C 0.42018 0.44352 0.9195 0.0
C730 C 0.47873 0.48755 0.84113 0.0
C731 C 0.4789 0.47699 0.81868 0.0
C732 C 0.46874 0.47762 0.8644 0.0
C733 C 0.45852 0.45689 0.86568 0.0
C734 C 0.46002 0.44645 0.84406 0.0
C735 C 0.47018 0.45641 0.82086 0.0
H736 H 0.63166 1.00664 0.91776 0.0
H737 H 0.60821 0.04111 0.9494 0.0
H738 H 0.6109 1.0001 0.87669 0.0
H739 H 0.5874 0.03429 0.90888 0.0
H740 H 0.53952 1.0015 0.8416 0.0
H741 H 0.55798 1.00434 0.88356 0.0
H742 H 0.61148 0.02395 0.83867 0.0
H743 H 0.59355 0.02216 0.79701 0.0
C744 C 0.62193 1.0126 0.91609 0.0
C745 C 0.62168 0.02452 0.93666 0.0
C746 C 0.61013 1.00892 0.89262 0.0
C747 C 0.59756 0.0167 0.88969 0.0
C748 C 0.59682 0.028 0.9107 0.0
C749 C 0.60886 0.032 0.93379 0.0
C750 C 0.55526 1.00662 0.84065 0.0
C751 C 0.56494 1.01148 0.81576 0.0
C752 C 0.56576 1.00807 0.86466 0.0
C753 C 0.58608 1.01412 0.86426 0.0
C754 C 0.59573 0.01885 0.83948 0.0
C755 C 0.58537 0.01775 0.81559 0.0
H756 H 0.61256 0.99344 0.06883 0.0
H757 H 0.63624 0.05482 0.08792 0.0
H758 H 0.58848 0.98392 0.10496 0.0
H759 H 0.61275 0.04541 0.1241 0.0
H760 H 0.55731 0.02693 0.16743 0.0
H761 H 0.57769 0.0321 0.12854 0.0
H762 H 0.58479 0.98353 0.15365 0.0
H763 H 0.56337 0.97759 0.19186 0.0
C764 C 0.61285 1.00487 0.08101 0.0
C765 C 0.6262 0.02488 0.07537 0.0
C766 C 0.59903 0.99943 0.10165 0.0
C767 C 0.59837 1.01391 0.11706 0.0
C768 C 0.61237 0.03386 0.1121 0.0
C769 C 0.62602 0.03927 0.0915 0.0
C770 C 0.56266 0.01693 0.16428 0.0
C771 C 0.55886 1.00199 0.18304 0.0
C772 C 0.57467 0.02012 0.14218 0.0
C773 C 0.58335 1.00857 0.13836 0.0
C774 C 0.57846 0.99277 0.15604 0.0
C775 C 0.5663 0.98948 0.17809 0.0
H776 H 0.06778 0.62633 0.07282 0.0
H777 H 1.00581 0.6097 0.07166 0.0
H778 H 0.06209 0.60488 0.11101 0.0
H779 H 1.00001 0.58772 0.11022 0.0
H780 H 1.00851 0.57071 0.19975 0.0
H781 H 1.00871 0.58832 0.15882 0.0
H782 H 0.04548 0.56996 0.12051 0.0
H783 H 0.04617 0.5533 0.16162 0.0
C784 C 0.05287 0.61805 0.08067 0.0
C785 C 0.03722 0.6197 0.069 0.0
C786 C 0.04956 0.60555 0.1025 0.0
C787 C 0.0305 0.59424 0.11337 0.0
C788 C 1.01486 0.5962 0.10225 0.0
C789 C 1.01819 0.6088 0.08021 0.0
C790 C 1.0165 0.57029 0.1825 0.0
C791 C 0.02764 0.56087 0.18424 0.0
C792 C 1.01645 0.58025 0.15895 0.0
C793 C 0.02748 0.58093 0.13661 0.0
C794 C 0.03722 0.57013 0.13761 0.0
C795 C 0.03737 0.5603 0.16112 0.0
H796 H 0.41129 0.43936 0.08199 0.0
H797 H 0.43103 0.39895 0.06349 0.0
H798 H 0.43571 0.45316 0.11867 0.0
H799 H 0.45597 0.41316 0.10026 0.0
H800 H 0.48369 0.4325 0.18738 0.0
H801 H 0.4603 0.41689 0.14947 0.0
H802 H 0.47147 0.47394 0.12327 0.0
H803 H 0.49408 0.48938 0.16173 0.0
C804 C 0.42083 0.43336 0.08581 0.0
C805 C 0.4193 0.41813 0.06966 0.0
C806 C 0.43499 0.44143 0.10673 0.0
C807 C 0.44811 0.43458 0.11204 0.0
C808 C 0.44609 0.41879 0.09665 0.0
C809 C 0.43179 0.41061 0.07564 0.0
C810 C 0.4812 0.4417 0.17342 0.0
C811 C 0.49062 0.46217 0.17773 0.0
C812 C 0.46792 0.43277 0.15158 0.0
C813 C 0.46377 0.44412 0.13358 0.0
C814 C 0.47401 0.46471 0.1371 0.0
C815 C 0.48723 0.47362 0.15894 0.0
H816 H 0.65754 0.74308 0.41468 0.0
H817 H 0.71922 0.76154 0.40242 0.0
H818 H 0.6674 0.76595 0.45208 0.0
H819 H 0.72919 0.78488 0.43994 0.0
H820 H 0.73303 0.80785 0.52849 0.0
H821 H 0.72706 0.787 0.48924 0.0
H822 H 0.68416 0.80144 0.45766 0.0
H823 H 0.68941 0.82146 0.49732 0.0
C824 C 0.67324 0.75199 0.42003 0.0
C825 C 0.6876 0.75057 0.40543 0.0
C826 C 0.67891 0.76527 0.44134 0.0
C827 C 0.69912 0.77758 0.4486 0.0
C828 C 0.7135 0.77563 0.43477 0.0
C829 C 0.70779 0.76223 0.41335 0.0
C830 C 0.72245 0.80669 0.51303 0.0
C831 C 0.71148 0.81609 0.51626 0.0
C832 C 0.71914 0.79486 0.49045 0.0
C833 C 0.70483 0.79223 0.47063 0.0
C834 C 0.69495 0.80278 0.47292 0.0
C835 C 0.69819 0.81453 0.49549 0.0
H836 H 0.27903 0.95696 0.40796 0.0
H837 H 0.29942 0.91554 0.40696 0.0
H838 H 0.26 0.94095 0.44849 0.0
H839 H 0.28113 0.9001 0.44751 0.0
H840 H 0.23253 0.86261 0.50223 0.0
H841 H 0.24742 0.87929 0.46033 0.0
H842 H 0.26298 0.93515 0.49598 0.0
H843 H 0.24681 0.91825 0.53745 0.0
C844 C 0.27967 0.94465 0.41662 0.0
C845 C 0.29055 0.93738 0.40417 0.0
C846 C 0.26878 0.93547 0.43978 0.0
C847 C 0.26871 0.91898 0.45093 0.0
C848 C 0.2803 0.91234 0.43899 0.0
C849 C 0.29096 0.92134 0.41586 0.0
C850 C 0.23858 0.87836 0.50096 0.0
C851 C 0.2387 0.8891 0.5234 0.0
C852 C 0.24744 0.888 0.47703 0.0
C853 C 0.25687 0.90864 0.47503 0.0
C854 C 0.25593 0.91926 0.49686 0.0
C855 C 0.24686 0.90958 0.52075 0.0
H856 H 0.10525 0.37594 0.39674 0.0
H857 H 0.07973 0.31526 0.42173 0.0
H858 H 0.13066 0.38615 0.43295 0.0
H859 H 0.10461 0.32537 0.45768 0.0
H860 H 0.16176 0.34333 0.49995 0.0
H861 H 0.14015 0.33772 0.4607 0.0
H862 H 0.13545 0.38782 0.48272 0.0
H863 H 0.15784 0.39397 0.52146 0.0
C864 C 0.10486 0.36486 0.41019 0.0
C865 C 0.09062 0.34479 0.40621 0.0
C866 C 0.11943 0.37067 0.43082 0.0
C867 C 0.11995 0.35649 0.44774 0.0
C868 C 0.10506 0.33659 0.44447 0.0
C869 C 0.09065 0.33083 0.42398 0.0
C870 C 0.15663 0.35351 0.49601 0.0
C871 C 0.16137 0.36898 0.51398 0.0
C872 C 0.14399 0.35013 0.47373 0.0
C873 C 0.13571 0.36206 0.46896 0.0
C874 C 0.14152 0.37833 0.48586 0.0
C875 C 0.15423 0.38176 0.50814 0.0
H876 H 0.09696 0.31415 0.27989 0.0
H877 H 0.08032 0.35517 0.24915 0.0
H878 H 0.11651 0.31929 0.24024 0.0
H879 H 0.09929 0.3597 0.20852 0.0
H880 H 0.15093 0.37798 0.15184 0.0
H881 H 0.13203 0.37374 0.19229 0.0
H882 H 0.11336 0.31188 0.19408 0.0
H883 H 0.13301 0.31648 0.15424 0.0
C884 C 0.09731 0.32414 0.26446 0.0
C885 C 0.08702 0.3342 0.26759 0.0
C886 C 0.10845 0.32699 0.24158 0.0
C887 C 0.10938 0.33977 0.22099 0.0
C888 C 0.09912 0.34992 0.22413 0.0
C889 C 0.08815 0.34726 0.24731 0.0
C890 C 0.1428 0.36351 0.16104 0.0
C891 C 0.14341 0.34755 0.15009 0.0
C892 C 0.13185 0.36103 0.18407 0.0
C893 C 0.12108 0.34246 0.19646 0.0
C894 C 0.12175 0.32648 0.18539 0.0
C895 C 0.13294 0.32905 0.16255 0.0
H896 H 0.69687 0.74071 0.2407 0.0
H897 H 0.68992 0.78088 0.29069 0.0
H898 H 0.70213 0.76187 0.20154 0.0
H899 H 0.69651 0.80276 0.25239 0.0
H900 H 0.67391 0.81662 0.17408 0.0
H901 H 0.67781 0.80205 0.21524 0.0
H902 H 0.72004 0.79107 0.17635 0.0
H903 H 0.7154 0.80513 0.13456 0.0
C904 C 0.69712 0.75441 0.24339 0.0
C905 C 0.69275 0.75912 0.26845 0.0
C906 C 0.70022 0.76663 0.22103 0.0
C907 C 0.69937 0.78394 0.22358 0.0
C908 C 0.69662 0.78929 0.24935 0.0
C909 C 0.69302 0.77686 0.27139 0.0
C910 C 0.68445 0.81161 0.17452 0.0
C911 C 0.69431 0.81198 0.15109 0.0
C912 C 0.68675 0.80321 0.19822 0.0
C913 C 0.69919 0.7952 0.19927 0.0
C914 C 0.71002 0.7967 0.17621 0.0
C915 C 0.70752 0.8049 0.15233 0.0
H916 H 0.25563 0.91774 0.27839 0.0
H917 H 0.29153 0.97784 0.25087 0.0
H918 H 0.23415 0.90963 0.23827 0.0
H919 H 0.27014 0.96953 0.21012 0.0
H920 H 0.25185 0.92913 0.1305 0.0
H921 H 0.26764 0.94453 0.17289 0.0
H922 H 0.21022 0.91828 0.20985 0.0
H923 H 0.19384 0.90372 0.16645 0.0
C924 C 0.25871 0.92929 0.26392 0.0
C925 C 0.27536 0.94835 0.26749 0.0
C926 C 0.24629 0.92469 0.24112 0.0
C927 C 0.2505 0.93895 0.22117 0.0
C928 C 0.26658 0.9583 0.22533 0.0
C929 C 0.27879 0.96305 0.24854 0.0
C930 C 0.24229 0.92724 0.14708 0.0
C931 C 0.22137 0.91515 0.14462 0.0
C932 C 0.2515 0.93608 0.17156 0.0
C933 C 0.24016 0.9327 0.19455 0.0
C934 C 0.21927 0.92114 0.19228 0.0
C935 C 0.20994 0.91264 0.16747 0.0
H936 H 0.72485 0.95949 0.25102 0.0
H937 H 0.66357 0.94138 0.2658 0.0
H938 H 0.71412 0.93613 0.21416 0.0
H939 H 0.65269 0.91742 0.22891 0.0
H940 H 0.64583 0.89298 0.14102 0.0
H941 H 0.65312 0.91436 0.18002 0.0
H942 H 0.69772 0.90116 0.20792 0.0
H943 H 0.6913 0.88079 0.16835 0.0
C944 C 0.70903 0.95049 0.24642 0.0
C945 C 0.69506 0.95225 0.26149 0.0
C946 C 0.70286 0.93692 0.22538 0.0
C947 C 0.68251 0.92458 0.21888 0.0
C948 C 0.66849 0.9267 0.2334 0.0
C949 C 0.67471 0.94043 0.25451 0.0
C950 C 0.65716 0.8946 0.15554 0.0
C951 C 0.66818 0.88536 0.15126 0.0
C952 C 0.66119 0.90672 0.17804 0.0
C953 C 0.67628 0.9098 0.19684 0.0
C954 C 0.68634 0.89951 0.19348 0.0
C955 C 0.68241 0.88753 0.17096 0.0
H956 H 0.10559 0.74371 0.26736 0.0
H957 H 0.0881 0.78729 0.27025 0.0
H958 H 0.12554 0.76007 0.22771 0.0
H959 H 0.10723 0.8031 0.23041 0.0
H960 H 0.15506 0.83909 0.17392 0.0
H961 H 0.14042 0.82287 0.21624 0.0
H962 H 0.12337 0.76645 0.18103 0.0
H963 H 0.13931 0.78286 0.13931 0.0
C964 C 0.1058 0.75661 0.25932 0.0
C965 C 0.09536 0.76427 0.27199 0.0
C966 C 0.11723 0.766 0.23663 0.0
C967 C 0.11828 0.78312 0.22607 0.0
C968 C 0.10732 0.79034 0.23841 0.0
C969 C 0.09613 0.78113 0.26113 0.0
C970 C 0.14875 0.82331 0.17542 0.0
C971 C 0.14809 0.81227 0.15301 0.0
C972 C 0.14003 0.81393 0.19959 0.0
C973 C 0.1302 0.79326 0.20185 0.0
C974 C 0.13072 0.78236 0.18005 0.0
C975 C 0.13968 0.79178 0.15598 0.0
H976 H 0.31485 0.39329 0.24922 0.0
H977 H 0.28612 0.33164 0.27066 0.0
H978 H 0.29101 0.38533 0.21229 0.0
H979 H 0.26176 0.32364 0.23368 0.0
H980 H 0.23556 0.31742 0.14623 0.0
H981 H 0.25775 0.3228 0.18483 0.0
H982 H 0.25646 0.37497 0.20589 0.0
H983 H 0.23504 0.37009 0.16661 0.0
C984 C 0.30343 0.37798 0.24603 0.0
C985 C 0.30235 0.36311 0.26304 0.0
C986 C 0.2896 0.37344 0.22495 0.0
C987 C 0.27418 0.3539 0.2203 0.0
C988 C 0.27345 0.33886 0.2367 0.0
C989 C 0.28742 0.34342 0.25785 0.0
C990 C 0.23997 0.33001 0.15918 0.0
C991 C 0.2337 0.34345 0.15314 0.0
C992 C 0.25256 0.33299 0.18145 0.0
C993 C 0.25915 0.34948 0.19826 0.0
C994 C 0.25202 0.36234 0.19302 0.0
C995 C 0.23948 0.35939 0.17071 0.0
H996 H 0.3121 0.35185 0.42255 0.0
H997 H 0.29379 0.39043 0.38726 0.0
H998 H 0.29347 0.34891 0.46325 0.0
H999 H 0.27507 0.38721 0.42745 0.0
H1000 H 0.22659 0.35696 0.49291 0.0
H1001 H 0.24439 0.3589 0.45215 0.0
H1002 H 0.29731 0.37477 0.50012 0.0
H1003 H 0.27999 0.37383 0.5408 0.0
C1004 C 0.304 0.35954 0.4234 0.0
C1005 C 0.3045 0.37145 0.40182 0.0
C1006 C 0.29344 0.35794 0.44666 0.0
C1007 C 0.28288 0.36786 0.4484 0.0
C1008 C 0.283 0.37933 0.42655 0.0
C1009 C 0.29381 0.38124 0.40363 0.0
C1010 C 0.24212 0.36124 0.49481 0.0
C1011 C 0.25178 0.36518 0.52027 0.0
C1012 C 0.25223 0.36215 0.47147 0.0
C1013 C 0.27211 0.36672 0.47311 0.0
C1014 C 0.28186 0.37083 0.4984 0.0
C1015 C 0.27189 0.37026 0.52168 0.0
H1016 H 0.73241 0.96068 0.40422 0.0
H1017 H 0.67061 0.9446 0.40395 0.0
H1018 H 0.72676 0.93919 0.4424 0.0
H1019 H 0.66484 0.92256 0.44236 0.0
H1020 H 0.67249 0.90478 0.53117 0.0
H1021 H 0.67331 0.92286 0.49048 0.0
H1022 H 0.71027 0.90453 0.45259 0.0
H1023 H 0.71031 0.88737 0.49358 0.0
C1024 C 0.71754 0.95251 0.41227 0.0
C1025 C 0.70194 0.95435 0.40088 0.0
C1026 C 0.71426 0.93998 0.43408 0.0
C1027 C 0.69526 0.92882 0.44518 0.0
C1028 C 0.67966 0.93094 0.43427 0.0
C1029 C 0.68297 0.94357 0.41229 0.0
C1030 C 0.68068 0.9045 0.51407 0.0
C1031 C 0.69163 0.89488 0.51589 0.0
C1032 C 0.68099 0.91472 0.49064 0.0
C1033 C 0.6922 0.9155 0.46845 0.0
C1034 C 0.70188 0.90464 0.46956 0.0
C1035 C 0.70165 0.89452 0.49297 0.0
H1036 H 0.0864 0.72596 0.43321 0.0
H1037 H 0.13138 0.77314 0.38561 0.0
H1038 H 0.10959 0.73679 0.47211 0.0
H1039 H 0.15498 0.78332 0.42357 0.0
H1040 H 0.17468 0.81558 0.50469 0.0
H1041 H 0.15734 0.80039 0.46293 0.0
H1042 H 0.13943 0.74281 0.49562 0.0
H1043 H 0.15682 0.75826 0.53815 0.0
C1044 C 0.10149 0.73822 0.43091 0.0
C1045 C 0.10716 0.7489 0.40673 0.0
C1046 C 0.11483 0.74441 0.45308 0.0
C1047 C 0.1341 0.76121 0.45118 0.0
C1048 C 0.14013 0.77071 0.42607 0.0
C1049 C 0.1267 0.76481 0.40424 0.0
C1050 C 0.16765 0.79973 0.50282 0.0
C1051 C 0.16721 0.78817 0.52484 0.0
C1052 C 0.1576 0.79093 0.47871 0.0
C1053 C 0.14689 0.77029 0.47576 0.0
C1054 C 0.14728 0.75872 0.4973 0.0
C1055 C 0.15731 0.76757 0.52161 0.0
H1056 H 0.36294 0.07469 0.75553 0.0
H1057 H 0.32471 0.09422 0.7212 0.0
H1058 H 0.36807 0.09445 0.79609 0.0
H1059 H 0.33026 0.11421 0.76127 0.0
H1060 H 0.36756 0.16409 0.8263 0.0
H1061 H 0.36236 0.14493 0.78538 0.0
H1062 H 0.34199 0.09233 0.8332 0.0
H1063 H 0.34598 0.11102 0.874 0.0
C1064 C 0.35581 0.08331 0.75655 0.0
C1065 C 0.34335 0.08284 0.73531 0.0
C1066 C 0.35867 0.09452 0.77972 0.0
C1067 C 0.34952 0.10578 0.78167 0.0
C1068 C 0.33751 0.1057 0.76016 0.0
C1069 C 0.33429 0.09419 0.73734 0.0
C1070 C 0.36156 0.14838 0.82813 0.0
C1071 C 0.35735 0.13919 0.8536 0.0
C1072 C 0.35879 0.13748 0.80471 0.0
C1073 C 0.3521 0.11728 0.80631 0.0
C1074 C 0.34755 0.10799 0.83156 0.0
C1075 C 0.3499 0.11876 0.8549 0.0
H1076 H 0.98194 0.25248 0.7398 0.0
H1077 H 0.9577 0.29072 0.73678 0.0
H1078 H 0.96222 0.2359 0.77908 0.0
H1079 H 0.93722 0.27356 0.77551 0.0
H1080 H 0.91825 0.25175 0.861 0.0
H1081 H 0.93811 0.26871 0.82216 0.0
H1082 H 0.92927 0.21356 0.79234 0.0
H1083 H 0.91047 0.19676 0.83245 0.0
C1084 C 0.97234 0.25733 0.74754 0.0
C1085 C 0.9714 0.27294 0.73521 0.0
C1086 C 0.96085 0.24766 0.76993 0.0
C1087 C 0.9479 0.25318 0.78039 0.0
C1088 C 0.94718 0.26902 0.76825 0.0
C1089 C 0.95891 0.27888 0.74601 0.0
C1090 C 0.92076 0.24324 0.84637 0.0
C1091 C 0.91302 0.22291 0.85014 0.0
C1092 C 0.93192 0.25296 0.82379 0.0
C1093 C 0.93543 0.24259 0.80404 0.0
C1094 C 0.9272 0.22212 0.80737 0.0
C1095 C 0.91617 0.2124 0.8302 0.0
H1096 H 0.77316 0.65897 0.7161 0.0
H1097 H 0.75199 0.69562 0.74687 0.0
H1098 H 0.79428 0.6658 0.7564 0.0
H1099 H 0.77293 0.70208 0.78771 0.0
H1100 H 0.78914 0.6788 0.86757 0.0
H1101 H 0.77123 0.67696 0.82591 0.0
H1102 H 0.82483 0.69697 0.7811 0.0
H1103 H 0.84335 0.70003 0.82313 0.0
C1104 C 0.77306 0.66853 0.73147 0.0
C1105 C 0.76082 0.67667 0.72845 0.0
C1106 C 0.78526 0.67254 0.75441 0.0
C1107 C 0.7852 0.68445 0.77507 0.0
C1108 C 0.77318 0.69282 0.77199 0.0
C1109 C 0.76126 0.68917 0.74869 0.0
C1110 C 0.79738 0.68335 0.84904 0.0
C1111 C 0.81787 0.68986 0.84893 0.0
C1112 C 0.78701 0.68218 0.82515 0.0
C1113 C 0.79671 0.68701 0.80042 0.0
C1114 C 0.81705 0.69321 0.80001 0.0
C1115 C 0.82758 0.69479 0.82405 0.0
H1116 H 0.74516 0.64551 0.57844 0.0
H1117 H 0.76905 0.70749 0.59358 0.0
H1118 H 0.76777 0.65366 0.5415 0.0
H1119 H 0.79218 0.71573 0.55637 0.0
H1120 H 0.814 0.71707 0.46751 0.0
H1121 H 0.79379 0.71328 0.50647 0.0
H1122 H 0.80347 0.66756 0.5376 0.0
H1123 H 0.82272 0.67061 0.49828 0.0
C1124 C 0.75523 0.66092 0.57382 0.0
C1125 C 0.75542 0.67585 0.58914 0.0
C1126 C 0.76834 0.6656 0.55275 0.0
C1127 C 0.78213 0.68534 0.54643 0.0
C1128 C 0.78178 0.70037 0.56088 0.0
C1129 C 0.76852 0.69566 0.5821 0.0
C1130 C 0.81192 0.70631 0.48279 0.0
C1131 C 0.81974 0.69393 0.4795 0.0
C1132 C 0.80048 0.70426 0.50521 0.0
C1133 C 0.79667 0.68982 0.5248 0.0
C1134 C 0.80573 0.67851 0.5225 0.0
C1135 C 0.81706 0.68048 0.50012 0.0
H1136 H 0.31687 0.07354 0.58756 0.0
H1137 H 0.37897 0.09138 0.59749 0.0
H1138 H 0.32491 0.09589 0.54987 0.0
H1139 H 0.38705 0.11409 0.5591 0.0
H1140 H 0.38151 0.13191 0.46707 0.0
H1141 H 0.3799 0.11349 0.50794 0.0
H1142 H 0.34309 0.13238 0.54471 0.0
H1143 H 0.34402 0.15007 0.50387 0.0
C1144 C 0.33229 0.0822 0.58168 0.0
C1145 C 0.3473 0.08074 0.59579 0.0
C1146 C 0.33691 0.09518 0.56013 0.0
C1147 C 0.35666 0.10709 0.55189 0.0
C1148 C 0.37169 0.10517 0.56517 0.0
C1149 C 0.36706 0.09215 0.58706 0.0
C1150 C 0.37332 0.13236 0.48404 0.0
C1151 C 0.36262 0.14222 0.48195 0.0
C1152 C 0.37254 0.12192 0.50751 0.0
C1153 C 0.36102 0.12115 0.52927 0.0
C1154 C 0.35177 0.13239 0.52803 0.0
C1155 C 0.35253 0.14277 0.50468 0.0
H1156 H 0.96272 0.25544 0.5873 0.0
H1157 H 0.95407 0.30422 0.60235 0.0
H1158 H 0.93686 0.24325 0.5525 0.0
H1159 H 0.92769 0.29169 0.5673 0.0
H1160 H 0.90083 0.27273 0.47817 0.0
H1161 H 0.92284 0.28657 0.51779 0.0
H1162 H 0.90088 0.22781 0.54877 0.0
H1163 H 0.87968 0.21396 0.50877 0.0
C1164 C 0.95529 0.2636 0.58322 0.0
C1165 C 0.96047 0.2808 0.59775 0.0
C1166 C 0.94026 0.25645 0.56339 0.0
C1167 C 0.9299 0.26625 0.55747 0.0
C1168 C 0.93535 0.28376 0.57146 0.0
C1169 C 0.95048 0.29095 0.59148 0.0
C1170 C 0.90049 0.26278 0.49365 0.0
C1171 C 0.88875 0.24221 0.48998 0.0
C1172 C 0.91301 0.27074 0.51645 0.0
C1173 C 0.91398 0.25828 0.53609 0.0
C1174 C 0.90085 0.2378 0.53364 0.0
C1175 C 0.88843 0.22986 0.51085 0.0
H1176 H 0.33612 0.27597 0.59565 0.0
H1177 H 0.39731 0.29281 0.58284 0.0
H1178 H 0.32526 0.25147 0.55957 0.0
H1179 H 0.38657 0.26886 0.54668 0.0
H1180 H 0.36344 0.21367 0.50065 0.0
H1181 H 0.36955 0.23382 0.54043 0.0
H1182 H 0.32624 0.24837 0.51101 0.0
H1183 H 0.31927 0.22726 0.47184 0.0
C1184 C 0.34726 0.2746 0.58498 0.0
C1185 C 0.36757 0.28629 0.59222 0.0
C1186 C 0.34103 0.26056 0.56433 0.0
C1187 C 0.35501 0.25797 0.55051 0.0
C1188 C 0.37534 0.27005 0.55737 0.0
C1189 C 0.38152 0.28396 0.57797 0.0
C1190 C 0.35473 0.22063 0.50301 0.0
C1191 C 0.34103 0.21901 0.48282 0.0
C1192 C 0.35849 0.23248 0.52565 0.0
C1193 C 0.34875 0.24312 0.52859 0.0
C1194 C 0.33405 0.24044 0.50936 0.0
C1195 C 0.33019 0.22847 0.48677 0.0
H1196 H 0.73476 0.11103 0.58987 0.0
H1197 H 0.75744 0.07146 0.59454 0.0
H1198 H 0.75667 0.12845 0.5529 0.0
H1199 H 0.77996 0.08938 0.55758 0.0
H1200 H 0.7993 0.11443 0.47042 0.0
H1201 H 0.78012 0.09612 0.50948 0.0
H1202 H 0.79158 0.15053 0.54564 0.0
H1203 H 0.80975 0.16866 0.50599 0.0
C1204 C 0.74448 0.10606 0.58302 0.0
C1205 C 0.74443 0.08991 0.59523 0.0
C1206 C 0.75721 0.11619 0.56196 0.0
C1207 C 0.77036 0.11056 0.55264 0.0
C1208 C 0.76999 0.09407 0.56432 0.0
C1209 C 0.75709 0.0838 0.58544 0.0
C1210 C 0.79773 0.12248 0.48674 0.0
C1211 C 0.80572 0.14297 0.48486 0.0
C1212 C 0.78693 0.112 0.50926 0.0
C1213 C 0.78401 0.12182 0.53043 0.0
C1214 C 0.79316 0.14247 0.52934 0.0
C1215 C 0.80382 0.15292 0.50678 0.0
H1216 H 0.96411 0.71325 0.58282 0.0
H1217 H 0.9457 0.65227 0.59771 0.0
H1218 H 0.93944 0.70326 0.54669 0.0
H1219 H 0.92063 0.6422 0.56098 0.0
H1220 H 0.89863 0.64267 0.46914 0.0
H1221 H 0.91837 0.64578 0.50985 0.0
H1222 H 0.9025 0.68571 0.54378 0.0
H1223 H 0.88358 0.68334 0.50298 0.0
C1224 C 0.95483 0.69766 0.57836 0.0
C1225 C 0.95682 0.68355 0.59337 0.0
C1226 C 0.94051 0.69192 0.55775 0.0
C1227 C 0.92775 0.67191 0.55144 0.0
C1228 C 0.93017 0.65773 0.5656 0.0
C1229 C 0.94456 0.6635 0.58651 0.0
C1230 C 0.89904 0.65181 0.48553 0.0
C1231 C 0.88986 0.66309 0.48249 0.0
C1232 C 0.91026 0.65348 0.5089 0.0
C1233 C 0.9124 0.6664 0.52965 0.0
C1234 C 0.90149 0.67599 0.5278 0.0
C1235 C 0.89037 0.67439 0.5045 0.0
H1236 H 0.94643 0.70899 0.71788 0.0
H1237 H 0.96824 0.6729 0.75201 0.0
H1238 H 0.92758 0.70441 0.75843 0.0
H1239 H 0.94946 0.66857 0.79305 0.0
H1240 H 0.93544 0.69254 0.87121 0.0
H1241 H 0.95235 0.69377 0.83002 0.0
H1242 H 0.89813 0.67529 0.78374 0.0
H1243 H 0.88077 0.67312 0.82509 0.0
C1244 C 0.94717 0.70004 0.73406 0.0
C1245 C 0.9589 0.69137 0.73187 0.0
C1246 C 0.93627 0.69733 0.75717 0.0
C1247 C 0.93711 0.68617 0.77878 0.0
C1248 C 0.94867 0.67733 0.77662 0.0
C1249 C 0.95932 0.67972 0.75318 0.0
C1250 C 0.92696 0.6884 0.85237 0.0
C1251 C 0.90665 0.68259 0.85157 0.0
C1252 C 0.93669 0.68914 0.8288 0.0
C1253 C 0.92648 0.68446 0.80383 0.0
C1254 C 0.90632 0.67899 0.80281 0.0
C1255 C 0.89646 0.67793 0.82646 0.0
H1256 H 0.34312 0.27847 0.73171 0.0
H1257 H 0.40652 0.30154 0.73805 0.0
H1258 H 0.33812 0.2576 0.77111 0.0
H1259 H 0.40167 0.28135 0.7776 0.0
H1260 H 0.38721 0.23033 0.83171 0.0
H1261 H 0.38912 0.24801 0.79025 0.0
H1262 H 0.34358 0.25836 0.81886 0.0
H1263 H 0.34084 0.23968 0.85955 0.0
C1264 C 0.35599 0.27927 0.7417 0.0
C1265 C 0.37519 0.29159 0.73165 0.0
C1266 C 0.35315 0.26733 0.76428 0.0
C1267 C 0.36947 0.26757 0.77738 0.0
C1268 C 0.38868 0.28032 0.76766 0.0
C1269 C 0.39149 0.29209 0.74507 0.0
C1270 C 0.37729 0.23599 0.82891 0.0
C1271 C 0.36401 0.23372 0.8491 0.0
C1272 C 0.37859 0.2464 0.80528 0.0
C1273 C 0.36673 0.25493 0.80135 0.0
C1274 C 0.35289 0.25197 0.82109 0.0
C1275 C 0.3515 0.24145 0.8446 0.0
H1276 H 0.76025 0.0671 0.72863 0.0
H1277 H 0.73706 0.10516 0.7439 0.0
H1278 H 0.78499 0.08329 0.76501 0.0
H1279 H 0.76133 0.12091 0.78049 0.0
H1280 H 0.81775 0.1586 0.82794 0.0
H1281 H 0.79649 0.14303 0.78812 0.0
H1282 H 0.7881 0.08677 0.81326 0.0
H1283 H 0.81001 0.10251 0.85228 0.0
C1284 C 0.76025 0.07871 0.73997 0.0
C1285 C 0.74669 0.08484 0.73332 0.0
C1286 C 0.77445 0.08802 0.76079 0.0
C1287 C 0.77534 0.1036 0.77546 0.0
C1288 C 0.76143 0.10933 0.76919 0.0
C1289 C 0.74734 0.10012 0.74837 0.0
C1290 C 0.81177 0.14302 0.82455 0.0
C1291 C 0.81541 0.13175 0.84335 0.0
C1292 C 0.79935 0.13402 0.80196 0.0
C1293 C 0.79029 0.11356 0.79773 0.0
C1294 C 0.79483 0.10253 0.8158 0.0
C1295 C 0.80727 0.11153 0.83829 0.0
H1296 H 0.10568 0.41918 -0.00422 0.0
H1297 H 0.06299 0.35809 0.01299 0.0
H1298 H 0.13291 0.41324 0.00551 0.0
H1299 H 0.09007 0.35228 0.02314 0.0
H1300 H 0.13918 0.3417 0.03467 0.0
H1301 H 0.11797 0.35015 0.00772 0.0
H1302 H 0.14625 0.40718 0.04656 0.0
H1303 H 0.16751 0.39872 0.07288 0.0
C1304 C 0.10208 0.40444 0.00136 0.0
C1305 C 0.08211 0.38917 0.00389 0.0
C1306 C 0.11771 0.40105 0.00698 0.0
C1307 C 0.11376 0.38229 0.01517 0.0
C1308 C 0.09376 0.36684 0.01649 0.0
C1309 C 0.07817 0.37024 0.01093 0.0
C1310 C 0.14154 0.35641 0.03627 0.0
C1311 C 0.15506 0.36964 0.05561 0.0
C1312 C 0.12916 0.36115 0.02124 0.0
C1313 C 0.13007 0.37919 0.02538 0.0
C1314 C 0.14514 0.3932 0.04267 0.0
C1315 C 0.15746 0.38844 0.05768 0.0
H1316 H 0.63886 0.69267 0.00909 0.0
H1317 H 0.70097 0.73369 -0.00628 0.0
H1318 H 0.63473 0.71994 0.02217 0.0
H1319 H 0.69723 0.76083 0.00813 0.0
H1320 H 0.68827 0.80946 0.02947 0.0
H1321 H 0.68516 0.78227 0.00239 0.0
H1322 H 0.64279 0.74058 0.05894 0.0
H1323 H 0.64532 0.76764 0.08474 0.0
C1324 C 0.65165 0.70753 0.00855 0.0
C1325 C 0.67029 0.71098 0.00065 0.0
C1326 C 0.64931 0.72322 0.01613 0.0
C1327 C 0.66566 0.74274 0.01652 0.0
C1328 C 0.68415 0.74616 0.00773 0.0
C1329 C 0.68639 0.73051 -0.0003 0.0
C1330 C 0.67762 0.79442 0.03521 0.0
C1331 C 0.66697 0.79058 0.05906 0.0
C1332 C 0.67609 0.77881 0.02006 0.0
C1333 C 0.66406 0.7591 0.0287 0.0
C1334 C 0.6521 0.7554 0.05131 0.0
C1335 C 0.6535 0.77094 0.06621 0.0
H1336 H 0.32506 0.9857 -0.00899 0.0
H1337 H 0.33277 0.94262 0.03524 0.0
H1338 H 0.2889 0.96475 -0.00495 0.0
H1339 H 0.2972 0.92234 0.04046 0.0
H1340 H 0.23442 0.88327 0.04489 0.0
H1341 H 0.26598 0.90113 0.02178 0.0
H1342 H 0.2639 0.95461 0.02638 0.0
H1343 H 0.23165 0.93631 0.04731 0.0
C1344 C 0.31904 0.97184 0.00173 0.0
C1345 C 0.3318 0.96587 0.01288 0.0
C1346 C 0.2983 0.95978 0.00404 0.0
C1347 C 0.2899 0.94163 0.01788 0.0
C1348 C 0.30283 0.93581 0.02891 0.0
C1349 C 0.3234 0.94765 0.02627 0.0
C1350 C 0.2402 0.89858 0.03968 0.0
C1351 C 0.23081 0.9085 0.04861 0.0
C1352 C 0.25857 0.909 0.02695 0.0
C1353 C 0.26809 0.9296 0.02338 0.0
C1354 C 0.25732 0.93887 0.02899 0.0
C1355 C 0.23877 0.92836 0.04114 0.0
H1356 H 0.37407 0.07218 0.03903 0.0
H1357 H 0.40255 0.0739 0.96469 0.0
H1358 H 0.37437 0.10222 0.0257 0.0
H1359 H 0.40262 0.10359 0.95132 0.0
H1360 H 0.4108 0.16141 0.93461 0.0
H1361 H 0.41664 0.13835 0.96068 0.0
H1362 H 0.35714 0.11126 -0.00826 0.0
H1363 H 0.35165 0.13468 0.96606 0.0
C1364 C 0.38051 0.079 0.01994 0.0
C1365 C 0.3882 0.07053 0.00287 0.0
C1366 C 0.38065 0.09622 0.01229 0.0
C1367 C 0.38864 0.10545 -0.01248 0.0
C1368 C 0.39671 0.09717 0.97079 0.0
C1369 C 0.39647 0.07996 0.97834 0.0
C1370 C 0.39943 0.15121 0.94819 0.0
C1371 C 0.38089 0.14996 0.94867 0.0
C1372 C 0.40259 0.13774 0.96271 0.0
C1373 C 0.38719 0.12263 0.97781 0.0
C1374 C 0.36936 0.12271 0.98043 0.0
C1375 C 0.36624 0.13624 0.96592 0.0
H1376 H 0.99134 0.31916 0.98434 0.0
H1377 H 0.94264 0.32018 0.02171 0.0
H1378 H 0.96907 0.28462 0.97254 0.0
H1379 H 0.92051 0.28546 0.01085 0.0
H1380 H 0.88494 0.23905 0.94266 0.0
H1381 H 0.90492 0.2683 0.97038 0.0
H1382 H 0.94852 0.25089 0.98425 0.0
H1383 H 0.92866 0.222 0.95555 0.0
C1384 C 0.97601 0.31186 -0.00932 0.0
C1385 C 0.9687 0.3225 0.00356 0.0
C1386 C 0.9632 0.29197 0.98407 0.0
C1387 C 0.94285 0.2822 -0.00952 0.0
C1388 C 0.93595 0.29256 0.00507 0.0
C1389 C 0.94868 0.31247 0.01139 0.0
C1390 C 0.89833 0.24106 0.95271 0.0
C1391 C 0.90522 0.22828 0.94726 0.0
C1392 C 0.9099 0.2579 0.96852 0.0
C1393 C 0.9286 0.26222 0.97922 0.0
C1394 C 0.93445 0.24829 0.97586 0.0
C1395 C 0.92294 0.23156 0.95985 0.0
H1396 H 0.72991 0.64943 0.02238 0.0
H1397 H 0.72934 0.69038 0.96472 0.0
H1398 H 0.76571 0.66439 0.01731 0.0
H1399 H 0.76484 0.70451 0.95784 0.0
H1400 H 0.82646 0.72598 0.94058 0.0
H1401 H 0.79869 0.72115 0.96771 0.0
H1402 H 0.7842 0.66145 0.98478 0.0
H1403 H 0.81247 0.66689 0.95911 0.0
C1404 C 0.7376 0.66187 0.00886 0.0
C1405 C 0.72693 0.66866 -0.0063 0.0
C1406 C 0.7581 0.67036 0.00573 0.0
C1407 C 0.7683 0.68537 -0.0134 0.0
C1408 C 0.75775 0.69312 0.97296 0.0
C1409 C 0.7373 0.68497 0.97672 0.0
C1410 C 0.81789 0.71223 0.95142 0.0
C1411 C 0.8215 0.69677 0.94773 0.0
C1412 C 0.80172 0.70928 0.96655 0.0
C1413 C 0.78862 0.69067 0.9778 0.0
C1414 C 0.7938 0.67604 0.97665 0.0
C1415 C 0.81016 0.67914 0.96194 0.0
H1416 H 0.96846 0.63649 0.97129 0.0
H1417 H 0.97929 0.67568 0.03798 0.0
H1418 H 0.93905 0.63767 0.95803 0.0
H1419 H 0.94937 0.67646 0.02507 0.0
H1420 H 0.91729 0.69699 0.96204 0.0
H1421 H 0.94001 0.69097 -0.01074 0.0
H1422 H 0.90593 0.62932 0.96716 0.0
H1423 H 0.88372 0.63574 0.93916 0.0
C1424 C 0.96437 0.6451 0.98345 0.0
C1425 C 0.9764 0.65615 0.00555 0.0
C1426 C 0.94731 0.64563 0.97599 0.0
C1427 C 0.94171 0.65715 -0.00953 0.0
C1428 C 0.95331 0.66759 0.01327 0.0
C1429 C 0.97045 0.66709 0.02072 0.0
C1430 C 0.91414 0.682 0.96414 0.0
C1431 C 0.8987 0.66679 0.94878 0.0
C1432 C 0.92724 0.67852 0.97961 0.0
C1433 C 0.92511 0.65972 0.97997 0.0
C1434 C 0.90832 0.64408 0.96685 0.0
C1435 C 0.89534 0.64763 0.95121 0.0
H1436 H 0.39907 0.33705 0.97536 0.0
H1437 H 0.3465 0.30551 0.02361 0.0
H1438 H 0.39673 0.30603 0.9641 0.0
H1439 H 0.34426 0.27442 0.01245 0.0
H1440 H 0.33257 0.22719 0.94482 0.0
H1441 H 0.33576 0.25476 0.97072 0.0
H1442 H 0.39893 0.27781 0.98131 0.0
H1443 H 0.39557 0.25014 0.95516 0.0
C1444 C 0.38715 0.32353 0.98384 0.0
C1445 C 0.37289 0.3238 0.00021 0.0
C1446 C 0.38591 0.30572 0.9776 0.0
C1447 C 0.37033 0.28769 -0.01257 0.0
C1448 C 0.35639 0.28801 0.00443 0.0
C1449 C 0.35771 0.30586 0.01085 0.0
C1450 C 0.34691 0.23762 0.95392 0.0
C1451 C 0.36377 0.23644 0.94838 0.0
C1452 C 0.34881 0.25352 0.96859 0.0
C1453 C 0.36768 0.26869 0.97771 0.0
C1454 C 0.38425 0.26652 0.97422 0.0
C1455 C 0.38229 0.25052 0.95968 0.0
H1456 H 0.72388 0.04963 0.00603 0.0
H1457 H 0.72029 0.10167 -0.00868 0.0
H1458 H 0.75941 0.06844 -0.00359 0.0
H1459 H 0.75516 0.12008 0.98047 0.0
H1460 H 0.81706 0.15359 0.96106 0.0
H1461 H 0.78896 0.13554 -0.00907 0.0
H1462 H 0.77861 0.08051 0.95823 0.0
H1463 H 0.8074 0.09855 0.93007 0.0
C1464 C 0.73068 0.0651 0.0009 0.0
C1465 C 0.71915 0.07405 -0.00087 0.0
C1466 C 0.75107 0.0759 -0.00471 0.0
C1467 C 0.76034 0.09585 -0.01259 0.0
C1468 C 0.74888 0.10493 -0.01309 0.0
C1469 C 0.72866 0.09423 -0.00715 0.0
C1470 C 0.80934 0.13763 0.96127 0.0
C1471 C 0.81411 0.12748 0.94275 0.0
C1472 C 0.79296 0.12723 0.97803 0.0
C1473 C 0.78088 0.10651 0.97629 0.0
C1474 C 0.7873 0.09639 0.9602 0.0
C1475 C 0.80383 0.10677 0.94384 0.0
H1476 H 0.67967 0.98137 0.025 0.0
H1477 H 0.6289 0.94269 0.97419 0.0
H1478 H 0.68445 0.95411 0.03648 0.0
H1479 H 0.63391 0.91532 -0.01459 0.0
H1480 H 0.63235 0.87096 0.05203 0.0
H1481 H 0.6294 0.8956 0.02564 0.0
H1482 H 0.69356 0.93087 0.02121 0.0
H1483 H 0.69631 0.90618 0.04814 0.0
C1484 C 0.66966 0.96709 0.01598 0.0
C1485 C 0.65377 0.96422 -0.00113 0.0
C1486 C 0.67254 0.95145 0.02234 0.0
C1487 C 0.6596 0.93246 0.01182 0.0
C1488 C 0.64407 0.9297 -0.00597 0.0
C1489 C 0.64122 0.94541 -0.01244 0.0
C1490 C 0.64573 0.8835 0.0442 0.0
C1491 C 0.66453 0.88658 0.05174 0.0
C1492 C 0.64409 0.89774 0.02921 0.0
C1493 C 0.66126 0.91543 0.02168 0.0
C1494 C 0.68004 0.91757 0.02709 0.0
C1495 C 0.68165 0.9033 0.04207 0.0
H1496 H 0.05155 0.71527 0.00146 0.0
H1497 H 0.10757 0.71688 0.00197 0.0
H1498 H 0.06948 0.75079 0.01003 0.0
H1499 H 0.12522 0.75167 0.01175 0.0
H1500 H 0.15775 0.81323 0.03061 0.0
H1501 H 0.13746 0.78451 0.00183 0.0
H1502 H 0.08532 0.77128 0.04675 0.0
H1503 H 0.10538 0.80055 0.07389 0.0
C1504 C 0.06766 0.7232 0.00318 0.0
C1505 C 0.07805 0.71312 0.00138 0.0
C1506 C 0.07799 0.74358 0.00821 0.0
C1507 C 0.09891 0.7543 0.01186 0.0
C1508 C 0.10923 0.74425 0.00865 0.0
C1509 C 0.09899 0.72406 0.00335 0.0
C1510 C 0.14179 0.8047 0.03334 0.0
C1511 C 0.1332 0.80885 0.05483 0.0
C1512 C 0.13015 0.78798 0.01721 0.0
C1513 C 0.1098 0.77496 0.02259 0.0
C1514 C 0.10086 0.78069 0.04188 0.0
C1515 C 0.11241 0.79752 0.05762 0.0
H1516 H 0.31875 0.34398 -0.00336 0.0
H1517 H 0.32287 0.40047 0.00176 0.0
H1518 H 0.28287 0.32747 0.00392 0.0
H1519 H 0.28794 0.38441 0.01046 0.0
H1520 H 0.22829 0.35934 0.03215 0.0
H1521 H 0.25461 0.3662 0.00102 0.0
H1522 H 0.26252 0.32133 0.03986 0.0
H1523 H 0.23493 0.31321 0.06882 0.0
C1524 C 0.312 0.35286 -0.00093 0.0
C1525 C 0.32379 0.37355 -0.00091 0.0
C1526 C 0.29142 0.34342 0.00338 0.0
C1527 C 0.28226 0.35448 0.00812 0.0
C1528 C 0.29403 0.37516 0.00647 0.0
C1529 C 0.31437 0.38449 0.00185 0.0
C1530 C 0.23496 0.35026 0.03309 0.0
C1531 C 0.23011 0.3363 0.05373 0.0
C1532 C 0.2504 0.35446 0.01556 0.0
C1533 C 0.26164 0.34518 0.01887 0.0
C1534 C 0.25465 0.32915 0.03679 0.0
C1535 C 0.23885 0.32457 0.05372 0.0
H1536 H 0.7518 0.72972 0.35326 0.0
H1537 H 0.7257 0.67689 0.30461 0.0
H1538 H 0.78005 0.72588 0.36444 0.0
H1539 H 0.75423 0.67317 0.31559 0.0
H1540 H 0.79075 0.66025 0.38255 0.0
H1541 H 0.76627 0.66436 0.35637 0.0
H1542 H 0.80935 0.7265 0.34789 0.0
H1543 H 0.8336 0.72226 0.37456 0.0
C1544 C 0.75221 0.71742 0.34464 0.0
C1545 C 0.73637 0.70354 0.32821 0.0
C1546 C 0.76854 0.71531 0.35084 0.0
C1547 C 0.76949 0.69924 0.34084 0.0
C1548 C 0.75393 0.68565 0.32375 0.0
C1549 C 0.7376 0.68782 0.31742 0.0
C1550 C 0.79525 0.67454 0.37383 0.0
C1551 C 0.81409 0.69088 0.38017 0.0
C1552 C 0.78119 0.67698 0.35901 0.0
C1553 C 0.78571 0.69585 0.35045 0.0
C1554 C 0.80527 0.71183 0.35459 0.0
C1555 C 0.8193 0.70937 0.36941 0.0
H1556 H 0.34746 0.05482 0.30007 0.0
H1557 H 0.31209 0.02648 0.37014 0.0
H1558 H 0.34994 0.08579 0.31291 0.0
H1559 H 0.31465 0.05733 0.38294 0.0
H1560 H 0.31134 0.11085 0.39451 0.0
H1561 H 0.30468 0.08136 0.36979 0.0
H1562 H 0.36693 0.10995 0.35007 0.0
H1563 H 0.37338 0.13932 0.37466 0.0
C1564 C 0.34011 0.05514 0.3181 0.0
C1565 C 0.32967 0.03817 0.33416 0.0
C1566 C 0.34155 0.0729 0.32545 0.0
C1567 C 0.33239 0.07403 0.34885 0.0
C1568 C 0.32159 0.05693 0.36453 0.0
C1569 C 0.3203 0.03926 0.35734 0.0
C1570 C 0.32334 0.1111 0.38375 0.0
C1571 C 0.34279 0.1274 0.38604 0.0
C1572 C 0.31963 0.09413 0.36999 0.0
C1573 C 0.33534 0.09319 0.3583 0.0
C1574 C 0.35447 0.1102 0.35865 0.0
C1575 C 0.35818 0.12709 0.37256 0.0
H1576 H 0.99306 0.26533 0.35109 0.0
H1577 H 0.98995 0.31658 0.32819 0.0
H1578 H 0.958 0.24745 0.36027 0.0
H1579 H 0.95412 0.29814 0.33595 0.0
H1580 H 0.90432 0.2713 0.39984 0.0
H1581 H 0.93389 0.28793 0.37293 0.0
H1582 H 0.92471 0.23144 0.34858 0.0
H1583 H 0.89611 0.21491 0.37773 0.0
C1584 C 0.98475 0.27266 0.34736 0.0
C1585 C 0.9944 0.29252 0.33935 0.0
C1586 C 0.96441 0.26225 0.35232 0.0
C1587 C 0.95299 0.27125 0.34899 0.0
C1588 C 0.96244 0.29079 0.33929 0.0
C1589 C 0.98298 0.30137 0.33475 0.0
C1590 C 0.90848 0.26242 0.38844 0.0
C1591 C 0.89831 0.24183 0.39176 0.0
C1592 C 0.92538 0.27198 0.37263 0.0
C1593 C 0.93224 0.26111 0.3592 0.0
C1594 C 0.92038 0.24035 0.35952 0.0
C1595 C 0.90371 0.2308 0.3759 0.0
H1596 H 0.07808 0.42065 0.36676 0.0
H1597 H 0.03748 0.38539 0.30231 0.0
H1598 H 0.07336 0.448 0.35408 0.0
H1599 H 0.03289 0.41264 0.28964 0.0
H1600 H 1.01755 0.45848 0.27866 0.0
H1601 H 1.01897 0.43257 0.30428 0.0
H1602 H 0.08257 0.47101 0.31542 0.0
H1603 H 0.08094 0.49685 0.29001 0.0
C1604 C 0.06807 0.41867 0.34999 0.0
C1605 C 0.05825 0.40082 0.33546 0.0
C1606 C 0.06539 0.43436 0.34273 0.0
C1607 C 0.05264 0.4325 0.32096 0.0
C1608 C 0.04253 0.41451 0.30682 0.0
C1609 C 0.04534 0.39891 0.31392 0.0
C1610 C 0.03161 0.46168 0.28784 0.0
C1611 C 0.04907 0.47974 0.28283 0.0
C1612 C 0.03252 0.44675 0.30207 0.0
C1613 C 0.05094 0.44958 0.31147 0.0
C1614 C 0.06813 0.46834 0.30861 0.0
C1615 C 0.0672 0.48324 0.29428 0.0
H1616 H 0.6585 0.654 0.33989 0.0
H1617 H 0.61155 0.66179 0.30632 0.0
H1618 H 0.63815 0.61864 0.33112 0.0
H1619 H 0.59178 0.62695 0.29608 0.0
H1620 H 0.55567 0.56412 0.27977 0.0
H1621 H 0.57245 0.59395 0.30756 0.0
H1622 H 0.62893 0.59809 0.29436 0.0
H1623 H 0.61195 0.56789 0.26841 0.0
C1624 C 0.64384 0.64815 0.33063 0.0
C1625 C 0.63675 0.66073 0.32355 0.0
C1626 C 0.63215 0.62786 0.32551 0.0
C1627 C 0.61325 0.61974 0.31263 0.0
C1628 C 0.60599 0.63237 0.30647 0.0
C1629 C 0.6175 0.65252 0.31205 0.0
C1630 C 0.57152 0.571 0.28393 0.0
C1631 C 0.58258 0.56392 0.27167 0.0
C1632 C 0.58126 0.58831 0.29943 0.0
C1633 C 0.60223 0.59894 0.3026 0.0
C1634 C 0.61285 0.59052 0.2926 0.0
C1635 C 0.60311 0.57317 0.27752 0.0
H1636 H 0.37077 0.95595 0.29617 0.0
H1637 H 0.38565 1.00776 0.3427 0.0
H1638 H 0.40568 0.9677 0.29093 0.0
H1639 H 0.42114 0.01936 0.33843 0.0
H1640 H 0.47819 0.04383 0.28582 0.0
H1641 H 0.44645 0.03281 0.30675 0.0
H1642 H 0.43557 0.97341 0.31017 0.0
H1643 H 0.46669 0.98431 0.2872 0.0
C1644 C 0.38155 0.96981 0.30563 0.0
C1645 C 0.37537 0.98096 0.31973 0.0
C1646 C 0.40172 0.97646 0.30295 0.0
C1647 C 0.41646 0.99439 0.3146 0.0
C1648 C 0.41029 1.00553 0.32903 0.0
C1649 C 0.38995 0.99892 0.33145 0.0
C1650 C 0.46925 0.0285 0.29176 0.0
C1651 C 0.47463 1.01482 0.28405 0.0
C1652 C 0.45099 0.02215 0.30389 0.0
C1653 C 0.43794 1.00202 0.30917 0.0
C1654 C 0.44483 0.9889 0.3053 0.0
C1655 C 0.46293 0.9952 0.29263 0.0
H1656 H 0.61334 0.95741 0.3597 0.0
H1657 H 0.65476 1.00878 0.3143 0.0
H1658 H 0.58669 0.96391 0.3479 0.0
H1659 H 0.62827 1.01506 0.30232 0.0
H1660 H 0.58145 0.02909 0.28959 0.0
H1661 H 0.60504 0.0245 0.3175 0.0
H1662 H 0.56834 0.96147 0.30606 0.0
H1663 H 0.54481 0.96622 0.27866 0.0
C1664 C 0.61682 0.97018 0.34744 0.0
C1665 C 0.63616 0.98244 0.33773 0.0
C1666 C 0.60154 0.97389 0.34066 0.0
C1667 C 0.6053 0.99003 0.32419 0.0
C1668 C 0.62484 1.00269 0.3154 0.0
C1669 C 0.64003 0.99894 0.32204 0.0
C1670 C 0.57802 1.01426 0.29424 0.0
C1671 C 0.56127 0.99799 0.28233 0.0
C1672 C 0.59165 1.0116 0.30983 0.0
C1673 C 0.58878 0.99263 0.31364 0.0
C1674 C 0.571 0.97627 0.30375 0.0
C1675 C 0.55744 0.97895 0.28814 0.0
H1676 H 0.07202 0.67463 0.29946 0.0
H1677 H 0.0385 0.64427 0.37003 0.0
H1678 H 0.07093 0.64475 0.28514 0.0
H1679 H 0.03747 0.61427 0.35564 0.0
H1680 H 1.01614 0.56174 0.29248 0.0
H1681 H 1.02099 0.59022 0.31794 0.0
H1682 H 0.08314 0.62223 0.29708 0.0
H1683 H 0.07809 0.59364 0.27151 0.0
C1684 C 0.0645 0.66161 0.31202 0.0
C1685 C 0.05526 0.66185 0.33583 0.0
C1686 C 0.06406 0.64451 0.30395 0.0
C1687 C 0.05425 0.62714 0.31936 0.0
C1688 C 0.04512 0.62739 0.3433 0.0
C1689 C 0.04573 0.64459 0.35154 0.0
C1690 C 0.03102 0.57455 0.29449 0.0
C1691 C 0.04683 0.57545 0.28049 0.0
C1692 C 0.03379 0.59092 0.30889 0.0
C1693 C 0.05239 0.6086 0.30921 0.0
C1694 C 0.06857 0.60891 0.29692 0.0
C1695 C 0.0658 0.59247 0.28267 0.0
H1696 H 0.40456 0.43229 0.35597 0.0
H1697 H 0.39621 0.38369 0.30723 0.0
H1698 H 0.44007 0.45014 0.3469 0.0
H1699 H 0.43133 0.40191 0.29644 0.0
H1700 H 0.49332 0.43529 0.27482 0.0
H1701 H 0.46512 0.41663 0.30442 0.0
H1702 H 0.45899 0.46778 0.31109 0.0
H1703 H 0.48784 0.48642 0.28318 0.0
C1704 C 0.41041 0.42539 0.34344 0.0
C1705 C 0.39763 0.40673 0.332 0.0
C1706 C 0.43077 0.43567 0.33806 0.0
C1707 C 0.43873 0.42779 0.32042 0.0
C1708 C 0.42602 0.40853 0.31037 0.0
C1709 C 0.40575 0.39805 0.31636 0.0
C1710 C 0.48647 0.4427 0.28386 0.0
C1711 C 0.49269 0.46225 0.27687 0.0
C1712 C 0.47006 0.43194 0.30039 0.0
C1713 C 0.45922 0.44039 0.30959 0.0
C1714 C 0.46684 0.46062 0.3047 0.0
C1715 C 0.4835 0.47145 0.28868 0.0
H1716 H 0.31083 0.28234 0.30102 0.0
H1717 H 0.35059 0.31698 0.36652 0.0
H1718 H 0.31584 0.25504 0.3132 0.0
H1719 H 0.35555 0.28987 0.37855 0.0
H1720 H 0.37296 0.24551 0.38702 0.0
H1721 H 0.37052 0.27103 0.36192 0.0
H1722 H 0.30698 0.23156 0.35227 0.0
H1723 H 0.3096 0.20609 0.37727 0.0
C1724 C 0.32069 0.28418 0.31792 0.0
C1725 C 0.33023 0.30185 0.33287 0.0
C1726 C 0.32355 0.26854 0.32487 0.0
C1727 C 0.33626 0.27033 0.34666 0.0
C1728 C 0.34597 0.2881 0.36132 0.0
C1729 C 0.34294 0.3036 0.3546 0.0
C1730 C 0.35868 0.24199 0.37825 0.0
C1731 C 0.34153 0.22376 0.38363 0.0
C1732 C 0.35719 0.25669 0.36432 0.0
C1733 C 0.33849 0.25346 0.35555 0.0
C1734 C 0.32161 0.23452 0.35863 0.0
C1735 C 0.32311 0.21984 0.37271 0.0
H1736 H 0.77001 0.05262 0.30956 0.0
H1737 H 0.72199 0.04778 0.35645 0.0
H1738 H 0.7894 0.08795 0.31831 0.0
H1739 H 0.74169 0.08277 0.3667 0.0
H1740 H 0.82736 0.13688 0.3816 0.0
H1741 H 0.8077 0.10744 0.35449 0.0
H1742 H 0.75748 0.1161 0.35683 0.0
H1743 H 0.77716 0.14502 0.38553 0.0
C1744 C 0.76356 0.05917 0.32163 0.0
C1745 C 0.74459 0.0474 0.33261 0.0
C1746 C 0.77472 0.07944 0.3268 0.0
C1747 C 0.76738 0.08838 0.34362 0.0
C1748 C 0.74788 0.07667 0.35335 0.0
C1749 C 0.73656 0.05647 0.34768 0.0
C1750 C 0.81242 0.13296 0.3752 0.0
C1751 C 0.80378 0.1432 0.38542 0.0
C1752 C 0.801 0.11596 0.35969 0.0
C1753 C 0.7807 0.10894 0.35387 0.0
C1754 C 0.77283 0.12064 0.36155 0.0
C1755 C 0.7842 0.13747 0.3775 0.0
H1756 H 1.01181 0.74357 0.37472 0.0
H1757 H 0.99781 0.69072 0.33149 0.0
H1758 H 0.97676 0.73122 0.38008 0.0
H1759 H 0.96223 0.67849 0.3359 0.0
H1760 H 0.90551 0.65397 0.38874 0.0
H1761 H 0.93763 0.66551 0.36864 0.0
H1762 H 0.94615 0.72388 0.36093 0.0
H1763 H 0.91443 0.71241 0.38278 0.0
C1764 C 1.0012 0.72935 0.366 0.0
C1765 C 1.00769 0.71808 0.35284 0.0
C1766 C 0.98095 0.72234 0.36876 0.0
C1767 C 0.96644 0.70389 0.35818 0.0
C1768 C 0.97291 0.6927 0.34453 0.0
C1769 C 0.99332 0.69968 0.342 0.0
C1770 C 0.91402 0.66915 0.38202 0.0
C1771 C 0.90767 0.68239 0.3879 0.0
C1772 C 0.93249 0.6758 0.37037 0.0
C1773 C 0.94492 0.69584 0.36391 0.0
C1774 C 0.93733 0.7085 0.36656 0.0
C1775 C 0.91893 0.70187 0.37861 0.0
H1776 H 0.41283 0.06374 0.69887 0.0
H1777 H 0.40083 0.02548 0.6306 0.0
H1778 H 0.44217 0.06192 0.71071 0.0
H1779 H 0.43052 0.02394 0.6422 0.0
H1780 H 0.46281 1.00218 0.70346 0.0
H1781 H 0.43978 1.00862 0.67769 0.0
H1782 H 0.47533 0.07029 0.69913 0.0
H1783 H 0.49799 0.06353 0.72544 0.0
C1784 C 0.41661 0.05517 0.68612 0.0
C1785 C 0.40433 0.04462 0.66392 0.0
C1786 C 0.43361 0.05427 0.69276 0.0
C1787 C 0.43882 0.04281 0.67737 0.0
C1788 C 0.42689 0.03278 0.65462 0.0
C1789 C 0.40988 0.03371 0.64794 0.0
C1790 C 0.46624 0.01726 0.7014 0.0
C1791 C 0.48227 0.03241 0.7161 0.0
C1792 C 0.45294 0.02098 0.68683 0.0
C1793 C 0.45543 0.03993 0.6868 0.0
C1794 C 0.47272 0.05545 0.69919 0.0
C1795 C 0.48595 0.0517 0.71381 0.0
H1796 H 0.0409 0.39657 0.67118 0.0
H1797 H 0.97726 0.35774 0.67705 0.0
H1798 H 0.03772 0.42441 0.68365 0.0
H1799 H 0.97385 0.38578 0.68824 0.0
H1800 H 0.98213 0.43327 0.75009 0.0
H1801 H 0.97989 0.40596 0.72519 0.0
H1802 H 0.02778 0.44725 0.67448 0.0
H1803 H 0.03046 0.4746 0.70066 0.0
C1804 C 0.02615 0.39403 0.67466 0.0
C1805 C 1.00938 0.37487 0.67348 0.0
C1806 C 1.02427 0.4101 0.68155 0.0
C1807 C 1.0055 0.40751 0.6871 0.0
C1808 C 0.9886 0.3884 0.68468 0.0
C1809 C 0.99054 0.37228 0.67817 0.0
C1810 C 0.9916 0.43648 0.73288 0.0
C1811 C 1.00643 0.45601 0.72723 0.0
C1812 C 0.9904 0.42079 0.71855 0.0
C1813 C 1.00395 0.42424 0.69805 0.0
C1814 C 1.01744 0.44395 0.69059 0.0
C1815 C 1.01874 0.45968 0.70517 0.0
H1816 H 0.65892 0.60391 0.64654 0.0
H1817 H 0.66233 0.65413 0.68538 0.0
H1818 H 0.62367 0.58402 0.65666 0.0
H1819 H 0.6273 0.63407 0.69677 0.0
H1820 H 0.56342 0.59752 0.71222 0.0
H1821 H 0.59322 0.61607 0.68525 0.0
H1822 H 0.60549 0.56888 0.69527 0.0
H1823 H 0.57525 0.55019 0.72099 0.0
C1824 C 0.65206 0.61073 0.65711 0.0
C1825 C 0.66344 0.63052 0.66546 0.0
C1826 C 0.63185 0.59929 0.66305 0.0
C1827 C 0.62256 0.60725 0.67792 0.0
C1828 C 0.63376 0.62739 0.685 0.0
C1829 C 0.65393 0.63894 0.67863 0.0
C1830 C 0.57212 0.59086 0.70756 0.0
C1831 C 0.56707 0.57243 0.71847 0.0
C1832 C 0.58936 0.60158 0.69251 0.0
C1833 C 0.60211 0.59425 0.68851 0.0
C1834 C 0.59606 0.57504 0.69762 0.0
C1835 C 0.57865 0.56421 0.71234 0.0
H1836 H 0.74086 0.74339 0.64321 0.0
H1837 H 0.6871 0.72092 0.68881 0.0
H1838 H 0.73964 0.77281 0.63213 0.0
H1839 H 0.68603 0.75059 0.67796 0.0
H1840 H 0.67713 0.7893 0.61136 0.0
H1841 H 0.67894 0.76373 0.63711 0.0
H1842 H 0.7424 0.80294 0.64868 0.0
H1843 H 0.74044 0.82832 0.62246 0.0
C1844 C 0.72892 0.74484 0.65121 0.0
C1845 C 0.714 0.72967 0.66673 0.0
C1846 C 0.72831 0.76184 0.64505 0.0
C1847 C 0.71274 0.76415 0.65419 0.0
C1848 C 0.69815 0.74925 0.67043 0.0
C1849 C 0.69881 0.73226 0.6767 0.0
C1850 C 0.69125 0.79275 0.62066 0.0
C1851 C 0.70859 0.81084 0.61534 0.0
C1852 C 0.69236 0.77804 0.63524 0.0
C1853 C 0.7109 0.78112 0.64457 0.0
C1854 C 0.72795 0.79995 0.64138 0.0
C1855 C 0.7268 0.81464 0.62682 0.0
H1856 H 0.32988 0.98631 0.67333 0.0
H1857 H 0.27378 0.98425 0.66458 0.0
H1858 H 0.31238 0.95048 0.66817 0.0
H1859 H 0.25659 0.94906 0.65818 0.0
H1860 H 0.22492 0.88738 0.64364 0.0
H1861 H 0.24421 0.91672 0.6717 0.0
H1862 H 0.298 0.92861 0.63232 0.0
H1863 H 0.27885 0.89878 0.60592 0.0
C1864 C 0.31383 0.97823 0.67052 0.0
C1865 C 0.3033 0.98823 0.66897 0.0
C1866 C 0.30376 0.95766 0.66748 0.0
C1867 C 0.28298 0.94668 0.66253 0.0
C1868 C 0.27247 0.95672 0.66243 0.0
C1869 C 0.28245 0.97712 0.66574 0.0
C1870 C 0.241 0.89572 0.64215 0.0
C1871 C 0.25037 0.8911 0.62228 0.0
C1872 C 0.25207 0.91279 0.65783 0.0
C1873 C 0.27261 0.92564 0.6535 0.0
C1874 C 0.28227 0.91935 0.63627 0.0
C1875 C 0.27127 0.90217 0.621 0.0
H1876 H 0.06161 0.30066 0.64786 0.0
H1877 H 0.06606 0.35591 0.6673 0.0
H1878 H 0.09693 0.31747 0.64103 0.0
H1879 H 0.1022 0.37299 0.66146 0.0
H1880 H 0.15505 0.39422 0.60132 0.0
H1881 H 0.12476 0.38279 0.62625 0.0
H1882 H 0.12957 0.33404 0.6573 0.0
H1883 H 0.15904 0.34472 0.63047 0.0
C1884 C 0.07021 0.31644 0.65116 0.0
C1885 C 0.06085 0.32693 0.65784 0.0
C1886 C 0.09071 0.32614 0.64761 0.0
C1887 C 0.10271 0.34669 0.65087 0.0
C1888 C 0.09348 0.35718 0.65852 0.0
C1889 C 0.07276 0.3474 0.6619 0.0
C1890 C 0.14993 0.38136 0.61411 0.0
C1891 C 0.15901 0.36995 0.61311 0.0
C1892 C 0.13252 0.37481 0.62858 0.0
C1893 C 0.12409 0.35694 0.64293 0.0
C1894 C 0.1351 0.34739 0.64548 0.0
C1895 C 0.1523 0.35372 0.63051 0.0
H1896 H 0.30497 0.30851 0.63478 0.0
H1897 H 0.31728 0.34601 0.70405 0.0
H1898 H 0.27656 0.31169 0.62251 0.0
H1899 H 0.28835 0.34879 0.69214 0.0
H1900 H 0.2599 0.37434 0.63108 0.0
H1901 H 0.28083 0.36558 0.65765 0.0
H1902 H 0.24395 0.30502 0.63149 0.0
H1903 H 0.22352 0.3142 0.60417 0.0
C1904 C 0.3014 0.31714 0.64773 0.0
C1905 C 0.3136 0.32719 0.67023 0.0
C1906 C 0.2849 0.31882 0.64083 0.0
C1907 C 0.28006 0.33053 0.6563 0.0
C1908 C 0.29173 0.33984 0.67957 0.0
C1909 C 0.3083 0.33819 0.68645 0.0
C1910 C 0.25572 0.35899 0.63217 0.0
C1911 C 0.24002 0.3449 0.61588 0.0
C1912 C 0.26779 0.35393 0.64727 0.0
C1913 C 0.26438 0.33464 0.64629 0.0
C1914 C 0.2473 0.32011 0.63223 0.0
C1915 C 0.23533 0.32523 0.61699 0.0
H1916 H 0.73312 1.00565 0.63455 0.0
H1917 H 0.69294 0.97301 0.69885 0.0
H1918 H 0.73387 0.97644 0.6219 0.0
H1919 H 0.69395 0.94375 0.6864 0.0
H1920 H 0.67668 0.89322 0.62237 0.0
H1921 H 0.68059 0.92099 0.64846 0.0
H1922 H 0.74383 0.95281 0.63385 0.0
H1923 H 0.73963 0.92494 0.60732 0.0
C1924 C 0.72467 0.99232 0.64627 0.0
C1925 C 0.7128 0.99166 0.66755 0.0
C1926 C 0.72525 0.97557 0.63917 0.0
C1927 C 0.71397 0.95768 0.65314 0.0
C1928 C 0.70268 0.95722 0.67507 0.0
C1929 C 0.70215 0.97402 0.68224 0.0
C1930 C 0.69153 0.9058 0.62588 0.0
C1931 C 0.7079 0.9069 0.61325 0.0
C1932 C 0.6938 0.92179 0.6407 0.0
C1933 C 0.7125 0.93929 0.64293 0.0
C1934 C 0.72918 0.93967 0.63217 0.0
C1935 C 0.72688 0.92363 0.61738 0.0
H1936 H 0.05641 0.75881 0.68299 0.0
H1937 H 0.05466 0.70938 0.64414 0.0
H1938 H 0.09215 0.77876 0.67612 0.0
H1939 H 0.09022 0.72955 0.63593 0.0
H1940 H 0.15481 0.76628 0.62607 0.0
H1941 H 0.12375 0.74719 0.65036 0.0
H1942 H 0.11207 0.79469 0.63914 0.0
H1943 H 0.1435 0.8139 0.61614 0.0
C1944 C 0.06374 0.75217 0.67311 0.0
C1945 C 0.05272 0.73261 0.66378 0.0
C1946 C 0.08422 0.76365 0.66903 0.0
C1947 C 0.09415 0.75597 0.65507 0.0
C1948 C 0.08325 0.736 0.64706 0.0
C1949 C 0.06278 0.7244 0.65158 0.0
C1950 C 0.1459 0.77285 0.62987 0.0
C1951 C 0.15148 0.79153 0.61939 0.0
C1952 C 0.12797 0.76183 0.64339 0.0
C1953 C 0.11508 0.76914 0.64625 0.0
C1954 C 0.12157 0.78855 0.63763 0.0
C1955 C 0.13965 0.79966 0.62445 0.0
H1956 H 0.97616 0.62133 0.69071 0.0
H1957 H 0.02661 0.64065 0.63918 0.0
H1958 H 0.97787 0.5924 0.70338 0.0
H1959 H 0.02818 0.61149 0.65169 0.0
H1960 H 0.04067 0.5759 0.71956 0.0
H1961 H 0.03762 0.6004 0.69283 0.0
H1962 H 0.97374 0.56125 0.68822 0.0
H1963 H 0.97698 0.53695 0.71534 0.0
C1964 C 0.98747 0.61929 0.6818 0.0
C1965 C 1.00133 0.63343 0.66407 0.0
C1966 C 0.98834 0.60257 0.68887 0.0
C1967 C 1.00314 0.59954 0.67849 0.0
C1968 C 1.01668 0.61341 0.66018 0.0
C1969 C 1.01573 0.63011 0.65297 0.0
C1970 C 0.02613 0.57218 0.71158 0.0
C1971 C 1.00909 0.55446 0.71907 0.0
C1972 C 1.02431 0.58627 0.69645 0.0
C1973 C 1.00538 0.58295 0.68877 0.0
C1974 C 0.98851 0.56441 0.6942 0.0
C1975 C 0.99035 0.55033 0.70928 0.0
H1976 H 0.44367 0.38664 0.66148 0.0
H1977 H 0.38745 0.38464 0.66075 0.0
H1978 H 0.46102 0.42122 0.67248 0.0
H1979 H 0.40507 0.41996 0.67039 0.0
H1980 H 0.43907 0.46723 0.73759 0.0
H1981 H 0.41987 0.43915 0.70818 0.0
H1982 H 0.47334 0.45429 0.6652 0.0
H1983 H 0.49277 0.48169 0.69634 0.0
C1984 C 0.435 0.39372 0.66298 0.0
C1985 C 0.41408 0.3827 0.66078 0.0
C1986 C 0.44506 0.4138 0.669 0.0
C1987 C 0.43456 0.42362 0.67265 0.0
C1988 C 0.4137 0.41289 0.66838 0.0
C1989 C 0.40356 0.39263 0.66271 0.0
C1990 C 0.44662 0.46486 0.72136 0.0
C1991 C 0.4675 0.47623 0.7198 0.0
C1992 C 0.43556 0.44874 0.70425 0.0
C1993 C 0.44508 0.44385 0.68478 0.0
C1994 C 0.46558 0.45708 0.68067 0.0
C1995 C 0.47673 0.47304 0.69819 0.0
H1996 H 0.64552 0.04545 0.63195 0.0
H1997 H 0.65126 1.01014 0.69437 0.0
H1998 H 0.61003 0.02984 0.64039 0.0
H1999 H 0.6161 0.99541 0.70433 0.0
H2000 H 0.5554 0.97373 0.72693 0.0
H2001 H 0.58165 0.97719 0.69767 0.0
H2002 H 0.59371 0.03516 0.67424 0.0
H2003 H 0.56699 0.03107 0.70231 0.0
C2004 C 0.63902 0.03403 0.64718 0.0
C2005 C 0.65107 0.02911 0.66276 0.0
C2006 C 0.61871 0.0252 0.65222 0.0
C2007 C 0.61014 1.01172 0.67358 0.0
C2008 C 0.62197 1.00559 0.68758 0.0
C2009 C 0.64222 1.01409 0.68202 0.0
C2010 C 0.56308 0.98675 0.7144 0.0
C2011 C 0.55932 1.00221 0.71696 0.0
C2012 C 0.57835 0.98891 0.69796 0.0
C2013 C 0.59035 1.00672 0.68415 0.0
C2014 C 0.5849 0.02116 0.68436 0.0
C2015 C 0.56945 0.01885 0.70047 0.0
loop_
_geom_bond_atom_site_label_1
_geom_bond_atom_site_label_2
_geom_bond_distance
_geom_bond_site_symmetry_2
_ccdc_geom_bond_type
Zn0 O3 2.031 1_554 S
Zn0 O5 2.049 . S
Zn0 O10 2.067 1_554 S
Zn1 O2 1.962 1_455 S
Zn1 O4 1.986 . S
Zn1 O6 1.996 1_455 S
Zn1 O9 1.943 1_554 S
O2 Zn1 1.962 1_655 S
O2 C7 1.230 1_554 S
O3 Zn0 2.031 1_556 S
O3 C7 1.283 . S
O4 Zn1 1.986 . S
O4 C11 1.262 . S
O5 Zn0 2.049 . S
O5 C13 1.260 . S
O6 Zn1 1.996 1_655 S
O6 C13 1.257 . S
C7 O2 1.230 1_556 S
C7 O3 1.283 . S
C8 O9 1.249 . S
C8 O10 1.270 1_455 S
O9 Zn1 1.943 1_556 S
O9 C8 1.249 . S
O10 Zn0 2.067 1_556 S
O10 C8 1.270 1_655 S
C11 O4 1.262 . S
C11 O12 1.232 . S
O12 C11 1.232 . S
C13 O5 1.260 . S
C13 O6 1.257 . S
Zn14 O17 2.031 1_554 S
Zn14 O19 2.049 . S
Zn14 O24 2.067 1_554 S
Zn15 O16 1.962 . S
Zn15 O18 1.986 . S
Zn15 O20 1.996 . S
Zn15 O23 1.943 1_554 S
O16 Zn15 1.962 . S
O16 C21 1.237 1_554 S
O17 Zn14 2.031 1_556 S
O17 C21 1.278 . S
O18 Zn15 1.986 . S
O18 C25 1.262 . S
O19 Zn14 2.049 . S
O19 C27 1.260 . S
O20 Zn15 1.996 . S
O20 C27 1.257 . S
C21 O16 1.237 1_556 S
C21 O17 1.278 . S
C22 O23 1.249 . S
C22 O24 1.270 . S
O23 Zn15 1.943 1_556 S
O23 C22 1.249 . S
O24 Zn14 2.067 1_556 S
O24 C22 1.270 . S
C25 O18 1.262 . S
C25 O26 1.232 . S
O26 C25 1.232 . S
C27 O19 1.260 . S
C27 O20 1.257 . S
Zn28 O31 2.031 . S
Zn28 O33 2.049 1_554 S
Zn28 O38 2.067 . S
Zn29 O30 1.962 1_545 S
Zn29 O32 1.986 1_554 S
Zn29 O34 1.996 1_544 S
Zn29 O37 1.943 . S
O30 Zn29 1.962 1_565 S
O30 C35 1.254 . S
O31 Zn28 2.031 . S
O31 C35 1.269 . S
O32 Zn29 1.986 1_556 S
O32 C39 1.262 . S
O33 Zn28 2.049 1_556 S
O33 C41 1.260 . S
O34 Zn29 1.996 1_566 S
O34 C41 1.257 . S
C35 O30 1.254 . S
C35 O31 1.269 . S
C36 O37 1.249 . S
C36 O38 1.270 1_545 S
O37 Zn29 1.943 . S
O37 C36 1.249 . S
O38 Zn28 2.067 . S
O38 C36 1.270 1_565 S
C39 O32 1.262 . S
C39 O40 1.232 1_556 S
O40 C39 1.232 1_554 S
C41 O33 1.260 . S
C41 O34 1.257 . S
Zn42 O45 2.031 . S
Zn42 O47 2.049 1_554 S
Zn42 O52 2.067 . S
Zn43 O44 1.962 1_655 S
Zn43 O46 1.986 1_554 S
Zn43 O48 1.996 1_654 S
Zn43 O51 1.943 . S
O44 Zn43 1.962 1_455 S
O44 C49 1.254 . S
O45 Zn42 2.031 . S
O45 C49 1.269 . S
O46 Zn43 1.986 1_556 S
O46 C53 1.262 . S
O47 Zn42 2.049 1_556 S
O47 C55 1.260 . S
O48 Zn43 1.996 1_456 S
O48 C55 1.257 . S
C49 O44 1.254 . S
C49 O45 1.269 . S
C50 O51 1.249 . S
C50 O52 1.270 1_655 S
O51 Zn43 1.943 . S
O51 C50 1.249 . S
O52 Zn42 2.067 . S
O52 C50 1.270 1_455 S
C53 O46 1.262 . S
C53 O54 1.232 1_556 S
O54 C53 1.232 1_554 S
C55 O47 1.260 . S
C55 O48 1.257 . S
Zn56 O59 2.031 . S
Zn56 O61 2.049 1_554 S
Zn56 O66 2.067 . S
Zn57 O58 1.962 . S
Zn57 O60 1.986 1_554 S
Zn57 O62 1.996 1_554 S
Zn57 O65 1.943 . S
O58 Zn57 1.962 . S
O58 C63 1.254 . S
O59 Zn56 2.031 . S
O59 C63 1.269 . S
O60 Zn57 1.986 1_556 S
O60 C67 1.286 . S
O61 Zn56 2.049 1_556 S
O61 C69 1.260 . S
O62 Zn57 1.996 1_556 S
O62 C69 1.257 . S
C63 O58 1.254 . S
C63 O59 1.269 . S
C64 O65 1.249 . S
C64 O66 1.270 . S
O65 Zn57 1.943 . S
O65 C64 1.249 . S
O66 Zn56 2.067 . S
O66 C64 1.270 . S
C67 O60 1.286 . S
C67 O68 1.197 1_556 S
O68 C67 1.197 1_554 S
C69 O61 1.260 . S
C69 O62 1.257 . S
Zn70 O73 2.031 1_554 S
Zn70 O75 2.049 . S
Zn70 O80 2.067 1_554 S
Zn71 O72 1.962 1_565 S
Zn71 O74 1.986 . S
Zn71 O76 1.996 1_565 S
Zn71 O79 1.943 1_554 S
O72 Zn71 1.962 1_545 S
O72 C77 1.254 . S
O73 Zn70 2.031 1_556 S
O73 C77 1.269 1_556 S
O74 Zn71 1.986 . S
O74 C81 1.262 . S
O75 Zn70 2.049 . S
O75 C83 1.260 . S
O76 Zn71 1.996 1_545 S
O76 C83 1.257 . S
C77 O72 1.254 . S
C77 O73 1.269 1_554 S
C78 O79 1.249 . S
C78 O80 1.270 1_565 S
O79 Zn71 1.943 1_556 S
O79 C78 1.249 . S
O80 Zn70 2.067 1_556 S
O80 C78 1.270 1_545 S
C81 O74 1.262 . S
C81 O82 1.232 . S
O82 C81 1.232 . S
C83 O75 1.260 . S
C83 O76 1.257 . S
Zn84 O87 2.031 . S
Zn84 O89 2.049 . S
Zn84 O94 2.067 . S
Zn85 O86 1.962 . S
Zn85 O88 1.986 . S
Zn85 O90 1.996 . S
Zn85 O93 1.943 . S
O86 Zn85 1.962 . S
O86 C91 1.254 . S
O87 Zn84 2.031 . S
O87 C91 1.269 . S
O88 Zn85 1.986 . S
O88 C95 1.262 . S
O89 Zn84 2.049 . S
O89 C97 1.260 . S
O90 Zn85 1.996 . S
O90 C97 1.257 . S
C91 O86 1.254 . S
C91 O87 1.269 . S
C92 O93 1.249 . S
C92 O94 1.270 . S
O93 Zn85 1.943 . S
O93 C92 1.249 . S
O94 Zn84 2.067 . S
O94 C92 1.270 . S
C95 O88 1.262 . S
C95 O96 1.232 . S
O96 C95 1.232 . S
C97 O89 1.260 . S
C97 O90 1.257 . S
Zn98 O101 2.031 . S
Zn98 O103 2.049 . S
Zn98 O108 2.067 . S
Zn99 O100 1.962 . S
Zn99 O102 1.986 1_565 S
Zn99 O104 1.996 . S
Zn99 O107 1.943 . S
O100 Zn99 1.962 . S
O100 C105 1.254 . S
O101 Zn98 2.031 . S
O101 C105 1.269 . S
O102 Zn99 1.986 1_545 S
O102 C109 1.262 . S
O103 Zn98 2.049 . S
O103 C111 1.260 . S
O104 Zn99 1.996 . S
O104 C111 1.257 . S
C105 O100 1.254 . S
C105 O101 1.269 . S
C106 O107 1.249 . S
C106 O108 1.270 . S
O107 Zn99 1.943 . S
O107 C106 1.249 . S
O108 Zn98 2.067 . S
O108 C106 1.270 . S
C109 O102 1.262 . S
C109 O110 1.232 . S
O110 C109 1.232 . S
C111 O103 1.260 . S
C111 O104 1.257 . S
Zn112 O115 2.031 . S
Zn112 O117 2.049 . S
Zn112 O122 2.067 . S
Zn113 O114 1.962 1_455 S
Zn113 O116 1.986 . S
Zn113 O118 1.996 . S
Zn113 O121 1.943 . S
O114 Zn113 1.962 1_655 S
O114 C119 1.254 . S
O115 Zn112 2.031 . S
O115 C119 1.269 1_455 S
O116 Zn113 1.986 . S
O116 C123 1.262 . S
O117 Zn112 2.049 . S
O117 C125 1.260 . S
O118 Zn113 1.996 . S
O118 C125 1.257 . S
C119 O114 1.254 . S
C119 O115 1.269 1_655 S
C120 O121 1.249 . S
C120 O122 1.270 . S
O121 Zn113 1.943 . S
O121 C120 1.249 . S
O122 Zn112 2.067 . S
O122 C120 1.270 . S
C123 O116 1.262 . S
C123 O124 1.232 . S
O124 C123 1.232 . S
C125 O117 1.260 . S
C125 O118 1.257 . S
Zn126 O129 2.031 . S
Zn126 O131 2.049 . S
Zn126 O136 2.067 . S
Zn127 O128 1.962 1_565 S
Zn127 O130 1.986 . S
Zn127 O132 1.996 . S
Zn127 O135 1.943 . S
O128 Zn127 1.962 1_545 S
O128 C133 1.254 . S
O129 Zn126 2.031 . S
O129 C133 1.269 1_565 S
O130 Zn127 1.986 . S
O130 C137 1.262 . S
O131 Zn126 2.049 . S
O131 C139 1.260 . S
O132 Zn127 1.996 . S
O132 C139 1.257 . S
C133 O128 1.254 . S
C133 O129 1.269 1_545 S
C134 O135 1.249 . S
C134 O136 1.270 . S
O135 Zn127 1.943 . S
O135 C134 1.249 . S
O136 Zn126 2.067 . S
O136 C134 1.270 . S
C137 O130 1.262 . S
C137 O138 1.232 . S
O138 C137 1.232 . S
C139 O131 1.260 . S
C139 O132 1.257 . S
Zn140 O143 2.057 . S
Zn140 O145 2.049 . S
Zn140 O150 2.067 . S
Zn141 O142 1.962 1_455 S
Zn141 O144 1.986 . S
Zn141 O146 1.996 . S
Zn141 O149 1.943 . S
O142 Zn141 1.962 1_655 S
O142 C147 1.254 . S
O143 Zn140 2.057 . S
O143 C147 1.247 1_455 S
O144 Zn141 1.986 . S
O144 C151 1.262 . S
O145 Zn140 2.049 . S
O145 C153 1.260 . S
O146 Zn141 1.996 . S
O146 C153 1.257 . S
C147 O142 1.254 . S
C147 O143 1.247 1_655 S
C148 O149 1.249 . S
C148 O150 1.270 . S
O149 Zn141 1.943 . S
O149 C148 1.249 . S
O150 Zn140 2.067 . S
O150 C148 1.270 . S
C151 O144 1.262 . S
C151 O152 1.232 . S
O152 C151 1.232 . S
C153 O145 1.260 . S
C153 O146 1.257 . S
Zn154 O157 2.031 . S
Zn154 O159 2.049 . S
Zn154 O164 2.067 . S
Zn155 O156 1.962 . S
Zn155 O158 1.986 . S
Zn155 O160 1.996 . S
Zn155 O163 1.943 . S
O156 Zn155 1.962 . S
O156 C161 1.254 . S
O157 Zn154 2.031 . S
O157 C161 1.269 . S
O158 Zn155 1.986 . S
O158 C165 1.262 . S
O159 Zn154 2.049 . S
O159 C167 1.260 . S
O160 Zn155 1.996 . S
O160 C167 1.257 . S
C161 O156 1.254 . S
C161 O157 1.269 . S
C162 O163 1.249 . S
C162 O164 1.270 . S
O163 Zn155 1.943 . S
O163 C162 1.249 . S
O164 Zn154 2.067 . S
O164 C162 1.270 . S
C165 O158 1.262 . S
C165 O166 1.232 . S
O166 C165 1.232 . S
C167 O159 1.260 . S
C167 O160 1.257 . S
Zn168 O171 2.031 . S
Zn168 O173 2.049 . S
Zn168 O178 2.067 . S
Zn169 O170 1.962 1_545 S
Zn169 O172 1.986 . S
Zn169 O174 1.996 . S
Zn169 O177 1.943 . S
O170 Zn169 1.962 1_565 S
O170 C175 1.254 . S
O171 Zn168 2.031 . S
O171 C175 1.269 1_545 S
O172 Zn169 1.986 . S
O172 C179 1.262 . S
O173 Zn168 2.049 . S
O173 C181 1.260 . S
O174 Zn169 1.996 . S
O174 C181 1.257 . S
C175 O170 1.254 . S
C175 O171 1.269 1_565 S
C176 O177 1.249 . S
C176 O178 1.270 . S
O177 Zn169 1.943 . S
O177 C176 1.249 . S
O178 Zn168 2.067 . S
O178 C176 1.270 . S
C179 O172 1.262 . S
C179 O180 1.232 . S
O180 C179 1.232 . S
C181 O173 1.260 . S
C181 O174 1.257 . S
Zn182 O185 2.029 . S
Zn182 O187 2.049 . S
Zn182 O192 2.067 . S
Zn183 O184 1.962 1_655 S
Zn183 O186 1.986 . S
Zn183 O188 1.996 . S
Zn183 O191 1.943 . S
O184 Zn183 1.962 1_455 S
O184 C189 1.254 . S
O185 Zn182 2.029 . S
O185 C189 1.271 1_655 S
O186 Zn183 1.986 . S
O186 C193 1.262 . S
O187 Zn182 2.049 . S
O187 C195 1.260 . S
O188 Zn183 1.996 . S
O188 C195 1.257 . S
C189 O184 1.254 . S
C189 O185 1.271 1_455 S
C190 O191 1.249 . S
C190 O192 1.270 . S
O191 Zn183 1.943 . S
O191 C190 1.249 . S
O192 Zn182 2.067 . S
O192 C190 1.270 . S
C193 O186 1.262 . S
C193 O194 1.232 . S
O194 C193 1.232 . S
C195 O187 1.260 . S
C195 O188 1.257 . S
Zn196 O199 2.031 . S
Zn196 O201 2.049 . S
Zn196 O206 2.067 . S
Zn197 O198 1.962 . S
Zn197 O200 1.986 . S
Zn197 O202 1.996 . S
Zn197 O205 1.943 . S
O198 Zn197 1.962 . S
O198 C203 1.254 . S
O199 Zn196 2.031 . S
O199 C203 1.269 . S
O200 Zn197 1.986 . S
O200 C207 1.262 . S
O201 Zn196 2.049 . S
O201 C209 1.260 . S
O202 Zn197 1.996 . S
O202 C209 1.257 . S
C203 O198 1.254 . S
C203 O199 1.269 . S
C204 O205 1.249 . S
C204 O206 1.270 . S
O205 Zn197 1.943 . S
O205 C204 1.249 . S
O206 Zn196 2.067 . S
O206 C204 1.270 . S
C207 O200 1.262 . S
C207 O208 1.232 . S
O208 C207 1.232 . S
C209 O201 1.260 . S
C209 O202 1.257 . S
Zn210 O213 2.031 . S
Zn210 O215 2.049 . S
Zn210 O220 2.067 . S
Zn211 O212 1.962 . S
Zn211 O214 1.986 . S
Zn211 O216 1.996 . S
Zn211 O219 1.943 . S
O212 Zn211 1.962 . S
O212 C217 1.254 . S
O213 Zn210 2.031 . S
O213 C217 1.269 . S
O214 Zn211 1.986 . S
O214 C221 1.262 . S
O215 Zn210 2.049 . S
O215 C223 1.260 . S
O216 Zn211 1.996 . S
O216 C223 1.257 . S
C217 O212 1.254 . S
C217 O213 1.269 . S
C218 O219 1.249 . S
C218 O220 1.270 . S
O219 Zn211 1.943 . S
O219 C218 1.249 . S
O220 Zn210 2.067 . S
O220 C218 1.270 . S
C221 O214 1.262 . S
C221 O222 1.232 . S
O222 C221 1.232 . S
C223 O215 1.260 . S
C223 O216 1.257 . S
Zn224 O227 2.031 . S
Zn224 O229 2.049 . S
Zn224 O234 2.067 . S
Zn225 O226 1.962 . S
Zn225 O228 1.986 1_545 S
Zn225 O230 1.996 . S
Zn225 O233 1.943 . S
O226 Zn225 1.962 . S
O226 C231 1.254 . S
O227 Zn224 2.031 . S
O227 C231 1.269 . S
O228 Zn225 1.986 1_565 S
O228 C235 1.262 . S
O229 Zn224 2.049 . S
O229 C237 1.260 . S
O230 Zn225 1.996 . S
O230 C237 1.257 . S
C231 O226 1.254 . S
C231 O227 1.269 . S
C232 O233 1.249 . S
C232 O234 1.270 . S
O233 Zn225 1.943 . S
O233 C232 1.249 . S
O234 Zn224 2.067 . S
O234 C232 1.270 . S
C235 O228 1.262 . S
C235 O236 1.232 . S
O236 C235 1.232 . S
C237 O229 1.260 . S
C237 O230 1.257 . S
Zn238 O241 2.031 . S
Zn238 O243 2.049 . S
Zn238 O248 2.067 . S
Zn239 O240 1.962 1_655 S
Zn239 O242 1.986 . S
Zn239 O244 1.996 . S
Zn239 O247 1.943 . S
O240 Zn239 1.962 1_455 S
O240 C245 1.254 . S
O241 Zn238 2.031 . S
O241 C245 1.269 1_655 S
O242 Zn239 1.986 . S
O242 C249 1.262 . S
O243 Zn238 2.049 . S
O243 C251 1.260 . S
O244 Zn239 1.996 . S
O244 C251 1.257 . S
C245 O240 1.254 . S
C245 O241 1.269 1_455 S
C246 O247 1.249 . S
C246 O248 1.270 . S
O247 Zn239 1.943 . S
O247 C246 1.249 . S
O248 Zn238 2.067 . S
O248 C246 1.270 . S
C249 O242 1.262 . S
C249 O250 1.232 . S
O250 C249 1.232 . S
C251 O243 1.260 . S
C251 O244 1.257 . S
H252 C258 0.930 . S
H253 C261 0.931 . S
H254 C263 0.931 . S
H255 C265 0.930 . S
H256 C267 0.930 . S
H257 C269 0.931 . S
C258 H252 0.930 . S
C258 C259 1.380 . S
C258 C260 1.394 . S
C259 C258 1.380 . S
C259 C263 1.382 . S
C260 C258 1.394 . S
C260 C261 1.400 . S
C261 H253 0.931 . S
C261 C260 1.400 . S
C261 C262 1.375 . S
C262 C261 1.375 . S
C262 C263 1.415 . S
C262 C264 1.501 . S
C263 H254 0.931 . S
C263 C259 1.382 . S
C263 C262 1.415 . S
C264 C262 1.501 . S
C264 C265 1.384 . S
C264 C269 1.408 . S
C265 H255 0.930 . S
C265 C264 1.384 . S
C265 C266 1.389 . S
C266 C265 1.389 . S
C266 C267 1.405 . S
C267 H256 0.930 . S
C267 C266 1.405 . S
C267 C268 1.364 . S
C268 C267 1.364 . S
C268 C269 1.400 . S
C269 H257 0.931 . S
C269 C264 1.408 . S
C269 C268 1.400 . S
H270 C276 0.930 . S
H271 C279 0.931 . S
H272 C281 0.931 . S
H273 C283 0.930 . S
H274 C285 0.930 . S
H275 C287 0.931 . S
C276 H270 0.930 . S
C276 C277 1.380 . S
C276 C278 1.394 . S
C277 C276 1.380 . S
C277 C281 1.382 . S
C278 C276 1.394 . S
C278 C279 1.400 . S
C279 H271 0.931 . S
C279 C278 1.400 . S
C279 C280 1.375 . S
C280 C279 1.375 . S
C280 C281 1.415 . S
C280 C282 1.501 . S
C281 H272 0.931 . S
C281 C277 1.382 . S
C281 C280 1.415 . S
C282 C280 1.501 . S
C282 C283 1.384 . S
C282 C287 1.408 . S
C283 H273 0.930 . S
C283 C282 1.384 . S
C283 C284 1.389 . S
C284 C283 1.389 . S
C284 C285 1.405 . S
C285 H274 0.930 . S
C285 C284 1.405 . S
C285 C286 1.364 . S
C286 C285 1.364 . S
C286 C287 1.400 . S
C287 H275 0.931 . S
C287 C282 1.408 . S
C287 C286 1.400 . S
H288 C294 0.930 . S
H289 C297 0.931 . S
H290 C299 0.931 . S
H291 C301 0.930 . S
H292 C303 0.930 . S
H293 C305 0.931 . S
C294 H288 0.930 . S
C294 C295 1.380 . S
C294 C296 1.394 . S
C295 C294 1.380 . S
C295 C299 1.382 . S
C296 C294 1.394 . S
C296 C297 1.400 . S
C297 H289 0.931 . S
C297 C296 1.400 . S
C297 C298 1.375 . S
C298 C297 1.375 . S
C298 C299 1.415 . S
C298 C300 1.501 . S
C299 H290 0.931 . S
C299 C295 1.382 . S
C299 C298 1.415 . S
C300 C298 1.501 . S
C300 C301 1.384 . S
C300 C305 1.408 . S
C301 H291 0.930 . S
C301 C300 1.384 . S
C301 C302 1.389 . S
C302 C301 1.389 . S
C302 C303 1.405 . S
C303 H292 0.930 . S
C303 C302 1.405 . S
C303 C304 1.364 . S
C304 C303 1.364 . S
C304 C305 1.400 . S
C305 H293 0.931 . S
C305 C300 1.408 . S
C305 C304 1.400 . S
H306 C312 0.930 . S
H307 C315 0.931 . S
H308 C317 0.931 . S
H309 C319 0.930 . S
H310 C321 0.930 . S
H311 C323 0.931 . S
C312 H306 0.930 . S
C312 C313 1.380 . S
C312 C314 1.394 . S
C313 C312 1.380 . S
C313 C317 1.382 . S
C314 C312 1.394 . S
C314 C315 1.400 . S
C315 H307 0.931 . S
C315 C314 1.400 . S
C315 C316 1.375 . S
C316 C315 1.375 . S
C316 C317 1.415 . S
C316 C318 1.501 . S
C317 H308 0.931 . S
C317 C313 1.382 . S
C317 C316 1.415 . S
C318 C316 1.501 . S
C318 C319 1.384 . S
C318 C323 1.408 . S
C319 H309 0.930 . S
C319 C318 1.384 . S
C319 C320 1.389 . S
C320 C319 1.389 . S
C320 C321 1.405 . S
C321 H310 0.930 . S
C321 C320 1.405 . S
C321 C322 1.364 . S
C322 C321 1.364 . S
C322 C323 1.400 . S
C323 H311 0.931 . S
C323 C318 1.408 . S
C323 C322 1.400 . S
H324 C330 0.930 . S
H325 C333 0.931 . S
H326 C335 0.931 . S
H327 C337 0.930 . S
H328 C339 0.930 . S
H329 C341 0.931 . S
C330 H324 0.930 . S
C330 C331 1.380 . S
C330 C332 1.394 . S
C331 C330 1.380 . S
C331 C335 1.382 . S
C332 C330 1.394 . S
C332 C333 1.400 . S
C333 H325 0.931 . S
C333 C332 1.400 . S
C333 C334 1.375 . S
C334 C333 1.375 . S
C334 C335 1.415 . S
C334 C336 1.501 . S
C335 H326 0.931 . S
C335 C331 1.382 . S
C335 C334 1.415 . S
C336 C334 1.501 . S
C336 C337 1.384 . S
C336 C341 1.408 . S
C337 H327 0.930 . S
C337 C336 1.384 . S
C337 C338 1.389 . S
C338 C337 1.389 . S
C338 C339 1.405 . S
C339 H328 0.930 . S
C339 C338 1.405 . S
C339 C340 1.364 . S
C340 C339 1.364 . S
C340 C341 1.400 . S
C341 H329 0.931 . S
C341 C336 1.408 . S
C341 C340 1.400 . S
H342 C348 0.930 . S
H343 C351 0.931 . S
H344 C353 0.931 . S
H345 C355 0.930 . S
H346 C357 0.930 . S
H347 C359 0.931 . S
C348 H342 0.930 . S
C348 C349 1.380 . S
C348 C350 1.394 . S
C349 C348 1.380 . S
C349 C353 1.382 . S
C350 C348 1.394 . S
C350 C351 1.400 . S
C351 H343 0.931 . S
C351 C350 1.400 . S
C351 C352 1.375 . S
C352 C351 1.375 . S
C352 C353 1.415 . S
C352 C354 1.501 . S
C353 H344 0.931 . S
C353 C349 1.382 . S
C353 C352 1.415 . S
C354 C352 1.501 . S
C354 C355 1.384 . S
C354 C359 1.408 . S
C355 H345 0.930 . S
C355 C354 1.384 . S
C355 C356 1.389 . S
C356 C355 1.389 . S
C356 C357 1.405 . S
C357 H346 0.930 . S
C357 C356 1.405 . S
C357 C358 1.364 . S
C358 C357 1.364 . S
C358 C359 1.400 . S
C359 H347 0.931 . S
C359 C354 1.408 . S
C359 C358 1.400 . S
H360 C366 0.930 . S
H361 C369 0.931 . S
H362 C371 0.931 . S
H363 C373 0.930 . S
H364 C375 0.930 . S
H365 C377 0.931 . S
C366 H360 0.930 . S
C366 C367 1.380 . S
C366 C368 1.394 . S
C367 C366 1.380 . S
C367 C371 1.382 . S
C368 C366 1.394 . S
C368 C369 1.400 . S
C369 H361 0.931 . S
C369 C368 1.400 . S
C369 C370 1.375 . S
C370 C369 1.375 . S
C370 C371 1.415 . S
C370 C372 1.501 . S
C371 H362 0.931 . S
C371 C367 1.382 . S
C371 C370 1.415 . S
C372 C370 1.501 . S
C372 C373 1.384 . S
C372 C377 1.408 . S
C373 H363 0.930 . S
C373 C372 1.384 . S
C373 C374 1.389 . S
C374 C373 1.389 . S
C374 C375 1.405 . S
C375 H364 0.930 . S
C375 C374 1.405 . S
C375 C376 1.364 . S
C376 C375 1.364 . S
C376 C377 1.400 . S
C377 H365 0.931 . S
C377 C372 1.408 . S
C377 C376 1.400 . S
H378 C384 0.930 . S
H379 C387 0.931 . S
H380 C389 0.931 . S
H381 C391 0.930 . S
H382 C393 0.930 . S
H383 C395 0.931 . S
C384 H378 0.930 . S
C384 C385 1.380 . S
C384 C386 1.394 . S
C385 C384 1.380 . S
C385 C389 1.382 . S
C386 C384 1.394 . S
C386 C387 1.400 . S
C387 H379 0.931 . S
C387 C386 1.400 . S
C387 C388 1.375 . S
C388 C387 1.375 . S
C388 C389 1.415 . S
C388 C390 1.501 . S
C389 H380 0.931 . S
C389 C385 1.382 . S
C389 C388 1.415 . S
C390 C388 1.501 . S
C390 C391 1.384 . S
C390 C395 1.408 . S
C391 H381 0.930 . S
C391 C390 1.384 . S
C391 C392 1.389 . S
C392 C391 1.389 . S
C392 C393 1.405 . S
C393 H382 0.930 . S
C393 C392 1.405 . S
C393 C394 1.364 . S
C394 C393 1.364 . S
C394 C395 1.400 . S
C395 H383 0.931 . S
C395 C390 1.408 . S
C395 C394 1.400 . S
H396 C402 0.930 . S
H397 C405 0.931 . S
H398 C407 0.931 . S
H399 C409 0.930 . S
H400 C411 0.930 . S
H401 C413 0.931 . S
C402 H396 0.930 . S
C402 C403 1.380 . S
C402 C404 1.394 . S
C403 C402 1.380 . S
C403 C407 1.382 . S
C404 C402 1.394 . S
C404 C405 1.400 . S
C405 H397 0.931 . S
C405 C404 1.400 . S
C405 C406 1.375 . S
C406 C405 1.375 . S
C406 C407 1.415 . S
C406 C408 1.501 . S
C407 H398 0.931 . S
C407 C403 1.382 . S
C407 C406 1.415 . S
C408 C406 1.501 . S
C408 C409 1.384 . S
C408 C413 1.408 . S
C409 H399 0.930 . S
C409 C408 1.384 . S
C409 C410 1.389 . S
C410 C409 1.389 . S
C410 C411 1.405 . S
C411 H400 0.930 . S
C411 C410 1.405 . S
C411 C412 1.364 . S
C412 C411 1.364 . S
C412 C413 1.400 . S
C413 H401 0.931 . S
C413 C408 1.408 . S
C413 C412 1.400 . S
H414 C420 0.930 . S
H415 C423 0.931 . S
H416 C425 0.931 . S
H417 C427 0.930 . S
H418 C429 0.930 . S
H419 C431 0.941 . S
C420 H414 0.930 . S
C420 C421 1.380 . S
C420 C422 1.394 1_655 S
C421 C420 1.380 . S
C421 C425 1.382 . S
C422 C420 1.394 1_455 S
C422 C423 1.400 . S
C423 H415 0.931 . S
C423 C422 1.400 . S
C423 C424 1.375 . S
C424 C423 1.375 . S
C424 C425 1.415 1_455 S
C424 C426 1.501 . S
C425 H416 0.931 . S
C425 C421 1.382 . S
C425 C424 1.415 1_655 S
C426 C424 1.501 . S
C426 C427 1.384 . S
C426 C431 1.421 . S
C427 H417 0.930 . S
C427 C426 1.384 . S
C427 C428 1.389 . S
C428 C427 1.389 . S
C428 C429 1.405 . S
C429 H418 0.930 . S
C429 C428 1.405 . S
C429 C430 1.361 . S
C430 C429 1.361 . S
C430 C431 1.388 . S
C431 H419 0.941 . S
C431 C426 1.421 . S
C431 C430 1.388 . S
H432 C438 0.930 . S
H433 C441 0.931 . S
H434 C443 0.931 . S
H435 C445 0.930 . S
H436 C447 0.930 . S
H437 C449 0.931 . S
C438 H432 0.930 . S
C438 C439 1.380 . S
C438 C440 1.394 . S
C439 C438 1.380 . S
C439 C443 1.382 . S
C440 C438 1.394 . S
C440 C441 1.400 . S
C441 H433 0.931 . S
C441 C440 1.400 . S
C441 C442 1.375 . S
C442 C441 1.375 . S
C442 C443 1.415 . S
C442 C444 1.501 . S
C443 H434 0.931 . S
C443 C439 1.382 . S
C443 C442 1.415 . S
C444 C442 1.501 . S
C444 C445 1.384 . S
C444 C449 1.408 . S
C445 H435 0.930 . S
C445 C444 1.384 . S
C445 C446 1.389 . S
C446 C445 1.389 . S
C446 C447 1.405 . S
C447 H436 0.930 . S
C447 C446 1.405 . S
C447 C448 1.364 . S
C448 C447 1.364 . S
C448 C449 1.400 . S
C449 H437 0.931 . S
C449 C444 1.408 . S
C449 C448 1.400 . S
H450 C456 0.975 . S
H451 C459 0.931 . S
H452 C461 0.931 . S
H453 C463 0.930 . S
H454 C465 0.930 . S
H455 C467 0.916 . S
C456 H450 0.975 . S
C456 C457 1.371 . S
C456 C458 1.364 1_545 S
C457 C456 1.371 . S
C457 C461 1.382 . S
C458 C456 1.364 1_565 S
C458 C459 1.400 . S
C459 H451 0.931 . S
C459 C458 1.400 . S
C459 C460 1.375 . S
C460 C459 1.375 . S
C460 C461 1.415 1_565 S
C460 C462 1.501 . S
C461 H452 0.931 . S
C461 C457 1.382 . S
C461 C460 1.415 1_545 S
C462 C460 1.501 . S
C462 C463 1.384 . S
C462 C467 1.393 . S
C463 H453 0.930 . S
C463 C462 1.384 . S
C463 C464 1.389 . S
C464 C463 1.389 . S
C464 C465 1.405 . S
C465 H454 0.930 . S
C465 C464 1.405 . S
C465 C466 1.364 . S
C466 C465 1.364 . S
C466 C467 1.440 . S
C467 H455 0.916 . S
C467 C462 1.393 . S
C467 C466 1.440 . S
H468 C474 0.964 . S
H469 C477 0.931 . S
H470 C479 0.923 . S
H471 C481 0.930 . S
H472 C483 0.945 . S
H473 C485 0.931 . S
C474 H468 0.964 . S
C474 C475 1.378 1_545 S
C474 C476 1.393 1_545 S
C475 C474 1.378 1_565 S
C475 C479 1.402 . S
C476 C474 1.393 1_565 S
C476 C477 1.400 . S
C477 H469 0.931 . S
C477 C476 1.400 . S
C477 C478 1.375 . S
C478 C477 1.375 . S
C478 C479 1.407 . S
C478 C480 1.501 . S
C479 H470 0.923 . S
C479 C475 1.402 . S
C479 C478 1.407 . S
C480 C478 1.501 . S
C480 C481 1.384 . S
C480 C485 1.408 1_565 S
C481 H471 0.930 . S
C481 C480 1.384 . S
C481 C482 1.389 . S
C482 C481 1.389 . S
C482 C483 1.418 . S
C483 H472 0.945 . S
C483 C482 1.418 . S
C483 C484 1.369 1_565 S
C484 C483 1.369 1_545 S
C484 C485 1.400 . S
C485 H473 0.931 . S
C485 C480 1.408 1_545 S
C485 C484 1.400 . S
H486 C492 0.971 . S
H487 C495 0.931 . S
H488 C497 0.934 . S
H489 C499 0.930 . S
H490 C501 0.930 . S
H491 C503 0.931 . S
C492 H486 0.971 . S
C492 C493 1.372 . S
C492 C494 1.369 1_655 S
C493 C492 1.372 . S
C493 C497 1.355 1_655 S
C494 C492 1.369 1_455 S
C494 C495 1.412 . S
C495 H487 0.931 . S
C495 C494 1.412 . S
C495 C496 1.375 . S
C496 C495 1.375 . S
C496 C497 1.420 . S
C496 C498 1.501 . S
C497 H488 0.934 . S
C497 C493 1.355 1_455 S
C497 C496 1.420 . S
C498 C496 1.501 . S
C498 C499 1.384 . S
C498 C503 1.408 1_455 S
C499 H489 0.930 . S
C499 C498 1.384 . S
C499 C500 1.389 . S
C500 C499 1.389 . S
C500 C501 1.405 . S
C501 H490 0.930 . S
C501 C500 1.405 . S
C501 C502 1.364 1_455 S
C502 C501 1.364 1_655 S
C502 C503 1.400 . S
C503 H491 0.931 . S
C503 C498 1.408 1_655 S
C503 C502 1.400 . S
H504 C510 0.930 . S
H505 C513 0.931 . S
H506 C515 0.931 . S
H507 C517 0.930 . S
H508 C519 0.930 . S
H509 C521 0.931 . S
C510 H504 0.930 . S
C510 C511 1.380 . S
C510 C512 1.394 . S
C511 C510 1.380 . S
C511 C515 1.382 . S
C512 C510 1.394 . S
C512 C513 1.400 . S
C513 H505 0.931 . S
C513 C512 1.400 . S
C513 C514 1.375 . S
C514 C513 1.375 . S
C514 C515 1.415 . S
C514 C516 1.501 . S
C515 H506 0.931 . S
C515 C511 1.382 . S
C515 C514 1.415 . S
C516 C514 1.501 . S
C516 C517 1.384 . S
C516 C521 1.408 . S
C517 H507 0.930 . S
C517 C516 1.384 . S
C517 C518 1.389 . S
C518 C517 1.389 . S
C518 C519 1.405 . S
C519 H508 0.930 . S
C519 C518 1.405 . S
C519 C520 1.364 . S
C520 C519 1.364 . S
C520 C521 1.400 . S
C521 H509 0.931 . S
C521 C516 1.408 . S
C521 C520 1.400 . S
H522 C528 0.930 . S
H523 C531 0.931 . S
H524 C533 0.931 . S
H525 C535 0.930 . S
H526 C537 0.930 . S
H527 C539 0.931 . S
C528 H522 0.930 . S
C528 C529 1.380 . S
C528 C530 1.394 . S
C529 C528 1.380 . S
C529 C533 1.382 . S
C530 C528 1.394 . S
C530 C531 1.400 . S
C531 H523 0.931 . S
C531 C530 1.400 . S
C531 C532 1.375 . S
C532 C531 1.375 . S
C532 C533 1.415 . S
C532 C534 1.501 . S
C533 H524 0.931 . S
C533 C529 1.382 . S
C533 C532 1.415 . S
C534 C532 1.501 . S
C534 C535 1.384 . S
C534 C539 1.408 . S
C535 H525 0.930 . S
C535 C534 1.384 . S
C535 C536 1.389 . S
C536 C535 1.389 . S
C536 C537 1.405 . S
C537 H526 0.930 . S
C537 C536 1.405 . S
C537 C538 1.364 . S
C538 C537 1.364 . S
C538 C539 1.400 . S
C539 H527 0.931 . S
C539 C534 1.408 . S
C539 C538 1.400 . S
H540 C546 0.930 . S
H541 C549 0.931 . S
H542 C551 0.931 . S
H543 C553 0.930 . S
H544 C555 0.930 . S
H545 C557 0.931 . S
C546 H540 0.930 . S
C546 C547 1.380 . S
C546 C548 1.394 . S
C547 C546 1.380 . S
C547 C551 1.382 . S
C548 C546 1.394 . S
C548 C549 1.400 . S
C549 H541 0.931 . S
C549 C548 1.400 . S
C549 C550 1.375 . S
C550 C549 1.375 . S
C550 C551 1.415 . S
C550 C552 1.501 . S
C551 H542 0.931 . S
C551 C547 1.382 . S
C551 C550 1.415 . S
C552 C550 1.501 . S
C552 C553 1.384 . S
C552 C557 1.408 . S
C553 H543 0.930 . S
C553 C552 1.384 . S
C553 C554 1.389 . S
C554 C553 1.389 . S
C554 C555 1.405 . S
C555 H544 0.930 . S
C555 C554 1.405 . S
C555 C556 1.364 . S
C556 C555 1.364 . S
C556 C557 1.400 . S
C557 H545 0.931 . S
C557 C552 1.408 . S
C557 C556 1.400 . S
H558 C564 0.930 . S
H559 C567 0.931 . S
H560 C569 0.931 . S
H561 C571 0.930 . S
H562 C573 0.930 . S
H563 C575 0.931 . S
C564 H558 0.930 . S
C564 C565 1.380 . S
C564 C566 1.394 . S
C565 C564 1.380 . S
C565 C569 1.382 . S
C566 C564 1.394 . S
C566 C567 1.400 . S
C567 H559 0.931 . S
C567 C566 1.400 . S
C567 C568 1.375 . S
C568 C567 1.375 . S
C568 C569 1.415 . S
C568 C570 1.501 . S
C569 H560 0.931 . S
C569 C565 1.382 . S
C569 C568 1.415 . S
C570 C568 1.501 . S
C570 C571 1.384 . S
C570 C575 1.408 . S
C571 H561 0.930 . S
C571 C570 1.384 . S
C571 C572 1.389 . S
C572 C571 1.389 . S
C572 C573 1.405 . S
C573 H562 0.930 . S
C573 C572 1.405 . S
C573 C574 1.364 . S
C574 C573 1.364 . S
C574 C575 1.400 . S
C575 H563 0.931 . S
C575 C570 1.408 . S
C575 C574 1.400 . S
H576 C584 0.950 . S
H577 C589 0.950 . S
H578 C586 0.950 . S
H579 C588 0.950 . S
H580 C590 0.950 . S
H581 C592 0.950 . S
H582 C594 0.950 . S
H583 C595 0.950 . S
C584 H576 0.950 . S
C584 C585 1.386 . S
C584 C586 1.391 . S
C585 C584 1.386 . S
C585 C589 1.393 1_655 S
C586 H578 0.950 . S
C586 C584 1.391 . S
C586 C587 1.400 . S
C587 C586 1.400 . S
C587 C588 1.398 1_655 S
C587 C593 1.491 . S
C588 H579 0.950 . S
C588 C587 1.398 1_455 S
C588 C589 1.391 . S
C589 H577 0.950 . S
C589 C585 1.393 1_455 S
C589 C588 1.391 . S
C590 H580 0.950 . S
C590 C591 1.386 1_455 S
C590 C592 1.391 . S
C591 C590 1.386 1_655 S
C591 C595 1.393 . S
C592 H581 0.950 . S
C592 C590 1.391 . S
C592 C593 1.400 1_455 S
C593 C587 1.491 . S
C593 C592 1.400 1_655 S
C593 C594 1.398 . S
C594 H582 0.950 . S
C594 C593 1.398 . S
C594 C595 1.391 . S
C595 H583 0.950 . S
C595 C591 1.393 . S
C595 C594 1.391 . S
H596 C604 0.950 . S
H597 C609 0.950 . S
H598 C606 0.950 . S
H599 C608 0.950 . S
H600 C610 0.950 . S
H601 C612 0.950 . S
H602 C614 0.950 . S
H603 C615 0.950 . S
C604 H596 0.950 . S
C604 C605 1.386 . S
C604 C606 1.391 . S
C605 C604 1.386 . S
C605 C609 1.393 . S
C606 H598 0.950 . S
C606 C604 1.391 . S
C606 C607 1.400 . S
C607 C606 1.400 . S
C607 C608 1.398 . S
C607 C613 1.491 . S
C608 H599 0.950 . S
C608 C607 1.398 . S
C608 C609 1.391 . S
C609 H597 0.950 . S
C609 C605 1.393 . S
C609 C608 1.391 . S
C610 H600 0.950 . S
C610 C611 1.386 . S
C610 C612 1.391 . S
C611 C610 1.386 . S
C611 C615 1.393 . S
C612 H601 0.950 . S
C612 C610 1.391 . S
C612 C613 1.400 . S
C613 C607 1.491 . S
C613 C612 1.400 . S
C613 C614 1.398 . S
C614 H602 0.950 . S
C614 C613 1.398 . S
C614 C615 1.391 . S
C615 H603 0.950 . S
C615 C611 1.393 . S
C615 C614 1.391 . S
H616 C624 0.949 . S
H617 C629 0.950 . S
H618 C626 0.950 . S
H619 C628 0.950 . S
H620 C630 0.950 . S
H621 C632 0.950 . S
H622 C634 0.950 . S
H623 C635 0.950 . S
C624 H616 0.949 . S
C624 C625 1.361 1_565 S
C624 C626 1.422 . S
C625 C624 1.361 1_545 S
C625 C629 1.393 . S
C626 H618 0.950 . S
C626 C624 1.422 . S
C626 C627 1.400 1_565 S
C627 C626 1.400 1_545 S
C627 C628 1.398 . S
C627 C633 1.491 . S
C628 H619 0.950 . S
C628 C627 1.398 . S
C628 C629 1.391 . S
C629 H617 0.950 . S
C629 C625 1.393 . S
C629 C628 1.391 . S
C630 H620 0.950 . S
C630 C631 1.386 . S
C630 C632 1.391 . S
C631 C630 1.386 . S
C631 C635 1.393 1_545 S
C632 H621 0.950 . S
C632 C630 1.391 . S
C632 C633 1.400 . S
C633 C627 1.491 . S
C633 C632 1.400 . S
C633 C634 1.398 1_545 S
C634 H622 0.950 . S
C634 C633 1.398 1_565 S
C634 C635 1.391 . S
C635 H623 0.950 . S
C635 C631 1.393 1_565 S
C635 C634 1.391 . S
H636 C644 0.950 . S
H637 C649 0.950 . S
H638 C646 0.950 . S
H639 C648 0.950 . S
H640 C650 0.950 . S
H641 C652 0.950 . S
H642 C654 0.950 . S
H643 C655 0.950 . S
C644 H636 0.950 . S
C644 C645 1.386 . S
C644 C646 1.391 . S
C645 C644 1.386 . S
C645 C649 1.393 1_565 S
C646 H638 0.950 . S
C646 C644 1.391 . S
C646 C647 1.400 . S
C647 C646 1.400 . S
C647 C648 1.398 1_565 S
C647 C653 1.491 . S
C648 H639 0.950 . S
C648 C647 1.398 1_545 S
C648 C649 1.391 . S
C649 H637 0.950 . S
C649 C645 1.393 1_545 S
C649 C648 1.391 . S
C650 H640 0.950 . S
C650 C651 1.386 1_545 S
C650 C652 1.391 . S
C651 C650 1.386 1_565 S
C651 C655 1.393 . S
C652 H641 0.950 . S
C652 C650 1.391 . S
C652 C653 1.400 1_545 S
C653 C647 1.491 . S
C653 C652 1.400 1_565 S
C653 C654 1.398 . S
C654 H642 0.950 . S
C654 C653 1.398 . S
C654 C655 1.391 . S
C655 H643 0.950 . S
C655 C651 1.393 . S
C655 C654 1.391 . S
H656 C664 0.950 . S
H657 C669 0.950 . S
H658 C666 0.950 . S
H659 C668 0.950 . S
H660 C670 0.950 . S
H661 C672 0.950 . S
H662 C674 0.950 . S
H663 C675 0.950 . S
C664 H656 0.950 . S
C664 C665 1.386 1_655 S
C664 C666 1.391 . S
C665 C664 1.386 1_455 S
C665 C669 1.393 . S
C666 H658 0.950 . S
C666 C664 1.391 . S
C666 C667 1.400 1_655 S
C667 C666 1.400 1_455 S
C667 C668 1.398 . S
C667 C673 1.491 . S
C668 H659 0.950 . S
C668 C667 1.398 . S
C668 C669 1.391 . S
C669 H657 0.950 . S
C669 C665 1.393 . S
C669 C668 1.391 . S
C670 H660 0.950 . S
C670 C671 1.386 . S
C670 C672 1.391 . S
C671 C670 1.386 . S
C671 C675 1.393 1_455 S
C672 H661 0.950 . S
C672 C670 1.391 . S
C672 C673 1.400 . S
C673 C667 1.491 . S
C673 C672 1.400 . S
C673 C674 1.398 1_455 S
C674 H662 0.950 . S
C674 C673 1.398 1_655 S
C674 C675 1.391 . S
C675 H663 0.950 . S
C675 C671 1.393 1_655 S
C675 C674 1.391 . S
H676 C684 0.950 . S
H677 C689 0.950 . S
H678 C686 0.950 . S
H679 C688 0.950 . S
H680 C690 0.950 . S
H681 C692 0.950 . S
H682 C694 0.950 . S
H683 C695 0.950 . S
C684 H676 0.950 . S
C684 C685 1.386 . S
C684 C686 1.391 . S
C685 C684 1.386 . S
C685 C689 1.393 . S
C686 H678 0.950 . S
C686 C684 1.391 . S
C686 C687 1.400 . S
C687 C686 1.400 . S
C687 C688 1.398 . S
C687 C693 1.491 . S
C688 H679 0.950 . S
C688 C687 1.398 . S
C688 C689 1.391 . S
C689 H677 0.950 . S
C689 C685 1.393 . S
C689 C688 1.391 . S
C690 H680 0.950 . S
C690 C691 1.386 . S
C690 C692 1.391 . S
C691 C690 1.386 . S
C691 C695 1.393 . S
C692 H681 0.950 . S
C692 C690 1.391 . S
C692 C693 1.400 . S
C693 C687 1.491 . S
C693 C692 1.400 . S
C693 C694 1.398 . S
C694 H682 0.950 . S
C694 C693 1.398 . S
C694 C695 1.391 . S
C695 H683 0.950 . S
C695 C691 1.393 . S
C695 C694 1.391 . S
H696 C704 0.950 . S
H697 C709 0.950 . S
H698 C706 0.950 . S
H699 C708 0.950 . S
H700 C710 0.950 . S
H701 C712 0.950 . S
H702 C714 0.950 . S
H703 C715 0.950 . S
C704 H696 0.950 . S
C704 C705 1.386 1_655 S
C704 C706 1.391 . S
C705 C704 1.386 1_455 S
C705 C709 1.393 . S
C706 H698 0.950 . S
C706 C704 1.391 . S
C706 C707 1.400 1_655 S
C707 C706 1.400 1_455 S
C707 C708 1.398 . S
C707 C713 1.491 . S
C708 H699 0.950 . S
C708 C707 1.398 . S
C708 C709 1.391 . S
C709 H697 0.950 . S
C709 C705 1.393 . S
C709 C708 1.391 . S
C710 H700 0.950 . S
C710 C711 1.396 . S
C710 C712 1.391 . S
C711 C710 1.396 . S
C711 C715 1.374 1_455 S
C712 H701 0.950 . S
C712 C710 1.391 . S
C712 C713 1.400 . S
C713 C707 1.491 . S
C713 C712 1.400 . S
C713 C714 1.398 1_455 S
C714 H702 0.950 . S
C714 C713 1.398 1_655 S
C714 C715 1.391 . S
C715 H703 0.950 . S
C715 C711 1.374 1_655 S
C715 C714 1.391 . S
H716 C724 0.950 . S
H717 C729 0.950 . S
H718 C726 0.950 . S
H719 C728 0.950 . S
H720 C730 0.950 . S
H721 C732 0.950 . S
H722 C734 0.950 . S
H723 C735 0.950 . S
C724 H716 0.950 . S
C724 C725 1.386 . S
C724 C726 1.391 . S
C725 C724 1.386 . S
C725 C729 1.393 . S
C726 H718 0.950 . S
C726 C724 1.391 . S
C726 C727 1.400 . S
C727 C726 1.400 . S
C727 C728 1.398 . S
C727 C733 1.491 . S
C728 H719 0.950 . S
C728 C727 1.398 . S
C728 C729 1.391 . S
C729 H717 0.950 . S
C729 C725 1.393 . S
C729 C728 1.391 . S
C730 H720 0.950 . S
C730 C731 1.386 . S
C730 C732 1.391 . S
C731 C730 1.386 . S
C731 C735 1.393 . S
C732 H721 0.950 . S
C732 C730 1.391 . S
C732 C733 1.400 . S
C733 C727 1.491 . S
C733 C732 1.400 . S
C733 C734 1.398 . S
C734 H722 0.950 . S
C734 C733 1.398 . S
C734 C735 1.391 . S
C735 H723 0.950 . S
C735 C731 1.393 . S
C735 C734 1.391 . S
H736 C744 0.950 1_545 S
H737 C749 0.950 . S
H738 C746 0.951 1_545 S
H739 C748 0.950 . S
H740 C750 0.950 . S
H741 C752 0.950 . S
H742 C754 0.950 . S
H743 C755 0.950 . S
C744 H736 0.950 1_565 S
C744 C745 1.386 . S
C744 C746 1.388 . S
C745 C744 1.386 . S
C745 C749 1.393 . S
C746 H738 0.951 1_565 S
C746 C744 1.388 . S
C746 C747 1.402 . S
C747 C746 1.402 . S
C747 C748 1.398 . S
C747 C753 1.491 . S
C748 H739 0.950 . S
C748 C747 1.398 . S
C748 C749 1.391 . S
C749 H737 0.950 . S
C749 C745 1.393 . S
C749 C748 1.391 . S
C750 H740 0.950 . S
C750 C751 1.384 1_565 S
C750 C752 1.391 . S
C751 C750 1.384 1_545 S
C751 C755 1.389 . S
C752 H741 0.950 . S
C752 C750 1.391 . S
C752 C753 1.400 . S
C753 C747 1.491 . S
C753 C752 1.400 . S
C753 C754 1.398 1_565 S
C754 H742 0.950 . S
C754 C753 1.398 1_545 S
C754 C755 1.391 . S
C755 H743 0.950 . S
C755 C751 1.389 . S
C755 C754 1.391 . S
H756 C764 0.950 . S
H757 C769 0.950 . S
H758 C766 0.950 . S
H759 C768 0.950 . S
H760 C770 0.950 . S
H761 C772 0.950 . S
H762 C774 0.950 . S
H763 C775 0.950 . S
C764 H756 0.950 . S
C764 C765 1.386 1_565 S
C764 C766 1.391 . S
C765 C764 1.386 1_545 S
C765 C769 1.393 . S
C766 H758 0.950 . S
C766 C764 1.391 . S
C766 C767 1.400 1_565 S
C767 C766 1.400 1_545 S
C767 C768 1.398 . S
C767 C773 1.491 . S
C768 H759 0.950 . S
C768 C767 1.398 . S
C768 C769 1.391 . S
C769 H757 0.950 . S
C769 C765 1.393 . S
C769 C768 1.391 . S
C770 H760 0.950 . S
C770 C771 1.383 . S
C770 C772 1.391 . S
C771 C770 1.383 . S
C771 C775 1.384 1_545 S
C772 H761 0.950 . S
C772 C770 1.391 . S
C772 C773 1.400 . S
C773 C767 1.491 . S
C773 C772 1.400 . S
C773 C774 1.398 1_545 S
C774 H762 0.950 . S
C774 C773 1.398 1_565 S
C774 C775 1.391 . S
C775 H763 0.950 . S
C775 C771 1.384 1_565 S
C775 C774 1.391 . S
H776 C784 0.950 . S
H777 C789 0.950 . S
H778 C786 0.950 . S
H779 C788 0.950 . S
H780 C790 0.950 . S
H781 C792 0.950 . S
H782 C794 0.950 . S
H783 C795 0.950 . S
C784 H776 0.950 . S
C784 C785 1.386 1_455 S
C784 C786 1.391 . S
C785 C784 1.386 1_655 S
C785 C789 1.393 . S
C786 H778 0.950 . S
C786 C784 1.391 . S
C786 C787 1.400 1_455 S
C787 C786 1.400 1_655 S
C787 C788 1.398 . S
C787 C793 1.491 . S
C788 H779 0.950 . S
C788 C787 1.398 . S
C788 C789 1.391 . S
C789 H777 0.950 . S
C789 C785 1.393 . S
C789 C788 1.391 . S
C790 H780 0.950 . S
C790 C791 1.430 . S
C790 C792 1.391 . S
C791 C790 1.430 . S
C791 C795 1.369 1_655 S
C792 H781 0.950 . S
C792 C790 1.391 . S
C792 C793 1.400 . S
C793 C787 1.491 . S
C793 C792 1.400 . S
C793 C794 1.398 1_655 S
C794 H782 0.950 . S
C794 C793 1.398 1_455 S
C794 C795 1.391 . S
C795 H783 0.950 . S
C795 C791 1.369 1_455 S
C795 C794 1.391 . S
H796 C804 0.950 . S
H797 C809 0.950 . S
H798 C806 0.950 . S
H799 C808 0.950 . S
H800 C810 0.950 . S
H801 C812 0.950 . S
H802 C814 0.950 . S
H803 C815 0.950 . S
C804 H796 0.950 . S
C804 C805 1.386 . S
C804 C806 1.391 . S
C805 C804 1.386 . S
C805 C809 1.393 . S
C806 H798 0.950 . S
C806 C804 1.391 . S
C806 C807 1.400 . S
C807 C806 1.400 . S
C807 C808 1.398 . S
C807 C813 1.491 . S
C808 H799 0.950 . S
C808 C807 1.398 . S
C808 C809 1.391 . S
C809 H797 0.950 . S
C809 C805 1.393 . S
C809 C808 1.391 . S
C810 H800 0.950 . S
C810 C811 1.386 . S
C810 C812 1.391 . S
C811 C810 1.386 . S
C811 C815 1.393 . S
C812 H801 0.950 . S
C812 C810 1.391 . S
C812 C813 1.400 . S
C813 C807 1.491 . S
C813 C812 1.400 . S
C813 C814 1.398 . S
C814 H802 0.950 . S
C814 C813 1.398 . S
C814 C815 1.391 . S
C815 H803 0.950 . S
C815 C811 1.393 . S
C815 C814 1.391 . S
H816 C824 0.950 . S
H817 C829 0.950 . S
H818 C826 0.950 . S
H819 C828 0.950 . S
H820 C830 0.950 . S
H821 C832 0.950 . S
H822 C834 0.950 . S
H823 C835 0.950 . S
C824 H816 0.950 . S
C824 C825 1.386 . S
C824 C826 1.391 . S
C825 C824 1.386 . S
C825 C829 1.393 . S
C826 H818 0.950 . S
C826 C824 1.391 . S
C826 C827 1.400 . S
C827 C826 1.400 . S
C827 C828 1.398 . S
C827 C833 1.491 . S
C828 H819 0.950 . S
C828 C827 1.398 . S
C828 C829 1.391 . S
C829 H817 0.950 . S
C829 C825 1.393 . S
C829 C828 1.391 . S
C830 H820 0.950 . S
C830 C831 1.386 . S
C830 C832 1.391 . S
C831 C830 1.386 . S
C831 C835 1.393 . S
C832 H821 0.950 . S
C832 C830 1.391 . S
C832 C833 1.400 . S
C833 C827 1.491 . S
C833 C832 1.400 . S
C833 C834 1.398 . S
C834 H822 0.950 . S
C834 C833 1.398 . S
C834 C835 1.391 . S
C835 H823 0.950 . S
C835 C831 1.393 . S
C835 C834 1.391 . S
H836 C844 0.950 . S
H837 C849 0.950 . S
H838 C846 0.950 . S
H839 C848 0.950 . S
H840 C850 0.950 . S
H841 C852 0.950 . S
H842 C854 0.950 . S
H843 C855 0.950 . S
C844 H836 0.950 . S
C844 C845 1.386 . S
C844 C846 1.391 . S
C845 C844 1.386 . S
C845 C849 1.393 . S
C846 H838 0.950 . S
C846 C844 1.391 . S
C846 C847 1.400 . S
C847 C846 1.400 . S
C847 C848 1.398 . S
C847 C853 1.491 . S
C848 H839 0.950 . S
C848 C847 1.398 . S
C848 C849 1.391 . S
C849 H837 0.950 . S
C849 C845 1.393 . S
C849 C848 1.391 . S
C850 H840 0.950 . S
C850 C851 1.386 . S
C850 C852 1.391 . S
C851 C850 1.386 . S
C851 C855 1.393 . S
C852 H841 0.950 . S
C852 C850 1.391 . S
C852 C853 1.400 . S
C853 C847 1.491 . S
C853 C852 1.400 . S
C853 C854 1.398 . S
C854 H842 0.950 . S
C854 C853 1.398 . S
C854 C855 1.391 . S
C855 H843 0.950 . S
C855 C851 1.393 . S
C855 C854 1.391 . S
H856 C864 0.950 . S
H857 C869 0.950 . S
H858 C866 0.950 . S
H859 C868 0.950 . S
H860 C870 0.950 . S
H861 C872 0.950 . S
H862 C874 0.950 . S
H863 C875 0.950 . S
C864 H856 0.950 . S
C864 C865 1.386 . S
C864 C866 1.391 . S
C865 C864 1.386 . S
C865 C869 1.393 . S
C866 H858 0.950 . S
C866 C864 1.391 . S
C866 C867 1.400 . S
C867 C866 1.400 . S
C867 C868 1.398 . S
C867 C873 1.491 . S
C868 H859 0.950 . S
C868 C867 1.398 . S
C868 C869 1.391 . S
C869 H857 0.950 . S
C869 C865 1.393 . S
C869 C868 1.391 . S
C870 H860 0.950 . S
C870 C871 1.386 . S
C870 C872 1.391 . S
C871 C870 1.386 . S
C871 C875 1.393 . S
C872 H861 0.950 . S
C872 C870 1.391 . S
C872 C873 1.400 . S
C873 C867 1.491 . S
C873 C872 1.400 . S
C873 C874 1.398 . S
C874 H862 0.950 . S
C874 C873 1.398 . S
C874 C875 1.391 . S
C875 H863 0.950 . S
C875 C871 1.393 . S
C875 C874 1.391 . S
H876 C884 0.950 . S
H877 C889 0.950 . S
H878 C886 0.950 . S
H879 C888 0.950 . S
H880 C890 0.950 . S
H881 C892 0.950 . S
H882 C894 0.950 . S
H883 C895 0.950 . S
C884 H876 0.950 . S
C884 C885 1.386 . S
C884 C886 1.391 . S
C885 C884 1.386 . S
C885 C889 1.393 . S
C886 H878 0.950 . S
C886 C884 1.391 . S
C886 C887 1.400 . S
C887 C886 1.400 . S
C887 C888 1.398 . S
C887 C893 1.491 . S
C888 H879 0.950 . S
C888 C887 1.398 . S
C888 C889 1.391 . S
C889 H877 0.950 . S
C889 C885 1.393 . S
C889 C888 1.391 . S
C890 H880 0.950 . S
C890 C891 1.386 . S
C890 C892 1.391 . S
C891 C890 1.386 . S
C891 C895 1.393 . S
C892 H881 0.950 . S
C892 C890 1.391 . S
C892 C893 1.400 . S
C893 C887 1.491 . S
C893 C892 1.400 . S
C893 C894 1.398 . S
C894 H882 0.950 . S
C894 C893 1.398 . S
C894 C895 1.391 . S
C895 H883 0.950 . S
C895 C891 1.393 . S
C895 C894 1.391 . S
H896 C904 0.950 . S
H897 C909 0.950 . S
H898 C906 0.950 . S
H899 C908 0.950 . S
H900 C910 0.950 . S
H901 C912 0.950 . S
H902 C914 0.950 . S
H903 C915 0.950 . S
C904 H896 0.950 . S
C904 C905 1.386 . S
C904 C906 1.391 . S
C905 C904 1.386 . S
C905 C909 1.393 . S
C906 H898 0.950 . S
C906 C904 1.391 . S
C906 C907 1.400 . S
C907 C906 1.400 . S
C907 C908 1.398 . S
C907 C913 1.491 . S
C908 H899 0.950 . S
C908 C907 1.398 . S
C908 C909 1.391 . S
C909 H897 0.950 . S
C909 C905 1.393 . S
C909 C908 1.391 . S
C910 H900 0.950 . S
C910 C911 1.386 . S
C910 C912 1.391 . S
C911 C910 1.386 . S
C911 C915 1.393 . S
C912 H901 0.950 . S
C912 C910 1.391 . S
C912 C913 1.400 . S
C913 C907 1.491 . S
C913 C912 1.400 . S
C913 C914 1.398 . S
C914 H902 0.950 . S
C914 C913 1.398 . S
C914 C915 1.391 . S
C915 H903 0.950 . S
C915 C911 1.393 . S
C915 C914 1.391 . S
H916 C924 0.950 . S
H917 C929 0.950 . S
H918 C926 0.950 . S
H919 C928 0.950 . S
H920 C930 0.950 . S
H921 C932 0.950 . S
H922 C934 0.950 . S
H923 C935 0.950 . S
C924 H916 0.950 . S
C924 C925 1.386 . S
C924 C926 1.391 . S
C925 C924 1.386 . S
C925 C929 1.393 . S
C926 H918 0.950 . S
C926 C924 1.391 . S
C926 C927 1.400 . S
C927 C926 1.400 . S
C927 C928 1.398 . S
C927 C933 1.491 . S
C928 H919 0.950 . S
C928 C927 1.398 . S
C928 C929 1.391 . S
C929 H917 0.950 . S
C929 C925 1.393 . S
C929 C928 1.391 . S
C930 H920 0.950 . S
C930 C931 1.386 . S
C930 C932 1.391 . S
C931 C930 1.386 . S
C931 C935 1.393 . S
C932 H921 0.950 . S
C932 C930 1.391 . S
C932 C933 1.400 . S
C933 C927 1.491 . S
C933 C932 1.400 . S
C933 C934 1.398 . S
C934 H922 0.950 . S
C934 C933 1.398 . S
C934 C935 1.391 . S
C935 H923 0.950 . S
C935 C931 1.393 . S
C935 C934 1.391 . S
H936 C944 0.950 . S
H937 C949 0.950 . S
H938 C946 0.950 . S
H939 C948 0.950 . S
H940 C950 0.950 . S
H941 C952 0.950 . S
H942 C954 0.950 . S
H943 C955 0.950 . S
C944 H936 0.950 . S
C944 C945 1.386 . S
C944 C946 1.391 . S
C945 C944 1.386 . S
C945 C949 1.393 . S
C946 H938 0.950 . S
C946 C944 1.391 . S
C946 C947 1.400 . S
C947 C946 1.400 . S
C947 C948 1.398 . S
C947 C953 1.491 . S
C948 H939 0.950 . S
C948 C947 1.398 . S
C948 C949 1.391 . S
C949 H937 0.950 . S
C949 C945 1.393 . S
C949 C948 1.391 . S
C950 H940 0.950 . S
C950 C951 1.386 . S
C950 C952 1.391 . S
C951 C950 1.386 . S
C951 C955 1.393 . S
C952 H941 0.950 . S
C952 C950 1.391 . S
C952 C953 1.400 . S
C953 C947 1.491 . S
C953 C952 1.400 . S
C953 C954 1.398 . S
C954 H942 0.950 . S
C954 C953 1.398 . S
C954 C955 1.391 . S
C955 H943 0.950 . S
C955 C951 1.393 . S
C955 C954 1.391 . S
H956 C964 0.950 . S
H957 C969 0.950 . S
H958 C966 0.950 . S
H959 C968 0.950 . S
H960 C970 0.950 . S
H961 C972 0.950 . S
H962 C974 0.950 . S
H963 C975 0.950 . S
C964 H956 0.950 . S
C964 C965 1.386 . S
C964 C966 1.391 . S
C965 C964 1.386 . S
C965 C969 1.393 . S
C966 H958 0.950 . S
C966 C964 1.391 . S
C966 C967 1.400 . S
C967 C966 1.400 . S
C967 C968 1.398 . S
C967 C973 1.491 . S
C968 H959 0.950 . S
C968 C967 1.398 . S
C968 C969 1.391 . S
C969 H957 0.950 . S
C969 C965 1.393 . S
C969 C968 1.391 . S
C970 H960 0.950 . S
C970 C971 1.386 . S
C970 C972 1.391 . S
C971 C970 1.386 . S
C971 C975 1.393 . S
C972 H961 0.950 . S
C972 C970 1.391 . S
C972 C973 1.400 . S
C973 C967 1.491 . S
C973 C972 1.400 . S
C973 C974 1.398 . S
C974 H962 0.950 . S
C974 C973 1.398 . S
C974 C975 1.391 . S
C975 H963 0.950 . S
C975 C971 1.393 . S
C975 C974 1.391 . S
H976 C984 0.950 . S
H977 C989 0.950 . S
H978 C986 0.950 . S
H979 C988 0.950 . S
H980 C990 0.950 . S
H981 C992 0.950 . S
H982 C994 0.950 . S
H983 C995 0.950 . S
C984 H976 0.950 . S
C984 C985 1.386 . S
C984 C986 1.391 . S
C985 C984 1.386 . S
C985 C989 1.393 . S
C986 H978 0.950 . S
C986 C984 1.391 . S
C986 C987 1.400 . S
C987 C986 1.400 . S
C987 C988 1.398 . S
C987 C993 1.491 . S
C988 H979 0.950 . S
C988 C987 1.398 . S
C988 C989 1.391 . S
C989 H977 0.950 . S
C989 C985 1.393 . S
C989 C988 1.391 . S
C990 H980 0.950 . S
C990 C991 1.386 . S
C990 C992 1.391 . S
C991 C990 1.386 . S
C991 C995 1.393 . S
C992 H981 0.950 . S
C992 C990 1.391 . S
C992 C993 1.400 . S
C993 C987 1.491 . S
C993 C992 1.400 . S
C993 C994 1.398 . S
C994 H982 0.950 . S
C994 C993 1.398 . S
C994 C995 1.391 . S
C995 H983 0.950 . S
C995 C991 1.393 . S
C995 C994 1.391 . S
H996 C1004 0.950 . S
H997 C1009 0.950 . S
H998 C1006 0.950 . S
H999 C1008 0.950 . S
H1000 C1010 0.950 . S
H1001 C1012 0.950 . S
H1002 C1014 0.950 . S
H1003 C1015 0.950 . S
C1004 H996 0.950 . S
C1004 C1005 1.386 . S
C1004 C1006 1.391 . S
C1005 C1004 1.386 . S
C1005 C1009 1.393 . S
C1006 H998 0.950 . S
C1006 C1004 1.391 . S
C1006 C1007 1.400 . S
C1007 C1006 1.400 . S
C1007 C1008 1.398 . S
C1007 C1013 1.491 . S
C1008 H999 0.950 . S
C1008 C1007 1.398 . S
C1008 C1009 1.391 . S
C1009 H997 0.950 . S
C1009 C1005 1.393 . S
C1009 C1008 1.391 . S
C1010 H1000 0.950 . S
C1010 C1011 1.386 . S
C1010 C1012 1.391 . S
C1011 C1010 1.386 . S
C1011 C1015 1.393 . S
C1012 H1001 0.950 . S
C1012 C1010 1.391 . S
C1012 C1013 1.400 . S
C1013 C1007 1.491 . S
C1013 C1012 1.400 . S
C1013 C1014 1.398 . S
C1014 H1002 0.950 . S
C1014 C1013 1.398 . S
C1014 C1015 1.391 . S
C1015 H1003 0.950 . S
C1015 C1011 1.393 . S
C1015 C1014 1.391 . S
H1016 C1024 0.950 . S
H1017 C1029 0.950 . S
H1018 C1026 0.950 . S
H1019 C1028 0.950 . S
H1020 C1030 0.950 . S
H1021 C1032 0.950 . S
H1022 C1034 0.950 . S
H1023 C1035 0.950 . S
C1024 H1016 0.950 . S
C1024 C1025 1.386 . S
C1024 C1026 1.391 . S
C1025 C1024 1.386 . S
C1025 C1029 1.393 . S
C1026 H1018 0.950 . S
C1026 C1024 1.391 . S
C1026 C1027 1.400 . S
C1027 C1026 1.400 . S
C1027 C1028 1.398 . S
C1027 C1033 1.491 . S
C1028 H1019 0.950 . S
C1028 C1027 1.398 . S
C1028 C1029 1.391 . S
C1029 H1017 0.950 . S
C1029 C1025 1.393 . S
C1029 C1028 1.391 . S
C1030 H1020 0.950 . S
C1030 C1031 1.386 . S
C1030 C1032 1.391 . S
C1031 C1030 1.386 . S
C1031 C1035 1.393 . S
C1032 H1021 0.950 . S
C1032 C1030 1.391 . S
C1032 C1033 1.400 . S
C1033 C1027 1.491 . S
C1033 C1032 1.400 . S
C1033 C1034 1.398 . S
C1034 H1022 0.950 . S
C1034 C1033 1.398 . S
C1034 C1035 1.391 . S
C1035 H1023 0.950 . S
C1035 C1031 1.393 . S
C1035 C1034 1.391 . S
H1036 C1044 0.950 . S
H1037 C1049 0.950 . S
H1038 C1046 0.950 . S
H1039 C1048 0.950 . S
H1040 C1050 0.950 . S
H1041 C1052 0.950 . S
H1042 C1054 0.950 . S
H1043 C1055 0.950 . S
C1044 H1036 0.950 . S
C1044 C1045 1.386 . S
C1044 C1046 1.391 . S
C1045 C1044 1.386 . S
C1045 C1049 1.393 . S
C1046 H1038 0.950 . S
C1046 C1044 1.391 . S
C1046 C1047 1.400 . S
C1047 C1046 1.400 . S
C1047 C1048 1.398 . S
C1047 C1053 1.491 . S
C1048 H1039 0.950 . S
C1048 C1047 1.398 . S
C1048 C1049 1.391 . S
C1049 H1037 0.950 . S
C1049 C1045 1.393 . S
C1049 C1048 1.391 . S
C1050 H1040 0.950 . S
C1050 C1051 1.386 . S
C1050 C1052 1.391 . S
C1051 C1050 1.386 . S
C1051 C1055 1.393 . S
C1052 H1041 0.950 . S
C1052 C1050 1.391 . S
C1052 C1053 1.400 . S
C1053 C1047 1.491 . S
C1053 C1052 1.400 . S
C1053 C1054 1.398 . S
C1054 H1042 0.950 . S
C1054 C1053 1.398 . S
C1054 C1055 1.391 . S
C1055 H1043 0.950 . S
C1055 C1051 1.393 . S
C1055 C1054 1.391 . S
H1056 C1064 0.950 . S
H1057 C1069 0.950 . S
H1058 C1066 0.950 . S
H1059 C1068 0.950 . S
H1060 C1070 0.950 . S
H1061 C1072 0.950 . S
H1062 C1074 0.950 . S
H1063 C1075 0.950 . S
C1064 H1056 0.950 . S
C1064 C1065 1.386 . S
C1064 C1066 1.391 . S
C1065 C1064 1.386 . S
C1065 C1069 1.393 . S
C1066 H1058 0.950 . S
C1066 C1064 1.391 . S
C1066 C1067 1.400 . S
C1067 C1066 1.400 . S
C1067 C1068 1.398 . S
C1067 C1073 1.491 . S
C1068 H1059 0.950 . S
C1068 C1067 1.398 . S
C1068 C1069 1.391 . S
C1069 H1057 0.950 . S
C1069 C1065 1.393 . S
C1069 C1068 1.391 . S
C1070 H1060 0.950 . S
C1070 C1071 1.386 . S
C1070 C1072 1.391 . S
C1071 C1070 1.386 . S
C1071 C1075 1.393 . S
C1072 H1061 0.950 . S
C1072 C1070 1.391 . S
C1072 C1073 1.400 . S
C1073 C1067 1.491 . S
C1073 C1072 1.400 . S
C1073 C1074 1.398 . S
C1074 H1062 0.950 . S
C1074 C1073 1.398 . S
C1074 C1075 1.391 . S
C1075 H1063 0.950 . S
C1075 C1071 1.393 . S
C1075 C1074 1.391 . S
H1076 C1084 0.950 . S
H1077 C1089 0.950 . S
H1078 C1086 0.950 . S
H1079 C1088 0.950 . S
H1080 C1090 0.950 . S
H1081 C1092 0.950 . S
H1082 C1094 0.950 . S
H1083 C1095 0.950 . S
C1084 H1076 0.950 . S
C1084 C1085 1.386 . S
C1084 C1086 1.391 . S
C1085 C1084 1.386 . S
C1085 C1089 1.393 . S
C1086 H1078 0.950 . S
C1086 C1084 1.391 . S
C1086 C1087 1.400 . S
C1087 C1086 1.400 . S
C1087 C1088 1.398 . S
C1087 C1093 1.491 . S
C1088 H1079 0.950 . S
C1088 C1087 1.398 . S
C1088 C1089 1.391 . S
C1089 H1077 0.950 . S
C1089 C1085 1.393 . S
C1089 C1088 1.391 . S
C1090 H1080 0.950 . S
C1090 C1091 1.386 . S
C1090 C1092 1.391 . S
C1091 C1090 1.386 . S
C1091 C1095 1.393 . S
C1092 H1081 0.950 . S
C1092 C1090 1.391 . S
C1092 C1093 1.400 . S
C1093 C1087 1.491 . S
C1093 C1092 1.400 . S
C1093 C1094 1.398 . S
C1094 H1082 0.950 . S
C1094 C1093 1.398 . S
C1094 C1095 1.391 . S
C1095 H1083 0.950 . S
C1095 C1091 1.393 . S
C1095 C1094 1.391 . S
H1096 C1104 0.950 . S
H1097 C1109 0.950 . S
H1098 C1106 0.950 . S
H1099 C1108 0.950 . S
H1100 C1110 0.950 . S
H1101 C1112 0.950 . S
H1102 C1114 0.950 . S
H1103 C1115 0.950 . S
C1104 H1096 0.950 . S
C1104 C1105 1.386 . S
C1104 C1106 1.391 . S
C1105 C1104 1.386 . S
C1105 C1109 1.393 . S
C1106 H1098 0.950 . S
C1106 C1104 1.391 . S
C1106 C1107 1.400 . S
C1107 C1106 1.400 . S
C1107 C1108 1.398 . S
C1107 C1113 1.491 . S
C1108 H1099 0.950 . S
C1108 C1107 1.398 . S
C1108 C1109 1.391 . S
C1109 H1097 0.950 . S
C1109 C1105 1.393 . S
C1109 C1108 1.391 . S
C1110 H1100 0.950 . S
C1110 C1111 1.386 . S
C1110 C1112 1.391 . S
C1111 C1110 1.386 . S
C1111 C1115 1.393 . S
C1112 H1101 0.950 . S
C1112 C1110 1.391 . S
C1112 C1113 1.400 . S
C1113 C1107 1.491 . S
C1113 C1112 1.400 . S
C1113 C1114 1.398 . S
C1114 H1102 0.950 . S
C1114 C1113 1.398 . S
C1114 C1115 1.391 . S
C1115 H1103 0.950 . S
C1115 C1111 1.393 . S
C1115 C1114 1.391 . S
H1116 C1124 0.950 . S
H1117 C1129 0.950 . S
H1118 C1126 0.950 . S
H1119 C1128 0.950 . S
H1120 C1130 0.950 . S
H1121 C1132 0.950 . S
H1122 C1134 0.950 . S
H1123 C1135 0.950 . S
C1124 H1116 0.950 . S
C1124 C1125 1.386 . S
C1124 C1126 1.391 . S
C1125 C1124 1.386 . S
C1125 C1129 1.393 . S
C1126 H1118 0.950 . S
C1126 C1124 1.391 . S
C1126 C1127 1.400 . S
C1127 C1126 1.400 . S
C1127 C1128 1.398 . S
C1127 C1133 1.491 . S
C1128 H1119 0.950 . S
C1128 C1127 1.398 . S
C1128 C1129 1.391 . S
C1129 H1117 0.950 . S
C1129 C1125 1.393 . S
C1129 C1128 1.391 . S
C1130 H1120 0.950 . S
C1130 C1131 1.386 . S
C1130 C1132 1.391 . S
C1131 C1130 1.386 . S
C1131 C1135 1.393 . S
C1132 H1121 0.950 . S
C1132 C1130 1.391 . S
C1132 C1133 1.400 . S
C1133 C1127 1.491 . S
C1133 C1132 1.400 . S
C1133 C1134 1.398 . S
C1134 H1122 0.950 . S
C1134 C1133 1.398 . S
C1134 C1135 1.391 . S
C1135 H1123 0.950 . S
C1135 C1131 1.393 . S
C1135 C1134 1.391 . S
H1136 C1144 0.950 . S
H1137 C1149 0.950 . S
H1138 C1146 0.950 . S
H1139 C1148 0.950 . S
H1140 C1150 0.950 . S
H1141 C1152 0.950 . S
H1142 C1154 0.950 . S
H1143 C1155 0.950 . S
C1144 H1136 0.950 . S
C1144 C1145 1.386 . S
C1144 C1146 1.391 . S
C1145 C1144 1.386 . S
C1145 C1149 1.393 . S
C1146 H1138 0.950 . S
C1146 C1144 1.391 . S
C1146 C1147 1.400 . S
C1147 C1146 1.400 . S
C1147 C1148 1.398 . S
C1147 C1153 1.491 . S
C1148 H1139 0.950 . S
C1148 C1147 1.398 . S
C1148 C1149 1.391 . S
C1149 H1137 0.950 . S
C1149 C1145 1.393 . S
C1149 C1148 1.391 . S
C1150 H1140 0.950 . S
C1150 C1151 1.386 . S
C1150 C1152 1.391 . S
C1151 C1150 1.386 . S
C1151 C1155 1.393 . S
C1152 H1141 0.950 . S
C1152 C1150 1.391 . S
C1152 C1153 1.400 . S
C1153 C1147 1.491 . S
C1153 C1152 1.400 . S
C1153 C1154 1.398 . S
C1154 H1142 0.950 . S
C1154 C1153 1.398 . S
C1154 C1155 1.391 . S
C1155 H1143 0.950 . S
C1155 C1151 1.393 . S
C1155 C1154 1.391 . S
H1156 C1164 0.950 . S
H1157 C1169 0.950 . S
H1158 C1166 0.950 . S
H1159 C1168 0.950 . S
H1160 C1170 0.950 . S
H1161 C1172 0.950 . S
H1162 C1174 0.950 . S
H1163 C1175 0.950 . S
C1164 H1156 0.950 . S
C1164 C1165 1.386 . S
C1164 C1166 1.391 . S
C1165 C1164 1.386 . S
C1165 C1169 1.393 . S
C1166 H1158 0.950 . S
C1166 C1164 1.391 . S
C1166 C1167 1.400 . S
C1167 C1166 1.400 . S
C1167 C1168 1.398 . S
C1167 C1173 1.491 . S
C1168 H1159 0.950 . S
C1168 C1167 1.398 . S
C1168 C1169 1.391 . S
C1169 H1157 0.950 . S
C1169 C1165 1.393 . S
C1169 C1168 1.391 . S
C1170 H1160 0.950 . S
C1170 C1171 1.386 . S
C1170 C1172 1.391 . S
C1171 C1170 1.386 . S
C1171 C1175 1.393 . S
C1172 H1161 0.950 . S
C1172 C1170 1.391 . S
C1172 C1173 1.400 . S
C1173 C1167 1.491 . S
C1173 C1172 1.400 . S
C1173 C1174 1.398 . S
C1174 H1162 0.950 . S
C1174 C1173 1.398 . S
C1174 C1175 1.391 . S
C1175 H1163 0.950 . S
C1175 C1171 1.393 . S
C1175 C1174 1.391 . S
H1176 C1184 0.950 . S
H1177 C1189 0.950 . S
H1178 C1186 0.950 . S
H1179 C1188 0.950 . S
H1180 C1190 0.950 . S
H1181 C1192 0.950 . S
H1182 C1194 0.950 . S
H1183 C1195 0.950 . S
C1184 H1176 0.950 . S
C1184 C1185 1.386 . S
C1184 C1186 1.391 . S
C1185 C1184 1.386 . S
C1185 C1189 1.393 . S
C1186 H1178 0.950 . S
C1186 C1184 1.391 . S
C1186 C1187 1.400 . S
C1187 C1186 1.400 . S
C1187 C1188 1.398 . S
C1187 C1193 1.491 . S
C1188 H1179 0.950 . S
C1188 C1187 1.398 . S
C1188 C1189 1.391 . S
C1189 H1177 0.950 . S
C1189 C1185 1.393 . S
C1189 C1188 1.391 . S
C1190 H1180 0.950 . S
C1190 C1191 1.386 . S
C1190 C1192 1.391 . S
C1191 C1190 1.386 . S
C1191 C1195 1.393 . S
C1192 H1181 0.950 . S
C1192 C1190 1.391 . S
C1192 C1193 1.400 . S
C1193 C1187 1.491 . S
C1193 C1192 1.400 . S
C1193 C1194 1.398 . S
C1194 H1182 0.950 . S
C1194 C1193 1.398 . S
C1194 C1195 1.391 . S
C1195 H1183 0.950 . S
C1195 C1191 1.393 . S
C1195 C1194 1.391 . S
H1196 C1204 0.950 . S
H1197 C1209 0.950 . S
H1198 C1206 0.950 . S
H1199 C1208 0.950 . S
H1200 C1210 0.950 . S
H1201 C1212 0.950 . S
H1202 C1214 0.950 . S
H1203 C1215 0.950 . S
C1204 H1196 0.950 . S
C1204 C1205 1.386 . S
C1204 C1206 1.391 . S
C1205 C1204 1.386 . S
C1205 C1209 1.393 . S
C1206 H1198 0.950 . S
C1206 C1204 1.391 . S
C1206 C1207 1.400 . S
C1207 C1206 1.400 . S
C1207 C1208 1.398 . S
C1207 C1213 1.491 . S
C1208 H1199 0.950 . S
C1208 C1207 1.398 . S
C1208 C1209 1.391 . S
C1209 H1197 0.950 . S
C1209 C1205 1.393 . S
C1209 C1208 1.391 . S
C1210 H1200 0.950 . S
C1210 C1211 1.386 . S
C1210 C1212 1.391 . S
C1211 C1210 1.386 . S
C1211 C1215 1.393 . S
C1212 H1201 0.950 . S
C1212 C1210 1.391 . S
C1212 C1213 1.400 . S
C1213 C1207 1.491 . S
C1213 C1212 1.400 . S
C1213 C1214 1.398 . S
C1214 H1202 0.950 . S
C1214 C1213 1.398 . S
C1214 C1215 1.391 . S
C1215 H1203 0.950 . S
C1215 C1211 1.393 . S
C1215 C1214 1.391 . S
H1216 C1224 0.950 . S
H1217 C1229 0.950 . S
H1218 C1226 0.950 . S
H1219 C1228 0.950 . S
H1220 C1230 0.950 . S
H1221 C1232 0.950 . S
H1222 C1234 0.950 . S
H1223 C1235 0.950 . S
C1224 H1216 0.950 . S
C1224 C1225 1.386 . S
C1224 C1226 1.391 . S
C1225 C1224 1.386 . S
C1225 C1229 1.393 . S
C1226 H1218 0.950 . S
C1226 C1224 1.391 . S
C1226 C1227 1.400 . S
C1227 C1226 1.400 . S
C1227 C1228 1.398 . S
C1227 C1233 1.491 . S
C1228 H1219 0.950 . S
C1228 C1227 1.398 . S
C1228 C1229 1.391 . S
C1229 H1217 0.950 . S
C1229 C1225 1.393 . S
C1229 C1228 1.391 . S
C1230 H1220 0.950 . S
C1230 C1231 1.386 . S
C1230 C1232 1.391 . S
C1231 C1230 1.386 . S
C1231 C1235 1.393 . S
C1232 H1221 0.950 . S
C1232 C1230 1.391 . S
C1232 C1233 1.400 . S
C1233 C1227 1.491 . S
C1233 C1232 1.400 . S
C1233 C1234 1.398 . S
C1234 H1222 0.950 . S
C1234 C1233 1.398 . S
C1234 C1235 1.391 . S
C1235 H1223 0.950 . S
C1235 C1231 1.393 . S
C1235 C1234 1.391 . S
H1236 C1244 0.950 . S
H1237 C1249 0.950 . S
H1238 C1246 0.950 . S
H1239 C1248 0.950 . S
H1240 C1250 0.950 . S
H1241 C1252 0.950 . S
H1242 C1254 0.950 . S
H1243 C1255 0.950 . S
C1244 H1236 0.950 . S
C1244 C1245 1.386 . S
C1244 C1246 1.391 . S
C1245 C1244 1.386 . S
C1245 C1249 1.393 . S
C1246 H1238 0.950 . S
C1246 C1244 1.391 . S
C1246 C1247 1.400 . S
C1247 C1246 1.400 . S
C1247 C1248 1.398 . S
C1247 C1253 1.491 . S
C1248 H1239 0.950 . S
C1248 C1247 1.398 . S
C1248 C1249 1.391 . S
C1249 H1237 0.950 . S
C1249 C1245 1.393 . S
C1249 C1248 1.391 . S
C1250 H1240 0.950 . S
C1250 C1251 1.386 . S
C1250 C1252 1.391 . S
C1251 C1250 1.386 . S
C1251 C1255 1.393 . S
C1252 H1241 0.950 . S
C1252 C1250 1.391 . S
C1252 C1253 1.400 . S
C1253 C1247 1.491 . S
C1253 C1252 1.400 . S
C1253 C1254 1.398 . S
C1254 H1242 0.950 . S
C1254 C1253 1.398 . S
C1254 C1255 1.391 . S
C1255 H1243 0.950 . S
C1255 C1251 1.393 . S
C1255 C1254 1.391 . S
H1256 C1264 0.950 . S
H1257 C1269 0.950 . S
H1258 C1266 0.950 . S
H1259 C1268 0.950 . S
H1260 C1270 0.950 . S
H1261 C1272 0.950 . S
H1262 C1274 0.950 . S
H1263 C1275 0.950 . S
C1264 H1256 0.950 . S
C1264 C1265 1.386 . S
C1264 C1266 1.391 . S
C1265 C1264 1.386 . S
C1265 C1269 1.393 . S
C1266 H1258 0.950 . S
C1266 C1264 1.391 . S
C1266 C1267 1.400 . S
C1267 C1266 1.400 . S
C1267 C1268 1.398 . S
C1267 C1273 1.491 . S
C1268 H1259 0.950 . S
C1268 C1267 1.398 . S
C1268 C1269 1.391 . S
C1269 H1257 0.950 . S
C1269 C1265 1.393 . S
C1269 C1268 1.391 . S
C1270 H1260 0.950 . S
C1270 C1271 1.386 . S
C1270 C1272 1.391 . S
C1271 C1270 1.386 . S
C1271 C1275 1.393 . S
C1272 H1261 0.950 . S
C1272 C1270 1.391 . S
C1272 C1273 1.400 . S
C1273 C1267 1.491 . S
C1273 C1272 1.400 . S
C1273 C1274 1.398 . S
C1274 H1262 0.950 . S
C1274 C1273 1.398 . S
C1274 C1275 1.391 . S
C1275 H1263 0.950 . S
C1275 C1271 1.393 . S
C1275 C1274 1.391 . S
H1276 C1284 0.950 . S
H1277 C1289 0.950 . S
H1278 C1286 0.950 . S
H1279 C1288 0.950 . S
H1280 C1290 0.950 . S
H1281 C1292 0.950 . S
H1282 C1294 0.950 . S
H1283 C1295 0.950 . S
C1284 H1276 0.950 . S
C1284 C1285 1.386 . S
C1284 C1286 1.391 . S
C1285 C1284 1.386 . S
C1285 C1289 1.393 . S
C1286 H1278 0.950 . S
C1286 C1284 1.391 . S
C1286 C1287 1.400 . S
C1287 C1286 1.400 . S
C1287 C1288 1.398 . S
C1287 C1293 1.491 . S
C1288 H1279 0.950 . S
C1288 C1287 1.398 . S
C1288 C1289 1.391 . S
C1289 H1277 0.950 . S
C1289 C1285 1.393 . S
C1289 C1288 1.391 . S
C1290 H1280 0.950 . S
C1290 C1291 1.386 . S
C1290 C1292 1.391 . S
C1291 C1290 1.386 . S
C1291 C1295 1.393 . S
C1292 H1281 0.950 . S
C1292 C1290 1.391 . S
C1292 C1293 1.400 . S
C1293 C1287 1.491 . S
C1293 C1292 1.400 . S
C1293 C1294 1.398 . S
C1294 H1282 0.950 . S
C1294 C1293 1.398 . S
C1294 C1295 1.391 . S
C1295 H1283 0.950 . S
C1295 C1291 1.393 . S
C1295 C1294 1.391 . S
H1296 C1304 0.950 . S
H1297 C1309 0.950 . S
H1298 C1306 0.950 . S
H1299 C1308 0.950 . S
H1300 C1310 0.950 . S
H1301 C1312 0.950 . S
H1302 C1314 0.950 . S
H1303 C1315 0.950 . S
C1304 H1296 0.950 . S
C1304 C1305 1.386 . S
C1304 C1306 1.391 . S
C1305 C1304 1.386 . S
C1305 C1309 1.393 . S
C1306 H1298 0.950 . S
C1306 C1304 1.391 . S
C1306 C1307 1.400 . S
C1307 C1306 1.400 . S
C1307 C1308 1.398 . S
C1307 C1313 1.491 . S
C1308 H1299 0.950 . S
C1308 C1307 1.398 . S
C1308 C1309 1.391 . S
C1309 H1297 0.950 . S
C1309 C1305 1.393 . S
C1309 C1308 1.391 . S
C1310 H1300 0.950 . S
C1310 C1311 1.386 . S
C1310 C1312 1.391 . S
C1311 C1310 1.386 . S
C1311 C1315 1.393 . S
C1312 H1301 0.950 . S
C1312 C1310 1.391 . S
C1312 C1313 1.400 . S
C1313 C1307 1.491 . S
C1313 C1312 1.400 . S
C1313 C1314 1.398 . S
C1314 H1302 0.950 . S
C1314 C1313 1.398 . S
C1314 C1315 1.391 . S
C1315 H1303 0.950 . S
C1315 C1311 1.393 . S
C1315 C1314 1.391 . S
H1316 C1324 0.950 . S
H1317 C1329 0.950 . S
H1318 C1326 0.950 . S
H1319 C1328 0.950 . S
H1320 C1330 0.950 . S
H1321 C1332 0.950 . S
H1322 C1334 0.950 . S
H1323 C1335 0.950 . S
C1324 H1316 0.950 . S
C1324 C1325 1.386 . S
C1324 C1326 1.391 . S
C1325 C1324 1.386 . S
C1325 C1329 1.393 . S
C1326 H1318 0.950 . S
C1326 C1324 1.391 . S
C1326 C1327 1.400 . S
C1327 C1326 1.400 . S
C1327 C1328 1.398 . S
C1327 C1333 1.491 . S
C1328 H1319 0.950 . S
C1328 C1327 1.398 . S
C1328 C1329 1.391 . S
C1329 H1317 0.950 . S
C1329 C1325 1.393 . S
C1329 C1328 1.391 . S
C1330 H1320 0.950 . S
C1330 C1331 1.386 . S
C1330 C1332 1.391 . S
C1331 C1330 1.386 . S
C1331 C1335 1.393 . S
C1332 H1321 0.950 . S
C1332 C1330 1.391 . S
C1332 C1333 1.400 . S
C1333 C1327 1.491 . S
C1333 C1332 1.400 . S
C1333 C1334 1.398 . S
C1334 H1322 0.950 . S
C1334 C1333 1.398 . S
C1334 C1335 1.391 . S
C1335 H1323 0.950 . S
C1335 C1331 1.393 . S
C1335 C1334 1.391 . S
H1336 C1344 0.950 . S
H1337 C1349 0.950 . S
H1338 C1346 0.950 . S
H1339 C1348 0.950 . S
H1340 C1350 0.950 . S
H1341 C1352 0.950 . S
H1342 C1354 0.950 . S
H1343 C1355 0.950 . S
C1344 H1336 0.950 . S
C1344 C1345 1.386 . S
C1344 C1346 1.391 . S
C1345 C1344 1.386 . S
C1345 C1349 1.393 . S
C1346 H1338 0.950 . S
C1346 C1344 1.391 . S
C1346 C1347 1.400 . S
C1347 C1346 1.400 . S
C1347 C1348 1.398 . S
C1347 C1353 1.491 . S
C1348 H1339 0.950 . S
C1348 C1347 1.398 . S
C1348 C1349 1.391 . S
C1349 H1337 0.950 . S
C1349 C1345 1.393 . S
C1349 C1348 1.391 . S
C1350 H1340 0.950 . S
C1350 C1351 1.386 . S
C1350 C1352 1.391 . S
C1351 C1350 1.386 . S
C1351 C1355 1.393 . S
C1352 H1341 0.950 . S
C1352 C1350 1.391 . S
C1352 C1353 1.400 . S
C1353 C1347 1.491 . S
C1353 C1352 1.400 . S
C1353 C1354 1.398 . S
C1354 H1342 0.950 . S
C1354 C1353 1.398 . S
C1354 C1355 1.391 . S
C1355 H1343 0.950 . S
C1355 C1351 1.393 . S
C1355 C1354 1.391 . S
H1356 C1364 0.938 1_554 S
H1357 C1369 0.950 . S
H1358 C1366 0.950 . S
H1359 C1368 0.950 . S
H1360 C1370 0.950 . S
H1361 C1372 0.950 . S
H1362 C1374 0.950 . S
H1363 C1375 0.950 . S
C1364 H1356 0.938 1_556 S
C1364 C1365 1.386 . S
C1364 C1366 1.391 . S
C1365 C1364 1.386 . S
C1365 C1369 1.393 . S
C1366 H1358 0.950 . S
C1366 C1364 1.391 . S
C1366 C1367 1.400 . S
C1367 C1366 1.400 . S
C1367 C1368 1.398 . S
C1367 C1373 1.491 . S
C1368 H1359 0.950 . S
C1368 C1367 1.398 . S
C1368 C1369 1.391 . S
C1369 H1357 0.950 . S
C1369 C1365 1.393 . S
C1369 C1368 1.391 . S
C1370 H1360 0.950 . S
C1370 C1371 1.386 . S
C1370 C1372 1.391 . S
C1371 C1370 1.386 . S
C1371 C1375 1.393 . S
C1372 H1361 0.950 . S
C1372 C1370 1.391 . S
C1372 C1373 1.400 . S
C1373 C1367 1.491 . S
C1373 C1372 1.400 . S
C1373 C1374 1.398 . S
C1374 H1362 0.950 . S
C1374 C1373 1.398 . S
C1374 C1375 1.391 . S
C1375 H1363 0.950 . S
C1375 C1371 1.393 . S
C1375 C1374 1.391 . S
H1376 C1384 0.950 . S
H1377 C1389 0.950 . S
H1378 C1386 0.950 . S
H1379 C1388 0.950 . S
H1380 C1390 0.950 . S
H1381 C1392 0.950 . S
H1382 C1394 0.950 . S
H1383 C1395 0.950 . S
C1384 H1376 0.950 . S
C1384 C1385 1.386 . S
C1384 C1386 1.391 . S
C1385 C1384 1.386 . S
C1385 C1389 1.393 . S
C1386 H1378 0.950 . S
C1386 C1384 1.391 . S
C1386 C1387 1.400 . S
C1387 C1386 1.400 . S
C1387 C1388 1.398 . S
C1387 C1393 1.491 . S
C1388 H1379 0.950 . S
C1388 C1387 1.398 . S
C1388 C1389 1.391 . S
C1389 H1377 0.950 . S
C1389 C1385 1.393 . S
C1389 C1388 1.391 . S
C1390 H1380 0.950 . S
C1390 C1391 1.386 . S
C1390 C1392 1.391 . S
C1391 C1390 1.386 . S
C1391 C1395 1.393 . S
C1392 H1381 0.950 . S
C1392 C1390 1.391 . S
C1392 C1393 1.400 . S
C1393 C1387 1.491 . S
C1393 C1392 1.400 . S
C1393 C1394 1.398 . S
C1394 H1382 0.950 . S
C1394 C1393 1.398 . S
C1394 C1395 1.391 . S
C1395 H1383 0.950 . S
C1395 C1391 1.393 . S
C1395 C1394 1.391 . S
H1396 C1404 0.950 . S
H1397 C1409 0.950 . S
H1398 C1406 0.950 . S
H1399 C1408 0.950 . S
H1400 C1410 0.950 . S
H1401 C1412 0.950 . S
H1402 C1414 0.950 . S
H1403 C1415 0.950 . S
C1404 H1396 0.950 . S
C1404 C1405 1.386 . S
C1404 C1406 1.391 . S
C1405 C1404 1.386 . S
C1405 C1409 1.393 . S
C1406 H1398 0.950 . S
C1406 C1404 1.391 . S
C1406 C1407 1.400 . S
C1407 C1406 1.400 . S
C1407 C1408 1.398 . S
C1407 C1413 1.491 . S
C1408 H1399 0.950 . S
C1408 C1407 1.398 . S
C1408 C1409 1.391 . S
C1409 H1397 0.950 . S
C1409 C1405 1.393 . S
C1409 C1408 1.391 . S
C1410 H1400 0.950 . S
C1410 C1411 1.386 . S
C1410 C1412 1.391 . S
C1411 C1410 1.386 . S
C1411 C1415 1.393 . S
C1412 H1401 0.950 . S
C1412 C1410 1.391 . S
C1412 C1413 1.400 . S
C1413 C1407 1.491 . S
C1413 C1412 1.400 . S
C1413 C1414 1.398 . S
C1414 H1402 0.950 . S
C1414 C1413 1.398 . S
C1414 C1415 1.391 . S
C1415 H1403 0.950 . S
C1415 C1411 1.393 . S
C1415 C1414 1.391 . S
H1416 C1424 0.950 . S
H1417 C1429 0.950 . S
H1418 C1426 0.950 . S
H1419 C1428 0.950 1_554 S
H1420 C1430 0.950 . S
H1421 C1432 0.950 . S
H1422 C1434 0.950 . S
H1423 C1435 0.950 . S
C1424 H1416 0.950 . S
C1424 C1425 1.386 . S
C1424 C1426 1.391 . S
C1425 C1424 1.386 . S
C1425 C1429 1.393 1_556 S
C1426 H1418 0.950 . S
C1426 C1424 1.391 . S
C1426 C1427 1.400 . S
C1427 C1426 1.400 . S
C1427 C1428 1.398 . S
C1427 C1433 1.491 . S
C1428 H1419 0.950 1_556 S
C1428 C1427 1.398 . S
C1428 C1429 1.391 1_556 S
C1429 H1417 0.950 . S
C1429 C1425 1.393 1_554 S
C1429 C1428 1.391 1_554 S
C1430 H1420 0.950 . S
C1430 C1431 1.386 . S
C1430 C1432 1.391 . S
C1431 C1430 1.386 . S
C1431 C1435 1.393 . S
C1432 H1421 0.950 . S
C1432 C1430 1.391 . S
C1432 C1433 1.400 . S
C1433 C1427 1.491 . S
C1433 C1432 1.400 . S
C1433 C1434 1.398 . S
C1434 H1422 0.950 . S
C1434 C1433 1.398 . S
C1434 C1435 1.391 . S
C1435 H1423 0.950 . S
C1435 C1431 1.393 . S
C1435 C1434 1.391 . S
H1436 C1444 0.950 . S
H1437 C1449 0.953 . S
H1438 C1446 0.950 . S
H1439 C1448 0.950 . S
H1440 C1450 0.950 . S
H1441 C1452 0.950 . S
H1442 C1454 0.950 . S
H1443 C1455 0.950 . S
C1444 H1436 0.950 . S
C1444 C1445 1.386 . S
C1444 C1446 1.391 . S
C1445 C1444 1.386 . S
C1445 C1449 1.391 1_556 S
C1446 H1438 0.950 . S
C1446 C1444 1.391 . S
C1446 C1447 1.400 . S
C1447 C1446 1.400 . S
C1447 C1448 1.398 . S
C1447 C1453 1.491 . S
C1448 H1439 0.950 . S
C1448 C1447 1.398 . S
C1448 C1449 1.389 1_556 S
C1449 H1437 0.953 . S
C1449 C1445 1.391 1_554 S
C1449 C1448 1.389 1_554 S
C1450 H1440 0.950 . S
C1450 C1451 1.386 . S
C1450 C1452 1.391 . S
C1451 C1450 1.386 . S
C1451 C1455 1.393 . S
C1452 H1441 0.950 . S
C1452 C1450 1.391 . S
C1452 C1453 1.400 . S
C1453 C1447 1.491 . S
C1453 C1452 1.400 . S
C1453 C1454 1.398 . S
C1454 H1442 0.950 . S
C1454 C1453 1.398 . S
C1454 C1455 1.391 . S
C1455 H1443 0.950 . S
C1455 C1451 1.393 . S
C1455 C1454 1.391 . S
H1456 C1464 0.950 1_554 S
H1457 C1469 0.950 . S
H1458 C1466 0.950 . S
H1459 C1468 0.950 . S
H1460 C1470 0.950 . S
H1461 C1472 0.950 . S
H1462 C1474 0.950 . S
H1463 C1475 0.950 . S
C1464 H1456 0.950 1_556 S
C1464 C1465 1.386 . S
C1464 C1466 1.391 . S
C1465 C1464 1.386 . S
C1465 C1469 1.393 . S
C1466 H1458 0.950 . S
C1466 C1464 1.391 . S
C1466 C1467 1.400 . S
C1467 C1466 1.400 . S
C1467 C1468 1.398 . S
C1467 C1473 1.491 . S
C1468 H1459 0.950 . S
C1468 C1467 1.398 . S
C1468 C1469 1.391 . S
C1469 H1457 0.950 . S
C1469 C1465 1.393 . S
C1469 C1468 1.391 . S
C1470 H1460 0.950 . S
C1470 C1471 1.386 . S
C1470 C1472 1.391 . S
C1471 C1470 1.386 . S
C1471 C1475 1.393 . S
C1472 H1461 0.950 . S
C1472 C1470 1.391 . S
C1472 C1473 1.400 . S
C1473 C1467 1.491 . S
C1473 C1472 1.400 . S
C1473 C1474 1.398 . S
C1474 H1462 0.950 . S
C1474 C1473 1.398 . S
C1474 C1475 1.391 . S
C1475 H1463 0.950 . S
C1475 C1471 1.393 . S
C1475 C1474 1.391 . S
H1476 C1484 0.950 . S
H1477 C1489 0.950 . S
H1478 C1486 0.950 . S
H1479 C1488 0.950 . S
H1480 C1490 0.950 . S
H1481 C1492 0.950 . S
H1482 C1494 0.950 . S
H1483 C1495 0.950 . S
C1484 H1476 0.950 . S
C1484 C1485 1.386 . S
C1484 C1486 1.391 . S
C1485 C1484 1.386 . S
C1485 C1489 1.393 . S
C1486 H1478 0.950 . S
C1486 C1484 1.391 . S
C1486 C1487 1.400 . S
C1487 C1486 1.400 . S
C1487 C1488 1.398 . S
C1487 C1493 1.491 . S
C1488 H1479 0.950 . S
C1488 C1487 1.398 . S
C1488 C1489 1.391 . S
C1489 H1477 0.950 . S
C1489 C1485 1.393 . S
C1489 C1488 1.391 . S
C1490 H1480 0.950 . S
C1490 C1491 1.386 . S
C1490 C1492 1.391 . S
C1491 C1490 1.386 . S
C1491 C1495 1.393 . S
C1492 H1481 0.950 . S
C1492 C1490 1.391 . S
C1492 C1493 1.400 . S
C1493 C1487 1.491 . S
C1493 C1492 1.400 . S
C1493 C1494 1.398 . S
C1494 H1482 0.950 . S
C1494 C1493 1.398 . S
C1494 C1495 1.391 . S
C1495 H1483 0.950 . S
C1495 C1491 1.393 . S
C1495 C1494 1.391 . S
H1496 C1504 0.950 . S
H1497 C1509 0.950 . S
H1498 C1506 0.950 . S
H1499 C1508 0.950 . S
H1500 C1510 0.950 . S
H1501 C1512 0.950 . S
H1502 C1514 0.950 . S
H1503 C1515 0.950 . S
C1504 H1496 0.950 . S
C1504 C1505 1.386 . S
C1504 C1506 1.391 . S
C1505 C1504 1.386 . S
C1505 C1509 1.393 . S
C1506 H1498 0.950 . S
C1506 C1504 1.391 . S
C1506 C1507 1.400 . S
C1507 C1506 1.400 . S
C1507 C1508 1.398 . S
C1507 C1513 1.491 . S
C1508 H1499 0.950 . S
C1508 C1507 1.398 . S
C1508 C1509 1.391 . S
C1509 H1497 0.950 . S
C1509 C1505 1.393 . S
C1509 C1508 1.391 . S
C1510 H1500 0.950 . S
C1510 C1511 1.386 . S
C1510 C1512 1.391 . S
C1511 C1510 1.386 . S
C1511 C1515 1.393 . S
C1512 H1501 0.950 . S
C1512 C1510 1.391 . S
C1512 C1513 1.400 . S
C1513 C1507 1.491 . S
C1513 C1512 1.400 . S
C1513 C1514 1.398 . S
C1514 H1502 0.950 . S
C1514 C1513 1.398 . S
C1514 C1515 1.391 . S
C1515 H1503 0.950 . S
C1515 C1511 1.393 . S
C1515 C1514 1.391 . S
H1516 C1524 0.950 . S
H1517 C1529 0.950 . S
H1518 C1526 0.950 . S
H1519 C1528 0.950 . S
H1520 C1530 0.950 . S
H1521 C1532 0.950 . S
H1522 C1534 0.950 . S
H1523 C1535 0.950 . S
C1524 H1516 0.950 . S
C1524 C1525 1.386 . S
C1524 C1526 1.391 . S
C1525 C1524 1.386 . S
C1525 C1529 1.393 . S
C1526 H1518 0.950 . S
C1526 C1524 1.391 . S
C1526 C1527 1.400 . S
C1527 C1526 1.400 . S
C1527 C1528 1.398 . S
C1527 C1533 1.491 . S
C1528 H1519 0.950 . S
C1528 C1527 1.398 . S
C1528 C1529 1.391 . S
C1529 H1517 0.950 . S
C1529 C1525 1.393 . S
C1529 C1528 1.391 . S
C1530 H1520 0.950 . S
C1530 C1531 1.386 . S
C1530 C1532 1.391 . S
C1531 C1530 1.386 . S
C1531 C1535 1.393 . S
C1532 H1521 0.950 . S
C1532 C1530 1.391 . S
C1532 C1533 1.400 . S
C1533 C1527 1.491 . S
C1533 C1532 1.400 . S
C1533 C1534 1.398 . S
C1534 H1522 0.950 . S
C1534 C1533 1.398 . S
C1534 C1535 1.391 . S
C1535 H1523 0.950 . S
C1535 C1531 1.393 . S
C1535 C1534 1.391 . S
H1536 C1544 0.950 . S
H1537 C1549 0.950 . S
H1538 C1546 0.950 . S
H1539 C1548 0.950 . S
H1540 C1550 0.950 . S
H1541 C1552 0.950 . S
H1542 C1554 0.950 . S
H1543 C1555 0.950 . S
C1544 H1536 0.950 . S
C1544 C1545 1.386 . S
C1544 C1546 1.391 . S
C1545 C1544 1.386 . S
C1545 C1549 1.393 . S
C1546 H1538 0.950 . S
C1546 C1544 1.391 . S
C1546 C1547 1.400 . S
C1547 C1546 1.400 . S
C1547 C1548 1.398 . S
C1547 C1553 1.491 . S
C1548 H1539 0.950 . S
C1548 C1547 1.398 . S
C1548 C1549 1.391 . S
C1549 H1537 0.950 . S
C1549 C1545 1.393 . S
C1549 C1548 1.391 . S
C1550 H1540 0.950 . S
C1550 C1551 1.386 . S
C1550 C1552 1.391 . S
C1551 C1550 1.386 . S
C1551 C1555 1.393 . S
C1552 H1541 0.950 . S
C1552 C1550 1.391 . S
C1552 C1553 1.400 . S
C1553 C1547 1.491 . S
C1553 C1552 1.400 . S
C1553 C1554 1.398 . S
C1554 H1542 0.950 . S
C1554 C1553 1.398 . S
C1554 C1555 1.391 . S
C1555 H1543 0.950 . S
C1555 C1551 1.393 . S
C1555 C1554 1.391 . S
H1556 C1564 0.950 . S
H1557 C1569 0.950 . S
H1558 C1566 0.950 . S
H1559 C1568 0.950 . S
H1560 C1570 0.950 . S
H1561 C1572 0.950 . S
H1562 C1574 0.950 . S
H1563 C1575 0.950 . S
C1564 H1556 0.950 . S
C1564 C1565 1.386 . S
C1564 C1566 1.391 . S
C1565 C1564 1.386 . S
C1565 C1569 1.393 . S
C1566 H1558 0.950 . S
C1566 C1564 1.391 . S
C1566 C1567 1.400 . S
C1567 C1566 1.400 . S
C1567 C1568 1.398 . S
C1567 C1573 1.491 . S
C1568 H1559 0.950 . S
C1568 C1567 1.398 . S
C1568 C1569 1.391 . S
C1569 H1557 0.950 . S
C1569 C1565 1.393 . S
C1569 C1568 1.391 . S
C1570 H1560 0.950 . S
C1570 C1571 1.386 . S
C1570 C1572 1.391 . S
C1571 C1570 1.386 . S
C1571 C1575 1.393 . S
C1572 H1561 0.950 . S
C1572 C1570 1.391 . S
C1572 C1573 1.400 . S
C1573 C1567 1.491 . S
C1573 C1572 1.400 . S
C1573 C1574 1.398 . S
C1574 H1562 0.950 . S
C1574 C1573 1.398 . S
C1574 C1575 1.391 . S
C1575 H1563 0.950 . S
C1575 C1571 1.393 . S
C1575 C1574 1.391 . S
H1576 C1584 0.950 . S
H1577 C1589 0.950 . S
H1578 C1586 0.950 . S
H1579 C1588 0.950 . S
H1580 C1590 0.950 . S
H1581 C1592 0.950 . S
H1582 C1594 0.950 . S
H1583 C1595 0.950 . S
C1584 H1576 0.950 . S
C1584 C1585 1.386 . S
C1584 C1586 1.391 . S
C1585 C1584 1.386 . S
C1585 C1589 1.393 . S
C1586 H1578 0.950 . S
C1586 C1584 1.391 . S
C1586 C1587 1.400 . S
C1587 C1586 1.400 . S
C1587 C1588 1.398 . S
C1587 C1593 1.491 . S
C1588 H1579 0.950 . S
C1588 C1587 1.398 . S
C1588 C1589 1.391 . S
C1589 H1577 0.950 . S
C1589 C1585 1.393 . S
C1589 C1588 1.391 . S
C1590 H1580 0.950 . S
C1590 C1591 1.386 . S
C1590 C1592 1.391 . S
C1591 C1590 1.386 . S
C1591 C1595 1.393 . S
C1592 H1581 0.950 . S
C1592 C1590 1.391 . S
C1592 C1593 1.400 . S
C1593 C1587 1.491 . S
C1593 C1592 1.400 . S
C1593 C1594 1.398 . S
C1594 H1582 0.950 . S
C1594 C1593 1.398 . S
C1594 C1595 1.391 . S
C1595 H1583 0.950 . S
C1595 C1591 1.393 . S
C1595 C1594 1.391 . S
H1596 C1604 0.950 . S
H1597 C1609 0.950 . S
H1598 C1606 0.950 . S
H1599 C1608 0.950 . S
H1600 C1610 0.950 1_655 S
H1601 C1612 0.950 . S
H1602 C1614 0.950 . S
H1603 C1615 0.950 . S
C1604 H1596 0.950 . S
C1604 C1605 1.386 . S
C1604 C1606 1.391 . S
C1605 C1604 1.386 . S
C1605 C1609 1.393 . S
C1606 H1598 0.950 . S
C1606 C1604 1.391 . S
C1606 C1607 1.400 . S
C1607 C1606 1.400 . S
C1607 C1608 1.398 . S
C1607 C1613 1.491 . S
C1608 H1599 0.950 . S
C1608 C1607 1.398 . S
C1608 C1609 1.391 . S
C1609 H1597 0.950 . S
C1609 C1605 1.393 . S
C1609 C1608 1.391 . S
C1610 H1600 0.950 1_455 S
C1610 C1611 1.386 . S
C1610 C1612 1.391 . S
C1611 C1610 1.386 . S
C1611 C1615 1.393 . S
C1612 H1601 0.950 . S
C1612 C1610 1.391 . S
C1612 C1613 1.400 . S
C1613 C1607 1.491 . S
C1613 C1612 1.400 . S
C1613 C1614 1.398 . S
C1614 H1602 0.950 . S
C1614 C1613 1.398 . S
C1614 C1615 1.391 . S
C1615 H1603 0.950 . S
C1615 C1611 1.393 . S
C1615 C1614 1.391 . S
H1616 C1624 0.950 . S
H1617 C1629 0.950 . S
H1618 C1626 0.950 . S
H1619 C1628 0.950 . S
H1620 C1630 0.950 . S
H1621 C1632 0.950 . S
H1622 C1634 0.950 . S
H1623 C1635 0.950 . S
C1624 H1616 0.950 . S
C1624 C1625 1.386 . S
C1624 C1626 1.391 . S
C1625 C1624 1.386 . S
C1625 C1629 1.393 . S
C1626 H1618 0.950 . S
C1626 C1624 1.391 . S
C1626 C1627 1.400 . S
C1627 C1626 1.400 . S
C1627 C1628 1.398 . S
C1627 C1633 1.491 . S
C1628 H1619 0.950 . S
C1628 C1627 1.398 . S
C1628 C1629 1.391 . S
C1629 H1617 0.950 . S
C1629 C1625 1.393 . S
C1629 C1628 1.391 . S
C1630 H1620 0.950 . S
C1630 C1631 1.386 . S
C1630 C1632 1.391 . S
C1631 C1630 1.386 . S
C1631 C1635 1.393 . S
C1632 H1621 0.950 . S
C1632 C1630 1.391 . S
C1632 C1633 1.400 . S
C1633 C1627 1.491 . S
C1633 C1632 1.400 . S
C1633 C1634 1.398 . S
C1634 H1622 0.950 . S
C1634 C1633 1.398 . S
C1634 C1635 1.391 . S
C1635 H1623 0.950 . S
C1635 C1631 1.393 . S
C1635 C1634 1.391 . S
H1636 C1644 0.950 . S
H1637 C1649 0.950 . S
H1638 C1646 0.950 . S
H1639 C1648 0.950 . S
H1640 C1650 0.950 . S
H1641 C1652 0.950 . S
H1642 C1654 0.950 . S
H1643 C1655 0.950 . S
C1644 H1636 0.950 . S
C1644 C1645 1.386 . S
C1644 C1646 1.391 . S
C1645 C1644 1.386 . S
C1645 C1649 1.393 1_565 S
C1646 H1638 0.950 . S
C1646 C1644 1.391 . S
C1646 C1647 1.400 . S
C1647 C1646 1.400 . S
C1647 C1648 1.398 1_565 S
C1647 C1653 1.491 . S
C1648 H1639 0.950 . S
C1648 C1647 1.398 1_545 S
C1648 C1649 1.391 . S
C1649 H1637 0.950 . S
C1649 C1645 1.393 1_545 S
C1649 C1648 1.391 . S
C1650 H1640 0.950 . S
C1650 C1651 1.386 1_545 S
C1650 C1652 1.391 . S
C1651 C1650 1.386 1_565 S
C1651 C1655 1.393 . S
C1652 H1641 0.950 . S
C1652 C1650 1.391 . S
C1652 C1653 1.400 1_545 S
C1653 C1647 1.491 . S
C1653 C1652 1.400 1_565 S
C1653 C1654 1.398 . S
C1654 H1642 0.950 . S
C1654 C1653 1.398 . S
C1654 C1655 1.391 . S
C1655 H1643 0.950 . S
C1655 C1651 1.393 . S
C1655 C1654 1.391 . S
H1656 C1664 0.950 . S
H1657 C1669 0.950 . S
H1658 C1666 0.950 . S
H1659 C1668 0.950 . S
H1660 C1670 0.965 . S
H1661 C1672 0.958 1_545 S
H1662 C1674 0.950 . S
H1663 C1675 0.950 . S
C1664 H1656 0.950 . S
C1664 C1665 1.386 . S
C1664 C1666 1.391 . S
C1665 C1664 1.386 . S
C1665 C1669 1.393 . S
C1666 H1658 0.950 . S
C1666 C1664 1.391 . S
C1666 C1667 1.400 . S
C1667 C1666 1.400 . S
C1667 C1668 1.398 . S
C1667 C1673 1.491 . S
C1668 H1659 0.950 . S
C1668 C1667 1.398 . S
C1668 C1669 1.391 . S
C1669 H1657 0.950 . S
C1669 C1665 1.393 . S
C1669 C1668 1.391 . S
C1670 H1660 0.965 . S
C1670 C1671 1.402 1_545 S
C1670 C1672 1.363 1_545 S
C1671 C1670 1.402 1_565 S
C1671 C1675 1.393 . S
C1672 H1661 0.958 1_565 S
C1672 C1670 1.363 1_565 S
C1672 C1673 1.400 . S
C1673 C1667 1.491 . S
C1673 C1672 1.400 . S
C1673 C1674 1.398 . S
C1674 H1662 0.950 . S
C1674 C1673 1.398 . S
C1674 C1675 1.391 . S
C1675 H1663 0.950 . S
C1675 C1671 1.393 . S
C1675 C1674 1.391 . S
H1676 C1684 0.950 . S
H1677 C1689 0.950 . S
H1678 C1686 0.950 . S
H1679 C1688 0.950 . S
H1680 C1690 0.950 . S
H1681 C1692 0.950 . S
H1682 C1694 0.950 . S
H1683 C1695 0.950 . S
C1684 H1676 0.950 . S
C1684 C1685 1.386 . S
C1684 C1686 1.391 . S
C1685 C1684 1.386 . S
C1685 C1689 1.393 1_455 S
C1686 H1678 0.950 . S
C1686 C1684 1.391 . S
C1686 C1687 1.400 . S
C1687 C1686 1.400 . S
C1687 C1688 1.398 1_455 S
C1687 C1693 1.491 . S
C1688 H1679 0.950 . S
C1688 C1687 1.398 1_655 S
C1688 C1689 1.391 . S
C1689 H1677 0.950 . S
C1689 C1685 1.393 1_655 S
C1689 C1688 1.391 . S
C1690 H1680 0.950 . S
C1690 C1691 1.376 1_655 S
C1690 C1692 1.391 . S
C1691 C1690 1.376 1_455 S
C1691 C1695 1.398 . S
C1692 H1681 0.950 . S
C1692 C1690 1.391 . S
C1692 C1693 1.400 1_655 S
C1693 C1687 1.491 . S
C1693 C1692 1.400 1_455 S
C1693 C1694 1.398 . S
C1694 H1682 0.950 . S
C1694 C1693 1.398 . S
C1694 C1695 1.391 . S
C1695 H1683 0.950 . S
C1695 C1691 1.398 . S
C1695 C1694 1.391 . S
H1696 C1704 0.950 . S
H1697 C1709 0.950 . S
H1698 C1706 0.950 . S
H1699 C1708 0.950 . S
H1700 C1710 0.950 . S
H1701 C1712 0.950 . S
H1702 C1714 0.950 . S
H1703 C1715 0.950 . S
C1704 H1696 0.950 . S
C1704 C1705 1.386 . S
C1704 C1706 1.391 . S
C1705 C1704 1.386 . S
C1705 C1709 1.393 . S
C1706 H1698 0.950 . S
C1706 C1704 1.391 . S
C1706 C1707 1.400 . S
C1707 C1706 1.400 . S
C1707 C1708 1.398 . S
C1707 C1713 1.491 . S
C1708 H1699 0.950 . S
C1708 C1707 1.398 . S
C1708 C1709 1.391 . S
C1709 H1697 0.950 . S
C1709 C1705 1.393 . S
C1709 C1708 1.391 . S
C1710 H1700 0.950 . S
C1710 C1711 1.386 . S
C1710 C1712 1.391 . S
C1711 C1710 1.386 . S
C1711 C1715 1.393 . S
C1712 H1701 0.950 . S
C1712 C1710 1.391 . S
C1712 C1713 1.400 . S
C1713 C1707 1.491 . S
C1713 C1712 1.400 . S
C1713 C1714 1.398 . S
C1714 H1702 0.950 . S
C1714 C1713 1.398 . S
C1714 C1715 1.391 . S
C1715 H1703 0.950 . S
C1715 C1711 1.393 . S
C1715 C1714 1.391 . S
H1716 C1724 0.950 . S
H1717 C1729 0.950 . S
H1718 C1726 0.950 . S
H1719 C1728 0.950 . S
H1720 C1730 0.950 . S
H1721 C1732 0.950 . S
H1722 C1734 0.950 . S
H1723 C1735 0.950 . S
C1724 H1716 0.950 . S
C1724 C1725 1.386 . S
C1724 C1726 1.391 . S
C1725 C1724 1.386 . S
C1725 C1729 1.393 . S
C1726 H1718 0.950 . S
C1726 C1724 1.391 . S
C1726 C1727 1.400 . S
C1727 C1726 1.400 . S
C1727 C1728 1.398 . S
C1727 C1733 1.491 . S
C1728 H1719 0.950 . S
C1728 C1727 1.398 . S
C1728 C1729 1.391 . S
C1729 H1717 0.950 . S
C1729 C1725 1.393 . S
C1729 C1728 1.391 . S
C1730 H1720 0.950 . S
C1730 C1731 1.386 . S
C1730 C1732 1.391 . S
C1731 C1730 1.386 . S
C1731 C1735 1.393 . S
C1732 H1721 0.950 . S
C1732 C1730 1.391 . S
C1732 C1733 1.400 . S
C1733 C1727 1.491 . S
C1733 C1732 1.400 . S
C1733 C1734 1.398 . S
C1734 H1722 0.950 . S
C1734 C1733 1.398 . S
C1734 C1735 1.391 . S
C1735 H1723 0.950 . S
C1735 C1731 1.393 . S
C1735 C1734 1.391 . S
H1736 C1744 0.950 . S
H1737 C1749 0.950 . S
H1738 C1746 0.950 . S
H1739 C1748 0.950 . S
H1740 C1750 0.950 . S
H1741 C1752 0.950 . S
H1742 C1754 0.950 . S
H1743 C1755 0.950 . S
C1744 H1736 0.950 . S
C1744 C1745 1.386 . S
C1744 C1746 1.391 . S
C1745 C1744 1.386 . S
C1745 C1749 1.393 . S
C1746 H1738 0.950 . S
C1746 C1744 1.391 . S
C1746 C1747 1.400 . S
C1747 C1746 1.400 . S
C1747 C1748 1.398 . S
C1747 C1753 1.491 . S
C1748 H1739 0.950 . S
C1748 C1747 1.398 . S
C1748 C1749 1.391 . S
C1749 H1737 0.950 . S
C1749 C1745 1.393 . S
C1749 C1748 1.391 . S
C1750 H1740 0.950 . S
C1750 C1751 1.386 . S
C1750 C1752 1.391 . S
C1751 C1750 1.386 . S
C1751 C1755 1.393 . S
C1752 H1741 0.950 . S
C1752 C1750 1.391 . S
C1752 C1753 1.400 . S
C1753 C1747 1.491 . S
C1753 C1752 1.400 . S
C1753 C1754 1.398 . S
C1754 H1742 0.950 . S
C1754 C1753 1.398 . S
C1754 C1755 1.391 . S
C1755 H1743 0.950 . S
C1755 C1751 1.393 . S
C1755 C1754 1.391 . S
H1756 C1764 0.950 . S
H1757 C1769 0.950 . S
H1758 C1766 0.950 . S
H1759 C1768 0.950 . S
H1760 C1770 0.950 . S
H1761 C1772 0.950 . S
H1762 C1774 0.950 . S
H1763 C1775 0.950 . S
C1764 H1756 0.950 . S
C1764 C1765 1.386 . S
C1764 C1766 1.391 . S
C1765 C1764 1.386 . S
C1765 C1769 1.393 . S
C1766 H1758 0.950 . S
C1766 C1764 1.391 . S
C1766 C1767 1.400 . S
C1767 C1766 1.400 . S
C1767 C1768 1.398 . S
C1767 C1773 1.491 . S
C1768 H1759 0.950 . S
C1768 C1767 1.398 . S
C1768 C1769 1.391 . S
C1769 H1757 0.950 . S
C1769 C1765 1.393 . S
C1769 C1768 1.391 . S
C1770 H1760 0.950 . S
C1770 C1771 1.386 . S
C1770 C1772 1.391 . S
C1771 C1770 1.386 . S
C1771 C1775 1.393 . S
C1772 H1761 0.950 . S
C1772 C1770 1.391 . S
C1772 C1773 1.400 . S
C1773 C1767 1.491 . S
C1773 C1772 1.400 . S
C1773 C1774 1.398 . S
C1774 H1762 0.950 . S
C1774 C1773 1.398 . S
C1774 C1775 1.391 . S
C1775 H1763 0.950 . S
C1775 C1771 1.393 . S
C1775 C1774 1.391 . S
H1776 C1784 0.950 . S
H1777 C1789 0.950 . S
H1778 C1786 0.950 . S
H1779 C1788 0.950 . S
H1780 C1790 0.950 . S
H1781 C1792 0.950 . S
H1782 C1794 0.950 . S
H1783 C1795 0.950 . S
C1784 H1776 0.950 . S
C1784 C1785 1.386 . S
C1784 C1786 1.391 . S
C1785 C1784 1.386 . S
C1785 C1789 1.393 . S
C1786 H1778 0.950 . S
C1786 C1784 1.391 . S
C1786 C1787 1.400 . S
C1787 C1786 1.400 . S
C1787 C1788 1.398 . S
C1787 C1793 1.491 . S
C1788 H1779 0.950 . S
C1788 C1787 1.398 . S
C1788 C1789 1.391 . S
C1789 H1777 0.950 . S
C1789 C1785 1.393 . S
C1789 C1788 1.391 . S
C1790 H1780 0.950 . S
C1790 C1791 1.386 . S
C1790 C1792 1.391 . S
C1791 C1790 1.386 . S
C1791 C1795 1.393 . S
C1792 H1781 0.950 . S
C1792 C1790 1.391 . S
C1792 C1793 1.400 . S
C1793 C1787 1.491 . S
C1793 C1792 1.400 . S
C1793 C1794 1.398 . S
C1794 H1782 0.950 . S
C1794 C1793 1.398 . S
C1794 C1795 1.391 . S
C1795 H1783 0.950 . S
C1795 C1791 1.393 . S
C1795 C1794 1.391 . S
H1796 C1804 0.950 . S
H1797 C1809 0.950 . S
H1798 C1806 0.950 . S
H1799 C1808 0.950 . S
H1800 C1810 0.950 . S
H1801 C1812 0.950 . S
H1802 C1814 0.950 . S
H1803 C1815 0.950 . S
C1804 H1796 0.950 . S
C1804 C1805 1.386 1_455 S
C1804 C1806 1.391 . S
C1805 C1804 1.386 1_655 S
C1805 C1809 1.393 . S
C1806 H1798 0.950 . S
C1806 C1804 1.391 . S
C1806 C1807 1.400 1_455 S
C1807 C1806 1.400 1_655 S
C1807 C1808 1.398 . S
C1807 C1813 1.491 . S
C1808 H1799 0.950 . S
C1808 C1807 1.398 . S
C1808 C1809 1.391 . S
C1809 H1797 0.950 . S
C1809 C1805 1.393 . S
C1809 C1808 1.391 . S
C1810 H1800 0.950 . S
C1810 C1811 1.386 . S
C1810 C1812 1.391 . S
C1811 C1810 1.386 . S
C1811 C1815 1.393 1_655 S
C1812 H1801 0.950 . S
C1812 C1810 1.391 . S
C1812 C1813 1.400 . S
C1813 C1807 1.491 . S
C1813 C1812 1.400 . S
C1813 C1814 1.398 1_655 S
C1814 H1802 0.950 . S
C1814 C1813 1.398 1_455 S
C1814 C1815 1.391 . S
C1815 H1803 0.950 . S
C1815 C1811 1.393 1_455 S
C1815 C1814 1.391 . S
H1816 C1824 0.950 . S
H1817 C1829 0.950 . S
H1818 C1826 0.950 . S
H1819 C1828 0.950 . S
H1820 C1830 0.950 . S
H1821 C1832 0.950 . S
H1822 C1834 0.950 . S
H1823 C1835 0.950 . S
C1824 H1816 0.950 . S
C1824 C1825 1.386 . S
C1824 C1826 1.391 . S
C1825 C1824 1.386 . S
C1825 C1829 1.393 . S
C1826 H1818 0.950 . S
C1826 C1824 1.391 . S
C1826 C1827 1.400 . S
C1827 C1826 1.400 . S
C1827 C1828 1.398 . S
C1827 C1833 1.491 . S
C1828 H1819 0.950 . S
C1828 C1827 1.398 . S
C1828 C1829 1.391 . S
C1829 H1817 0.950 . S
C1829 C1825 1.393 . S
C1829 C1828 1.391 . S
C1830 H1820 0.950 . S
C1830 C1831 1.386 . S
C1830 C1832 1.391 . S
C1831 C1830 1.386 . S
C1831 C1835 1.393 . S
C1832 H1821 0.950 . S
C1832 C1830 1.391 . S
C1832 C1833 1.400 . S
C1833 C1827 1.491 . S
C1833 C1832 1.400 . S
C1833 C1834 1.398 . S
C1834 H1822 0.950 . S
C1834 C1833 1.398 . S
C1834 C1835 1.391 . S
C1835 H1823 0.950 . S
C1835 C1831 1.393 . S
C1835 C1834 1.391 . S
H1836 C1844 0.950 . S
H1837 C1849 0.950 . S
H1838 C1846 0.950 . S
H1839 C1848 0.950 . S
H1840 C1850 0.950 . S
H1841 C1852 0.950 . S
H1842 C1854 0.950 . S
H1843 C1855 0.950 . S
C1844 H1836 0.950 . S
C1844 C1845 1.386 . S
C1844 C1846 1.391 . S
C1845 C1844 1.386 . S
C1845 C1849 1.393 . S
C1846 H1838 0.950 . S
C1846 C1844 1.391 . S
C1846 C1847 1.400 . S
C1847 C1846 1.400 . S
C1847 C1848 1.398 . S
C1847 C1853 1.491 . S
C1848 H1839 0.950 . S
C1848 C1847 1.398 . S
C1848 C1849 1.391 . S
C1849 H1837 0.950 . S
C1849 C1845 1.393 . S
C1849 C1848 1.391 . S
C1850 H1840 0.950 . S
C1850 C1851 1.386 . S
C1850 C1852 1.391 . S
C1851 C1850 1.386 . S
C1851 C1855 1.393 . S
C1852 H1841 0.950 . S
C1852 C1850 1.391 . S
C1852 C1853 1.400 . S
C1853 C1847 1.491 . S
C1853 C1852 1.400 . S
C1853 C1854 1.398 . S
C1854 H1842 0.950 . S
C1854 C1853 1.398 . S
C1854 C1855 1.391 . S
C1855 H1843 0.950 . S
C1855 C1851 1.393 . S
C1855 C1854 1.391 . S
H1856 C1864 0.950 . S
H1857 C1869 0.950 . S
H1858 C1866 0.950 . S
H1859 C1868 0.950 . S
H1860 C1870 0.950 . S
H1861 C1872 0.950 . S
H1862 C1874 0.950 . S
H1863 C1875 0.950 . S
C1864 H1856 0.950 . S
C1864 C1865 1.386 . S
C1864 C1866 1.391 . S
C1865 C1864 1.386 . S
C1865 C1869 1.393 . S
C1866 H1858 0.950 . S
C1866 C1864 1.391 . S
C1866 C1867 1.400 . S
C1867 C1866 1.400 . S
C1867 C1868 1.398 . S
C1867 C1873 1.491 . S
C1868 H1859 0.950 . S
C1868 C1867 1.398 . S
C1868 C1869 1.391 . S
C1869 H1857 0.950 . S
C1869 C1865 1.393 . S
C1869 C1868 1.391 . S
C1870 H1860 0.950 . S
C1870 C1871 1.386 . S
C1870 C1872 1.391 . S
C1871 C1870 1.386 . S
C1871 C1875 1.393 . S
C1872 H1861 0.950 . S
C1872 C1870 1.391 . S
C1872 C1873 1.400 . S
C1873 C1867 1.491 . S
C1873 C1872 1.400 . S
C1873 C1874 1.398 . S
C1874 H1862 0.950 . S
C1874 C1873 1.398 . S
C1874 C1875 1.391 . S
C1875 H1863 0.950 . S
C1875 C1871 1.393 . S
C1875 C1874 1.391 . S
H1876 C1884 0.950 . S
H1877 C1889 0.950 . S
H1878 C1886 0.950 . S
H1879 C1888 0.950 . S
H1880 C1890 0.950 . S
H1881 C1892 0.950 . S
H1882 C1894 0.950 . S
H1883 C1895 0.950 . S
C1884 H1876 0.950 . S
C1884 C1885 1.386 . S
C1884 C1886 1.391 . S
C1885 C1884 1.386 . S
C1885 C1889 1.393 . S
C1886 H1878 0.950 . S
C1886 C1884 1.391 . S
C1886 C1887 1.400 . S
C1887 C1886 1.400 . S
C1887 C1888 1.398 . S
C1887 C1893 1.491 . S
C1888 H1879 0.950 . S
C1888 C1887 1.398 . S
C1888 C1889 1.391 . S
C1889 H1877 0.950 . S
C1889 C1885 1.393 . S
C1889 C1888 1.391 . S
C1890 H1880 0.950 . S
C1890 C1891 1.386 . S
C1890 C1892 1.391 . S
C1891 C1890 1.386 . S
C1891 C1895 1.393 . S
C1892 H1881 0.950 . S
C1892 C1890 1.391 . S
C1892 C1893 1.400 . S
C1893 C1887 1.491 . S
C1893 C1892 1.400 . S
C1893 C1894 1.398 . S
C1894 H1882 0.950 . S
C1894 C1893 1.398 . S
C1894 C1895 1.391 . S
C1895 H1883 0.950 . S
C1895 C1891 1.393 . S
C1895 C1894 1.391 . S
H1896 C1904 0.950 . S
H1897 C1909 0.950 . S
H1898 C1906 0.950 . S
H1899 C1908 0.950 . S
H1900 C1910 0.950 . S
H1901 C1912 0.950 . S
H1902 C1914 0.950 . S
H1903 C1915 0.950 . S
C1904 H1896 0.950 . S
C1904 C1905 1.386 . S
C1904 C1906 1.391 . S
C1905 C1904 1.386 . S
C1905 C1909 1.393 . S
C1906 H1898 0.950 . S
C1906 C1904 1.391 . S
C1906 C1907 1.400 . S
C1907 C1906 1.400 . S
C1907 C1908 1.398 . S
C1907 C1913 1.491 . S
C1908 H1899 0.950 . S
C1908 C1907 1.398 . S
C1908 C1909 1.391 . S
C1909 H1897 0.950 . S
C1909 C1905 1.393 . S
C1909 C1908 1.391 . S
C1910 H1900 0.950 . S
C1910 C1911 1.386 . S
C1910 C1912 1.391 . S
C1911 C1910 1.386 . S
C1911 C1915 1.393 . S
C1912 H1901 0.950 . S
C1912 C1910 1.391 . S
C1912 C1913 1.400 . S
C1913 C1907 1.491 . S
C1913 C1912 1.400 . S
C1913 C1914 1.398 . S
C1914 H1902 0.950 . S
C1914 C1913 1.398 . S
C1914 C1915 1.391 . S
C1915 H1903 0.950 . S
C1915 C1911 1.393 . S
C1915 C1914 1.391 . S
H1916 C1924 0.950 . S
H1917 C1929 0.950 . S
H1918 C1926 0.950 . S
H1919 C1928 0.950 . S
H1920 C1930 0.950 . S
H1921 C1932 0.950 . S
H1922 C1934 0.950 . S
H1923 C1935 0.950 . S
C1924 H1916 0.950 . S
C1924 C1925 1.386 . S
C1924 C1926 1.391 . S
C1925 C1924 1.386 . S
C1925 C1929 1.393 . S
C1926 H1918 0.950 . S
C1926 C1924 1.391 . S
C1926 C1927 1.400 . S
C1927 C1926 1.400 . S
C1927 C1928 1.398 . S
C1927 C1933 1.491 . S
C1928 H1919 0.950 . S
C1928 C1927 1.398 . S
C1928 C1929 1.391 . S
C1929 H1917 0.950 . S
C1929 C1925 1.393 . S
C1929 C1928 1.391 . S
C1930 H1920 0.950 . S
C1930 C1931 1.386 . S
C1930 C1932 1.391 . S
C1931 C1930 1.386 . S
C1931 C1935 1.393 . S
C1932 H1921 0.950 . S
C1932 C1930 1.391 . S
C1932 C1933 1.400 . S
C1933 C1927 1.491 . S
C1933 C1932 1.400 . S
C1933 C1934 1.398 . S
C1934 H1922 0.950 . S
C1934 C1933 1.398 . S
C1934 C1935 1.391 . S
C1935 H1923 0.950 . S
C1935 C1931 1.393 . S
C1935 C1934 1.391 . S
H1936 C1944 0.950 . S
H1937 C1949 0.950 . S
H1938 C1946 0.950 . S
H1939 C1948 0.950 . S
H1940 C1950 0.950 . S
H1941 C1952 0.950 . S
H1942 C1954 0.950 . S
H1943 C1955 0.950 . S
C1944 H1936 0.950 . S
C1944 C1945 1.386 . S
C1944 C1946 1.391 . S
C1945 C1944 1.386 . S
C1945 C1949 1.393 . S
C1946 H1938 0.950 . S
C1946 C1944 1.391 . S
C1946 C1947 1.400 . S
C1947 C1946 1.400 . S
C1947 C1948 1.398 . S
C1947 C1953 1.491 . S
C1948 H1939 0.950 . S
C1948 C1947 1.398 . S
C1948 C1949 1.391 . S
C1949 H1937 0.950 . S
C1949 C1945 1.393 . S
C1949 C1948 1.391 . S
C1950 H1940 0.950 . S
C1950 C1951 1.386 . S
C1950 C1952 1.391 . S
C1951 C1950 1.386 . S
C1951 C1955 1.393 . S
C1952 H1941 0.950 . S
C1952 C1950 1.391 . S
C1952 C1953 1.400 . S
C1953 C1947 1.491 . S
C1953 C1952 1.400 . S
C1953 C1954 1.398 . S
C1954 H1942 0.950 . S
C1954 C1953 1.398 . S
C1954 C1955 1.391 . S
C1955 H1943 0.950 . S
C1955 C1951 1.393 . S
C1955 C1954 1.391 . S
H1956 C1964 0.950 . S
H1957 C1969 0.950 . S
H1958 C1966 0.950 . S
H1959 C1968 0.950 . S
H1960 C1970 0.950 . S
H1961 C1972 0.950 . S
H1962 C1974 0.950 . S
H1963 C1975 0.950 . S
C1964 H1956 0.950 . S
C1964 C1965 1.386 . S
C1964 C1966 1.391 . S
C1965 C1964 1.386 . S
C1965 C1969 1.393 1_655 S
C1966 H1958 0.950 . S
C1966 C1964 1.391 . S
C1966 C1967 1.400 . S
C1967 C1966 1.400 . S
C1967 C1968 1.398 1_655 S
C1967 C1973 1.491 . S
C1968 H1959 0.950 . S
C1968 C1967 1.398 1_455 S
C1968 C1969 1.391 . S
C1969 H1957 0.950 . S
C1969 C1965 1.393 1_455 S
C1969 C1968 1.391 . S
C1970 H1960 0.950 . S
C1970 C1971 1.386 1_455 S
C1970 C1972 1.391 . S
C1971 C1970 1.386 1_655 S
C1971 C1975 1.393 . S
C1972 H1961 0.950 . S
C1972 C1970 1.391 . S
C1972 C1973 1.400 1_455 S
C1973 C1967 1.491 . S
C1973 C1972 1.400 1_655 S
C1973 C1974 1.398 . S
C1974 H1962 0.950 . S
C1974 C1973 1.398 . S
C1974 C1975 1.391 . S
C1975 H1963 0.950 . S
C1975 C1971 1.393 . S
C1975 C1974 1.391 . S
H1976 C1984 0.950 . S
H1977 C1989 0.950 . S
H1978 C1986 0.950 . S
H1979 C1988 0.950 . S
H1980 C1990 0.950 . S
H1981 C1992 0.950 . S
H1982 C1994 0.950 . S
H1983 C1995 0.950 . S
C1984 H1976 0.950 . S
C1984 C1985 1.386 . S
C1984 C1986 1.391 . S
C1985 C1984 1.386 . S
C1985 C1989 1.393 . S
C1986 H1978 0.950 . S
C1986 C1984 1.391 . S
C1986 C1987 1.400 . S
C1987 C1986 1.400 . S
C1987 C1988 1.398 . S
C1987 C1993 1.491 . S
C1988 H1979 0.950 . S
C1988 C1987 1.398 . S
C1988 C1989 1.391 . S
C1989 H1977 0.950 . S
C1989 C1985 1.393 . S
C1989 C1988 1.391 . S
C1990 H1980 0.950 . S
C1990 C1991 1.386 . S
C1990 C1992 1.391 . S
C1991 C1990 1.386 . S
C1991 C1995 1.393 . S
C1992 H1981 0.950 . S
C1992 C1990 1.391 . S
C1992 C1993 1.400 . S
C1993 C1987 1.491 . S
C1993 C1992 1.400 . S
C1993 C1994 1.398 . S
C1994 H1982 0.950 . S
C1994 C1993 1.398 . S
C1994 C1995 1.391 . S
C1995 H1983 0.950 . S
C1995 C1991 1.393 . S
C1995 C1994 1.391 . S
H1996 C2004 0.950 . S
H1997 C2009 0.944 1_565 S
H1998 C2006 0.950 . S
H1999 C2008 0.950 . S
H2000 C2010 0.950 . S
H2001 C2012 0.950 . S
H2002 C2014 0.950 . S
H2003 C2015 0.950 . S
C2004 H1996 0.950 . S
C2004 C2005 1.386 . S
C2004 C2006 1.391 . S
C2005 C2004 1.386 . S
C2005 C2009 1.396 . S
C2006 H1998 0.950 . S
C2006 C2004 1.391 . S
C2006 C2007 1.400 . S
C2007 C2006 1.400 . S
C2007 C2008 1.398 1_545 S
C2007 C2013 1.491 . S
C2008 H1999 0.950 . S
C2008 C2007 1.398 1_565 S
C2008 C2009 1.393 1_565 S
C2009 H1997 0.944 1_545 S
C2009 C2005 1.396 . S
C2009 C2008 1.393 1_545 S
C2010 H2000 0.950 . S
C2010 C2011 1.337 1_565 S
C2010 C2012 1.391 . S
C2011 C2010 1.337 1_545 S
C2011 C2015 1.423 . S
C2012 H2001 0.950 . S
C2012 C2010 1.391 . S
C2012 C2013 1.400 1_565 S
C2013 C2007 1.491 . S
C2013 C2012 1.400 1_545 S
C2013 C2014 1.398 . S
C2014 H2002 0.950 . S
C2014 C2013 1.398 . S
C2014 C2015 1.391 . S
C2015 H2003 0.950 . S
C2015 C2011 1.423 . S
C2015 C2014 1.391 . S
C585 C13 1.496 . S
C591 C421 1.557 . S
C605 C27 1.375 . S
C611 C446 1.453 . S
C631 C457 1.537 . S
C625 C36 1.449 . S
C645 C41 1.465 . S
C651 C482 1.539 . S
C665 C8 1.538 . S
C671 C500 1.633 . S
C685 C22 1.451 . S
C691 C511 1.533 . S
C705 C55 1.502 . S
C711 C493 1.569 1_455 S
C731 C518 1.452 . S
C725 C69 1.385 . S
C751 C475 1.553 1_545 S
C745 C78 1.477 . S
C765 C83 1.478 . S
C771 C464 1.536 1_545 S
C791 C428 1.626 1_655 S
C785 C50 1.557 . S
C805 C64 1.461 . S
C811 C439 1.532 . S
C825 C97 1.532 . S
C831 C529 1.602 . S
C845 C111 1.388 . S
C851 C554 1.470 . S
C871 C565 1.571 . S
C865 C120 1.529 . S
C885 C125 1.476 . S
C891 C266 1.561 . S
C905 C92 1.623 . S
C911 C284 1.693 . S
C925 C106 1.502 . S
C931 C295 1.553 . S
C945 C139 1.468 . S
C951 C277 1.549 . S
C965 C153 1.409 . S
C971 C302 1.470 . S
C991 C259 1.571 . S
C985 C162 1.505 . S
C1011 C572 1.555 . S
C1005 C167 1.467 . S
C1031 C536 1.661 . S
C1025 C134 1.604 . S
C1051 C547 1.540 . S
C1045 C148 1.470 . S
C1065 C181 1.515 . S
C1071 C313 1.580 . S
C1085 C195 1.413 . S
C1091 C338 1.476 . S
C1105 C204 1.529 . S
C1111 C349 1.574 . S
C1125 C209 1.504 . S
C1131 C374 1.586 . S
C1151 C392 1.682 . S
C1145 C176 1.625 . S
C1171 C403 1.543 . S
C1165 C190 1.482 . S
C1191 C385 1.589 . S
C1185 C223 1.504 . S
C1211 C410 1.463 . S
C1205 C237 1.393 . S
C1225 C246 1.501 . S
C1231 C367 1.564 . S
C1251 C356 1.542 . S
C1245 C251 1.480 . S
C1265 C218 1.580 . S
C1271 C320 1.661 . S
C1291 C331 1.541 . S
C1285 C232 1.454 . S
C1311 C268 1.340 . S
C1305 C11 1.389 . S
C1325 C25 1.270 . S
C1331 C286 1.242 . S
C1351 C296 1.296 . S
C1345 C35 1.364 . S
C1371 C314 1.290 . S
C1365 C39 1.371 . S
C1391 C340 1.372 . S
C1385 C7 1.476 . S
C1411 C350 1.299 . S
C1405 C21 1.358 . S
C1425 C53 1.427 . S
C1431 C358 1.341 . S
C1445 C67 1.324 . S
C1451 C322 1.222 . S
C1465 C77 1.378 1_556 S
C1471 C332 1.324 . S
C1485 C81 1.419 . S
C1491 C278 1.369 . S
C1511 C304 1.405 . S
C1505 C49 1.483 . S
C1525 C63 1.383 . S
C1531 C260 1.317 . S
C1551 C376 1.325 . S
C1545 C95 1.372 . S
C1565 C109 1.319 . S
C1571 C394 1.244 . S
C1585 C119 1.418 . S
C1591 C404 1.360 . S
C1611 C422 1.254 . S
C1605 C123 1.315 . S
C1625 C91 1.451 . S
C1631 C448 1.362 . S
C1645 C105 1.313 . S
C1651 C458 1.271 . S
C1665 C137 1.352 . S
C1671 C466 1.270 . S
C1685 C151 1.244 . S
C1691 C430 1.161 . S
C1711 C440 1.319 . S
C1705 C161 1.396 . S
C1725 C165 1.401 . S
C1731 C386 1.319 . S
C1745 C133 1.511 . S
C1751 C412 1.405 . S
C1771 C368 1.344 . S
C1765 C147 1.427 . S
C1791 C484 1.287 . S
C1785 C179 1.348 . S
C1805 C193 1.231 . S
C1811 C502 1.155 . S
C1825 C203 1.363 . S
C1831 C512 1.318 . S
C1851 C530 1.311 . S
C1845 C207 1.358 . S
C1871 C556 1.394 . S
C1865 C175 1.482 . S
C1885 C189 1.403 . S
C1891 C566 1.337 . S
C1905 C221 1.416 . S
C1911 C574 1.328 . S
C1925 C235 1.351 . S
C1931 C538 1.271 . S
C1951 C548 1.352 . S
C1945 C245 1.435 . S
C1971 C494 1.223 1_655 S
C1965 C249 1.315 . S
C1991 C520 1.377 . S
C1985 C217 1.477 . S
C2005 C231 1.341 . S
C2011 C476 1.281 1_545 S
