# Generated by pormake.
# Topology apo, (3,6)-cn, num edge types: 1
# Building blocks:
#     Node 0, Type 0, BuildingBlock: PAMTOO_clean_linker_0, # of connection points: 3
#     Node 1, Type 0, BuildingBlock: PAMTOO_clean_linker_0, # of connection points: 3
#     Node 2, Type 0, BuildingBlock: PAMTOO_clean_linker_0, # of connection points: 3
#     Node 3, Type 0, BuildingBlock: PAMTOO_clean_linker_0, # of connection points: 3
#     Node 4, Type 0, BuildingBlock: PAMTOO_clean_linker_0, # of connection points: 3
#     Node 5, Type 0, BuildingBlock: PAMTOO_clean_linker_0, # of connection points: 3
#     Node 6, Type 0, BuildingBlock: PAMTOO_clean_linker_0, # of connection points: 3
#     Node 7, Type 0, BuildingBlock: PAMTOO_clean_linker_0, # of connection points: 3
#     Node 8, Type 1, BuildingBlock: KUMBUR_clean_sbu_1, # of connection points: 6
#     Node 9, Type 1, BuildingBlock: KUMBUR_clean_sbu_1, # of connection points: 6
#     Node 10, Type 1, BuildingBlock: KUMBUR_clean_sbu_1, # of connection points: 6
#     Node 11, Type 1, BuildingBlock: KUMBUR_clean_sbu_1, # of connection points: 6
#     Edge 12, Type (0, 1), BuildingBlock: EZIPEK_clean_linker_0, # of connection points: 2
#     Edge 13, Type (0, 1), BuildingBlock: EZIPEK_clean_linker_0, # of connection points: 2
#     Edge 14, Type (0, 1), BuildingBlock: EZIPEK_clean_linker_0, # of connection points: 2
#     Edge 15, Type (0, 1), BuildingBlock: EZIPEK_clean_linker_0, # of connection points: 2
#     Edge 16, Type (0, 1), BuildingBlock: EZIPEK_clean_linker_0, # of connection points: 2
#     Edge 17, Type (0, 1), BuildingBlock: EZIPEK_clean_linker_0, # of connection points: 2
#     Edge 18, Type (0, 1), BuildingBlock: EZIPEK_clean_linker_0, # of connection points: 2
#     Edge 19, Type (0, 1), BuildingBlock: EZIPEK_clean_linker_0, # of connection points: 2
#     Edge 20, Type (0, 1), BuildingBlock: EZIPEK_clean_linker_0, # of connection points: 2
#     Edge 21, Type (0, 1), BuildingBlock: EZIPEK_clean_linker_0, # of connection points: 2
#     Edge 22, Type (0, 1), BuildingBlock: EZIPEK_clean_linker_0, # of connection points: 2
#     Edge 23, Type (0, 1), BuildingBlock: EZIPEK_clean_linker_0, # of connection points: 2
#     Edge 24, Type (0, 1), BuildingBlock: EZIPEK_clean_linker_0, # of connection points: 2
#     Edge 25, Type (0, 1), BuildingBlock: EZIPEK_clean_linker_0, # of connection points: 2
#     Edge 26, Type (0, 1), BuildingBlock: EZIPEK_clean_linker_0, # of connection points: 2
#     Edge 27, Type (0, 1), BuildingBlock: EZIPEK_clean_linker_0, # of connection points: 2
#     Edge 28, Type (0, 1), BuildingBlock: EZIPEK_clean_linker_0, # of connection points: 2
#     Edge 29, Type (0, 1), BuildingBlock: EZIPEK_clean_linker_0, # of connection points: 2
#     Edge 30, Type (0, 1), BuildingBlock: EZIPEK_clean_linker_0, # of connection points: 2
#     Edge 31, Type (0, 1), BuildingBlock: EZIPEK_clean_linker_0, # of connection points: 2
#     Edge 32, Type (0, 1), BuildingBlock: EZIPEK_clean_linker_0, # of connection points: 2
#     Edge 33, Type (0, 1), BuildingBlock: EZIPEK_clean_linker_0, # of connection points: 2
#     Edge 34, Type (0, 1), BuildingBlock: EZIPEK_clean_linker_0, # of connection points: 2
#     Edge 35, Type (0, 1), BuildingBlock: EZIPEK_clean_linker_0, # of connection points: 2
# Relax obj value: 0.038
# Max RMSD: 0.245
# Mean RMSD: 0.173
data_MOF--net-apo--node1-KUMBUR_clean_sbu_1--node2-PAMTOO_clean_linker_0--edge1-EZIPEK_clean_linker_0
_symmetry_space_group_name_H-M    P1
_symmetry_Int_Tables_number       1
_symmetry_cell_setting            triclinic
loop_
_symmetry_equiv_pos_as_xyz
'x, y, z'
_cell_length_a     20.489378
_cell_length_b     30.647906
_cell_length_c     39.048666
_cell_angle_alpha  90.493642
_cell_angle_beta   90.484258
_cell_angle_gamma 90.352966
loop_
_atom_site_label
_atom_site_type_symbol
_atom_site_fract_x
_atom_site_fract_y
_atom_site_fract_z
_atom_type_partial_charge
H0 H 0.40671 0.44999 0.42654 0.0
H1 H 0.29289 0.39498 0.34522 0.0
H2 H 0.26948 0.34697 0.44716 0.0
H3 H 0.30281 0.28682 0.37067 0.0
C4 C 0.25785 0.30224 0.36057 0.0
O5 O 0.23717 0.33486 0.38269 0.0
H6 H 0.27316 0.31688 0.33592 0.0
C7 C 0.36622 0.4293 0.41921 0.0
C8 C 0.32881 0.40635 0.44362 0.0
C9 C 0.35194 0.42653 0.38405 0.0
C10 C 0.30525 0.39656 0.37224 0.0
C11 C 0.27806 0.36651 0.3949 0.0
C12 C 0.29095 0.37081 0.43032 0.0
H13 H 0.15982 0.04787 0.93352 0.0
H14 H 0.24357 0.175 0.95239 0.0
H15 H 0.22815 0.12568 0.8494 0.0
H16 H 0.36149 0.1718 0.89355 0.0
C17 C 0.33131 0.20181 0.89373 0.0
O18 O 0.26627 0.19185 0.88787 0.0
H19 H 0.33734 0.2149 0.92021 0.0
C20 C 0.18155 0.07767 0.92397 0.0
C21 C 0.18919 0.08326 0.88845 0.0
C22 C 0.20292 0.11009 0.94727 0.0
C23 C 0.22829 0.14941 0.93469 0.0
C24 C 0.23863 0.15465 0.89953 0.0
C25 C 0.22041 0.12126 0.87657 0.0
H26 H 0.90869 0.07451 0.60535 0.0
H27 H 0.7938 0.12579 0.6881 0.0
H28 H 0.80612 0.19608 0.59395 0.0
H29 H 0.81278 0.25078 0.65931 0.0
C30 C 0.77936 0.23031 0.67467 0.0
O31 O 0.75611 0.1956 0.65529 0.0
H32 H 0.81073 0.21859 0.69603 0.0
C33 C 0.87712 0.09955 0.61568 0.0
C34 C 0.85961 0.13545 0.5954 0.0
C35 C 0.85423 0.09626 0.6494 0.0
C36 C 0.81236 0.12843 0.66232 0.0
C37 C 0.79584 0.16458 0.64251 0.0
C38 C 0.81961 0.16813 0.60923 0.0
H39 H 0.69109 0.46583 0.09931 0.0
H40 H 0.77785 0.33814 0.09205 0.0
H41 H 0.74299 0.39591 0.18961 0.0
H42 H 0.88104 0.3515 0.16951 0.0
C43 C 0.8564 0.32159 0.15937 0.0
O44 O 0.78979 0.3279 0.15706 0.0
H45 H 0.877 0.3174 0.13329 0.0
C46 C 0.71653 0.4386 0.11015 0.0
C47 C 0.71572 0.43533 0.14622 0.0
C48 C 0.74677 0.4061 0.08946 0.0
C49 C 0.7635 0.36686 0.10632 0.0
C50 C 0.76503 0.36393 0.14203 0.0
C51 C 0.74247 0.39854 0.16195 0.0
H52 H 0.6554 0.54357 0.60926 0.0
H53 H 0.75833 0.66367 0.59246 0.0
H54 H 0.7107 0.62649 0.69486 0.0
H55 H 0.73146 0.71206 0.69324 0.0
C56 C 0.76592 0.71725 0.6718 0.0
O57 O 0.78473 0.67758 0.65812 0.0
H58 H 0.73734 0.73592 0.65265 0.0
C59 C 0.67768 0.57301 0.61972 0.0
C60 C 0.67787 0.5808 0.65537 0.0
C61 C 0.70188 0.60412 0.59691 0.0
C62 C 0.73614 0.64068 0.60984 0.0
C63 C 0.7426 0.64703 0.64538 0.0
C64 C 0.70975 0.61889 0.66775 0.0
H65 H 0.85946 0.96507 0.09611 0.0
H66 H 0.80974 0.88772 0.18386 0.0
H67 H 0.76057 0.84158 0.0827 0.0
H68 H 0.66207 0.8201 0.1286 0.0
C69 C 0.68916 0.82007 0.15336 0.0
O70 O 0.75537 0.82379 0.14781 0.0
H71 H 0.67104 0.84949 0.16716 0.0
C72 C 0.83749 0.93606 0.10691 0.0
C73 C 0.80937 0.90425 0.08514 0.0
C74 C 0.83733 0.93044 0.14259 0.0
C75 C 0.80943 0.89251 0.15641 0.0
C76 C 0.78193 0.86049 0.13473 0.0
C77 C 0.7821 0.86642 0.09927 0.0
H78 H 0.12034 0.92565 0.41187 0.0
H79 H 0.2845 0.84791 0.44166 0.0
H80 H 0.26115 0.88581 0.33672 0.0
H81 H 0.3254 0.78711 0.40567 0.0
C82 C 0.35822 0.80395 0.38749 0.0
O83 O 0.33658 0.8456 0.38027 0.0
H84 H 0.40476 0.80705 0.40212 0.0
C85 C 0.16259 0.90648 0.40487 0.0
C86 C 0.18608 0.90796 0.37116 0.0
C87 C 0.19757 0.88458 0.43043 0.0
C88 C 0.25527 0.86283 0.42174 0.0
C89 C 0.2766 0.8613 0.38765 0.0
C90 C 0.24145 0.88359 0.36231 0.0
H91 H 0.3458 0.55191 0.93038 0.0
H92 H 0.30148 0.62866 0.84149 0.0
H93 H 0.24708 0.67421 0.94027 0.0
H94 H 0.15086 0.67067 0.86665 0.0
C95 C 0.18955 0.69103 0.85498 0.0
O96 O 0.24609 0.69062 0.87454 0.0
H97 H 0.19872 0.67487 0.82989 0.0
C98 C 0.32163 0.57899 0.91815 0.0
C99 C 0.29699 0.61225 0.93945 0.0
C100 C 0.31504 0.58058 0.88193 0.0
C101 C 0.29617 0.62114 0.86818 0.0
C102 C 0.26918 0.65376 0.88891 0.0
C103 C 0.26765 0.64867 0.92439 0.0
Tb104 Tb 0.09683 0.1173 0.23272 0.0
C105 C 0.8019 0.10186 0.28179 0.0
N106 N 0.84554 0.13525 0.28485 0.0
C107 C 0.76182 0.18623 0.2696 0.0
C108 C 0.73691 0.10914 0.27129 0.0
C109 C 0.82562 0.17736 0.28039 0.0
C110 C 0.71745 0.15194 0.26463 0.0
C111 C 0.77849 0.02467 0.28795 0.0
C112 C 0.82234 0.06021 0.28971 0.0
C113 C 0.7142 0.03146 0.27651 0.0
C114 C 0.69346 0.07362 0.26817 0.0
Tb115 Tb 0.94879 0.1161 0.3016 0.0
N116 N 0.88509 0.05478 0.30004 0.0
C117 C 0.80025 0.98366 0.29854 0.0
C118 C 0.90493 0.01578 0.31326 0.0
C119 C 0.86344 0.97938 0.31183 0.0
H120 H 0.8584 0.20441 0.28556 0.0
H121 H 0.88006 0.94817 0.32116 0.0
H122 H 0.21273 0.06386 0.27292 0.0
H123 H 0.09194 0.281 0.18065 0.0
H124 H 0.95343 0.01267 0.32398 0.0
H125 H 0.76809 0.95547 0.29756 0.0
H126 H 0.05667 0.20458 0.18501 0.0
H127 H 0.74671 0.21957 0.26552 0.0
H128 H 0.67985 1.00451 0.27463 0.0
H129 H 0.64346 0.07851 0.25987 0.0
H130 H 0.31997 0.08044 0.29973 0.0
H131 H 0.66798 0.15894 0.25644 0.0
H132 H 0.18889 0.30731 0.21309 0.0
N133 N 0.19598 0.1294 0.25793 0.0
C134 C 0.22053 0.17053 0.25595 0.0
C135 C 0.29228 0.10614 0.28769 0.0
C136 C 0.28074 0.18172 0.27138 0.0
C137 C 0.23153 0.09686 0.27257 0.0
C138 C 0.31664 0.14888 0.28748 0.0
N139 N 0.12755 0.1884 0.22314 0.0
C140 C 0.0968 0.21583 0.20085 0.0
C141 C 0.20777 0.24448 0.23592 0.0
C142 C 0.18427 0.20133 0.23863 0.0
C143 C 0.17259 0.27383 0.21584 0.0
C144 C 0.11773 0.25914 0.19758 0.0
H145 H 0.36334 0.15607 0.29954 0.0
H146 H 0.34886 0.23458 0.28211 0.0
H147 H 0.28499 0.28959 0.25099 0.0
O148 O 0.13217 0.12413 0.18214 0.0
O149 O 0.11063 0.1422 0.28557 0.0
O150 O 0.01406 0.17309 0.3006 0.0
O151 O 0.1473 0.06445 0.21066 0.0
O152 O 0.00497 0.14853 0.21705 0.0
O153 O 0.95925 0.17289 0.26764 0.0
O154 O 0.97519 0.10206 0.3524 0.0
O155 O 0.94967 0.06366 0.26211 0.0
O156 O 0.00277 0.09092 0.21475 0.0
O157 O 0.8903 0.14008 0.34172 0.0
O158 O 0.03779 0.08117 0.31419 0.0
O159 O 0.0881 0.05797 0.26441 0.0
C160 C 0.07808 0.1721 0.30266 0.0
C161 C 0.18805 0.065 0.15212 0.0
C162 C 0.20966 0.06199 0.0906 0.0
C163 C 0.24188 0.02214 0.09519 0.0
C164 C 0.22068 0.02513 0.15599 0.0
C165 C 0.2476 1.00402 0.1277 0.0
C166 C 0.18329 0.08366 0.11927 0.0
C167 C 0.96466 0.17405 0.23398 0.0
C168 C 0.15422 0.08454 0.18177 0.0
C169 C 0.30307 0.22509 0.27004 0.0
C170 C 0.26656 0.25645 0.25241 0.0
C171 C 0.96414 0.06228 0.22929 0.0
C172 C 0.94423 0.15245 0.39467 0.0
C173 C 0.94078 0.16752 0.45603 0.0
C174 C 0.97518 0.20666 0.45078 0.0
C175 C 0.97937 0.19122 0.38997 0.0
C176 C 0.92586 0.14031 0.42782 0.0
C177 C 0.99478 0.21823 0.41789 0.0
C178 C 0.0726 0.05286 0.297 0.0
C179 C 0.92732 0.12387 0.36551 0.0
H180 H 0.26264 1.00506 0.07349 0.0
H181 H 0.22462 0.00989 0.18084 0.0
H182 H 0.27242 0.97324 0.13093 0.0
H183 H 0.15783 0.11422 0.11576 0.0
H184 H 0.98703 0.22809 0.47218 0.0
H185 H 0.99481 0.2004 0.36478 0.0
H186 H 0.89941 0.11001 0.43168 0.0
H187 H 0.02181 0.24821 0.41401 0.0
Tb188 Tb 0.43864 0.37669 0.7399 0.0
C189 C 0.72072 0.44072 0.79994 0.0
N190 N 0.6906 0.40307 0.7901 0.0
C191 C 0.78673 0.38131 0.75977 0.0
C192 C 0.78437 0.45096 0.78892 0.0
C193 C 0.72422 0.37234 0.77204 0.0
C194 C 0.8166 0.42116 0.76778 0.0
C195 C 0.71964 0.50633 0.83485 0.0
C196 C 0.68883 0.46789 0.82257 0.0
C197 C 0.7823 0.51735 0.82328 0.0
C198 C 0.81456 0.48974 0.80031 0.0
Tb199 Tb 0.58871 0.39107 0.81169 0.0
N200 N 0.62797 0.45638 0.83287 0.0
C201 C 0.68656 0.53255 0.85838 0.0
C202 C 0.5967 0.48115 0.85699 0.0
C203 C 0.62503 0.51971 0.86966 0.0
H204 H 0.70472 0.34006 0.76846 0.0
H205 H 0.59969 0.53923 0.88851 0.0
H206 H 0.31602 0.44218 0.76657 0.0
H207 H 0.43899 0.20448 0.71179 0.0
H208 H 0.55047 0.47096 0.8674 0.0
H209 H 0.70846 0.56237 0.86835 0.0
H210 H 0.47901 0.28084 0.70842 0.0
H211 H 0.81252 0.35696 0.74499 0.0
H212 H 0.80647 0.54692 0.83221 0.0
H213 H 0.86329 0.49827 0.79201 0.0
H214 H 0.21109 0.43285 0.79542 0.0
H215 H 0.86551 0.42777 0.75876 0.0
H216 H 0.3388 0.18771 0.74435 0.0
N217 N 0.33752 0.37395 0.76508 0.0
C218 C 0.3123 0.33308 0.76895 0.0
C219 C 0.23957 0.40448 0.78863 0.0
C220 C 0.25121 0.32629 0.78448 0.0
C221 C 0.30018 0.40958 0.7729 0.0
C222 C 0.21545 0.36267 0.79499 0.0
N223 N 0.40459 0.30584 0.74046 0.0
C224 C 0.43572 0.27346 0.72295 0.0
C225 C 0.32157 0.25518 0.75833 0.0
C226 C 0.34656 0.29793 0.75588 0.0
C227 C 0.35629 0.22108 0.74301 0.0
C228 C 0.41295 0.2304 0.72466 0.0
H229 H 0.16834 0.35886 0.80704 0.0
H230 H 0.1809 0.27768 0.80071 0.0
H231 H 0.24273 0.21537 0.77794 0.0
O232 O 0.44981 0.36828 0.68626 0.0
O233 O 0.46414 0.3275 0.778 0.0
O234 O 0.49404 0.36403 0.82662 0.0
O235 O 0.36072 0.39182 0.70693 0.0
O236 O 0.53722 0.35814 0.72474 0.0
O237 O 0.58503 0.33546 0.77562 0.0
O238 O 0.59725 0.38832 0.86525 0.0
O239 O 0.59776 0.4289 0.76382 0.0
O240 O 0.49361 0.43878 0.73916 0.0
O241 O 0.64716 0.34189 0.83392 0.0
O242 O 0.50355 0.43157 0.82083 0.0
O243 O 0.42882 0.43327 0.77483 0.0
C244 C 0.45934 0.33384 0.81103 0.0
C245 C 0.38695 0.41637 0.65174 0.0
C246 C 0.36824 0.4344 0.59134 0.0
C247 C 0.36132 0.47845 0.60106 0.0
C248 C 0.38074 0.46071 0.66044 0.0
C249 C 0.36834 0.49147 0.63519 0.0
C250 C 0.38226 0.4034 0.61695 0.0
C251 C 0.58252 0.33682 0.74177 0.0
C252 C 0.3924 0.38346 0.67909 0.0
C253 C 0.22724 0.28355 0.78836 0.0
C254 C 0.2624 0.24806 0.77536 0.0
C255 C 0.55661 0.44847 0.74248 0.0
C256 C 0.69987 0.36757 0.88543 0.0
C257 C 0.74944 0.3884 0.94062 0.0
C258 C 0.80852 0.39669 0.92377 0.0
C259 C 0.76016 0.37482 0.86953 0.0
C260 C 0.69505 0.37371 0.92125 0.0
C261 C 0.81388 0.38954 0.88859 0.0
C262 C 0.45038 0.44586 0.80557 0.0
C263 C 0.64051 0.35777 0.8648 0.0
H264 H 0.35049 0.50296 0.58203 0.0
H265 H 0.38466 0.4715 0.68689 0.0
H266 H 0.36328 0.52553 0.64217 0.0
H267 H 0.3872 0.36928 0.60996 0.0
H268 H 0.85092 0.40813 0.93806 0.0
H269 H 0.76576 0.36978 0.84231 0.0
H270 H 0.64896 0.36791 0.93391 0.0
H271 H 0.85987 0.39561 0.87599 0.0
Tb272 Tb 0.0742 0.89746 0.7262 0.0
C273 C 0.79156 0.86981 0.77838 0.0
N274 N 0.82987 0.9062 0.77814 0.0
C275 C 0.74119 0.94732 0.75445 0.0
C276 C 0.72725 0.87039 0.76526 0.0
C277 C 0.80442 0.94518 0.76804 0.0
C278 C 0.70272 0.90962 0.75257 0.0
C279 C 0.77737 0.79426 0.79482 0.0
C280 C 0.81644 0.83219 0.79288 0.0
C281 C 0.71404 0.79425 0.78077 0.0
C282 C 0.68907 0.83221 0.76598 0.0
Tb283 Tb 0.93278 0.89835 0.80038 0.0
N284 N 0.8784 0.83318 0.80574 0.0
C285 C 0.80255 0.75778 0.81149 0.0
C286 C 0.90215 0.79807 0.82309 0.0
C287 C 0.86483 0.75994 0.82612 0.0
H288 H 0.83187 0.97505 0.77115 0.0
H289 H 0.88436 0.73214 0.8396 0.0
H290 H 0.1784 0.815 0.72842 0.0
H291 H 0.11885 0.06669 0.69696 0.0
H292 H 0.9496 0.79898 0.83489 0.0
H293 H 0.77397 0.72809 0.81368 0.0
H294 H 0.05357 0.99865 0.69986 0.0
H295 H 0.72181 0.9782 0.74595 0.0
H296 H 0.68357 0.76527 0.78175 0.0
H297 H 0.63969 0.83195 0.75582 0.0
H298 H 0.29776 0.80521 0.73324 0.0
H299 H 0.65353 0.91146 0.74231 0.0
H300 H 0.23528 0.06652 0.71452 0.0
N301 N 0.18335 0.88424 0.7333 0.0
C302 C 0.22289 0.9199 0.73527 0.0
C303 C 0.27727 0.83764 0.73427 0.0
C304 C 0.29112 0.91583 0.73878 0.0
C305 C 0.2097 0.84334 0.73151 0.0
C306 C 0.31799 0.87396 0.73897 0.0
N307 N 0.13118 0.96139 0.72087 0.0
C308 C 0.10417 0.99849 0.70783 0.0
C309 C 0.23533 0.9977 0.72667 0.0
C310 C 0.19579 0.96005 0.72856 0.0
C311 C 0.20663 0.0368 0.71624 0.0
C312 C 0.14101 0.03699 0.70614 0.0
H313 H 0.37025 0.86942 0.74119 0.0
H314 H 0.38295 0.95117 0.74258 0.0
H315 H 0.3338 0.02312 0.73252 0.0
O316 O 0.05812 0.91503 0.67442 0.0
O317 O 0.0799 0.95056 0.76448 0.0
O318 O 0.02876 0.92662 0.81393 0.0
O319 O 0.10228 0.85441 0.68669 0.0
O320 O 0.97748 0.92694 0.71851 0.0
O321 O 0.94785 0.95678 0.76999 0.0
O322 O 0.92005 0.88685 0.85279 0.0
O323 O 0.91474 0.86591 0.75057 0.0
O324 O 0.01502 0.8391 0.73595 0.0
O325 O 0.88719 0.94671 0.83052 0.0
O326 O 0.01504 0.85512 0.81093 0.0
O327 O 0.09942 0.85629 0.77063 0.0
C328 C 0.07104 0.95166 0.7979 0.0
C329 C 0.13808 0.88828 0.63598 0.0
C330 C 0.17186 0.89194 0.57614 0.0
C331 C 0.23653 0.89903 0.58697 0.0
C332 C 0.2034 0.89522 0.64585 0.0
C333 C 0.25207 0.90073 0.62164 0.0
C334 C 0.12227 0.88688 0.60073 0.0
C335 C 0.94955 0.95817 0.73646 0.0
C336 C 0.08734 0.8809 0.66221 0.0
C337 C 0.33052 0.95354 0.73932 0.0
C338 C 0.30257 0.9945 0.73346 0.0
C339 C 0.95112 0.83717 0.73466 0.0
C340 C 0.83205 0.92076 0.87986 0.0
C341 C 0.78716 0.91528 0.93732 0.0
C342 C 0.72451 0.90982 0.923 0.0
C343 C 0.76912 0.91567 0.86591 0.0
C344 C 0.84069 0.9211 0.91557 0.0
C345 C 0.71562 0.9103 0.88747 0.0
C346 C 0.07406 0.84451 0.80042 0.0
C347 C 0.8902 0.92342 0.85818 0.0
H348 H 0.27511 0.90314 0.56843 0.0
H349 H 0.21757 0.89584 0.6722 0.0
H350 H 0.30214 0.906 0.62982 0.0
H351 H 0.07222 0.88143 0.59248 0.0
H352 H 0.68263 0.90516 0.93935 0.0
H353 H 0.76125 0.91557 0.83853 0.0
H354 H 0.88926 0.92493 0.9265 0.0
H355 H 0.66719 0.90616 0.8766 0.0
Tb356 Tb 0.44471 0.61642 0.23041 0.0
C357 C 0.72832 0.66568 0.29891 0.0
N358 N 0.69959 0.62605 0.29358 0.0
C359 C 0.80274 0.59631 0.27663 0.0
C360 C 0.79511 0.67251 0.29228 0.0
C361 C 0.73649 0.59099 0.28403 0.0
C362 C 0.832 0.63737 0.28031 0.0
C363 C 0.71974 0.73977 0.32076 0.0
C364 C 0.69111 0.69903 0.31262 0.0
C365 C 0.78566 0.74728 0.31303 0.0
C366 C 0.82321 0.71376 0.2987 0.0
Tb367 Tb 0.59009 0.62285 0.30499 0.0
N368 N 0.62708 0.69094 0.31896 0.0
C369 C 0.68163 0.77122 0.33726 0.0
C370 C 0.59119 0.72015 0.33735 0.0
C371 C 0.61741 0.76103 0.34616 0.0
H372 H 0.71552 0.55862 0.28238 0.0
H373 H 0.58824 0.78452 0.36 0.0
H374 H 0.36207 0.71111 0.23453 0.0
H375 H 0.35449 0.45105 0.23157 0.0
H376 H 0.54249 0.71201 0.34545 0.0
H377 H 0.70182 0.8029 0.34408 0.0
H378 H 0.4299 0.51099 0.21585 0.0
H379 H 0.83136 0.5686 0.26845 0.0
H380 H 0.80841 0.77855 0.31869 0.0
H381 H 0.87435 0.71973 0.29353 0.0
H382 H 0.25577 0.73577 0.25597 0.0
H383 H 0.88346 0.64126 0.27486 0.0
H384 H 0.25102 0.46836 0.26097 0.0
N385 N 0.34545 0.6442 0.24677 0.0
C386 C 0.30059 0.61421 0.25693 0.0
C387 C 0.26799 0.70148 0.25669 0.0
C388 C 0.23864 0.62681 0.26877 0.0
C389 C 0.32862 0.68731 0.24488 0.0
C390 C 0.22321 0.6712 0.26926 0.0
N391 N 0.3744 0.55997 0.24019 0.0
C392 C 0.38698 0.51809 0.23042 0.0
C393 C 0.26949 0.53805 0.2617 0.0
C394 C 0.31549 0.57053 0.2534 0.0
C395 C 0.28498 0.49438 0.25497 0.0
C396 C 0.34345 0.48445 0.23852 0.0
H397 H 0.17619 0.68228 0.27824 0.0
H398 H 0.14595 0.60374 0.28826 0.0
H399 H 0.1731 0.52589 0.2821 0.0
O400 O 0.43806 0.58567 0.18172 0.0
O401 O 0.4383 0.57956 0.27966 0.0
O402 O 0.54196 0.56056 0.2972 0.0
O403 O 0.40141 0.65014 0.18958 0.0
O404 O 0.52958 0.57598 0.21934 0.0
O405 O 0.60723 0.57331 0.26429 0.0
O406 O 0.55808 0.62464 0.35609 0.0
O407 O 0.60348 0.66971 0.26388 0.0
O408 O 0.52878 0.65869 0.21869 0.0
O409 O 0.6509 0.5967 0.34341 0.0
O410 O 0.49124 0.65085 0.30989 0.0
O411 O 0.45978 0.67776 0.25798 0.0
C412 C 0.47892 0.5539 0.29674 0.0
C413 C 0.35039 0.60842 0.14593 0.0
C414 C 0.30153 0.60368 0.08855 0.0
C415 C 0.23972 0.59928 0.10353 0.0
C416 C 0.28825 0.60337 0.1602 0.0
C417 C 0.23335 0.59863 0.13909 0.0
C418 C 0.35702 0.60769 0.11003 0.0
C419 C 0.58505 0.56284 0.23312 0.0
C420 C 0.4077 0.61824 0.16785 0.0
C421 C 0.19354 0.59468 0.27873 0.0
C422 C 0.20898 0.55034 0.27523 0.0
C423 C 0.58166 0.67679 0.2326 0.0
C424 C 0.60496 0.57668 0.39667 0.0
C425 C 0.62249 0.56211 0.45747 0.0
C426 C 0.59405 0.52064 0.45285 0.0
C427 C 0.57701 0.53514 0.39239 0.0
C428 C 0.6275 0.59008 0.42927 0.0
C429 C 0.57135 0.50733 0.42046 0.0
C430 C 0.46414 0.68166 0.29131 0.0
C431 C 0.61125 0.60705 0.36793 0.0
H432 H 0.19631 0.59633 0.08762 0.0
H433 H 0.28188 0.60403 0.18759 0.0
H434 H 0.18552 0.59514 0.15033 0.0
H435 H 0.40487 0.61162 0.09878 0.0
H436 H 0.58913 0.49877 0.47433 0.0
H437 H 0.55983 0.52432 0.36747 0.0
H438 H 0.64894 0.62227 0.43276 0.0
H439 H 0.54931 0.47537 0.41709 0.0
C440 C 0.11541 0.93498 0.32209 0.0
C441 C 0.16194 0.94321 0.34842 0.0
C442 C 0.13891 0.0209 0.34595 0.0
C443 C 0.09936 0.0145 0.31614 0.0
N444 N 0.04708 0.964 0.27667 0.0
N445 N 0.23252 0.99512 0.37728 0.0
C446 C 0.08752 0.971 0.30411 0.0
C447 C 0.1787 0.98655 0.3574 0.0
N448 N 0.09616 0.89303 0.31528 0.0
N449 N 0.1352 0.05785 0.36555 0.0
H450 H 0.264 0.97068 0.38559 0.0
H451 H 0.24945 0.02677 0.38208 0.0
H452 H 0.1008 0.08204 0.36192 0.0
H453 H 0.16024 0.06149 0.38878 0.0
H454 H 0.05746 0.88473 0.29901 0.0
H455 H 0.11714 0.86633 0.32749 0.0
H456 H 0.0426 0.93417 0.26389 0.0
H457 H 0.01823 0.98857 0.26645 0.0
C458 C 0.34173 0.54405 0.82353 0.0
C459 C 0.33352 0.54151 0.85949 0.0
C460 C 0.39046 0.47154 0.85895 0.0
C461 C 0.41137 0.47918 0.82462 0.0
N462 N 0.41227 0.52811 0.77617 0.0
N463 N 0.30504 0.48577 0.89954 0.0
C464 C 0.38823 0.51683 0.80737 0.0
C465 C 0.34494 0.50025 0.87417 0.0
N466 N 0.29705 0.5654 0.80393 0.0
N467 N 0.41399 0.43772 0.87784 0.0
H468 H 0.26462 0.50369 0.9074 0.0
H469 H 0.30628 0.45401 0.90888 0.0
H470 H 0.44519 0.41397 0.86869 0.0
H471 H 0.40542 0.43503 0.90403 0.0
H472 H 0.2982 0.56511 0.77723 0.0
H473 H 0.25314 0.57632 0.81421 0.0
H474 H 0.39968 0.55721 0.7642 0.0
H475 H 0.45001 0.51129 0.76433 0.0
C476 C 0.66809 0.5397 0.71235 0.0
C477 C 0.6437 0.54928 0.67898 0.0
C478 C 0.56576 0.48922 0.68584 0.0
C479 C 0.58331 0.48471 0.72084 0.0
N480 N 0.62941 0.52414 0.76884 0.0
N481 N 0.54714 0.54304 0.64249 0.0
C482 C 0.62826 0.51533 0.73474 0.0
C483 C 0.58548 0.52722 0.66821 0.0
N484 N 0.72982 0.55082 0.72247 0.0
N485 N 0.53441 0.45661 0.66849 0.0
H486 H 0.55499 0.57366 0.63176 0.0
H487 H 0.50317 0.52806 0.63533 0.0
H488 H 0.52712 0.42623 0.67936 0.0
H489 H 0.52473 0.45825 0.64223 0.0
H490 H 0.74799 0.54257 0.7466 0.0
H491 H 0.76477 0.56244 0.70554 0.0
H492 H 0.6587 0.54901 0.77921 0.0
H493 H 0.5942 0.51114 0.78503 0.0
C494 C 0.83197 0.99764 0.18002 0.0
C495 C 0.86934 0.96363 0.16533 0.0
C496 C 0.96875 0.99374 0.19233 0.0
C497 C 0.93157 0.02822 0.20702 0.0
N498 N 0.83112 0.06849 0.20778 0.0
N499 N 0.97094 0.92528 0.16039 0.0
C500 C 0.86388 0.03142 0.19919 0.0
C501 C 0.93724 0.96079 0.17208 0.0
N502 N 0.76553 0.99704 0.17634 0.0
N503 N 0.03477 0.99323 0.19688 0.0
H504 H 0.94989 0.90102 0.14492 0.0
H505 H 0.01856 0.91794 0.16761 0.0
H506 H 0.05847 0.01431 0.2137 0.0
H507 H 0.06654 0.97343 0.18322 0.0
H508 H 0.7346 0.01748 0.19001 0.0
H509 H 0.74067 0.97375 0.16149 0.0
H510 H 0.78402 0.07552 0.19939 0.0
H511 H 0.85343 0.09435 0.22082 0.0
C512 C 0.91136 0.0702 0.70224 0.0
C513 C 0.87534 0.06007 0.67208 0.0
C514 C 0.87591 0.98258 0.68779 0.0
C515 C 0.91306 0.99325 0.71774 0.0
N516 N 0.92925 0.05007 0.76074 0.0
N517 N 0.80995 0.00824 0.63991 0.0
C518 C 0.91994 0.03781 0.72739 0.0
C519 C 0.85379 0.01657 0.6658 0.0
N520 N 0.93891 0.11057 0.70678 0.0
N521 N 0.85883 0.94015 0.6815 0.0
H522 H 0.79204 0.03249 0.62386 0.0
H523 H 0.78755 0.97813 0.63562 0.0
H524 H 0.86356 0.91612 0.70007 0.0
H525 H 0.8394 0.92883 0.65837 0.0
H526 H 0.97068 0.11782 0.72709 0.0
H527 H 0.93561 0.13514 0.68853 0.0
H528 H 0.92873 0.08265 0.76867 0.0
H529 H 0.92893 0.02843 0.78105 0.0
C530 C 0.71537 0.50852 0.17705 0.0
C531 C 0.68287 0.46893 0.16795 0.0
C532 C 0.59306 0.48797 0.20625 0.0
C533 C 0.6218 0.52955 0.21276 0.0
N534 N 0.70764 0.58149 0.20154 0.0
N535 N 0.58604 0.42401 0.16955 0.0
C536 C 0.68249 0.54036 0.19749 0.0
C537 C 0.62036 0.45957 0.18135 0.0
N538 N 0.77826 0.51518 0.16685 0.0
N539 N 0.54095 0.47474 0.22504 0.0
H540 H 0.60429 0.40228 0.15134 0.0
H541 H 0.53729 0.4182 0.17545 0.0
H542 H 0.51987 0.49478 0.24338 0.0
H543 H 0.52243 0.44301 0.22465 0.0
H544 H 0.80736 0.54094 0.17569 0.0
H545 H 0.80309 0.49308 0.1513 0.0
H546 H 0.74761 0.59314 0.18804 0.0
H547 H 0.68578 0.60518 0.21687 0.0
C548 C 0.36509 0.50199 0.36142 0.0
C549 C 0.3837 0.45768 0.36026 0.0
C550 C 0.47237 0.47599 0.32063 0.0
C551 C 0.4513 0.52037 0.32065 0.0
N552 N 0.40161 0.57593 0.35518 0.0
N553 N 0.45033 0.40074 0.3366 0.0
C554 C 0.40368 0.53352 0.34466 0.0
C555 C 0.43602 0.44416 0.3392 0.0
N556 N 0.30959 0.5141 0.37809 0.0
N557 N 0.53023 0.46479 0.30592 0.0
H558 H 0.42723 0.37693 0.35115 0.0
H559 H 0.48151 0.38773 0.31831 0.0
H560 H 0.56208 0.48713 0.29515 0.0
H561 H 0.55123 0.4341 0.30785 0.0
H562 H 0.29022 0.5454 0.37645 0.0
H563 H 0.27953 0.49196 0.39072 0.0
H564 H 0.37305 0.58675 0.37548 0.0
H565 H 0.43606 0.59862 0.34726 0.0
C566 C 0.11597 0.06175 0.83862 0.0
C567 C 0.16287 0.04978 0.8637 0.0
C568 C 0.14905 0.97302 0.84629 0.0
C569 C 0.10678 0.98552 0.81897 0.0
N570 N 0.06522 0.04452 0.7844 0.0
N571 N 0.2366 0.99511 0.88496 0.0
C572 C 0.09557 0.0307 0.81346 0.0
C573 C 0.18318 1.00568 0.86564 0.0
N574 N 0.08728 0.10188 0.83995 0.0
N575 N 0.15644 0.93006 0.85418 0.0
H576 H 0.26427 0.01835 0.8984 0.0
H577 H 0.25746 0.96419 0.88467 0.0
H578 H 0.13409 0.90508 0.84025 0.0
H579 H 0.1807 0.91951 0.87613 0.0
H580 H 0.04794 0.11039 0.82433 0.0
H581 H 0.0975 0.12492 0.85907 0.0
H582 H 0.06358 0.07726 0.77741 0.0
H583 H 0.04641 0.02335 0.76595 0.0
C584 C 0.14359 0.09563 1.00262 0.0
C585 C 0.20317 0.10164 0.98488 0.0
C586 C 0.26365 0.09321 0.0389 0.0
C587 C 0.2053 0.08051 0.05542 0.0
N588 N 0.08981 0.06476 0.05199 0.0
N589 N 0.3211 0.09848 0.9853 0.0
C590 C 0.14505 0.0807 0.0371 0.0
C591 C 0.26361 0.09865 1.00283 0.0
N592 N 0.08574 0.10508 0.98676 0.0
N593 N 0.31911 0.10057 0.05782 0.0
H594 H 0.32364 0.10065 0.95871 0.0
H595 H 0.36596 0.09176 0.99679 0.0
H596 H 0.32058 0.09746 0.08441 0.0
H597 H 0.36146 0.11403 0.04764 0.0
H598 H 0.04121 0.1055 0.99942 0.0
H599 H 0.08303 0.11649 0.96169 0.0
H600 H 0.04623 0.05952 0.03861 0.0
H601 H 0.08874 0.05355 0.07711 0.0
C602 C 0.28739 0.39973 0.50623 0.0
C603 C 0.3322 0.41757 0.48219 0.0
C604 C 0.39992 0.44433 0.53008 0.0
C605 C 0.35995 0.42269 0.55406 0.0
N606 N 0.26464 0.37816 0.56466 0.0
N607 N 0.3893 0.48672 0.47957 0.0
C608 C 0.30364 0.39954 0.54203 0.0
C609 C 0.37824 0.4482 0.4958 0.0
N610 N 0.22477 0.39096 0.49593 0.0
N611 N 0.45767 0.46303 0.54013 0.0
H612 H 0.35952 0.49688 0.45936 0.0
H613 H 0.41914 0.5113 0.48992 0.0
H614 H 0.47604 0.46044 0.56505 0.0
H615 H 0.4894 0.47735 0.52264 0.0
H616 H 0.18776 0.38145 0.51242 0.0
H617 H 0.20724 0.40015 0.47191 0.0
H618 H 0.22828 0.35616 0.55702 0.0
H619 H 0.27119 0.38 0.5911 0.0
C620 C 0.7267 0.44066 0.02924 0.0
C621 C 0.75768 0.40948 0.05065 0.0
C622 C 0.78819 0.36772 0.99931 0.0
C623 C 0.74733 0.39412 0.97873 0.0
N624 N 0.67626 0.45646 0.97435 0.0
N625 N 0.8562 0.36693 0.04984 0.0
C626 C 0.71555 0.43058 0.99383 0.0
C627 C 0.79984 0.37953 0.03398 0.0
N628 N 0.7217 0.48281 0.04022 0.0
N629 N 0.81504 0.33062 0.98608 0.0
H630 H 0.87089 0.38016 0.07343 0.0
H631 H 0.89174 0.34831 0.03769 0.0
H632 H 0.80633 0.31998 0.96098 0.0
H633 H 0.84044 0.30839 1.00115 0.0
H634 H 0.70312 0.5078 0.02516 0.0
H635 H 0.74875 0.49416 0.06126 0.0
H636 H 0.64653 0.48044 0.98494 0.0
H637 H 0.66998 0.45204 0.94803 0.0
C638 C 0.8343 0.13921 0.53254 0.0
C639 C 0.8816 0.13899 0.55929 0.0
C640 C 0.96813 0.14796 0.51693 0.0
C641 C 0.92019 0.15537 0.4912 0.0
N642 N 0.80663 0.16513 0.47599 0.0
N643 N 0.99356 0.14971 0.57756 0.0
C644 C 0.85288 0.15271 0.49932 0.0
C645 C 0.94869 0.1449 0.55169 0.0
N646 N 0.77185 0.12564 0.53869 0.0
N647 N 0.03203 0.14278 0.5081 0.0
H648 H 0.98133 0.14869 0.6034 0.0
H649 H 0.04195 0.1587 0.5734 0.0
H650 H 0.04786 0.14383 0.4828 0.0
H651 H 0.06799 0.13308 0.5254 0.0
H652 H 0.73703 0.12118 0.51936 0.0
H653 H 0.75685 0.11445 0.56255 0.0
H654 H 0.75738 0.16812 0.48196 0.0
H655 H 0.81799 0.17653 0.45167 0.0
C656 C 0.84403 0.88058 0.02636 0.0
C657 C 0.80844 0.90988 0.04731 0.0
C658 C 0.76915 0.94744 0.996 0.0
C659 C 0.79672 0.91425 0.97518 0.0
N660 N 0.85214 0.84506 0.97099 0.0
N661 N 0.72897 0.96746 0.05206 0.0
C662 C 0.83223 0.87972 0.99045 0.0
C663 C 0.76896 0.9425 0.03216 0.0
N664 N 0.89018 0.85422 0.0407 0.0
N665 N 0.74468 0.98426 0.98128 0.0
H666 H 0.72654 0.96455 0.0786 0.0
H667 H 0.69398 0.98836 0.04195 0.0
H668 H 0.74499 0.98939 0.95491 0.0
H669 H 0.73005 0.01144 0.99539 0.0
H670 H 0.92213 0.83534 0.0263 0.0
H671 H 0.90095 0.85457 0.06687 0.0
H672 H 0.8721 0.8169 0.98142 0.0
H673 H 0.84321 0.84253 0.94472 0.0
C674 C 0.62236 0.61041 0.54807 0.0
C675 C 0.68586 0.59904 0.5597 0.0
C676 C 0.71112 0.56982 0.5025 0.0
C677 C 0.64529 0.57664 0.49219 0.0
N678 N 0.5364 0.60035 0.50551 0.0
N679 N 0.7899 0.56571 0.54931 0.0
C680 C 0.60047 0.59633 0.51505 0.0
C681 C 0.73031 0.57847 0.53715 0.0
N682 N 0.58338 0.6354 0.56855 0.0
N683 N 0.75532 0.55536 0.47902 0.0
H684 H 0.80608 0.57279 0.57416 0.0
H685 H 0.82187 0.54608 0.5356 0.0
H686 H 0.74254 0.54751 0.45378 0.0
H687 H 0.80534 0.55401 0.4837 0.0
H688 H 0.53927 0.64865 0.56047 0.0
H689 H 0.59772 0.64615 0.59291 0.0
H690 H 0.49955 0.6093 0.52229 0.0
H691 H 0.51899 0.59197 0.48113 0.0
C692 C 0.27167 0.57363 0.99488 0.0
C693 C 0.30189 0.60891 0.97765 0.0
C694 C 0.33127 0.64191 0.03329 0.0
C695 C 0.30675 0.60448 0.05031 0.0
N696 N 0.26998 0.52964 0.04603 0.0
N697 N 0.37541 0.67076 0.98074 0.0
C698 C 0.28215 0.5687 0.03066 0.0
C699 C 0.33635 0.64129 0.99695 0.0
N700 N 0.23012 0.54607 0.9776 0.0
N701 N 0.34663 0.67893 0.05144 0.0
H702 H 0.3821 0.67052 0.95429 0.0
H703 H 0.40635 0.69235 0.99387 0.0
H704 H 0.34141 0.68157 0.0779 0.0
H705 H 0.35833 0.7084 0.0398 0.0
H706 H 0.20227 0.5223 0.98973 0.0
H707 H 0.21793 0.55005 0.95185 0.0
H708 H 0.2577 0.50142 0.0323 0.0
H709 H 0.27909 0.52437 0.07199 0.0
C710 C 0.18301 0.92819 0.48505 0.0
C711 C 0.17774 0.88776 0.46706 0.0
C712 C 0.15361 0.85034 0.52089 0.0
C713 C 0.15869 0.89083 0.53862 0.0
N714 N 0.15859 0.96916 0.53676 0.0
N715 N 0.14138 0.81283 0.46616 0.0
C716 C 0.16632 0.93008 0.52024 0.0
C717 C 0.15742 0.8496 0.48448 0.0
N718 N 0.2084 0.96409 0.46934 0.0
N719 N 0.14869 0.81245 0.53889 0.0
H720 H 0.14343 0.81141 0.43948 0.0
H721 H 0.12047 0.78524 0.47706 0.0
H722 H 0.14396 0.81186 0.56545 0.0
H723 H 0.15293 0.78162 0.52774 0.0
H724 H 0.21996 0.993 0.48229 0.0
H725 H 0.22368 0.96392 0.444 0.0
H726 H 0.15771 0.99899 0.52418 0.0
H727 H 0.14635 0.97122 0.56263 0.0
C728 C 0.20971 0.22521 0.36171 0.0
C729 C 0.20307 0.26953 0.35262 0.0
C730 C 0.09833 0.25029 0.32539 0.0
C731 C 0.11562 0.20516 0.32463 0.0
N732 N 0.19276 0.15062 0.34465 0.0
N733 N 0.13964 0.3241 0.32305 0.0
C734 C 0.17281 0.19289 0.34354 0.0
C735 C 0.14697 0.28206 0.33367 0.0
N736 N 0.24914 0.21386 0.38853 0.0
N737 N 0.03557 0.26363 0.32061 0.0
H738 H 0.17252 0.34909 0.32919 0.0
H739 H 0.10281 0.33317 0.30597 0.0
H740 H 0.99603 0.24271 0.31722 0.0
H741 H 0.0215 0.29596 0.32433 0.0
H742 H 0.25148 0.18219 0.39796 0.0
H743 H 0.27192 0.23691 0.40446 0.0
H744 H 0.23787 0.14142 0.35469 0.0
H745 H 0.16689 0.12502 0.33368 0.0
C746 C 0.40357 0.22415 0.84426 0.0
C747 C 0.35578 0.23586 0.86859 0.0
C748 C 0.36884 0.31258 0.85153 0.0
C749 C 0.42444 0.30094 0.83209 0.0
N750 N 0.50578 0.24678 0.82015 0.0
N751 N 0.29259 0.29244 0.89599 0.0
C752 C 0.44476 0.25698 0.83107 0.0
C753 C 0.33801 0.28052 0.87231 0.0
N754 N 0.40927 0.182 0.83319 0.0
N755 N 0.34442 0.35379 0.84942 0.0
H756 H 0.26572 0.26997 0.91005 0.0
H757 H 0.28375 0.32474 0.90293 0.0
H758 H 0.36525 0.37753 0.83398 0.0
H759 H 0.30055 0.36335 0.86036 0.0
H760 H 0.44113 0.17301 0.8137 0.0
H761 H 0.37628 0.15759 0.84004 0.0
H762 H 0.52442 0.21522 0.82116 0.0
H763 H 0.54027 0.27089 0.81485 0.0
C764 C 0.68616 0.23901 0.71704 0.0
C765 C 0.7222 0.25586 0.68908 0.0
C766 C 0.66422 0.32528 0.69435 0.0
C767 C 0.62688 0.3081 0.72166 0.0
N768 N 0.58758 0.24388 0.75017 0.0
N769 N 0.72467 0.30833 0.64313 0.0
C770 C 0.63365 0.26356 0.73051 0.0
C771 C 0.70477 0.2969 0.67514 0.0
N772 N 0.70179 0.19964 0.73098 0.0
N773 N 0.66385 0.36895 0.68767 0.0
H774 H 0.74955 0.2871 0.62692 0.0
H775 H 0.70876 0.33655 0.63099 0.0
H776 H 0.63679 0.39132 0.70174 0.0
H777 H 0.69564 0.38346 0.67038 0.0
H778 H 0.6829 0.18891 0.75416 0.0
H779 H 0.73609 0.17856 0.72059 0.0
H780 H 0.58608 0.21046 0.75475 0.0
H781 H 0.54611 0.26024 0.75812 0.0
C782 C 0.86884 0.23896 0.1661 0.0
C783 C 0.87254 0.2816 0.18072 0.0
C784 C 0.93952 0.25395 0.22744 0.0
C785 C 0.93298 0.21065 0.2148 0.0
N786 N 0.88535 0.16122 0.17283 0.0
N787 N 0.88955 0.32469 0.23205 0.0
C788 C 0.8957 0.20288 0.18432 0.0
C789 C 0.90037 0.28739 0.21368 0.0
N790 N 0.8412 0.23311 0.13439 0.0
N791 N 0.98807 0.26441 0.2501 0.0
H792 H 0.85738 0.34874 0.22377 0.0
H793 H 0.90595 0.32878 0.25725 0.0
H794 H 0.02324 0.24187 0.2574 0.0
H795 H 0.99882 0.29653 0.25728 0.0
H796 H 0.84503 0.20442 0.12011 0.0
H797 H 0.81612 0.25769 0.12162 0.0
H798 H 0.85149 0.15287 0.15382 0.0
H799 H 0.90844 0.13441 0.18337 0.0
C800 C 0.85238 0.77724 0.66502 0.0
C801 C 0.8258 0.74284 0.68483 0.0
C802 C 0.90519 0.7609 0.73062 0.0
C803 C 0.91774 0.80143 0.71484 0.0
N804 N 0.91206 0.84586 0.66448 0.0
N805 N 0.83417 0.69765 0.7351 0.0
C806 C 0.89414 0.80881 0.68114 0.0
C807 C 0.85498 0.73307 0.7171 0.0
N808 N 0.84007 0.77855 0.63059 0.0
N809 N 0.94318 0.74834 0.75762 0.0
H810 H 0.80162 0.67448 0.72511 0.0
H811 H 0.84774 0.69186 0.7604 0.0
H812 H 0.98118 0.76778 0.76729 0.0
H813 H 0.94124 0.71733 0.76826 0.0
H814 H 0.86187 0.80081 0.6142 0.0
H815 H 0.81415 0.75403 0.61761 0.0
H816 H 0.89091 0.85595 0.64157 0.0
H817 H 0.94698 0.86738 0.67442 0.0
C818 C 0.67137 0.78254 0.20984 0.0
C819 C 0.67404 0.77924 0.17383 0.0
C820 C 0.63217 0.70384 0.17735 0.0
C821 C 0.61604 0.7113 0.21235 0.0
N822 N 0.61096 0.763 0.25952 0.0
N823 N 0.66555 0.73443 0.12292 0.0
C824 C 0.63404 0.75178 0.2281 0.0
C825 C 0.65737 0.73901 0.15744 0.0
N826 N 0.70442 0.81513 0.22678 0.0
N827 N 0.62598 0.6629 0.16347 0.0
H828 H 0.69146 0.75696 0.1084 0.0
H829 H 0.64571 0.70878 0.10853 0.0
H830 H 0.60865 0.63625 0.1771 0.0
H831 H 0.64323 0.65423 0.13938 0.0
H832 H 0.70882 0.81636 0.2534 0.0
H833 H 0.7338 0.83773 0.21425 0.0
H834 H 0.61658 0.79411 0.27019 0.0
H835 H 0.5793 0.74324 0.27294 0.0
C836 C 0.33934 0.73666 0.35 0.0
C837 C 0.37159 0.77728 0.35524 0.0
C838 C 0.43928 0.76042 0.30559 0.0
C839 C 0.42334 0.71567 0.30865 0.0
N840 N 0.34854 0.66193 0.3305 0.0
N841 N 0.45525 0.82795 0.33666 0.0
C842 C 0.37036 0.70393 0.32998 0.0
C843 C 0.422 0.78954 0.33239 0.0
N844 N 0.27834 0.73006 0.36288 0.0
N845 N 0.46766 0.77569 0.27663 0.0
H846 H 0.44467 0.85066 0.35578 0.0
H847 H 0.49664 0.83555 0.32247 0.0
H848 H 0.47499 0.75585 0.25522 0.0
H849 H 0.47598 0.80882 0.27249 0.0
H850 H 0.25047 0.70221 0.35762 0.0
H851 H 0.25217 0.75491 0.37482 0.0
H852 H 0.3144 0.65053 0.34796 0.0
H853 H 0.36643 0.63832 0.31388 0.0
C854 C 0.20416 0.76415 0.82539 0.0
C855 C 0.16843 0.73777 0.84856 0.0
C856 C 0.08767 0.79639 0.85361 0.0
C857 C 0.11346 0.815 0.8234 0.0
N858 N 0.21977 0.83782 0.80597 0.0
N859 N 0.08523 0.73487 0.8922 0.0
C860 C 0.17901 0.80535 0.81617 0.0
C861 C 0.11308 0.75586 0.86526 0.0
N862 N 0.2612 0.74993 0.81147 0.0
N863 N 0.04706 0.82041 0.87379 0.0
H864 H 0.10811 0.70959 0.90524 0.0
H865 H 0.03933 0.74273 0.90164 0.0
H866 H 0.0384 0.85334 0.86925 0.0
H867 H 0.02991 0.81011 0.89742 0.0
H868 H 0.28457 0.76667 0.79187 0.0
H869 H 0.28363 0.72081 0.8183 0.0
H870 H 0.27034 0.83423 0.8056 0.0
H871 H 0.20351 0.86967 0.80245 0.0
loop_
_geom_bond_atom_site_label_1
_geom_bond_atom_site_label_2
_geom_bond_distance
_geom_bond_site_symmetry_2
_ccdc_geom_bond_type
H0 C7 0.929 . S
H1 C10 0.930 . S
H2 C12 0.929 . S
H3 C4 0.969 . S
C4 H3 0.969 . S
C4 O5 1.550 . S
C4 H6 0.973 . S
O5 C4 1.550 . S
O5 C11 1.412 . S
H6 C4 0.973 . S
C7 H0 0.929 . S
C7 C8 1.400 . S
C7 C9 1.364 . S
C8 C7 1.400 . S
C8 C12 1.377 . S
C9 C7 1.364 . S
C9 C10 1.374 . S
C10 H1 0.930 . S
C10 C9 1.374 . S
C10 C11 1.383 . S
C11 O5 1.412 . S
C11 C10 1.383 . S
C11 C12 1.394 . S
C12 H2 0.929 . S
C12 C8 1.377 . S
C12 C11 1.394 . S
H13 C20 0.929 . S
H14 C23 0.930 . S
H15 C25 0.929 . S
H16 C17 0.969 . S
C17 H16 0.969 . S
C17 O18 1.550 . S
C17 H19 0.973 . S
O18 C17 1.550 . S
O18 C24 1.412 . S
H19 C17 0.973 . S
C20 H13 0.929 . S
C20 C21 1.400 . S
C20 C22 1.364 . S
C21 C20 1.400 . S
C21 C25 1.377 . S
C22 C20 1.364 . S
C22 C23 1.374 . S
C23 H14 0.930 . S
C23 C22 1.374 . S
C23 C24 1.383 . S
C24 O18 1.412 . S
C24 C23 1.383 . S
C24 C25 1.394 . S
C25 H15 0.929 . S
C25 C21 1.377 . S
C25 C24 1.394 . S
H26 C33 0.929 . S
H27 C36 0.930 . S
H28 C38 0.929 . S
H29 C30 0.969 . S
C30 H29 0.969 . S
C30 O31 1.550 . S
C30 H32 0.973 . S
O31 C30 1.550 . S
O31 C37 1.412 . S
H32 C30 0.973 . S
C33 H26 0.929 . S
C33 C34 1.400 . S
C33 C35 1.364 . S
C34 C33 1.400 . S
C34 C38 1.377 . S
C35 C33 1.364 . S
C35 C36 1.374 . S
C36 H27 0.930 . S
C36 C35 1.374 . S
C36 C37 1.383 . S
C37 O31 1.412 . S
C37 C36 1.383 . S
C37 C38 1.394 . S
C38 H28 0.929 . S
C38 C34 1.377 . S
C38 C37 1.394 . S
H39 C46 0.929 . S
H40 C49 0.930 . S
H41 C51 0.929 . S
H42 C43 0.969 . S
C43 H42 0.969 . S
C43 O44 1.550 . S
C43 H45 0.973 . S
O44 C43 1.550 . S
O44 C50 1.412 . S
H45 C43 0.973 . S
C46 H39 0.929 . S
C46 C47 1.400 . S
C46 C48 1.364 . S
C47 C46 1.400 . S
C47 C51 1.377 . S
C48 C46 1.364 . S
C48 C49 1.374 . S
C49 H40 0.930 . S
C49 C48 1.374 . S
C49 C50 1.383 . S
C50 O44 1.412 . S
C50 C49 1.383 . S
C50 C51 1.394 . S
C51 H41 0.929 . S
C51 C47 1.377 . S
C51 C50 1.394 . S
H52 C59 0.929 . S
H53 C62 0.930 . S
H54 C64 0.929 . S
H55 C56 0.969 . S
C56 H55 0.969 . S
C56 O57 1.550 . S
C56 H58 0.973 . S
O57 C56 1.550 . S
O57 C63 1.412 . S
H58 C56 0.973 . S
C59 H52 0.929 . S
C59 C60 1.400 . S
C59 C61 1.364 . S
C60 C59 1.400 . S
C60 C64 1.377 . S
C61 C59 1.364 . S
C61 C62 1.374 . S
C62 H53 0.930 . S
C62 C61 1.374 . S
C62 C63 1.383 . S
C63 O57 1.412 . S
C63 C62 1.383 . S
C63 C64 1.394 . S
C64 H54 0.929 . S
C64 C60 1.377 . S
C64 C63 1.394 . S
H65 C72 0.929 . S
H66 C75 0.930 . S
H67 C77 0.929 . S
H68 C69 0.969 . S
C69 H68 0.969 . S
C69 O70 1.550 . S
C69 H71 0.973 . S
O70 C69 1.550 . S
O70 C76 1.412 . S
H71 C69 0.973 . S
C72 H65 0.929 . S
C72 C73 1.400 . S
C72 C74 1.364 . S
C73 C72 1.400 . S
C73 C77 1.377 . S
C74 C72 1.364 . S
C74 C75 1.374 . S
C75 H66 0.930 . S
C75 C74 1.374 . S
C75 C76 1.383 . S
C76 O70 1.412 . S
C76 C75 1.383 . S
C76 C77 1.394 . S
C77 H67 0.929 . S
C77 C73 1.377 . S
C77 C76 1.394 . S
H78 C85 0.929 . S
H79 C88 0.930 . S
H80 C90 0.929 . S
H81 C82 0.969 . S
C82 H81 0.969 . S
C82 O83 1.550 . S
C82 H84 0.973 . S
O83 C82 1.550 . S
O83 C89 1.412 . S
H84 C82 0.973 . S
C85 H78 0.929 . S
C85 C86 1.400 . S
C85 C87 1.364 . S
C86 C85 1.400 . S
C86 C90 1.377 . S
C87 C85 1.364 . S
C87 C88 1.374 . S
C88 H79 0.930 . S
C88 C87 1.374 . S
C88 C89 1.383 . S
C89 O83 1.412 . S
C89 C88 1.383 . S
C89 C90 1.394 . S
C90 H80 0.929 . S
C90 C86 1.377 . S
C90 C89 1.394 . S
H91 C98 0.929 . S
H92 C101 0.930 . S
H93 C103 0.929 . S
H94 C95 0.969 . S
C95 H94 0.969 . S
C95 O96 1.550 . S
C95 H97 0.973 . S
O96 C95 1.550 . S
O96 C102 1.412 . S
H97 C95 0.973 . S
C98 H91 0.929 . S
C98 C99 1.400 . S
C98 C100 1.364 . S
C99 C98 1.400 . S
C99 C103 1.377 . S
C100 C98 1.364 . S
C100 C101 1.374 . S
C101 H92 0.930 . S
C101 C100 1.374 . S
C101 C102 1.383 . S
C102 O96 1.412 . S
C102 C101 1.383 . S
C102 C103 1.394 . S
C103 H93 0.929 . S
C103 C99 1.377 . S
C103 C102 1.394 . S
Tb104 N133 2.617 . S
Tb104 N139 2.572 . S
Tb104 O148 2.465 . S
Tb104 O149 2.387 . S
Tb104 O151 2.428 . S
Tb104 O152 2.308 . S
Tb104 O156 2.349 . S
Tb104 O159 2.393 . S
Tb104 C168 2.802 . S
C105 N106 1.379 . S
C105 C108 1.416 . S
C105 C112 1.424 . S
N106 C105 1.379 . S
N106 C109 1.334 . S
N106 Tb115 2.617 . S
C107 C109 1.390 . S
C107 C110 1.339 . S
C107 H127 0.930 . S
C108 C105 1.416 . S
C108 C110 1.416 . S
C108 C114 1.448 . S
C109 N106 1.334 . S
C109 C107 1.390 . S
C109 H120 0.930 . S
C110 C107 1.339 . S
C110 C108 1.416 . S
C110 H131 0.930 . S
C111 C112 1.413 1_565 S
C111 C113 1.427 . S
C111 C117 1.416 . S
C112 C105 1.424 . S
C112 C111 1.413 1_545 S
C112 N116 1.361 . S
C113 C111 1.427 . S
C113 C114 1.328 1_565 S
C113 H128 0.929 . S
C114 C108 1.448 . S
C114 C113 1.328 1_545 S
C114 H129 0.930 . S
Tb115 N106 2.617 . S
Tb115 N116 2.572 . S
Tb115 O150 2.349 1_655 S
Tb115 O153 2.393 . S
Tb115 O154 2.465 . S
Tb115 O155 2.387 . S
Tb115 O157 2.428 . S
Tb115 O158 2.308 1_655 S
Tb115 C179 2.802 . S
N116 C112 1.361 . S
N116 Tb115 2.572 . S
N116 C118 1.340 1_545 S
C117 C111 1.416 . S
C117 C119 1.332 . S
C117 H125 0.931 . S
C118 N116 1.340 1_565 S
C118 C119 1.407 . S
C118 H124 0.930 . S
C119 C117 1.332 . S
C119 C118 1.407 . S
C119 H121 0.929 . S
H120 C109 0.930 . S
H121 C119 0.929 . S
H122 C137 0.930 . S
H123 C144 0.929 . S
H124 C118 0.930 . S
H125 C117 0.931 . S
H126 C140 0.930 . S
H127 C107 0.930 . S
H128 C113 0.929 . S
H129 C114 0.930 . S
H130 C135 0.930 . S
H131 C110 0.930 . S
H132 C143 0.931 . S
N133 Tb104 2.617 . S
N133 C134 1.379 . S
N133 C137 1.334 . S
C134 N133 1.379 . S
C134 C136 1.416 . S
C134 C142 1.424 . S
C135 H130 0.930 . S
C135 C137 1.390 . S
C135 C138 1.339 . S
C136 C134 1.416 . S
C136 C138 1.416 . S
C136 C169 1.448 . S
C137 H122 0.930 . S
C137 N133 1.334 . S
C137 C135 1.390 . S
C138 C135 1.339 . S
C138 C136 1.416 . S
C138 H145 0.930 . S
N139 Tb104 2.572 . S
N139 C140 1.340 . S
N139 C142 1.361 . S
C140 H126 0.930 . S
C140 N139 1.340 . S
C140 C144 1.407 . S
C141 C142 1.413 . S
C141 C143 1.416 . S
C141 C170 1.427 . S
C142 C134 1.424 . S
C142 N139 1.361 . S
C142 C141 1.413 . S
C143 H132 0.931 . S
C143 C141 1.416 . S
C143 C144 1.332 . S
C144 H123 0.929 . S
C144 C140 1.407 . S
C144 C143 1.332 . S
H145 C138 0.930 . S
H146 C169 0.930 . S
H147 C170 0.929 . S
O148 Tb104 2.465 . S
O148 C168 1.264 . S
O149 Tb104 2.387 . S
O149 C160 1.264 . S
O150 Tb115 2.349 1_455 S
O150 C160 1.243 . S
O151 Tb104 2.428 . S
O151 C168 1.256 . S
O152 Tb104 2.308 . S
O152 C167 1.266 1_455 S
O153 Tb115 2.393 . S
O153 C167 1.248 . S
O154 Tb115 2.465 . S
O154 C179 1.264 . S
O155 Tb115 2.387 . S
O155 C171 1.264 . S
O156 Tb104 2.349 . S
O156 C171 1.243 1_455 S
O157 Tb115 2.428 . S
O157 C179 1.256 . S
O158 Tb115 2.308 1_455 S
O158 C178 1.266 . S
O159 Tb104 2.393 . S
O159 C178 1.248 . S
C160 O149 1.264 . S
C160 O150 1.243 . S
C161 C164 1.399 . S
C161 C166 1.383 . S
C161 C168 1.496 . S
C162 C163 1.399 . S
C162 C166 1.389 . S
C163 C162 1.399 . S
C163 C165 1.380 . S
C163 H180 0.929 . S
C164 C161 1.399 . S
C164 C165 1.392 . S
C164 H181 0.929 . S
C165 C163 1.380 . S
C165 C164 1.392 . S
C165 H182 0.929 . S
C166 C161 1.383 . S
C166 C162 1.389 . S
C166 H183 0.931 . S
C167 O152 1.266 1_655 S
C167 O153 1.248 . S
C168 Tb104 2.802 . S
C168 O148 1.264 . S
C168 O151 1.256 . S
C168 C161 1.496 . S
C169 C136 1.448 . S
C169 H146 0.930 . S
C169 C170 1.328 . S
C170 C141 1.427 . S
C170 H147 0.929 . S
C170 C169 1.328 . S
C171 O155 1.264 . S
C171 O156 1.243 1_655 S
C172 C175 1.399 . S
C172 C176 1.383 . S
C172 C179 1.496 . S
C173 C174 1.399 . S
C173 C176 1.389 . S
C174 C173 1.399 . S
C174 C177 1.380 . S
C174 H184 0.929 . S
C175 C172 1.399 . S
C175 C177 1.392 . S
C175 H185 0.929 . S
C176 C172 1.383 . S
C176 C173 1.389 . S
C176 H186 0.931 . S
C177 C174 1.380 . S
C177 C175 1.392 . S
C177 H187 0.929 . S
C178 O158 1.266 . S
C178 O159 1.248 . S
C179 Tb115 2.802 . S
C179 O154 1.264 . S
C179 O157 1.256 . S
C179 C172 1.496 . S
H180 C163 0.929 . S
H181 C164 0.929 . S
H182 C165 0.929 . S
H183 C166 0.931 . S
H184 C174 0.929 . S
H185 C175 0.929 . S
H186 C176 0.931 . S
H187 C177 0.929 . S
Tb188 N217 2.617 . S
Tb188 N223 2.572 . S
Tb188 O232 2.465 . S
Tb188 O233 2.387 . S
Tb188 O235 2.428 . S
Tb188 O236 2.308 . S
Tb188 O240 2.349 . S
Tb188 O243 2.393 . S
Tb188 C252 2.802 . S
C189 N190 1.379 . S
C189 C192 1.416 . S
C189 C196 1.424 . S
N190 C189 1.379 . S
N190 C193 1.334 . S
N190 Tb199 2.617 . S
C191 C193 1.390 . S
C191 C194 1.339 . S
C191 H211 0.930 . S
C192 C189 1.416 . S
C192 C194 1.416 . S
C192 C198 1.448 . S
C193 N190 1.334 . S
C193 C191 1.390 . S
C193 H204 0.930 . S
C194 C191 1.339 . S
C194 C192 1.416 . S
C194 H215 0.930 . S
C195 C196 1.413 . S
C195 C197 1.427 . S
C195 C201 1.416 . S
C196 C189 1.424 . S
C196 C195 1.413 . S
C196 N200 1.361 . S
C197 C195 1.427 . S
C197 C198 1.328 . S
C197 H212 0.929 . S
C198 C192 1.448 . S
C198 C197 1.328 . S
C198 H213 0.930 . S
Tb199 N190 2.617 . S
Tb199 N200 2.572 . S
Tb199 O234 2.349 . S
Tb199 O237 2.393 . S
Tb199 O238 2.465 . S
Tb199 O239 2.387 . S
Tb199 O241 2.428 . S
Tb199 O242 2.308 . S
Tb199 C263 2.802 . S
N200 C196 1.361 . S
N200 Tb199 2.572 . S
N200 C202 1.340 . S
C201 C195 1.416 . S
C201 C203 1.332 . S
C201 H209 0.931 . S
C202 N200 1.340 . S
C202 C203 1.407 . S
C202 H208 0.930 . S
C203 C201 1.332 . S
C203 C202 1.407 . S
C203 H205 0.929 . S
H204 C193 0.930 . S
H205 C203 0.929 . S
H206 C221 0.930 . S
H207 C228 0.929 . S
H208 C202 0.930 . S
H209 C201 0.931 . S
H210 C224 0.930 . S
H211 C191 0.930 . S
H212 C197 0.929 . S
H213 C198 0.930 . S
H214 C219 0.930 . S
H215 C194 0.930 . S
H216 C227 0.931 . S
N217 Tb188 2.617 . S
N217 C218 1.379 . S
N217 C221 1.334 . S
C218 N217 1.379 . S
C218 C220 1.416 . S
C218 C226 1.424 . S
C219 H214 0.930 . S
C219 C221 1.390 . S
C219 C222 1.339 . S
C220 C218 1.416 . S
C220 C222 1.416 . S
C220 C253 1.448 . S
C221 H206 0.930 . S
C221 N217 1.334 . S
C221 C219 1.390 . S
C222 C219 1.339 . S
C222 C220 1.416 . S
C222 H229 0.930 . S
N223 Tb188 2.572 . S
N223 C224 1.340 . S
N223 C226 1.361 . S
C224 H210 0.930 . S
C224 N223 1.340 . S
C224 C228 1.407 . S
C225 C226 1.413 . S
C225 C227 1.416 . S
C225 C254 1.427 . S
C226 C218 1.424 . S
C226 N223 1.361 . S
C226 C225 1.413 . S
C227 H216 0.931 . S
C227 C225 1.416 . S
C227 C228 1.332 . S
C228 H207 0.929 . S
C228 C224 1.407 . S
C228 C227 1.332 . S
H229 C222 0.930 . S
H230 C253 0.930 . S
H231 C254 0.929 . S
O232 Tb188 2.465 . S
O232 C252 1.264 . S
O233 Tb188 2.387 . S
O233 C244 1.264 . S
O234 Tb199 2.349 . S
O234 C244 1.243 . S
O235 Tb188 2.428 . S
O235 C252 1.256 . S
O236 Tb188 2.308 . S
O236 C251 1.266 . S
O237 Tb199 2.393 . S
O237 C251 1.248 . S
O238 Tb199 2.465 . S
O238 C263 1.264 . S
O239 Tb199 2.387 . S
O239 C255 1.264 . S
O240 Tb188 2.349 . S
O240 C255 1.243 . S
O241 Tb199 2.428 . S
O241 C263 1.256 . S
O242 Tb199 2.308 . S
O242 C262 1.266 . S
O243 Tb188 2.393 . S
O243 C262 1.248 . S
C244 O233 1.264 . S
C244 O234 1.243 . S
C245 C248 1.399 . S
C245 C250 1.383 . S
C245 C252 1.496 . S
C246 C247 1.399 . S
C246 C250 1.389 . S
C247 C246 1.399 . S
C247 C249 1.380 . S
C247 H264 0.929 . S
C248 C245 1.399 . S
C248 C249 1.392 . S
C248 H265 0.929 . S
C249 C247 1.380 . S
C249 C248 1.392 . S
C249 H266 0.929 . S
C250 C245 1.383 . S
C250 C246 1.389 . S
C250 H267 0.931 . S
C251 O236 1.266 . S
C251 O237 1.248 . S
C252 Tb188 2.802 . S
C252 O232 1.264 . S
C252 O235 1.256 . S
C252 C245 1.496 . S
C253 C220 1.448 . S
C253 H230 0.930 . S
C253 C254 1.328 . S
C254 C225 1.427 . S
C254 H231 0.929 . S
C254 C253 1.328 . S
C255 O239 1.264 . S
C255 O240 1.243 . S
C256 C259 1.399 . S
C256 C260 1.383 . S
C256 C263 1.496 . S
C257 C258 1.399 . S
C257 C260 1.389 . S
C258 C257 1.399 . S
C258 C261 1.380 . S
C258 H268 0.929 . S
C259 C256 1.399 . S
C259 C261 1.392 . S
C259 H269 0.929 . S
C260 C256 1.383 . S
C260 C257 1.389 . S
C260 H270 0.931 . S
C261 C258 1.380 . S
C261 C259 1.392 . S
C261 H271 0.929 . S
C262 O242 1.266 . S
C262 O243 1.248 . S
C263 Tb199 2.802 . S
C263 O238 1.264 . S
C263 O241 1.256 . S
C263 C256 1.496 . S
H264 C247 0.929 . S
H265 C248 0.929 . S
H266 C249 0.929 . S
H267 C250 0.931 . S
H268 C258 0.929 . S
H269 C259 0.929 . S
H270 C260 0.931 . S
H271 C261 0.929 . S
Tb272 N301 2.617 . S
Tb272 N307 2.572 . S
Tb272 O316 2.465 . S
Tb272 O317 2.387 . S
Tb272 O319 2.428 . S
Tb272 O320 2.308 . S
Tb272 O324 2.349 . S
Tb272 O327 2.393 . S
Tb272 C336 2.802 . S
C273 N274 1.379 . S
C273 C276 1.416 . S
C273 C280 1.424 . S
N274 C273 1.379 . S
N274 C277 1.334 . S
N274 Tb283 2.617 . S
C275 C277 1.390 . S
C275 C278 1.339 . S
C275 H295 0.930 . S
C276 C273 1.416 . S
C276 C278 1.416 . S
C276 C282 1.448 . S
C277 N274 1.334 . S
C277 C275 1.390 . S
C277 H288 0.930 . S
C278 C275 1.339 . S
C278 C276 1.416 . S
C278 H299 0.930 . S
C279 C280 1.413 . S
C279 C281 1.427 . S
C279 C285 1.416 . S
C280 C273 1.424 . S
C280 C279 1.413 . S
C280 N284 1.361 . S
C281 C279 1.427 . S
C281 C282 1.328 . S
C281 H296 0.929 . S
C282 C276 1.448 . S
C282 C281 1.328 . S
C282 H297 0.930 . S
Tb283 N274 2.617 . S
Tb283 N284 2.572 . S
Tb283 O318 2.349 1_655 S
Tb283 O321 2.393 . S
Tb283 O322 2.465 . S
Tb283 O323 2.387 . S
Tb283 O325 2.428 . S
Tb283 O326 2.308 1_655 S
Tb283 C347 2.802 . S
N284 C280 1.361 . S
N284 Tb283 2.572 . S
N284 C286 1.340 . S
C285 C279 1.416 . S
C285 C287 1.332 . S
C285 H293 0.931 . S
C286 N284 1.340 . S
C286 C287 1.407 . S
C286 H292 0.930 . S
C287 C285 1.332 . S
C287 C286 1.407 . S
C287 H289 0.929 . S
H288 C277 0.930 . S
H289 C287 0.929 . S
H290 C305 0.930 . S
H291 C312 0.929 . S
H292 C286 0.930 . S
H293 C285 0.931 . S
H294 C308 0.930 . S
H295 C275 0.930 . S
H296 C281 0.929 . S
H297 C282 0.930 . S
H298 C303 0.930 . S
H299 C278 0.930 . S
H300 C311 0.931 . S
N301 Tb272 2.617 . S
N301 C302 1.379 . S
N301 C305 1.334 . S
C302 N301 1.379 . S
C302 C304 1.416 . S
C302 C310 1.424 . S
C303 H298 0.930 . S
C303 C305 1.390 . S
C303 C306 1.339 . S
C304 C302 1.416 . S
C304 C306 1.416 . S
C304 C337 1.448 . S
C305 H290 0.930 . S
C305 N301 1.334 . S
C305 C303 1.390 . S
C306 C303 1.339 . S
C306 C304 1.416 . S
C306 H313 0.930 . S
N307 Tb272 2.572 . S
N307 C308 1.340 1_565 S
N307 C310 1.361 . S
C308 H294 0.930 . S
C308 N307 1.340 1_545 S
C308 C312 1.407 . S
C309 C310 1.413 1_545 S
C309 C311 1.416 . S
C309 C338 1.427 . S
C310 C302 1.424 . S
C310 N307 1.361 . S
C310 C309 1.413 1_565 S
C311 H300 0.931 . S
C311 C309 1.416 . S
C311 C312 1.332 . S
C312 H291 0.929 . S
C312 C308 1.407 . S
C312 C311 1.332 . S
H313 C306 0.930 . S
H314 C337 0.930 . S
H315 C338 0.929 . S
O316 Tb272 2.465 . S
O316 C336 1.264 . S
O317 Tb272 2.387 . S
O317 C328 1.264 . S
O318 Tb283 2.349 1_455 S
O318 C328 1.243 . S
O319 Tb272 2.428 . S
O319 C336 1.256 . S
O320 Tb272 2.308 . S
O320 C335 1.266 1_455 S
O321 Tb283 2.393 . S
O321 C335 1.248 . S
O322 Tb283 2.465 . S
O322 C347 1.264 . S
O323 Tb283 2.387 . S
O323 C339 1.264 . S
O324 Tb272 2.349 . S
O324 C339 1.243 1_455 S
O325 Tb283 2.428 . S
O325 C347 1.256 . S
O326 Tb283 2.308 1_455 S
O326 C346 1.266 . S
O327 Tb272 2.393 . S
O327 C346 1.248 . S
C328 O317 1.264 . S
C328 O318 1.243 . S
C329 C332 1.399 . S
C329 C334 1.383 . S
C329 C336 1.496 . S
C330 C331 1.399 . S
C330 C334 1.389 . S
C331 C330 1.399 . S
C331 C333 1.380 . S
C331 H348 0.929 . S
C332 C329 1.399 . S
C332 C333 1.392 . S
C332 H349 0.929 . S
C333 C331 1.380 . S
C333 C332 1.392 . S
C333 H350 0.929 . S
C334 C329 1.383 . S
C334 C330 1.389 . S
C334 H351 0.931 . S
C335 O320 1.266 1_655 S
C335 O321 1.248 . S
C336 Tb272 2.802 . S
C336 O316 1.264 . S
C336 O319 1.256 . S
C336 C329 1.496 . S
C337 C304 1.448 . S
C337 H314 0.930 . S
C337 C338 1.328 1_565 S
C338 C309 1.427 . S
C338 H315 0.929 . S
C338 C337 1.328 1_545 S
C339 O323 1.264 . S
C339 O324 1.243 1_655 S
C340 C343 1.399 . S
C340 C344 1.383 . S
C340 C347 1.496 . S
C341 C342 1.399 . S
C341 C344 1.389 . S
C342 C341 1.399 . S
C342 C345 1.380 . S
C342 H352 0.929 . S
C343 C340 1.399 . S
C343 C345 1.392 . S
C343 H353 0.929 . S
C344 C340 1.383 . S
C344 C341 1.389 . S
C344 H354 0.931 . S
C345 C342 1.380 . S
C345 C343 1.392 . S
C345 H355 0.929 . S
C346 O326 1.266 . S
C346 O327 1.248 . S
C347 Tb283 2.802 . S
C347 O322 1.264 . S
C347 O325 1.256 . S
C347 C340 1.496 . S
H348 C331 0.929 . S
H349 C332 0.929 . S
H350 C333 0.929 . S
H351 C334 0.931 . S
H352 C342 0.929 . S
H353 C343 0.929 . S
H354 C344 0.931 . S
H355 C345 0.929 . S
Tb356 N385 2.617 . S
Tb356 N391 2.572 . S
Tb356 O400 2.465 . S
Tb356 O401 2.387 . S
Tb356 O403 2.428 . S
Tb356 O404 2.308 . S
Tb356 O408 2.349 . S
Tb356 O411 2.393 . S
Tb356 C420 2.802 . S
C357 N358 1.379 . S
C357 C360 1.416 . S
C357 C364 1.424 . S
N358 C357 1.379 . S
N358 C361 1.334 . S
N358 Tb367 2.617 . S
C359 C361 1.390 . S
C359 C362 1.339 . S
C359 H379 0.930 . S
C360 C357 1.416 . S
C360 C362 1.416 . S
C360 C366 1.448 . S
C361 N358 1.334 . S
C361 C359 1.390 . S
C361 H372 0.930 . S
C362 C359 1.339 . S
C362 C360 1.416 . S
C362 H383 0.930 . S
C363 C364 1.413 . S
C363 C365 1.427 . S
C363 C369 1.416 . S
C364 C357 1.424 . S
C364 C363 1.413 . S
C364 N368 1.361 . S
C365 C363 1.427 . S
C365 C366 1.328 . S
C365 H380 0.929 . S
C366 C360 1.448 . S
C366 C365 1.328 . S
C366 H381 0.930 . S
Tb367 N358 2.617 . S
Tb367 N368 2.572 . S
Tb367 O402 2.349 . S
Tb367 O405 2.393 . S
Tb367 O406 2.465 . S
Tb367 O407 2.387 . S
Tb367 O409 2.428 . S
Tb367 O410 2.308 . S
Tb367 C431 2.802 . S
N368 C364 1.361 . S
N368 Tb367 2.572 . S
N368 C370 1.340 . S
C369 C363 1.416 . S
C369 C371 1.332 . S
C369 H377 0.931 . S
C370 N368 1.340 . S
C370 C371 1.407 . S
C370 H376 0.930 . S
C371 C369 1.332 . S
C371 C370 1.407 . S
C371 H373 0.929 . S
H372 C361 0.930 . S
H373 C371 0.929 . S
H374 C389 0.930 . S
H375 C396 0.929 . S
H376 C370 0.930 . S
H377 C369 0.931 . S
H378 C392 0.930 . S
H379 C359 0.930 . S
H380 C365 0.929 . S
H381 C366 0.930 . S
H382 C387 0.930 . S
H383 C362 0.930 . S
H384 C395 0.931 . S
N385 Tb356 2.617 . S
N385 C386 1.379 . S
N385 C389 1.334 . S
C386 N385 1.379 . S
C386 C388 1.416 . S
C386 C394 1.424 . S
C387 H382 0.930 . S
C387 C389 1.390 . S
C387 C390 1.339 . S
C388 C386 1.416 . S
C388 C390 1.416 . S
C388 C421 1.448 . S
C389 H374 0.930 . S
C389 N385 1.334 . S
C389 C387 1.390 . S
C390 C387 1.339 . S
C390 C388 1.416 . S
C390 H397 0.930 . S
N391 Tb356 2.572 . S
N391 C392 1.340 . S
N391 C394 1.361 . S
C392 H378 0.930 . S
C392 N391 1.340 . S
C392 C396 1.407 . S
C393 C394 1.413 . S
C393 C395 1.416 . S
C393 C422 1.427 . S
C394 C386 1.424 . S
C394 N391 1.361 . S
C394 C393 1.413 . S
C395 H384 0.931 . S
C395 C393 1.416 . S
C395 C396 1.332 . S
C396 H375 0.929 . S
C396 C392 1.407 . S
C396 C395 1.332 . S
H397 C390 0.930 . S
H398 C421 0.930 . S
H399 C422 0.929 . S
O400 Tb356 2.465 . S
O400 C420 1.264 . S
O401 Tb356 2.387 . S
O401 C412 1.264 . S
O402 Tb367 2.349 . S
O402 C412 1.243 . S
O403 Tb356 2.428 . S
O403 C420 1.256 . S
O404 Tb356 2.308 . S
O404 C419 1.266 . S
O405 Tb367 2.393 . S
O405 C419 1.248 . S
O406 Tb367 2.465 . S
O406 C431 1.264 . S
O407 Tb367 2.387 . S
O407 C423 1.264 . S
O408 Tb356 2.349 . S
O408 C423 1.243 . S
O409 Tb367 2.428 . S
O409 C431 1.256 . S
O410 Tb367 2.308 . S
O410 C430 1.266 . S
O411 Tb356 2.393 . S
O411 C430 1.248 . S
C412 O401 1.264 . S
C412 O402 1.243 . S
C413 C416 1.399 . S
C413 C418 1.383 . S
C413 C420 1.496 . S
C414 C415 1.399 . S
C414 C418 1.389 . S
C415 C414 1.399 . S
C415 C417 1.380 . S
C415 H432 0.929 . S
C416 C413 1.399 . S
C416 C417 1.392 . S
C416 H433 0.929 . S
C417 C415 1.380 . S
C417 C416 1.392 . S
C417 H434 0.929 . S
C418 C413 1.383 . S
C418 C414 1.389 . S
C418 H435 0.931 . S
C419 O404 1.266 . S
C419 O405 1.248 . S
C420 Tb356 2.802 . S
C420 O400 1.264 . S
C420 O403 1.256 . S
C420 C413 1.496 . S
C421 C388 1.448 . S
C421 H398 0.930 . S
C421 C422 1.328 . S
C422 C393 1.427 . S
C422 H399 0.929 . S
C422 C421 1.328 . S
C423 O407 1.264 . S
C423 O408 1.243 . S
C424 C427 1.399 . S
C424 C428 1.383 . S
C424 C431 1.496 . S
C425 C426 1.399 . S
C425 C428 1.389 . S
C426 C425 1.399 . S
C426 C429 1.380 . S
C426 H436 0.929 . S
C427 C424 1.399 . S
C427 C429 1.392 . S
C427 H437 0.929 . S
C428 C424 1.383 . S
C428 C425 1.389 . S
C428 H438 0.931 . S
C429 C426 1.380 . S
C429 C427 1.392 . S
C429 H439 0.929 . S
C430 O410 1.266 . S
C430 O411 1.248 . S
C431 Tb367 2.802 . S
C431 O406 1.264 . S
C431 O409 1.256 . S
C431 C424 1.496 . S
H432 C415 0.929 . S
H433 C416 0.929 . S
H434 C417 0.929 . S
H435 C418 0.931 . S
H436 C426 0.929 . S
H437 C427 0.929 . S
H438 C428 0.931 . S
H439 C429 0.929 . S
C440 C441 1.363 . S
C440 C446 1.379 . S
C440 N448 1.356 . S
C441 C440 1.363 . S
C441 C447 1.363 . S
C442 C443 1.363 . S
C442 C447 1.379 1_545 S
C442 N449 1.356 . S
C443 C442 1.363 . S
C443 C446 1.363 1_545 S
N444 C446 1.356 . S
N444 H456 0.984 . S
N444 H457 0.985 . S
N445 C447 1.356 . S
N445 H450 0.984 . S
N445 H451 0.985 1_565 S
C446 C440 1.379 . S
C446 C443 1.363 1_565 S
C446 N444 1.356 . S
C447 C441 1.363 . S
C447 C442 1.379 1_565 S
C447 N445 1.356 . S
N448 C440 1.356 . S
N448 H454 0.984 . S
N448 H455 0.984 . S
N449 C442 1.356 . S
N449 H452 0.984 . S
N449 H453 0.985 . S
H450 N445 0.984 . S
H451 N445 0.985 1_545 S
H452 N449 0.984 . S
H453 N449 0.985 . S
H454 N448 0.984 . S
H455 N448 0.984 . S
H456 N444 0.984 . S
H457 N444 0.985 . S
C458 C459 1.363 . S
C458 C464 1.379 . S
C458 N466 1.356 . S
C459 C458 1.363 . S
C459 C465 1.363 . S
C460 C461 1.363 . S
C460 C465 1.379 . S
C460 N467 1.356 . S
C461 C460 1.363 . S
C461 C464 1.363 . S
N462 C464 1.356 . S
N462 H474 0.984 . S
N462 H475 0.985 . S
N463 C465 1.356 . S
N463 H468 0.984 . S
N463 H469 0.985 . S
C464 C458 1.379 . S
C464 C461 1.363 . S
C464 N462 1.356 . S
C465 C459 1.363 . S
C465 C460 1.379 . S
C465 N463 1.356 . S
N466 C458 1.356 . S
N466 H472 0.984 . S
N466 H473 0.984 . S
N467 C460 1.356 . S
N467 H470 0.984 . S
N467 H471 0.985 . S
H468 N463 0.984 . S
H469 N463 0.985 . S
H470 N467 0.984 . S
H471 N467 0.985 . S
H472 N466 0.984 . S
H473 N466 0.984 . S
H474 N462 0.984 . S
H475 N462 0.985 . S
C476 C477 1.363 . S
C476 C482 1.379 . S
C476 N484 1.356 . S
C477 C476 1.363 . S
C477 C483 1.363 . S
C478 C479 1.363 . S
C478 C483 1.379 . S
C478 N485 1.356 . S
C479 C478 1.363 . S
C479 C482 1.363 . S
N480 C482 1.356 . S
N480 H492 0.984 . S
N480 H493 0.985 . S
N481 C483 1.356 . S
N481 H486 0.984 . S
N481 H487 0.985 . S
C482 C476 1.379 . S
C482 C479 1.363 . S
C482 N480 1.356 . S
C483 C477 1.363 . S
C483 C478 1.379 . S
C483 N481 1.356 . S
N484 C476 1.356 . S
N484 H490 0.984 . S
N484 H491 0.984 . S
N485 C478 1.356 . S
N485 H488 0.984 . S
N485 H489 0.985 . S
H486 N481 0.984 . S
H487 N481 0.985 . S
H488 N485 0.984 . S
H489 N485 0.985 . S
H490 N484 0.984 . S
H491 N484 0.984 . S
H492 N480 0.984 . S
H493 N480 0.985 . S
C494 C495 1.363 . S
C494 C500 1.379 1_565 S
C494 N502 1.356 . S
C495 C494 1.363 . S
C495 C501 1.363 . S
C496 C497 1.363 1_565 S
C496 C501 1.379 . S
C496 N503 1.356 1_655 S
C497 C496 1.363 1_545 S
C497 C500 1.363 . S
N498 C500 1.356 . S
N498 H510 0.984 . S
N498 H511 0.985 . S
N499 C501 1.356 . S
N499 H504 0.984 . S
N499 H505 0.985 . S
C500 C494 1.379 1_545 S
C500 C497 1.363 . S
C500 N498 1.356 . S
C501 C495 1.363 . S
C501 C496 1.379 . S
C501 N499 1.356 . S
N502 C494 1.356 . S
N502 H508 0.984 . S
N502 H509 0.984 . S
N503 C496 1.356 1_455 S
N503 H506 0.984 . S
N503 H507 0.985 . S
H504 N499 0.984 . S
H505 N499 0.985 . S
H506 N503 0.984 . S
H507 N503 0.985 . S
H508 N502 0.984 . S
H509 N502 0.984 . S
H510 N498 0.984 . S
H511 N498 0.985 . S
C512 C513 1.363 . S
C512 C518 1.379 . S
C512 N520 1.356 . S
C513 C512 1.363 . S
C513 C519 1.363 . S
C514 C515 1.363 . S
C514 C519 1.379 1_565 S
C514 N521 1.356 . S
C515 C514 1.363 . S
C515 C518 1.363 1_565 S
N516 C518 1.356 . S
N516 H528 0.984 . S
N516 H529 0.985 . S
N517 C519 1.356 . S
N517 H522 0.984 . S
N517 H523 0.985 . S
C518 C512 1.379 . S
C518 C515 1.363 1_545 S
C518 N516 1.356 . S
C519 C513 1.363 . S
C519 C514 1.379 1_545 S
C519 N517 1.356 . S
N520 C512 1.356 . S
N520 H526 0.984 . S
N520 H527 0.984 . S
N521 C514 1.356 . S
N521 H524 0.984 . S
N521 H525 0.985 . S
H522 N517 0.984 . S
H523 N517 0.985 . S
H524 N521 0.984 . S
H525 N521 0.985 . S
H526 N520 0.984 . S
H527 N520 0.984 . S
H528 N516 0.984 . S
H529 N516 0.985 . S
C530 C531 1.363 . S
C530 C536 1.379 . S
C530 N538 1.356 . S
C531 C530 1.363 . S
C531 C537 1.363 . S
C532 C533 1.363 . S
C532 C537 1.379 . S
C532 N539 1.356 . S
C533 C532 1.363 . S
C533 C536 1.363 . S
N534 C536 1.356 . S
N534 H546 0.984 . S
N534 H547 0.985 . S
N535 C537 1.356 . S
N535 H540 0.984 . S
N535 H541 0.985 . S
C536 C530 1.379 . S
C536 C533 1.363 . S
C536 N534 1.356 . S
C537 C531 1.363 . S
C537 C532 1.379 . S
C537 N535 1.356 . S
N538 C530 1.356 . S
N538 H544 0.984 . S
N538 H545 0.984 . S
N539 C532 1.356 . S
N539 H542 0.984 . S
N539 H543 0.985 . S
H540 N535 0.984 . S
H541 N535 0.985 . S
H542 N539 0.984 . S
H543 N539 0.985 . S
H544 N538 0.984 . S
H545 N538 0.984 . S
H546 N534 0.984 . S
H547 N534 0.985 . S
C548 C549 1.363 . S
C548 C554 1.379 . S
C548 N556 1.356 . S
C549 C548 1.363 . S
C549 C555 1.363 . S
C550 C551 1.363 . S
C550 C555 1.379 . S
C550 N557 1.356 . S
C551 C550 1.363 . S
C551 C554 1.363 . S
N552 C554 1.356 . S
N552 H564 0.984 . S
N552 H565 0.985 . S
N553 C555 1.356 . S
N553 H558 0.984 . S
N553 H559 0.985 . S
C554 C548 1.379 . S
C554 C551 1.363 . S
C554 N552 1.356 . S
C555 C549 1.363 . S
C555 C550 1.379 . S
C555 N553 1.356 . S
N556 C548 1.356 . S
N556 H562 0.984 . S
N556 H563 0.984 . S
N557 C550 1.356 . S
N557 H560 0.984 . S
N557 H561 0.985 . S
H558 N553 0.984 . S
H559 N553 0.985 . S
H560 N557 0.984 . S
H561 N557 0.985 . S
H562 N556 0.984 . S
H563 N556 0.984 . S
H564 N552 0.984 . S
H565 N552 0.985 . S
C566 C567 1.363 . S
C566 C572 1.379 . S
C566 N574 1.356 . S
C567 C566 1.363 . S
C567 C573 1.363 . S
C568 C569 1.363 . S
C568 C573 1.379 1_565 S
C568 N575 1.356 . S
C569 C568 1.363 . S
C569 C572 1.363 1_565 S
N570 C572 1.356 . S
N570 H582 0.984 . S
N570 H583 0.985 . S
N571 C573 1.356 . S
N571 H576 0.984 . S
N571 H577 0.985 1_545 S
C572 C566 1.379 . S
C572 C569 1.363 1_545 S
C572 N570 1.356 . S
C573 C567 1.363 . S
C573 C568 1.379 1_545 S
C573 N571 1.356 . S
N574 C566 1.356 . S
N574 H580 0.984 . S
N574 H581 0.984 . S
N575 C568 1.356 . S
N575 H578 0.984 . S
N575 H579 0.985 . S
H576 N571 0.984 . S
H577 N571 0.985 1_565 S
H578 N575 0.984 . S
H579 N575 0.985 . S
H580 N574 0.984 . S
H581 N574 0.984 . S
H582 N570 0.984 . S
H583 N570 0.985 . S
C584 C585 1.363 . S
C584 C590 1.379 . S
C584 N592 1.356 . S
C585 C584 1.363 . S
C585 C591 1.363 . S
C586 C587 1.363 . S
C586 C591 1.379 1_554 S
C586 N593 1.356 . S
C587 C586 1.363 . S
C587 C590 1.363 1_554 S
N588 C590 1.356 1_554 S
N588 H600 0.984 1_554 S
N588 H601 0.985 . S
N589 C591 1.356 . S
N589 H594 0.984 . S
N589 H595 0.985 . S
C590 C584 1.379 . S
C590 C587 1.363 1_556 S
C590 N588 1.356 1_556 S
C591 C585 1.363 . S
C591 C586 1.379 1_556 S
C591 N589 1.356 . S
N592 C584 1.356 . S
N592 H598 0.984 . S
N592 H599 0.984 . S
N593 C586 1.356 . S
N593 H596 0.984 . S
N593 H597 0.985 . S
H594 N589 0.984 . S
H595 N589 0.985 . S
H596 N593 0.984 . S
H597 N593 0.985 . S
H598 N592 0.984 . S
H599 N592 0.984 . S
H600 N588 0.984 1_556 S
H601 N588 0.985 . S
C602 C603 1.363 . S
C602 C608 1.379 . S
C602 N610 1.356 . S
C603 C602 1.363 . S
C603 C609 1.363 . S
C604 C605 1.363 . S
C604 C609 1.379 . S
C604 N611 1.356 . S
C605 C604 1.363 . S
C605 C608 1.363 . S
N606 C608 1.356 . S
N606 H618 0.984 . S
N606 H619 0.985 . S
N607 C609 1.356 . S
N607 H612 0.984 . S
N607 H613 0.985 . S
C608 C602 1.379 . S
C608 C605 1.363 . S
C608 N606 1.356 . S
C609 C603 1.363 . S
C609 C604 1.379 . S
C609 N607 1.356 . S
N610 C602 1.356 . S
N610 H616 0.984 . S
N610 H617 0.984 . S
N611 C604 1.356 . S
N611 H614 0.984 . S
N611 H615 0.985 . S
H612 N607 0.984 . S
H613 N607 0.985 . S
H614 N611 0.984 . S
H615 N611 0.985 . S
H616 N610 0.984 . S
H617 N610 0.984 . S
H618 N606 0.984 . S
H619 N606 0.985 . S
C620 C621 1.363 . S
C620 C626 1.379 . S
C620 N628 1.356 . S
C621 C620 1.363 . S
C621 C627 1.363 . S
C622 C623 1.363 . S
C622 C627 1.379 1_556 S
C622 N629 1.356 . S
C623 C622 1.363 . S
C623 C626 1.363 1_556 S
N624 C626 1.356 1_556 S
N624 H636 0.984 1_556 S
N624 H637 0.985 . S
N625 C627 1.356 . S
N625 H630 0.984 . S
N625 H631 0.985 . S
C626 C620 1.379 . S
C626 C623 1.363 1_554 S
C626 N624 1.356 1_554 S
C627 C621 1.363 . S
C627 C622 1.379 1_554 S
C627 N625 1.356 . S
N628 C620 1.356 . S
N628 H634 0.984 . S
N628 H635 0.984 . S
N629 C622 1.356 . S
N629 H632 0.984 . S
N629 H633 0.985 . S
H630 N625 0.984 . S
H631 N625 0.985 . S
H632 N629 0.984 . S
H633 N629 0.985 . S
H634 N628 0.984 . S
H635 N628 0.984 . S
H636 N624 0.984 1_554 S
H637 N624 0.985 . S
C638 C639 1.363 . S
C638 C644 1.379 . S
C638 N646 1.356 . S
C639 C638 1.363 . S
C639 C645 1.363 . S
C640 C641 1.363 . S
C640 C645 1.379 . S
C640 N647 1.356 . S
C641 C640 1.363 . S
C641 C644 1.363 . S
N642 C644 1.356 . S
N642 H654 0.984 . S
N642 H655 0.985 . S
N643 C645 1.356 . S
N643 H648 0.984 . S
N643 H649 0.985 . S
C644 C638 1.379 . S
C644 C641 1.363 . S
C644 N642 1.356 . S
C645 C639 1.363 . S
C645 C640 1.379 . S
C645 N643 1.356 . S
N646 C638 1.356 . S
N646 H652 0.984 . S
N646 H653 0.984 . S
N647 C640 1.356 . S
N647 H650 0.984 . S
N647 H651 0.985 . S
H648 N643 0.984 . S
H649 N643 0.985 . S
H650 N647 0.984 . S
H651 N647 0.985 . S
H652 N646 0.984 . S
H653 N646 0.984 . S
H654 N642 0.984 . S
H655 N642 0.985 . S
C656 C657 1.363 . S
C656 C662 1.379 1_554 S
C656 N664 1.356 . S
C657 C656 1.363 . S
C657 C663 1.363 . S
C658 C659 1.363 . S
C658 C663 1.379 1_556 S
C658 N665 1.356 . S
C659 C658 1.363 . S
C659 C662 1.363 . S
N660 C662 1.356 . S
N660 H672 0.984 . S
N660 H673 0.985 . S
N661 C663 1.356 . S
N661 H666 0.984 . S
N661 H667 0.985 . S
C662 C656 1.379 1_556 S
C662 C659 1.363 . S
C662 N660 1.356 . S
C663 C657 1.363 . S
C663 C658 1.379 1_554 S
C663 N661 1.356 . S
N664 C656 1.356 . S
N664 H670 0.984 . S
N664 H671 0.984 . S
N665 C658 1.356 . S
N665 H668 0.984 . S
N665 H669 0.985 . S
H666 N661 0.984 . S
H667 N661 0.985 . S
H668 N665 0.984 . S
H669 N665 0.985 . S
H670 N664 0.984 . S
H671 N664 0.984 . S
H672 N660 0.984 . S
H673 N660 0.985 . S
C674 C675 1.363 . S
C674 C680 1.379 . S
C674 N682 1.356 . S
C675 C674 1.363 . S
C675 C681 1.363 . S
C676 C677 1.363 . S
C676 C681 1.379 . S
C676 N683 1.356 . S
C677 C676 1.363 . S
C677 C680 1.363 . S
N678 C680 1.356 . S
N678 H690 0.984 . S
N678 H691 0.985 . S
N679 C681 1.356 . S
N679 H684 0.984 . S
N679 H685 0.985 . S
C680 C674 1.379 . S
C680 C677 1.363 . S
C680 N678 1.356 . S
C681 C675 1.363 . S
C681 C676 1.379 . S
C681 N679 1.356 . S
N682 C674 1.356 . S
N682 H688 0.984 . S
N682 H689 0.984 . S
N683 C676 1.356 . S
N683 H686 0.984 . S
N683 H687 0.985 . S
H684 N679 0.984 . S
H685 N679 0.985 . S
H686 N683 0.984 . S
H687 N683 0.985 . S
H688 N682 0.984 . S
H689 N682 0.984 . S
H690 N678 0.984 . S
H691 N678 0.985 . S
C692 C693 1.363 . S
C692 C698 1.379 1_556 S
C692 N700 1.356 . S
C693 C692 1.363 . S
C693 C699 1.363 . S
C694 C695 1.363 . S
C694 C699 1.379 1_554 S
C694 N701 1.356 . S
C695 C694 1.363 . S
C695 C698 1.363 . S
N696 C698 1.356 . S
N696 H708 0.984 . S
N696 H709 0.985 . S
N697 C699 1.356 . S
N697 H702 0.984 . S
N697 H703 0.985 . S
C698 C692 1.379 1_554 S
C698 C695 1.363 . S
C698 N696 1.356 . S
C699 C693 1.363 . S
C699 C694 1.379 1_556 S
C699 N697 1.356 . S
N700 C692 1.356 . S
N700 H706 0.984 . S
N700 H707 0.984 . S
N701 C694 1.356 . S
N701 H704 0.984 . S
N701 H705 0.985 . S
H702 N697 0.984 . S
H703 N697 0.985 . S
H704 N701 0.984 . S
H705 N701 0.985 . S
H706 N700 0.984 . S
H707 N700 0.984 . S
H708 N696 0.984 . S
H709 N696 0.985 . S
C710 C711 1.363 . S
C710 C716 1.379 . S
C710 N718 1.356 . S
C711 C710 1.363 . S
C711 C717 1.363 . S
C712 C713 1.363 . S
C712 C717 1.379 . S
C712 N719 1.356 . S
C713 C712 1.363 . S
C713 C716 1.363 . S
N714 C716 1.356 . S
N714 H726 0.984 . S
N714 H727 0.985 . S
N715 C717 1.356 . S
N715 H720 0.984 . S
N715 H721 0.985 . S
C716 C710 1.379 . S
C716 C713 1.363 . S
C716 N714 1.356 . S
C717 C711 1.363 . S
C717 C712 1.379 . S
C717 N715 1.356 . S
N718 C710 1.356 . S
N718 H724 0.984 . S
N718 H725 0.984 . S
N719 C712 1.356 . S
N719 H722 0.984 . S
N719 H723 0.985 . S
H720 N715 0.984 . S
H721 N715 0.985 . S
H722 N719 0.984 . S
H723 N719 0.985 . S
H724 N718 0.984 . S
H725 N718 0.984 . S
H726 N714 0.984 . S
H727 N714 0.985 . S
C728 C729 1.363 . S
C728 C734 1.379 . S
C728 N736 1.356 . S
C729 C728 1.363 . S
C729 C735 1.363 . S
C730 C731 1.363 . S
C730 C735 1.379 . S
C730 N737 1.356 . S
C731 C730 1.363 . S
C731 C734 1.363 . S
N732 C734 1.356 . S
N732 H744 0.984 . S
N732 H745 0.985 . S
N733 C735 1.356 . S
N733 H738 0.984 . S
N733 H739 0.985 . S
C734 C728 1.379 . S
C734 C731 1.363 . S
C734 N732 1.356 . S
C735 C729 1.363 . S
C735 C730 1.379 . S
C735 N733 1.356 . S
N736 C728 1.356 . S
N736 H742 0.984 . S
N736 H743 0.984 . S
N737 C730 1.356 . S
N737 H740 0.984 . S
N737 H741 0.985 1_455 S
H738 N733 0.984 . S
H739 N733 0.985 . S
H740 N737 0.984 . S
H741 N737 0.985 1_655 S
H742 N736 0.984 . S
H743 N736 0.984 . S
H744 N732 0.984 . S
H745 N732 0.985 . S
C746 C747 1.363 . S
C746 C752 1.379 . S
C746 N754 1.356 . S
C747 C746 1.363 . S
C747 C753 1.363 . S
C748 C749 1.363 . S
C748 C753 1.379 . S
C748 N755 1.356 . S
C749 C748 1.363 . S
C749 C752 1.363 . S
N750 C752 1.356 . S
N750 H762 0.984 . S
N750 H763 0.985 . S
N751 C753 1.356 . S
N751 H756 0.984 . S
N751 H757 0.985 . S
C752 C746 1.379 . S
C752 C749 1.363 . S
C752 N750 1.356 . S
C753 C747 1.363 . S
C753 C748 1.379 . S
C753 N751 1.356 . S
N754 C746 1.356 . S
N754 H760 0.984 . S
N754 H761 0.984 . S
N755 C748 1.356 . S
N755 H758 0.984 . S
N755 H759 0.985 . S
H756 N751 0.984 . S
H757 N751 0.985 . S
H758 N755 0.984 . S
H759 N755 0.985 . S
H760 N754 0.984 . S
H761 N754 0.984 . S
H762 N750 0.984 . S
H763 N750 0.985 . S
C764 C765 1.363 . S
C764 C770 1.379 . S
C764 N772 1.356 . S
C765 C764 1.363 . S
C765 C771 1.363 . S
C766 C767 1.363 . S
C766 C771 1.379 . S
C766 N773 1.356 . S
C767 C766 1.363 . S
C767 C770 1.363 . S
N768 C770 1.356 . S
N768 H780 0.984 . S
N768 H781 0.985 . S
N769 C771 1.356 . S
N769 H774 0.984 . S
N769 H775 0.985 . S
C770 C764 1.379 . S
C770 C767 1.363 . S
C770 N768 1.356 . S
C771 C765 1.363 . S
C771 C766 1.379 . S
C771 N769 1.356 . S
N772 C764 1.356 . S
N772 H778 0.984 . S
N772 H779 0.984 . S
N773 C766 1.356 . S
N773 H776 0.984 . S
N773 H777 0.985 . S
H774 N769 0.984 . S
H775 N769 0.985 . S
H776 N773 0.984 . S
H777 N773 0.985 . S
H778 N772 0.984 . S
H779 N772 0.984 . S
H780 N768 0.984 . S
H781 N768 0.985 . S
C782 C783 1.363 . S
C782 C788 1.379 . S
C782 N790 1.356 . S
C783 C782 1.363 . S
C783 C789 1.363 . S
C784 C785 1.363 . S
C784 C789 1.379 . S
C784 N791 1.356 . S
C785 C784 1.363 . S
C785 C788 1.363 . S
N786 C788 1.356 . S
N786 H798 0.984 . S
N786 H799 0.985 . S
N787 C789 1.356 . S
N787 H792 0.984 . S
N787 H793 0.985 . S
C788 C782 1.379 . S
C788 C785 1.363 . S
C788 N786 1.356 . S
C789 C783 1.363 . S
C789 C784 1.379 . S
C789 N787 1.356 . S
N790 C782 1.356 . S
N790 H796 0.984 . S
N790 H797 0.984 . S
N791 C784 1.356 . S
N791 H794 0.984 . S
N791 H795 0.985 1_655 S
H792 N787 0.984 . S
H793 N787 0.985 . S
H794 N791 0.984 . S
H795 N791 0.985 1_455 S
H796 N790 0.984 . S
H797 N790 0.984 . S
H798 N786 0.984 . S
H799 N786 0.985 . S
C800 C801 1.363 . S
C800 C806 1.379 . S
C800 N808 1.356 . S
C801 C800 1.363 . S
C801 C807 1.363 . S
C802 C803 1.363 . S
C802 C807 1.379 . S
C802 N809 1.356 . S
C803 C802 1.363 . S
C803 C806 1.363 . S
N804 C806 1.356 1_455 S
N804 H816 0.984 . S
N804 H817 0.985 . S
N805 C807 1.356 . S
N805 H810 0.984 . S
N805 H811 0.985 . S
C806 C800 1.379 . S
C806 C803 1.363 . S
C806 N804 1.356 1_655 S
C807 C801 1.363 . S
C807 C802 1.379 . S
C807 N805 1.356 . S
N808 C800 1.356 . S
N808 H814 0.984 . S
N808 H815 0.984 . S
N809 C802 1.356 . S
N809 H812 0.984 . S
N809 H813 0.985 . S
H810 N805 0.984 . S
H811 N805 0.985 . S
H812 N809 0.984 . S
H813 N809 0.985 . S
H814 N808 0.984 . S
H815 N808 0.984 . S
H816 N804 0.984 . S
H817 N804 0.985 . S
C818 C819 1.363 . S
C818 C824 1.379 . S
C818 N826 1.356 . S
C819 C818 1.363 . S
C819 C825 1.363 . S
C820 C821 1.363 . S
C820 C825 1.379 . S
C820 N827 1.356 . S
C821 C820 1.363 . S
C821 C824 1.363 . S
N822 C824 1.356 . S
N822 H834 0.984 . S
N822 H835 0.985 . S
N823 C825 1.356 . S
N823 H828 0.984 . S
N823 H829 0.985 . S
C824 C818 1.379 . S
C824 C821 1.363 . S
C824 N822 1.356 . S
C825 C819 1.363 . S
C825 C820 1.379 . S
C825 N823 1.356 . S
N826 C818 1.356 . S
N826 H832 0.984 . S
N826 H833 0.984 . S
N827 C820 1.356 . S
N827 H830 0.984 . S
N827 H831 0.985 . S
H828 N823 0.984 . S
H829 N823 0.985 . S
H830 N827 0.984 . S
H831 N827 0.985 . S
H832 N826 0.984 . S
H833 N826 0.984 . S
H834 N822 0.984 . S
H835 N822 0.985 . S
C836 C837 1.363 . S
C836 C842 1.379 . S
C836 N844 1.356 . S
C837 C836 1.363 . S
C837 C843 1.363 . S
C838 C839 1.363 . S
C838 C843 1.379 . S
C838 N845 1.356 . S
C839 C838 1.363 . S
C839 C842 1.363 . S
N840 C842 1.356 . S
N840 H852 0.984 . S
N840 H853 0.985 . S
N841 C843 1.356 . S
N841 H846 0.984 . S
N841 H847 0.985 . S
C842 C836 1.379 . S
C842 C839 1.363 . S
C842 N840 1.356 . S
C843 C837 1.363 . S
C843 C838 1.379 . S
C843 N841 1.356 . S
N844 C836 1.356 . S
N844 H850 0.984 . S
N844 H851 0.984 . S
N845 C838 1.356 . S
N845 H848 0.984 . S
N845 H849 0.985 . S
H846 N841 0.984 . S
H847 N841 0.985 . S
H848 N845 0.984 . S
H849 N845 0.985 . S
H850 N844 0.984 . S
H851 N844 0.984 . S
H852 N840 0.984 . S
H853 N840 0.985 . S
C854 C855 1.363 . S
C854 C860 1.379 . S
C854 N862 1.356 . S
C855 C854 1.363 . S
C855 C861 1.363 . S
C856 C857 1.363 . S
C856 C861 1.379 . S
C856 N863 1.356 . S
C857 C856 1.363 . S
C857 C860 1.363 . S
N858 C860 1.356 . S
N858 H870 0.984 . S
N858 H871 0.985 . S
N859 C861 1.356 . S
N859 H864 0.984 . S
N859 H865 0.985 . S
C860 C854 1.379 . S
C860 C857 1.363 . S
C860 N858 1.356 . S
C861 C855 1.363 . S
C861 C856 1.379 . S
C861 N859 1.356 . S
N862 C854 1.356 . S
N862 H868 0.984 . S
N862 H869 0.984 . S
N863 C856 1.356 . S
N863 H866 0.984 . S
N863 H867 0.985 1_455 S
H864 N859 0.984 . S
H865 N859 0.985 . S
H866 N863 0.984 . S
H867 N863 0.985 1_655 S
H868 N862 0.984 . S
H869 N862 0.984 . S
H870 N858 0.984 . S
H871 N858 0.985 . S
C441 C86 1.629 . S
C443 C178 1.626 . S
C461 C262 1.668 . S
C459 C100 1.684 . S
C479 C255 1.622 . S
C477 C60 1.627 . S
C495 C74 1.680 . S
C497 C171 1.679 . S
C515 C335 1.668 . S
C513 C35 1.683 . S
C533 C419 1.626 . S
C531 C47 1.632 . S
C549 C9 1.678 . S
C551 C412 1.679 . S
C567 C21 1.631 . S
C569 C328 1.622 . S
C587 C162 1.432 . S
C585 C22 1.584 . S
C605 C246 1.415 . S
C603 C8 1.579 . S
C623 C257 1.355 . S
C621 C48 1.582 . S
C641 C173 1.360 . S
C639 C34 1.580 . S
C659 C341 1.415 . S
C657 C73 1.582 . S
C675 C61 1.582 . S
C677 C425 1.432 . S
C695 C414 1.360 . S
C693 C99 1.582 . S
C711 C87 1.581 . S
C713 C330 1.355 . S
C731 C160 1.575 . S
C729 C4 1.484 . S
C749 C244 1.496 . S
C747 C17 1.482 . S
C765 C30 1.484 . S
C767 C251 1.544 . S
C785 C167 1.467 . S
C783 C43 1.472 . S
C803 C339 1.496 . S
C801 C56 1.447 . S
C819 C69 1.518 . S
C821 C423 1.575 . S
C837 C82 1.443 . S
C839 C430 1.467 . S
C855 C95 1.513 . S
C857 C346 1.544 . S
