# Generated by pormake.
# Topology nom, (4,4)-cn, num edge types: 1
# Building blocks:
#     Node 0, Type 0, BuildingBlock: AZAVOO_clean_linker_0, # of connection points: 4
#     Node 1, Type 0, BuildingBlock: AZAVOO_clean_linker_0, # of connection points: 4
#     Node 2, Type 0, BuildingBlock: AZAVOO_clean_linker_0, # of connection points: 4
#     Node 3, Type 0, BuildingBlock: AZAVOO_clean_linker_0, # of connection points: 4
#     Node 4, Type 0, BuildingBlock: AZAVOO_clean_linker_0, # of connection points: 4
#     Node 5, Type 0, BuildingBlock: AZAVOO_clean_linker_0, # of connection points: 4
#     Node 6, Type 1, BuildingBlock: AZAVOO_clean_sbu_0, # of connection points: 4
#     Node 7, Type 1, BuildingBlock: AZAVOO_clean_sbu_0, # of connection points: 4
#     Node 8, Type 1, BuildingBlock: AZAVOO_clean_sbu_0, # of connection points: 4
#     Node 9, Type 1, BuildingBlock: AZAVOO_clean_sbu_0, # of connection points: 4
#     Node 10, Type 1, BuildingBlock: AZAVOO_clean_sbu_0, # of connection points: 4
#     Node 11, Type 1, BuildingBlock: AZAVOO_clean_sbu_0, # of connection points: 4
#     Edge 12, Type (0, 1), BuildingBlock: XUDNAN_clean_linker_2, # of connection points: 2
#     Edge 13, Type (0, 1), BuildingBlock: XUDNAN_clean_linker_2, # of connection points: 2
#     Edge 14, Type (0, 1), BuildingBlock: XUDNAN_clean_linker_2, # of connection points: 2
#     Edge 15, Type (0, 1), BuildingBlock: XUDNAN_clean_linker_2, # of connection points: 2
#     Edge 16, Type (0, 1), BuildingBlock: XUDNAN_clean_linker_2, # of connection points: 2
#     Edge 17, Type (0, 1), BuildingBlock: XUDNAN_clean_linker_2, # of connection points: 2
#     Edge 18, Type (0, 1), BuildingBlock: XUDNAN_clean_linker_2, # of connection points: 2
#     Edge 19, Type (0, 1), BuildingBlock: XUDNAN_clean_linker_2, # of connection points: 2
#     Edge 20, Type (0, 1), BuildingBlock: XUDNAN_clean_linker_2, # of connection points: 2
#     Edge 21, Type (0, 1), BuildingBlock: XUDNAN_clean_linker_2, # of connection points: 2
#     Edge 22, Type (0, 1), BuildingBlock: XUDNAN_clean_linker_2, # of connection points: 2
#     Edge 23, Type (0, 1), BuildingBlock: XUDNAN_clean_linker_2, # of connection points: 2
#     Edge 24, Type (0, 1), BuildingBlock: XUDNAN_clean_linker_2, # of connection points: 2
#     Edge 25, Type (0, 1), BuildingBlock: XUDNAN_clean_linker_2, # of connection points: 2
#     Edge 26, Type (0, 1), BuildingBlock: XUDNAN_clean_linker_2, # of connection points: 2
#     Edge 27, Type (0, 1), BuildingBlock: XUDNAN_clean_linker_2, # of connection points: 2
#     Edge 28, Type (0, 1), BuildingBlock: XUDNAN_clean_linker_2, # of connection points: 2
#     Edge 29, Type (0, 1), BuildingBlock: XUDNAN_clean_linker_2, # of connection points: 2
#     Edge 30, Type (0, 1), BuildingBlock: XUDNAN_clean_linker_2, # of connection points: 2
#     Edge 31, Type (0, 1), BuildingBlock: XUDNAN_clean_linker_2, # of connection points: 2
#     Edge 32, Type (0, 1), BuildingBlock: XUDNAN_clean_linker_2, # of connection points: 2
#     Edge 33, Type (0, 1), BuildingBlock: XUDNAN_clean_linker_2, # of connection points: 2
#     Edge 34, Type (0, 1), BuildingBlock: XUDNAN_clean_linker_2, # of connection points: 2
#     Edge 35, Type (0, 1), BuildingBlock: XUDNAN_clean_linker_2, # of connection points: 2
# Relax obj value: 0.192
# Max RMSD: 0.231
# Mean RMSD: 0.192
data_MOF--net-nom--node1-AZAVOO_clean_sbu_0--node2-AZAVOO_clean_linker_0--edge1-XUDNAN_clean_linker_2
_symmetry_space_group_name_H-M    P1
_symmetry_Int_Tables_number       1
_symmetry_cell_setting            triclinic
loop_
_symmetry_equiv_pos_as_xyz
'x, y, z'
_cell_length_a     47.878689
_cell_length_b     49.70722
_cell_length_c     58.199043
_cell_angle_alpha  90.753409
_cell_angle_beta   90.834294
_cell_angle_gamma 120.96636
loop_
_atom_site_label
_atom_site_type_symbol
_atom_site_fract_x
_atom_site_fract_y
_atom_site_fract_z
_atom_type_partial_charge
H0 H 0.05278 0.46059 0.16233 0.0
H1 H 0.23196 0.63208 0.38996 0.0
H2 H 0.99335 0.43045 0.27614 0.0
H3 H 0.9524 0.41102 0.24555 0.0
H4 H 0.92941 0.48209 0.26398 0.0
H5 H 0.97361 0.50376 0.29249 0.0
H6 H 0.06736 0.46373 0.26247 0.0
H7 H 0.06539 0.45699 0.22063 0.0
H8 H 0.02488 0.51683 0.21393 0.0
H9 H 0.02744 0.52375 0.25575 0.0
H10 H 0.12905 0.50354 0.2974 0.0
H11 H 0.18372 0.54017 0.2834 0.0
H12 H 0.15007 0.60082 0.25941 0.0
H13 H 0.09609 0.56477 0.27404 0.0
H14 H 0.11258 0.49496 0.34645 0.0
H15 H 0.16259 0.52469 0.36996 0.0
H16 H 0.16671 0.61097 0.35255 0.0
H17 H 0.11662 0.5809 0.32921 0.0
H18 H 0.05319 0.47179 0.36984 0.0
H19 H 0.07799 0.49149 0.40787 0.0
H20 H 0.07947 0.57789 0.39578 0.0
H21 H 0.05666 0.55861 0.35722 0.0
H22 H 0.96942 0.43704 0.34012 0.0
H23 H 0.92257 0.43075 0.36171 0.0
H24 H 0.95895 0.52991 0.35546 0.0
H25 H 0.0051 0.5358 0.3342 0.0
O26 O 0.0536 0.46379 0.17882 0.0
O27 O 0.0326 0.49451 0.17634 0.0
O28 O 0.20983 0.57489 0.38836 0.0
O29 O 0.21266 0.61983 0.38032 0.0
C30 C 0.01844 0.48584 0.29971 0.0
C31 C 0.04788 0.49741 0.2876 0.0
C32 C 0.07816 0.51383 0.29953 0.0
C33 C 0.07925 0.51756 0.32361 0.0
C34 C 0.05018 0.50683 0.33568 0.0
C35 C 0.01983 0.49194 0.3237 0.0
C36 C 0.98683 0.46872 0.28656 0.0
C37 C 0.97902 0.44147 0.27383 0.0
C38 C 0.95521 0.43022 0.25627 0.0
C39 C 0.9376 0.44524 0.25158 0.0
C40 C 0.94312 0.47049 0.26621 0.0
C41 C 0.9679 0.48249 0.28316 0.0
C42 C 0.04727 0.49398 0.26214 0.0
C43 C 0.0582 0.47546 0.25191 0.0
C44 C 0.05697 0.47159 0.22802 0.0
C45 C 0.04484 0.48626 0.21393 0.0
C46 C 0.03425 0.50511 0.22427 0.0
C47 C 0.0356 0.50904 0.24815 0.0
C48 C 0.10875 0.53164 0.2868 0.0
C49 C 0.13341 0.52441 0.28866 0.0
C50 C 0.16451 0.54528 0.28063 0.0
C51 C 0.17118 0.57354 0.27066 0.0
C52 C 0.14573 0.57949 0.26741 0.0
C53 C 0.11482 0.55877 0.27549 0.0
C54 C 0.11111 0.53583 0.33617 0.0
C55 C 0.12454 0.5203 0.34759 0.0
C56 C 0.15301 0.53733 0.36105 0.0
C57 C 0.16857 0.57021 0.36322 0.0
C58 C 0.15532 0.58569 0.3513 0.0
C59 C 0.12683 0.56862 0.33788 0.0
C60 C 0.05286 0.51362 0.36081 0.0
C61 C 0.05763 0.49443 0.3758 0.0
C62 C 0.07201 0.50589 0.39757 0.0
C63 C 0.08144 0.53664 0.40481 0.0
C64 C 0.07338 0.55446 0.39058 0.0
C65 C 0.05954 0.54318 0.36869 0.0
C66 C 0.99068 0.48692 0.33583 0.0
C67 C 0.96708 0.45727 0.34348 0.0
C68 C 0.94048 0.45377 0.35578 0.0
C69 C 0.93743 0.47996 0.36064 0.0
C70 C 0.96104 0.50944 0.3526 0.0
C71 C 0.98732 0.51284 0.34032 0.0
C72 C 0.04327 0.48186 0.18857 0.0
C73 C 0.19827 0.58833 0.37804 0.0
H74 H 0.54769 0.03176 0.34412 0.0
H75 H 0.51245 0.20099 0.56018 0.0
H76 H 0.51395 0.98213 0.46561 0.0
H77 H 0.5076 0.94254 0.43726 0.0
H78 H 0.40697 0.91539 0.42568 0.0
H79 H 0.41348 0.95481 0.45451 0.0
H80 H 0.54469 0.04846 0.44358 0.0
H81 H 0.55586 0.04589 0.40294 0.0
H82 H 0.45365 0.00652 0.38595 0.0
H83 H 0.44292 0.0095 0.42662 0.0
H84 H 0.5592 0.10209 0.47725 0.0
H85 H 0.58521 0.15487 0.46174 0.0
H86 H 0.49324 0.13303 0.4304 0.0
H87 H 0.46755 0.08 0.4458 0.0
H88 H 0.54288 0.08978 0.52673 0.0
H89 H 0.55791 0.13692 0.54996 0.0
H90 H 0.47444 0.13795 0.52167 0.0
H91 H 0.45945 0.09052 0.49878 0.0
H92 H 0.51341 0.02416 0.54195 0.0
H93 H 0.52238 0.04419 0.58145 0.0
H94 H 0.43876 0.05526 0.57462 0.0
H95 H 0.43103 0.03645 0.53467 0.0
H96 H 0.4813 0.95635 0.50838 0.0
H97 H 0.44884 0.90692 0.52858 0.0
H98 H 0.3711 0.92642 0.5348 0.0
H99 H 0.40343 0.97541 0.5145 0.0
O100 O 0.54287 0.03323 0.36002 0.0
O101 O 0.49004 0.01279 0.35224 0.0
O102 O 0.54961 0.18071 0.56521 0.0
O103 O 0.50735 0.18263 0.55092 0.0
C104 C 0.47083 0.00014 0.47453 0.0
C105 C 0.48604 0.02886 0.46277 0.0
C106 C 0.49519 0.05713 0.4747 0.0
C107 C 0.48964 0.05684 0.49843 0.0
C108 C 0.4742 0.02816 0.51014 0.0
C109 C 0.46401 -0.00037 0.4981 0.0
C110 C 0.46418 0.97127 0.46201 0.0
C111 C 0.49025 0.96687 0.45751 0.0
C112 C 0.48665 0.94449 0.44119 0.0
C113 C 0.45694 0.92624 0.42901 0.0
C114 C 0.43009 0.92899 0.43489 0.0
C115 C 0.43372 0.95143 0.45133 0.0
C116 C 0.49304 0.02921 0.43798 0.0
C117 C 0.52484 0.03962 0.431 0.0
C118 C 0.5311 0.03798 0.4078 0.0
C119 C 0.50563 0.0259 0.3912 0.0
C120 C 0.47382 0.0159 0.39829 0.0
C121 C 0.46762 0.01761 0.42148 0.0
C122 C 0.51154 0.0874 0.46271 0.0
C123 C 0.54485 0.1086 0.46674 0.0
C124 C 0.55955 0.13875 0.458 0.0
C125 C 0.54117 0.14823 0.44508 0.0
C126 C 0.50808 0.12636 0.44016 0.0
C127 C 0.49336 0.09614 0.44895 0.0
C128 C 0.50002 0.08673 0.5112 0.0
C129 C 0.52795 0.1003 0.52555 0.0
C130 C 0.53646 0.1272 0.53879 0.0
C131 C 0.51729 0.14114 0.53774 0.0
C132 C 0.48968 0.12778 0.52293 0.0
C133 C 0.48113 0.10078 0.50978 0.0
C134 C 0.47175 0.02909 0.53546 0.0
C135 C 0.49627 0.02972 0.5493 0.0
C136 C 0.50138 0.0413 0.57193 0.0
C137 C 0.48174 0.05208 0.58111 0.0
C138 C 0.45489 0.048 0.56789 0.0
C139 C 0.45006 0.03677 0.54519 0.0
C140 C 0.44469 0.96944 0.50995 0.0
C141 C 0.45714 0.94974 0.51392 0.0
C142 C 0.43859 0.92157 0.52543 0.0
C143 C 0.4075 0.9129 0.53335 0.0
C144 C 0.39514 0.93267 0.52919 0.0
C145 C 0.41352 0.9606 0.51756 0.0
C146 C 0.51224 0.02357 0.36664 0.0
C147 C 0.52585 0.16935 0.55213 0.0
H148 H 0.64265 0.58848 0.78276 0.0
H149 H 0.57128 0.39237 0.55591 0.0
H150 H 0.61636 0.62738 0.65974 0.0
H151 H 0.61649 0.66061 0.69131 0.0
H152 H 0.5139 0.59548 0.70025 0.0
H153 H 0.51384 0.56255 0.66849 0.0
H154 H 0.63823 0.58092 0.68216 0.0
H155 H 0.65007 0.58819 0.72363 0.0
H156 H 0.54672 0.53759 0.73632 0.0
H157 H 0.53528 0.53041 0.69485 0.0
H158 H 0.63579 0.5213 0.65014 0.0
H159 H 0.63838 0.47714 0.66627 0.0
H160 H 0.54034 0.43804 0.6905 0.0
H161 H 0.53774 0.48158 0.67398 0.0
H162 H 0.62931 0.53747 0.59835 0.0
H163 H 0.63584 0.50098 0.57358 0.0
H164 H 0.54336 0.42463 0.59594 0.0
H165 H 0.53699 0.46148 0.6204 0.0
H166 H 0.60684 0.57948 0.58091 0.0
H167 H 0.61055 0.56275 0.54216 0.0
H168 H 0.51716 0.4776 0.54943 0.0
H169 H 0.51459 0.49403 0.58865 0.0
H170 H 0.57118 0.62162 0.61482 0.0
H171 H 0.53288 0.6347 0.59649 0.0
H172 H 0.45849 0.5364 0.59422 0.0
H173 H 0.49597 0.52374 0.61291 0.0
O174 O 0.63745 0.5856 0.76645 0.0
O175 O 0.58445 0.55403 0.77197 0.0
O176 O 0.61719 0.4472 0.55518 0.0
O177 O 0.56973 0.40714 0.56602 0.0
C178 C 0.56772 0.56847 0.64879 0.0
C179 C 0.57896 0.55084 0.66043 0.0
C180 C 0.58238 0.52801 0.64834 0.0
C181 C 0.57744 0.5248 0.62433 0.0
C182 C 0.56544 0.54183 0.61283 0.0
C183 C 0.55859 0.56224 0.62528 0.0
C184 C 0.56508 0.59265 0.66191 0.0
C185 C 0.59361 0.6211 0.66783 0.0
C186 C 0.59371 0.63994 0.68587 0.0
C187 C 0.56532 0.63027 0.69828 0.0
C188 C 0.53611 0.60323 0.69094 0.0
C189 C 0.53595 0.5846 0.67274 0.0
C190 C 0.58595 0.55532 0.68557 0.0
C191 C 0.61823 0.57148 0.69396 0.0
C192 C 0.62489 0.57563 0.71763 0.0
C193 C 0.59933 0.56343 0.73328 0.0
C194 C 0.56696 0.54721 0.72474 0.0
C195 C 0.56036 0.54317 0.70108 0.0
C196 C 0.5866 0.5046 0.66096 0.0
C197 C 0.61516 0.50343 0.65929 0.0
C198 C 0.61659 0.47829 0.66852 0.0
C199 C 0.5894 0.454 0.67939 0.0
C200 C 0.56146 0.45614 0.6819 0.0
C201 C 0.56007 0.48116 0.67272 0.0
C202 C 0.58275 0.50206 0.61116 0.0
C203 C 0.61067 0.5128 0.59802 0.0
C204 C 0.61427 0.49193 0.58386 0.0
C205 C 0.59006 0.45988 0.58273 0.0
C206 C 0.56244 0.44914 0.59637 0.0
C207 C 0.55882 0.47007 0.61046 0.0
C208 C 0.56058 0.53791 0.58758 0.0
C209 C 0.58649 0.55794 0.57372 0.0
C210 C 0.58858 0.5482 0.55154 0.0
C211 C 0.56451 0.5184 0.54289 0.0
C212 C 0.53651 0.50029 0.55582 0.0
C213 C 0.53467 0.5099 0.57809 0.0
C214 C 0.53653 0.57164 0.61478 0.0
C215 C 0.54657 0.60304 0.6104 0.0
C216 C 0.52478 0.61044 0.59996 0.0
C217 C 0.493 0.58645 0.59354 0.0
C218 C 0.48306 0.55526 0.59845 0.0
C219 C 0.50447 0.54801 0.60912 0.0
C220 C 0.60648 0.56737 0.7584 0.0
C221 C 0.5933 0.4378 0.56717 0.0
H222 H 0.04732 0.47987 0.97116 0.0
H223 H 0.21368 0.50673 0.73433 0.0
H224 H 0.98797 0.47094 0.85089 0.0
H225 H 0.95963 0.46169 0.88704 0.0
H226 H 0.9467 0.36906 0.88895 0.0
H227 H 0.97402 0.37819 0.85221 0.0
H228 H 0.05736 0.49797 0.87188 0.0
H229 H 0.0572 0.50008 0.91392 0.0
H230 H 0.03433 0.40387 0.91549 0.0
H231 H 0.03451 0.40212 0.87345 0.0
H232 H 0.12426 0.5178 0.8336 0.0
H233 H 0.17888 0.53172 0.84667 0.0
H234 H 0.1416 0.43558 0.86615 0.0
H235 H 0.08775 0.42158 0.85139 0.0
H236 H 0.09389 0.51546 0.78425 0.0
H237 H 0.14062 0.53785 0.75899 0.0
H238 H 0.15312 0.45907 0.77166 0.0
H239 H 0.10588 0.4366 0.79651 0.0
H240 H 0.0205 0.4857 0.77265 0.0
H241 H 0.03146 0.4998 0.73224 0.0
H242 H 0.05889 0.43006 0.72286 0.0
H243 H 0.04685 0.41555 0.76293 0.0
H244 H 0.96206 0.45244 0.8094 0.0
H245 H 0.90834 0.42516 0.79013 0.0
H246 H 0.92812 0.35517 0.7634 0.0
H247 H 0.98084 0.38167 0.78368 0.0
O248 O 0.04853 0.47894 0.95461 0.0
O249 O 0.03817 0.42989 0.95455 0.0
O250 O 0.18749 0.53827 0.73823 0.0
O251 O 0.19522 0.49846 0.74434 0.0
C252 C 0.01121 0.43579 0.83376 0.0
C253 C 0.0424 0.4478 0.84422 0.0
C254 C 0.0701 0.45911 0.8306 0.0
C255 C 0.06702 0.4602 0.80653 0.0
C256 C 0.03583 0.44793 0.79601 0.0
C257 C 0.00778 0.43499 0.80958 0.0
C258 C 0.98304 0.42525 0.84894 0.0
C259 C 0.9774 0.44801 0.85845 0.0
C260 C 0.96186 0.44292 0.8794 0.0
C261 C 0.95197 0.41507 0.89127 0.0
C262 C 0.95415 0.39083 0.88032 0.0
C263 C 0.96948 0.39586 0.85919 0.0
C264 C 0.04605 0.44995 0.86969 0.0
C265 C 0.05283 0.47757 0.88138 0.0
C266 C 0.05253 0.47863 0.90537 0.0
C267 C 0.04559 0.45209 0.91807 0.0
C268 C 0.03972 0.42471 0.90625 0.0
C269 C 0.03998 0.42369 0.88226 0.0
C270 C 0.10215 0.46868 0.84145 0.0
C271 C 0.12796 0.49987 0.84085 0.0
C272 C 0.15908 0.50779 0.84856 0.0
C273 C 0.16474 0.48471 0.85738 0.0
C274 C 0.13829 0.45382 0.85907 0.0
C275 C 0.10738 0.44584 0.85095 0.0
C276 C 0.0965 0.47441 0.79218 0.0
C277 C 0.10678 0.50309 0.78155 0.0
C278 C 0.13349 0.51584 0.76715 0.0
C279 C 0.15061 0.50023 0.7633 0.0
C280 C 0.14047 0.47168 0.77424 0.0
C281 C 0.1136 0.45885 0.78853 0.0
C282 C 0.03327 0.44989 0.77072 0.0
C283 C 0.0276 0.47265 0.76158 0.0
C284 C 0.03423 0.48089 0.73858 0.0
C285 C 0.04665 0.46648 0.72444 0.0
C286 C 0.0492 0.44154 0.73317 0.0
C287 C 0.04242 0.43324 0.75611 0.0
C288 C 0.97509 0.41875 0.79823 0.0
C289 C 0.95452 0.43098 0.79964 0.0
C290 C 0.92407 0.41562 0.78831 0.0
C291 C 0.91388 0.38793 0.7752 0.0
C292 C 0.93492 0.37612 0.77362 0.0
C293 C 0.96511 0.39129 0.78511 0.0
C294 C 0.04393 0.45287 0.9435 0.0
C295 C 0.17886 0.51357 0.74787 0.0
H296 H 0.38669 0.91832 0.85292 0.0
H297 H 0.37941 0.81474 0.0978 0.0
H298 H 0.43367 0.01914 0.95552 0.0
H299 H 0.45744 0.0496 0.92106 0.0
H300 H 0.55026 0.06017 0.94009 0.0
H301 H 0.52593 0.02857 0.97384 0.0
H302 H 0.38549 0.94048 0.95178 0.0
H303 H 0.37622 0.92786 0.91055 0.0
H304 H 0.47838 0.95971 0.90355 0.0
H305 H 0.48718 0.97168 0.94481 0.0
H306 H 0.36896 0.88636 0.99323 0.0
H307 H 0.35546 0.83302 0.98143 0.0
H308 H 0.45521 0.87026 0.9617 0.0
H309 H 0.46843 0.92259 0.97369 0.0
H310 H 0.38099 0.93251 0.04275 0.0
H311 H 0.3569 0.89134 0.0713 0.0
H312 H 0.42747 0.86461 0.05546 0.0
H313 H 0.45153 0.90606 0.02721 0.0
H314 H 0.43245 0.01088 0.05151 0.0
H315 H 0.43993 0.01866 0.09337 0.0
H316 H 0.49307 0.96975 0.09338 0.0
H317 H 0.48713 0.96401 0.05187 0.0
H318 H 0.46886 0.0587 0.01542 0.0
H319 H 0.51315 0.10701 0.03419 0.0
H320 H 0.5719 0.0641 0.03851 0.0
H321 H 0.52776 0.01634 0.02033 0.0
O322 O 0.39087 0.92335 0.8692 0.0
O323 O 0.44364 0.94023 0.8665 0.0
O324 O 0.35267 0.84581 0.09411 0.0
O325 O 0.38837 0.83111 0.08657 0.0
C326 C 0.46181 0.99673 0.98424 0.0
C327 C 0.4424 0.96518 0.97629 0.0
C328 C 0.42957 0.94059 0.99212 0.0
C329 C 0.43268 0.94762 0.01591 0.0
C330 C 0.45195 0.97912 0.02385 0.0
C331 C 0.46794 0.00345 0.00803 0.0
C332 C 0.47812 0.02183 0.96727 0.0
C333 C 0.45938 0.02887 0.95257 0.0
C334 C 0.47299 0.04621 0.93288 0.0
C335 C 0.5056 0.05686 0.92768 0.0
C336 C 0.5249 0.05176 0.94341 0.0
C337 C 0.51122 0.03425 0.96297 0.0
C338 C 0.43707 0.95746 0.95122 0.0
C339 C 0.40581 0.9447 0.9413 0.0
C340 C 0.40061 0.93755 0.91775 0.0
C341 C 0.4266 0.94294 0.90372 0.0
C342 C 0.45786 0.95542 0.91381 0.0
C343 C 0.46299 0.96246 0.93737 0.0
C344 C 0.41955 0.9084 0.98391 0.0
C345 C 0.38768 0.88286 0.98615 0.0
C346 C 0.38008 0.85254 0.97953 0.0
C347 C 0.4042 0.84766 0.97037 0.0
C348 C 0.43594 0.87339 0.96819 0.0
C349 C 0.44352 0.90332 0.97499 0.0
C350 C 0.41769 0.92198 0.03271 0.0
C351 C 0.39109 0.91763 0.04542 0.0
C352 C 0.37742 0.89413 0.06172 0.0
C353 C 0.3902 0.8746 0.06561 0.0
C354 C 0.41695 0.87913 0.05284 0.0
C355 C 0.43063 0.90268 0.0366 0.0
C356 C 0.45858 0.98622 0.04884 0.0
C357 C 0.4462 0.00244 0.06066 0.0
C358 C 0.45045 0.00678 0.08453 0.0
C359 C 0.467 0.99477 0.09689 0.0
C360 C 0.48073 0.97993 0.08462 0.0
C361 C 0.47684 0.97602 0.06084 0.0
C362 C 0.49524 0.03417 0.01654 0.0
C363 C 0.49151 0.06007 0.02021 0.0
C364 C 0.51672 0.08749 0.03095 0.0
C365 C 0.54577 0.08912 0.03821 0.0
C366 C 0.54957 0.06336 0.0337 0.0
C367 C 0.52455 0.03619 0.02306 0.0
C368 C 0.42102 0.93547 0.87869 0.0
C369 C 0.37586 0.84969 0.08296 0.0
H370 H 0.53887 0.52007 0.98818 0.0
H371 H 0.68966 0.49986 0.22182 0.0
H372 H 0.51518 0.56195 0.11213 0.0
H373 H 0.49084 0.56743 0.07666 0.0
H374 H 0.58294 0.64896 0.06011 0.0
H375 H 0.60713 0.64344 0.09582 0.0
H376 H 0.54206 0.52029 0.08867 0.0
H377 H 0.53313 0.51102 0.04707 0.0
H378 H 0.62141 0.59979 0.03607 0.0
H379 H 0.63013 0.60859 0.07772 0.0
H380 H 0.58002 0.49411 0.12561 0.0
H381 H 0.60396 0.46616 0.10707 0.0
H382 H 0.68176 0.55406 0.08209 0.0
H383 H 0.6583 0.58184 0.10111 0.0
H384 H 0.5662 0.50652 0.17341 0.0
H385 H 0.58568 0.48014 0.19851 0.0
H386 H 0.68513 0.55036 0.1836 0.0
H387 H 0.66528 0.57668 0.15874 0.0
H388 H 0.53808 0.54421 0.18491 0.0
H389 H 0.53751 0.53473 0.22606 0.0
H390 H 0.64051 0.60347 0.23137 0.0
H391 H 0.64058 0.61333 0.19028 0.0
H392 H 0.53007 0.58772 0.17083 0.0
H393 H 0.52525 0.62921 0.19004 0.0
H394 H 0.61582 0.69903 0.16037 0.0
H395 H 0.6212 0.65735 0.14241 0.0
O396 O 0.54347 0.52369 0.00454 0.0
O397 O 0.58944 0.56917 -0.00021 0.0
O398 O 0.62981 0.47204 0.21656 0.0
O399 O 0.6813 0.50993 0.21213 0.0
C400 C 0.57955 0.59047 0.12133 0.0
C401 C 0.59045 0.57152 0.11132 0.0
C402 C 0.60307 0.55717 0.12534 0.0
C403 C 0.60246 0.55975 0.14945 0.0
C404 C 0.59118 0.57841 0.15944 0.0
C405 C 0.58115 0.59495 0.14535 0.0
C406 C 0.56295 0.60211 0.10637 0.0
C407 C 0.52962 0.58203 0.10152 0.0
C408 C 0.51585 0.585 0.08115 0.0
C409 C 0.53525 0.6082 0.06549 0.0
C410 C 0.56748 0.63091 0.07192 0.0
C411 C 0.58129 0.62786 0.09234 0.0
C412 C 0.58667 0.56511 0.08613 0.0
C413 C 0.5596 0.53751 0.07722 0.0
C414 C 0.55452 0.53235 0.05347 0.0
C415 C 0.57647 0.55474 0.03824 0.0
C416 C 0.60399 0.5821 0.04731 0.0
C417 C 0.60907 0.58717 0.07107 0.0
C418 C 0.61742 0.53996 0.11461 0.0
C419 C 0.60239 0.50729 0.11631 0.0
C420 C 0.61602 0.49142 0.10575 0.0
C421 C 0.64452 0.50801 0.09305 0.0
C422 C 0.65953 0.54072 0.09152 0.0
C423 C 0.64621 0.55657 0.10235 0.0
C424 C 0.61436 0.54349 0.16432 0.0
C425 C 0.59218 0.51618 0.17565 0.0
C426 C 0.60337 0.50113 0.18992 0.0
C427 C 0.63699 0.51311 0.19301 0.0
C428 C 0.65911 0.54052 0.1816 0.0
C429 C 0.64787 0.55556 0.16735 0.0
C430 C 0.58933 0.57956 0.18474 0.0
C431 C 0.56015 0.55825 0.19519 0.0
C432 C 0.55995 0.55263 0.21861 0.0
C433 C 0.58902 0.56811 0.23185 0.0
C434 C 0.61765 0.59143 0.22168 0.0
C435 C 0.6178 0.59709 0.19822 0.0
C436 C 0.57616 0.61956 0.15548 0.0
C437 C 0.54894 0.61197 0.16868 0.0
C438 C 0.54613 0.63575 0.17946 0.0
C439 C 0.57034 0.66752 0.17695 0.0
C440 C 0.59713 0.67488 0.16316 0.0
C441 C 0.60004 0.65112 0.15262 0.0
C442 C 0.57035 0.54972 0.01303 0.0
C443 C 0.64901 0.49706 0.20797 0.0
Mg444 Mg 0.65711 0.42721 0.36597 0.0
O445 O 0.64719 0.44638 0.3988 0.0
O446 O 0.67382 0.49875 0.39806 0.0
Mg447 Mg 0.7031 0.51314 0.36522 0.0
C448 C 0.65456 0.47291 0.40769 0.0
C449 C 0.61851 0.35295 0.37459 0.0
O450 O 0.60834 0.34968 0.35308 0.0
O451 O 0.70767 0.44121 0.37907 0.0
O452 O 0.73469 0.49361 0.37837 0.0
O453 O 0.61524 0.42724 0.34862 0.0
O454 O 0.66605 0.46753 0.3494 0.0
C455 C 0.73352 0.46785 0.38241 0.0
C456 C 0.63572 0.45638 0.34426 0.0
O457 O 0.63702 0.38027 0.38323 0.0
Mg458 Mg 0.25985 0.62957 0.59301 0.0
O459 O 0.23122 0.61336 0.55835 0.0
O460 O 0.20713 0.56108 0.55574 0.0
Mg461 Mg 0.22212 0.54418 0.58722 0.0
C462 C 0.21275 0.58716 0.54775 0.0
C463 C 0.28435 0.70037 0.59523 0.0
O464 O 0.26784 0.69047 0.61421 0.0
O465 O 0.30025 0.62312 0.57901 0.0
O466 O 0.27578 0.5708 0.57625 0.0
O467 O 0.21537 0.62195 0.61079 0.0
O468 O 0.22832 0.58549 0.60626 0.0
C469 C 0.30068 0.59825 0.5741 0.0
C470 C 0.20783 0.59313 0.61313 0.0
O471 O 0.28595 0.68063 0.58206 0.0
Mg472 Mg 0.61437 0.22789 0.76336 0.0
O473 O 0.59083 0.19421 0.73261 0.0
O474 O 0.60584 0.15853 0.73298 0.0
Mg475 Mg 0.63786 0.16865 0.76546 0.0
C476 C 0.59024 0.17029 0.72381 0.0
C477 C 0.62123 0.29073 0.74589 0.0
O478 O 0.65002 0.30319 0.75612 0.0
O479 O 0.66374 0.25105 0.74674 0.0
O480 O 0.6787 0.21569 0.75176 0.0
O481 O 0.57199 0.19757 0.78507 0.0
O482 O 0.61529 0.19291 0.78197 0.0
C483 C 0.68481 0.2427 0.74544 0.0
C484 C 0.58694 0.18288 0.79036 0.0
O485 O 0.60182 0.26123 0.74629 0.0
Mg486 Mg 0.46157 0.66031 0.87049 0.0
O487 O 0.48153 0.64454 0.90028 0.0
O488 O 0.48352 0.6034 0.88631 0.0
Mg489 Mg 0.47042 0.59606 0.84799 0.0
C490 C 0.48684 0.62203 0.90287 0.0
C491 C 0.43031 0.67757 0.912 0.0
O492 O 0.4197 0.64871 0.91843 0.0
O493 O 0.41197 0.6164 0.87426 0.0
O494 O 0.41767 0.57869 0.85775 0.0
O495 O 0.51144 0.69478 0.85769 0.0
O496 O 0.48213 0.64484 0.84705 0.0
C497 C 0.4003 0.58797 0.86755 0.0
C498 C 0.50861 0.67153 0.84544 0.0
O499 O 0.44816 0.68803 0.89452 0.0
Mg500 Mg 0.78558 0.3583 0.05294 0.0
O501 O 0.81041 0.3716 0.08867 0.0
O502 O 0.8347 0.34406 0.09438 0.0
Mg503 Mg 0.82648 0.31462 0.06152 0.0
C504 C 0.82719 0.36396 0.10123 0.0
C505 C 0.75212 0.39458 0.04481 0.0
O506 O 0.76373 0.39316 0.0248 0.0
O507 O 0.74548 0.31105 0.06481 0.0
O508 O 0.77142 0.28457 0.06863 0.0
O509 O 0.83035 0.39635 0.03802 0.0
O510 O 0.81914 0.34727 0.0401 0.0
C511 C 0.74558 0.28608 0.06936 0.0
C512 C 0.83877 0.37581 0.03412 0.0
O513 O 0.75677 0.38146 0.06181 0.0
Mg514 Mg 0.44254 0.82088 0.22419 0.0
O515 O 0.45139 0.83454 0.26238 0.0
O516 O 0.49974 0.87885 0.26629 0.0
Mg517 Mg 0.52165 0.89275 0.23061 0.0
C518 C 0.47365 0.8568 0.27483 0.0
C519 C 0.37822 0.7671 0.24456 0.0
O520 O 0.37702 0.79119 0.25284 0.0
O521 O 0.47855 0.80491 0.22542 0.0
O522 O 0.5272 0.84904 0.22784 0.0
O523 O 0.41905 0.84891 0.2202 0.0
O524 O 0.47165 0.86749 0.21545 0.0
C525 C 0.50952 0.81911 0.22629 0.0
C526 C 0.44777 0.87252 0.21614 0.0
O527 O 0.40214 0.77192 0.23248 0.0
H528 H 0.2009 0.6359 0.28127 0.0
H529 H 0.21772 0.56652 0.24889 0.0
H530 H 0.27406 0.6084 0.24034 0.0
H531 H 0.24378 0.69624 0.24148 0.0
H532 H 0.25975 0.72745 0.26292 0.0
H533 H 0.22164 0.69175 0.26734 0.0
H534 H 0.24407 0.68462 0.30615 0.0
H535 H 0.28234 0.72028 0.30183 0.0
H536 H 0.28148 0.68416 0.30681 0.0
H537 H 0.32757 0.65844 0.23395 0.0
H538 H 0.37404 0.71245 0.23004 0.0
H539 H 0.32125 0.74847 0.26671 0.0
C540 C 0.21635 0.6295 0.27223 0.0
C541 C 0.20496 0.59807 0.26551 0.0
C542 C 0.2261 0.59051 0.2542 0.0
C543 C 0.25804 0.6141 0.24928 0.0
C544 C 0.26835 0.64494 0.25599 0.0
C545 C 0.24813 0.65262 0.26728 0.0
C546 C 0.26469 0.6875 0.27227 0.0
C547 C 0.24638 0.70155 0.26028 0.0
C548 C 0.26836 0.69454 0.29831 0.0
C549 C 0.2973 0.69846 0.26162 0.0
C550 C 0.29906 0.67358 0.25245 0.0
C551 C 0.32654 0.67807 0.24118 0.0
C552 C 0.35278 0.70884 0.23904 0.0
C553 C 0.35126 0.73469 0.24808 0.0
C554 C 0.32323 0.72925 0.2597 0.0
H555 H 0.53429 0.17067 0.40358 0.0
H556 H 0.58111 0.2007 0.47114 0.0
H557 H 0.60558 0.25596 0.46031 0.0
H558 H 0.60005 0.23136 0.37187 0.0
H559 H 0.57372 0.2361 0.35203 0.0
H560 H 0.55981 0.1987 0.36496 0.0
H561 H 0.50943 0.19897 0.38033 0.0
H562 H 0.5232 0.2364 0.36746 0.0
H563 H 0.51522 0.23179 0.39777 0.0
H564 H 0.62451 0.30756 0.44268 0.0
H565 H 0.63797 0.35303 0.41891 0.0
H566 H 0.5789 0.29026 0.36251 0.0
C567 C 0.5496 0.1889 0.4161 0.0
C568 C 0.55602 0.18137 0.43815 0.0
C569 C 0.57635 0.20589 0.45401 0.0
C570 C 0.59016 0.23735 0.44809 0.0
C571 C 0.58341 0.24396 0.42625 0.0
C572 C 0.56368 0.22052 0.41046 0.0
C573 C 0.56056 0.23422 0.3881 0.0
C574 C 0.57437 0.22452 0.36806 0.0
C575 C 0.52499 0.22478 0.38313 0.0
C576 C 0.58167 0.269 0.39384 0.0
C577 C 0.59447 0.27399 0.41597 0.0
C578 C 0.61466 0.304 0.42531 0.0
C579 C 0.62214 0.32969 0.41163 0.0
C580 C 0.60953 0.32527 0.38879 0.0
C581 C 0.58893 0.29444 0.37987 0.0
H582 H 0.47432 0.62774 0.60743 0.0
H583 H 0.45745 0.55858 0.55442 0.0
H584 H 0.41055 0.56117 0.53926 0.0
H585 H 0.39548 0.59815 0.6206 0.0
H586 H 0.39706 0.63481 0.62547 0.0
H587 H 0.43334 0.63296 0.62917 0.0
H588 H 0.46309 0.67735 0.60003 0.0
H589 H 0.42684 0.67953 0.59634 0.0
H590 H 0.44538 0.67326 0.57171 0.0
H591 H 0.35981 0.56238 0.53516 0.0
H592 H 0.31012 0.56485 0.54094 0.0
H593 H 0.36011 0.63528 0.59504 0.0
C594 C 0.46154 0.61423 0.59204 0.0
C595 C 0.46951 0.5931 0.58197 0.0
C596 C 0.45167 0.57494 0.56231 0.0
C597 C 0.42511 0.57636 0.55353 0.0
C598 C 0.41688 0.59636 0.56442 0.0
C599 C 0.43483 0.61539 0.58303 0.0
C600 C 0.41856 0.63204 0.59314 0.0
C601 C 0.41064 0.62399 0.61859 0.0
C602 C 0.43973 0.66767 0.59012 0.0
C603 C 0.38784 0.61802 0.57815 0.0
C604 C 0.38759 0.59779 0.5615 0.0
C605 C 0.36011 0.57893 0.54758 0.0
C606 C 0.33199 0.58038 0.55101 0.0
C607 C 0.3317 0.60078 0.56802 0.0
C608 C 0.36021 0.62038 0.58134 0.0
H609 H 0.87212 0.32438 0.77241 0.0
H610 H 0.88078 0.41238 0.75318 0.0
H611 H 0.82432 0.38329 0.73746 0.0
H612 H 0.81955 0.27676 0.72205 0.0
H613 H 0.79672 0.24284 0.73949 0.0
H614 H 0.83911 0.27033 0.74628 0.0
H615 H 0.82425 0.27756 0.78765 0.0
H616 H 0.78201 0.25013 0.78104 0.0
H617 H 0.79451 0.28905 0.79166 0.0
H618 H 0.7649 0.34515 0.72861 0.0
H619 H 0.70759 0.30173 0.72866 0.0
H620 H 0.73916 0.23874 0.75195 0.0
C621 C 0.86262 0.33756 0.76422 0.0
C622 C 0.88098 0.37068 0.76397 0.0
C623 C 0.8671 0.38701 0.75378 0.0
C624 C 0.83518 0.37067 0.74455 0.0
C625 C 0.81763 0.338 0.74537 0.0
C626 C 0.831 0.32165 0.75482 0.0
C627 C 0.80627 0.2869 0.75561 0.0
C628 C 0.816 0.2681 0.73992 0.0
C629 C 0.80148 0.27526 0.78046 0.0
C630 C 0.77643 0.28639 0.74611 0.0
C631 C 0.78353 0.31598 0.73993 0.0
C632 C 0.75917 0.32177 0.73293 0.0
C633 C 0.72665 0.29693 0.73302 0.0
C634 C 0.71882 0.26672 0.74019 0.0
C635 C 0.74426 0.26132 0.74594 0.0
H636 H 0.42178 0.83126 0.93087 0.0
H637 H 0.37256 0.79333 0.99471 0.0
H638 H 0.37006 0.74322 0.98563 0.0
H639 H 0.37999 0.75725 0.8962 0.0
H640 H 0.41672 0.7674 0.88124 0.0
H641 H 0.40979 0.79784 0.89136 0.0
H642 H 0.46519 0.82425 0.91373 0.0
H643 H 0.47208 0.79371 0.90401 0.0
H644 H 0.47288 0.80192 0.93435 0.0
H645 H 0.37895 0.69945 0.97115 0.0
H646 H 0.39607 0.66561 0.95197 0.0
H647 H 0.441 0.73437 0.89865 0.0
C648 C 0.40987 0.81217 0.94272 0.0
C649 C 0.39733 0.81602 0.96346 0.0
C650 C 0.38193 0.7906 0.97858 0.0
C651 C 0.38058 0.76218 0.97361 0.0
C652 C 0.3945 0.75966 0.95339 0.0
C653 C 0.40848 0.78393 0.93808 0.0
C654 C 0.42385 0.77654 0.91841 0.0
C655 C 0.40655 0.77464 0.89545 0.0
C656 C 0.46067 0.80053 0.9176 0.0
C657 C 0.41727 0.74468 0.92532 0.0
C658 C 0.4 0.73503 0.94537 0.0
C659 C 0.39217 0.70667 0.95531 0.0
C660 C 0.4021 0.68768 0.94436 0.0
C661 C 0.41996 0.69738 0.92385 0.0
C662 C 0.42746 0.72624 0.91432 0.0
H663 H 0.65803 0.46515 0.111 0.0
H664 H 0.66321 0.51403 0.04855 0.0
H665 H 0.68926 0.48845 0.02897 0.0
H666 H 0.73525 0.4722 0.10626 0.0
H667 H 0.72263 0.43406 0.11745 0.0
H668 H 0.70231 0.45442 0.12613 0.0
H669 H 0.64679 0.40673 0.11253 0.0
H670 H 0.66694 0.38615 0.10387 0.0
H671 H 0.64184 0.39176 0.08343 0.0
H672 H 0.71606 0.45917 0.01663 0.0
H673 H 0.74335 0.42885 0.01234 0.0
H674 H 0.72196 0.39964 0.08312 0.0
C675 C 0.66422 0.47003 0.09311 0.0
C676 C 0.65859 0.49141 0.08119 0.0
C677 C 0.66753 0.49779 0.05793 0.0
C678 C 0.68216 0.48329 0.04668 0.0
C679 C 0.68775 0.4626 0.05897 0.0
C680 C 0.67914 0.45597 0.08166 0.0
C681 C 0.68931 0.43399 0.09121 0.0
C682 C 0.71383 0.44961 0.11146 0.0
C683 C 0.65944 0.40281 0.09816 0.0
C684 C 0.70526 0.42956 0.07038 0.0
C685 C 0.70382 0.44607 0.05194 0.0
C686 C 0.71725 0.44603 0.03091 0.0
C687 C 0.73272 0.42874 0.02866 0.0
C688 C 0.73482 0.41189 0.04739 0.0
C689 C 0.72074 0.41226 0.06848 0.0
H690 H 0.39692 0.85409 0.52323 0.0
H691 H 0.37412 0.90572 0.57266 0.0
H692 H 0.3404 0.85704 0.59381 0.0
H693 H 0.3181 0.78405 0.52162 0.0
H694 H 0.33352 0.75785 0.51923 0.0
H695 H 0.35653 0.79687 0.50819 0.0
H696 H 0.40657 0.80775 0.5333 0.0
H697 H 0.38376 0.76872 0.54438 0.0
H698 H 0.40233 0.80221 0.56388 0.0
H699 H 0.3091 0.80309 0.60947 0.0
H700 H 0.28173 0.74699 0.61862 0.0
H701 H 0.32436 0.72992 0.55892 0.0
C702 C 0.38508 0.85517 0.53863 0.0
C703 C 0.38808 0.88366 0.5463 0.0
C704 C 0.37186 0.88407 0.56635 0.0
C705 C 0.35279 0.85659 0.57853 0.0
C706 C 0.35012 0.82887 0.57042 0.0
C707 C 0.36578 0.82788 0.55095 0.0
C708 C 0.35836 0.79485 0.54574 0.0
C709 C 0.34056 0.78269 0.52231 0.0
C710 C 0.38962 0.7933 0.5469 0.0
C711 C 0.3361 0.77745 0.56534 0.0
C712 C 0.33177 0.79757 0.57939 0.0
C713 C 0.31231 0.78708 0.59861 0.0
C714 C 0.29686 0.75515 0.60366 0.0
C715 C 0.30085 0.73401 0.5895 0.0
C716 C 0.32075 0.74544 0.57007 0.0
H717 H 0.63735 0.45049 0.70343 0.0
H718 H 0.54087 0.39323 0.67215 0.0
H719 H 0.53907 0.34544 0.68529 0.0
H720 H 0.66612 0.39729 0.68981 0.0
H721 H 0.68863 0.40507 0.7166 0.0
H722 H 0.68276 0.43493 0.70429 0.0
H723 H 0.65711 0.43915 0.74206 0.0
H724 H 0.66282 0.40927 0.75446 0.0
H725 H 0.62283 0.40442 0.75334 0.0
H726 H 0.54695 0.30414 0.70226 0.0
H727 H 0.56412 0.27138 0.72213 0.0
H728 H 0.65577 0.35503 0.74243 0.0
C729 C 0.61601 0.42786 0.6992 0.0
C730 C 0.58914 0.42553 0.68693 0.0
C731 C 0.5615 0.39554 0.68186 0.0
C732 C 0.56032 0.36827 0.68911 0.0
C733 C 0.58702 0.37136 0.70137 0.0
C734 C 0.61438 0.40031 0.70637 0.0
C735 C 0.63943 0.39695 0.72022 0.0
C736 C 0.67111 0.40929 0.70693 0.0
C737 C 0.64591 0.41342 0.74392 0.0
C738 C 0.62173 0.3616 0.7223 0.0
C739 C 0.59159 0.34735 0.71123 0.0
C740 C 0.57053 0.31497 0.71095 0.0
C741 C 0.58051 0.29658 0.72233 0.0
C742 C 0.61128 0.31062 0.73387 0.0
C743 C 0.63213 0.34358 0.73376 0.0
H744 H 0.21531 0.53918 0.87703 0.0
H745 H 0.19091 0.44785 0.84927 0.0
H746 H 0.24795 0.46214 0.85459 0.0
H747 H 0.2865 0.58095 0.84753 0.0
H748 H 0.30898 0.60981 0.87002 0.0
H749 H 0.26529 0.59052 0.86841 0.0
H750 H 0.26206 0.57223 0.91031 0.0
H751 H 0.30588 0.59157 0.91205 0.0
H752 H 0.28124 0.55042 0.91812 0.0
H753 H 0.30804 0.48822 0.85774 0.0
H754 H 0.36738 0.52478 0.8579 0.0
H755 H 0.3535 0.60005 0.88217 0.0
C756 C 0.22182 0.52198 0.87239 0.0
C757 C 0.1984 0.49224 0.86297 0.0
C758 C 0.20807 0.47047 0.8571 0.0
C759 C 0.24052 0.47841 0.85996 0.0
C760 C 0.26307 0.50818 0.86873 0.0
C761 C 0.25418 0.52963 0.87493 0.0
C762 C 0.2837 0.56119 0.88152 0.0
C763 C 0.28626 0.58713 0.86593 0.0
C764 C 0.28318 0.56932 0.90702 0.0
C765 C 0.3106 0.55444 0.8771 0.0
C766 C 0.29813 0.52357 0.87016 0.0
C767 C 0.31816 0.51233 0.8635 0.0
C768 C 0.35185 0.53335 0.86356 0.0
C769 C 0.36514 0.56532 0.87004 0.0
C770 C 0.34417 0.57571 0.87736 0.0
H771 H 0.57036 0.15114 0.02819 0.0
H772 H 0.58164 0.09059 0.07565 0.0
H773 H 0.63092 0.13642 0.09259 0.0
H774 H 0.65075 0.19838 0.01616 0.0
H775 H 0.651 0.23472 0.01491 0.0
H776 H 0.61387 0.19813 0.00888 0.0
H777 H 0.58483 0.21114 0.04053 0.0
H778 H 0.62194 0.24798 0.04661 0.0
H779 H 0.60201 0.22072 0.06933 0.0
H780 H 0.68349 0.1864 0.09952 0.0
H781 H 0.73412 0.23827 0.09768 0.0
H782 H 0.68734 0.26758 0.04796 0.0
C783 C 0.58259 0.14771 0.04266 0.0
C784 C 0.57232 0.11729 0.05048 0.0
C785 C 0.58937 0.11365 0.06914 0.0
C786 C 0.61722 0.13956 0.07902 0.0
C787 C 0.62742 0.1691 0.07036 0.0
C788 C 0.61036 0.17343 0.05286 0.0
C789 C 0.62803 0.20727 0.04548 0.0
C790 C 0.63641 0.20974 0.01985 0.0
C791 C 0.608 0.22269 0.05081 0.0
C792 C 0.65835 0.22087 0.0608 0.0
C793 C 0.6574 0.1985 0.07516 0.0
C794 C 0.68418 0.20442 0.08889 0.0
C795 C 0.71284 0.23383 0.08769 0.0
C796 C 0.71429 0.25698 0.07306 0.0
C797 C 0.68646 0.2506 0.05987 0.0
H798 H 0.51506 0.67034 0.18246 0.0
H799 H 0.61933 0.72252 0.19695 0.0
H800 H 0.61504 0.76627 0.21334 0.0
H801 H 0.50768 0.7335 0.16569 0.0
H802 H 0.46898 0.71995 0.17891 0.0
H803 H 0.4801 0.69213 0.1696 0.0
H804 H 0.47119 0.66991 0.21066 0.0
H805 H 0.45992 0.69765 0.22008 0.0
H806 H 0.49244 0.6961 0.2348 0.0
H807 H 0.59972 0.80607 0.22538 0.0
H808 H 0.57416 0.83764 0.23306 0.0
H809 H 0.47991 0.75763 0.2125 0.0
C810 C 0.53693 0.69061 0.18954 0.0
C811 C 0.56754 0.69297 0.1883 0.0
C812 C 0.59564 0.72032 0.19733 0.0
C813 C 0.59344 0.74521 0.20687 0.0
C814 C 0.56291 0.74223 0.20753 0.0
C815 C 0.53513 0.71548 0.1993 0.0
C816 C 0.5054 0.71846 0.20125 0.0
C817 C 0.48964 0.71587 0.17745 0.0
C818 C 0.48079 0.69409 0.21768 0.0
C819 C 0.52088 0.75133 0.21142 0.0
C820 C 0.55404 0.76472 0.21499 0.0
C821 C 0.57368 0.79567 0.22297 0.0
C822 C 0.55898 0.81344 0.22724 0.0
C823 C 0.52501 0.80008 0.22358 0.0
C824 C 0.50586 0.76848 0.21585 0.0
H825 H 0.87299 0.43477 0.35444 0.0
H826 H 0.93825 0.51914 0.3944 0.0
H827 H 0.89108 0.52017 0.40973 0.0
H828 H 0.82058 0.45642 0.33677 0.0
H829 H 0.78355 0.41882 0.33867 0.0
H830 H 0.82161 0.42072 0.33454 0.0
H831 H 0.81262 0.38796 0.37091 0.0
H832 H 0.77421 0.38569 0.37508 0.0
H833 H 0.80474 0.40078 0.39788 0.0
H834 H 0.83886 0.51874 0.41389 0.0
H835 H 0.78445 0.51248 0.40878 0.0
H836 H 0.75212 0.4271 0.36847 0.0
C837 C 0.87727 0.45266 0.36717 0.0
C838 C 0.90923 0.47692 0.37317 0.0
C839 C 0.91392 0.50049 0.38939 0.0
C840 C 0.88728 0.50113 0.39834 0.0
C841 C 0.85607 0.47768 0.39126 0.0
C842 C 0.85087 0.4535 0.37639 0.0
C843 C 0.81514 0.43314 0.36961 0.0
C844 C 0.80995 0.43226 0.34335 0.0
C845 C 0.80083 0.39992 0.37893 0.0
C846 C 0.80145 0.45079 0.38184 0.0
C847 C 0.82539 0.47619 0.39448 0.0
C848 C 0.81963 0.49836 0.40472 0.0
C849 C 0.78876 0.49473 0.40165 0.0
C850 C 0.76406 0.46901 0.38863 0.0
C851 C 0.77029 0.44638 0.37916 0.0
H852 H 0.07992 0.50861 0.44586 0.0
H853 H 0.13226 0.59736 0.41094 0.0
H854 H 0.1697 0.62073 0.44441 0.0
H855 H 0.08938 0.54012 0.50403 0.0
H856 H 0.0957 0.51056 0.51641 0.0
H857 H 0.07097 0.50164 0.4906 0.0
H858 H 0.10742 0.48495 0.46984 0.0
H859 H 0.13231 0.49391 0.49553 0.0
H860 H 0.15073 0.51212 0.46893 0.0
H861 H 0.20277 0.63423 0.48145 0.0
H862 H 0.22992 0.6358 0.51838 0.0
H863 H 0.15847 0.53729 0.52753 0.0
C864 C 0.09911 0.533 0.44522 0.0
C865 C 0.10258 0.55118 0.42579 0.0
C866 C 0.12822 0.58307 0.42582 0.0
C867 C 0.14991 0.59656 0.4447 0.0
C868 C 0.14593 0.57786 0.46342 0.0
C869 C 0.12126 0.54674 0.46378 0.0
C870 C 0.12345 0.53123 0.48539 0.0
C871 C 0.09307 0.52025 0.49997 0.0
C872 C 0.12881 0.50395 0.47956 0.0
C873 C 0.15338 0.55842 0.49701 0.0
C874 C 0.16579 0.58523 0.48423 0.0
C875 C 0.19328 0.61336 0.4916 0.0
C876 C 0.20853 0.61404 0.51259 0.0
C877 C 0.19649 0.58664 0.52576 0.0
C878 C 0.1685 0.55857 0.51777 0.0
H879 H 0.50946 0.04395 0.62043 0.0
H880 H 0.47861 0.10453 0.59068 0.0
H881 H 0.50012 0.13936 0.6249 0.0
H882 H 0.49528 0.05457 0.68068 0.0
H883 H 0.53139 0.0553 0.69089 0.0
H884 H 0.5102 0.03303 0.6652 0.0
H885 H 0.56355 0.06333 0.64259 0.0
H886 H 0.58484 0.08583 0.66814 0.0
H887 H 0.58489 0.1056 0.64239 0.0
H888 H 0.52791 0.16954 0.66102 0.0
H889 H 0.56025 0.19312 0.69673 0.0
H890 H 0.57587 0.1147 0.7023 0.0
C891 C 0.50689 0.06434 0.62118 0.0
C892 C 0.49174 0.07105 0.60292 0.0
C893 C 0.48909 0.09816 0.60466 0.0
C894 C 0.50155 0.11834 0.62397 0.0
C895 C 0.5168 0.1113 0.64141 0.0
C896 C 0.51951 0.08496 0.64025 0.0
C897 C 0.53883 0.08388 0.66071 0.0
C898 C 0.51765 0.05498 0.67523 0.0
C899 C 0.56987 0.08472 0.65299 0.0
C900 C 0.54691 0.11396 0.67338 0.0
C901 C 0.53371 0.12924 0.66203 0.0
C902 C 0.53823 0.15772 0.67015 0.0
C903 C 0.5567 0.17094 0.69046 0.0
C904 C 0.57068 0.15582 0.70239 0.0
C905 C 0.5656 0.12691 0.69363 0.0
H906 H 0.54696 0.60159 0.73897 0.0
H907 H 0.58809 0.6926 0.70793 0.0
H908 H 0.58821 0.71629 0.74583 0.0
H909 H 0.4926 0.60689 0.77302 0.0
H910 H 0.497 0.58668 0.79701 0.0
H911 H 0.50535 0.57886 0.76854 0.0
H912 H 0.56303 0.59298 0.78235 0.0
H913 H 0.55513 0.60133 0.81095 0.0
H914 H 0.59008 0.63065 0.79596 0.0
H915 H 0.57591 0.72776 0.78587 0.0
H916 H 0.54971 0.72522 0.82277 0.0
H917 H 0.51912 0.62696 0.82735 0.0
C918 C 0.55629 0.62659 0.74025 0.0
C919 C 0.5671 0.64534 0.72069 0.0
C920 C 0.5796 0.67797 0.72287 0.0
C921 C 0.57995 0.69156 0.7443 0.0
C922 C 0.56848 0.67222 0.7633 0.0
C923 C 0.55714 0.64044 0.76142 0.0
C924 C 0.54335 0.62404 0.78367 0.0
C925 C 0.50746 0.59759 0.78035 0.0
C926 C 0.56417 0.61153 0.79385 0.0
C927 C 0.5467 0.65109 0.79805 0.0
C928 C 0.56198 0.67892 0.78631 0.0
C929 C 0.56458 0.70627 0.79539 0.0
C930 C 0.54978 0.70467 0.81643 0.0
C931 C 0.53229 0.67581 0.82782 0.0
C932 C 0.53227 0.64928 0.81903 0.0
H933 H 0.90327 0.36412 0.91348 0.0
H934 H 0.98081 0.461 0.92468 0.0
H935 H 0.96525 0.4587 0.96504 0.0
H936 H 0.84517 0.36733 0.94598 0.0
H937 H 0.82815 0.32878 0.95775 0.0
H938 H 0.84775 0.33706 0.9305 0.0
H939 H 0.8865 0.31911 0.94593 0.0
H940 H 0.86712 0.31104 0.97338 0.0
H941 H 0.91055 0.33722 0.9718 0.0
H942 H 0.93659 0.44865 0.00206 0.0
H943 H 0.89676 0.43102 0.03321 0.0
H944 H 0.84065 0.33947 -0.00031 0.0
C945 C 0.91734 0.38464 0.92454 0.0
C946 C 0.9429 0.41288 0.91578 0.0
C947 C 0.96054 0.43933 0.9308 0.0
C948 C 0.95222 0.43814 0.95387 0.0
C949 C 0.92653 0.41016 0.96186 0.0
C950 C 0.90951 0.38378 0.94773 0.0
C951 C 0.8815 0.35734 0.96023 0.0
C952 C 0.84872 0.34705 0.94788 0.0
C953 C 0.88675 0.32953 0.963 0.0
C954 C 0.88451 0.37348 0.98319 0.0
C955 C 0.91092 0.40385 0.98386 0.0
C956 C 0.91641 0.42465 0.00208 0.0
C957 C 0.89375 0.41447 0.0197 0.0
C958 C 0.86626 0.38371 0.01907 0.0
C959 C 0.86222 0.36269 0.001 0.0
H960 H 0.51467 0.00011 0.12657 0.0
H961 H 0.41689 0.9846 0.12471 0.0
H962 H 0.40924 0.96623 0.16422 0.0
H963 H 0.49397 0.93239 0.14489 0.0
H964 H 0.52853 0.94216 0.1635 0.0
H965 H 0.53288 0.9674 0.14048 0.0
H966 H 0.55347 0.01444 0.16916 0.0
H967 H 0.54942 0.98921 0.19248 0.0
H968 H 0.52937 0.0115 0.19357 0.0
H969 H 0.40439 0.9338 0.1966 0.0
H970 H 0.40259 0.89041 0.21764 0.0
H971 H 0.5018 0.92226 0.19844 0.0
C972 C 0.49213 0.99399 0.13485 0.0
C973 C 0.46637 0.99361 0.12241 0.0
C974 C 0.43729 0.98565 0.13385 0.0
C975 C 0.43268 0.97506 0.15643 0.0
C976 C 0.45735 0.97264 0.16743 0.0
C977 C 0.48685 0.98239 0.15712 0.0
C978 C 0.50626 0.9707 0.16986 0.0
C979 C 0.5159 0.95204 0.15372 0.0
C980 C 0.53642 0.9981 0.182 0.0
C981 C 0.48151 0.94984 0.18716 0.0
C982 C 0.45416 0.95257 0.18629 0.0
C983 C 0.42603 0.93216 0.19798 0.0
C984 C 0.42515 0.9074 0.20981 0.0
C985 C 0.45206 0.90299 0.20957 0.0
C986 C 0.48111 0.92546 0.1992 0.0
H987 H 0.56322 0.50728 0.2436 0.0
H988 H 0.62086 0.60251 0.27102 0.0
H989 H 0.63198 0.58246 0.30654 0.0
H990 H 0.53046 0.46744 0.30017 0.0
H991 H 0.53378 0.4344 0.2911 0.0
H992 H 0.52481 0.4556 0.27024 0.0
H993 H 0.57453 0.46483 0.24674 0.0
H994 H 0.58371 0.44392 0.26753 0.0
H995 H 0.61424 0.48353 0.26066 0.0
H996 H 0.64448 0.55333 0.33544 0.0
H997 H 0.65682 0.5174 0.35589 0.0
H998 H 0.59065 0.44095 0.30981 0.0
C999 C 0.57688 0.5238 0.25752 0.0
C1000 C 0.59077 0.5564 0.25476 0.0
C1001 C 0.60984 0.57743 0.27291 0.0
C1002 C 0.6161 0.56622 0.29315 0.0
C1003 C 0.60291 0.53396 0.29499 0.0
C1004 C 0.58337 0.51301 0.27774 0.0
C1005 C 0.57562 0.48002 0.28253 0.0
C1006 C 0.53899 0.45807 0.28623 0.0
C1007 C 0.58775 0.46735 0.26322 0.0
C1008 C 0.59509 0.48588 0.30464 0.0
C1009 C 0.61025 0.51705 0.31172 0.0
C1010 C 0.63227 0.52879 0.33031 0.0
C1011 C 0.63946 0.5083 0.34164 0.0
C1012 C 0.62479 0.47655 0.33428 0.0
C1013 C 0.60165 0.46502 0.316 0.0
H1014 H 0.5014 0.94443 0.39526 0.0
H1015 H 0.40815 0.86667 0.41576 0.0
H1016 H 0.40429 0.83798 0.37956 0.0
H1017 H 0.48066 0.94261 0.33776 0.0
H1018 H 0.51991 0.95268 0.32699 0.0
H1019 H 0.51692 0.96535 0.35544 0.0
H1020 H 0.54641 0.93861 0.37263 0.0
H1021 H 0.54987 0.92595 0.34421 0.0
H1022 H 0.53078 0.89759 0.36642 0.0
H1023 H 0.40924 0.81974 0.33981 0.0
H1024 H 0.4216 0.81394 0.29965 0.0
H1025 H 0.51193 0.90402 0.30595 0.0
C1026 C 0.4806 0.92096 0.39249 0.0
C1027 C 0.4553 0.90751 0.40846 0.0
C1028 C 0.42785 0.8773 0.40376 0.0
C1029 C 0.42555 0.86082 0.38334 0.0
C1030 C 0.45091 0.87493 0.36788 0.0
C1031 C 0.47793 0.90432 0.37229 0.0
C1032 C 0.50078 0.91539 0.35231 0.0
C1033 C 0.50477 0.94579 0.34254 0.0
C1034 C 0.53392 0.91962 0.35931 0.0
C1035 C 0.48216 0.88788 0.33571 0.0
C1036 C 0.45361 0.86463 0.34504 0.0
C1037 C 0.4317 0.83764 0.33244 0.0
C1038 C 0.43895 0.83458 0.30962 0.0
C1039 C 0.46783 0.85847 0.2996 0.0
C1040 C 0.48984 0.88515 0.31308 0.0
H1041 H 0.59501 0.54765 0.50311 0.0
H1042 H 0.55059 0.458 0.53702 0.0
H1043 H 0.56743 0.43626 0.50563 0.0
H1044 H 0.57711 0.51685 0.44387 0.0
H1045 H 0.6158 0.54757 0.43382 0.0
H1046 H 0.5972 0.55508 0.45781 0.0
H1047 H 0.6496 0.57319 0.48257 0.0
H1048 H 0.66822 0.56537 0.45878 0.0
H1049 H 0.66496 0.54707 0.48594 0.0
H1050 H 0.59168 0.42496 0.47175 0.0
H1051 H 0.62071 0.42466 0.43715 0.0
H1052 H 0.65179 0.52241 0.42641 0.0
C1053 C 0.58846 0.52334 0.50381 0.0
C1054 C 0.57104 0.50448 0.52243 0.0
C1055 C 0.56308 0.47276 0.52267 0.0
C1056 C 0.57283 0.46022 0.50501 0.0
C1057 C 0.59062 0.47968 0.48724 0.0
C1058 C 0.59824 0.51051 0.48643 0.0
C1059 C 0.61902 0.52686 0.466 0.0
C1060 C 0.60121 0.53719 0.44939 0.0
C1061 C 0.65243 0.55476 0.4738 0.0
C1062 C 0.62216 0.50049 0.45562 0.0
C1063 C 0.60543 0.47343 0.46805 0.0
C1064 C 0.60479 0.44597 0.46182 0.0
C1065 C 0.62141 0.44606 0.44217 0.0
C1066 C 0.63864 0.47353 0.4291 0.0
C1067 C 0.6391 0.5011 0.4361 0.0
H1068 H 0.08446 0.52859 0.71478 0.0
H1069 H 0.04381 0.43542 0.68412 0.0
H1070 H 0.07672 0.45864 0.6497 0.0
H1071 H 0.09073 0.5702 0.66003 0.0
H1072 H 0.12849 0.60424 0.66975 0.0
H1073 H 0.0981 0.58054 0.69024 0.0
H1074 H 0.14093 0.57344 0.71275 0.0
H1075 H 0.17129 0.59677 0.69227 0.0
H1076 H 0.16233 0.55759 0.69797 0.0
H1077 H 0.12023 0.49121 0.62172 0.0
H1078 H 0.16851 0.53097 0.60125 0.0
H1079 H 0.17871 0.60299 0.64931 0.0
C1080 C 0.08134 0.51309 0.70046 0.0
C1081 C 0.06132 0.48017 0.70209 0.0
C1082 C 0.05904 0.4607 0.68328 0.0
C1083 C 0.07751 0.47369 0.66361 0.0
C1084 C 0.09781 0.50619 0.66292 0.0
C1085 C 0.09943 0.52567 0.68072 0.0
C1086 C 0.12519 0.55954 0.67671 0.0
C1087 C 0.10969 0.57983 0.67402 0.0
C1088 C 0.15148 0.57258 0.69607 0.0
C1089 C 0.13859 0.556 0.65424 0.0
C1090 C 0.12241 0.52507 0.6465 0.0
C1091 C 0.13261 0.51559 0.62733 0.0
C1092 C 0.16021 0.53825 0.61593 0.0
C1093 C 0.17709 0.56997 0.62367 0.0
C1094 C 0.16571 0.57899 0.64275 0.0
H1095 H 0.49663 0.09982 0.90442 0.0
H1096 H 0.54369 0.04509 0.8998 0.0
H1097 H 0.56582 0.0682 0.86236 0.0
H1098 H 0.47495 0.09389 0.84301 0.0
H1099 H 0.48264 0.13339 0.84236 0.0
H1100 H 0.4691 0.11145 0.86839 0.0
H1101 H 0.51941 0.15587 0.89068 0.0
H1102 H 0.53296 0.17797 0.86479 0.0
H1103 H 0.55965 0.16878 0.88044 0.0
H1104 H 0.58574 0.0995 0.82696 0.0
H1105 H 0.60297 0.13783 0.79606 0.0
H1106 H 0.5411 0.17062 0.82248 0.0
C1107 C 0.51125 0.09242 0.8954 0.0
C1108 C 0.5187 0.0709 0.90515 0.0
C1109 C 0.53824 0.06206 0.89291 0.0
C1110 C 0.5506 0.07475 0.8715 0.0
C1111 C 0.54293 0.09599 0.86244 0.0
C1112 C 0.52367 0.10474 0.87393 0.0
C1113 C 0.52025 0.12901 0.86077 0.0
C1114 C 0.48461 0.11615 0.85318 0.0
C1115 C 0.53389 0.15972 0.87502 0.0
C1116 C 0.54125 0.13307 0.84038 0.0
C1117 C 0.55388 0.11362 0.84161 0.0
C1118 C 0.57567 0.11457 0.8256 0.0
C1119 C 0.58537 0.13648 0.80812 0.0
C1120 C 0.57319 0.15703 0.80675 0.0
C1121 C 0.5503 0.15476 0.82282 0.0
H1122 H 0.5365 0.65299 0.03712 0.0
H1123 H 0.5105 0.55554 0.0389 0.0
H1124 H 0.49699 0.54936 0.99748 0.0
H1125 H 0.47142 0.63953 0.99635 0.0
H1126 H 0.4961 0.67596 0.98191 0.0
H1127 H 0.50385 0.67294 0.01187 0.0
H1128 H 0.56384 0.6911 0.00305 0.0
H1129 H 0.55619 0.69389 0.97303 0.0
H1130 H 0.57241 0.66983 0.98174 0.0
H1131 H 0.48912 0.55403 0.95608 0.0
H1132 H 0.48108 0.56744 0.91702 0.0
H1133 H 0.50885 0.66117 0.94145 0.0
C1134 C 0.52763 0.63034 0.02874 0.0
C1135 C 0.52428 0.60466 0.04118 0.0
C1136 C 0.51275 0.57536 0.02973 0.0
C1137 C 0.50525 0.57167 0.00619 0.0
C1138 C 0.50902 0.59741 0.99436 0.0
C1139 C 0.51937 0.62604 0.00521 0.0
C1140 C 0.52045 0.64955 0.98833 0.0
C1141 C 0.49652 0.66011 0.99502 0.0
C1142 C 0.5553 0.67776 0.98643 0.0
C1143 C 0.50933 0.62965 0.96636 0.0
C1144 C 0.50328 0.59979 0.97029 0.0
C1145 C 0.49351 0.57725 0.95275 0.0
C1146 C 0.4892 0.5852 0.93058 0.0
C1147 C 0.49428 0.61535 0.92613 0.0
C1148 C 0.50466 0.6379 0.94431 0.0
H1149 H 0.90381 0.38773 0.22781 0.0
H1150 H 0.92372 0.48356 0.2259 0.0
H1151 H 0.89271 0.47105 0.18956 0.0
H1152 H 0.91951 0.38483 0.1692 0.0
H1153 H 0.88911 0.3439 0.16489 0.0
H1154 H 0.90799 0.35838 0.19284 0.0
H1155 H 0.85121 0.33668 0.21057 0.0
H1156 H 0.83209 0.32206 0.18265 0.0
H1157 H 0.82382 0.34814 0.199 0.0
H1158 H 0.86218 0.44944 0.15205 0.0
H1159 H 0.83822 0.42144 0.11504 0.0
H1160 H 0.84421 0.34215 0.13889 0.0
C1161 C 0.9018 0.40628 0.21997 0.0
C1162 C 0.91617 0.43664 0.23039 0.0
C1163 C 0.91224 0.45976 0.21914 0.0
C1164 C 0.89483 0.45301 0.19819 0.0
C1165 C 0.88179 0.42317 0.18829 0.0
C1166 C 0.88532 0.40026 0.19869 0.0
C1167 C 0.87186 0.37113 0.18333 0.0
C1168 C 0.89872 0.36417 0.1772 0.0
C1169 C 0.84303 0.34283 0.19456 0.0
C1170 C 0.8607 0.38148 0.16253 0.0
C1171 C 0.86603 0.41134 0.16596 0.0
C1172 C 0.85785 0.42602 0.14918 0.0
C1173 C 0.8442 0.40991 0.12823 0.0
C1174 C 0.83947 0.37968 0.12404 0.0
C1175 C 0.84769 0.3653 0.14154 0.0
loop_
_geom_bond_atom_site_label_1
_geom_bond_atom_site_label_2
_geom_bond_distance
_geom_bond_site_symmetry_2
_ccdc_geom_bond_type
H0 O26 0.856 . S
H1 O29 0.854 . S
H2 C37 0.930 1_455 S
H3 C38 0.930 . S
H4 C40 0.930 . S
H5 C41 0.930 . S
H6 C43 0.931 . S
H7 C44 0.930 . S
H8 C46 0.930 . S
H9 C47 0.929 . S
H10 C49 0.930 . S
H11 C50 0.931 . S
H12 C52 0.930 . S
H13 C53 0.929 . S
H14 C55 0.931 . S
H15 C56 0.930 . S
H16 C58 0.930 . S
H17 C59 0.932 . S
H18 C61 0.930 . S
H19 C62 0.929 . S
H20 C64 0.931 . S
H21 C65 0.930 . S
H22 C67 0.929 . S
H23 C68 0.931 . S
H24 C70 0.930 . S
H25 C71 0.936 . S
O26 H0 0.856 . S
O26 C72 1.300 . S
O27 C72 1.209 . S
O28 C73 1.199 . S
O29 H1 0.854 . S
O29 C73 1.297 . S
C30 C31 1.404 . S
C30 C35 1.397 . S
C30 C36 1.492 . S
C31 C30 1.404 . S
C31 C32 1.396 . S
C31 C42 1.492 . S
C32 C31 1.396 . S
C32 C33 1.397 . S
C32 C48 1.509 . S
C33 C32 1.397 . S
C33 C34 1.412 . S
C33 C54 1.485 . S
C34 C33 1.412 . S
C34 C35 1.388 . S
C34 C60 1.490 . S
C35 C30 1.397 . S
C35 C34 1.388 . S
C35 C66 1.519 1_455 S
C36 C30 1.492 . S
C36 C37 1.363 1_455 S
C36 C41 1.390 1_455 S
C37 H2 0.930 1_655 S
C37 C36 1.363 1_655 S
C37 C38 1.372 . S
C38 H3 0.930 . S
C38 C37 1.372 . S
C38 C39 1.383 . S
C39 C38 1.383 . S
C39 C40 1.395 . S
C40 H4 0.930 . S
C40 C39 1.395 . S
C40 C41 1.362 . S
C41 H5 0.930 . S
C41 C36 1.390 1_655 S
C41 C40 1.362 . S
C42 C31 1.492 . S
C42 C43 1.377 . S
C42 C47 1.397 . S
C43 H6 0.931 . S
C43 C42 1.377 . S
C43 C44 1.376 . S
C44 H7 0.930 . S
C44 C43 1.376 . S
C44 C45 1.376 . S
C45 C44 1.376 . S
C45 C46 1.378 . S
C45 C72 1.486 . S
C46 H8 0.930 . S
C46 C45 1.378 . S
C46 C47 1.376 . S
C47 H9 0.929 . S
C47 C42 1.397 . S
C47 C46 1.376 . S
C48 C32 1.509 . S
C48 C49 1.391 . S
C48 C53 1.386 . S
C49 H10 0.930 . S
C49 C48 1.391 . S
C49 C50 1.375 . S
C50 H11 0.931 . S
C50 C49 1.375 . S
C50 C51 1.375 . S
C51 C50 1.375 . S
C51 C52 1.361 . S
C52 H12 0.930 . S
C52 C51 1.361 . S
C52 C53 1.399 . S
C53 H13 0.929 . S
C53 C48 1.386 . S
C53 C52 1.399 . S
C54 C33 1.485 . S
C54 C55 1.394 . S
C54 C59 1.360 . S
C55 H14 0.931 . S
C55 C54 1.394 . S
C55 C56 1.372 . S
C56 H15 0.930 . S
C56 C55 1.372 . S
C56 C57 1.397 . S
C57 C56 1.397 . S
C57 C58 1.390 . S
C57 C73 1.476 . S
C58 H16 0.930 . S
C58 C57 1.390 . S
C58 C59 1.366 . S
C59 H17 0.932 . S
C59 C54 1.360 . S
C59 C58 1.366 . S
C60 C34 1.490 . S
C60 C61 1.380 . S
C60 C65 1.386 . S
C61 H18 0.930 . S
C61 C60 1.380 . S
C61 C62 1.381 . S
C62 H19 0.929 . S
C62 C61 1.381 . S
C62 C63 1.371 . S
C63 C62 1.371 . S
C63 C64 1.380 . S
C64 H20 0.931 . S
C64 C63 1.380 . S
C64 C65 1.387 . S
C65 H21 0.930 . S
C65 C60 1.386 . S
C65 C64 1.387 . S
C66 C35 1.519 1_655 S
C66 C67 1.377 . S
C66 C71 1.361 . S
C67 H22 0.929 . S
C67 C66 1.377 . S
C67 C68 1.386 . S
C68 H23 0.931 . S
C68 C67 1.386 . S
C68 C69 1.363 . S
C69 C68 1.363 . S
C69 C70 1.385 . S
C70 H24 0.930 . S
C70 C69 1.385 . S
C70 C71 1.396 . S
C71 H25 0.936 . S
C71 C66 1.361 . S
C71 C70 1.396 . S
C72 O26 1.300 . S
C72 O27 1.209 . S
C72 C45 1.486 . S
C73 O28 1.199 . S
C73 O29 1.297 . S
C73 C57 1.476 . S
H74 O100 0.856 . S
H75 O103 0.854 . S
H76 C111 0.930 . S
H77 C112 0.930 . S
H78 C114 0.930 . S
H79 C115 0.930 . S
H80 C117 0.931 . S
H81 C118 0.930 . S
H82 C120 0.930 . S
H83 C121 0.929 . S
H84 C123 0.930 . S
H85 C124 0.931 . S
H86 C126 0.930 . S
H87 C127 0.929 . S
H88 C129 0.931 . S
H89 C130 0.930 . S
H90 C132 0.930 . S
H91 C133 0.932 . S
H92 C135 0.930 . S
H93 C136 0.929 . S
H94 C138 0.931 . S
H95 C139 0.930 . S
H96 C141 0.929 . S
H97 C142 0.931 . S
H98 C144 0.930 . S
H99 C145 0.929 . S
O100 H74 0.856 . S
O100 C146 1.300 . S
O101 C146 1.209 . S
O102 C147 1.199 . S
O103 H75 0.854 . S
O103 C147 1.297 . S
C104 C105 1.404 . S
C104 C109 1.397 . S
C104 C110 1.492 . S
C105 C104 1.404 . S
C105 C106 1.396 . S
C105 C116 1.492 . S
C106 C105 1.396 . S
C106 C107 1.397 . S
C106 C122 1.509 . S
C107 C106 1.397 . S
C107 C108 1.412 . S
C107 C128 1.485 . S
C108 C107 1.412 . S
C108 C109 1.388 . S
C108 C134 1.490 . S
C109 C104 1.397 . S
C109 C108 1.388 . S
C109 C140 1.519 1_545 S
C110 C104 1.492 . S
C110 C111 1.363 . S
C110 C115 1.390 1_545 S
C111 H76 0.930 . S
C111 C110 1.363 . S
C111 C112 1.372 1_545 S
C112 H77 0.930 . S
C112 C111 1.372 1_565 S
C112 C113 1.383 . S
C113 C112 1.383 . S
C113 C114 1.395 . S
C114 H78 0.930 . S
C114 C113 1.395 . S
C114 C115 1.362 . S
C115 H79 0.930 . S
C115 C110 1.390 1_565 S
C115 C114 1.362 . S
C116 C105 1.492 . S
C116 C117 1.377 . S
C116 C121 1.397 . S
C117 H80 0.931 . S
C117 C116 1.377 . S
C117 C118 1.376 . S
C118 H81 0.930 . S
C118 C117 1.376 . S
C118 C119 1.376 . S
C119 C118 1.376 . S
C119 C120 1.378 . S
C119 C146 1.486 . S
C120 H82 0.930 . S
C120 C119 1.378 . S
C120 C121 1.376 . S
C121 H83 0.929 . S
C121 C116 1.397 . S
C121 C120 1.376 . S
C122 C106 1.509 . S
C122 C123 1.391 . S
C122 C127 1.386 . S
C123 H84 0.930 . S
C123 C122 1.391 . S
C123 C124 1.375 . S
C124 H85 0.931 . S
C124 C123 1.375 . S
C124 C125 1.375 . S
C125 C124 1.375 . S
C125 C126 1.361 . S
C126 H86 0.930 . S
C126 C125 1.361 . S
C126 C127 1.399 . S
C127 H87 0.929 . S
C127 C122 1.386 . S
C127 C126 1.399 . S
C128 C107 1.485 . S
C128 C129 1.394 . S
C128 C133 1.360 . S
C129 H88 0.931 . S
C129 C128 1.394 . S
C129 C130 1.372 . S
C130 H89 0.930 . S
C130 C129 1.372 . S
C130 C131 1.397 . S
C131 C130 1.397 . S
C131 C132 1.390 . S
C131 C147 1.476 . S
C132 H90 0.930 . S
C132 C131 1.390 . S
C132 C133 1.366 . S
C133 H91 0.932 . S
C133 C128 1.360 . S
C133 C132 1.366 . S
C134 C108 1.490 . S
C134 C135 1.380 . S
C134 C139 1.386 . S
C135 H92 0.930 . S
C135 C134 1.380 . S
C135 C136 1.381 . S
C136 H93 0.929 . S
C136 C135 1.381 . S
C136 C137 1.371 . S
C137 C136 1.371 . S
C137 C138 1.380 . S
C138 H94 0.931 . S
C138 C137 1.380 . S
C138 C139 1.387 . S
C139 H95 0.930 . S
C139 C134 1.386 . S
C139 C138 1.387 . S
C140 C109 1.519 1_565 S
C140 C141 1.377 . S
C140 C145 1.361 . S
C141 H96 0.929 . S
C141 C140 1.377 . S
C141 C142 1.386 . S
C142 H97 0.931 . S
C142 C141 1.386 . S
C142 C143 1.363 . S
C143 C142 1.363 . S
C143 C144 1.385 . S
C144 H98 0.930 . S
C144 C143 1.385 . S
C144 C145 1.396 . S
C145 H99 0.929 . S
C145 C140 1.361 . S
C145 C144 1.396 . S
C146 O100 1.300 . S
C146 O101 1.209 . S
C146 C119 1.486 . S
C147 O102 1.199 . S
C147 O103 1.297 . S
C147 C131 1.476 . S
H148 O174 0.856 . S
H149 O177 0.854 . S
H150 C185 0.930 . S
H151 C186 0.930 . S
H152 C188 0.930 . S
H153 C189 0.930 . S
H154 C191 0.931 . S
H155 C192 0.930 . S
H156 C194 0.930 . S
H157 C195 0.929 . S
H158 C197 0.930 . S
H159 C198 0.931 . S
H160 C200 0.930 . S
H161 C201 0.929 . S
H162 C203 0.931 . S
H163 C204 0.930 . S
H164 C206 0.930 . S
H165 C207 0.932 . S
H166 C209 0.930 . S
H167 C210 0.929 . S
H168 C212 0.931 . S
H169 C213 0.930 . S
H170 C215 0.929 . S
H171 C216 0.931 . S
H172 C218 0.930 . S
H173 C219 0.929 . S
O174 H148 0.856 . S
O174 C220 1.300 . S
O175 C220 1.209 . S
O176 C221 1.199 . S
O177 H149 0.854 . S
O177 C221 1.297 . S
C178 C179 1.404 . S
C178 C183 1.397 . S
C178 C184 1.492 . S
C179 C178 1.404 . S
C179 C180 1.396 . S
C179 C190 1.492 . S
C180 C179 1.396 . S
C180 C181 1.397 . S
C180 C196 1.509 . S
C181 C180 1.397 . S
C181 C182 1.412 . S
C181 C202 1.485 . S
C182 C181 1.412 . S
C182 C183 1.388 . S
C182 C208 1.490 . S
C183 C178 1.397 . S
C183 C182 1.388 . S
C183 C214 1.519 . S
C184 C178 1.492 . S
C184 C185 1.363 . S
C184 C189 1.390 . S
C185 H150 0.930 . S
C185 C184 1.363 . S
C185 C186 1.372 . S
C186 H151 0.930 . S
C186 C185 1.372 . S
C186 C187 1.383 . S
C187 C186 1.383 . S
C187 C188 1.395 . S
C188 H152 0.930 . S
C188 C187 1.395 . S
C188 C189 1.362 . S
C189 H153 0.930 . S
C189 C184 1.390 . S
C189 C188 1.362 . S
C190 C179 1.492 . S
C190 C191 1.377 . S
C190 C195 1.397 . S
C191 H154 0.931 . S
C191 C190 1.377 . S
C191 C192 1.376 . S
C192 H155 0.930 . S
C192 C191 1.376 . S
C192 C193 1.376 . S
C193 C192 1.376 . S
C193 C194 1.378 . S
C193 C220 1.486 . S
C194 H156 0.930 . S
C194 C193 1.378 . S
C194 C195 1.376 . S
C195 H157 0.929 . S
C195 C190 1.397 . S
C195 C194 1.376 . S
C196 C180 1.509 . S
C196 C197 1.391 . S
C196 C201 1.386 . S
C197 H158 0.930 . S
C197 C196 1.391 . S
C197 C198 1.375 . S
C198 H159 0.931 . S
C198 C197 1.375 . S
C198 C199 1.375 . S
C199 C198 1.375 . S
C199 C200 1.361 . S
C200 H160 0.930 . S
C200 C199 1.361 . S
C200 C201 1.399 . S
C201 H161 0.929 . S
C201 C196 1.386 . S
C201 C200 1.399 . S
C202 C181 1.485 . S
C202 C203 1.394 . S
C202 C207 1.360 . S
C203 H162 0.931 . S
C203 C202 1.394 . S
C203 C204 1.372 . S
C204 H163 0.930 . S
C204 C203 1.372 . S
C204 C205 1.397 . S
C205 C204 1.397 . S
C205 C206 1.390 . S
C205 C221 1.476 . S
C206 H164 0.930 . S
C206 C205 1.390 . S
C206 C207 1.366 . S
C207 H165 0.932 . S
C207 C202 1.360 . S
C207 C206 1.366 . S
C208 C182 1.490 . S
C208 C209 1.380 . S
C208 C213 1.386 . S
C209 H166 0.930 . S
C209 C208 1.380 . S
C209 C210 1.381 . S
C210 H167 0.929 . S
C210 C209 1.381 . S
C210 C211 1.371 . S
C211 C210 1.371 . S
C211 C212 1.380 . S
C212 H168 0.931 . S
C212 C211 1.380 . S
C212 C213 1.387 . S
C213 H169 0.930 . S
C213 C208 1.386 . S
C213 C212 1.387 . S
C214 C183 1.519 . S
C214 C215 1.377 . S
C214 C219 1.361 . S
C215 H170 0.929 . S
C215 C214 1.377 . S
C215 C216 1.386 . S
C216 H171 0.931 . S
C216 C215 1.386 . S
C216 C217 1.363 . S
C217 C216 1.363 . S
C217 C218 1.385 . S
C218 H172 0.930 . S
C218 C217 1.385 . S
C218 C219 1.396 . S
C219 H173 0.929 . S
C219 C214 1.361 . S
C219 C218 1.396 . S
C220 O174 1.300 . S
C220 O175 1.209 . S
C220 C193 1.486 . S
C221 O176 1.199 . S
C221 O177 1.297 . S
C221 C205 1.476 . S
H222 O248 0.856 . S
H223 O251 0.854 . S
H224 C259 0.930 1_455 S
H225 C260 0.930 . S
H226 C262 0.930 . S
H227 C263 0.930 . S
H228 C265 0.931 . S
H229 C266 0.930 . S
H230 C268 0.930 . S
H231 C269 0.929 . S
H232 C271 0.930 . S
H233 C272 0.931 . S
H234 C274 0.930 . S
H235 C275 0.929 . S
H236 C277 0.931 . S
H237 C278 0.930 . S
H238 C280 0.930 . S
H239 C281 0.932 . S
H240 C283 0.930 . S
H241 C284 0.929 . S
H242 C286 0.931 . S
H243 C287 0.930 . S
H244 C289 0.929 . S
H245 C290 0.931 . S
H246 C292 0.930 . S
H247 C293 0.929 . S
O248 H222 0.856 . S
O248 C294 1.300 . S
O249 C294 1.209 . S
O250 C295 1.199 . S
O251 H223 0.854 . S
O251 C295 1.297 . S
C252 C253 1.404 . S
C252 C257 1.397 . S
C252 C258 1.480 1_455 S
C253 C252 1.404 . S
C253 C254 1.396 . S
C253 C264 1.492 . S
C254 C253 1.396 . S
C254 C255 1.397 . S
C254 C270 1.509 . S
C255 C254 1.397 . S
C255 C256 1.412 . S
C255 C276 1.485 . S
C256 C255 1.412 . S
C256 C257 1.388 . S
C256 C282 1.490 . S
C257 C252 1.397 . S
C257 C256 1.388 . S
C257 C288 1.519 1_455 S
C258 C252 1.480 1_655 S
C258 C259 1.374 . S
C258 C263 1.393 . S
C259 H224 0.930 1_655 S
C259 C258 1.374 . S
C259 C260 1.372 . S
C260 H225 0.930 . S
C260 C259 1.372 . S
C260 C261 1.383 . S
C261 C260 1.383 . S
C261 C262 1.395 . S
C262 H226 0.930 . S
C262 C261 1.395 . S
C262 C263 1.362 . S
C263 H227 0.930 . S
C263 C258 1.393 . S
C263 C262 1.362 . S
C264 C253 1.492 . S
C264 C265 1.377 . S
C264 C269 1.397 . S
C265 H228 0.931 . S
C265 C264 1.377 . S
C265 C266 1.376 . S
C266 H229 0.930 . S
C266 C265 1.376 . S
C266 C267 1.376 . S
C267 C266 1.376 . S
C267 C268 1.378 . S
C267 C294 1.486 . S
C268 H230 0.930 . S
C268 C267 1.378 . S
C268 C269 1.376 . S
C269 H231 0.929 . S
C269 C264 1.397 . S
C269 C268 1.376 . S
C270 C254 1.509 . S
C270 C271 1.391 . S
C270 C275 1.386 . S
C271 H232 0.930 . S
C271 C270 1.391 . S
C271 C272 1.375 . S
C272 H233 0.931 . S
C272 C271 1.375 . S
C272 C273 1.375 . S
C273 C272 1.375 . S
C273 C274 1.361 . S
C274 H234 0.930 . S
C274 C273 1.361 . S
C274 C275 1.399 . S
C275 H235 0.929 . S
C275 C270 1.386 . S
C275 C274 1.399 . S
C276 C255 1.485 . S
C276 C277 1.394 . S
C276 C281 1.360 . S
C277 H236 0.931 . S
C277 C276 1.394 . S
C277 C278 1.372 . S
C278 H237 0.930 . S
C278 C277 1.372 . S
C278 C279 1.397 . S
C279 C278 1.397 . S
C279 C280 1.390 . S
C279 C295 1.476 . S
C280 H238 0.930 . S
C280 C279 1.390 . S
C280 C281 1.366 . S
C281 H239 0.932 . S
C281 C276 1.360 . S
C281 C280 1.366 . S
C282 C256 1.490 . S
C282 C283 1.380 . S
C282 C287 1.386 . S
C283 H240 0.930 . S
C283 C282 1.380 . S
C283 C284 1.381 . S
C284 H241 0.929 . S
C284 C283 1.381 . S
C284 C285 1.371 . S
C285 C284 1.371 . S
C285 C286 1.380 . S
C286 H242 0.931 . S
C286 C285 1.380 . S
C286 C287 1.387 . S
C287 H243 0.930 . S
C287 C282 1.386 . S
C287 C286 1.387 . S
C288 C257 1.519 1_655 S
C288 C289 1.377 . S
C288 C293 1.361 . S
C289 H244 0.929 . S
C289 C288 1.377 . S
C289 C290 1.386 . S
C290 H245 0.931 . S
C290 C289 1.386 . S
C290 C291 1.363 . S
C291 C290 1.363 . S
C291 C292 1.385 . S
C292 H246 0.930 . S
C292 C291 1.385 . S
C292 C293 1.396 . S
C293 H247 0.929 . S
C293 C288 1.361 . S
C293 C292 1.396 . S
C294 O248 1.300 . S
C294 O249 1.209 . S
C294 C267 1.486 . S
C295 O250 1.199 . S
C295 O251 1.297 . S
C295 C279 1.476 . S
H296 O322 0.856 . S
H297 O325 0.854 . S
H298 C333 0.930 . S
H299 C334 0.930 . S
H300 C336 0.930 . S
H301 C337 0.930 . S
H302 C339 0.931 . S
H303 C340 0.930 . S
H304 C342 0.930 . S
H305 C343 0.929 . S
H306 C345 0.930 . S
H307 C346 0.931 . S
H308 C348 0.930 . S
H309 C349 0.929 . S
H310 C351 0.931 . S
H311 C352 0.930 . S
H312 C354 0.930 . S
H313 C355 0.932 . S
H314 C357 0.930 . S
H315 C358 0.929 1_545 S
H316 C360 0.931 . S
H317 C361 0.930 . S
H318 C363 0.928 . S
H319 C364 0.931 . S
H320 C366 0.930 . S
H321 C367 0.929 . S
O322 H296 0.856 . S
O322 C368 1.300 . S
O323 C368 1.209 . S
O324 C369 1.199 . S
O325 H297 0.854 . S
O325 C369 1.297 . S
C326 C327 1.404 1_545 S
C326 C331 1.397 . S
C326 C332 1.492 . S
C327 C326 1.404 1_565 S
C327 C328 1.396 . S
C327 C338 1.492 . S
C328 C327 1.396 . S
C328 C329 1.397 . S
C328 C344 1.509 . S
C329 C328 1.397 . S
C329 C330 1.412 1_556 S
C329 C350 1.485 1_556 S
C330 C329 1.412 1_554 S
C330 C331 1.388 1_564 S
C330 C356 1.490 . S
C331 C326 1.397 . S
C331 C330 1.388 1_546 S
C331 C362 1.519 1_556 S
C332 C326 1.492 . S
C332 C333 1.363 . S
C332 C337 1.390 . S
C333 H298 0.930 . S
C333 C332 1.363 . S
C333 C334 1.372 . S
C334 H299 0.930 . S
C334 C333 1.372 . S
C334 C335 1.383 . S
C335 C334 1.383 . S
C335 C336 1.395 . S
C336 H300 0.930 . S
C336 C335 1.395 . S
C336 C337 1.362 . S
C337 H301 0.930 . S
C337 C332 1.390 . S
C337 C336 1.362 . S
C338 C327 1.492 . S
C338 C339 1.377 . S
C338 C343 1.397 . S
C339 H302 0.931 . S
C339 C338 1.377 . S
C339 C340 1.376 . S
C340 H303 0.930 . S
C340 C339 1.376 . S
C340 C341 1.376 . S
C341 C340 1.376 . S
C341 C342 1.378 . S
C341 C368 1.486 . S
C342 H304 0.930 . S
C342 C341 1.378 . S
C342 C343 1.376 . S
C343 H305 0.929 . S
C343 C338 1.397 . S
C343 C342 1.376 . S
C344 C328 1.509 . S
C344 C345 1.391 . S
C344 C349 1.386 . S
C345 H306 0.930 . S
C345 C344 1.391 . S
C345 C346 1.375 . S
C346 H307 0.931 . S
C346 C345 1.375 . S
C346 C347 1.375 . S
C347 C346 1.375 . S
C347 C348 1.361 . S
C348 H308 0.930 . S
C348 C347 1.361 . S
C348 C349 1.399 . S
C349 H309 0.929 . S
C349 C344 1.386 . S
C349 C348 1.399 . S
C350 C329 1.485 1_554 S
C350 C351 1.394 . S
C350 C355 1.360 . S
C351 H310 0.931 . S
C351 C350 1.394 . S
C351 C352 1.372 . S
C352 H311 0.930 . S
C352 C351 1.372 . S
C352 C353 1.397 . S
C353 C352 1.397 . S
C353 C354 1.390 . S
C353 C369 1.476 . S
C354 H312 0.930 . S
C354 C353 1.390 . S
C354 C355 1.366 . S
C355 H313 0.932 . S
C355 C350 1.360 . S
C355 C354 1.366 . S
C356 C330 1.490 . S
C356 C357 1.380 . S
C356 C361 1.386 . S
C357 H314 0.930 . S
C357 C356 1.380 . S
C357 C358 1.381 . S
C358 H315 0.929 1_565 S
C358 C357 1.381 . S
C358 C359 1.371 . S
C359 C358 1.371 . S
C359 C360 1.380 . S
C360 H316 0.931 . S
C360 C359 1.380 . S
C360 C361 1.387 . S
C361 H317 0.930 . S
C361 C356 1.386 . S
C361 C360 1.387 . S
C362 C331 1.519 1_554 S
C362 C363 1.377 1_554 S
C362 C367 1.361 . S
C363 H318 0.928 . S
C363 C362 1.377 1_556 S
C363 C364 1.387 1_556 S
C364 H319 0.931 . S
C364 C363 1.387 1_554 S
C364 C365 1.363 . S
C365 C364 1.363 . S
C365 C366 1.385 . S
C366 H320 0.930 . S
C366 C365 1.385 . S
C366 C367 1.396 . S
C367 H321 0.929 . S
C367 C362 1.361 . S
C367 C366 1.396 . S
C368 O322 1.300 . S
C368 O323 1.209 . S
C368 C341 1.486 . S
C369 O324 1.199 . S
C369 O325 1.297 . S
C369 C353 1.476 . S
H370 O396 0.856 1_556 S
H371 O399 0.854 . S
H372 C407 0.930 . S
H373 C408 0.930 . S
H374 C410 0.930 . S
H375 C411 0.930 . S
H376 C413 0.931 . S
H377 C414 0.930 . S
H378 C416 0.930 . S
H379 C417 0.929 . S
H380 C419 0.930 . S
H381 C420 0.931 . S
H382 C422 0.930 . S
H383 C423 0.929 . S
H384 C425 0.931 . S
H385 C426 0.930 . S
H386 C428 0.930 . S
H387 C429 0.932 . S
H388 C431 0.930 . S
H389 C432 0.929 . S
H390 C434 0.931 . S
H391 C435 0.930 . S
H392 C437 0.929 . S
H393 C438 0.931 . S
H394 C440 0.930 . S
H395 C441 0.929 . S
O396 H370 0.856 1_554 S
O396 C442 1.300 . S
O397 C442 1.209 . S
O398 C443 1.199 . S
O399 H371 0.854 . S
O399 C443 1.297 . S
C400 C401 1.404 . S
C400 C405 1.397 . S
C400 C406 1.492 . S
C401 C400 1.404 . S
C401 C402 1.396 . S
C401 C412 1.492 . S
C402 C401 1.396 . S
C402 C403 1.397 . S
C402 C418 1.509 . S
C403 C402 1.397 . S
C403 C404 1.412 . S
C403 C424 1.485 . S
C404 C403 1.412 . S
C404 C405 1.388 . S
C404 C430 1.490 . S
C405 C400 1.397 . S
C405 C404 1.388 . S
C405 C436 1.519 . S
C406 C400 1.492 . S
C406 C407 1.363 . S
C406 C411 1.390 . S
C407 H372 0.930 . S
C407 C406 1.363 . S
C407 C408 1.372 . S
C408 H373 0.930 . S
C408 C407 1.372 . S
C408 C409 1.383 . S
C409 C408 1.383 . S
C409 C410 1.395 . S
C410 H374 0.930 . S
C410 C409 1.395 . S
C410 C411 1.362 . S
C411 H375 0.930 . S
C411 C406 1.390 . S
C411 C410 1.362 . S
C412 C401 1.492 . S
C412 C413 1.377 . S
C412 C417 1.397 . S
C413 H376 0.931 . S
C413 C412 1.377 . S
C413 C414 1.376 . S
C414 H377 0.930 . S
C414 C413 1.376 . S
C414 C415 1.376 . S
C415 C414 1.376 . S
C415 C416 1.378 . S
C415 C442 1.486 . S
C416 H378 0.930 . S
C416 C415 1.378 . S
C416 C417 1.376 . S
C417 H379 0.929 . S
C417 C412 1.397 . S
C417 C416 1.376 . S
C418 C402 1.509 . S
C418 C419 1.391 . S
C418 C423 1.386 . S
C419 H380 0.930 . S
C419 C418 1.391 . S
C419 C420 1.375 . S
C420 H381 0.931 . S
C420 C419 1.375 . S
C420 C421 1.375 . S
C421 C420 1.375 . S
C421 C422 1.361 . S
C422 H382 0.930 . S
C422 C421 1.361 . S
C422 C423 1.399 . S
C423 H383 0.929 . S
C423 C418 1.386 . S
C423 C422 1.399 . S
C424 C403 1.485 . S
C424 C425 1.394 . S
C424 C429 1.360 . S
C425 H384 0.931 . S
C425 C424 1.394 . S
C425 C426 1.372 . S
C426 H385 0.930 . S
C426 C425 1.372 . S
C426 C427 1.397 . S
C427 C426 1.397 . S
C427 C428 1.390 . S
C427 C443 1.476 . S
C428 H386 0.930 . S
C428 C427 1.390 . S
C428 C429 1.366 . S
C429 H387 0.932 . S
C429 C424 1.360 . S
C429 C428 1.366 . S
C430 C404 1.490 . S
C430 C431 1.380 . S
C430 C435 1.386 . S
C431 H388 0.930 . S
C431 C430 1.380 . S
C431 C432 1.381 . S
C432 H389 0.929 . S
C432 C431 1.381 . S
C432 C433 1.371 . S
C433 C432 1.371 . S
C433 C434 1.380 . S
C434 H390 0.931 . S
C434 C433 1.380 . S
C434 C435 1.387 . S
C435 H391 0.930 . S
C435 C430 1.386 . S
C435 C434 1.387 . S
C436 C405 1.519 . S
C436 C437 1.377 . S
C436 C441 1.361 . S
C437 H392 0.929 . S
C437 C436 1.377 . S
C437 C438 1.386 . S
C438 H393 0.931 . S
C438 C437 1.386 . S
C438 C439 1.363 . S
C439 C438 1.363 . S
C439 C440 1.385 . S
C440 H394 0.930 . S
C440 C439 1.385 . S
C440 C441 1.396 . S
C441 H395 0.929 . S
C441 C436 1.361 . S
C441 C440 1.396 . S
C442 O396 1.300 . S
C442 O397 1.209 . S
C442 C415 1.486 . S
C443 O398 1.199 . S
C443 O399 1.297 . S
C443 C427 1.476 . S
Mg444 O445 2.028 . S
Mg444 O451 1.986 . S
Mg444 O453 2.114 . S
Mg444 O454 2.251 . S
Mg444 O457 2.010 . S
O445 Mg444 2.028 . S
O445 C448 1.250 . S
O446 Mg447 2.028 . S
O446 C448 1.248 . S
Mg447 O446 2.028 . S
Mg447 O452 2.032 . S
Mg447 O454 2.079 . S
C448 O445 1.250 . S
C448 O446 1.248 . S
C449 O450 1.264 . S
C449 O457 1.249 . S
O450 C449 1.264 . S
O451 Mg444 1.986 . S
O451 C455 1.246 . S
O452 Mg447 2.032 . S
O452 C455 1.259 . S
O453 Mg444 2.114 . S
O453 C456 1.252 . S
O454 Mg444 2.251 . S
O454 Mg447 2.079 . S
O454 C456 1.273 . S
C455 O451 1.246 . S
C455 O452 1.259 . S
C456 O453 1.252 . S
C456 O454 1.273 . S
O457 Mg444 2.010 . S
O457 C449 1.249 . S
Mg458 O459 2.028 . S
Mg458 O465 1.986 . S
Mg458 O467 2.114 . S
Mg458 O468 2.251 . S
Mg458 O471 2.010 . S
O459 Mg458 2.028 . S
O459 C462 1.250 . S
O460 Mg461 2.028 . S
O460 C462 1.248 . S
Mg461 O460 2.028 . S
Mg461 O466 2.032 . S
Mg461 O468 2.079 . S
C462 O459 1.250 . S
C462 O460 1.248 . S
C463 O464 1.264 . S
C463 O471 1.249 . S
O464 C463 1.264 . S
O465 Mg458 1.986 . S
O465 C469 1.246 . S
O466 Mg461 2.032 . S
O466 C469 1.259 . S
O467 Mg458 2.114 . S
O467 C470 1.252 . S
O468 Mg458 2.251 . S
O468 Mg461 2.079 . S
O468 C470 1.273 . S
C469 O465 1.246 . S
C469 O466 1.259 . S
C470 O467 1.252 . S
C470 O468 1.273 . S
O471 Mg458 2.010 . S
O471 C463 1.249 . S
Mg472 O473 2.028 . S
Mg472 O479 1.986 . S
Mg472 O481 2.114 . S
Mg472 O482 2.251 . S
Mg472 O485 2.010 . S
O473 Mg472 2.028 . S
O473 C476 1.250 . S
O474 Mg475 2.028 . S
O474 C476 1.248 . S
Mg475 O474 2.028 . S
Mg475 O480 2.032 . S
Mg475 O482 2.079 . S
C476 O473 1.250 . S
C476 O474 1.248 . S
C477 O478 1.264 . S
C477 O485 1.249 . S
O478 C477 1.264 . S
O479 Mg472 1.986 . S
O479 C483 1.246 . S
O480 Mg475 2.032 . S
O480 C483 1.259 . S
O481 Mg472 2.114 . S
O481 C484 1.252 . S
O482 Mg472 2.251 . S
O482 Mg475 2.079 . S
O482 C484 1.273 . S
C483 O479 1.246 . S
C483 O480 1.259 . S
C484 O481 1.252 . S
C484 O482 1.273 . S
O485 Mg472 2.010 . S
O485 C477 1.249 . S
Mg486 O487 2.028 . S
Mg486 O493 1.986 . S
Mg486 O495 2.114 . S
Mg486 O496 2.251 . S
Mg486 O499 2.010 . S
O487 Mg486 2.028 . S
O487 C490 1.250 . S
O488 Mg489 2.028 . S
O488 C490 1.248 . S
Mg489 O488 2.028 . S
Mg489 O494 2.032 . S
Mg489 O496 2.079 . S
C490 O487 1.250 . S
C490 O488 1.248 . S
C491 O492 1.264 . S
C491 O499 1.249 . S
O492 C491 1.264 . S
O493 Mg486 1.986 . S
O493 C497 1.246 . S
O494 Mg489 2.032 . S
O494 C497 1.259 . S
O495 Mg486 2.114 . S
O495 C498 1.252 . S
O496 Mg486 2.251 . S
O496 Mg489 2.079 . S
O496 C498 1.273 . S
C497 O493 1.246 . S
C497 O494 1.259 . S
C498 O495 1.252 . S
C498 O496 1.273 . S
O499 Mg486 2.010 . S
O499 C491 1.249 . S
Mg500 O501 2.028 . S
Mg500 O507 1.986 . S
Mg500 O509 2.114 . S
Mg500 O510 2.251 . S
Mg500 O513 2.010 . S
O501 Mg500 2.028 . S
O501 C504 1.250 . S
O502 Mg503 2.028 . S
O502 C504 1.248 . S
Mg503 O502 2.028 . S
Mg503 O508 2.032 . S
Mg503 O510 2.079 . S
C504 O501 1.250 . S
C504 O502 1.248 . S
C505 O506 1.264 . S
C505 O513 1.249 . S
O506 C505 1.264 . S
O507 Mg500 1.986 . S
O507 C511 1.246 . S
O508 Mg503 2.032 . S
O508 C511 1.259 . S
O509 Mg500 2.114 . S
O509 C512 1.252 . S
O510 Mg500 2.251 . S
O510 Mg503 2.079 . S
O510 C512 1.273 . S
C511 O507 1.246 . S
C511 O508 1.259 . S
C512 O509 1.252 . S
C512 O510 1.273 . S
O513 Mg500 2.010 . S
O513 C505 1.249 . S
Mg514 O515 2.028 . S
Mg514 O521 1.986 . S
Mg514 O523 2.114 . S
Mg514 O524 2.251 . S
Mg514 O527 2.010 . S
O515 Mg514 2.028 . S
O515 C518 1.250 . S
O516 Mg517 2.028 . S
O516 C518 1.248 . S
Mg517 O516 2.028 . S
Mg517 O522 2.032 . S
Mg517 O524 2.079 . S
C518 O515 1.250 . S
C518 O516 1.248 . S
C519 O520 1.264 . S
C519 O527 1.249 . S
O520 C519 1.264 . S
O521 Mg514 1.986 . S
O521 C525 1.246 . S
O522 Mg517 2.032 . S
O522 C525 1.259 . S
O523 Mg514 2.114 . S
O523 C526 1.252 . S
O524 Mg514 2.251 . S
O524 Mg517 2.079 . S
O524 C526 1.273 . S
C525 O521 1.246 . S
C525 O522 1.259 . S
C526 O523 1.252 . S
C526 O524 1.273 . S
O527 Mg514 2.010 . S
O527 C519 1.249 . S
H528 C540 0.930 . S
H529 C542 0.930 . S
H530 C543 0.930 . S
H531 C547 0.959 . S
H532 C547 0.959 . S
H533 C547 0.961 . S
H534 C548 0.960 . S
H535 C548 0.961 . S
H536 C548 0.959 . S
H537 C551 0.929 . S
H538 C552 0.931 . S
H539 C554 0.930 . S
C540 H528 0.930 . S
C540 C541 1.399 . S
C540 C545 1.399 . S
C541 C540 1.399 . S
C541 C542 1.376 . S
C542 H529 0.930 . S
C542 C541 1.376 . S
C542 C543 1.388 . S
C543 H530 0.930 . S
C543 C542 1.388 . S
C543 C544 1.390 . S
C544 C543 1.390 . S
C544 C545 1.394 . S
C544 C550 1.465 . S
C545 C540 1.399 . S
C545 C544 1.394 . S
C545 C546 1.516 . S
C546 C545 1.516 . S
C546 C547 1.502 . S
C546 C548 1.561 . S
C546 C549 1.526 . S
C547 H531 0.959 . S
C547 H532 0.959 . S
C547 H533 0.961 . S
C547 C546 1.502 . S
C548 H534 0.960 . S
C548 H535 0.961 . S
C548 H536 0.959 . S
C548 C546 1.561 . S
C549 C546 1.526 . S
C549 C550 1.396 . S
C549 C554 1.390 . S
C550 C544 1.465 . S
C550 C549 1.396 . S
C550 C551 1.399 . S
C551 H537 0.929 . S
C551 C550 1.399 . S
C551 C552 1.385 . S
C552 H538 0.931 . S
C552 C551 1.385 . S
C552 C553 1.389 . S
C553 C552 1.389 . S
C553 C554 1.387 . S
C554 H539 0.930 . S
C554 C549 1.390 . S
C554 C553 1.387 . S
H555 C567 0.930 . S
H556 C569 0.930 . S
H557 C570 0.930 . S
H558 C574 0.959 . S
H559 C574 0.959 . S
H560 C574 0.961 . S
H561 C575 0.960 . S
H562 C575 0.961 . S
H563 C575 0.959 . S
H564 C578 0.929 . S
H565 C579 0.931 . S
H566 C581 0.930 . S
C567 H555 0.930 . S
C567 C568 1.399 . S
C567 C572 1.399 . S
C568 C567 1.399 . S
C568 C569 1.376 . S
C569 H556 0.930 . S
C569 C568 1.376 . S
C569 C570 1.388 . S
C570 H557 0.930 . S
C570 C569 1.388 . S
C570 C571 1.390 . S
C571 C570 1.390 . S
C571 C572 1.394 . S
C571 C577 1.465 . S
C572 C567 1.399 . S
C572 C571 1.394 . S
C572 C573 1.516 . S
C573 C572 1.516 . S
C573 C574 1.502 . S
C573 C575 1.561 . S
C573 C576 1.526 . S
C574 H558 0.959 . S
C574 H559 0.959 . S
C574 H560 0.961 . S
C574 C573 1.502 . S
C575 H561 0.960 . S
C575 H562 0.961 . S
C575 H563 0.959 . S
C575 C573 1.561 . S
C576 C573 1.526 . S
C576 C577 1.396 . S
C576 C581 1.390 . S
C577 C571 1.465 . S
C577 C576 1.396 . S
C577 C578 1.399 . S
C578 H564 0.929 . S
C578 C577 1.399 . S
C578 C579 1.385 . S
C579 H565 0.931 . S
C579 C578 1.385 . S
C579 C580 1.389 . S
C580 C579 1.389 . S
C580 C581 1.387 . S
C581 H566 0.930 . S
C581 C576 1.390 . S
C581 C580 1.387 . S
H582 C594 0.930 . S
H583 C596 0.930 . S
H584 C597 0.930 . S
H585 C601 0.959 . S
H586 C601 0.959 . S
H587 C601 0.961 . S
H588 C602 0.960 . S
H589 C602 0.961 . S
H590 C602 0.959 . S
H591 C605 0.929 . S
H592 C606 0.931 . S
H593 C608 0.930 . S
C594 H582 0.930 . S
C594 C595 1.399 . S
C594 C599 1.399 . S
C595 C594 1.399 . S
C595 C596 1.376 . S
C596 H583 0.930 . S
C596 C595 1.376 . S
C596 C597 1.388 . S
C597 H584 0.930 . S
C597 C596 1.388 . S
C597 C598 1.390 . S
C598 C597 1.390 . S
C598 C599 1.394 . S
C598 C604 1.465 . S
C599 C594 1.399 . S
C599 C598 1.394 . S
C599 C600 1.516 . S
C600 C599 1.516 . S
C600 C601 1.502 . S
C600 C602 1.561 . S
C600 C603 1.526 . S
C601 H585 0.959 . S
C601 H586 0.959 . S
C601 H587 0.961 . S
C601 C600 1.502 . S
C602 H588 0.960 . S
C602 H589 0.961 . S
C602 H590 0.959 . S
C602 C600 1.561 . S
C603 C600 1.526 . S
C603 C604 1.396 . S
C603 C608 1.390 . S
C604 C598 1.465 . S
C604 C603 1.396 . S
C604 C605 1.399 . S
C605 H591 0.929 . S
C605 C604 1.399 . S
C605 C606 1.385 . S
C606 H592 0.931 . S
C606 C605 1.385 . S
C606 C607 1.389 . S
C607 C606 1.389 . S
C607 C608 1.387 . S
C608 H593 0.930 . S
C608 C603 1.390 . S
C608 C607 1.387 . S
H609 C621 0.930 . S
H610 C623 0.930 . S
H611 C624 0.930 . S
H612 C628 0.959 . S
H613 C628 0.959 . S
H614 C628 0.961 . S
H615 C629 0.960 . S
H616 C629 0.961 . S
H617 C629 0.959 . S
H618 C632 0.929 . S
H619 C633 0.931 . S
H620 C635 0.930 . S
C621 H609 0.930 . S
C621 C622 1.399 . S
C621 C626 1.399 . S
C622 C621 1.399 . S
C622 C623 1.376 . S
C623 H610 0.930 . S
C623 C622 1.376 . S
C623 C624 1.388 . S
C624 H611 0.930 . S
C624 C623 1.388 . S
C624 C625 1.390 . S
C625 C624 1.390 . S
C625 C626 1.394 . S
C625 C631 1.465 . S
C626 C621 1.399 . S
C626 C625 1.394 . S
C626 C627 1.516 . S
C627 C626 1.516 . S
C627 C628 1.502 . S
C627 C629 1.561 . S
C627 C630 1.526 . S
C628 H612 0.959 . S
C628 H613 0.959 . S
C628 H614 0.961 . S
C628 C627 1.502 . S
C629 H615 0.960 . S
C629 H616 0.961 . S
C629 H617 0.959 . S
C629 C627 1.561 . S
C630 C627 1.526 . S
C630 C631 1.396 . S
C630 C635 1.390 . S
C631 C625 1.465 . S
C631 C630 1.396 . S
C631 C632 1.399 . S
C632 H618 0.929 . S
C632 C631 1.399 . S
C632 C633 1.385 . S
C633 H619 0.931 . S
C633 C632 1.385 . S
C633 C634 1.389 . S
C634 C633 1.389 . S
C634 C635 1.387 . S
C635 H620 0.930 . S
C635 C630 1.390 . S
C635 C634 1.387 . S
H636 C648 0.930 . S
H637 C650 0.930 . S
H638 C651 0.930 . S
H639 C655 0.959 . S
H640 C655 0.959 . S
H641 C655 0.961 . S
H642 C656 0.960 . S
H643 C656 0.961 . S
H644 C656 0.959 . S
H645 C659 0.929 . S
H646 C660 0.931 . S
H647 C662 0.930 . S
C648 H636 0.930 . S
C648 C649 1.399 . S
C648 C653 1.399 . S
C649 C648 1.399 . S
C649 C650 1.376 . S
C650 H637 0.930 . S
C650 C649 1.376 . S
C650 C651 1.388 . S
C651 H638 0.930 . S
C651 C650 1.388 . S
C651 C652 1.390 . S
C652 C651 1.390 . S
C652 C653 1.394 . S
C652 C658 1.465 . S
C653 C648 1.399 . S
C653 C652 1.394 . S
C653 C654 1.516 . S
C654 C653 1.516 . S
C654 C655 1.502 . S
C654 C656 1.561 . S
C654 C657 1.526 . S
C655 H639 0.959 . S
C655 H640 0.959 . S
C655 H641 0.961 . S
C655 C654 1.502 . S
C656 H642 0.960 . S
C656 H643 0.961 . S
C656 H644 0.959 . S
C656 C654 1.561 . S
C657 C654 1.526 . S
C657 C658 1.396 . S
C657 C662 1.390 . S
C658 C652 1.465 . S
C658 C657 1.396 . S
C658 C659 1.399 . S
C659 H645 0.929 . S
C659 C658 1.399 . S
C659 C660 1.385 . S
C660 H646 0.931 . S
C660 C659 1.385 . S
C660 C661 1.389 . S
C661 C660 1.389 . S
C661 C662 1.387 . S
C662 H647 0.930 . S
C662 C657 1.390 . S
C662 C661 1.387 . S
H663 C675 0.930 . S
H664 C677 0.930 . S
H665 C678 0.930 . S
H666 C682 0.959 . S
H667 C682 0.959 . S
H668 C682 0.961 . S
H669 C683 0.960 . S
H670 C683 0.961 . S
H671 C683 0.959 . S
H672 C686 0.929 . S
H673 C687 0.931 . S
H674 C689 0.930 . S
C675 H663 0.930 . S
C675 C676 1.399 . S
C675 C680 1.399 . S
C676 C675 1.399 . S
C676 C677 1.376 . S
C677 H664 0.930 . S
C677 C676 1.376 . S
C677 C678 1.388 . S
C678 H665 0.930 . S
C678 C677 1.388 . S
C678 C679 1.390 . S
C679 C678 1.390 . S
C679 C680 1.394 . S
C679 C685 1.465 . S
C680 C675 1.399 . S
C680 C679 1.394 . S
C680 C681 1.516 . S
C681 C680 1.516 . S
C681 C682 1.502 . S
C681 C683 1.561 . S
C681 C684 1.526 . S
C682 H666 0.959 . S
C682 H667 0.959 . S
C682 H668 0.961 . S
C682 C681 1.502 . S
C683 H669 0.960 . S
C683 H670 0.961 . S
C683 H671 0.959 . S
C683 C681 1.561 . S
C684 C681 1.526 . S
C684 C685 1.396 . S
C684 C689 1.390 . S
C685 C679 1.465 . S
C685 C684 1.396 . S
C685 C686 1.399 . S
C686 H672 0.929 . S
C686 C685 1.399 . S
C686 C687 1.385 . S
C687 H673 0.931 . S
C687 C686 1.385 . S
C687 C688 1.389 . S
C688 C687 1.389 . S
C688 C689 1.387 . S
C689 H674 0.930 . S
C689 C684 1.390 . S
C689 C688 1.387 . S
H690 C702 0.930 . S
H691 C704 0.930 . S
H692 C705 0.930 . S
H693 C709 0.959 . S
H694 C709 0.959 . S
H695 C709 0.961 . S
H696 C710 0.960 . S
H697 C710 0.961 . S
H698 C710 0.959 . S
H699 C713 0.929 . S
H700 C714 0.931 . S
H701 C716 0.930 . S
C702 H690 0.930 . S
C702 C703 1.399 . S
C702 C707 1.399 . S
C703 C702 1.399 . S
C703 C704 1.376 . S
C704 H691 0.930 . S
C704 C703 1.376 . S
C704 C705 1.388 . S
C705 H692 0.930 . S
C705 C704 1.388 . S
C705 C706 1.390 . S
C706 C705 1.390 . S
C706 C707 1.394 . S
C706 C712 1.465 . S
C707 C702 1.399 . S
C707 C706 1.394 . S
C707 C708 1.516 . S
C708 C707 1.516 . S
C708 C709 1.502 . S
C708 C710 1.561 . S
C708 C711 1.526 . S
C709 H693 0.959 . S
C709 H694 0.959 . S
C709 H695 0.961 . S
C709 C708 1.502 . S
C710 H696 0.960 . S
C710 H697 0.961 . S
C710 H698 0.959 . S
C710 C708 1.561 . S
C711 C708 1.526 . S
C711 C712 1.396 . S
C711 C716 1.390 . S
C712 C706 1.465 . S
C712 C711 1.396 . S
C712 C713 1.399 . S
C713 H699 0.929 . S
C713 C712 1.399 . S
C713 C714 1.385 . S
C714 H700 0.931 . S
C714 C713 1.385 . S
C714 C715 1.389 . S
C715 C714 1.389 . S
C715 C716 1.387 . S
C716 H701 0.930 . S
C716 C711 1.390 . S
C716 C715 1.387 . S
H717 C729 0.930 . S
H718 C731 0.930 . S
H719 C732 0.930 . S
H720 C736 0.959 . S
H721 C736 0.959 . S
H722 C736 0.961 . S
H723 C737 0.960 . S
H724 C737 0.961 . S
H725 C737 0.959 . S
H726 C740 0.929 . S
H727 C741 0.931 . S
H728 C743 0.930 . S
C729 H717 0.930 . S
C729 C730 1.399 . S
C729 C734 1.399 . S
C730 C729 1.399 . S
C730 C731 1.376 . S
C731 H718 0.930 . S
C731 C730 1.376 . S
C731 C732 1.388 . S
C732 H719 0.930 . S
C732 C731 1.388 . S
C732 C733 1.390 . S
C733 C732 1.390 . S
C733 C734 1.394 . S
C733 C739 1.465 . S
C734 C729 1.399 . S
C734 C733 1.394 . S
C734 C735 1.516 . S
C735 C734 1.516 . S
C735 C736 1.502 . S
C735 C737 1.561 . S
C735 C738 1.526 . S
C736 H720 0.959 . S
C736 H721 0.959 . S
C736 H722 0.961 . S
C736 C735 1.502 . S
C737 H723 0.960 . S
C737 H724 0.961 . S
C737 H725 0.959 . S
C737 C735 1.561 . S
C738 C735 1.526 . S
C738 C739 1.396 . S
C738 C743 1.390 . S
C739 C733 1.465 . S
C739 C738 1.396 . S
C739 C740 1.399 . S
C740 H726 0.929 . S
C740 C739 1.399 . S
C740 C741 1.385 . S
C741 H727 0.931 . S
C741 C740 1.385 . S
C741 C742 1.389 . S
C742 C741 1.389 . S
C742 C743 1.387 . S
C743 H728 0.930 . S
C743 C738 1.390 . S
C743 C742 1.387 . S
H744 C756 0.930 . S
H745 C758 0.930 . S
H746 C759 0.930 . S
H747 C763 0.959 . S
H748 C763 0.959 . S
H749 C763 0.961 . S
H750 C764 0.960 . S
H751 C764 0.961 . S
H752 C764 0.959 . S
H753 C767 0.929 . S
H754 C768 0.931 . S
H755 C770 0.930 . S
C756 H744 0.930 . S
C756 C757 1.399 . S
C756 C761 1.399 . S
C757 C756 1.399 . S
C757 C758 1.376 . S
C758 H745 0.930 . S
C758 C757 1.376 . S
C758 C759 1.388 . S
C759 H746 0.930 . S
C759 C758 1.388 . S
C759 C760 1.390 . S
C760 C759 1.390 . S
C760 C761 1.394 . S
C760 C766 1.465 . S
C761 C756 1.399 . S
C761 C760 1.394 . S
C761 C762 1.516 . S
C762 C761 1.516 . S
C762 C763 1.502 . S
C762 C764 1.561 . S
C762 C765 1.526 . S
C763 H747 0.959 . S
C763 H748 0.959 . S
C763 H749 0.961 . S
C763 C762 1.502 . S
C764 H750 0.960 . S
C764 H751 0.961 . S
C764 H752 0.959 . S
C764 C762 1.561 . S
C765 C762 1.526 . S
C765 C766 1.396 . S
C765 C770 1.390 . S
C766 C760 1.465 . S
C766 C765 1.396 . S
C766 C767 1.399 . S
C767 H753 0.929 . S
C767 C766 1.399 . S
C767 C768 1.385 . S
C768 H754 0.931 . S
C768 C767 1.385 . S
C768 C769 1.389 . S
C769 C768 1.389 . S
C769 C770 1.387 . S
C770 H755 0.930 . S
C770 C765 1.390 . S
C770 C769 1.387 . S
H771 C783 0.931 1_556 S
H772 C785 0.930 . S
H773 C786 0.930 . S
H774 C790 0.959 1_554 S
H775 C790 0.959 . S
H776 C790 0.961 . S
H777 C791 0.960 1_556 S
H778 C791 0.961 1_556 S
H779 C791 0.959 . S
H780 C794 0.929 . S
H781 C795 0.931 . S
H782 C797 0.930 . S
C783 H771 0.931 1_554 S
C783 C784 1.399 . S
C783 C788 1.399 . S
C784 C783 1.399 . S
C784 C785 1.376 . S
C785 H772 0.930 . S
C785 C784 1.376 . S
C785 C786 1.388 . S
C786 H773 0.930 . S
C786 C785 1.388 . S
C786 C787 1.390 . S
C787 C786 1.390 . S
C787 C788 1.394 . S
C787 C793 1.465 . S
C788 C783 1.399 . S
C788 C787 1.394 . S
C788 C789 1.516 . S
C789 C788 1.516 . S
C789 C790 1.502 1_554 S
C789 C791 1.561 . S
C789 C792 1.526 . S
C790 H774 0.959 1_556 S
C790 H775 0.959 . S
C790 H776 0.961 . S
C790 C789 1.502 1_556 S
C791 H777 0.960 1_554 S
C791 H778 0.961 1_554 S
C791 H779 0.959 . S
C791 C789 1.561 . S
C792 C789 1.526 . S
C792 C793 1.396 . S
C792 C797 1.390 . S
C793 C787 1.465 . S
C793 C792 1.396 . S
C793 C794 1.399 . S
C794 H780 0.929 . S
C794 C793 1.399 . S
C794 C795 1.385 . S
C795 H781 0.931 . S
C795 C794 1.385 . S
C795 C796 1.389 . S
C796 C795 1.389 . S
C796 C797 1.387 . S
C797 H782 0.930 . S
C797 C792 1.390 . S
C797 C796 1.387 . S
H798 C810 0.930 . S
H799 C812 0.930 . S
H800 C813 0.930 . S
H801 C817 0.959 . S
H802 C817 0.959 . S
H803 C817 0.961 . S
H804 C818 0.960 . S
H805 C818 0.961 . S
H806 C818 0.959 . S
H807 C821 0.929 . S
H808 C822 0.931 . S
H809 C824 0.930 . S
C810 H798 0.930 . S
C810 C811 1.399 . S
C810 C815 1.399 . S
C811 C810 1.399 . S
C811 C812 1.376 . S
C812 H799 0.930 . S
C812 C811 1.376 . S
C812 C813 1.388 . S
C813 H800 0.930 . S
C813 C812 1.388 . S
C813 C814 1.390 . S
C814 C813 1.390 . S
C814 C815 1.394 . S
C814 C820 1.465 . S
C815 C810 1.399 . S
C815 C814 1.394 . S
C815 C816 1.516 . S
C816 C815 1.516 . S
C816 C817 1.502 . S
C816 C818 1.561 . S
C816 C819 1.526 . S
C817 H801 0.959 . S
C817 H802 0.959 . S
C817 H803 0.961 . S
C817 C816 1.502 . S
C818 H804 0.960 . S
C818 H805 0.961 . S
C818 H806 0.959 . S
C818 C816 1.561 . S
C819 C816 1.526 . S
C819 C820 1.396 . S
C819 C824 1.390 . S
C820 C814 1.465 . S
C820 C819 1.396 . S
C820 C821 1.399 . S
C821 H807 0.929 . S
C821 C820 1.399 . S
C821 C822 1.385 . S
C822 H808 0.931 . S
C822 C821 1.385 . S
C822 C823 1.389 . S
C823 C822 1.389 . S
C823 C824 1.387 . S
C824 H809 0.930 . S
C824 C819 1.390 . S
C824 C823 1.387 . S
H825 C837 0.930 . S
H826 C839 0.930 . S
H827 C840 0.930 . S
H828 C844 0.959 . S
H829 C844 0.959 . S
H830 C844 0.961 . S
H831 C845 0.960 . S
H832 C845 0.961 . S
H833 C845 0.959 . S
H834 C848 0.929 . S
H835 C849 0.931 . S
H836 C851 0.930 . S
C837 H825 0.930 . S
C837 C838 1.399 . S
C837 C842 1.399 . S
C838 C837 1.399 . S
C838 C839 1.376 . S
C839 H826 0.930 . S
C839 C838 1.376 . S
C839 C840 1.388 . S
C840 H827 0.930 . S
C840 C839 1.388 . S
C840 C841 1.390 . S
C841 C840 1.390 . S
C841 C842 1.394 . S
C841 C847 1.465 . S
C842 C837 1.399 . S
C842 C841 1.394 . S
C842 C843 1.516 . S
C843 C842 1.516 . S
C843 C844 1.502 . S
C843 C845 1.561 . S
C843 C846 1.526 . S
C844 H828 0.959 . S
C844 H829 0.959 . S
C844 H830 0.961 . S
C844 C843 1.502 . S
C845 H831 0.960 . S
C845 H832 0.961 . S
C845 H833 0.959 . S
C845 C843 1.561 . S
C846 C843 1.526 . S
C846 C847 1.396 . S
C846 C851 1.390 . S
C847 C841 1.465 . S
C847 C846 1.396 . S
C847 C848 1.399 . S
C848 H834 0.929 . S
C848 C847 1.399 . S
C848 C849 1.385 . S
C849 H835 0.931 . S
C849 C848 1.385 . S
C849 C850 1.389 . S
C850 C849 1.389 . S
C850 C851 1.387 . S
C851 H836 0.930 . S
C851 C846 1.390 . S
C851 C850 1.387 . S
H852 C864 0.930 . S
H853 C866 0.930 . S
H854 C867 0.930 . S
H855 C871 0.959 . S
H856 C871 0.959 . S
H857 C871 0.961 . S
H858 C872 0.960 . S
H859 C872 0.961 . S
H860 C872 0.959 . S
H861 C875 0.929 . S
H862 C876 0.931 . S
H863 C878 0.930 . S
C864 H852 0.930 . S
C864 C865 1.399 . S
C864 C869 1.399 . S
C865 C864 1.399 . S
C865 C866 1.376 . S
C866 H853 0.930 . S
C866 C865 1.376 . S
C866 C867 1.388 . S
C867 H854 0.930 . S
C867 C866 1.388 . S
C867 C868 1.390 . S
C868 C867 1.390 . S
C868 C869 1.394 . S
C868 C874 1.465 . S
C869 C864 1.399 . S
C869 C868 1.394 . S
C869 C870 1.516 . S
C870 C869 1.516 . S
C870 C871 1.502 . S
C870 C872 1.561 . S
C870 C873 1.526 . S
C871 H855 0.959 . S
C871 H856 0.959 . S
C871 H857 0.961 . S
C871 C870 1.502 . S
C872 H858 0.960 . S
C872 H859 0.961 . S
C872 H860 0.959 . S
C872 C870 1.561 . S
C873 C870 1.526 . S
C873 C874 1.396 . S
C873 C878 1.390 . S
C874 C868 1.465 . S
C874 C873 1.396 . S
C874 C875 1.399 . S
C875 H861 0.929 . S
C875 C874 1.399 . S
C875 C876 1.385 . S
C876 H862 0.931 . S
C876 C875 1.385 . S
C876 C877 1.389 . S
C877 C876 1.389 . S
C877 C878 1.387 . S
C878 H863 0.930 . S
C878 C873 1.390 . S
C878 C877 1.387 . S
H879 C891 0.930 . S
H880 C893 0.930 . S
H881 C894 0.930 . S
H882 C898 0.959 . S
H883 C898 0.959 . S
H884 C898 0.961 . S
H885 C899 0.960 . S
H886 C899 0.961 . S
H887 C899 0.959 . S
H888 C902 0.929 . S
H889 C903 0.931 . S
H890 C905 0.930 . S
C891 H879 0.930 . S
C891 C892 1.399 . S
C891 C896 1.399 . S
C892 C891 1.399 . S
C892 C893 1.376 . S
C893 H880 0.930 . S
C893 C892 1.376 . S
C893 C894 1.388 . S
C894 H881 0.930 . S
C894 C893 1.388 . S
C894 C895 1.390 . S
C895 C894 1.390 . S
C895 C896 1.394 . S
C895 C901 1.465 . S
C896 C891 1.399 . S
C896 C895 1.394 . S
C896 C897 1.516 . S
C897 C896 1.516 . S
C897 C898 1.502 . S
C897 C899 1.561 . S
C897 C900 1.526 . S
C898 H882 0.959 . S
C898 H883 0.959 . S
C898 H884 0.961 . S
C898 C897 1.502 . S
C899 H885 0.960 . S
C899 H886 0.961 . S
C899 H887 0.959 . S
C899 C897 1.561 . S
C900 C897 1.526 . S
C900 C901 1.396 . S
C900 C905 1.390 . S
C901 C895 1.465 . S
C901 C900 1.396 . S
C901 C902 1.399 . S
C902 H888 0.929 . S
C902 C901 1.399 . S
C902 C903 1.385 . S
C903 H889 0.931 . S
C903 C902 1.385 . S
C903 C904 1.389 . S
C904 C903 1.389 . S
C904 C905 1.387 . S
C905 H890 0.930 . S
C905 C900 1.390 . S
C905 C904 1.387 . S
H906 C918 0.930 . S
H907 C920 0.930 . S
H908 C921 0.930 . S
H909 C925 0.959 . S
H910 C925 0.959 . S
H911 C925 0.961 . S
H912 C926 0.960 . S
H913 C926 0.961 . S
H914 C926 0.959 . S
H915 C929 0.929 . S
H916 C930 0.931 . S
H917 C932 0.930 . S
C918 H906 0.930 . S
C918 C919 1.399 . S
C918 C923 1.399 . S
C919 C918 1.399 . S
C919 C920 1.376 . S
C920 H907 0.930 . S
C920 C919 1.376 . S
C920 C921 1.388 . S
C921 H908 0.930 . S
C921 C920 1.388 . S
C921 C922 1.390 . S
C922 C921 1.390 . S
C922 C923 1.394 . S
C922 C928 1.465 . S
C923 C918 1.399 . S
C923 C922 1.394 . S
C923 C924 1.516 . S
C924 C923 1.516 . S
C924 C925 1.502 . S
C924 C926 1.561 . S
C924 C927 1.526 . S
C925 H909 0.959 . S
C925 H910 0.959 . S
C925 H911 0.961 . S
C925 C924 1.502 . S
C926 H912 0.960 . S
C926 H913 0.961 . S
C926 H914 0.959 . S
C926 C924 1.561 . S
C927 C924 1.526 . S
C927 C928 1.396 . S
C927 C932 1.390 . S
C928 C922 1.465 . S
C928 C927 1.396 . S
C928 C929 1.399 . S
C929 H915 0.929 . S
C929 C928 1.399 . S
C929 C930 1.385 . S
C930 H916 0.931 . S
C930 C929 1.385 . S
C930 C931 1.389 . S
C931 C930 1.389 . S
C931 C932 1.387 . S
C932 H917 0.930 . S
C932 C927 1.390 . S
C932 C931 1.387 . S
H933 C945 0.930 . S
H934 C947 0.930 . S
H935 C948 0.930 . S
H936 C952 0.959 . S
H937 C952 0.959 . S
H938 C952 0.961 . S
H939 C953 0.960 . S
H940 C953 0.961 . S
H941 C953 0.959 . S
H942 C956 0.929 . S
H943 C957 0.931 . S
H944 C959 0.930 . S
C945 H933 0.930 . S
C945 C946 1.399 . S
C945 C950 1.399 . S
C946 C945 1.399 . S
C946 C947 1.376 . S
C947 H934 0.930 . S
C947 C946 1.376 . S
C947 C948 1.388 . S
C948 H935 0.930 . S
C948 C947 1.388 . S
C948 C949 1.390 . S
C949 C948 1.390 . S
C949 C950 1.394 . S
C949 C955 1.465 . S
C950 C945 1.399 . S
C950 C949 1.394 . S
C950 C951 1.516 . S
C951 C950 1.516 . S
C951 C952 1.502 . S
C951 C953 1.561 . S
C951 C954 1.526 . S
C952 H936 0.959 . S
C952 H937 0.959 . S
C952 H938 0.961 . S
C952 C951 1.502 . S
C953 H939 0.960 . S
C953 H940 0.961 . S
C953 H941 0.959 . S
C953 C951 1.561 . S
C954 C951 1.526 . S
C954 C955 1.396 . S
C954 C959 1.390 . S
C955 C949 1.465 . S
C955 C954 1.396 . S
C955 C956 1.399 . S
C956 H942 0.929 . S
C956 C955 1.399 . S
C956 C957 1.385 1_556 S
C957 H943 0.931 . S
C957 C956 1.385 1_554 S
C957 C958 1.389 . S
C958 C957 1.389 . S
C958 C959 1.387 1_554 S
C959 H944 0.930 . S
C959 C954 1.390 . S
C959 C958 1.387 1_556 S
H960 C972 0.930 1_545 S
H961 C974 0.930 . S
H962 C975 0.930 . S
H963 C979 0.959 . S
H964 C979 0.959 . S
H965 C979 0.961 1_545 S
H966 C980 0.960 . S
H967 C980 0.961 . S
H968 C980 0.959 . S
H969 C983 0.929 . S
H970 C984 0.931 . S
H971 C986 0.930 . S
C972 H960 0.930 1_565 S
C972 C973 1.399 . S
C972 C977 1.399 . S
C973 C972 1.399 . S
C973 C974 1.376 . S
C974 H961 0.930 . S
C974 C973 1.376 . S
C974 C975 1.388 . S
C975 H962 0.930 . S
C975 C974 1.388 . S
C975 C976 1.390 . S
C976 C975 1.390 . S
C976 C977 1.394 . S
C976 C982 1.465 . S
C977 C972 1.399 . S
C977 C976 1.394 . S
C977 C978 1.516 . S
C978 C977 1.516 . S
C978 C979 1.502 . S
C978 C980 1.561 . S
C978 C981 1.526 . S
C979 H963 0.959 . S
C979 H964 0.959 . S
C979 H965 0.961 1_565 S
C979 C978 1.502 . S
C980 H966 0.960 . S
C980 H967 0.961 . S
C980 H968 0.959 . S
C980 C978 1.561 . S
C981 C978 1.526 . S
C981 C982 1.396 . S
C981 C986 1.390 . S
C982 C976 1.465 . S
C982 C981 1.396 . S
C982 C983 1.399 . S
C983 H969 0.929 . S
C983 C982 1.399 . S
C983 C984 1.385 . S
C984 H970 0.931 . S
C984 C983 1.385 . S
C984 C985 1.389 . S
C985 C984 1.389 . S
C985 C986 1.387 . S
C986 H971 0.930 . S
C986 C981 1.390 . S
C986 C985 1.387 . S
H987 C999 0.930 . S
H988 C1001 0.930 . S
H989 C1002 0.930 . S
H990 C1006 0.959 . S
H991 C1006 0.959 . S
H992 C1006 0.961 . S
H993 C1007 0.960 . S
H994 C1007 0.961 . S
H995 C1007 0.959 . S
H996 C1010 0.929 . S
H997 C1011 0.931 . S
H998 C1013 0.930 . S
C999 H987 0.930 . S
C999 C1000 1.399 . S
C999 C1004 1.399 . S
C1000 C999 1.399 . S
C1000 C1001 1.376 . S
C1001 H988 0.930 . S
C1001 C1000 1.376 . S
C1001 C1002 1.388 . S
C1002 H989 0.930 . S
C1002 C1001 1.388 . S
C1002 C1003 1.390 . S
C1003 C1002 1.390 . S
C1003 C1004 1.394 . S
C1003 C1009 1.465 . S
C1004 C999 1.399 . S
C1004 C1003 1.394 . S
C1004 C1005 1.516 . S
C1005 C1004 1.516 . S
C1005 C1006 1.502 . S
C1005 C1007 1.561 . S
C1005 C1008 1.526 . S
C1006 H990 0.959 . S
C1006 H991 0.959 . S
C1006 H992 0.961 . S
C1006 C1005 1.502 . S
C1007 H993 0.960 . S
C1007 H994 0.961 . S
C1007 H995 0.959 . S
C1007 C1005 1.561 . S
C1008 C1005 1.526 . S
C1008 C1009 1.396 . S
C1008 C1013 1.390 . S
C1009 C1003 1.465 . S
C1009 C1008 1.396 . S
C1009 C1010 1.399 . S
C1010 H996 0.929 . S
C1010 C1009 1.399 . S
C1010 C1011 1.385 . S
C1011 H997 0.931 . S
C1011 C1010 1.385 . S
C1011 C1012 1.389 . S
C1012 C1011 1.389 . S
C1012 C1013 1.387 . S
C1013 H998 0.930 . S
C1013 C1008 1.390 . S
C1013 C1012 1.387 . S
H1014 C1026 0.930 . S
H1015 C1028 0.930 . S
H1016 C1029 0.930 . S
H1017 C1033 0.959 . S
H1018 C1033 0.959 . S
H1019 C1033 0.961 . S
H1020 C1034 0.960 . S
H1021 C1034 0.961 . S
H1022 C1034 0.959 . S
H1023 C1037 0.929 . S
H1024 C1038 0.931 . S
H1025 C1040 0.930 . S
C1026 H1014 0.930 . S
C1026 C1027 1.399 . S
C1026 C1031 1.399 . S
C1027 C1026 1.399 . S
C1027 C1028 1.376 . S
C1028 H1015 0.930 . S
C1028 C1027 1.376 . S
C1028 C1029 1.388 . S
C1029 H1016 0.930 . S
C1029 C1028 1.388 . S
C1029 C1030 1.390 . S
C1030 C1029 1.390 . S
C1030 C1031 1.394 . S
C1030 C1036 1.465 . S
C1031 C1026 1.399 . S
C1031 C1030 1.394 . S
C1031 C1032 1.516 . S
C1032 C1031 1.516 . S
C1032 C1033 1.502 . S
C1032 C1034 1.561 . S
C1032 C1035 1.526 . S
C1033 H1017 0.959 . S
C1033 H1018 0.959 . S
C1033 H1019 0.961 . S
C1033 C1032 1.502 . S
C1034 H1020 0.960 . S
C1034 H1021 0.961 . S
C1034 H1022 0.959 . S
C1034 C1032 1.561 . S
C1035 C1032 1.526 . S
C1035 C1036 1.396 . S
C1035 C1040 1.390 . S
C1036 C1030 1.465 . S
C1036 C1035 1.396 . S
C1036 C1037 1.399 . S
C1037 H1023 0.929 . S
C1037 C1036 1.399 . S
C1037 C1038 1.385 . S
C1038 H1024 0.931 . S
C1038 C1037 1.385 . S
C1038 C1039 1.389 . S
C1039 C1038 1.389 . S
C1039 C1040 1.387 . S
C1040 H1025 0.930 . S
C1040 C1035 1.390 . S
C1040 C1039 1.387 . S
H1041 C1053 0.930 . S
H1042 C1055 0.930 . S
H1043 C1056 0.930 . S
H1044 C1060 0.959 . S
H1045 C1060 0.959 . S
H1046 C1060 0.961 . S
H1047 C1061 0.960 . S
H1048 C1061 0.961 . S
H1049 C1061 0.959 . S
H1050 C1064 0.929 . S
H1051 C1065 0.931 . S
H1052 C1067 0.930 . S
C1053 H1041 0.930 . S
C1053 C1054 1.399 . S
C1053 C1058 1.399 . S
C1054 C1053 1.399 . S
C1054 C1055 1.376 . S
C1055 H1042 0.930 . S
C1055 C1054 1.376 . S
C1055 C1056 1.388 . S
C1056 H1043 0.930 . S
C1056 C1055 1.388 . S
C1056 C1057 1.390 . S
C1057 C1056 1.390 . S
C1057 C1058 1.394 . S
C1057 C1063 1.465 . S
C1058 C1053 1.399 . S
C1058 C1057 1.394 . S
C1058 C1059 1.516 . S
C1059 C1058 1.516 . S
C1059 C1060 1.502 . S
C1059 C1061 1.561 . S
C1059 C1062 1.526 . S
C1060 H1044 0.959 . S
C1060 H1045 0.959 . S
C1060 H1046 0.961 . S
C1060 C1059 1.502 . S
C1061 H1047 0.960 . S
C1061 H1048 0.961 . S
C1061 H1049 0.959 . S
C1061 C1059 1.561 . S
C1062 C1059 1.526 . S
C1062 C1063 1.396 . S
C1062 C1067 1.390 . S
C1063 C1057 1.465 . S
C1063 C1062 1.396 . S
C1063 C1064 1.399 . S
C1064 H1050 0.929 . S
C1064 C1063 1.399 . S
C1064 C1065 1.385 . S
C1065 H1051 0.931 . S
C1065 C1064 1.385 . S
C1065 C1066 1.389 . S
C1066 C1065 1.389 . S
C1066 C1067 1.387 . S
C1067 H1052 0.930 . S
C1067 C1062 1.390 . S
C1067 C1066 1.387 . S
H1068 C1080 0.930 . S
H1069 C1082 0.930 . S
H1070 C1083 0.930 . S
H1071 C1087 0.959 . S
H1072 C1087 0.959 . S
H1073 C1087 0.961 . S
H1074 C1088 0.960 . S
H1075 C1088 0.961 . S
H1076 C1088 0.959 . S
H1077 C1091 0.929 . S
H1078 C1092 0.931 . S
H1079 C1094 0.930 . S
C1080 H1068 0.930 . S
C1080 C1081 1.399 . S
C1080 C1085 1.399 . S
C1081 C1080 1.399 . S
C1081 C1082 1.376 . S
C1082 H1069 0.930 . S
C1082 C1081 1.376 . S
C1082 C1083 1.388 . S
C1083 H1070 0.930 . S
C1083 C1082 1.388 . S
C1083 C1084 1.390 . S
C1084 C1083 1.390 . S
C1084 C1085 1.394 . S
C1084 C1090 1.465 . S
C1085 C1080 1.399 . S
C1085 C1084 1.394 . S
C1085 C1086 1.516 . S
C1086 C1085 1.516 . S
C1086 C1087 1.502 . S
C1086 C1088 1.561 . S
C1086 C1089 1.526 . S
C1087 H1071 0.959 . S
C1087 H1072 0.959 . S
C1087 H1073 0.961 . S
C1087 C1086 1.502 . S
C1088 H1074 0.960 . S
C1088 H1075 0.961 . S
C1088 H1076 0.959 . S
C1088 C1086 1.561 . S
C1089 C1086 1.526 . S
C1089 C1090 1.396 . S
C1089 C1094 1.390 . S
C1090 C1084 1.465 . S
C1090 C1089 1.396 . S
C1090 C1091 1.399 . S
C1091 H1077 0.929 . S
C1091 C1090 1.399 . S
C1091 C1092 1.385 . S
C1092 H1078 0.931 . S
C1092 C1091 1.385 . S
C1092 C1093 1.389 . S
C1093 C1092 1.389 . S
C1093 C1094 1.387 . S
C1094 H1079 0.930 . S
C1094 C1089 1.390 . S
C1094 C1093 1.387 . S
H1095 C1107 0.930 . S
H1096 C1109 0.930 . S
H1097 C1110 0.930 . S
H1098 C1114 0.959 . S
H1099 C1114 0.959 . S
H1100 C1114 0.961 . S
H1101 C1115 0.960 . S
H1102 C1115 0.961 . S
H1103 C1115 0.959 . S
H1104 C1118 0.929 . S
H1105 C1119 0.931 . S
H1106 C1121 0.930 . S
C1107 H1095 0.930 . S
C1107 C1108 1.399 . S
C1107 C1112 1.399 . S
C1108 C1107 1.399 . S
C1108 C1109 1.376 . S
C1109 H1096 0.930 . S
C1109 C1108 1.376 . S
C1109 C1110 1.388 . S
C1110 H1097 0.930 . S
C1110 C1109 1.388 . S
C1110 C1111 1.390 . S
C1111 C1110 1.390 . S
C1111 C1112 1.394 . S
C1111 C1117 1.465 . S
C1112 C1107 1.399 . S
C1112 C1111 1.394 . S
C1112 C1113 1.516 . S
C1113 C1112 1.516 . S
C1113 C1114 1.502 . S
C1113 C1115 1.561 . S
C1113 C1116 1.526 . S
C1114 H1098 0.959 . S
C1114 H1099 0.959 . S
C1114 H1100 0.961 . S
C1114 C1113 1.502 . S
C1115 H1101 0.960 . S
C1115 H1102 0.961 . S
C1115 H1103 0.959 . S
C1115 C1113 1.561 . S
C1116 C1113 1.526 . S
C1116 C1117 1.396 . S
C1116 C1121 1.390 . S
C1117 C1111 1.465 . S
C1117 C1116 1.396 . S
C1117 C1118 1.399 . S
C1118 H1104 0.929 . S
C1118 C1117 1.399 . S
C1118 C1119 1.385 . S
C1119 H1105 0.931 . S
C1119 C1118 1.385 . S
C1119 C1120 1.389 . S
C1120 C1119 1.389 . S
C1120 C1121 1.387 . S
C1121 H1106 0.930 . S
C1121 C1116 1.390 . S
C1121 C1120 1.387 . S
H1122 C1134 0.930 . S
H1123 C1136 0.930 . S
H1124 C1137 0.930 . S
H1125 C1141 0.959 . S
H1126 C1141 0.959 . S
H1127 C1141 0.961 . S
H1128 C1142 0.960 . S
H1129 C1142 0.961 1_556 S
H1130 C1142 0.959 1_556 S
H1131 C1145 0.929 . S
H1132 C1146 0.931 . S
H1133 C1148 0.930 . S
C1134 H1122 0.930 . S
C1134 C1135 1.399 . S
C1134 C1139 1.399 . S
C1135 C1134 1.399 . S
C1135 C1136 1.376 . S
C1136 H1123 0.930 . S
C1136 C1135 1.376 . S
C1136 C1137 1.388 . S
C1137 H1124 0.930 . S
C1137 C1136 1.388 . S
C1137 C1138 1.390 . S
C1138 C1137 1.390 . S
C1138 C1139 1.394 . S
C1138 C1144 1.465 1_554 S
C1139 C1134 1.399 . S
C1139 C1138 1.394 . S
C1139 C1140 1.516 . S
C1140 C1139 1.516 . S
C1140 C1141 1.502 . S
C1140 C1142 1.561 . S
C1140 C1143 1.526 1_554 S
C1141 H1125 0.959 . S
C1141 H1126 0.959 . S
C1141 H1127 0.961 . S
C1141 C1140 1.502 . S
C1142 H1128 0.960 . S
C1142 H1129 0.961 1_554 S
C1142 H1130 0.959 1_554 S
C1142 C1140 1.561 . S
C1143 C1140 1.526 1_556 S
C1143 C1144 1.396 . S
C1143 C1148 1.390 . S
C1144 C1138 1.465 1_556 S
C1144 C1143 1.396 . S
C1144 C1145 1.399 . S
C1145 H1131 0.929 . S
C1145 C1144 1.399 . S
C1145 C1146 1.385 . S
C1146 H1132 0.931 . S
C1146 C1145 1.385 . S
C1146 C1147 1.389 . S
C1147 C1146 1.389 . S
C1147 C1148 1.387 . S
C1148 H1133 0.930 . S
C1148 C1143 1.390 . S
C1148 C1147 1.387 . S
H1149 C1161 0.930 . S
H1150 C1163 0.930 . S
H1151 C1164 0.930 . S
H1152 C1168 0.959 . S
H1153 C1168 0.959 . S
H1154 C1168 0.961 . S
H1155 C1169 0.960 . S
H1156 C1169 0.961 . S
H1157 C1169 0.959 . S
H1158 C1172 0.929 . S
H1159 C1173 0.931 . S
H1160 C1175 0.930 . S
C1161 H1149 0.930 . S
C1161 C1162 1.399 . S
C1161 C1166 1.399 . S
C1162 C1161 1.399 . S
C1162 C1163 1.376 . S
C1163 H1150 0.930 . S
C1163 C1162 1.376 . S
C1163 C1164 1.388 . S
C1164 H1151 0.930 . S
C1164 C1163 1.388 . S
C1164 C1165 1.390 . S
C1165 C1164 1.390 . S
C1165 C1166 1.394 . S
C1165 C1171 1.465 . S
C1166 C1161 1.399 . S
C1166 C1165 1.394 . S
C1166 C1167 1.516 . S
C1167 C1166 1.516 . S
C1167 C1168 1.502 . S
C1167 C1169 1.561 . S
C1167 C1170 1.526 . S
C1168 H1152 0.959 . S
C1168 H1153 0.959 . S
C1168 H1154 0.961 . S
C1168 C1167 1.502 . S
C1169 H1155 0.960 . S
C1169 H1156 0.961 . S
C1169 H1157 0.959 . S
C1169 C1167 1.561 . S
C1170 C1167 1.526 . S
C1170 C1171 1.396 . S
C1170 C1175 1.390 . S
C1171 C1165 1.465 . S
C1171 C1170 1.396 . S
C1171 C1172 1.399 . S
C1172 H1158 0.929 . S
C1172 C1171 1.399 . S
C1172 C1173 1.385 . S
C1173 H1159 0.931 . S
C1173 C1172 1.385 . S
C1173 C1174 1.389 . S
C1174 C1173 1.389 . S
C1174 C1175 1.387 . S
C1175 H1160 0.930 . S
C1175 C1170 1.390 . S
C1175 C1174 1.387 . S
C553 C519 0.931 . S
C541 C51 1.326 . S
C568 C125 1.416 . S
C580 C449 1.245 . S
C595 C217 2.550 . S
C607 C469 2.602 . S
C622 C291 1.413 . S
C634 C483 1.413 . S
C661 C491 0.909 . S
C649 C347 0.806 . S
C676 C421 0.832 . S
C688 C505 0.728 . S
C703 C143 2.261 . S
C715 C463 1.941 . S
C730 C199 1.456 . S
C742 C477 1.279 . S
C757 C273 0.360 . S
C769 C497 0.378 . S
C796 C511 1.634 . S
C784 C365 1.603 . S
C823 C525 1.789 . S
C811 C439 1.783 . S
C850 C455 2.457 . S
C838 C69 2.383 . S
C865 C63 1.334 . S
C877 C462 1.503 . S
C892 C137 1.476 . S
C904 C476 1.623 . S
C931 C498 1.291 . S
C919 C187 1.229 . S
C946 C261 1.390 . S
C958 C512 1.473 . S
C985 C526 1.482 . S
C973 C359 1.322 . S
C1012 C456 1.072 . S
C1000 C433 0.989 . S
C1039 C518 1.637 . S
C1027 C113 1.599 . S
C1054 C211 1.217 . S
C1066 C448 1.378 . S
C1093 C470 1.601 . S
C1081 C285 1.519 . S
C1108 C335 1.253 . S
C1120 C484 1.378 . S
C1135 C409 1.227 . S
C1147 C490 1.316 . S
C1162 C39 1.619 . S
C1174 C504 1.666 . S
