# Generated by pormake.
# Topology wbl, (4,4)-cn, num edge types: 1
# Building blocks:
#     Node 0, Type 0, BuildingBlock: MUDLON_clean_linker_0, # of connection points: 4
#     Node 1, Type 0, BuildingBlock: MUDLON_clean_linker_0, # of connection points: 4
#     Node 2, Type 0, BuildingBlock: MUDLON_clean_linker_0, # of connection points: 4
#     Node 3, Type 0, BuildingBlock: MUDLON_clean_linker_0, # of connection points: 4
#     Node 4, Type 0, BuildingBlock: MUDLON_clean_linker_0, # of connection points: 4
#     Node 5, Type 0, BuildingBlock: MUDLON_clean_linker_0, # of connection points: 4
#     Node 6, Type 0, BuildingBlock: MUDLON_clean_linker_0, # of connection points: 4
#     Node 7, Type 0, BuildingBlock: MUDLON_clean_linker_0, # of connection points: 4
#     Node 8, Type 1, BuildingBlock: KUFVIS_clean_sbu_0, # of connection points: 4
#     Node 9, Type 1, BuildingBlock: KUFVIS_clean_sbu_0, # of connection points: 4
#     Node 10, Type 1, BuildingBlock: KUFVIS_clean_sbu_0, # of connection points: 4
#     Node 11, Type 1, BuildingBlock: KUFVIS_clean_sbu_0, # of connection points: 4
#     Node 12, Type 1, BuildingBlock: KUFVIS_clean_sbu_0, # of connection points: 4
#     Node 13, Type 1, BuildingBlock: KUFVIS_clean_sbu_0, # of connection points: 4
#     Node 14, Type 1, BuildingBlock: KUFVIS_clean_sbu_0, # of connection points: 4
#     Node 15, Type 1, BuildingBlock: KUFVIS_clean_sbu_0, # of connection points: 4
#     Edge 16, Type (0, 1), BuildingBlock: ZUJKAS_clean_linker_0, # of connection points: 2
#     Edge 17, Type (0, 1), BuildingBlock: ZUJKAS_clean_linker_0, # of connection points: 2
#     Edge 18, Type (0, 1), BuildingBlock: ZUJKAS_clean_linker_0, # of connection points: 2
#     Edge 19, Type (0, 1), BuildingBlock: ZUJKAS_clean_linker_0, # of connection points: 2
#     Edge 20, Type (0, 1), BuildingBlock: ZUJKAS_clean_linker_0, # of connection points: 2
#     Edge 21, Type (0, 1), BuildingBlock: ZUJKAS_clean_linker_0, # of connection points: 2
#     Edge 22, Type (0, 1), BuildingBlock: ZUJKAS_clean_linker_0, # of connection points: 2
#     Edge 23, Type (0, 1), BuildingBlock: ZUJKAS_clean_linker_0, # of connection points: 2
#     Edge 24, Type (0, 1), BuildingBlock: ZUJKAS_clean_linker_0, # of connection points: 2
#     Edge 25, Type (0, 1), BuildingBlock: ZUJKAS_clean_linker_0, # of connection points: 2
#     Edge 26, Type (0, 1), BuildingBlock: ZUJKAS_clean_linker_0, # of connection points: 2
#     Edge 27, Type (0, 1), BuildingBlock: ZUJKAS_clean_linker_0, # of connection points: 2
#     Edge 28, Type (0, 1), BuildingBlock: ZUJKAS_clean_linker_0, # of connection points: 2
#     Edge 29, Type (0, 1), BuildingBlock: ZUJKAS_clean_linker_0, # of connection points: 2
#     Edge 30, Type (0, 1), BuildingBlock: ZUJKAS_clean_linker_0, # of connection points: 2
#     Edge 31, Type (0, 1), BuildingBlock: ZUJKAS_clean_linker_0, # of connection points: 2
#     Edge 32, Type (0, 1), BuildingBlock: ZUJKAS_clean_linker_0, # of connection points: 2
#     Edge 33, Type (0, 1), BuildingBlock: ZUJKAS_clean_linker_0, # of connection points: 2
#     Edge 34, Type (0, 1), BuildingBlock: ZUJKAS_clean_linker_0, # of connection points: 2
#     Edge 35, Type (0, 1), BuildingBlock: ZUJKAS_clean_linker_0, # of connection points: 2
#     Edge 36, Type (0, 1), BuildingBlock: ZUJKAS_clean_linker_0, # of connection points: 2
#     Edge 37, Type (0, 1), BuildingBlock: ZUJKAS_clean_linker_0, # of connection points: 2
#     Edge 38, Type (0, 1), BuildingBlock: ZUJKAS_clean_linker_0, # of connection points: 2
#     Edge 39, Type (0, 1), BuildingBlock: ZUJKAS_clean_linker_0, # of connection points: 2
#     Edge 40, Type (0, 1), BuildingBlock: ZUJKAS_clean_linker_0, # of connection points: 2
#     Edge 41, Type (0, 1), BuildingBlock: ZUJKAS_clean_linker_0, # of connection points: 2
#     Edge 42, Type (0, 1), BuildingBlock: ZUJKAS_clean_linker_0, # of connection points: 2
#     Edge 43, Type (0, 1), BuildingBlock: ZUJKAS_clean_linker_0, # of connection points: 2
#     Edge 44, Type (0, 1), BuildingBlock: ZUJKAS_clean_linker_0, # of connection points: 2
#     Edge 45, Type (0, 1), BuildingBlock: ZUJKAS_clean_linker_0, # of connection points: 2
#     Edge 46, Type (0, 1), BuildingBlock: ZUJKAS_clean_linker_0, # of connection points: 2
#     Edge 47, Type (0, 1), BuildingBlock: ZUJKAS_clean_linker_0, # of connection points: 2
# Relax obj value: 0.115
# Max RMSD: 0.122
# Mean RMSD: 0.119
data_MOF--net-wbl--node1-KUFVIS_clean_sbu_0--node2-MUDLON_clean_linker_0--edge1-ZUJKAS_clean_linker_0
_symmetry_space_group_name_H-M    P1
_symmetry_Int_Tables_number       1
_symmetry_cell_setting            triclinic
loop_
_symmetry_equiv_pos_as_xyz
'x, y, z'
_cell_length_a     65.515449
_cell_length_b     65.508274
_cell_length_c     92.799933
_cell_angle_alpha  89.986364
_cell_angle_beta   90.60513
_cell_angle_gamma 90.001576
loop_
_atom_site_label
_atom_site_type_symbol
_atom_site_fract_x
_atom_site_fract_y
_atom_site_fract_z
_atom_type_partial_charge
H0 H 0.09668 0.96791 0.31337 0.0
N1 N 0.0636 0.95475 0.29769 0.0
H2 H 0.10713 0.95594 0.33722 0.0
H3 H 0.04336 0.92945 0.31478 0.0
H4 H 0.05372 0.91734 0.33878 0.0
H5 H 0.06904 0.918 0.28665 0.0
H6 H 0.09929 0.90543 0.27417 0.0
H7 H 0.09378 0.979 0.28604 0.0
H8 H 0.1238 0.96652 0.27335 0.0
H9 H 0.07527 0.99386 0.30478 0.0
H10 H 0.02595 0.95787 0.28716 0.0
H11 H 0.05374 0.02407 0.30423 0.0
H12 H 0.00385 0.98799 0.28711 0.0
H13 H 0.97438 0.1148 0.31364 0.0
H14 H 0.96052 0.12547 0.33688 0.0
H15 H 0.94404 0.06294 0.34595 0.0
H16 H 0.95764 0.05251 0.32271 0.0
H17 H 0.94095 0.05039 0.29996 0.0
H18 H 0.90732 0.05714 0.28954 0.0
H19 H 0.92923 0.11462 0.27283 0.0
H20 H 0.96267 0.10804 0.28388 0.0
H21 H 0.00343 0.06615 0.3196 0.0
H22 H 0.02593 0.03708 0.31731 0.0
H23 H 0.99656 0.02097 0.27703 0.0
N24 N 0.97253 0.0778 0.30176 0.0
H25 H 0.97349 0.04968 0.27948 0.0
C26 C 0.06909 0.94964 0.31233 0.0
C27 C 0.08697 0.95722 0.31894 0.0
C28 C 0.09296 0.95032 0.33258 0.0
C29 C 0.0813 0.93562 0.33985 0.0
C30 C 0.06316 0.92848 0.33337 0.0
C31 C 0.05713 0.93547 0.31975 0.0
C32 C 0.07899 0.94939 0.28733 0.0
C33 C 0.08063 0.92879 0.28338 0.0
C34 C 0.09795 0.92161 0.27637 0.0
C35 C 0.11388 0.93501 0.27292 0.0
C36 C 0.11164 0.95592 0.27585 0.0
C37 C 0.09441 0.96307 0.28311 0.0
C38 C 0.05228 0.9735 0.29586 0.0
C39 C 0.0599 0.99245 0.30058 0.0
C40 C 0.0474 0.00976 0.30044 0.0
C41 C 0.02691 0.0085 0.29579 0.0
C42 C 0.01957 0.98965 0.29062 0.0
C43 C 0.03216 0.97239 0.29066 0.0
C44 C 0.96706 0.08294 0.3164 0.0
C45 C 0.9681 0.1034 0.32078 0.0
C46 C 0.96018 0.10944 0.33405 0.0
C47 C 0.95098 0.09508 0.34319 0.0
C48 C 0.95066 0.07443 0.33903 0.0
C49 C 0.95856 0.06842 0.32577 0.0
C50 C 0.95435 0.07885 0.29279 0.0
C51 C 0.93863 0.06427 0.29385 0.0
C52 C 0.91938 0.06813 0.28779 0.0
C53 C 0.91543 0.0866 0.28052 0.0
C54 C 0.9316 0.10045 0.27862 0.0
C55 C 0.95081 0.09661 0.28474 0.0
C56 C 0.98543 0.05972 0.30033 0.0
C57 C 0.00128 0.05614 0.31042 0.0
C58 C 0.01455 0.03961 0.30896 0.0
C59 C 0.01298 0.02644 0.29705 0.0
C60 C 0.99785 0.03043 0.28656 0.0
C61 C 0.98445 0.04695 0.28806 0.0
H62 H 0.95816 0.41755 0.56581 0.0
N63 N 0.94342 0.44945 0.54965 0.0
H64 H 0.94666 0.40725 0.58959 0.0
H65 H 0.91615 0.4682 0.56607 0.0
H66 H 0.90445 0.4579 0.59005 0.0
H67 H 0.90821 0.44052 0.53692 0.0
H68 H 0.89949 0.40954 0.52364 0.0
H69 H 0.97102 0.4211 0.5395 0.0
H70 H 0.96263 0.39053 0.52585 0.0
H71 H 0.98268 0.44117 0.5588 0.0
H72 H 0.94485 0.48638 0.5379 0.0
H73 H 0.01176 0.464 0.5577 0.0
H74 H 0.97386 0.50994 0.53734 0.0
H75 H 0.10213 0.54169 0.5599 0.0
H76 H 0.11572 0.55558 0.58259 0.0
H77 H 0.0552 0.57573 0.59395 0.0
H78 H 0.04181 0.56189 0.57135 0.0
H79 H 0.03583 0.57553 0.54832 0.0
H80 H 0.04134 0.60908 0.53746 0.0
H81 H 0.09797 0.58774 0.51947 0.0
H82 H 0.09259 0.5543 0.53067 0.0
H83 H 0.05287 0.51638 0.56966 0.0
H84 H 0.02391 0.49364 0.56897 0.0
H85 H 0.00653 0.51723 0.52716 0.0
N86 N 0.06406 0.54461 0.54967 0.0
H87 H 0.03511 0.5408 0.52805 0.0
C88 C 0.93811 0.44386 0.56418 0.0
C89 C 0.94672 0.42672 0.57108 0.0
C90 C 0.9401 0.4208 0.58471 0.0
C91 C 0.92464 0.43176 0.5917 0.0
C92 C 0.91625 0.44904 0.58487 0.0
C93 C 0.92299 0.45504 0.57126 0.0
C94 C 0.94018 0.4333 0.53928 0.0
C95 C 0.92024 0.4299 0.5342 0.0
C96 C 0.91531 0.41215 0.52658 0.0
C97 C 0.93031 0.39735 0.52378 0.0
C98 C 0.9506 0.40139 0.52806 0.0
C99 C 0.95548 0.4191 0.53579 0.0
C100 C 0.96145 0.46198 0.54831 0.0
C101 C 0.98057 0.45596 0.55387 0.0
C102 C 0.99725 0.46923 0.55339 0.0
C103 C 0.9952 0.48899 0.54757 0.0
C104 C 0.97614 0.49481 0.54176 0.0
C105 C 0.9595 0.48141 0.54211 0.0
C106 C 0.07104 0.55074 0.56389 0.0
C107 C 0.0918 0.54884 0.56741 0.0
C108 C 0.09951 0.55679 0.58035 0.0
C109 C 0.08655 0.56692 0.58998 0.0
C110 C 0.06563 0.56835 0.58662 0.0
C111 C 0.05793 0.56036 0.57372 0.0
C112 C 0.06397 0.56241 0.54043 0.0
C113 C 0.04923 0.57791 0.54183 0.0
C114 C 0.05242 0.59709 0.53565 0.0
C115 C 0.07022 0.60107 0.5278 0.0
C116 C 0.08408 0.58509 0.52542 0.0
C117 C 0.08101 0.56598 0.53176 0.0
C118 C 0.04582 0.53176 0.54942 0.0
C119 C 0.04258 0.51736 0.56049 0.0
C120 C 0.0261 0.50388 0.55996 0.0
C121 C 0.01267 0.50363 0.54806 0.0
C122 C 0.0162 0.51735 0.53669 0.0
C123 C 0.03265 0.53103 0.53727 0.0
H124 H 0.61956 0.49157 0.82158 0.0
N125 N 0.58738 0.48462 0.80457 0.0
H126 H 0.62763 0.47552 0.84483 0.0
H127 H 0.56298 0.458 0.8195 0.0
H128 H 0.57098 0.44187 0.84243 0.0
H129 H 0.58133 0.44403 0.79839 0.0
H130 H 0.60341 0.42311 0.78335 0.0
H131 H 0.6138 0.49805 0.78524 0.0
H132 H 0.63559 0.47715 0.76978 0.0
H133 H 0.57857 0.52367 0.80834 0.0
H134 H 0.55179 0.46649 0.79521 0.0
H135 H 0.5449 0.53973 0.8078 0.0
H136 H 0.51795 0.48199 0.79541 0.0
H137 H 0.45345 0.57885 0.81964 0.0
H138 H 0.44332 0.59765 0.84117 0.0
H139 H 0.42121 0.5416 0.85998 0.0
H140 H 0.43137 0.52294 0.83833 0.0
H141 H 0.41029 0.52201 0.80882 0.0
H142 H 0.38298 0.5362 0.79383 0.0
H143 H 0.42372 0.58384 0.77956 0.0
H144 H 0.45101 0.56943 0.79474 0.0
H145 H 0.48243 0.55011 0.82808 0.0
H146 H 0.51631 0.53848 0.82288 0.0
H147 H 0.49346 0.50519 0.78591 0.0
N148 N 0.44656 0.5383 0.8142 0.0
H149 H 0.45889 0.5163 0.79147 0.0
C150 C 0.59065 0.47624 0.81881 0.0
C151 C 0.60879 0.48094 0.82621 0.0
C152 C 0.61344 0.47163 0.83941 0.0
C153 C 0.59995 0.45739 0.84547 0.0
C154 C 0.58156 0.45299 0.83817 0.0
C155 C 0.57696 0.46225 0.82498 0.0
C156 C 0.59614 0.47269 0.79312 0.0
C157 C 0.59274 0.45152 0.79194 0.0
C158 C 0.60539 0.43953 0.78334 0.0
C159 C 0.6213 0.44851 0.77553 0.0
C160 C 0.62337 0.46985 0.77564 0.0
C161 C 0.61095 0.4818 0.78444 0.0
C162 C 0.56772 0.49391 0.802 0.0
C163 C 0.5654 0.51466 0.80518 0.0
C164 C 0.54611 0.52372 0.80501 0.0
C165 C 0.52856 0.5121 0.80183 0.0
C166 C 0.53106 0.4915 0.79783 0.0
C167 C 0.55046 0.48252 0.79782 0.0
C168 C 0.44305 0.54944 0.82738 0.0
C169 C 0.4465 0.57061 0.82841 0.0
C170 C 0.44067 0.58134 0.84072 0.0
C171 C 0.43137 0.57113 0.85225 0.0
C172 C 0.42855 0.54988 0.85135 0.0
C173 C 0.4343 0.53919 0.83902 0.0
C174 C 0.43255 0.54468 0.80297 0.0
C175 C 0.41345 0.53517 0.80213 0.0
C176 C 0.39789 0.54332 0.79353 0.0
C177 C 0.4011 0.56128 0.78556 0.0
C178 C 0.42067 0.57017 0.78573 0.0
C179 C 0.43631 0.5619 0.79433 0.0
C180 C 0.46757 0.53461 0.80997 0.0
C181 C 0.48436 0.54079 0.81859 0.0
C182 C 0.50409 0.53408 0.81557 0.0
C183 C 0.50778 0.52091 0.80392 0.0
C184 C 0.49122 0.51517 0.79506 0.0
C185 C 0.47141 0.52178 0.79813 0.0
H186 H 0.46144 0.92207 0.06944 0.0
N187 N 0.44823 0.95358 0.05219 0.0
H188 H 0.44859 0.91308 0.09305 0.0
H189 H 0.42007 0.97322 0.06735 0.0
H190 H 0.40695 0.96415 0.09122 0.0
H191 H 0.41434 0.94526 0.03752 0.0
H192 H 0.40603 0.91366 0.02473 0.0
H193 H 0.4759 0.92383 0.04442 0.0
H194 H 0.46779 0.89245 0.0316 0.0
H195 H 0.48651 0.94516 0.06329 0.0
H196 H 0.45152 0.98965 0.03932 0.0
H197 H 0.51617 0.96719 0.06259 0.0
H198 H 0.48122 0.01242 0.03907 0.0
H199 H 0.60957 0.0373 0.06403 0.0
H200 H 0.62379 0.0502 0.0868 0.0
H201 H 0.56592 0.07876 0.09612 0.0
H202 H 0.55174 0.06519 0.07371 0.0
H203 H 0.54597 0.07623 0.05001 0.0
H204 H 0.55353 0.1085 0.0381 0.0
H205 H 0.60968 0.08292 0.02201 0.0
H206 H 0.60237 0.05096 0.03457 0.0
H207 H 0.55786 0.01895 0.07413 0.0
H208 H 0.52787 0.99766 0.07333 0.0
H209 H 0.5152 0.01746 0.02977 0.0
N210 N 0.57245 0.04399 0.05303 0.0
H211 H 0.54493 0.03962 0.03068 0.0
C212 C 0.44185 0.94857 0.06662 0.0
C213 C 0.44982 0.93162 0.07412 0.0
C214 C 0.44243 0.92644 0.08768 0.0
C215 C 0.42679 0.93793 0.09402 0.0
C216 C 0.41891 0.95493 0.08656 0.0
C217 C 0.42646 0.96021 0.07301 0.0
C218 C 0.44563 0.93703 0.04204 0.0
C219 C 0.42623 0.93404 0.03588 0.0
C220 C 0.42153 0.91596 0.02857 0.0
C221 C 0.43619 0.90042 0.02731 0.0
C222 C 0.45606 0.90401 0.0326 0.0
C223 C 0.46077 0.92212 0.03989 0.0
C224 C 0.46662 0.96568 0.05126 0.0
C225 C 0.48513 0.95962 0.05779 0.0
C226 C 0.50216 0.97244 0.05753 0.0
C227 C 0.5011 0.99176 0.05092 0.0
C228 C 0.48269 0.99761 0.04414 0.0
C229 C 0.46568 0.98466 0.04432 0.0
C230 C 0.57969 0.05026 0.06714 0.0
C231 C 0.59994 0.0461 0.07113 0.0
C232 C 0.60806 0.05365 0.08405 0.0
C233 C 0.59604 0.06564 0.09325 0.0
C234 C 0.57556 0.06942 0.08938 0.0
C235 C 0.56746 0.06183 0.07648 0.0
C236 C 0.57379 0.0612 0.04331 0.0
C237 C 0.55975 0.07745 0.04374 0.0
C238 C 0.56405 0.09591 0.03682 0.0
C239 C 0.58241 0.09847 0.02927 0.0
C240 C 0.59563 0.08166 0.02799 0.0
C241 C 0.59137 0.06328 0.03498 0.0
C242 C 0.55339 0.03239 0.05285 0.0
C243 C 0.54842 0.0195 0.06451 0.0
C244 C 0.53132 0.00682 0.06395 0.0
C245 C 0.51896 0.00587 0.05152 0.0
C246 C 0.52407 0.01818 0.03967 0.0
C247 C 0.54116 0.03104 0.04026 0.0
H248 H 0.092 0.52113 0.93383 0.0
N249 N 0.06257 0.53623 0.95011 0.0
H250 H 0.10406 0.53445 0.91073 0.0
H251 H 0.04447 0.56663 0.93408 0.0
H252 H 0.05623 0.57979 0.91108 0.0
H253 H 0.06116 0.57658 0.95738 0.0
H254 H 0.08752 0.59464 0.97123 0.0
H255 H 0.08976 0.51915 0.96764 0.0
H256 H 0.11572 0.5369 0.98202 0.0
H257 H 0.05265 0.49738 0.95347 0.0
H258 H 0.02739 0.55799 0.95418 0.0
H259 H 0.01871 0.48291 0.95659 0.0
H260 H 0.99311 0.54388 0.95559 0.0
H261 H 0.92403 0.44131 0.94427 0.0
H262 H 0.91598 0.4223 0.92238 0.0
H263 H 0.90102 0.47872 0.90058 0.0
H264 H 0.90877 0.49771 0.92277 0.0
H265 H 0.88343 0.49655 0.95345 0.0
H266 H 0.85825 0.48188 0.96957 0.0
H267 H 0.90347 0.4391 0.9854 0.0
H268 H 0.92859 0.45393 0.96897 0.0
H269 H 0.95623 0.46257 0.94117 0.0
H270 H 0.99028 0.47575 0.94373 0.0
H271 H 0.96702 0.52793 0.967 0.0
N272 N 0.92047 0.48262 0.9482 0.0
H273 H 0.93233 0.51534 0.96311 0.0
C274 C 0.0672 0.5426 0.93564 0.0
C275 C 0.08391 0.53368 0.92875 0.0
C276 C 0.09088 0.54143 0.91567 0.0
C277 C 0.08113 0.55822 0.90916 0.0
C278 C 0.06392 0.56672 0.91579 0.0
C279 C 0.05711 0.5591 0.92897 0.0
C280 C 0.07378 0.54653 0.96133 0.0
C281 C 0.07268 0.56781 0.96306 0.0
C282 C 0.08776 0.57811 0.97102 0.0
C283 C 0.10401 0.56723 0.97743 0.0
C284 C 0.10371 0.54577 0.9769 0.0
C285 C 0.08878 0.53556 0.96886 0.0
C286 C 0.04246 0.52864 0.9531 0.0
C287 C 0.03965 0.50754 0.95416 0.0
C288 C 0.02013 0.49932 0.95575 0.0
C289 C 0.0028 0.51207 0.95591 0.0
C290 C 0.00587 0.5334 0.95554 0.0
C291 C 0.02554 0.5416 0.95441 0.0
C292 C 0.91696 0.47103 0.93516 0.0
C293 C 0.91899 0.44964 0.93482 0.0
C294 C 0.91454 0.43877 0.92224 0.0
C295 C 0.90784 0.449 0.90975 0.0
C296 C 0.90593 0.47038 0.91008 0.0
C297 C 0.91048 0.48127 0.92267 0.0
C298 C 0.90775 0.47631 0.95996 0.0
C299 C 0.88803 0.4844 0.96071 0.0
C300 C 0.87369 0.47599 0.96998 0.0
C301 C 0.87878 0.45919 0.97876 0.0
C302 C 0.89899 0.45185 0.97865 0.0
C303 C 0.9134 0.46038 0.96935 0.0
C304 C 0.94135 0.48817 0.95169 0.0
C305 C 0.95819 0.47683 0.94685 0.0
C306 C 0.97801 0.48437 0.94852 0.0
C307 C 0.98173 0.50315 0.95548 0.0
C308 C 0.96493 0.51375 0.96119 0.0
C309 C 0.94502 0.50644 0.95916 0.0
H310 H 0.54984 0.42023 0.19063 0.0
N311 N 0.56441 0.45263 0.20637 0.0
H312 H 0.56052 0.41005 0.16666 0.0
H313 H 0.59072 0.47177 0.18935 0.0
H314 H 0.60159 0.46157 0.16514 0.0
H315 H 0.59996 0.44298 0.21834 0.0
H316 H 0.60876 0.41152 0.23099 0.0
H317 H 0.53672 0.42479 0.21713 0.0
H318 H 0.54523 0.39372 0.23018 0.0
H319 H 0.52528 0.44424 0.19697 0.0
H320 H 0.5625 0.48924 0.21865 0.0
H321 H 0.49619 0.46711 0.1977 0.0
H322 H 0.53332 0.51269 0.21908 0.0
H323 H 0.40642 0.53925 0.19287 0.0
H324 H 0.3934 0.55323 0.16998 0.0
H325 H 0.45143 0.58264 0.163 0.0
H326 H 0.46452 0.56814 0.18556 0.0
H327 H 0.46963 0.57775 0.20945 0.0
H328 H 0.46159 0.61022 0.22087 0.0
H329 H 0.4039 0.58554 0.23488 0.0
H330 H 0.41172 0.55339 0.22274 0.0
H331 H 0.45656 0.5201 0.18462 0.0
H332 H 0.48579 0.49776 0.18585 0.0
H333 H 0.4993 0.51885 0.22896 0.0
N334 N 0.44269 0.54612 0.20522 0.0
H335 H 0.4702 0.54184 0.2277 0.0
C336 C 0.56938 0.44696 0.19178 0.0
C337 C 0.56087 0.42959 0.18512 0.0
C338 C 0.56701 0.42374 0.17137 0.0
C339 C 0.58189 0.43501 0.164 0.0
C340 C 0.59023 0.45248 0.17061 0.0
C341 C 0.58396 0.45841 0.18435 0.0
C342 C 0.56778 0.43639 0.21668 0.0
C343 C 0.58787 0.43254 0.22126 0.0
C344 C 0.59285 0.4145 0.22852 0.0
C345 C 0.57774 0.39987 0.23147 0.0
C346 C 0.55733 0.40443 0.22782 0.0
C347 C 0.55239 0.42243 0.22044 0.0
C348 C 0.54625 0.46498 0.2078 0.0
C349 C 0.52725 0.45897 0.202 0.0
C350 C 0.51056 0.47223 0.2023 0.0
C351 C 0.51244 0.4919 0.20827 0.0
C352 C 0.53127 0.49763 0.21448 0.0
C353 C 0.54797 0.48429 0.21422 0.0
C354 C 0.43629 0.55278 0.191 0.0
C355 C 0.41638 0.54844 0.18626 0.0
C356 C 0.409 0.55643 0.17324 0.0
C357 C 0.42138 0.56916 0.16485 0.0
C358 C 0.44151 0.5731 0.1694 0.0
C359 C 0.44898 0.56485 0.18229 0.0
C360 C 0.4411 0.56315 0.21508 0.0
C361 C 0.45541 0.57919 0.21518 0.0
C362 C 0.45081 0.59777 0.22183 0.0
C363 C 0.43189 0.60068 0.22859 0.0
C364 C 0.41839 0.58403 0.22948 0.0
C365 C 0.42294 0.56553 0.22274 0.0
C366 C 0.46145 0.53408 0.20567 0.0
C367 C 0.46602 0.52065 0.19424 0.0
C368 C 0.48267 0.50741 0.19504 0.0
C369 C 0.49502 0.50653 0.20747 0.0
C370 C 0.49038 0.51946 0.21908 0.0
C371 C 0.47368 0.53282 0.21828 0.0
H372 H 0.39231 0.99309 0.42971 0.0
N373 N 0.41887 0.98582 0.45085 0.0
H374 H 0.38758 0.97369 0.40738 0.0
H375 H 0.44268 0.95423 0.44179 0.0
H376 H 0.43826 0.93481 0.41944 0.0
H377 H 0.4278 0.95056 0.46534 0.0
H378 H 0.40424 0.93176 0.48075 0.0
H379 H 0.3848 1.00009 0.46216 0.0
H380 H 0.36107 0.98147 0.47744 0.0
H381 H 0.42159 0.02536 0.44564 0.0
H382 H 0.45601 0.97418 0.4619 0.0
H383 H 0.45182 0.047 0.44752 0.0
H384 H 0.48648 0.9958 0.46408 0.0
H385 H 0.53056 0.11104 0.43631 0.0
H386 H 0.54121 0.12141 0.41213 0.0
H387 H 0.57151 0.06331 0.40689 0.0
H388 H 0.56046 0.05304 0.43068 0.0
H389 H 0.57101 0.049 0.45455 0.0
H390 H 0.60385 0.05613 0.46598 0.0
H391 H 0.58159 0.11522 0.47937 0.0
H392 H 0.54906 0.10826 0.46717 0.0
H393 H 0.50428 0.08597 0.46104 0.0
H394 H 0.47488 0.06338 0.46393 0.0
H395 H 0.51073 0.01274 0.44838 0.0
N396 N 0.54033 0.07687 0.4502 0.0
H397 H 0.54013 0.03526 0.44606 0.0
C398 C 0.4178 0.97514 0.43733 0.0
C399 C 0.40251 0.98053 0.4274 0.0
C400 C 0.39988 0.96945 0.41467 0.0
C401 C 0.41254 0.95268 0.41165 0.0
C402 C 0.42812 0.94749 0.42154 0.0
C403 C 0.43076 0.95866 0.43428 0.0
C404 C 0.40796 0.97674 0.46258 0.0
C405 C 0.41355 0.95766 0.4683 0.0
C406 C 0.39997 0.94685 0.47702 0.0
C407 C 0.38065 0.95499 0.48021 0.0
C408 C 0.37586 0.97478 0.47536 0.0
C409 C 0.38939 0.98549 0.46661 0.0
C410 C 0.43654 0.99828 0.45365 0.0
C411 C 0.43566 0.01893 0.44988 0.0
C412 C 0.45296 0.03127 0.45103 0.0
C413 C 0.47165 0.02319 0.45601 0.0
C414 C 0.4724 0.00247 0.46009 0.0
C415 C 0.45497 0.99011 0.45893 0.0
C416 C 0.54457 0.08129 0.43532 0.0
C417 C 0.53914 0.10045 0.42977 0.0
C418 C 0.54541 0.10639 0.41603 0.0
C419 C 0.55733 0.09324 0.40758 0.0
C420 C 0.56212 0.07374 0.41299 0.0
C421 C 0.55582 0.06782 0.42671 0.0
C422 C 0.55762 0.07826 0.45985 0.0
C423 C 0.57301 0.06333 0.46014 0.0
C424 C 0.59185 0.06742 0.46679 0.0
C425 C 0.59558 0.08645 0.47338 0.0
C426 C 0.57948 0.10063 0.47408 0.0
C427 C 0.56078 0.09659 0.4673 0.0
C428 C 0.52432 0.06246 0.45321 0.0
C429 C 0.50583 0.06991 0.45849 0.0
C430 C 0.48903 0.057 0.46002 0.0
C431 C 0.4903 0.03626 0.45619 0.0
C432 C 0.50919 0.02858 0.45152 0.0
C433 C 0.52607 0.04155 0.45006 0.0
H434 H 0.01664 0.8931 0.68191 0.0
N435 N 0.02692 0.9209 0.7015 0.0
H436 H 0.03355 0.88591 0.65904 0.0
H437 H 0.0596 0.94152 0.69048 0.0
H438 H 0.07654 0.93452 0.66766 0.0
H439 H 0.06626 0.92131 0.71189 0.0
H440 H 0.08151 0.89525 0.72726 0.0
H441 H 0.00692 0.89447 0.71777 0.0
H442 H 0.0218 0.86896 0.73398 0.0
H443 H 0.99016 0.93366 0.69379 0.0
H444 H 0.04594 0.95365 0.71432 0.0
H445 H 0.9773 0.96874 0.69387 0.0
H446 H 0.03318 0.98892 0.71442 0.0
H447 H 0.94588 0.05298 0.68462 0.0
H448 H 0.92715 0.06366 0.66306 0.0
H449 H 0.97805 0.10171 0.65085 0.0
H450 H 0.99688 0.09046 0.67235 0.0
H451 H 0.0015 0.09994 0.70267 0.0
H452 H 0.98541 0.12717 0.71649 0.0
H453 H 0.9323 0.08906 0.72241 0.0
H454 H 0.94903 0.06154 0.70918 0.0
H455 H 0.98236 0.03368 0.67436 0.0
H456 H 0.99082 0.99858 0.67918 0.0
H457 H 0.00435 0.01328 0.72353 0.0
N458 N 0.98384 0.06601 0.69324 0.0
H459 H 0.99523 0.04892 0.71894 0.0
C460 C 0.03678 0.9178 0.68786 0.0
C461 C 0.02963 0.90225 0.67878 0.0
C462 C 0.03928 0.89822 0.66574 0.0
C463 C 0.05639 0.90965 0.66156 0.0
C464 C 0.06353 0.92531 0.67066 0.0
C465 C 0.05377 0.92941 0.68368 0.0
C466 C 0.03543 0.90955 0.71343 0.0
C467 C 0.05638 0.9102 0.71687 0.0
C468 C 0.0651 0.89526 0.72579 0.0
C469 C 0.05299 0.8796 0.73163 0.0
C470 C 0.03172 0.88036 0.72932 0.0
C471 C 0.0231 0.89509 0.72022 0.0
C472 C 0.01893 0.94105 0.70399 0.0
C473 C 0.99942 0.9456 0.6986 0.0
C474 C 0.99216 0.96562 0.6986 0.0
C475 C 0.0043 0.98157 0.70405 0.0
C476 C 0.02345 0.97689 0.71024 0.0
C477 C 0.03078 0.95676 0.71015 0.0
C478 C 0.97291 0.07085 0.68003 0.0
C479 C 0.95303 0.06356 0.67729 0.0
C480 C 0.94228 0.06979 0.66497 0.0
C481 C 0.95104 0.08363 0.65522 0.0
C482 C 0.97094 0.09081 0.658 0.0
C483 C 0.98173 0.08445 0.67027 0.0
C484 C 0.9764 0.0789 0.70468 0.0
C485 C 0.98672 0.09722 0.70743 0.0
C486 C 0.97735 0.11285 0.71514 0.0
C487 C 0.95729 0.11053 0.72016 0.0
C488 C 0.9477 0.09142 0.71862 0.0
C489 C 0.95722 0.07567 0.71099 0.0
C490 C 0.98658 0.04437 0.69649 0.0
C491 C 0.98615 0.02962 0.68537 0.0
C492 C 0.99126 0.00931 0.68806 0.0
C493 C 0.99783 0.00308 0.70179 0.0
C494 C 0.99902 0.01763 0.71287 0.0
C495 C 0.99353 0.03802 0.71025 0.0
Mn496 Mn 0.33988 0.66854 0.00936 0.0
Mn497 Mn 0.34371 0.61719 0.0121 0.0
C498 C 0.34496 0.65357 0.03172 0.0
C499 C 0.35446 0.70061 0.00571 0.0
C500 C 0.30337 0.63924 0.00823 0.0
O501 O 0.34556 0.65996 0.98869 0.0
O502 O 0.34857 0.62605 0.99197 0.0
C503 C 0.38783 0.61332 0.00604 0.0
N504 N 0.37164 0.60954 0.01473 0.0
C505 C 0.39257 0.59003 0.03114 0.0
C506 C 0.40946 0.59359 0.02232 0.0
C507 C 0.40708 0.60536 0.00975 0.0
C508 C 0.37377 0.59835 0.02689 0.0
H509 H 0.38605 0.62231 0.99636 0.0
C510 C 0.34892 0.64199 0.98399 0.0
O511 O 0.33518 0.69734 0.0033 0.0
O512 O 0.36534 0.68512 0.00993 0.0
N513 N 0.33962 0.60605 0.0309 0.0
C514 C 0.3221 0.60507 0.03865 0.0
C515 C 0.32191 0.594 0.0516 0.0
C516 C 0.33967 0.58394 0.05638 0.0
C517 C 0.35754 0.58528 0.04828 0.0
C518 C 0.35674 0.5963 0.03537 0.0
H519 H 0.30835 0.61259 0.03493 0.0
O520 O 0.33719 0.67173 0.03063 0.0
O521 O 0.34971 0.64464 0.01967 0.0
O522 O 0.31067 0.65729 0.00783 0.0
O523 O 0.31444 0.62333 0.00971 0.0
C524 C 0.37619 0.57636 0.05262 0.0
C525 C 0.39372 0.57881 0.04408 0.0
H526 H 0.42435 0.58752 0.02516 0.0
H527 H 0.42006 0.60825 0.00292 0.0
H528 H 0.30809 0.59313 0.05785 0.0
H529 H 0.33946 0.57536 0.06636 0.0
H530 H 0.37729 0.56783 0.0626 0.0
H531 H 0.40804 0.57215 0.04764 0.0
Mn532 Mn 0.34826 0.84534 0.25684 0.0
Mn533 Mn 0.39912 0.85201 0.26059 0.0
C534 C 0.36281 0.84974 0.27952 0.0
C535 C 0.31564 0.8589 0.25323 0.0
C536 C 0.37963 0.81086 0.25438 0.0
O537 O 0.35698 0.85328 0.23656 0.0
O538 O 0.39045 0.85914 0.24063 0.0
C539 C 0.40101 0.89692 0.25724 0.0
N540 N 0.40495 0.87985 0.26517 0.0
C541 C 0.42184 0.89952 0.28366 0.0
C542 C 0.41805 0.91732 0.27566 0.0
C543 C 0.40751 0.91601 0.26243 0.0
C544 C 0.41488 0.88096 0.27799 0.0
H545 H 0.39301 0.89597 0.24703 0.0
C546 C 0.37462 0.85893 0.23239 0.0
O547 O 0.31969 0.84002 0.25008 0.0
O548 O 0.33059 0.86993 0.25816 0.0
N549 N 0.40945 0.84592 0.27946 0.0
C550 C 0.41085 0.82749 0.28622 0.0
C551 C 0.42039 0.82624 0.29981 0.0
C552 C 0.42863 0.84388 0.30622 0.0
C553 C 0.42716 0.86263 0.29899 0.0
C554 C 0.41736 0.86297 0.28552 0.0
H555 H 0.40467 0.81386 0.2813 0.0
O556 O 0.34514 0.84094 0.27811 0.0
O557 O 0.37134 0.85554 0.26765 0.0
O558 O 0.3611 0.81692 0.25447 0.0
O559 O 0.39479 0.82285 0.25626 0.0
C560 C 0.43492 0.88102 0.30467 0.0
C561 C 0.43213 0.89949 0.29707 0.0
H562 H 0.42307 0.93206 0.27961 0.0
H563 H 0.40446 0.92968 0.25622 0.0
H564 H 0.42145 0.81171 0.30532 0.0
H565 H 0.43597 0.84286 0.31671 0.0
H566 H 0.44276 0.8812 0.31501 0.0
H567 H 0.43781 0.91359 0.30169 0.0
Mn568 Mn 0.15811 0.84404 0.49856 0.0
Mn569 Mn 0.10749 0.85002 0.49281 0.0
C570 C 0.14542 0.85 0.47553 0.0
C571 C 0.19015 0.8581 0.50379 0.0
C572 C 0.12732 0.80876 0.49786 0.0
O573 O 0.14764 0.8499 0.51875 0.0
O574 O 0.11433 0.85464 0.51347 0.0
C575 C 0.10475 0.89431 0.49886 0.0
N576 N 0.10163 0.87827 0.48976 0.0
C577 C 0.08581 0.90004 0.47199 0.0
C578 C 0.08878 0.91678 0.48119 0.0
C579 C 0.09838 0.91392 0.49465 0.0
C580 C 0.09267 0.88091 0.47671 0.0
H581 H 0.11201 0.89215 0.50925 0.0
C582 C 0.12938 0.85416 0.5224 0.0
O583 O 0.18645 0.83886 0.50598 0.0
O584 O 0.1751 0.86912 0.49902 0.0
N585 N 0.09868 0.84625 0.47327 0.0
C586 C 0.09784 0.82871 0.4654 0.0
C587 C 0.08908 0.82904 0.45152 0.0
C588 C 0.08104 0.84733 0.44596 0.0
C589 C 0.08192 0.86514 0.45432 0.0
C590 C 0.09094 0.86391 0.46803 0.0
H591 H 0.10395 0.81461 0.46963 0.0
O592 O 0.16313 0.84147 0.47736 0.0
O593 O 0.13573 0.85474 0.48717 0.0
O594 O 0.14564 0.81521 0.49929 0.0
O595 O 0.11209 0.8205 0.49546 0.0
C596 C 0.07423 0.88408 0.44956 0.0
C597 C 0.07637 0.90157 0.45832 0.0
H598 H 0.0838 0.93191 0.47801 0.0
H599 H 0.10077 0.92678 0.50179 0.0
H600 H 0.08851 0.81523 0.44514 0.0
H601 H 0.07431 0.84754 0.43525 0.0
H602 H 0.06696 0.88545 0.43907 0.0
H603 H 0.07077 0.91613 0.45441 0.0
Mn604 Mn 0.16448 0.65704 0.7487 0.0
Mn605 Mn 0.16009 0.60633 0.74299 0.0
C606 C 0.1602 0.64446 0.72549 0.0
C607 C 0.14954 0.6886 0.75372 0.0
C608 C 0.20041 0.62729 0.7498 0.0
O609 O 0.15794 0.64597 0.76873 0.0
O610 O 0.15272 0.61289 0.76312 0.0
C611 C 0.11534 0.60212 0.74597 0.0
N612 N 0.13254 0.59955 0.73806 0.0
C613 C 0.11374 0.5824 0.71923 0.0
C614 C 0.09582 0.58477 0.7272 0.0
C615 C 0.09661 0.59479 0.74058 0.0
C616 C 0.13189 0.59028 0.72506 0.0
H617 H 0.11593 0.60964 0.75632 0.0
C618 C 0.15276 0.62778 0.77208 0.0
O619 O 0.16873 0.68519 0.75643 0.0
O620 O 0.13901 0.67353 0.74845 0.0
N621 N 0.16655 0.59777 0.72386 0.0
C622 C 0.18504 0.59746 0.71728 0.0
C623 C 0.18677 0.58849 0.7036 0.0
C624 C 0.16958 0.57958 0.69697 0.0
C625 C 0.15079 0.57981 0.70406 0.0
C626 C 0.14993 0.5892 0.71758 0.0
H627 H 0.19837 0.60403 0.7224 0.0
O628 O 0.16791 0.66247 0.72757 0.0
O629 O 0.15511 0.63451 0.73699 0.0
O630 O 0.19354 0.64551 0.75022 0.0
O631 O 0.18906 0.61172 0.74761 0.0
C632 C 0.13289 0.57106 0.69825 0.0
C633 C 0.11432 0.57252 0.70576 0.0
H634 H 0.08137 0.57902 0.72312 0.0
H635 H 0.08284 0.59673 0.74677 0.0
H636 H 0.20135 0.58833 0.69823 0.0
H637 H 0.17099 0.5726 0.68645 0.0
H638 H 0.13313 0.56349 0.68787 0.0
H639 H 0.10057 0.56611 0.70103 0.0
Mn640 Mn 0.8426 0.16278 0.5031 0.0
Mn641 Mn 0.84832 0.11168 0.50555 0.0
C642 C 0.84813 0.14747 0.52532 0.0
C643 C 0.85627 0.19536 0.49985 0.0
C644 C 0.80732 0.13226 0.50074 0.0
O645 O 0.84914 0.15455 0.48247 0.0
O646 O 0.85451 0.12085 0.48566 0.0
C647 C 0.89292 0.10875 0.50113 0.0
N648 N 0.87623 0.10497 0.50934 0.0
C649 C 0.89645 0.08659 0.52682 0.0
C650 C 0.91385 0.09022 0.51853 0.0
C651 C 0.91209 0.10144 0.50567 0.0
C652 C 0.8778 0.0944 0.52181 0.0
H653 H 0.8916 0.11725 0.49119 0.0
C654 C 0.85423 0.13694 0.47779 0.0
O655 O 0.83716 0.19154 0.49717 0.0
O656 O 0.86749 0.18016 0.50412 0.0
N657 N 0.8431 0.10089 0.52431 0.0
C658 C 0.8251 0.09989 0.53151 0.0
C659 C 0.8244 0.08983 0.54486 0.0
C660 C 0.84211 0.08066 0.55055 0.0
C661 C 0.8604 0.08176 0.54288 0.0
C662 C 0.86022 0.09215 0.52971 0.0
H663 H 0.81141 0.10676 0.52713 0.0
O664 O 0.83959 0.16532 0.52451 0.0
O665 O 0.85304 0.13917 0.51315 0.0
O666 O 0.81385 0.15059 0.50114 0.0
O667 O 0.819 0.11675 0.50197 0.0
C668 C 0.87883 0.07306 0.54784 0.0
C669 C 0.8969 0.07565 0.53989 0.0
H670 H 0.92866 0.08456 0.52197 0.0
H671 H 0.92545 0.10435 0.49923 0.0
H672 H 0.81023 0.08907 0.55072 0.0
H673 H 0.84151 0.07289 0.56084 0.0
H674 H 0.87937 0.06467 0.5579 0.0
H675 H 0.91107 0.06928 0.54399 0.0
Mn676 Mn 0.84464 0.34023 0.75467 0.0
Mn677 Mn 0.89536 0.34677 0.7592 0.0
C678 C 0.85838 0.34548 0.77749 0.0
C679 C 0.81227 0.35407 0.75047 0.0
C680 C 0.87581 0.30549 0.75344 0.0
O681 O 0.85411 0.3473 0.73441 0.0
O682 O 0.88747 0.35319 0.73897 0.0
C683 C 0.89773 0.39152 0.75504 0.0
N684 N 0.90122 0.37473 0.76337 0.0
C685 C 0.91726 0.39503 0.78189 0.0
C686 C 0.91392 0.41254 0.77349 0.0
C687 C 0.90404 0.41077 0.76003 0.0
C688 C 0.91055 0.37628 0.77639 0.0
H689 H 0.89021 0.39022 0.74467 0.0
C690 C 0.87194 0.3527 0.73045 0.0
O691 O 0.8161 0.33503 0.74767 0.0
O692 O 0.82733 0.36506 0.75526 0.0
N693 N 0.9049 0.34133 0.77837 0.0
C694 C 0.90584 0.32316 0.78551 0.0
C695 C 0.91466 0.3224 0.79936 0.0
C696 C 0.92263 0.34024 0.80564 0.0
C697 C 0.92163 0.35872 0.79803 0.0
C698 C 0.91258 0.35857 0.7843 0.0
H699 H 0.89985 0.30937 0.7807 0.0
O700 O 0.84074 0.33671 0.77595 0.0
O701 O 0.86738 0.35072 0.76568 0.0
O702 O 0.8573 0.3116 0.7531 0.0
O703 O 0.89095 0.31751 0.75533 0.0
C704 C 0.92911 0.3773 0.80358 0.0
C705 C 0.9268 0.39548 0.79556 0.0
H706 H 0.91878 0.42741 0.77729 0.0
H707 H 0.90135 0.42422 0.75351 0.0
H708 H 0.91535 0.30808 0.80516 0.0
H709 H 0.92939 0.3396 0.81633 0.0
H710 H 0.93636 0.37785 0.81412 0.0
H711 H 0.93226 0.40974 0.80008 0.0
Mn712 Mn 0.65863 0.34512 7e-05 0.0
Mn713 Mn 0.6076 0.34917 0.99593 0.0
C714 C 0.6445 0.3505 0.97737 0.0
C715 C 0.69026 0.36032 0.00462 0.0
C716 C 0.62938 0.30886 0.00122 0.0
O717 O 0.64895 0.35087 0.02048 0.0
O718 O 0.6154 0.35602 0.01612 0.0
C719 C 0.60276 0.39371 6e-05 0.0
N720 N 0.6001 0.37675 0.99178 0.0
C721 C 0.58312 0.39618 0.97319 0.0
C722 C 0.5856 0.41385 0.98155 0.0
C723 C 0.5955 0.41262 0.99503 0.0
C724 C 0.59064 0.37777 0.97878 0.0
H725 H 0.61038 0.39282 0.01042 0.0
C726 C 0.63103 0.35579 0.02456 0.0
O727 O 0.6874 0.34095 0.00678 0.0
O728 O 0.67468 0.37084 0.00014 0.0
N729 N 0.59821 0.34319 0.97681 0.0
C730 C 0.59817 0.32497 0.96973 0.0
C731 C 0.58904 0.32361 0.95602 0.0
C732 C 0.58001 0.34095 0.94976 0.0
C733 C 0.58044 0.3596 0.95718 0.0
C734 C 0.58954 0.35997 0.97089 0.0
H735 H 0.60497 0.31155 0.97453 0.0
O736 O 0.6626 0.34264 0.97876 0.0
O737 O 0.63527 0.35482 0.9893 0.0
O738 O 0.64754 0.31588 0.00112 0.0
O739 O 0.61358 0.32014 -0.00018 0.0
C740 C 0.57237 0.37786 0.95147 0.0
C741 C 0.5738 0.39616 0.95944 0.0
H742 H 0.58009 0.42848 0.97769 0.0
H743 H 0.59755 0.4262 0.00152 0.0
H744 H 0.58888 0.3092 0.95031 0.0
H745 H 0.57287 0.33978 0.93921 0.0
H746 H 0.56525 0.37807 0.94088 0.0
H747 H 0.56782 0.41016 0.95484 0.0
Mn748 Mn 0.66915 0.1651 0.24945 0.0
Mn749 Mn 0.66346 0.11421 0.24523 0.0
C750 C 0.66705 0.15117 0.22655 0.0
C751 C 0.65476 0.19741 0.25257 0.0
C752 C 0.70373 0.1342 0.25357 0.0
O753 O 0.65989 0.15568 0.26928 0.0
O754 O 0.65404 0.1224 0.26467 0.0
C755 C 0.61834 0.11184 0.24565 0.0
N756 N 0.6363 0.10811 0.23888 0.0
C757 C 0.61889 0.09185 0.21901 0.0
C758 C 0.60021 0.09543 0.2258 0.0
C759 C 0.59994 0.10552 0.23916 0.0
C760 C 0.63673 0.09851 0.22599 0.0
H761 H 0.61807 0.1196 0.25591 0.0
C762 C 0.65366 0.13799 0.27302 0.0
O763 O 0.67347 0.19361 0.25648 0.0
O764 O 0.64435 0.18234 0.24719 0.0
N765 N 0.67177 0.1042 0.22682 0.0
C766 C 0.69096 0.10283 0.22137 0.0
C767 C 0.69388 0.09334 0.20799 0.0
C768 C 0.67709 0.08524 0.2004 0.0
C769 C 0.65749 0.08685 0.20621 0.0
C770 C 0.65554 0.09628 0.21966 0.0
H771 H 0.70396 0.10891 0.22719 0.0
O772 O 0.67521 0.16902 0.2285 0.0
O773 O 0.66031 0.14213 0.23801 0.0
O774 O 0.69752 0.15266 0.25297 0.0
O775 O 0.69204 0.11889 0.25135 0.0
C776 C 0.63978 0.07967 0.19911 0.0
C777 C 0.62048 0.08225 0.20547 0.0
H778 H 0.58598 0.09063 0.22081 0.0
H779 H 0.58557 0.10841 0.24444 0.0
H780 H 0.70905 0.0922 0.20356 0.0
H781 H 0.67944 0.07784 0.19012 0.0
H782 H 0.6408 0.07238 0.18866 0.0
H783 H 0.60695 0.07694 0.19981 0.0
H784 H 0.13532 0.94568 0.24882 0.0
H785 H 0.16835 0.9319 0.24106 0.0
H786 H 0.1704 0.8934 0.27882 0.0
H787 H 0.13712 0.90626 0.28605 0.0
H788 H 0.20418 0.93375 0.25192 0.0
H789 H 0.18502 0.85205 0.25001 0.0
H790 H 0.16567 0.87139 0.25197 0.0
H791 H 0.17929 0.8617 0.26754 0.0
C792 C 0.14278 0.93404 0.25529 0.0
C793 C 0.1336 0.92675 0.26788 0.0
C794 C 0.16163 0.92619 0.25088 0.0
C795 C 0.17171 0.91113 0.25913 0.0
C796 C 0.16265 0.9043 0.27191 0.0
H797 H 0.30017 0.8915 0.26751 0.0
H798 H 0.26526 0.9043 0.2669 0.0
C799 C 0.14369 0.91179 0.27612 0.0
C800 C 0.19223 0.90341 0.25497 0.0
H801 H 0.22092 0.85997 0.25355 0.0
C802 C 0.20773 0.91758 0.25202 0.0
C803 C 0.19692 0.8823 0.25465 0.0
C804 C 0.18074 0.86603 0.25604 0.0
C805 C 0.22791 0.91131 0.2496 0.0
C806 C 0.233 0.89034 0.25082 0.0
C807 C 0.21727 0.8761 0.25292 0.0
C808 C 0.25452 0.88292 0.25069 0.0
C809 C 0.24347 0.92732 0.2457 0.0
C810 C 0.26012 0.86601 0.24225 0.0
C811 C 0.28001 0.8582 0.24297 0.0
C812 C 0.29476 0.86733 0.25198 0.0
C813 C 0.28922 0.88434 0.26028 0.0
C814 C 0.26926 0.89182 0.25983 0.0
H815 H 0.23619 0.94013 0.23971 0.0
H816 H 0.25028 0.93376 0.25571 0.0
H817 H 0.25584 0.92091 0.23899 0.0
H818 H 0.24905 0.85873 0.23519 0.0
H819 H 0.28386 0.84505 0.23647 0.0
H820 H 0.06904 0.63522 0.54435 0.0
H821 H 0.07942 0.66979 0.53789 0.0
H822 H 0.09355 0.64936 0.49493 0.0
H823 H 0.08379 0.61443 0.50156 0.0
H824 H 0.12271 0.6738 0.50483 0.0
H825 H 0.04837 0.7108 0.51478 0.0
H826 H 0.05753 0.69767 0.5305 0.0
H827 H 0.05128 0.68344 0.51442 0.0
C828 C 0.07406 0.63817 0.53346 0.0
C829 C 0.07532 0.62221 0.52338 0.0
C830 C 0.07996 0.65795 0.52976 0.0
C831 C 0.08682 0.66234 0.51581 0.0
C832 C 0.08818 0.64639 0.50573 0.0
H833 H 0.09489 0.78779 0.48671 0.0
H834 H 0.08664 0.75186 0.48974 0.0
C835 C 0.08256 0.62648 0.5095 0.0
C836 C 0.09304 0.68346 0.51194 0.0
H837 H 0.07713 0.73303 0.51288 0.0
C838 C 0.11268 0.68675 0.50645 0.0
C839 C 0.07987 0.70036 0.51383 0.0
C840 C 0.05802 0.69787 0.51855 0.0
C841 C 0.11964 0.70648 0.50309 0.0
C842 C 0.10684 0.72347 0.50573 0.0
C843 C 0.08709 0.72009 0.51099 0.0
C844 C 0.11324 0.74491 0.50289 0.0
C845 C 0.14045 0.7088 0.49647 0.0
C846 C 0.13114 0.75308 0.5091 0.0
C847 C 0.13618 0.77367 0.50708 0.0
C848 C 0.12313 0.78659 0.49913 0.0
C849 C 0.10531 0.77832 0.49289 0.0
C850 C 0.10052 0.75773 0.49465 0.0
H851 H 0.14527 0.69455 0.49096 0.0
H852 H 0.14071 0.7215 0.48855 0.0
H853 H 0.15182 0.71208 0.5051 0.0
H854 H 0.14093 0.74371 0.51584 0.0
H855 H 0.1499 0.77963 0.51216 0.0
H856 H 0.39212 0.60212 0.78501 0.0
H857 H 0.36071 0.61826 0.77621 0.0
H858 H 0.3384 0.55979 0.76165 0.0
H859 H 0.37006 0.54363 0.76992 0.0
H860 H 0.3292 0.5918 0.74257 0.0
H861 H 0.30797 0.61106 0.79887 0.0
H862 H 0.33201 0.62102 0.79296 0.0
H863 H 0.32866 0.59392 0.79478 0.0
C864 C 0.38077 0.59276 0.7796 0.0
C865 C 0.38352 0.57152 0.7783 0.0
C866 C 0.36271 0.60198 0.77474 0.0
C867 C 0.34704 0.59014 0.76859 0.0
C868 C 0.35023 0.56918 0.7665 0.0
H869 H 0.22131 0.59163 0.746 0.0
H870 H 0.25766 0.58542 0.74947 0.0
C871 C 0.36829 0.55995 0.77131 0.0
C872 C 0.32683 0.59918 0.7651 0.0
H873 H 0.28447 0.61978 0.7806 0.0
C874 C 0.31948 0.59809 0.75085 0.0
C875 C 0.31418 0.60742 0.77593 0.0
C876 C 0.32096 0.60833 0.79152 0.0
C877 C 0.29968 0.60463 0.74721 0.0
C878 C 0.28681 0.61218 0.75813 0.0
C879 C 0.29441 0.61401 0.77226 0.0
C880 C 0.26491 0.61653 0.75541 0.0
C881 C 0.29262 0.60322 0.73172 0.0
C882 C 0.25681 0.63604 0.75789 0.0
C883 C 0.23589 0.63969 0.75596 0.0
C884 C 0.22267 0.62379 0.7517 0.0
C885 C 0.23094 0.60427 0.74928 0.0
C886 C 0.2518 0.6007 0.75114 0.0
H887 H 0.30572 0.6031 0.72421 0.0
H888 H 0.284 0.5888 0.73015 0.0
H889 H 0.28239 0.61615 0.72883 0.0
H890 H 0.26668 0.64842 0.76134 0.0
H891 H 0.23006 0.65489 0.75795 0.0
H892 H 0.44641 0.86356 0.03895 0.0
H893 H 0.43349 0.82992 0.03213 0.0
H894 H 0.39855 0.85689 0.99742 0.0
H895 H 0.41166 0.89076 0.00406 0.0
H896 H 0.38919 0.82155 0.0312 0.0
H897 H 0.42883 0.80545 0.97963 0.0
H898 H 0.43893 0.8231 0.99287 0.0
H899 H 0.41748 0.83029 0.98185 0.0
C900 C 0.43641 0.86233 0.02962 0.0
C901 C 0.43013 0.87985 0.022 0.0
C902 C 0.42893 0.8431 0.02581 0.0
C903 C 0.41518 0.84094 0.01424 0.0
C904 C 0.40933 0.85825 0.0063 0.0
H905 H 0.33453 0.73657 0.00045 0.0
H906 H 0.34892 0.77108 0.00115 0.0
C907 C 0.41672 0.87757 0.01016 0.0
C908 C 0.40578 0.8208 0.01132 0.0
H909 H 0.40491 0.78097 0.98755 0.0
C910 C 0.39253 0.8127 0.02163 0.0
C911 C 0.41028 0.80934 0.99885 0.0
C912 C 0.42474 0.81733 0.98765 0.0
C913 C 0.3837 0.79336 0.01984 0.0
C914 C 0.38819 0.78186 0.00738 0.0
C915 C 0.40142 0.78994 0.99703 0.0
C916 C 0.37986 0.76105 0.00535 0.0
C917 C 0.36997 0.78511 0.03143 0.0
C918 C 0.39262 0.74404 0.00713 0.0
C919 C 0.38446 0.72431 0.00681 0.0
C920 C 0.3634 0.7213 0.00461 0.0
C921 C 0.3508 0.73838 0.00221 0.0
C922 C 0.35897 0.7581 0.00261 0.0
H923 H 0.37053 0.79455 0.04137 0.0
H924 H 0.35398 0.78484 0.02736 0.0
H925 H 0.37434 0.7692 0.03424 0.0
H926 H 0.40879 0.74605 0.00926 0.0
H927 H 0.39457 0.71147 0.00864 0.0
H928 H 0.14363 0.55708 0.97283 0.0
H929 H 0.17424 0.57544 0.98032 0.0
H930 H 0.13731 0.62095 0.00116 0.0
H931 H 0.10625 0.60231 0.99387 0.0
H932 H 0.1824 0.61874 0.97308 0.0
H933 H 0.18199 0.60142 0.03191 0.0
H934 H 0.16848 0.5856 0.01903 0.0
H935 H 0.15892 0.61048 0.0233 0.0
C936 C 0.14192 0.57074 0.97927 0.0
C937 C 0.12246 0.57807 0.98292 0.0
C938 C 0.15946 0.58133 0.98341 0.0
C939 C 0.15801 0.59947 0.99132 0.0
C940 C 0.1387 0.60687 0.99513 0.0
H941 H 0.27385 0.66786 0.00171 0.0
H942 H 0.23704 0.66209 0.99872 0.0
C943 C 0.12102 0.59627 0.99092 0.0
C944 C 0.17699 0.61055 0.99516 0.0
H945 H 0.21122 0.61738 0.02271 0.0
C946 C 0.18858 0.61889 0.98397 0.0
C947 C 0.18493 0.61053 0.00936 0.0
C948 C 0.17307 0.6015 0.02166 0.0
C949 C 0.20838 0.62632 0.98649 0.0
C950 C 0.2167 0.62552 0.00061 0.0
C951 C 0.20472 0.61806 0.01192 0.0
C952 C 0.23858 0.62979 0.00345 0.0
C953 C 0.22074 0.63379 0.97391 0.0
C954 C 0.2515 0.61364 0.0074 0.0
C955 C 0.27243 0.61683 0.00909 0.0
C956 C 0.28095 0.63631 0.00693 0.0
C957 C 0.26785 0.65264 0.00337 0.0
C958 C 0.24682 0.64939 0.00163 0.0
H959 H 0.21301 0.6308 0.96341 0.0
H960 H 0.2232 0.65048 0.97493 0.0
H961 H 0.23595 0.6263 0.97386 0.0
H962 H 0.24543 0.5984 0.00884 0.0
H963 H 0.28195 0.60391 0.01196 0.0
H964 H 0.45526 0.63043 0.24172 0.0
H965 H 0.44524 0.66558 0.24722 0.0
H966 H 0.38421 0.65314 0.23184 0.0
H967 H 0.3941 0.61825 0.22598 0.0
H968 H 0.42907 0.69378 0.22605 0.0
H969 H 0.37562 0.68153 0.27136 0.0
H970 H 0.39423 0.66267 0.2661 0.0
H971 H 0.37122 0.66596 0.25568 0.0
C972 C 0.43967 0.63512 0.23956 0.0
C973 C 0.4255 0.62141 0.23343 0.0
C974 C 0.43396 0.65518 0.24278 0.0
C975 C 0.41393 0.66187 0.24009 0.0
C976 C 0.39963 0.64816 0.23428 0.0
H977 H 0.35296 0.78008 0.24677 0.0
H978 H 0.36093 0.7439 0.24301 0.0
C979 C 0.40533 0.62816 0.23098 0.0
C980 C 0.40834 0.68356 0.24237 0.0
H981 H 0.3773 0.71498 0.2617 0.0
C982 C 0.41784 0.69845 0.2339 0.0
C983 C 0.39348 0.68953 0.25247 0.0
C984 C 0.38311 0.67415 0.26202 0.0
C985 C 0.41276 0.71918 0.23516 0.0
C986 C 0.39814 0.72525 0.24544 0.0
C987 C 0.3885 0.71032 0.25384 0.0
C988 C 0.39315 0.74708 0.2479 0.0
C989 C 0.4228 0.73433 0.22523 0.0
C990 C 0.40851 0.76078 0.25214 0.0
C991 C 0.40406 0.78141 0.2542 0.0
C992 C 0.38405 0.78882 0.25224 0.0
C993 C 0.36854 0.77495 0.24831 0.0
C994 C 0.37306 0.75426 0.24618 0.0
H995 H 0.42863 0.72683 0.21536 0.0
H996 H 0.41202 0.74661 0.22197 0.0
H997 H 0.43598 0.74145 0.2309 0.0
H998 H 0.42401 0.75551 0.2539 0.0
H999 H 0.41638 0.79151 0.2574 0.0
H1000 H 0.37198 0.91488 0.47477 0.0
H1001 H 0.34201 0.89563 0.48237 0.0
H1002 H 0.32221 0.94687 0.50776 0.0
H1003 H 0.35245 0.96617 0.50047 0.0
H1004 H 0.31571 0.90508 0.52046 0.0
H1005 H 0.28609 0.91554 0.46449 0.0
H1006 H 0.31117 0.90461 0.46625 0.0
H1007 H 0.30692 0.93052 0.47174 0.0
C1008 C 0.36163 0.92188 0.48233 0.0
C1009 C 0.36455 0.94216 0.48692 0.0
C1010 C 0.34442 0.91088 0.48658 0.0
C1011 C 0.3298 0.91994 0.49547 0.0
C1012 C 0.33331 0.93964 0.50085 0.0
H1013 H 0.2012 0.8978 0.5002 0.0
H1014 H 0.23563 0.91196 0.49985 0.0
C1015 C 0.35052 0.95069 0.4966 0.0
C1016 C 0.30989 0.90979 0.49784 0.0
H1017 H 0.26564 0.89677 0.48039 0.0
C1018 C 0.30477 0.90314 0.51172 0.0
C1019 C 0.29561 0.90752 0.48641 0.0
C1020 C 0.30005 0.91503 0.47139 0.0
C1021 C 0.28565 0.89418 0.51445 0.0
C1022 C 0.27143 0.89188 0.503 0.0
C1023 C 0.27663 0.8985 0.48914 0.0
C1024 C 0.25065 0.88349 0.50511 0.0
C1025 C 0.28056 0.88771 0.52958 0.0
C1026 C 0.24764 0.86279 0.50843 0.0
C1027 C 0.22787 0.85458 0.50862 0.0
C1028 C 0.21085 0.86695 0.50544 0.0
C1029 C 0.21395 0.88782 0.50267 0.0
C1030 C 0.23363 0.89597 0.50246 0.0
H1031 H 0.29179 0.89361 0.53761 0.0
H1032 H 0.26509 0.89315 0.53251 0.0
H1033 H 0.28051 0.87079 0.5302 0.0
H1034 H 0.2606 0.85284 0.51031 0.0
H1035 H 0.22599 0.83844 0.51075 0.0
H1036 H 0.04115 0.83966 0.72936 0.0
H1037 H 0.0586 0.80951 0.73846 0.0
H1038 H 0.10507 0.84737 0.75794 0.0
H1039 H 0.08726 0.87799 0.74925 0.0
H1040 H 0.11961 0.8157 0.73929 0.0
H1041 H 0.06546 0.78544 0.77944 0.0
H1042 H 0.05357 0.79217 0.76257 0.0
H1043 H 0.06516 0.81173 0.77353 0.0
C1044 C 0.05468 0.84178 0.73598 0.0
C1045 C 0.06265 0.86142 0.73862 0.0
C1046 C 0.06471 0.82442 0.74114 0.0
C1047 C 0.08299 0.82619 0.74902 0.0
C1048 C 0.09089 0.84569 0.75194 0.0
H1049 H 0.16741 0.72317 0.76479 0.0
H1050 H 0.15259 0.75749 0.76604 0.0
C1051 C 0.08075 0.86316 0.74688 0.0
C1052 C 0.09458 0.80753 0.75295 0.0
H1053 H 0.08982 0.76166 0.77006 0.0
C1054 C 0.11335 0.80401 0.74625 0.0
C1055 C 0.0863 0.79233 0.76199 0.0
C1056 C 0.0666 0.79564 0.76991 0.0
C1057 C 0.12347 0.78519 0.74762 0.0
C1058 C 0.11477 0.76964 0.75621 0.0
C1059 C 0.09646 0.77355 0.76345 0.0
C1060 C 0.12343 0.74869 0.75678 0.0
C1061 C 0.14272 0.78172 0.73917 0.0
C1062 C 0.1117 0.73219 0.75174 0.0
C1063 C 0.12002 0.71259 0.75117 0.0
C1064 C 0.14029 0.70904 0.75563 0.0
C1065 C 0.15181 0.72543 0.76118 0.0
C1066 C 0.1434 0.74507 0.76181 0.0
H1067 H 0.14493 0.79356 0.73076 0.0
H1068 H 0.15608 0.78225 0.74661 0.0
H1069 H 0.14247 0.76651 0.7339 0.0
H1070 H 0.09623 0.7346 0.74784 0.0
H1071 H 0.11071 0.70031 0.74688 0.0
H1072 H 0.64298 0.41867 0.78881 0.0
H1073 H 0.673 0.40086 0.77992 0.0
H1074 H 0.66595 0.43104 0.7388 0.0
H1075 H 0.63642 0.44985 0.74807 0.0
H1076 H 0.68151 0.37523 0.75971 0.0
H1077 H 0.72269 0.4474 0.74808 0.0
H1078 H 0.69849 0.44708 0.75707 0.0
H1079 H 0.6996 0.44424 0.73779 0.0
C1080 C 0.64768 0.4213 0.77781 0.0
C1081 C 0.63747 0.43568 0.76913 0.0
C1082 C 0.66487 0.41113 0.77272 0.0
C1083 C 0.67212 0.41491 0.75877 0.0
C1084 C 0.66112 0.42834 0.74975 0.0
H1085 H 0.77925 0.33929 0.73521 0.0
H1086 H 0.74458 0.35351 0.73443 0.0
C1087 C 0.64415 0.43892 0.75498 0.0
C1088 C 0.6917 0.40546 0.7542 0.0
H1089 H 0.7401 0.41688 0.74349 0.0
C1090 C 0.69431 0.38433 0.75609 0.0
C1091 C 0.70847 0.41733 0.74955 0.0
C1092 C 0.7073 0.44028 0.74812 0.0
C1093 C 0.71337 0.3749 0.75417 0.0
C1094 C 0.73015 0.38681 0.74959 0.0
C1095 C 0.72725 0.40774 0.74697 0.0
C1096 C 0.75132 0.37854 0.74899 0.0
C1097 C 0.71551 0.35258 0.75792 0.0
C1098 C 0.76692 0.38835 0.75683 0.0
C1099 C 0.78676 0.38064 0.75692 0.0
C1100 C 0.79146 0.36273 0.74934 0.0
C1101 C 0.776 0.35302 0.74126 0.0
C1102 C 0.75614 0.36104 0.74092 0.0
H1103 H 0.70269 0.34711 0.76466 0.0
H1104 H 0.71549 0.34343 0.74787 0.0
H1105 H 0.73003 0.34963 0.76384 0.0
H1106 H 0.76368 0.40185 0.76316 0.0
H1107 H 0.79831 0.38844 0.76329 0.0
H1108 H 0.55837 0.128 0.01654 0.0
H1109 H 0.56819 0.16287 0.01021 0.0
H1110 H 0.63022 0.15028 0.02343 0.0
H1111 H 0.6204 0.11577 0.03037 0.0
H1112 H 0.6159 0.18533 0.03513 0.0
H1113 H 0.59996 0.18501 0.97636 0.0
H1114 H 0.57855 0.17705 0.98688 0.0
H1115 H 0.60143 0.16186 0.98688 0.0
C1116 C 0.57412 0.13261 0.01805 0.0
C1117 C 0.58859 0.119 0.02393 0.0
C1118 C 0.57977 0.15249 0.01425 0.0
C1119 C 0.60002 0.15911 0.01614 0.0
C1120 C 0.61455 0.14546 0.02177 0.0
H1121 H 0.658 0.27919 0.00721 0.0
H1122 H 0.65212 0.24253 0.01041 0.0
C1123 C 0.60892 0.12564 0.02561 0.0
C1124 C 0.60578 0.18063 0.01322 0.0
H1125 H 0.6055 0.21762 0.98726 0.0
C1126 C 0.61384 0.19233 0.02462 0.0
C1127 C 0.60308 0.18974 -0.00049 0.0
C1128 C 0.59547 0.17772 0.98667 0.0
C1129 C 0.61868 0.21304 0.0228 0.0
C1130 C 0.61561 0.22224 0.00916 0.0
C1131 C 0.60783 0.2105 0.9977 0.0
C1132 C 0.61949 0.24427 0.00677 0.0
C1133 C 0.6264 0.22511 0.03559 0.0
C1134 C 0.60317 0.2573 0.00337 0.0
C1135 C 0.60645 0.27819 0.00153 0.0
C1136 C 0.62618 0.28654 0.00296 0.0
C1137 C 0.6426 0.27335 0.0061 0.0
C1138 C 0.63927 0.2524 0.00799 0.0
H1139 H 0.62401 0.21688 0.04591 0.0
H1140 H 0.643 0.22788 0.03442 0.0
H1141 H 0.61866 0.24016 0.03617 0.0
H1142 H 0.58781 0.25131 0.00234 0.0
H1143 H 0.59343 0.28779 0.99901 0.0
H1144 H 0.89684 0.12392 0.28249 0.0
H1145 H 0.86129 0.13248 0.27711 0.0
H1146 H 0.85001 0.07049 0.26369 0.0
H1147 H 0.88573 0.0618 0.26875 0.0
H1148 H 0.83754 0.12791 0.25066 0.0
H1149 H 0.80788 0.08172 0.29615 0.0
H1150 H 0.83437 0.08906 0.29488 0.0
H1151 H 0.82456 0.06852 0.28403 0.0
C1152 C 0.88696 0.11216 0.27811 0.0
C1153 C 0.89421 0.09212 0.27608 0.0
C1154 C 0.86659 0.11708 0.27514 0.0
C1155 C 0.85299 0.10206 0.27021 0.0
C1156 C 0.86022 0.08221 0.26774 0.0
H1157 H 0.7234 0.09738 0.25289 0.0
H1158 H 0.7596 0.09056 0.25672 0.0
C1159 C 0.88063 0.07728 0.27065 0.0
C1160 C 0.83112 0.10709 0.26797 0.0
H1161 H 0.78344 0.09678 0.28055 0.0
C1162 C 0.82567 0.12117 0.2572 0.0
C1163 C 0.81575 0.0983 0.27657 0.0
C1164 C 0.82085 0.08368 0.28865 0.0
C1165 C 0.80515 0.12632 0.25455 0.0
C1166 C 0.78974 0.1175 0.26314 0.0
C1167 C 0.79526 0.10353 0.27398 0.0
C1168 C 0.76774 0.12204 0.26083 0.0
C1169 C 0.80012 0.14071 0.24232 0.0
C1170 C 0.76016 0.14202 0.26206 0.0
C1171 C 0.73937 0.14605 0.25982 0.0
C1172 C 0.72572 0.13011 0.25645 0.0
C1173 C 0.73338 0.11007 0.25549 0.0
C1174 C 0.75412 0.10611 0.25766 0.0
H1175 H 0.81286 0.14186 0.23455 0.0
H1176 H 0.78617 0.1357 0.23641 0.0
H1177 H 0.79729 0.15618 0.24673 0.0
H1178 H 0.77031 0.1545 0.26483 0.0
H1179 H 0.73402 0.16163 0.26073 0.0
H1180 H 0.90175 0.38895 0.50261 0.0
H1181 H 0.88931 0.35534 0.49496 0.0
H1182 H 0.93306 0.32634 0.52326 0.0
H1183 H 0.94519 0.3597 0.53132 0.0
H1184 H 0.92771 0.30931 0.49279 0.0
H1185 H 0.85645 0.31805 0.52448 0.0
H1186 H 0.86363 0.33863 0.5127 0.0
H1187 H 0.87905 0.33298 0.52828 0.0
C1188 C 0.90877 0.37544 0.5072 0.0
C1189 C 0.92442 0.37711 0.51766 0.0
C1190 C 0.90169 0.35627 0.50276 0.0
C1191 C 0.91019 0.33843 0.50864 0.0
C1192 C 0.92636 0.33997 0.51858 0.0
H1193 H 0.89413 0.20843 0.5082 0.0
H1194 H 0.90704 0.24338 0.50849 0.0
C1195 C 0.93336 0.3591 0.5231 0.0
C1196 C 0.90153 0.31813 0.50512 0.0
H1197 H 0.86111 0.28705 0.51232 0.0
C1198 C 0.91309 0.30444 0.49695 0.0
C1199 C 0.88242 0.31194 0.51052 0.0
C1200 C 0.86961 0.32605 0.51956 0.0
C1201 C 0.90607 0.28455 0.49411 0.0
C1202 C 0.88727 0.27806 0.49996 0.0
C1203 C 0.87551 0.292 0.50784 0.0
C1204 C 0.87994 0.25664 0.49875 0.0
C1205 C 0.91881 0.27078 0.48478 0.0
C1206 C 0.86022 0.25241 0.49345 0.0
C1207 C 0.85267 0.23243 0.49347 0.0
C1208 C 0.86469 0.21628 0.49882 0.0
C1209 C 0.88454 0.22049 0.50389 0.0
C1210 C 0.89202 0.24048 0.50396 0.0
H1211 H 0.92852 0.27976 0.47735 0.0
H1212 H 0.92909 0.26152 0.49175 0.0
H1213 H 0.90911 0.26026 0.47829 0.0
H1214 H 0.85056 0.26464 0.48947 0.0
H1215 H 0.8373 0.22969 0.48951 0.0
H1216 H 0.61436 0.12361 0.47078 0.0
H1217 H 0.64945 0.13256 0.47696 0.0
H1218 H 0.6602 0.0713 0.49224 0.0
H1219 H 0.62466 0.06239 0.48674 0.0
H1220 H 0.67766 0.10059 0.50996 0.0
H1221 H 0.69765 0.11503 0.4529 0.0
H1222 H 0.67652 0.13001 0.45902 0.0
H1223 H 0.6742 0.10269 0.458 0.0
C1224 C 0.62398 0.11209 0.47574 0.0
C1225 C 0.61659 0.09221 0.47822 0.0
C1226 C 0.64418 0.11719 0.47906 0.0
C1227 C 0.65759 0.10248 0.48474 0.0
C1228 C 0.65016 0.08284 0.48772 0.0
H1229 H 0.78684 0.09614 0.50379 0.0
H1230 H 0.75037 0.0898 0.5006 0.0
C1231 C 0.62987 0.07773 0.48448 0.0
C1232 C 0.67942 0.10753 0.48733 0.0
H1233 H 0.72261 0.1239 0.47051 0.0
C1234 C 0.68751 0.10563 0.50133 0.0
C1235 C 0.69226 0.11409 0.47604 0.0
C1236 C 0.68481 0.1154 0.46062 0.0
C1237 C 0.70802 0.11035 0.50439 0.0
C1238 C 0.7208 0.11696 0.49312 0.0
C1239 C 0.71271 0.11896 0.47914 0.0
C1240 C 0.74281 0.12111 0.49548 0.0
C1241 C 0.71586 0.10846 0.51968 0.0
C1242 C 0.75071 0.14081 0.49343 0.0
C1243 C 0.77163 0.14454 0.49524 0.0
C1244 C 0.78506 0.12856 0.49895 0.0
C1245 C 0.77701 0.10883 0.50091 0.0
C1246 C 0.75612 0.10517 0.4992 0.0
H1247 H 0.70321 0.10787 0.52755 0.0
H1248 H 0.72485 0.09418 0.52075 0.0
H1249 H 0.72604 0.12146 0.52248 0.0
H1250 H 0.74067 0.15329 0.49045 0.0
H1251 H 0.77728 0.1599 0.4936 0.0
H1252 H 0.93031 0.11293 0.74276 0.0
H1253 H 0.91038 0.14283 0.75025 0.0
H1254 H 0.93853 0.17874 0.71697 0.0
H1255 H 0.95784 0.1491 0.70918 0.0
H1256 H 0.92389 0.18082 0.7599 0.0
H1257 H 0.878 0.18958 0.71 0.0
H1258 H 0.89194 0.16651 0.7142 0.0
H1259 H 0.90475 0.18799 0.70623 0.0
C1260 C 0.93213 0.12718 0.737 0.0
C1261 C 0.94578 0.12862 0.72542 0.0
C1262 C 0.92077 0.14424 0.7413 0.0
C1263 C 0.92268 0.1629 0.73398 0.0
C1264 C 0.93647 0.1644 0.72258 0.0
H1265 H 0.91303 0.28683 0.75511 0.0
H1266 H 0.92097 0.2509 0.75198 0.0
C1267 C 0.94778 0.14747 0.7183 0.0
C1268 C 0.91103 0.18123 0.73844 0.0
H1269 H 0.8816 0.21981 0.72477 0.0
C1270 C 0.91432 0.18916 0.75232 0.0
C1271 C 0.89817 0.1919 0.72868 0.0
C1272 C 0.89282 0.18343 0.714 0.0
C1273 C 0.90631 0.20821 0.7563 0.0
C1274 C 0.89505 0.21975 0.74605 0.0
C1275 C 0.89049 0.21112 0.73256 0.0
C1276 C 0.88964 0.24146 0.74858 0.0
C1277 C 0.91038 0.21598 0.77136 0.0
C1278 C 0.86937 0.2483 0.7473 0.0
C1279 C 0.86472 0.26907 0.74896 0.0
C1280 C 0.88031 0.28337 0.75177 0.0
C1281 C 0.90057 0.27635 0.75298 0.0
C1282 C 0.90516 0.25571 0.75134 0.0
H1283 H 0.91258 0.20317 0.77906 0.0
H1284 H 0.9246 0.22518 0.77142 0.0
H1285 H 0.89769 0.22575 0.77518 0.0
H1286 H 0.85718 0.23759 0.745 0.0
H1287 H 0.84896 0.2739 0.74793 0.0
H1288 H 0.84665 0.47566 0.99353 0.0
H1289 H 0.81628 0.45775 0.00198 0.0
H1290 H 0.84321 0.40013 0.99037 0.0
H1291 H 0.87341 0.41788 0.98148 0.0
H1292 H 0.79488 0.43004 0.97997 0.0
H1293 H 0.81538 0.39263 0.03205 0.0
H1294 H 0.82766 0.41582 0.02608 0.0
H1295 H 0.83356 0.39199 0.0176 0.0
C1296 C 0.84627 0.45915 0.99296 0.0
C1297 C 0.86241 0.44824 0.98667 0.0
C1298 C 0.82896 0.44895 0.99788 0.0
C1299 C 0.82758 0.42765 0.99683 0.0
C1300 C 0.84414 0.41657 0.99144 0.0
H1301 H 0.72752 0.34145 0.00645 0.0
H1302 H 0.7612 0.35773 0.00556 0.0
C1303 C 0.86143 0.42677 0.98641 0.0
C1304 C 0.80783 0.4174 -0.0006 0.0
H1305 H 0.78263 0.38556 0.02229 0.0
C1306 C 0.79213 0.42039 0.98925 0.0
C1307 C 0.80453 0.40458 0.01138 0.0
C1308 C 0.82108 0.40102 0.02249 0.0
C1309 C 0.77313 0.41081 0.99071 0.0
C1310 C 0.76952 0.3984 0.00292 0.0
C1311 C 0.78535 0.39522 0.01302 0.0
C1312 C 0.74938 0.38858 0.00521 0.0
C1313 C 0.75734 0.41366 0.9789 0.0
C1314 C 0.73162 0.40052 0.00587 0.0
C1315 C 0.71242 0.39128 0.00618 0.0
C1316 C 0.71061 0.36991 0.00614 0.0
C1317 C 0.72844 0.35795 0.00645 0.0
C1318 C 0.74769 0.36723 0.00595 0.0
H1319 H 0.76442 0.4184 0.96861 0.0
H1320 H 0.74856 0.3994 0.97698 0.0
H1321 H 0.74651 0.42582 0.98211 0.0
H1322 H 0.73258 0.41702 0.0057 0.0
H1323 H 0.69897 0.4009 0.00612 0.0
H1324 H 0.56175 0.36295 0.22341 0.0
H1325 H 0.5737 0.32902 0.23012 0.0
H1326 H 0.62003 0.3557 0.25757 0.0
H1327 H 0.6075 0.38983 0.25147 0.0
H1328 H 0.6113 0.31459 0.22423 0.0
H1329 H 0.5985 0.31066 0.2832 0.0
H1330 H 0.58678 0.3299 0.2719 0.0
H1331 H 0.61297 0.33249 0.27759 0.0
C1332 C 0.57405 0.3617 0.23125 0.0
C1333 C 0.58359 0.37924 0.23692 0.0
C1334 C 0.581 0.34222 0.23497 0.0
C1335 C 0.59767 0.33976 0.24443 0.0
C1336 C 0.60691 0.35717 0.25044 0.0
H1337 H 0.67272 0.23233 0.263 0.0
H1338 H 0.65895 0.26718 0.26199 0.0
C1339 C 0.59988 0.3767 0.2468 0.0
C1340 C 0.60635 0.31909 0.24692 0.0
H1341 H 0.61807 0.28382 0.27291 0.0
C1342 C 0.61268 0.30786 0.23488 0.0
C1343 C 0.60831 0.31036 0.26083 0.0
C1344 C 0.60112 0.32138 0.27412 0.0
C1345 C 0.62087 0.28818 0.23634 0.0
C1346 C 0.62266 0.2794 0.25021 0.0
C1347 C 0.61665 0.29066 0.2623 0.0
C1348 C 0.63024 0.25827 0.25214 0.0
C1349 C 0.62768 0.27692 0.22305 0.0
C1350 C 0.61844 0.24177 0.24725 0.0
C1351 C 0.6262 0.22193 0.24784 0.0
C1352 C 0.64595 0.21821 0.25331 0.0
C1353 C 0.65748 0.23471 0.25869 0.0
C1354 C 0.64964 0.2546 0.25814 0.0
H1355 H 0.62906 0.28723 0.2136 0.0
H1356 H 0.64262 0.26934 0.22501 0.0
H1357 H 0.61634 0.2649 0.22034 0.0
H1358 H 0.60337 0.24432 0.24268 0.0
H1359 H 0.61689 0.20957 0.24365 0.0
H1360 H 0.08177 0.89571 0.34838 0.0
H1361 H 0.09397 0.88175 0.3714 0.0
H1362 H 0.10976 0.94235 0.3858 0.0
H1363 H 0.0973 0.95649 0.3629 0.0
H1364 H 0.13503 0.887 0.38446 0.0
H1365 H 0.07216 0.91813 0.41775 0.0
H1366 H 0.07012 0.91585 0.39839 0.0
H1367 H 0.08495 0.93609 0.40629 0.0
C1368 C 0.08763 0.90609 0.35651 0.0
C1369 C 0.08844 0.92722 0.35388 0.0
C1370 C 0.09474 0.89807 0.36959 0.0
C1371 C 0.10261 0.91105 0.38029 0.0
C1372 C 0.10356 0.93212 0.3777 0.0
H1373 H 0.1378 0.88955 0.46954 0.0
H1374 H 0.12952 0.90473 0.44613 0.0
C1375 C 0.09655 0.94015 0.36459 0.0
C1376 C 0.10975 0.90252 0.39421 0.0
H1377 H 0.09909 0.90167 0.42998 0.0
C1378 C 0.1271 0.88998 0.39445 0.0
C1379 C 0.09952 0.90674 0.40718 0.0
C1380 C 0.08056 0.91982 0.40747 0.0
C1381 C 0.13461 0.8816 0.4074 0.0
C1382 C 0.12403 0.88535 0.42039 0.0
C1383 C 0.10691 0.89827 0.42007 0.0
C1384 C 0.13024 0.8761 0.43442 0.0
C1385 C 0.15421 0.86951 0.40702 0.0
C1386 C 0.13344 0.85492 0.43576 0.0
C1387 C 0.13871 0.84635 0.4491 0.0
C1388 C 0.1398 0.85866 0.46143 0.0
C1389 C 0.13658 0.87974 0.46017 0.0
C1390 C 0.1319 0.88839 0.44679 0.0
H1391 H 0.16387 0.87426 0.39784 0.0
H1392 H 0.16321 0.87135 0.41714 0.0
H1393 H 0.15056 0.8531 0.40554 0.0
H1394 H 0.13157 0.84494 0.42655 0.0
H1395 H 0.1413 0.83006 0.44989 0.0
H1396 H 0.11445 0.55084 0.609 0.0
H1397 H 0.12745 0.56628 0.63133 0.0
H1398 H 0.0903 0.61957 0.62358 0.0
H1399 H 0.07751 0.60443 0.60111 0.0
H1400 H 0.13191 0.62783 0.63297 0.0
H1401 H 0.0911 0.57253 0.66775 0.0
H1402 H 0.1066 0.5613 0.654 0.0
H1403 H 0.08466 0.57622 0.64896 0.0
C1404 C 0.10921 0.56593 0.61198 0.0
C1405 C 0.09482 0.57635 0.60337 0.0
C1406 C 0.11655 0.57466 0.62476 0.0
C1407 C 0.10967 0.59396 0.62912 0.0
C1408 C 0.09573 0.60463 0.62039 0.0
H1409 H 0.12144 0.63582 0.71767 0.0
H1410 H 0.10857 0.62626 0.6938 0.0
C1411 C 0.08831 0.59588 0.60764 0.0
C1412 C 0.11647 0.6027 0.64306 0.0
H1413 H 0.1136 0.59532 0.67922 0.0
C1414 C 0.12814 0.62066 0.64314 0.0
C1415 C 0.11094 0.59365 0.65625 0.0
C1416 C 0.09748 0.57496 0.65683 0.0
C1417 C 0.13501 0.62948 0.65613 0.0
C1418 C 0.13038 0.61978 0.66936 0.0
C1419 C 0.11794 0.60231 0.66917 0.0
C1420 C 0.13815 0.62726 0.68356 0.0
C1421 C 0.1465 0.64941 0.65547 0.0
C1422 C 0.15907 0.63119 0.68586 0.0
C1423 C 0.1663 0.63723 0.69945 0.0
C1424 C 0.15292 0.6384 0.71109 0.0
C1425 C 0.13208 0.63458 0.70885 0.0
C1426 C 0.12474 0.62916 0.69521 0.0
H1427 H 0.14226 0.65822 0.64565 0.0
H1428 H 0.14351 0.65906 0.66505 0.0
H1429 H 0.16311 0.64623 0.65497 0.0
H1430 H 0.16989 0.62917 0.67725 0.0
H1431 H 0.18243 0.64026 0.701 0.0
H1432 H 0.43489 0.5608 0.88073 0.0
H1433 H 0.42014 0.57845 0.9014 0.0
H1434 H 0.39628 0.62519 0.87318 0.0
H1435 H 0.41065 0.60742 0.85238 0.0
H1436 H 0.42587 0.62031 0.91124 0.0
H1437 H 0.34574 0.60236 0.89503 0.0
H1438 H 0.36732 0.58899 0.88761 0.0
H1439 H 0.36152 0.61448 0.88178 0.0
C1440 C 0.4265 0.57483 0.87892 0.0
C1441 C 0.42383 0.58264 0.86491 0.0
C1442 C 0.4182 0.58495 0.89074 0.0
C1443 C 0.40697 0.60299 0.88877 0.0
C1444 C 0.40474 0.61117 0.87488 0.0
H1445 H 0.36305 0.6707 0.96486 0.0
H1446 H 0.37619 0.66447 0.94055 0.0
C1447 C 0.41311 0.60109 0.86304 0.0
C1448 C 0.39706 0.6127 0.90128 0.0
H1449 H 0.35064 0.6198 0.91692 0.0
C1450 C 0.40942 0.6205 0.91242 0.0
C1451 C 0.37559 0.61277 0.90277 0.0
C1452 C 0.36167 0.60411 0.89124 0.0
C1453 C 0.40088 0.62787 0.92523 0.0
C1454 C 0.37945 0.62749 0.92685 0.0
C1455 C 0.36706 0.62024 0.91554 0.0
C1456 C 0.36986 0.63206 0.94085 0.0
C1457 C 0.41484 0.63505 0.93722 0.0
C1458 C 0.36145 0.61602 0.9488 0.0
C1459 C 0.35401 0.61948 0.96261 0.0
C1460 C 0.35468 0.63912 0.96872 0.0
C1461 C 0.36229 0.6554 0.96046 0.0
C1462 C 0.3699 0.65187 0.94662 0.0
H1463 H 0.43117 0.63211 0.93487 0.0
H1464 H 0.4128 0.65172 0.93881 0.0
H1465 H 0.41092 0.62734 0.94749 0.0
H1466 H 0.36124 0.60064 0.94451 0.0
H1467 H 0.34812 0.60661 0.9686 0.0
H1468 H 0.44827 0.92637 0.11801 0.0
H1469 H 0.43479 0.91431 0.14098 0.0
H1470 H 0.37335 0.92371 0.12525 0.0
H1471 H 0.38674 0.93557 0.10209 0.0
H1472 H 0.40696 0.93602 0.16027 0.0
H1473 H 0.37562 0.86265 0.13918 0.0
H1474 H 0.39467 0.87707 0.1296 0.0
H1475 H 0.36872 0.88577 0.12984 0.0
C1476 C 0.43189 0.92581 0.11942 0.0
C1477 C 0.41856 0.9318 0.10823 0.0
C1478 C 0.42423 0.91901 0.13255 0.0
C1479 C 0.4031 0.91792 0.13471 0.0
C1480 C 0.38971 0.92424 0.1237 0.0
H1481 H 0.34481 0.86633 0.21185 0.0
H1482 H 0.34934 0.88156 0.18792 0.0
C1483 C 0.39738 0.93117 0.11055 0.0
C1484 C 0.39533 0.91009 0.14857 0.0
H1485 H 0.37318 0.86845 0.16412 0.0
C1486 C 0.39939 0.92135 0.16112 0.0
C1487 C 0.38531 0.89102 0.14958 0.0
C1488 C 0.38085 0.87827 0.13638 0.0
C1489 C 0.39418 0.9138 0.17473 0.0
C1490 C 0.3851 0.89427 0.17582 0.0
C1491 C 0.38022 0.88338 0.16323 0.0
C1492 C 0.38214 0.88432 0.18998 0.0
C1493 C 0.39866 0.92673 0.18785 0.0
C1494 C 0.39913 0.88029 0.19884 0.0
C1495 C 0.39664 0.87164 0.21242 0.0
C1496 C 0.37707 0.86664 0.21746 0.0
C1497 C 0.36008 0.87002 0.20834 0.0
C1498 C 0.36262 0.87875 0.19468 0.0
H1499 H 0.39958 0.94319 0.18504 0.0
H1500 H 0.38679 0.92466 0.19618 0.0
H1501 H 0.41361 0.92213 0.19256 0.0
H1502 H 0.41437 0.88401 0.19526 0.0
H1503 H 0.41012 0.8691 0.21904 0.0
H1504 H 0.06004 0.56969 0.88488 0.0
H1505 H 0.0739 0.58425 0.86271 0.0
H1506 H 0.13447 0.58267 0.88138 0.0
H1507 H 0.12075 0.56772 0.90342 0.0
H1508 H 0.09512 0.61931 0.85732 0.0
H1509 H 0.14244 0.55157 0.84433 0.0
H1510 H 0.12337 0.55115 0.85819 0.0
H1511 H 0.14796 0.56246 0.86167 0.0
C1512 C 0.0763 0.57248 0.88424 0.0
C1513 C 0.08936 0.56732 0.89579 0.0
C1514 C 0.0842 0.58081 0.87159 0.0
C1515 C 0.10527 0.58423 0.8703 0.0
C1516 C 0.11824 0.57967 0.88199 0.0
H1517 H 0.15719 0.65135 0.79656 0.0
H1518 H 0.14664 0.64253 0.82111 0.0
C1519 C 0.11039 0.57114 0.89457 0.0
C1520 C 0.11363 0.59217 0.8566 0.0
H1521 H 0.14594 0.58031 0.82924 0.0
C1522 C 0.10628 0.61083 0.85118 0.0
C1523 C 0.12809 0.581 0.84857 0.0
C1524 C 0.13581 0.56035 0.85339 0.0
C1525 C 0.11277 0.61849 0.83783 0.0
C1526 C 0.12729 0.60735 0.82986 0.0
C1527 C 0.13492 0.5889 0.83543 0.0
C1528 C 0.13344 0.61339 0.81512 0.0
C1529 C 0.10345 0.63798 0.83214 0.0
C1530 C 0.12981 0.59986 0.80369 0.0
C1531 C 0.13601 0.6047 0.7898 0.0
C1532 C 0.146 0.62326 0.78694 0.0
C1533 C 0.14947 0.63698 0.79838 0.0
C1534 C 0.14335 0.63201 0.81239 0.0
H1535 H 0.08946 0.64228 0.83809 0.0
H1536 H 0.11466 0.65058 0.83335 0.0
H1537 H 0.09951 0.63651 0.82052 0.0
H1538 H 0.12214 0.58545 0.80553 0.0
H1539 H 0.1329 0.59379 0.78128 0.0
H1540 H 0.40132 0.55081 0.14242 0.0
H1541 H 0.38796 0.56698 0.12044 0.0
H1542 H 0.4085 0.62567 0.13597 0.0
H1543 H 0.42255 0.60941 0.15765 0.0
H1544 H 0.35938 0.59499 0.11642 0.0
H1545 H 0.43268 0.62589 0.09672 0.0
H1546 H 0.43142 0.60813 0.11152 0.0
H1547 H 0.42649 0.63486 0.1144 0.0
C1548 C 0.40304 0.56714 0.14107 0.0
C1549 C 0.41315 0.57885 0.15161 0.0
C1550 C 0.39541 0.57638 0.12854 0.0
C1551 C 0.39758 0.5975 0.12641 0.0
C1552 C 0.40721 0.60928 0.13714 0.0
H1553 H 0.32506 0.65657 0.05727 0.0
H1554 H 0.33732 0.64545 0.08104 0.0
C1555 C 0.41514 0.6 0.14954 0.0
C1556 C 0.38945 0.60717 0.11306 0.0
H1557 H 0.40275 0.6369 0.08452 0.0
C1558 C 0.36889 0.604 0.10932 0.0
C1559 C 0.40185 0.61895 0.10386 0.0
C1560 C 0.42437 0.62201 0.10674 0.0
C1561 C 0.36041 0.61193 0.09654 0.0
C1562 C 0.37275 0.624 0.08736 0.0
C1563 C 0.39322 0.62756 0.09136 0.0
C1564 C 0.3654 0.63212 0.07318 0.0
C1565 C 0.33844 0.60675 0.09312 0.0
C1566 C 0.37772 0.63001 0.06094 0.0
C1567 C 0.37119 0.63741 0.04757 0.0
C1568 C 0.35174 0.64598 0.04593 0.0
C1569 C 0.33975 0.64906 0.05818 0.0
C1570 C 0.34667 0.64247 0.07173 0.0
H1571 H 0.33402 0.59189 0.09795 0.0
H1572 H 0.32844 0.61865 0.09779 0.0
H1573 H 0.33542 0.60598 0.0814 0.0
H1574 H 0.39243 0.62251 0.06165 0.0
H1575 H 0.38132 0.63627 0.03846 0.0
H1576 H 0.41295 0.91105 0.4088 0.0
H1577 H 0.40629 0.89102 0.38692 0.0
H1578 H 0.39699 0.9466 0.36283 0.0
H1579 H 0.40411 0.96669 0.38448 0.0
H1580 H 0.37037 0.89139 0.36931 0.0
H1581 H 0.43868 0.91498 0.33876 0.0
H1582 H 0.43661 0.91869 0.35797 0.0
H1583 H 0.42424 0.93605 0.34566 0.0
C1584 C 0.4098 0.919 0.39878 0.0
C1585 C 0.40914 0.94046 0.39835 0.0
C1586 C 0.40585 0.90754 0.38634 0.0
C1587 C 0.40138 0.91735 0.37325 0.0
C1588 C 0.40071 0.93874 0.37279 0.0
H1589 H 0.37054 0.88913 0.28566 0.0
H1590 H 0.37983 0.904 0.30896 0.0
C1591 C 0.4046 0.95019 0.3852 0.0
C1592 C 0.39693 0.90533 0.36007 0.0
H1593 H 0.41196 0.89899 0.32539 0.0
C1594 C 0.37963 0.89269 0.35974 0.0
C1595 C 0.40902 0.90717 0.34763 0.0
C1596 C 0.42829 0.91981 0.34751 0.0
C1597 C 0.37361 0.88247 0.34706 0.0
C1598 C 0.38552 0.88465 0.3345 0.0
C1599 C 0.40301 0.89702 0.335 0.0
C1600 C 0.37965 0.87523 0.32048 0.0
C1601 C 0.35403 0.87034 0.34709 0.0
C1602 C 0.37655 0.85406 0.31912 0.0
C1603 C 0.37097 0.84559 0.30578 0.0
C1604 C 0.3692 0.85807 0.29356 0.0
C1605 C 0.37232 0.87916 0.29491 0.0
C1606 C 0.37755 0.88765 0.30822 0.0
H1607 H 0.34402 0.87483 0.35615 0.0
H1608 H 0.3454 0.87236 0.33683 0.0
H1609 H 0.35769 0.8539 0.34837 0.0
H1610 H 0.37857 0.84408 0.32832 0.0
H1611 H 0.36844 0.82929 0.30494 0.0
H1612 H 0.09746 0.90692 0.65656 0.0
H1613 H 0.11427 0.89912 0.63369 0.0
H1614 H 0.05547 0.89411 0.61268 0.0
H1615 H 0.03861 0.90216 0.63535 0.0
H1616 H 0.10829 0.86303 0.61589 0.0
H1617 H 0.08808 0.93473 0.58736 0.0
H1618 H 0.0873 0.93233 0.60674 0.0
H1619 H 0.0668 0.92242 0.59578 0.0
C1620 C 0.08814 0.90437 0.64702 0.0
C1621 C 0.06671 0.90521 0.64774 0.0
C1622 C 0.09776 0.89981 0.63401 0.0
C1623 C 0.0861 0.89627 0.6215 0.0
C1624 C 0.06474 0.89706 0.62219 0.0
H1625 H 0.0922 0.86118 0.53438 0.0
H1626 H 0.08475 0.87144 0.55893 0.0
C1627 C 0.05513 0.90149 0.63517 0.0
C1628 C 0.09606 0.89128 0.6077 0.0
H1629 H 0.09922 0.90696 0.57274 0.0
C1630 C 0.10663 0.87273 0.60648 0.0
C1631 C 0.09394 0.90408 0.59551 0.0
C1632 C 0.08359 0.9246 0.59639 0.0
C1633 C 0.1141 0.86607 0.59313 0.0
C1634 C 0.11112 0.87847 0.58081 0.0
C1635 C 0.10139 0.89744 0.5822 0.0
C1636 C 0.11625 0.87137 0.56613 0.0
C1637 C 0.12414 0.8454 0.59215 0.0
C1638 C 0.13651 0.8678 0.56203 0.0
C1639 C 0.1409 0.86182 0.54789 0.0
C1640 C 0.12508 0.85944 0.53763 0.0
C1641 C 0.10482 0.86287 0.54191 0.0
C1642 C 0.10049 0.86878 0.55597 0.0
H1643 H 0.12221 0.83632 0.60216 0.0
H1644 H 0.11775 0.83662 0.58292 0.0
H1645 H 0.14073 0.84744 0.59032 0.0
H1646 H 0.14892 0.87 0.56967 0.0
H1647 H 0.15667 0.85942 0.54495 0.0
H1648 H 0.5749 0.44877 0.86809 0.0
H1649 H 0.58329 0.42966 0.89001 0.0
H1650 H 0.6452 0.42233 0.87557 0.0
H1651 H 0.63692 0.44133 0.85356 0.0
H1652 H 0.59802 0.38944 0.89205 0.0
H1653 H 0.65221 0.44498 0.91662 0.0
H1654 H 0.63509 0.45172 0.90201 0.0
H1655 H 0.65792 0.43746 0.89849 0.0
C1656 C 0.5903 0.44308 0.86957 0.0
C1657 C 0.60526 0.44662 0.8591 0.0
C1658 C 0.59508 0.43221 0.88211 0.0
C1659 C 0.61491 0.42477 0.88447 0.0
C1660 C 0.62991 0.42829 0.87408 0.0
H1661 H 0.64518 0.33303 0.95066 0.0
H1662 H 0.63833 0.34995 0.92746 0.0
C1663 C 0.62515 0.43918 0.86152 0.0
C1664 C 0.61967 0.41289 0.89767 0.0
H1665 H 0.64855 0.41329 0.92846 0.0
C1666 C 0.60906 0.39462 0.90004 0.0
C1667 C 0.63403 0.41975 0.90805 0.0
C1668 C 0.64538 0.43963 0.90628 0.0
C1669 C 0.61226 0.38307 0.91261 0.0
C1670 C 0.62668 0.38987 0.92302 0.0
C1671 C 0.63747 0.40806 0.92052 0.0
C1672 C 0.6302 0.37905 0.93692 0.0
C1673 C 0.5997 0.36406 0.91474 0.0
C1674 C 0.62848 0.38984 0.94991 0.0
C1675 C 0.63278 0.38032 0.96304 0.0
C1676 C 0.63831 0.35965 0.9635 0.0
C1677 C 0.64029 0.34882 0.95055 0.0
C1678 C 0.63626 0.35845 0.93734 0.0
H1679 H 0.58545 0.36433 0.90814 0.0
H1680 H 0.60873 0.35056 0.91144 0.0
H1681 H 0.59558 0.36223 0.92618 0.0
H1682 H 0.62404 0.40578 0.9499 0.0
H1683 H 0.63214 0.38926 0.97284 0.0
H1684 H 0.63396 0.08261 0.09697 0.0
H1685 H 0.64809 0.09863 0.1187 0.0
H1686 H 0.59233 0.08596 0.14126 0.0
H1687 H 0.57818 0.06952 0.1197 0.0
H1688 H 0.60742 0.12784 0.14306 0.0
H1689 H 0.66646 0.06974 0.15683 0.0
H1690 H 0.66622 0.07895 0.13856 0.0
H1691 H 0.64508 0.06425 0.14502 0.0
C1692 C 0.62482 0.08289 0.10662 0.0
C1693 C 0.60494 0.07472 0.1066 0.0
C1694 C 0.6329 0.09212 0.11901 0.0
C1695 C 0.62129 0.09333 0.13158 0.0
C1696 C 0.6015 0.08517 0.13163 0.0
H1697 H 0.62924 0.14135 0.2172 0.0
H1698 H 0.61903 0.1292 0.1933 0.0
C1699 C 0.59342 0.07587 0.11928 0.0
C1700 C 0.6295 0.10358 0.1446 0.0
H1701 H 0.66547 0.0993 0.17123 0.0
C1702 C 0.6201 0.12161 0.14926 0.0
C1703 C 0.64621 0.09554 0.1525 0.0
C1704 C 0.65656 0.07598 0.14809 0.0
C1705 C 0.62684 0.13173 0.16176 0.0
C1706 C 0.64309 0.1233 0.16998 0.0
C1707 C 0.6529 0.10563 0.16502 0.0
C1708 C 0.64926 0.13171 0.18421 0.0
C1709 C 0.61659 0.15148 0.16591 0.0
C1710 C 0.66972 0.1368 0.18717 0.0
C1711 C 0.67562 0.14341 0.20095 0.0
C1712 C 0.6612 0.14449 0.21198 0.0
C1713 C 0.64069 0.14006 0.2089 0.0
C1714 C 0.6348 0.13346 0.1952 0.0
H1715 H 0.61005 0.15936 0.15631 0.0
H1716 H 0.60384 0.14813 0.17332 0.0
H1717 H 0.62741 0.16201 0.17142 0.0
H1718 H 0.68114 0.13552 0.17886 0.0
H1719 H 0.69147 0.14715 0.20309 0.0
H1720 H 0.96466 0.12308 0.36308 0.0
H1721 H 0.94775 0.13387 0.38525 0.0
H1722 H 0.89792 0.09273 0.37606 0.0
H1723 H 0.91438 0.08229 0.35374 0.0
H1724 H 0.88554 0.13228 0.3852 0.0
H1725 H 0.94409 0.09786 0.42166 0.0
H1726 H 0.95352 0.11533 0.40836 0.0
H1727 H 0.94229 0.09158 0.40275 0.0
C1728 C 0.95004 0.11644 0.36574 0.0
C1729 C 0.94096 0.10167 0.35672 0.0
C1730 C 0.94047 0.12252 0.37845 0.0
C1731 C 0.9217 0.11392 0.38236 0.0
C1732 C 0.91244 0.09949 0.37326 0.0
H1733 H 0.86315 0.10178 0.46339 0.0
H1734 H 0.87873 0.09825 0.43984 0.0
C1735 C 0.92198 0.09339 0.36058 0.0
C1736 C 0.9118 0.11954 0.39607 0.0
H1737 H 0.91694 0.11535 0.43258 0.0
C1738 C 0.89243 0.12873 0.39558 0.0
C1739 C 0.9208 0.11472 0.40956 0.0
C1740 C 0.94125 0.10419 0.41071 0.0
C1741 C 0.88169 0.133 0.40826 0.0
C1742 C 0.89068 0.12807 0.42173 0.0
C1743 C 0.91017 0.11918 0.42221 0.0
C1744 C 0.87966 0.13066 0.43547 0.0
C1745 C 0.86057 0.14206 0.40717 0.0
C1746 C 0.87472 0.1501 0.44074 0.0
C1747 C 0.8657 0.15224 0.45428 0.0
C1748 C 0.86161 0.13493 0.46279 0.0
C1749 C 0.86611 0.11548 0.45721 0.0
C1750 C 0.87506 0.11339 0.44373 0.0
H1751 H 0.85442 0.14159 0.39597 0.0
H1752 H 0.8499 0.13382 0.41434 0.0
H1753 H 0.86112 0.15824 0.41069 0.0
H1754 H 0.87838 0.16364 0.43458 0.0
H1755 H 0.86255 0.16744 0.45826 0.0
H1756 H 0.94707 0.41877 0.61494 0.0
H1757 H 0.93447 0.40591 0.63795 0.0
H1758 H 0.87249 0.41632 0.62369 0.0
H1759 H 0.88497 0.42894 0.60051 0.0
H1760 H 0.90799 0.42739 0.65808 0.0
H1761 H 0.87421 0.35516 0.63698 0.0
H1762 H 0.89296 0.36953 0.62709 0.0
H1763 H 0.86714 0.37849 0.62798 0.0
C1764 C 0.93076 0.41822 0.61666 0.0
C1765 C 0.91701 0.42479 0.60589 0.0
C1766 C 0.92359 0.41096 0.62983 0.0
C1767 C 0.90257 0.40996 0.63243 0.0
C1768 C 0.88877 0.41675 0.6218 0.0
H1769 H 0.84282 0.36074 0.70955 0.0
H1770 H 0.8484 0.37526 0.68552 0.0
C1771 C 0.89593 0.42413 0.60864 0.0
C1772 C 0.89525 0.40198 0.64637 0.0
H1773 H 0.87183 0.36107 0.66195 0.0
C1774 C 0.89997 0.41296 0.65893 0.0
C1775 C 0.88463 0.38324 0.6474 0.0
C1776 C 0.87948 0.37077 0.63419 0.0
C1777 C 0.89467 0.40552 0.67256 0.0
C1778 C 0.88482 0.38637 0.67366 0.0
C1779 C 0.87945 0.3757 0.66106 0.0
C1780 C 0.88126 0.37664 0.68783 0.0
C1781 C 0.89974 0.41824 0.68568 0.0
C1782 C 0.89792 0.37204 0.69685 0.0
C1783 C 0.89483 0.3638 0.71051 0.0
C1784 C 0.87498 0.3598 0.71543 0.0
C1785 C 0.8583 0.36366 0.70612 0.0
C1786 C 0.86144 0.37199 0.69241 0.0
H1787 H 0.90139 0.43464 0.68288 0.0
H1788 H 0.8878 0.41671 0.69402 0.0
H1789 H 0.91446 0.41297 0.69038 0.0
H1790 H 0.91337 0.37503 0.69337 0.0
H1791 H 0.90808 0.36084 0.71727 0.0
H1792 H 0.573 0.13082 0.40085 0.0
H1793 H 0.58932 0.14123 0.37842 0.0
H1794 H 0.57784 0.08164 0.36038 0.0
H1795 H 0.56113 0.07118 0.38264 0.0
H1796 H 0.61974 0.09616 0.35914 0.0
H1797 H 0.56358 0.15267 0.33782 0.0
H1798 H 0.5714 0.15549 0.35636 0.0
H1799 H 0.55684 0.13354 0.35097 0.0
C1800 C 0.57351 0.12006 0.39201 0.0
C1801 C 0.56574 0.10014 0.39356 0.0
C1802 C 0.5829 0.12603 0.37921 0.0
C1803 C 0.58466 0.11224 0.36774 0.0
C1804 C 0.57662 0.0925 0.36914 0.0
H1805 H 0.63809 0.10297 0.28451 0.0
H1806 H 0.62264 0.09825 0.30798 0.0
C1807 C 0.56717 0.08653 0.38189 0.0
C1808 C 0.5959 0.1179 0.35457 0.0
H1809 H 0.59386 0.14818 0.32464 0.0
C1810 C 0.61412 0.10756 0.3516 0.0
C1811 C 0.58864 0.13297 0.3449 0.0
C1812 C 0.56898 0.14428 0.34755 0.0
C1813 C 0.62519 0.1117 0.33908 0.0
C1814 C 0.61757 0.12624 0.32912 0.0
C1815 C 0.59964 0.13702 0.33229 0.0
C1816 C 0.62726 0.12943 0.31493 0.0
C1817 C 0.64498 0.10049 0.33666 0.0
C1818 C 0.63458 0.14872 0.31088 0.0
C1819 C 0.64341 0.15157 0.29734 0.0
C1820 C 0.64492 0.13518 0.28759 0.0
C1821 C 0.6374 0.11593 0.29173 0.0
C1822 C 0.62862 0.11314 0.3052 0.0
H1823 H 0.65175 0.09496 0.34697 0.0
H1824 H 0.642 0.08698 0.32973 0.0
H1825 H 0.65628 0.11037 0.33119 0.0
H1826 H 0.63352 0.16153 0.31821 0.0
H1827 H 0.64892 0.16661 0.29449 0.0
H1828 H 0.91029 0.09299 0.65303 0.0
H1829 H 0.89117 0.10344 0.63147 0.0
H1830 H 0.94651 0.10158 0.60675 0.0
H1831 H 0.96555 0.0902 0.62802 0.0
H1832 H 0.89544 0.13707 0.61385 0.0
H1833 H 0.90853 0.06599 0.58297 0.0
H1834 H 0.914 0.06789 0.60202 0.0
H1835 H 0.93182 0.07766 0.58909 0.0
C1836 C 0.91836 0.09451 0.64295 0.0
C1837 C 0.93945 0.09055 0.64224 0.0
C1838 C 0.90743 0.10067 0.63068 0.0
C1839 C 0.91735 0.10294 0.61746 0.0
C1840 C 0.93846 0.09949 0.61678 0.0
H1841 H 0.8874 0.13738 0.53047 0.0
H1842 H 0.90308 0.12697 0.55333 0.0
C1843 C 0.94938 0.09323 0.62901 0.0
C1844 C 0.9057 0.10895 0.60435 0.0
H1845 H 0.89563 0.09445 0.5698 0.0
C1846 C 0.89517 0.12763 0.60425 0.0
C1847 C 0.90539 0.09659 0.59187 0.0
C1848 C 0.91537 0.07583 0.5915 0.0
C1849 C 0.8849 0.13459 0.59181 0.0
C1850 C 0.88496 0.12238 0.57923 0.0
C1851 C 0.89533 0.10365 0.57945 0.0
C1852 C 0.87514 0.12896 0.56551 0.0
C1853 C 0.87485 0.15531 0.59208 0.0
C1854 C 0.85415 0.13338 0.56469 0.0
C1855 C 0.84518 0.13939 0.55159 0.0
C1856 C 0.85697 0.14043 0.53908 0.0
C1857 C 0.87791 0.1361 0.53992 0.0
C1858 C 0.88689 0.13029 0.55298 0.0
H1859 H 0.88072 0.16485 0.60112 0.0
H1860 H 0.8773 0.16362 0.58182 0.0
H1861 H 0.85817 0.15335 0.59353 0.0
H1862 H 0.84468 0.13203 0.57413 0.0
H1863 H 0.82903 0.1429 0.55116 0.0
H1864 H 0.92893 0.41715 0.89797 0.0
H1865 H 0.92034 0.39784 0.87615 0.0
H1866 H 0.86684 0.43519 0.86963 0.0
H1867 H 0.87508 0.45433 0.89161 0.0
H1868 H 0.8605 0.39165 0.86614 0.0
H1869 H 0.9259 0.42146 0.83474 0.0
H1870 H 0.93228 0.41069 0.85203 0.0
H1871 H 0.91718 0.43353 0.85105 0.0
C1872 C 0.91525 0.42116 0.89195 0.0
C1873 C 0.90272 0.43734 0.89647 0.0
C1874 C 0.91045 0.4102 0.87945 0.0
C1875 C 0.89306 0.41523 0.87125 0.0
C1876 C 0.88036 0.43114 0.87582 0.0
H1877 H 0.86626 0.38512 0.78275 0.0
H1878 H 0.87429 0.4012 0.80589 0.0
C1879 C 0.88518 0.44216 0.88829 0.0
C1880 C 0.88832 0.40415 0.85773 0.0
H1881 H 0.90545 0.39638 0.82368 0.0
C1882 C 0.87038 0.3925 0.85685 0.0
C1883 C 0.9011 0.40561 0.84561 0.0
C1884 C 0.92012 0.41862 0.84578 0.0
C1885 C 0.86492 0.3821 0.84413 0.0
C1886 C 0.87796 0.3832 0.83208 0.0
C1887 C 0.89576 0.39508 0.83299 0.0
C1888 C 0.87301 0.3731 0.81815 0.0
C1889 C 0.84493 0.37068 0.84359 0.0
C1890 C 0.86977 0.3519 0.81729 0.0
C1891 C 0.86502 0.34272 0.80403 0.0
C1892 C 0.86416 0.35453 0.79144 0.0
C1893 C 0.86739 0.37566 0.79231 0.0
C1894 C 0.87187 0.38484 0.80552 0.0
H1895 H 0.83436 0.37593 0.8521 0.0
H1896 H 0.83725 0.37253 0.83294 0.0
H1897 H 0.84788 0.35418 0.84534 0.0
H1898 H 0.871 0.34245 0.82683 0.0
H1899 H 0.86235 0.32642 0.80357 0.0
H1900 H 0.55856 0.4216 0.14134 0.0
H1901 H 0.57023 0.4087 0.1181 0.0
H1902 H 0.63267 0.4202 0.1308 0.0
H1903 H 0.62113 0.43287 0.15422 0.0
H1904 H 0.59532 0.43013 0.09716 0.0
H1905 H 0.63124 0.35883 0.1181 0.0
H1906 H 0.61281 0.37315 0.12833 0.0
H1907 H 0.63845 0.38241 0.1267 0.0
C1908 C 0.57478 0.4213 0.13922 0.0
C1909 C 0.58894 0.42816 0.14964 0.0
C1910 C 0.58141 0.41401 0.12593 0.0
C1911 C 0.6023 0.41328 0.12284 0.0
C1912 C 0.61649 0.42041 0.13308 0.0
H1913 H 0.66032 0.36438 0.04518 0.0
H1914 H 0.65493 0.37886 0.06921 0.0
C1915 C 0.60986 0.42782 0.14638 0.0
C1916 C 0.60907 0.40517 0.10879 0.0
H1917 H 0.63257 0.36445 0.09304 0.0
C1918 C 0.60356 0.41583 0.09625 0.0
C1919 C 0.61996 0.3866 0.10769 0.0
C1920 C 0.62591 0.37443 0.12088 0.0
C1921 C 0.60841 0.40828 0.08256 0.0
C1922 C 0.6186 0.38931 0.08141 0.0
C1923 C 0.62468 0.37894 0.09398 0.0
C1924 C 0.622 0.37954 0.06724 0.0
C1925 C 0.60257 0.4207 0.06946 0.0
C1926 C 0.60527 0.37455 0.0584 0.0
C1927 C 0.60825 0.36634 0.04472 0.0
C1928 C 0.62808 0.36274 0.03961 0.0
C1929 C 0.64485 0.36697 0.04875 0.0
C1930 C 0.64181 0.37528 0.06247 0.0
H1931 H 0.60062 0.4371 0.07217 0.0
H1932 H 0.61423 0.41935 0.06091 0.0
H1933 H 0.58781 0.41503 0.06505 0.0
H1934 H 0.58983 0.37723 0.06202 0.0
H1935 H 0.59495 0.36308 0.03808 0.0
loop_
_geom_bond_atom_site_label_1
_geom_bond_atom_site_label_2
_geom_bond_distance
_geom_bond_site_symmetry_2
_ccdc_geom_bond_type
H0 C27 0.929 . S
N1 C26 1.433 . S
N1 C32 1.435 . S
N1 C38 1.423 . S
H2 C28 0.930 . S
H3 C31 0.931 . S
H4 C30 0.929 . S
H5 C33 0.930 . S
H6 C34 0.932 . S
H7 C37 0.929 . S
H8 C36 0.931 . S
H9 C39 0.929 . S
H10 C43 0.932 . S
H11 C40 0.931 . S
H12 C42 0.929 . S
H13 C45 0.929 . S
H14 C46 0.930 . S
H15 C48 0.929 . S
H16 C49 0.931 . S
H17 C51 0.930 . S
H18 C52 0.932 . S
H19 C54 0.931 . S
H20 C55 0.929 . S
H21 C57 0.929 . S
H22 C58 0.932 . S
H23 C60 0.929 . S
N24 C44 1.433 . S
N24 C50 1.435 . S
N24 C56 1.423 . S
H25 C61 0.932 . S
C26 N1 1.433 . S
C26 C27 1.363 . S
C26 C31 1.370 . S
C27 H0 0.929 . S
C27 C26 1.363 . S
C27 C28 1.385 . S
C28 H2 0.930 . S
C28 C27 1.385 . S
C28 C29 1.357 . S
C29 C28 1.357 . S
C29 C30 1.406 . S
C30 H4 0.929 . S
C30 C29 1.406 . S
C30 C31 1.391 . S
C31 H3 0.931 . S
C31 C26 1.370 . S
C31 C30 1.391 . S
C32 N1 1.435 . S
C32 C33 1.358 . S
C32 C37 1.371 . S
C33 H5 0.930 . S
C33 C32 1.358 . S
C33 C34 1.405 . S
C34 H6 0.932 . S
C34 C33 1.405 . S
C34 C35 1.383 . S
C35 C34 1.383 . S
C35 C36 1.393 . S
C36 H8 0.931 . S
C36 C35 1.393 . S
C36 C37 1.382 . S
C37 H7 0.929 . S
C37 C32 1.371 . S
C37 C36 1.382 . S
C38 N1 1.423 . S
C38 C39 1.362 . S
C38 C43 1.388 . S
C39 H9 0.929 . S
C39 C38 1.362 . S
C39 C40 1.376 1_565 S
C40 H11 0.931 . S
C40 C39 1.376 1_545 S
C40 C41 1.396 . S
C41 C40 1.396 . S
C41 C42 1.348 1_545 S
C41 C59 1.472 . S
C42 H12 0.929 . S
C42 C41 1.348 1_565 S
C42 C43 1.443 . S
C43 H10 0.932 . S
C43 C38 1.388 . S
C43 C42 1.443 . S
C44 N24 1.433 . S
C44 C45 1.363 . S
C44 C49 1.370 . S
C45 H13 0.929 . S
C45 C44 1.363 . S
C45 C46 1.385 . S
C46 H14 0.930 . S
C46 C45 1.385 . S
C46 C47 1.357 . S
C47 C46 1.357 . S
C47 C48 1.406 . S
C48 H15 0.929 . S
C48 C47 1.406 . S
C48 C49 1.391 . S
C49 H16 0.931 . S
C49 C44 1.370 . S
C49 C48 1.391 . S
C50 N24 1.435 . S
C50 C51 1.358 . S
C50 C55 1.371 . S
C51 H17 0.930 . S
C51 C50 1.358 . S
C51 C52 1.405 . S
C52 H18 0.932 . S
C52 C51 1.405 . S
C52 C53 1.383 . S
C53 C52 1.383 . S
C53 C54 1.393 . S
C54 H19 0.931 . S
C54 C53 1.393 . S
C54 C55 1.382 . S
C55 H20 0.929 . S
C55 C50 1.371 . S
C55 C54 1.382 . S
C56 N24 1.423 . S
C56 C57 1.362 . S
C56 C61 1.388 . S
C57 H21 0.929 . S
C57 C56 1.362 . S
C57 C58 1.375 1_655 S
C58 H22 0.932 . S
C58 C57 1.375 1_455 S
C58 C59 1.396 . S
C59 C41 1.472 . S
C59 C58 1.396 . S
C59 C60 1.348 1_455 S
C60 H23 0.929 . S
C60 C59 1.348 1_655 S
C60 C61 1.443 . S
C61 H25 0.932 . S
C61 C56 1.388 . S
C61 C60 1.443 . S
H62 C89 0.929 . S
N63 C88 1.433 . S
N63 C94 1.435 . S
N63 C100 1.423 . S
H64 C90 0.930 . S
H65 C93 0.931 . S
H66 C92 0.929 . S
H67 C95 0.930 . S
H68 C96 0.932 . S
H69 C99 0.929 . S
H70 C98 0.931 . S
H71 C101 0.929 . S
H72 C105 0.932 . S
H73 C102 0.931 . S
H74 C104 0.929 . S
H75 C107 0.929 . S
H76 C108 0.930 . S
H77 C110 0.929 . S
H78 C111 0.931 . S
H79 C113 0.930 . S
H80 C114 0.932 . S
H81 C116 0.931 . S
H82 C117 0.929 . S
H83 C119 0.929 . S
H84 C120 0.931 . S
H85 C122 0.929 . S
N86 C106 1.433 . S
N86 C112 1.435 . S
N86 C118 1.423 . S
H87 C123 0.932 . S
C88 N63 1.433 . S
C88 C89 1.363 . S
C88 C93 1.370 . S
C89 H62 0.929 . S
C89 C88 1.363 . S
C89 C90 1.385 . S
C90 H64 0.930 . S
C90 C89 1.385 . S
C90 C91 1.357 . S
C91 C90 1.357 . S
C91 C92 1.406 . S
C92 H66 0.929 . S
C92 C91 1.406 . S
C92 C93 1.391 . S
C93 H65 0.931 . S
C93 C88 1.370 . S
C93 C92 1.391 . S
C94 N63 1.435 . S
C94 C95 1.358 . S
C94 C99 1.371 . S
C95 H67 0.930 . S
C95 C94 1.358 . S
C95 C96 1.405 . S
C96 H68 0.932 . S
C96 C95 1.405 . S
C96 C97 1.383 . S
C97 C96 1.383 . S
C97 C98 1.393 . S
C98 H70 0.931 . S
C98 C97 1.393 . S
C98 C99 1.382 . S
C99 H69 0.929 . S
C99 C94 1.371 . S
C99 C98 1.382 . S
C100 N63 1.423 . S
C100 C101 1.362 . S
C100 C105 1.388 . S
C101 H71 0.929 . S
C101 C100 1.362 . S
C101 C102 1.376 1_655 S
C102 H73 0.931 . S
C102 C101 1.376 1_455 S
C102 C103 1.396 . S
C103 C102 1.396 . S
C103 C104 1.348 1_455 S
C103 C121 1.472 . S
C104 H74 0.929 . S
C104 C103 1.348 1_655 S
C104 C105 1.443 . S
C105 H72 0.932 . S
C105 C100 1.388 . S
C105 C104 1.443 . S
C106 N86 1.433 . S
C106 C107 1.363 . S
C106 C111 1.370 . S
C107 H75 0.929 . S
C107 C106 1.363 . S
C107 C108 1.385 . S
C108 H76 0.930 . S
C108 C107 1.385 . S
C108 C109 1.357 . S
C109 C108 1.357 . S
C109 C110 1.406 . S
C110 H77 0.929 . S
C110 C109 1.406 . S
C110 C111 1.391 . S
C111 H78 0.931 . S
C111 C106 1.370 . S
C111 C110 1.391 . S
C112 N86 1.435 . S
C112 C113 1.358 . S
C112 C117 1.371 . S
C113 H79 0.930 . S
C113 C112 1.358 . S
C113 C114 1.405 . S
C114 H80 0.932 . S
C114 C113 1.405 . S
C114 C115 1.383 . S
C115 C114 1.383 . S
C115 C116 1.393 . S
C116 H81 0.931 . S
C116 C115 1.393 . S
C116 C117 1.382 . S
C117 H82 0.929 . S
C117 C112 1.371 . S
C117 C116 1.382 . S
C118 N86 1.423 . S
C118 C119 1.362 . S
C118 C123 1.388 . S
C119 H83 0.929 . S
C119 C118 1.362 . S
C119 C120 1.376 . S
C120 H84 0.931 . S
C120 C119 1.376 . S
C120 C121 1.396 . S
C121 C103 1.472 . S
C121 C120 1.396 . S
C121 C122 1.348 . S
C122 H85 0.929 . S
C122 C121 1.348 . S
C122 C123 1.443 . S
C123 H87 0.932 . S
C123 C118 1.388 . S
C123 C122 1.443 . S
H124 C151 0.929 . S
N125 C150 1.433 . S
N125 C156 1.435 . S
N125 C162 1.423 . S
H126 C152 0.930 . S
H127 C155 0.931 . S
H128 C154 0.929 . S
H129 C157 0.930 . S
H130 C158 0.932 . S
H131 C161 0.929 . S
H132 C160 0.931 . S
H133 C163 0.929 . S
H134 C167 0.932 . S
H135 C164 0.931 . S
H136 C166 0.929 . S
H137 C169 0.929 . S
H138 C170 0.930 . S
H139 C172 0.929 . S
H140 C173 0.931 . S
H141 C175 0.930 . S
H142 C176 0.932 . S
H143 C178 0.931 . S
H144 C179 0.929 . S
H145 C181 0.929 . S
H146 C182 0.931 . S
H147 C184 0.929 . S
N148 C168 1.433 . S
N148 C174 1.435 . S
N148 C180 1.423 . S
H149 C185 0.932 . S
C150 N125 1.433 . S
C150 C151 1.363 . S
C150 C155 1.370 . S
C151 H124 0.929 . S
C151 C150 1.363 . S
C151 C152 1.385 . S
C152 H126 0.930 . S
C152 C151 1.385 . S
C152 C153 1.357 . S
C153 C152 1.357 . S
C153 C154 1.406 . S
C154 H128 0.929 . S
C154 C153 1.406 . S
C154 C155 1.391 . S
C155 H127 0.931 . S
C155 C150 1.370 . S
C155 C154 1.391 . S
C156 N125 1.435 . S
C156 C157 1.358 . S
C156 C161 1.371 . S
C157 H129 0.930 . S
C157 C156 1.358 . S
C157 C158 1.405 . S
C158 H130 0.932 . S
C158 C157 1.405 . S
C158 C159 1.383 . S
C159 C158 1.383 . S
C159 C160 1.393 . S
C160 H132 0.931 . S
C160 C159 1.393 . S
C160 C161 1.382 . S
C161 H131 0.929 . S
C161 C156 1.371 . S
C161 C160 1.382 . S
C162 N125 1.423 . S
C162 C163 1.362 . S
C162 C167 1.388 . S
C163 H133 0.929 . S
C163 C162 1.362 . S
C163 C164 1.376 . S
C164 H135 0.931 . S
C164 C163 1.376 . S
C164 C165 1.396 . S
C165 C164 1.396 . S
C165 C166 1.348 . S
C165 C183 1.472 . S
C166 H136 0.929 . S
C166 C165 1.348 . S
C166 C167 1.443 . S
C167 H134 0.932 . S
C167 C162 1.388 . S
C167 C166 1.443 . S
C168 N148 1.433 . S
C168 C169 1.363 . S
C168 C173 1.370 . S
C169 H137 0.929 . S
C169 C168 1.363 . S
C169 C170 1.385 . S
C170 H138 0.930 . S
C170 C169 1.385 . S
C170 C171 1.357 . S
C171 C170 1.357 . S
C171 C172 1.406 . S
C172 H139 0.929 . S
C172 C171 1.406 . S
C172 C173 1.391 . S
C173 H140 0.931 . S
C173 C168 1.370 . S
C173 C172 1.391 . S
C174 N148 1.435 . S
C174 C175 1.358 . S
C174 C179 1.371 . S
C175 H141 0.930 . S
C175 C174 1.358 . S
C175 C176 1.405 . S
C176 H142 0.932 . S
C176 C175 1.405 . S
C176 C177 1.383 . S
C177 C176 1.383 . S
C177 C178 1.393 . S
C178 H143 0.931 . S
C178 C177 1.393 . S
C178 C179 1.382 . S
C179 H144 0.929 . S
C179 C174 1.371 . S
C179 C178 1.382 . S
C180 N148 1.423 . S
C180 C181 1.362 . S
C180 C185 1.388 . S
C181 H145 0.929 . S
C181 C180 1.362 . S
C181 C182 1.376 . S
C182 H146 0.931 . S
C182 C181 1.376 . S
C182 C183 1.396 . S
C183 C165 1.472 . S
C183 C182 1.396 . S
C183 C184 1.348 . S
C184 H147 0.929 . S
C184 C183 1.348 . S
C184 C185 1.443 . S
C185 H149 0.932 . S
C185 C180 1.388 . S
C185 C184 1.443 . S
H186 C213 0.929 . S
N187 C212 1.433 . S
N187 C218 1.435 . S
N187 C224 1.423 . S
H188 C214 0.930 . S
H189 C217 0.931 . S
H190 C216 0.929 . S
H191 C219 0.930 . S
H192 C220 0.932 . S
H193 C223 0.929 . S
H194 C222 0.931 . S
H195 C225 0.929 . S
H196 C229 0.932 . S
H197 C226 0.931 . S
H198 C228 0.929 . S
H199 C231 0.929 . S
H200 C232 0.930 . S
H201 C234 0.929 . S
H202 C235 0.931 . S
H203 C237 0.930 . S
H204 C238 0.932 . S
H205 C240 0.931 . S
H206 C241 0.929 . S
H207 C243 0.929 . S
H208 C244 0.931 1_565 S
H209 C246 0.929 . S
N210 C230 1.433 . S
N210 C236 1.435 . S
N210 C242 1.423 . S
H211 C247 0.932 . S
C212 N187 1.433 . S
C212 C213 1.363 . S
C212 C217 1.370 . S
C213 H186 0.929 . S
C213 C212 1.363 . S
C213 C214 1.385 . S
C214 H188 0.930 . S
C214 C213 1.385 . S
C214 C215 1.357 . S
C215 C214 1.357 . S
C215 C216 1.406 . S
C216 H190 0.929 . S
C216 C215 1.406 . S
C216 C217 1.391 . S
C217 H189 0.931 . S
C217 C212 1.370 . S
C217 C216 1.391 . S
C218 N187 1.435 . S
C218 C219 1.358 . S
C218 C223 1.371 . S
C219 H191 0.930 . S
C219 C218 1.358 . S
C219 C220 1.405 . S
C220 H192 0.932 . S
C220 C219 1.405 . S
C220 C221 1.383 . S
C221 C220 1.383 . S
C221 C222 1.393 . S
C222 H194 0.931 . S
C222 C221 1.393 . S
C222 C223 1.382 . S
C223 H193 0.929 . S
C223 C218 1.371 . S
C223 C222 1.382 . S
C224 N187 1.423 . S
C224 C225 1.362 . S
C224 C229 1.388 . S
C225 H195 0.929 . S
C225 C224 1.362 . S
C225 C226 1.376 . S
C226 H197 0.931 . S
C226 C225 1.376 . S
C226 C227 1.396 . S
C227 C226 1.396 . S
C227 C228 1.348 . S
C227 C245 1.472 1_565 S
C228 H198 0.929 . S
C228 C227 1.348 . S
C228 C229 1.443 . S
C229 H196 0.932 . S
C229 C224 1.388 . S
C229 C228 1.443 . S
C230 N210 1.433 . S
C230 C231 1.363 . S
C230 C235 1.370 . S
C231 H199 0.929 . S
C231 C230 1.363 . S
C231 C232 1.385 . S
C232 H200 0.930 . S
C232 C231 1.385 . S
C232 C233 1.357 . S
C233 C232 1.357 . S
C233 C234 1.406 . S
C234 H201 0.929 . S
C234 C233 1.406 . S
C234 C235 1.391 . S
C235 H202 0.931 . S
C235 C230 1.370 . S
C235 C234 1.391 . S
C236 N210 1.435 . S
C236 C237 1.358 . S
C236 C241 1.371 . S
C237 H203 0.930 . S
C237 C236 1.358 . S
C237 C238 1.405 . S
C238 H204 0.932 . S
C238 C237 1.405 . S
C238 C239 1.383 . S
C239 C238 1.383 . S
C239 C240 1.393 . S
C240 H205 0.931 . S
C240 C239 1.393 . S
C240 C241 1.382 . S
C241 H206 0.929 . S
C241 C236 1.371 . S
C241 C240 1.382 . S
C242 N210 1.423 . S
C242 C243 1.362 . S
C242 C247 1.388 . S
C243 H207 0.929 . S
C243 C242 1.362 . S
C243 C244 1.376 . S
C244 H208 0.931 1_545 S
C244 C243 1.376 . S
C244 C245 1.396 . S
C245 C227 1.472 1_545 S
C245 C244 1.396 . S
C245 C246 1.348 . S
C246 H209 0.929 . S
C246 C245 1.348 . S
C246 C247 1.443 . S
C247 H211 0.932 . S
C247 C242 1.388 . S
C247 C246 1.443 . S
H248 C275 0.929 . S
N249 C274 1.433 . S
N249 C280 1.435 . S
N249 C286 1.423 . S
H250 C276 0.930 . S
H251 C279 0.931 . S
H252 C278 0.929 . S
H253 C281 0.930 . S
H254 C282 0.932 . S
H255 C285 0.929 . S
H256 C284 0.931 . S
H257 C287 0.929 . S
H258 C291 0.932 . S
H259 C288 0.931 . S
H260 C290 0.929 . S
H261 C293 0.929 . S
H262 C294 0.930 . S
H263 C296 0.929 . S
H264 C297 0.931 . S
H265 C299 0.930 . S
H266 C300 0.932 . S
H267 C302 0.931 . S
H268 C303 0.929 . S
H269 C305 0.929 . S
H270 C306 0.928 1_455 S
H271 C308 0.929 . S
N272 C292 1.433 . S
N272 C298 1.435 . S
N272 C304 1.423 . S
H273 C309 0.932 . S
C274 N249 1.433 . S
C274 C275 1.363 . S
C274 C279 1.370 . S
C275 H248 0.929 . S
C275 C274 1.363 . S
C275 C276 1.385 . S
C276 H250 0.930 . S
C276 C275 1.385 . S
C276 C277 1.357 . S
C277 C276 1.357 . S
C277 C278 1.406 . S
C278 H252 0.929 . S
C278 C277 1.406 . S
C278 C279 1.391 . S
C279 H251 0.931 . S
C279 C274 1.370 . S
C279 C278 1.391 . S
C280 N249 1.435 . S
C280 C281 1.358 . S
C280 C285 1.371 . S
C281 H253 0.930 . S
C281 C280 1.358 . S
C281 C282 1.405 . S
C282 H254 0.932 . S
C282 C281 1.405 . S
C282 C283 1.383 . S
C283 C282 1.383 . S
C283 C284 1.393 . S
C284 H256 0.931 . S
C284 C283 1.393 . S
C284 C285 1.382 . S
C285 H255 0.929 . S
C285 C280 1.371 . S
C285 C284 1.382 . S
C286 N249 1.423 . S
C286 C287 1.362 . S
C286 C291 1.388 . S
C287 H257 0.929 . S
C287 C286 1.362 . S
C287 C288 1.376 . S
C288 H259 0.931 . S
C288 C287 1.376 . S
C288 C289 1.396 . S
C289 C288 1.396 . S
C289 C290 1.348 . S
C289 C307 1.472 . S
C290 H260 0.929 . S
C290 C289 1.348 . S
C290 C291 1.443 . S
C291 H258 0.932 . S
C291 C286 1.388 . S
C291 C290 1.443 . S
C292 N272 1.433 . S
C292 C293 1.363 . S
C292 C297 1.370 . S
C293 H261 0.929 . S
C293 C292 1.363 . S
C293 C294 1.385 . S
C294 H262 0.930 . S
C294 C293 1.385 . S
C294 C295 1.357 . S
C295 C294 1.357 . S
C295 C296 1.406 . S
C296 H263 0.929 . S
C296 C295 1.406 . S
C296 C297 1.391 . S
C297 H264 0.931 . S
C297 C292 1.370 . S
C297 C296 1.391 . S
C298 N272 1.435 . S
C298 C299 1.358 . S
C298 C303 1.371 . S
C299 H265 0.930 . S
C299 C298 1.358 . S
C299 C300 1.405 . S
C300 H266 0.932 . S
C300 C299 1.405 . S
C300 C301 1.383 . S
C301 C300 1.383 . S
C301 C302 1.393 . S
C302 H267 0.931 . S
C302 C301 1.393 . S
C302 C303 1.382 . S
C303 H268 0.929 . S
C303 C298 1.371 . S
C303 C302 1.382 . S
C304 N272 1.423 . S
C304 C305 1.362 . S
C304 C309 1.388 . S
C305 H269 0.929 . S
C305 C304 1.362 . S
C305 C306 1.380 . S
C306 H270 0.928 1_655 S
C306 C305 1.380 . S
C306 C307 1.395 1_655 S
C307 C289 1.472 . S
C307 C306 1.395 1_455 S
C307 C308 1.348 1_455 S
C308 H271 0.929 . S
C308 C307 1.348 1_655 S
C308 C309 1.443 . S
C309 H273 0.932 . S
C309 C304 1.388 . S
C309 C308 1.443 . S
H310 C337 0.929 . S
N311 C336 1.433 . S
N311 C342 1.435 . S
N311 C348 1.423 . S
H312 C338 0.930 . S
H313 C341 0.931 . S
H314 C340 0.929 . S
H315 C343 0.930 . S
H316 C344 0.932 . S
H317 C347 0.929 . S
H318 C346 0.931 . S
H319 C349 0.929 . S
H320 C353 0.932 . S
H321 C350 0.931 . S
H322 C352 0.929 . S
H323 C355 0.929 . S
H324 C356 0.930 . S
H325 C358 0.929 . S
H326 C359 0.931 . S
H327 C361 0.930 . S
H328 C362 0.932 . S
H329 C364 0.931 . S
H330 C365 0.929 . S
H331 C367 0.929 . S
H332 C368 0.931 . S
H333 C370 0.929 . S
N334 C354 1.433 . S
N334 C360 1.435 . S
N334 C366 1.423 . S
H335 C371 0.932 . S
C336 N311 1.433 . S
C336 C337 1.363 . S
C336 C341 1.370 . S
C337 H310 0.929 . S
C337 C336 1.363 . S
C337 C338 1.385 . S
C338 H312 0.930 . S
C338 C337 1.385 . S
C338 C339 1.357 . S
C339 C338 1.357 . S
C339 C340 1.406 . S
C340 H314 0.929 . S
C340 C339 1.406 . S
C340 C341 1.391 . S
C341 H313 0.931 . S
C341 C336 1.370 . S
C341 C340 1.391 . S
C342 N311 1.435 . S
C342 C343 1.358 . S
C342 C347 1.371 . S
C343 H315 0.930 . S
C343 C342 1.358 . S
C343 C344 1.405 . S
C344 H316 0.932 . S
C344 C343 1.405 . S
C344 C345 1.383 . S
C345 C344 1.383 . S
C345 C346 1.393 . S
C346 H318 0.931 . S
C346 C345 1.393 . S
C346 C347 1.382 . S
C347 H317 0.929 . S
C347 C342 1.371 . S
C347 C346 1.382 . S
C348 N311 1.423 . S
C348 C349 1.362 . S
C348 C353 1.388 . S
C349 H319 0.929 . S
C349 C348 1.362 . S
C349 C350 1.376 . S
C350 H321 0.931 . S
C350 C349 1.376 . S
C350 C351 1.396 . S
C351 C350 1.396 . S
C351 C352 1.348 . S
C351 C369 1.472 . S
C352 H322 0.929 . S
C352 C351 1.348 . S
C352 C353 1.443 . S
C353 H320 0.932 . S
C353 C348 1.388 . S
C353 C352 1.443 . S
C354 N334 1.433 . S
C354 C355 1.363 . S
C354 C359 1.370 . S
C355 H323 0.929 . S
C355 C354 1.363 . S
C355 C356 1.385 . S
C356 H324 0.930 . S
C356 C355 1.385 . S
C356 C357 1.357 . S
C357 C356 1.357 . S
C357 C358 1.406 . S
C358 H325 0.929 . S
C358 C357 1.406 . S
C358 C359 1.391 . S
C359 H326 0.931 . S
C359 C354 1.370 . S
C359 C358 1.391 . S
C360 N334 1.435 . S
C360 C361 1.358 . S
C360 C365 1.371 . S
C361 H327 0.930 . S
C361 C360 1.358 . S
C361 C362 1.405 . S
C362 H328 0.932 . S
C362 C361 1.405 . S
C362 C363 1.383 . S
C363 C362 1.383 . S
C363 C364 1.393 . S
C364 H329 0.931 . S
C364 C363 1.393 . S
C364 C365 1.382 . S
C365 H330 0.929 . S
C365 C360 1.371 . S
C365 C364 1.382 . S
C366 N334 1.423 . S
C366 C367 1.362 . S
C366 C371 1.388 . S
C367 H331 0.929 . S
C367 C366 1.362 . S
C367 C368 1.376 . S
C368 H332 0.931 . S
C368 C367 1.376 . S
C368 C369 1.396 . S
C369 C351 1.472 . S
C369 C368 1.396 . S
C369 C370 1.348 . S
C370 H333 0.929 . S
C370 C369 1.348 . S
C370 C371 1.443 . S
C371 H335 0.932 . S
C371 C366 1.388 . S
C371 C370 1.443 . S
H372 C399 0.929 . S
N373 C398 1.433 . S
N373 C404 1.435 . S
N373 C410 1.423 . S
H374 C400 0.930 . S
H375 C403 0.931 . S
H376 C402 0.929 . S
H377 C405 0.930 . S
H378 C406 0.932 . S
H379 C409 0.929 . S
H380 C408 0.931 . S
H381 C411 0.929 . S
H382 C415 0.932 . S
H383 C412 0.931 . S
H384 C414 0.929 . S
H385 C417 0.929 . S
H386 C418 0.930 . S
H387 C420 0.929 . S
H388 C421 0.931 . S
H389 C423 0.930 . S
H390 C424 0.932 . S
H391 C426 0.931 . S
H392 C427 0.929 . S
H393 C429 0.929 . S
H394 C430 0.931 . S
H395 C432 0.929 . S
N396 C416 1.433 . S
N396 C422 1.435 . S
N396 C428 1.423 . S
H397 C433 0.932 . S
C398 N373 1.433 . S
C398 C399 1.363 . S
C398 C403 1.370 . S
C399 H372 0.929 . S
C399 C398 1.363 . S
C399 C400 1.385 . S
C400 H374 0.930 . S
C400 C399 1.385 . S
C400 C401 1.357 . S
C401 C400 1.357 . S
C401 C402 1.406 . S
C402 H376 0.929 . S
C402 C401 1.406 . S
C402 C403 1.391 . S
C403 H375 0.931 . S
C403 C398 1.370 . S
C403 C402 1.391 . S
C404 N373 1.435 . S
C404 C405 1.358 . S
C404 C409 1.371 . S
C405 H377 0.930 . S
C405 C404 1.358 . S
C405 C406 1.405 . S
C406 H378 0.932 . S
C406 C405 1.405 . S
C406 C407 1.383 . S
C407 C406 1.383 . S
C407 C408 1.393 . S
C408 H380 0.931 . S
C408 C407 1.393 . S
C408 C409 1.382 . S
C409 H379 0.929 . S
C409 C404 1.371 . S
C409 C408 1.382 . S
C410 N373 1.423 . S
C410 C411 1.362 . S
C410 C415 1.388 . S
C411 H381 0.929 . S
C411 C410 1.362 . S
C411 C412 1.376 1_565 S
C412 H383 0.931 . S
C412 C411 1.376 1_545 S
C412 C413 1.396 . S
C413 C412 1.396 . S
C413 C414 1.348 1_545 S
C413 C431 1.472 . S
C414 H384 0.929 . S
C414 C413 1.348 1_565 S
C414 C415 1.443 . S
C415 H382 0.932 . S
C415 C410 1.388 . S
C415 C414 1.443 . S
C416 N396 1.433 . S
C416 C417 1.363 . S
C416 C421 1.370 . S
C417 H385 0.929 . S
C417 C416 1.363 . S
C417 C418 1.385 . S
C418 H386 0.930 . S
C418 C417 1.385 . S
C418 C419 1.357 . S
C419 C418 1.357 . S
C419 C420 1.406 . S
C420 H387 0.929 . S
C420 C419 1.406 . S
C420 C421 1.391 . S
C421 H388 0.931 . S
C421 C416 1.370 . S
C421 C420 1.391 . S
C422 N396 1.435 . S
C422 C423 1.358 . S
C422 C427 1.371 . S
C423 H389 0.930 . S
C423 C422 1.358 . S
C423 C424 1.405 . S
C424 H390 0.932 . S
C424 C423 1.405 . S
C424 C425 1.383 . S
C425 C424 1.383 . S
C425 C426 1.393 . S
C426 H391 0.931 . S
C426 C425 1.393 . S
C426 C427 1.382 . S
C427 H392 0.929 . S
C427 C422 1.371 . S
C427 C426 1.382 . S
C428 N396 1.423 . S
C428 C429 1.362 . S
C428 C433 1.388 . S
C429 H393 0.929 . S
C429 C428 1.362 . S
C429 C430 1.376 . S
C430 H394 0.931 . S
C430 C429 1.376 . S
C430 C431 1.396 . S
C431 C413 1.472 . S
C431 C430 1.396 . S
C431 C432 1.348 . S
C432 H395 0.929 . S
C432 C431 1.348 . S
C432 C433 1.443 . S
C433 H397 0.932 . S
C433 C428 1.388 . S
C433 C432 1.443 . S
H434 C461 0.929 . S
N435 C460 1.433 . S
N435 C466 1.435 . S
N435 C472 1.423 . S
H436 C462 0.930 . S
H437 C465 0.931 . S
H438 C464 0.929 . S
H439 C467 0.930 . S
H440 C468 0.932 . S
H441 C471 0.929 . S
H442 C470 0.931 . S
H443 C473 0.929 . S
H444 C477 0.932 . S
H445 C474 0.931 . S
H446 C476 0.929 . S
H447 C479 0.929 . S
H448 C480 0.930 . S
H449 C482 0.929 . S
H450 C483 0.931 . S
H451 C485 0.930 . S
H452 C486 0.932 . S
H453 C488 0.931 . S
H454 C489 0.929 . S
H455 C491 0.929 . S
H456 C492 0.931 1_565 S
H457 C494 0.929 . S
N458 C478 1.433 . S
N458 C484 1.435 . S
N458 C490 1.423 . S
H459 C495 0.932 . S
C460 N435 1.433 . S
C460 C461 1.363 . S
C460 C465 1.370 . S
C461 H434 0.929 . S
C461 C460 1.363 . S
C461 C462 1.385 . S
C462 H436 0.930 . S
C462 C461 1.385 . S
C462 C463 1.357 . S
C463 C462 1.357 . S
C463 C464 1.406 . S
C464 H438 0.929 . S
C464 C463 1.406 . S
C464 C465 1.391 . S
C465 H437 0.931 . S
C465 C460 1.370 . S
C465 C464 1.391 . S
C466 N435 1.435 . S
C466 C467 1.358 . S
C466 C471 1.371 . S
C467 H439 0.930 . S
C467 C466 1.358 . S
C467 C468 1.405 . S
C468 H440 0.932 . S
C468 C467 1.405 . S
C468 C469 1.383 . S
C469 C468 1.383 . S
C469 C470 1.393 . S
C470 H442 0.931 . S
C470 C469 1.393 . S
C470 C471 1.382 . S
C471 H441 0.929 . S
C471 C466 1.371 . S
C471 C470 1.382 . S
C472 N435 1.423 . S
C472 C473 1.362 . S
C472 C477 1.388 . S
C473 H443 0.929 . S
C473 C472 1.362 . S
C473 C474 1.376 1_455 S
C474 H445 0.931 . S
C474 C473 1.376 1_655 S
C474 C475 1.396 . S
C475 C474 1.396 . S
C475 C476 1.348 1_655 S
C475 C493 1.472 1_565 S
C476 H446 0.929 . S
C476 C475 1.348 1_455 S
C476 C477 1.443 . S
C477 H444 0.932 . S
C477 C472 1.388 . S
C477 C476 1.443 . S
C478 N458 1.433 . S
C478 C479 1.363 . S
C478 C483 1.370 . S
C479 H447 0.929 . S
C479 C478 1.363 . S
C479 C480 1.385 . S
C480 H448 0.930 . S
C480 C479 1.385 . S
C480 C481 1.357 . S
C481 C480 1.357 . S
C481 C482 1.406 . S
C482 H449 0.929 . S
C482 C481 1.406 . S
C482 C483 1.391 . S
C483 H450 0.931 . S
C483 C478 1.370 . S
C483 C482 1.391 . S
C484 N458 1.435 . S
C484 C485 1.358 . S
C484 C489 1.371 . S
C485 H451 0.930 . S
C485 C484 1.358 . S
C485 C486 1.405 . S
C486 H452 0.932 . S
C486 C485 1.405 . S
C486 C487 1.383 . S
C487 C486 1.383 . S
C487 C488 1.393 . S
C488 H453 0.931 . S
C488 C487 1.393 . S
C488 C489 1.382 . S
C489 H454 0.929 . S
C489 C484 1.371 . S
C489 C488 1.382 . S
C490 N458 1.423 . S
C490 C491 1.362 . S
C490 C495 1.388 . S
C491 H455 0.929 . S
C491 C490 1.362 . S
C491 C492 1.376 . S
C492 H456 0.931 1_545 S
C492 C491 1.376 . S
C492 C493 1.396 . S
C493 C475 1.472 1_545 S
C493 C492 1.396 . S
C493 C494 1.348 . S
C494 H457 0.929 . S
C494 C493 1.348 . S
C494 C495 1.443 . S
C495 H459 0.932 . S
C495 C490 1.388 . S
C495 C494 1.443 . S
Mn496 O501 2.095 1_554 S
Mn496 O511 2.162 . S
Mn496 O512 2.297 . S
Mn496 O520 2.385 . S
Mn496 O521 2.209 . S
Mn496 O522 2.093 . S
Mn497 O502 2.114 1_554 S
Mn497 N504 2.259 . S
Mn497 N513 2.290 . S
Mn497 O521 2.220 . S
Mn497 O523 2.117 1_554 S
C498 O520 1.234 . S
C498 O521 1.283 . S
C499 O511 1.281 . S
C499 O512 1.236 . S
C500 O522 1.241 1_556 S
C500 O523 1.264 . S
O501 Mn496 2.095 1_556 S
O501 C510 1.250 . S
O502 Mn497 2.114 1_556 S
O502 C510 1.258 . S
C503 N504 1.300 1_556 S
C503 C507 1.446 1_556 S
C503 H509 0.971 . S
N504 Mn497 2.259 . S
N504 C503 1.300 1_554 S
N504 C508 1.362 . S
C505 C506 1.258 . S
C505 C508 1.431 . S
C505 C525 1.449 . S
C506 C505 1.258 . S
C506 C507 1.477 . S
C506 H526 0.931 . S
C507 C503 1.446 1_554 S
C507 C506 1.477 . S
C507 H527 0.930 1_554 S
C508 N504 1.362 . S
C508 C505 1.431 . S
C508 C518 1.476 . S
H509 C503 0.971 . S
C510 O501 1.250 . S
C510 O502 1.258 . S
O511 Mn496 2.162 . S
O511 C499 1.281 . S
O512 Mn496 2.297 . S
O512 C499 1.236 . S
N513 Mn497 2.290 . S
N513 C514 1.328 . S
N513 C518 1.318 . S
C514 N513 1.328 . S
C514 C515 1.457 . S
C514 H519 0.929 . S
C515 C514 1.457 . S
C515 C516 1.291 . S
C515 H528 0.931 . S
C516 C515 1.291 . S
C516 C517 1.373 . S
C516 H529 0.929 . S
C517 C516 1.373 . S
C517 C518 1.396 . S
C517 C524 1.403 . S
C518 C508 1.476 . S
C518 N513 1.318 . S
C518 C517 1.396 . S
H519 C514 0.929 . S
O520 Mn496 2.385 . S
O520 C498 1.234 . S
O521 Mn496 2.209 . S
O521 Mn497 2.220 . S
O521 C498 1.283 . S
O522 Mn496 2.093 . S
O522 C500 1.241 1_554 S
O523 Mn497 2.117 1_556 S
O523 C500 1.264 . S
C524 C517 1.403 . S
C524 C525 1.399 . S
C524 H530 0.929 . S
C525 C505 1.449 . S
C525 C524 1.399 . S
C525 H531 0.930 . S
H526 C506 0.931 . S
H527 C507 0.930 1_556 S
H528 C515 0.931 . S
H529 C516 0.929 . S
H530 C524 0.929 . S
H531 C525 0.930 . S
Mn532 O537 2.095 . S
Mn532 O547 2.162 . S
Mn532 O548 2.297 . S
Mn532 O556 2.385 . S
Mn532 O557 2.209 . S
Mn532 O558 2.094 . S
Mn533 O538 2.121 . S
Mn533 N540 2.257 . S
Mn533 N549 2.282 . S
Mn533 O557 2.215 . S
Mn533 O559 2.117 . S
C534 O556 1.234 . S
C534 O557 1.283 . S
C535 O547 1.281 . S
C535 O548 1.236 . S
C536 O558 1.240 . S
C536 O559 1.264 . S
O537 Mn532 2.095 . S
O537 C546 1.250 . S
O538 Mn533 2.121 . S
O538 C546 1.258 . S
C539 N540 1.326 . S
C539 C543 1.460 . S
C539 H545 0.929 . S
N540 Mn533 2.257 . S
N540 C539 1.326 . S
N540 C544 1.362 . S
C541 C542 1.258 . S
C541 C544 1.431 . S
C541 C561 1.449 . S
C542 C541 1.258 . S
C542 C543 1.477 . S
C542 H562 0.931 . S
C543 C539 1.460 . S
C543 C542 1.477 . S
C543 H563 0.930 . S
C544 N540 1.362 . S
C544 C541 1.431 . S
C544 C554 1.476 . S
H545 C539 0.929 . S
C546 O537 1.250 . S
C546 O538 1.258 . S
O547 Mn532 2.162 . S
O547 C535 1.281 . S
O548 Mn532 2.297 . S
O548 C535 1.236 . S
N549 Mn533 2.282 . S
N549 C550 1.328 . S
N549 C554 1.318 . S
C550 N549 1.328 . S
C550 C551 1.457 . S
C550 H555 0.929 . S
C551 C550 1.457 . S
C551 C552 1.291 . S
C551 H564 0.931 . S
C552 C551 1.291 . S
C552 C553 1.373 . S
C552 H565 0.929 . S
C553 C552 1.373 . S
C553 C554 1.396 . S
C553 C560 1.403 . S
C554 C544 1.476 . S
C554 N549 1.318 . S
C554 C553 1.396 . S
H555 C550 0.929 . S
O556 Mn532 2.385 . S
O556 C534 1.234 . S
O557 Mn532 2.209 . S
O557 Mn533 2.215 . S
O557 C534 1.283 . S
O558 Mn532 2.094 . S
O558 C536 1.240 . S
O559 Mn533 2.117 . S
O559 C536 1.264 . S
C560 C553 1.403 . S
C560 C561 1.399 . S
C560 H566 0.929 . S
C561 C541 1.449 . S
C561 C560 1.399 . S
C561 H567 0.930 . S
H562 C542 0.931 . S
H563 C543 0.930 . S
H564 C551 0.931 . S
H565 C552 0.929 . S
H566 C560 0.929 . S
H567 C561 0.930 . S
Mn568 O573 2.095 . S
Mn568 O583 2.162 . S
Mn568 O584 2.297 . S
Mn568 O592 2.385 . S
Mn568 O593 2.209 . S
Mn568 O594 2.094 . S
Mn569 O574 2.121 . S
Mn569 N576 2.257 . S
Mn569 N585 2.282 . S
Mn569 O593 2.215 . S
Mn569 O595 2.117 . S
C570 O592 1.234 . S
C570 O593 1.283 . S
C571 O583 1.281 . S
C571 O584 1.236 . S
C572 O594 1.240 . S
C572 O595 1.264 . S
O573 Mn568 2.095 . S
O573 C582 1.250 . S
O574 Mn569 2.121 . S
O574 C582 1.258 . S
C575 N576 1.326 . S
C575 C579 1.460 . S
C575 H581 0.929 . S
N576 Mn569 2.257 . S
N576 C575 1.326 . S
N576 C580 1.362 . S
C577 C578 1.258 . S
C577 C580 1.431 . S
C577 C597 1.449 . S
C578 C577 1.258 . S
C578 C579 1.477 . S
C578 H598 0.931 . S
C579 C575 1.460 . S
C579 C578 1.477 . S
C579 H599 0.930 . S
C580 N576 1.362 . S
C580 C577 1.431 . S
C580 C590 1.476 . S
H581 C575 0.929 . S
C582 O573 1.250 . S
C582 O574 1.258 . S
O583 Mn568 2.162 . S
O583 C571 1.281 . S
O584 Mn568 2.297 . S
O584 C571 1.236 . S
N585 Mn569 2.282 . S
N585 C586 1.328 . S
N585 C590 1.318 . S
C586 N585 1.328 . S
C586 C587 1.457 . S
C586 H591 0.929 . S
C587 C586 1.457 . S
C587 C588 1.291 . S
C587 H600 0.931 . S
C588 C587 1.291 . S
C588 C589 1.373 . S
C588 H601 0.929 . S
C589 C588 1.373 . S
C589 C590 1.396 . S
C589 C596 1.403 . S
C590 C580 1.476 . S
C590 N585 1.318 . S
C590 C589 1.396 . S
H591 C586 0.929 . S
O592 Mn568 2.385 . S
O592 C570 1.234 . S
O593 Mn568 2.209 . S
O593 Mn569 2.215 . S
O593 C570 1.283 . S
O594 Mn568 2.094 . S
O594 C572 1.240 . S
O595 Mn569 2.117 . S
O595 C572 1.264 . S
C596 C589 1.403 . S
C596 C597 1.399 . S
C596 H602 0.929 . S
C597 C577 1.449 . S
C597 C596 1.399 . S
C597 H603 0.930 . S
H598 C578 0.931 . S
H599 C579 0.930 . S
H600 C587 0.931 . S
H601 C588 0.929 . S
H602 C596 0.929 . S
H603 C597 0.930 . S
Mn604 O609 2.095 . S
Mn604 O619 2.162 . S
Mn604 O620 2.297 . S
Mn604 O628 2.385 . S
Mn604 O629 2.209 . S
Mn604 O630 2.094 . S
Mn605 O610 2.121 . S
Mn605 N612 2.257 . S
Mn605 N621 2.282 . S
Mn605 O629 2.215 . S
Mn605 O631 2.117 . S
C606 O628 1.234 . S
C606 O629 1.283 . S
C607 O619 1.281 . S
C607 O620 1.236 . S
C608 O630 1.240 . S
C608 O631 1.264 . S
O609 Mn604 2.095 . S
O609 C618 1.250 . S
O610 Mn605 2.121 . S
O610 C618 1.258 . S
C611 N612 1.326 . S
C611 C615 1.460 . S
C611 H617 0.929 . S
N612 Mn605 2.257 . S
N612 C611 1.326 . S
N612 C616 1.362 . S
C613 C614 1.258 . S
C613 C616 1.431 . S
C613 C633 1.449 . S
C614 C613 1.258 . S
C614 C615 1.477 . S
C614 H634 0.931 . S
C615 C611 1.460 . S
C615 C614 1.477 . S
C615 H635 0.930 . S
C616 N612 1.362 . S
C616 C613 1.431 . S
C616 C626 1.476 . S
H617 C611 0.929 . S
C618 O609 1.250 . S
C618 O610 1.258 . S
O619 Mn604 2.162 . S
O619 C607 1.281 . S
O620 Mn604 2.297 . S
O620 C607 1.236 . S
N621 Mn605 2.282 . S
N621 C622 1.328 . S
N621 C626 1.318 . S
C622 N621 1.328 . S
C622 C623 1.457 . S
C622 H627 0.929 . S
C623 C622 1.457 . S
C623 C624 1.291 . S
C623 H636 0.931 . S
C624 C623 1.291 . S
C624 C625 1.373 . S
C624 H637 0.929 . S
C625 C624 1.373 . S
C625 C626 1.396 . S
C625 C632 1.403 . S
C626 C616 1.476 . S
C626 N621 1.318 . S
C626 C625 1.396 . S
H627 C622 0.929 . S
O628 Mn604 2.385 . S
O628 C606 1.234 . S
O629 Mn604 2.209 . S
O629 Mn605 2.215 . S
O629 C606 1.283 . S
O630 Mn604 2.094 . S
O630 C608 1.240 . S
O631 Mn605 2.117 . S
O631 C608 1.264 . S
C632 C625 1.403 . S
C632 C633 1.399 . S
C632 H638 0.929 . S
C633 C613 1.449 . S
C633 C632 1.399 . S
C633 H639 0.930 . S
H634 C614 0.931 . S
H635 C615 0.930 . S
H636 C623 0.931 . S
H637 C624 0.929 . S
H638 C632 0.929 . S
H639 C633 0.930 . S
Mn640 O645 2.095 . S
Mn640 O655 2.162 . S
Mn640 O656 2.297 . S
Mn640 O664 2.385 . S
Mn640 O665 2.209 . S
Mn640 O666 2.094 . S
Mn641 O646 2.121 . S
Mn641 N648 2.257 . S
Mn641 N657 2.282 . S
Mn641 O665 2.215 . S
Mn641 O667 2.117 . S
C642 O664 1.234 . S
C642 O665 1.283 . S
C643 O655 1.281 . S
C643 O656 1.236 . S
C644 O666 1.240 . S
C644 O667 1.264 . S
O645 Mn640 2.095 . S
O645 C654 1.250 . S
O646 Mn641 2.121 . S
O646 C654 1.258 . S
C647 N648 1.326 . S
C647 C651 1.460 . S
C647 H653 0.929 . S
N648 Mn641 2.257 . S
N648 C647 1.326 . S
N648 C652 1.362 . S
C649 C650 1.258 . S
C649 C652 1.431 . S
C649 C669 1.449 . S
C650 C649 1.258 . S
C650 C651 1.477 . S
C650 H670 0.931 . S
C651 C647 1.460 . S
C651 C650 1.477 . S
C651 H671 0.930 . S
C652 N648 1.362 . S
C652 C649 1.431 . S
C652 C662 1.476 . S
H653 C647 0.929 . S
C654 O645 1.250 . S
C654 O646 1.258 . S
O655 Mn640 2.162 . S
O655 C643 1.281 . S
O656 Mn640 2.297 . S
O656 C643 1.236 . S
N657 Mn641 2.282 . S
N657 C658 1.328 . S
N657 C662 1.318 . S
C658 N657 1.328 . S
C658 C659 1.457 . S
C658 H663 0.929 . S
C659 C658 1.457 . S
C659 C660 1.291 . S
C659 H672 0.931 . S
C660 C659 1.291 . S
C660 C661 1.373 . S
C660 H673 0.929 . S
C661 C660 1.373 . S
C661 C662 1.396 . S
C661 C668 1.403 . S
C662 C652 1.476 . S
C662 N657 1.318 . S
C662 C661 1.396 . S
H663 C658 0.929 . S
O664 Mn640 2.385 . S
O664 C642 1.234 . S
O665 Mn640 2.209 . S
O665 Mn641 2.215 . S
O665 C642 1.283 . S
O666 Mn640 2.094 . S
O666 C644 1.240 . S
O667 Mn641 2.117 . S
O667 C644 1.264 . S
C668 C661 1.403 . S
C668 C669 1.399 . S
C668 H674 0.929 . S
C669 C649 1.449 . S
C669 C668 1.399 . S
C669 H675 0.930 . S
H670 C650 0.931 . S
H671 C651 0.930 . S
H672 C659 0.931 . S
H673 C660 0.929 . S
H674 C668 0.929 . S
H675 C669 0.930 . S
Mn676 O681 2.095 . S
Mn676 O691 2.162 . S
Mn676 O692 2.297 . S
Mn676 O700 2.385 . S
Mn676 O701 2.209 . S
Mn676 O702 2.094 . S
Mn677 O682 2.121 . S
Mn677 N684 2.257 . S
Mn677 N693 2.282 . S
Mn677 O701 2.215 . S
Mn677 O703 2.117 . S
C678 O700 1.234 . S
C678 O701 1.283 . S
C679 O691 1.281 . S
C679 O692 1.236 . S
C680 O702 1.240 . S
C680 O703 1.264 . S
O681 Mn676 2.095 . S
O681 C690 1.250 . S
O682 Mn677 2.121 . S
O682 C690 1.258 . S
C683 N684 1.326 . S
C683 C687 1.460 . S
C683 H689 0.929 . S
N684 Mn677 2.257 . S
N684 C683 1.326 . S
N684 C688 1.362 . S
C685 C686 1.258 . S
C685 C688 1.431 . S
C685 C705 1.449 . S
C686 C685 1.258 . S
C686 C687 1.477 . S
C686 H706 0.931 . S
C687 C683 1.460 . S
C687 C686 1.477 . S
C687 H707 0.930 . S
C688 N684 1.362 . S
C688 C685 1.431 . S
C688 C698 1.476 . S
H689 C683 0.929 . S
C690 O681 1.250 . S
C690 O682 1.258 . S
O691 Mn676 2.162 . S
O691 C679 1.281 . S
O692 Mn676 2.297 . S
O692 C679 1.236 . S
N693 Mn677 2.282 . S
N693 C694 1.328 . S
N693 C698 1.318 . S
C694 N693 1.328 . S
C694 C695 1.457 . S
C694 H699 0.929 . S
C695 C694 1.457 . S
C695 C696 1.291 . S
C695 H708 0.931 . S
C696 C695 1.291 . S
C696 C697 1.373 . S
C696 H709 0.929 . S
C697 C696 1.373 . S
C697 C698 1.396 . S
C697 C704 1.403 . S
C698 C688 1.476 . S
C698 N693 1.318 . S
C698 C697 1.396 . S
H699 C694 0.929 . S
O700 Mn676 2.385 . S
O700 C678 1.234 . S
O701 Mn676 2.209 . S
O701 Mn677 2.215 . S
O701 C678 1.283 . S
O702 Mn676 2.094 . S
O702 C680 1.240 . S
O703 Mn677 2.117 . S
O703 C680 1.264 . S
C704 C697 1.403 . S
C704 C705 1.399 . S
C704 H710 0.929 . S
C705 C685 1.449 . S
C705 C704 1.399 . S
C705 H711 0.930 . S
H706 C686 0.931 . S
H707 C687 0.930 . S
H708 C695 0.931 . S
H709 C696 0.929 . S
H710 C704 0.929 . S
H711 C705 0.930 . S
Mn712 O717 2.095 . S
Mn712 O727 2.162 . S
Mn712 O728 2.299 . S
Mn712 O736 2.385 1_554 S
Mn712 O737 2.209 1_554 S
Mn712 O738 2.094 . S
Mn713 O718 2.121 . S
Mn713 N720 2.246 1_554 S
Mn713 N729 2.282 1_554 S
Mn713 O737 2.215 1_554 S
Mn713 O739 2.117 . S
C714 O736 1.234 . S
C714 O737 1.283 . S
C715 O727 1.290 . S
C715 O728 1.235 . S
C716 O738 1.240 . S
C716 O739 1.264 . S
O717 Mn712 2.095 . S
O717 C726 1.250 . S
O718 Mn713 2.121 . S
O718 C726 1.258 . S
C719 N720 1.305 1_554 S
C719 C723 1.460 . S
C719 H725 0.929 . S
N720 Mn713 2.246 1_556 S
N720 C719 1.305 1_556 S
N720 C724 1.397 . S
C721 C722 1.258 . S
C721 C724 1.431 . S
C721 C741 1.449 . S
C722 C721 1.258 . S
C722 C723 1.477 1_556 S
C722 H742 0.931 . S
C723 C719 1.460 . S
C723 C722 1.477 1_554 S
C723 H743 0.930 . S
C724 N720 1.397 . S
C724 C721 1.431 . S
C724 C734 1.476 . S
H725 C719 0.929 . S
C726 O717 1.250 . S
C726 O718 1.258 . S
O727 Mn712 2.162 . S
O727 C715 1.290 . S
O728 Mn712 2.299 . S
O728 C715 1.235 . S
N729 Mn713 2.282 1_556 S
N729 C730 1.328 . S
N729 C734 1.318 . S
C730 N729 1.328 . S
C730 C731 1.457 . S
C730 H735 0.929 . S
C731 C730 1.457 . S
C731 C732 1.291 . S
C731 H744 0.931 . S
C732 C731 1.291 . S
C732 C733 1.373 . S
C732 H745 0.929 . S
C733 C732 1.373 . S
C733 C734 1.396 . S
C733 C740 1.403 . S
C734 C724 1.476 . S
C734 N729 1.318 . S
C734 C733 1.396 . S
H735 C730 0.929 . S
O736 Mn712 2.385 1_556 S
O736 C714 1.234 . S
O737 Mn712 2.209 1_556 S
O737 Mn713 2.215 1_556 S
O737 C714 1.283 . S
O738 Mn712 2.094 . S
O738 C716 1.240 . S
O739 Mn713 2.117 . S
O739 C716 1.264 . S
C740 C733 1.403 . S
C740 C741 1.399 . S
C740 H746 0.929 . S
C741 C721 1.449 . S
C741 C740 1.399 . S
C741 H747 0.930 . S
H742 C722 0.931 . S
H743 C723 0.930 . S
H744 C731 0.931 . S
H745 C732 0.929 . S
H746 C740 0.929 . S
H747 C741 0.930 . S
Mn748 O753 2.095 . S
Mn748 O763 2.162 . S
Mn748 O764 2.297 . S
Mn748 O772 2.385 . S
Mn748 O773 2.209 . S
Mn748 O774 2.094 . S
Mn749 O754 2.121 . S
Mn749 N756 2.257 . S
Mn749 N765 2.282 . S
Mn749 O773 2.215 . S
Mn749 O775 2.117 . S
C750 O772 1.234 . S
C750 O773 1.283 . S
C751 O763 1.281 . S
C751 O764 1.236 . S
C752 O774 1.240 . S
C752 O775 1.264 . S
O753 Mn748 2.095 . S
O753 C762 1.250 . S
O754 Mn749 2.121 . S
O754 C762 1.258 . S
C755 N756 1.326 . S
C755 C759 1.460 . S
C755 H761 0.929 . S
N756 Mn749 2.257 . S
N756 C755 1.326 . S
N756 C760 1.362 . S
C757 C758 1.258 . S
C757 C760 1.431 . S
C757 C777 1.449 . S
C758 C757 1.258 . S
C758 C759 1.477 . S
C758 H778 0.931 . S
C759 C755 1.460 . S
C759 C758 1.477 . S
C759 H779 0.930 . S
C760 N756 1.362 . S
C760 C757 1.431 . S
C760 C770 1.476 . S
H761 C755 0.929 . S
C762 O753 1.250 . S
C762 O754 1.258 . S
O763 Mn748 2.162 . S
O763 C751 1.281 . S
O764 Mn748 2.297 . S
O764 C751 1.236 . S
N765 Mn749 2.282 . S
N765 C766 1.328 . S
N765 C770 1.318 . S
C766 N765 1.328 . S
C766 C767 1.457 . S
C766 H771 0.929 . S
C767 C766 1.457 . S
C767 C768 1.291 . S
C767 H780 0.931 . S
C768 C767 1.291 . S
C768 C769 1.373 . S
C768 H781 0.929 . S
C769 C768 1.373 . S
C769 C770 1.396 . S
C769 C776 1.403 . S
C770 C760 1.476 . S
C770 N765 1.318 . S
C770 C769 1.396 . S
H771 C766 0.929 . S
O772 Mn748 2.385 . S
O772 C750 1.234 . S
O773 Mn748 2.209 . S
O773 Mn749 2.215 . S
O773 C750 1.283 . S
O774 Mn748 2.094 . S
O774 C752 1.240 . S
O775 Mn749 2.117 . S
O775 C752 1.264 . S
C776 C769 1.403 . S
C776 C777 1.399 . S
C776 H782 0.929 . S
C777 C757 1.449 . S
C777 C776 1.399 . S
C777 H783 0.930 . S
H778 C758 0.931 . S
H779 C759 0.930 . S
H780 C767 0.931 . S
H781 C768 0.929 . S
H782 C776 0.929 . S
H783 C777 0.930 . S
H784 C792 0.929 . S
H785 C794 0.930 . S
H786 C796 0.930 . S
H787 C799 0.929 . S
H788 C802 0.930 . S
H789 C804 0.960 . S
H790 C804 0.960 . S
H791 C804 0.960 . S
C792 H784 0.929 . S
C792 C793 1.377 . S
C792 C794 1.384 . S
C793 C792 1.377 . S
C793 C799 1.390 . S
C794 H785 0.930 . S
C794 C792 1.384 . S
C794 C795 1.372 . S
C795 C794 1.372 . S
C795 C796 1.400 . S
C795 C800 1.490 . S
C796 H786 0.930 . S
C796 C795 1.400 . S
C796 C799 1.386 . S
H797 C813 0.930 . S
H798 C814 0.931 . S
C799 H787 0.929 . S
C799 C793 1.390 . S
C799 C796 1.386 . S
C800 C795 1.490 . S
C800 C802 1.395 . S
C800 C803 1.403 . S
H801 C807 0.930 . S
C802 H788 0.930 . S
C802 C800 1.395 . S
C802 C805 1.403 . S
C803 C800 1.403 . S
C803 C804 1.524 . S
C803 C807 1.400 . S
C804 H789 0.960 . S
C804 H790 0.960 . S
C804 H791 0.960 . S
C804 C803 1.524 . S
C805 C802 1.403 . S
C805 C806 1.392 . S
C805 C809 1.495 . S
C806 C805 1.392 . S
C806 C807 1.385 . S
C806 C808 1.478 . S
C807 H801 0.930 . S
C807 C803 1.400 . S
C807 C806 1.385 . S
C808 C806 1.478 . S
C808 C810 1.381 . S
C808 C814 1.383 . S
C809 C805 1.495 . S
C809 H815 0.959 . S
C809 H816 0.961 . S
C809 H817 0.960 . S
C810 C808 1.381 . S
C810 C811 1.394 . S
C810 H818 0.930 . S
C811 C810 1.394 . S
C811 C812 1.383 . S
C811 H819 0.929 . S
C812 C811 1.383 . S
C812 C813 1.377 . S
C813 H797 0.930 . S
C813 C812 1.377 . S
C813 C814 1.379 . S
C814 H798 0.931 . S
C814 C808 1.383 . S
C814 C813 1.379 . S
H815 C809 0.959 . S
H816 C809 0.961 . S
H817 C809 0.960 . S
H818 C810 0.930 . S
H819 C811 0.929 . S
H820 C828 0.929 . S
H821 C830 0.930 . S
H822 C832 0.930 . S
H823 C835 0.929 . S
H824 C838 0.930 . S
H825 C840 0.960 . S
H826 C840 0.960 . S
H827 C840 0.960 . S
C828 H820 0.929 . S
C828 C829 1.377 . S
C828 C830 1.384 . S
C829 C828 1.377 . S
C829 C835 1.390 . S
C830 H821 0.930 . S
C830 C828 1.384 . S
C830 C831 1.372 . S
C831 C830 1.372 . S
C831 C832 1.400 . S
C831 C836 1.490 . S
C832 H822 0.930 . S
C832 C831 1.400 . S
C832 C835 1.386 . S
H833 C849 0.930 . S
H834 C850 0.931 . S
C835 H823 0.929 . S
C835 C829 1.390 . S
C835 C832 1.386 . S
C836 C831 1.490 . S
C836 C838 1.395 . S
C836 C839 1.403 . S
H837 C843 0.930 . S
C838 H824 0.930 . S
C838 C836 1.395 . S
C838 C841 1.403 . S
C839 C836 1.403 . S
C839 C840 1.524 . S
C839 C843 1.400 . S
C840 H825 0.960 . S
C840 H826 0.960 . S
C840 H827 0.960 . S
C840 C839 1.524 . S
C841 C838 1.403 . S
C841 C842 1.392 . S
C841 C845 1.495 . S
C842 C841 1.392 . S
C842 C843 1.385 . S
C842 C844 1.478 . S
C843 H837 0.930 . S
C843 C839 1.400 . S
C843 C842 1.385 . S
C844 C842 1.478 . S
C844 C846 1.381 . S
C844 C850 1.383 . S
C845 C841 1.495 . S
C845 H851 0.959 . S
C845 H852 0.961 . S
C845 H853 0.960 . S
C846 C844 1.381 . S
C846 C847 1.394 . S
C846 H854 0.930 . S
C847 C846 1.394 . S
C847 C848 1.383 . S
C847 H855 0.929 . S
C848 C847 1.383 . S
C848 C849 1.377 . S
C849 H833 0.930 . S
C849 C848 1.377 . S
C849 C850 1.379 . S
C850 H834 0.931 . S
C850 C844 1.383 . S
C850 C849 1.379 . S
H851 C845 0.959 . S
H852 C845 0.961 . S
H853 C845 0.960 . S
H854 C846 0.930 . S
H855 C847 0.929 . S
H856 C864 0.929 . S
H857 C866 0.930 . S
H858 C868 0.930 . S
H859 C871 0.929 . S
H860 C874 0.930 . S
H861 C876 0.960 . S
H862 C876 0.960 . S
H863 C876 0.960 . S
C864 H856 0.929 . S
C864 C865 1.377 . S
C864 C866 1.384 . S
C865 C864 1.377 . S
C865 C871 1.390 . S
C866 H857 0.930 . S
C866 C864 1.384 . S
C866 C867 1.372 . S
C867 C866 1.372 . S
C867 C868 1.400 . S
C867 C872 1.490 . S
C868 H858 0.930 . S
C868 C867 1.400 . S
C868 C871 1.386 . S
H869 C885 0.930 . S
H870 C886 0.931 . S
C871 H859 0.929 . S
C871 C865 1.390 . S
C871 C868 1.386 . S
C872 C867 1.490 . S
C872 C874 1.395 . S
C872 C875 1.403 . S
H873 C879 0.930 . S
C874 H860 0.930 . S
C874 C872 1.395 . S
C874 C877 1.403 . S
C875 C872 1.403 . S
C875 C876 1.524 . S
C875 C879 1.400 . S
C876 H861 0.960 . S
C876 H862 0.960 . S
C876 H863 0.960 . S
C876 C875 1.524 . S
C877 C874 1.403 . S
C877 C878 1.392 . S
C877 C881 1.495 . S
C878 C877 1.392 . S
C878 C879 1.385 . S
C878 C880 1.478 . S
C879 H873 0.930 . S
C879 C875 1.400 . S
C879 C878 1.385 . S
C880 C878 1.478 . S
C880 C882 1.381 . S
C880 C886 1.383 . S
C881 C877 1.495 . S
C881 H887 0.959 . S
C881 H888 0.961 . S
C881 H889 0.960 . S
C882 C880 1.381 . S
C882 C883 1.394 . S
C882 H890 0.930 . S
C883 C882 1.394 . S
C883 C884 1.383 . S
C883 H891 0.929 . S
C884 C883 1.383 . S
C884 C885 1.377 . S
C885 H869 0.930 . S
C885 C884 1.377 . S
C885 C886 1.379 . S
C886 H870 0.931 . S
C886 C880 1.383 . S
C886 C885 1.379 . S
H887 C881 0.959 . S
H888 C881 0.961 . S
H889 C881 0.960 . S
H890 C882 0.930 . S
H891 C883 0.929 . S
H892 C900 0.929 . S
H893 C902 0.930 . S
H894 C904 0.930 . S
H895 C907 0.929 . S
H896 C910 0.930 . S
H897 C912 0.960 . S
H898 C912 0.960 . S
H899 C912 0.960 . S
C900 H892 0.929 . S
C900 C901 1.377 . S
C900 C902 1.384 . S
C901 C900 1.377 . S
C901 C907 1.390 . S
C902 H893 0.930 . S
C902 C900 1.384 . S
C902 C903 1.372 . S
C903 C902 1.372 . S
C903 C904 1.400 . S
C903 C908 1.490 . S
C904 H894 0.930 . S
C904 C903 1.400 . S
C904 C907 1.386 . S
H905 C921 0.930 1_556 S
H906 C922 0.900 1_556 S
C907 H895 0.929 . S
C907 C901 1.390 . S
C907 C904 1.386 . S
C908 C903 1.490 . S
C908 C910 1.395 . S
C908 C911 1.403 . S
H909 C915 0.930 1_556 S
C910 H896 0.930 . S
C910 C908 1.395 . S
C910 C913 1.403 . S
C911 C908 1.403 . S
C911 C912 1.524 1_554 S
C911 C915 1.400 . S
C912 H897 0.960 . S
C912 H898 0.960 . S
C912 H899 0.960 . S
C912 C911 1.524 1_556 S
C913 C910 1.403 . S
C913 C914 1.392 . S
C913 C917 1.495 . S
C914 C913 1.392 . S
C914 C915 1.385 . S
C914 C916 1.478 . S
C915 H909 0.930 1_554 S
C915 C911 1.400 . S
C915 C914 1.385 . S
C916 C914 1.478 . S
C916 C918 1.381 . S
C916 C922 1.383 . S
C917 C913 1.495 . S
C917 H923 0.959 . S
C917 H924 0.961 . S
C917 H925 0.960 . S
C918 C916 1.381 . S
C918 C919 1.394 . S
C918 H926 0.930 . S
C919 C918 1.394 . S
C919 C920 1.383 . S
C919 H927 0.929 . S
C920 C919 1.383 . S
C920 C921 1.377 . S
C921 H905 0.930 1_554 S
C921 C920 1.377 . S
C921 C922 1.379 . S
C922 H906 0.900 1_554 S
C922 C916 1.383 . S
C922 C921 1.379 . S
H923 C917 0.959 . S
H924 C917 0.961 . S
H925 C917 0.960 . S
H926 C918 0.930 . S
H927 C919 0.929 . S
H928 C936 0.929 . S
H929 C938 0.914 1_554 S
H930 C940 0.930 . S
H931 C943 0.929 . S
H932 C946 0.930 . S
H933 C948 0.960 . S
H934 C948 0.960 . S
H935 C948 0.960 1_556 S
C936 H928 0.929 . S
C936 C937 1.377 . S
C936 C938 1.384 . S
C937 C936 1.377 . S
C937 C943 1.390 . S
C938 H929 0.914 1_556 S
C938 C936 1.384 . S
C938 C939 1.372 . S
C939 C938 1.372 . S
C939 C940 1.400 . S
C939 C944 1.490 . S
C940 H930 0.930 . S
C940 C939 1.400 . S
C940 C943 1.386 . S
H941 C957 0.930 . S
H942 C958 0.931 . S
C943 H931 0.929 . S
C943 C937 1.390 . S
C943 C940 1.386 . S
C944 C939 1.490 . S
C944 C946 1.395 . S
C944 C947 1.403 . S
H945 C951 0.928 1_554 S
C946 H932 0.930 . S
C946 C944 1.395 . S
C946 C949 1.403 . S
C947 C944 1.403 . S
C947 C948 1.524 1_556 S
C947 C951 1.400 . S
C948 H933 0.960 . S
C948 H934 0.960 . S
C948 H935 0.960 1_554 S
C948 C947 1.524 1_554 S
C949 C946 1.403 . S
C949 C950 1.392 . S
C949 C953 1.495 . S
C950 C949 1.392 . S
C950 C951 1.385 . S
C950 C952 1.478 . S
C951 H945 0.928 1_556 S
C951 C947 1.400 . S
C951 C950 1.385 . S
C952 C950 1.478 . S
C952 C954 1.381 1_556 S
C952 C958 1.383 . S
C953 C949 1.495 . S
C953 H959 0.959 . S
C953 H960 0.961 . S
C953 H961 0.960 . S
C954 C952 1.381 1_554 S
C954 C955 1.394 . S
C954 H962 0.930 . S
C955 C954 1.394 . S
C955 C956 1.383 1_554 S
C955 H963 0.929 . S
C956 C955 1.383 1_556 S
C956 C957 1.377 . S
C957 H941 0.930 . S
C957 C956 1.377 . S
C957 C958 1.379 . S
C958 H942 0.931 . S
C958 C952 1.383 . S
C958 C957 1.379 . S
H959 C953 0.959 . S
H960 C953 0.961 . S
H961 C953 0.960 . S
H962 C954 0.930 . S
H963 C955 0.929 . S
H964 C972 0.929 . S
H965 C974 0.930 . S
H966 C976 0.930 . S
H967 C979 0.929 . S
H968 C982 0.930 . S
H969 C984 0.960 . S
H970 C984 0.960 . S
H971 C984 0.960 . S
C972 H964 0.929 . S
C972 C973 1.377 . S
C972 C974 1.384 . S
C973 C972 1.377 . S
C973 C979 1.390 . S
C974 H965 0.930 . S
C974 C972 1.384 . S
C974 C975 1.372 . S
C975 C974 1.372 . S
C975 C976 1.400 . S
C975 C980 1.490 . S
C976 H966 0.930 . S
C976 C975 1.400 . S
C976 C979 1.386 . S
H977 C993 0.930 . S
H978 C994 0.931 . S
C979 H967 0.929 . S
C979 C973 1.390 . S
C979 C976 1.386 . S
C980 C975 1.490 . S
C980 C982 1.395 . S
C980 C983 1.403 . S
H981 C987 0.930 . S
C982 H968 0.930 . S
C982 C980 1.395 . S
C982 C985 1.403 . S
C983 C980 1.403 . S
C983 C984 1.524 . S
C983 C987 1.400 . S
C984 H969 0.960 . S
C984 H970 0.960 . S
C984 H971 0.960 . S
C984 C983 1.524 . S
C985 C982 1.403 . S
C985 C986 1.392 . S
C985 C989 1.495 . S
C986 C985 1.392 . S
C986 C987 1.385 . S
C986 C988 1.478 . S
C987 H981 0.930 . S
C987 C983 1.400 . S
C987 C986 1.385 . S
C988 C986 1.478 . S
C988 C990 1.381 . S
C988 C994 1.383 . S
C989 C985 1.495 . S
C989 H995 0.959 . S
C989 H996 0.961 . S
C989 H997 0.960 . S
C990 C988 1.381 . S
C990 C991 1.394 . S
C990 H998 0.930 . S
C991 C990 1.394 . S
C991 C992 1.383 . S
C991 H999 0.929 . S
C992 C991 1.383 . S
C992 C993 1.377 . S
C993 H977 0.930 . S
C993 C992 1.377 . S
C993 C994 1.379 . S
C994 H978 0.931 . S
C994 C988 1.383 . S
C994 C993 1.379 . S
H995 C989 0.959 . S
H996 C989 0.961 . S
H997 C989 0.960 . S
H998 C990 0.930 . S
H999 C991 0.929 . S
H1000 C1008 0.929 . S
H1001 C1010 0.930 . S
H1002 C1012 0.930 . S
H1003 C1015 0.929 . S
H1004 C1018 0.930 . S
H1005 C1020 0.960 . S
H1006 C1020 0.960 . S
H1007 C1020 0.960 . S
C1008 H1000 0.929 . S
C1008 C1009 1.377 . S
C1008 C1010 1.384 . S
C1009 C1008 1.377 . S
C1009 C1015 1.390 . S
C1010 H1001 0.930 . S
C1010 C1008 1.384 . S
C1010 C1011 1.372 . S
C1011 C1010 1.372 . S
C1011 C1012 1.400 . S
C1011 C1016 1.490 . S
C1012 H1002 0.930 . S
C1012 C1011 1.400 . S
C1012 C1015 1.386 . S
H1013 C1029 0.930 . S
H1014 C1030 0.931 . S
C1015 H1003 0.929 . S
C1015 C1009 1.390 . S
C1015 C1012 1.386 . S
C1016 C1011 1.490 . S
C1016 C1018 1.395 . S
C1016 C1019 1.403 . S
H1017 C1023 0.930 . S
C1018 H1004 0.930 . S
C1018 C1016 1.395 . S
C1018 C1021 1.403 . S
C1019 C1016 1.403 . S
C1019 C1020 1.524 . S
C1019 C1023 1.400 . S
C1020 H1005 0.960 . S
C1020 H1006 0.960 . S
C1020 H1007 0.960 . S
C1020 C1019 1.524 . S
C1021 C1018 1.403 . S
C1021 C1022 1.392 . S
C1021 C1025 1.495 . S
C1022 C1021 1.392 . S
C1022 C1023 1.385 . S
C1022 C1024 1.478 . S
C1023 H1017 0.930 . S
C1023 C1019 1.400 . S
C1023 C1022 1.385 . S
C1024 C1022 1.478 . S
C1024 C1026 1.381 . S
C1024 C1030 1.383 . S
C1025 C1021 1.495 . S
C1025 H1031 0.959 . S
C1025 H1032 0.961 . S
C1025 H1033 0.960 . S
C1026 C1024 1.381 . S
C1026 C1027 1.394 . S
C1026 H1034 0.930 . S
C1027 C1026 1.394 . S
C1027 C1028 1.383 . S
C1027 H1035 0.929 . S
C1028 C1027 1.383 . S
C1028 C1029 1.377 . S
C1029 H1013 0.930 . S
C1029 C1028 1.377 . S
C1029 C1030 1.379 . S
C1030 H1014 0.931 . S
C1030 C1024 1.383 . S
C1030 C1029 1.379 . S
H1031 C1025 0.959 . S
H1032 C1025 0.961 . S
H1033 C1025 0.960 . S
H1034 C1026 0.930 . S
H1035 C1027 0.929 . S
H1036 C1044 0.929 . S
H1037 C1046 0.930 . S
H1038 C1048 0.930 . S
H1039 C1051 0.929 . S
H1040 C1054 0.930 . S
H1041 C1056 0.960 . S
H1042 C1056 0.960 . S
H1043 C1056 0.960 . S
C1044 H1036 0.929 . S
C1044 C1045 1.377 . S
C1044 C1046 1.384 . S
C1045 C1044 1.377 . S
C1045 C1051 1.390 . S
C1046 H1037 0.930 . S
C1046 C1044 1.384 . S
C1046 C1047 1.372 . S
C1047 C1046 1.372 . S
C1047 C1048 1.400 . S
C1047 C1052 1.490 . S
C1048 H1038 0.930 . S
C1048 C1047 1.400 . S
C1048 C1051 1.386 . S
H1049 C1065 0.930 . S
H1050 C1066 0.931 . S
C1051 H1039 0.929 . S
C1051 C1045 1.390 . S
C1051 C1048 1.386 . S
C1052 C1047 1.490 . S
C1052 C1054 1.395 . S
C1052 C1055 1.403 . S
H1053 C1059 0.930 . S
C1054 H1040 0.930 . S
C1054 C1052 1.395 . S
C1054 C1057 1.403 . S
C1055 C1052 1.403 . S
C1055 C1056 1.524 . S
C1055 C1059 1.400 . S
C1056 H1041 0.960 . S
C1056 H1042 0.960 . S
C1056 H1043 0.960 . S
C1056 C1055 1.524 . S
C1057 C1054 1.403 . S
C1057 C1058 1.392 . S
C1057 C1061 1.495 . S
C1058 C1057 1.392 . S
C1058 C1059 1.385 . S
C1058 C1060 1.478 . S
C1059 H1053 0.930 . S
C1059 C1055 1.400 . S
C1059 C1058 1.385 . S
C1060 C1058 1.478 . S
C1060 C1062 1.381 . S
C1060 C1066 1.383 . S
C1061 C1057 1.495 . S
C1061 H1067 0.959 . S
C1061 H1068 0.961 . S
C1061 H1069 0.960 . S
C1062 C1060 1.381 . S
C1062 C1063 1.394 . S
C1062 H1070 0.930 . S
C1063 C1062 1.394 . S
C1063 C1064 1.383 . S
C1063 H1071 0.929 . S
C1064 C1063 1.383 . S
C1064 C1065 1.377 . S
C1065 H1049 0.930 . S
C1065 C1064 1.377 . S
C1065 C1066 1.379 . S
C1066 H1050 0.931 . S
C1066 C1060 1.383 . S
C1066 C1065 1.379 . S
H1067 C1061 0.959 . S
H1068 C1061 0.961 . S
H1069 C1061 0.960 . S
H1070 C1062 0.930 . S
H1071 C1063 0.929 . S
H1072 C1080 0.929 . S
H1073 C1082 0.930 . S
H1074 C1084 0.930 . S
H1075 C1087 0.929 . S
H1076 C1090 0.930 . S
H1077 C1092 0.960 . S
H1078 C1092 0.960 . S
H1079 C1092 0.960 . S
C1080 H1072 0.929 . S
C1080 C1081 1.377 . S
C1080 C1082 1.384 . S
C1081 C1080 1.377 . S
C1081 C1087 1.390 . S
C1082 H1073 0.930 . S
C1082 C1080 1.384 . S
C1082 C1083 1.372 . S
C1083 C1082 1.372 . S
C1083 C1084 1.400 . S
C1083 C1088 1.490 . S
C1084 H1074 0.930 . S
C1084 C1083 1.400 . S
C1084 C1087 1.386 . S
H1085 C1101 0.930 . S
H1086 C1102 0.931 . S
C1087 H1075 0.929 . S
C1087 C1081 1.390 . S
C1087 C1084 1.386 . S
C1088 C1083 1.490 . S
C1088 C1090 1.395 . S
C1088 C1091 1.403 . S
H1089 C1095 0.930 . S
C1090 H1076 0.930 . S
C1090 C1088 1.395 . S
C1090 C1093 1.403 . S
C1091 C1088 1.403 . S
C1091 C1092 1.524 . S
C1091 C1095 1.400 . S
C1092 H1077 0.960 . S
C1092 H1078 0.960 . S
C1092 H1079 0.960 . S
C1092 C1091 1.524 . S
C1093 C1090 1.403 . S
C1093 C1094 1.392 . S
C1093 C1097 1.495 . S
C1094 C1093 1.392 . S
C1094 C1095 1.385 . S
C1094 C1096 1.478 . S
C1095 H1089 0.930 . S
C1095 C1091 1.400 . S
C1095 C1094 1.385 . S
C1096 C1094 1.478 . S
C1096 C1098 1.381 . S
C1096 C1102 1.383 . S
C1097 C1093 1.495 . S
C1097 H1103 0.959 . S
C1097 H1104 0.961 . S
C1097 H1105 0.960 . S
C1098 C1096 1.381 . S
C1098 C1099 1.394 . S
C1098 H1106 0.930 . S
C1099 C1098 1.394 . S
C1099 C1100 1.383 . S
C1099 H1107 0.929 . S
C1100 C1099 1.383 . S
C1100 C1101 1.377 . S
C1101 H1085 0.930 . S
C1101 C1100 1.377 . S
C1101 C1102 1.379 . S
C1102 H1086 0.931 . S
C1102 C1096 1.383 . S
C1102 C1101 1.379 . S
H1103 C1097 0.959 . S
H1104 C1097 0.961 . S
H1105 C1097 0.960 . S
H1106 C1098 0.930 . S
H1107 C1099 0.929 . S
H1108 C1116 0.929 . S
H1109 C1118 0.930 . S
H1110 C1120 0.930 . S
H1111 C1123 0.929 . S
H1112 C1126 0.930 . S
H1113 C1128 0.960 . S
H1114 C1128 0.960 . S
H1115 C1128 0.960 . S
C1116 H1108 0.929 . S
C1116 C1117 1.377 . S
C1116 C1118 1.384 . S
C1117 C1116 1.377 . S
C1117 C1123 1.390 . S
C1118 H1109 0.930 . S
C1118 C1116 1.384 . S
C1118 C1119 1.372 . S
C1119 C1118 1.372 . S
C1119 C1120 1.400 . S
C1119 C1124 1.490 . S
C1120 H1110 0.930 . S
C1120 C1119 1.400 . S
C1120 C1123 1.386 . S
H1121 C1137 0.930 . S
H1122 C1138 0.931 . S
C1123 H1111 0.929 . S
C1123 C1117 1.390 . S
C1123 C1120 1.386 . S
C1124 C1119 1.490 . S
C1124 C1126 1.395 . S
C1124 C1127 1.403 . S
H1125 C1131 0.930 1_556 S
C1126 H1112 0.930 . S
C1126 C1124 1.395 . S
C1126 C1129 1.403 . S
C1127 C1124 1.403 . S
C1127 C1128 1.524 1_554 S
C1127 C1131 1.400 . S
C1128 H1113 0.960 . S
C1128 H1114 0.960 . S
C1128 H1115 0.960 . S
C1128 C1127 1.524 1_556 S
C1129 C1126 1.403 . S
C1129 C1130 1.392 . S
C1129 C1133 1.495 . S
C1130 C1129 1.392 . S
C1130 C1131 1.385 . S
C1130 C1132 1.478 . S
C1131 H1125 0.930 1_554 S
C1131 C1127 1.400 . S
C1131 C1130 1.385 . S
C1132 C1130 1.478 . S
C1132 C1134 1.381 . S
C1132 C1138 1.383 . S
C1133 C1129 1.495 . S
C1133 H1139 0.959 . S
C1133 H1140 0.961 . S
C1133 H1141 0.960 . S
C1134 C1132 1.381 . S
C1134 C1135 1.394 . S
C1134 H1142 0.930 . S
C1135 C1134 1.394 . S
C1135 C1136 1.383 . S
C1135 H1143 0.929 . S
C1136 C1135 1.383 . S
C1136 C1137 1.377 . S
C1137 H1121 0.930 . S
C1137 C1136 1.377 . S
C1137 C1138 1.379 . S
C1138 H1122 0.931 . S
C1138 C1132 1.383 . S
C1138 C1137 1.379 . S
H1139 C1133 0.959 . S
H1140 C1133 0.961 . S
H1141 C1133 0.960 . S
H1142 C1134 0.930 . S
H1143 C1135 0.929 . S
H1144 C1152 0.929 . S
H1145 C1154 0.930 . S
H1146 C1156 0.930 . S
H1147 C1159 0.929 . S
H1148 C1162 0.930 . S
H1149 C1164 0.960 . S
H1150 C1164 0.960 . S
H1151 C1164 0.960 . S
C1152 H1144 0.929 . S
C1152 C1153 1.377 . S
C1152 C1154 1.384 . S
C1153 C1152 1.377 . S
C1153 C1159 1.390 . S
C1154 H1145 0.930 . S
C1154 C1152 1.384 . S
C1154 C1155 1.372 . S
C1155 C1154 1.372 . S
C1155 C1156 1.400 . S
C1155 C1160 1.490 . S
C1156 H1146 0.930 . S
C1156 C1155 1.400 . S
C1156 C1159 1.386 . S
H1157 C1173 0.930 . S
H1158 C1174 0.931 . S
C1159 H1147 0.929 . S
C1159 C1153 1.390 . S
C1159 C1156 1.386 . S
C1160 C1155 1.490 . S
C1160 C1162 1.395 . S
C1160 C1163 1.403 . S
H1161 C1167 0.930 . S
C1162 H1148 0.930 . S
C1162 C1160 1.395 . S
C1162 C1165 1.403 . S
C1163 C1160 1.403 . S
C1163 C1164 1.524 . S
C1163 C1167 1.400 . S
C1164 H1149 0.960 . S
C1164 H1150 0.960 . S
C1164 H1151 0.960 . S
C1164 C1163 1.524 . S
C1165 C1162 1.403 . S
C1165 C1166 1.392 . S
C1165 C1169 1.495 . S
C1166 C1165 1.392 . S
C1166 C1167 1.385 . S
C1166 C1168 1.478 . S
C1167 H1161 0.930 . S
C1167 C1163 1.400 . S
C1167 C1166 1.385 . S
C1168 C1166 1.478 . S
C1168 C1170 1.381 . S
C1168 C1174 1.383 . S
C1169 C1165 1.495 . S
C1169 H1175 0.959 . S
C1169 H1176 0.961 . S
C1169 H1177 0.960 . S
C1170 C1168 1.381 . S
C1170 C1171 1.394 . S
C1170 H1178 0.930 . S
C1171 C1170 1.394 . S
C1171 C1172 1.383 . S
C1171 H1179 0.929 . S
C1172 C1171 1.383 . S
C1172 C1173 1.377 . S
C1173 H1157 0.930 . S
C1173 C1172 1.377 . S
C1173 C1174 1.379 . S
C1174 H1158 0.931 . S
C1174 C1168 1.383 . S
C1174 C1173 1.379 . S
H1175 C1169 0.959 . S
H1176 C1169 0.961 . S
H1177 C1169 0.960 . S
H1178 C1170 0.930 . S
H1179 C1171 0.929 . S
H1180 C1188 0.929 . S
H1181 C1190 0.930 . S
H1182 C1192 0.930 . S
H1183 C1195 0.929 . S
H1184 C1198 0.930 . S
H1185 C1200 0.960 . S
H1186 C1200 0.960 . S
H1187 C1200 0.960 . S
C1188 H1180 0.929 . S
C1188 C1189 1.377 . S
C1188 C1190 1.384 . S
C1189 C1188 1.377 . S
C1189 C1195 1.390 . S
C1190 H1181 0.930 . S
C1190 C1188 1.384 . S
C1190 C1191 1.372 . S
C1191 C1190 1.372 . S
C1191 C1192 1.400 . S
C1191 C1196 1.490 . S
C1192 H1182 0.930 . S
C1192 C1191 1.400 . S
C1192 C1195 1.386 . S
H1193 C1209 0.930 . S
H1194 C1210 0.931 . S
C1195 H1183 0.929 . S
C1195 C1189 1.390 . S
C1195 C1192 1.386 . S
C1196 C1191 1.490 . S
C1196 C1198 1.395 . S
C1196 C1199 1.403 . S
H1197 C1203 0.930 . S
C1198 H1184 0.930 . S
C1198 C1196 1.395 . S
C1198 C1201 1.403 . S
C1199 C1196 1.403 . S
C1199 C1200 1.524 . S
C1199 C1203 1.400 . S
C1200 H1185 0.960 . S
C1200 H1186 0.960 . S
C1200 H1187 0.960 . S
C1200 C1199 1.524 . S
C1201 C1198 1.403 . S
C1201 C1202 1.392 . S
C1201 C1205 1.495 . S
C1202 C1201 1.392 . S
C1202 C1203 1.385 . S
C1202 C1204 1.478 . S
C1203 H1197 0.930 . S
C1203 C1199 1.400 . S
C1203 C1202 1.385 . S
C1204 C1202 1.478 . S
C1204 C1206 1.381 . S
C1204 C1210 1.383 . S
C1205 C1201 1.495 . S
C1205 H1211 0.959 . S
C1205 H1212 0.961 . S
C1205 H1213 0.960 . S
C1206 C1204 1.381 . S
C1206 C1207 1.394 . S
C1206 H1214 0.930 . S
C1207 C1206 1.394 . S
C1207 C1208 1.383 . S
C1207 H1215 0.929 . S
C1208 C1207 1.383 . S
C1208 C1209 1.377 . S
C1209 H1193 0.930 . S
C1209 C1208 1.377 . S
C1209 C1210 1.379 . S
C1210 H1194 0.931 . S
C1210 C1204 1.383 . S
C1210 C1209 1.379 . S
H1211 C1205 0.959 . S
H1212 C1205 0.961 . S
H1213 C1205 0.960 . S
H1214 C1206 0.930 . S
H1215 C1207 0.929 . S
H1216 C1224 0.929 . S
H1217 C1226 0.930 . S
H1218 C1228 0.930 . S
H1219 C1231 0.929 . S
H1220 C1234 0.930 . S
H1221 C1236 0.960 . S
H1222 C1236 0.960 . S
H1223 C1236 0.960 . S
C1224 H1216 0.929 . S
C1224 C1225 1.377 . S
C1224 C1226 1.384 . S
C1225 C1224 1.377 . S
C1225 C1231 1.390 . S
C1226 H1217 0.930 . S
C1226 C1224 1.384 . S
C1226 C1227 1.372 . S
C1227 C1226 1.372 . S
C1227 C1228 1.400 . S
C1227 C1232 1.490 . S
C1228 H1218 0.930 . S
C1228 C1227 1.400 . S
C1228 C1231 1.386 . S
H1229 C1245 0.930 . S
H1230 C1246 0.931 . S
C1231 H1219 0.929 . S
C1231 C1225 1.390 . S
C1231 C1228 1.386 . S
C1232 C1227 1.490 . S
C1232 C1234 1.395 . S
C1232 C1235 1.403 . S
H1233 C1239 0.930 . S
C1234 H1220 0.930 . S
C1234 C1232 1.395 . S
C1234 C1237 1.403 . S
C1235 C1232 1.403 . S
C1235 C1236 1.524 . S
C1235 C1239 1.400 . S
C1236 H1221 0.960 . S
C1236 H1222 0.960 . S
C1236 H1223 0.960 . S
C1236 C1235 1.524 . S
C1237 C1234 1.403 . S
C1237 C1238 1.392 . S
C1237 C1241 1.495 . S
C1238 C1237 1.392 . S
C1238 C1239 1.385 . S
C1238 C1240 1.478 . S
C1239 H1233 0.930 . S
C1239 C1235 1.400 . S
C1239 C1238 1.385 . S
C1240 C1238 1.478 . S
C1240 C1242 1.381 . S
C1240 C1246 1.383 . S
C1241 C1237 1.495 . S
C1241 H1247 0.959 . S
C1241 H1248 0.961 . S
C1241 H1249 0.960 . S
C1242 C1240 1.381 . S
C1242 C1243 1.394 . S
C1242 H1250 0.930 . S
C1243 C1242 1.394 . S
C1243 C1244 1.383 . S
C1243 H1251 0.929 . S
C1244 C1243 1.383 . S
C1244 C1245 1.377 . S
C1245 H1229 0.930 . S
C1245 C1244 1.377 . S
C1245 C1246 1.379 . S
C1246 H1230 0.931 . S
C1246 C1240 1.383 . S
C1246 C1245 1.379 . S
H1247 C1241 0.959 . S
H1248 C1241 0.961 . S
H1249 C1241 0.960 . S
H1250 C1242 0.930 . S
H1251 C1243 0.929 . S
H1252 C1260 0.929 . S
H1253 C1262 0.930 . S
H1254 C1264 0.930 . S
H1255 C1267 0.929 . S
H1256 C1270 0.930 . S
H1257 C1272 0.960 . S
H1258 C1272 0.960 . S
H1259 C1272 0.960 . S
C1260 H1252 0.929 . S
C1260 C1261 1.377 . S
C1260 C1262 1.384 . S
C1261 C1260 1.377 . S
C1261 C1267 1.390 . S
C1262 H1253 0.930 . S
C1262 C1260 1.384 . S
C1262 C1263 1.372 . S
C1263 C1262 1.372 . S
C1263 C1264 1.400 . S
C1263 C1268 1.490 . S
C1264 H1254 0.930 . S
C1264 C1263 1.400 . S
C1264 C1267 1.386 . S
H1265 C1281 0.930 . S
H1266 C1282 0.931 . S
C1267 H1255 0.929 . S
C1267 C1261 1.390 . S
C1267 C1264 1.386 . S
C1268 C1263 1.490 . S
C1268 C1270 1.395 . S
C1268 C1271 1.403 . S
H1269 C1275 0.930 . S
C1270 H1256 0.930 . S
C1270 C1268 1.395 . S
C1270 C1273 1.403 . S
C1271 C1268 1.403 . S
C1271 C1272 1.524 . S
C1271 C1275 1.400 . S
C1272 H1257 0.960 . S
C1272 H1258 0.960 . S
C1272 H1259 0.960 . S
C1272 C1271 1.524 . S
C1273 C1270 1.403 . S
C1273 C1274 1.392 . S
C1273 C1277 1.495 . S
C1274 C1273 1.392 . S
C1274 C1275 1.385 . S
C1274 C1276 1.478 . S
C1275 H1269 0.930 . S
C1275 C1271 1.400 . S
C1275 C1274 1.385 . S
C1276 C1274 1.478 . S
C1276 C1278 1.381 . S
C1276 C1282 1.383 . S
C1277 C1273 1.495 . S
C1277 H1283 0.959 . S
C1277 H1284 0.961 . S
C1277 H1285 0.960 . S
C1278 C1276 1.381 . S
C1278 C1279 1.394 . S
C1278 H1286 0.930 . S
C1279 C1278 1.394 . S
C1279 C1280 1.383 . S
C1279 H1287 0.929 . S
C1280 C1279 1.383 . S
C1280 C1281 1.377 . S
C1281 H1265 0.930 . S
C1281 C1280 1.377 . S
C1281 C1282 1.379 . S
C1282 H1266 0.931 . S
C1282 C1276 1.383 . S
C1282 C1281 1.379 . S
H1283 C1277 0.959 . S
H1284 C1277 0.961 . S
H1285 C1277 0.960 . S
H1286 C1278 0.930 . S
H1287 C1279 0.929 . S
H1288 C1296 0.929 . S
H1289 C1298 0.930 . S
H1290 C1300 0.930 . S
H1291 C1303 0.929 . S
H1292 C1306 0.930 . S
H1293 C1308 0.960 . S
H1294 C1308 0.960 . S
H1295 C1308 0.960 . S
C1296 H1288 0.929 . S
C1296 C1297 1.377 . S
C1296 C1298 1.384 . S
C1297 C1296 1.377 . S
C1297 C1303 1.390 . S
C1298 H1289 0.930 . S
C1298 C1296 1.384 . S
C1298 C1299 1.372 . S
C1299 C1298 1.372 . S
C1299 C1300 1.400 . S
C1299 C1304 1.490 . S
C1300 H1290 0.930 . S
C1300 C1299 1.400 . S
C1300 C1303 1.386 . S
H1301 C1317 0.930 . S
H1302 C1318 0.931 . S
C1303 H1291 0.929 . S
C1303 C1297 1.390 . S
C1303 C1300 1.386 . S
C1304 C1299 1.490 . S
C1304 C1306 1.395 . S
C1304 C1307 1.403 . S
H1305 C1311 0.906 1_554 S
C1306 H1292 0.930 . S
C1306 C1304 1.395 . S
C1306 C1309 1.403 . S
C1307 C1304 1.403 . S
C1307 C1308 1.524 1_556 S
C1307 C1311 1.402 . S
C1308 H1293 0.960 . S
C1308 H1294 0.960 . S
C1308 H1295 0.960 . S
C1308 C1307 1.524 1_554 S
C1309 C1306 1.403 . S
C1309 C1310 1.392 . S
C1309 C1313 1.495 . S
C1310 C1309 1.392 . S
C1310 C1311 1.408 . S
C1310 C1312 1.478 . S
C1311 H1305 0.906 1_556 S
C1311 C1307 1.402 . S
C1311 C1310 1.408 . S
C1312 C1310 1.478 . S
C1312 C1314 1.379 1_556 S
C1312 C1318 1.383 . S
C1313 C1309 1.495 . S
C1313 H1319 0.959 . S
C1313 H1320 0.961 . S
C1313 H1321 0.960 . S
C1314 C1312 1.379 1_554 S
C1314 C1315 1.395 . S
C1314 H1322 0.931 . S
C1315 C1314 1.395 . S
C1315 C1316 1.383 1_554 S
C1315 H1323 0.929 . S
C1316 C1315 1.383 1_556 S
C1316 C1317 1.377 . S
C1317 H1301 0.930 . S
C1317 C1316 1.377 . S
C1317 C1318 1.379 . S
C1318 H1302 0.931 . S
C1318 C1312 1.383 . S
C1318 C1317 1.379 . S
H1319 C1313 0.959 . S
H1320 C1313 0.961 . S
H1321 C1313 0.960 . S
H1322 C1314 0.931 . S
H1323 C1315 0.929 . S
H1324 C1332 0.929 . S
H1325 C1334 0.930 . S
H1326 C1336 0.930 . S
H1327 C1339 0.929 . S
H1328 C1342 0.930 . S
H1329 C1344 0.960 . S
H1330 C1344 0.960 . S
H1331 C1344 0.960 . S
C1332 H1324 0.929 . S
C1332 C1333 1.377 . S
C1332 C1334 1.384 . S
C1333 C1332 1.377 . S
C1333 C1339 1.390 . S
C1334 H1325 0.930 . S
C1334 C1332 1.384 . S
C1334 C1335 1.372 . S
C1335 C1334 1.372 . S
C1335 C1336 1.400 . S
C1335 C1340 1.490 . S
C1336 H1326 0.930 . S
C1336 C1335 1.400 . S
C1336 C1339 1.386 . S
H1337 C1353 0.930 . S
H1338 C1354 0.931 . S
C1339 H1327 0.929 . S
C1339 C1333 1.390 . S
C1339 C1336 1.386 . S
C1340 C1335 1.490 . S
C1340 C1342 1.395 . S
C1340 C1343 1.403 . S
H1341 C1347 0.930 . S
C1342 H1328 0.930 . S
C1342 C1340 1.395 . S
C1342 C1345 1.403 . S
C1343 C1340 1.403 . S
C1343 C1344 1.524 . S
C1343 C1347 1.400 . S
C1344 H1329 0.960 . S
C1344 H1330 0.960 . S
C1344 H1331 0.960 . S
C1344 C1343 1.524 . S
C1345 C1342 1.403 . S
C1345 C1346 1.392 . S
C1345 C1349 1.495 . S
C1346 C1345 1.392 . S
C1346 C1347 1.385 . S
C1346 C1348 1.478 . S
C1347 H1341 0.930 . S
C1347 C1343 1.400 . S
C1347 C1346 1.385 . S
C1348 C1346 1.478 . S
C1348 C1350 1.381 . S
C1348 C1354 1.383 . S
C1349 C1345 1.495 . S
C1349 H1355 0.959 . S
C1349 H1356 0.961 . S
C1349 H1357 0.960 . S
C1350 C1348 1.381 . S
C1350 C1351 1.394 . S
C1350 H1358 0.930 . S
C1351 C1350 1.394 . S
C1351 C1352 1.383 . S
C1351 H1359 0.929 . S
C1352 C1351 1.383 . S
C1352 C1353 1.377 . S
C1353 H1337 0.930 . S
C1353 C1352 1.377 . S
C1353 C1354 1.379 . S
C1354 H1338 0.931 . S
C1354 C1348 1.383 . S
C1354 C1353 1.379 . S
H1355 C1349 0.959 . S
H1356 C1349 0.961 . S
H1357 C1349 0.960 . S
H1358 C1350 0.930 . S
H1359 C1351 0.929 . S
H1360 C1368 0.929 . S
H1361 C1370 0.930 . S
H1362 C1372 0.930 . S
H1363 C1375 0.929 . S
H1364 C1378 0.930 . S
H1365 C1380 0.960 . S
H1366 C1380 0.960 . S
H1367 C1380 0.960 . S
C1368 H1360 0.929 . S
C1368 C1369 1.377 . S
C1368 C1370 1.384 . S
C1369 C1368 1.377 . S
C1369 C1375 1.390 . S
C1370 H1361 0.930 . S
C1370 C1368 1.384 . S
C1370 C1371 1.372 . S
C1371 C1370 1.372 . S
C1371 C1372 1.400 . S
C1371 C1376 1.490 . S
C1372 H1362 0.930 . S
C1372 C1371 1.400 . S
C1372 C1375 1.386 . S
H1373 C1389 0.930 . S
H1374 C1390 0.931 . S
C1375 H1363 0.929 . S
C1375 C1369 1.390 . S
C1375 C1372 1.386 . S
C1376 C1371 1.490 . S
C1376 C1378 1.395 . S
C1376 C1379 1.403 . S
H1377 C1383 0.930 . S
C1378 H1364 0.930 . S
C1378 C1376 1.395 . S
C1378 C1381 1.403 . S
C1379 C1376 1.403 . S
C1379 C1380 1.524 . S
C1379 C1383 1.400 . S
C1380 H1365 0.960 . S
C1380 H1366 0.960 . S
C1380 H1367 0.960 . S
C1380 C1379 1.524 . S
C1381 C1378 1.403 . S
C1381 C1382 1.392 . S
C1381 C1385 1.495 . S
C1382 C1381 1.392 . S
C1382 C1383 1.385 . S
C1382 C1384 1.478 . S
C1383 H1377 0.930 . S
C1383 C1379 1.400 . S
C1383 C1382 1.385 . S
C1384 C1382 1.478 . S
C1384 C1386 1.381 . S
C1384 C1390 1.383 . S
C1385 C1381 1.495 . S
C1385 H1391 0.959 . S
C1385 H1392 0.961 . S
C1385 H1393 0.960 . S
C1386 C1384 1.381 . S
C1386 C1387 1.394 . S
C1386 H1394 0.930 . S
C1387 C1386 1.394 . S
C1387 C1388 1.383 . S
C1387 H1395 0.929 . S
C1388 C1387 1.383 . S
C1388 C1389 1.377 . S
C1389 H1373 0.930 . S
C1389 C1388 1.377 . S
C1389 C1390 1.379 . S
C1390 H1374 0.931 . S
C1390 C1384 1.383 . S
C1390 C1389 1.379 . S
H1391 C1385 0.959 . S
H1392 C1385 0.961 . S
H1393 C1385 0.960 . S
H1394 C1386 0.930 . S
H1395 C1387 0.929 . S
H1396 C1404 0.929 . S
H1397 C1406 0.930 . S
H1398 C1408 0.930 . S
H1399 C1411 0.929 . S
H1400 C1414 0.930 . S
H1401 C1416 0.960 . S
H1402 C1416 0.960 . S
H1403 C1416 0.960 . S
C1404 H1396 0.929 . S
C1404 C1405 1.377 . S
C1404 C1406 1.384 . S
C1405 C1404 1.377 . S
C1405 C1411 1.390 . S
C1406 H1397 0.930 . S
C1406 C1404 1.384 . S
C1406 C1407 1.372 . S
C1407 C1406 1.372 . S
C1407 C1408 1.400 . S
C1407 C1412 1.490 . S
C1408 H1398 0.930 . S
C1408 C1407 1.400 . S
C1408 C1411 1.386 . S
H1409 C1425 0.930 . S
H1410 C1426 0.931 . S
C1411 H1399 0.929 . S
C1411 C1405 1.390 . S
C1411 C1408 1.386 . S
C1412 C1407 1.490 . S
C1412 C1414 1.395 . S
C1412 C1415 1.403 . S
H1413 C1419 0.930 . S
C1414 H1400 0.930 . S
C1414 C1412 1.395 . S
C1414 C1417 1.403 . S
C1415 C1412 1.403 . S
C1415 C1416 1.524 . S
C1415 C1419 1.400 . S
C1416 H1401 0.960 . S
C1416 H1402 0.960 . S
C1416 H1403 0.960 . S
C1416 C1415 1.524 . S
C1417 C1414 1.403 . S
C1417 C1418 1.392 . S
C1417 C1421 1.495 . S
C1418 C1417 1.392 . S
C1418 C1419 1.385 . S
C1418 C1420 1.478 . S
C1419 H1413 0.930 . S
C1419 C1415 1.400 . S
C1419 C1418 1.385 . S
C1420 C1418 1.478 . S
C1420 C1422 1.381 . S
C1420 C1426 1.383 . S
C1421 C1417 1.495 . S
C1421 H1427 0.959 . S
C1421 H1428 0.961 . S
C1421 H1429 0.960 . S
C1422 C1420 1.381 . S
C1422 C1423 1.394 . S
C1422 H1430 0.930 . S
C1423 C1422 1.394 . S
C1423 C1424 1.383 . S
C1423 H1431 0.929 . S
C1424 C1423 1.383 . S
C1424 C1425 1.377 . S
C1425 H1409 0.930 . S
C1425 C1424 1.377 . S
C1425 C1426 1.379 . S
C1426 H1410 0.931 . S
C1426 C1420 1.383 . S
C1426 C1425 1.379 . S
H1427 C1421 0.959 . S
H1428 C1421 0.961 . S
H1429 C1421 0.960 . S
H1430 C1422 0.930 . S
H1431 C1423 0.929 . S
H1432 C1440 0.929 . S
H1433 C1442 0.930 . S
H1434 C1444 0.930 . S
H1435 C1447 0.929 . S
H1436 C1450 0.930 . S
H1437 C1452 0.960 . S
H1438 C1452 0.960 . S
H1439 C1452 0.960 . S
C1440 H1432 0.929 . S
C1440 C1441 1.377 . S
C1440 C1442 1.384 . S
C1441 C1440 1.377 . S
C1441 C1447 1.390 . S
C1442 H1433 0.930 . S
C1442 C1440 1.384 . S
C1442 C1443 1.372 . S
C1443 C1442 1.372 . S
C1443 C1444 1.400 . S
C1443 C1448 1.490 . S
C1444 H1434 0.930 . S
C1444 C1443 1.400 . S
C1444 C1447 1.386 . S
H1445 C1461 0.930 . S
H1446 C1462 0.931 . S
C1447 H1435 0.929 . S
C1447 C1441 1.390 . S
C1447 C1444 1.386 . S
C1448 C1443 1.490 . S
C1448 C1450 1.395 . S
C1448 C1451 1.403 . S
H1449 C1455 0.930 . S
C1450 H1436 0.930 . S
C1450 C1448 1.395 . S
C1450 C1453 1.403 . S
C1451 C1448 1.403 . S
C1451 C1452 1.524 . S
C1451 C1455 1.400 . S
C1452 H1437 0.960 . S
C1452 H1438 0.960 . S
C1452 H1439 0.960 . S
C1452 C1451 1.524 . S
C1453 C1450 1.403 . S
C1453 C1454 1.392 . S
C1453 C1457 1.495 . S
C1454 C1453 1.392 . S
C1454 C1455 1.385 . S
C1454 C1456 1.478 . S
C1455 H1449 0.930 . S
C1455 C1451 1.400 . S
C1455 C1454 1.385 . S
C1456 C1454 1.478 . S
C1456 C1458 1.381 . S
C1456 C1462 1.383 . S
C1457 C1453 1.495 . S
C1457 H1463 0.959 . S
C1457 H1464 0.961 . S
C1457 H1465 0.960 . S
C1458 C1456 1.381 . S
C1458 C1459 1.394 . S
C1458 H1466 0.930 . S
C1459 C1458 1.394 . S
C1459 C1460 1.383 . S
C1459 H1467 0.929 . S
C1460 C1459 1.383 . S
C1460 C1461 1.377 . S
C1461 H1445 0.930 . S
C1461 C1460 1.377 . S
C1461 C1462 1.379 . S
C1462 H1446 0.931 . S
C1462 C1456 1.383 . S
C1462 C1461 1.379 . S
H1463 C1457 0.959 . S
H1464 C1457 0.961 . S
H1465 C1457 0.960 . S
H1466 C1458 0.930 . S
H1467 C1459 0.929 . S
H1468 C1476 0.929 . S
H1469 C1478 0.930 . S
H1470 C1480 0.930 . S
H1471 C1483 0.929 . S
H1472 C1486 0.930 . S
H1473 C1488 0.960 . S
H1474 C1488 0.960 . S
H1475 C1488 0.960 . S
C1476 H1468 0.929 . S
C1476 C1477 1.377 . S
C1476 C1478 1.384 . S
C1477 C1476 1.377 . S
C1477 C1483 1.390 . S
C1478 H1469 0.930 . S
C1478 C1476 1.384 . S
C1478 C1479 1.372 . S
C1479 C1478 1.372 . S
C1479 C1480 1.400 . S
C1479 C1484 1.490 . S
C1480 H1470 0.930 . S
C1480 C1479 1.400 . S
C1480 C1483 1.386 . S
H1481 C1497 0.930 . S
H1482 C1498 0.931 . S
C1483 H1471 0.929 . S
C1483 C1477 1.390 . S
C1483 C1480 1.386 . S
C1484 C1479 1.490 . S
C1484 C1486 1.395 . S
C1484 C1487 1.403 . S
H1485 C1491 0.930 . S
C1486 H1472 0.930 . S
C1486 C1484 1.395 . S
C1486 C1489 1.403 . S
C1487 C1484 1.403 . S
C1487 C1488 1.524 . S
C1487 C1491 1.400 . S
C1488 H1473 0.960 . S
C1488 H1474 0.960 . S
C1488 H1475 0.960 . S
C1488 C1487 1.524 . S
C1489 C1486 1.403 . S
C1489 C1490 1.392 . S
C1489 C1493 1.495 . S
C1490 C1489 1.392 . S
C1490 C1491 1.385 . S
C1490 C1492 1.478 . S
C1491 H1485 0.930 . S
C1491 C1487 1.400 . S
C1491 C1490 1.385 . S
C1492 C1490 1.478 . S
C1492 C1494 1.381 . S
C1492 C1498 1.383 . S
C1493 C1489 1.495 . S
C1493 H1499 0.959 . S
C1493 H1500 0.961 . S
C1493 H1501 0.960 . S
C1494 C1492 1.381 . S
C1494 C1495 1.394 . S
C1494 H1502 0.930 . S
C1495 C1494 1.394 . S
C1495 C1496 1.383 . S
C1495 H1503 0.929 . S
C1496 C1495 1.383 . S
C1496 C1497 1.377 . S
C1497 H1481 0.930 . S
C1497 C1496 1.377 . S
C1497 C1498 1.379 . S
C1498 H1482 0.931 . S
C1498 C1492 1.383 . S
C1498 C1497 1.379 . S
H1499 C1493 0.959 . S
H1500 C1493 0.961 . S
H1501 C1493 0.960 . S
H1502 C1494 0.930 . S
H1503 C1495 0.929 . S
H1504 C1512 0.929 . S
H1505 C1514 0.930 . S
H1506 C1516 0.930 . S
H1507 C1519 0.929 . S
H1508 C1522 0.930 . S
H1509 C1524 0.960 . S
H1510 C1524 0.960 . S
H1511 C1524 0.960 . S
C1512 H1504 0.929 . S
C1512 C1513 1.377 . S
C1512 C1514 1.384 . S
C1513 C1512 1.377 . S
C1513 C1519 1.390 . S
C1514 H1505 0.930 . S
C1514 C1512 1.384 . S
C1514 C1515 1.372 . S
C1515 C1514 1.372 . S
C1515 C1516 1.400 . S
C1515 C1520 1.490 . S
C1516 H1506 0.930 . S
C1516 C1515 1.400 . S
C1516 C1519 1.386 . S
H1517 C1533 0.930 . S
H1518 C1534 0.931 . S
C1519 H1507 0.929 . S
C1519 C1513 1.390 . S
C1519 C1516 1.386 . S
C1520 C1515 1.490 . S
C1520 C1522 1.395 . S
C1520 C1523 1.403 . S
H1521 C1527 0.930 . S
C1522 H1508 0.930 . S
C1522 C1520 1.395 . S
C1522 C1525 1.403 . S
C1523 C1520 1.403 . S
C1523 C1524 1.524 . S
C1523 C1527 1.400 . S
C1524 H1509 0.960 . S
C1524 H1510 0.960 . S
C1524 H1511 0.960 . S
C1524 C1523 1.524 . S
C1525 C1522 1.403 . S
C1525 C1526 1.392 . S
C1525 C1529 1.495 . S
C1526 C1525 1.392 . S
C1526 C1527 1.385 . S
C1526 C1528 1.478 . S
C1527 H1521 0.930 . S
C1527 C1523 1.400 . S
C1527 C1526 1.385 . S
C1528 C1526 1.478 . S
C1528 C1530 1.381 . S
C1528 C1534 1.383 . S
C1529 C1525 1.495 . S
C1529 H1535 0.959 . S
C1529 H1536 0.961 . S
C1529 H1537 0.960 . S
C1530 C1528 1.381 . S
C1530 C1531 1.394 . S
C1530 H1538 0.930 . S
C1531 C1530 1.394 . S
C1531 C1532 1.383 . S
C1531 H1539 0.929 . S
C1532 C1531 1.383 . S
C1532 C1533 1.377 . S
C1533 H1517 0.930 . S
C1533 C1532 1.377 . S
C1533 C1534 1.379 . S
C1534 H1518 0.931 . S
C1534 C1528 1.383 . S
C1534 C1533 1.379 . S
H1535 C1529 0.959 . S
H1536 C1529 0.961 . S
H1537 C1529 0.960 . S
H1538 C1530 0.930 . S
H1539 C1531 0.929 . S
H1540 C1548 0.929 . S
H1541 C1550 0.930 . S
H1542 C1552 0.930 . S
H1543 C1555 0.929 . S
H1544 C1558 0.930 . S
H1545 C1560 0.960 . S
H1546 C1560 0.960 . S
H1547 C1560 0.960 . S
C1548 H1540 0.929 . S
C1548 C1549 1.377 . S
C1548 C1550 1.384 . S
C1549 C1548 1.377 . S
C1549 C1555 1.390 . S
C1550 H1541 0.930 . S
C1550 C1548 1.384 . S
C1550 C1551 1.372 . S
C1551 C1550 1.372 . S
C1551 C1552 1.400 . S
C1551 C1556 1.490 . S
C1552 H1542 0.930 . S
C1552 C1551 1.400 . S
C1552 C1555 1.386 . S
H1553 C1569 0.930 . S
H1554 C1570 0.931 . S
C1555 H1543 0.929 . S
C1555 C1549 1.390 . S
C1555 C1552 1.386 . S
C1556 C1551 1.490 . S
C1556 C1558 1.395 . S
C1556 C1559 1.403 . S
H1557 C1563 0.930 . S
C1558 H1544 0.930 . S
C1558 C1556 1.395 . S
C1558 C1561 1.403 . S
C1559 C1556 1.403 . S
C1559 C1560 1.524 . S
C1559 C1563 1.400 . S
C1560 H1545 0.960 . S
C1560 H1546 0.960 . S
C1560 H1547 0.960 . S
C1560 C1559 1.524 . S
C1561 C1558 1.403 . S
C1561 C1562 1.392 . S
C1561 C1565 1.495 . S
C1562 C1561 1.392 . S
C1562 C1563 1.385 . S
C1562 C1564 1.478 . S
C1563 H1557 0.930 . S
C1563 C1559 1.400 . S
C1563 C1562 1.385 . S
C1564 C1562 1.478 . S
C1564 C1566 1.381 . S
C1564 C1570 1.383 . S
C1565 C1561 1.495 . S
C1565 H1571 0.959 . S
C1565 H1572 0.961 . S
C1565 H1573 0.960 . S
C1566 C1564 1.381 . S
C1566 C1567 1.394 . S
C1566 H1574 0.930 . S
C1567 C1566 1.394 . S
C1567 C1568 1.383 . S
C1567 H1575 0.929 . S
C1568 C1567 1.383 . S
C1568 C1569 1.377 . S
C1569 H1553 0.930 . S
C1569 C1568 1.377 . S
C1569 C1570 1.379 . S
C1570 H1554 0.931 . S
C1570 C1564 1.383 . S
C1570 C1569 1.379 . S
H1571 C1565 0.959 . S
H1572 C1565 0.961 . S
H1573 C1565 0.960 . S
H1574 C1566 0.930 . S
H1575 C1567 0.929 . S
H1576 C1584 0.929 . S
H1577 C1586 0.930 . S
H1578 C1588 0.930 . S
H1579 C1591 0.929 . S
H1580 C1594 0.930 . S
H1581 C1596 0.960 . S
H1582 C1596 0.960 . S
H1583 C1596 0.960 . S
C1584 H1576 0.929 . S
C1584 C1585 1.377 . S
C1584 C1586 1.384 . S
C1585 C1584 1.377 . S
C1585 C1591 1.390 . S
C1586 H1577 0.930 . S
C1586 C1584 1.384 . S
C1586 C1587 1.372 . S
C1587 C1586 1.372 . S
C1587 C1588 1.400 . S
C1587 C1592 1.490 . S
C1588 H1578 0.930 . S
C1588 C1587 1.400 . S
C1588 C1591 1.386 . S
H1589 C1605 0.930 . S
H1590 C1606 0.931 . S
C1591 H1579 0.929 . S
C1591 C1585 1.390 . S
C1591 C1588 1.386 . S
C1592 C1587 1.490 . S
C1592 C1594 1.395 . S
C1592 C1595 1.403 . S
H1593 C1599 0.930 . S
C1594 H1580 0.930 . S
C1594 C1592 1.395 . S
C1594 C1597 1.403 . S
C1595 C1592 1.403 . S
C1595 C1596 1.524 . S
C1595 C1599 1.400 . S
C1596 H1581 0.960 . S
C1596 H1582 0.960 . S
C1596 H1583 0.960 . S
C1596 C1595 1.524 . S
C1597 C1594 1.403 . S
C1597 C1598 1.392 . S
C1597 C1601 1.495 . S
C1598 C1597 1.392 . S
C1598 C1599 1.385 . S
C1598 C1600 1.478 . S
C1599 H1593 0.930 . S
C1599 C1595 1.400 . S
C1599 C1598 1.385 . S
C1600 C1598 1.478 . S
C1600 C1602 1.381 . S
C1600 C1606 1.383 . S
C1601 C1597 1.495 . S
C1601 H1607 0.959 . S
C1601 H1608 0.961 . S
C1601 H1609 0.960 . S
C1602 C1600 1.381 . S
C1602 C1603 1.394 . S
C1602 H1610 0.930 . S
C1603 C1602 1.394 . S
C1603 C1604 1.383 . S
C1603 H1611 0.929 . S
C1604 C1603 1.383 . S
C1604 C1605 1.377 . S
C1605 H1589 0.930 . S
C1605 C1604 1.377 . S
C1605 C1606 1.379 . S
C1606 H1590 0.931 . S
C1606 C1600 1.383 . S
C1606 C1605 1.379 . S
H1607 C1601 0.959 . S
H1608 C1601 0.961 . S
H1609 C1601 0.960 . S
H1610 C1602 0.930 . S
H1611 C1603 0.929 . S
H1612 C1620 0.929 . S
H1613 C1622 0.930 . S
H1614 C1624 0.930 . S
H1615 C1627 0.929 . S
H1616 C1630 0.930 . S
H1617 C1632 0.960 . S
H1618 C1632 0.960 . S
H1619 C1632 0.960 . S
C1620 H1612 0.929 . S
C1620 C1621 1.377 . S
C1620 C1622 1.384 . S
C1621 C1620 1.377 . S
C1621 C1627 1.390 . S
C1622 H1613 0.930 . S
C1622 C1620 1.384 . S
C1622 C1623 1.372 . S
C1623 C1622 1.372 . S
C1623 C1624 1.400 . S
C1623 C1628 1.490 . S
C1624 H1614 0.930 . S
C1624 C1623 1.400 . S
C1624 C1627 1.386 . S
H1625 C1641 0.930 . S
H1626 C1642 0.931 . S
C1627 H1615 0.929 . S
C1627 C1621 1.390 . S
C1627 C1624 1.386 . S
C1628 C1623 1.490 . S
C1628 C1630 1.395 . S
C1628 C1631 1.403 . S
H1629 C1635 0.930 . S
C1630 H1616 0.930 . S
C1630 C1628 1.395 . S
C1630 C1633 1.403 . S
C1631 C1628 1.403 . S
C1631 C1632 1.524 . S
C1631 C1635 1.400 . S
C1632 H1617 0.960 . S
C1632 H1618 0.960 . S
C1632 H1619 0.960 . S
C1632 C1631 1.524 . S
C1633 C1630 1.403 . S
C1633 C1634 1.392 . S
C1633 C1637 1.495 . S
C1634 C1633 1.392 . S
C1634 C1635 1.385 . S
C1634 C1636 1.478 . S
C1635 H1629 0.930 . S
C1635 C1631 1.400 . S
C1635 C1634 1.385 . S
C1636 C1634 1.478 . S
C1636 C1638 1.381 . S
C1636 C1642 1.383 . S
C1637 C1633 1.495 . S
C1637 H1643 0.959 . S
C1637 H1644 0.961 . S
C1637 H1645 0.960 . S
C1638 C1636 1.381 . S
C1638 C1639 1.394 . S
C1638 H1646 0.930 . S
C1639 C1638 1.394 . S
C1639 C1640 1.383 . S
C1639 H1647 0.929 . S
C1640 C1639 1.383 . S
C1640 C1641 1.377 . S
C1641 H1625 0.930 . S
C1641 C1640 1.377 . S
C1641 C1642 1.379 . S
C1642 H1626 0.931 . S
C1642 C1636 1.383 . S
C1642 C1641 1.379 . S
H1643 C1637 0.959 . S
H1644 C1637 0.961 . S
H1645 C1637 0.960 . S
H1646 C1638 0.930 . S
H1647 C1639 0.929 . S
H1648 C1656 0.929 . S
H1649 C1658 0.930 . S
H1650 C1660 0.930 . S
H1651 C1663 0.929 . S
H1652 C1666 0.930 . S
H1653 C1668 0.960 . S
H1654 C1668 0.960 . S
H1655 C1668 0.960 . S
C1656 H1648 0.929 . S
C1656 C1657 1.377 . S
C1656 C1658 1.384 . S
C1657 C1656 1.377 . S
C1657 C1663 1.390 . S
C1658 H1649 0.930 . S
C1658 C1656 1.384 . S
C1658 C1659 1.372 . S
C1659 C1658 1.372 . S
C1659 C1660 1.400 . S
C1659 C1664 1.490 . S
C1660 H1650 0.930 . S
C1660 C1659 1.400 . S
C1660 C1663 1.386 . S
H1661 C1677 0.930 . S
H1662 C1678 0.931 . S
C1663 H1651 0.929 . S
C1663 C1657 1.390 . S
C1663 C1660 1.386 . S
C1664 C1659 1.490 . S
C1664 C1666 1.395 . S
C1664 C1667 1.403 . S
H1665 C1671 0.930 . S
C1666 H1652 0.930 . S
C1666 C1664 1.395 . S
C1666 C1669 1.403 . S
C1667 C1664 1.403 . S
C1667 C1668 1.524 . S
C1667 C1671 1.400 . S
C1668 H1653 0.960 . S
C1668 H1654 0.960 . S
C1668 H1655 0.960 . S
C1668 C1667 1.524 . S
C1669 C1666 1.403 . S
C1669 C1670 1.392 . S
C1669 C1673 1.495 . S
C1670 C1669 1.392 . S
C1670 C1671 1.385 . S
C1670 C1672 1.478 . S
C1671 H1665 0.930 . S
C1671 C1667 1.400 . S
C1671 C1670 1.385 . S
C1672 C1670 1.478 . S
C1672 C1674 1.381 . S
C1672 C1678 1.383 . S
C1673 C1669 1.495 . S
C1673 H1679 0.959 . S
C1673 H1680 0.961 . S
C1673 H1681 0.960 . S
C1674 C1672 1.381 . S
C1674 C1675 1.394 . S
C1674 H1682 0.930 . S
C1675 C1674 1.394 . S
C1675 C1676 1.383 . S
C1675 H1683 0.929 . S
C1676 C1675 1.383 . S
C1676 C1677 1.377 . S
C1677 H1661 0.930 . S
C1677 C1676 1.377 . S
C1677 C1678 1.379 . S
C1678 H1662 0.931 . S
C1678 C1672 1.383 . S
C1678 C1677 1.379 . S
H1679 C1673 0.959 . S
H1680 C1673 0.961 . S
H1681 C1673 0.960 . S
H1682 C1674 0.930 . S
H1683 C1675 0.929 . S
H1684 C1692 0.929 . S
H1685 C1694 0.930 . S
H1686 C1696 0.930 . S
H1687 C1699 0.929 . S
H1688 C1702 0.930 . S
H1689 C1704 0.960 . S
H1690 C1704 0.960 . S
H1691 C1704 0.960 . S
C1692 H1684 0.929 . S
C1692 C1693 1.377 . S
C1692 C1694 1.384 . S
C1693 C1692 1.377 . S
C1693 C1699 1.390 . S
C1694 H1685 0.930 . S
C1694 C1692 1.384 . S
C1694 C1695 1.372 . S
C1695 C1694 1.372 . S
C1695 C1696 1.400 . S
C1695 C1700 1.490 . S
C1696 H1686 0.930 . S
C1696 C1695 1.400 . S
C1696 C1699 1.386 . S
H1697 C1713 0.930 . S
H1698 C1714 0.931 . S
C1699 H1687 0.929 . S
C1699 C1693 1.390 . S
C1699 C1696 1.386 . S
C1700 C1695 1.490 . S
C1700 C1702 1.395 . S
C1700 C1703 1.403 . S
H1701 C1707 0.930 . S
C1702 H1688 0.930 . S
C1702 C1700 1.395 . S
C1702 C1705 1.403 . S
C1703 C1700 1.403 . S
C1703 C1704 1.524 . S
C1703 C1707 1.400 . S
C1704 H1689 0.960 . S
C1704 H1690 0.960 . S
C1704 H1691 0.960 . S
C1704 C1703 1.524 . S
C1705 C1702 1.403 . S
C1705 C1706 1.392 . S
C1705 C1709 1.495 . S
C1706 C1705 1.392 . S
C1706 C1707 1.385 . S
C1706 C1708 1.478 . S
C1707 H1701 0.930 . S
C1707 C1703 1.400 . S
C1707 C1706 1.385 . S
C1708 C1706 1.478 . S
C1708 C1710 1.381 . S
C1708 C1714 1.383 . S
C1709 C1705 1.495 . S
C1709 H1715 0.959 . S
C1709 H1716 0.961 . S
C1709 H1717 0.960 . S
C1710 C1708 1.381 . S
C1710 C1711 1.394 . S
C1710 H1718 0.930 . S
C1711 C1710 1.394 . S
C1711 C1712 1.383 . S
C1711 H1719 0.929 . S
C1712 C1711 1.383 . S
C1712 C1713 1.377 . S
C1713 H1697 0.930 . S
C1713 C1712 1.377 . S
C1713 C1714 1.379 . S
C1714 H1698 0.931 . S
C1714 C1708 1.383 . S
C1714 C1713 1.379 . S
H1715 C1709 0.959 . S
H1716 C1709 0.961 . S
H1717 C1709 0.960 . S
H1718 C1710 0.930 . S
H1719 C1711 0.929 . S
H1720 C1728 0.929 . S
H1721 C1730 0.930 . S
H1722 C1732 0.930 . S
H1723 C1735 0.929 . S
H1724 C1738 0.930 . S
H1725 C1740 0.960 . S
H1726 C1740 0.960 . S
H1727 C1740 0.960 . S
C1728 H1720 0.929 . S
C1728 C1729 1.377 . S
C1728 C1730 1.384 . S
C1729 C1728 1.377 . S
C1729 C1735 1.390 . S
C1730 H1721 0.930 . S
C1730 C1728 1.384 . S
C1730 C1731 1.372 . S
C1731 C1730 1.372 . S
C1731 C1732 1.400 . S
C1731 C1736 1.490 . S
C1732 H1722 0.930 . S
C1732 C1731 1.400 . S
C1732 C1735 1.386 . S
H1733 C1749 0.930 . S
H1734 C1750 0.931 . S
C1735 H1723 0.929 . S
C1735 C1729 1.390 . S
C1735 C1732 1.386 . S
C1736 C1731 1.490 . S
C1736 C1738 1.395 . S
C1736 C1739 1.403 . S
H1737 C1743 0.930 . S
C1738 H1724 0.930 . S
C1738 C1736 1.395 . S
C1738 C1741 1.403 . S
C1739 C1736 1.403 . S
C1739 C1740 1.524 . S
C1739 C1743 1.400 . S
C1740 H1725 0.960 . S
C1740 H1726 0.960 . S
C1740 H1727 0.960 . S
C1740 C1739 1.524 . S
C1741 C1738 1.403 . S
C1741 C1742 1.392 . S
C1741 C1745 1.495 . S
C1742 C1741 1.392 . S
C1742 C1743 1.385 . S
C1742 C1744 1.478 . S
C1743 H1737 0.930 . S
C1743 C1739 1.400 . S
C1743 C1742 1.385 . S
C1744 C1742 1.478 . S
C1744 C1746 1.381 . S
C1744 C1750 1.383 . S
C1745 C1741 1.495 . S
C1745 H1751 0.959 . S
C1745 H1752 0.961 . S
C1745 H1753 0.960 . S
C1746 C1744 1.381 . S
C1746 C1747 1.394 . S
C1746 H1754 0.930 . S
C1747 C1746 1.394 . S
C1747 C1748 1.383 . S
C1747 H1755 0.929 . S
C1748 C1747 1.383 . S
C1748 C1749 1.377 . S
C1749 H1733 0.930 . S
C1749 C1748 1.377 . S
C1749 C1750 1.379 . S
C1750 H1734 0.931 . S
C1750 C1744 1.383 . S
C1750 C1749 1.379 . S
H1751 C1745 0.959 . S
H1752 C1745 0.961 . S
H1753 C1745 0.960 . S
H1754 C1746 0.930 . S
H1755 C1747 0.929 . S
H1756 C1764 0.929 . S
H1757 C1766 0.930 . S
H1758 C1768 0.930 . S
H1759 C1771 0.929 . S
H1760 C1774 0.930 . S
H1761 C1776 0.960 . S
H1762 C1776 0.960 . S
H1763 C1776 0.960 . S
C1764 H1756 0.929 . S
C1764 C1765 1.377 . S
C1764 C1766 1.384 . S
C1765 C1764 1.377 . S
C1765 C1771 1.390 . S
C1766 H1757 0.930 . S
C1766 C1764 1.384 . S
C1766 C1767 1.372 . S
C1767 C1766 1.372 . S
C1767 C1768 1.400 . S
C1767 C1772 1.490 . S
C1768 H1758 0.930 . S
C1768 C1767 1.400 . S
C1768 C1771 1.386 . S
H1769 C1785 0.930 . S
H1770 C1786 0.931 . S
C1771 H1759 0.929 . S
C1771 C1765 1.390 . S
C1771 C1768 1.386 . S
C1772 C1767 1.490 . S
C1772 C1774 1.395 . S
C1772 C1775 1.403 . S
H1773 C1779 0.930 . S
C1774 H1760 0.930 . S
C1774 C1772 1.395 . S
C1774 C1777 1.403 . S
C1775 C1772 1.403 . S
C1775 C1776 1.524 . S
C1775 C1779 1.400 . S
C1776 H1761 0.960 . S
C1776 H1762 0.960 . S
C1776 H1763 0.960 . S
C1776 C1775 1.524 . S
C1777 C1774 1.403 . S
C1777 C1778 1.392 . S
C1777 C1781 1.495 . S
C1778 C1777 1.392 . S
C1778 C1779 1.385 . S
C1778 C1780 1.478 . S
C1779 H1773 0.930 . S
C1779 C1775 1.400 . S
C1779 C1778 1.385 . S
C1780 C1778 1.478 . S
C1780 C1782 1.381 . S
C1780 C1786 1.383 . S
C1781 C1777 1.495 . S
C1781 H1787 0.959 . S
C1781 H1788 0.961 . S
C1781 H1789 0.960 . S
C1782 C1780 1.381 . S
C1782 C1783 1.394 . S
C1782 H1790 0.930 . S
C1783 C1782 1.394 . S
C1783 C1784 1.383 . S
C1783 H1791 0.929 . S
C1784 C1783 1.383 . S
C1784 C1785 1.377 . S
C1785 H1769 0.930 . S
C1785 C1784 1.377 . S
C1785 C1786 1.379 . S
C1786 H1770 0.931 . S
C1786 C1780 1.383 . S
C1786 C1785 1.379 . S
H1787 C1781 0.959 . S
H1788 C1781 0.961 . S
H1789 C1781 0.960 . S
H1790 C1782 0.930 . S
H1791 C1783 0.929 . S
H1792 C1800 0.929 . S
H1793 C1802 0.930 . S
H1794 C1804 0.930 . S
H1795 C1807 0.929 . S
H1796 C1810 0.930 . S
H1797 C1812 0.960 . S
H1798 C1812 0.960 . S
H1799 C1812 0.960 . S
C1800 H1792 0.929 . S
C1800 C1801 1.377 . S
C1800 C1802 1.384 . S
C1801 C1800 1.377 . S
C1801 C1807 1.390 . S
C1802 H1793 0.930 . S
C1802 C1800 1.384 . S
C1802 C1803 1.372 . S
C1803 C1802 1.372 . S
C1803 C1804 1.400 . S
C1803 C1808 1.490 . S
C1804 H1794 0.930 . S
C1804 C1803 1.400 . S
C1804 C1807 1.386 . S
H1805 C1821 0.930 . S
H1806 C1822 0.931 . S
C1807 H1795 0.929 . S
C1807 C1801 1.390 . S
C1807 C1804 1.386 . S
C1808 C1803 1.490 . S
C1808 C1810 1.395 . S
C1808 C1811 1.403 . S
H1809 C1815 0.930 . S
C1810 H1796 0.930 . S
C1810 C1808 1.395 . S
C1810 C1813 1.403 . S
C1811 C1808 1.403 . S
C1811 C1812 1.524 . S
C1811 C1815 1.400 . S
C1812 H1797 0.960 . S
C1812 H1798 0.960 . S
C1812 H1799 0.960 . S
C1812 C1811 1.524 . S
C1813 C1810 1.403 . S
C1813 C1814 1.392 . S
C1813 C1817 1.495 . S
C1814 C1813 1.392 . S
C1814 C1815 1.385 . S
C1814 C1816 1.478 . S
C1815 H1809 0.930 . S
C1815 C1811 1.400 . S
C1815 C1814 1.385 . S
C1816 C1814 1.478 . S
C1816 C1818 1.381 . S
C1816 C1822 1.383 . S
C1817 C1813 1.495 . S
C1817 H1823 0.959 . S
C1817 H1824 0.961 . S
C1817 H1825 0.960 . S
C1818 C1816 1.381 . S
C1818 C1819 1.394 . S
C1818 H1826 0.930 . S
C1819 C1818 1.394 . S
C1819 C1820 1.383 . S
C1819 H1827 0.929 . S
C1820 C1819 1.383 . S
C1820 C1821 1.377 . S
C1821 H1805 0.930 . S
C1821 C1820 1.377 . S
C1821 C1822 1.379 . S
C1822 H1806 0.931 . S
C1822 C1816 1.383 . S
C1822 C1821 1.379 . S
H1823 C1817 0.959 . S
H1824 C1817 0.961 . S
H1825 C1817 0.960 . S
H1826 C1818 0.930 . S
H1827 C1819 0.929 . S
H1828 C1836 0.929 . S
H1829 C1838 0.930 . S
H1830 C1840 0.930 . S
H1831 C1843 0.929 . S
H1832 C1846 0.930 . S
H1833 C1848 0.960 . S
H1834 C1848 0.960 . S
H1835 C1848 0.960 . S
C1836 H1828 0.929 . S
C1836 C1837 1.377 . S
C1836 C1838 1.384 . S
C1837 C1836 1.377 . S
C1837 C1843 1.390 . S
C1838 H1829 0.930 . S
C1838 C1836 1.384 . S
C1838 C1839 1.372 . S
C1839 C1838 1.372 . S
C1839 C1840 1.400 . S
C1839 C1844 1.490 . S
C1840 H1830 0.930 . S
C1840 C1839 1.400 . S
C1840 C1843 1.386 . S
H1841 C1857 0.930 . S
H1842 C1858 0.931 . S
C1843 H1831 0.929 . S
C1843 C1837 1.390 . S
C1843 C1840 1.386 . S
C1844 C1839 1.490 . S
C1844 C1846 1.395 . S
C1844 C1847 1.403 . S
H1845 C1851 0.930 . S
C1846 H1832 0.930 . S
C1846 C1844 1.395 . S
C1846 C1849 1.403 . S
C1847 C1844 1.403 . S
C1847 C1848 1.524 . S
C1847 C1851 1.400 . S
C1848 H1833 0.960 . S
C1848 H1834 0.960 . S
C1848 H1835 0.960 . S
C1848 C1847 1.524 . S
C1849 C1846 1.403 . S
C1849 C1850 1.392 . S
C1849 C1853 1.495 . S
C1850 C1849 1.392 . S
C1850 C1851 1.385 . S
C1850 C1852 1.478 . S
C1851 H1845 0.930 . S
C1851 C1847 1.400 . S
C1851 C1850 1.385 . S
C1852 C1850 1.478 . S
C1852 C1854 1.381 . S
C1852 C1858 1.383 . S
C1853 C1849 1.495 . S
C1853 H1859 0.959 . S
C1853 H1860 0.961 . S
C1853 H1861 0.960 . S
C1854 C1852 1.381 . S
C1854 C1855 1.394 . S
C1854 H1862 0.930 . S
C1855 C1854 1.394 . S
C1855 C1856 1.383 . S
C1855 H1863 0.929 . S
C1856 C1855 1.383 . S
C1856 C1857 1.377 . S
C1857 H1841 0.930 . S
C1857 C1856 1.377 . S
C1857 C1858 1.379 . S
C1858 H1842 0.931 . S
C1858 C1852 1.383 . S
C1858 C1857 1.379 . S
H1859 C1853 0.959 . S
H1860 C1853 0.961 . S
H1861 C1853 0.960 . S
H1862 C1854 0.930 . S
H1863 C1855 0.929 . S
H1864 C1872 0.929 . S
H1865 C1874 0.930 . S
H1866 C1876 0.930 . S
H1867 C1879 0.929 . S
H1868 C1882 0.930 . S
H1869 C1884 0.960 . S
H1870 C1884 0.960 . S
H1871 C1884 0.960 . S
C1872 H1864 0.929 . S
C1872 C1873 1.377 . S
C1872 C1874 1.384 . S
C1873 C1872 1.377 . S
C1873 C1879 1.390 . S
C1874 H1865 0.930 . S
C1874 C1872 1.384 . S
C1874 C1875 1.372 . S
C1875 C1874 1.372 . S
C1875 C1876 1.400 . S
C1875 C1880 1.490 . S
C1876 H1866 0.930 . S
C1876 C1875 1.400 . S
C1876 C1879 1.386 . S
H1877 C1893 0.930 . S
H1878 C1894 0.931 . S
C1879 H1867 0.929 . S
C1879 C1873 1.390 . S
C1879 C1876 1.386 . S
C1880 C1875 1.490 . S
C1880 C1882 1.395 . S
C1880 C1883 1.403 . S
H1881 C1887 0.930 . S
C1882 H1868 0.930 . S
C1882 C1880 1.395 . S
C1882 C1885 1.403 . S
C1883 C1880 1.403 . S
C1883 C1884 1.524 . S
C1883 C1887 1.400 . S
C1884 H1869 0.960 . S
C1884 H1870 0.960 . S
C1884 H1871 0.960 . S
C1884 C1883 1.524 . S
C1885 C1882 1.403 . S
C1885 C1886 1.392 . S
C1885 C1889 1.495 . S
C1886 C1885 1.392 . S
C1886 C1887 1.385 . S
C1886 C1888 1.478 . S
C1887 H1881 0.930 . S
C1887 C1883 1.400 . S
C1887 C1886 1.385 . S
C1888 C1886 1.478 . S
C1888 C1890 1.381 . S
C1888 C1894 1.383 . S
C1889 C1885 1.495 . S
C1889 H1895 0.959 . S
C1889 H1896 0.961 . S
C1889 H1897 0.960 . S
C1890 C1888 1.381 . S
C1890 C1891 1.394 . S
C1890 H1898 0.930 . S
C1891 C1890 1.394 . S
C1891 C1892 1.383 . S
C1891 H1899 0.929 . S
C1892 C1891 1.383 . S
C1892 C1893 1.377 . S
C1893 H1877 0.930 . S
C1893 C1892 1.377 . S
C1893 C1894 1.379 . S
C1894 H1878 0.931 . S
C1894 C1888 1.383 . S
C1894 C1893 1.379 . S
H1895 C1889 0.959 . S
H1896 C1889 0.961 . S
H1897 C1889 0.960 . S
H1898 C1890 0.930 . S
H1899 C1891 0.929 . S
H1900 C1908 0.929 . S
H1901 C1910 0.930 . S
H1902 C1912 0.930 . S
H1903 C1915 0.929 . S
H1904 C1918 0.930 . S
H1905 C1920 0.960 . S
H1906 C1920 0.960 . S
H1907 C1920 0.960 . S
C1908 H1900 0.929 . S
C1908 C1909 1.377 . S
C1908 C1910 1.384 . S
C1909 C1908 1.377 . S
C1909 C1915 1.390 . S
C1910 H1901 0.930 . S
C1910 C1908 1.384 . S
C1910 C1911 1.372 . S
C1911 C1910 1.372 . S
C1911 C1912 1.400 . S
C1911 C1916 1.490 . S
C1912 H1902 0.930 . S
C1912 C1911 1.400 . S
C1912 C1915 1.386 . S
H1913 C1929 0.930 . S
H1914 C1930 0.931 . S
C1915 H1903 0.929 . S
C1915 C1909 1.390 . S
C1915 C1912 1.386 . S
C1916 C1911 1.490 . S
C1916 C1918 1.395 . S
C1916 C1919 1.403 . S
H1917 C1923 0.930 . S
C1918 H1904 0.930 . S
C1918 C1916 1.395 . S
C1918 C1921 1.403 . S
C1919 C1916 1.403 . S
C1919 C1920 1.524 . S
C1919 C1923 1.400 . S
C1920 H1905 0.960 . S
C1920 H1906 0.960 . S
C1920 H1907 0.960 . S
C1920 C1919 1.524 . S
C1921 C1918 1.403 . S
C1921 C1922 1.392 . S
C1921 C1925 1.495 . S
C1922 C1921 1.392 . S
C1922 C1923 1.385 . S
C1922 C1924 1.478 . S
C1923 H1917 0.930 . S
C1923 C1919 1.400 . S
C1923 C1922 1.385 . S
C1924 C1922 1.478 . S
C1924 C1926 1.381 . S
C1924 C1930 1.383 . S
C1925 C1921 1.495 . S
C1925 H1931 0.959 . S
C1925 H1932 0.961 . S
C1925 H1933 0.960 . S
C1926 C1924 1.381 . S
C1926 C1927 1.394 . S
C1926 H1934 0.930 . S
C1927 C1926 1.394 . S
C1927 C1928 1.383 . S
C1927 H1935 0.929 . S
C1928 C1927 1.383 . S
C1928 C1929 1.377 . S
C1929 H1913 0.930 . S
C1929 C1928 1.377 . S
C1929 C1930 1.379 . S
C1930 H1914 0.931 . S
C1930 C1924 1.383 . S
C1930 C1929 1.379 . S
H1931 C1925 0.959 . S
H1932 C1925 0.961 . S
H1933 C1925 0.960 . S
H1934 C1926 0.930 . S
H1935 C1927 0.929 . S
C812 C535 1.356 . S
C793 C35 1.253 . S
C848 C572 1.364 . S
C829 C115 1.246 . S
C884 C608 1.383 . S
C865 C177 1.265 . S
C901 C221 1.265 . S
C920 C499 1.400 . S
C937 C283 1.273 . S
C956 C500 1.359 . S
C973 C363 1.262 . S
C992 C536 1.332 . S
C1028 C571 1.369 . S
C1009 C407 1.237 . S
C1064 C607 1.396 . S
C1045 C469 1.272 . S
C1081 C159 1.239 . S
C1100 C679 1.372 . S
C1136 C716 1.344 . S
C1117 C239 1.259 . S
C1153 C53 1.264 . S
C1172 C752 1.387 . S
C1208 C643 1.385 . S
C1189 C97 1.269 . S
C1225 C425 1.268 . S
C1244 C644 1.370 . S
C1261 C487 1.260 . S
C1280 C680 1.324 . S
C1316 C715 1.354 1_556 S
C1297 C301 1.265 . S
C1333 C345 1.273 . S
C1352 C751 1.395 . S
C1388 C570 1.857 . S
C1369 C29 1.837 . S
C1424 C606 1.841 . S
C1405 C109 1.785 . S
C1441 C171 1.734 . S
C1460 C510 1.668 . S
C1477 C215 1.779 . S
C1496 C546 1.655 . S
C1513 C277 1.762 . S
C1532 C618 1.678 . S
C1568 C498 1.847 . S
C1549 C357 1.789 . S
C1604 C534 1.859 . S
C1585 C401 1.839 . S
C1640 C582 1.683 . S
C1621 C463 1.782 . S
C1676 C714 1.868 . S
C1657 C153 1.840 . S
C1712 C750 1.835 . S
C1693 C233 1.781 . S
C1729 C47 1.735 . S
C1748 C654 1.691 . S
C1784 C690 1.672 . S
C1765 C91 1.780 . S
C1820 C762 1.638 . S
C1801 C419 1.726 . S
C1837 C481 1.782 . S
C1856 C642 1.837 . S
C1892 C678 1.859 . S
C1873 C295 1.807 . S
C1928 C726 1.671 . S
C1909 C339 1.780 . S
