# Generated by pormake.
# Topology llk, (3,12)-cn, num edge types: 1
# Building blocks:
#     Node 0, Type 0, BuildingBlock: PAMTOO_clean_linker_0, # of connection points: 3
#     Node 1, Type 0, BuildingBlock: PAMTOO_clean_linker_0, # of connection points: 3
#     Node 2, Type 0, BuildingBlock: PAMTOO_clean_linker_0, # of connection points: 3
#     Node 3, Type 0, BuildingBlock: PAMTOO_clean_linker_0, # of connection points: 3
#     Node 4, Type 0, BuildingBlock: PAMTOO_clean_linker_0, # of connection points: 3
#     Node 5, Type 0, BuildingBlock: PAMTOO_clean_linker_0, # of connection points: 3
#     Node 6, Type 0, BuildingBlock: PAMTOO_clean_linker_0, # of connection points: 3
#     Node 7, Type 0, BuildingBlock: PAMTOO_clean_linker_0, # of connection points: 3
#     Node 8, Type 0, BuildingBlock: PAMTOO_clean_linker_0, # of connection points: 3
#     Node 9, Type 0, BuildingBlock: PAMTOO_clean_linker_0, # of connection points: 3
#     Node 10, Type 0, BuildingBlock: PAMTOO_clean_linker_0, # of connection points: 3
#     Node 11, Type 0, BuildingBlock: PAMTOO_clean_linker_0, # of connection points: 3
#     Node 12, Type 0, BuildingBlock: PAMTOO_clean_linker_0, # of connection points: 3
#     Node 13, Type 0, BuildingBlock: PAMTOO_clean_linker_0, # of connection points: 3
#     Node 14, Type 0, BuildingBlock: PAMTOO_clean_linker_0, # of connection points: 3
#     Node 15, Type 0, BuildingBlock: PAMTOO_clean_linker_0, # of connection points: 3
#     Node 16, Type 0, BuildingBlock: PAMTOO_clean_linker_0, # of connection points: 3
#     Node 17, Type 0, BuildingBlock: PAMTOO_clean_linker_0, # of connection points: 3
#     Node 18, Type 0, BuildingBlock: PAMTOO_clean_linker_0, # of connection points: 3
#     Node 19, Type 0, BuildingBlock: PAMTOO_clean_linker_0, # of connection points: 3
#     Node 20, Type 0, BuildingBlock: PAMTOO_clean_linker_0, # of connection points: 3
#     Node 21, Type 0, BuildingBlock: PAMTOO_clean_linker_0, # of connection points: 3
#     Node 22, Type 0, BuildingBlock: PAMTOO_clean_linker_0, # of connection points: 3
#     Node 23, Type 0, BuildingBlock: PAMTOO_clean_linker_0, # of connection points: 3
#     Node 24, Type 1, BuildingBlock: QEWDON_clean_sbu_0, # of connection points: 12
#     Node 25, Type 1, BuildingBlock: QEWDON_clean_sbu_0, # of connection points: 12
#     Node 26, Type 1, BuildingBlock: QEWDON_clean_sbu_0, # of connection points: 12
#     Node 27, Type 1, BuildingBlock: QEWDON_clean_sbu_0, # of connection points: 12
#     Node 28, Type 1, BuildingBlock: QEWDON_clean_sbu_0, # of connection points: 12
#     Node 29, Type 1, BuildingBlock: QEWDON_clean_sbu_0, # of connection points: 12
#     Edge 30, Type (0, 1), BuildingBlock: OJICUG_clean_linker_0, # of connection points: 2
#     Edge 31, Type (0, 1), BuildingBlock: OJICUG_clean_linker_0, # of connection points: 2
#     Edge 32, Type (0, 1), BuildingBlock: OJICUG_clean_linker_0, # of connection points: 2
#     Edge 33, Type (0, 1), BuildingBlock: OJICUG_clean_linker_0, # of connection points: 2
#     Edge 34, Type (0, 1), BuildingBlock: OJICUG_clean_linker_0, # of connection points: 2
#     Edge 35, Type (0, 1), BuildingBlock: OJICUG_clean_linker_0, # of connection points: 2
#     Edge 36, Type (0, 1), BuildingBlock: OJICUG_clean_linker_0, # of connection points: 2
#     Edge 37, Type (0, 1), BuildingBlock: OJICUG_clean_linker_0, # of connection points: 2
#     Edge 38, Type (0, 1), BuildingBlock: OJICUG_clean_linker_0, # of connection points: 2
#     Edge 39, Type (0, 1), BuildingBlock: OJICUG_clean_linker_0, # of connection points: 2
#     Edge 40, Type (0, 1), BuildingBlock: OJICUG_clean_linker_0, # of connection points: 2
#     Edge 41, Type (0, 1), BuildingBlock: OJICUG_clean_linker_0, # of connection points: 2
#     Edge 42, Type (0, 1), BuildingBlock: OJICUG_clean_linker_0, # of connection points: 2
#     Edge 43, Type (0, 1), BuildingBlock: OJICUG_clean_linker_0, # of connection points: 2
#     Edge 44, Type (0, 1), BuildingBlock: OJICUG_clean_linker_0, # of connection points: 2
#     Edge 45, Type (0, 1), BuildingBlock: OJICUG_clean_linker_0, # of connection points: 2
#     Edge 46, Type (0, 1), BuildingBlock: OJICUG_clean_linker_0, # of connection points: 2
#     Edge 47, Type (0, 1), BuildingBlock: OJICUG_clean_linker_0, # of connection points: 2
#     Edge 48, Type (0, 1), BuildingBlock: OJICUG_clean_linker_0, # of connection points: 2
#     Edge 49, Type (0, 1), BuildingBlock: OJICUG_clean_linker_0, # of connection points: 2
#     Edge 50, Type (0, 1), BuildingBlock: OJICUG_clean_linker_0, # of connection points: 2
#     Edge 51, Type (0, 1), BuildingBlock: OJICUG_clean_linker_0, # of connection points: 2
#     Edge 52, Type (0, 1), BuildingBlock: OJICUG_clean_linker_0, # of connection points: 2
#     Edge 53, Type (0, 1), BuildingBlock: OJICUG_clean_linker_0, # of connection points: 2
#     Edge 54, Type (0, 1), BuildingBlock: OJICUG_clean_linker_0, # of connection points: 2
#     Edge 55, Type (0, 1), BuildingBlock: OJICUG_clean_linker_0, # of connection points: 2
#     Edge 56, Type (0, 1), BuildingBlock: OJICUG_clean_linker_0, # of connection points: 2
#     Edge 57, Type (0, 1), BuildingBlock: OJICUG_clean_linker_0, # of connection points: 2
#     Edge 58, Type (0, 1), BuildingBlock: OJICUG_clean_linker_0, # of connection points: 2
#     Edge 59, Type (0, 1), BuildingBlock: OJICUG_clean_linker_0, # of connection points: 2
#     Edge 60, Type (0, 1), BuildingBlock: OJICUG_clean_linker_0, # of connection points: 2
#     Edge 61, Type (0, 1), BuildingBlock: OJICUG_clean_linker_0, # of connection points: 2
#     Edge 62, Type (0, 1), BuildingBlock: OJICUG_clean_linker_0, # of connection points: 2
#     Edge 63, Type (0, 1), BuildingBlock: OJICUG_clean_linker_0, # of connection points: 2
#     Edge 64, Type (0, 1), BuildingBlock: OJICUG_clean_linker_0, # of connection points: 2
#     Edge 65, Type (0, 1), BuildingBlock: OJICUG_clean_linker_0, # of connection points: 2
#     Edge 66, Type (0, 1), BuildingBlock: OJICUG_clean_linker_0, # of connection points: 2
#     Edge 67, Type (0, 1), BuildingBlock: OJICUG_clean_linker_0, # of connection points: 2
#     Edge 68, Type (0, 1), BuildingBlock: OJICUG_clean_linker_0, # of connection points: 2
#     Edge 69, Type (0, 1), BuildingBlock: OJICUG_clean_linker_0, # of connection points: 2
#     Edge 70, Type (0, 1), BuildingBlock: OJICUG_clean_linker_0, # of connection points: 2
#     Edge 71, Type (0, 1), BuildingBlock: OJICUG_clean_linker_0, # of connection points: 2
#     Edge 72, Type (0, 1), BuildingBlock: OJICUG_clean_linker_0, # of connection points: 2
#     Edge 73, Type (0, 1), BuildingBlock: OJICUG_clean_linker_0, # of connection points: 2
#     Edge 74, Type (0, 1), BuildingBlock: OJICUG_clean_linker_0, # of connection points: 2
#     Edge 75, Type (0, 1), BuildingBlock: OJICUG_clean_linker_0, # of connection points: 2
#     Edge 76, Type (0, 1), BuildingBlock: OJICUG_clean_linker_0, # of connection points: 2
#     Edge 77, Type (0, 1), BuildingBlock: OJICUG_clean_linker_0, # of connection points: 2
#     Edge 78, Type (0, 1), BuildingBlock: OJICUG_clean_linker_0, # of connection points: 2
#     Edge 79, Type (0, 1), BuildingBlock: OJICUG_clean_linker_0, # of connection points: 2
#     Edge 80, Type (0, 1), BuildingBlock: OJICUG_clean_linker_0, # of connection points: 2
#     Edge 81, Type (0, 1), BuildingBlock: OJICUG_clean_linker_0, # of connection points: 2
#     Edge 82, Type (0, 1), BuildingBlock: OJICUG_clean_linker_0, # of connection points: 2
#     Edge 83, Type (0, 1), BuildingBlock: OJICUG_clean_linker_0, # of connection points: 2
#     Edge 84, Type (0, 1), BuildingBlock: OJICUG_clean_linker_0, # of connection points: 2
#     Edge 85, Type (0, 1), BuildingBlock: OJICUG_clean_linker_0, # of connection points: 2
#     Edge 86, Type (0, 1), BuildingBlock: OJICUG_clean_linker_0, # of connection points: 2
#     Edge 87, Type (0, 1), BuildingBlock: OJICUG_clean_linker_0, # of connection points: 2
#     Edge 88, Type (0, 1), BuildingBlock: OJICUG_clean_linker_0, # of connection points: 2
#     Edge 89, Type (0, 1), BuildingBlock: OJICUG_clean_linker_0, # of connection points: 2
#     Edge 90, Type (0, 1), BuildingBlock: OJICUG_clean_linker_0, # of connection points: 2
#     Edge 91, Type (0, 1), BuildingBlock: OJICUG_clean_linker_0, # of connection points: 2
#     Edge 92, Type (0, 1), BuildingBlock: OJICUG_clean_linker_0, # of connection points: 2
#     Edge 93, Type (0, 1), BuildingBlock: OJICUG_clean_linker_0, # of connection points: 2
#     Edge 94, Type (0, 1), BuildingBlock: OJICUG_clean_linker_0, # of connection points: 2
#     Edge 95, Type (0, 1), BuildingBlock: OJICUG_clean_linker_0, # of connection points: 2
#     Edge 96, Type (0, 1), BuildingBlock: OJICUG_clean_linker_0, # of connection points: 2
#     Edge 97, Type (0, 1), BuildingBlock: OJICUG_clean_linker_0, # of connection points: 2
#     Edge 98, Type (0, 1), BuildingBlock: OJICUG_clean_linker_0, # of connection points: 2
#     Edge 99, Type (0, 1), BuildingBlock: OJICUG_clean_linker_0, # of connection points: 2
#     Edge 100, Type (0, 1), BuildingBlock: OJICUG_clean_linker_0, # of connection points: 2
#     Edge 101, Type (0, 1), BuildingBlock: OJICUG_clean_linker_0, # of connection points: 2
# Relax obj value: 0.096
# Max RMSD: 0.172
# Mean RMSD: 0.130
data_MOF--net-llk--node1-QEWDON_clean_sbu_0--node2-PAMTOO_clean_linker_0--edge1-OJICUG_clean_linker_0
_symmetry_space_group_name_H-M    P1
_symmetry_Int_Tables_number       1
_symmetry_cell_setting            triclinic
loop_
_symmetry_equiv_pos_as_xyz
'x, y, z'
_cell_length_a     35.35883
_cell_length_b     36.626859
_cell_length_c     35.970853
_cell_angle_alpha  90.093764
_cell_angle_beta   89.665728
_cell_angle_gamma 89.828655
loop_
_atom_site_label
_atom_site_type_symbol
_atom_site_fract_x
_atom_site_fract_y
_atom_site_fract_z
_atom_type_partial_charge
H0 H 0.01939 0.37132 0.25317 0.0
H1 H 0.02954 0.28612 0.33504 0.0
H2 H 0.05759 0.26474 0.22041 0.0
H3 H 0.04384 0.18925 0.26205 0.0
C4 C 0.03148 0.20737 0.28377 0.0
O5 O 0.0551 0.23706 0.28838 0.0
H6 H 0.00322 0.21597 0.27323 0.0
C7 C 0.0256 0.34324 0.26053 0.0
C8 C 0.03722 0.31926 0.23242 0.0
C9 C 0.02232 0.3319 0.29763 0.0
C10 C 0.03212 0.29575 0.30669 0.0
C11 C 0.04507 0.27159 0.279 0.0
C12 C 0.04791 0.28346 0.2418 0.0
H13 H 0.72125 0.06268 0.31924 0.0
H14 H 0.6849 0.03933 0.20821 0.0
H15 H 0.80357 0.04559 0.23231 0.0
H16 H 0.76984 0.05377 0.12963 0.0
C17 C 0.74671 0.0572 0.15034 0.0
O18 O 0.75375 0.03463 0.18023 0.0
H19 H 0.74641 0.0864 0.15913 0.0
C20 C 0.7281 0.05877 0.29005 0.0
C21 C 0.76589 0.05513 0.27896 0.0
C22 C 0.69892 0.0533 0.26453 0.0
C23 C 0.7075 0.04499 0.22754 0.0
C24 C 0.7453 0.04381 0.21565 0.0
C25 C 0.77445 0.04881 0.24131 0.0
H26 H 0.01718 0.76597 0.3629 0.0
H27 H 0.02327 0.69185 0.27051 0.0
H28 H 0.00857 0.80677 0.25092 0.0
H29 H 0.97095 0.75023 0.18464 0.0
C30 C -0.01687 0.72831 0.20224 0.0
O31 O 0.01526 0.74181 0.21946 0.0
H32 H 0.96125 0.72038 0.22311 0.0
C33 C 0.01795 0.7615 0.33308 0.0
C34 C 0.01324 0.7911 0.30882 0.0
C35 C 0.02105 0.72574 0.31962 0.0
C36 C 0.02191 0.71951 0.28121 0.0
C37 C 0.01721 0.74867 0.25643 0.0
C38 C 0.01311 0.7845 0.27019 0.0
H39 H 0.33108 0.01084 0.25476 0.0
H40 H 0.21757 0.9867 0.28935 0.0
H41 H 0.24566 0.98697 0.17308 0.0
H42 H 0.14318 0.99377 0.19733 0.0
C43 C 0.1636 1.00286 0.21874 0.0
O44 O 0.19181 0.97685 0.22175 0.0
H45 H 0.17539 0.0294 0.20903 0.0
C46 C 0.30221 1.00416 0.24747 0.0
C47 C 0.29222 0.99929 0.21002 0.0
C48 C 0.27537 1.00033 0.276 0.0
C49 C 0.23839 0.99006 0.2674 0.0
C50 C 0.22787 0.98541 0.23019 0.0
C51 C 0.25462 0.98999 0.20166 0.0
H52 H 0.98192 0.65856 0.74066 0.0
H53 H 0.97679 0.75739 0.67658 0.0
H54 H -0.00737 0.76291 0.79472 0.0
H55 H 0.94971 0.83665 0.75286 0.0
C56 C 0.95944 0.8251 0.72585 0.0
O57 O -0.01127 0.80089 0.73249 0.0
H58 H 0.93501 0.81109 0.71268 0.0
C59 C 0.9818 0.68812 0.73926 0.0
C60 C -0.01235 0.70836 0.77187 0.0
C61 C 0.97751 0.70536 0.70474 0.0
C62 C 0.97905 0.74358 0.70307 0.0
C63 C -0.01595 0.76434 0.73539 0.0
C64 C -0.01223 0.74679 0.76994 0.0
H65 H 0.35756 0.9859 0.7906 0.0
H66 H 0.26696 0.01799 0.71899 0.0
H67 H 0.24549 1.00222 0.83541 0.0
H68 H 0.16141 1.00024 0.77072 0.0
C69 C 0.18903 0.99491 0.75688 0.0
O70 O 0.21534 0.01887 0.77096 0.0
H71 H 0.19686 0.96613 0.76347 0.0
C72 C 0.32757 0.99077 0.78661 0.0
C73 C 0.30308 0.99192 0.81735 0.0
C74 C 0.3149 1.00051 0.75136 0.0
C75 C 0.27693 0.00988 0.7462 0.0
C76 C 0.25173 0.00922 0.77624 0.0
C77 C 0.26473 1.00052 0.81191 0.0
H78 H -0.00604 0.27413 0.64607 0.0
H79 H 0.00267 0.33064 0.75035 0.0
H80 H 0.00361 0.21343 0.74796 0.0
H81 H -0.01214 0.25795 0.84071 0.0
C82 C -0.01643 0.27865 0.8186 0.0
O83 O 0.00978 0.27222 0.79056 0.0
H84 H 0.95426 0.27509 0.80802 0.0
C85 C -0.00569 0.27349 0.67622 0.0
C86 C -0.00305 0.23977 0.69449 0.0
C87 C -0.00355 0.30633 0.69613 0.0
C88 C -0.00026 0.3054 0.73491 0.0
C89 C 0.00147 0.27213 0.7538 0.0
C90 C -0.0002 0.23914 0.7336 0.0
H91 H 0.78506 0.02479 0.70002 0.0
H92 H 0.70085 0.06988 0.77363 0.0
H93 H 0.81828 0.07192 0.80427 0.0
H94 H 0.75175 0.09201 0.88149 0.0
C95 C 0.74558 0.07163 0.85945 0.0
O96 O 0.74864 0.08869 0.82537 0.0
H97 H 0.76763 0.05001 0.86216 0.0
C98 C 0.7774 0.03653 0.72676 0.0
C99 C 0.80594 0.04582 0.75177 0.0
C100 C 0.73971 0.04583 0.73386 0.0
C101 C 0.72996 0.06237 0.76782 0.0
C102 C 0.75812 0.07084 0.7937 0.0
C103 C 0.79634 0.06352 0.7852 0.0
H104 H 0.23745 0.36784 0.0239 0.0
H105 H 0.29863 0.26962 -0.00217 0.0
H106 H 0.17789 0.27145 0.98813 0.0
H107 H 0.2289 0.17858 0.9914 0.0
C108 C 0.24534 0.20195 0.00244 0.0
O109 O 0.23938 0.23181 0.97986 0.0
H110 H 0.23451 0.20725 0.03112 0.0
C111 C 0.23726 0.33908 0.01673 0.0
C112 C 0.20307 0.32206 0.007 0.0
C113 C 0.27181 0.32037 0.01351 0.0
C114 C 0.27207 0.28409 0.0013 0.0
C115 C 0.23826 0.26633 0.99303 0.0
C116 C 0.20377 0.28514 -0.00403 0.0
H117 H 0.2152 0.67638 0.03564 0.0
H118 H 0.27434 0.77842 0.02869 0.0
H119 H 0.15289 0.77709 0.02462 0.0
H120 H 0.19374 0.85679 0.98894 0.0
C121 C 0.21856 0.8386 0.99289 0.0
O122 O 0.21346 0.81897 0.02543 0.0
H123 H 0.22008 0.81995 0.96839 0.0
C124 C 0.21448 0.70598 0.03451 0.0
C125 C 0.17969 0.72422 0.03123 0.0
C126 C 0.24861 0.72512 0.033 0.0
C127 C 0.24806 0.76328 0.02972 0.0
C128 C 0.2136 0.78205 0.02719 0.0
C129 C 0.17942 0.76251 0.0274 0.0
H130 H 0.80454 0.36399 0.98076 0.0
H131 H 0.74348 0.26377 -0.00509 0.0
H132 H 0.86506 0.26218 0.98996 0.0
H133 H 0.82127 0.17702 0.96691 0.0
C134 C 0.79815 0.19758 0.9665 0.0
O135 O 0.80351 0.22187 -0.00447 0.0
H136 H 0.79981 0.21181 0.93917 0.0
C137 C 0.80459 0.33442 0.98276 0.0
C138 C 0.839 0.31541 0.98422 0.0
C139 C 0.77025 0.31615 0.98702 0.0
C140 C 0.77 0.27814 0.99137 0.0
C141 C 0.80409 0.25853 0.99112 0.0
C142 C 0.8387 0.27722 0.98829 0.0
H143 H 0.77186 0.67266 0.98513 0.0
H144 H 0.70922 0.77141 0.96556 0.0
H145 H 0.83085 0.77315 0.96377 0.0
H146 H 0.77892 0.86253 0.97943 0.0
C147 C 0.76211 0.83759 0.98514 0.0
O148 O 0.7689 0.81256 0.9571 0.0
H149 H 0.77178 0.82678 0.01246 0.0
C150 C 0.77136 0.70155 0.97849 0.0
C151 C 0.80545 0.72031 0.9733 0.0
C152 C 0.73667 0.71989 0.97636 0.0
C153 C 0.73597 0.75704 0.96749 0.0
C154 C 0.7699 0.77628 0.9634 0.0
C155 C 0.8047 0.75805 0.96665 0.0
H156 H 0.51472 0.87503 0.74749 0.0
H157 H 0.53647 0.78254 0.81767 0.0
H158 H 0.54229 0.77087 0.69867 0.0
H159 H 0.53214 0.68671 0.7455 0.0
C160 C 0.52232 0.70916 0.76398 0.0
O161 O 0.54897 0.73679 0.76293 0.0
H162 H 0.49473 0.71892 0.75282 0.0
C163 C 0.52139 0.84625 0.75052 0.0
C164 C 0.52745 0.82483 0.71871 0.0
C165 C 0.52482 0.83148 0.78622 0.0
C166 C 0.53426 0.79448 0.79022 0.0
C167 C 0.53998 0.7725 0.7587 0.0
C168 C 0.53721 0.78781 0.72292 0.0
H169 H 0.2803 0.54905 0.84136 0.0
H170 H 0.23582 0.53055 0.73207 0.0
H171 H 0.35597 0.52985 0.74891 0.0
H172 H 0.3215 0.54414 0.65116 0.0
C173 C 0.29846 0.54881 0.67173 0.0
O174 O 0.30159 0.52306 0.69967 0.0
H175 H 0.30228 0.57691 0.68301 0.0
C176 C 0.28507 0.545 0.81182 0.0
C177 C 0.32215 0.54031 0.79825 0.0
C178 C 0.25383 0.54143 0.78824 0.0
C179 C 0.25974 0.53394 0.75045 0.0
C180 C 0.29649 0.53088 0.73612 0.0
C181 C 0.32768 0.53371 0.75999 0.0
H182 H 0.46502 0.25507 0.85184 0.0
H183 H 0.47207 0.18915 0.75299 0.0
H184 H 0.47447 0.30607 0.74455 0.0
H185 H 0.44343 0.25504 0.66353 0.0
C186 C 0.45101 0.23184 0.68191 0.0
O187 O 0.47786 0.2435 0.70725 0.0
H188 H 0.4247 0.22291 0.69642 0.0
C189 C 0.46521 0.25286 0.82176 0.0
C190 C 0.46814 0.28477 0.80042 0.0
C191 C 0.46697 0.21822 0.80514 0.0
C192 C 0.46989 0.21564 0.7663 0.0
C193 C 0.47151 0.24709 0.7443 0.0
C194 C 0.47107 0.2818 0.76138 0.0
H195 H 0.80777 0.55116 0.77839 0.0
H196 H 0.70774 0.506 0.82788 0.0
H197 H 0.72189 0.50374 0.70926 0.0
H198 H 0.62241 0.48387 0.74842 0.0
C199 C 0.64169 0.50226 0.76385 0.0
O200 O 0.67707 0.48612 0.76516 0.0
H201 H 0.64314 0.52831 0.74796 0.0
C202 C 0.77961 0.53996 0.77513 0.0
C203 C 0.76732 0.52959 0.73974 0.0
C204 C 0.75835 0.5314 0.80692 0.0
C205 C 0.72341 0.51404 0.80328 0.0
C206 C 0.70964 0.5052 0.76803 0.0
C207 C 0.73173 0.51261 0.73626 0.0
H208 H 0.50964 0.17363 0.26048 0.0
H209 H 0.50435 0.27039 0.19347 0.0
H210 H 0.48783 0.27822 0.31177 0.0
H211 H 0.45298 0.35435 0.25185 0.0
C212 C 0.46552 0.33502 0.23138 0.0
O213 O 0.49418 0.3155 0.2487 0.0
H214 H 0.44257 0.31642 0.22201 0.0
C215 C 0.506 0.20298 0.25847 0.0
C216 C 0.4992 0.22367 0.29072 0.0
C217 C 0.50691 0.21945 0.22342 0.0
C218 C 0.50218 0.25729 0.22041 0.0
C219 C 0.49519 0.27859 0.25204 0.0
C220 C 0.4929 0.26168 0.28725 0.0
H221 H 0.81854 0.51419 0.27917 0.0
H222 H 0.7318 0.49937 0.1975 0.0
H223 H 0.70772 0.47844 0.31311 0.0
H224 H 0.64723 0.43496 0.2434 0.0
C225 C 0.66666 0.45096 0.22541 0.0
O226 O 0.67891 0.48133 0.24501 0.0
H227 H 0.69089 0.43287 0.21777 0.0
C228 C 0.78956 0.50728 0.2723 0.0
C229 C 0.76464 0.49659 0.3005 0.0
C230 C 0.77817 0.50784 0.23528 0.0
C231 C 0.74093 0.49863 0.2262 0.0
C232 C 0.71543 0.48787 0.25408 0.0
C233 C 0.72741 0.48638 0.29143 0.0
H234 H 0.52721 0.77203 0.15867 0.0
H235 H 0.53754 0.84096 0.25476 0.0
H236 H 0.55192 0.72464 0.26534 0.0
H237 H 0.53272 0.76991 0.35079 0.0
C238 C 0.52386 0.78805 0.3277 0.0
O239 O 0.55245 0.7882 0.30116 0.0
H240 H 0.49744 0.77625 0.316 0.0
C241 C 0.53351 0.77514 0.18801 0.0
C242 C 0.54094 0.74418 0.20959 0.0
C243 C 0.53201 0.80989 0.20418 0.0
C244 C 0.53906 0.81411 0.24214 0.0
C245 C 0.54627 0.78352 0.2643 0.0
C246 C 0.54699 0.74837 0.24808 0.0
H247 H 0.30551 0.5676 0.15241 0.0
H248 H 0.22421 0.57536 0.24092 0.0
H249 H 0.34305 0.58458 0.26481 0.0
H250 H 0.28085 0.55909 0.34298 0.0
C251 C 0.26673 0.55482 0.31583 0.0
O252 O 0.27395 0.58465 0.29345 0.0
H253 H 0.27918 0.52947 0.30358 0.0
C254 C 0.29927 0.57236 0.18162 0.0
C255 C 0.32874 0.57787 0.20678 0.0
C256 C 0.26192 0.57108 0.19378 0.0
C257 C 0.25331 0.57644 0.23135 0.0
C258 C 0.28253 0.58128 0.257 0.0
C259 C 0.32045 0.58159 0.24485 0.0
H260 H 0.76021 0.8856 0.49416 0.0
H261 H 0.82648 0.78727 0.4868 0.0
H262 H 0.70503 0.7817 0.48136 0.0
H263 H 0.74578 0.70199 0.50968 0.0
C264 C 0.77098 0.72002 0.5101 0.0
O265 O 0.76909 0.74349 0.48002 0.0
H266 H 0.76963 0.73537 0.53687 0.0
C267 C 0.76173 0.85617 0.49104 0.0
C268 C 0.7282 0.83603 0.48816 0.0
C269 C 0.79718 0.83898 0.49042 0.0
C270 C 0.79925 0.80093 0.48699 0.0
C271 C 0.76619 0.78024 0.48369 0.0
C272 C 0.73055 0.79778 0.48391 0.0
H273 H 0.75792 0.157 0.49705 0.0
H274 H 0.8228 0.25598 0.48983 0.0
H275 H 0.70252 0.26183 0.50359 0.0
H276 H 0.74587 0.33311 0.45864 0.0
C277 C 0.77313 0.32209 0.46909 0.0
O278 O 0.76567 0.29963 0.49913 0.0
H279 H 0.78704 0.30669 0.44603 0.0
C280 C 0.75925 0.18654 0.4966 0.0
C281 C 0.72574 0.20697 0.50081 0.0
C282 C 0.79449 0.20379 0.49239 0.0
C283 C 0.79597 0.24205 0.49267 0.0
C284 C 0.76299 0.26287 0.49648 0.0
C285 C 0.72784 0.24543 0.5001 0.0
H286 H 0.24968 0.86919 0.51083 0.0
H287 H 0.17807 0.77669 0.5319 0.0
H288 H 0.29916 0.76486 0.53673 0.0
H289 H 0.25489 0.68211 0.52799 0.0
C290 C 0.23376 0.70266 0.5188 0.0
O291 O 0.2332 0.73096 0.54432 0.0
H292 H 0.24375 0.71227 0.49104 0.0
C293 C 0.24651 0.84047 0.51753 0.0
C294 C 0.27882 0.81889 0.52255 0.0
C295 C 0.2102 0.8257 0.52127 0.0
C296 C 0.20603 0.78847 0.52916 0.0
C297 C 0.23796 0.76648 0.53483 0.0
C298 C 0.27449 0.7818 0.53202 0.0
H299 H 0.24998 0.15753 0.51354 0.0
H300 H 0.18245 0.25528 0.51848 0.0
H301 H 0.30266 0.2628 0.5024 0.0
H302 H 0.25755 0.33516 0.54617 0.0
C303 C 0.23052 0.32327 0.53629 0.0
O304 O 0.2384 0.29982 0.50701 0.0
H305 H 0.21711 0.30846 0.55991 0.0
C306 C 0.24788 0.18707 0.5133 0.0
C307 C 0.28058 0.20784 0.5071 0.0
C308 C 0.21244 0.20376 0.51803 0.0
C309 C 0.20974 0.24192 0.5161 0.0
C310 C 0.24216 0.26323 0.51096 0.0
C311 C 0.27775 0.24625 0.50704 0.0
Zn312 Zn 0.93667 0.9828 0.42475 0.0
Zn313 Zn 0.9362 0.06973 0.44196 0.0
O314 O 0.97058 0.02543 0.43667 0.0
H315 H -0.00507 0.02488 0.42451 0.0
C316 C 0.91315 0.94099 0.52824 0.0
O317 O 0.91688 0.9715 0.50942 0.0
Zn318 Zn 0.08133 0.06241 0.56685 0.0
Zn319 Zn 0.06587 0.97557 0.57532 0.0
O320 O 0.03999 0.02491 0.57225 0.0
H321 H 0.01844 0.02806 0.5885 0.0
Zn322 Zn 0.95212 0.98465 0.584 0.0
O323 O 0.9605 0.02744 0.54915 0.0
Zn324 Zn 0.95539 0.07243 0.58024 0.0
H325 H 0.97338 0.02593 0.52542 0.0
Zn326 Zn 0.05665 0.97452 0.43029 0.0
O327 O 0.0534 0.01977 0.46259 0.0
H328 H 0.0401 0.02092 0.48611 0.0
Zn329 Zn 0.06375 0.06212 0.42905 0.0
C330 C 0.09744 0.93215 0.48502 0.0
O331 O 0.09836 0.96442 0.50098 0.0
O332 O 0.89111 1.00173 0.39641 0.0
O333 O 0.88739 0.06012 0.4135 0.0
O334 O 0.11618 0.98335 0.60181 0.0
O335 O 0.1266 0.04308 0.59616 0.0
O336 O 0.93111 1.00042 0.63549 0.0
O337 O 0.9314 0.06097 0.63045 0.0
C338 C -0.00596 0.11323 0.40734 0.0
O339 O 0.07763 0.98554 0.37797 0.0
O340 O 0.08697 0.04561 0.37953 0.0
O341 O 0.03491 0.93341 0.60022 0.0
C342 C 0.87509 0.03285 0.39501 0.0
O343 O 0.95897 0.93403 0.40364 0.0
C344 C 0.03126 0.1156 0.59986 0.0
O345 O 0.92692 0.93899 0.56074 0.0
C346 C 0.13563 0.01169 0.60902 0.0
O347 O 0.07973 0.92852 0.45463 0.0
C348 C 0.91707 0.10661 0.51729 0.0
O349 O 0.95889 0.11287 0.41461 0.0
O350 O 0.01407 0.0879 0.42128 0.0
C351 C 0.92419 0.03201 0.64891 0.0
O352 O 0.06594 0.10957 0.59272 0.0
O353 O 0.00749 0.09281 0.58742 0.0
C354 C 0.10168 0.09691 0.49137 0.0
O355 O 0.92323 0.10772 0.55213 0.0
O356 O 0.93209 0.08137 0.49764 0.0
C357 C 0.08938 0.01485 0.36281 0.0
O358 O 0.09702 0.09674 0.45628 0.0
O359 O 0.08777 0.07126 0.51102 0.0
C360 C 0.01598 0.94058 0.62957 0.0
O361 O 0.01479 0.97444 0.64163 0.0
C362 C 0.9812 0.93226 0.37569 0.0
O363 O -0.00671 0.96264 0.36038 0.0
Zn364 Zn 0.44106 0.08678 0.04989 0.0
Zn365 Zn 0.44659 0.0889 0.96079 0.0
O366 O 0.45651 0.0572 0.00489 0.0
H367 H 0.47038 0.03443 0.0051 0.0
C368 C 0.53836 0.13639 0.0907 0.0
O369 O 0.51473 0.13594 0.06264 0.0
Zn370 Zn 0.56342 0.95365 0.94707 0.0
Zn371 Zn 0.56903 0.95623 0.03644 0.0
O372 O 0.55546 0.98628 0.99097 0.0
H373 H 0.53889 0.00729 0.99122 0.0
Zn374 Zn 0.59012 0.10165 0.03681 0.0
O375 O 0.55284 0.08814 -0.00275 0.0
Zn376 Zn 0.5826 0.08658 0.94994 0.0
H377 H 0.52947 0.07541 0.00207 0.0
Zn378 Zn 0.42459 0.94661 0.04815 0.0
O379 O 0.46131 0.9485 0.00452 0.0
H380 H 0.44686 0.94741 0.02732 0.0
Zn381 Zn 0.42826 0.95338 0.96051 0.0
C382 C 0.47902 0.92118 0.10492 0.0
O383 O 0.50295 0.94248 0.0873 0.0
O384 O 0.40493 0.12833 0.03587 0.0
O385 O 0.4128 0.13241 0.9747 0.0
O386 O 0.60275 0.91249 0.02246 0.0
O387 O 0.59757 0.91113 0.96099 0.0
O388 O 0.64053 0.12094 0.01683 0.0
O389 O 0.63544 0.11048 0.95614 0.0
C390 C 0.40665 0.02694 0.92855 0.0
O391 O 0.37137 0.92931 0.03243 0.0
O392 O 0.37546 0.93226 0.97081 0.0
O393 O 0.59595 0.98383 0.07849 0.0
C394 C 0.39675 0.14288 0.00483 0.0
O395 O 0.42 0.05882 0.09501 0.0
C396 C 0.60245 0.01432 0.91077 0.0
O397 O 0.57118 0.12276 0.08662 0.0
C398 C 0.61193 0.89903 0.99104 0.0
O399 O 0.44482 0.91985 0.09439 0.0
C400 C 0.5164 0.11497 0.91224 0.0
O401 O 0.41277 0.06104 0.92662 0.0
O402 O 0.42765 0.00729 0.94895 0.0
C403 C 0.65402 0.12257 0.98402 0.0
O404 O 0.59497 0.98043 0.90838 0.0
O405 O 0.58359 0.03355 0.93385 0.0
C406 C 0.4872 0.92281 0.91174 0.0
O407 O 0.55238 0.11346 0.91152 0.0
O408 O 0.49883 0.10006 0.93921 0.0
C409 C 0.35707 0.92424 0.0004 0.0
O410 O 0.45196 0.92497 0.91848 0.0
O411 O 0.5099 0.93943 0.93316 0.0
C412 C 0.61145 0.01438 0.07185 0.0
O413 O 0.60535 0.03039 0.0398 0.0
C414 C 0.39631 0.03319 0.09045 0.0
O415 O 0.38881 0.02195 0.05657 0.0
Zn416 Zn 0.95082 0.49181 0.91334 0.0
Zn417 Zn 0.93858 0.57307 0.94811 0.0
O418 O 0.97314 0.52881 0.95011 0.0
H419 H -0.01612 0.52084 0.97334 0.0
C420 C 0.93984 0.43016 0.01606 0.0
O421 O 0.94418 0.45741 0.99275 0.0
Zn422 Zn 0.07325 0.56474 0.05957 0.0
Zn423 Zn 0.08552 0.47704 0.0722 0.0
O424 O 0.04509 0.51677 0.06339 0.0
H425 H 0.01932 0.51263 0.05571 0.0
Zn426 Zn 0.95044 0.48797 0.0734 0.0
O427 O 0.9441 0.53149 0.03938 0.0
Zn428 Zn 0.94222 0.57329 0.07626 0.0
H429 H 0.92801 0.5286 0.01798 0.0
Zn430 Zn 0.06614 0.48452 0.91736 0.0
O431 O 0.05202 0.52584 0.95275 0.0
H432 H 0.05081 0.52378 0.97949 0.0
Zn433 Zn 0.0565 0.57112 0.92184 0.0
C434 C 0.09275 0.43173 0.97394 0.0
O435 O 0.08894 0.46008 -0.00394 0.0
O436 O 0.89537 0.50284 0.90254 0.0
O437 O 0.88809 0.55845 0.92657 0.0
O438 O 0.13468 0.49959 0.09148 0.0
O439 O 0.12651 0.55787 0.07659 0.0
O440 O 0.91433 0.49701 0.11705 0.0
O441 O 0.91015 0.55766 0.1203 0.0
C442 C -0.01056 0.61195 0.89751 0.0
O443 O 0.10195 0.5031 0.876 0.0
O444 O 0.09855 0.56338 0.88379 0.0
O445 O 0.07442 0.4275 0.09913 0.0
C446 C 0.87491 0.53058 0.90994 0.0
O447 O 0.96679 0.43695 0.9038 0.0
C448 C 0.01924 0.60559 0.10444 0.0
O449 O 0.94308 0.43612 0.05071 0.0
C450 C 0.14629 0.53242 0.09061 0.0
O451 O 0.08329 0.43481 0.94002 0.0
C452 C 0.91742 0.61912 0.01808 0.0
O453 O 0.95939 0.61363 0.91691 0.0
O454 O 0.00695 0.58155 0.89555 0.0
C455 C 0.90064 0.52593 0.1316 0.0
O456 O 0.05397 0.60136 0.09694 0.0
O457 O -0.00396 0.58543 0.08714 0.0
C458 C 0.0764 0.61393 0.98861 0.0
O459 O 0.91859 0.61764 0.05324 0.0
O460 O 0.93161 0.59249 -0.0 0.0
C461 C 0.11278 0.5353 0.86783 0.0
O462 O 0.07109 0.61427 0.95364 0.0
O463 O 0.06987 0.58444 0.0064 0.0
C464 C 0.04245 0.41383 0.10726 0.0
O465 O 0.01158 0.43106 0.09709 0.0
C466 C -0.00888 0.42629 0.87984 0.0
O467 O 0.01174 0.45075 0.86245 0.0
Zn468 Zn 0.45282 0.4612 0.97534 0.0
Zn469 Zn 0.45504 0.46284 0.06544 0.0
O470 O 0.4666 0.49302 0.0196 0.0
H471 H 0.47001 0.51908 0.01773 0.0
C472 C 0.50425 0.39588 0.90696 0.0
O473 O 0.48027 0.40348 0.93391 0.0
Zn474 Zn 0.56673 0.57779 0.05915 0.0
Zn475 Zn 0.55006 0.57885 0.97092 0.0
O476 O 0.54171 0.54882 0.01829 0.0
H477 H 0.53737 0.52282 0.01854 0.0
Zn478 Zn 0.564 0.42918 0.958 0.0
O479 O 0.53591 0.4372 0.00756 0.0
Zn480 Zn 0.57539 0.43929 0.04863 0.0
H481 H 0.50957 0.431 0.01083 0.0
Zn482 Zn 0.45044 0.61294 0.97126 0.0
O483 O 0.48514 0.60407 0.01565 0.0
H484 H 0.51016 0.6145 0.01687 0.0
Zn485 Zn 0.45006 0.59963 0.05991 0.0
C486 C 0.49783 0.64877 0.91212 0.0
O487 O 0.51826 0.65995 0.9403 0.0
O488 O 0.41783 0.41955 0.99181 0.0
O489 O 0.41446 0.42552 0.05344 0.0
O490 O 0.58674 0.62133 0.97879 0.0
O491 O 0.60481 0.61313 0.03736 0.0
O492 O 0.61752 0.40979 0.96835 0.0
O493 O 0.62328 0.41441 0.02998 0.0
C494 C 0.43588 0.52997 0.10601 0.0
O495 O 0.40059 0.63692 0.98733 0.0
O496 O 0.39933 0.62414 0.04777 0.0
O497 O 0.55883 0.55534 0.9185 0.0
C498 C 0.40413 0.41025 0.02322 0.0
O499 O 0.43711 0.48386 0.92411 0.0
C500 C 0.59491 0.50888 0.09314 0.0
O501 O 0.53884 0.4046 0.91081 0.0
C502 C 0.60779 0.62945 0.00614 0.0
O503 O 0.46968 0.62804 0.91826 0.0
C504 C 0.52238 0.41631 0.10257 0.0
O505 O 0.4374 0.49528 0.10705 0.0
O506 O 0.44573 0.54627 0.07612 0.0
C507 C 0.63609 0.40464 -0.00183 0.0
O508 O 0.59206 0.5435 0.09505 0.0
O509 O 0.58364 0.4925 0.06384 0.0
C510 C 0.50717 0.62752 0.1101 0.0
O511 O 0.55691 0.41199 0.0938 0.0
O512 O 0.50278 0.43696 0.08165 0.0
C513 C 0.38445 0.63852 0.01901 0.0
O514 O 0.47224 0.62764 0.10227 0.0
O515 O 0.52992 0.60837 0.09044 0.0
C516 C 0.58192 0.52921 0.91265 0.0
O517 O 0.59806 0.51322 0.94115 0.0
C518 C 0.42262 0.51551 0.92075 0.0
O519 O 0.42002 0.53659 0.95026 0.0
Zn520 Zn 0.93604 0.47741 0.46056 0.0
Zn521 Zn 0.92324 0.56397 0.45369 0.0
O522 O 0.96187 0.52669 0.46856 0.0
H523 H -0.01485 0.53115 0.48172 0.0
C524 C 0.86913 0.44122 0.51854 0.0
O525 O 0.85735 0.47491 0.51364 0.0
Zn526 Zn 0.0818 0.56847 0.56296 0.0
Zn527 Zn 0.08973 0.48177 0.57406 0.0
O528 O 0.05396 0.52157 0.55826 0.0
H529 H 0.02793 0.5183 0.55098 0.0
Zn530 Zn 0.92159 0.48078 0.56573 0.0
O531 O 0.92921 0.52607 0.5349 0.0
Zn532 Zn 0.93539 0.56832 0.56971 0.0
H533 H 0.91205 0.5268 0.51421 0.0
Zn534 Zn 0.08595 0.48335 0.43447 0.0
O535 O 0.06823 0.5266 0.46553 0.0
H536 H 0.05429 0.52408 0.48845 0.0
Zn537 Zn 0.06511 0.57031 0.43205 0.0
C538 C 0.13142 0.4416 0.48863 0.0
O539 O 0.13525 0.47424 0.50333 0.0
O540 O 0.88388 0.48114 0.4339 0.0
O541 O 0.88253 0.54065 0.42198 0.0
O542 O 0.14121 0.50054 0.59197 0.0
O543 O 0.13302 0.5607 0.58942 0.0
O544 O 0.89122 0.49681 0.61124 0.0
O545 O 0.90137 0.55676 0.61555 0.0
C546 C -0.01491 0.60503 0.41565 0.0
O547 O 0.11609 0.50249 0.38988 0.0
O548 O 0.09681 0.56026 0.38492 0.0
O549 O 0.06724 0.44128 0.60673 0.0
C550 C 0.8684 0.50877 0.41869 0.0
O551 O 0.96899 0.43676 0.43658 0.0
C552 C 0.01136 0.60182 0.59352 0.0
O553 O 0.89773 0.43564 0.53911 0.0
C554 C 0.15312 0.53281 0.59777 0.0
O555 O 0.11056 0.43791 0.46018 0.0
C556 C 0.89569 0.61599 0.51515 0.0
O557 O 0.94992 0.60225 0.42332 0.0
O558 O 0.00804 0.58102 0.42795 0.0
C559 C 0.88517 0.52749 0.62694 0.0
O560 O 0.04743 0.60231 0.59137 0.0
O561 O -0.00734 0.57612 0.57819 0.0
C562 C 0.10202 0.61371 0.48972 0.0
O563 O 0.9136 0.61417 0.54578 0.0
O564 O 0.89157 0.58697 0.49607 0.0
C565 C 0.1173 0.53344 0.37382 0.0
O566 O 0.09339 0.6125 0.45549 0.0
O567 O 0.08783 0.5894 0.51095 0.0
C568 C 0.0331 0.43065 0.60584 0.0
O569 O 0.0096 0.44519 0.58185 0.0
C570 C 0.97072 0.44193 0.40174 0.0
O571 O 0.95545 0.47173 0.38803 0.0
Zn572 Zn 0.43307 0.98362 0.43165 0.0
Zn573 Zn 0.42061 0.07162 0.44039 0.0
O574 O 0.46113 0.0321 0.43463 0.0
H575 H 0.48501 0.03446 0.42174 0.0
C576 C 0.40365 0.91863 0.51665 0.0
O577 O 0.41045 0.93744 0.48631 0.0
Zn578 Zn 0.57914 0.07295 0.56285 0.0
Zn579 Zn 0.58545 0.98476 0.56825 0.0
O580 O 0.54792 0.02663 0.56188 0.0
H581 H 0.52174 0.02392 0.55495 0.0
Zn582 Zn 0.44745 0.97701 0.56208 0.0
O583 O 0.44892 0.02477 0.53143 0.0
Zn584 Zn 0.44634 0.06656 0.56873 0.0
H585 H 0.4485 1.00084 0.54264 0.0
Zn586 Zn 0.55881 0.99063 0.43005 0.0
O587 O 0.54608 0.03459 0.46397 0.0
H588 H 0.53279 0.03273 0.48741 0.0
Zn589 Zn 0.54795 0.08043 0.43233 0.0
C590 C 0.60773 0.9411 0.47706 0.0
O591 O 0.60968 0.96978 0.49893 0.0
O592 O 0.3799 0.99266 0.41127 0.0
O593 O 0.37219 0.05298 0.41601 0.0
O594 O 0.62905 1.00329 0.59988 0.0
O595 O 0.62699 0.06371 0.59285 0.0
O596 O 0.43149 0.9878 0.61583 0.0
O597 O 0.42345 0.04807 0.61576 0.0
C598 C 0.47205 0.12383 0.41044 0.0
O599 O 0.5753 0.00744 0.37778 0.0
O600 O 0.56961 0.06776 0.38246 0.0
O601 O 0.56845 0.93306 0.58604 0.0
C602 C 0.36037 0.02147 0.40598 0.0
O603 O 0.45858 0.93456 0.41262 0.0
C604 C 0.51619 0.11286 0.5937 0.0
O605 O 0.41664 0.92992 0.54747 0.0
C606 C 0.64152 0.03503 0.60722 0.0
O607 O 0.58745 0.94299 0.44801 0.0
C608 C 0.40409 0.10904 0.51698 0.0
O609 O 0.43692 0.11764 0.41421 0.0
O610 O 0.49486 0.10074 0.42461 0.0
C611 C 0.42032 0.01711 0.63146 0.0
O612 O 0.55196 0.11262 0.59102 0.0
O613 O 0.49844 0.0866 0.57845 0.0
C614 C 0.59523 0.11591 0.48813 0.0
O615 O 0.41305 0.10686 0.55095 0.0
O616 O 0.41671 0.08449 0.49495 0.0
C617 C 0.5786 0.03931 0.364 0.0
O618 O 0.58349 0.11716 0.4548 0.0
O619 O 0.58239 0.09088 0.5093 0.0
C620 C 0.53607 0.9272 0.60028 0.0
O621 O 0.51099 0.95373 0.60032 0.0
C622 C 0.48632 0.93138 0.39004 0.0
O623 O 0.50322 0.96096 0.37785 0.0
C624 C 0.14772 0.18817 0.49644 0.0
C625 C 0.17817 0.18067 0.52006 0.0
H626 H 0.09882 0.16707 0.46947 0.0
C627 C 0.17812 0.148 0.54071 0.0
H628 H 0.14686 0.21301 0.48016 0.0
C629 C 0.15044 0.1215 0.53449 0.0
C630 C 0.12275 0.12749 0.50748 0.0
H631 H 0.20097 0.14188 0.55966 0.0
H632 H 0.15281 0.09528 0.54813 0.0
C633 C 0.1203 0.16175 0.49017 0.0
C634 C 0.86134 0.19301 0.51197 0.0
C635 C 0.82986 0.18179 0.49125 0.0
H636 H 0.91448 0.17788 0.53539 0.0
C637 C 0.83122 0.14774 0.47299 0.0
H638 H 0.86132 0.21884 0.52665 0.0
C639 C 0.86181 0.12404 0.47839 0.0
C640 C 0.89156 0.13426 0.50172 0.0
H641 H 0.80773 0.13857 0.45623 0.0
H642 H 0.86045 0.0967 0.46718 0.0
C643 C 0.89185 0.16949 0.51709 0.0
C644 C 0.85673 0.85352 0.52433 0.0
C645 C 0.83152 0.86131 0.49541 0.0
H646 H 0.90261 0.87282 0.55752 0.0
C647 C 0.83666 0.89313 0.47427 0.0
H648 H 0.85325 0.82916 0.54104 0.0
C649 C 0.86494 0.91799 0.48347 0.0
C650 C 0.88826 0.91169 0.51433 0.0
H651 H 0.81773 0.89949 0.45158 0.0
H652 H 0.86711 0.94304 0.46762 0.0
C653 C 0.88478 0.87861 0.53385 0.0
C654 C 0.17516 0.88304 0.53613 0.0
C655 C 0.17709 0.84986 0.51659 0.0
H656 H 0.1479 0.93486 0.54198 0.0
C657 C 0.14957 0.84195 0.48988 0.0
H658 H 0.19593 0.8895 0.55716 0.0
C659 C 0.12218 0.86804 0.48088 0.0
C660 C 0.12177 0.90226 0.49874 0.0
H661 H 0.1506 0.81651 0.47447 0.0
H662 H 0.10242 0.862 0.45882 0.0
C663 C 0.14762 0.90893 0.52746 0.0
C664 C 0.54622 0.17496 0.18778 0.0
C665 C 0.51385 0.19704 0.19001 0.0
H666 H 0.57936 0.13846 0.15456 0.0
C667 C 0.48833 0.19762 0.16028 0.0
H668 H 0.56623 0.17416 0.21047 0.0
C669 C 0.49549 0.17681 0.12838 0.0
C670 C 0.5286 0.15562 0.12558 0.0
H671 H 0.46291 0.21416 0.16177 0.0
H672 H 0.47556 0.17802 0.10565 0.0
C673 C 0.55365 0.15458 0.15579 0.0
C674 C 0.82817 0.54686 0.20658 0.0
C675 C 0.80683 0.51457 0.2064 0.0
H676 H 0.87492 0.57599 0.18271 0.0
C677 C 0.8164 0.48639 0.18178 0.0
H678 H 0.82133 0.56871 0.22583 0.0
C679 C 0.84751 0.48997 0.15821 0.0
C680 C 0.86923 0.52211 0.15838 0.0
H681 H 0.80064 0.46106 0.18175 0.0
H682 H 0.85432 0.46759 0.1396 0.0
C683 C 0.85891 0.55083 0.18232 0.0
C684 C 0.54309 0.86822 0.16976 0.0
C685 C 0.51842 0.84078 0.18194 0.0
H686 H 0.54991 0.9156 0.13541 0.0
C687 C 0.48053 0.84137 0.17093 0.0
H688 H 0.5725 0.86796 0.17803 0.0
C689 C 0.4675 0.8685 0.14715 0.0
C690 C 0.49231 0.89531 0.13349 0.0
H691 H 0.46117 0.82033 0.18018 0.0
H692 H 0.43821 0.86766 0.13855 0.0
C693 C 0.53015 0.8953 0.14547 0.0
C694 C 0.22944 0.5251 0.1551 0.0
C695 C 0.2327 0.56139 0.16704 0.0
H696 H 0.19969 0.48732 0.12065 0.0
C697 C 0.21016 0.58856 0.15127 0.0
H698 H 0.24737 0.504 0.16672 0.0
C699 C 0.18367 0.57936 0.12434 0.0
C700 C 0.17913 0.54271 0.11324 0.0
H701 H 0.21303 0.6168 0.15982 0.0
H702 H 0.16578 0.60081 0.1134 0.0
C703 C 0.20264 0.51573 0.12852 0.0
C704 C 0.542 0.85829 0.84849 0.0
C705 C 0.5165 0.85491 0.81879 0.0
H706 H 0.55331 0.88365 0.90134 0.0
C707 C 0.48288 0.87524 0.81936 0.0
H708 H 0.56829 0.84305 0.8484 0.0
C709 C 0.47445 0.89808 0.84915 0.0
C710 C 0.49956 0.90144 0.87908 0.0
H711 H 0.46274 0.87309 0.79687 0.0
H712 H 0.44789 0.91293 0.84889 0.0
C713 C 0.53372 0.88177 0.8784 0.0
C714 C 0.20365 0.57173 0.82672 0.0
C715 C 0.21518 0.54247 0.80406 0.0
H716 H 0.16152 0.59285 0.86396 0.0
C717 C 0.19087 0.51262 0.79929 0.0
H718 H 0.22197 0.59506 0.83067 0.0
C719 C 0.15656 0.51105 0.81868 0.0
C720 C 0.14568 0.5396 0.84268 0.0
H721 H 0.19931 0.48965 0.7821 0.0
H722 H 0.13916 0.48692 0.81584 0.0
C723 C 0.16901 0.5705 0.84557 0.0
C724 C 0.50263 0.16165 0.82077 0.0
C725 C 0.4727 0.18566 0.82893 0.0
H726 H 0.53949 0.12004 0.84096 0.0
C727 C 0.45284 0.18159 0.86274 0.0
H728 H 0.51878 0.16419 0.79522 0.0
C729 C 0.46487 0.15609 0.88917 0.0
C730 C 0.49707 0.13467 0.88217 0.0
H731 H 0.42943 0.19957 0.86959 0.0
H732 H 0.45091 0.15524 0.91598 0.0
C733 C 0.51473 0.13652 0.84715 0.0
C734 C 0.7935 0.56618 0.85489 0.0
C735 C 0.77734 0.53325 0.84306 0.0
H736 H 0.83714 0.59119 0.8869 0.0
C737 C 0.78791 0.50042 0.86016 0.0
H738 H 0.78576 0.59171 0.84174 0.0
C739 C 0.81781 0.49991 0.88518 0.0
C740 C 0.83693 0.53234 0.89378 0.0
H741 H 0.77597 0.47469 0.85113 0.0
H742 H 0.82792 0.47385 0.8954 0.0
C743 C 0.82291 0.56579 0.88056 0.0
C744 C 0.69837 0.68188 0.01946 0.0
C745 C 0.70158 0.70025 0.98541 0.0
H746 H 0.66574 0.6456 0.05312 0.0
C747 C 0.67216 0.6981 0.95959 0.0
H748 H 0.72064 0.68368 0.03994 0.0
C749 C 0.64082 0.67609 0.96691 0.0
C750 C 0.63833 0.65626 0.00036 0.0
H751 H 0.67416 0.71221 0.93321 0.0
H752 H 0.61911 0.67381 0.94591 0.0
C753 C 0.6669 0.66026 0.02701 0.0
C754 C 0.29353 0.6785 0.05825 0.0
C755 C 0.28446 0.70447 0.031 0.0
H756 H 0.33259 0.63726 0.07604 0.0
C757 C 0.30805 0.70831 -0.00017 0.0
H758 H 0.27541 0.67492 0.08236 0.0
C759 C 0.34001 0.68625 -0.00433 0.0
C760 C 0.3494 0.66033 0.02295 0.0
H761 H 0.30118 0.72773 0.97818 0.0
H762 H 0.35759 0.68983 0.97119 0.0
C763 C 0.32602 0.65688 0.0545 0.0
C764 C 0.31372 0.36202 0.05005 0.0
C765 C 0.3078 0.34004 0.01861 0.0
H766 H 0.34963 0.40101 0.07669 0.0
C767 C 0.33551 0.33874 0.99054 0.0
H768 H 0.29276 0.36325 0.07212 0.0
C769 C 0.36772 0.36039 0.99295 0.0
C770 C 0.37305 0.3835 0.02368 0.0
H771 H 0.33146 0.32223 0.96587 0.0
H772 H 0.3879 0.35984 0.97017 0.0
C773 C 0.34631 0.38336 0.05275 0.0
C774 C 0.71499 0.33955 0.02306 0.0
C775 C 0.73518 0.33769 0.98945 0.0
H776 H 0.66821 0.36326 0.05255 0.0
C777 C 0.7237 0.35904 0.95922 0.0
H778 H 0.72396 0.32372 0.04687 0.0
C779 C 0.69182 0.38142 0.96227 0.0
C780 C 0.6715 0.38341 -0.00409 0.0
H781 H 0.73936 0.35828 0.93325 0.0
H782 H 0.68312 0.39718 0.93832 0.0
C783 C 0.68356 0.36252 0.0264 0.0
C784 C 0.95767 0.64929 0.66954 0.0
C785 C 0.97693 0.6829 0.67039 0.0
H786 H 0.95371 0.59659 0.6439 0.0
C787 C 0.00086 0.69203 0.64056 0.0
H788 H 0.93854 0.64178 0.69187 0.0
C789 C 0.0088 0.66646 0.61289 0.0
C790 C -0.00709 0.63141 0.61446 0.0
H791 H 0.01624 0.71755 0.6403 0.0
H792 H 0.02982 0.67307 0.59193 0.0
C793 C 0.96575 0.62361 0.64177 0.0
C794 C 0.3454 0.03831 0.70265 0.0
C795 C 0.34261 0.00485 0.72123 0.0
H796 H 0.37342 0.06895 0.66043 0.0
C797 C 0.36796 0.97651 0.71264 0.0
H798 H 0.32662 0.06078 0.7096 0.0
C799 C 0.39487 0.9811 0.68464 0.0
C800 C 0.397 0.01427 0.6652 0.0
H801 H 0.36644 0.95064 0.72714 0.0
H802 H 0.41329 0.9584 0.67758 0.0
C803 C 0.3726 0.04312 0.67503 0.0
C804 C 0.03435 0.36198 0.68368 0.0
C805 C 0.00232 0.34088 0.67584 0.0
H806 H 0.06916 0.40675 0.66759 0.0
C807 C 0.97873 0.35099 0.64628 0.0
H808 H 0.05329 0.35446 0.70599 0.0
C809 C -0.01227 0.38123 0.62422 0.0
C810 C 0.02085 0.4012 0.63104 0.0
H811 H 0.95387 0.33503 0.63978 0.0
H812 H 0.9696 0.38806 0.60107 0.0
C813 C 0.04361 0.39171 0.66143 0.0
C814 C 0.69316 0.07341 0.69027 0.0
C815 C 0.71236 0.04241 0.70325 0.0
H816 H 0.65673 0.0958 0.64877 0.0
C817 C 0.70955 0.00947 0.6835 0.0
H818 H 0.69563 0.0993 0.70465 0.0
C819 C 0.68778 0.0075 0.65136 0.0
C820 C 0.66865 0.03855 0.63809 0.0
H821 H 0.72452 0.98533 0.6928 0.0
H822 H 0.68569 0.98153 0.63707 0.0
C823 C 0.67165 0.07157 0.65785 0.0
C824 C 0.02315 0.3598 0.3621 0.0
C825 C 0.0081 0.35833 0.32596 0.0
H826 H 0.02312 0.38766 0.41483 0.0
C827 C 0.98017 0.38388 0.31598 0.0
H828 H 0.04486 0.34072 0.37065 0.0
C829 C 0.9689 0.41116 0.34055 0.0
C830 C -0.01579 0.41305 0.37632 0.0
H831 H 0.96692 0.38299 0.28893 0.0
H832 H 0.94758 0.43051 0.3316 0.0
C833 C 0.01102 0.38681 0.38725 0.0
C834 C 0.64351 0.08244 0.29454 0.0
C835 C 0.66009 0.05131 0.27871 0.0
H836 H 0.60299 0.10316 0.33327 0.0
C837 C 0.64375 0.01698 0.28456 0.0
H838 H 0.656 0.1091 0.29028 0.0
C839 C 0.61386 0.01327 0.30973 0.0
C840 C 0.60011 0.04396 0.32912 0.0
H841 H 0.6565 0.99267 0.27263 0.0
H842 H 0.60393 0.98608 0.31639 0.0
C843 C 0.61331 0.07886 0.31924 0.0
C844 C 0.0406 0.66663 0.35011 0.0
C845 C 0.01455 0.69529 0.34559 0.0
H846 H 0.0522 0.61547 0.37699 0.0
C847 C 0.98045 0.69483 0.36553 0.0
H848 H 0.06713 0.66662 0.3349 0.0
C849 C 0.97196 0.66602 0.38906 0.0
C850 C -0.00259 0.63681 0.39344 0.0
H851 H 0.95979 0.7165 0.3622 0.0
H852 H 0.94491 0.66645 0.40337 0.0
C853 C 0.03219 0.63762 0.37427 0.0
C854 C 0.29185 0.97885 0.33953 0.0
C855 C 0.2869 0.00772 0.31454 0.0
H856 H 0.31869 0.96086 0.38945 0.0
C857 C 0.29921 0.04282 0.32425 0.0
H858 H 0.2826 0.95156 0.33238 0.0
C859 C 0.31933 0.04839 0.35704 0.0
C860 C 0.32818 0.01867 0.38011 0.0
H861 H 0.29557 0.06541 0.30517 0.0
H862 H 0.33108 0.07518 0.36227 0.0
C863 C 0.31246 0.98426 0.37212 0.0
C864 C -0.00314 0.19557 0.34413 0.0
C865 C 0.02649 0.18647 0.31971 0.0
H866 H 0.96367 0.17958 0.39126 0.0
C867 C 0.04926 0.15595 0.32781 0.0
H868 H 0.97925 0.21923 0.33882 0.0
C869 C 0.04063 0.13332 0.35817 0.0
C870 C 0.00898 0.14076 0.38079 0.0
H871 H 0.07254 0.14858 0.30957 0.0
H872 H 0.05726 0.10888 0.36246 0.0
C873 C -0.01197 0.17284 0.37415 0.0
C874 C 0.79868 0.07695 0.33653 0.0
C875 C 0.79514 0.05121 0.30775 0.0
H876 H 0.82686 0.09138 0.38713 0.0
C877 C 0.81673 0.01911 0.30878 0.0
H878 H 0.78182 0.10169 0.33647 0.0
C879 C 0.84143 0.0127 0.33802 0.0
C880 C 0.84557 0.03853 0.36669 0.0
H881 H 0.81379 0.99846 0.28738 0.0
H882 H 0.85781 0.98766 0.33767 0.0
C883 C 0.82406 0.07086 0.36561 0.0
C884 C 0.02328 0.85935 0.31189 0.0
C885 C 0.00491 0.8278 0.32479 0.0
H886 H 0.03074 0.91719 0.31829 0.0
C887 C 0.979 0.83104 0.35445 0.0
H888 H 0.04358 0.85764 0.28929 0.0
C889 C 0.97196 0.86475 0.37123 0.0
C890 C -0.00963 0.89635 0.35863 0.0
H891 H 0.96386 0.80738 0.36466 0.0
H892 H 0.95166 0.86602 0.39386 0.0
C893 C 0.01611 0.89333 0.32871 0.0
C894 C 0.14143 0.04057 0.27392 0.0
C895 C 0.14323 0.0068 0.25542 0.0
H896 H 0.12268 0.06981 0.32233 0.0
C897 C 0.12645 0.97614 0.27184 0.0
H898 H 0.15422 0.0646 0.26174 0.0
C899 C 0.10871 0.97893 0.30648 0.0
C900 C 0.10711 0.01259 0.3254 0.0
H901 H 0.12754 0.94985 0.25801 0.0
H902 H 0.09649 0.95455 0.31851 0.0
C903 C 0.12341 0.04348 0.30858 0.0
C904 C -0.00632 0.84641 0.66768 0.0
C905 C 0.97276 0.85496 0.69994 0.0
H906 H 0.02376 0.86663 0.62014 0.0
C907 C 0.9635 0.89163 0.70708 0.0
H908 H 0.00057 0.81834 0.66103 0.0
C909 C 0.97657 0.91934 0.68356 0.0
C910 C -0.00103 0.91094 0.6522 0.0
H911 H 0.94661 0.89894 0.7312 0.0
H912 H 0.96961 0.9474 0.69034 0.0
C913 C 0.00676 0.8741 0.64414 0.0
C914 C 0.17722 0.03549 0.70138 0.0
C915 C 0.18458 1.0005 0.71558 0.0
H916 H 0.15768 0.0669 0.65523 0.0
C917 C 0.18384 0.97042 0.6914 0.0
H918 H 0.17781 0.05912 0.71951 0.0
C919 C 0.17252 0.97479 0.65451 0.0
C920 C 0.16143 0.00932 0.64123 0.0
H921 H 0.18974 0.9432 0.7016 0.0
H922 H 0.16938 0.95066 0.63734 0.0
C923 C 0.16613 0.03994 0.6644 0.0
C924 C 0.97871 0.17821 0.66795 0.0
C925 C 0.00485 0.20683 0.67162 0.0
H926 H 0.96602 0.12692 0.64146 0.0
C927 C 0.03857 0.20554 0.65093 0.0
H928 H 0.95231 0.17886 0.68336 0.0
C929 C 0.0464 0.17623 0.62733 0.0
C930 C 0.02052 0.14746 0.62333 0.0
H931 H 0.059 0.22744 0.65305 0.0
H932 H 0.07292 0.17618 0.61208 0.0
C933 C -0.01362 0.1488 0.64372 0.0
C934 C 0.86446 0.07282 0.72586 0.0
C935 C 0.84529 0.04173 0.73853 0.0
H936 H 0.90496 0.09421 0.68727 0.0
C937 C 0.85817 0.00707 0.72743 0.0
H938 H 0.85465 0.09983 0.73368 0.0
C939 C 0.88678 1.00371 0.70069 0.0
C940 C 0.90261 0.03504 0.68428 0.0
H941 H 0.84347 0.98274 0.7366 0.0
H942 H 0.89395 0.97667 0.69056 0.0
C943 C 0.89289 0.06953 0.69885 0.0
C944 C 0.32064 0.98508 0.14696 0.0
C945 C 0.32065 0.00575 0.18001 0.0
H946 H 0.34486 0.97723 0.0927 0.0
C947 C 0.34773 0.03352 0.18402 0.0
H948 H 0.30068 0.96304 0.14312 0.0
C949 C 0.37353 0.04095 0.15566 0.0
C950 C 0.37255 0.02134 0.12212 0.0
H951 H 0.34832 0.05058 0.20861 0.0
H952 H 0.39324 0.0632 0.15954 0.0
C953 C 0.34623 0.99292 0.11821 0.0
C954 C 0.07239 0.34118 0.1763 0.0
C955 C 0.03785 0.3335 0.1939 0.0
H956 H 0.10099 0.37262 0.13461 0.0
C957 C 0.00432 0.34775 0.17882 0.0
H958 H 0.09862 0.3309 0.18771 0.0
C959 C 0.00553 0.37182 0.14871 0.0
C960 C 0.0404 0.3824 0.13327 0.0
H961 H 0.97735 0.34241 0.19218 0.0
H962 H 0.97934 0.38401 0.13928 0.0
C963 C 0.07367 0.36542 0.14618 0.0
C964 C 0.68932 0.07282 0.11192 0.0
C965 C 0.70972 0.04693 0.13246 0.0
H966 H 0.64138 0.083 0.07734 0.0
C967 C 0.69615 0.01092 0.13454 0.0
H968 H 0.69939 0.10063 0.10957 0.0
C969 C 0.66274 1.00114 0.11688 0.0
C970 C 0.64287 0.02674 0.09548 0.0
H971 H 0.71149 0.99007 0.14959 0.0
H972 H 0.65353 0.973 0.11854 0.0
C973 C 0.65618 0.06277 0.09353 0.0
C974 C 0.96381 0.68018 0.15534 0.0
C975 C -0.00794 0.69527 0.17813 0.0
H976 H 0.94963 0.63953 0.11454 0.0
C977 C 0.028 0.67882 0.17817 0.0
H978 H 0.93571 0.69203 0.15514 0.0
C979 C 0.03591 0.64922 0.1549 0.0
C980 C 0.00813 0.63476 0.13118 0.0
H981 H 0.05039 0.68897 0.19574 0.0
H982 H 0.06423 0.63785 0.15527 0.0
C983 C 0.97168 0.65008 0.1322 0.0
C984 C 0.35018 0.96865 0.86296 0.0
C985 C 0.32041 0.99278 0.85457 0.0
H986 H 0.40184 0.96128 0.89239 0.0
C987 C 0.31523 0.02412 0.87648 0.0
H988 H 0.35475 0.94429 0.84637 0.0
C989 C 0.34226 0.03369 0.90273 0.0
C990 C 0.37457 0.01188 0.90776 0.0
H991 H 0.29273 0.04334 0.87053 0.0
H992 H 0.33922 0.0595 0.91724 0.0
C993 C 0.37724 0.97831 0.88929 0.0
C994 C 0.01901 0.33908 0.82866 0.0
C995 C -0.01242 0.31648 0.83568 0.0
H996 H 0.04468 0.39149 0.83693 0.0
C997 C 0.95932 0.32918 0.86013 0.0
H998 H 0.04192 0.32994 0.81083 0.0
C999 C 0.96134 0.36417 0.87576 0.0
C1000 C -0.00835 0.38754 0.86719 0.0
H1001 H 0.9352 0.31215 0.86668 0.0
H1002 H 0.93838 0.37333 0.89352 0.0
C1003 C 0.02076 0.37436 0.84388 0.0
C1004 C 0.67535 0.08002 0.87131 0.0
C1005 C 0.70641 0.05652 0.86603 0.0
H1006 H 0.61743 0.08513 0.88886 0.0
C1007 C 0.70123 0.01884 0.87057 0.0
H1008 H 0.67853 0.10911 0.86712 0.0
C1009 C 0.66648 0.00517 0.88278 0.0
C1010 C 0.63618 0.0289 0.89108 0.0
H1011 H 0.7246 1.00007 0.86634 0.0
H1012 H 0.66412 0.9761 0.88783 0.0
C1013 C 0.64052 0.06634 0.88386 0.0
C1014 C 0.97249 0.69631 0.83899 0.0
C1015 C -0.00585 0.68837 0.80722 0.0
H1016 H 0.95439 0.67848 0.89281 0.0
C1017 C 0.0189 0.65816 0.80792 0.0
H1018 H 0.95328 0.71941 0.83929 0.0
C1019 C 0.01957 0.63458 0.83847 0.0
C1020 C -0.00466 0.64065 0.86892 0.0
H1021 H 0.0365 0.6518 0.784 0.0
H1022 H 0.03743 0.61053 0.83722 0.0
C1023 C 0.97305 0.67267 0.86954 0.0
C1024 C 0.15984 0.3724 0.0289 0.0
C1025 C 0.16837 0.34474 0.00297 0.0
H1026 H 0.12886 0.42147 0.04026 0.0
C1027 C 0.1471 0.34275 0.97013 0.0
H1028 H 0.17536 0.37433 0.0547 0.0
C1029 C 0.12041 0.36973 0.96184 0.0
C1030 C 0.1144 0.39924 0.98624 0.0
H1031 H 0.15304 0.32192 0.94948 0.0
H1032 H 0.10616 0.36857 0.93529 0.0
C1033 C 0.13308 0.39935 0.02064 0.0
C1034 C 0.13904 0.67136 0.05002 0.0
C1035 C 0.14494 0.70196 0.02713 0.0
H1036 H 0.11212 0.61973 0.05617 0.0
C1037 C 0.12191 0.70665 -0.00412 0.0
H1038 H 0.1561 0.6673 0.07461 0.0
C1039 C 0.09675 0.67918 0.98535 0.0
C1040 C 0.0941 0.64651 0.00588 0.0
H1041 H 0.12577 0.7299 0.97769 0.0
H1042 H 0.08148 0.68244 0.95954 0.0
C1043 C 0.11377 0.64397 0.0395 0.0
C1044 C 0.30518 0.18244 0.96909 0.0
C1045 C 0.28679 0.19192 0.00246 0.0
H1046 H 0.35511 0.16063 0.94337 0.0
C1047 C 0.30714 0.19065 0.03581 0.0
H1048 H 0.2901 0.18358 0.943 0.0
C1049 C 0.3444 0.17773 0.03613 0.0
C1050 C 0.36211 0.16582 0.00307 0.0
H1051 H 0.29376 0.19831 0.06185 0.0
H1052 H 0.35861 0.17521 0.06261 0.0
C1053 C 0.34255 0.1697 0.96933 0.0
C1054 C 0.88101 0.36462 0.96024 0.0
C1055 C 0.87408 0.33713 0.98659 0.0
H1056 H 0.90768 0.41568 0.94882 0.0
C1057 C 0.89494 0.33685 0.01965 0.0
H1058 H 0.8651 0.36542 0.93459 0.0
C1059 C 0.91914 0.36583 0.02804 0.0
C1060 C 0.92296 0.39539 0.00335 0.0
H1061 H 0.88978 0.31615 0.04055 0.0
H1062 H 0.93266 0.36636 0.05498 0.0
C1063 C 0.90535 0.39344 0.96849 0.0
C1064 C 0.70129 0.85044 0.02033 0.0
C1065 C 0.72072 0.84776 0.98629 0.0
H1066 H 0.65083 0.86764 0.04852 0.0
C1067 C 0.70188 0.85716 0.95341 0.0
H1068 H 0.7152 0.84334 0.04608 0.0
C1069 C 0.66484 0.87052 0.95463 0.0
C1070 C 0.64611 0.87551 0.98889 0.0
H1071 H 0.71633 0.85541 0.92683 0.0
H1072 H 0.65193 0.87922 0.92887 0.0
C1073 C 0.66431 0.8641 0.02163 0.0
C1074 C 0.84834 0.66865 0.95674 0.0
C1075 C 0.84118 0.70006 0.97813 0.0
H1076 H 0.87936 0.61881 0.95204 0.0
C1077 C 0.86425 0.70773 0.00867 0.0
H1078 H 0.83071 0.66223 0.93308 0.0
C1079 C 0.89151 0.68242 0.0199 0.0
C1080 C 0.89643 0.64936 0.00042 0.0
H1081 H 0.85903 0.73169 0.02567 0.0
H1082 H 0.90708 0.68768 0.0452 0.0
C1083 C 0.87614 0.64373 0.96758 0.0
C1084 C 0.26597 0.87687 0.02868 0.0
C1085 C 0.2539 0.8618 -0.00518 0.0
H1086 H 0.3078 0.9083 0.05701 0.0
C1087 C 0.2741 0.87032 0.96219 0.0
H1088 H 0.25039 0.87181 0.05415 0.0
C1089 C 0.30682 0.89179 0.96365 0.0
C1090 C 0.32 0.90532 -0.00217 0.0
H1091 H 0.26483 0.85991 0.93557 0.0
H1092 H 0.32228 0.89696 0.93812 0.0
C1093 C 0.29878 0.89806 0.03022 0.0
C1094 C 0.73776 0.17135 0.93974 0.0
C1095 C 0.76073 0.17809 0.97079 0.0
H1096 H 0.68582 0.14887 0.91952 0.0
C1097 C 0.74928 0.16477 0.00563 0.0
H1098 H 0.74625 0.18078 0.91243 0.0
C1099 C 0.71495 0.14633 0.00964 0.0
C1100 C 0.69145 0.14023 0.97877 0.0
H1101 H 0.7668 0.16885 0.02988 0.0
H1102 H 0.70682 0.1369 0.03707 0.0
C1103 C 0.7034 0.15271 0.94371 0.0
C1104 C 0.48449 0.67279 0.81037 0.0
C1105 C 0.51668 0.69397 0.80278 0.0
H1106 H 0.45334 0.64176 0.8505 0.0
C1107 C 0.54379 0.69843 0.83091 0.0
H1108 H 0.46358 0.66822 0.78898 0.0
C1109 C 0.53792 0.68338 0.86627 0.0
C1110 C 0.50522 0.66293 0.87409 0.0
H1111 H 0.56943 0.71374 0.82577 0.0
H1112 H 0.55901 0.68786 0.88751 0.0
C1113 C 0.47879 0.65745 0.84555 0.0
C1114 C 0.35626 0.56368 0.85449 0.0
C1115 C 0.35388 0.53832 0.82521 0.0
H1116 H 0.38037 0.5768 0.90728 0.0
C1117 C 0.37846 0.50809 0.82511 0.0
H1118 H 0.33794 0.58743 0.85511 0.0
C1119 C 0.40264 0.50178 0.85517 0.0
C1120 C 0.40287 0.5257 0.88586 0.0
H1121 H 0.37716 0.48797 0.80305 0.0
H1122 H 0.41966 0.47714 0.85521 0.0
C1123 C 0.38061 0.55754 0.88439 0.0
C1124 C 0.50828 0.33797 0.81898 0.0
C1125 C 0.47335 0.31984 0.82066 0.0
H1126 H 0.54563 0.37624 0.84501 0.0
C1127 C 0.44691 0.33054 0.84793 0.0
H1128 H 0.52942 0.32987 0.79863 0.0
C1129 C 0.45609 0.357 0.87452 0.0
C1130 C 0.49221 0.37302 0.87482 0.0
H1131 H 0.41991 0.31675 0.85005 0.0
H1132 H 0.43561 0.36325 0.89613 0.0
C1133 C 0.51768 0.36422 0.84585 0.0
C1134 C 0.63069 0.48264 0.83092 0.0
C1135 C 0.6255 0.50843 0.80244 0.0
H1136 H 0.62138 0.46917 0.88827 0.0
C1137 C 0.60318 0.53941 0.80972 0.0
H1138 H 0.64686 0.45797 0.82579 0.0
C1139 C 0.58787 0.54545 0.84516 0.0
C1140 C 0.59465 0.52065 0.87421 0.0
H1141 H 0.59791 0.55924 0.78803 0.0
H1142 H 0.57158 0.57013 0.85 0.0
C1143 C 0.61591 0.48896 0.86659 0.0
C1144 C 0.45487 0.37322 0.17331 0.0
C1145 C 0.48035 0.35661 0.19817 0.0
H1146 H 0.44773 0.40536 0.1237 0.0
C1147 C 0.51931 0.36162 0.19211 0.0
H1148 H 0.42468 0.37035 0.17759 0.0
C1149 C 0.53238 0.38138 0.16142 0.0
C1150 C 0.50703 0.39726 0.136 0.0
H1151 H 0.53996 0.35008 0.21087 0.0
H1152 H 0.56266 0.38415 0.15762 0.0
C1153 C 0.46802 0.39339 0.14257 0.0
C1154 C 0.61852 0.49099 0.19357 0.0
C1155 C 0.64559 0.46303 0.19093 0.0
H1156 H 0.58131 0.52701 0.16465 0.0
C1157 C 0.6524 0.44674 0.15596 0.0
H1158 H 0.61197 0.50343 0.22019 0.0
C1159 C 0.63417 0.45983 0.12393 0.0
C1160 C 0.60907 0.48952 0.12647 0.0
H1161 H 0.67261 0.42462 0.15325 0.0
H1162 H 0.64116 0.44804 0.09714 0.0
C1163 C 0.60084 0.50431 0.16175 0.0
C1164 C 0.50448 0.6879 0.19547 0.0
C1165 C 0.53791 0.708 0.1913 0.0
H1166 H 0.4686 0.64651 0.17283 0.0
C1167 C 0.5638 0.69787 0.16323 0.0
H1168 H 0.48376 0.69565 0.21638 0.0
C1169 C 0.5554 0.66939 0.13845 0.0
C1170 C 0.52045 0.65136 0.14074 0.0
H1171 H 0.58944 0.71348 0.15906 0.0
H1172 H 0.57488 0.66346 0.11587 0.0
C1173 C 0.4957 0.66005 0.17029 0.0
C1174 C 0.37726 0.59683 0.16122 0.0
C1175 C 0.36749 0.57503 0.19186 0.0
H1176 H 0.40612 0.59917 0.10941 0.0
C1177 C 0.38819 0.54312 0.19871 0.0
H1178 H 0.3614 0.62151 0.15534 0.0
C1179 C 0.41412 0.53039 0.17219 0.0
C1180 C 0.41944 0.54938 0.13851 0.0
H1181 H 0.38097 0.52575 0.22203 0.0
H1182 H 0.42712 0.50392 0.17651 0.0
C1183 C 0.40282 0.5839 0.1346 0.0
C1184 C 0.81786 0.56186 0.70251 0.0
C1185 C 0.79486 0.53099 0.70833 0.0
H1186 H 0.86464 0.58515 0.67246 0.0
C1187 C 0.80196 0.49941 0.68734 0.0
H1188 H 0.8132 0.58653 0.71856 0.0
C1189 C 0.83172 0.49836 0.66171 0.0
C1190 C 0.85508 0.52901 0.65598 0.0
H1191 H 0.78541 0.47494 0.69172 0.0
H1192 H 0.83627 0.47329 0.64629 0.0
C1193 C 0.84751 0.56098 0.6764 0.0
C1194 C 0.49439 0.86558 0.67367 0.0
C1195 C 0.52538 0.84289 0.68189 0.0
H1196 H 0.47315 0.90968 0.6409 0.0
C1197 C 0.55713 0.84347 0.65831 0.0
H1198 H 0.46941 0.8654 0.69129 0.0
C1199 C 0.55944 0.86906 0.62946 0.0
C1200 C 0.52998 0.89441 0.62376 0.0
H1201 H 0.58141 0.82634 0.66409 0.0
H1202 H 0.5854 0.87063 0.61342 0.0
C1203 C 0.4966 0.89101 0.64485 0.0
C1204 C 0.24819 0.51056 0.6409 0.0
C1205 C 0.26084 0.54506 0.65232 0.0
H1206 H 0.20448 0.47963 0.61504 0.0
C1207 C 0.23859 0.57591 0.64434 0.0
H1208 H 0.2651 0.48642 0.64614 0.0
C1209 C 0.20383 0.57219 0.62615 0.0
C1210 C 0.19067 0.5375 0.61557 0.0
H1211 H 0.24799 0.6029 0.65234 0.0
H1212 H 0.18716 0.59645 0.62074 0.0
C1213 C 0.21346 0.50678 0.62298 0.0
C1214 C 0.50348 0.20359 0.64328 0.0
C1215 C 0.4669 0.20096 0.65826 0.0
H1216 H 0.54734 0.17812 0.61148 0.0
C1217 C 0.44514 0.16989 0.64971 0.0
H1218 H 0.5206 0.22751 0.64856 0.0
C1219 C 0.46033 0.14142 0.62786 0.0
C1220 C 0.49758 0.1435 0.61419 0.0
H1221 H 0.41653 0.16743 0.66028 0.0
H1222 H 0.44328 0.11756 0.62249 0.0
C1223 C 0.51869 0.17521 0.62187 0.0
C1224 C 0.79802 0.46592 0.35252 0.0
C1225 C 0.77957 0.49703 0.33873 0.0
H1226 H 0.84063 0.44508 0.38907 0.0
C1227 C 0.78641 0.53099 0.35546 0.0
H1228 H 0.79391 0.43962 0.33935 0.0
C1229 C 0.81368 0.53437 0.38319 0.0
C1230 C 0.83468 0.50381 0.3948 0.0
H1231 H 0.77313 0.55546 0.34468 0.0
H1232 H 0.81985 0.56134 0.39393 0.0
C1233 C 0.82517 0.46921 0.38058 0.0
C1234 C 0.48358 0.83011 0.36676 0.0
C1235 C 0.51539 0.82573 0.34356 0.0
H1236 H 0.44961 0.86638 0.39975 0.0
C1237 C 0.53886 0.85613 0.33727 0.0
H1238 H 0.46538 0.80706 0.37265 0.0
C1239 C 0.52972 0.89034 0.35266 0.0
C1240 C 0.49734 0.8948 0.37525 0.0
H1241 H 0.56411 0.85369 0.32029 0.0
H1242 H 0.54802 0.91331 0.34678 0.0
C1243 C 0.47467 0.8641 0.38243 0.0
C1244 C 0.20278 0.58063 0.33411 0.0
C1245 C 0.22474 0.55061 0.32257 0.0
H1246 H 0.15046 0.59901 0.3579 0.0
C1247 C 0.20806 0.51589 0.32157 0.0
H1248 H 0.21506 0.60766 0.33529 0.0
C1249 C 0.17106 0.51085 0.33446 0.0
C1250 C 0.15003 0.54042 0.34884 0.0
H1251 H 0.22435 0.49229 0.31277 0.0
H1252 H 0.15993 0.48334 0.33566 0.0
C1253 C 0.16563 0.57566 0.34675 0.0
C1254 C 0.46505 0.20792 0.34988 0.0
C1255 C 0.49711 0.20419 0.32707 0.0
H1256 H 0.43227 0.1854 0.39443 0.0
C1257 C 0.52426 0.17738 0.33618 0.0
H1258 H 0.44363 0.22817 0.34361 0.0
C1259 C 0.51792 0.1529 0.36553 0.0
C1260 C 0.48405 0.15442 0.38596 0.0
H1261 H 0.5495 0.17408 0.31928 0.0
H1262 H 0.53824 0.13135 0.3704 0.0
C1263 C 0.4585 0.18319 0.37885 0.0
C1264 C 0.68505 0.88187 0.51795 0.0
C1265 C 0.69167 0.85638 0.48932 0.0
H1266 H 0.65323 0.92818 0.53681 0.0
C1267 C 0.66675 0.85557 0.45906 0.0
H1268 H 0.70368 0.88296 0.54174 0.0
C1269 C 0.63778 0.88176 0.45604 0.0
C1270 C 0.63325 0.90923 0.48326 0.0
H1271 H 0.6713 0.83638 0.43652 0.0
H1272 H 0.62039 0.88173 0.43136 0.0
C1273 C 0.65621 0.90791 0.51501 0.0
C1274 C 0.68566 0.15548 0.52595 0.0
C1275 C 0.68885 0.18759 0.50451 0.0
H1276 H 0.65289 0.10763 0.53822 0.0
C1277 C 0.65767 0.19879 0.4834 0.0
H1278 H 0.70894 0.14645 0.54311 0.0
C1279 C 0.62558 0.17675 0.481 0.0
C1280 C 0.62372 0.14312 0.49984 0.0
H1281 H 0.65907 0.22326 0.46659 0.0
H1282 H 0.60309 0.18499 0.46244 0.0
C1283 C 0.65333 0.13347 0.52369 0.0
C1284 C 0.81072 0.67 0.48047 0.0
C1285 C 0.80637 0.69659 0.50835 0.0
H1286 H 0.84257 0.62411 0.4603 0.0
C1287 C 0.83394 0.69898 0.53625 0.0
H1288 H 0.78997 0.66769 0.45857 0.0
C1289 C 0.86405 0.67402 0.53744 0.0
C1290 C 0.8673 0.64596 0.51075 0.0
H1291 H 0.83144 0.71936 0.55799 0.0
H1292 H 0.88393 0.67591 0.56015 0.0
C1293 C 0.84087 0.64503 0.48157 0.0
C1294 C 0.33883 0.84261 0.55021 0.0
C1295 C 0.31626 0.83684 0.51881 0.0
H1296 H 0.38431 0.87302 0.57421 0.0
C1297 C 0.32572 0.85471 0.48546 0.0
H1298 H 0.33178 0.82961 0.57636 0.0
C1299 C 0.3557 0.87958 0.48409 0.0
C1300 C 0.37657 0.88755 0.51624 0.0
H1301 H 0.30851 0.85092 0.46094 0.0
H1302 H 0.36106 0.89405 0.45837 0.0
C1303 C 0.36866 0.86778 0.54897 0.0
C1304 C 0.17724 0.34787 0.49578 0.0
C1305 C 0.20378 0.35338 0.52426 0.0
H1306 H 0.1338 0.37137 0.46202 0.0
C1307 C 0.20385 0.38704 0.54304 0.0
H1308 H 0.17551 0.32187 0.48155 0.0
C1309 C 0.17955 0.4153 0.53223 0.0
C1310 C 0.15441 0.41047 0.50245 0.0
H1311 H 0.22314 0.39165 0.56585 0.0
H1312 H 0.18101 0.44115 0.5468 0.0
C1313 C 0.15308 0.3762 0.48479 0.0
C1314 C 0.34777 0.19597 0.52495 0.0
C1315 C 0.31715 0.18832 0.50171 0.0
H1316 H 0.4 0.17671 0.54741 0.0
C1317 C 0.31951 0.15793 0.47763 0.0
H1318 H 0.34675 0.21906 0.54379 0.0
C1319 C 0.35019 0.13367 0.47944 0.0
C1320 C 0.37877 0.13926 0.50565 0.0
H1321 H 0.29635 0.15163 0.45913 0.0
H1322 H 0.34976 0.10902 0.46281 0.0
C1323 C 0.37819 0.17158 0.52703 0.0
C1324 C 0.79327 0.38834 0.46758 0.0
C1325 C 0.7992 0.35268 0.48066 0.0
H1326 H 0.81085 0.44421 0.46906 0.0
C1327 C 0.83053 0.34577 0.50356 0.0
H1328 H 0.77004 0.39425 0.44902 0.0
C1329 C 0.85404 0.37431 0.51498 0.0
C1330 C 0.84692 0.41032 0.50345 0.0
H1331 H 0.8364 0.3184 0.51329 0.0
H1332 H 0.87719 0.36825 0.53358 0.0
C1333 C 0.81675 0.41688 0.47897 0.0
C1334 C 0.1834 0.65841 0.54162 0.0
C1335 C 0.1954 0.68456 0.51552 0.0
H1336 H 0.14364 0.61617 0.55457 0.0
C1337 C 0.17278 0.6911 0.48432 0.0
H1338 H 0.20012 0.65314 0.56618 0.0
C1339 C 0.14081 0.66968 0.47757 0.0
C1340 C 0.13037 0.64133 0.50203 0.0
H1341 H 0.18099 0.71146 0.46403 0.0
H1342 H 0.12534 0.67422 0.45208 0.0
C1343 C 0.15107 0.63714 0.53499 0.0
loop_
_geom_bond_atom_site_label_1
_geom_bond_atom_site_label_2
_geom_bond_distance
_geom_bond_site_symmetry_2
_ccdc_geom_bond_type
H0 C7 0.929 . S
H1 C10 0.930 . S
H2 C12 0.929 . S
H3 C4 0.969 . S
C4 H3 0.969 . S
C4 O5 1.550 . S
C4 H6 0.973 . S
O5 C4 1.550 . S
O5 C11 1.412 . S
H6 C4 0.973 . S
C7 H0 0.929 . S
C7 C8 1.400 . S
C7 C9 1.364 . S
C8 C7 1.400 . S
C8 C12 1.377 . S
C9 C7 1.364 . S
C9 C10 1.374 . S
C10 H1 0.930 . S
C10 C9 1.374 . S
C10 C11 1.383 . S
C11 O5 1.412 . S
C11 C10 1.383 . S
C11 C12 1.394 . S
C12 H2 0.929 . S
C12 C8 1.377 . S
C12 C11 1.394 . S
H13 C20 0.929 . S
H14 C23 0.930 . S
H15 C25 0.929 . S
H16 C17 0.969 . S
C17 H16 0.969 . S
C17 O18 1.550 . S
C17 H19 0.973 . S
O18 C17 1.550 . S
O18 C24 1.412 . S
H19 C17 0.973 . S
C20 H13 0.929 . S
C20 C21 1.400 . S
C20 C22 1.364 . S
C21 C20 1.400 . S
C21 C25 1.377 . S
C22 C20 1.364 . S
C22 C23 1.374 . S
C23 H14 0.930 . S
C23 C22 1.374 . S
C23 C24 1.383 . S
C24 O18 1.412 . S
C24 C23 1.383 . S
C24 C25 1.394 . S
C25 H15 0.929 . S
C25 C21 1.377 . S
C25 C24 1.394 . S
H26 C33 0.929 . S
H27 C36 0.930 . S
H28 C38 0.929 . S
H29 C30 0.969 1_655 S
C30 H29 0.969 1_455 S
C30 O31 1.550 . S
C30 H32 0.973 . S
O31 C30 1.550 . S
O31 C37 1.412 . S
H32 C30 0.973 . S
C33 H26 0.929 . S
C33 C34 1.400 . S
C33 C35 1.364 . S
C34 C33 1.400 . S
C34 C38 1.377 . S
C35 C33 1.364 . S
C35 C36 1.374 . S
C36 H27 0.930 . S
C36 C35 1.374 . S
C36 C37 1.383 . S
C37 O31 1.412 . S
C37 C36 1.383 . S
C37 C38 1.394 . S
C38 H28 0.929 . S
C38 C34 1.377 . S
C38 C37 1.394 . S
H39 C46 0.929 . S
H40 C49 0.932 . S
H41 C51 0.929 . S
H42 C43 0.969 . S
C43 H42 0.969 . S
C43 O44 1.550 1_545 S
C43 H45 0.973 1_545 S
O44 C43 1.550 1_565 S
O44 C50 1.412 1_565 S
H45 C43 0.973 1_565 S
C46 H39 0.929 . S
C46 C47 1.400 . S
C46 C48 1.364 . S
C47 C46 1.400 . S
C47 C51 1.377 . S
C48 C46 1.364 . S
C48 C49 1.374 . S
C49 H40 0.932 . S
C49 C48 1.374 . S
C49 C50 1.383 . S
C50 O44 1.412 1_545 S
C50 C49 1.383 . S
C50 C51 1.394 . S
C51 H41 0.929 . S
C51 C47 1.377 . S
C51 C50 1.394 . S
H52 C59 0.929 . S
H53 C62 0.930 1_455 S
H54 C64 0.929 . S
H55 C56 0.969 . S
C56 H55 0.969 . S
C56 O57 1.550 1_655 S
C56 H58 0.973 1_655 S
O57 C56 1.550 1_455 S
O57 C63 1.412 1_455 S
H58 C56 0.973 1_455 S
C59 H52 0.929 . S
C59 C60 1.400 . S
C59 C61 1.364 . S
C60 C59 1.400 . S
C60 C64 1.377 . S
C61 C59 1.364 . S
C61 C62 1.374 1_455 S
C62 H53 0.930 1_655 S
C62 C61 1.374 1_655 S
C62 C63 1.383 . S
C63 O57 1.412 1_655 S
C63 C62 1.383 . S
C63 C64 1.394 1_655 S
C64 H54 0.929 . S
C64 C60 1.377 . S
C64 C63 1.394 1_455 S
H65 C72 0.929 . S
H66 C75 0.930 . S
H67 C77 0.929 . S
H68 C69 0.993 . S
C69 H68 0.993 . S
C69 O70 1.542 1_565 S
C69 H71 0.963 1_565 S
O70 C69 1.542 1_545 S
O70 C76 1.412 . S
H71 C69 0.963 1_545 S
C72 H65 0.929 . S
C72 C73 1.400 . S
C72 C74 1.364 . S
C73 C72 1.400 . S
C73 C77 1.377 . S
C74 C72 1.364 . S
C74 C75 1.374 . S
C75 H66 0.930 . S
C75 C74 1.374 . S
C75 C76 1.383 . S
C76 O70 1.412 . S
C76 C75 1.383 . S
C76 C77 1.394 . S
C77 H67 0.929 . S
C77 C73 1.377 . S
C77 C76 1.394 . S
H78 C85 0.929 . S
H79 C88 0.930 . S
H80 C90 0.929 . S
H81 C82 0.969 1_655 S
C82 H81 0.969 1_455 S
C82 O83 1.550 . S
C82 H84 0.973 . S
O83 C82 1.550 . S
O83 C89 1.412 . S
H84 C82 0.973 . S
C85 H78 0.929 . S
C85 C86 1.400 . S
C85 C87 1.364 . S
C86 C85 1.400 . S
C86 C90 1.377 . S
C87 C85 1.364 . S
C87 C88 1.374 . S
C88 H79 0.930 . S
C88 C87 1.374 . S
C88 C89 1.383 . S
C89 O83 1.412 . S
C89 C88 1.383 . S
C89 C90 1.394 . S
C90 H80 0.929 . S
C90 C86 1.377 . S
C90 C89 1.394 . S
H91 C98 0.929 . S
H92 C101 0.930 . S
H93 C103 0.929 . S
H94 C95 0.969 . S
C95 H94 0.969 . S
C95 O96 1.550 . S
C95 H97 0.973 . S
O96 C95 1.550 . S
O96 C102 1.412 . S
H97 C95 0.973 . S
C98 H91 0.929 . S
C98 C99 1.400 . S
C98 C100 1.364 . S
C99 C98 1.400 . S
C99 C103 1.377 . S
C100 C98 1.364 . S
C100 C101 1.374 . S
C101 H92 0.930 . S
C101 C100 1.374 . S
C101 C102 1.383 . S
C102 O96 1.412 . S
C102 C101 1.383 . S
C102 C103 1.394 . S
C103 H93 0.929 . S
C103 C99 1.377 . S
C103 C102 1.394 . S
H104 C111 0.929 . S
H105 C114 0.930 . S
H106 C116 0.929 . S
H107 C108 0.969 . S
C108 H107 0.969 . S
C108 O109 1.550 . S
C108 H110 0.973 . S
O109 C108 1.550 . S
O109 C115 1.412 . S
H110 C108 0.973 . S
C111 H104 0.929 . S
C111 C112 1.400 . S
C111 C113 1.364 . S
C112 C111 1.400 . S
C112 C116 1.377 . S
C113 C111 1.364 . S
C113 C114 1.374 . S
C114 H105 0.930 . S
C114 C113 1.374 . S
C114 C115 1.383 . S
C115 O109 1.412 . S
C115 C114 1.383 . S
C115 C116 1.394 . S
C116 H106 0.929 . S
C116 C112 1.377 . S
C116 C115 1.394 . S
H117 C124 0.929 . S
H118 C127 0.930 . S
H119 C129 0.929 . S
H120 C121 0.969 1_556 S
C121 H120 0.969 1_554 S
C121 O122 1.550 . S
C121 H123 0.973 . S
O122 C121 1.550 . S
O122 C128 1.412 . S
H123 C121 0.973 . S
C124 H117 0.929 . S
C124 C125 1.400 . S
C124 C126 1.364 . S
C125 C124 1.400 . S
C125 C129 1.377 . S
C126 C124 1.364 . S
C126 C127 1.374 . S
C127 H118 0.930 . S
C127 C126 1.374 . S
C127 C128 1.383 . S
C128 O122 1.412 . S
C128 C127 1.383 . S
C128 C129 1.394 . S
C129 H119 0.929 . S
C129 C125 1.377 . S
C129 C128 1.394 . S
H130 C137 0.928 . S
H131 C140 0.932 . S
H132 C142 0.928 . S
H133 C134 0.969 . S
C134 H133 0.969 . S
C134 O135 1.550 1_556 S
C134 H136 0.973 1_556 S
O135 C134 1.550 1_554 S
O135 C141 1.407 1_554 S
H136 C134 0.973 1_554 S
C137 H130 0.928 . S
C137 C138 1.399 1_554 S
C137 C139 1.364 . S
C138 C137 1.399 1_556 S
C138 C142 1.377 1_556 S
C139 C137 1.364 . S
C139 C140 1.374 . S
C140 H131 0.932 . S
C140 C139 1.374 . S
C140 C141 1.382 1_554 S
C141 O135 1.407 1_556 S
C141 C140 1.382 1_556 S
C141 C142 1.394 1_556 S
C142 H132 0.928 . S
C142 C138 1.377 1_554 S
C142 C141 1.394 1_554 S
H143 C150 0.929 . S
H144 C153 0.930 . S
H145 C155 0.929 . S
H146 C147 0.969 . S
C147 H146 0.969 . S
C147 O148 1.550 1_554 S
C147 H149 0.973 1_554 S
O148 C147 1.550 1_556 S
O148 C154 1.412 1_556 S
H149 C147 0.973 1_556 S
C150 H143 0.929 . S
C150 C151 1.400 . S
C150 C152 1.364 . S
C151 C150 1.400 . S
C151 C155 1.377 . S
C152 C150 1.364 . S
C152 C153 1.374 . S
C153 H144 0.930 . S
C153 C152 1.374 . S
C153 C154 1.383 . S
C154 O148 1.412 1_554 S
C154 C153 1.383 . S
C154 C155 1.394 . S
C155 H145 0.929 . S
C155 C151 1.377 . S
C155 C154 1.394 . S
H156 C163 0.929 . S
H157 C166 0.930 . S
H158 C168 0.929 . S
H159 C160 0.969 . S
C160 H159 0.969 . S
C160 O161 1.550 . S
C160 H162 0.973 . S
O161 C160 1.550 . S
O161 C167 1.412 . S
H162 C160 0.973 . S
C163 H156 0.929 . S
C163 C164 1.400 . S
C163 C165 1.364 . S
C164 C163 1.400 . S
C164 C168 1.377 . S
C165 C163 1.364 . S
C165 C166 1.374 . S
C166 H157 0.930 . S
C166 C165 1.374 . S
C166 C167 1.383 . S
C167 O161 1.412 . S
C167 C166 1.383 . S
C167 C168 1.394 . S
C168 H158 0.929 . S
C168 C164 1.377 . S
C168 C167 1.394 . S
H169 C176 0.929 . S
H170 C179 0.930 . S
H171 C181 0.929 . S
H172 C173 0.969 . S
C173 H172 0.969 . S
C173 O174 1.550 . S
C173 H175 0.973 . S
O174 C173 1.550 . S
O174 C180 1.412 . S
H175 C173 0.973 . S
C176 H169 0.929 . S
C176 C177 1.400 . S
C176 C178 1.364 . S
C177 C176 1.400 . S
C177 C181 1.377 . S
C178 C176 1.364 . S
C178 C179 1.374 . S
C179 H170 0.930 . S
C179 C178 1.374 . S
C179 C180 1.383 . S
C180 O174 1.412 . S
C180 C179 1.383 . S
C180 C181 1.394 . S
C181 H171 0.929 . S
C181 C177 1.377 . S
C181 C180 1.394 . S
H182 C189 0.929 . S
H183 C192 0.930 . S
H184 C194 0.929 . S
H185 C186 0.969 . S
C186 H185 0.969 . S
C186 O187 1.550 . S
C186 H188 0.973 . S
O187 C186 1.550 . S
O187 C193 1.412 . S
H188 C186 0.973 . S
C189 H182 0.929 . S
C189 C190 1.400 . S
C189 C191 1.364 . S
C190 C189 1.400 . S
C190 C194 1.377 . S
C191 C189 1.364 . S
C191 C192 1.374 . S
C192 H183 0.930 . S
C192 C191 1.374 . S
C192 C193 1.383 . S
C193 O187 1.412 . S
C193 C192 1.383 . S
C193 C194 1.394 . S
C194 H184 0.929 . S
C194 C190 1.377 . S
C194 C193 1.394 . S
H195 C202 0.929 . S
H196 C205 0.930 . S
H197 C207 0.929 . S
H198 C199 0.969 . S
C199 H198 0.969 . S
C199 O200 1.550 . S
C199 H201 0.973 . S
O200 C199 1.550 . S
O200 C206 1.412 . S
H201 C199 0.973 . S
C202 H195 0.929 . S
C202 C203 1.400 . S
C202 C204 1.364 . S
C203 C202 1.400 . S
C203 C207 1.377 . S
C204 C202 1.364 . S
C204 C205 1.374 . S
C205 H196 0.930 . S
C205 C204 1.374 . S
C205 C206 1.383 . S
C206 O200 1.412 . S
C206 C205 1.383 . S
C206 C207 1.394 . S
C207 H197 0.929 . S
C207 C203 1.377 . S
C207 C206 1.394 . S
H208 C215 0.929 . S
H209 C218 0.930 . S
H210 C220 0.929 . S
H211 C212 0.969 . S
C212 H211 0.969 . S
C212 O213 1.550 . S
C212 H214 0.973 . S
O213 C212 1.550 . S
O213 C219 1.412 . S
H214 C212 0.973 . S
C215 H208 0.929 . S
C215 C216 1.400 . S
C215 C217 1.364 . S
C216 C215 1.400 . S
C216 C220 1.377 . S
C217 C215 1.364 . S
C217 C218 1.374 . S
C218 H209 0.930 . S
C218 C217 1.374 . S
C218 C219 1.383 . S
C219 O213 1.412 . S
C219 C218 1.383 . S
C219 C220 1.394 . S
C220 H210 0.929 . S
C220 C216 1.377 . S
C220 C219 1.394 . S
H221 C228 0.929 . S
H222 C231 0.930 . S
H223 C233 0.929 . S
H224 C225 0.969 . S
C225 H224 0.969 . S
C225 O226 1.550 . S
C225 H227 0.973 . S
O226 C225 1.550 . S
O226 C232 1.412 . S
H227 C225 0.973 . S
C228 H221 0.929 . S
C228 C229 1.400 . S
C228 C230 1.364 . S
C229 C228 1.400 . S
C229 C233 1.377 . S
C230 C228 1.364 . S
C230 C231 1.374 . S
C231 H222 0.930 . S
C231 C230 1.374 . S
C231 C232 1.383 . S
C232 O226 1.412 . S
C232 C231 1.383 . S
C232 C233 1.394 . S
C233 H223 0.929 . S
C233 C229 1.377 . S
C233 C232 1.394 . S
H234 C241 0.929 . S
H235 C244 0.930 . S
H236 C246 0.929 . S
H237 C238 0.969 . S
C238 H237 0.969 . S
C238 O239 1.550 . S
C238 H240 0.973 . S
O239 C238 1.550 . S
O239 C245 1.412 . S
H240 C238 0.973 . S
C241 H234 0.929 . S
C241 C242 1.400 . S
C241 C243 1.364 . S
C242 C241 1.400 . S
C242 C246 1.377 . S
C243 C241 1.364 . S
C243 C244 1.374 . S
C244 H235 0.930 . S
C244 C243 1.374 . S
C244 C245 1.383 . S
C245 O239 1.412 . S
C245 C244 1.383 . S
C245 C246 1.394 . S
C246 H236 0.929 . S
C246 C242 1.377 . S
C246 C245 1.394 . S
H247 C254 0.929 . S
H248 C257 0.930 . S
H249 C259 0.929 . S
H250 C251 0.969 . S
C251 H250 0.969 . S
C251 O252 1.550 . S
C251 H253 0.973 . S
O252 C251 1.550 . S
O252 C258 1.412 . S
H253 C251 0.973 . S
C254 H247 0.929 . S
C254 C255 1.400 . S
C254 C256 1.364 . S
C255 C254 1.400 . S
C255 C259 1.377 . S
C256 C254 1.364 . S
C256 C257 1.374 . S
C257 H248 0.930 . S
C257 C256 1.374 . S
C257 C258 1.383 . S
C258 O252 1.412 . S
C258 C257 1.383 . S
C258 C259 1.394 . S
C259 H249 0.929 . S
C259 C255 1.377 . S
C259 C258 1.394 . S
H260 C267 0.929 . S
H261 C270 0.930 . S
H262 C272 0.929 . S
H263 C264 0.969 . S
C264 H263 0.969 . S
C264 O265 1.550 . S
C264 H266 0.973 . S
O265 C264 1.550 . S
O265 C271 1.412 . S
H266 C264 0.973 . S
C267 H260 0.929 . S
C267 C268 1.400 . S
C267 C269 1.364 . S
C268 C267 1.400 . S
C268 C272 1.377 . S
C269 C267 1.364 . S
C269 C270 1.374 . S
C270 H261 0.930 . S
C270 C269 1.374 . S
C270 C271 1.383 . S
C271 O265 1.412 . S
C271 C270 1.383 . S
C271 C272 1.394 . S
C272 H262 0.929 . S
C272 C268 1.377 . S
C272 C271 1.394 . S
H273 C280 0.929 . S
H274 C283 0.930 . S
H275 C285 0.929 . S
H276 C277 0.969 . S
C277 H276 0.969 . S
C277 O278 1.550 . S
C277 H279 0.973 . S
O278 C277 1.550 . S
O278 C284 1.412 . S
H279 C277 0.973 . S
C280 H273 0.929 . S
C280 C281 1.400 . S
C280 C282 1.364 . S
C281 C280 1.400 . S
C281 C285 1.377 . S
C282 C280 1.364 . S
C282 C283 1.374 . S
C283 H274 0.930 . S
C283 C282 1.374 . S
C283 C284 1.383 . S
C284 O278 1.412 . S
C284 C283 1.383 . S
C284 C285 1.394 . S
C285 H275 0.929 . S
C285 C281 1.377 . S
C285 C284 1.394 . S
H286 C293 0.929 . S
H287 C296 0.930 . S
H288 C298 0.929 . S
H289 C290 0.969 . S
C290 H289 0.969 . S
C290 O291 1.550 . S
C290 H292 0.973 . S
O291 C290 1.550 . S
O291 C297 1.412 . S
H292 C290 0.973 . S
C293 H286 0.929 . S
C293 C294 1.400 . S
C293 C295 1.364 . S
C294 C293 1.400 . S
C294 C298 1.377 . S
C295 C293 1.364 . S
C295 C296 1.374 . S
C296 H287 0.930 . S
C296 C295 1.374 . S
C296 C297 1.383 . S
C297 O291 1.412 . S
C297 C296 1.383 . S
C297 C298 1.394 . S
C298 H288 0.929 . S
C298 C294 1.377 . S
C298 C297 1.394 . S
H299 C306 0.929 . S
H300 C309 0.930 . S
H301 C311 0.929 . S
H302 C303 0.969 . S
C303 H302 0.969 . S
C303 O304 1.550 . S
C303 H305 0.973 . S
O304 C303 1.550 . S
O304 C310 1.412 . S
H305 C303 0.973 . S
C306 H299 0.929 . S
C306 C307 1.400 . S
C306 C308 1.364 . S
C307 C306 1.400 . S
C307 C311 1.377 . S
C308 C306 1.364 . S
C308 C309 1.374 . S
C309 H300 0.930 . S
C309 C308 1.374 . S
C309 C310 1.383 . S
C310 O304 1.412 . S
C310 C309 1.383 . S
C310 C311 1.394 . S
C311 H301 0.929 . S
C311 C307 1.377 . S
C311 C310 1.394 . S
Zn312 O314 1.933 1_565 S
Zn312 O332 1.985 . S
Zn312 O343 1.955 . S
Zn313 O314 1.911 . S
Zn313 O333 1.970 . S
Zn313 O349 1.945 . S
Zn313 O356 1.981 . S
O314 Zn312 1.933 1_545 S
O314 Zn313 1.911 . S
O314 H315 0.841 1_655 S
H315 O314 0.841 1_455 S
C316 O317 1.246 . S
C316 O345 1.276 . S
O317 C316 1.246 . S
Zn318 O320 1.911 . S
Zn318 O335 1.970 . S
Zn318 O352 1.945 . S
Zn318 O359 1.981 . S
Zn319 O320 1.933 1_565 S
Zn319 O334 1.985 . S
Zn319 O341 1.955 . S
O320 Zn318 1.911 . S
O320 Zn319 1.933 1_545 S
O320 H321 0.841 . S
H321 O320 0.841 . S
Zn322 O323 1.933 1_565 S
Zn322 O336 1.985 . S
Zn322 O345 1.955 . S
O323 Zn322 1.933 1_545 S
O323 Zn324 1.911 . S
O323 H325 0.841 . S
Zn324 O323 1.911 . S
Zn324 O337 1.970 . S
Zn324 O353 1.981 . S
Zn324 O355 1.945 . S
H325 O323 0.841 . S
Zn326 O327 1.933 1_565 S
Zn326 O339 1.985 . S
Zn326 O347 1.955 . S
O327 Zn326 1.933 1_545 S
O327 H328 0.841 . S
O327 Zn329 1.911 . S
H328 O327 0.841 . S
Zn329 O327 1.911 . S
Zn329 O340 1.970 . S
Zn329 O350 1.981 . S
Zn329 O358 1.945 . S
C330 O331 1.246 . S
C330 O347 1.276 . S
O331 C330 1.246 . S
O332 Zn312 1.985 . S
O332 C342 1.245 1_565 S
O333 Zn313 1.970 . S
O333 C342 1.263 . S
O334 Zn319 1.985 . S
O334 C346 1.245 1_565 S
O335 Zn318 1.970 . S
O335 C346 1.263 . S
O336 Zn322 1.985 . S
O336 C351 1.245 1_565 S
O337 Zn324 1.970 . S
O337 C351 1.263 . S
C338 O349 1.262 1_455 S
C338 O350 1.245 . S
O339 Zn326 1.985 . S
O339 C357 1.245 1_565 S
O340 Zn329 1.970 . S
O340 C357 1.263 . S
O341 Zn319 1.955 . S
O341 C360 1.276 . S
C342 O332 1.245 1_545 S
C342 O333 1.263 . S
O343 Zn312 1.955 . S
O343 C362 1.276 1_655 S
C344 O352 1.262 . S
C344 O353 1.245 1_455 S
O345 C316 1.276 . S
O345 Zn322 1.955 . S
C346 O334 1.245 1_545 S
C346 O335 1.263 . S
O347 Zn326 1.955 . S
O347 C330 1.276 . S
C348 O355 1.262 . S
C348 O356 1.245 . S
O349 Zn313 1.945 . S
O349 C338 1.262 1_655 S
O350 Zn329 1.981 . S
O350 C338 1.245 . S
C351 O336 1.245 1_545 S
C351 O337 1.263 . S
O352 Zn318 1.945 . S
O352 C344 1.262 . S
O353 Zn324 1.981 . S
O353 C344 1.245 1_655 S
C354 O358 1.262 . S
C354 O359 1.245 . S
O355 Zn324 1.945 . S
O355 C348 1.262 . S
O356 Zn313 1.981 . S
O356 C348 1.245 . S
C357 O339 1.245 1_545 S
C357 O340 1.263 . S
O358 Zn329 1.945 . S
O358 C354 1.262 . S
O359 Zn318 1.981 . S
O359 C354 1.245 . S
C360 O341 1.276 . S
C360 O361 1.246 1_455 S
O361 C360 1.246 1_655 S
C362 O343 1.276 1_455 S
C362 O363 1.246 . S
O363 C362 1.246 . S
Zn364 O366 1.933 . S
Zn364 O384 1.985 . S
Zn364 O395 1.955 . S
Zn365 O366 1.911 1_556 S
Zn365 O385 1.970 . S
Zn365 O401 1.945 . S
Zn365 O408 1.981 . S
O366 Zn364 1.933 . S
O366 Zn365 1.911 1_554 S
O366 H367 0.841 . S
H367 O366 0.841 . S
C368 O369 1.246 . S
C368 O397 1.276 . S
O369 C368 1.246 . S
Zn370 O372 1.911 1_556 S
Zn370 O387 1.970 . S
Zn370 O404 1.945 . S
Zn370 O411 1.981 . S
Zn371 O372 1.933 . S
Zn371 O386 1.985 . S
Zn371 O393 1.955 . S
O372 Zn370 1.911 1_554 S
O372 Zn371 1.933 . S
O372 H373 0.841 1_565 S
H373 O372 0.841 1_545 S
Zn374 O375 1.933 . S
Zn374 O388 1.985 . S
Zn374 O397 1.955 . S
O375 Zn374 1.933 . S
O375 Zn376 1.911 1_554 S
O375 H377 0.841 . S
Zn376 O375 1.911 1_556 S
Zn376 O389 1.970 . S
Zn376 O405 1.981 . S
Zn376 O407 1.945 . S
H377 O375 0.841 . S
Zn378 O379 1.933 . S
Zn378 O391 1.985 . S
Zn378 O399 1.955 . S
O379 Zn378 1.933 . S
O379 H380 0.841 . S
O379 Zn381 1.911 1_554 S
H380 O379 0.841 . S
Zn381 O379 1.911 1_556 S
Zn381 O392 1.970 . S
Zn381 O402 1.981 . S
Zn381 O410 1.945 . S
C382 O383 1.246 . S
C382 O399 1.276 . S
O383 C382 1.246 . S
O384 Zn364 1.985 . S
O384 C394 1.245 . S
O385 Zn365 1.970 . S
O385 C394 1.263 1_556 S
O386 Zn371 1.985 . S
O386 C398 1.245 . S
O387 Zn370 1.970 . S
O387 C398 1.263 1_556 S
O388 Zn374 1.985 . S
O388 C403 1.245 . S
O389 Zn376 1.970 . S
O389 C403 1.263 1_556 S
C390 O401 1.262 . S
C390 O402 1.245 1_545 S
O391 Zn378 1.985 . S
O391 C409 1.245 . S
O392 Zn381 1.970 . S
O392 C409 1.263 1_556 S
O393 Zn371 1.955 . S
O393 C412 1.276 1_565 S
C394 O384 1.245 . S
C394 O385 1.263 1_554 S
O395 Zn364 1.955 . S
O395 C414 1.276 . S
C396 O404 1.262 1_545 S
C396 O405 1.245 . S
O397 C368 1.276 . S
O397 Zn374 1.955 . S
C398 O386 1.245 . S
C398 O387 1.263 1_554 S
O399 Zn378 1.955 . S
O399 C382 1.276 . S
C400 O407 1.262 . S
C400 O408 1.245 . S
O401 Zn365 1.945 . S
O401 C390 1.262 . S
O402 Zn381 1.981 . S
O402 C390 1.245 1_565 S
C403 O388 1.245 . S
C403 O389 1.263 1_554 S
O404 Zn370 1.945 . S
O404 C396 1.262 1_565 S
O405 Zn376 1.981 . S
O405 C396 1.245 . S
C406 O410 1.262 . S
C406 O411 1.245 . S
O407 Zn376 1.945 . S
O407 C400 1.262 . S
O408 Zn365 1.981 . S
O408 C400 1.245 . S
C409 O391 1.245 . S
C409 O392 1.263 1_554 S
O410 Zn381 1.945 . S
O410 C406 1.262 . S
O411 Zn370 1.981 . S
O411 C406 1.245 . S
C412 O393 1.276 1_545 S
C412 O413 1.246 . S
O413 C412 1.246 . S
C414 O395 1.276 . S
C414 O415 1.246 1_545 S
O415 C414 1.246 1_565 S
Zn416 O418 1.933 . S
Zn416 O436 1.985 . S
Zn416 O447 1.957 . S
Zn417 O418 1.911 . S
Zn417 O437 1.970 . S
Zn417 O453 1.945 . S
Zn417 O460 1.981 . S
O418 Zn416 1.933 . S
O418 Zn417 1.911 . S
O418 H419 0.841 1_655 S
H419 O418 0.841 1_455 S
C420 O421 1.246 1_554 S
C420 O449 1.276 . S
O421 C420 1.246 1_556 S
Zn422 O424 1.911 . S
Zn422 O439 1.970 . S
Zn422 O456 1.945 . S
Zn422 O463 1.981 . S
Zn423 O424 1.933 . S
Zn423 O438 1.985 . S
Zn423 O445 1.955 . S
O424 Zn422 1.911 . S
O424 Zn423 1.933 . S
O424 H425 0.841 . S
H425 O424 0.841 . S
Zn426 O427 1.933 . S
Zn426 O440 1.985 . S
Zn426 O449 1.955 . S
O427 Zn426 1.933 . S
O427 Zn428 1.911 . S
O427 H429 0.841 . S
Zn428 O427 1.911 . S
Zn428 O441 1.970 . S
Zn428 O457 1.981 1_655 S
Zn428 O459 1.945 . S
H429 O427 0.841 . S
Zn430 O431 1.933 . S
Zn430 O443 1.985 . S
Zn430 O451 1.955 . S
O431 Zn430 1.933 . S
O431 H432 0.860 . S
O431 Zn433 1.911 . S
H432 O431 0.860 . S
Zn433 O431 1.911 . S
Zn433 O444 1.970 . S
Zn433 O454 1.981 . S
Zn433 O462 1.945 . S
C434 O435 1.246 . S
C434 O451 1.276 1_554 S
O435 C434 1.246 . S
O436 Zn416 1.985 . S
O436 C446 1.245 . S
O437 Zn417 1.970 . S
O437 C446 1.263 . S
O438 Zn423 1.985 . S
O438 C450 1.245 . S
O439 Zn422 1.970 . S
O439 C450 1.263 . S
O440 Zn426 1.985 . S
O440 C455 1.245 . S
O441 Zn428 1.970 . S
O441 C455 1.263 . S
C442 O453 1.262 1_455 S
C442 O454 1.245 . S
O443 Zn430 1.985 . S
O443 C461 1.245 . S
O444 Zn433 1.970 . S
O444 C461 1.263 . S
O445 Zn423 1.955 . S
O445 C464 1.276 . S
C446 O436 1.245 . S
C446 O437 1.263 . S
O447 Zn416 1.957 . S
O447 C466 1.270 1_655 S
C448 O456 1.262 . S
C448 O457 1.245 . S
O449 C420 1.276 . S
O449 Zn426 1.955 . S
C450 O438 1.245 . S
C450 O439 1.263 . S
O451 Zn430 1.955 . S
O451 C434 1.276 1_556 S
C452 O459 1.262 . S
C452 O460 1.245 1_554 S
O453 Zn417 1.945 . S
O453 C442 1.262 1_655 S
O454 Zn433 1.981 . S
O454 C442 1.245 . S
C455 O440 1.245 . S
C455 O441 1.263 . S
O456 Zn422 1.945 . S
O456 C448 1.262 . S
O457 Zn428 1.981 1_455 S
O457 C448 1.245 . S
C458 O462 1.262 1_554 S
C458 O463 1.245 . S
O459 Zn428 1.945 . S
O459 C452 1.262 . S
O460 Zn417 1.981 . S
O460 C452 1.245 1_556 S
C461 O443 1.245 . S
C461 O444 1.263 . S
O462 Zn433 1.945 . S
O462 C458 1.262 1_556 S
O463 Zn422 1.981 . S
O463 C458 1.245 . S
C464 O445 1.276 . S
C464 O465 1.246 . S
O465 C464 1.246 . S
C466 O447 1.270 1_455 S
C466 O467 1.246 . S
O467 C466 1.246 . S
Zn468 O470 1.933 1_556 S
Zn468 O488 1.985 . S
Zn468 O499 1.955 . S
Zn469 O470 1.911 . S
Zn469 O489 1.970 . S
Zn469 O505 1.945 . S
Zn469 O512 1.981 . S
O470 Zn468 1.933 1_554 S
O470 Zn469 1.911 . S
O470 H471 0.841 . S
H471 O470 0.841 . S
C472 O473 1.246 . S
C472 O501 1.276 . S
O473 C472 1.246 . S
Zn474 O476 1.911 . S
Zn474 O491 1.970 . S
Zn474 O508 1.945 . S
Zn474 O515 1.981 . S
Zn475 O476 1.933 1_556 S
Zn475 O490 1.985 . S
Zn475 O497 1.955 . S
O476 Zn474 1.911 . S
O476 Zn475 1.933 1_554 S
O476 H477 0.841 . S
H477 O476 0.841 . S
Zn478 O479 1.933 1_556 S
Zn478 O492 1.985 . S
Zn478 O501 1.955 . S
O479 Zn478 1.933 1_554 S
O479 Zn480 1.911 . S
O479 H481 0.841 . S
Zn480 O479 1.911 . S
Zn480 O493 1.970 . S
Zn480 O509 1.981 . S
Zn480 O511 1.945 . S
H481 O479 0.841 . S
Zn482 O483 1.933 1_556 S
Zn482 O495 1.985 . S
Zn482 O503 1.955 . S
O483 Zn482 1.933 1_554 S
O483 H484 0.841 . S
O483 Zn485 1.911 . S
H484 O483 0.841 . S
Zn485 O483 1.911 . S
Zn485 O496 1.970 . S
Zn485 O506 1.981 . S
Zn485 O514 1.945 . S
C486 O487 1.246 . S
C486 O503 1.276 . S
O487 C486 1.246 . S
O488 Zn468 1.985 . S
O488 C498 1.245 1_556 S
O489 Zn469 1.970 . S
O489 C498 1.263 . S
O490 Zn475 1.985 . S
O490 C502 1.245 1_556 S
O491 Zn474 1.970 . S
O491 C502 1.263 . S
O492 Zn478 1.985 . S
O492 C507 1.245 1_556 S
O493 Zn480 1.970 . S
O493 C507 1.263 . S
C494 O505 1.262 . S
C494 O506 1.245 . S
O495 Zn482 1.985 . S
O495 C513 1.245 1_556 S
O496 Zn485 1.970 . S
O496 C513 1.263 . S
O497 Zn475 1.955 . S
O497 C516 1.276 . S
C498 O488 1.245 1_554 S
C498 O489 1.263 . S
O499 Zn468 1.955 . S
O499 C518 1.276 . S
C500 O508 1.262 . S
C500 O509 1.245 . S
O501 C472 1.276 . S
O501 Zn478 1.955 . S
C502 O490 1.245 1_554 S
C502 O491 1.263 . S
O503 Zn482 1.955 . S
O503 C486 1.276 . S
C504 O511 1.262 . S
C504 O512 1.245 . S
O505 Zn469 1.945 . S
O505 C494 1.262 . S
O506 Zn485 1.981 . S
O506 C494 1.245 . S
C507 O492 1.245 1_554 S
C507 O493 1.263 . S
O508 Zn474 1.945 . S
O508 C500 1.262 . S
O509 Zn480 1.981 . S
O509 C500 1.245 . S
C510 O514 1.262 . S
C510 O515 1.245 . S
O511 Zn480 1.945 . S
O511 C504 1.262 . S
O512 Zn469 1.981 . S
O512 C504 1.245 . S
C513 O495 1.245 1_554 S
C513 O496 1.263 . S
O514 Zn485 1.945 . S
O514 C510 1.262 . S
O515 Zn474 1.981 . S
O515 C510 1.245 . S
C516 O497 1.276 . S
C516 O517 1.246 . S
O517 C516 1.246 . S
C518 O499 1.276 . S
C518 O519 1.246 . S
O519 C518 1.246 . S
Zn520 O522 1.933 . S
Zn520 O540 1.985 . S
Zn520 O551 1.955 . S
Zn521 O522 1.911 . S
Zn521 O541 1.970 . S
Zn521 O557 1.945 . S
Zn521 O564 1.981 . S
O522 Zn520 1.933 . S
O522 Zn521 1.911 . S
O522 H523 0.841 1_655 S
H523 O522 0.841 1_455 S
C524 O525 1.246 . S
C524 O553 1.276 . S
O525 C524 1.246 . S
Zn526 O528 1.911 . S
Zn526 O543 1.970 . S
Zn526 O560 1.945 . S
Zn526 O567 1.981 . S
Zn527 O528 1.933 . S
Zn527 O542 1.985 . S
Zn527 O549 1.955 . S
O528 Zn526 1.911 . S
O528 Zn527 1.933 . S
O528 H529 0.841 . S
H529 O528 0.841 . S
Zn530 O531 1.933 . S
Zn530 O544 1.985 . S
Zn530 O553 1.955 . S
O531 Zn530 1.933 . S
O531 Zn532 1.911 . S
O531 H533 0.841 . S
Zn532 O531 1.911 . S
Zn532 O545 1.970 . S
Zn532 O561 1.985 . S
Zn532 O563 1.945 . S
H533 O531 0.841 . S
Zn534 O535 1.933 . S
Zn534 O547 1.985 . S
Zn534 O555 1.955 . S
O535 Zn534 1.933 . S
O535 H536 0.841 . S
O535 Zn537 1.911 . S
H536 O535 0.841 . S
Zn537 O535 1.911 . S
Zn537 O548 1.970 . S
Zn537 O558 1.981 . S
Zn537 O566 1.945 . S
C538 O539 1.246 . S
C538 O555 1.276 . S
O539 C538 1.246 . S
O540 Zn520 1.985 . S
O540 C550 1.245 . S
O541 Zn521 1.970 . S
O541 C550 1.263 . S
O542 Zn527 1.985 . S
O542 C554 1.245 . S
O543 Zn526 1.970 . S
O543 C554 1.263 . S
O544 Zn530 1.985 . S
O544 C559 1.245 . S
O545 Zn532 1.970 . S
O545 C559 1.263 . S
C546 O557 1.262 1_455 S
C546 O558 1.245 . S
O547 Zn534 1.985 . S
O547 C565 1.245 . S
O548 Zn537 1.970 . S
O548 C565 1.263 . S
O549 Zn527 1.955 . S
O549 C568 1.276 . S
C550 O540 1.245 . S
C550 O541 1.263 . S
O551 Zn520 1.955 . S
O551 C570 1.276 1_655 S
C552 O560 1.262 . S
C552 O561 1.243 1_455 S
O553 C524 1.276 . S
O553 Zn530 1.955 . S
C554 O542 1.245 . S
C554 O543 1.263 . S
O555 Zn534 1.955 . S
O555 C538 1.276 . S
C556 O563 1.262 . S
C556 O564 1.245 . S
O557 Zn521 1.945 . S
O557 C546 1.262 1_655 S
O558 Zn537 1.981 . S
O558 C546 1.245 . S
C559 O544 1.245 . S
C559 O545 1.263 . S
O560 Zn526 1.945 . S
O560 C552 1.262 . S
O561 Zn532 1.985 . S
O561 C552 1.243 1_655 S
C562 O566 1.262 . S
C562 O567 1.245 . S
O563 Zn532 1.945 . S
O563 C556 1.262 . S
O564 Zn521 1.981 . S
O564 C556 1.245 . S
C565 O547 1.245 . S
C565 O548 1.263 . S
O566 Zn537 1.945 . S
O566 C562 1.262 . S
O567 Zn526 1.981 . S
O567 C562 1.245 . S
C568 O549 1.276 . S
C568 O569 1.246 . S
O569 C568 1.246 . S
C570 O551 1.276 1_455 S
C570 O571 1.246 . S
O571 C570 1.246 . S
Zn572 O574 1.933 1_565 S
Zn572 O592 1.985 . S
Zn572 O603 1.955 . S
Zn573 O574 1.911 . S
Zn573 O593 1.970 . S
Zn573 O609 1.945 . S
Zn573 O616 1.981 . S
O574 Zn572 1.933 1_545 S
O574 Zn573 1.911 . S
O574 H575 0.841 . S
H575 O574 0.841 . S
C576 O577 1.246 . S
C576 O605 1.276 . S
O577 C576 1.246 . S
Zn578 O580 1.911 . S
Zn578 O595 1.970 . S
Zn578 O612 1.945 . S
Zn578 O619 1.981 . S
Zn579 O580 1.933 1_565 S
Zn579 O594 1.985 . S
Zn579 O601 1.955 . S
O580 Zn578 1.911 . S
O580 Zn579 1.933 1_545 S
O580 H581 0.841 . S
H581 O580 0.841 . S
Zn582 O583 1.933 1_565 S
Zn582 O596 1.985 . S
Zn582 O605 1.955 . S
O583 Zn582 1.933 1_545 S
O583 Zn584 1.911 . S
O583 H585 0.841 . S
Zn584 O583 1.911 . S
Zn584 O597 1.970 . S
Zn584 O613 1.981 . S
Zn584 O615 1.945 . S
H585 O583 0.841 . S
Zn586 O587 1.933 1_565 S
Zn586 O599 1.985 . S
Zn586 O607 1.955 . S
O587 Zn586 1.933 1_545 S
O587 H588 0.841 . S
O587 Zn589 1.911 . S
H588 O587 0.841 . S
Zn589 O587 1.911 . S
Zn589 O600 1.970 . S
Zn589 O610 1.981 . S
Zn589 O618 1.945 . S
C590 O591 1.246 . S
C590 O607 1.276 . S
O591 C590 1.246 . S
O592 Zn572 1.985 . S
O592 C602 1.245 1_565 S
O593 Zn573 1.970 . S
O593 C602 1.263 . S
O594 Zn579 1.985 . S
O594 C606 1.245 1_565 S
O595 Zn578 1.970 . S
O595 C606 1.263 . S
O596 Zn582 1.985 . S
O596 C611 1.245 1_565 S
O597 Zn584 1.970 . S
O597 C611 1.263 . S
C598 O609 1.262 . S
C598 O610 1.245 . S
O599 Zn586 1.985 . S
O599 C617 1.245 1_565 S
O600 Zn589 1.970 . S
O600 C617 1.263 . S
O601 Zn579 1.955 . S
O601 C620 1.276 . S
C602 O592 1.245 1_545 S
C602 O593 1.263 . S
O603 Zn572 1.955 . S
O603 C622 1.276 . S
C604 O612 1.262 . S
C604 O613 1.245 . S
O605 C576 1.276 . S
O605 Zn582 1.955 . S
C606 O594 1.245 1_545 S
C606 O595 1.263 . S
O607 Zn586 1.955 . S
O607 C590 1.276 . S
C608 O615 1.262 . S
C608 O616 1.245 . S
O609 Zn573 1.945 . S
O609 C598 1.262 . S
O610 Zn589 1.981 . S
O610 C598 1.245 . S
C611 O596 1.245 1_545 S
C611 O597 1.263 . S
O612 Zn578 1.945 . S
O612 C604 1.262 . S
O613 Zn584 1.981 . S
O613 C604 1.245 . S
C614 O618 1.262 . S
C614 O619 1.245 . S
O615 Zn584 1.945 . S
O615 C608 1.262 . S
O616 Zn573 1.981 . S
O616 C608 1.245 . S
C617 O599 1.245 1_545 S
C617 O600 1.263 . S
O618 Zn589 1.945 . S
O618 C614 1.262 . S
O619 Zn578 1.981 . S
O619 C614 1.245 . S
C620 O601 1.276 . S
C620 O621 1.246 . S
O621 C620 1.246 . S
C622 O603 1.276 . S
C622 O623 1.246 . S
O623 C622 1.246 . S
C624 C625 1.387 . S
C624 H628 0.950 . S
C624 C633 1.390 . S
C625 C624 1.387 . S
C625 C627 1.387 . S
H626 C633 0.950 . S
C627 C625 1.387 . S
C627 C629 1.390 . S
C627 H631 0.950 . S
H628 C624 0.950 . S
C629 C627 1.390 . S
C629 C630 1.387 . S
C629 H632 0.950 . S
C630 C629 1.387 . S
C630 C633 1.387 . S
H631 C627 0.950 . S
H632 C629 0.950 . S
C633 C624 1.390 . S
C633 H626 0.950 . S
C633 C630 1.387 . S
C634 C635 1.387 . S
C634 H638 0.950 . S
C634 C643 1.390 . S
C635 C634 1.387 . S
C635 C637 1.387 . S
H636 C643 0.950 . S
C637 C635 1.387 . S
C637 C639 1.390 . S
C637 H641 0.950 . S
H638 C634 0.950 . S
C639 C637 1.390 . S
C639 C640 1.387 . S
C639 H642 0.950 . S
C640 C639 1.387 . S
C640 C643 1.387 . S
H641 C637 0.950 . S
H642 C639 0.950 . S
C643 C634 1.390 . S
C643 H636 0.950 . S
C643 C640 1.387 . S
C644 C645 1.387 . S
C644 H648 0.950 . S
C644 C653 1.390 . S
C645 C644 1.387 . S
C645 C647 1.387 . S
H646 C653 0.950 . S
C647 C645 1.387 . S
C647 C649 1.390 . S
C647 H651 0.950 . S
H648 C644 0.950 . S
C649 C647 1.390 . S
C649 C650 1.387 . S
C649 H652 0.950 . S
C650 C649 1.387 . S
C650 C653 1.387 . S
H651 C647 0.950 . S
H652 C649 0.950 . S
C653 C644 1.390 . S
C653 H646 0.950 . S
C653 C650 1.387 . S
C654 C655 1.387 . S
C654 H658 0.950 . S
C654 C663 1.390 . S
C655 C654 1.387 . S
C655 C657 1.387 . S
H656 C663 0.950 . S
C657 C655 1.387 . S
C657 C659 1.390 . S
C657 H661 0.950 . S
H658 C654 0.950 . S
C659 C657 1.390 . S
C659 C660 1.387 . S
C659 H662 0.950 . S
C660 C659 1.387 . S
C660 C663 1.387 . S
H661 C657 0.950 . S
H662 C659 0.950 . S
C663 C654 1.390 . S
C663 H656 0.950 . S
C663 C660 1.387 . S
C664 C665 1.387 . S
C664 H668 0.950 . S
C664 C673 1.390 . S
C665 C664 1.387 . S
C665 C667 1.387 . S
H666 C673 0.950 . S
C667 C665 1.387 . S
C667 C669 1.390 . S
C667 H671 0.950 . S
H668 C664 0.950 . S
C669 C667 1.390 . S
C669 C670 1.387 . S
C669 H672 0.950 . S
C670 C669 1.387 . S
C670 C673 1.387 . S
H671 C667 0.950 . S
H672 C669 0.950 . S
C673 C664 1.390 . S
C673 H666 0.950 . S
C673 C670 1.387 . S
C674 C675 1.387 . S
C674 H678 0.950 . S
C674 C683 1.390 . S
C675 C674 1.387 . S
C675 C677 1.387 . S
H676 C683 0.950 . S
C677 C675 1.387 . S
C677 C679 1.390 . S
C677 H681 0.950 . S
H678 C674 0.950 . S
C679 C677 1.390 . S
C679 C680 1.387 . S
C679 H682 0.950 . S
C680 C679 1.387 . S
C680 C683 1.387 . S
H681 C677 0.950 . S
H682 C679 0.950 . S
C683 C674 1.390 . S
C683 H676 0.950 . S
C683 C680 1.387 . S
C684 C685 1.387 . S
C684 H688 0.950 . S
C684 C693 1.390 . S
C685 C684 1.387 . S
C685 C687 1.387 . S
H686 C693 0.950 . S
C687 C685 1.387 . S
C687 C689 1.390 . S
C687 H691 0.950 . S
H688 C684 0.950 . S
C689 C687 1.390 . S
C689 C690 1.387 . S
C689 H692 0.950 . S
C690 C689 1.387 . S
C690 C693 1.387 . S
H691 C687 0.950 . S
H692 C689 0.950 . S
C693 C684 1.390 . S
C693 H686 0.950 . S
C693 C690 1.387 . S
C694 C695 1.387 . S
C694 H698 0.950 . S
C694 C703 1.390 . S
C695 C694 1.387 . S
C695 C697 1.387 . S
H696 C703 0.950 . S
C697 C695 1.387 . S
C697 C699 1.390 . S
C697 H701 0.950 . S
H698 C694 0.950 . S
C699 C697 1.390 . S
C699 C700 1.387 . S
C699 H702 0.950 . S
C700 C699 1.387 . S
C700 C703 1.387 . S
H701 C697 0.950 . S
H702 C699 0.950 . S
C703 C694 1.390 . S
C703 H696 0.950 . S
C703 C700 1.387 . S
C704 C705 1.387 . S
C704 H708 0.950 . S
C704 C713 1.390 . S
C705 C704 1.387 . S
C705 C707 1.387 . S
H706 C713 0.950 . S
C707 C705 1.387 . S
C707 C709 1.390 . S
C707 H711 0.950 . S
H708 C704 0.950 . S
C709 C707 1.390 . S
C709 C710 1.387 . S
C709 H712 0.950 . S
C710 C709 1.387 . S
C710 C713 1.387 . S
H711 C707 0.950 . S
H712 C709 0.950 . S
C713 C704 1.390 . S
C713 H706 0.950 . S
C713 C710 1.387 . S
C714 C715 1.387 . S
C714 H718 0.950 . S
C714 C723 1.390 . S
C715 C714 1.387 . S
C715 C717 1.387 . S
H716 C723 0.950 . S
C717 C715 1.387 . S
C717 C719 1.390 . S
C717 H721 0.950 . S
H718 C714 0.950 . S
C719 C717 1.390 . S
C719 C720 1.387 . S
C719 H722 0.950 . S
C720 C719 1.387 . S
C720 C723 1.387 . S
H721 C717 0.950 . S
H722 C719 0.950 . S
C723 C714 1.390 . S
C723 H716 0.950 . S
C723 C720 1.387 . S
C724 C725 1.387 . S
C724 H728 0.950 . S
C724 C733 1.390 . S
C725 C724 1.387 . S
C725 C727 1.387 . S
H726 C733 0.950 . S
C727 C725 1.387 . S
C727 C729 1.390 . S
C727 H731 0.950 . S
H728 C724 0.950 . S
C729 C727 1.390 . S
C729 C730 1.387 . S
C729 H732 0.950 . S
C730 C729 1.387 . S
C730 C733 1.387 . S
H731 C727 0.950 . S
H732 C729 0.950 . S
C733 C724 1.390 . S
C733 H726 0.950 . S
C733 C730 1.387 . S
C734 C735 1.387 . S
C734 H738 0.950 . S
C734 C743 1.390 . S
C735 C734 1.387 . S
C735 C737 1.387 . S
H736 C743 0.950 . S
C737 C735 1.387 . S
C737 C739 1.390 . S
C737 H741 0.950 . S
H738 C734 0.950 . S
C739 C737 1.390 . S
C739 C740 1.387 . S
C739 H742 0.950 . S
C740 C739 1.387 . S
C740 C743 1.387 . S
H741 C737 0.950 . S
H742 C739 0.950 . S
C743 C734 1.390 . S
C743 H736 0.950 . S
C743 C740 1.387 . S
C744 C745 1.387 . S
C744 H748 0.950 . S
C744 C753 1.390 . S
C745 C744 1.387 . S
C745 C747 1.387 1_554 S
H746 C753 0.950 . S
C747 C745 1.387 1_556 S
C747 C749 1.390 . S
C747 H751 0.950 . S
H748 C744 0.950 . S
C749 C747 1.390 . S
C749 C750 1.387 1_556 S
C749 H752 0.950 . S
C750 C749 1.387 1_554 S
C750 C753 1.387 . S
H751 C747 0.950 . S
H752 C749 0.950 . S
C753 C744 1.390 . S
C753 H746 0.950 . S
C753 C750 1.387 . S
C754 C755 1.387 . S
C754 H758 0.950 . S
C754 C763 1.390 . S
C755 C754 1.387 . S
C755 C757 1.387 1_554 S
H756 C763 0.950 . S
C757 C755 1.387 1_556 S
C757 C759 1.390 . S
C757 H761 0.950 . S
H758 C754 0.950 . S
C759 C757 1.390 . S
C759 C760 1.387 1_556 S
C759 H762 0.950 . S
C760 C759 1.387 1_554 S
C760 C763 1.387 . S
H761 C757 0.950 . S
H762 C759 0.950 . S
C763 C754 1.390 . S
C763 H756 0.950 . S
C763 C760 1.387 . S
C764 C765 1.387 . S
C764 H768 0.950 . S
C764 C773 1.390 . S
C765 C764 1.387 . S
C765 C767 1.387 1_554 S
H766 C773 0.950 . S
C767 C765 1.387 1_556 S
C767 C769 1.390 . S
C767 H771 0.950 . S
H768 C764 0.950 . S
C769 C767 1.390 . S
C769 C770 1.387 1_556 S
C769 H772 0.950 . S
C770 C769 1.387 1_554 S
C770 C773 1.387 . S
H771 C767 0.950 . S
H772 C769 0.950 . S
C773 C764 1.390 . S
C773 H766 0.950 . S
C773 C770 1.387 . S
C774 C775 1.387 . S
C774 H778 0.950 . S
C774 C783 1.390 . S
C775 C774 1.387 . S
C775 C777 1.387 1_554 S
H776 C783 0.950 . S
C777 C775 1.387 1_556 S
C777 C779 1.390 . S
C777 H781 0.950 . S
H778 C774 0.950 . S
C779 C777 1.390 . S
C779 C780 1.387 1_556 S
C779 H782 0.950 . S
C780 C779 1.387 1_554 S
C780 C783 1.387 . S
H781 C777 0.950 . S
H782 C779 0.950 . S
C783 C774 1.390 . S
C783 H776 0.950 . S
C783 C780 1.387 . S
C784 C785 1.387 1_655 S
C784 H788 0.950 . S
C784 C793 1.390 . S
C785 C784 1.387 1_455 S
C785 C787 1.387 . S
H786 C793 0.950 . S
C787 C785 1.387 . S
C787 C789 1.390 . S
C787 H791 0.950 . S
H788 C784 0.950 . S
C789 C787 1.390 . S
C789 C790 1.387 . S
C789 H792 0.950 . S
C790 C789 1.387 . S
C790 C793 1.387 1_455 S
H791 C787 0.950 . S
H792 C789 0.950 . S
C793 C784 1.390 . S
C793 H786 0.950 . S
C793 C790 1.387 1_655 S
C794 C795 1.387 . S
C794 H798 0.950 . S
C794 C803 1.390 . S
C795 C794 1.387 . S
C795 C797 1.387 1_545 S
H796 C803 0.950 . S
C797 C795 1.387 1_565 S
C797 C799 1.390 . S
C797 H801 0.950 . S
H798 C794 0.950 . S
C799 C797 1.390 . S
C799 C800 1.387 1_565 S
C799 H802 0.950 . S
C800 C799 1.387 1_545 S
C800 C803 1.387 . S
H801 C797 0.950 . S
H802 C799 0.950 . S
C803 C794 1.390 . S
C803 H796 0.950 . S
C803 C800 1.387 . S
C804 C805 1.387 . S
C804 H808 0.950 . S
C804 C813 1.390 . S
C805 C804 1.387 . S
C805 C807 1.387 1_455 S
H806 C813 0.950 . S
C807 C805 1.387 1_655 S
C807 C809 1.390 . S
C807 H811 0.950 . S
H808 C804 0.950 . S
C809 C807 1.390 . S
C809 C810 1.387 1_655 S
C809 H812 0.950 . S
C810 C809 1.387 1_455 S
C810 C813 1.387 . S
H811 C807 0.950 . S
H812 C809 0.950 . S
C813 C804 1.390 . S
C813 H806 0.950 . S
C813 C810 1.387 . S
C814 C815 1.387 . S
C814 H818 0.950 . S
C814 C823 1.390 . S
C815 C814 1.387 . S
C815 C817 1.387 . S
H816 C823 0.950 . S
C817 C815 1.387 . S
C817 C819 1.390 . S
C817 H821 0.950 1_545 S
H818 C814 0.950 . S
C819 C817 1.390 . S
C819 C820 1.389 . S
C819 H822 0.948 1_545 S
C820 C819 1.389 . S
C820 C823 1.387 . S
H821 C817 0.950 1_565 S
H822 C819 0.948 1_565 S
C823 C814 1.390 . S
C823 H816 0.950 . S
C823 C820 1.387 . S
C824 C825 1.387 . S
C824 H828 0.950 . S
C824 C833 1.390 . S
C825 C824 1.387 . S
C825 C827 1.387 . S
H826 C833 0.950 . S
C827 C825 1.387 . S
C827 C829 1.390 . S
C827 H831 0.950 . S
H828 C824 0.950 . S
C829 C827 1.390 . S
C829 C830 1.387 . S
C829 H832 0.950 . S
C830 C829 1.387 . S
C830 C833 1.387 . S
H831 C827 0.950 . S
H832 C829 0.950 . S
C833 C824 1.390 . S
C833 H826 0.950 . S
C833 C830 1.387 . S
C834 C835 1.387 . S
C834 H838 0.950 . S
C834 C843 1.390 . S
C835 C834 1.387 . S
C835 C837 1.387 . S
H836 C843 0.950 . S
C837 C835 1.387 . S
C837 C839 1.386 1_545 S
C837 H841 0.950 1_545 S
H838 C834 0.950 . S
C839 C837 1.386 1_565 S
C839 C840 1.371 1_565 S
C839 H842 0.971 . S
C840 C839 1.371 1_545 S
C840 C843 1.387 . S
H841 C837 0.950 1_565 S
H842 C839 0.971 . S
C843 C834 1.390 . S
C843 H836 0.950 . S
C843 C840 1.387 . S
C844 C845 1.387 . S
C844 H848 0.950 . S
C844 C853 1.390 . S
C845 C844 1.387 . S
C845 C847 1.387 1_455 S
H846 C853 0.950 . S
C847 C845 1.387 1_655 S
C847 C849 1.390 . S
C847 H851 0.950 . S
H848 C844 0.950 . S
C849 C847 1.390 . S
C849 C850 1.387 1_655 S
C849 H852 0.950 . S
C850 C849 1.387 1_455 S
C850 C853 1.387 . S
H851 C847 0.950 . S
H852 C849 0.950 . S
C853 C844 1.390 . S
C853 H846 0.950 . S
C853 C850 1.387 . S
C854 C855 1.387 1_565 S
C854 H858 0.950 . S
C854 C863 1.390 . S
C855 C854 1.387 1_545 S
C855 C857 1.387 . S
H856 C863 0.950 . S
C857 C855 1.387 . S
C857 C859 1.390 . S
C857 H861 0.950 . S
H858 C854 0.950 . S
C859 C857 1.390 . S
C859 C860 1.387 . S
C859 H862 0.950 . S
C860 C859 1.387 . S
C860 C863 1.387 1_545 S
H861 C857 0.950 . S
H862 C859 0.950 . S
C863 C854 1.390 . S
C863 H856 0.950 . S
C863 C860 1.387 1_565 S
C864 C865 1.387 . S
C864 H868 0.950 1_455 S
C864 C873 1.390 . S
C865 C864 1.387 . S
C865 C867 1.387 . S
H866 C873 0.950 1_655 S
C867 C865 1.387 . S
C867 C869 1.390 . S
C867 H871 0.950 . S
H868 C864 0.950 1_655 S
C869 C867 1.390 . S
C869 C870 1.387 . S
C869 H872 0.950 . S
C870 C869 1.387 . S
C870 C873 1.387 . S
H871 C867 0.950 . S
H872 C869 0.950 . S
C873 C864 1.390 . S
C873 H866 0.950 1_455 S
C873 C870 1.387 . S
C874 C875 1.387 . S
C874 H878 0.950 . S
C874 C883 1.390 . S
C875 C874 1.387 . S
C875 C877 1.358 1_545 S
H876 C883 0.950 . S
C877 C875 1.358 1_565 S
C877 C879 1.395 . S
C877 H881 0.975 . S
H878 C874 0.950 . S
C879 C877 1.395 . S
C879 C880 1.387 1_565 S
C879 H882 0.950 . S
C880 C879 1.387 1_545 S
C880 C883 1.387 . S
H881 C877 0.975 . S
H882 C879 0.950 . S
C883 C874 1.390 . S
C883 H876 0.950 . S
C883 C880 1.387 . S
C884 C885 1.387 . S
C884 H888 0.950 . S
C884 C893 1.390 . S
C885 C884 1.387 . S
C885 C887 1.387 1_455 S
H886 C893 0.950 . S
C887 C885 1.387 1_655 S
C887 C889 1.390 . S
C887 H891 0.950 . S
H888 C884 0.950 . S
C889 C887 1.390 . S
C889 C890 1.387 1_655 S
C889 H892 0.950 . S
C890 C889 1.387 1_455 S
C890 C893 1.387 . S
H891 C887 0.950 . S
H892 C889 0.950 . S
C893 C884 1.390 . S
C893 H886 0.950 . S
C893 C890 1.387 . S
C894 C895 1.387 . S
C894 H898 0.950 . S
C894 C903 1.390 . S
C895 C894 1.387 . S
C895 C897 1.387 1_545 S
H896 C903 0.950 . S
C897 C895 1.387 1_565 S
C897 C899 1.390 . S
C897 H901 0.950 . S
H898 C894 0.950 . S
C899 C897 1.390 . S
C899 C900 1.387 1_565 S
C899 H902 0.950 . S
C900 C899 1.387 1_545 S
C900 C903 1.387 . S
H901 C897 0.950 . S
H902 C899 0.950 . S
C903 C894 1.390 . S
C903 H896 0.950 . S
C903 C900 1.387 . S
C904 C905 1.387 1_455 S
C904 H908 0.950 . S
C904 C913 1.390 . S
C905 C904 1.387 1_655 S
C905 C907 1.387 . S
H906 C913 0.950 . S
C907 C905 1.387 . S
C907 C909 1.390 . S
C907 H911 0.950 . S
H908 C904 0.950 . S
C909 C907 1.390 . S
C909 C910 1.387 . S
C909 H912 0.950 . S
C910 C909 1.387 . S
C910 C913 1.387 1_655 S
H911 C907 0.950 . S
H912 C909 0.950 . S
C913 C904 1.390 . S
C913 H906 0.950 . S
C913 C910 1.387 1_455 S
C914 C915 1.387 . S
C914 H918 0.950 . S
C914 C923 1.390 . S
C915 C914 1.387 . S
C915 C917 1.387 1_545 S
H916 C923 0.950 . S
C917 C915 1.387 1_565 S
C917 C919 1.390 . S
C917 H921 0.950 . S
H918 C914 0.950 . S
C919 C917 1.390 . S
C919 C920 1.387 1_565 S
C919 H922 0.950 . S
C920 C919 1.387 1_545 S
C920 C923 1.387 . S
H921 C917 0.950 . S
H922 C919 0.950 . S
C923 C914 1.390 . S
C923 H916 0.950 . S
C923 C920 1.387 . S
C924 C925 1.387 1_655 S
C924 H928 0.950 . S
C924 C933 1.390 . S
C925 C924 1.387 1_455 S
C925 C927 1.387 . S
H926 C933 0.950 . S
C927 C925 1.387 . S
C927 C929 1.390 . S
C927 H931 0.950 . S
H928 C924 0.950 . S
C929 C927 1.390 . S
C929 C930 1.387 . S
C929 H932 0.950 . S
C930 C929 1.387 . S
C930 C933 1.387 1_455 S
H931 C927 0.950 . S
H932 C929 0.950 . S
C933 C924 1.390 . S
C933 H926 0.950 . S
C933 C930 1.387 1_655 S
C934 C935 1.387 . S
C934 H938 0.950 . S
C934 C943 1.390 . S
C935 C934 1.387 . S
C935 C937 1.387 . S
H936 C943 0.950 . S
C937 C935 1.387 . S
C937 C939 1.390 1_545 S
C937 H941 0.950 1_545 S
H938 C934 0.950 . S
C939 C937 1.390 1_565 S
C939 C940 1.387 1_565 S
C939 H942 0.950 . S
C940 C939 1.387 1_545 S
C940 C943 1.387 . S
H941 C937 0.950 1_565 S
H942 C939 0.950 . S
C943 C934 1.390 . S
C943 H936 0.950 . S
C943 C940 1.387 . S
C944 C945 1.387 1_565 S
C944 H948 0.950 . S
C944 C953 1.390 . S
C945 C944 1.387 1_545 S
C945 C947 1.387 . S
H946 C953 0.950 . S
C947 C945 1.387 . S
C947 C949 1.390 . S
C947 H951 0.950 . S
H948 C944 0.950 . S
C949 C947 1.390 . S
C949 C950 1.387 . S
C949 H952 0.950 . S
C950 C949 1.387 . S
C950 C953 1.387 1_545 S
H951 C947 0.950 . S
H952 C949 0.950 . S
C953 C944 1.390 . S
C953 H946 0.950 . S
C953 C950 1.387 1_565 S
C954 C955 1.387 . S
C954 H958 0.950 . S
C954 C963 1.390 . S
C955 C954 1.387 . S
C955 C957 1.387 . S
H956 C963 0.950 . S
C957 C955 1.387 . S
C957 C959 1.390 1_455 S
C957 H961 0.950 1_455 S
H958 C954 0.950 . S
C959 C957 1.390 1_655 S
C959 C960 1.387 1_655 S
C959 H962 0.950 . S
C960 C959 1.387 1_455 S
C960 C963 1.387 . S
H961 C957 0.950 1_655 S
H962 C959 0.950 . S
C963 C954 1.390 . S
C963 H956 0.950 . S
C963 C960 1.387 . S
C964 C965 1.387 . S
C964 H968 0.950 . S
C964 C973 1.390 . S
C965 C964 1.387 . S
C965 C967 1.387 . S
H966 C973 0.950 . S
C967 C965 1.387 . S
C967 C969 1.391 . S
C967 H971 0.950 1_545 S
H968 C964 0.950 . S
C969 C967 1.391 . S
C969 C970 1.399 . S
C969 H972 0.937 1_545 S
C970 C969 1.399 . S
C970 C973 1.387 . S
H971 C967 0.950 1_565 S
H972 C969 0.937 1_565 S
C973 C964 1.390 . S
C973 H966 0.950 . S
C973 C970 1.387 . S
C974 C975 1.387 1_655 S
C974 H978 0.950 . S
C974 C983 1.390 . S
C975 C974 1.387 1_455 S
C975 C977 1.387 . S
H976 C983 0.950 . S
C977 C975 1.387 . S
C977 C979 1.390 . S
C977 H981 0.950 . S
H978 C974 0.950 . S
C979 C977 1.390 . S
C979 C980 1.387 . S
C979 H982 0.950 . S
C980 C979 1.387 . S
C980 C983 1.387 1_455 S
H981 C977 0.950 . S
H982 C979 0.950 . S
C983 C974 1.390 . S
C983 H976 0.950 . S
C983 C980 1.387 1_655 S
C984 C985 1.387 1_565 S
C984 H988 0.950 . S
C984 C993 1.390 . S
C985 C984 1.387 1_545 S
C985 C987 1.387 . S
H986 C993 0.950 . S
C987 C985 1.387 . S
C987 C989 1.390 . S
C987 H991 0.950 . S
H988 C984 0.950 . S
C989 C987 1.390 . S
C989 C990 1.387 . S
C989 H992 0.950 . S
C990 C989 1.387 . S
C990 C993 1.387 1_545 S
H991 C987 0.950 . S
H992 C989 0.950 . S
C993 C984 1.390 . S
C993 H986 0.950 . S
C993 C990 1.387 1_565 S
C994 C995 1.387 . S
C994 H998 0.950 . S
C994 C1003 1.390 . S
C995 C994 1.387 . S
C995 C997 1.387 . S
H996 C1003 0.950 . S
C997 C995 1.387 . S
C997 C999 1.390 . S
C997 H1001 0.950 1_455 S
H998 C994 0.950 . S
C999 C997 1.390 . S
C999 C1000 1.387 . S
C999 H1002 0.950 1_455 S
C1000 C999 1.387 . S
C1000 C1003 1.387 . S
H1001 C997 0.950 1_655 S
H1002 C999 0.950 1_655 S
C1003 C994 1.390 . S
C1003 H996 0.950 . S
C1003 C1000 1.387 . S
C1004 C1005 1.387 . S
C1004 H1008 0.950 . S
C1004 C1013 1.390 . S
C1005 C1004 1.387 . S
C1005 C1007 1.359 1_545 S
H1006 C1013 0.950 . S
C1007 C1005 1.359 1_565 S
C1007 C1009 1.392 . S
C1007 H1011 0.977 . S
H1008 C1004 0.950 . S
C1009 C1007 1.392 . S
C1009 C1010 1.387 1_565 S
C1009 H1012 0.950 . S
C1010 C1009 1.387 1_545 S
C1010 C1013 1.387 . S
H1011 C1007 0.977 . S
H1012 C1009 0.950 . S
C1013 C1004 1.390 . S
C1013 H1006 0.950 . S
C1013 C1010 1.387 . S
C1014 C1015 1.387 1_655 S
C1014 H1018 0.950 . S
C1014 C1023 1.390 . S
C1015 C1014 1.387 1_455 S
C1015 C1017 1.387 . S
H1016 C1023 0.950 . S
C1017 C1015 1.387 . S
C1017 C1019 1.390 . S
C1017 H1021 0.950 . S
H1018 C1014 0.950 . S
C1019 C1017 1.390 . S
C1019 C1020 1.387 . S
C1019 H1022 0.950 . S
C1020 C1019 1.387 . S
C1020 C1023 1.387 1_455 S
H1021 C1017 0.950 . S
H1022 C1019 0.950 . S
C1023 C1014 1.390 . S
C1023 H1016 0.950 . S
C1023 C1020 1.387 1_655 S
C1024 C1025 1.387 . S
C1024 H1028 0.950 . S
C1024 C1033 1.390 . S
C1025 C1024 1.387 . S
C1025 C1027 1.387 1_554 S
H1026 C1033 0.950 . S
C1027 C1025 1.387 1_556 S
C1027 C1029 1.390 . S
C1027 H1031 0.950 . S
H1028 C1024 0.950 . S
C1029 C1027 1.390 . S
C1029 C1030 1.387 1_556 S
C1029 H1032 0.950 . S
C1030 C1029 1.387 1_554 S
C1030 C1033 1.387 . S
H1031 C1027 0.950 . S
H1032 C1029 0.950 . S
C1033 C1024 1.390 . S
C1033 H1026 0.950 . S
C1033 C1030 1.387 . S
C1034 C1035 1.387 . S
C1034 H1038 0.950 . S
C1034 C1043 1.390 . S
C1035 C1034 1.387 . S
C1035 C1037 1.387 1_554 S
H1036 C1043 0.950 . S
C1037 C1035 1.387 1_556 S
C1037 C1039 1.390 . S
C1037 H1041 0.950 . S
H1038 C1034 0.950 . S
C1039 C1037 1.390 . S
C1039 C1040 1.387 1_556 S
C1039 H1042 0.950 . S
C1040 C1039 1.387 1_554 S
C1040 C1043 1.387 . S
H1041 C1037 0.950 . S
H1042 C1039 0.950 . S
C1043 C1034 1.390 . S
C1043 H1036 0.950 . S
C1043 C1040 1.387 . S
C1044 C1045 1.387 1_556 S
C1044 H1048 0.950 . S
C1044 C1053 1.390 . S
C1045 C1044 1.387 1_554 S
C1045 C1047 1.387 . S
H1046 C1053 0.950 . S
C1047 C1045 1.387 . S
C1047 C1049 1.390 . S
C1047 H1051 0.950 . S
H1048 C1044 0.950 . S
C1049 C1047 1.390 . S
C1049 C1050 1.387 . S
C1049 H1052 0.950 . S
C1050 C1049 1.387 . S
C1050 C1053 1.387 1_554 S
H1051 C1047 0.950 . S
H1052 C1049 0.950 . S
C1053 C1044 1.390 . S
C1053 H1046 0.950 . S
C1053 C1050 1.387 1_556 S
C1054 C1055 1.395 . S
C1054 H1058 0.950 . S
C1054 C1063 1.390 . S
C1055 C1054 1.395 . S
C1055 C1057 1.381 1_556 S
H1056 C1063 0.950 . S
C1057 C1055 1.381 1_554 S
C1057 C1059 1.390 . S
C1057 H1061 0.950 . S
H1058 C1054 0.950 . S
C1059 C1057 1.390 . S
C1059 C1060 1.387 1_554 S
C1059 H1062 0.950 . S
C1060 C1059 1.387 1_556 S
C1060 C1063 1.387 . S
H1061 C1057 0.950 . S
H1062 C1059 0.950 . S
C1063 C1054 1.390 . S
C1063 H1056 0.950 . S
C1063 C1060 1.387 . S
C1064 C1065 1.387 . S
C1064 H1068 0.950 . S
C1064 C1073 1.390 . S
C1065 C1064 1.387 . S
C1065 C1067 1.387 1_554 S
H1066 C1073 0.950 . S
C1067 C1065 1.387 1_556 S
C1067 C1069 1.390 . S
C1067 H1071 0.950 . S
H1068 C1064 0.950 . S
C1069 C1067 1.390 . S
C1069 C1070 1.387 1_556 S
C1069 H1072 0.950 . S
C1070 C1069 1.387 1_554 S
C1070 C1073 1.387 . S
H1071 C1067 0.950 . S
H1072 C1069 0.950 . S
C1073 C1064 1.390 . S
C1073 H1066 0.950 . S
C1073 C1070 1.387 . S
C1074 C1075 1.387 1_556 S
C1074 H1078 0.950 . S
C1074 C1083 1.390 . S
C1075 C1074 1.387 1_554 S
C1075 C1077 1.387 . S
H1076 C1083 0.950 . S
C1077 C1075 1.387 . S
C1077 C1079 1.390 . S
C1077 H1081 0.950 . S
H1078 C1074 0.950 . S
C1079 C1077 1.390 . S
C1079 C1080 1.387 . S
C1079 H1082 0.950 . S
C1080 C1079 1.387 . S
C1080 C1083 1.387 1_554 S
H1081 C1077 0.950 . S
H1082 C1079 0.950 . S
C1083 C1074 1.390 . S
C1083 H1076 0.950 . S
C1083 C1080 1.387 1_556 S
C1084 C1085 1.387 . S
C1084 H1088 0.950 . S
C1084 C1093 1.390 . S
C1085 C1084 1.387 . S
C1085 C1087 1.387 1_554 S
H1086 C1093 0.950 . S
C1087 C1085 1.387 1_556 S
C1087 C1089 1.390 . S
C1087 H1091 0.950 . S
H1088 C1084 0.950 . S
C1089 C1087 1.390 . S
C1089 C1090 1.387 1_556 S
C1089 H1092 0.950 . S
C1090 C1089 1.387 1_554 S
C1090 C1093 1.387 . S
H1091 C1087 0.950 . S
H1092 C1089 0.950 . S
C1093 C1084 1.390 . S
C1093 H1086 0.950 . S
C1093 C1090 1.387 . S
C1094 C1095 1.387 1_556 S
C1094 H1098 0.950 . S
C1094 C1103 1.390 . S
C1095 C1094 1.387 1_554 S
C1095 C1097 1.387 . S
H1096 C1103 0.950 . S
C1097 C1095 1.387 . S
C1097 C1099 1.390 . S
C1097 H1101 0.950 . S
H1098 C1094 0.950 . S
C1099 C1097 1.390 . S
C1099 C1100 1.387 . S
C1099 H1102 0.950 . S
C1100 C1099 1.387 . S
C1100 C1103 1.387 1_554 S
H1101 C1097 0.950 . S
H1102 C1099 0.950 . S
C1103 C1094 1.390 . S
C1103 H1096 0.950 . S
C1103 C1100 1.387 1_556 S
C1104 C1105 1.387 . S
C1104 H1108 0.950 . S
C1104 C1113 1.390 . S
C1105 C1104 1.387 . S
C1105 C1107 1.387 . S
H1106 C1113 0.950 . S
C1107 C1105 1.387 . S
C1107 C1109 1.390 . S
C1107 H1111 0.950 . S
H1108 C1104 0.950 . S
C1109 C1107 1.390 . S
C1109 C1110 1.387 . S
C1109 H1112 0.950 . S
C1110 C1109 1.387 . S
C1110 C1113 1.387 . S
H1111 C1107 0.950 . S
H1112 C1109 0.950 . S
C1113 C1104 1.390 . S
C1113 H1106 0.950 . S
C1113 C1110 1.387 . S
C1114 C1115 1.387 . S
C1114 H1118 0.950 . S
C1114 C1123 1.390 . S
C1115 C1114 1.387 . S
C1115 C1117 1.387 . S
H1116 C1123 0.950 . S
C1117 C1115 1.387 . S
C1117 C1119 1.390 . S
C1117 H1121 0.950 . S
H1118 C1114 0.950 . S
C1119 C1117 1.390 . S
C1119 C1120 1.387 . S
C1119 H1122 0.950 . S
C1120 C1119 1.387 . S
C1120 C1123 1.387 . S
H1121 C1117 0.950 . S
H1122 C1119 0.950 . S
C1123 C1114 1.390 . S
C1123 H1116 0.950 . S
C1123 C1120 1.387 . S
C1124 C1125 1.387 . S
C1124 H1128 0.950 . S
C1124 C1133 1.390 . S
C1125 C1124 1.387 . S
C1125 C1127 1.387 . S
H1126 C1133 0.950 . S
C1127 C1125 1.387 . S
C1127 C1129 1.390 . S
C1127 H1131 0.950 . S
H1128 C1124 0.950 . S
C1129 C1127 1.390 . S
C1129 C1130 1.387 . S
C1129 H1132 0.950 . S
C1130 C1129 1.387 . S
C1130 C1133 1.387 . S
H1131 C1127 0.950 . S
H1132 C1129 0.950 . S
C1133 C1124 1.390 . S
C1133 H1126 0.950 . S
C1133 C1130 1.387 . S
C1134 C1135 1.387 . S
C1134 H1138 0.950 . S
C1134 C1143 1.390 . S
C1135 C1134 1.387 . S
C1135 C1137 1.387 . S
H1136 C1143 0.950 . S
C1137 C1135 1.387 . S
C1137 C1139 1.390 . S
C1137 H1141 0.950 . S
H1138 C1134 0.950 . S
C1139 C1137 1.390 . S
C1139 C1140 1.387 . S
C1139 H1142 0.950 . S
C1140 C1139 1.387 . S
C1140 C1143 1.387 . S
H1141 C1137 0.950 . S
H1142 C1139 0.950 . S
C1143 C1134 1.390 . S
C1143 H1136 0.950 . S
C1143 C1140 1.387 . S
C1144 C1145 1.387 . S
C1144 H1148 0.950 . S
C1144 C1153 1.390 . S
C1145 C1144 1.387 . S
C1145 C1147 1.387 . S
H1146 C1153 0.950 . S
C1147 C1145 1.387 . S
C1147 C1149 1.390 . S
C1147 H1151 0.950 . S
H1148 C1144 0.950 . S
C1149 C1147 1.390 . S
C1149 C1150 1.387 . S
C1149 H1152 0.950 . S
C1150 C1149 1.387 . S
C1150 C1153 1.387 . S
H1151 C1147 0.950 . S
H1152 C1149 0.950 . S
C1153 C1144 1.390 . S
C1153 H1146 0.950 . S
C1153 C1150 1.387 . S
C1154 C1155 1.387 . S
C1154 H1158 0.950 . S
C1154 C1163 1.390 . S
C1155 C1154 1.387 . S
C1155 C1157 1.387 . S
H1156 C1163 0.950 . S
C1157 C1155 1.387 . S
C1157 C1159 1.390 . S
C1157 H1161 0.950 . S
H1158 C1154 0.950 . S
C1159 C1157 1.390 . S
C1159 C1160 1.387 . S
C1159 H1162 0.950 . S
C1160 C1159 1.387 . S
C1160 C1163 1.387 . S
H1161 C1157 0.950 . S
H1162 C1159 0.950 . S
C1163 C1154 1.390 . S
C1163 H1156 0.950 . S
C1163 C1160 1.387 . S
C1164 C1165 1.387 . S
C1164 H1168 0.950 . S
C1164 C1173 1.390 . S
C1165 C1164 1.387 . S
C1165 C1167 1.387 . S
H1166 C1173 0.950 . S
C1167 C1165 1.387 . S
C1167 C1169 1.390 . S
C1167 H1171 0.950 . S
H1168 C1164 0.950 . S
C1169 C1167 1.390 . S
C1169 C1170 1.387 . S
C1169 H1172 0.950 . S
C1170 C1169 1.387 . S
C1170 C1173 1.387 . S
H1171 C1167 0.950 . S
H1172 C1169 0.950 . S
C1173 C1164 1.390 . S
C1173 H1166 0.950 . S
C1173 C1170 1.387 . S
C1174 C1175 1.387 . S
C1174 H1178 0.950 . S
C1174 C1183 1.390 . S
C1175 C1174 1.387 . S
C1175 C1177 1.387 . S
H1176 C1183 0.950 . S
C1177 C1175 1.387 . S
C1177 C1179 1.390 . S
C1177 H1181 0.950 . S
H1178 C1174 0.950 . S
C1179 C1177 1.390 . S
C1179 C1180 1.387 . S
C1179 H1182 0.950 . S
C1180 C1179 1.387 . S
C1180 C1183 1.387 . S
H1181 C1177 0.950 . S
H1182 C1179 0.950 . S
C1183 C1174 1.390 . S
C1183 H1176 0.950 . S
C1183 C1180 1.387 . S
C1184 C1185 1.387 . S
C1184 H1188 0.950 . S
C1184 C1193 1.390 . S
C1185 C1184 1.387 . S
C1185 C1187 1.387 . S
H1186 C1193 0.950 . S
C1187 C1185 1.387 . S
C1187 C1189 1.390 . S
C1187 H1191 0.950 . S
H1188 C1184 0.950 . S
C1189 C1187 1.390 . S
C1189 C1190 1.387 . S
C1189 H1192 0.950 . S
C1190 C1189 1.387 . S
C1190 C1193 1.387 . S
H1191 C1187 0.950 . S
H1192 C1189 0.950 . S
C1193 C1184 1.390 . S
C1193 H1186 0.950 . S
C1193 C1190 1.387 . S
C1194 C1195 1.387 . S
C1194 H1198 0.950 . S
C1194 C1203 1.390 . S
C1195 C1194 1.387 . S
C1195 C1197 1.387 . S
H1196 C1203 0.950 . S
C1197 C1195 1.387 . S
C1197 C1199 1.390 . S
C1197 H1201 0.950 . S
H1198 C1194 0.950 . S
C1199 C1197 1.390 . S
C1199 C1200 1.387 . S
C1199 H1202 0.950 . S
C1200 C1199 1.387 . S
C1200 C1203 1.387 . S
H1201 C1197 0.950 . S
H1202 C1199 0.950 . S
C1203 C1194 1.390 . S
C1203 H1196 0.950 . S
C1203 C1200 1.387 . S
C1204 C1205 1.387 . S
C1204 H1208 0.950 . S
C1204 C1213 1.390 . S
C1205 C1204 1.387 . S
C1205 C1207 1.387 . S
H1206 C1213 0.950 . S
C1207 C1205 1.387 . S
C1207 C1209 1.390 . S
C1207 H1211 0.950 . S
H1208 C1204 0.950 . S
C1209 C1207 1.390 . S
C1209 C1210 1.387 . S
C1209 H1212 0.950 . S
C1210 C1209 1.387 . S
C1210 C1213 1.387 . S
H1211 C1207 0.950 . S
H1212 C1209 0.950 . S
C1213 C1204 1.390 . S
C1213 H1206 0.950 . S
C1213 C1210 1.387 . S
C1214 C1215 1.387 . S
C1214 H1218 0.950 . S
C1214 C1223 1.390 . S
C1215 C1214 1.387 . S
C1215 C1217 1.387 . S
H1216 C1223 0.950 . S
C1217 C1215 1.387 . S
C1217 C1219 1.390 . S
C1217 H1221 0.950 . S
H1218 C1214 0.950 . S
C1219 C1217 1.390 . S
C1219 C1220 1.387 . S
C1219 H1222 0.950 . S
C1220 C1219 1.387 . S
C1220 C1223 1.387 . S
H1221 C1217 0.950 . S
H1222 C1219 0.950 . S
C1223 C1214 1.390 . S
C1223 H1216 0.950 . S
C1223 C1220 1.387 . S
C1224 C1225 1.387 . S
C1224 H1228 0.950 . S
C1224 C1233 1.390 . S
C1225 C1224 1.387 . S
C1225 C1227 1.387 . S
H1226 C1233 0.950 . S
C1227 C1225 1.387 . S
C1227 C1229 1.390 . S
C1227 H1231 0.950 . S
H1228 C1224 0.950 . S
C1229 C1227 1.390 . S
C1229 C1230 1.387 . S
C1229 H1232 0.950 . S
C1230 C1229 1.387 . S
C1230 C1233 1.387 . S
H1231 C1227 0.950 . S
H1232 C1229 0.950 . S
C1233 C1224 1.390 . S
C1233 H1226 0.950 . S
C1233 C1230 1.387 . S
C1234 C1235 1.387 . S
C1234 H1238 0.950 . S
C1234 C1243 1.390 . S
C1235 C1234 1.387 . S
C1235 C1237 1.387 . S
H1236 C1243 0.950 . S
C1237 C1235 1.387 . S
C1237 C1239 1.390 . S
C1237 H1241 0.950 . S
H1238 C1234 0.950 . S
C1239 C1237 1.390 . S
C1239 C1240 1.387 . S
C1239 H1242 0.950 . S
C1240 C1239 1.387 . S
C1240 C1243 1.387 . S
H1241 C1237 0.950 . S
H1242 C1239 0.950 . S
C1243 C1234 1.390 . S
C1243 H1236 0.950 . S
C1243 C1240 1.387 . S
C1244 C1245 1.387 . S
C1244 H1248 0.950 . S
C1244 C1253 1.390 . S
C1245 C1244 1.387 . S
C1245 C1247 1.387 . S
H1246 C1253 0.950 . S
C1247 C1245 1.387 . S
C1247 C1249 1.390 . S
C1247 H1251 0.950 . S
H1248 C1244 0.950 . S
C1249 C1247 1.390 . S
C1249 C1250 1.387 . S
C1249 H1252 0.950 . S
C1250 C1249 1.387 . S
C1250 C1253 1.387 . S
H1251 C1247 0.950 . S
H1252 C1249 0.950 . S
C1253 C1244 1.390 . S
C1253 H1246 0.950 . S
C1253 C1250 1.387 . S
C1254 C1255 1.387 . S
C1254 H1258 0.950 . S
C1254 C1263 1.390 . S
C1255 C1254 1.387 . S
C1255 C1257 1.387 . S
H1256 C1263 0.950 . S
C1257 C1255 1.387 . S
C1257 C1259 1.390 . S
C1257 H1261 0.950 . S
H1258 C1254 0.950 . S
C1259 C1257 1.390 . S
C1259 C1260 1.387 . S
C1259 H1262 0.950 . S
C1260 C1259 1.387 . S
C1260 C1263 1.387 . S
H1261 C1257 0.950 . S
H1262 C1259 0.950 . S
C1263 C1254 1.390 . S
C1263 H1256 0.950 . S
C1263 C1260 1.387 . S
C1264 C1265 1.387 . S
C1264 H1268 0.950 . S
C1264 C1273 1.390 . S
C1265 C1264 1.387 . S
C1265 C1267 1.387 . S
H1266 C1273 0.950 . S
C1267 C1265 1.387 . S
C1267 C1269 1.390 . S
C1267 H1271 0.950 . S
H1268 C1264 0.950 . S
C1269 C1267 1.390 . S
C1269 C1270 1.387 . S
C1269 H1272 0.950 . S
C1270 C1269 1.387 . S
C1270 C1273 1.387 . S
H1271 C1267 0.950 . S
H1272 C1269 0.950 . S
C1273 C1264 1.390 . S
C1273 H1266 0.950 . S
C1273 C1270 1.387 . S
C1274 C1275 1.387 . S
C1274 H1278 0.950 . S
C1274 C1283 1.390 . S
C1275 C1274 1.387 . S
C1275 C1277 1.387 . S
H1276 C1283 0.950 . S
C1277 C1275 1.387 . S
C1277 C1279 1.390 . S
C1277 H1281 0.950 . S
H1278 C1274 0.950 . S
C1279 C1277 1.390 . S
C1279 C1280 1.387 . S
C1279 H1282 0.950 . S
C1280 C1279 1.387 . S
C1280 C1283 1.387 . S
H1281 C1277 0.950 . S
H1282 C1279 0.950 . S
C1283 C1274 1.390 . S
C1283 H1276 0.950 . S
C1283 C1280 1.387 . S
C1284 C1285 1.387 . S
C1284 H1288 0.950 . S
C1284 C1293 1.390 . S
C1285 C1284 1.387 . S
C1285 C1287 1.387 . S
H1286 C1293 0.950 . S
C1287 C1285 1.387 . S
C1287 C1289 1.390 . S
C1287 H1291 0.950 . S
H1288 C1284 0.950 . S
C1289 C1287 1.390 . S
C1289 C1290 1.387 . S
C1289 H1292 0.950 . S
C1290 C1289 1.387 . S
C1290 C1293 1.387 . S
H1291 C1287 0.950 . S
H1292 C1289 0.950 . S
C1293 C1284 1.390 . S
C1293 H1286 0.950 . S
C1293 C1290 1.387 . S
C1294 C1295 1.387 . S
C1294 H1298 0.950 . S
C1294 C1303 1.390 . S
C1295 C1294 1.387 . S
C1295 C1297 1.387 . S
H1296 C1303 0.950 . S
C1297 C1295 1.387 . S
C1297 C1299 1.390 . S
C1297 H1301 0.950 . S
H1298 C1294 0.950 . S
C1299 C1297 1.390 . S
C1299 C1300 1.387 . S
C1299 H1302 0.950 . S
C1300 C1299 1.387 . S
C1300 C1303 1.387 . S
H1301 C1297 0.950 . S
H1302 C1299 0.950 . S
C1303 C1294 1.390 . S
C1303 H1296 0.950 . S
C1303 C1300 1.387 . S
C1304 C1305 1.387 . S
C1304 H1308 0.950 . S
C1304 C1313 1.390 . S
C1305 C1304 1.387 . S
C1305 C1307 1.387 . S
H1306 C1313 0.950 . S
C1307 C1305 1.387 . S
C1307 C1309 1.390 . S
C1307 H1311 0.950 . S
H1308 C1304 0.950 . S
C1309 C1307 1.390 . S
C1309 C1310 1.387 . S
C1309 H1312 0.950 . S
C1310 C1309 1.387 . S
C1310 C1313 1.387 . S
H1311 C1307 0.950 . S
H1312 C1309 0.950 . S
C1313 C1304 1.390 . S
C1313 H1306 0.950 . S
C1313 C1310 1.387 . S
C1314 C1315 1.387 . S
C1314 H1318 0.950 . S
C1314 C1323 1.390 . S
C1315 C1314 1.387 . S
C1315 C1317 1.387 . S
H1316 C1323 0.950 . S
C1317 C1315 1.387 . S
C1317 C1319 1.390 . S
C1317 H1321 0.950 . S
H1318 C1314 0.950 . S
C1319 C1317 1.390 . S
C1319 C1320 1.387 . S
C1319 H1322 0.950 . S
C1320 C1319 1.387 . S
C1320 C1323 1.387 . S
H1321 C1317 0.950 . S
H1322 C1319 0.950 . S
C1323 C1314 1.390 . S
C1323 H1316 0.950 . S
C1323 C1320 1.387 . S
C1324 C1325 1.387 . S
C1324 H1328 0.950 . S
C1324 C1333 1.390 . S
C1325 C1324 1.387 . S
C1325 C1327 1.387 . S
H1326 C1333 0.950 . S
C1327 C1325 1.387 . S
C1327 C1329 1.390 . S
C1327 H1331 0.950 . S
H1328 C1324 0.950 . S
C1329 C1327 1.390 . S
C1329 C1330 1.387 . S
C1329 H1332 0.950 . S
C1330 C1329 1.387 . S
C1330 C1333 1.387 . S
H1331 C1327 0.950 . S
H1332 C1329 0.950 . S
C1333 C1324 1.390 . S
C1333 H1326 0.950 . S
C1333 C1330 1.387 . S
C1334 C1335 1.387 . S
C1334 H1338 0.950 . S
C1334 C1343 1.390 . S
C1335 C1334 1.387 . S
C1335 C1337 1.387 . S
H1336 C1343 0.950 . S
C1337 C1335 1.387 . S
C1337 C1339 1.390 . S
C1337 H1341 0.950 . S
H1338 C1334 0.950 . S
C1339 C1337 1.390 . S
C1339 C1340 1.387 . S
C1339 H1342 0.950 . S
C1340 C1339 1.387 . S
C1340 C1343 1.387 . S
H1341 C1337 0.950 . S
H1342 C1339 0.950 . S
C1343 C1334 1.390 . S
C1343 H1336 0.950 . S
C1343 C1340 1.387 . S
C630 C354 1.528 . S
C625 C308 1.624 . S
C635 C282 1.466 . S
C640 C348 1.380 . S
C650 C316 1.479 . S
C645 C269 1.583 . S
C655 C295 1.801 . S
C660 C330 1.639 . S
C670 C368 1.887 . S
C665 C217 1.989 . S
C680 C455 1.542 . S
C675 C230 1.580 . S
C685 C243 2.068 . S
C690 C382 1.931 . S
C700 C450 1.126 . S
C695 C256 1.147 . S
C705 C165 2.021 . S
C710 C406 1.935 . S
C720 C461 1.441 . S
C715 C178 1.511 . S
C725 C191 2.021 . S
C730 C400 1.899 . S
C735 C204 1.388 . S
C740 C446 1.341 . S
C750 C502 1.365 . S
C745 C152 1.424 . S
C755 C126 1.490 . S
C760 C513 1.469 . S
C765 C113 1.290 . S
C770 C498 1.250 . S
C780 C507 1.672 . S
C775 C139 1.687 . S
C785 C61 1.673 . S
C790 C552 1.575 . S
C795 C74 1.043 . S
C800 C611 1.032 . S
C805 C87 1.788 . S
C810 C568 1.686 . S
C815 C100 1.167 . S
C820 C606 1.133 . S
C830 C570 1.683 . S
C825 C9 1.823 . S
C840 C617 0.842 . S
C835 C22 0.850 . S
C845 C35 1.667 . S
C850 C546 1.598 . S
C860 C602 1.292 . S
C855 C48 1.373 . S
C870 C338 1.548 . S
C865 C4 1.368 . S
C875 C21 1.279 . S
C880 C342 1.291 . S
C885 C34 1.763 . S
C890 C362 1.700 . S
C895 C43 0.910 . S
C900 C357 1.063 . S
C905 C56 1.419 . S
C910 C360 1.558 1_655 S
C920 C346 1.223 . S
C915 C69 1.049 1_545 S
C925 C86 1.731 . S
C930 C344 1.666 . S
C940 C351 1.073 . S
C935 C99 1.041 . S
C950 C414 1.546 . S
C945 C47 1.606 . S
C955 C8 1.912 . S
C960 C464 1.811 . S
C970 C412 1.133 . S
C965 C17 1.024 . S
C980 C448 1.634 . S
C975 C30 1.445 . S
C985 C73 1.372 . S
C990 C390 1.337 . S
C1000 C466 1.675 . S
C995 C82 1.551 . S
C1010 C396 1.324 . S
C1005 C95 1.155 . S
C1020 C442 1.763 . S
C1015 C60 1.873 . S
C1030 C434 1.445 . S
C1025 C112 1.437 . S
C1035 C125 1.303 . S
C1040 C458 1.348 . S
C1050 C394 1.234 . S
C1045 C108 1.054 . S
C1060 C420 1.488 1_556 S
C1055 C138 1.520 . S
C1065 C147 1.017 . S
C1070 C398 1.202 . S
C1075 C151 1.566 . S
C1080 C452 1.550 . S
C1090 C409 1.418 . S
C1085 C121 1.167 . S
C1100 C403 1.456 . S
C1095 C134 1.204 1_554 S
C1110 C486 1.806 . S
C1105 C160 1.588 . S
C1120 C518 1.441 . S
C1115 C177 1.417 . S
C1125 C190 1.969 . S
C1130 C472 1.893 . S
C1140 C516 1.204 . S
C1135 C199 1.050 . S
C1150 C504 1.759 . S
C1145 C212 1.557 . S
C1155 C225 1.149 . S
C1160 C500 1.409 . S
C1165 C242 1.982 . S
C1170 C510 1.952 . S
C1180 C494 1.182 . S
C1175 C255 1.175 . S
C1190 C559 1.467 . S
C1185 C203 1.450 . S
C1195 C164 1.706 . S
C1200 C620 1.663 . S
C1210 C554 1.141 . S
C1205 C173 0.945 . S
C1220 C604 1.616 . S
C1215 C186 1.346 . S
C1230 C550 1.255 . S
C1225 C229 1.241 . S
C1235 C238 1.298 . S
C1240 C622 1.545 . S
C1250 C565 1.260 . S
C1245 C251 1.043 . S
C1260 C598 1.575 . S
C1255 C216 1.634 . S
C1270 C590 1.561 . S
C1265 C268 1.602 . S
C1275 C281 1.666 . S
C1280 C614 1.594 . S
C1290 C556 1.408 . S
C1285 C264 1.271 . S
C1295 C294 1.943 . S
C1300 C576 1.806 . S
C1310 C538 1.455 . S
C1305 C303 1.322 . S
C1320 C608 1.666 . S
C1315 C307 1.740 . S
C1330 C524 1.423 . S
C1325 C277 1.290 . S
C1335 C290 1.278 . S
C1340 C562 1.417 . S
