# Generated by pormake.
# Topology rtl, (3,6)-cn, num edge types: 1
# Building blocks:
#     Node 0, Type 0, BuildingBlock: QEWDON_clean_linker_0, # of connection points: 3
#     Node 1, Type 0, BuildingBlock: QEWDON_clean_linker_0, # of connection points: 3
#     Node 2, Type 0, BuildingBlock: QEWDON_clean_linker_0, # of connection points: 3
#     Node 3, Type 0, BuildingBlock: QEWDON_clean_linker_0, # of connection points: 3
#     Node 4, Type 1, BuildingBlock: KUMBUR_clean_sbu_1, # of connection points: 6
#     Node 5, Type 1, BuildingBlock: KUMBUR_clean_sbu_1, # of connection points: 6
#     Edge 6, Type (0, 1), BuildingBlock: XUDNAN_clean_linker_2, # of connection points: 2
#     Edge 7, Type (0, 1), BuildingBlock: XUDNAN_clean_linker_2, # of connection points: 2
#     Edge 8, Type (0, 1), BuildingBlock: XUDNAN_clean_linker_2, # of connection points: 2
#     Edge 9, Type (0, 1), BuildingBlock: XUDNAN_clean_linker_2, # of connection points: 2
#     Edge 10, Type (0, 1), BuildingBlock: XUDNAN_clean_linker_2, # of connection points: 2
#     Edge 11, Type (0, 1), BuildingBlock: XUDNAN_clean_linker_2, # of connection points: 2
#     Edge 12, Type (0, 1), BuildingBlock: XUDNAN_clean_linker_2, # of connection points: 2
#     Edge 13, Type (0, 1), BuildingBlock: XUDNAN_clean_linker_2, # of connection points: 2
#     Edge 14, Type (0, 1), BuildingBlock: XUDNAN_clean_linker_2, # of connection points: 2
#     Edge 15, Type (0, 1), BuildingBlock: XUDNAN_clean_linker_2, # of connection points: 2
#     Edge 16, Type (0, 1), BuildingBlock: XUDNAN_clean_linker_2, # of connection points: 2
#     Edge 17, Type (0, 1), BuildingBlock: XUDNAN_clean_linker_2, # of connection points: 2
# Relax obj value: 0.085
# Max RMSD: 0.274
# Mean RMSD: 0.209
data_MOF--net-rtl--node1-KUMBUR_clean_sbu_1--node2-QEWDON_clean_linker_0--edge1-XUDNAN_clean_linker_2
_symmetry_space_group_name_H-M    P1
_symmetry_Int_Tables_number       1
_symmetry_cell_setting            triclinic
loop_
_symmetry_equiv_pos_as_xyz
'x, y, z'
_cell_length_a     37.837469
_cell_length_b     37.980587
_cell_length_c     26.57096
_cell_angle_alpha  78.500657
_cell_angle_beta   100.32416
_cell_angle_gamma 91.443459
loop_
_atom_site_label
_atom_site_type_symbol
_atom_site_fract_x
_atom_site_fract_y
_atom_site_fract_z
_atom_type_partial_charge
H0 H 0.24104 0.82411 0.10613 0.0
C1 C 0.22506 0.83118 0.06738 0.0
C2 C 0.19226 0.85011 0.05948 0.0
C3 C 0.23842 0.8221 0.02541 0.0
H4 H 0.1478 0.87444 1.00039 0.0
C5 C 0.17251 0.85892 1.00829 0.0
C6 C 0.18501 0.84922 0.9662 0.0
C7 C 0.21799 0.83078 0.97485 0.0
C8 C 0.27636 0.80974 0.03379 0.0
H9 H 0.22842 0.82468 0.94208 0.0
C10 C 0.28609 0.77501 0.02891 0.0
C11 C 0.32274 0.76417 0.04005 0.0
C12 C 0.30338 0.83358 0.04852 0.0
H13 H 0.29652 0.86034 0.05238 0.0
C14 C 0.3394 0.82339 0.05814 0.0
H15 H 0.26532 0.75634 0.01818 0.0
C16 C 0.34905 0.78909 0.054 0.0
H17 H 0.37736 0.78219 0.06133 0.0
H18 H 0.35998 0.84216 0.06902 0.0
H19 H 0.74046 0.70068 0.61232 0.0
C20 C 0.72214 0.69331 0.63959 0.0
C21 C 0.6956 0.66717 0.63087 0.0
C22 C 0.72636 0.70809 0.68513 0.0
H23 H 0.65303 0.63582 0.66202 0.0
C24 C 0.67339 0.65588 0.66822 0.0
C25 C 0.67629 0.67079 0.71285 0.0
C26 C 0.7019 0.6976 0.72003 0.0
C27 C 0.75796 0.7313 0.70028 0.0
H28 H 0.70354 0.70937 0.7543 0.0
C29 C 0.7736 0.7571 0.66394 0.0
C30 C 0.803 0.77857 0.68161 0.0
C31 C 0.77321 0.72683 0.75363 0.0
H32 H 0.76378 0.70636 0.78264 0.0
C33 C 0.80093 0.74845 0.77105 0.0
H34 H 0.76305 0.76041 0.62261 0.0
C35 C 0.8152 0.77434 0.73582 0.0
H36 H 0.83602 0.79121 0.75166 0.0
H37 H 0.81147 0.74511 0.81241 0.0
H38 H 0.8044 0.19721 0.14713 0.0
C39 C 0.8172 0.19103 0.11651 0.0
C40 C 0.84999 0.17157 0.12978 0.0
C41 C 0.79978 0.20026 0.06399 0.0
H42 H 0.89116 0.14781 0.09988 0.0
C43 C 0.86597 0.16273 0.08997 0.0
C44 C 0.84937 0.17222 0.03759 0.0
C45 C 0.81643 0.19086 0.02493 0.0
C46 C 0.76277 0.21643 0.04927 0.0
H47 H 0.8036 0.19784 0.9843 0.0
C48 C 0.75246 0.24595 0.06904 0.0
C49 C 0.71779 0.26169 0.05067 0.0
C50 C 0.73737 0.20219 0.01325 0.0
H51 H 0.74393 0.17906 0.99837 0.0
C52 C 0.70318 0.21735 0.99589 0.0
H53 H 0.7715 0.2573 0.09692 0.0
C54 C 0.69354 0.247 0.01403 0.0
H55 H 0.66674 0.25829 0.99981 0.0
H56 H 0.68405 0.2061 0.96806 0.0
H57 H 0.31675 0.29565 0.51862 0.0
C58 C 0.32753 0.31083 0.48584 0.0
C59 C 0.34763 0.34208 0.49142 0.0
C60 C 0.32238 0.29814 0.43866 0.0
H61 H 0.37842 0.38411 0.45241 0.0
C62 C 0.36171 0.36093 0.44827 0.0
C63 C 0.35559 0.35005 0.3999 0.0
C64 C 0.33648 0.3181 0.39573 0.0
C65 C 0.30607 0.26201 0.43623 0.0
H66 H 0.3323 0.3089 0.35906 0.0
C67 C 0.27315 0.25139 0.45334 0.0
C68 C 0.26027 0.21593 0.45357 0.0
C69 C 0.32522 0.23687 0.419 0.0
H70 H 0.35057 0.24394 0.40624 0.0
C71 C 0.31266 0.20201 0.41953 0.0
H72 H 0.25778 0.27044 0.46633 0.0
C73 C 0.28064 0.19155 0.43688 0.0
H74 H 0.27132 0.16438 0.4363 0.0
H75 H 0.32792 0.18292 0.40649 0.0
Tb76 Tb 0.03835 0.97682 0.50845 0.0
C77 C 0.99166 0.12295 0.56276 0.0
N78 N 0.0174 0.0982 0.58791 0.0
C79 C 0.05909 0.14534 0.60264 0.0
C80 C 0.99898 0.16002 0.55494 0.0
C81 C 0.05026 0.1089 0.61024 0.0
C82 C 0.03349 0.17101 0.57421 0.0
C83 C 0.92917 0.13586 0.52388 0.0
C84 C 0.9573 0.11109 0.54741 0.0
C85 C 0.93655 0.17279 0.5142 0.0
C86 C 0.97141 0.18484 0.52959 0.0
Tb87 Tb 1.00047 0.03948 0.59496 0.0
N88 N 0.95135 0.07519 0.55648 0.0
C89 C 0.89444 0.12276 0.5115 0.0
C90 C 0.91714 0.06234 0.54709 0.0
C91 C 0.88835 0.08585 0.52375 0.0
H92 H 0.06988 0.08932 0.63367 0.0
H93 H 0.86151 0.0755 0.51505 0.0
H94 H 0.99398 0.90127 0.52979 0.0
H95 H 0.17941 0.00817 0.56348 0.0
H96 H 0.91243 0.03378 0.55554 0.0
H97 H 0.8721 0.14091 0.49333 0.0
H98 H 0.1188 0.01904 0.51229 0.0
H99 H 0.08551 0.1536 0.61911 0.0
H100 H 0.91539 0.19226 0.49566 0.0
H101 H 0.97656 0.21344 0.52283 0.0
H102 H 1.00596 0.83965 0.58165 0.0
H103 H 0.04026 0.19924 0.56882 0.0
H104 H 0.19431 0.95109 0.6265 0.0
N105 N 0.04631 0.91978 0.55543 0.0
C106 C 0.07994 0.91104 0.58257 0.0
C107 C 0.02686 0.8596 0.58269 0.0
C108 C 0.08787 0.87645 0.6132 0.0
C109 C 0.02011 0.89448 0.55357 0.0
C110 C 0.06076 0.85064 0.61313 0.0
N111 N 0.09725 0.97051 0.55038 0.0
C112 C 0.12375 0.99498 0.54187 0.0
C113 C 0.1409 0.92964 0.6099 0.0
C114 C 0.10599 0.93747 0.58097 0.0
C115 C 0.16714 0.95604 0.60504 0.0
C116 C 0.15873 0.98848 0.56991 0.0
H117 H 0.06578 0.82372 0.63611 0.0
H118 H 0.12883 0.84266 0.6676 0.0
H119 H 0.17529 0.88918 0.66466 0.0
O120 O 0.07202 0.96361 0.45964 0.0
O121 O 0.0319 0.96016 0.59076 0.0
O122 O 0.05012 0.00871 0.6255 0.0
O123 O 0.01613 0.95084 0.4471 0.0
O124 O 0.05661 0.03302 0.49751 0.0
O125 O 0.05574 0.04428 0.57882 0.0
O126 O 0.98319 0.0073 0.66005 0.0
O127 O 0.97467 0.04694 0.51235 0.0
O128 O 1.01083 0.02588 0.46139 0.0
O129 O 0.99594 0.06255 0.65966 0.0
O130 O 0.96939 0.99067 0.58332 0.0
O131 O 0.98048 0.96968 0.50989 0.0
C132 C 0.04951 0.97387 0.6294 0.0
C133 C 0.04544 0.96042 0.37347 0.0
C134 C 0.06732 0.95082 0.29578 0.0
C135 C 0.04392 0.9782 0.26531 0.0
C136 C 0.02273 0.98805 0.34237 0.0
C137 C 0.02208 0.99682 0.28857 0.0
C138 C 0.06797 0.94215 0.35007 0.0
C139 C 0.06362 0.05412 0.53184 0.0
C140 C 0.04628 0.95017 0.43027 0.0
C141 C 0.12231 0.86894 0.64324 0.0
C142 C 0.14872 0.8955 0.64172 0.0
C143 C 0.98444 0.04594 0.46742 0.0
C144 C 0.94731 0.03981 0.70032 0.0
C145 C 0.91321 0.06634 0.75457 0.0
C146 C 0.88127 0.05567 0.72536 0.0
C147 C 0.91501 0.02794 0.67433 0.0
C148 C 0.94635 0.05846 0.74106 0.0
C149 C 0.88229 0.03624 0.68634 0.0
C150 C 0.96145 0.97095 0.54686 0.0
C151 C 0.98171 0.03407 0.68358 0.0
H152 H 0.04316 0.9858 0.2236 0.0
H153 H 1.00561 1.00281 0.35963 0.0
H154 H 1.0048 0.01833 0.26471 0.0
H155 H 0.08578 0.92097 0.37406 0.0
H156 H 0.85515 0.06244 0.73211 0.0
H157 H 0.91492 0.01253 0.64421 0.0
H158 H 0.97148 0.06642 0.76216 0.0
H159 H 0.8575 0.02777 0.665 0.0
Tb160 Tb 0.48901 0.48032 1.00396 0.0
C161 C 0.61523 0.56566 0.04666 0.0
N162 N 0.60556 0.53373 0.07401 0.0
C163 C 0.66162 0.50758 0.06864 0.0
C164 C 0.64728 0.56903 0.02607 0.0
C165 C 0.62996 0.50603 0.08925 0.0
C166 C 0.66987 0.53896 0.03571 0.0
C167 C 0.60363 0.62965 0.0162 0.0
C168 C 0.59397 0.59568 0.0421 0.0
C169 C 0.63473 0.63282 0.9937 0.0
C170 C 0.65647 0.60256 0.99854 0.0
Tb171 Tb 0.55187 0.53445 0.10315 0.0
N172 N 0.56357 0.59139 0.06311 0.0
C173 C 0.58154 0.65927 0.01336 0.0
C174 C 0.54223 0.62024 0.06134 0.0
C175 C 0.55082 0.65456 0.03629 0.0
H176 H 0.62592 0.48308 0.11867 0.0
H177 H 0.53368 0.67732 0.03455 0.0
H178 H 0.41224 0.49788 0.03887 0.0
H179 H 0.54492 0.3574 0.97714 0.0
H180 H 0.51849 0.61673 0.07901 0.0
H181 H 0.58799 0.68583 0.99368 0.0
H182 H 0.54055 0.42318 0.96943 0.0
H183 H 0.68012 0.48494 0.07942 0.0
H184 H 0.64238 0.6586 0.97297 0.0
H185 H 0.68082 0.60558 0.98205 0.0
H186 H 0.36242 0.46334 0.07251 0.0
H187 H 0.69468 0.54033 0.02044 0.0
H188 H 0.50014 0.31761 0.01621 0.0
N189 N 0.44153 0.45144 0.03579 0.0
C190 C 0.44139 0.41513 0.04072 0.0
C191 C 0.3846 0.44945 0.06401 0.0
C192 C 0.41339 0.39433 0.0594 0.0
C193 C 0.41296 0.46896 0.04509 0.0
C194 C 0.38494 0.41197 0.0716 0.0
N195 N 0.49526 0.42028 1.00711 0.0
C196 C 0.52173 0.40589 0.98838 0.0
C197 C 0.47047 0.36144 0.03081 0.0
C198 C 0.46954 0.39898 0.02669 0.0
C199 C 0.49848 0.34635 0.01385 0.0
C200 C 0.52395 0.36873 0.99199 0.0
H201 H 0.36286 0.39697 0.08603 0.0
H202 H 0.39333 0.3403 0.07916 0.0
H203 H 0.44336 0.31147 0.05418 0.0
O204 O 0.47199 0.46116 0.93353 0.0
O205 O 0.48604 0.46104 0.0874 0.0
O206 O 0.50854 0.50418 0.13629 0.0
O207 O 0.45657 0.51437 0.94172 0.0
O208 O 0.54704 0.47129 0.02353 0.0
O209 O 0.56114 0.47627 0.10927 0.0
O210 O 0.55225 0.56667 0.15953 0.0
O211 O 0.53438 0.5565 0.01887 0.0
O212 O 0.53628 0.50866 0.97957 0.0
O213 O 0.59034 0.52408 0.17271 0.0
O214 O 0.4954 0.55088 0.09019 0.0
O215 O 0.46633 0.53057 0.01557 0.0
C216 C 0.48896 0.47574 0.12895 0.0
C217 C 0.43304 0.49763 0.85807 0.0
C218 C 0.40675 0.4777 0.77683 0.0
C219 C 0.38894 0.51123 0.75915 0.0
C220 C 0.41537 0.5309 0.83847 0.0
C221 C 0.39353 0.53755 0.78946 0.0
C222 C 0.42888 0.47111 0.82689 0.0
C223 C 0.56369 0.45915 0.07141 0.0
C224 C 0.45394 0.4906 0.91201 0.0
C225 C 0.41453 0.35681 0.06465 0.0
C226 C 0.44305 0.34039 0.05051 0.0
C227 C 0.54152 0.54289 0.98 0.0
C228 C 0.60852 0.57426 0.21145 0.0
C229 C 0.63984 0.60081 0.28409 0.0
C230 C 0.66194 0.6195 0.25063 0.0
C231 C 0.63141 0.59281 0.17948 0.0
C232 C 0.61293 0.57819 0.26393 0.0
C233 C 0.65774 0.61543 0.19885 0.0
C234 C 0.46838 0.55123 0.05075 0.0
C235 C 0.58008 0.55079 0.1906 0.0
H236 H 0.37075 0.51715 0.72207 0.0
H237 H 0.41791 0.55173 0.8614 0.0
H238 H 0.37964 0.56314 0.77514 0.0
H239 H 0.44277 0.44555 0.84163 0.0
H240 H 0.68319 0.6366 0.26482 0.0
H241 H 0.62918 0.58969 0.13969 0.0
H242 H 0.59536 0.56381 0.28886 0.0
H243 H 0.67525 0.6296 0.17371 0.0
H244 H 0.24788 0.16208 0.53404 0.0
H245 H 0.1933 0.23958 0.40271 0.0
H246 H 0.1354 0.20943 0.41308 0.0
H247 H 0.20146 0.08634 0.50831 0.0
H248 H 0.19974 0.06671 0.57547 0.0
H249 H 0.23514 0.0971 0.56011 0.0
H250 H 0.21694 0.13614 0.62172 0.0
H251 H 0.18102 0.10565 0.63543 0.0
H252 H 0.17141 0.15277 0.61057 0.0
H253 H 0.0857 0.16421 0.42837 0.0
H254 H 0.04709 0.11241 0.45395 0.0
H255 H 0.13214 0.06692 0.58053 0.0
C256 C 0.22346 0.17346 0.50879 0.0
C257 C 0.22496 0.20358 0.46803 0.0
C258 C 0.19264 0.21712 0.43484 0.0
C259 C 0.15968 0.19993 0.44027 0.0
C260 C 0.15928 0.16958 0.47981 0.0
C261 C 0.19022 0.15704 0.51444 0.0
C262 C 0.1828 0.12314 0.5523 0.0
C263 C 0.20617 0.09147 0.54873 0.0
C264 C 0.18838 0.12984 0.60833 0.0
C265 C 0.14334 0.11742 0.53196 0.0
C266 C 0.13024 0.14457 0.49014 0.0
C267 C 0.09549 0.14338 0.46185 0.0
C268 C 0.07376 0.11381 0.47647 0.0
C269 C 0.08645 0.08602 0.51952 0.0
C270 C 0.12153 0.0882 0.54808 0.0
H271 H 0.37509 0.72153 0.10826 0.0
H272 H 0.29817 0.72387 0.96535 0.0
H273 H 0.32392 0.66667 0.9558 0.0
H274 H 0.4487 0.69216 0.06417 0.0
H275 H 0.4679 0.66424 0.1257 0.0
H276 H 0.44068 0.70269 0.12443 0.0
H277 H 0.39877 0.66201 0.17782 0.0
H278 H 0.42603 0.62342 0.1795 0.0
H279 H 0.3785 0.6235 0.15439 0.0
H280 H 0.36275 0.61199 0.95782 0.0
H281 H 0.40913 0.56476 0.97208 0.0
H282 H 0.46066 0.59919 0.11365 0.0
C283 C 0.36332 0.7099 0.07513 0.0
C284 C 0.33458 0.72738 0.03741 0.0
C285 C 0.31987 0.7109 0.99505 0.0
C286 C 0.33449 0.67848 0.98919 0.0
C287 C 0.36363 0.66268 0.02626 0.0
C288 C 0.37762 0.67777 0.06869 0.0
C289 C 0.41012 0.65678 0.10164 0.0
C290 C 0.44383 0.68038 0.1041 0.0
C291 C 0.40291 0.64046 0.15659 0.0
C292 C 0.41287 0.62788 0.07062 0.0
C293 C 0.38572 0.63151 0.02746 0.0
C294 C 0.38384 0.60876 0.99184 0.0
C295 C 0.41044 0.58195 1.00033 0.0
C296 C 0.43883 0.57802 0.04406 0.0
C297 C 0.43949 0.60119 0.07986 0.0
H298 H 0.87463 0.79691 0.69513 0.0
H299 H 0.77413 0.82324 0.58701 0.0
H300 H 0.80436 0.87333 0.53631 0.0
H301 H 0.89638 0.88682 0.70214 0.0
H302 H 0.94412 0.8798 0.70963 0.0
H303 H 0.91602 0.84322 0.73204 0.0
H304 H 0.93961 0.80455 0.67437 0.0
H305 H 0.96822 0.84106 0.65322 0.0
H306 H 0.93723 0.82246 0.60568 0.0
H307 H 0.84695 0.92381 0.49979 0.0
H308 H 0.89504 0.96874 0.48493 0.0
H309 H 0.96351 0.91227 0.62436 0.0
C310 C 0.85855 0.81307 0.66093 0.0
C311 C 0.82152 0.80593 0.6458 0.0
C312 C 0.80245 0.82758 0.59958 0.0
C313 C 0.81943 0.85637 0.57066 0.0
C314 C 0.85553 0.86349 0.58847 0.0
C315 C 0.87468 0.8423 0.63281 0.0
C316 C 0.91211 0.85676 0.64701 0.0
C317 C 0.91744 0.86727 0.70089 0.0
C318 C 0.94099 0.82958 0.6449 0.0
C319 C 0.91131 0.88956 0.60385 0.0
C320 C 0.87875 0.8929 0.56975 0.0
C321 C 0.87237 0.92128 0.52648 0.0
C322 C 0.89977 0.94667 0.51825 0.0
C323 C 0.93278 0.94394 0.55366 0.0
C324 C 0.93841 0.91503 0.59686 0.0
H325 H 0.69378 0.32629 0.99068 0.0
H326 H 0.71095 0.26674 0.15003 0.0
H327 H 0.67643 0.31326 0.17508 0.0
H328 H 0.69644 0.41906 0.02363 0.0
H329 H 0.66237 0.43532 0.96756 0.0
H330 H 0.6935 0.40069 0.96549 0.0
H331 H 0.63975 0.36161 0.9388 0.0
H332 H 0.60753 0.39401 0.94443 0.0
H333 H 0.60786 0.34873 0.98173 0.0
H334 H 0.63274 0.36281 0.17925 0.0
H335 H 0.58807 0.41227 0.16356 0.0
H336 H 0.60085 0.43938 1.00152 0.0
C337 C 0.69142 0.32382 0.03126 0.0
C338 C 0.70542 0.29321 0.06866 0.0
C339 C 0.70107 0.29035 0.1211 0.0
C340 C 0.68128 0.31654 0.1355 0.0
C341 C 0.66651 0.3457 0.09711 0.0
C342 C 0.67215 0.34986 0.04626 0.0
C343 C 0.6516 0.38214 0.01148 0.0
C344 C 0.67753 0.41101 0.99083 0.0
C345 C 0.62509 0.37098 0.96646 0.0
C346 C 0.63215 0.39462 0.04999 0.0
C347 C 0.64135 0.37363 0.09936 0.0
C348 C 0.62575 0.37958 0.14082 0.0
C349 C 0.60032 0.40767 0.13156 0.0
C350 C 0.59044 0.42932 0.08114 0.0
C351 C 0.60708 0.4228 0.04022 0.0
H352 H 0.12231 0.8603 0.07325 0.0
H353 H 0.23368 0.86978 0.14623 0.0
H354 H 0.21352 0.89137 0.21765 0.0
H355 H 0.09384 0.94268 0.09897 0.0
H356 H 0.05007 0.92649 0.10967 0.0
H357 H 0.073 0.90781 0.06705 0.0
H358 H 0.06724 0.84401 0.12171 0.0
H359 H 0.04438 0.86252 0.16465 0.0
H360 H 0.08423 0.83521 0.19094 0.0
H361 H 0.18135 0.91377 0.28088 0.0
H362 H 0.13979 0.93971 0.32626 0.0
H363 H 0.05003 0.92112 0.20833 0.0
C364 C 0.14268 0.86695 0.10395 0.0
C365 C 0.1798 0.86253 0.10378 0.0
C366 C 0.20511 0.87153 0.14558 0.0
C367 C 0.19392 0.88423 0.18641 0.0
C368 C 0.15728 0.88841 0.18496 0.0
C369 C 0.13204 0.8804 0.14452 0.0
C370 C 0.0944 0.88968 0.15035 0.0
C371 C 0.0768 0.91837 0.10375 0.0
C372 C 0.0712 0.85583 0.15734 0.0
C373 C 0.10247 0.90451 0.20009 0.0
C374 C 0.13886 0.90298 0.21994 0.0
C375 C 0.1528 0.91509 0.26566 0.0
C376 C 0.12901 0.92962 0.29132 0.0
C377 C 0.09175 0.93246 0.27082 0.0
C378 C 0.07842 0.91944 0.22477 0.0
H379 H 0.66695 0.6012 0.76316 0.0
H380 H 0.63304 0.71103 0.75229 0.0
H381 H 0.59312 0.68978 0.81629 0.0
H382 H 0.58233 0.55824 0.77761 0.0
H383 H 0.60192 0.51984 0.82499 0.0
H384 H 0.6272 0.5434 0.77752 0.0
H385 H 0.67868 0.55267 0.85182 0.0
H386 H 0.65363 0.52948 0.89987 0.0
H387 H 0.66933 0.57436 0.9025 0.0
H388 H 0.55529 0.65635 0.87923 0.0
H389 H 0.52721 0.61421 0.94367 0.0
H390 H 0.58797 0.52595 0.91861 0.0
C391 C 0.65096 0.62071 0.77416 0.0
C392 C 0.65284 0.65783 0.75237 0.0
C393 C 0.63201 0.68257 0.76842 0.0
C394 C 0.60916 0.67069 0.80459 0.0
C395 C 0.60774 0.63395 0.82506 0.0
C396 C 0.62848 0.60933 0.81104 0.0
C397 C 0.62303 0.57152 0.84067 0.0
C398 C 0.6077 0.54679 0.80293 0.0
C399 C 0.65826 0.5561 0.8758 0.0
C400 C 0.59563 0.57863 0.87296 0.0
C401 C 0.58702 0.61483 0.86298 0.0
C402 C 0.56208 0.62803 0.88754 0.0
C403 C 0.54625 0.60386 0.92414 0.0
C404 C 0.55563 0.56687 0.93665 0.0
C405 C 0.58017 0.55405 0.90982 0.0
H406 H 0.87034 0.10284 0.17871 0.0
H407 H 0.86912 0.21174 0.20512 0.0
H408 H 0.90307 0.19125 0.29488 0.0
H409 H 0.85902 0.05953 0.31168 0.0
H410 H 0.88723 0.02165 0.31323 0.0
H411 H 0.86187 0.04479 0.25208 0.0
H412 H 0.92053 0.05586 0.2133 0.0
H413 H 0.94505 0.03189 0.27435 0.0
H414 H 0.95795 0.07689 0.24783 0.0
H415 H 0.94154 0.15951 0.37887 0.0
H416 H 0.97684 0.11821 0.45349 0.0
H417 H 0.94972 0.02902 0.3752 0.0
C418 C 0.87704 0.12228 0.20362 0.0
C419 C 0.86734 0.15893 0.18508 0.0
C420 C 0.8762 0.18357 0.21878 0.0
C421 C 0.89559 0.17217 0.26963 0.0
C422 C 0.90535 0.13593 0.28638 0.0
C423 C 0.89584 0.11124 0.25468 0.0
C424 C 0.90917 0.07378 0.2823 0.0
C425 C 0.87743 0.04845 0.2903 0.0
C426 C 0.93472 0.05878 0.25263 0.0
C427 C 0.92892 0.0814 0.33384 0.0
C428 C 0.92621 0.11742 0.33546 0.0
C429 C 0.9431 0.13117 0.37836 0.0
C430 C 0.96274 0.10747 0.42091 0.0
C431 C 0.96503 0.07038 0.42077 0.0
C432 C 0.94826 0.05727 0.37634 0.0
H433 H 0.35435 0.41204 0.50635 0.0
H434 H 0.35869 0.30179 0.59243 0.0
H435 H 0.37448 0.3237 0.6751 0.0
H436 H 0.4323 0.44051 0.58637 0.0
H437 H 0.41445 0.485 0.5804 0.0
H438 H 0.40113 0.46053 0.5287 0.0
H439 H 0.33422 0.46826 0.53461 0.0
H440 H 0.34732 0.49279 0.58628 0.0
H441 H 0.31966 0.45356 0.59637 0.0
H442 H 0.39024 0.35902 0.7496 0.0
H443 H 0.40388 0.40348 0.80669 0.0
H444 H 0.39631 0.48885 0.66933 0.0
C445 C 0.35895 0.3922 0.5423 0.0
C446 C 0.35521 0.35498 0.54219 0.0
C447 C 0.36068 0.33044 0.59089 0.0
C448 C 0.37006 0.34264 0.63824 0.0
C449 C 0.37432 0.37945 0.63651 0.0
C450 C 0.36907 0.40377 0.5896 0.0
C451 C 0.37633 0.44181 0.59765 0.0
C452 C 0.40793 0.4579 0.57175 0.0
C453 C 0.34236 0.46549 0.57754 0.0
C454 C 0.38616 0.43531 0.65654 0.0
C455 C 0.38471 0.39926 0.67852 0.0
C456 C 0.3917 0.38727 0.73259 0.0
C457 C 0.39978 0.4128 0.76481 0.0
C458 C 0.40112 0.45001 0.74299 0.0
C459 C 0.39487 0.46091 0.68789 0.0
H460 H 0.69146 0.70043 0.52728 0.0
H461 H 0.68845 0.59581 0.62813 0.0
H462 H 0.67311 0.56787 0.55094 0.0
H463 H 0.61755 0.6871 0.42989 0.0
H464 H 0.63682 0.71049 0.37542 0.0
H465 H 0.64938 0.72249 0.43842 0.0
H466 H 0.71647 0.71157 0.43709 0.0
H467 H 0.70415 0.69995 0.37378 0.0
H468 H 0.73043 0.66895 0.42667 0.0
H469 H 0.6548 0.5514 0.46297 0.0
H470 H 0.63987 0.547 0.37004 0.0
H471 H 0.65493 0.66194 0.32535 0.0
C472 C 0.68825 0.67157 0.53304 0.0
C473 C 0.69097 0.65037 0.58388 0.0
C474 C 0.6861 0.6127 0.58965 0.0
C475 C 0.67741 0.59654 0.54601 0.0
C476 C 0.67384 0.61826 0.49652 0.0
C477 C 0.67951 0.6549 0.48968 0.0
C478 C 0.67346 0.67204 0.43203 0.0
C479 C 0.64246 0.69966 0.41814 0.0
C480 C 0.7082 0.68913 0.41648 0.0
C481 C 0.66338 0.63937 0.40773 0.0
C482 C 0.66361 0.60866 0.44567 0.0
C483 C 0.65467 0.57527 0.43289 0.0
C484 C 0.64589 0.57307 0.37993 0.0
C485 C 0.6462 0.60404 0.34017 0.0
C486 C 0.65479 0.63765 0.35465 0.0
H487 H 0.82161 0.12575 0.97493 0.0
H488 H 0.91379 0.1926 1.00847 0.0
H489 H 0.94084 0.17333 0.93962 0.0
H490 H 0.87202 0.05197 0.95503 0.0
H491 H 0.83774 0.04111 0.9041 0.0
H492 H 0.82546 0.06153 0.95423 0.0
H493 H 0.79259 0.11299 0.88348 0.0
H494 H 0.80485 0.09276 0.83315 0.0
H495 H 0.81672 0.13866 0.83605 0.0
H496 H 0.95612 0.14802 0.86345 0.0
H497 H 0.96045 0.11636 0.79229 0.0
H498 H 0.86136 0.0606 0.81743 0.0
C499 C 0.84739 0.13643 0.96743 0.0
C500 C 0.86554 0.16094 0.99632 0.0
C501 C 0.8995 0.17394 0.98634 0.0
C502 C 0.91497 0.16316 0.94737 0.0
C503 C 0.89637 0.13887 0.91943 0.0
C504 C 0.86352 0.12535 0.92955 0.0
C505 C 0.84965 0.09852 0.89571 0.0
C506 C 0.84602 0.06106 0.92928 0.0
C507 C 0.81384 0.11152 0.85998 0.0
C508 C 0.87962 0.09919 0.86462 0.0
C509 C 0.90615 0.1229 0.87827 0.0
C510 C 0.93569 0.129 0.85303 0.0
C511 C 0.93807 0.11049 0.81276 0.0
C512 C 0.91135 0.08558 0.79841 0.0
C513 C 0.88207 0.07981 0.82575 0.0
H514 H 0.39267 0.33073 0.32686 0.0
H515 H 0.34922 0.42265 0.3707 0.0
H516 H 0.37705 0.4634 0.30513 0.0
H517 H 0.47649 0.36917 0.30585 0.0
H518 H 0.47945 0.35058 0.24938 0.0
H519 H 0.45433 0.3276 0.29744 0.0
H520 H 0.39783 0.32871 0.226 0.0
H521 H 0.42308 0.35125 0.17781 0.0
H522 H 0.38174 0.37089 0.18477 0.0
H523 H 0.4141 0.49473 0.24252 0.0
H524 H 0.45372 0.51531 0.17863 0.0
H525 H 0.47137 0.40484 0.16766 0.0
C526 C 0.38841 0.3594 0.3218 0.0
C527 C 0.36895 0.37339 0.35464 0.0
C528 C 0.36439 0.41117 0.34687 0.0
C529 C 0.38003 0.43463 0.3095 0.0
C530 C 0.39996 0.42018 0.27913 0.0
C531 C 0.40381 0.3835 0.284 0.0
C532 C 0.42744 0.37559 0.24657 0.0
C533 C 0.46144 0.35448 0.27662 0.0
C534 C 0.40623 0.35542 0.20637 0.0
C535 C 0.43661 0.4135 0.22085 0.0
C536 C 0.42052 0.43866 0.24075 0.0
C537 C 0.42647 0.47533 0.22612 0.0
C538 C 0.4493 0.48676 0.19007 0.0
C539 C 0.46579 0.46179 0.1682 0.0
C540 C 0.459 0.42459 0.18349 0.0
H541 H 0.18895 0.91219 0.89659 0.0
H542 H 0.13235 0.81129 0.91781 0.0
H543 H 0.09202 0.83177 0.83284 0.0
H544 H 0.11345 0.96807 0.84129 0.0
H545 H 0.13499 0.9982 0.79481 0.0
H546 H 0.16131 0.97468 0.85485 0.0
H547 H 0.2022 0.94802 0.80287 0.0
H548 H 0.17619 0.97182 0.74265 0.0
H549 H 0.18217 0.92384 0.75316 0.0
H550 H 0.05583 0.86468 0.74831 0.0
H551 H 0.02762 0.90664 0.66863 0.0
H552 H 0.10761 0.98659 0.70166 0.0
C553 C 0.16847 0.89427 0.88259 0.0
C554 C 0.16383 0.86001 0.91298 0.0
C555 C 0.13643 0.8374 0.89444 0.0
C556 C 0.11343 0.84887 0.84644 0.0
C557 C 0.1183 0.88303 0.81754 0.0
C558 C 0.14534 0.90531 0.83463 0.0
C559 C 0.14403 0.94116 0.79683 0.0
C560 C 0.13809 0.97236 0.82356 0.0
C561 C 0.17818 0.94652 0.77244 0.0
C562 C 0.1115 0.93594 0.75657 0.0
C563 C 0.09725 0.9021 0.76905 0.0
C564 C 0.06694 0.89113 0.73806 0.0
C565 C 0.05106 0.91517 0.69288 0.0
C566 C 0.06548 0.94979 0.67891 0.0
C567 C 0.0959 0.96035 0.71156 0.0
loop_
_geom_bond_atom_site_label_1
_geom_bond_atom_site_label_2
_geom_bond_distance
_geom_bond_site_symmetry_2
_ccdc_geom_bond_type
H0 C1 0.949 . S
C1 H0 0.949 . S
C1 C2 1.395 . S
C1 C3 1.391 . S
C2 C1 1.395 . S
C2 C5 1.390 . S
C3 C1 1.391 . S
C3 C7 1.387 1_554 S
C3 C8 1.491 . S
H4 C5 0.950 . S
C5 C2 1.390 . S
C5 H4 0.950 . S
C5 C6 1.378 1_554 S
C6 C5 1.378 1_556 S
C6 C7 1.409 . S
C7 C3 1.387 1_556 S
C7 C6 1.409 . S
C7 H9 0.951 . S
C8 C3 1.491 . S
C8 C10 1.382 . S
C8 C12 1.404 1_554 S
H9 C7 0.951 . S
C10 C8 1.382 . S
C10 C11 1.390 . S
C10 H15 0.949 . S
C11 C10 1.390 . S
C11 C16 1.399 . S
C12 C8 1.404 1_556 S
C12 H13 0.950 . S
C12 C14 1.375 . S
H13 C12 0.950 . S
C14 C12 1.375 . S
C14 C16 1.382 1_556 S
C14 H18 0.950 . S
H15 C10 0.949 . S
C16 C11 1.399 . S
C16 C14 1.382 1_554 S
C16 H17 0.952 . S
H17 C16 0.952 . S
H18 C14 0.950 . S
H19 C20 0.949 . S
C20 H19 0.949 . S
C20 C21 1.395 . S
C20 C22 1.391 . S
C21 C20 1.395 . S
C21 C24 1.390 . S
C22 C20 1.391 . S
C22 C26 1.387 . S
C22 C27 1.491 . S
H23 C24 0.950 . S
C24 C21 1.390 . S
C24 H23 0.950 . S
C24 C25 1.378 . S
C25 C24 1.378 . S
C25 C26 1.409 . S
C26 C22 1.387 . S
C26 C25 1.409 . S
C26 H28 0.951 . S
C27 C22 1.491 . S
C27 C29 1.382 . S
C27 C31 1.404 . S
H28 C26 0.951 . S
C29 C27 1.382 . S
C29 C30 1.390 . S
C29 H34 0.949 . S
C30 C29 1.390 . S
C30 C35 1.399 . S
C31 C27 1.404 . S
C31 H32 0.950 . S
C31 C33 1.375 . S
H32 C31 0.950 . S
C33 C31 1.375 . S
C33 C35 1.382 . S
C33 H37 0.950 . S
H34 C29 0.949 . S
C35 C30 1.399 . S
C35 C33 1.382 . S
C35 H36 0.952 . S
H36 C35 0.952 . S
H37 C33 0.950 . S
H38 C39 0.949 . S
C39 H38 0.949 . S
C39 C40 1.395 . S
C39 C41 1.391 . S
C40 C39 1.395 . S
C40 C43 1.390 . S
C41 C39 1.391 . S
C41 C45 1.387 1_554 S
C41 C46 1.491 . S
H42 C43 0.950 . S
C43 C40 1.390 . S
C43 H42 0.950 . S
C43 C44 1.378 . S
C44 C43 1.378 . S
C44 C45 1.409 1_554 S
C45 C41 1.387 1_556 S
C45 C44 1.409 1_556 S
C45 H47 0.951 . S
C46 C41 1.491 . S
C46 C48 1.382 . S
C46 C50 1.404 1_554 S
H47 C45 0.951 . S
C48 C46 1.382 . S
C48 C49 1.390 . S
C48 H53 0.949 . S
C49 C48 1.390 . S
C49 C54 1.399 1_554 S
C50 C46 1.404 1_556 S
C50 H51 0.950 . S
C50 C52 1.375 . S
H51 C50 0.950 . S
C52 C50 1.375 . S
C52 C54 1.382 . S
C52 H56 0.950 . S
H53 C48 0.949 . S
C54 C49 1.399 1_556 S
C54 C52 1.382 . S
C54 H55 0.952 . S
H55 C54 0.952 . S
H56 C52 0.950 . S
H57 C58 0.949 . S
C58 H57 0.949 . S
C58 C59 1.395 . S
C58 C60 1.391 . S
C59 C58 1.395 . S
C59 C62 1.390 . S
C60 C58 1.391 . S
C60 C64 1.387 . S
C60 C65 1.491 . S
H61 C62 0.950 . S
C62 C59 1.390 . S
C62 H61 0.950 . S
C62 C63 1.378 . S
C63 C62 1.378 . S
C63 C64 1.409 . S
C64 C60 1.387 . S
C64 C63 1.409 . S
C64 H66 0.951 . S
C65 C60 1.491 . S
C65 C67 1.382 . S
C65 C69 1.404 . S
H66 C64 0.951 . S
C67 C65 1.382 . S
C67 C68 1.390 . S
C67 H72 0.949 . S
C68 C67 1.390 . S
C68 C73 1.399 . S
C69 C65 1.404 . S
C69 H70 0.950 . S
C69 C71 1.375 . S
H70 C69 0.950 . S
C71 C69 1.375 . S
C71 C73 1.382 . S
C71 H75 0.950 . S
H72 C67 0.949 . S
C73 C68 1.399 . S
C73 C71 1.382 . S
C73 H74 0.952 . S
H74 C73 0.952 . S
H75 C71 0.950 . S
Tb76 N105 2.617 . S
Tb76 N111 2.572 . S
Tb76 O120 2.465 . S
Tb76 O121 2.387 . S
Tb76 O123 2.428 . S
Tb76 O124 2.308 1_565 S
Tb76 O128 2.349 1_465 S
Tb76 O131 2.393 1_455 S
Tb76 C140 2.802 . S
C77 N78 1.379 . S
C77 C80 1.416 . S
C77 C84 1.424 . S
N78 C77 1.379 . S
N78 C81 1.334 1_655 S
N78 Tb87 2.617 . S
C79 C81 1.390 . S
C79 C82 1.339 1_455 S
C79 H99 0.930 . S
C80 C77 1.416 . S
C80 C82 1.416 . S
C80 C86 1.448 . S
C81 N78 1.334 1_455 S
C81 C79 1.390 . S
C81 H92 0.930 . S
C82 C79 1.339 1_655 S
C82 C80 1.416 . S
C82 H103 0.930 . S
C83 C84 1.413 . S
C83 C85 1.427 . S
C83 C89 1.416 . S
C84 C77 1.424 . S
C84 C83 1.413 . S
C84 N88 1.361 . S
C85 C83 1.427 . S
C85 C86 1.328 . S
C85 H100 0.929 . S
C86 C80 1.448 . S
C86 C85 1.328 . S
C86 H101 0.930 . S
Tb87 N78 2.617 . S
Tb87 N88 2.572 . S
Tb87 O122 2.349 1_655 S
Tb87 O125 2.393 1_655 S
Tb87 O126 2.465 . S
Tb87 O127 2.387 . S
Tb87 O129 2.428 . S
Tb87 O130 2.308 1_545 S
Tb87 C151 2.802 . S
N88 C84 1.361 . S
N88 Tb87 2.572 . S
N88 C90 1.340 . S
C89 C83 1.416 . S
C89 C91 1.332 . S
C89 H97 0.931 . S
C90 N88 1.340 . S
C90 C91 1.407 . S
C90 H96 0.930 . S
C91 C89 1.332 . S
C91 C90 1.407 . S
C91 H93 0.929 . S
H92 C81 0.930 . S
H93 C91 0.929 . S
H94 C109 0.930 1_655 S
H95 C116 0.929 . S
H96 C90 0.930 . S
H97 C89 0.931 . S
H98 C112 0.930 . S
H99 C79 0.930 . S
H100 C85 0.929 . S
H101 C86 0.930 . S
H102 C107 0.930 1_655 S
H103 C82 0.930 . S
H104 C115 0.931 . S
N105 Tb76 2.617 . S
N105 C106 1.379 . S
N105 C109 1.334 . S
C106 N105 1.379 . S
C106 C108 1.416 . S
C106 C114 1.424 . S
C107 H102 0.930 1_455 S
C107 C109 1.390 . S
C107 C110 1.339 . S
C108 C106 1.416 . S
C108 C110 1.416 . S
C108 C141 1.448 . S
C109 H94 0.930 1_455 S
C109 N105 1.334 . S
C109 C107 1.390 . S
C110 C107 1.339 . S
C110 C108 1.416 . S
C110 H117 0.930 . S
N111 Tb76 2.572 . S
N111 C112 1.340 . S
N111 C114 1.361 . S
C112 H98 0.930 . S
C112 N111 1.340 . S
C112 C116 1.407 . S
C113 C114 1.413 . S
C113 C115 1.416 . S
C113 C142 1.427 . S
C114 C106 1.424 . S
C114 N111 1.361 . S
C114 C113 1.413 . S
C115 H104 0.931 . S
C115 C113 1.416 . S
C115 C116 1.332 . S
C116 H95 0.929 . S
C116 C112 1.407 . S
C116 C115 1.332 . S
H117 C110 0.930 . S
H118 C141 0.930 . S
H119 C142 0.929 . S
O120 Tb76 2.465 . S
O120 C140 1.264 . S
O121 Tb76 2.387 . S
O121 C132 1.264 . S
O122 Tb87 2.349 1_455 S
O122 C132 1.243 1_545 S
O123 Tb76 2.428 . S
O123 C140 1.256 . S
O124 Tb76 2.308 1_545 S
O124 C139 1.266 . S
O125 Tb87 2.393 1_455 S
O125 C139 1.248 . S
O126 Tb87 2.465 . S
O126 C151 1.264 . S
O127 Tb87 2.387 . S
O127 C143 1.264 . S
O128 Tb76 2.349 1_645 S
O128 C143 1.243 . S
O129 Tb87 2.428 . S
O129 C151 1.256 . S
O130 Tb87 2.308 1_565 S
O130 C150 1.266 . S
O131 Tb76 2.393 1_655 S
O131 C150 1.248 . S
C132 O121 1.264 . S
C132 O122 1.243 1_565 S
C133 C136 1.399 . S
C133 C138 1.383 . S
C133 C140 1.496 . S
C134 C135 1.399 . S
C134 C138 1.389 . S
C135 C134 1.399 . S
C135 C137 1.380 . S
C135 H152 0.929 . S
C136 C133 1.399 . S
C136 C137 1.392 . S
C136 H153 0.929 . S
C137 C135 1.380 . S
C137 C136 1.392 . S
C137 H154 0.929 . S
C138 C133 1.383 . S
C138 C134 1.389 . S
C138 H155 0.931 . S
C139 O124 1.266 . S
C139 O125 1.248 . S
C140 Tb76 2.802 . S
C140 O120 1.264 . S
C140 O123 1.256 . S
C140 C133 1.496 . S
C141 C108 1.448 . S
C141 H118 0.930 . S
C141 C142 1.328 . S
C142 C113 1.427 . S
C142 H119 0.929 . S
C142 C141 1.328 . S
C143 O127 1.264 . S
C143 O128 1.243 . S
C144 C147 1.399 . S
C144 C148 1.383 . S
C144 C151 1.496 . S
C145 C146 1.399 . S
C145 C148 1.389 . S
C146 C145 1.399 . S
C146 C149 1.380 . S
C146 H156 0.929 . S
C147 C144 1.399 . S
C147 C149 1.392 . S
C147 H157 0.929 . S
C148 C144 1.383 . S
C148 C145 1.389 . S
C148 H158 0.931 . S
C149 C146 1.380 . S
C149 C147 1.392 . S
C149 H159 0.929 . S
C150 O130 1.266 . S
C150 O131 1.248 . S
C151 Tb87 2.802 . S
C151 O126 1.264 . S
C151 O129 1.256 . S
C151 C144 1.496 . S
H152 C135 0.929 . S
H153 C136 0.929 . S
H154 C137 0.929 . S
H155 C138 0.931 . S
H156 C146 0.929 . S
H157 C147 0.929 . S
H158 C148 0.931 . S
H159 C149 0.929 . S
Tb160 N189 2.608 1_556 S
Tb160 N195 2.569 1_556 S
Tb160 O204 2.484 . S
Tb160 O205 2.365 1_556 S
Tb160 O207 2.446 . S
Tb160 O208 2.304 1_556 S
Tb160 O212 2.360 . S
Tb160 O215 2.386 1_556 S
Tb160 C224 2.823 . S
C161 N162 1.379 . S
C161 C164 1.416 . S
C161 C168 1.424 . S
N162 C161 1.379 . S
N162 C165 1.334 . S
N162 Tb171 2.617 . S
C163 C165 1.390 . S
C163 C166 1.339 . S
C163 H183 0.930 . S
C164 C161 1.416 . S
C164 C166 1.416 . S
C164 C170 1.448 . S
C165 N162 1.334 . S
C165 C163 1.390 . S
C165 H176 0.930 . S
C166 C163 1.339 . S
C166 C164 1.416 . S
C166 H187 0.930 . S
C167 C168 1.413 . S
C167 C169 1.427 . S
C167 C173 1.416 . S
C168 C161 1.424 . S
C168 C167 1.413 . S
C168 N172 1.361 . S
C169 C167 1.427 . S
C169 C170 1.328 . S
C169 H184 0.929 . S
C170 C164 1.448 . S
C170 C169 1.328 . S
C170 H185 0.930 . S
Tb171 N162 2.617 . S
Tb171 N172 2.572 . S
Tb171 O206 2.349 . S
Tb171 O209 2.393 . S
Tb171 O210 2.465 . S
Tb171 O211 2.387 . S
Tb171 O213 2.428 . S
Tb171 O214 2.308 . S
Tb171 C235 2.802 . S
N172 C168 1.361 . S
N172 Tb171 2.572 . S
N172 C174 1.340 . S
C173 C167 1.416 . S
C173 C175 1.332 . S
C173 H181 0.931 . S
C174 N172 1.340 . S
C174 C175 1.407 . S
C174 H180 0.930 . S
C175 C173 1.332 . S
C175 C174 1.407 . S
C175 H177 0.929 . S
H176 C165 0.930 . S
H177 C175 0.929 . S
H178 C193 0.930 . S
H179 C200 0.929 . S
H180 C174 0.930 . S
H181 C173 0.931 . S
H182 C196 0.930 . S
H183 C163 0.930 . S
H184 C169 0.929 . S
H185 C170 0.930 . S
H186 C191 0.930 . S
H187 C166 0.930 . S
H188 C199 0.931 . S
N189 Tb160 2.608 1_554 S
N189 C190 1.385 . S
N189 C193 1.336 1_554 S
C190 N189 1.385 . S
C190 C192 1.416 . S
C190 C198 1.424 . S
C191 H186 0.930 . S
C191 C193 1.390 . S
C191 C194 1.339 1_556 S
C192 C190 1.416 . S
C192 C194 1.416 . S
C192 C225 1.448 . S
C193 H178 0.930 . S
C193 N189 1.336 1_556 S
C193 C191 1.390 . S
C194 C191 1.339 1_554 S
C194 C192 1.416 . S
C194 H201 0.930 . S
N195 Tb160 2.569 1_554 S
N195 C196 1.340 . S
N195 C198 1.361 . S
C196 H182 0.930 . S
C196 N195 1.340 . S
C196 C200 1.407 . S
C197 C198 1.413 . S
C197 C199 1.416 . S
C197 C226 1.427 . S
C198 C190 1.424 . S
C198 N195 1.361 . S
C198 C197 1.413 . S
C199 H188 0.931 . S
C199 C197 1.416 . S
C199 C200 1.332 . S
C200 H179 0.929 . S
C200 C196 1.407 . S
C200 C199 1.332 . S
H201 C194 0.930 . S
H202 C225 0.930 . S
H203 C226 0.929 . S
O204 Tb160 2.484 . S
O204 C224 1.264 . S
O205 Tb160 2.365 1_554 S
O205 C216 1.264 . S
O206 Tb171 2.349 . S
O206 C216 1.243 . S
O207 Tb160 2.446 . S
O207 C224 1.256 . S
O208 Tb160 2.304 1_554 S
O208 C223 1.266 . S
O209 Tb171 2.393 . S
O209 C223 1.248 . S
O210 Tb171 2.465 . S
O210 C235 1.264 . S
O211 Tb171 2.387 . S
O211 C227 1.264 1_554 S
O212 Tb160 2.360 . S
O212 C227 1.243 . S
O213 Tb171 2.428 . S
O213 C235 1.256 . S
O214 Tb171 2.308 . S
O214 C234 1.266 . S
O215 Tb160 2.386 1_554 S
O215 C234 1.248 . S
C216 O205 1.264 . S
C216 O206 1.243 . S
C217 C220 1.399 . S
C217 C222 1.383 . S
C217 C224 1.496 . S
C218 C219 1.399 . S
C218 C222 1.389 . S
C219 C218 1.399 . S
C219 C221 1.380 . S
C219 H236 0.929 . S
C220 C217 1.399 . S
C220 C221 1.392 . S
C220 H237 0.929 . S
C221 C219 1.380 . S
C221 C220 1.392 . S
C221 H238 0.929 . S
C222 C217 1.383 . S
C222 C218 1.389 . S
C222 H239 0.931 . S
C223 O208 1.266 . S
C223 O209 1.248 . S
C224 Tb160 2.823 . S
C224 O204 1.264 . S
C224 O207 1.256 . S
C224 C217 1.496 . S
C225 C192 1.448 . S
C225 H202 0.930 . S
C225 C226 1.328 . S
C226 C197 1.427 . S
C226 H203 0.929 . S
C226 C225 1.328 . S
C227 O211 1.264 1_556 S
C227 O212 1.243 . S
C228 C231 1.399 . S
C228 C232 1.383 . S
C228 C235 1.496 . S
C229 C230 1.399 . S
C229 C232 1.389 . S
C230 C229 1.399 . S
C230 C233 1.380 . S
C230 H240 0.929 . S
C231 C228 1.399 . S
C231 C233 1.392 . S
C231 H241 0.929 . S
C232 C228 1.383 . S
C232 C229 1.389 . S
C232 H242 0.931 . S
C233 C230 1.380 . S
C233 C231 1.392 . S
C233 H243 0.929 . S
C234 O214 1.266 . S
C234 O215 1.248 . S
C235 Tb171 2.802 . S
C235 O210 1.264 . S
C235 O213 1.256 . S
C235 C228 1.496 . S
H236 C219 0.929 . S
H237 C220 0.929 . S
H238 C221 0.929 . S
H239 C222 0.931 . S
H240 C230 0.929 . S
H241 C231 0.929 . S
H242 C232 0.931 . S
H243 C233 0.929 . S
H244 C256 0.930 . S
H245 C258 0.930 . S
H246 C259 0.930 . S
H247 C263 0.959 . S
H248 C263 0.959 . S
H249 C263 0.961 . S
H250 C264 0.960 . S
H251 C264 0.961 . S
H252 C264 0.959 . S
H253 C267 0.929 . S
H254 C268 0.931 . S
H255 C270 0.930 . S
C256 H244 0.930 . S
C256 C257 1.399 . S
C256 C261 1.399 . S
C257 C256 1.399 . S
C257 C258 1.376 . S
C258 H245 0.930 . S
C258 C257 1.376 . S
C258 C259 1.388 . S
C259 H246 0.930 . S
C259 C258 1.388 . S
C259 C260 1.390 . S
C260 C259 1.390 . S
C260 C261 1.394 . S
C260 C266 1.465 . S
C261 C256 1.399 . S
C261 C260 1.394 . S
C261 C262 1.516 . S
C262 C261 1.516 . S
C262 C263 1.502 . S
C262 C264 1.561 . S
C262 C265 1.526 . S
C263 H247 0.959 . S
C263 H248 0.959 . S
C263 H249 0.961 . S
C263 C262 1.502 . S
C264 H250 0.960 . S
C264 H251 0.961 . S
C264 H252 0.959 . S
C264 C262 1.561 . S
C265 C262 1.526 . S
C265 C266 1.396 . S
C265 C270 1.390 . S
C266 C260 1.465 . S
C266 C265 1.396 . S
C266 C267 1.399 . S
C267 H253 0.929 . S
C267 C266 1.399 . S
C267 C268 1.385 . S
C268 H254 0.931 . S
C268 C267 1.385 . S
C268 C269 1.389 . S
C269 C268 1.389 . S
C269 C270 1.387 . S
C270 H255 0.930 . S
C270 C265 1.390 . S
C270 C269 1.387 . S
H271 C283 0.930 . S
H272 C285 0.930 1_556 S
H273 C286 0.940 . S
H274 C290 0.959 . S
H275 C290 0.959 . S
H276 C290 0.961 . S
H277 C291 0.960 . S
H278 C291 0.961 . S
H279 C291 0.959 . S
H280 C294 0.929 . S
H281 C295 0.931 . S
H282 C297 0.930 . S
C283 H271 0.930 . S
C283 C284 1.399 . S
C283 C288 1.399 . S
C284 C283 1.399 . S
C284 C285 1.376 . S
C285 H272 0.930 1_554 S
C285 C284 1.376 . S
C285 C286 1.383 1_554 S
C286 H273 0.940 . S
C286 C285 1.383 1_556 S
C286 C287 1.385 1_556 S
C287 C286 1.385 1_554 S
C287 C288 1.394 . S
C287 C293 1.465 . S
C288 C283 1.399 . S
C288 C287 1.394 . S
C288 C289 1.516 . S
C289 C288 1.516 . S
C289 C290 1.502 . S
C289 C291 1.561 . S
C289 C292 1.526 . S
C290 H274 0.959 . S
C290 H275 0.959 . S
C290 H276 0.961 . S
C290 C289 1.502 . S
C291 H277 0.960 . S
C291 H278 0.961 . S
C291 H279 0.959 . S
C291 C289 1.561 . S
C292 C289 1.526 . S
C292 C293 1.396 . S
C292 C297 1.390 . S
C293 C287 1.465 . S
C293 C292 1.396 . S
C293 C294 1.399 1_554 S
C294 H280 0.929 . S
C294 C293 1.399 1_556 S
C294 C295 1.385 . S
C295 H281 0.931 . S
C295 C294 1.385 . S
C295 C296 1.389 1_556 S
C296 C295 1.389 1_554 S
C296 C297 1.387 . S
C297 H282 0.930 . S
C297 C292 1.390 . S
C297 C296 1.387 . S
H298 C310 0.930 . S
H299 C312 0.930 . S
H300 C313 0.930 . S
H301 C317 0.959 . S
H302 C317 0.959 . S
H303 C317 0.961 . S
H304 C318 0.960 . S
H305 C318 0.961 . S
H306 C318 0.959 . S
H307 C321 0.929 . S
H308 C322 0.931 . S
H309 C324 0.930 . S
C310 H298 0.930 . S
C310 C311 1.399 . S
C310 C315 1.399 . S
C311 C310 1.399 . S
C311 C312 1.376 . S
C312 H299 0.930 . S
C312 C311 1.376 . S
C312 C313 1.388 . S
C313 H300 0.930 . S
C313 C312 1.388 . S
C313 C314 1.390 . S
C314 C313 1.390 . S
C314 C315 1.394 . S
C314 C320 1.465 . S
C315 C310 1.399 . S
C315 C314 1.394 . S
C315 C316 1.516 . S
C316 C315 1.516 . S
C316 C317 1.502 . S
C316 C318 1.561 . S
C316 C319 1.526 . S
C317 H301 0.959 . S
C317 H302 0.959 . S
C317 H303 0.961 . S
C317 C316 1.502 . S
C318 H304 0.960 . S
C318 H305 0.961 . S
C318 H306 0.959 . S
C318 C316 1.561 . S
C319 C316 1.526 . S
C319 C320 1.396 . S
C319 C324 1.390 . S
C320 C314 1.465 . S
C320 C319 1.396 . S
C320 C321 1.399 . S
C321 H307 0.929 . S
C321 C320 1.399 . S
C321 C322 1.385 . S
C322 H308 0.931 . S
C322 C321 1.385 . S
C322 C323 1.389 . S
C323 C322 1.389 . S
C323 C324 1.387 . S
C324 H309 0.930 . S
C324 C319 1.390 . S
C324 C323 1.387 . S
H325 C337 0.930 1_556 S
H326 C339 0.930 . S
H327 C340 0.930 . S
H328 C344 0.959 1_554 S
H329 C344 0.959 . S
H330 C344 0.961 . S
H331 C345 0.960 . S
H332 C345 0.961 . S
H333 C345 0.959 . S
H334 C348 0.929 . S
H335 C349 0.931 . S
H336 C351 0.930 1_556 S
C337 H325 0.930 1_554 S
C337 C338 1.399 . S
C337 C342 1.399 . S
C338 C337 1.399 . S
C338 C339 1.376 . S
C339 H326 0.930 . S
C339 C338 1.376 . S
C339 C340 1.388 . S
C340 H327 0.930 . S
C340 C339 1.388 . S
C340 C341 1.390 . S
C341 C340 1.390 . S
C341 C342 1.394 . S
C341 C347 1.465 . S
C342 C337 1.399 . S
C342 C341 1.394 . S
C342 C343 1.516 1_554 S
C343 C342 1.516 1_556 S
C343 C344 1.502 . S
C343 C345 1.561 . S
C343 C346 1.526 1_556 S
C344 H328 0.959 1_556 S
C344 H329 0.959 . S
C344 H330 0.961 . S
C344 C343 1.502 . S
C345 H331 0.960 . S
C345 H332 0.961 . S
C345 H333 0.959 . S
C345 C343 1.561 . S
C346 C343 1.526 1_554 S
C346 C347 1.396 . S
C346 C351 1.390 . S
C347 C341 1.465 . S
C347 C346 1.396 . S
C347 C348 1.399 . S
C348 H334 0.929 . S
C348 C347 1.399 . S
C348 C349 1.385 . S
C349 H335 0.931 . S
C349 C348 1.385 . S
C349 C350 1.389 . S
C350 C349 1.389 . S
C350 C351 1.387 . S
C351 H336 0.930 1_554 S
C351 C346 1.390 . S
C351 C350 1.387 . S
H352 C364 0.930 . S
H353 C366 0.930 . S
H354 C367 0.930 . S
H355 C371 0.959 . S
H356 C371 0.959 . S
H357 C371 0.961 . S
H358 C372 0.960 . S
H359 C372 0.961 . S
H360 C372 0.959 . S
H361 C375 0.929 . S
H362 C376 0.931 1_545 S
H363 C378 0.930 . S
C364 H352 0.930 . S
C364 C365 1.399 . S
C364 C369 1.399 . S
C365 C364 1.399 . S
C365 C366 1.376 . S
C366 H353 0.930 . S
C366 C365 1.376 . S
C366 C367 1.388 . S
C367 H354 0.930 . S
C367 C366 1.388 . S
C367 C368 1.390 . S
C368 C367 1.390 . S
C368 C369 1.394 . S
C368 C374 1.465 . S
C369 C364 1.399 . S
C369 C368 1.394 . S
C369 C370 1.516 . S
C370 C369 1.516 . S
C370 C371 1.502 . S
C370 C372 1.561 . S
C370 C373 1.526 . S
C371 H355 0.959 . S
C371 H356 0.959 . S
C371 H357 0.961 . S
C371 C370 1.502 . S
C372 H358 0.960 . S
C372 H359 0.961 . S
C372 H360 0.959 . S
C372 C370 1.561 . S
C373 C370 1.526 . S
C373 C374 1.396 . S
C373 C378 1.390 . S
C374 C368 1.465 . S
C374 C373 1.396 . S
C374 C375 1.399 . S
C375 H361 0.929 . S
C375 C374 1.399 . S
C375 C376 1.385 . S
C376 H362 0.931 1_565 S
C376 C375 1.385 . S
C376 C377 1.389 . S
C377 C376 1.389 . S
C377 C378 1.387 . S
C378 H363 0.930 . S
C378 C373 1.390 . S
C378 C377 1.387 . S
H379 C391 0.930 . S
H380 C393 0.930 . S
H381 C394 0.930 . S
H382 C398 0.959 . S
H383 C398 0.959 . S
H384 C398 0.961 . S
H385 C399 0.960 . S
H386 C399 0.961 . S
H387 C399 0.959 . S
H388 C402 0.929 . S
H389 C403 0.931 . S
H390 C405 0.930 . S
C391 H379 0.930 . S
C391 C392 1.399 . S
C391 C396 1.399 . S
C392 C391 1.399 . S
C392 C393 1.376 . S
C393 H380 0.930 . S
C393 C392 1.376 . S
C393 C394 1.388 . S
C394 H381 0.930 . S
C394 C393 1.388 . S
C394 C395 1.390 . S
C395 C394 1.390 . S
C395 C396 1.394 . S
C395 C401 1.465 . S
C396 C391 1.399 . S
C396 C395 1.394 . S
C396 C397 1.516 . S
C397 C396 1.516 . S
C397 C398 1.502 . S
C397 C399 1.561 . S
C397 C400 1.526 . S
C398 H382 0.959 . S
C398 H383 0.959 . S
C398 H384 0.961 . S
C398 C397 1.502 . S
C399 H385 0.960 . S
C399 H386 0.961 . S
C399 H387 0.959 . S
C399 C397 1.561 . S
C400 C397 1.526 . S
C400 C401 1.396 . S
C400 C405 1.390 . S
C401 C395 1.465 . S
C401 C400 1.396 . S
C401 C402 1.399 . S
C402 H388 0.929 . S
C402 C401 1.399 . S
C402 C403 1.385 . S
C403 H389 0.931 . S
C403 C402 1.385 . S
C403 C404 1.389 . S
C404 C403 1.389 . S
C404 C405 1.387 . S
C405 H390 0.930 . S
C405 C400 1.390 . S
C405 C404 1.387 . S
H406 C418 0.930 . S
H407 C420 0.930 . S
H408 C421 0.930 . S
H409 C425 0.959 . S
H410 C425 0.960 . S
H411 C425 0.961 . S
H412 C426 0.960 . S
H413 C426 0.978 . S
H414 C426 0.959 . S
H415 C429 0.929 . S
H416 C430 0.931 . S
H417 C432 0.930 . S
C418 H406 0.930 . S
C418 C419 1.399 . S
C418 C423 1.399 . S
C419 C418 1.399 . S
C419 C420 1.376 . S
C420 H407 0.930 . S
C420 C419 1.376 . S
C420 C421 1.388 . S
C421 H408 0.930 . S
C421 C420 1.388 . S
C421 C422 1.390 . S
C422 C421 1.390 . S
C422 C423 1.394 . S
C422 C428 1.465 . S
C423 C418 1.399 . S
C423 C422 1.394 . S
C423 C424 1.516 . S
C424 C423 1.516 . S
C424 C425 1.502 . S
C424 C426 1.561 . S
C424 C427 1.526 . S
C425 H409 0.959 . S
C425 H410 0.960 . S
C425 H411 0.961 . S
C425 C424 1.502 . S
C426 H412 0.960 . S
C426 H413 0.978 . S
C426 H414 0.959 . S
C426 C424 1.561 . S
C427 C424 1.526 . S
C427 C428 1.396 . S
C427 C432 1.390 . S
C428 C422 1.465 . S
C428 C427 1.396 . S
C428 C429 1.399 . S
C429 H415 0.929 . S
C429 C428 1.399 . S
C429 C430 1.385 . S
C430 H416 0.931 . S
C430 C429 1.385 . S
C430 C431 1.389 . S
C431 C430 1.389 . S
C431 C432 1.387 . S
C432 H417 0.930 . S
C432 C427 1.390 . S
C432 C431 1.387 . S
H433 C445 0.930 . S
H434 C447 0.930 . S
H435 C448 0.930 . S
H436 C452 0.959 . S
H437 C452 0.959 . S
H438 C452 0.961 . S
H439 C453 0.960 . S
H440 C453 0.961 . S
H441 C453 0.959 . S
H442 C456 0.929 . S
H443 C457 0.931 . S
H444 C459 0.930 . S
C445 H433 0.930 . S
C445 C446 1.399 . S
C445 C450 1.399 . S
C446 C445 1.399 . S
C446 C447 1.376 . S
C447 H434 0.930 . S
C447 C446 1.376 . S
C447 C448 1.388 . S
C448 H435 0.930 . S
C448 C447 1.388 . S
C448 C449 1.390 . S
C449 C448 1.390 . S
C449 C450 1.394 . S
C449 C455 1.465 . S
C450 C445 1.399 . S
C450 C449 1.394 . S
C450 C451 1.516 . S
C451 C450 1.516 . S
C451 C452 1.502 . S
C451 C453 1.561 . S
C451 C454 1.526 . S
C452 H436 0.959 . S
C452 H437 0.959 . S
C452 H438 0.961 . S
C452 C451 1.502 . S
C453 H439 0.960 . S
C453 H440 0.961 . S
C453 H441 0.959 . S
C453 C451 1.561 . S
C454 C451 1.526 . S
C454 C455 1.396 . S
C454 C459 1.390 . S
C455 C449 1.465 . S
C455 C454 1.396 . S
C455 C456 1.399 . S
C456 H442 0.929 . S
C456 C455 1.399 . S
C456 C457 1.385 . S
C457 H443 0.931 . S
C457 C456 1.385 . S
C457 C458 1.389 . S
C458 C457 1.389 . S
C458 C459 1.387 . S
C459 H444 0.930 . S
C459 C454 1.390 . S
C459 C458 1.387 . S
H460 C472 0.930 . S
H461 C474 0.930 . S
H462 C475 0.930 . S
H463 C479 0.959 . S
H464 C479 0.959 . S
H465 C479 0.961 . S
H466 C480 0.960 . S
H467 C480 0.961 . S
H468 C480 0.959 . S
H469 C483 0.929 . S
H470 C484 0.931 . S
H471 C486 0.930 . S
C472 H460 0.930 . S
C472 C473 1.399 . S
C472 C477 1.399 . S
C473 C472 1.399 . S
C473 C474 1.376 . S
C474 H461 0.930 . S
C474 C473 1.376 . S
C474 C475 1.388 . S
C475 H462 0.930 . S
C475 C474 1.388 . S
C475 C476 1.390 . S
C476 C475 1.390 . S
C476 C477 1.394 . S
C476 C482 1.465 . S
C477 C472 1.399 . S
C477 C476 1.394 . S
C477 C478 1.516 . S
C478 C477 1.516 . S
C478 C479 1.502 . S
C478 C480 1.561 . S
C478 C481 1.526 . S
C479 H463 0.959 . S
C479 H464 0.959 . S
C479 H465 0.961 . S
C479 C478 1.502 . S
C480 H466 0.960 . S
C480 H467 0.961 . S
C480 H468 0.959 . S
C480 C478 1.561 . S
C481 C478 1.526 . S
C481 C482 1.396 . S
C481 C486 1.390 . S
C482 C476 1.465 . S
C482 C481 1.396 . S
C482 C483 1.399 . S
C483 H469 0.929 . S
C483 C482 1.399 . S
C483 C484 1.385 . S
C484 H470 0.931 . S
C484 C483 1.385 . S
C484 C485 1.389 . S
C485 C484 1.389 . S
C485 C486 1.387 . S
C486 H471 0.930 . S
C486 C481 1.390 . S
C486 C485 1.387 . S
H487 C499 0.930 . S
H488 C501 0.930 1_554 S
H489 C502 0.930 . S
H490 C506 0.959 . S
H491 C506 0.959 . S
H492 C506 0.961 . S
H493 C507 0.960 . S
H494 C507 0.961 . S
H495 C507 0.959 . S
H496 C510 0.929 . S
H497 C511 0.931 . S
H498 C513 0.930 . S
C499 H487 0.930 . S
C499 C500 1.399 . S
C499 C504 1.399 . S
C500 C499 1.399 . S
C500 C501 1.376 . S
C501 H488 0.930 1_556 S
C501 C500 1.376 . S
C501 C502 1.388 . S
C502 H489 0.930 . S
C502 C501 1.388 . S
C502 C503 1.390 . S
C503 C502 1.390 . S
C503 C504 1.394 . S
C503 C509 1.465 . S
C504 C499 1.399 . S
C504 C503 1.394 . S
C504 C505 1.516 . S
C505 C504 1.516 . S
C505 C506 1.502 . S
C505 C507 1.561 . S
C505 C508 1.526 . S
C506 H490 0.959 . S
C506 H491 0.959 . S
C506 H492 0.961 . S
C506 C505 1.502 . S
C507 H493 0.960 . S
C507 H494 0.961 . S
C507 H495 0.959 . S
C507 C505 1.561 . S
C508 C505 1.526 . S
C508 C509 1.396 . S
C508 C513 1.390 . S
C509 C503 1.465 . S
C509 C508 1.396 . S
C509 C510 1.399 . S
C510 H496 0.929 . S
C510 C509 1.399 . S
C510 C511 1.385 . S
C511 H497 0.931 . S
C511 C510 1.385 . S
C511 C512 1.389 . S
C512 C511 1.389 . S
C512 C513 1.387 . S
C513 H498 0.930 . S
C513 C508 1.390 . S
C513 C512 1.387 . S
H514 C526 0.930 . S
H515 C528 0.930 . S
H516 C529 0.930 . S
H517 C533 0.959 . S
H518 C533 0.959 . S
H519 C533 0.961 . S
H520 C534 0.960 . S
H521 C534 0.961 . S
H522 C534 0.959 . S
H523 C537 0.929 . S
H524 C538 0.931 . S
H525 C540 0.930 . S
C526 H514 0.930 . S
C526 C527 1.399 . S
C526 C531 1.399 . S
C527 C526 1.399 . S
C527 C528 1.376 . S
C528 H515 0.930 . S
C528 C527 1.376 . S
C528 C529 1.388 . S
C529 H516 0.930 . S
C529 C528 1.388 . S
C529 C530 1.390 . S
C530 C529 1.390 . S
C530 C531 1.394 . S
C530 C536 1.465 . S
C531 C526 1.399 . S
C531 C530 1.394 . S
C531 C532 1.516 . S
C532 C531 1.516 . S
C532 C533 1.502 . S
C532 C534 1.561 . S
C532 C535 1.526 . S
C533 H517 0.959 . S
C533 H518 0.959 . S
C533 H519 0.961 . S
C533 C532 1.502 . S
C534 H520 0.960 . S
C534 H521 0.961 . S
C534 H522 0.959 . S
C534 C532 1.561 . S
C535 C532 1.526 . S
C535 C536 1.396 . S
C535 C540 1.390 . S
C536 C530 1.465 . S
C536 C535 1.396 . S
C536 C537 1.399 . S
C537 H523 0.929 . S
C537 C536 1.399 . S
C537 C538 1.385 . S
C538 H524 0.931 . S
C538 C537 1.385 . S
C538 C539 1.389 . S
C539 C538 1.389 . S
C539 C540 1.387 . S
C540 H525 0.930 . S
C540 C535 1.390 . S
C540 C539 1.387 . S
H541 C553 0.930 . S
H542 C555 0.930 . S
H543 C556 0.930 . S
H544 C560 0.959 . S
H545 C560 0.959 . S
H546 C560 0.961 . S
H547 C561 0.960 . S
H548 C561 0.961 . S
H549 C561 0.959 . S
H550 C564 0.929 . S
H551 C565 0.931 . S
H552 C567 0.930 . S
C553 H541 0.930 . S
C553 C554 1.399 . S
C553 C558 1.399 . S
C554 C553 1.399 . S
C554 C555 1.376 . S
C555 H542 0.930 . S
C555 C554 1.376 . S
C555 C556 1.388 . S
C556 H543 0.930 . S
C556 C555 1.388 . S
C556 C557 1.390 . S
C557 C556 1.390 . S
C557 C558 1.394 . S
C557 C563 1.465 . S
C558 C553 1.399 . S
C558 C557 1.394 . S
C558 C559 1.516 . S
C559 C558 1.516 . S
C559 C560 1.502 . S
C559 C561 1.561 . S
C559 C562 1.526 . S
C560 H544 0.959 . S
C560 H545 0.959 . S
C560 H546 0.961 . S
C560 C559 1.502 . S
C561 H547 0.960 . S
C561 H548 0.961 . S
C561 H549 0.959 . S
C561 C559 1.561 . S
C562 C559 1.526 . S
C562 C563 1.396 . S
C562 C567 1.390 . S
C563 C557 1.465 . S
C563 C562 1.396 . S
C563 C564 1.399 . S
C564 H550 0.929 . S
C564 C563 1.399 . S
C564 C565 1.385 . S
C565 H551 0.931 . S
C565 C564 1.385 . S
C565 C566 1.389 . S
C566 C565 1.389 . S
C566 C567 1.387 . S
C567 H552 0.930 . S
C567 C562 1.390 . S
C567 C566 1.387 . S
C269 C139 1.700 . S
C257 C68 1.657 . S
C284 C11 1.545 . S
C296 C234 1.686 . S
C311 C30 1.651 . S
C323 C150 1.693 . S
C338 C49 1.605 . S
C350 C223 1.650 . S
C377 C134 1.559 . S
C365 C2 1.665 . S
C404 C227 1.775 . S
C392 C25 1.779 . S
C419 C40 1.675 . S
C431 C143 1.701 . S
C446 C59 1.680 . S
C458 C218 1.510 . S
C485 C229 1.384 . S
C473 C21 1.592 . S
C512 C145 1.386 . S
C500 C44 1.598 1_556 S
C539 C216 1.674 . S
C527 C63 1.662 . S
C554 C6 1.627 . S
C566 C132 1.636 . S
