# Generated by pormake.
# Topology zzz, (3,6)-cn, num edge types: 1
# Building blocks:
#     Node 0, Type 0, BuildingBlock: QEWDON_clean_linker_0, # of connection points: 3
#     Node 1, Type 0, BuildingBlock: QEWDON_clean_linker_0, # of connection points: 3
#     Node 2, Type 0, BuildingBlock: QEWDON_clean_linker_0, # of connection points: 3
#     Node 3, Type 0, BuildingBlock: QEWDON_clean_linker_0, # of connection points: 3
#     Node 4, Type 0, BuildingBlock: QEWDON_clean_linker_0, # of connection points: 3
#     Node 5, Type 0, BuildingBlock: QEWDON_clean_linker_0, # of connection points: 3
#     Node 6, Type 0, BuildingBlock: QEWDON_clean_linker_0, # of connection points: 3
#     Node 7, Type 0, BuildingBlock: QEWDON_clean_linker_0, # of connection points: 3
#     Node 8, Type 1, BuildingBlock: LEVNOQ01_clean_sbu_1, # of connection points: 6
#     Node 9, Type 1, BuildingBlock: LEVNOQ01_clean_sbu_1, # of connection points: 6
#     Node 10, Type 1, BuildingBlock: LEVNOQ01_clean_sbu_1, # of connection points: 6
#     Node 11, Type 1, BuildingBlock: LEVNOQ01_clean_sbu_1, # of connection points: 6
#     Edge 12, Type (0, 1), BuildingBlock: XUDNAN_clean_linker_2, # of connection points: 2
#     Edge 13, Type (0, 1), BuildingBlock: XUDNAN_clean_linker_2, # of connection points: 2
#     Edge 14, Type (0, 1), BuildingBlock: XUDNAN_clean_linker_2, # of connection points: 2
#     Edge 15, Type (0, 1), BuildingBlock: XUDNAN_clean_linker_2, # of connection points: 2
#     Edge 16, Type (0, 1), BuildingBlock: XUDNAN_clean_linker_2, # of connection points: 2
#     Edge 17, Type (0, 1), BuildingBlock: XUDNAN_clean_linker_2, # of connection points: 2
#     Edge 18, Type (0, 1), BuildingBlock: XUDNAN_clean_linker_2, # of connection points: 2
#     Edge 19, Type (0, 1), BuildingBlock: XUDNAN_clean_linker_2, # of connection points: 2
#     Edge 20, Type (0, 1), BuildingBlock: XUDNAN_clean_linker_2, # of connection points: 2
#     Edge 21, Type (0, 1), BuildingBlock: XUDNAN_clean_linker_2, # of connection points: 2
#     Edge 22, Type (0, 1), BuildingBlock: XUDNAN_clean_linker_2, # of connection points: 2
#     Edge 23, Type (0, 1), BuildingBlock: XUDNAN_clean_linker_2, # of connection points: 2
#     Edge 24, Type (0, 1), BuildingBlock: XUDNAN_clean_linker_2, # of connection points: 2
#     Edge 25, Type (0, 1), BuildingBlock: XUDNAN_clean_linker_2, # of connection points: 2
#     Edge 26, Type (0, 1), BuildingBlock: XUDNAN_clean_linker_2, # of connection points: 2
#     Edge 27, Type (0, 1), BuildingBlock: XUDNAN_clean_linker_2, # of connection points: 2
#     Edge 28, Type (0, 1), BuildingBlock: XUDNAN_clean_linker_2, # of connection points: 2
#     Edge 29, Type (0, 1), BuildingBlock: XUDNAN_clean_linker_2, # of connection points: 2
#     Edge 30, Type (0, 1), BuildingBlock: XUDNAN_clean_linker_2, # of connection points: 2
#     Edge 31, Type (0, 1), BuildingBlock: XUDNAN_clean_linker_2, # of connection points: 2
#     Edge 32, Type (0, 1), BuildingBlock: XUDNAN_clean_linker_2, # of connection points: 2
#     Edge 33, Type (0, 1), BuildingBlock: XUDNAN_clean_linker_2, # of connection points: 2
#     Edge 34, Type (0, 1), BuildingBlock: XUDNAN_clean_linker_2, # of connection points: 2
#     Edge 35, Type (0, 1), BuildingBlock: XUDNAN_clean_linker_2, # of connection points: 2
# Relax obj value: 0.085
# Max RMSD: 0.176
# Mean RMSD: 0.065
data_MOF--net-zzz--node1-LEVNOQ01_clean_sbu_1--node2-QEWDON_clean_linker_0--edge1-XUDNAN_clean_linker_2
_symmetry_space_group_name_H-M    P1
_symmetry_Int_Tables_number       1
_symmetry_cell_setting            triclinic
loop_
_symmetry_equiv_pos_as_xyz
'x, y, z'
_cell_length_a     54.174841
_cell_length_b     53.837198
_cell_length_c     15.624313
_cell_angle_alpha  89.756093
_cell_angle_beta   89.485948
_cell_angle_gamma 89.856508
loop_
_atom_site_label
_atom_site_type_symbol
_atom_site_fract_x
_atom_site_fract_y
_atom_site_fract_z
_atom_type_partial_charge
H0 H 0.77835 0.56067 0.97028 0.0
C1 C 0.78967 0.55848 0.02666 0.0
C2 C 0.81463 0.55379 0.01562 0.0
C3 C 0.77952 0.56054 0.10946 0.0
H4 H 0.84964 0.54796 0.07596 0.0
C5 C 0.83009 0.55155 0.08624 0.0
C6 C 0.82091 0.55368 0.16943 0.0
C7 C 0.79542 0.55845 0.18147 0.0
C8 C 0.75254 0.56572 0.11779 0.0
H9 H 0.78803 0.55994 0.24586 0.0
C10 C 0.73566 0.5559 0.05797 0.0
C11 C 0.7108 0.56349 0.05785 0.0
C12 C 0.74378 0.58246 0.17969 0.0
H13 H 0.75622 0.59079 0.22509 0.0
C14 C 0.71899 0.58958 0.1811 0.0
H15 H 0.74185 0.54256 0.01063 0.0
C16 C 0.70265 0.58035 0.12051 0.0
H17 H 0.68375 0.58696 0.1213 0.0
H18 H 0.71252 0.60286 0.22808 0.0
H19 H 0.95059 0.78402 0.96473 0.0
C20 C 0.95531 0.7941 0.02218 0.0
C21 C 0.95998 0.81949 0.01622 0.0
C22 C 0.9565 0.78192 0.10212 0.0
H23 H 0.97088 0.85232 0.08411 0.0
C24 C 0.96614 0.83279 0.08961 0.0
C25 C 0.96824 0.82119 0.16894 0.0
C26 C 0.96319 0.79564 0.17582 0.0
C27 C 0.95052 0.75502 0.10765 0.0
H28 H 0.96527 0.78641 0.23708 0.0
C29 C 0.958 0.73845 0.0424 0.0
C30 C 0.95092 0.7134 0.0457 0.0
C31 C 0.93611 0.74597 0.17617 0.0
H32 H 0.92969 0.75828 0.22632 0.0
C33 C 0.92917 0.72102 0.17938 0.0
H34 H 0.9694 0.74488 0.98947 0.0
C35 C 0.93651 0.7048 0.11454 0.0
H36 H 0.93092 0.68551 0.11792 0.0
H37 H 0.91791 0.71428 0.23206 0.0
H38 H 0.73868 0.96328 0.98466 0.0
C39 C 0.72732 0.96253 0.04179 0.0
C40 C 0.70196 0.96465 0.03159 0.0
C41 C 0.73755 0.96013 0.12436 0.0
H42 H 0.66642 0.963 0.09345 0.0
C43 C 0.68622 0.9621 0.10257 0.0
C44 C 0.69535 0.96207 0.18539 0.0
C45 C 0.72119 0.96079 0.19672 0.0
C46 C 0.76499 0.95661 0.13321 0.0
H47 H 0.72832 0.96091 0.26115 0.0
C48 C 0.7817 0.96391 0.06712 0.0
C49 C 0.80652 0.95618 0.0678 0.0
C50 C 0.77457 0.94357 0.20394 0.0
H51 H 0.76272 0.93722 0.25556 0.0
C52 C 0.79958 0.93734 0.20733 0.0
H53 H 0.77553 0.97474 0.01293 0.0
C54 C 0.81535 0.94314 0.13916 0.0
H55 H 0.83446 0.93722 0.14177 0.0
H56 H 0.80659 0.92713 0.26181 0.0
H57 H 0.56085 0.73714 0.97159 0.0
C58 C 0.55548 0.72705 0.02893 0.0
C59 C 0.55069 0.70169 0.02317 0.0
C60 C 0.554 0.73908 0.10886 0.0
H61 H 0.53914 0.66883 0.09115 0.0
C62 C 0.54384 0.68835 0.09651 0.0
C63 C 0.54193 0.69959 0.17621 0.0
C64 C 0.54718 0.72512 0.18301 0.0
C65 C 0.56024 0.76597 0.11395 0.0
H66 H 0.5453 0.73412 0.24459 0.0
C67 C 0.55323 0.78276 0.0485 0.0
C68 C 0.56033 0.80787 0.05164 0.0
C69 C 0.57451 0.77477 0.182 0.0
H70 H 0.58072 0.7623 0.23197 0.0
C71 C 0.58164 0.79964 0.18495 0.0
H72 H 0.54204 0.77645 -0.00426 0.0
C73 C 0.57456 0.81612 0.12049 0.0
H74 H 0.58052 0.83528 0.1237 0.0
H75 H 0.5929 0.80615 0.23712 0.0
H76 H 0.23364 0.46044 0.36478 0.0
C77 C 0.22352 0.4598 0.30578 0.0
C78 C 0.19845 0.45286 0.30944 0.0
C79 C 0.23469 0.46785 0.22812 0.0
H80 H 0.16577 0.44817 0.23128 0.0
C81 C 0.18521 0.45229 0.23227 0.0
C82 C 0.19482 0.46221 0.15731 0.0
C83 C 0.21967 0.46899 0.15401 0.0
C84 C 0.26087 0.4775 0.22598 0.0
H85 H 0.22645 0.47588 0.09338 0.0
C86 C 0.27802 0.47241 0.29251 0.0
C87 C 0.30198 0.48261 0.28984 0.0
C88 C 0.26883 0.49297 0.15773 0.0
H89 H 0.25666 0.49934 0.10806 0.0
C90 C 0.293 0.50129 0.15198 0.0
H91 H 0.27296 0.46119 0.34732 0.0
C92 C 0.30953 0.49589 0.2165 0.0
H93 H 0.32816 0.50297 0.21026 0.0
H94 H 0.29882 0.51258 0.09798 0.0
H95 H 0.04925 0.23797 0.37283 0.0
C96 C 0.04681 0.22769 0.3145 0.0
C97 C 0.04931 0.20197 0.3197 0.0
C98 C 0.04047 0.23918 0.23566 0.0
H99 H 0.04148 0.16758 0.25929 0.0
C100 C 0.04321 0.18745 0.24975 0.0
C101 C 0.04045 0.19767 0.16858 0.0
C102 C 0.03917 0.22379 0.16153 0.0
C103 C 0.03414 0.26652 0.2317 0.0
H104 H 0.03723 0.23184 0.09858 0.0
C105 C 0.03906 0.2827 0.30096 0.0
C106 C 0.03053 0.30735 0.30094 0.0
C107 C 0.02102 0.27645 0.16147 0.0
H108 H 0.01555 0.26514 0.10805 0.0
C109 C 0.01363 0.3013 0.1599 0.0
H110 H 0.04911 0.27659 0.35651 0.0
C111 C 0.01824 0.31668 0.22931 0.0
H112 H 0.01132 0.33559 0.22858 0.0
H113 H 0.00348 0.30845 0.10568 0.0
H114 H 0.27961 0.05493 0.34704 0.0
C115 C 0.287 0.06024 0.2849 0.0
C116 C 0.31062 0.07053 0.2805 0.0
C117 C 0.27528 0.05221 0.20986 0.0
H118 H 0.33904 0.08474 0.19894 0.0
C119 C 0.32047 0.07718 0.20025 0.0
C120 C 0.31243 0.06416 0.12854 0.0
C121 C 0.28859 0.05368 0.13151 0.0
C122 C 0.25156 0.03829 0.21751 0.0
H123 H 0.28179 0.04456 0.07487 0.0
C124 C 0.23407 0.04472 0.28126 0.0
C125 C 0.21245 0.03078 0.29268 0.0
C126 C 0.24684 0.0175 0.16563 0.0
H127 H 0.26012 0.01121 0.11837 0.0
C128 C 0.22513 0.00386 0.17622 0.0
H129 H 0.23718 0.06057 0.32231 0.0
C130 C 0.20798 0.01046 0.23924 0.0
H131 H 0.19148 0.99934 0.24768 0.0
H132 H 0.22178 0.98785 0.13635 0.0
H133 H 0.47063 0.28174 0.38331 0.0
C134 C 0.46666 0.29268 0.32688 0.0
C135 C 0.46027 0.31761 0.33804 0.0
C136 C 0.46882 0.28256 0.24365 0.0
H137 H 0.45552 0.35283 0.27637 0.0
C138 C 0.45774 0.33302 0.26654 0.0
C139 C 0.45937 0.324 0.18333 0.0
C140 C 0.46464 0.29857 0.17191 0.0
C141 C 0.47635 0.25582 0.23191 0.0
H142 H 0.46536 0.29152 0.10726 0.0
C143 C 0.47263 0.23763 0.29715 0.0
C144 C 0.48062 0.2128 0.28609 0.0
C145 C 0.48824 0.24839 0.15561 0.0
H146 H 0.49275 0.26152 0.1054 0.0
C147 C 0.49499 0.22375 0.14265 0.0
H148 H 0.46385 0.24266 0.35689 0.0
C149 C 0.49098 0.2061 0.20641 0.0
H150 H 0.49623 0.18711 0.19275 0.0
H151 H 0.50366 0.21831 0.08287 0.0
O152 O 0.04319 0.97513 0.82291 0.0
Mg153 Mg 0.04216 0.9771 0.6891 0.0
O154 O 0.00552 0.9785 0.77989 0.0
Mg155 Mg 0.00591 0.008 0.67047 0.0
O156 O 0.04956 0.01088 0.63592 0.0
O157 O 0.07716 0.9797 0.65232 0.0
O158 O 0.00369 0.03667 0.56237 0.0
O159 O 0.01945 0.04003 0.76601 0.0
Mg160 Mg 0.97638 0.03738 0.73549 0.0
O161 O 0.96119 0.00477 0.69983 0.0
O162 O 0.98544 0.06436 0.64304 0.0
O163 O 0.99037 0.04145 0.86093 0.0
O164 O 0.94001 0.03841 0.74501 0.0
C165 C 0.00685 0.95533 0.5651 0.0
C166 C 0.02092 0.96933 0.83212 0.0
C167 C 0.0721 0.00225 0.63069 0.0
C168 C 0.99644 0.05881 0.57418 0.0
C169 C 0.01168 0.04802 0.83797 0.0
C170 C 0.94035 0.01543 0.72251 0.0
O171 O 0.02456 0.94963 0.61379 0.0
O172 O -0.00259 0.97704 0.56877 0.0
O173 O 0.44711 0.98614 0.76309 0.0
Mg174 Mg 0.46404 0.96662 0.65897 0.0
O175 O 0.47672 0.01313 0.79564 0.0
Mg176 Mg 0.50441 0.0073 0.68002 0.0
O177 O 0.50027 0.96486 0.68945 0.0
O178 O 0.47705 0.93103 0.6767 0.0
O179 O 0.53302 0.00127 0.5671 0.0
O180 O 0.53718 0.99841 0.76361 0.0
Mg181 Mg 0.54279 0.04586 0.70651 0.0
O182 O 0.50706 0.0506 0.67119 0.0
O183 O 0.5626 0.02788 0.60256 0.0
O184 O 0.54694 0.03197 0.83129 0.0
O185 O 0.53253 0.08217 0.69787 0.0
C186 C 0.45822 0.00398 0.53958 0.0
C187 C 0.45548 0.00345 0.80996 0.0
C188 C 0.49798 0.94096 0.69479 0.0
C189 C 0.55464 0.01048 0.55512 0.0
C190 C 0.55031 0.00912 0.81849 0.0
C191 C 0.51136 0.07434 0.6724 0.0
O192 O 0.45846 0.98059 0.53466 0.0
O193 O 0.47201 0.01486 0.59263 0.0
O194 O 0.53257 0.45097 0.77482 0.0
Mg195 Mg 0.55322 0.4708 0.68062 0.0
O196 O 0.5024 0.47875 0.782 0.0
Mg197 Mg 0.51142 0.50829 0.67421 0.0
O198 O 0.55378 0.50853 0.70078 0.0
O199 O 0.58719 0.4839 0.70861 0.0
O200 O 0.51905 0.5378 0.56418 0.0
O201 O 0.51373 0.54015 0.77547 0.0
Mg202 Mg 0.47652 0.53858 0.69615 0.0
O203 O 0.46783 0.50542 0.64192 0.0
O204 O 0.49367 0.56592 0.61667 0.0
O205 O 0.47686 0.54207 0.82956 0.0
O206 O 0.4413 0.53717 0.66327 0.0
C207 C 0.5252 0.46198 0.5334 0.0
C208 C 0.51198 0.45809 0.80563 0.0
C209 C 0.57733 0.5057 0.71367 0.0
C210 C 0.51018 0.55982 0.56283 0.0
C211 C 0.49891 0.54922 0.83055 0.0
C212 C 0.44571 0.51496 0.63679 0.0
O213 O 0.54753 0.45933 0.55423 0.0
O214 O 0.51151 0.47721 0.57401 0.0
O215 O 0.95211 0.48028 0.73191 0.0
Mg216 Mg 0.97314 0.46292 0.63894 0.0
O217 O 0.97952 0.50964 0.75331 0.0
Mg218 Mg 0.01106 0.50931 0.65688 0.0
O219 O 0.01142 0.46654 0.62195 0.0
O220 O 0.99641 0.44849 0.73503 0.0
O221 O 0.04409 0.5099 0.55882 0.0
O222 O 0.03817 0.49954 0.76999 0.0
Mg223 Mg 0.04355 0.54622 0.6567 0.0
O224 O 0.00829 0.55232 0.69714 0.0
O225 O 0.05128 0.54862 0.52635 0.0
O226 O 0.0673 0.52663 0.73901 0.0
O227 O 0.03943 0.58004 0.70578 0.0
C228 C 0.96535 0.50681 0.51102 0.0
C229 C 0.95932 0.49911 0.77213 0.0
C230 C 0.01267 0.44841 0.67598 0.0
C231 C 0.05558 0.52597 0.51358 0.0
C232 C 0.05944 0.5087 0.78403 0.0
C233 C 0.01656 0.5743 0.71719 0.0
O234 O 0.96095 0.48421 0.52982 0.0
O235 O 0.98236 0.51887 0.54921 0.0
H236 H 0.16415 0.04358 0.27845 0.0
H237 H 0.22136 0.02919 0.46374 0.0
H238 H 0.19033 0.03099 0.5807 0.0
H239 H 0.12336 0.08435 0.4313 0.0
H240 H 0.09607 0.07184 0.38277 0.0
H241 H 0.12357 0.07661 0.31914 0.0
H242 H 0.12193 0.03034 0.27357 0.0
H243 H 0.09489 0.02558 0.33837 0.0
H244 H 0.12183 0.00646 0.35495 0.0
H245 H 0.15318 0.02412 0.66916 0.0
H246 H 0.11315 0.00868 0.72234 0.0
H247 H 0.07895 0.02885 0.48259 0.0
C248 C 0.17012 0.04185 0.34416 0.0
C249 C 0.19496 0.0365 0.36283 0.0
C250 C 0.20238 0.03373 0.44883 0.0
C251 C 0.1849 0.03484 0.51547 0.0
C252 C 0.16025 0.03935 0.49488 0.0
C253 C 0.15292 0.04329 0.41133 0.0
C254 C 0.12505 0.04436 0.40482 0.0
C255 C 0.11653 0.07088 0.38325 0.0
C256 C 0.11538 0.02555 0.33914 0.0
C257 C 0.11775 0.03744 0.49558 0.0
C258 C 0.13836 0.03568 0.5473 0.0
C259 C 0.13687 0.02628 0.63031 0.0
C260 C 0.11407 0.01751 0.65992 0.0
C261 C 0.09307 0.0181 0.60677 0.0
C262 C 0.09463 0.02911 0.52506 0.0
H263 H 0.51266 0.17436 0.3161 0.0
H264 H 0.4459 0.20803 0.41948 0.0
H265 H 0.44399 0.17497 0.53035 0.0
H266 H 0.49132 0.11256 0.33105 0.0
H267 H 0.52126 0.09997 0.35624 0.0
H268 H 0.51888 0.12771 0.29207 0.0
H269 H 0.54637 0.1521 0.39856 0.0
H270 H 0.5497 0.12408 0.46049 0.0
H271 H 0.53831 0.15195 0.51078 0.0
H272 H 0.45201 0.13699 0.6369 0.0
H273 H 0.46829 0.10005 0.71604 0.0
H274 H 0.52377 0.0897 0.51883 0.0
C275 C 0.49717 0.1748 0.36025 0.0
C276 C 0.4792 0.19383 0.3569 0.0
C277 C 0.46009 0.19386 0.41999 0.0
C278 C 0.45872 0.17497 0.48308 0.0
C279 C 0.47633 0.15595 0.4815 0.0
C280 C 0.49506 0.15589 0.42086 0.0
C281 C 0.5114 0.13336 0.42866 0.0
C282 C 0.51065 0.11747 0.34716 0.0
C283 C 0.538 0.14083 0.45094 0.0
C284 C 0.49902 0.1204 0.50269 0.0
C285 C 0.47914 0.1337 0.53478 0.0
C286 C 0.46711 0.1262 0.61041 0.0
C287 C 0.47624 0.10512 0.65456 0.0
C288 C 0.49669 0.09175 0.62121 0.0
C289 C 0.50751 0.09915 0.54352 0.0
H290 H 0.32904 0.52057 0.34876 0.0
H291 H 0.31384 0.44285 0.39851 0.0
H292 H 0.34857 0.44171 0.50217 0.0
H293 H 0.39106 0.51004 0.32638 0.0
H294 H 0.40043 0.53992 0.36608 0.0
H295 H 0.371 0.53658 0.31511 0.0
H296 H 0.34767 0.55357 0.44892 0.0
H297 H 0.37716 0.55863 0.49787 0.0
H298 H 0.35406 0.54033 0.55265 0.0
H299 H 0.38928 0.45004 0.59351 0.0
H300 H 0.4281 0.46663 0.65688 0.0
H301 H 0.41736 0.53565 0.51906 0.0
C302 C 0.33271 0.50325 0.38188 0.0
C303 C 0.31906 0.4817 0.36412 0.0
C304 C 0.32415 0.45964 0.4108 0.0
C305 C 0.34393 0.45883 0.46942 0.0
C306 C 0.35839 0.48014 0.47944 0.0
C307 C 0.3527 0.5019 0.43647 0.0
C308 C 0.37239 0.52129 0.44552 0.0
C309 C 0.38443 0.5273 0.35814 0.0
C310 C 0.36219 0.54483 0.48886 0.0
C311 C 0.38997 0.5076 0.50251 0.0
C312 C 0.38188 0.48394 0.52292 0.0
C313 C 0.39567 0.46849 0.57703 0.0
C314 C 0.41777 0.47788 0.61202 0.0
C315 C 0.42557 0.50233 0.59209 0.0
C316 C 0.41174 0.51689 0.53532 0.0
H317 H 0.05586 0.35067 0.3257 0.0
H318 H 0.00621 0.29866 0.45003 0.0
H319 H 0.00161 0.32724 0.57278 0.0
H320 H 0.08363 0.37102 0.53319 0.0
H321 H 0.08678 0.40309 0.50745 0.0
H322 H 0.09091 0.38004 0.42477 0.0
H323 H 0.05889 0.39764 0.32886 0.0
H324 H 0.0498 0.42274 0.39836 0.0
H325 H 0.02727 0.40082 0.36429 0.0
H326 H -0.00188 0.36334 0.67029 0.0
H327 H 0.99442 0.40421 0.73524 0.0
H328 H 0.04562 0.43458 0.54637 0.0
C329 C 0.04474 0.34503 0.38031 0.0
C330 C 0.03158 0.32248 0.37946 0.0
C331 C 0.01675 0.31573 0.45074 0.0
C332 C 0.01408 0.33181 0.52059 0.0
C333 C 0.02685 0.35427 0.51882 0.0
C334 C 0.04223 0.36067 0.45136 0.0
C335 C 0.05232 0.38665 0.46258 0.0
C336 C 0.08004 0.38518 0.48269 0.0
C337 C 0.04684 0.4029 0.3838 0.0
C338 C 0.03789 0.39508 0.54082 0.0
C339 C 0.02431 0.37559 0.57448 0.0
C340 C 0.00898 0.37861 0.64522 0.0
C341 C 0.00705 0.40219 0.68161 0.0
C342 C 0.01966 0.42304 0.64573 0.0
C343 C 0.03579 0.41917 0.57537 0.0
H344 H 0.81807 0.99994 0.98474 0.0
H345 H 0.83226 0.92074 0.9813 0.0
H346 H 0.86291 0.92658 0.86506 0.0
H347 H 0.82979 0.01186 0.74643 0.0
H348 H 0.84479 0.04093 0.76883 0.0
H349 H 0.82004 0.03011 0.8372 0.0
H350 H 0.84859 0.03364 0.96882 0.0
H351 H 0.87325 0.04443 0.90095 0.0
H352 H 0.87784 0.01756 0.96823 0.0
H353 H 0.89729 0.94152 0.77045 0.0
H354 H 0.93313 0.96466 0.71179 0.0
H355 H 0.89561 0.03396 0.77015 0.0
C356 C 0.82708 0.98382 0.95733 0.0
C357 C 0.82285 0.95989 0.99181 0.0
C358 C 0.83539 0.93924 0.95601 0.0
C359 C 0.85263 0.94235 0.88935 0.0
C360 C 0.85708 0.96624 0.85847 0.0
C361 C 0.8445 0.98665 0.89082 0.0
C362 C 0.85513 0.0106 0.85513 0.0
C363 C 0.83631 0.02416 0.79852 0.0
C364 C 0.86425 0.02753 0.92757 0.0
C365 C 0.87642 0.00048 0.80197 0.0
C366 C 0.87698 0.97486 0.80297 0.0
C367 C 0.89679 0.96159 0.76755 0.0
C368 C 0.91707 0.97486 0.73399 0.0
C369 C 0.91725 0.00111 0.73606 0.0
C370 C 0.89606 0.01388 0.76667 0.0
H371 H 0.53608 0.85197 0.07042 0.0
H372 H 0.56914 0.80395 0.8791 0.0
H373 H 0.56172 0.83612 0.7679 0.0
H374 H 0.4878 0.87603 0.93086 0.0
H375 H 0.48835 0.90608 0.98122 0.0
H376 H 0.49654 0.87877 0.04146 0.0
H377 H 0.53809 0.89995 0.07839 0.0
H378 H 0.53046 0.92667 0.01395 0.0
H379 H 0.55859 0.90966 -0.00683 0.0
H380 H 0.55059 0.87374 0.67823 0.0
H381 H 0.53024 0.91042 0.61314 0.0
H382 H 0.50493 0.93381 0.86357 0.0
C383 C 0.54171 0.84827 0.005 0.0
C384 C 0.55344 0.8257 0.9832 0.0
C385 C 0.56015 0.82119 0.89686 0.0
C386 C 0.55622 0.83942 0.83364 0.0
C387 C 0.54535 0.86188 0.85792 0.0
C388 C 0.53762 0.86606 0.94117 0.0
C389 C 0.52499 0.89105 0.94993 0.0
C390 C 0.49782 0.88778 0.97745 0.0
C391 C 0.53887 0.90783 0.01255 0.0
C392 C 0.5271 0.90053 0.85872 0.0
C393 C 0.53906 0.88351 0.80663 0.0
C394 C 0.54147 0.8873 0.71852 0.0
C395 C 0.53014 0.90827 0.68213 0.0
C396 C 0.51682 0.92513 0.73392 0.0
C397 C 0.51598 0.92166 0.82339 0.0
H398 H 0.66311 0.5478 0.07807 0.0
H399 H 0.71933 0.56089 0.88393 0.0
H400 H 0.68835 0.55394 0.77084 0.0
H401 H 0.62987 0.49912 0.9585 0.0
H402 H 0.6009 0.50948 0.0036 0.0
H403 H 0.62893 0.51327 0.06289 0.0
H404 H 0.61764 0.55937 0.0764 0.0
H405 H 0.5912 0.55707 0.0081 0.0
H406 H 0.61593 0.57853 0.98248 0.0
H407 H 0.65079 0.54581 0.67966 0.0
H408 H 0.6124 0.52886 0.61921 0.0
H409 H 0.58017 0.52447 0.87291 0.0
C410 C 0.66896 0.54909 0.01175 0.0
C411 C 0.69351 0.55536 0.98991 0.0
C412 C 0.70057 0.55623 0.9023 0.0
C413 C 0.68304 0.55256 0.83765 0.0
C414 C 0.65861 0.54794 0.8618 0.0
C415 C 0.65181 0.54536 0.94675 0.0
C416 C 0.62464 0.53957 0.95644 0.0
C417 C 0.62089 0.51383 -0.00225 0.0
C418 C 0.61151 0.55986 0.00873 0.0
C419 C 0.61689 0.53962 0.86339 0.0
C420 C 0.63682 0.54448 0.80966 0.0
C421 C 0.63502 0.54236 0.72098 0.0
C422 C 0.61304 0.53304 0.68694 0.0
C423 C 0.59328 0.52604 0.74145 0.0
C424 C 0.59468 0.53076 0.82992 0.0
H425 H 0.98959 0.68146 0.05125 0.0
H426 H 0.92887 0.7052 0.89215 0.0
H427 H 0.93793 0.67081 0.79094 0.0
H428 H 0.03121 0.66192 0.87428 0.0
H429 H 0.04308 0.63639 0.93672 0.0
H430 H 0.03251 0.66421 0.98925 0.0
H431 H 0.00325 0.63705 0.08248 0.0
H432 H 0.01276 0.60936 0.02691 0.0
H433 H 0.98056 0.61783 0.03142 0.0
H434 H 0.9516 0.63112 0.71493 0.0
H435 H 0.97313 0.59373 0.65798 0.0
H436 H 0.02522 0.59738 0.86618 0.0
C437 C 0.97862 0.67966 -0.006 0.0
C438 C 0.95865 0.69578 0.97865 0.0
C439 C 0.94436 0.69294 0.90406 0.0
C440 C 0.94929 0.67344 0.84679 0.0
C441 C 0.96862 0.65717 0.86533 0.0
C442 C 0.98342 0.66048 0.93613 0.0
C443 C 0.00283 0.64036 0.94258 0.0
C444 C 0.02895 0.65139 0.93522 0.0
C445 C -0.00035 0.62526 0.02577 0.0
C446 C 0.99654 0.62506 0.86487 0.0
C447 C 0.9766 0.63481 0.8214 0.0
C448 C 0.96735 0.62345 0.7481 0.0
C449 C 0.97944 0.60215 0.71667 0.0
C450 C 0.00063 0.5929 0.75813 0.0
C451 C 0.00893 0.6042 0.83376 0.0
H452 H 0.02503 0.19857 0.47301 0.0
H453 H 0.08984 0.17312 0.33577 0.0
H454 H 0.08188 0.13039 0.3836 0.0
H455 H 0.03487 0.14475 0.65846 0.0
H456 H 0.00189 0.14596 0.67404 0.0
H457 H 0.01881 0.17407 0.65197 0.0
H458 H 0.98772 0.18131 0.52844 0.0
H459 H 0.97318 0.15172 0.54426 0.0
H460 H 0.98661 0.15936 0.44147 0.0
H461 H 0.05707 0.09111 0.3957 0.0
H462 H 0.03099 0.05607 0.44439 0.0
H463 H 0.98493 0.10777 0.58735 0.0
C464 C 0.03884 0.18447 0.46014 0.0
C465 C 0.05708 0.18847 0.397 0.0
C466 C 0.07533 0.16997 0.38278 0.0
C467 C 0.07064 0.14549 0.40795 0.0
C468 C 0.04953 0.14103 0.4567 0.0
C469 C 0.03536 0.1602 0.49023 0.0
C470 C 0.0136 0.15011 0.54061 0.0
C471 C 0.01756 0.15395 0.63699 0.0
C472 C 0.98883 0.1613 0.51177 0.0
C473 C 0.01567 0.12294 0.51831 0.0
C474 C 0.03661 0.11798 0.47052 0.0
C475 C 0.04149 0.0944 0.43785 0.0
C476 C 0.0262 0.07476 0.46391 0.0
C477 C 0.00635 0.07916 0.52144 0.0
C478 C 0.00021 0.10376 0.54434 0.0
H479 H 0.34662 0.0383 0.24733 0.0
H480 H 0.31478 0.08122 0.455 0.0
H481 H 0.34867 0.0663 0.55004 0.0
H482 H 0.37171 0.98656 0.35949 0.0
H483 H 0.39902 0.98629 0.29264 0.0
H484 H 0.37024 0.99738 0.25024 0.0
H485 H 0.39137 0.03892 0.20787 0.0
H486 H 0.42009 0.02809 0.25141 0.0
H487 H 0.40671 0.0568 0.28863 0.0
H488 H 0.38887 0.04972 0.61378 0.0
H489 H 0.43001 0.03214 0.64432 0.0
H490 H 0.43488 0.00296 0.38643 0.0
C491 C 0.34662 0.04476 0.31264 0.0
C492 C 0.32873 0.06159 0.3433 0.0
C493 C 0.32881 0.06876 0.43017 0.0
C494 C 0.34785 0.06033 0.48407 0.0
C495 C 0.36617 0.04494 0.44893 0.0
C496 C 0.36548 0.03729 0.365 0.0
C497 C 0.38823 0.02325 0.3376 0.0
C498 C 0.3819 0.99679 0.30839 0.0
C499 C 0.40243 0.03762 0.26728 0.0
C500 C 0.40197 0.02334 0.42048 0.0
C501 C 0.38913 0.03607 0.48395 0.0
C502 C 0.39897 0.03973 0.56468 0.0
C503 C 0.4224 0.02999 0.58086 0.0
C504 C 0.43549 0.01667 0.51667 0.0
C505 C 0.42516 0.01322 0.43587 0.0
H506 H 0.49765 0.32148 0.45228 0.0
H507 H 0.42201 0.34328 0.40839 0.0
H508 H 0.43162 0.38595 0.45118 0.0
H509 H 0.50407 0.37436 0.64353 0.0
H510 H 0.53648 0.37507 0.61762 0.0
H511 H 0.52003 0.34598 0.61672 0.0
H512 H 0.53711 0.3406 0.46157 0.0
H513 H 0.5505 0.37104 0.4586 0.0
H514 H 0.52802 0.36246 0.37965 0.0
H515 H 0.45304 0.42687 0.44085 0.0
H516 H 0.48021 0.46332 0.45631 0.0
H517 H 0.54141 0.41431 0.51744 0.0
C518 C 0.48264 0.33462 0.45977 0.0
C519 C 0.45958 0.3299 0.42219 0.0
C520 C 0.44002 0.34705 0.43494 0.0
C521 C 0.44544 0.37152 0.45739 0.0
C522 C 0.46978 0.37713 0.47704 0.0
C523 C 0.48754 0.35882 0.48723 0.0
C524 C 0.51241 0.37019 0.50686 0.0
C525 C 0.51864 0.36613 0.60179 0.0
C526 C 0.5332 0.36049 0.44801 0.0
C527 C 0.50669 0.39725 0.49037 0.0
C528 C 0.48189 0.40094 0.47529 0.0
C529 C 0.4723 0.42435 0.4565 0.0
C530 C 0.48797 0.44486 0.46342 0.0
C531 C 0.51278 0.44163 0.48895 0.0
C532 C 0.52259 0.41743 0.49709 0.0
H533 H 0.15362 0.43059 0.34641 0.0
H534 H 0.20911 0.47712 0.46361 0.0
H535 H 0.17666 0.49889 0.54299 0.0
H536 H 0.13293 0.48699 0.27693 0.0
H537 H 0.10081 0.47982 0.26218 0.0
H538 H 0.12362 0.45594 0.24855 0.0
H539 H 0.10674 0.42636 0.37034 0.0
H540 H 0.08111 0.4475 0.36111 0.0
H541 H 0.09416 0.44148 0.46482 0.0
H542 H 0.13795 0.52321 0.57969 0.0
H543 H 0.09711 0.54365 0.58343 0.0
H544 H 0.06981 0.49144 0.39676 0.0
C545 C 0.15919 0.44516 0.38961 0.0
C546 C 0.18391 0.45344 0.39173 0.0
C547 C 0.19034 0.47083 0.45604 0.0
C548 C 0.17183 0.48377 0.50091 0.0
C549 C 0.14739 0.47966 0.47794 0.0
C550 C 0.14107 0.46088 0.4223 0.0
C551 C 0.11607 0.46564 0.38283 0.0
C552 C 0.11857 0.4725 0.28707 0.0
C553 C 0.09852 0.44378 0.39576 0.0
C554 C 0.10795 0.4879 0.43344 0.0
C555 C 0.12644 0.49612 0.48667 0.0
C556 C 0.12336 0.51687 0.53832 0.0
C557 C 0.10027 0.52856 0.53891 0.0
C558 C 0.08067 0.51919 0.48898 0.0
C559 C 0.08472 0.49908 0.43406 0.0
H560 H 0.93412 0.8595 0.96711 0.0
H561 H 0.99326 0.81035 0.88937 0.0
H562 H 0.01454 0.84526 0.81857 0.0
H563 H 0.94056 0.91116 0.79442 0.0
H564 H 0.9357 0.93391 0.87727 0.0
H565 H 0.92029 0.90434 0.88366 0.0
H566 H 0.93883 0.89858 0.03565 0.0
H567 H 0.9555 0.92726 0.02648 0.0
H568 H 0.9719 0.8988 0.04768 0.0
H569 H 0.03576 0.88566 0.80639 0.0
H570 H 0.05016 0.92893 0.80998 0.0
H571 H 0.97875 0.9526 0.90807 0.0
C572 C 0.95046 0.85587 0.9286 0.0
C573 C 0.96228 0.83261 0.93394 0.0
C574 C 0.98395 0.82815 0.8854 0.0
C575 C 0.99638 0.84803 0.84647 0.0
C576 C 0.98651 0.8718 0.85647 0.0
C577 C 0.96358 0.87578 0.89394 0.0
C578 C 0.95955 0.90296 0.91471 0.0
C579 C 0.93774 0.91371 0.86442 0.0
C580 C 0.95624 0.90709 0.01181 0.0
C581 C 0.98376 0.91354 0.88418 0.0
C582 C -0.00082 0.89529 0.85181 0.0
C583 C 0.02356 0.90021 0.829 0.0
C584 C 0.03176 0.92475 0.83359 0.0
C585 C 0.01548 0.944 0.85993 0.0
C586 C 0.99149 0.93816 0.88807 0.0
H587 H 0.67991 0.00775 0.02804 0.0
H588 H 0.69804 0.94521 0.86716 0.0
H589 H 0.66375 0.95672 0.77001 0.0
H590 H 0.62534 0.97554 0.02727 0.0
H591 H 0.60706 0.00115 0.06523 0.0
H592 H 0.63917 0.99875 0.09352 0.0
H593 H 0.64851 0.0425 0.03008 0.0
H594 H 0.61624 0.04573 0.0068 0.0
H595 H 0.63889 0.0497 0.92244 0.0
H596 H 0.62054 0.96835 0.71596 0.0
H597 H 0.57575 0.97708 0.71279 0.0
H598 H 0.58187 0.02086 0.94379 0.0
C599 C 0.67767 0.99758 0.96882 0.0
C600 C 0.69135 0.97587 0.95423 0.0
C601 C 0.68765 0.96209 0.87873 0.0
C602 C 0.66804 0.96842 0.82402 0.0
C603 C 0.65192 0.98743 0.84963 0.0
C604 C 0.65635 0.00119 0.92265 0.0
C605 C 0.6328 0.01104 0.96149 0.0
C606 C 0.6257 0.99577 0.04174 0.0
C607 C 0.63421 0.03892 0.98114 0.0
C608 C 0.61518 0.0051 0.89188 0.0
C609 C 0.62607 0.99069 0.82881 0.0
C610 C 0.61207 0.97988 0.7647 0.0
C611 C 0.58657 0.98453 0.76458 0.0
C612 C 0.57548 0.99968 0.82873 0.0
C613 C 0.58998 0.00959 0.89352 0.0
H614 H 0.57795 0.66177 0.98697 0.0
H615 H 0.5213 0.70969 0.88432 0.0
H616 H 0.50376 0.67422 0.80589 0.0
H617 H 0.58041 0.61165 0.82426 0.0
H618 H 0.5795 0.5871 0.90196 0.0
H619 H 0.59504 0.61589 0.9264 0.0
H620 H 0.56891 0.62386 0.06143 0.0
H621 H 0.55388 0.59451 0.04674 0.0
H622 H 0.53575 0.62248 0.0552 0.0
H623 H 0.48525 0.63239 0.77806 0.0
H624 H 0.47198 0.58855 0.77879 0.0
H625 H 0.53719 0.56785 0.92121 0.0
C626 C 0.56303 0.66504 0.94252 0.0
C627 C 0.55079 0.68811 0.94172 0.0
C628 C 0.53094 0.69204 0.88515 0.0
C629 C 0.52059 0.67184 0.84185 0.0
C630 C 0.53034 0.64823 0.85734 0.0
C631 C 0.55139 0.64483 0.90562 0.0
C632 C 0.55479 0.61796 0.93126 0.0
C633 C 0.57892 0.60755 0.89389 0.0
C634 C 0.55326 0.61453 0.02937 0.0
C635 C 0.53268 0.60662 0.88944 0.0
C636 C 0.5187 0.62431 0.84735 0.0
C637 C 0.4963 0.6184 0.80979 0.0
C638 C 0.48866 0.59359 0.81229 0.0
C639 C 0.50345 0.57513 0.85181 0.0
C640 C 0.52551 0.58177 0.89172 0.0
H641 H 0.82546 0.50993 0.94889 0.0
H642 H 0.8308 0.58892 0.90377 0.0
H643 H 0.87059 0.58283 0.8289 0.0
H644 H 0.87921 0.50688 0.02686 0.0
H645 H 0.88928 0.47666 0.99139 0.0
H646 H 0.8569 0.48309 0.0039 0.0
H647 H 0.84726 0.47265 0.84579 0.0
H648 H 0.87901 0.46312 0.83487 0.0
H649 H 0.86631 0.48563 0.76165 0.0
H650 H 0.91407 0.57022 0.80274 0.0
H651 H 0.95414 0.54928 0.78099 0.0
H652 H 0.92186 0.47953 0.86499 0.0
C653 C 0.83409 0.52552 0.9164 0.0
C654 C 0.82555 0.54977 0.93133 0.0
C655 C 0.83726 0.5702 0.89155 0.0
C656 C 0.86006 0.5669 0.85052 0.0
C657 C 0.87028 0.54314 0.85047 0.0
C658 C 0.85732 0.52256 0.87963 0.0
C659 C 0.87391 0.50018 0.88971 0.0
C660 C 0.87486 0.49119 0.98348 0.0
C661 C 0.86617 0.47916 0.82934 0.0
C662 C 0.89815 0.51143 0.86285 0.0
C663 C 0.89578 0.5362 0.84099 0.0
C664 C 0.91603 0.55066 0.81743 0.0
C665 C 0.93882 0.53876 0.80742 0.0
C666 C 0.94073 0.51278 0.82039 0.0
C667 C 0.92067 0.4994 0.8543 0.0
H668 H 0.06214 0.15139 0.15325 0.0
H669 H 0.01526 0.20339 0.0153 0.0
H670 H 0.00882 0.17144 0.90472 0.0
H671 H 0.08678 0.11435 0.98274 0.0
H672 H 0.08249 0.08549 0.03994 0.0
H673 H 0.08788 0.11377 0.09803 0.0
H674 H 0.0477 0.10717 0.18571 0.0
H675 H 0.04236 0.07868 0.12912 0.0
H676 H 0.01903 0.1026 0.13042 0.0
H677 H 0.004 0.13313 0.8188 0.0
H678 H -0.00205 0.09074 0.76601 0.0
H679 H 0.04154 0.06137 0.97465 0.0
C680 C 0.05024 0.15635 0.10061 0.0
C681 C 0.03894 0.18018 0.09445 0.0
C682 C 0.02445 0.18562 0.02175 0.0
C683 C 0.02054 0.16746 0.95883 0.0
C684 C 0.0308 0.14384 0.97049 0.0
C685 C 0.04497 0.13815 0.04049 0.0
C686 C 0.05066 0.11054 0.04581 0.0
C687 C 0.07862 0.10577 0.04128 0.0
C688 C 0.03925 0.09908 0.12757 0.0
C689 C 0.03772 0.10145 0.96627 0.0
C690 C 0.02681 0.12116 0.92332 0.0
C691 C 0.01284 0.11765 0.85048 0.0
C692 C 0.00953 0.09346 0.82104 0.0
C693 C 0.01965 0.07288 0.8652 0.0
C694 C 0.0341 0.07686 0.93865 0.0
H695 H 0.35084 0.08621 0.03487 0.0
H696 H 0.32023 0.01492 0.11123 0.0
H697 H 0.35813 0.99412 0.06319 0.0
H698 H 0.37924 0.06442 0.83949 0.0
H699 H 0.40624 0.08374 0.84822 0.0
H700 H 0.3775 0.09353 0.89597 0.0
H701 H 0.39941 0.09779 0.04201 0.0
H702 H 0.42807 0.08742 -0.00552 0.0
H703 H 0.41543 0.07143 0.08644 0.0
H704 H 0.39889 0.98069 0.01552 0.0
H705 H 0.43504 0.97252 0.924 0.0
H706 H 0.43933 0.05078 0.85839 0.0
C707 C 0.35193 0.06616 0.03912 0.0
C708 C 0.33223 0.05222 0.07577 0.0
C709 C 0.33458 0.02603 0.08139 0.0
C710 C 0.35637 0.01405 0.05632 0.0
C711 C 0.37565 0.02831 0.02354 0.0
C712 C 0.37344 0.05362 0.01146 0.0
C713 C 0.39634 0.06381 0.96609 0.0
C714 C 0.38941 0.07715 0.88244 0.0
C715 C 0.41066 0.08114 0.0258 0.0
C716 C 0.4108 0.0399 0.94959 0.0
C717 C 0.39902 0.02005 0.98859 0.0
C718 C 0.40818 0.99597 0.98372 0.0
C719 C 0.4288 0.99152 0.93183 0.0
C720 C 0.43984 0.01089 0.88377 0.0
C721 C 0.43144 0.03567 0.89548 0.0
H722 H 0.48763 0.32808 0.03484 0.0
H723 H 0.4266 0.36267 0.17126 0.0
H724 H 0.43181 0.40064 0.08508 0.0
H725 H 0.52601 0.37542 0.0108 0.0
H726 H 0.53503 0.37098 0.90055 0.0
H727 H 0.52432 0.34501 0.96301 0.0
H728 H 0.48984 0.33601 0.85244 0.0
H729 H 0.5017 0.36132 0.78874 0.0
H730 H 0.4696 0.36087 0.81993 0.0
H731 H 0.44936 0.4378 0.00424 0.0
H732 H 0.47269 0.46806 0.91484 0.0
H733 H 0.51928 0.40813 0.82173 0.0
C734 C 0.47464 0.34317 0.04396 0.0
C735 C 0.45723 0.34255 0.11189 0.0
C736 C 0.44061 0.36288 0.12135 0.0
C737 C 0.44334 0.3846 0.07248 0.0
C738 C 0.46192 0.38538 0.01059 0.0
C739 C 0.47648 0.36479 -0.0068 0.0
C740 C 0.49507 0.37065 0.92297 0.0
C741 C 0.52167 0.3652 0.95116 0.0
C742 C 0.48865 0.35637 0.84116 0.0
C743 C 0.49059 0.39826 0.91109 0.0
C744 C 0.47099 0.40639 0.96061 0.0
C745 C 0.46435 0.4315 0.96346 0.0
C746 C 0.47782 0.44861 0.91307 0.0
C747 C 0.49797 0.44058 0.86171 0.0
C748 C 0.50419 0.41501 0.86091 0.0
H749 H 0.16569 0.43792 0.03925 0.0
H750 H 0.18101 0.50991 0.14965 0.0
H751 H 0.14318 0.52689 0.08489 0.0
H752 H 0.14333 0.46126 0.8355 0.0
H753 H 0.11991 0.4377 0.82628 0.0
H754 H 0.14764 0.43125 0.88503 0.0
H755 H 0.12055 0.41916 0.01656 0.0
H756 H 0.09282 0.42663 0.95874 0.0
H757 H 0.09892 0.4414 0.05966 0.0
H758 H 0.10392 0.53598 0.01381 0.0
H759 H 0.07087 0.54043 0.9079 0.0
H760 H 0.0813 0.46386 0.8305 0.0
C761 C 0.1614 0.45744 0.04707 0.0
C762 C 0.17659 0.47287 0.09731 0.0
C763 C 0.17004 0.49809 0.10895 0.0
C764 C 0.14832 0.50772 0.07406 0.0
C765 C 0.13342 0.49196 0.0267 0.0
C766 C 0.13997 0.46761 0.01057 0.0
C767 C 0.12129 0.45538 0.95216 0.0
C768 C 0.13379 0.44585 0.86984 0.0
C769 C 0.10759 0.43439 -0.0004 0.0
C770 C 0.10407 0.47712 0.93426 0.0
C771 C 0.1109 0.49761 0.98164 0.0
C772 C 0.09846 0.52015 0.97598 0.0
C773 C 0.07967 0.52247 0.91591 0.0
C774 C 0.07366 0.50253 0.8613 0.0
C775 C 0.08532 0.47922 0.87261 0.0
H776 H 0.94459 0.84238 0.30866 0.0
H777 H 0.01522 0.83631 0.17782 0.0
H778 H 0.03054 0.8725 0.25704 0.0
H779 H 0.94114 0.9073 0.31398 0.0
H780 H 0.92839 0.91018 0.42047 0.0
H781 H 0.92276 0.88255 0.35903 0.0
H782 H 0.94098 0.85486 0.47894 0.0
H783 H 0.9456 0.88234 0.54223 0.0
H784 H 0.97117 0.8618 0.52002 0.0
H785 H 0.03669 0.91152 0.33399 0.0
H786 H 0.03833 0.9457 0.43789 0.0
H787 H 0.96529 0.92635 0.53204 0.0
C788 C 0.96362 0.84803 0.30002 0.0
C789 C 0.97894 0.83631 0.23827 0.0
C790 C 0.00346 0.84471 0.22622 0.0
C791 C 0.01216 0.8655 0.26982 0.0
C792 C 0.99628 0.87746 0.32681 0.0
C793 C 0.9729 0.86859 0.34502 0.0
C794 C 0.96009 0.88499 0.41121 0.0
C795 C 0.93671 0.89697 0.37393 0.0
C796 C 0.95411 0.87011 0.49296 0.0
C797 C 0.98001 0.90435 0.42704 0.0
C798 C 0.00037 0.89982 0.37541 0.0
C799 C 0.02108 0.91503 0.37594 0.0
C800 C 0.02178 0.93448 0.43468 0.0
C801 C 0.00204 0.93857 0.49266 0.0
C802 C 0.98052 0.92375 0.48757 0.0
H803 H 0.66704 0.00324 0.2167 0.0
H804 H 0.68067 0.92846 0.30815 0.0
H805 H 0.64414 0.93176 0.40482 0.0
H806 H 0.64749 0.02991 0.41727 0.0
H807 H 0.62395 0.04923 0.3701 0.0
H808 H 0.65077 0.04058 0.30817 0.0
H809 H 0.62165 0.02482 0.19473 0.0
H810 H 0.59419 0.02977 0.25717 0.0
H811 H 0.60107 0.9991 0.21809 0.0
H812 H 0.60369 0.94233 0.48308 0.0
H813 H 0.56811 0.96188 0.55755 0.0
H814 H 0.58292 0.03116 0.4251 0.0
C815 C 0.66257 0.98776 0.2585 0.0
C816 C 0.67698 0.96568 0.25624 0.0
C817 C 0.6703 0.94567 0.31042 0.0
C818 C 0.64933 0.94729 0.3644 0.0
C819 C 0.63517 0.96908 0.36354 0.0
C820 C 0.64176 0.98915 0.3129 0.0
C821 C 0.62384 0.01071 0.32588 0.0
C822 C 0.63732 0.03398 0.35735 0.0
C823 C 0.60937 0.01636 0.24392 0.0
C824 C 0.60674 1.00002 0.39406 0.0
C825 C 0.61296 0.97565 0.41236 0.0
C826 C 0.5989 0.96146 0.46963 0.0
C827 C 0.57854 0.97265 0.51106 0.0
C828 C 0.57268 0.99799 0.49699 0.0
C829 C 0.58692 0.01174 0.43704 0.0
H830 H 0.56701 0.67785 0.31139 0.0
H831 H 0.49541 0.68317 0.19107 0.0
H832 H 0.48189 0.64537 0.26719 0.0
H833 H 0.57284 0.61311 0.30874 0.0
H834 H 0.58616 0.60935 0.41335 0.0
H835 H 0.59052 0.63794 0.35483 0.0
H836 H 0.57189 0.66331 0.48023 0.0
H837 H 0.56845 0.6349 0.54049 0.0
H838 H 0.54212 0.6548 0.52357 0.0
H839 H 0.4777 0.60477 0.33916 0.0
H840 H 0.47798 0.56914 0.43864 0.0
H841 H 0.5505 0.59045 0.52706 0.0
C842 C 0.54811 0.6717 0.3047 0.0
C843 C 0.53203 0.68375 0.24654 0.0
C844 C 0.50774 0.67461 0.23688 0.0
C845 C 0.50007 0.65287 0.27862 0.0
C846 C 0.51668 0.64069 0.33178 0.0
C847 C 0.53981 0.65021 0.34822 0.0
C848 C 0.55355 0.63342 0.41078 0.0
C849 C 0.57717 0.62283 0.36943 0.0
C850 C 0.55934 0.64744 0.4937 0.0
C851 C 0.53447 0.61308 0.42638 0.0
C852 C 0.5137 0.61746 0.3778 0.0
C853 C 0.49367 0.60133 0.37864 0.0
C854 C 0.49409 0.581 0.43467 0.0
C855 C 0.51426 0.57695 0.48982 0.0
C856 C 0.53504 0.59287 0.48437 0.0
H857 H 0.84812 0.51246 0.20543 0.0
H858 H 0.83646 0.58854 0.28491 0.0
H859 H 0.87414 0.5861 0.37435 0.0
H860 H 0.87202 0.48894 0.41028 0.0
H861 H 0.89354 0.46842 0.35725 0.0
H862 H 0.86487 0.47644 0.30657 0.0
H863 H 0.88968 0.49094 0.17438 0.0
H864 H 0.91873 0.48486 0.2254 0.0
H865 H 0.91206 0.51547 0.18434 0.0
H866 H 0.91561 0.57555 0.44739 0.0
H867 H 0.95224 0.55621 0.51441 0.0
H868 H 0.93592 0.48691 0.38668 0.0
C869 C 0.85304 0.52833 0.2441 0.0
C870 C 0.83902 0.55053 0.24 0.0
C871 C 0.8465 0.57116 0.28914 0.0
C872 C 0.86811 0.57001 0.33898 0.0
C873 C 0.88202 0.54807 0.33906 0.0
C874 C 0.8744 0.52744 0.29414 0.0
C875 C 0.8925 0.50609 0.3038 0.0
C876 C 0.87999 0.48365 0.34708 0.0
C877 C 0.90392 0.49894 0.2168 0.0
C878 C 0.91152 0.51775 0.36168 0.0
C879 C 0.90543 0.54209 0.38049 0.0
C880 C 0.92039 0.55647 0.43314 0.0
C881 C 0.94139 0.54539 0.47026 0.0
C882 C 0.94714 0.52002 0.45568 0.0
C883 C 0.9322 0.50635 0.39888 0.0
loop_
_geom_bond_atom_site_label_1
_geom_bond_atom_site_label_2
_geom_bond_distance
_geom_bond_site_symmetry_2
_ccdc_geom_bond_type
H0 C1 0.949 . S
C1 H0 0.949 . S
C1 C2 1.395 1_556 S
C1 C3 1.391 1_556 S
C2 C1 1.395 1_554 S
C2 C5 1.390 . S
C3 C1 1.391 1_554 S
C3 C7 1.387 . S
C3 C8 1.491 . S
H4 C5 0.950 . S
C5 C2 1.390 . S
C5 H4 0.950 . S
C5 C6 1.378 . S
C6 C5 1.378 . S
C6 C7 1.409 . S
C7 C3 1.387 . S
C7 C6 1.409 . S
C7 H9 0.951 . S
C8 C3 1.491 . S
C8 C10 1.382 . S
C8 C12 1.404 . S
H9 C7 0.951 . S
C10 C8 1.382 . S
C10 C11 1.389 1_554 S
C10 H15 0.949 1_554 S
C11 C10 1.389 1_556 S
C11 C16 1.399 1_556 S
C12 C8 1.404 . S
C12 H13 0.950 . S
C12 C14 1.375 . S
H13 C12 0.950 . S
C14 C12 1.375 . S
C14 C16 1.382 . S
C14 H18 0.950 . S
H15 C10 0.949 1_556 S
C16 C11 1.399 1_554 S
C16 C14 1.382 . S
C16 H17 0.952 . S
H17 C16 0.952 . S
H18 C14 0.950 . S
H19 C20 0.949 . S
C20 H19 0.949 . S
C20 C21 1.395 1_556 S
C20 C22 1.391 1_556 S
C21 C20 1.395 1_554 S
C21 C24 1.390 . S
C22 C20 1.391 1_554 S
C22 C26 1.387 . S
C22 C27 1.491 . S
H23 C24 0.950 . S
C24 C21 1.390 . S
C24 H23 0.950 . S
C24 C25 1.378 . S
C25 C24 1.378 . S
C25 C26 1.409 . S
C26 C22 1.387 . S
C26 C25 1.409 . S
C26 H28 0.951 . S
C27 C22 1.491 . S
C27 C29 1.382 . S
C27 C31 1.404 . S
H28 C26 0.951 . S
C29 C27 1.382 . S
C29 C30 1.389 1_554 S
C29 H34 0.949 1_554 S
C30 C29 1.389 1_556 S
C30 C35 1.399 1_556 S
C31 C27 1.404 . S
C31 H32 0.950 . S
C31 C33 1.375 . S
H32 C31 0.950 . S
C33 C31 1.375 . S
C33 C35 1.382 . S
C33 H37 0.950 . S
H34 C29 0.949 1_556 S
C35 C30 1.399 1_554 S
C35 C33 1.382 . S
C35 H36 0.952 . S
H36 C35 0.952 . S
H37 C33 0.950 . S
H38 C39 0.949 . S
C39 H38 0.949 . S
C39 C40 1.395 1_556 S
C39 C41 1.391 1_556 S
C40 C39 1.395 1_554 S
C40 C43 1.390 . S
C41 C39 1.391 1_554 S
C41 C45 1.387 . S
C41 C46 1.491 . S
H42 C43 0.950 . S
C43 C40 1.390 . S
C43 H42 0.950 . S
C43 C44 1.378 . S
C44 C43 1.378 . S
C44 C45 1.409 . S
C45 C41 1.387 . S
C45 C44 1.409 . S
C45 H47 0.951 . S
C46 C41 1.491 . S
C46 C48 1.382 . S
C46 C50 1.404 . S
H47 C45 0.951 . S
C48 C46 1.382 . S
C48 C49 1.390 1_554 S
C48 H53 0.949 1_554 S
C49 C48 1.390 1_556 S
C49 C54 1.399 1_556 S
C50 C46 1.404 . S
C50 H51 0.950 . S
C50 C52 1.375 . S
H51 C50 0.950 . S
C52 C50 1.375 . S
C52 C54 1.382 . S
C52 H56 0.950 . S
H53 C48 0.949 1_556 S
C54 C49 1.399 1_554 S
C54 C52 1.382 . S
C54 H55 0.952 . S
H55 C54 0.952 . S
H56 C52 0.950 . S
H57 C58 0.949 . S
C58 H57 0.949 . S
C58 C59 1.395 1_556 S
C58 C60 1.391 1_556 S
C59 C58 1.395 1_554 S
C59 C62 1.390 . S
C60 C58 1.391 1_554 S
C60 C64 1.387 . S
C60 C65 1.491 . S
H61 C62 0.950 . S
C62 C59 1.390 . S
C62 H61 0.950 . S
C62 C63 1.378 . S
C63 C62 1.378 . S
C63 C64 1.409 . S
C64 C60 1.387 . S
C64 C63 1.409 . S
C64 H66 0.951 . S
C65 C60 1.491 . S
C65 C67 1.382 . S
C65 C69 1.404 . S
H66 C64 0.951 . S
C67 C65 1.382 . S
C67 C68 1.389 1_554 S
C67 H72 0.949 1_554 S
C68 C67 1.389 1_556 S
C68 C73 1.398 1_556 S
C69 C65 1.404 . S
C69 H70 0.950 . S
C69 C71 1.375 . S
H70 C69 0.950 . S
C71 C69 1.375 . S
C71 C73 1.382 . S
C71 H75 0.950 . S
H72 C67 0.949 1_556 S
C73 C68 1.398 1_554 S
C73 C71 1.382 . S
C73 H74 0.952 . S
H74 C73 0.952 . S
H75 C71 0.950 . S
H76 C77 0.949 . S
C77 H76 0.949 . S
C77 C78 1.395 . S
C77 C79 1.391 . S
C78 C77 1.395 . S
C78 C81 1.390 . S
C79 C77 1.391 . S
C79 C83 1.387 . S
C79 C84 1.491 . S
H80 C81 0.950 . S
C81 C78 1.390 . S
C81 H80 0.950 . S
C81 C82 1.378 . S
C82 C81 1.378 . S
C82 C83 1.409 . S
C83 C79 1.387 . S
C83 C82 1.409 . S
C83 H85 0.951 . S
C84 C79 1.491 . S
C84 C86 1.382 . S
C84 C88 1.404 . S
H85 C83 0.951 . S
C86 C84 1.382 . S
C86 C87 1.390 . S
C86 H91 0.949 . S
C87 C86 1.390 . S
C87 C92 1.399 . S
C88 C84 1.404 . S
C88 H89 0.950 . S
C88 C90 1.375 . S
H89 C88 0.950 . S
C90 C88 1.375 . S
C90 C92 1.382 . S
C90 H94 0.950 . S
H91 C86 0.949 . S
C92 C87 1.399 . S
C92 C90 1.382 . S
C92 H93 0.952 . S
H93 C92 0.952 . S
H94 C90 0.950 . S
H95 C96 0.949 . S
C96 H95 0.949 . S
C96 C97 1.395 . S
C96 C98 1.391 . S
C97 C96 1.395 . S
C97 C100 1.390 . S
C98 C96 1.391 . S
C98 C102 1.387 . S
C98 C103 1.491 . S
H99 C100 0.950 . S
C100 C97 1.390 . S
C100 H99 0.950 . S
C100 C101 1.378 . S
C101 C100 1.378 . S
C101 C102 1.409 . S
C102 C98 1.387 . S
C102 C101 1.409 . S
C102 H104 0.951 . S
C103 C98 1.491 . S
C103 C105 1.382 . S
C103 C107 1.404 . S
H104 C102 0.951 . S
C105 C103 1.382 . S
C105 C106 1.390 . S
C105 H110 0.949 . S
C106 C105 1.390 . S
C106 C111 1.399 . S
C107 C103 1.404 . S
C107 H108 0.950 . S
C107 C109 1.375 . S
H108 C107 0.950 . S
C109 C107 1.375 . S
C109 C111 1.382 . S
C109 H113 0.934 1_455 S
H110 C105 0.949 . S
C111 C106 1.399 . S
C111 C109 1.382 . S
C111 H112 0.952 . S
H112 C111 0.952 . S
H113 C109 0.934 1_655 S
H114 C115 0.949 . S
C115 H114 0.949 . S
C115 C116 1.395 . S
C115 C117 1.391 . S
C116 C115 1.395 . S
C116 C119 1.390 . S
C117 C115 1.391 . S
C117 C121 1.387 . S
C117 C122 1.491 . S
H118 C119 0.950 . S
C119 C116 1.390 . S
C119 H118 0.950 . S
C119 C120 1.378 . S
C120 C119 1.378 . S
C120 C121 1.409 . S
C121 C117 1.387 . S
C121 C120 1.409 . S
C121 H123 0.951 . S
C122 C117 1.491 . S
C122 C124 1.382 . S
C122 C126 1.404 . S
H123 C121 0.951 . S
C124 C122 1.382 . S
C124 C125 1.390 . S
C124 H129 0.949 . S
C125 C124 1.390 . S
C125 C130 1.399 . S
C126 C122 1.404 . S
C126 H127 0.950 . S
C126 C128 1.375 . S
H127 C126 0.950 . S
C128 C126 1.375 . S
C128 C130 1.382 . S
C128 H132 0.950 1_545 S
H129 C124 0.949 . S
C130 C125 1.399 . S
C130 C128 1.382 . S
C130 H131 0.952 . S
H131 C130 0.952 . S
H132 C128 0.950 1_565 S
H133 C134 0.949 . S
C134 H133 0.949 . S
C134 C135 1.395 . S
C134 C136 1.391 . S
C135 C134 1.395 . S
C135 C138 1.390 . S
C136 C134 1.391 . S
C136 C140 1.387 . S
C136 C141 1.491 . S
H137 C138 0.950 . S
C138 C135 1.390 . S
C138 H137 0.950 . S
C138 C139 1.378 . S
C139 C138 1.378 . S
C139 C140 1.409 . S
C140 C136 1.387 . S
C140 C139 1.409 . S
C140 H142 0.951 . S
C141 C136 1.491 . S
C141 C143 1.382 . S
C141 C145 1.404 . S
H142 C140 0.951 . S
C143 C141 1.382 . S
C143 C144 1.390 . S
C143 H148 0.949 . S
C144 C143 1.390 . S
C144 C149 1.399 . S
C145 C141 1.404 . S
C145 H146 0.950 . S
C145 C147 1.375 . S
H146 C145 0.950 . S
C147 C145 1.375 . S
C147 C149 1.382 . S
C147 H151 0.950 . S
H148 C143 0.949 . S
C149 C144 1.399 . S
C149 C147 1.382 . S
C149 H150 0.952 . S
H150 C149 0.952 . S
H151 C147 0.950 . S
O152 Mg153 1.990 . S
O152 C166 1.253 . S
Mg153 O152 1.990 . S
Mg153 O156 2.173 1_565 S
Mg153 O157 2.117 . S
Mg153 O171 2.030 . S
O154 Mg155 2.072 1_565 S
O154 C166 1.260 . S
Mg155 O154 2.072 1_545 S
Mg155 O156 2.100 . S
Mg155 O158 2.079 . S
Mg155 O159 2.072 . S
Mg155 O161 2.099 1_455 S
Mg155 O172 2.079 1_445 S
O156 Mg153 2.173 1_545 S
O156 Mg155 2.100 . S
O156 C167 1.279 . S
O157 Mg153 2.117 . S
O157 C167 1.250 1_565 S
O158 Mg155 2.079 . S
O158 C168 1.264 . S
O159 Mg155 2.072 . S
O159 C169 1.260 . S
Mg160 O161 2.180 . S
Mg160 O162 2.030 . S
Mg160 O163 1.990 . S
Mg160 O164 2.117 . S
O161 Mg155 2.099 1_655 S
O161 Mg160 2.180 . S
O161 C170 1.279 . S
O162 Mg160 2.030 . S
O162 C168 1.248 1_655 S
O163 Mg160 1.990 . S
O163 C169 1.253 1_655 S
O164 Mg160 2.117 . S
O164 C170 1.250 . S
C165 O171 1.248 . S
C165 O172 1.264 1_455 S
C166 O152 1.253 . S
C166 O154 1.260 . S
C167 O156 1.279 . S
C167 O157 1.250 1_545 S
C168 O158 1.264 . S
C168 O162 1.248 1_455 S
C169 O159 1.260 . S
C169 O163 1.253 1_455 S
C170 O161 1.279 . S
C170 O164 1.250 . S
O171 Mg153 2.030 . S
O171 C165 1.248 . S
O172 Mg155 2.079 1_665 S
O172 C165 1.264 1_655 S
O173 Mg174 1.990 . S
O173 C187 1.253 1_565 S
Mg174 O173 1.990 . S
Mg174 O177 2.180 . S
Mg174 O178 2.117 . S
Mg174 O192 2.030 . S
O175 Mg176 2.072 . S
O175 C187 1.260 . S
Mg176 O175 2.072 . S
Mg176 O177 2.099 1_545 S
Mg176 O179 2.079 1_545 S
Mg176 O180 2.072 . S
Mg176 O182 2.099 . S
Mg176 O193 2.079 . S
O177 Mg174 2.180 . S
O177 Mg176 2.099 1_565 S
O177 C188 1.279 . S
O178 Mg174 2.117 . S
O178 C188 1.250 . S
O179 Mg176 2.079 1_565 S
O179 C189 1.264 1_565 S
O180 Mg176 2.072 . S
O180 C190 1.260 . S
Mg181 O182 2.180 . S
Mg181 O183 2.030 . S
Mg181 O184 1.990 . S
Mg181 O185 2.117 . S
O182 Mg176 2.099 . S
O182 Mg181 2.180 . S
O182 C191 1.279 . S
O183 Mg181 2.030 . S
O183 C189 1.248 . S
O184 Mg181 1.990 . S
O184 C190 1.253 . S
O185 Mg181 2.117 . S
O185 C191 1.250 . S
C186 O192 1.248 1_545 S
C186 O193 1.264 . S
C187 O173 1.253 1_545 S
C187 O175 1.260 . S
C188 O177 1.279 . S
C188 O178 1.250 . S
C189 O179 1.264 1_545 S
C189 O183 1.248 . S
C190 O180 1.260 . S
C190 O184 1.253 . S
C191 O182 1.279 . S
C191 O185 1.250 . S
O192 Mg174 2.030 . S
O192 C186 1.248 1_565 S
O193 Mg176 2.079 . S
O193 C186 1.264 . S
O194 Mg195 1.990 . S
O194 C208 1.253 . S
Mg195 O194 1.990 . S
Mg195 O198 2.180 . S
Mg195 O199 2.117 . S
Mg195 O213 2.030 . S
O196 Mg197 2.072 . S
O196 C208 1.260 . S
Mg197 O196 2.072 . S
Mg197 O198 2.099 . S
Mg197 O200 2.079 . S
Mg197 O201 2.072 . S
Mg197 O203 2.099 . S
Mg197 O214 2.079 . S
O198 Mg195 2.180 . S
O198 Mg197 2.099 . S
O198 C209 1.279 . S
O199 Mg195 2.117 . S
O199 C209 1.250 . S
O200 Mg197 2.079 . S
O200 C210 1.264 . S
O201 Mg197 2.072 . S
O201 C211 1.260 . S
Mg202 O203 2.180 . S
Mg202 O204 2.030 . S
Mg202 O205 1.990 . S
Mg202 O206 2.117 . S
O203 Mg197 2.099 . S
O203 Mg202 2.180 . S
O203 C212 1.279 . S
O204 Mg202 2.030 . S
O204 C210 1.248 . S
O205 Mg202 1.990 . S
O205 C211 1.253 . S
O206 Mg202 2.117 . S
O206 C212 1.250 . S
C207 O213 1.248 . S
C207 O214 1.264 . S
C208 O194 1.253 . S
C208 O196 1.260 . S
C209 O198 1.279 . S
C209 O199 1.250 . S
C210 O200 1.264 . S
C210 O204 1.248 . S
C211 O201 1.260 . S
C211 O205 1.253 . S
C212 O203 1.279 . S
C212 O206 1.250 . S
O213 Mg195 2.030 . S
O213 C207 1.248 . S
O214 Mg197 2.079 . S
O214 C207 1.264 . S
O215 Mg216 1.990 . S
O215 C229 1.253 . S
Mg216 O215 1.990 . S
Mg216 O219 2.180 1_655 S
Mg216 O220 2.117 . S
Mg216 O234 2.030 . S
O217 Mg218 2.072 1_655 S
O217 C229 1.260 . S
Mg218 O217 2.072 1_455 S
Mg218 O219 2.099 . S
Mg218 O221 2.079 . S
Mg218 O222 2.072 . S
Mg218 O224 2.099 . S
Mg218 O235 2.079 1_455 S
O219 Mg216 2.180 1_455 S
O219 Mg218 2.099 . S
O219 C230 1.279 . S
O220 Mg216 2.117 . S
O220 C230 1.250 1_655 S
O221 Mg218 2.079 . S
O221 C231 1.264 . S
O222 Mg218 2.072 . S
O222 C232 1.260 . S
Mg223 O224 2.180 . S
Mg223 O225 2.030 . S
Mg223 O226 1.990 . S
Mg223 O227 2.117 . S
O224 Mg218 2.099 . S
O224 Mg223 2.180 . S
O224 C233 1.279 . S
O225 Mg223 2.030 . S
O225 C231 1.248 . S
O226 Mg223 1.990 . S
O226 C232 1.253 . S
O227 Mg223 2.117 . S
O227 C233 1.250 . S
C228 O234 1.248 . S
C228 O235 1.264 . S
C229 O215 1.253 . S
C229 O217 1.260 . S
C230 O219 1.279 . S
C230 O220 1.250 1_455 S
C231 O221 1.264 . S
C231 O225 1.248 . S
C232 O222 1.260 . S
C232 O226 1.253 . S
C233 O224 1.279 . S
C233 O227 1.250 . S
O234 Mg216 2.030 . S
O234 C228 1.248 . S
O235 Mg218 2.079 1_655 S
O235 C228 1.264 . S
H236 C248 0.930 . S
H237 C250 0.930 . S
H238 C251 0.930 . S
H239 C255 0.959 . S
H240 C255 0.959 . S
H241 C255 0.961 . S
H242 C256 0.960 . S
H243 C256 0.961 . S
H244 C256 0.959 . S
H245 C259 0.929 . S
H246 C260 0.931 . S
H247 C262 0.930 . S
C248 H236 0.930 . S
C248 C249 1.399 . S
C248 C253 1.399 . S
C249 C248 1.399 . S
C249 C250 1.376 . S
C250 H237 0.930 . S
C250 C249 1.376 . S
C250 C251 1.388 . S
C251 H238 0.930 . S
C251 C250 1.388 . S
C251 C252 1.390 . S
C252 C251 1.390 . S
C252 C253 1.394 . S
C252 C258 1.465 . S
C253 C248 1.399 . S
C253 C252 1.394 . S
C253 C254 1.516 . S
C254 C253 1.516 . S
C254 C255 1.502 . S
C254 C256 1.561 . S
C254 C257 1.526 . S
C255 H239 0.959 . S
C255 H240 0.959 . S
C255 H241 0.961 . S
C255 C254 1.502 . S
C256 H242 0.960 . S
C256 H243 0.961 . S
C256 H244 0.959 . S
C256 C254 1.561 . S
C257 C254 1.526 . S
C257 C258 1.396 . S
C257 C262 1.390 . S
C258 C252 1.465 . S
C258 C257 1.396 . S
C258 C259 1.399 . S
C259 H245 0.929 . S
C259 C258 1.399 . S
C259 C260 1.385 . S
C260 H246 0.931 . S
C260 C259 1.385 . S
C260 C261 1.389 . S
C261 C260 1.389 . S
C261 C262 1.387 . S
C262 H247 0.930 . S
C262 C257 1.390 . S
C262 C261 1.387 . S
H263 C275 0.930 . S
H264 C277 0.930 . S
H265 C278 0.930 . S
H266 C282 0.959 . S
H267 C282 0.959 . S
H268 C282 0.961 . S
H269 C283 0.960 . S
H270 C283 0.961 . S
H271 C283 0.959 . S
H272 C286 0.929 . S
H273 C287 0.931 . S
H274 C289 0.930 . S
C275 H263 0.930 . S
C275 C276 1.399 . S
C275 C280 1.399 . S
C276 C275 1.399 . S
C276 C277 1.376 . S
C277 H264 0.930 . S
C277 C276 1.376 . S
C277 C278 1.388 . S
C278 H265 0.930 . S
C278 C277 1.388 . S
C278 C279 1.390 . S
C279 C278 1.390 . S
C279 C280 1.394 . S
C279 C285 1.465 . S
C280 C275 1.399 . S
C280 C279 1.394 . S
C280 C281 1.516 . S
C281 C280 1.516 . S
C281 C282 1.502 . S
C281 C283 1.561 . S
C281 C284 1.526 . S
C282 H266 0.959 . S
C282 H267 0.959 . S
C282 H268 0.961 . S
C282 C281 1.502 . S
C283 H269 0.960 . S
C283 H270 0.961 . S
C283 H271 0.959 . S
C283 C281 1.561 . S
C284 C281 1.526 . S
C284 C285 1.396 . S
C284 C289 1.390 . S
C285 C279 1.465 . S
C285 C284 1.396 . S
C285 C286 1.399 . S
C286 H272 0.929 . S
C286 C285 1.399 . S
C286 C287 1.385 . S
C287 H273 0.931 . S
C287 C286 1.385 . S
C287 C288 1.389 . S
C288 C287 1.389 . S
C288 C289 1.387 . S
C289 H274 0.930 . S
C289 C284 1.390 . S
C289 C288 1.387 . S
H290 C302 0.930 . S
H291 C304 0.930 . S
H292 C305 0.930 . S
H293 C309 0.959 . S
H294 C309 0.959 . S
H295 C309 0.961 . S
H296 C310 0.960 . S
H297 C310 0.961 . S
H298 C310 0.959 . S
H299 C313 0.929 . S
H300 C314 0.931 . S
H301 C316 0.930 . S
C302 H290 0.930 . S
C302 C303 1.399 . S
C302 C307 1.399 . S
C303 C302 1.399 . S
C303 C304 1.376 . S
C304 H291 0.930 . S
C304 C303 1.376 . S
C304 C305 1.388 . S
C305 H292 0.930 . S
C305 C304 1.388 . S
C305 C306 1.390 . S
C306 C305 1.390 . S
C306 C307 1.394 . S
C306 C312 1.465 . S
C307 C302 1.399 . S
C307 C306 1.394 . S
C307 C308 1.516 . S
C308 C307 1.516 . S
C308 C309 1.502 . S
C308 C310 1.561 . S
C308 C311 1.526 . S
C309 H293 0.959 . S
C309 H294 0.959 . S
C309 H295 0.961 . S
C309 C308 1.502 . S
C310 H296 0.960 . S
C310 H297 0.961 . S
C310 H298 0.959 . S
C310 C308 1.561 . S
C311 C308 1.526 . S
C311 C312 1.396 . S
C311 C316 1.390 . S
C312 C306 1.465 . S
C312 C311 1.396 . S
C312 C313 1.399 . S
C313 H299 0.929 . S
C313 C312 1.399 . S
C313 C314 1.385 . S
C314 H300 0.931 . S
C314 C313 1.385 . S
C314 C315 1.389 . S
C315 C314 1.389 . S
C315 C316 1.387 . S
C316 H301 0.930 . S
C316 C311 1.390 . S
C316 C315 1.387 . S
H317 C329 0.930 . S
H318 C331 0.930 . S
H319 C332 0.930 1_655 S
H320 C336 0.959 . S
H321 C336 0.959 . S
H322 C336 0.961 . S
H323 C337 0.960 . S
H324 C337 0.961 . S
H325 C337 0.959 . S
H326 C340 0.929 . S
H327 C341 0.931 . S
H328 C343 0.930 . S
C329 H317 0.930 . S
C329 C330 1.399 . S
C329 C334 1.399 . S
C330 C329 1.399 . S
C330 C331 1.376 . S
C331 H318 0.930 . S
C331 C330 1.376 . S
C331 C332 1.388 . S
C332 H319 0.930 1_455 S
C332 C331 1.388 . S
C332 C333 1.390 . S
C333 C332 1.390 . S
C333 C334 1.394 . S
C333 C339 1.465 . S
C334 C329 1.399 . S
C334 C333 1.394 . S
C334 C335 1.516 . S
C335 C334 1.516 . S
C335 C336 1.502 . S
C335 C337 1.561 . S
C335 C338 1.526 . S
C336 H320 0.959 . S
C336 H321 0.959 . S
C336 H322 0.961 . S
C336 C335 1.502 . S
C337 H323 0.960 . S
C337 H324 0.961 . S
C337 H325 0.959 . S
C337 C335 1.561 . S
C338 C335 1.526 . S
C338 C339 1.396 . S
C338 C343 1.390 . S
C339 C333 1.465 . S
C339 C338 1.396 . S
C339 C340 1.399 1_455 S
C340 H326 0.929 . S
C340 C339 1.399 1_655 S
C340 C341 1.385 . S
C341 H327 0.931 . S
C341 C340 1.385 . S
C341 C342 1.389 1_655 S
C342 C341 1.389 1_455 S
C342 C343 1.387 . S
C343 H328 0.930 . S
C343 C338 1.390 . S
C343 C342 1.387 . S
H344 C356 0.930 1_545 S
H345 C358 0.930 . S
H346 C359 0.930 . S
H347 C363 0.959 . S
H348 C363 0.959 . S
H349 C363 0.961 . S
H350 C364 0.960 . S
H351 C364 0.961 . S
H352 C364 0.959 . S
H353 C367 0.929 . S
H354 C368 0.931 . S
H355 C370 0.930 . S
C356 H344 0.930 1_565 S
C356 C357 1.399 . S
C356 C361 1.399 . S
C357 C356 1.399 . S
C357 C358 1.376 . S
C358 H345 0.930 . S
C358 C357 1.376 . S
C358 C359 1.388 . S
C359 H346 0.930 . S
C359 C358 1.388 . S
C359 C360 1.390 . S
C360 C359 1.390 . S
C360 C361 1.394 . S
C360 C366 1.465 . S
C361 C356 1.399 . S
C361 C360 1.394 . S
C361 C362 1.516 1_565 S
C362 C361 1.516 1_545 S
C362 C363 1.502 . S
C362 C364 1.561 . S
C362 C365 1.526 . S
C363 H347 0.959 . S
C363 H348 0.959 . S
C363 H349 0.961 . S
C363 C362 1.502 . S
C364 H350 0.960 . S
C364 H351 0.961 . S
C364 H352 0.959 . S
C364 C362 1.561 . S
C365 C362 1.526 . S
C365 C366 1.396 1_545 S
C365 C370 1.390 . S
C366 C360 1.465 . S
C366 C365 1.396 1_565 S
C366 C367 1.399 . S
C367 H353 0.929 . S
C367 C366 1.399 . S
C367 C368 1.385 . S
C368 H354 0.931 . S
C368 C367 1.385 . S
C368 C369 1.389 . S
C369 C368 1.389 . S
C369 C370 1.387 1_565 S
C370 H355 0.930 . S
C370 C365 1.390 . S
C370 C369 1.387 1_545 S
H371 C383 0.930 1_554 S
H372 C385 0.930 . S
H373 C386 0.930 . S
H374 C390 0.959 . S
H375 C390 0.962 . S
H376 C390 0.961 1_554 S
H377 C391 0.960 . S
H378 C391 0.961 . S
H379 C391 0.959 1_556 S
H380 C394 0.929 . S
H381 C395 0.931 . S
H382 C397 0.930 . S
C383 H371 0.930 1_556 S
C383 C384 1.399 . S
C383 C388 1.399 . S
C384 C383 1.399 . S
C384 C385 1.376 . S
C385 H372 0.930 . S
C385 C384 1.376 . S
C385 C386 1.388 . S
C386 H373 0.930 . S
C386 C385 1.388 . S
C386 C387 1.390 . S
C387 C386 1.390 . S
C387 C388 1.394 . S
C387 C393 1.465 . S
C388 C383 1.399 . S
C388 C387 1.394 . S
C388 C389 1.516 . S
C389 C388 1.516 . S
C389 C390 1.502 . S
C389 C391 1.561 1_556 S
C389 C392 1.526 . S
C390 H374 0.959 . S
C390 H375 0.962 . S
C390 H376 0.961 1_556 S
C390 C389 1.502 . S
C391 H377 0.960 . S
C391 H378 0.961 . S
C391 H379 0.959 1_554 S
C391 C389 1.561 1_554 S
C392 C389 1.526 . S
C392 C393 1.396 . S
C392 C397 1.390 . S
C393 C387 1.465 . S
C393 C392 1.396 . S
C393 C394 1.399 . S
C394 H380 0.929 . S
C394 C393 1.399 . S
C394 C395 1.385 . S
C395 H381 0.931 . S
C395 C394 1.385 . S
C395 C396 1.389 . S
C396 C395 1.389 . S
C396 C397 1.387 . S
C397 H382 0.930 . S
C397 C392 1.390 . S
C397 C396 1.387 . S
H398 C410 0.930 1_554 S
H399 C412 0.930 . S
H400 C413 0.930 . S
H401 C417 0.959 1_556 S
H402 C417 0.959 . S
H403 C417 0.961 . S
H404 C418 0.960 1_554 S
H405 C418 0.961 . S
H406 C418 0.959 . S
H407 C421 0.929 . S
H408 C422 0.931 . S
H409 C424 0.930 . S
C410 H398 0.930 1_556 S
C410 C411 1.399 . S
C410 C415 1.399 . S
C411 C410 1.399 . S
C411 C412 1.376 . S
C412 H399 0.930 . S
C412 C411 1.376 . S
C412 C413 1.388 . S
C413 H400 0.930 . S
C413 C412 1.388 . S
C413 C414 1.390 . S
C414 C413 1.390 . S
C414 C415 1.394 . S
C414 C420 1.465 . S
C415 C410 1.399 . S
C415 C414 1.394 . S
C415 C416 1.516 . S
C416 C415 1.516 . S
C416 C417 1.502 1_556 S
C416 C418 1.561 . S
C416 C419 1.526 . S
C417 H401 0.959 1_554 S
C417 H402 0.959 . S
C417 H403 0.961 . S
C417 C416 1.502 1_554 S
C418 H404 0.960 1_556 S
C418 H405 0.961 . S
C418 H406 0.959 . S
C418 C416 1.561 . S
C419 C416 1.526 . S
C419 C420 1.396 . S
C419 C424 1.390 . S
C420 C414 1.465 . S
C420 C419 1.396 . S
C420 C421 1.399 . S
C421 H407 0.929 . S
C421 C420 1.399 . S
C421 C422 1.385 . S
C422 H408 0.931 . S
C422 C421 1.385 . S
C422 C423 1.389 . S
C423 C422 1.389 . S
C423 C424 1.387 . S
C424 H409 0.930 . S
C424 C419 1.390 . S
C424 C423 1.387 . S
H425 C437 0.930 1_454 S
H426 C439 0.930 . S
H427 C440 0.930 . S
H428 C444 0.959 . S
H429 C444 0.959 . S
H430 C444 0.961 . S
H431 C445 0.960 . S
H432 C445 0.961 . S
H433 C445 0.959 1_655 S
H434 C448 0.929 . S
H435 C449 0.931 . S
H436 C451 0.930 . S
C437 H425 0.930 1_656 S
C437 C438 1.399 . S
C437 C442 1.399 . S
C438 C437 1.399 . S
C438 C439 1.376 . S
C439 H426 0.930 . S
C439 C438 1.376 . S
C439 C440 1.388 . S
C440 H427 0.930 . S
C440 C439 1.388 . S
C440 C441 1.390 . S
C441 C440 1.390 . S
C441 C442 1.394 . S
C441 C447 1.465 . S
C442 C437 1.399 . S
C442 C441 1.394 . S
C442 C443 1.516 1_655 S
C443 C442 1.516 1_455 S
C443 C444 1.502 . S
C443 C445 1.561 1_556 S
C443 C446 1.526 . S
C444 H428 0.959 . S
C444 H429 0.959 . S
C444 H430 0.961 . S
C444 C443 1.502 . S
C445 H431 0.960 . S
C445 H432 0.961 . S
C445 H433 0.959 1_455 S
C445 C443 1.561 1_554 S
C446 C443 1.526 . S
C446 C447 1.396 1_455 S
C446 C451 1.390 . S
C447 C441 1.465 . S
C447 C446 1.396 1_655 S
C447 C448 1.399 . S
C448 H434 0.929 . S
C448 C447 1.399 . S
C448 C449 1.385 . S
C449 H435 0.931 . S
C449 C448 1.385 . S
C449 C450 1.424 . S
C450 C449 1.424 . S
C450 C451 1.368 1_655 S
C451 H436 0.930 . S
C451 C446 1.390 . S
C451 C450 1.368 1_455 S
H452 C464 0.930 . S
H453 C466 0.930 . S
H454 C467 0.930 . S
H455 C471 0.959 . S
H456 C471 0.959 . S
H457 C471 0.961 . S
H458 C472 0.960 . S
H459 C472 0.961 . S
H460 C472 0.959 . S
H461 C475 0.929 . S
H462 C476 0.931 . S
H463 C478 0.946 . S
C464 H452 0.930 . S
C464 C465 1.399 . S
C464 C469 1.399 . S
C465 C464 1.399 . S
C465 C466 1.376 . S
C466 H453 0.930 . S
C466 C465 1.376 . S
C466 C467 1.388 . S
C467 H454 0.930 . S
C467 C466 1.388 . S
C467 C468 1.390 . S
C468 C467 1.390 . S
C468 C469 1.394 . S
C468 C474 1.465 . S
C469 C464 1.399 . S
C469 C468 1.394 . S
C469 C470 1.516 . S
C470 C469 1.516 . S
C470 C471 1.502 . S
C470 C472 1.561 1_455 S
C470 C473 1.526 . S
C471 H455 0.959 . S
C471 H456 0.959 . S
C471 H457 0.961 . S
C471 C470 1.502 . S
C472 H458 0.960 . S
C472 H459 0.961 . S
C472 H460 0.959 . S
C472 C470 1.561 1_655 S
C473 C470 1.526 . S
C473 C474 1.396 . S
C473 C478 1.390 . S
C474 C468 1.465 . S
C474 C473 1.396 . S
C474 C475 1.399 . S
C475 H461 0.929 . S
C475 C474 1.399 . S
C475 C476 1.385 . S
C476 H462 0.931 . S
C476 C475 1.385 . S
C476 C477 1.389 . S
C477 C476 1.389 . S
C477 C478 1.387 . S
C478 H463 0.946 . S
C478 C473 1.390 . S
C478 C477 1.387 . S
H479 C491 0.930 . S
H480 C493 0.930 . S
H481 C494 0.930 . S
H482 C498 0.973 . S
H483 C498 0.964 . S
H484 C498 0.958 1_545 S
H485 C499 0.960 . S
H486 C499 0.961 . S
H487 C499 0.959 . S
H488 C502 0.929 . S
H489 C503 0.931 . S
H490 C505 0.930 . S
C491 H479 0.930 . S
C491 C492 1.399 . S
C491 C496 1.399 . S
C492 C491 1.399 . S
C492 C493 1.376 . S
C493 H480 0.930 . S
C493 C492 1.376 . S
C493 C494 1.388 . S
C494 H481 0.930 . S
C494 C493 1.388 . S
C494 C495 1.390 . S
C495 C494 1.390 . S
C495 C496 1.394 . S
C495 C501 1.465 . S
C496 C491 1.399 . S
C496 C495 1.394 . S
C496 C497 1.516 . S
C497 C496 1.516 . S
C497 C498 1.487 1_545 S
C497 C499 1.561 . S
C497 C500 1.526 . S
C498 H482 0.973 . S
C498 H483 0.964 . S
C498 H484 0.958 1_565 S
C498 C497 1.487 1_565 S
C499 H485 0.960 . S
C499 H486 0.961 . S
C499 H487 0.959 . S
C499 C497 1.561 . S
C500 C497 1.526 . S
C500 C501 1.396 . S
C500 C505 1.390 . S
C501 C495 1.465 . S
C501 C500 1.396 . S
C501 C502 1.399 . S
C502 H488 0.929 . S
C502 C501 1.399 . S
C502 C503 1.385 . S
C503 H489 0.931 . S
C503 C502 1.385 . S
C503 C504 1.389 . S
C504 C503 1.389 . S
C504 C505 1.387 . S
C505 H490 0.930 . S
C505 C500 1.390 . S
C505 C504 1.387 . S
H506 C518 0.930 . S
H507 C520 0.930 . S
H508 C521 0.930 . S
H509 C525 0.959 . S
H510 C525 0.959 . S
H511 C525 0.961 . S
H512 C526 0.960 . S
H513 C526 0.961 . S
H514 C526 0.959 . S
H515 C529 0.929 . S
H516 C530 0.931 . S
H517 C532 0.930 . S
C518 H506 0.930 . S
C518 C519 1.399 . S
C518 C523 1.399 . S
C519 C518 1.399 . S
C519 C520 1.376 . S
C520 H507 0.930 . S
C520 C519 1.376 . S
C520 C521 1.388 . S
C521 H508 0.930 . S
C521 C520 1.388 . S
C521 C522 1.390 . S
C522 C521 1.390 . S
C522 C523 1.394 . S
C522 C528 1.465 . S
C523 C518 1.399 . S
C523 C522 1.394 . S
C523 C524 1.516 . S
C524 C523 1.516 . S
C524 C525 1.502 . S
C524 C526 1.561 . S
C524 C527 1.526 . S
C525 H509 0.959 . S
C525 H510 0.959 . S
C525 H511 0.961 . S
C525 C524 1.502 . S
C526 H512 0.960 . S
C526 H513 0.961 . S
C526 H514 0.959 . S
C526 C524 1.561 . S
C527 C524 1.526 . S
C527 C528 1.396 . S
C527 C532 1.390 . S
C528 C522 1.465 . S
C528 C527 1.396 . S
C528 C529 1.399 . S
C529 H515 0.929 . S
C529 C528 1.399 . S
C529 C530 1.385 . S
C530 H516 0.931 . S
C530 C529 1.385 . S
C530 C531 1.389 . S
C531 C530 1.389 . S
C531 C532 1.387 . S
C532 H517 0.930 . S
C532 C527 1.390 . S
C532 C531 1.387 . S
H533 C545 0.930 . S
H534 C547 0.930 . S
H535 C548 0.930 . S
H536 C552 0.959 . S
H537 C552 0.959 . S
H538 C552 0.961 . S
H539 C553 0.960 . S
H540 C553 0.961 . S
H541 C553 0.959 . S
H542 C556 0.929 . S
H543 C557 0.931 . S
H544 C559 0.930 . S
C545 H533 0.930 . S
C545 C546 1.399 . S
C545 C550 1.399 . S
C546 C545 1.399 . S
C546 C547 1.376 . S
C547 H534 0.930 . S
C547 C546 1.376 . S
C547 C548 1.388 . S
C548 H535 0.930 . S
C548 C547 1.388 . S
C548 C549 1.390 . S
C549 C548 1.390 . S
C549 C550 1.394 . S
C549 C555 1.465 . S
C550 C545 1.399 . S
C550 C549 1.394 . S
C550 C551 1.516 . S
C551 C550 1.516 . S
C551 C552 1.502 . S
C551 C553 1.561 . S
C551 C554 1.526 . S
C552 H536 0.959 . S
C552 H537 0.959 . S
C552 H538 0.961 . S
C552 C551 1.502 . S
C553 H539 0.960 . S
C553 H540 0.961 . S
C553 H541 0.959 . S
C553 C551 1.561 . S
C554 C551 1.526 . S
C554 C555 1.396 . S
C554 C559 1.390 . S
C555 C549 1.465 . S
C555 C554 1.396 . S
C555 C556 1.399 . S
C556 H542 0.929 . S
C556 C555 1.399 . S
C556 C557 1.385 . S
C557 H543 0.931 . S
C557 C556 1.385 . S
C557 C558 1.389 . S
C558 C557 1.389 . S
C558 C559 1.387 . S
C559 H544 0.930 . S
C559 C554 1.390 . S
C559 C558 1.387 . S
H560 C572 0.930 . S
H561 C574 0.949 . S
H562 C575 0.930 . S
H563 C579 0.959 . S
H564 C579 0.959 . S
H565 C579 0.961 . S
H566 C580 0.960 . S
H567 C580 0.961 . S
H568 C580 0.959 . S
H569 C583 0.929 . S
H570 C584 0.931 . S
H571 C586 0.930 . S
C572 H560 0.930 . S
C572 C573 1.399 . S
C572 C577 1.399 . S
C573 C572 1.399 . S
C573 C574 1.341 1_655 S
C574 H561 0.949 . S
C574 C573 1.341 1_455 S
C574 C575 1.407 . S
C575 H562 0.930 . S
C575 C574 1.407 . S
C575 C576 1.408 . S
C576 C575 1.408 . S
C576 C577 1.360 1_455 S
C576 C582 1.476 . S
C577 C572 1.399 . S
C577 C576 1.360 1_655 S
C577 C578 1.516 . S
C578 C577 1.516 . S
C578 C579 1.502 . S
C578 C580 1.561 1_556 S
C578 C581 1.526 . S
C579 H563 0.959 . S
C579 H564 0.959 . S
C579 H565 0.961 . S
C579 C578 1.502 . S
C580 H566 0.960 . S
C580 H567 0.961 . S
C580 H568 0.959 . S
C580 C578 1.561 1_554 S
C581 C578 1.526 . S
C581 C582 1.396 1_655 S
C581 C586 1.390 . S
C582 C576 1.476 . S
C582 C581 1.396 1_455 S
C582 C583 1.399 . S
C583 H569 0.929 . S
C583 C582 1.399 . S
C583 C584 1.385 . S
C584 H570 0.931 . S
C584 C583 1.385 . S
C584 C585 1.389 . S
C585 C584 1.389 . S
C585 C586 1.387 1_455 S
C586 H571 0.930 . S
C586 C581 1.390 . S
C586 C585 1.387 1_655 S
H587 C599 0.930 1_554 S
H588 C601 0.930 . S
H589 C602 0.930 . S
H590 C606 0.959 . S
H591 C606 0.959 . S
H592 C606 0.961 . S
H593 C607 0.960 . S
H594 C607 0.961 . S
H595 C607 0.959 1_556 S
H596 C610 0.929 . S
H597 C611 0.931 . S
H598 C613 0.930 . S
C599 H587 0.930 1_556 S
C599 C600 1.399 . S
C599 C604 1.399 . S
C600 C599 1.399 . S
C600 C601 1.376 . S
C601 H588 0.930 . S
C601 C600 1.376 . S
C601 C602 1.388 . S
C602 H589 0.930 . S
C602 C601 1.388 . S
C602 C603 1.390 . S
C603 C602 1.390 . S
C603 C604 1.394 . S
C603 C609 1.465 . S
C604 C599 1.399 . S
C604 C603 1.394 . S
C604 C605 1.516 1_565 S
C605 C604 1.516 1_545 S
C605 C606 1.502 1_546 S
C605 C607 1.561 1_556 S
C605 C608 1.526 . S
C606 H590 0.959 . S
C606 H591 0.959 . S
C606 H592 0.961 . S
C606 C605 1.502 1_564 S
C607 H593 0.960 . S
C607 H594 0.961 . S
C607 H595 0.959 1_554 S
C607 C605 1.561 1_554 S
C608 C605 1.526 . S
C608 C609 1.396 1_545 S
C608 C613 1.390 . S
C609 C603 1.465 . S
C609 C608 1.396 1_565 S
C609 C610 1.399 . S
C610 H596 0.929 . S
C610 C609 1.399 . S
C610 C611 1.385 1_565 S
C611 H597 0.931 . S
C611 C610 1.385 1_545 S
C611 C612 1.389 . S
C612 C611 1.389 . S
C612 C613 1.387 . S
C613 H598 0.930 . S
C613 C608 1.390 . S
C613 C612 1.387 . S
H614 C626 0.930 1_554 S
H615 C628 0.930 . S
H616 C629 0.930 . S
H617 C633 0.959 . S
H618 C633 0.959 . S
H619 C633 0.961 1_554 S
H620 C634 0.960 . S
H621 C634 0.961 . S
H622 C634 0.959 . S
H623 C637 0.929 . S
H624 C638 0.931 . S
H625 C640 0.930 . S
C626 H614 0.930 1_556 S
C626 C627 1.399 . S
C626 C631 1.399 . S
C627 C626 1.399 . S
C627 C628 1.376 . S
C628 H615 0.930 . S
C628 C627 1.376 . S
C628 C629 1.388 . S
C629 H616 0.930 . S
C629 C628 1.388 . S
C629 C630 1.390 . S
C630 C629 1.390 . S
C630 C631 1.394 . S
C630 C636 1.465 . S
C631 C626 1.399 . S
C631 C630 1.394 . S
C631 C632 1.516 . S
C632 C631 1.516 . S
C632 C633 1.502 . S
C632 C634 1.561 1_556 S
C632 C635 1.526 . S
C633 H617 0.959 . S
C633 H618 0.959 . S
C633 H619 0.961 1_556 S
C633 C632 1.502 . S
C634 H620 0.960 . S
C634 H621 0.961 . S
C634 H622 0.959 . S
C634 C632 1.561 1_554 S
C635 C632 1.526 . S
C635 C636 1.396 . S
C635 C640 1.390 . S
C636 C630 1.465 . S
C636 C635 1.396 . S
C636 C637 1.399 . S
C637 H623 0.929 . S
C637 C636 1.399 . S
C637 C638 1.385 . S
C638 H624 0.931 . S
C638 C637 1.385 . S
C638 C639 1.389 . S
C639 C638 1.389 . S
C639 C640 1.387 . S
C640 H625 0.930 . S
C640 C635 1.390 . S
C640 C639 1.387 . S
H641 C653 0.930 . S
H642 C655 0.930 . S
H643 C656 0.930 . S
H644 C660 0.959 1_554 S
H645 C660 0.959 . S
H646 C660 0.961 1_554 S
H647 C661 0.960 . S
H648 C661 0.961 . S
H649 C661 0.959 . S
H650 C664 0.929 . S
H651 C665 0.931 . S
H652 C667 0.930 . S
C653 H641 0.930 . S
C653 C654 1.399 . S
C653 C658 1.399 . S
C654 C653 1.399 . S
C654 C655 1.376 . S
C655 H642 0.930 . S
C655 C654 1.376 . S
C655 C656 1.388 . S
C656 H643 0.930 . S
C656 C655 1.388 . S
C656 C657 1.390 . S
C657 C656 1.390 . S
C657 C658 1.394 . S
C657 C663 1.465 . S
C658 C653 1.399 . S
C658 C657 1.394 . S
C658 C659 1.516 . S
C659 C658 1.516 . S
C659 C660 1.502 . S
C659 C661 1.561 . S
C659 C662 1.526 . S
C660 H644 0.959 1_556 S
C660 H645 0.959 . S
C660 H646 0.961 1_556 S
C660 C659 1.502 . S
C661 H647 0.960 . S
C661 H648 0.961 . S
C661 H649 0.959 . S
C661 C659 1.561 . S
C662 C659 1.526 . S
C662 C663 1.396 . S
C662 C667 1.390 . S
C663 C657 1.465 . S
C663 C662 1.396 . S
C663 C664 1.399 . S
C664 H650 0.929 . S
C664 C663 1.399 . S
C664 C665 1.385 . S
C665 H651 0.931 . S
C665 C664 1.385 . S
C665 C666 1.389 . S
C666 C665 1.389 . S
C666 C667 1.387 . S
C667 H652 0.930 . S
C667 C662 1.390 . S
C667 C666 1.387 . S
H668 C680 0.930 . S
H669 C682 0.930 . S
H670 C683 0.930 . S
H671 C687 0.959 . S
H672 C687 0.959 . S
H673 C687 0.961 . S
H674 C688 0.960 . S
H675 C688 0.961 . S
H676 C688 0.959 . S
H677 C691 0.929 . S
H678 C692 0.931 . S
H679 C694 0.930 . S
C680 H668 0.930 . S
C680 C681 1.399 . S
C680 C685 1.399 . S
C681 C680 1.399 . S
C681 C682 1.376 . S
C682 H669 0.930 . S
C682 C681 1.376 . S
C682 C683 1.388 1_554 S
C683 H670 0.930 . S
C683 C682 1.388 1_556 S
C683 C684 1.390 1_556 S
C684 C683 1.390 1_554 S
C684 C685 1.394 . S
C684 C690 1.465 1_554 S
C685 C680 1.399 . S
C685 C684 1.394 . S
C685 C686 1.516 . S
C686 C685 1.516 . S
C686 C687 1.502 . S
C686 C688 1.561 . S
C686 C689 1.526 1_554 S
C687 H671 0.959 . S
C687 H672 0.959 . S
C687 H673 0.961 . S
C687 C686 1.502 . S
C688 H674 0.960 . S
C688 H675 0.961 . S
C688 H676 0.959 . S
C688 C686 1.561 . S
C689 C686 1.526 1_556 S
C689 C690 1.396 . S
C689 C694 1.390 . S
C690 C684 1.465 1_556 S
C690 C689 1.396 . S
C690 C691 1.399 . S
C691 H677 0.929 . S
C691 C690 1.399 . S
C691 C692 1.385 . S
C692 H678 0.931 . S
C692 C691 1.385 . S
C692 C693 1.389 . S
C693 C692 1.389 . S
C693 C694 1.387 . S
C694 H679 0.930 . S
C694 C689 1.390 . S
C694 C693 1.387 . S
H695 C707 0.930 . S
H696 C709 0.930 . S
H697 C710 0.930 1_565 S
H698 C714 0.959 . S
H699 C714 0.959 . S
H700 C714 0.961 . S
H701 C715 0.960 . S
H702 C715 0.961 . S
H703 C715 0.959 . S
H704 C718 0.916 1_565 S
H705 C719 0.931 1_565 S
H706 C721 0.930 . S
C707 H695 0.930 . S
C707 C708 1.399 . S
C707 C712 1.399 . S
C708 C707 1.399 . S
C708 C709 1.376 . S
C709 H696 0.930 . S
C709 C708 1.376 . S
C709 C710 1.388 . S
C710 H697 0.930 1_545 S
C710 C709 1.388 . S
C710 C711 1.390 . S
C711 C710 1.390 . S
C711 C712 1.394 . S
C711 C717 1.465 1_554 S
C712 C707 1.399 . S
C712 C711 1.394 . S
C712 C713 1.516 1_554 S
C713 C712 1.516 1_556 S
C713 C714 1.502 . S
C713 C715 1.561 1_556 S
C713 C716 1.526 . S
C714 H698 0.959 . S
C714 H699 0.959 . S
C714 H700 0.961 . S
C714 C713 1.502 . S
C715 H701 0.960 . S
C715 H702 0.961 . S
C715 H703 0.959 . S
C715 C713 1.561 1_554 S
C716 C713 1.526 . S
C716 C717 1.396 . S
C716 C721 1.390 . S
C717 C711 1.465 1_556 S
C717 C716 1.396 . S
C717 C718 1.411 . S
C718 H704 0.916 1_545 S
C718 C717 1.411 . S
C718 C719 1.387 . S
C719 H705 0.931 1_545 S
C719 C718 1.387 . S
C719 C720 1.389 . S
C720 C719 1.389 . S
C720 C721 1.387 . S
C721 H706 0.930 . S
C721 C716 1.390 . S
C721 C720 1.387 . S
H722 C734 0.930 . S
H723 C736 0.930 . S
H724 C737 0.930 . S
H725 C741 0.959 . S
H726 C741 0.959 . S
H727 C741 0.961 . S
H728 C742 0.960 . S
H729 C742 0.961 . S
H730 C742 0.959 . S
H731 C745 0.929 . S
H732 C746 0.931 . S
H733 C748 0.930 . S
C734 H722 0.930 . S
C734 C735 1.399 . S
C734 C739 1.399 . S
C735 C734 1.399 . S
C735 C736 1.376 . S
C736 H723 0.930 . S
C736 C735 1.376 . S
C736 C737 1.388 . S
C737 H724 0.930 . S
C737 C736 1.388 . S
C737 C738 1.390 . S
C738 C737 1.390 . S
C738 C739 1.394 . S
C738 C744 1.465 1_554 S
C739 C734 1.399 . S
C739 C738 1.394 . S
C739 C740 1.516 1_554 S
C740 C739 1.516 1_556 S
C740 C741 1.502 . S
C740 C742 1.561 . S
C740 C743 1.526 . S
C741 H725 0.959 . S
C741 H726 0.959 . S
C741 H727 0.961 . S
C741 C740 1.502 . S
C742 H728 0.960 . S
C742 H729 0.961 . S
C742 H730 0.959 . S
C742 C740 1.561 . S
C743 C740 1.526 . S
C743 C744 1.396 . S
C743 C748 1.390 . S
C744 C738 1.465 1_556 S
C744 C743 1.396 . S
C744 C745 1.399 1_556 S
C745 H731 0.929 . S
C745 C744 1.399 1_554 S
C745 C746 1.385 1_554 S
C746 H732 0.931 . S
C746 C745 1.385 1_556 S
C746 C747 1.389 . S
C747 C746 1.389 . S
C747 C748 1.387 . S
C748 H733 0.930 . S
C748 C743 1.390 . S
C748 C747 1.387 . S
H749 C761 0.930 . S
H750 C763 0.930 . S
H751 C764 0.930 . S
H752 C768 0.959 . S
H753 C768 0.959 . S
H754 C768 0.961 . S
H755 C769 0.960 . S
H756 C769 0.961 1_556 S
H757 C769 0.959 . S
H758 C772 0.929 1_554 S
H759 C773 0.931 . S
H760 C775 0.930 . S
C761 H749 0.930 . S
C761 C762 1.399 . S
C761 C766 1.399 . S
C762 C761 1.399 . S
C762 C763 1.376 . S
C763 H750 0.930 . S
C763 C762 1.376 . S
C763 C764 1.388 . S
C764 H751 0.930 . S
C764 C763 1.388 . S
C764 C765 1.390 . S
C765 C764 1.390 . S
C765 C766 1.394 . S
C765 C771 1.465 1_554 S
C766 C761 1.399 . S
C766 C765 1.394 . S
C766 C767 1.516 1_554 S
C767 C766 1.516 1_556 S
C767 C768 1.502 . S
C767 C769 1.561 1_556 S
C767 C770 1.526 . S
C768 H752 0.959 . S
C768 H753 0.959 . S
C768 H754 0.961 . S
C768 C767 1.502 . S
C769 H755 0.960 . S
C769 H756 0.961 1_554 S
C769 H757 0.959 . S
C769 C767 1.561 1_554 S
C770 C767 1.526 . S
C770 C771 1.396 . S
C770 C775 1.390 . S
C771 C765 1.465 1_556 S
C771 C770 1.396 . S
C771 C772 1.399 . S
C772 H758 0.929 1_556 S
C772 C771 1.399 . S
C772 C773 1.385 . S
C773 H759 0.931 . S
C773 C772 1.385 . S
C773 C774 1.389 . S
C774 C773 1.389 . S
C774 C775 1.387 . S
C775 H760 0.930 . S
C775 C770 1.390 . S
C775 C774 1.387 . S
H776 C788 0.930 . S
H777 C790 0.930 . S
H778 C791 0.930 . S
H779 C795 0.959 . S
H780 C795 0.959 . S
H781 C795 0.961 . S
H782 C796 0.960 . S
H783 C796 0.961 . S
H784 C796 0.959 . S
H785 C799 0.929 . S
H786 C800 0.931 . S
H787 C802 0.930 . S
C788 H776 0.930 . S
C788 C789 1.399 . S
C788 C793 1.399 . S
C789 C788 1.399 . S
C789 C790 1.376 1_655 S
C790 H777 0.930 . S
C790 C789 1.376 1_455 S
C790 C791 1.388 . S
C791 H778 0.930 . S
C791 C790 1.388 . S
C791 C792 1.390 1_455 S
C792 C791 1.390 1_655 S
C792 C793 1.394 . S
C792 C798 1.465 . S
C793 C788 1.399 . S
C793 C792 1.394 . S
C793 C794 1.516 . S
C794 C793 1.516 . S
C794 C795 1.502 . S
C794 C796 1.561 . S
C794 C797 1.526 . S
C795 H779 0.959 . S
C795 H780 0.959 . S
C795 H781 0.961 . S
C795 C794 1.502 . S
C796 H782 0.960 . S
C796 H783 0.961 . S
C796 H784 0.959 . S
C796 C794 1.561 . S
C797 C794 1.526 . S
C797 C798 1.396 . S
C797 C802 1.390 . S
C798 C792 1.465 . S
C798 C797 1.396 . S
C798 C799 1.399 1_655 S
C799 H785 0.929 . S
C799 C798 1.399 1_455 S
C799 C800 1.385 . S
C800 H786 0.931 . S
C800 C799 1.385 . S
C800 C801 1.389 1_455 S
C801 C800 1.389 1_655 S
C801 C802 1.387 . S
C802 H787 0.930 . S
C802 C797 1.390 . S
C802 C801 1.387 . S
H803 C815 0.930 1_545 S
H804 C817 0.930 . S
H805 C818 0.930 . S
H806 C822 0.959 . S
H807 C822 0.959 . S
H808 C822 0.961 . S
H809 C823 0.960 . S
H810 C823 0.961 . S
H811 C823 0.959 1_565 S
H812 C826 0.929 . S
H813 C827 0.931 . S
H814 C829 0.930 . S
C815 H803 0.930 1_565 S
C815 C816 1.399 . S
C815 C820 1.399 . S
C816 C815 1.399 . S
C816 C817 1.376 . S
C817 H804 0.930 . S
C817 C816 1.376 . S
C817 C818 1.388 . S
C818 H805 0.930 . S
C818 C817 1.388 . S
C818 C819 1.390 . S
C819 C818 1.390 . S
C819 C820 1.394 . S
C819 C825 1.465 . S
C820 C815 1.399 . S
C820 C819 1.394 . S
C820 C821 1.516 1_565 S
C821 C820 1.516 1_545 S
C821 C822 1.502 . S
C821 C823 1.561 . S
C821 C824 1.526 1_545 S
C822 H806 0.959 . S
C822 H807 0.959 . S
C822 H808 0.961 . S
C822 C821 1.502 . S
C823 H809 0.960 . S
C823 H810 0.961 . S
C823 H811 0.959 1_545 S
C823 C821 1.561 . S
C824 C821 1.526 1_565 S
C824 C825 1.396 . S
C824 C829 1.390 1_565 S
C825 C819 1.465 . S
C825 C824 1.396 . S
C825 C826 1.399 . S
C826 H812 0.929 . S
C826 C825 1.399 . S
C826 C827 1.385 . S
C827 H813 0.931 . S
C827 C826 1.385 . S
C827 C828 1.389 . S
C828 C827 1.389 . S
C828 C829 1.387 1_565 S
C829 H814 0.930 . S
C829 C824 1.390 1_545 S
C829 C828 1.387 1_545 S
H830 C842 0.930 . S
H831 C844 0.930 . S
H832 C845 0.930 . S
H833 C849 0.959 . S
H834 C849 0.959 . S
H835 C849 0.961 . S
H836 C850 0.960 . S
H837 C850 0.961 . S
H838 C850 0.959 . S
H839 C853 0.929 . S
H840 C854 0.931 . S
H841 C856 0.930 . S
C842 H830 0.930 . S
C842 C843 1.399 . S
C842 C847 1.399 . S
C843 C842 1.399 . S
C843 C844 1.376 . S
C844 H831 0.930 . S
C844 C843 1.376 . S
C844 C845 1.388 . S
C845 H832 0.930 . S
C845 C844 1.388 . S
C845 C846 1.390 . S
C846 C845 1.390 . S
C846 C847 1.394 . S
C846 C852 1.465 . S
C847 C842 1.399 . S
C847 C846 1.394 . S
C847 C848 1.516 . S
C848 C847 1.516 . S
C848 C849 1.502 . S
C848 C850 1.561 . S
C848 C851 1.526 . S
C849 H833 0.959 . S
C849 H834 0.959 . S
C849 H835 0.961 . S
C849 C848 1.502 . S
C850 H836 0.960 . S
C850 H837 0.961 . S
C850 H838 0.959 . S
C850 C848 1.561 . S
C851 C848 1.526 . S
C851 C852 1.396 . S
C851 C856 1.390 . S
C852 C846 1.465 . S
C852 C851 1.396 . S
C852 C853 1.399 . S
C853 H839 0.929 . S
C853 C852 1.399 . S
C853 C854 1.385 . S
C854 H840 0.931 . S
C854 C853 1.385 . S
C854 C855 1.389 . S
C855 C854 1.389 . S
C855 C856 1.387 . S
C856 H841 0.930 . S
C856 C851 1.390 . S
C856 C855 1.387 . S
H857 C869 0.930 . S
H858 C871 0.930 . S
H859 C872 0.930 . S
H860 C876 0.959 . S
H861 C876 0.959 . S
H862 C876 0.961 . S
H863 C877 0.960 . S
H864 C877 0.961 . S
H865 C877 0.959 . S
H866 C880 0.929 . S
H867 C881 0.931 . S
H868 C883 0.930 . S
C869 H857 0.930 . S
C869 C870 1.399 . S
C869 C874 1.399 . S
C870 C869 1.399 . S
C870 C871 1.376 . S
C871 H858 0.930 . S
C871 C870 1.376 . S
C871 C872 1.388 . S
C872 H859 0.930 . S
C872 C871 1.388 . S
C872 C873 1.390 . S
C873 C872 1.390 . S
C873 C874 1.394 . S
C873 C879 1.465 . S
C874 C869 1.399 . S
C874 C873 1.394 . S
C874 C875 1.516 . S
C875 C874 1.516 . S
C875 C876 1.502 . S
C875 C877 1.561 . S
C875 C878 1.526 . S
C876 H860 0.959 . S
C876 H861 0.959 . S
C876 H862 0.961 . S
C876 C875 1.502 . S
C877 H863 0.960 . S
C877 H864 0.961 . S
C877 H865 0.959 . S
C877 C875 1.561 . S
C878 C875 1.526 . S
C878 C879 1.396 . S
C878 C883 1.390 . S
C879 C873 1.465 . S
C879 C878 1.396 . S
C879 C880 1.399 . S
C880 H866 0.929 . S
C880 C879 1.399 . S
C880 C881 1.385 . S
C881 H867 0.931 . S
C881 C880 1.385 . S
C881 C882 1.389 . S
C882 C881 1.389 . S
C882 C883 1.387 . S
C883 H868 0.930 . S
C883 C878 1.390 . S
C883 C882 1.387 . S
C249 C125 1.490 . S
C261 C167 1.420 . S
C288 C191 1.482 . S
C276 C144 1.543 . S
C315 C212 1.488 . S
C303 C87 1.549 . S
C342 C230 1.384 . S
C330 C106 1.463 . S
C369 C170 1.423 1_565 S
C357 C49 1.463 . S
C384 C68 1.501 . S
C396 C188 1.415 . S
C411 C11 1.517 . S
C423 C209 1.389 . S
C438 C30 1.484 . S
C450 C233 1.402 1_655 S
C477 C168 0.805 . S
C465 C97 0.631 . S
C504 C186 0.654 . S
C492 C116 0.822 . S
C531 C207 0.795 . S
C519 C135 0.654 . S
C546 C78 0.823 . S
C558 C231 0.644 . S
C573 C21 0.810 1_556 S
C585 C166 0.787 . S
C612 C190 0.789 . S
C600 C40 0.894 1_556 S
C639 C211 0.779 . S
C627 C59 0.839 1_556 S
C654 C2 0.896 1_556 S
C666 C229 0.841 . S
C681 C101 1.608 . S
C693 C169 1.511 . S
C708 C120 1.576 . S
C720 C187 1.511 . S
C747 C208 1.589 . S
C735 C139 1.592 . S
C774 C232 1.516 . S
C762 C82 1.572 . S
C789 C25 1.455 . S
C801 C165 1.381 1_655 S
C828 C189 1.439 1_565 S
C816 C44 1.468 . S
C855 C210 1.381 . S
C843 C63 1.455 . S
C870 C6 1.459 . S
C882 C228 1.448 . S
