# Generated by pormake.
# Topology pyr, (3,6)-cn, num edge types: 1
# Building blocks:
#     Node 0, Type 0, BuildingBlock: CUQRIR_clean_linker_1, # of connection points: 3
#     Node 1, Type 0, BuildingBlock: CUQRIR_clean_linker_1, # of connection points: 3
#     Node 2, Type 0, BuildingBlock: CUQRIR_clean_linker_1, # of connection points: 3
#     Node 3, Type 0, BuildingBlock: CUQRIR_clean_linker_1, # of connection points: 3
#     Node 4, Type 0, BuildingBlock: CUQRIR_clean_linker_1, # of connection points: 3
#     Node 5, Type 0, BuildingBlock: CUQRIR_clean_linker_1, # of connection points: 3
#     Node 6, Type 0, BuildingBlock: CUQRIR_clean_linker_1, # of connection points: 3
#     Node 7, Type 0, BuildingBlock: CUQRIR_clean_linker_1, # of connection points: 3
#     Node 8, Type 1, BuildingBlock: BETGAK_clean_sbu_0, # of connection points: 6
#     Node 9, Type 1, BuildingBlock: BETGAK_clean_sbu_0, # of connection points: 6
#     Node 10, Type 1, BuildingBlock: BETGAK_clean_sbu_0, # of connection points: 6
#     Node 11, Type 1, BuildingBlock: BETGAK_clean_sbu_0, # of connection points: 6
#     Edge 12, Type (0, 1), BuildingBlock: XUDNAN_clean_linker_2, # of connection points: 2
#     Edge 13, Type (0, 1), BuildingBlock: XUDNAN_clean_linker_2, # of connection points: 2
#     Edge 14, Type (0, 1), BuildingBlock: XUDNAN_clean_linker_2, # of connection points: 2
#     Edge 15, Type (0, 1), BuildingBlock: XUDNAN_clean_linker_2, # of connection points: 2
#     Edge 16, Type (0, 1), BuildingBlock: XUDNAN_clean_linker_2, # of connection points: 2
#     Edge 17, Type (0, 1), BuildingBlock: XUDNAN_clean_linker_2, # of connection points: 2
#     Edge 18, Type (0, 1), BuildingBlock: XUDNAN_clean_linker_2, # of connection points: 2
#     Edge 19, Type (0, 1), BuildingBlock: XUDNAN_clean_linker_2, # of connection points: 2
#     Edge 20, Type (0, 1), BuildingBlock: XUDNAN_clean_linker_2, # of connection points: 2
#     Edge 21, Type (0, 1), BuildingBlock: XUDNAN_clean_linker_2, # of connection points: 2
#     Edge 22, Type (0, 1), BuildingBlock: XUDNAN_clean_linker_2, # of connection points: 2
#     Edge 23, Type (0, 1), BuildingBlock: XUDNAN_clean_linker_2, # of connection points: 2
#     Edge 24, Type (0, 1), BuildingBlock: XUDNAN_clean_linker_2, # of connection points: 2
#     Edge 25, Type (0, 1), BuildingBlock: XUDNAN_clean_linker_2, # of connection points: 2
#     Edge 26, Type (0, 1), BuildingBlock: XUDNAN_clean_linker_2, # of connection points: 2
#     Edge 27, Type (0, 1), BuildingBlock: XUDNAN_clean_linker_2, # of connection points: 2
#     Edge 28, Type (0, 1), BuildingBlock: XUDNAN_clean_linker_2, # of connection points: 2
#     Edge 29, Type (0, 1), BuildingBlock: XUDNAN_clean_linker_2, # of connection points: 2
#     Edge 30, Type (0, 1), BuildingBlock: XUDNAN_clean_linker_2, # of connection points: 2
#     Edge 31, Type (0, 1), BuildingBlock: XUDNAN_clean_linker_2, # of connection points: 2
#     Edge 32, Type (0, 1), BuildingBlock: XUDNAN_clean_linker_2, # of connection points: 2
#     Edge 33, Type (0, 1), BuildingBlock: XUDNAN_clean_linker_2, # of connection points: 2
#     Edge 34, Type (0, 1), BuildingBlock: XUDNAN_clean_linker_2, # of connection points: 2
#     Edge 35, Type (0, 1), BuildingBlock: XUDNAN_clean_linker_2, # of connection points: 2
# Relax obj value: 0.208
# Max RMSD: 0.259
# Mean RMSD: 0.169
data_MOF--net-pyr--node1-BETGAK_clean_sbu_0--node2-CUQRIR_clean_linker_1--edge1-XUDNAN_clean_linker_2
_symmetry_space_group_name_H-M    P1
_symmetry_Int_Tables_number       1
_symmetry_cell_setting            triclinic
loop_
_symmetry_equiv_pos_as_xyz
'x, y, z'
_cell_length_a     34.740197
_cell_length_b     37.246786
_cell_length_c     33.476476
_cell_angle_alpha  89.870566
_cell_angle_beta   89.829396
_cell_angle_gamma 105.59867
loop_
_atom_site_label
_atom_site_type_symbol
_atom_site_fract_x
_atom_site_fract_y
_atom_site_fract_z
_atom_type_partial_charge
C0 C 0.3624 0.36868 0.23121 0.0
N1 N 0.38493 0.34512 0.23968 0.0
N2 N 0.37389 0.38671 0.19618 0.0
C3 C 0.32576 0.37056 0.25457 0.0
C4 C 0.40478 0.37373 0.18384 0.0
N5 N 0.41167 0.3487 0.21043 0.0
C6 C 0.42492 0.38219 0.14388 0.0
H7 H 0.30226 0.34385 0.25138 0.0
H8 H 0.31386 0.39383 0.24444 0.0
H9 H 0.33306 0.3747 0.28671 0.0
H10 H 0.42647 0.41114 0.13455 0.0
H11 H 0.40713 0.36292 0.12137 0.0
H12 H 0.45545 0.37825 0.14471 0.0
C13 C 0.38503 1.02085 0.59098 0.0
N14 N 0.3671 1.0378 0.61843 0.0
N15 N 0.4153 1.0097 0.60768 0.0
C16 C 0.37366 1.01515 0.5477 0.0
C17 C 0.41507 1.02011 0.64634 0.0
N18 N 0.38619 1.03762 0.65278 0.0
C19 C 0.4394 1.00871 0.6789 0.0
H20 H 0.35151 0.98768 0.54414 0.0
H21 H 0.40025 1.015 0.5293 0.0
H22 H 0.36043 1.03731 0.53674 0.0
H23 H 0.4508 0.98482 0.66995 0.0
H24 H 0.42138 1.00108 0.70659 0.0
H25 H 0.46536 1.03264 0.6858 0.0
C26 C 0.62815 0.39762 0.88215 0.0
N27 N 0.65286 0.39466 0.91313 0.0
N28 N 0.6418 0.43034 0.86175 0.0
C29 C 0.58889 0.36985 0.87333 0.0
C30 C 0.67604 0.44731 0.88141 0.0
N31 N 0.68267 0.42635 0.9131 0.0
C32 C 0.70529 0.48234 0.86633 0.0
H33 H 0.56826 0.38347 0.85798 0.0
H34 H 0.57447 0.35645 0.90119 0.0
H35 H 0.5942 0.34793 0.85335 0.0
H36 H 0.70209 0.48573 0.83368 0.0
H37 H 0.73654 0.48201 0.87253 0.0
H38 H 0.69923 0.50679 0.88134 0.0
C39 C 0.85265 0.71622 0.38335 0.0
N40 N 0.88804 0.74199 0.37433 0.0
N41 N 0.83192 0.72818 0.41281 0.0
C42 C 0.83825 0.6789 0.36303 0.0
C43 C 0.85577 0.76256 0.42143 0.0
N44 N 0.89007 0.7714 0.39887 0.0
C45 C 0.8435 0.78912 0.4496 0.0
H46 H 0.84015 0.68261 0.33011 0.0
H47 H 0.80737 0.66377 0.37157 0.0
H48 H 0.85772 0.66099 0.37163 0.0
H49 H 0.85607 0.78668 0.4796 0.0
H50 H 0.81053 0.78256 0.45248 0.0
H51 H 0.85483 0.81838 0.43922 0.0
C52 C 0.67403 0.85057 0.92211 0.0
N53 N 0.70296 0.84053 0.90146 0.0
N54 N 0.65329 0.8678 0.89797 0.0
C55 C 0.66758 0.846 0.96647 0.0
C56 C 0.67057 0.86759 0.86167 0.0
N57 N 0.70056 0.85081 0.86372 0.0
C58 C 0.66351 0.89012 0.82647 0.0
H59 H 0.63553 0.84204 0.97385 0.0
H60 H 0.68499 0.87157 0.98179 0.0
H61 H 0.67756 0.82192 0.97767 0.0
H62 H 0.68496 0.91819 0.82774 0.0
H63 H 0.63272 0.8934 0.82698 0.0
H64 H 0.66851 0.87675 0.79806 0.0
C65 C 0.83538 0.31583 0.53832 0.0
N66 N 0.84696 0.29755 0.50732 0.0
N67 N 0.81255 0.33771 0.52515 0.0
C68 C 0.84756 0.31409 0.58116 0.0
C69 C 0.81049 0.33214 0.48524 0.0
N70 N 0.83172 0.30825 0.47438 0.0
C71 C 0.78367 0.34655 0.45765 0.0
H72 H 0.82515 0.29148 0.59674 0.0
H73 H 0.84848 0.34067 0.59654 0.0
H74 H 0.87729 0.3085 0.58325 0.0
H75 H 0.79748 0.37659 0.45172 0.0
H76 H 0.75417 0.34384 0.47198 0.0
H77 H 0.77889 0.33171 0.42867 0.0
C78 C 0.35837 0.73593 0.27521 0.0
N79 N 0.39187 0.76247 0.28676 0.0
N80 N 0.34143 0.74664 0.24239 0.0
C81 C 0.34016 0.70025 0.29769 0.0
C82 C 0.3657 0.78091 0.23406 0.0
N83 N 0.3963 0.79103 0.26078 0.0
C84 C 0.36028 0.80455 0.19901 0.0
H85 H 0.35394 0.67833 0.28714 0.0
H86 H 0.30749 0.69048 0.29244 0.0
H87 H 0.34549 0.70408 0.33026 0.0
H88 H 0.33346 0.79134 0.18117 0.0
H89 H 0.38681 0.80951 0.17913 0.0
H90 H 0.35811 0.83208 0.2098 0.0
C91 C 0.13174 0.40399 0.78112 0.0
N92 N 0.15578 0.40162 0.74919 0.0
N93 N 0.1427 0.43823 0.79945 0.0
C94 C 0.09748 0.37212 0.79459 0.0
C95 C 0.17531 0.45642 0.7772 0.0
N96 N 0.18357 0.43462 0.74704 0.0
C97 C 0.19672 0.49702 0.7822 0.0
H98 H 0.07084 0.3716 0.77617 0.0
H99 H 0.09029 0.3748 0.82655 0.0
H100 H 0.1047 0.34514 0.7904 0.0
H101 H 0.22075 0.49968 0.80465 0.0
H102 H 0.17591 0.51293 0.7928 0.0
H103 H 0.21053 0.50958 0.75376 0.0
La104 La 0.05553 0.10988 0.5163 0.0
La105 La 1.03332 0.07393 0.59401 0.0
C106 C 0.07145 0.15005 0.45457 0.0
C107 C 0.10975 0.16707 0.43488 0.0
C108 C 0.14538 0.17627 0.45698 0.0
C109 C 0.18221 0.18843 0.43749 0.0
C110 C 0.18388 0.19087 0.39565 0.0
C111 C 0.1481 0.18223 0.37373 0.0
C112 C 0.1113 0.17046 0.39325 0.0
C113 C 0.11221 0.08496 0.55071 0.0
C114 C 0.06733 0.16145 0.59474 0.0
C115 C 1.02778 1.03272 0.65469 0.0
C116 C 0.99918 0.99826 0.66808 0.0
C117 C 0.96424 0.98309 0.64623 0.0
C118 C 0.93389 0.95411 0.66238 0.0
C119 C 0.9381 0.93993 0.70064 0.0
C120 C 0.97444 0.95356 0.72108 0.0
C121 C 1.00469 0.98264 0.70495 0.0
C122 C 0.97708 0.10067 0.56226 0.0
C123 C 1.01223 1.02366 0.51304 0.0
O124 O 0.06064 0.11375 0.45386 0.0
O125 O 0.06625 0.16293 0.48982 0.0
O126 O 0.10626 0.08534 0.51284 0.0
O127 O 0.08914 0.10092 0.56729 0.0
O128 O 0.05744 0.15822 0.55624 0.0
O129 O 0.06649 0.13061 0.61537 0.0
O130 O 1.01334 0.06167 0.65274 0.0
O131 O 0.04941 1.03011 0.6233 0.0
O132 O 0.9819 0.09735 0.60025 0.0
O133 O 1.00012 0.08541 0.54418 0.0
O134 O 1.01873 1.02408 0.55243 0.0
O135 O 1.01859 1.056 0.49383 0.0
H136 H 0.14478 0.17316 0.48919 0.0
H137 H 0.20939 0.19482 0.45497 0.0
H138 H 0.14861 0.18445 0.34145 0.0
H139 H 0.0841 0.16309 0.37579 0.0
H140 H 0.95958 0.99497 0.61765 0.0
H141 H 0.9062 0.94456 0.64601 0.0
H142 H 0.9788 0.94283 0.75033 0.0
H143 H 1.03162 0.99402 0.72208 0.0
La144 La 0.57574 0.09856 0.11563 0.0
La145 La 0.49918 0.09298 0.08625 0.0
C146 C 0.64524 0.11609 0.14508 0.0
C147 C 0.66987 0.14272 0.17316 0.0
C148 C 0.65315 0.15452 0.20727 0.0
C149 C 0.67789 0.17626 0.23595 0.0
C150 C 0.71962 0.18676 0.23077 0.0
C151 C 0.73606 0.1762 0.19577 0.0
C152 C 0.71133 0.1542 0.16727 0.0
C153 C 0.52315 1.03412 0.1377 0.0
C154 C 0.51982 0.13817 0.16057 0.0
C155 C 0.42942 0.07336 0.05778 0.0
C156 C 0.41321 0.07384 1.01722 0.0
C157 C 0.42641 0.10519 0.99231 0.0
C158 C 0.41263 0.10444 0.95312 0.0
C159 C 0.3858 0.07219 0.93779 0.0
C160 C 0.37204 1.04112 0.96312 0.0
C161 C 0.38557 1.04201 1.00249 0.0
C162 C 0.55023 0.15742 0.06312 0.0
C163 C 0.55599 1.05453 1.03774 0.0
O164 O 0.61489 0.09124 0.16036 0.0
O165 O 0.63618 0.1294 0.11136 0.0
O166 O 0.55873 1.03767 0.12386 0.0
O167 O 0.51725 0.06642 0.13775 0.0
O168 O 0.55682 0.14175 0.14876 0.0
O169 O 0.49119 0.11088 0.14606 0.0
O170 O 0.44515 0.10574 0.07407 0.0
O171 O 0.45147 1.05043 0.06351 0.0
O172 O 0.51322 0.15264 0.07227 0.0
O173 O 0.55765 0.12577 0.06444 0.0
O174 O 0.51917 1.05636 1.04445 0.0
O175 O 0.58561 0.07331 0.06001 0.0
H176 H 0.62113 0.14613 0.21224 0.0
H177 H 0.66444 0.18454 0.2624 0.0
H178 H 0.76811 0.18378 0.19113 0.0
H179 H 0.7247 0.14524 0.14114 0.0
H180 H 0.44788 0.13012 1.00284 0.0
H181 H 0.42343 0.12904 0.93466 0.0
H182 H 0.35188 1.01561 0.95217 0.0
H183 H 0.3752 1.01748 1.02116 0.0
La184 La 0.49823 0.56126 0.54895 0.0
La185 La 0.50919 0.61887 0.60422 0.0
C186 C 0.51218 0.50917 0.50884 0.0
C187 C 0.54344 0.49002 0.51665 0.0
C188 C 0.53454 0.45105 0.51513 0.0
C189 C 0.5631 0.43282 0.52682 0.0
C190 C 0.60098 0.45335 0.54027 0.0
C191 C 0.60976 0.49238 0.54156 0.0
C192 C 0.58134 0.51051 0.52993 0.0
C193 C 0.43015 0.55632 0.58864 0.0
C194 C 0.53661 0.55246 0.63539 0.0
C195 C 0.49861 0.67123 0.64664 0.0
C196 C 0.49422 0.70859 0.63689 0.0
C197 C 0.52152 0.74041 0.65216 0.0
C198 C 0.51918 0.77599 0.64113 0.0
C199 C 0.48953 0.78039 0.61446 0.0
C200 C 0.46198 0.74841 0.59958 0.0
C201 C 0.4641 0.71294 0.61089 0.0
C202 C 0.57543 0.62329 0.56019 0.0
C203 C 0.47692 0.63208 0.51531 0.0
O204 O 0.48399 0.50389 0.53579 0.0
O205 O 0.52495 0.54425 0.49867 0.0
O206 O 0.43377 0.55194 0.55052 0.0
O207 O 0.46519 0.56448 0.60388 0.0
O208 O 0.53534 0.54478 0.59661 0.0
O209 O 0.52249 0.57996 0.64765 0.0
O210 O 0.53372 0.6661 0.63955 0.0
O211 O 0.46973 0.64278 0.63512 0.0
O212 O 0.57529 0.63075 0.59798 0.0
O213 O 0.53951 0.61498 0.54895 0.0
O214 O 0.48335 0.64331 0.55303 0.0
O215 O 0.48237 0.59944 0.50507 0.0
H216 H 0.50534 0.43471 0.50553 0.0
H217 H 0.55564 0.4027 0.52506 0.0
H218 H 0.63841 0.50896 0.55229 0.0
H219 H 0.58883 0.5406 0.53227 0.0
H220 H 0.54488 0.73773 0.67241 0.0
H221 H 0.54036 0.8 0.65385 0.0
H222 H 0.43903 0.7507 0.57865 0.0
H223 H 0.4425 0.68896 0.59863 0.0
La224 La 1.01026 0.55186 0.113 0.0
La225 La 1.00882 0.62191 0.0605 0.0
C226 C 1.0303 0.49494 0.13465 0.0
C227 C 0.06996 0.48727 0.13385 0.0
C228 C 0.1032 0.51195 0.15191 0.0
C229 C 0.14097 0.50571 0.14943 0.0
C230 C 0.14666 0.47477 0.12862 0.0
C231 C 0.11338 0.45009 0.1105 0.0
C232 C 0.07542 0.45629 0.11313 0.0
C233 C 0.98531 0.60349 0.1573 0.0
C234 C 0.08649 0.62148 0.1098 0.0
C235 C 0.99398 0.6821 1.04148 0.0
C236 C 0.97289 0.69957 1.01239 0.0
C237 C 0.98935 0.73718 1.00262 0.0
C238 C 0.9661 0.75744 0.98373 0.0
C239 C 0.92584 0.74046 0.97456 0.0
C240 C 0.91053 0.70191 0.98113 0.0
C241 C 0.93388 0.6816 0.99991 0.0
C242 C 0.0384 0.57334 1.01746 0.0
C243 C 0.93471 0.54693 0.05698 0.0
O244 O 1.02635 0.52095 0.15934 0.0
O245 O 1.01423 0.49768 0.09979 0.0
O246 O 0.9869 0.57077 0.16953 0.0
O247 O 0.99579 0.60384 0.1207 0.0
O248 O 0.07244 0.58484 0.11238 0.0
O249 O 0.06457 0.64272 0.09519 0.0
O250 O 1.02656 0.6735 1.03001 0.0
O251 O 0.97142 0.65688 0.06509 0.0
O252 O 1.03259 0.60424 1.00395 0.0
O253 O 1.02675 0.57189 0.05378 0.0
O254 O 0.95009 0.58234 0.04537 0.0
O255 O 0.95264 0.53019 0.08348 0.0
H256 H 0.10022 0.53632 0.16788 0.0
H257 H 0.16562 0.52496 0.1644 0.0
H258 H 0.11671 0.42618 0.0939 0.0
H259 H 0.05038 0.4371 0.09861 0.0
H260 H 1.01938 0.75154 1.01194 0.0
H261 H 0.97898 0.78693 0.97833 0.0
H262 H 0.87961 0.68799 0.97456 0.0
H263 H 0.92053 0.65251 1.00706 0.0
H264 H 0.37333 0.34197 0.3196 0.0
H265 H 0.35942 0.27494 0.21275 0.0
H266 H 0.31961 0.22089 0.24973 0.0
H267 H 0.35963 0.26237 0.39802 0.0
H268 H 0.32923 0.28386 0.42849 0.0
H269 H 0.3699 0.31244 0.39943 0.0
H270 H 0.32075 0.34466 0.36621 0.0
H271 H 0.27992 0.31597 0.39438 0.0
H272 H 0.27747 0.31667 0.34059 0.0
H273 H 0.26772 0.18055 0.29036 0.0
H274 H 0.20729 0.15695 0.33161 0.0
H275 H 0.24697 0.25106 0.4114 0.0
C276 C 0.36337 0.31527 0.30486 0.0
C277 C 0.3708 0.31213 0.2638 0.0
C278 C 0.35618 0.27737 0.24464 0.0
C279 C 0.33298 0.24655 0.26545 0.0
C280 C 0.32382 0.2511 0.30529 0.0
C281 C 0.33864 0.28461 0.32501 0.0
C282 C 0.31717 0.28487 0.36447 0.0
C283 C 0.34569 0.28593 0.39969 0.0
C284 C 0.29767 0.31744 0.36648 0.0
C285 C 0.28609 0.24757 0.3623 0.0
C286 C 0.29144 0.22803 0.3286 0.0
C287 C 0.26379 0.19505 0.3174 0.0
C288 C 0.22938 0.18207 0.34071 0.0
C289 C 0.2227 0.20224 0.37458 0.0
C290 C 0.25195 0.23477 0.38612 0.0
H291 H 0.43246 0.08362 0.7056 0.0
H292 H 0.31352 1.01168 0.68748 0.0
H293 H 0.29662 1.0203 0.75817 0.0
H294 H 0.44695 1.04529 0.79513 0.0
H295 H 0.47601 0.08774 0.81786 0.0
H296 H 0.47554 0.08298 0.76445 0.0
H297 H 0.45186 0.14298 0.75693 0.0
H298 H 0.45254 0.14816 0.81047 0.0
H299 H 0.40759 0.14662 0.78299 0.0
H300 H 0.2964 1.02964 0.83276 0.0
H301 H 0.31257 1.03831 0.90454 0.0
H302 H 0.43374 0.10027 0.87378 0.0
C303 C 0.40252 0.07077 0.71644 0.0
C304 C 0.37399 1.0476 0.69136 0.0
C305 C 0.33532 1.03029 0.70626 0.0
C306 C 0.32562 1.03493 0.74631 0.0
C307 C 0.35507 1.05687 0.77085 0.0
C308 C 0.39272 0.07464 0.75636 0.0
C309 C 0.42068 0.0925 0.78959 0.0
C310 C 0.4569 0.07613 0.79189 0.0
C311 C 0.43393 0.1351 0.7847 0.0
C312 C 0.39331 0.08108 0.82526 0.0
C313 C 0.3554 0.06112 0.81389 0.0
C314 C 0.32583 1.04565 0.84196 0.0
C315 C 0.33542 1.05042 0.88266 0.0
C316 C 0.3744 0.0701 0.89491 0.0
C317 C 0.40338 0.08594 0.86559 0.0
H318 H 0.62018 0.49549 0.84787 0.0
H319 H 0.62782 0.39323 0.79141 0.0
H320 H 0.60323 0.41349 0.72802 0.0
H321 H 0.52823 0.50043 0.79804 0.0
H322 H 0.54306 0.55049 0.79323 0.0
H323 H 0.562 0.52838 0.8338 0.0
H324 H 0.63438 0.56169 0.81228 0.0
H325 H 0.61565 0.58383 0.77159 0.0
H326 H 0.65026 0.55647 0.76182 0.0
H327 H 0.57959 0.4464 0.66894 0.0
H328 H 0.55427 0.4858 0.62192 0.0
H329 H 0.55763 0.56627 0.71622 0.0
C330 C 0.61659 0.4774 0.82211 0.0
C331 C 0.62603 0.44249 0.8249 0.0
C332 C 0.62064 0.41975 0.79035 0.0
C333 C 0.60681 0.43123 0.75406 0.0
C334 C 0.59782 0.46565 0.75223 0.0
C335 C 0.60211 0.48828 0.78554 0.0
C336 C 0.58927 0.52353 0.77568 0.0
C337 C 0.55352 0.52584 0.80174 0.0
C338 C 0.62449 0.55845 0.78064 0.0
C339 C 0.57722 0.51732 0.73175 0.0
C340 C 0.58284 0.48388 0.71876 0.0
C341 C 0.57484 0.47244 0.67914 0.0
C342 C 0.56046 0.49525 0.6524 0.0
C343 C 0.55347 0.52942 0.66481 0.0
C344 C 0.5622 0.54037 0.70538 0.0
H345 H 0.92816 0.68781 0.36791 0.0
H346 H 0.90186 0.77811 0.30204 0.0
H347 H 0.92743 0.756 0.24017 0.0
H348 H 1.01649 0.67844 0.30957 0.0
H349 H 1.00093 0.62825 0.31207 0.0
H350 H 0.98768 0.65543 0.3517 0.0
H351 H 0.91324 0.6206 0.34223 0.0
H352 H 0.92608 0.59369 0.30219 0.0
H353 H 0.89066 0.62049 0.29381 0.0
H354 H 0.95303 0.71874 0.18156 0.0
H355 H 0.97229 0.67299 0.13739 0.0
H356 H 0.97384 0.60237 0.23979 0.0
C357 C 0.92925 0.70394 0.34081 0.0
C358 C 0.91448 0.7364 0.34132 0.0
C359 C 0.91497 0.75496 0.30407 0.0
C360 C 0.92876 0.74179 0.26816 0.0
C361 C 0.94154 0.70901 0.26869 0.0
C362 C 0.94177 0.69038 0.30442 0.0
C363 C 0.95303 0.65386 0.29688 0.0
C364 C 0.99184 0.654 0.31887 0.0
C365 C 0.91872 0.62017 0.30953 0.0
C366 C 0.95926 0.65456 0.25147 0.0
C367 C 0.953 0.68682 0.23561 0.0
C368 C 0.95763 0.69347 0.19423 0.0
C369 C 0.96857 0.66696 0.1689 0.0
C370 C 0.97435 0.63311 0.18405 0.0
C371 C 0.96953 0.62747 0.22637 0.0
H372 H 0.40712 0.29677 0.15361 0.0
H373 H 0.47208 0.34511 0.25893 0.0
H374 H 0.51012 0.29731 0.25739 0.0
H375 H 0.39193 0.20525 0.18693 0.0
H376 H 0.39479 0.18543 0.13828 0.0
H377 H 0.37847 0.22718 0.14305 0.0
H378 H 0.43406 0.2622 0.09409 0.0
H379 H 0.44995 0.22026 0.08835 0.0
H380 H 0.48529 0.26285 0.1037 0.0
H381 H 0.54053 0.24279 0.24332 0.0
H382 H 0.55584 0.18413 0.22188 0.0
H383 H 0.46184 0.16728 0.1335 0.0
C384 C 0.43045 0.29793 0.17532 0.0
C385 C 0.43785 0.32495 0.20568 0.0
C386 C 0.46698 0.32487 0.23501 0.0
C387 C 0.48844 0.29783 0.2344 0.0
C388 C 0.47949 0.2706 0.20477 0.0
C389 C 0.45082 0.27031 0.17603 0.0
C390 C 0.44302 0.23572 0.15054 0.0
C391 C 0.39948 0.212 0.15499 0.0
C392 C 0.45373 0.24588 0.10657 0.0
C393 C 0.47181 0.21661 0.16921 0.0
C394 C 0.49333 0.23739 0.19986 0.0
C395 C 0.52337 0.22601 0.21979 0.0
C396 C 0.53173 0.19269 0.2077 0.0
C397 C 0.5091 0.17077 0.17708 0.0
C398 C 0.47866 0.18286 0.15799 0.0
H399 H 0.29816 1.00178 0.58135 0.0
H400 H 0.3566 0.10336 0.64402 0.0
H401 H 0.29536 0.12494 0.63757 0.0
H402 H 0.25156 1.04754 0.50817 0.0
H403 H 0.20732 1.00903 0.50466 0.0
H404 H 0.25447 1.00064 0.51745 0.0
H405 H 0.22267 0.96639 0.58192 0.0
H406 H 0.17553 0.97505 0.56957 0.0
H407 H 0.19863 0.99008 0.617 0.0
H408 H 0.22684 0.13415 0.62559 0.0
H409 H 0.15974 0.13465 0.60119 0.0
H410 H 0.15032 1.0311 0.53825 0.0
C411 C 0.29838 1.02888 0.59299 0.0
C412 C 0.33208 1.05104 0.61307 0.0
C413 C 0.33081 0.08588 0.62894 0.0
C414 C 0.29628 0.09832 0.62534 0.0
C415 C 0.26363 0.07583 0.60511 0.0
C416 C 0.26472 1.04218 0.58853 0.0
C417 C 0.22672 1.02439 0.56597 0.0
C418 C 0.23555 1.02017 0.52142 0.0
C419 C 0.20459 0.98675 0.58475 0.0
C420 C 0.20402 1.05332 0.57238 0.0
C421 C 0.22544 0.08237 0.5958 0.0
C422 C 0.20997 0.11175 0.60693 0.0
C423 C 0.17189 0.11173 0.59315 0.0
C424 C 0.15038 0.083 0.56781 0.0
C425 C 0.16654 1.05344 0.55741 0.0
H426 H 0.71776 0.49405 0.94807 0.0
H427 H 0.72908 0.38147 0.93671 0.0
H428 H 0.79231 0.39959 0.97484 0.0
H429 H 0.82172 0.538 0.92909 0.0
H430 H 0.82453 0.57643 0.96259 0.0
H431 H 0.77784 0.55365 0.93896 0.0
H432 H 0.74349 0.54089 1.00817 0.0
H433 H 0.79006 0.5637 1.03202 0.0
H434 H 0.76391 0.51661 0.04577 0.0
H435 H 0.85608 0.43088 1.01307 0.0
H436 H 0.91556 0.47198 1.04484 0.0
H437 H 0.86839 0.56715 1.02475 0.0
C438 C 0.73347 0.47311 0.95354 0.0
C439 C 0.71776 0.43598 0.93929 0.0
C440 C 0.73949 0.40967 0.94782 0.0
C441 C 0.77584 0.41994 0.9692 0.0
C442 C 0.79094 0.45695 0.98155 0.0
C443 C 0.77052 0.48324 0.97375 0.0
C444 C 0.79459 0.52173 0.98789 0.0
C445 C 0.8053 0.54907 0.95253 0.0
C446 C 0.77164 0.53661 1.0204 0.0
C447 C 0.83183 0.51312 1.00498 0.0
C448 C 0.82869 0.47541 1.00146 0.0
C449 C 0.85868 0.46038 1.01578 0.0
C450 C 0.89251 0.48414 1.03403 0.0
C451 C 0.89718 0.5231 1.03764 0.0
C452 C 0.86618 0.53767 1.02248 0.0
H453 H 0.80726 0.71267 0.49102 0.0
H454 H 0.7638 0.70607 0.36948 0.0
H455 H 0.69503 0.67706 0.39376 0.0
H456 H 0.73995 0.62578 0.52756 0.0
H457 H 0.73227 0.6442 0.57578 0.0
H458 H 0.77837 0.66321 0.54901 0.0
H459 H 0.76756 0.72914 0.55346 0.0
H460 H 0.72149 0.71033 0.58034 0.0
H461 H 0.72167 0.73685 0.53519 0.0
H462 H 0.63021 0.64775 0.43129 0.0
H463 H 0.57445 0.62445 0.47866 0.0
H464 H 0.65719 0.65198 0.57775 0.0
C465 C 0.78323 0.70488 0.46957 0.0
C466 C 0.79143 0.71082 0.42793 0.0
C467 C 0.75876 0.70089 0.40115 0.0
C468 C 0.71944 0.68453 0.41481 0.0
C469 C 0.71245 0.67856 0.45577 0.0
C470 C 0.74339 0.68873 0.48288 0.0
C471 C 0.72721 0.68028 0.52546 0.0
C472 C 0.74555 0.65167 0.54565 0.0
C473 C 0.73495 0.71629 0.55007 0.0
C474 C 0.68248 0.66375 0.51809 0.0
C475 C 0.67482 0.66284 0.47754 0.0
C476 C 0.63604 0.64854 0.46306 0.0
C477 C 0.60436 0.63522 0.49037 0.0
C478 C 0.61087 0.63626 0.53223 0.0
C479 C 0.65084 0.65071 0.54607 0.0
H480 H 0.3001 0.35534 0.16899 0.0
H481 H 0.39319 0.45893 0.17319 0.0
H482 H 0.34629 0.49244 0.14534 0.0
H483 H 0.2439 0.37618 0.07958 0.0
H484 H 0.19654 0.3539 0.10268 0.0
H485 H 0.23974 0.33743 0.1132 0.0
H486 H 0.22964 0.34604 0.18894 0.0
H487 H 0.18681 0.36288 0.17878 0.0
H488 H 0.22784 0.39103 0.20727 0.0
H489 H 0.28652 0.5153 0.1269 0.0
H490 H 0.21983 0.52627 0.12074 0.0
H491 H 0.16484 0.40759 0.13452 0.0
C492 C 0.31079 0.38484 0.16243 0.0
C493 C 0.35009 0.40475 0.17247 0.0
C494 C 0.36327 0.44341 0.16485 0.0
C495 C 0.33681 0.46249 0.14921 0.0
C496 C 0.29742 0.4423 0.1415 0.0
C497 C 0.28456 0.40422 0.14771 0.0
C498 C 0.23974 0.38972 0.1429 0.0
C499 C 0.22938 0.36271 0.10747 0.0
C500 C 0.21986 0.37137 0.18178 0.0
C501 C 0.22905 0.42572 0.13422 0.0
C502 C 0.26275 0.45563 0.13271 0.0
C503 C 0.26002 0.492 0.12759 0.0
C504 C 0.22193 0.49798 0.12453 0.0
C505 C 0.18692 0.46781 0.12728 0.0
C506 C 0.19085 0.4312 0.13145 0.0
H507 H 0.63348 0.31916 0.89743 0.0
H508 H 0.65523 0.39858 0.99454 0.0
H509 H 0.63729 0.34631 1.04319 0.0
H510 H 0.54655 0.25649 0.94086 0.0
H511 H 0.55712 0.21479 0.92214 0.0
H512 H 0.57506 0.25818 0.89548 0.0
H513 H 0.64721 0.25161 0.89925 0.0
H514 H 0.6295 0.20827 0.92613 0.0
H515 H 0.66823 0.24566 0.94719 0.0
H516 H 0.61104 0.28436 0.0817 0.0
H517 H 0.58014 0.2202 0.10589 0.0
H518 H 0.57393 0.17951 0.98444 0.0
C519 C 0.63466 0.32563 0.92895 0.0
C520 C 0.64608 0.36355 0.94187 0.0
C521 C 0.64734 0.37022 0.98359 0.0
C522 C 0.63686 0.34049 1.01151 0.0
C523 C 0.62496 0.30365 0.99771 0.0
C524 C 0.62391 0.29615 0.95728 0.0
C525 C 0.60828 0.25416 0.95013 0.0
C526 C 0.56945 0.24539 0.92571 0.0
C527 C 0.64021 0.23904 0.92944 0.0
C528 C 0.60041 0.23902 0.99275 0.0
C529 C 0.61039 0.26815 1.01975 0.0
C530 C 0.60393 0.26151 0.06068 0.0
C531 C 0.58656 0.22474 0.07429 0.0
C532 C 0.57597 0.19422 0.04754 0.0
C533 C 0.5832 0.20174 1.00603 0.0
H534 H 0.93193 0.79912 0.46636 0.0
H535 H 0.91171 0.82862 0.34482 0.0
H536 H 0.94346 0.89493 0.36017 0.0
H537 H 0.90424 0.87409 0.50993 0.0
H538 H 0.93968 0.88191 0.55034 0.0
H539 H 0.92246 0.83627 0.52844 0.0
H540 H 0.99519 0.83558 0.51331 0.0
H541 H 1.01281 0.88095 0.53583 0.0
H542 H 1.02731 0.87349 0.48544 0.0
H543 H 0.97145 0.96048 0.39159 0.0
H544 H 0.99492 1.01651 0.433 0.0
H545 H 0.99412 0.94698 0.53732 0.0
C546 C 0.93605 0.81932 0.44234 0.0
C547 C 0.92066 0.80741 0.40336 0.0
C548 C 0.92484 0.83568 0.37393 0.0
C549 C 0.94221 0.87394 0.38289 0.0
C550 C 0.9552 0.88456 0.42191 0.0
C551 C 0.95259 0.85786 0.45116 0.0
C552 C 0.96556 0.87678 0.49158 0.0
C553 C 0.93093 0.86665 0.52187 0.0
C554 C 1.00241 0.86606 0.50749 0.0
C555 C 0.97593 0.91836 0.48075 0.0
C556 C 0.96978 0.92206 0.44027 0.0
C557 C 0.97647 0.95749 0.42316 0.0
C558 C 0.98989 0.98956 0.44735 0.0
C559 C 0.99682 0.98729 0.4891 0.0
C560 C 0.98945 0.95055 0.50577 0.0
H561 H 0.37743 0.93835 0.59486 0.0
H562 H 0.4933 1.01831 0.59185 0.0
H563 H 0.52567 0.96702 0.58268 0.0
H564 H 0.40401 0.87731 0.65512 0.0
H565 H 0.37355 0.83511 0.63308 0.0
H566 H 0.35902 0.8777 0.6286 0.0
H567 H 0.35761 0.87191 0.55146 0.0
H568 H 0.37149 0.82875 0.55563 0.0
H569 H 0.40101 0.86623 0.5253 0.0
H570 H 0.54521 0.90688 0.58554 0.0
H571 H 0.55078 0.84329 0.59926 0.0
H572 H 0.42143 0.80311 0.60472 0.0
C573 C 0.4094 0.94486 0.59007 0.0
C574 C 0.43309 0.98187 0.59278 0.0
C575 C 0.475 0.98994 0.58866 0.0
C576 C 0.49343 0.96103 0.5836 0.0
C577 C 0.46931 0.92441 0.58278 0.0
C578 C 0.42809 0.91631 0.58553 0.0
C579 C 0.40926 0.87487 0.58986 0.0
C580 C 0.38507 0.86575 0.62899 0.0
C581 C 0.38331 0.85954 0.55338 0.0
C582 C 0.44632 0.86101 0.59094 0.0
C583 C 0.48062 0.88982 0.58599 0.0
C584 C 0.51852 0.88402 0.58882 0.0
C585 C 0.52138 0.84789 0.59711 0.0
C586 C 0.48654 0.81812 0.60305 0.0
C587 C 0.44863 0.82495 0.59941 0.0
H588 H 0.77422 0.89655 0.87077 0.0
H589 H 0.69809 0.81574 0.79275 0.0
H590 H 0.75393 0.82433 0.74368 0.0
H591 H 0.82379 0.95889 0.79843 0.0
H592 H 0.87162 0.96996 0.82301 0.0
H593 H 0.82649 0.95483 0.85197 0.0
H594 H 0.85196 0.90131 0.88239 0.0
H595 H 0.89725 0.91621 0.85328 0.0
H596 H 0.86657 0.86887 0.84973 0.0
H597 H 0.81708 0.84643 0.70157 0.0
H598 H 0.8808 0.88044 0.66948 0.0
H599 H 0.91489 0.94487 0.77771 0.0
C600 C 0.76975 0.88028 0.84359 0.0
C601 C 0.73246 0.85537 0.83519 0.0
C602 C 0.72682 0.83491 0.79924 0.0
C603 C 0.75832 0.83945 0.77159 0.0
C604 C 0.79511 0.86419 0.78094 0.0
C605 C 0.80088 0.88407 0.81626 0.0
C606 C 0.8424 0.91006 0.81882 0.0
C607 C 0.84096 0.95083 0.82329 0.0
C608 C 0.86594 0.89841 0.85308 0.0
C609 C 0.85874 0.90311 0.77857 0.0
C610 C 0.83134 0.87621 0.75728 0.0
C611 C 0.83895 0.86715 0.71819 0.0
C612 C 0.8751 0.88671 0.70015 0.0
C613 C 0.903 0.91508 0.72119 0.0
C614 C 0.89482 0.92263 0.76117 0.0
H615 H 0.78458 0.2412 0.45479 0.0
H616 H 0.87057 0.33846 0.40787 0.0
H617 H 0.85639 0.31417 0.33893 0.0
H618 H 0.79895 0.17231 0.37777 0.0
H619 H 0.74618 0.14938 0.37698 0.0
H620 H 0.76925 0.17082 0.4223 0.0
H621 H 0.71792 0.20995 0.4257 0.0
H622 H 0.69517 0.18929 0.38011 0.0
H623 H 0.71351 0.23925 0.38397 0.0
H624 H 0.82671 0.28313 0.27557 0.0
H625 H 0.78377 0.2479 0.22211 0.0
H626 H 0.71479 0.17212 0.31086 0.0
C627 C 0.80146 0.25629 0.4299 0.0
C628 C 0.82939 0.29092 0.43598 0.0
C629 C 0.84986 0.31136 0.40318 0.0
C630 C 0.84189 0.29781 0.3642 0.0
C631 C 0.81312 0.26397 0.35887 0.0
C632 C 0.79334 0.24336 0.39087 0.0
C633 C 0.76044 0.21031 0.37698 0.0
C634 C 0.76925 0.17352 0.38923 0.0
C635 C 0.71935 0.21236 0.39261 0.0
C636 C 0.76392 0.21618 0.33226 0.0
C637 C 0.7949 0.24687 0.32235 0.0
C638 C 0.80272 0.25873 0.28291 0.0
C639 C 0.77821 0.23864 0.2528 0.0
C640 C 0.74599 0.20744 0.26246 0.0
C641 C 0.73906 0.19605 0.30269 0.0
H642 H 0.42774 0.70642 0.29684 0.0
H643 H 0.4077 0.80302 0.35563 0.0
H644 H 0.43009 0.78169 0.41976 0.0
H645 H 0.38667 0.64348 0.37305 0.0
H646 H 0.42043 0.61453 0.36772 0.0
H647 H 0.4101 0.64051 0.32553 0.0
H648 H 0.4855 0.67225 0.31639 0.0
H649 H 0.49627 0.64587 0.3581 0.0
H650 H 0.51409 0.69601 0.35799 0.0
H651 H 0.44863 0.74519 0.47999 0.0
H652 H 0.46364 0.70068 0.52799 0.0
H653 H 0.46734 0.62441 0.43144 0.0
C654 C 0.42969 0.72395 0.3229 0.0
C655 C 0.41689 0.7573 0.32045 0.0
C656 C 0.41855 0.77838 0.35588 0.0
C657 C 0.43067 0.76593 0.39275 0.0
C658 C 0.44094 0.73195 0.39433 0.0
C659 C 0.4409 0.71143 0.36005 0.0
C660 C 0.44996 0.67438 0.37002 0.0
C661 C 0.4147 0.64127 0.35838 0.0
C662 C 0.48876 0.67199 0.3494 0.0
C663 C 0.45501 0.67689 0.41536 0.0
C664 C 0.4499 0.71047 0.42873 0.0
C665 C 0.4527 0.719 0.46942 0.0
C666 C 0.46112 0.69315 0.49681 0.0
C667 C 0.46652 0.65832 0.4844 0.0
C668 C 0.46328 0.6504 0.44262 0.0
H669 H 0.17357 0.48554 0.86397 0.0
H670 H 0.06192 0.42801 0.80755 0.0
H671 H 1.02473 0.45021 0.86047 0.0
H672 H 0.1404 0.47565 0.96796 0.0
H673 H 0.167 0.52235 0.98218 0.0
H674 H 0.18564 0.49947 0.94201 0.0
H675 H 0.18518 0.55412 0.89447 0.0
H676 H 0.16702 0.57733 0.93465 0.0
H677 H 0.13978 0.56819 0.88837 0.0
H678 H 0.99794 0.47881 0.9216 0.0
H679 H 0.98528 0.51771 0.97746 0.0
H680 H 0.11275 0.56437 0.99164 0.0
C681 C 0.1413 0.47756 0.86248 0.0
C682 C 0.12121 0.45327 0.83124 0.0
C683 C 0.07872 0.4446 0.83134 0.0
C684 C 0.05704 0.45763 0.86143 0.0
C685 C 0.07758 0.48075 0.89176 0.0
C686 C 0.1189 0.4914 0.89201 0.0
C687 C 0.13348 0.519 0.92642 0.0
C688 C 0.15811 0.50317 0.95641 0.0
C689 C 0.15782 0.55691 0.91 0.0
C690 C 0.09412 0.52202 0.9455 0.0
C691 C 0.06223 0.49909 0.92533 0.0
C692 C 1.02292 0.49675 0.93739 0.0
C693 C 1.01588 0.5188 0.96972 0.0
C694 C 0.04766 0.54364 0.99043 0.0
C695 C 0.08749 0.545 0.9777 0.0
H696 H 0.68365 0.93003 0.94003 0.0
H697 H 0.57542 0.86377 0.88506 0.0
H698 H 0.53863 0.90825 0.90989 0.0
H699 H 0.63868 0.9506 1.02843 0.0
H700 H 0.67114 0.99711 1.03306 0.0
H701 H 0.68856 0.96177 1.00795 0.0
H702 H 0.7053 1.00398 0.94506 0.0
H703 H 0.68766 1.03941 0.96995 0.0
H704 H 0.66685 1.02143 0.92246 0.0
H705 H 0.51362 0.95836 0.94501 0.0
H706 H 0.50171 1.00792 0.98848 0.0
H707 H 0.62744 1.04052 1.02009 0.0
C708 C 0.65223 0.9252 0.93317 0.0
C709 C 0.63197 0.89377 0.91099 0.0
C710 C 0.59104 0.88793 0.90213 0.0
C711 C 0.57017 0.91301 0.91599 0.0
C712 C 0.59098 0.94371 0.93834 0.0
C713 C 0.63116 0.94981 0.94679 0.0
C714 C 0.64636 0.98353 0.97308 0.0
C715 C 0.66209 0.97259 1.01299 0.0
C716 C 0.67844 1.01388 0.95132 0.0
C717 C 0.60833 0.99524 0.97885 0.0
C718 C 0.57674 0.97223 0.95834 0.0
C719 C 0.53824 0.97674 0.96086 0.0
C720 C 0.53179 1.00501 0.9856 0.0
C721 C 0.56366 1.02824 1.00761 0.0
C722 C 0.60247 1.02356 1.00341 0.0
H723 H 0.8401 0.2413 0.56183 0.0
H724 H 0.90533 0.29141 0.45607 0.0
H725 H 0.93998 0.24164 0.45441 0.0
H726 H 0.92796 0.22381 0.60737 0.0
H727 H 0.89989 0.18187 0.63215 0.0
H728 H 0.87673 0.21872 0.62185 0.0
H729 H 0.81997 0.17176 0.58399 0.0
H730 H 0.84337 0.13492 0.59356 0.0
H731 H 0.83234 0.14553 0.543 0.0
H732 H 0.96464 0.18414 0.4626 0.0
H733 H 0.98932 0.13205 0.48803 0.0
H734 H 0.91932 0.12825 0.59605 0.0
C735 C 0.86218 0.24236 0.53876 0.0
C736 C 0.86939 0.26999 0.50858 0.0
C737 C 0.89819 0.26977 0.4786 0.0
C738 C 0.91821 0.24175 0.47758 0.0
C739 C 0.91016 0.21484 0.50762 0.0
C740 C 0.88384 0.21566 0.53839 0.0
C741 C 0.88382 0.18595 0.56937 0.0
C742 C 0.89795 0.20365 0.61009 0.0
C743 C 0.84241 0.15788 0.57265 0.0
C744 C 0.91411 0.16819 0.55106 0.0
C745 C 0.92802 0.18455 0.51484 0.0
C746 C 0.9547 0.1717 0.49137 0.0
C747 C 0.96865 0.14223 0.50604 0.0
C748 C 0.95722 0.12714 0.54442 0.0
C749 C 0.92901 0.13979 0.56684 0.0
H750 H 0.27108 0.76351 0.22441 0.0
H751 H 0.33523 0.6796 0.20924 0.0
H752 H 0.27816 0.64029 0.17154 0.0
H753 H 0.17316 0.70013 0.23754 0.0
H754 H 0.14718 0.72805 0.21003 0.0
H755 H 0.19323 0.75005 0.23517 0.0
H756 H 0.22334 0.78092 0.1687 0.0
H757 H 0.17737 0.75895 0.14333 0.0
H758 H 0.22395 0.75217 0.12558 0.0
H759 H 0.21392 0.60918 0.13743 0.0
H760 H 0.14649 0.58759 0.10906 0.0
H761 H 0.12185 0.69151 0.14353 0.0
C762 C 0.27307 0.73699 0.21273 0.0
C763 C 0.30777 0.72459 0.21957 0.0
C764 C 0.30905 0.68952 0.20437 0.0
C765 C 0.2768 0.66712 0.18283 0.0
C766 C 0.24315 0.68008 0.17644 0.0
C767 C 0.24095 0.71421 0.19084 0.0
C768 C 0.20078 0.72099 0.18008 0.0
C769 C 0.17719 0.72504 0.21797 0.0
C770 C 0.20672 0.7553 0.1528 0.0
C771 C 0.1807 0.68524 0.1577 0.0
C772 C 0.20592 0.66217 0.15607 0.0
C773 C 0.1941 0.62715 0.13833 0.0
C774 C 0.15551 0.6151 0.12228 0.0
C775 C 0.1286 0.63779 0.12367 0.0
C776 C 0.14176 0.67368 0.14128 0.0
H777 H 0.26493 0.45732 0.76027 0.0
H778 H 0.17636 0.44488 0.66706 0.0
H779 H 0.22932 0.47368 0.61867 0.0
H780 H 0.3249 0.54735 0.72848 0.0
H781 H 0.37249 0.53925 0.74017 0.0
H782 H 0.32833 0.51489 0.76745 0.0
H783 H 0.34086 0.45172 0.74867 0.0
H784 H 0.38529 0.47588 0.72167 0.0
H785 H 0.34663 0.44107 0.69686 0.0
H786 H 0.2914 0.50762 0.58047 0.0
H787 H 0.35759 0.53991 0.55384 0.0
H788 H 0.4104 0.53288 0.66993 0.0
C789 C 0.2569 0.45975 0.72936 0.0
C790 C 0.21592 0.44683 0.71741 0.0
C791 C 0.20698 0.45217 0.67694 0.0
C792 C 0.23715 0.46936 0.64923 0.0
C793 C 0.27686 0.48184 0.66197 0.0
C794 C 0.287 0.47706 0.70106 0.0
C795 C 0.33214 0.49408 0.70681 0.0
C796 C 0.33993 0.52577 0.73757 0.0
C797 C 0.35244 0.46389 0.71925 0.0
C798 C 0.34578 0.50923 0.66492 0.0
C799 C 0.31302 0.50184 0.6398 0.0
C800 C 0.31712 0.51319 0.59995 0.0
C801 C 0.35526 0.53177 0.58503 0.0
C802 C 0.39007 0.5393 0.60924 0.0
C803 C 0.38487 0.52797 0.65025 0.0
H804 H 0.73093 0.78228 0.87994 0.0
H805 H 0.75316 0.87837 0.9576 0.0
H806 H 0.81533 0.86533 0.98138 0.0
H807 H 0.76654 0.72222 0.94578 0.0
H808 H 0.78943 0.70184 0.90663 0.0
H809 H 0.74696 0.71916 0.8957 0.0
H810 H 0.78775 0.76164 0.84023 0.0
H811 H 0.83058 0.74476 0.85128 0.0
H812 H 0.83482 0.79407 0.8525 0.0
H813 H 0.8741 0.84182 0.99693 0.0
H814 H 0.9239 0.80672 1.0076 0.0
H815 H 0.86497 0.72576 0.91888 0.0
C816 C 0.74879 0.80008 0.90237 0.0
C817 C 0.7369 0.83058 0.91801 0.0
C818 C 0.76115 0.85404 0.94658 0.0
C819 C 0.79676 0.84721 0.95966 0.0
C820 C 0.80776 0.81695 0.94361 0.0
C821 C 0.78447 0.79361 0.91576 0.0
C822 C 0.803 0.76273 0.90378 0.0
C823 C 0.7748 0.72421 0.91357 0.0
C824 C 0.81474 0.766 0.85931 0.0
C825 C 0.83965 0.77166 0.93027 0.0
C826 C 0.84213 0.80349 0.95237 0.0
C827 C 0.87272 0.81702 0.9796 0.0
C828 C 0.90108 0.797 0.98519 0.0
C829 C 0.8986 0.76362 0.96384 0.0
C830 C 0.8677 0.75117 0.9356 0.0
H831 H 0.45949 0.81823 0.21062 0.0
H832 H 0.3903 0.84972 0.305 0.0
H833 H 0.41597 0.91604 0.28515 0.0
H834 H 0.5475 0.90457 0.2145 0.0
H835 H 0.55336 0.90503 0.16096 0.0
H836 H 0.53447 0.86141 0.18706 0.0
H837 H 0.47225 0.84629 0.14153 0.0
H838 H 0.49025 0.89025 0.11602 0.0
H839 H 0.44151 0.87826 0.13916 0.0
H840 H 0.4411 0.97898 0.2466 0.0
H841 H 0.47148 1.03207 0.20142 0.0
H842 H 0.5267 0.9607 0.13286 0.0
C843 C 0.45181 0.83935 0.22872 0.0
C844 C 0.42397 0.82838 0.26078 0.0
C845 C 0.41286 0.8571 0.28181 0.0
C846 C 0.42673 0.89497 0.27 0.0
C847 C 0.45229 0.90446 0.23692 0.0
C848 C 0.46561 0.87744 0.21725 0.0
C849 C 0.49135 0.89449 0.18129 0.0
C850 C 0.53422 0.89118 0.18625 0.0
C851 C 0.47272 0.87623 0.14219 0.0
C852 C 0.4901 0.93515 0.18334 0.0
C853 C 0.46707 0.94032 0.21544 0.0
C854 C 0.45973 0.9751 0.22191 0.0
C855 C 0.47693 1.00523 0.19579 0.0
C856 C 0.50184 1.00109 0.16343 0.0
C857 C 0.50816 0.96521 0.15738 0.0
H858 H 0.16651 0.33023 0.75358 0.0
H859 H 0.11708 0.40172 0.67926 0.0
H860 H 0.09225 0.34983 0.63198 0.0
H861 H 0.19353 0.27278 0.67291 0.0
H862 H 0.17781 0.2298 0.70074 0.0
H863 H 0.19561 0.27346 0.72671 0.0
H864 H 0.12996 0.2592 0.76747 0.0
H865 H 0.11184 0.21563 0.74146 0.0
H866 H 0.08282 0.24913 0.74164 0.0
H867 H 0.07047 0.28885 0.59261 0.0
H868 H 0.05208 0.225 0.56591 0.0
H869 H 0.10987 0.188 0.66671 0.0
C870 C 0.15159 0.33523 0.72663 0.0
C871 C 0.14635 0.37154 0.71908 0.0
C872 C 0.12429 0.37562 0.68458 0.0
C873 C 0.10927 0.34577 0.65781 0.0
C874 C 0.11513 0.3107 0.66588 0.0
C875 C 0.13559 0.30512 0.69965 0.0
C876 C 0.13528 0.26376 0.70232 0.0
C877 C 0.17811 0.25971 0.70057 0.0
C878 C 0.1137 0.24587 0.7405 0.0
C879 C 0.11163 0.24705 0.66487 0.0
C880 C 0.10061 0.27495 0.6443 0.0
C881 C 0.07906 0.267 0.60871 0.0
C882 C 0.06868 0.23021 0.5936 0.0
C883 C 0.07908 0.20045 0.61367 0.0
C884 C 0.10091 0.20946 0.65028 0.0
H885 H 0.8094 0.40857 0.51872 0.0
H886 H 0.75638 0.30417 0.57879 0.0
H887 H 0.69929 0.32755 0.59999 0.0
H888 H 0.76698 0.47187 0.58667 0.0
H889 H 0.75906 0.4985 0.54394 0.0
H890 H 0.80068 0.47818 0.5446 0.0
H891 H 0.7763 0.44501 0.47779 0.0
H892 H 0.73417 0.46425 0.47726 0.0
H893 H 0.72641 0.41447 0.47469 0.0
H894 H 0.6418 0.35623 0.60069 0.0
H895 H 0.59089 0.38954 0.58513 0.0
H896 H 0.68037 0.47392 0.5211 0.0
C897 C 0.78669 0.39164 0.53817 0.0
C898 C 0.78729 0.35499 0.54781 0.0
C899 C 0.75673 0.33272 0.57214 0.0
C900 C 0.72411 0.34572 0.58397 0.0
C901 C 0.72286 0.38113 0.57141 0.0
C902 C 0.75379 0.40409 0.54961 0.0
C903 C 0.74267 0.43821 0.53427 0.0
C904 C 0.7689 0.4738 0.55354 0.0
C905 C 0.74501 0.44058 0.4883 0.0
C906 C 0.69999 0.42993 0.54894 0.0
C907 C 0.68926 0.39729 0.57095 0.0
C908 C 0.65014 0.38227 0.5843 0.0
C909 C 0.62133 0.40111 0.57491 0.0
C910 C 0.63173 0.4344 0.55207 0.0
C911 C 0.67171 0.44904 0.53944 0.0
loop_
_geom_bond_atom_site_label_1
_geom_bond_atom_site_label_2
_geom_bond_distance
_geom_bond_site_symmetry_2
_ccdc_geom_bond_type
C0 N1 1.317 . S
C0 N2 1.348 . S
C0 C3 1.485 . S
N1 C0 1.317 . S
N1 N5 1.370 . S
N2 C0 1.348 . S
N2 C4 1.346 . S
C3 C0 1.485 . S
C3 H7 0.960 . S
C3 H8 0.961 . S
C3 H9 0.960 . S
C4 N2 1.346 . S
C4 N5 1.307 . S
C4 C6 1.486 . S
N5 N1 1.370 . S
N5 C4 1.307 . S
C6 C4 1.486 . S
C6 H10 0.960 . S
C6 H11 0.960 . S
C6 H12 0.959 . S
H7 C3 0.960 . S
H8 C3 0.961 . S
H9 C3 0.960 . S
H10 C6 0.960 . S
H11 C6 0.960 . S
H12 C6 0.959 . S
C13 N14 1.317 . S
C13 N15 1.348 . S
C13 C16 1.485 . S
N14 C13 1.317 . S
N14 N18 1.370 . S
N15 C13 1.348 . S
N15 C17 1.346 . S
C16 C13 1.485 . S
C16 H20 0.960 . S
C16 H21 0.961 . S
C16 H22 0.960 . S
C17 N15 1.346 . S
C17 N18 1.307 . S
C17 C19 1.486 . S
N18 N14 1.370 . S
N18 C17 1.307 . S
C19 C17 1.486 . S
C19 H23 0.960 . S
C19 H24 0.960 . S
C19 H25 0.959 . S
H20 C16 0.960 . S
H21 C16 0.961 . S
H22 C16 0.960 . S
H23 C19 0.960 . S
H24 C19 0.960 . S
H25 C19 0.959 . S
C26 N27 1.317 . S
C26 N28 1.348 . S
C26 C29 1.485 . S
N27 C26 1.317 . S
N27 N31 1.370 . S
N28 C26 1.348 . S
N28 C30 1.346 . S
C29 C26 1.485 . S
C29 H33 0.960 . S
C29 H34 0.961 . S
C29 H35 0.960 . S
C30 N28 1.346 . S
C30 N31 1.307 . S
C30 C32 1.486 . S
N31 N27 1.370 . S
N31 C30 1.307 . S
C32 C30 1.486 . S
C32 H36 0.960 . S
C32 H37 0.960 . S
C32 H38 0.959 . S
H33 C29 0.960 . S
H34 C29 0.961 . S
H35 C29 0.960 . S
H36 C32 0.960 . S
H37 C32 0.960 . S
H38 C32 0.959 . S
C39 N40 1.317 . S
C39 N41 1.348 . S
C39 C42 1.485 . S
N40 C39 1.317 . S
N40 N44 1.370 . S
N41 C39 1.348 . S
N41 C43 1.346 . S
C42 C39 1.485 . S
C42 H46 0.960 . S
C42 H47 0.961 . S
C42 H48 0.960 . S
C43 N41 1.346 . S
C43 N44 1.307 . S
C43 C45 1.486 . S
N44 N40 1.370 . S
N44 C43 1.307 . S
C45 C43 1.486 . S
C45 H49 0.960 . S
C45 H50 0.960 . S
C45 H51 0.959 . S
H46 C42 0.960 . S
H47 C42 0.961 . S
H48 C42 0.960 . S
H49 C45 0.960 . S
H50 C45 0.960 . S
H51 C45 0.959 . S
C52 N53 1.317 . S
C52 N54 1.348 . S
C52 C55 1.485 . S
N53 C52 1.317 . S
N53 N57 1.370 . S
N54 C52 1.348 . S
N54 C56 1.346 . S
C55 C52 1.485 . S
C55 H59 0.960 . S
C55 H60 0.961 . S
C55 H61 0.960 . S
C56 N54 1.346 . S
C56 N57 1.307 . S
C56 C58 1.486 . S
N57 N53 1.370 . S
N57 C56 1.307 . S
C58 C56 1.486 . S
C58 H62 0.960 . S
C58 H63 0.960 . S
C58 H64 0.959 . S
H59 C55 0.960 . S
H60 C55 0.961 . S
H61 C55 0.960 . S
H62 C58 0.960 . S
H63 C58 0.960 . S
H64 C58 0.959 . S
C65 N66 1.317 . S
C65 N67 1.348 . S
C65 C68 1.485 . S
N66 C65 1.317 . S
N66 N70 1.370 . S
N67 C65 1.348 . S
N67 C69 1.346 . S
C68 C65 1.485 . S
C68 H72 0.960 . S
C68 H73 0.961 . S
C68 H74 0.960 . S
C69 N67 1.346 . S
C69 N70 1.307 . S
C69 C71 1.486 . S
N70 N66 1.370 . S
N70 C69 1.307 . S
C71 C69 1.486 . S
C71 H75 0.960 . S
C71 H76 0.960 . S
C71 H77 0.959 . S
H72 C68 0.960 . S
H73 C68 0.961 . S
H74 C68 0.960 . S
H75 C71 0.960 . S
H76 C71 0.960 . S
H77 C71 0.959 . S
C78 N79 1.317 . S
C78 N80 1.348 . S
C78 C81 1.485 . S
N79 C78 1.317 . S
N79 N83 1.370 . S
N80 C78 1.348 . S
N80 C82 1.346 . S
C81 C78 1.485 . S
C81 H85 0.960 . S
C81 H86 0.961 . S
C81 H87 0.960 . S
C82 N80 1.346 . S
C82 N83 1.307 . S
C82 C84 1.486 . S
N83 N79 1.370 . S
N83 C82 1.307 . S
C84 C82 1.486 . S
C84 H88 0.960 . S
C84 H89 0.960 . S
C84 H90 0.959 . S
H85 C81 0.960 . S
H86 C81 0.961 . S
H87 C81 0.960 . S
H88 C84 0.960 . S
H89 C84 0.960 . S
H90 C84 0.959 . S
C91 N92 1.317 . S
C91 N93 1.348 . S
C91 C94 1.485 . S
N92 C91 1.317 . S
N92 N96 1.370 . S
N93 C91 1.348 . S
N93 C95 1.346 . S
C94 C91 1.485 . S
C94 H98 0.960 . S
C94 H99 0.961 . S
C94 H100 0.960 . S
C95 N93 1.346 . S
C95 N96 1.307 . S
C95 C97 1.486 . S
N96 N92 1.370 . S
N96 C95 1.307 . S
C97 C95 1.486 . S
C97 H101 0.960 . S
C97 H102 0.960 . S
C97 H103 0.959 . S
H98 C94 0.960 . S
H99 C94 0.961 . S
H100 C94 0.960 . S
H101 C97 0.960 . S
H102 C97 0.960 . S
H103 C97 0.959 . S
La104 C106 2.928 . S
La104 O124 2.521 . S
La104 O125 2.628 . S
La104 O126 2.554 . S
La104 O127 2.757 . S
La104 O128 2.470 . S
La104 O133 2.482 . S
La104 O135 2.503 1_545 S
La105 C115 2.928 1_445 S
La105 O127 2.482 . S
La105 O129 2.503 . S
La105 O130 2.521 1_445 S
La105 O131 2.628 1_445 S
La105 O132 2.554 1_455 S
La105 O133 2.757 . S
La105 O134 2.470 1_445 S
C106 La104 2.928 . S
C106 C107 1.503 . S
C106 O124 1.261 . S
C106 O125 1.243 . S
C107 C106 1.503 . S
C107 C108 1.394 . S
C107 C112 1.373 . S
C108 C107 1.394 . S
C108 C109 1.380 . S
C108 H136 0.930 . S
C109 C108 1.380 . S
C109 C110 1.376 . S
C109 H137 0.930 . S
C110 C109 1.376 . S
C110 C111 1.370 . S
C111 C110 1.370 . S
C111 C112 1.396 . S
C111 H138 0.929 . S
C112 C107 1.373 . S
C112 C111 1.396 . S
C112 H139 0.929 . S
C113 O126 1.240 1_565 S
C113 O127 1.289 1_565 S
C114 O128 1.258 . S
C114 O129 1.256 . S
C115 La105 2.928 1_665 S
C115 C116 1.503 . S
C115 O130 1.261 . S
C115 O131 1.243 . S
C116 C115 1.503 . S
C116 C117 1.394 . S
C116 C121 1.373 . S
C117 C116 1.394 . S
C117 C118 1.380 . S
C117 H140 0.930 . S
C118 C117 1.380 . S
C118 C119 1.376 . S
C118 H141 0.930 . S
C119 C118 1.376 . S
C119 C120 1.370 . S
C120 C119 1.370 . S
C120 C121 1.396 . S
C120 H142 0.929 . S
C121 C116 1.373 . S
C121 C120 1.396 . S
C121 H143 0.929 . S
C122 O132 1.240 . S
C122 O133 1.289 1_655 S
C123 O134 1.258 . S
C123 O135 1.256 1_655 S
O124 La104 2.521 . S
O124 C106 1.261 . S
O125 La104 2.628 . S
O125 C106 1.243 . S
O126 La104 2.554 . S
O126 C113 1.240 1_545 S
O127 La104 2.757 . S
O127 La105 2.482 . S
O127 C113 1.289 1_545 S
O128 La104 2.470 . S
O128 C114 1.258 . S
O129 La105 2.503 . S
O129 C114 1.256 . S
O130 La105 2.521 1_665 S
O130 C115 1.261 . S
O131 La105 2.628 1_665 S
O131 C115 1.243 . S
O132 La105 2.554 1_655 S
O132 C122 1.240 . S
O133 La104 2.482 . S
O133 La105 2.757 . S
O133 C122 1.289 1_455 S
O134 La105 2.470 1_665 S
O134 C123 1.258 . S
O135 La104 2.503 1_565 S
O135 C123 1.256 1_455 S
H136 C108 0.930 . S
H137 C109 0.930 . S
H138 C111 0.929 . S
H139 C112 0.929 . S
H140 C117 0.930 . S
H141 C118 0.930 . S
H142 C120 0.929 . S
H143 C121 0.929 . S
La144 C146 2.928 . S
La144 O164 2.521 . S
La144 O165 2.628 . S
La144 O166 2.554 1_545 S
La144 O167 2.757 . S
La144 O168 2.470 . S
La144 O173 2.482 . S
La144 O175 2.503 . S
La145 C155 2.928 1_554 S
La145 O167 2.482 . S
La145 O169 2.503 . S
La145 O170 2.521 1_554 S
La145 O171 2.628 1_544 S
La145 O172 2.554 1_554 S
La145 O173 2.757 . S
La145 O174 2.470 1_554 S
C146 La144 2.928 . S
C146 C147 1.503 . S
C146 O164 1.261 . S
C146 O165 1.243 . S
C147 C146 1.503 . S
C147 C148 1.394 . S
C147 C152 1.373 . S
C148 C147 1.394 . S
C148 C149 1.380 . S
C148 H176 0.930 . S
C149 C148 1.380 . S
C149 C150 1.376 . S
C149 H177 0.930 . S
C150 C149 1.376 . S
C150 C151 1.370 . S
C151 C150 1.370 . S
C151 C152 1.396 . S
C151 H178 0.929 . S
C152 C147 1.373 . S
C152 C151 1.396 . S
C152 H179 0.929 . S
C153 O166 1.240 . S
C153 O167 1.289 1_565 S
C154 O168 1.258 . S
C154 O169 1.256 . S
C155 La145 2.928 1_556 S
C155 C156 1.503 1_545 S
C155 O170 1.261 . S
C155 O171 1.243 1_545 S
C156 C155 1.503 1_565 S
C156 C157 1.394 1_565 S
C156 C161 1.373 . S
C157 C156 1.394 1_545 S
C157 C158 1.380 1_545 S
C157 H180 0.930 . S
C158 C157 1.380 1_565 S
C158 C159 1.376 . S
C158 H181 0.930 . S
C159 C158 1.376 . S
C159 C160 1.370 . S
C160 C159 1.370 . S
C160 C161 1.396 . S
C160 H182 0.929 . S
C161 C156 1.373 . S
C161 C160 1.396 . S
C161 H183 0.929 . S
C162 O172 1.240 1_554 S
C162 O173 1.289 . S
C163 O174 1.258 1_554 S
C163 O175 1.256 . S
O164 La144 2.521 . S
O164 C146 1.261 . S
O165 La144 2.628 . S
O165 C146 1.243 . S
O166 La144 2.554 1_565 S
O166 C153 1.240 . S
O167 La144 2.757 . S
O167 La145 2.482 . S
O167 C153 1.289 1_545 S
O168 La144 2.470 . S
O168 C154 1.258 . S
O169 La145 2.503 . S
O169 C154 1.256 . S
O170 La145 2.521 1_556 S
O170 C155 1.261 . S
O171 La145 2.628 1_566 S
O171 C155 1.243 1_565 S
O172 La145 2.554 1_556 S
O172 C162 1.240 1_556 S
O173 La144 2.482 . S
O173 La145 2.757 . S
O173 C162 1.289 . S
O174 La145 2.470 1_556 S
O174 C163 1.258 1_556 S
O175 La144 2.503 . S
O175 C163 1.256 . S
H176 C148 0.930 . S
H177 C149 0.930 . S
H178 C151 0.929 . S
H179 C152 0.929 . S
H180 C157 0.930 . S
H181 C158 0.930 . S
H182 C160 0.929 . S
H183 C161 0.929 . S
La184 C186 2.928 . S
La184 O204 2.521 . S
La184 O205 2.628 . S
La184 O206 2.554 . S
La184 O207 2.757 . S
La184 O208 2.470 . S
La184 O213 2.482 . S
La184 O215 2.503 . S
La185 C195 2.928 . S
La185 O207 2.482 . S
La185 O209 2.503 . S
La185 O210 2.521 . S
La185 O211 2.628 . S
La185 O212 2.554 . S
La185 O213 2.757 . S
La185 O214 2.470 . S
C186 La184 2.928 . S
C186 C187 1.503 . S
C186 O204 1.261 . S
C186 O205 1.243 . S
C187 C186 1.503 . S
C187 C188 1.394 . S
C187 C192 1.373 . S
C188 C187 1.394 . S
C188 C189 1.380 . S
C188 H216 0.930 . S
C189 C188 1.380 . S
C189 C190 1.376 . S
C189 H217 0.930 . S
C190 C189 1.376 . S
C190 C191 1.370 . S
C191 C190 1.370 . S
C191 C192 1.396 . S
C191 H218 0.929 . S
C192 C187 1.373 . S
C192 C191 1.396 . S
C192 H219 0.929 . S
C193 O206 1.240 . S
C193 O207 1.289 . S
C194 O208 1.258 . S
C194 O209 1.256 . S
C195 La185 2.928 . S
C195 C196 1.503 . S
C195 O210 1.261 . S
C195 O211 1.243 . S
C196 C195 1.503 . S
C196 C197 1.394 . S
C196 C201 1.373 . S
C197 C196 1.394 . S
C197 C198 1.380 . S
C197 H220 0.930 . S
C198 C197 1.380 . S
C198 C199 1.376 . S
C198 H221 0.930 . S
C199 C198 1.376 . S
C199 C200 1.370 . S
C200 C199 1.370 . S
C200 C201 1.396 . S
C200 H222 0.929 . S
C201 C196 1.373 . S
C201 C200 1.396 . S
C201 H223 0.929 . S
C202 O212 1.240 . S
C202 O213 1.289 . S
C203 O214 1.258 . S
C203 O215 1.256 . S
O204 La184 2.521 . S
O204 C186 1.261 . S
O205 La184 2.628 . S
O205 C186 1.243 . S
O206 La184 2.554 . S
O206 C193 1.240 . S
O207 La184 2.757 . S
O207 La185 2.482 . S
O207 C193 1.289 . S
O208 La184 2.470 . S
O208 C194 1.258 . S
O209 La185 2.503 . S
O209 C194 1.256 . S
O210 La185 2.521 . S
O210 C195 1.261 . S
O211 La185 2.628 . S
O211 C195 1.243 . S
O212 La185 2.554 . S
O212 C202 1.240 . S
O213 La184 2.482 . S
O213 La185 2.757 . S
O213 C202 1.289 . S
O214 La185 2.470 . S
O214 C203 1.258 . S
O215 La184 2.503 . S
O215 C203 1.256 . S
H216 C188 0.930 . S
H217 C189 0.930 . S
H218 C191 0.929 . S
H219 C192 0.929 . S
H220 C197 0.930 . S
H221 C198 0.930 . S
H222 C200 0.929 . S
H223 C201 0.929 . S
La224 C226 2.928 . S
La224 O244 2.521 . S
La224 O245 2.628 . S
La224 O246 2.554 1_455 S
La224 O247 2.757 1_455 S
La224 O248 2.470 . S
La224 O253 2.482 1_554 S
La224 O255 2.503 1_455 S
La225 C235 2.927 1_455 S
La225 O247 2.482 1_456 S
La225 O249 2.504 1_556 S
La225 O250 2.520 1_455 S
La225 O251 2.626 1_455 S
La225 O252 2.554 . S
La225 O253 2.758 . S
La225 O254 2.469 1_455 S
C226 La224 2.928 . S
C226 C227 1.503 . S
C226 O244 1.261 . S
C226 O245 1.243 . S
C227 C226 1.503 . S
C227 C228 1.394 . S
C227 C232 1.373 . S
C228 C227 1.394 . S
C228 C229 1.380 . S
C228 H256 0.930 . S
C229 C228 1.380 . S
C229 C230 1.376 . S
C229 H257 0.930 . S
C230 C229 1.376 . S
C230 C231 1.370 . S
C231 C230 1.370 . S
C231 C232 1.396 . S
C231 H258 0.929 . S
C232 C227 1.373 . S
C232 C231 1.396 . S
C232 H259 0.929 . S
C233 O246 1.240 . S
C233 O247 1.289 . S
C234 O248 1.258 . S
C234 O249 1.256 . S
C235 La225 2.927 1_655 S
C235 C236 1.503 . S
C235 O250 1.261 . S
C235 O251 1.243 . S
C236 C235 1.503 . S
C236 C237 1.394 . S
C236 C241 1.373 . S
C237 C236 1.394 . S
C237 C238 1.380 . S
C237 H260 0.930 . S
C238 C237 1.380 . S
C238 C239 1.376 . S
C238 H261 0.930 . S
C239 C238 1.376 . S
C239 C240 1.370 . S
C240 C239 1.370 . S
C240 C241 1.396 . S
C240 H262 0.929 . S
C241 C236 1.373 . S
C241 C240 1.396 . S
C241 H263 0.929 . S
C242 O252 1.240 . S
C242 O253 1.289 . S
C243 O254 1.258 . S
C243 O255 1.256 1_556 S
O244 La224 2.521 . S
O244 C226 1.261 . S
O245 La224 2.628 . S
O245 C226 1.243 . S
O246 La224 2.554 1_655 S
O246 C233 1.240 . S
O247 La224 2.757 1_655 S
O247 La225 2.482 1_654 S
O247 C233 1.289 . S
O248 La224 2.470 . S
O248 C234 1.258 . S
O249 La225 2.504 1_554 S
O249 C234 1.256 . S
O250 La225 2.520 1_655 S
O250 C235 1.261 . S
O251 La225 2.626 1_655 S
O251 C235 1.243 . S
O252 La225 2.554 . S
O252 C242 1.240 . S
O253 La224 2.482 1_556 S
O253 La225 2.758 . S
O253 C242 1.289 . S
O254 La225 2.469 1_655 S
O254 C243 1.258 . S
O255 La224 2.503 1_655 S
O255 C243 1.256 1_554 S
H256 C228 0.930 . S
H257 C229 0.930 . S
H258 C231 0.929 . S
H259 C232 0.929 . S
H260 C237 0.930 . S
H261 C238 0.930 . S
H262 C240 0.929 . S
H263 C241 0.929 . S
H264 C276 0.930 . S
H265 C278 0.930 . S
H266 C279 0.930 . S
H267 C283 0.959 . S
H268 C283 0.959 . S
H269 C283 0.961 . S
H270 C284 0.960 . S
H271 C284 0.961 . S
H272 C284 0.959 . S
H273 C287 0.929 . S
H274 C288 0.931 . S
H275 C290 0.930 . S
C276 H264 0.930 . S
C276 C277 1.399 . S
C276 C281 1.399 . S
C277 C276 1.399 . S
C277 C278 1.376 . S
C278 H265 0.930 . S
C278 C277 1.376 . S
C278 C279 1.388 . S
C279 H266 0.930 . S
C279 C278 1.388 . S
C279 C280 1.390 . S
C280 C279 1.390 . S
C280 C281 1.394 . S
C280 C286 1.465 . S
C281 C276 1.399 . S
C281 C280 1.394 . S
C281 C282 1.516 . S
C282 C281 1.516 . S
C282 C283 1.502 . S
C282 C284 1.561 . S
C282 C285 1.526 . S
C283 H267 0.959 . S
C283 H268 0.959 . S
C283 H269 0.961 . S
C283 C282 1.502 . S
C284 H270 0.960 . S
C284 H271 0.961 . S
C284 H272 0.959 . S
C284 C282 1.561 . S
C285 C282 1.526 . S
C285 C286 1.396 . S
C285 C290 1.390 . S
C286 C280 1.465 . S
C286 C285 1.396 . S
C286 C287 1.399 . S
C287 H273 0.929 . S
C287 C286 1.399 . S
C287 C288 1.385 . S
C288 H274 0.931 . S
C288 C287 1.385 . S
C288 C289 1.389 . S
C289 C288 1.389 . S
C289 C290 1.387 . S
C290 H275 0.930 . S
C290 C285 1.390 . S
C290 C289 1.387 . S
H291 C303 0.930 . S
H292 C305 0.930 . S
H293 C306 0.930 . S
H294 C310 0.959 . S
H295 C310 0.959 . S
H296 C310 0.961 . S
H297 C311 0.957 1_545 S
H298 C311 0.961 1_545 S
H299 C311 0.959 . S
H300 C314 0.929 . S
H301 C315 0.931 . S
H302 C317 0.930 . S
C303 H291 0.930 . S
C303 C304 1.399 . S
C303 C308 1.399 . S
C304 C303 1.399 . S
C304 C305 1.376 . S
C305 H292 0.930 . S
C305 C304 1.376 . S
C305 C306 1.388 . S
C306 H293 0.930 . S
C306 C305 1.388 . S
C306 C307 1.390 . S
C307 C306 1.390 . S
C307 C308 1.394 . S
C307 C313 1.465 . S
C308 C303 1.399 . S
C308 C307 1.394 . S
C308 C309 1.516 . S
C309 C308 1.516 . S
C309 C310 1.502 . S
C309 C311 1.561 . S
C309 C312 1.526 . S
C310 H294 0.959 . S
C310 H295 0.959 . S
C310 H296 0.961 . S
C310 C309 1.502 . S
C311 H297 0.957 1_565 S
C311 H298 0.961 1_565 S
C311 H299 0.959 . S
C311 C309 1.561 . S
C312 C309 1.526 . S
C312 C313 1.396 . S
C312 C317 1.390 . S
C313 C307 1.465 . S
C313 C312 1.396 . S
C313 C314 1.399 . S
C314 H300 0.929 . S
C314 C313 1.399 . S
C314 C315 1.385 . S
C315 H301 0.931 . S
C315 C314 1.385 . S
C315 C316 1.389 . S
C316 C315 1.389 . S
C316 C317 1.387 . S
C317 H302 0.930 . S
C317 C312 1.390 . S
C317 C316 1.387 . S
H318 C330 0.930 . S
H319 C332 0.930 . S
H320 C333 0.930 . S
H321 C337 0.959 . S
H322 C337 0.959 . S
H323 C337 0.961 . S
H324 C338 0.960 . S
H325 C338 0.961 . S
H326 C338 0.959 . S
H327 C341 0.929 . S
H328 C342 0.931 . S
H329 C344 0.930 . S
C330 H318 0.930 . S
C330 C331 1.399 . S
C330 C335 1.399 . S
C331 C330 1.399 . S
C331 C332 1.376 . S
C332 H319 0.930 . S
C332 C331 1.376 . S
C332 C333 1.388 . S
C333 H320 0.930 . S
C333 C332 1.388 . S
C333 C334 1.390 . S
C334 C333 1.390 . S
C334 C335 1.394 . S
C334 C340 1.465 . S
C335 C330 1.399 . S
C335 C334 1.394 . S
C335 C336 1.516 . S
C336 C335 1.516 . S
C336 C337 1.502 . S
C336 C338 1.561 . S
C336 C339 1.526 . S
C337 H321 0.959 . S
C337 H322 0.959 . S
C337 H323 0.961 . S
C337 C336 1.502 . S
C338 H324 0.960 . S
C338 H325 0.961 . S
C338 H326 0.959 . S
C338 C336 1.561 . S
C339 C336 1.526 . S
C339 C340 1.396 . S
C339 C344 1.390 . S
C340 C334 1.465 . S
C340 C339 1.396 . S
C340 C341 1.399 . S
C341 H327 0.929 . S
C341 C340 1.399 . S
C341 C342 1.385 . S
C342 H328 0.931 . S
C342 C341 1.385 . S
C342 C343 1.389 . S
C343 C342 1.389 . S
C343 C344 1.387 . S
C344 H329 0.930 . S
C344 C339 1.390 . S
C344 C343 1.387 . S
H345 C357 0.930 . S
H346 C359 0.930 . S
H347 C360 0.930 . S
H348 C364 0.959 . S
H349 C364 0.959 . S
H350 C364 0.961 . S
H351 C365 0.960 . S
H352 C365 0.961 . S
H353 C365 0.959 . S
H354 C368 0.929 . S
H355 C369 0.931 . S
H356 C371 0.930 . S
C357 H345 0.930 . S
C357 C358 1.399 . S
C357 C362 1.399 . S
C358 C357 1.399 . S
C358 C359 1.376 . S
C359 H346 0.930 . S
C359 C358 1.376 . S
C359 C360 1.388 . S
C360 H347 0.930 . S
C360 C359 1.388 . S
C360 C361 1.390 . S
C361 C360 1.390 . S
C361 C362 1.394 . S
C361 C367 1.465 . S
C362 C357 1.399 . S
C362 C361 1.394 . S
C362 C363 1.516 . S
C363 C362 1.516 . S
C363 C364 1.502 . S
C363 C365 1.561 . S
C363 C366 1.526 . S
C364 H348 0.959 . S
C364 H349 0.959 . S
C364 H350 0.961 . S
C364 C363 1.502 . S
C365 H351 0.960 . S
C365 H352 0.961 . S
C365 H353 0.959 . S
C365 C363 1.561 . S
C366 C363 1.526 . S
C366 C367 1.396 . S
C366 C371 1.390 . S
C367 C361 1.465 . S
C367 C366 1.396 . S
C367 C368 1.399 . S
C368 H354 0.929 . S
C368 C367 1.399 . S
C368 C369 1.385 . S
C369 H355 0.931 . S
C369 C368 1.385 . S
C369 C370 1.389 . S
C370 C369 1.389 . S
C370 C371 1.387 . S
C371 H356 0.930 . S
C371 C366 1.390 . S
C371 C370 1.387 . S
H372 C384 0.930 . S
H373 C386 0.930 . S
H374 C387 0.930 . S
H375 C391 0.959 . S
H376 C391 0.959 . S
H377 C391 0.961 . S
H378 C392 0.960 . S
H379 C392 0.961 . S
H380 C392 0.959 . S
H381 C395 0.929 . S
H382 C396 0.931 . S
H383 C398 0.930 . S
C384 H372 0.930 . S
C384 C385 1.399 . S
C384 C389 1.399 . S
C385 C384 1.399 . S
C385 C386 1.376 . S
C386 H373 0.930 . S
C386 C385 1.376 . S
C386 C387 1.388 . S
C387 H374 0.930 . S
C387 C386 1.388 . S
C387 C388 1.390 . S
C388 C387 1.390 . S
C388 C389 1.394 . S
C388 C394 1.465 . S
C389 C384 1.399 . S
C389 C388 1.394 . S
C389 C390 1.516 . S
C390 C389 1.516 . S
C390 C391 1.502 . S
C390 C392 1.561 . S
C390 C393 1.526 . S
C391 H375 0.959 . S
C391 H376 0.959 . S
C391 H377 0.961 . S
C391 C390 1.502 . S
C392 H378 0.960 . S
C392 H379 0.961 . S
C392 H380 0.959 . S
C392 C390 1.561 . S
C393 C390 1.526 . S
C393 C394 1.396 . S
C393 C398 1.390 . S
C394 C388 1.465 . S
C394 C393 1.396 . S
C394 C395 1.399 . S
C395 H381 0.929 . S
C395 C394 1.399 . S
C395 C396 1.385 . S
C396 H382 0.931 . S
C396 C395 1.385 . S
C396 C397 1.389 . S
C397 C396 1.389 . S
C397 C398 1.387 . S
C398 H383 0.930 . S
C398 C393 1.390 . S
C398 C397 1.387 . S
H399 C411 0.930 . S
H400 C413 0.930 . S
H401 C414 0.930 . S
H402 C418 0.959 . S
H403 C418 0.959 . S
H404 C418 0.961 . S
H405 C419 0.960 . S
H406 C419 0.961 . S
H407 C419 0.959 . S
H408 C422 0.929 . S
H409 C423 0.931 . S
H410 C425 0.930 . S
C411 H399 0.930 . S
C411 C412 1.399 . S
C411 C416 1.399 . S
C412 C411 1.399 . S
C412 C413 1.376 . S
C413 H400 0.930 . S
C413 C412 1.376 . S
C413 C414 1.388 . S
C414 H401 0.930 . S
C414 C413 1.388 . S
C414 C415 1.390 . S
C415 C414 1.390 . S
C415 C416 1.394 . S
C415 C421 1.465 . S
C416 C411 1.399 . S
C416 C415 1.394 . S
C416 C417 1.516 . S
C417 C416 1.516 . S
C417 C418 1.502 . S
C417 C419 1.561 . S
C417 C420 1.526 . S
C418 H402 0.959 . S
C418 H403 0.959 . S
C418 H404 0.961 . S
C418 C417 1.502 . S
C419 H405 0.960 . S
C419 H406 0.961 . S
C419 H407 0.959 . S
C419 C417 1.561 . S
C420 C417 1.526 . S
C420 C421 1.396 . S
C420 C425 1.390 . S
C421 C415 1.465 . S
C421 C420 1.396 . S
C421 C422 1.399 1_565 S
C422 H408 0.929 . S
C422 C421 1.399 1_545 S
C422 C423 1.385 . S
C423 H409 0.931 . S
C423 C422 1.385 . S
C423 C424 1.389 1_545 S
C424 C423 1.389 1_565 S
C424 C425 1.387 . S
C425 H410 0.930 . S
C425 C420 1.390 . S
C425 C424 1.387 . S
H426 C438 0.930 . S
H427 C440 0.930 . S
H428 C441 0.930 . S
H429 C445 0.959 . S
H430 C445 0.959 . S
H431 C445 0.961 . S
H432 C446 0.960 . S
H433 C446 0.961 1_554 S
H434 C446 0.959 . S
H435 C449 0.929 . S
H436 C450 0.931 . S
H437 C452 0.930 . S
C438 H426 0.930 . S
C438 C439 1.399 . S
C438 C443 1.399 . S
C439 C438 1.399 . S
C439 C440 1.376 . S
C440 H427 0.930 . S
C440 C439 1.376 . S
C440 C441 1.388 . S
C441 H428 0.930 . S
C441 C440 1.388 . S
C441 C442 1.390 . S
C442 C441 1.390 . S
C442 C443 1.394 . S
C442 C448 1.465 . S
C443 C438 1.399 . S
C443 C442 1.394 . S
C443 C444 1.516 . S
C444 C443 1.516 . S
C444 C445 1.502 . S
C444 C446 1.561 . S
C444 C447 1.526 . S
C445 H429 0.959 . S
C445 H430 0.959 . S
C445 H431 0.961 . S
C445 C444 1.502 . S
C446 H432 0.960 . S
C446 H433 0.961 1_556 S
C446 H434 0.959 . S
C446 C444 1.561 . S
C447 C444 1.526 . S
C447 C448 1.396 . S
C447 C452 1.390 . S
C448 C442 1.465 . S
C448 C447 1.396 . S
C448 C449 1.399 . S
C449 H435 0.929 . S
C449 C448 1.399 . S
C449 C450 1.385 . S
C450 H436 0.931 . S
C450 C449 1.385 . S
C450 C451 1.389 . S
C451 C450 1.389 . S
C451 C452 1.387 . S
C452 H437 0.930 . S
C452 C447 1.390 . S
C452 C451 1.387 . S
H453 C465 0.930 . S
H454 C467 0.930 . S
H455 C468 0.930 . S
H456 C472 0.959 . S
H457 C472 0.959 . S
H458 C472 0.961 . S
H459 C473 0.960 . S
H460 C473 0.961 . S
H461 C473 0.959 . S
H462 C476 0.929 . S
H463 C477 0.931 . S
H464 C479 0.930 . S
C465 H453 0.930 . S
C465 C466 1.399 . S
C465 C470 1.399 . S
C466 C465 1.399 . S
C466 C467 1.376 . S
C467 H454 0.930 . S
C467 C466 1.376 . S
C467 C468 1.388 . S
C468 H455 0.930 . S
C468 C467 1.388 . S
C468 C469 1.390 . S
C469 C468 1.390 . S
C469 C470 1.394 . S
C469 C475 1.465 . S
C470 C465 1.399 . S
C470 C469 1.394 . S
C470 C471 1.516 . S
C471 C470 1.516 . S
C471 C472 1.502 . S
C471 C473 1.561 . S
C471 C474 1.526 . S
C472 H456 0.959 . S
C472 H457 0.959 . S
C472 H458 0.961 . S
C472 C471 1.502 . S
C473 H459 0.960 . S
C473 H460 0.961 . S
C473 H461 0.959 . S
C473 C471 1.561 . S
C474 C471 1.526 . S
C474 C475 1.396 . S
C474 C479 1.390 . S
C475 C469 1.465 . S
C475 C474 1.396 . S
C475 C476 1.399 . S
C476 H462 0.929 . S
C476 C475 1.399 . S
C476 C477 1.385 . S
C477 H463 0.931 . S
C477 C476 1.385 . S
C477 C478 1.389 . S
C478 C477 1.389 . S
C478 C479 1.387 . S
C479 H464 0.930 . S
C479 C474 1.390 . S
C479 C478 1.387 . S
H480 C492 0.930 . S
H481 C494 0.930 . S
H482 C495 0.930 . S
H483 C499 0.959 . S
H484 C499 0.959 . S
H485 C499 0.961 . S
H486 C500 0.960 . S
H487 C500 0.961 . S
H488 C500 0.959 . S
H489 C503 0.929 . S
H490 C504 0.931 . S
H491 C506 0.930 . S
C492 H480 0.930 . S
C492 C493 1.399 . S
C492 C497 1.399 . S
C493 C492 1.399 . S
C493 C494 1.376 . S
C494 H481 0.930 . S
C494 C493 1.376 . S
C494 C495 1.388 . S
C495 H482 0.930 . S
C495 C494 1.388 . S
C495 C496 1.390 . S
C496 C495 1.390 . S
C496 C497 1.394 . S
C496 C502 1.465 . S
C497 C492 1.399 . S
C497 C496 1.394 . S
C497 C498 1.516 . S
C498 C497 1.516 . S
C498 C499 1.502 . S
C498 C500 1.561 . S
C498 C501 1.526 . S
C499 H483 0.959 . S
C499 H484 0.959 . S
C499 H485 0.961 . S
C499 C498 1.502 . S
C500 H486 0.960 . S
C500 H487 0.961 . S
C500 H488 0.959 . S
C500 C498 1.561 . S
C501 C498 1.526 . S
C501 C502 1.396 . S
C501 C506 1.390 . S
C502 C496 1.465 . S
C502 C501 1.396 . S
C502 C503 1.399 . S
C503 H489 0.929 . S
C503 C502 1.399 . S
C503 C504 1.385 . S
C504 H490 0.931 . S
C504 C503 1.385 . S
C504 C505 1.389 . S
C505 C504 1.389 . S
C505 C506 1.387 . S
C506 H491 0.930 . S
C506 C501 1.390 . S
C506 C505 1.387 . S
H507 C519 0.930 . S
H508 C521 0.930 . S
H509 C522 0.930 . S
H510 C526 0.959 . S
H511 C526 0.959 . S
H512 C526 0.961 . S
H513 C527 0.960 . S
H514 C527 0.961 . S
H515 C527 0.959 . S
H516 C530 0.929 . S
H517 C531 0.931 . S
H518 C533 0.930 . S
C519 H507 0.930 . S
C519 C520 1.399 . S
C519 C524 1.399 . S
C520 C519 1.399 . S
C520 C521 1.376 . S
C521 H508 0.930 . S
C521 C520 1.376 . S
C521 C522 1.388 . S
C522 H509 0.930 . S
C522 C521 1.388 . S
C522 C523 1.390 . S
C523 C522 1.390 . S
C523 C524 1.394 . S
C523 C529 1.465 . S
C524 C519 1.399 . S
C524 C523 1.394 . S
C524 C525 1.516 . S
C525 C524 1.516 . S
C525 C526 1.502 . S
C525 C527 1.561 . S
C525 C528 1.526 . S
C526 H510 0.959 . S
C526 H511 0.959 . S
C526 H512 0.961 . S
C526 C525 1.502 . S
C527 H513 0.960 . S
C527 H514 0.961 . S
C527 H515 0.959 . S
C527 C525 1.561 . S
C528 C525 1.526 . S
C528 C529 1.396 . S
C528 C533 1.390 . S
C529 C523 1.465 . S
C529 C528 1.396 . S
C529 C530 1.399 . S
C530 H516 0.929 . S
C530 C529 1.399 . S
C530 C531 1.385 . S
C531 H517 0.931 . S
C531 C530 1.385 . S
C531 C532 1.389 . S
C532 C531 1.389 . S
C532 C533 1.387 . S
C533 H518 0.930 . S
C533 C528 1.390 . S
C533 C532 1.387 . S
H534 C546 0.930 . S
H535 C548 0.930 . S
H536 C549 0.930 . S
H537 C553 0.959 . S
H538 C553 0.959 . S
H539 C553 0.961 . S
H540 C554 0.960 . S
H541 C554 0.961 . S
H542 C554 0.959 . S
H543 C557 0.929 . S
H544 C558 0.931 1_455 S
H545 C560 0.930 . S
C546 H534 0.930 . S
C546 C547 1.399 . S
C546 C551 1.399 . S
C547 C546 1.399 . S
C547 C548 1.376 . S
C548 H535 0.930 . S
C548 C547 1.376 . S
C548 C549 1.388 . S
C549 H536 0.930 . S
C549 C548 1.388 . S
C549 C550 1.390 . S
C550 C549 1.390 . S
C550 C551 1.394 . S
C550 C556 1.465 . S
C551 C546 1.399 . S
C551 C550 1.394 . S
C551 C552 1.516 . S
C552 C551 1.516 . S
C552 C553 1.502 . S
C552 C554 1.561 . S
C552 C555 1.526 . S
C553 H537 0.959 . S
C553 H538 0.959 . S
C553 H539 0.961 . S
C553 C552 1.502 . S
C554 H540 0.960 . S
C554 H541 0.961 . S
C554 H542 0.959 . S
C554 C552 1.561 . S
C555 C552 1.526 . S
C555 C556 1.396 . S
C555 C560 1.390 . S
C556 C550 1.465 . S
C556 C555 1.396 . S
C556 C557 1.399 . S
C557 H543 0.929 . S
C557 C556 1.399 . S
C557 C558 1.385 . S
C558 H544 0.931 1_655 S
C558 C557 1.385 . S
C558 C559 1.389 . S
C559 C558 1.389 . S
C559 C560 1.387 . S
C560 H545 0.930 . S
C560 C555 1.390 . S
C560 C559 1.387 . S
H561 C573 0.930 . S
H562 C575 0.930 . S
H563 C576 0.930 . S
H564 C580 0.959 . S
H565 C580 0.959 . S
H566 C580 0.961 . S
H567 C581 0.960 . S
H568 C581 0.961 . S
H569 C581 0.959 . S
H570 C584 0.929 . S
H571 C585 0.931 . S
H572 C587 0.930 . S
C573 H561 0.930 . S
C573 C574 1.399 . S
C573 C578 1.399 . S
C574 C573 1.399 . S
C574 C575 1.376 . S
C575 H562 0.930 . S
C575 C574 1.376 . S
C575 C576 1.388 . S
C576 H563 0.930 . S
C576 C575 1.388 . S
C576 C577 1.390 . S
C577 C576 1.390 . S
C577 C578 1.394 . S
C577 C583 1.465 . S
C578 C573 1.399 . S
C578 C577 1.394 . S
C578 C579 1.516 . S
C579 C578 1.516 . S
C579 C580 1.502 . S
C579 C581 1.561 . S
C579 C582 1.526 . S
C580 H564 0.959 . S
C580 H565 0.959 . S
C580 H566 0.961 . S
C580 C579 1.502 . S
C581 H567 0.960 . S
C581 H568 0.961 . S
C581 H569 0.959 . S
C581 C579 1.561 . S
C582 C579 1.526 . S
C582 C583 1.396 . S
C582 C587 1.390 . S
C583 C577 1.465 . S
C583 C582 1.396 . S
C583 C584 1.399 . S
C584 H570 0.929 . S
C584 C583 1.399 . S
C584 C585 1.385 . S
C585 H571 0.931 . S
C585 C584 1.385 . S
C585 C586 1.389 . S
C586 C585 1.389 . S
C586 C587 1.387 . S
C587 H572 0.930 . S
C587 C582 1.390 . S
C587 C586 1.387 . S
H588 C600 0.930 . S
H589 C602 0.930 . S
H590 C603 0.930 . S
H591 C607 0.959 . S
H592 C607 0.959 . S
H593 C607 0.961 . S
H594 C608 0.960 . S
H595 C608 0.961 . S
H596 C608 0.959 . S
H597 C611 0.929 . S
H598 C612 0.931 . S
H599 C614 0.930 . S
C600 H588 0.930 . S
C600 C601 1.399 . S
C600 C605 1.399 . S
C601 C600 1.399 . S
C601 C602 1.376 . S
C602 H589 0.930 . S
C602 C601 1.376 . S
C602 C603 1.388 . S
C603 H590 0.930 . S
C603 C602 1.388 . S
C603 C604 1.390 . S
C604 C603 1.390 . S
C604 C605 1.394 . S
C604 C610 1.465 . S
C605 C600 1.399 . S
C605 C604 1.394 . S
C605 C606 1.516 . S
C606 C605 1.516 . S
C606 C607 1.502 . S
C606 C608 1.561 . S
C606 C609 1.526 . S
C607 H591 0.959 . S
C607 H592 0.959 . S
C607 H593 0.961 . S
C607 C606 1.502 . S
C608 H594 0.960 . S
C608 H595 0.961 . S
C608 H596 0.959 . S
C608 C606 1.561 . S
C609 C606 1.526 . S
C609 C610 1.396 . S
C609 C614 1.390 . S
C610 C604 1.465 . S
C610 C609 1.396 . S
C610 C611 1.399 . S
C611 H597 0.929 . S
C611 C610 1.399 . S
C611 C612 1.385 . S
C612 H598 0.931 . S
C612 C611 1.385 . S
C612 C613 1.389 . S
C613 C612 1.389 . S
C613 C614 1.387 . S
C614 H599 0.930 . S
C614 C609 1.390 . S
C614 C613 1.387 . S
H615 C627 0.930 . S
H616 C629 0.930 . S
H617 C630 0.930 . S
H618 C634 0.959 . S
H619 C634 0.959 . S
H620 C634 0.961 . S
H621 C635 0.960 . S
H622 C635 0.961 . S
H623 C635 0.959 . S
H624 C638 0.929 . S
H625 C639 0.931 . S
H626 C641 0.930 . S
C627 H615 0.930 . S
C627 C628 1.399 . S
C627 C632 1.399 . S
C628 C627 1.399 . S
C628 C629 1.376 . S
C629 H616 0.930 . S
C629 C628 1.376 . S
C629 C630 1.388 . S
C630 H617 0.930 . S
C630 C629 1.388 . S
C630 C631 1.390 . S
C631 C630 1.390 . S
C631 C632 1.394 . S
C631 C637 1.465 . S
C632 C627 1.399 . S
C632 C631 1.394 . S
C632 C633 1.516 . S
C633 C632 1.516 . S
C633 C634 1.502 . S
C633 C635 1.561 . S
C633 C636 1.526 . S
C634 H618 0.959 . S
C634 H619 0.959 . S
C634 H620 0.961 . S
C634 C633 1.502 . S
C635 H621 0.960 . S
C635 H622 0.961 . S
C635 H623 0.959 . S
C635 C633 1.561 . S
C636 C633 1.526 . S
C636 C637 1.396 . S
C636 C641 1.390 . S
C637 C631 1.465 . S
C637 C636 1.396 . S
C637 C638 1.399 . S
C638 H624 0.929 . S
C638 C637 1.399 . S
C638 C639 1.385 . S
C639 H625 0.931 . S
C639 C638 1.385 . S
C639 C640 1.389 . S
C640 C639 1.389 . S
C640 C641 1.387 . S
C641 H626 0.930 . S
C641 C636 1.390 . S
C641 C640 1.387 . S
H642 C654 0.930 . S
H643 C656 0.930 . S
H644 C657 0.930 . S
H645 C661 0.959 . S
H646 C661 0.959 . S
H647 C661 0.961 . S
H648 C662 0.960 . S
H649 C662 0.961 . S
H650 C662 0.959 . S
H651 C665 0.929 . S
H652 C666 0.931 . S
H653 C668 0.930 . S
C654 H642 0.930 . S
C654 C655 1.399 . S
C654 C659 1.399 . S
C655 C654 1.399 . S
C655 C656 1.376 . S
C656 H643 0.930 . S
C656 C655 1.376 . S
C656 C657 1.388 . S
C657 H644 0.930 . S
C657 C656 1.388 . S
C657 C658 1.390 . S
C658 C657 1.390 . S
C658 C659 1.394 . S
C658 C664 1.465 . S
C659 C654 1.399 . S
C659 C658 1.394 . S
C659 C660 1.516 . S
C660 C659 1.516 . S
C660 C661 1.502 . S
C660 C662 1.561 . S
C660 C663 1.526 . S
C661 H645 0.959 . S
C661 H646 0.959 . S
C661 H647 0.961 . S
C661 C660 1.502 . S
C662 H648 0.960 . S
C662 H649 0.961 . S
C662 H650 0.959 . S
C662 C660 1.561 . S
C663 C660 1.526 . S
C663 C664 1.396 . S
C663 C668 1.390 . S
C664 C658 1.465 . S
C664 C663 1.396 . S
C664 C665 1.399 . S
C665 H651 0.929 . S
C665 C664 1.399 . S
C665 C666 1.385 . S
C666 H652 0.931 . S
C666 C665 1.385 . S
C666 C667 1.389 . S
C667 C666 1.389 . S
C667 C668 1.387 . S
C668 H653 0.930 . S
C668 C663 1.390 . S
C668 C667 1.387 . S
H669 C681 0.930 . S
H670 C683 0.930 . S
H671 C684 0.930 . S
H672 C688 0.959 . S
H673 C688 0.959 . S
H674 C688 0.961 . S
H675 C689 0.960 . S
H676 C689 0.961 . S
H677 C689 0.959 . S
H678 C692 0.929 . S
H679 C693 0.931 . S
H680 C695 0.930 . S
C681 H669 0.930 . S
C681 C682 1.399 . S
C681 C686 1.399 . S
C682 C681 1.399 . S
C682 C683 1.376 . S
C683 H670 0.930 . S
C683 C682 1.376 . S
C683 C684 1.388 . S
C684 H671 0.930 . S
C684 C683 1.388 . S
C684 C685 1.390 . S
C685 C684 1.390 . S
C685 C686 1.394 . S
C685 C691 1.465 . S
C686 C681 1.399 . S
C686 C685 1.394 . S
C686 C687 1.516 . S
C687 C686 1.516 . S
C687 C688 1.502 . S
C687 C689 1.561 . S
C687 C690 1.526 . S
C688 H672 0.959 . S
C688 H673 0.959 . S
C688 H674 0.961 . S
C688 C687 1.502 . S
C689 H675 0.960 . S
C689 H676 0.961 . S
C689 H677 0.959 . S
C689 C687 1.561 . S
C690 C687 1.526 . S
C690 C691 1.396 . S
C690 C695 1.390 . S
C691 C685 1.465 . S
C691 C690 1.396 . S
C691 C692 1.399 . S
C692 H678 0.929 . S
C692 C691 1.399 . S
C692 C693 1.385 . S
C693 H679 0.931 . S
C693 C692 1.385 . S
C693 C694 1.389 . S
C694 C693 1.389 . S
C694 C695 1.387 . S
C695 H680 0.930 . S
C695 C690 1.390 . S
C695 C694 1.387 . S
H696 C708 0.930 . S
H697 C710 0.930 . S
H698 C711 0.930 . S
H699 C715 0.959 . S
H700 C715 0.959 . S
H701 C715 0.961 . S
H702 C716 0.960 . S
H703 C716 0.961 . S
H704 C716 0.959 . S
H705 C719 0.929 . S
H706 C720 0.931 1_554 S
H707 C722 0.930 . S
C708 H696 0.930 . S
C708 C709 1.399 . S
C708 C713 1.399 . S
C709 C708 1.399 . S
C709 C710 1.376 . S
C710 H697 0.930 . S
C710 C709 1.376 . S
C710 C711 1.388 . S
C711 H698 0.930 . S
C711 C710 1.388 . S
C711 C712 1.390 . S
C712 C711 1.390 . S
C712 C713 1.394 . S
C712 C718 1.465 . S
C713 C708 1.399 . S
C713 C712 1.394 . S
C713 C714 1.516 . S
C714 C713 1.516 . S
C714 C715 1.502 . S
C714 C716 1.561 . S
C714 C717 1.526 . S
C715 H699 0.959 . S
C715 H700 0.959 . S
C715 H701 0.961 . S
C715 C714 1.502 . S
C716 H702 0.960 . S
C716 H703 0.961 . S
C716 H704 0.959 . S
C716 C714 1.561 . S
C717 C714 1.526 . S
C717 C718 1.396 . S
C717 C722 1.390 . S
C718 C712 1.465 . S
C718 C717 1.396 . S
C718 C719 1.399 . S
C719 H705 0.929 . S
C719 C718 1.399 . S
C719 C720 1.385 . S
C720 H706 0.931 1_556 S
C720 C719 1.385 . S
C720 C721 1.389 . S
C721 C720 1.389 . S
C721 C722 1.387 . S
C722 H707 0.930 . S
C722 C717 1.390 . S
C722 C721 1.387 . S
H723 C735 0.930 . S
H724 C737 0.930 . S
H725 C738 0.930 . S
H726 C742 0.959 . S
H727 C742 0.959 . S
H728 C742 0.961 . S
H729 C743 0.960 . S
H730 C743 0.961 . S
H731 C743 0.959 . S
H732 C746 0.929 . S
H733 C747 0.931 . S
H734 C749 0.930 . S
C735 H723 0.930 . S
C735 C736 1.399 . S
C735 C740 1.399 . S
C736 C735 1.399 . S
C736 C737 1.376 . S
C737 H724 0.930 . S
C737 C736 1.376 . S
C737 C738 1.388 . S
C738 H725 0.930 . S
C738 C737 1.388 . S
C738 C739 1.390 . S
C739 C738 1.390 . S
C739 C740 1.394 . S
C739 C745 1.465 . S
C740 C735 1.399 . S
C740 C739 1.394 . S
C740 C741 1.516 . S
C741 C740 1.516 . S
C741 C742 1.502 . S
C741 C743 1.561 . S
C741 C744 1.526 . S
C742 H726 0.959 . S
C742 H727 0.959 . S
C742 H728 0.961 . S
C742 C741 1.502 . S
C743 H729 0.960 . S
C743 H730 0.961 . S
C743 H731 0.959 . S
C743 C741 1.561 . S
C744 C741 1.526 . S
C744 C745 1.396 . S
C744 C749 1.390 . S
C745 C739 1.465 . S
C745 C744 1.396 . S
C745 C746 1.399 . S
C746 H732 0.929 . S
C746 C745 1.399 . S
C746 C747 1.385 . S
C747 H733 0.931 . S
C747 C746 1.385 . S
C747 C748 1.389 . S
C748 C747 1.389 . S
C748 C749 1.387 . S
C749 H734 0.930 . S
C749 C744 1.390 . S
C749 C748 1.387 . S
H750 C762 0.930 . S
H751 C764 0.930 . S
H752 C765 0.930 . S
H753 C769 0.959 . S
H754 C769 0.959 . S
H755 C769 0.961 . S
H756 C770 0.960 . S
H757 C770 0.961 . S
H758 C770 0.959 . S
H759 C773 0.929 . S
H760 C774 0.931 . S
H761 C776 0.930 . S
C762 H750 0.930 . S
C762 C763 1.399 . S
C762 C767 1.399 . S
C763 C762 1.399 . S
C763 C764 1.376 . S
C764 H751 0.930 . S
C764 C763 1.376 . S
C764 C765 1.388 . S
C765 H752 0.930 . S
C765 C764 1.388 . S
C765 C766 1.390 . S
C766 C765 1.390 . S
C766 C767 1.394 . S
C766 C772 1.465 . S
C767 C762 1.399 . S
C767 C766 1.394 . S
C767 C768 1.516 . S
C768 C767 1.516 . S
C768 C769 1.502 . S
C768 C770 1.561 . S
C768 C771 1.526 . S
C769 H753 0.959 . S
C769 H754 0.959 . S
C769 H755 0.961 . S
C769 C768 1.502 . S
C770 H756 0.960 . S
C770 H757 0.961 . S
C770 H758 0.959 . S
C770 C768 1.561 . S
C771 C768 1.526 . S
C771 C772 1.396 . S
C771 C776 1.390 . S
C772 C766 1.465 . S
C772 C771 1.396 . S
C772 C773 1.399 . S
C773 H759 0.929 . S
C773 C772 1.399 . S
C773 C774 1.385 . S
C774 H760 0.931 . S
C774 C773 1.385 . S
C774 C775 1.389 . S
C775 C774 1.389 . S
C775 C776 1.387 . S
C776 H761 0.930 . S
C776 C771 1.390 . S
C776 C775 1.387 . S
H777 C789 0.930 . S
H778 C791 0.930 . S
H779 C792 0.930 . S
H780 C796 0.959 . S
H781 C796 0.959 . S
H782 C796 0.961 . S
H783 C797 0.960 . S
H784 C797 0.961 . S
H785 C797 0.959 . S
H786 C800 0.929 . S
H787 C801 0.931 . S
H788 C803 0.930 . S
C789 H777 0.930 . S
C789 C790 1.399 . S
C789 C794 1.399 . S
C790 C789 1.399 . S
C790 C791 1.376 . S
C791 H778 0.930 . S
C791 C790 1.376 . S
C791 C792 1.388 . S
C792 H779 0.930 . S
C792 C791 1.388 . S
C792 C793 1.390 . S
C793 C792 1.390 . S
C793 C794 1.394 . S
C793 C799 1.465 . S
C794 C789 1.399 . S
C794 C793 1.394 . S
C794 C795 1.516 . S
C795 C794 1.516 . S
C795 C796 1.502 . S
C795 C797 1.561 . S
C795 C798 1.526 . S
C796 H780 0.959 . S
C796 H781 0.959 . S
C796 H782 0.961 . S
C796 C795 1.502 . S
C797 H783 0.960 . S
C797 H784 0.961 . S
C797 H785 0.959 . S
C797 C795 1.561 . S
C798 C795 1.526 . S
C798 C799 1.396 . S
C798 C803 1.390 . S
C799 C793 1.465 . S
C799 C798 1.396 . S
C799 C800 1.399 . S
C800 H786 0.929 . S
C800 C799 1.399 . S
C800 C801 1.385 . S
C801 H787 0.931 . S
C801 C800 1.385 . S
C801 C802 1.389 . S
C802 C801 1.389 . S
C802 C803 1.387 . S
C803 H788 0.930 . S
C803 C798 1.390 . S
C803 C802 1.387 . S
H804 C816 0.930 . S
H805 C818 0.930 . S
H806 C819 0.930 . S
H807 C823 0.959 . S
H808 C823 0.959 . S
H809 C823 0.961 . S
H810 C824 0.960 . S
H811 C824 0.961 . S
H812 C824 0.959 . S
H813 C827 0.929 . S
H814 C828 0.931 . S
H815 C830 0.930 . S
C816 H804 0.930 . S
C816 C817 1.399 . S
C816 C821 1.399 . S
C817 C816 1.399 . S
C817 C818 1.376 . S
C818 H805 0.930 . S
C818 C817 1.376 . S
C818 C819 1.388 . S
C819 H806 0.930 . S
C819 C818 1.388 . S
C819 C820 1.390 . S
C820 C819 1.390 . S
C820 C821 1.394 . S
C820 C826 1.465 . S
C821 C816 1.399 . S
C821 C820 1.394 . S
C821 C822 1.516 . S
C822 C821 1.516 . S
C822 C823 1.502 . S
C822 C824 1.561 . S
C822 C825 1.526 . S
C823 H807 0.959 . S
C823 H808 0.959 . S
C823 H809 0.961 . S
C823 C822 1.502 . S
C824 H810 0.960 . S
C824 H811 0.961 . S
C824 H812 0.959 . S
C824 C822 1.561 . S
C825 C822 1.526 . S
C825 C826 1.396 . S
C825 C830 1.390 . S
C826 C820 1.465 . S
C826 C825 1.396 . S
C826 C827 1.399 . S
C827 H813 0.929 . S
C827 C826 1.399 . S
C827 C828 1.385 . S
C828 H814 0.931 . S
C828 C827 1.385 . S
C828 C829 1.389 . S
C829 C828 1.389 . S
C829 C830 1.387 . S
C830 H815 0.930 . S
C830 C825 1.390 . S
C830 C829 1.387 . S
H831 C843 0.930 . S
H832 C845 0.930 . S
H833 C846 0.930 . S
H834 C850 0.959 . S
H835 C850 0.959 . S
H836 C850 0.961 . S
H837 C851 0.960 . S
H838 C851 0.961 . S
H839 C851 0.959 . S
H840 C854 0.929 . S
H841 C855 0.931 . S
H842 C857 0.930 . S
C843 H831 0.930 . S
C843 C844 1.399 . S
C843 C848 1.399 . S
C844 C843 1.399 . S
C844 C845 1.376 . S
C845 H832 0.930 . S
C845 C844 1.376 . S
C845 C846 1.388 . S
C846 H833 0.930 . S
C846 C845 1.388 . S
C846 C847 1.390 . S
C847 C846 1.390 . S
C847 C848 1.394 . S
C847 C853 1.465 . S
C848 C843 1.399 . S
C848 C847 1.394 . S
C848 C849 1.516 . S
C849 C848 1.516 . S
C849 C850 1.502 . S
C849 C851 1.561 . S
C849 C852 1.526 . S
C850 H834 0.959 . S
C850 H835 0.959 . S
C850 H836 0.961 . S
C850 C849 1.502 . S
C851 H837 0.960 . S
C851 H838 0.961 . S
C851 H839 0.959 . S
C851 C849 1.561 . S
C852 C849 1.526 . S
C852 C853 1.396 . S
C852 C857 1.390 . S
C853 C847 1.465 . S
C853 C852 1.396 . S
C853 C854 1.399 . S
C854 H840 0.929 . S
C854 C853 1.399 . S
C854 C855 1.385 . S
C855 H841 0.931 . S
C855 C854 1.385 . S
C855 C856 1.389 . S
C856 C855 1.389 . S
C856 C857 1.387 . S
C857 H842 0.930 . S
C857 C852 1.390 . S
C857 C856 1.387 . S
H858 C870 0.930 . S
H859 C872 0.930 . S
H860 C873 0.930 . S
H861 C877 0.959 . S
H862 C877 0.959 . S
H863 C877 0.961 . S
H864 C878 0.960 . S
H865 C878 0.961 . S
H866 C878 0.959 . S
H867 C881 0.929 . S
H868 C882 0.931 . S
H869 C884 0.930 . S
C870 H858 0.930 . S
C870 C871 1.399 . S
C870 C875 1.399 . S
C871 C870 1.399 . S
C871 C872 1.376 . S
C872 H859 0.930 . S
C872 C871 1.376 . S
C872 C873 1.388 . S
C873 H860 0.930 . S
C873 C872 1.388 . S
C873 C874 1.390 . S
C874 C873 1.390 . S
C874 C875 1.394 . S
C874 C880 1.465 . S
C875 C870 1.399 . S
C875 C874 1.394 . S
C875 C876 1.516 . S
C876 C875 1.516 . S
C876 C877 1.502 . S
C876 C878 1.561 . S
C876 C879 1.526 . S
C877 H861 0.959 . S
C877 H862 0.959 . S
C877 H863 0.961 . S
C877 C876 1.502 . S
C878 H864 0.960 . S
C878 H865 0.961 . S
C878 H866 0.959 . S
C878 C876 1.561 . S
C879 C876 1.526 . S
C879 C880 1.396 . S
C879 C884 1.390 . S
C880 C874 1.465 . S
C880 C879 1.396 . S
C880 C881 1.399 . S
C881 H867 0.929 . S
C881 C880 1.399 . S
C881 C882 1.385 . S
C882 H868 0.931 . S
C882 C881 1.385 . S
C882 C883 1.389 . S
C883 C882 1.389 . S
C883 C884 1.387 . S
C884 H869 0.930 . S
C884 C879 1.390 . S
C884 C883 1.387 . S
H885 C897 0.930 . S
H886 C899 0.930 . S
H887 C900 0.930 . S
H888 C904 0.959 . S
H889 C904 0.959 . S
H890 C904 0.961 . S
H891 C905 0.960 . S
H892 C905 0.961 . S
H893 C905 0.959 . S
H894 C908 0.929 . S
H895 C909 0.931 . S
H896 C911 0.930 . S
C897 H885 0.930 . S
C897 C898 1.399 . S
C897 C902 1.399 . S
C898 C897 1.399 . S
C898 C899 1.376 . S
C899 H886 0.930 . S
C899 C898 1.376 . S
C899 C900 1.388 . S
C900 H887 0.930 . S
C900 C899 1.388 . S
C900 C901 1.390 . S
C901 C900 1.390 . S
C901 C902 1.394 . S
C901 C907 1.465 . S
C902 C897 1.399 . S
C902 C901 1.394 . S
C902 C903 1.516 . S
C903 C902 1.516 . S
C903 C904 1.502 . S
C903 C905 1.561 . S
C903 C906 1.526 . S
C904 H888 0.959 . S
C904 H889 0.959 . S
C904 H890 0.961 . S
C904 C903 1.502 . S
C905 H891 0.960 . S
C905 H892 0.961 . S
C905 H893 0.959 . S
C905 C903 1.561 . S
C906 C903 1.526 . S
C906 C907 1.396 . S
C906 C911 1.390 . S
C907 C901 1.465 . S
C907 C906 1.396 . S
C907 C908 1.399 . S
C908 H894 0.929 . S
C908 C907 1.399 . S
C908 C909 1.385 . S
C909 H895 0.931 . S
C909 C908 1.385 . S
C909 C910 1.389 . S
C910 C909 1.389 . S
C910 C911 1.387 . S
C911 H896 0.930 . S
C911 C906 1.390 . S
C911 C910 1.387 . S
C277 N1 0.863 . S
C289 C110 0.959 . S
C304 N18 1.060 . S
C316 C159 1.119 . S
C343 C194 2.110 . S
C331 N28 2.140 . S
C358 N40 2.619 . S
C370 C233 2.633 . S
C397 C154 2.390 . S
C385 N5 2.351 . S
C424 C113 0.662 . S
C412 N14 0.683 . S
C451 C243 1.980 . S
C439 N31 2.026 . S
C478 C202 1.432 . S
C466 N41 1.442 . S
C493 N2 1.281 . S
C505 C230 1.350 . S
C532 C162 2.432 1_556 S
C520 N27 2.523 . S
C547 N44 2.435 . S
C559 C123 2.444 . S
C574 N15 0.717 . S
C586 C199 0.708 . S
C613 C119 1.484 . S
C601 N57 1.463 . S
C628 N70 0.797 . S
C640 C150 0.953 . S
C655 N79 2.343 . S
C667 C203 2.318 . S
C682 N93 2.424 . S
C694 C242 2.384 . S
C709 N54 1.911 . S
C721 C163 1.994 1_566 S
C748 C122 1.462 . S
C736 N66 1.527 . S
C775 C234 1.445 . S
C763 N80 1.466 . S
C802 C193 1.726 . S
C790 N96 1.734 . S
C817 N53 1.417 . S
C829 C239 1.465 . S
C856 C153 2.131 . S
C844 N83 2.163 . S
C883 C114 2.648 . S
C871 N92 2.638 . S
C898 N67 0.884 . S
C910 C190 0.909 . S
