# Generated by pormake.
# Topology pyr, (3,6)-cn, num edge types: 1
# Building blocks:
#     Node 0, Type 0, BuildingBlock: BELTOD_clean_linker_0, # of connection points: 3
#     Node 1, Type 0, BuildingBlock: BELTOD_clean_linker_0, # of connection points: 3
#     Node 2, Type 0, BuildingBlock: BELTOD_clean_linker_0, # of connection points: 3
#     Node 3, Type 0, BuildingBlock: BELTOD_clean_linker_0, # of connection points: 3
#     Node 4, Type 0, BuildingBlock: BELTOD_clean_linker_0, # of connection points: 3
#     Node 5, Type 0, BuildingBlock: BELTOD_clean_linker_0, # of connection points: 3
#     Node 6, Type 0, BuildingBlock: BELTOD_clean_linker_0, # of connection points: 3
#     Node 7, Type 0, BuildingBlock: BELTOD_clean_linker_0, # of connection points: 3
#     Node 8, Type 1, BuildingBlock: CIFDUS_clean_sbu_1, # of connection points: 6
#     Node 9, Type 1, BuildingBlock: CIFDUS_clean_sbu_1, # of connection points: 6
#     Node 10, Type 1, BuildingBlock: CIFDUS_clean_sbu_1, # of connection points: 6
#     Node 11, Type 1, BuildingBlock: CIFDUS_clean_sbu_1, # of connection points: 6
#     Edge 12, Type (0, 1), BuildingBlock: EZIPEK_clean_linker_0, # of connection points: 2
#     Edge 13, Type (0, 1), BuildingBlock: EZIPEK_clean_linker_0, # of connection points: 2
#     Edge 14, Type (0, 1), BuildingBlock: EZIPEK_clean_linker_0, # of connection points: 2
#     Edge 15, Type (0, 1), BuildingBlock: EZIPEK_clean_linker_0, # of connection points: 2
#     Edge 16, Type (0, 1), BuildingBlock: EZIPEK_clean_linker_0, # of connection points: 2
#     Edge 17, Type (0, 1), BuildingBlock: EZIPEK_clean_linker_0, # of connection points: 2
#     Edge 18, Type (0, 1), BuildingBlock: EZIPEK_clean_linker_0, # of connection points: 2
#     Edge 19, Type (0, 1), BuildingBlock: EZIPEK_clean_linker_0, # of connection points: 2
#     Edge 20, Type (0, 1), BuildingBlock: EZIPEK_clean_linker_0, # of connection points: 2
#     Edge 21, Type (0, 1), BuildingBlock: EZIPEK_clean_linker_0, # of connection points: 2
#     Edge 22, Type (0, 1), BuildingBlock: EZIPEK_clean_linker_0, # of connection points: 2
#     Edge 23, Type (0, 1), BuildingBlock: EZIPEK_clean_linker_0, # of connection points: 2
#     Edge 24, Type (0, 1), BuildingBlock: EZIPEK_clean_linker_0, # of connection points: 2
#     Edge 25, Type (0, 1), BuildingBlock: EZIPEK_clean_linker_0, # of connection points: 2
#     Edge 26, Type (0, 1), BuildingBlock: EZIPEK_clean_linker_0, # of connection points: 2
#     Edge 27, Type (0, 1), BuildingBlock: EZIPEK_clean_linker_0, # of connection points: 2
#     Edge 28, Type (0, 1), BuildingBlock: EZIPEK_clean_linker_0, # of connection points: 2
#     Edge 29, Type (0, 1), BuildingBlock: EZIPEK_clean_linker_0, # of connection points: 2
#     Edge 30, Type (0, 1), BuildingBlock: EZIPEK_clean_linker_0, # of connection points: 2
#     Edge 31, Type (0, 1), BuildingBlock: EZIPEK_clean_linker_0, # of connection points: 2
#     Edge 32, Type (0, 1), BuildingBlock: EZIPEK_clean_linker_0, # of connection points: 2
#     Edge 33, Type (0, 1), BuildingBlock: EZIPEK_clean_linker_0, # of connection points: 2
#     Edge 34, Type (0, 1), BuildingBlock: EZIPEK_clean_linker_0, # of connection points: 2
#     Edge 35, Type (0, 1), BuildingBlock: EZIPEK_clean_linker_0, # of connection points: 2
# Relax obj value: 0.036
# Max RMSD: 0.108
# Mean RMSD: 0.051
data_MOF--net-pry--node1-CIFDUS_clean_sbu_1--node2-BELTOD_clean_linker_0--edge1-EZIPEK_clean_linker_0
_symmetry_space_group_name_H-M    P1
_symmetry_Int_Tables_number       1
_symmetry_cell_setting            triclinic
loop_
_symmetry_equiv_pos_as_xyz
'x, y, z'
_cell_length_a     32.470916
_cell_length_b     31.482728
_cell_length_c     30.833065
_cell_angle_alpha  92.364246
_cell_angle_beta   91.698275
_cell_angle_gamma 93.802711
loop_
_atom_site_label
_atom_site_type_symbol
_atom_site_fract_x
_atom_site_fract_y
_atom_site_fract_z
_atom_type_partial_charge
P0 P 0.17863 0.1832 0.16363 0.0
H1 H 0.24161 0.19949 0.1005 0.0
H2 H 0.29153 0.15462 0.06674 0.0
H3 H 0.22892 0.04321 0.11754 0.0
H4 H 0.17966 0.08859 0.15299 0.0
H5 H 0.15132 0.26734 0.18424 0.0
H6 H 0.11224 0.31741 0.14383 0.0
H7 H 0.09192 0.22423 0.0377 0.0
H8 H 0.13227 0.17388 0.07818 0.0
H9 H 0.20039 0.17928 0.25617 0.0
H10 H 0.10056 0.12932 0.16939 0.0
O11 O 0.21541 0.217 0.18686 0.0
H12 H 0.16636 0.14638 0.31711 0.0
H13 H 0.06671 0.09509 0.23095 0.0
C14 C 0.20697 0.14762 0.1296 0.0
C15 C 0.23802 0.16533 0.10382 0.0
C16 C 0.26668 0.13969 0.08464 0.0
C17 C 0.26469 0.09554 0.09029 0.0
C18 C 0.23155 0.07724 0.11322 0.0
C19 C 0.20324 0.10316 0.13325 0.0
C20 C 0.14527 0.21696 0.13412 0.0
C21 C 0.1385 0.25742 0.15232 0.0
C22 C 0.11624 0.28613 0.12919 0.0
C23 C 0.09966 0.27499 0.08741 0.0
C24 C 0.1049 0.23379 0.06964 0.0
C25 C 0.12773 0.205 0.09281 0.0
C26 C 0.15291 0.15722 0.208 0.0
C27 C 0.17112 0.16125 0.25003 0.0
C28 C 0.15173 0.14235 0.28503 0.0
C29 C 0.11395 0.11822 0.27881 0.0
C30 C 0.09583 0.11361 0.23661 0.0
C31 C 0.11512 0.13307 0.2015 0.0
P32 P 0.39709 0.91444 0.59183 0.0
H33 H 0.4688 0.90378 0.64917 0.0
H34 H 0.48557 0.92537 0.72551 0.0
H35 H 0.36801 0.98048 0.73535 0.0
H36 H 0.35088 0.95842 0.6595 0.0
H37 H 0.4305 0.88097 0.51114 0.0
H38 H 0.45338 0.81075 0.48851 0.0
H39 H 0.42328 0.76368 0.61382 0.0
H40 H 0.40052 0.83392 0.63655 0.0
H41 H 0.34672 0.98466 0.57141 0.0
H42 H 0.32748 0.84882 0.58364 0.0
O43 O 0.42296 0.95101 0.56364 0.0
H44 H 0.27245 0.98906 0.55688 0.0
H45 H 0.25323 0.85321 0.56813 0.0
C46 C 0.40811 0.92831 0.64877 0.0
C47 C 0.44639 0.92006 0.66783 0.0
C48 C 0.45614 0.93273 0.71122 0.0
C49 C 0.42797 0.95441 0.73611 0.0
C50 C 0.39012 0.96369 0.71674 0.0
C51 C 0.38027 0.95075 0.67345 0.0
C52 C 0.41458 0.8629 0.57586 0.0
C53 C 0.42906 0.85566 0.53389 0.0
C54 C 0.44196 0.81563 0.52086 0.0
C55 C 0.44001 0.7821 0.54949 0.0
C56 C 0.42506 0.78921 0.5913 0.0
C57 C 0.41225 0.82926 0.60431 0.0
C58 C 0.34276 0.91639 0.57819 0.0
C59 C 0.32666 0.95572 0.57035 0.0
C60 C 0.28435 0.95826 0.56206 0.0
C61 C 0.25745 0.92145 0.56129 0.0
C62 C 0.27358 0.88191 0.56839 0.0
C63 C 0.31593 0.87947 0.57724 0.0
P64 P 0.67856 0.33029 0.82373 0.0
H65 H 0.70501 0.30582 0.9103 0.0
H66 H 0.75371 0.34118 0.96419 0.0
H67 H 0.75489 0.45607 0.89288 0.0
H68 H 0.70408 0.42197 0.84062 0.0
H69 H 0.67421 0.24026 0.79418 0.0
H70 H 0.6391 0.17607 0.82242 0.0
H71 H 0.58237 0.25388 0.91902 0.0
H72 H 0.61727 0.31815 0.8907 0.0
H73 H 0.7013 0.40062 0.768 0.0
H74 H 0.59086 0.32334 0.79445 0.0
O75 O 0.71834 0.31354 0.79625 0.0
H76 H 0.66167 0.44102 0.71706 0.0
H77 H 0.55233 0.36082 0.74043 0.0
C78 C 0.70094 0.36086 0.87071 0.0
C79 C 0.71387 0.33928 0.90722 0.0
C80 C 0.74182 0.35942 0.93813 0.0
C81 C 0.75863 0.40085 0.93187 0.0
C82 C 0.74262 0.42388 0.89798 0.0
C83 C 0.7138 0.40408 0.86774 0.0
C84 C 0.64899 0.28382 0.84103 0.0
C85 C 0.65399 0.24361 0.82121 0.0
C86 C 0.63394 0.20702 0.83714 0.0
C87 C 0.60858 0.21037 0.87296 0.0
C88 C 0.60204 0.25078 0.89145 0.0
C89 C 0.62194 0.28733 0.8754 0.0
C90 C 0.64884 0.36001 0.78649 0.0
C91 C 0.66852 0.39254 0.76323 0.0
C92 C 0.64613 0.415 0.73339 0.0
C93 C 0.60402 0.40387 0.72462 0.0
C94 C 0.58478 0.37002 0.74659 0.0
C95 C 0.6068 0.34877 0.77772 0.0
P96 P 0.84098 0.6647 0.36032 0.0
H97 H 0.88597 0.74432 0.34371 0.0
H98 H 0.92941 0.79518 0.38943 0.0
H99 H 0.92781 0.70697 0.49276 0.0
H100 H 0.88282 0.65623 0.44739 0.0
H101 H 0.80034 0.60662 0.2944 0.0
H102 H 0.82516 0.57245 0.2279 0.0
H103 H 0.95018 0.61573 0.26633 0.0
H104 H 0.92534 0.65058 0.3323 0.0
H105 H 0.75312 0.67269 0.37182 0.0
H106 H 0.84656 0.59414 0.42086 0.0
O107 O 0.81493 0.69942 0.33276 0.0
H108 H 0.70174 0.63519 0.41423 0.0
H109 H 0.79508 0.55885 0.46705 0.0
C110 C 0.87991 0.69686 0.39235 0.0
C111 C 0.89496 0.73556 0.37607 0.0
C112 C 0.91988 0.7646 0.40214 0.0
C113 C 0.93093 0.7553 0.44487 0.0
C114 C 0.91885 0.7151 0.46017 0.0
C115 C 0.89317 0.6861 0.43411 0.0
C116 C 0.86102 0.63063 0.31865 0.0
C117 C 0.83322 0.60782 0.28909 0.0
C118 C 0.84727 0.58862 0.251 0.0
C119 C 0.8895 0.59155 0.24216 0.0
C120 C 0.91748 0.613 0.27261 0.0
C121 C 0.90334 0.6326 0.31045 0.0
C122 C 0.80398 0.63659 0.39328 0.0
C123 C 0.76291 0.64776 0.3921 0.0
C124 C 0.73344 0.62648 0.41664 0.0
C125 C 0.74439 0.59402 0.44368 0.0
C126 C 0.78585 0.58359 0.44614 0.0
C127 C 0.81524 0.60395 0.42008 0.0
P128 P 0.88734 0.90494 0.90909 0.0
H129 H 0.86138 0.96114 0.9802 0.0
H130 H 0.79435 0.98583 0.00079 0.0
H131 H 0.73522 0.91159 0.89306 0.0
H132 H 0.80265 0.88702 0.87204 0.0
H133 H 0.95182 0.84832 0.88642 0.0
H134 H 0.96941 0.77835 0.91102 0.0
H135 H 0.86439 0.77477 0.99336 0.0
H136 H 0.84661 0.84483 0.96855 0.0
H137 H 0.92271 0.97671 0.86219 0.0
H138 H 0.86952 0.84992 0.82946 0.0
O139 O 0.92321 0.93668 0.9365 0.0
H140 H 0.93853 0.9863 0.78589 0.0
H141 H 0.88497 0.85982 0.75246 0.0
C142 C 0.83724 0.92227 0.92434 0.0
C143 C 0.83417 0.95021 0.96071 0.0
C144 C 0.79588 0.96451 0.97248 0.0
C145 C 0.75971 0.95079 0.94839 0.0
C146 C 0.76272 0.92281 0.91199 0.0
C147 C 0.80115 0.90862 0.90011 0.0
C148 C 0.89707 0.85133 0.92445 0.0
C149 C 0.93215 0.83228 0.90928 0.0
C150 C 0.94251 0.79255 0.92371 0.0
C151 C 0.91825 0.77116 0.95403 0.0
C152 C 0.88357 0.7906 0.96994 0.0
C153 C 0.87316 0.83039 0.95538 0.0
C154 C 0.89564 0.91227 0.8518 0.0
C155 C 0.91431 0.95092 0.83862 0.0
C156 C 0.9233 0.95647 0.79499 0.0
C157 C 0.91346 0.92363 0.76344 0.0
C158 C 0.89322 0.88545 0.77627 0.0
C159 C 0.88441 0.87982 0.82017 0.0
P160 P 0.67288 0.18101 0.37478 0.0
H161 H 0.68559 0.26069 0.42575 0.0
H162 H 0.63738 0.30902 0.45717 0.0
H163 H 0.53695 0.21395 0.43093 0.0
H164 H 0.58523 0.16591 0.39793 0.0
H165 H 0.74053 0.13464 0.34397 0.0
H166 H 0.7973 0.10143 0.38053 0.0
H167 H 0.74599 0.13062 0.50477 0.0
H168 H 0.68888 0.16453 0.46795 0.0
H169 H 0.64353 0.1974 0.28744 0.0
H170 H 0.64001 0.09086 0.37116 0.0
O171 O 0.70063 0.21783 0.34863 0.0
H172 H 0.60883 0.15228 0.22911 0.0
H173 H 0.60443 0.04545 0.31232 0.0
C174 C 0.6389 0.21009 0.40862 0.0
C175 C 0.65335 0.24982 0.4274 0.0
C176 C 0.62583 0.27743 0.44541 0.0
C177 C 0.58339 0.26553 0.44552 0.0
C178 C 0.56949 0.224 0.43067 0.0
C179 C 0.59705 0.19658 0.41187 0.0
C180 C 0.71043 0.15185 0.4032 0.0
C181 C 0.7411 0.1335 0.37906 0.0
C182 C 0.77358 0.11476 0.39987 0.0
C183 C 0.77593 0.11385 0.44527 0.0
C184 C 0.7447 0.13123 0.46967 0.0
C185 C 0.71211 0.15033 0.44868 0.0
C186 C 0.64493 0.14735 0.33342 0.0
C187 C 0.63533 0.16429 0.29331 0.0
C188 C 0.61557 0.13855 0.25998 0.0
C189 C 0.60457 0.09548 0.26625 0.0
C190 C 0.61313 0.07854 0.30677 0.0
C191 C 0.63325 0.10442 0.34024 0.0
P192 P 0.38297 0.64755 0.13668 0.0
H193 H 0.35846 0.63112 0.04573 0.0
H194 H 0.29195 0.60899 0.00861 0.0
H195 H 0.23304 0.60837 0.13209 0.0
H196 H 0.29939 0.63037 0.16926 0.0
H197 H 0.45445 0.69777 0.1067 0.0
H198 H 0.46716 0.77342 0.09399 0.0
H199 H 0.34847 0.79838 0.14501 0.0
H200 H 0.33456 0.72167 0.1555 0.0
H201 H 0.4193 0.57634 0.1773 0.0
H202 H 0.35387 0.68487 0.21931 0.0
O203 O 0.41863 0.62254 0.10945 0.0
H204 H 0.42977 0.55801 0.25287 0.0
H205 H 0.36391 0.66587 0.29535 0.0
C206 C 0.33393 0.63153 0.11031 0.0
C207 C 0.33126 0.62606 0.06485 0.0
C208 C 0.29345 0.61363 0.04364 0.0
C209 C 0.25785 0.6069 0.06774 0.0
C210 C 0.26036 0.61329 0.1131 0.0
C211 C 0.29818 0.62567 0.13428 0.0
C212 C 0.39344 0.70401 0.1318 0.0
C213 C 0.43103 0.71928 0.11523 0.0
C214 C 0.43838 0.76253 0.10812 0.0
C215 C 0.40855 0.79142 0.11808 0.0
C216 C 0.37169 0.77651 0.13676 0.0
C217 C 0.3639 0.73288 0.1429 0.0
C218 C 0.38661 0.63257 0.19254 0.0
C219 C 0.40698 0.59618 0.20264 0.0
C220 C 0.41283 0.58557 0.24579 0.0
C221 C 0.39805 0.61088 0.27965 0.0
C222 C 0.37584 0.64619 0.26963 0.0
C223 C 0.37028 0.65705 0.22625 0.0
P224 P 0.15982 0.35064 0.65787 0.0
H225 H 0.13572 0.26189 0.6698 0.0
H226 H 0.09157 0.20897 0.6273 0.0
H227 H 0.052 0.30646 0.54433 0.0
H228 H 0.09642 0.36033 0.58775 0.0
H229 H 0.21034 0.43022 0.67302 0.0
H230 H 0.26274 0.46523 0.62851 0.0
H231 H 0.22145 0.3829 0.51852 0.0
H232 H 0.17055 0.34653 0.56325 0.0
H233 H 0.16779 0.33212 0.74967 0.0
H234 H 0.10892 0.42395 0.67317 0.0
O235 O 0.19718 0.32038 0.67415 0.0
H236 H 0.14142 0.36432 0.81595 0.0
H237 H 0.08183 0.45598 0.74004 0.0
C238 C 0.12043 0.31478 0.63107 0.0
C239 C 0.11729 0.27226 0.64288 0.0
C240 C 0.09204 0.24202 0.61864 0.0
C241 C 0.06917 0.2537 0.58226 0.0
C242 C 0.0698 0.29683 0.57206 0.0
C243 C 0.09509 0.3274 0.59677 0.0
C244 C 0.1855 0.38643 0.62143 0.0
C245 C 0.21129 0.42079 0.63891 0.0
C246 C 0.24138 0.44062 0.61357 0.0
C247 C 0.2461 0.42638 0.57036 0.0
C248 C 0.21815 0.39441 0.55175 0.0
C249 C 0.18866 0.37398 0.57736 0.0
C250 C 0.14074 0.37595 0.70637 0.0
C251 C 0.14945 0.35943 0.74705 0.0
C252 C 0.13439 0.37773 0.78501 0.0
C253 C 0.10968 0.4125 0.78299 0.0
C254 C 0.10092 0.42917 0.7423 0.0
C255 C 0.11628 0.41093 0.7042 0.0
O256 O 0.95316 0.03406 0.50324 0.0
Mn257 Mn 0.00826 0.00358 0.51242 0.0
O258 O 0.92085 0.00358 0.4429 0.0
Mn259 Mn 0.9643 0.9725 0.42526 0.0
O260 O 0.06317 0.97214 0.52242 0.0
O261 O 0.03017 0.05344 0.55084 0.0
Mn262 Mn 0.05377 0.03609 0.59849 0.0
O263 O 0.98151 0.97379 0.56632 0.0
O264 O 0.09705 0.0052 0.58035 0.0
O265 O 0.03472 0.03454 0.45878 0.0
O266 O 0.00555 0.00312 0.39744 0.0
O267 O 0.05878 0.09484 0.6028 0.0
O268 O 0.01262 0.00576 0.62669 0.0
C269 C 0.9755 0.91573 0.45837 0.0
C270 C 0.92222 0.02942 0.47593 0.0
C271 C 0.09487 0.97754 0.54881 0.0
C272 C 0.03954 0.09198 0.56535 0.0
C273 C 0.98548 0.97957 0.60803 0.0
C274 C 0.03144 0.03004 0.41692 0.0
O275 O 0.98632 0.95387 0.47343 0.0
O276 O 0.95785 0.91392 0.4201 0.0
O277 O 0.4859 0.00504 0.94345 0.0
Mn278 Mn 0.5046 0.01189 0.00965 0.0
O279 O 0.49337 0.93658 0.92227 0.0
Mn280 Mn 0.51963 0.92126 0.97271 0.0
O281 O 0.52318 0.01899 0.07589 0.0
O282 O 0.51253 0.075 0.00355 0.0
Mn283 Mn 0.49019 0.10314 0.04633 0.0
O284 O 0.44181 0.01751 0.0255 0.0
O285 O 0.51767 0.0881 0.09619 0.0
O286 O 0.56774 0.00612 0.99454 0.0
O287 O 0.5753 0.93667 0.97813 0.0
O288 O 0.51323 0.14384 0.01113 0.0
O289 O 0.43446 0.08691 0.0427 0.0
C290 C 0.48377 0.91205 0.02904 0.0
C291 C 0.48241 0.9738 0.91488 0.0
C292 C 0.52802 0.05072 0.10387 0.0
C293 C 0.52408 0.11124 0.98838 0.0
C294 C 0.41954 0.0487 0.03596 0.0
C295 C 0.59026 0.97479 0.9851 0.0
O296 O 0.49633 0.94872 0.01546 0.0
O297 O 0.49537 0.87993 0.00606 0.0
O298 O 0.55889 0.52852 0.50463 0.0
Mn299 Mn 0.49475 0.51385 0.50561 0.0
O300 O 0.57821 0.51607 0.43596 0.0
Mn301 Mn 0.52856 0.49003 0.41544 0.0
O302 O 0.43084 0.49737 0.5045 0.0
O303 O 0.50032 0.50984 0.57327 0.0
Mn304 Mn 0.45885 0.54239 0.58742 0.0
O305 O 0.48629 0.58011 0.50801 0.0
O306 O 0.40892 0.515 0.57044 0.0
O307 O 0.50383 0.44772 0.49958 0.0
O308 O 0.51953 0.43421 0.42997 0.0
O309 O 0.47983 0.53033 0.63889 0.0
O310 O 0.46604 0.59826 0.57403 0.0
C311 C 0.47852 0.52852 0.40222 0.0
C312 C 0.5863 0.52859 0.47528 0.0
C313 C 0.40255 0.49804 0.53267 0.0
C314 C 0.50369 0.50747 0.61599 0.0
C315 C 0.47618 0.60815 0.53647 0.0
C316 C 0.51168 0.42166 0.46782 0.0
O317 O 0.49002 0.51786 0.44058 0.0
O318 O 0.49938 0.51282 0.37099 0.0
O319 O 0.94147 0.48837 0.00645 0.0
Mn320 Mn 0.00251 0.51484 0.00877 0.0
O321 O 0.91686 0.49794 0.93855 0.0
Mn322 Mn 0.96242 0.5294 0.9196 0.0
O323 O 0.06417 0.54062 0.00964 0.0
O324 O -0.00056 0.52204 0.07476 0.0
Mn325 Mn 0.04573 0.5036 0.09663 0.0
O326 O 0.02246 0.45192 0.01347 0.0
O327 O 0.08987 0.5368 0.07776 0.0
O328 O 0.98073 0.57751 0.00459 0.0
O329 O 0.96495 0.58666 0.93443 0.0
O330 O 0.01783 0.52036 0.14396 0.0
O331 O 0.04608 0.4463 0.08216 0.0
C332 C 0.01575 0.49755 0.90354 0.0
C333 C 0.9129 0.48388 0.97648 0.0
C334 C 0.09335 0.54761 0.03874 0.0
C335 C 0.99019 0.5292 0.11516 0.0
C336 C 0.03694 0.4301 0.04441 0.0
C337 C 0.96898 0.60094 0.97356 0.0
O338 O 0.00591 0.50738 0.94312 0.0
O339 O 0.99078 0.50935 0.87354 0.0
C340 C 0.05604 0.1125 0.33223 0.0
C341 C 0.09374 0.098 0.31679 0.0
C342 C 0.09629 0.04998 0.37768 0.0
C343 C 0.05572 0.05916 0.38857 0.0
N344 N 0.99577 0.09854 0.37566 0.0
N345 N 0.14702 0.04826 0.32171 0.0
C346 C 0.03532 0.09043 0.36574 0.0
C347 C 0.11328 0.0656 0.33886 0.0
N348 N 0.04074 0.14819 0.31593 0.0
N349 N 0.11883 0.02689 0.40497 0.0
H350 H 0.15972 0.05786 0.29272 0.0
H351 H 0.15995 0.02165 0.33397 0.0
H352 H 0.1076 0.01779 0.4347 0.0
H353 H 0.14983 0.02167 0.4008 0.0
H354 H 0.01577 0.16289 0.32885 0.0
H355 H 0.05525 0.16544 0.29186 0.0
H356 H 0.97724 0.1169 0.35689 0.0
H357 H 0.98073 0.08506 0.40174 0.0
C358 C 0.46863 0.99813 0.79543 0.0
C359 C 0.43754 0.96558 0.78305 0.0
C360 C 0.42678 0.95239 0.85982 0.0
C361 C 0.46268 0.97891 0.87148 0.0
N362 N 0.51883 0.02698 0.85084 0.0
N363 N 0.38918 0.90878 0.80345 0.0
C364 C 0.48358 0.00242 0.83952 0.0
C365 C 0.41674 0.94228 0.81528 0.0
N366 N 0.4835 0.02509 0.76509 0.0
N367 N 0.40227 0.93692 0.89164 0.0
H368 H 0.38123 0.89976 0.77122 0.0
H369 H 0.37675 0.88765 0.82548 0.0
H370 H 0.40871 0.94451 0.92452 0.0
H371 H 0.37365 0.92053 0.88538 0.0
H372 H 0.50326 0.05194 0.77271 0.0
H373 H 0.47312 0.02268 0.73267 0.0
H374 H 0.53817 0.04106 0.8284 0.0
H375 H 0.52996 0.03153 0.88288 0.0
C376 C 0.5438 0.44795 0.71106 0.0
C377 C 0.57913 0.42944 0.69506 0.0
C378 C 0.56884 0.46527 0.62646 0.0
C379 C 0.53001 0.47809 0.64035 0.0
N380 N 0.47591 0.46905 0.69126 0.0
N381 N 0.62046 0.41341 0.63332 0.0
C382 C 0.51616 0.46524 0.68143 0.0
C383 C 0.59017 0.43577 0.65132 0.0
N384 N 0.53773 0.45163 0.7547 0.0
N385 N 0.58681 0.48316 0.59168 0.0
H386 H 0.63547 0.39038 0.64991 0.0
H387 H 0.62761 0.4147 0.60065 0.0
H388 H 0.57456 0.5087 0.57687 0.0
H389 H 0.6163 0.47684 0.58182 0.0
H390 H 0.51452 0.4691 0.76776 0.0
H391 H 0.55876 0.44205 0.77796 0.0
H392 H 0.46258 0.45773 0.71931 0.0
H393 H 0.46258 0.45773 0.71931 0.0
C394 C 0.90629 0.52987 0.19188 0.0
C395 C 0.90471 0.57446 0.2001 0.0
C396 C 0.94666 0.58839 0.13658 0.0
C397 C 0.95072 0.54412 0.13059 0.0
N398 N 0.92401 0.47283 0.14154 0.0
N399 N 0.91153 0.64507 0.17264 0.0
C400 C 0.92636 0.51497 0.15434 0.0
C401 C 0.92082 0.60338 0.16963 0.0
N402 N 0.89137 0.50198 0.22137 0.0
N403 N 0.96978 0.61601 0.11266 0.0
H404 H 0.89244 0.6567 0.1964 0.0
H405 H 0.91953 0.66705 0.14949 0.0
H406 H 0.98802 0.60535 0.0877 0.0
H407 H 0.97219 0.64889 0.11858 0.0
H408 H 0.89575 0.46951 0.21951 0.0
H409 H 0.87684 0.51164 0.24945 0.0
H410 H 0.9045 0.44984 0.15525 0.0
H411 H 0.93894 0.46191 0.11408 0.0
C412 C 0.32717 0.05225 0.10313 0.0
C413 C 0.29888 0.06987 0.07373 0.0
C414 C 0.3457 0.0568 0.01395 0.0
C415 C 0.37463 0.04166 0.04388 0.0
N416 N 0.38683 0.01014 0.11201 0.0
N417 N 0.27555 0.07648 0.99962 0.0
C418 C 0.36293 0.03398 0.08675 0.0
C419 C 0.30627 0.0678 0.02847 0.0
N420 N 0.32196 0.05602 0.1469 0.0
N421 N 0.3569 0.06245 0.97214 0.0
H422 H 0.24636 0.08401 0.00956 0.0
H423 H 0.27767 0.07247 0.9661 0.0
H424 H 0.38475 0.05246 0.96057 0.0
H425 H 0.33951 0.07807 0.94964 0.0
H426 H 0.34408 0.04811 0.1698 0.0
H427 H 0.29713 0.07023 0.1607 0.0
H428 H 0.37852 1.00041 0.14262 0.0
H429 H 0.41283 0.99639 0.10005 0.0
C430 C 0.19534 0.93321 0.51331 0.0
C431 C 0.21213 0.92513 0.55507 0.0
C432 C 0.1446 0.93348 0.58652 0.0
C433 C 0.13001 0.94906 0.54678 0.0
N434 N 0.13512 0.948 0.46906 0.0
N435 N 0.20336 0.91815 0.63199 0.0
C436 C 0.15338 0.94403 0.50895 0.0
C437 C 0.18667 0.92441 0.59168 0.0
N438 N 0.22019 0.9322 0.4783 0.0
N439 N 0.11751 0.92658 0.619 0.0
H440 H 0.234 0.91124 0.63737 0.0
H441 H 0.18772 0.92269 0.66062 0.0
H442 H 0.08622 0.9318 0.61527 0.0
H443 H 0.12481 0.91156 0.64741 0.0
H444 H 0.21209 0.94265 0.44785 0.0
H445 H 0.25012 0.92204 0.48011 0.0
H446 H 0.14917 0.94189 0.4398 0.0
H447 H 0.10405 0.9533 0.46494 0.0
C448 C 0.79931 0.45396 0.98283 0.0
C449 C 0.79802 0.41702 0.95459 0.0
C450 C 0.87312 0.41551 0.9631 0.0
C451 C 0.8749 0.45681 0.98276 0.0
N452 N 0.84098 0.51527 0.01463 0.0
N453 N 0.83506 0.36533 0.91337 0.0
C454 C 0.83826 0.47575 0.99439 0.0
C455 C 0.83521 0.39786 0.94421 0.0
N456 N 0.76341 0.46807 0.99816 0.0
N457 N 0.90825 0.39405 0.96108 0.0
H458 H 0.80854 0.35245 0.89658 0.0
H459 H 0.86195 0.35376 0.90125 0.0
H460 H 0.9363 0.4068 0.97505 0.0
H461 H 0.9085 0.36235 0.95002 0.0
H462 H 0.76233 0.49288 0.0214 0.0
H463 H 0.73467 0.45246 0.99008 0.0
H464 H 0.81569 0.53329 0.01981 0.0
H465 H 0.86931 0.53048 0.02509 0.0
C466 C 0.68672 0.5957 0.49553 0.0
C467 C 0.71104 0.57124 0.46775 0.0
C468 C 0.65922 0.51163 0.47069 0.0
C469 C 0.63057 0.54014 0.48627 0.0
N470 N 0.61753 0.60921 0.51752 0.0
N471 N 0.72 0.50428 0.42862 0.0
C472 C 0.64465 0.58189 0.50114 0.0
C473 C 0.69787 0.52821 0.45629 0.0
N474 N 0.70378 0.63253 0.51538 0.0
N475 N 0.6485 0.4689 0.46824 0.0
H476 H 0.74807 0.51506 0.41625 0.0
H477 H 0.70893 0.47457 0.4154 0.0
H478 H 0.62013 0.45643 0.47892 0.0
H479 H 0.66914 0.44608 0.46016 0.0
H480 H 0.68873 0.65027 0.53855 0.0
H481 H 0.73468 0.64277 0.51163 0.0
H482 H 0.6251 0.64154 0.52417 0.0
H483 H 0.58677 0.59985 0.52261 0.0
C484 C 0.03667 0.31679 0.0775 0.0
C485 C 0.07648 0.30715 0.06356 0.0
C486 C 0.07858 0.37011 0.01836 0.0
C487 C 0.04289 0.38357 0.03866 0.0
N488 N 0.98175 0.36628 0.07753 0.0
N489 N 0.13428 0.322 0.01801 0.0
C490 C 0.01973 0.35533 0.06475 0.0
C491 C 0.09665 0.33249 0.03224 0.0
N492 N 0.0161 0.28967 0.10425 0.0
N493 N 0.09512 0.39371 0.98618 0.0
H494 H 0.14784 0.29439 0.02682 0.0
H495 H 0.15289 0.34111 0.99877 0.0
H496 H 0.0815 0.42061 0.97538 0.0
H497 H 0.11966 0.38494 0.96764 0.0
H498 H 0.98807 0.29515 0.11812 0.0
H499 H 0.02726 0.26063 0.11248 0.0
H500 H 0.96217 0.34796 0.09648 0.0
H501 H 0.96879 0.39369 0.06694 0.0
C502 C 0.61294 0.15416 0.92779 0.0
C503 C 0.59053 0.17177 0.89337 0.0
C504 C 0.52789 0.12922 0.91128 0.0
C505 C 0.5486 0.11753 0.94947 0.0
N506 N 0.61155 0.10734 0.98887 0.0
N507 N 0.52987 0.17119 0.8466 0.0
C508 C 0.5917 0.12577 0.95555 0.0
C509 C 0.54907 0.15699 0.88277 0.0
N510 N 0.65371 0.16687 0.93533 0.0
N511 N 0.48765 0.1146 0.90365 0.0
H512 H 0.54527 0.19089 0.82504 0.0
H513 H 0.49921 0.16337 0.83726 0.0
H514 H 0.47263 0.09346 0.92418 0.0
H515 H 0.46969 0.12136 0.87668 0.0
H516 H 0.67134 0.15848 0.96193 0.0
H517 H 0.67021 0.18687 0.91491 0.0
H518 H 0.64336 0.10961 0.99448 0.0
H519 H 0.59584 0.08695 0.00957 0.0
C520 C 0.9938 0.80353 0.46164 0.0
C521 C 0.95322 0.78973 0.47268 0.0
C522 C 0.94191 0.86098 0.50261 0.0
C523 C 0.97805 0.87624 0.48221 0.0
N524 N 0.04492 0.8634 0.45661 0.0
N525 N 0.89497 0.80007 0.51734 0.0
C526 C 0.00669 0.84754 0.46749 0.0
C527 C 0.92975 0.81666 0.49871 0.0
N528 N 0.01825 0.77482 0.44283 0.0
N529 N 0.91769 0.88969 0.52182 0.0
H530 H 0.88579 0.76771 0.51451 0.0
H531 H 0.87684 0.81733 0.53793 0.0
H532 H 0.92688 0.9221 0.52459 0.0
H533 H 0.88898 0.88202 0.53453 0.0
H534 H 0.04739 0.78254 0.43113 0.0
H535 H 0.00886 0.74243 0.4395 0.0
H536 H 0.0683 0.84493 0.4459 0.0
H537 H 0.05351 0.89588 0.46085 0.0
C538 C 0.49296 0.72769 0.55271 0.0
C539 C 0.45424 0.73947 0.53642 0.0
C540 C 0.43966 0.66722 0.50381 0.0
C541 C 0.47469 0.65382 0.52674 0.0
N542 N 0.53556 0.67048 0.57227 0.0
N543 N 0.39045 0.72151 0.49585 0.0
C544 C 0.50202 0.68407 0.55032 0.0
C545 C 0.42786 0.70975 0.51094 0.0
N546 N 0.52097 0.75837 0.57044 0.0
N547 N 0.41713 0.63885 0.47628 0.0
H548 H 0.38108 0.75243 0.49996 0.0
H549 H 0.36765 0.70036 0.48132 0.0
H550 H 0.42436 0.60725 0.47169 0.0
H551 H 0.39354 0.64721 0.45539 0.0
H552 H 0.5512 0.75272 0.57942 0.0
H553 H 0.51504 0.79055 0.57279 0.0
H554 H 0.55393 0.68954 0.59457 0.0
H555 H 0.54395 0.63909 0.56955 0.0
C556 C 0.90467 0.95947 0.6923 0.0
C557 C 0.92521 0.92983 0.7173 0.0
C558 C 0.97339 0.92017 0.65809 0.0
C559 C 0.95796 0.95547 0.63753 0.0
N560 N 0.90799 0.00815 0.63298 0.0
N561 N 0.98022 0.88238 0.72463 0.0
C562 C 0.92278 0.97446 0.65365 0.0
C563 C 0.95941 0.90958 0.69998 0.0
N564 N 0.86781 0.97308 0.70562 0.0
N565 N 0.00179 0.89717 0.63745 0.0
H566 H 0.97114 0.87383 0.7554 0.0
H567 H 0.00811 0.87046 0.71593 0.0
H568 H 0.01177 0.90436 0.60654 0.0
H569 H 0.01214 0.8689 0.64871 0.0
H570 H 0.8494 0.9919 0.68727 0.0
H571 H 0.85386 0.96241 0.7336 0.0
H572 H 0.88574 0.02707 0.64561 0.0
H573 H 0.91935 0.01813 0.60348 0.0
C574 C 0.60707 0.05137 0.19685 0.0
C575 C 0.58322 0.06937 0.22982 0.0
C576 C 0.52068 0.05427 0.18389 0.0
C577 C 0.54563 0.04524 0.14815 0.0
N578 N 0.61237 0.03288 0.11999 0.0
N579 N 0.51706 0.08593 0.25672 0.0
C580 C 0.58871 0.04193 0.15466 0.0
C581 C 0.53973 0.06933 0.22426 0.0
N582 N 0.64737 0.04414 0.2059 0.0
N583 N 0.47872 0.04889 0.17863 0.0
H584 H 0.52996 0.09565 0.28721 0.0
H585 H 0.48601 0.09177 0.25301 0.0
H586 H 0.46449 0.0377 0.14919 0.0
H587 H 0.45839 0.05169 0.20391 0.0
H588 H 0.66572 0.02785 0.18464 0.0
H589 H 0.66135 0.0512 0.23649 0.0
H590 H 0.6445 0.03473 0.12137 0.0
H591 H 0.59971 0.02526 0.08895 0.0
C592 C 0.38772 0.56385 0.34245 0.0
C593 C 0.4081 0.60036 0.32524 0.0
C594 C 0.46209 0.60047 0.38244 0.0
C595 C 0.44721 0.55888 0.39212 0.0
N596 N 0.3928 0.50372 0.38932 0.0
N597 N 0.46151 0.65741 0.33166 0.0
C598 C 0.40826 0.54202 0.37545 0.0
C599 C 0.44366 0.62072 0.34705 0.0
N600 N 0.34955 0.54968 0.32592 0.0
N601 N 0.49509 0.6193 0.40605 0.0
H602 H 0.44825 0.67338 0.3064 0.0
H603 H 0.48992 0.67151 0.34288 0.0
H604 H 0.50927 0.60381 0.43117 0.0
H605 H 0.50617 0.65082 0.40334 0.0
H606 H 0.33183 0.5242 0.33769 0.0
H607 H 0.33436 0.5657 0.30185 0.0
H608 H 0.3663 0.487 0.37627 0.0
H609 H 0.40739 0.48853 0.41443 0.0
C610 C 0.05835 0.40867 0.84303 0.0
C611 C 0.09204 0.43082 0.82336 0.0
C612 C 0.0855 0.49262 0.87347 0.0
C613 C 0.05008 0.4716 0.89051 0.0
N614 N 0.01099 0.4064 0.90279 0.0
N615 N 0.14472 0.48859 0.82728 0.0
C616 C 0.03971 0.42821 0.87928 0.0
C617 C 0.10807 0.47111 0.84123 0.0
N618 N 0.04235 0.37036 0.82529 0.0
N619 N 0.09598 0.53395 0.88672 0.0
H620 H 0.16174 0.47347 0.80373 0.0
H621 H 0.15984 0.51624 0.84118 0.0
H622 H 0.0809 0.54907 0.91188 0.0
H623 H 0.11846 0.55335 0.87241 0.0
H624 H 0.01513 0.35489 0.83522 0.0
H625 H 0.05472 0.35516 0.79847 0.0
H626 H 0.00396 0.37369 0.89896 0.0
H627 H 0.99722 0.42086 0.92923 0.0
C628 C 0.69987 0.94549 0.99901 0.0
C629 C 0.7184 0.96402 0.96247 0.0
C630 C 0.6548 1.00023 0.94704 0.0
C631 C 0.63615 0.98082 0.98299 0.0
N632 N 0.64425 0.94551 0.05 0.0
N633 N 0.71774 0.01714 0.90849 0.0
C634 C 0.66006 0.95712 0.0113 0.0
C635 C 0.69718 0.99414 0.93871 0.0
N636 N 0.71918 0.91485 0.02047 0.0
N637 N 0.63142 0.02247 0.91955 0.0
H638 H 0.74857 0.01321 0.90163 0.0
H639 H 0.70552 0.04244 0.89296 0.0
H640 H 0.6009 0.0286 0.92556 0.0
H641 H 0.64152 0.0332 0.88994 0.0
H642 H 0.7052 0.89662 0.04405 0.0
H643 H 0.7482 0.90516 0.0125 0.0
H644 H 0.66133 0.93181 0.0742 0.0
H645 H 0.61506 0.95347 0.05955 0.0
C646 C 0.80973 0.05079 0.47429 0.0
C647 C 0.81188 0.09487 0.46623 0.0
C648 C 0.88737 0.09869 0.47635 0.0
C649 C 0.8853 0.05413 0.48225 0.0
N650 N 0.84517 0.99071 0.50024 0.0
N651 N 0.85026 0.163 0.47164 0.0
C652 C 0.84652 0.03123 0.48579 0.0
C653 C 0.84999 0.11959 0.47158 0.0
N654 N 0.77289 0.02728 0.46877 0.0
N655 N 0.92482 0.12042 0.47232 0.0
H656 H 0.82329 0.17894 0.46783 0.0
H657 H 0.87638 0.18318 0.47935 0.0
H658 H 0.95279 0.10644 0.47641 0.0
H659 H 0.92829 0.15175 0.46276 0.0
H660 H 0.77007 0.99415 0.46882 0.0
H661 H 0.74514 0.04092 0.46188 0.0
H662 H 0.81792 0.97329 0.50703 0.0
H663 H 0.87181 0.97611 0.50951 0.0
C664 C 0.18816 0.62253 0.03776 0.0
C665 C 0.21767 0.59236 0.04608 0.0
C666 C 0.16612 0.53408 0.02598 0.0
C667 C 0.13522 0.56367 0.02692 0.0
N668 N 0.11568 0.63555 0.02614 0.0
N669 N 0.23665 0.51957 0.04531 0.0
C670 C 0.14608 0.60793 0.02964 0.0
C671 C 0.20745 0.54811 0.03834 0.0
N672 N 0.20056 0.66489 0.03809 0.0
N673 N 0.15529 0.4925 0.01396 0.0
H674 H 0.26745 0.52888 0.05332 0.0
H675 H 0.23022 0.48674 0.04505 0.0
H676 H 0.12498 0.48226 0.00458 0.0
H677 H 0.17633 0.4693 0.00948 0.0
H678 H 0.18137 0.68865 0.0298 0.0
H679 H 0.23128 0.67611 0.04393 0.0
H680 H 0.11987 0.66829 0.0324 0.0
H681 H 0.08565 0.62473 0.01663 0.0
C682 C 0.31761 0.4151 0.5446 0.0
C683 C 0.28358 0.4413 0.54708 0.0
C684 C 0.32662 0.50177 0.52178 0.0
C685 C 0.36113 0.4766 0.52332 0.0
N686 N 0.38778 0.40725 0.52156 0.0
N687 N 0.25233 0.50545 0.52811 0.0
C688 C 0.35581 0.43235 0.52933 0.0
C689 C 0.28698 0.48335 0.53202 0.0
N690 N 0.31439 0.37488 0.55992 0.0
N691 N 0.33252 0.54366 0.5121 0.0
H692 H 0.22309 0.49229 0.53529 0.0
H693 H 0.2518 0.53538 0.51514 0.0
H694 H 0.36099 0.55664 0.5022 0.0
H695 H 0.30998 0.56555 0.51427 0.0
H696 H 0.33934 0.35613 0.56378 0.0
H697 H 0.28719 0.36086 0.57159 0.0
H698 H 0.38511 0.37412 0.52168 0.0
H699 H 0.41609 0.41947 0.51068 0.0
C700 C 0.96354 0.72165 0.99406 0.0
C701 C 0.92813 0.72743 0.96708 0.0
C702 C 0.91272 0.65 0.96292 0.0
C703 C 0.95214 0.6438 0.98188 0.0
N704 N 0.01368 0.67345 0.01984 0.0
N705 N 0.87063 0.69623 0.92255 0.0
C706 C 0.97695 0.6796 0.99934 0.0
C707 C 0.90281 0.69137 0.95114 0.0
N708 N 0.98381 0.75632 0.01509 0.0
N709 N 0.88454 0.61594 0.95648 0.0
H710 H 0.86245 0.7258 0.91241 0.0
H711 H 0.85425 0.67067 0.90595 0.0
H712 H 0.89063 0.58547 0.96598 0.0
H713 H 0.85397 0.61878 0.94641 0.0
H714 H 0.00759 0.75436 0.03815 0.0
H715 H 0.97455 0.78719 0.01193 0.0
H716 H 0.03595 0.69782 0.02867 0.0
H717 H 0.02191 0.64321 0.02743 0.0
C718 C 0.39674 0.85266 0.06996 0.0
C719 C 0.41669 0.83671 0.107 0.0
C720 C 0.47206 0.89318 0.10466 0.0
C721 C 0.45516 0.90458 0.06447 0.0
N722 N 0.39512 0.90958 0.01895 0.0
N723 N 0.46425 0.85013 0.16803 0.0
C724 C 0.41471 0.88969 0.05132 0.0
C725 C 0.45109 0.8604 0.12758 0.0
N726 N 0.36325 0.83045 0.05023 0.0
N727 N 0.50968 0.91139 0.11863 0.0
H728 H 0.4489 0.82608 0.18494 0.0
H729 H 0.48781 0.86738 0.18602 0.0
H730 H 0.52447 0.93606 0.1021 0.0
H731 H 0.52634 0.9017 0.14539 0.0
H732 H 0.35062 0.83797 0.0203 0.0
H733 H 0.34919 0.80304 0.06257 0.0
H734 H 0.36436 0.90235 0.00928 0.0
H735 H 0.40915 0.93623 0.0049 0.0
C736 C 0.07144 0.19601 0.52526 0.0
C737 C 0.04747 0.21895 0.5545 0.0
C738 C 0.00056 0.15574 0.56079 0.0
C739 C 0.03118 0.13111 0.54292 0.0
N740 N 0.09031 0.1261 0.49894 0.0
N741 N 0.98399 0.22503 0.59118 0.0
C742 C 0.06411 0.15096 0.52065 0.0
C743 C 0.00947 0.20037 0.56827 0.0
N744 N 0.10253 0.2173 0.50449 0.0
N745 N 0.9646 0.13548 0.57307 0.0
H746 H 0.99033 0.25789 0.59576 0.0
H747 H 0.9571 0.21339 0.60538 0.0
H748 H 0.95892 0.10257 0.56788 0.0
H749 H 0.93988 0.15101 0.58535 0.0
H750 H 0.12073 0.20318 0.48152 0.0
H751 H 0.10796 0.25031 0.50832 0.0
H752 H 0.11715 0.13763 0.48459 0.0
H753 H 0.08489 0.09305 0.49598 0.0
C754 C 0.55552 0.31791 0.49973 0.0
C755 C 0.55392 0.29845 0.45721 0.0
C756 C 0.50319 0.34822 0.43555 0.0
C757 C 0.51417 0.37466 0.47294 0.0
N758 N 0.54466 0.38068 0.54546 0.0
N759 N 0.52744 0.29784 0.38283 0.0
C760 C 0.53786 0.35799 0.507 0.0
C761 C 0.52728 0.31362 0.4248 0.0
N762 N 0.57371 0.29779 0.53293 0.0
N763 N 0.47061 0.35759 0.40948 0.0
H764 H 0.54596 0.27388 0.37249 0.0
H765 H 0.51191 0.3114 0.35736 0.0
H766 H 0.45246 0.38282 0.41738 0.0
H767 H 0.45924 0.33786 0.38324 0.0
H768 H 0.57307 0.30805 0.56541 0.0
H769 H 0.58628 0.26834 0.52822 0.0
H770 H 0.5658 0.3729 0.56933 0.0
H771 H 0.52874 0.40723 0.55388 0.0
loop_
_geom_bond_atom_site_label_1
_geom_bond_atom_site_label_2
_geom_bond_distance
_geom_bond_site_symmetry_2
_ccdc_geom_bond_type
P0 O11 1.490 . S
P0 C14 1.812 . S
P0 C20 1.803 . S
P0 C26 1.819 . S
H1 C15 0.941 . S
H2 C16 0.939 . S
H3 C18 0.940 . S
H4 C19 0.940 . S
H5 C21 0.939 . S
H6 C22 0.942 . S
H7 C24 0.940 . S
H8 C25 0.939 . S
H9 C27 0.941 . S
H10 C31 0.939 . S
O11 P0 1.490 . S
H12 C28 0.939 . S
H13 C30 0.940 . S
C14 P0 1.812 . S
C14 C15 1.389 . S
C14 C19 1.391 . S
C15 H1 0.941 . S
C15 C14 1.389 . S
C15 C16 1.397 . S
C16 H2 0.939 . S
C16 C15 1.397 . S
C16 C17 1.378 . S
C17 C16 1.378 . S
C17 C18 1.378 . S
C18 H3 0.940 . S
C18 C17 1.378 . S
C18 C19 1.396 . S
C19 H4 0.940 . S
C19 C14 1.391 . S
C19 C18 1.396 . S
C20 P0 1.803 . S
C20 C21 1.378 . S
C20 C25 1.400 . S
C21 H5 0.939 . S
C21 C20 1.378 . S
C21 C22 1.361 . S
C22 H6 0.942 . S
C22 C21 1.361 . S
C22 C23 1.369 . S
C23 C22 1.369 . S
C23 C24 1.404 . S
C24 H7 0.940 . S
C24 C23 1.404 . S
C24 C25 1.389 . S
C25 H8 0.939 . S
C25 C20 1.400 . S
C25 C24 1.389 . S
C26 P0 1.819 . S
C26 C27 1.391 . S
C26 C31 1.391 . S
C27 H9 0.941 . S
C27 C26 1.391 . S
C27 C28 1.396 . S
C28 H12 0.939 . S
C28 C27 1.396 . S
C28 C29 1.397 . S
C29 C28 1.397 . S
C29 C30 1.385 . S
C30 H13 0.940 . S
C30 C29 1.385 . S
C30 C31 1.388 . S
C31 H10 0.939 . S
C31 C26 1.391 . S
C31 C30 1.388 . S
P32 O43 1.490 . S
P32 C46 1.812 . S
P32 C52 1.803 . S
P32 C58 1.819 . S
H33 C47 0.941 . S
H34 C48 0.939 . S
H35 C50 0.940 . S
H36 C51 0.940 . S
H37 C53 0.939 . S
H38 C54 0.942 . S
H39 C56 0.940 . S
H40 C57 0.939 . S
H41 C59 0.941 . S
H42 C63 0.939 . S
O43 P32 1.490 . S
H44 C60 0.939 . S
H45 C62 0.940 . S
C46 P32 1.812 . S
C46 C47 1.389 . S
C46 C51 1.391 . S
C47 H33 0.941 . S
C47 C46 1.389 . S
C47 C48 1.397 . S
C48 H34 0.939 . S
C48 C47 1.397 . S
C48 C49 1.378 . S
C49 C48 1.378 . S
C49 C50 1.378 . S
C50 H35 0.940 . S
C50 C49 1.378 . S
C50 C51 1.396 . S
C51 H36 0.940 . S
C51 C46 1.391 . S
C51 C50 1.396 . S
C52 P32 1.803 . S
C52 C53 1.378 . S
C52 C57 1.400 . S
C53 H37 0.939 . S
C53 C52 1.378 . S
C53 C54 1.361 . S
C54 H38 0.942 . S
C54 C53 1.361 . S
C54 C55 1.369 . S
C55 C54 1.369 . S
C55 C56 1.404 . S
C56 H39 0.940 . S
C56 C55 1.404 . S
C56 C57 1.389 . S
C57 H40 0.939 . S
C57 C52 1.400 . S
C57 C56 1.389 . S
C58 P32 1.819 . S
C58 C59 1.391 . S
C58 C63 1.391 . S
C59 H41 0.941 . S
C59 C58 1.391 . S
C59 C60 1.396 . S
C60 H44 0.939 . S
C60 C59 1.396 . S
C60 C61 1.397 . S
C61 C60 1.397 . S
C61 C62 1.385 . S
C62 H45 0.940 . S
C62 C61 1.385 . S
C62 C63 1.388 . S
C63 H42 0.939 . S
C63 C58 1.391 . S
C63 C62 1.388 . S
P64 O75 1.490 . S
P64 C78 1.812 . S
P64 C84 1.803 . S
P64 C90 1.819 . S
H65 C79 0.941 . S
H66 C80 0.939 . S
H67 C82 0.940 . S
H68 C83 0.940 . S
H69 C85 0.939 . S
H70 C86 0.942 . S
H71 C88 0.940 . S
H72 C89 0.939 . S
H73 C91 0.941 . S
H74 C95 0.939 . S
O75 P64 1.490 . S
H76 C92 0.939 . S
H77 C94 0.940 . S
C78 P64 1.812 . S
C78 C79 1.389 . S
C78 C83 1.391 . S
C79 H65 0.941 . S
C79 C78 1.389 . S
C79 C80 1.397 . S
C80 H66 0.939 . S
C80 C79 1.397 . S
C80 C81 1.378 . S
C81 C80 1.378 . S
C81 C82 1.378 . S
C82 H67 0.940 . S
C82 C81 1.378 . S
C82 C83 1.396 . S
C83 H68 0.940 . S
C83 C78 1.391 . S
C83 C82 1.396 . S
C84 P64 1.803 . S
C84 C85 1.378 . S
C84 C89 1.400 . S
C85 H69 0.939 . S
C85 C84 1.378 . S
C85 C86 1.361 . S
C86 H70 0.942 . S
C86 C85 1.361 . S
C86 C87 1.369 . S
C87 C86 1.369 . S
C87 C88 1.404 . S
C88 H71 0.940 . S
C88 C87 1.404 . S
C88 C89 1.389 . S
C89 H72 0.939 . S
C89 C84 1.400 . S
C89 C88 1.389 . S
C90 P64 1.819 . S
C90 C91 1.391 . S
C90 C95 1.391 . S
C91 H73 0.941 . S
C91 C90 1.391 . S
C91 C92 1.396 . S
C92 H76 0.939 . S
C92 C91 1.396 . S
C92 C93 1.397 . S
C93 C92 1.397 . S
C93 C94 1.385 . S
C94 H77 0.940 . S
C94 C93 1.385 . S
C94 C95 1.388 . S
C95 H74 0.939 . S
C95 C90 1.391 . S
C95 C94 1.388 . S
P96 O107 1.490 . S
P96 C110 1.812 . S
P96 C116 1.803 . S
P96 C122 1.819 . S
H97 C111 0.941 . S
H98 C112 0.939 . S
H99 C114 0.940 . S
H100 C115 0.940 . S
H101 C117 0.939 . S
H102 C118 0.942 . S
H103 C120 0.940 . S
H104 C121 0.939 . S
H105 C123 0.941 . S
H106 C127 0.939 . S
O107 P96 1.490 . S
H108 C124 0.939 . S
H109 C126 0.940 . S
C110 P96 1.812 . S
C110 C111 1.389 . S
C110 C115 1.391 . S
C111 H97 0.941 . S
C111 C110 1.389 . S
C111 C112 1.397 . S
C112 H98 0.939 . S
C112 C111 1.397 . S
C112 C113 1.378 . S
C113 C112 1.378 . S
C113 C114 1.378 . S
C114 H99 0.940 . S
C114 C113 1.378 . S
C114 C115 1.396 . S
C115 H100 0.940 . S
C115 C110 1.391 . S
C115 C114 1.396 . S
C116 P96 1.803 . S
C116 C117 1.378 . S
C116 C121 1.400 . S
C117 H101 0.939 . S
C117 C116 1.378 . S
C117 C118 1.361 . S
C118 H102 0.942 . S
C118 C117 1.361 . S
C118 C119 1.369 . S
C119 C118 1.369 . S
C119 C120 1.404 . S
C120 H103 0.940 . S
C120 C119 1.404 . S
C120 C121 1.389 . S
C121 H104 0.939 . S
C121 C116 1.400 . S
C121 C120 1.389 . S
C122 P96 1.819 . S
C122 C123 1.391 . S
C122 C127 1.391 . S
C123 H105 0.941 . S
C123 C122 1.391 . S
C123 C124 1.396 . S
C124 H108 0.939 . S
C124 C123 1.396 . S
C124 C125 1.397 . S
C125 C124 1.397 . S
C125 C126 1.385 . S
C126 H109 0.940 . S
C126 C125 1.385 . S
C126 C127 1.388 . S
C127 H106 0.939 . S
C127 C122 1.391 . S
C127 C126 1.388 . S
P128 O139 1.490 . S
P128 C142 1.812 . S
P128 C148 1.803 . S
P128 C154 1.819 . S
H129 C143 0.941 . S
H130 C144 0.939 1_554 S
H131 C146 0.940 . S
H132 C147 0.940 . S
H133 C149 0.939 . S
H134 C150 0.942 . S
H135 C152 0.940 . S
H136 C153 0.939 . S
H137 C155 0.941 . S
H138 C159 0.939 . S
O139 P128 1.490 . S
H140 C156 0.921 1_545 S
H141 C158 0.940 . S
C142 P128 1.812 . S
C142 C143 1.389 . S
C142 C147 1.391 . S
C143 H129 0.941 . S
C143 C142 1.389 . S
C143 C144 1.397 . S
C144 H130 0.939 1_556 S
C144 C143 1.397 . S
C144 C145 1.378 . S
C145 C144 1.378 . S
C145 C146 1.378 . S
C146 H131 0.940 . S
C146 C145 1.378 . S
C146 C147 1.396 . S
C147 H132 0.940 . S
C147 C142 1.391 . S
C147 C146 1.396 . S
C148 P128 1.803 . S
C148 C149 1.378 . S
C148 C153 1.400 . S
C149 H133 0.939 . S
C149 C148 1.378 . S
C149 C150 1.361 . S
C150 H134 0.942 . S
C150 C149 1.361 . S
C150 C151 1.369 . S
C151 C150 1.369 . S
C151 C152 1.404 . S
C152 H135 0.940 . S
C152 C151 1.404 . S
C152 C153 1.389 . S
C153 H136 0.939 . S
C153 C148 1.400 . S
C153 C152 1.389 . S
C154 P128 1.819 . S
C154 C155 1.391 . S
C154 C159 1.391 . S
C155 H137 0.941 . S
C155 C154 1.391 . S
C155 C156 1.396 . S
C156 H140 0.921 1_565 S
C156 C155 1.396 . S
C156 C157 1.397 . S
C157 C156 1.397 . S
C157 C158 1.385 . S
C158 H141 0.940 . S
C158 C157 1.385 . S
C158 C159 1.388 . S
C159 H138 0.939 . S
C159 C154 1.391 . S
C159 C158 1.388 . S
P160 O171 1.490 . S
P160 C174 1.812 . S
P160 C180 1.803 . S
P160 C186 1.819 . S
H161 C175 0.941 . S
H162 C176 0.939 . S
H163 C178 0.940 . S
H164 C179 0.940 . S
H165 C181 0.939 . S
H166 C182 0.942 . S
H167 C184 0.940 . S
H168 C185 0.939 . S
H169 C187 0.941 . S
H170 C191 0.939 . S
O171 P160 1.490 . S
H172 C188 0.939 . S
H173 C190 0.940 . S
C174 P160 1.812 . S
C174 C175 1.389 . S
C174 C179 1.391 . S
C175 H161 0.941 . S
C175 C174 1.389 . S
C175 C176 1.397 . S
C176 H162 0.939 . S
C176 C175 1.397 . S
C176 C177 1.378 . S
C177 C176 1.378 . S
C177 C178 1.378 . S
C178 H163 0.940 . S
C178 C177 1.378 . S
C178 C179 1.396 . S
C179 H164 0.940 . S
C179 C174 1.391 . S
C179 C178 1.396 . S
C180 P160 1.803 . S
C180 C181 1.378 . S
C180 C185 1.400 . S
C181 H165 0.939 . S
C181 C180 1.378 . S
C181 C182 1.361 . S
C182 H166 0.942 . S
C182 C181 1.361 . S
C182 C183 1.369 . S
C183 C182 1.369 . S
C183 C184 1.404 . S
C184 H167 0.940 . S
C184 C183 1.404 . S
C184 C185 1.389 . S
C185 H168 0.939 . S
C185 C180 1.400 . S
C185 C184 1.389 . S
C186 P160 1.819 . S
C186 C187 1.391 . S
C186 C191 1.391 . S
C187 H169 0.941 . S
C187 C186 1.391 . S
C187 C188 1.396 . S
C188 H172 0.939 . S
C188 C187 1.396 . S
C188 C189 1.397 . S
C189 C188 1.397 . S
C189 C190 1.385 . S
C190 H173 0.940 . S
C190 C189 1.385 . S
C190 C191 1.388 . S
C191 H170 0.939 . S
C191 C186 1.391 . S
C191 C190 1.388 . S
P192 O203 1.490 . S
P192 C206 1.812 . S
P192 C212 1.803 . S
P192 C218 1.819 . S
H193 C207 0.941 . S
H194 C208 0.939 . S
H195 C210 0.940 . S
H196 C211 0.940 . S
H197 C213 0.939 . S
H198 C214 0.942 . S
H199 C216 0.940 . S
H200 C217 0.939 . S
H201 C219 0.941 . S
H202 C223 0.939 . S
O203 P192 1.490 . S
H204 C220 0.939 . S
H205 C222 0.940 . S
C206 P192 1.812 . S
C206 C207 1.389 . S
C206 C211 1.391 . S
C207 H193 0.941 . S
C207 C206 1.389 . S
C207 C208 1.397 . S
C208 H194 0.939 . S
C208 C207 1.397 . S
C208 C209 1.378 . S
C209 C208 1.378 . S
C209 C210 1.378 . S
C210 H195 0.940 . S
C210 C209 1.378 . S
C210 C211 1.396 . S
C211 H196 0.940 . S
C211 C206 1.391 . S
C211 C210 1.396 . S
C212 P192 1.803 . S
C212 C213 1.378 . S
C212 C217 1.400 . S
C213 H197 0.939 . S
C213 C212 1.378 . S
C213 C214 1.361 . S
C214 H198 0.942 . S
C214 C213 1.361 . S
C214 C215 1.369 . S
C215 C214 1.369 . S
C215 C216 1.404 . S
C216 H199 0.940 . S
C216 C215 1.404 . S
C216 C217 1.389 . S
C217 H200 0.939 . S
C217 C212 1.400 . S
C217 C216 1.389 . S
C218 P192 1.819 . S
C218 C219 1.391 . S
C218 C223 1.391 . S
C219 H201 0.941 . S
C219 C218 1.391 . S
C219 C220 1.396 . S
C220 H204 0.939 . S
C220 C219 1.396 . S
C220 C221 1.397 . S
C221 C220 1.397 . S
C221 C222 1.385 . S
C222 H205 0.940 . S
C222 C221 1.385 . S
C222 C223 1.388 . S
C223 H202 0.939 . S
C223 C218 1.391 . S
C223 C222 1.388 . S
P224 O235 1.490 . S
P224 C238 1.812 . S
P224 C244 1.803 . S
P224 C250 1.819 . S
H225 C239 0.941 . S
H226 C240 0.939 . S
H227 C242 0.940 . S
H228 C243 0.940 . S
H229 C245 0.939 . S
H230 C246 0.942 . S
H231 C248 0.940 . S
H232 C249 0.939 . S
H233 C251 0.941 . S
H234 C255 0.939 . S
O235 P224 1.490 . S
H236 C252 0.939 . S
H237 C254 0.940 . S
C238 P224 1.812 . S
C238 C239 1.389 . S
C238 C243 1.391 . S
C239 H225 0.941 . S
C239 C238 1.389 . S
C239 C240 1.397 . S
C240 H226 0.939 . S
C240 C239 1.397 . S
C240 C241 1.378 . S
C241 C240 1.378 . S
C241 C242 1.378 . S
C242 H227 0.940 . S
C242 C241 1.378 . S
C242 C243 1.396 . S
C243 H228 0.940 . S
C243 C238 1.391 . S
C243 C242 1.396 . S
C244 P224 1.803 . S
C244 C245 1.378 . S
C244 C249 1.400 . S
C245 H229 0.939 . S
C245 C244 1.378 . S
C245 C246 1.361 . S
C246 H230 0.942 . S
C246 C245 1.361 . S
C246 C247 1.369 . S
C247 C246 1.369 . S
C247 C248 1.404 . S
C248 H231 0.940 . S
C248 C247 1.404 . S
C248 C249 1.389 . S
C249 H232 0.939 . S
C249 C244 1.400 . S
C249 C248 1.389 . S
C250 P224 1.819 . S
C250 C251 1.391 . S
C250 C255 1.391 . S
C251 H233 0.941 . S
C251 C250 1.391 . S
C251 C252 1.396 . S
C252 H236 0.939 . S
C252 C251 1.396 . S
C252 C253 1.397 . S
C253 C252 1.397 . S
C253 C254 1.385 . S
C254 H237 0.940 . S
C254 C253 1.385 . S
C254 C255 1.388 . S
C255 H234 0.939 . S
C255 C250 1.391 . S
C255 C254 1.388 . S
O256 Mn257 2.163 1_655 S
O256 C270 1.244 . S
Mn257 O256 2.163 1_455 S
Mn257 O260 2.160 1_545 S
Mn257 O261 2.221 . S
Mn257 O263 2.163 1_445 S
Mn257 O265 2.160 . S
Mn257 O275 2.221 1_445 S
O258 Mn259 2.087 1_545 S
O258 C270 1.256 . S
Mn259 O258 2.087 1_565 S
Mn259 O266 2.089 1_565 S
Mn259 O275 2.290 . S
Mn259 O276 2.251 . S
O260 Mn257 2.160 1_565 S
O260 C271 1.239 . S
O261 Mn257 2.221 . S
O261 Mn262 2.290 . S
O261 C272 1.278 . S
Mn262 O261 2.290 . S
Mn262 O264 2.089 1_545 S
Mn262 O267 2.251 . S
Mn262 O268 2.087 . S
O263 Mn257 2.163 1_665 S
O263 C273 1.244 . S
O264 Mn262 2.089 1_565 S
O264 C271 1.256 . S
O265 Mn257 2.160 . S
O265 C274 1.239 . S
O266 Mn259 2.089 1_545 S
O266 C274 1.256 1_655 S
O267 Mn262 2.251 . S
O267 C272 1.241 . S
O268 Mn262 2.087 . S
O268 C273 1.256 1_445 S
C269 O275 1.278 . S
C269 O276 1.241 . S
C270 O256 1.244 . S
C270 O258 1.256 . S
C271 O260 1.239 . S
C271 O264 1.256 . S
C272 O261 1.278 . S
C272 O267 1.241 . S
C273 O263 1.244 . S
C273 O268 1.256 1_665 S
C274 O265 1.239 . S
C274 O266 1.256 1_455 S
O275 Mn257 2.221 1_665 S
O275 Mn259 2.290 . S
O275 C269 1.278 . S
O276 Mn259 2.251 . S
O276 C269 1.241 . S
O277 Mn278 2.163 1_556 S
O277 C291 1.244 1_545 S
Mn278 O277 2.163 1_554 S
Mn278 O281 2.160 . S
Mn278 O282 2.227 . S
Mn278 O284 2.163 . S
Mn278 O286 2.160 1_554 S
Mn278 O296 2.221 1_545 S
O279 Mn280 2.087 . S
O279 C291 1.256 . S
Mn280 O279 2.087 . S
Mn280 O287 2.089 . S
Mn280 O296 2.290 1_556 S
Mn280 O297 2.251 1_556 S
O281 Mn278 2.160 . S
O281 C292 1.239 . S
O282 Mn278 2.227 . S
O282 Mn283 2.308 . S
O282 C293 1.260 1_554 S
Mn283 O282 2.308 . S
Mn283 O285 2.089 . S
Mn283 O288 2.251 1_554 S
Mn283 O289 2.087 . S
O284 Mn278 2.163 . S
O284 C294 1.244 . S
O285 Mn283 2.089 . S
O285 C292 1.256 . S
O286 Mn278 2.160 1_556 S
O286 C295 1.239 1_545 S
O287 Mn280 2.089 . S
O287 C295 1.256 . S
O288 Mn283 2.251 1_556 S
O288 C293 1.241 . S
O289 Mn283 2.087 . S
O289 C294 1.256 . S
C290 O296 1.278 . S
C290 O297 1.241 . S
C291 O277 1.244 1_565 S
C291 O279 1.256 . S
C292 O281 1.239 . S
C292 O285 1.256 . S
C293 O282 1.260 1_556 S
C293 O288 1.241 . S
C294 O284 1.244 . S
C294 O289 1.256 . S
C295 O286 1.239 1_565 S
C295 O287 1.256 . S
O296 Mn278 2.221 1_565 S
O296 Mn280 2.290 1_554 S
O296 C290 1.278 . S
O297 Mn280 2.251 1_554 S
O297 C290 1.241 . S
O298 Mn299 2.163 . S
O298 C312 1.244 . S
Mn299 O298 2.163 . S
Mn299 O302 2.160 . S
Mn299 O303 2.221 . S
Mn299 O305 2.163 . S
Mn299 O307 2.160 . S
Mn299 O317 2.221 . S
O300 Mn301 2.087 . S
O300 C312 1.256 . S
Mn301 O300 2.087 . S
Mn301 O308 2.089 . S
Mn301 O317 2.290 . S
Mn301 O318 2.251 . S
O302 Mn299 2.160 . S
O302 C313 1.239 . S
O303 Mn299 2.221 . S
O303 Mn304 2.290 . S
O303 C314 1.278 . S
Mn304 O303 2.290 . S
Mn304 O306 2.089 . S
Mn304 O309 2.251 . S
Mn304 O310 2.087 . S
O305 Mn299 2.163 . S
O305 C315 1.244 . S
O306 Mn304 2.089 . S
O306 C313 1.256 . S
O307 Mn299 2.160 . S
O307 C316 1.239 . S
O308 Mn301 2.089 . S
O308 C316 1.256 . S
O309 Mn304 2.251 . S
O309 C314 1.241 . S
O310 Mn304 2.087 . S
O310 C315 1.256 . S
C311 O317 1.278 . S
C311 O318 1.241 . S
C312 O298 1.244 . S
C312 O300 1.256 . S
C313 O302 1.239 . S
C313 O306 1.256 . S
C314 O303 1.278 . S
C314 O309 1.241 . S
C315 O305 1.244 . S
C315 O310 1.256 . S
C316 O307 1.239 . S
C316 O308 1.256 . S
O317 Mn299 2.221 . S
O317 Mn301 2.290 . S
O317 C311 1.278 . S
O318 Mn301 2.251 . S
O318 C311 1.241 . S
O319 Mn320 2.163 1_655 S
O319 C333 1.244 1_554 S
Mn320 O319 2.163 1_455 S
Mn320 O323 2.160 . S
Mn320 O324 2.221 1_455 S
Mn320 O326 2.163 . S
Mn320 O328 2.160 1_454 S
Mn320 O338 2.221 1_554 S
O321 Mn322 2.087 . S
O321 C333 1.256 . S
Mn322 O321 2.087 . S
Mn322 O329 2.089 . S
Mn322 O338 2.290 1_655 S
Mn322 O339 2.251 . S
O323 Mn320 2.160 . S
O323 C334 1.239 . S
O324 Mn320 2.221 1_655 S
O324 Mn325 2.290 1_655 S
O324 C335 1.278 . S
Mn325 O324 2.290 1_455 S
Mn325 O327 2.089 . S
Mn325 O330 2.251 1_455 S
Mn325 O331 2.087 . S
O326 Mn320 2.163 . S
O326 C336 1.244 . S
O327 Mn325 2.089 . S
O327 C334 1.256 . S
O328 Mn320 2.160 1_656 S
O328 C337 1.239 . S
O329 Mn322 2.089 . S
O329 C337 1.256 . S
O330 Mn325 2.251 1_655 S
O330 C335 1.241 . S
O331 Mn325 2.087 . S
O331 C336 1.256 . S
C332 O338 1.278 . S
C332 O339 1.241 1_455 S
C333 O319 1.244 1_556 S
C333 O321 1.256 . S
C334 O323 1.239 . S
C334 O327 1.256 . S
C335 O324 1.278 . S
C335 O330 1.241 . S
C336 O326 1.244 . S
C336 O331 1.256 . S
C337 O328 1.239 . S
C337 O329 1.256 . S
O338 Mn320 2.221 1_556 S
O338 Mn322 2.290 1_455 S
O338 C332 1.278 . S
O339 Mn322 2.251 . S
O339 C332 1.241 1_655 S
C340 C341 1.363 . S
C340 C346 1.379 . S
C340 N348 1.356 . S
C341 C340 1.363 . S
C341 C347 1.363 . S
C342 C343 1.363 . S
C342 C347 1.379 . S
C342 N349 1.356 . S
C343 C342 1.363 . S
C343 C346 1.363 . S
N344 C346 1.356 1_655 S
N344 H356 0.984 . S
N344 H357 0.985 . S
N345 C347 1.356 . S
N345 H350 0.984 . S
N345 H351 0.985 . S
C346 C340 1.379 . S
C346 C343 1.363 . S
C346 N344 1.356 1_455 S
C347 C341 1.363 . S
C347 C342 1.379 . S
C347 N345 1.356 . S
N348 C340 1.356 . S
N348 H354 0.984 1_455 S
N348 H355 0.984 . S
N349 C342 1.356 . S
N349 H352 0.984 . S
N349 H353 0.985 . S
H350 N345 0.984 . S
H351 N345 0.985 . S
H352 N349 0.984 . S
H353 N349 0.985 . S
H354 N348 0.984 1_655 S
H355 N348 0.984 . S
H356 N344 0.984 . S
H357 N344 0.985 . S
C358 C359 1.363 . S
C358 C364 1.379 1_565 S
C358 N366 1.356 1_565 S
C359 C358 1.363 . S
C359 C365 1.363 . S
C360 C361 1.363 . S
C360 C365 1.379 . S
C360 N367 1.356 . S
C361 C360 1.363 . S
C361 C364 1.363 1_565 S
N362 C364 1.356 . S
N362 H374 0.984 . S
N362 H375 0.985 . S
N363 C365 1.356 . S
N363 H368 0.984 . S
N363 H369 0.985 . S
C364 C358 1.379 1_545 S
C364 C361 1.363 1_545 S
C364 N362 1.356 . S
C365 C359 1.363 . S
C365 C360 1.379 . S
C365 N363 1.356 . S
N366 C358 1.356 1_545 S
N366 H372 0.984 . S
N366 H373 0.984 1_545 S
N367 C360 1.356 . S
N367 H370 0.984 . S
N367 H371 0.985 . S
H368 N363 0.984 . S
H369 N363 0.985 . S
H370 N367 0.984 . S
H371 N367 0.985 . S
H372 N366 0.984 . S
H373 N366 0.984 1_565 S
H374 N362 0.984 . S
H375 N362 0.985 . S
C376 C377 1.363 . S
C376 C382 1.379 . S
C376 N384 1.356 . S
C377 C376 1.363 . S
C377 C383 1.363 . S
C378 C379 1.363 . S
C378 C383 1.379 . S
C378 N385 1.356 . S
C379 C378 1.363 . S
C379 C382 1.363 . S
N380 C382 1.356 . S
N380 H392 0.984 . S
N380 H393 0.985 . S
N381 C383 1.356 . S
N381 H386 0.984 . S
N381 H387 0.985 . S
C382 C376 1.379 . S
C382 C379 1.363 . S
C382 N380 1.356 . S
C383 C377 1.363 . S
C383 C378 1.379 . S
C383 N381 1.356 . S
N384 C376 1.356 . S
N384 H390 0.984 . S
N384 H391 0.984 . S
N385 C378 1.356 . S
N385 H388 0.984 . S
N385 H389 0.985 . S
H386 N381 0.984 . S
H387 N381 0.985 . S
H388 N385 0.984 . S
H389 N385 0.985 . S
H390 N384 0.984 . S
H391 N384 0.984 . S
H392 N380 0.984 . S
H393 N380 0.985 . S
C394 C395 1.363 . S
C394 C400 1.379 . S
C394 N402 1.356 . S
C395 C394 1.363 . S
C395 C401 1.363 . S
C396 C397 1.363 . S
C396 C401 1.379 . S
C396 N403 1.356 . S
C397 C396 1.363 . S
C397 C400 1.363 . S
N398 C400 1.356 . S
N398 H410 0.984 . S
N398 H411 0.985 . S
N399 C401 1.356 . S
N399 H404 0.984 . S
N399 H405 0.985 . S
C400 C394 1.379 . S
C400 C397 1.363 . S
C400 N398 1.356 . S
C401 C395 1.363 . S
C401 C396 1.379 . S
C401 N399 1.356 . S
N402 C394 1.356 . S
N402 H408 0.984 . S
N402 H409 0.984 . S
N403 C396 1.356 . S
N403 H406 0.984 . S
N403 H407 0.985 . S
H404 N399 0.984 . S
H405 N399 0.985 . S
H406 N403 0.984 . S
H407 N403 0.985 . S
H408 N402 0.984 . S
H409 N402 0.984 . S
H410 N398 0.984 . S
H411 N398 0.985 . S
C412 C413 1.363 . S
C412 C418 1.379 . S
C412 N420 1.356 . S
C413 C412 1.363 . S
C413 C419 1.363 . S
C414 C415 1.363 . S
C414 C419 1.379 . S
C414 N421 1.356 1_554 S
C415 C414 1.363 . S
C415 C418 1.363 . S
N416 C418 1.356 . S
N416 H428 0.984 . S
N416 H429 0.985 . S
N417 C419 1.356 . S
N417 H422 0.984 . S
N417 H423 0.985 1_554 S
C418 C412 1.379 . S
C418 C415 1.363 . S
C418 N416 1.356 . S
C419 C413 1.363 . S
C419 C414 1.379 . S
C419 N417 1.356 . S
N420 C412 1.356 . S
N420 H426 0.984 . S
N420 H427 0.984 . S
N421 C414 1.356 1_556 S
N421 H424 0.984 . S
N421 H425 0.985 . S
H422 N417 0.984 . S
H423 N417 0.985 1_556 S
H424 N421 0.984 . S
H425 N421 0.985 . S
H426 N420 0.984 . S
H427 N420 0.984 . S
H428 N416 0.984 . S
H429 N416 0.985 . S
C430 C431 1.363 . S
C430 C436 1.379 . S
C430 N438 1.356 . S
C431 C430 1.363 . S
C431 C437 1.363 . S
C432 C433 1.363 . S
C432 C437 1.379 . S
C432 N439 1.356 . S
C433 C432 1.363 . S
C433 C436 1.363 . S
N434 C436 1.356 . S
N434 H446 0.984 . S
N434 H447 0.985 . S
N435 C437 1.356 . S
N435 H440 0.984 . S
N435 H441 0.985 . S
C436 C430 1.379 . S
C436 C433 1.363 . S
C436 N434 1.356 . S
C437 C431 1.363 . S
C437 C432 1.379 . S
C437 N435 1.356 . S
N438 C430 1.356 . S
N438 H444 0.984 . S
N438 H445 0.984 . S
N439 C432 1.356 . S
N439 H442 0.984 . S
N439 H443 0.985 . S
H440 N435 0.984 . S
H441 N435 0.985 . S
H442 N439 0.984 . S
H443 N439 0.985 . S
H444 N438 0.984 . S
H445 N438 0.984 . S
H446 N434 0.984 . S
H447 N434 0.985 . S
C448 C449 1.363 . S
C448 C454 1.379 . S
C448 N456 1.356 . S
C449 C448 1.363 . S
C449 C455 1.363 . S
C450 C451 1.363 . S
C450 C455 1.379 . S
C450 N457 1.356 . S
C451 C450 1.363 . S
C451 C454 1.363 . S
N452 C454 1.356 1_554 S
N452 H464 0.984 . S
N452 H465 0.985 . S
N453 C455 1.356 . S
N453 H458 0.984 . S
N453 H459 0.985 . S
C454 C448 1.379 . S
C454 C451 1.363 . S
C454 N452 1.356 1_556 S
C455 C449 1.363 . S
C455 C450 1.379 . S
C455 N453 1.356 . S
N456 C448 1.356 . S
N456 H462 0.984 1_556 S
N456 H463 0.984 . S
N457 C450 1.356 . S
N457 H460 0.984 . S
N457 H461 0.985 . S
H458 N453 0.984 . S
H459 N453 0.985 . S
H460 N457 0.984 . S
H461 N457 0.985 . S
H462 N456 0.984 1_554 S
H463 N456 0.984 . S
H464 N452 0.984 . S
H465 N452 0.985 . S
C466 C467 1.363 . S
C466 C472 1.379 . S
C466 N474 1.356 . S
C467 C466 1.363 . S
C467 C473 1.363 . S
C468 C469 1.363 . S
C468 C473 1.379 . S
C468 N475 1.356 . S
C469 C468 1.363 . S
C469 C472 1.363 . S
N470 C472 1.356 . S
N470 H482 0.984 . S
N470 H483 0.985 . S
N471 C473 1.356 . S
N471 H476 0.984 . S
N471 H477 0.985 . S
C472 C466 1.379 . S
C472 C469 1.363 . S
C472 N470 1.356 . S
C473 C467 1.363 . S
C473 C468 1.379 . S
C473 N471 1.356 . S
N474 C466 1.356 . S
N474 H480 0.984 . S
N474 H481 0.984 . S
N475 C468 1.356 . S
N475 H478 0.984 . S
N475 H479 0.985 . S
H476 N471 0.984 . S
H477 N471 0.985 . S
H478 N475 0.984 . S
H479 N475 0.985 . S
H480 N474 0.984 . S
H481 N474 0.984 . S
H482 N470 0.984 . S
H483 N470 0.985 . S
C484 C485 1.363 . S
C484 C490 1.379 . S
C484 N492 1.356 . S
C485 C484 1.363 . S
C485 C491 1.363 . S
C486 C487 1.363 . S
C486 C491 1.379 . S
C486 N493 1.356 1_554 S
C487 C486 1.363 . S
C487 C490 1.363 . S
N488 C490 1.356 . S
N488 H500 0.983 1_455 S
N488 H501 0.985 . S
N489 C491 1.356 . S
N489 H494 0.984 . S
N489 H495 0.985 1_554 S
C490 C484 1.379 . S
C490 C487 1.363 . S
C490 N488 1.356 . S
C491 C485 1.363 . S
C491 C486 1.379 . S
C491 N489 1.356 . S
N492 C484 1.356 . S
N492 H498 0.984 . S
N492 H499 0.984 . S
N493 C486 1.356 1_556 S
N493 H496 0.984 . S
N493 H497 0.985 . S
H494 N489 0.984 . S
H495 N489 0.985 1_556 S
H496 N493 0.984 . S
H497 N493 0.985 . S
H498 N492 0.984 . S
H499 N492 0.984 . S
H500 N488 0.983 1_655 S
H501 N488 0.985 . S
C502 C503 1.363 . S
C502 C508 1.379 . S
C502 N510 1.356 . S
C503 C502 1.363 . S
C503 C509 1.363 . S
C504 C505 1.363 . S
C504 C509 1.379 . S
C504 N511 1.356 . S
C505 C504 1.363 . S
C505 C508 1.363 . S
N506 C508 1.356 1_554 S
N506 H518 0.984 . S
N506 H519 0.985 . S
N507 C509 1.356 . S
N507 H512 0.984 . S
N507 H513 0.985 . S
C508 C502 1.379 . S
C508 C505 1.363 . S
C508 N506 1.356 1_556 S
C509 C503 1.363 . S
C509 C504 1.379 . S
C509 N507 1.356 . S
N510 C502 1.356 . S
N510 H516 0.984 1_556 S
N510 H517 0.984 . S
N511 C504 1.356 . S
N511 H514 0.984 . S
N511 H515 0.985 . S
H512 N507 0.984 . S
H513 N507 0.985 . S
H514 N511 0.984 . S
H515 N511 0.985 . S
H516 N510 0.984 1_554 S
H517 N510 0.984 . S
H518 N506 0.984 . S
H519 N506 0.985 . S
C520 C521 1.363 . S
C520 C526 1.379 . S
C520 N528 1.356 . S
C521 C520 1.363 . S
C521 C527 1.363 . S
C522 C523 1.363 . S
C522 C527 1.379 . S
C522 N529 1.356 . S
C523 C522 1.363 . S
C523 C526 1.363 . S
N524 C526 1.360 . S
N524 H536 0.980 1_655 S
N524 H537 0.986 1_655 S
N525 C527 1.356 . S
N525 H530 0.984 . S
N525 H531 0.985 . S
C526 C520 1.379 . S
C526 C523 1.363 . S
C526 N524 1.360 . S
C527 C521 1.363 . S
C527 C522 1.379 . S
C527 N525 1.356 . S
N528 C520 1.356 . S
N528 H534 0.984 . S
N528 H535 0.984 . S
N529 C522 1.356 . S
N529 H532 0.984 . S
N529 H533 0.985 . S
H530 N525 0.984 . S
H531 N525 0.985 . S
H532 N529 0.984 . S
H533 N529 0.985 . S
H534 N528 0.984 . S
H535 N528 0.984 . S
H536 N524 0.980 1_455 S
H537 N524 0.986 1_455 S
C538 C539 1.363 . S
C538 C544 1.379 . S
C538 N546 1.356 . S
C539 C538 1.363 . S
C539 C545 1.363 . S
C540 C541 1.363 . S
C540 C545 1.379 . S
C540 N547 1.356 . S
C541 C540 1.363 . S
C541 C544 1.363 . S
N542 C544 1.356 . S
N542 H554 0.984 . S
N542 H555 0.985 . S
N543 C545 1.356 . S
N543 H548 0.984 . S
N543 H549 0.985 . S
C544 C538 1.379 . S
C544 C541 1.363 . S
C544 N542 1.356 . S
C545 C539 1.363 . S
C545 C540 1.379 . S
C545 N543 1.356 . S
N546 C538 1.356 . S
N546 H552 0.984 . S
N546 H553 0.984 . S
N547 C540 1.356 . S
N547 H550 0.984 . S
N547 H551 0.985 . S
H548 N543 0.984 . S
H549 N543 0.985 . S
H550 N547 0.984 . S
H551 N547 0.985 . S
H552 N546 0.984 . S
H553 N546 0.984 . S
H554 N542 0.984 . S
H555 N542 0.985 . S
C556 C557 1.363 . S
C556 C562 1.379 . S
C556 N564 1.359 . S
C557 C556 1.363 . S
C557 C563 1.363 . S
C558 C559 1.363 . S
C558 C563 1.379 . S
C558 N565 1.356 1_655 S
C559 C558 1.363 . S
C559 C562 1.363 . S
N560 C562 1.356 1_545 S
N560 H572 0.984 . S
N560 H573 0.985 . S
N561 C563 1.356 . S
N561 H566 0.984 . S
N561 H567 0.985 . S
C562 C556 1.379 . S
C562 C559 1.363 . S
C562 N560 1.356 1_565 S
C563 C557 1.363 . S
C563 C558 1.379 . S
C563 N561 1.356 . S
N564 C556 1.359 . S
N564 H570 0.979 1_565 S
N564 H571 0.987 . S
N565 C558 1.356 1_455 S
N565 H568 0.984 . S
N565 H569 0.985 . S
H566 N561 0.984 . S
H567 N561 0.985 . S
H568 N565 0.984 . S
H569 N565 0.985 . S
H570 N564 0.979 1_545 S
H571 N564 0.987 . S
H572 N560 0.984 . S
H573 N560 0.985 . S
C574 C575 1.363 . S
C574 C580 1.379 . S
C574 N582 1.356 . S
C575 C574 1.363 . S
C575 C581 1.363 . S
C576 C577 1.363 . S
C576 C581 1.379 . S
C576 N583 1.356 . S
C577 C576 1.363 . S
C577 C580 1.363 . S
N578 C580 1.364 . S
N578 H590 0.976 1_545 S
N578 H591 0.985 . S
N579 C581 1.356 . S
N579 H584 0.984 . S
N579 H585 0.985 . S
C580 C574 1.379 . S
C580 C577 1.363 . S
C580 N578 1.364 . S
C581 C575 1.363 . S
C581 C576 1.379 . S
C581 N579 1.356 . S
N582 C574 1.356 . S
N582 H588 0.984 . S
N582 H589 0.984 . S
N583 C576 1.356 . S
N583 H586 0.984 . S
N583 H587 0.985 . S
H584 N579 0.984 . S
H585 N579 0.985 . S
H586 N583 0.984 . S
H587 N583 0.985 . S
H588 N582 0.984 . S
H589 N582 0.984 . S
H590 N578 0.976 1_565 S
H591 N578 0.985 . S
C592 C593 1.363 . S
C592 C598 1.379 . S
C592 N600 1.356 . S
C593 C592 1.363 . S
C593 C599 1.363 . S
C594 C595 1.363 . S
C594 C599 1.379 . S
C594 N601 1.356 . S
C595 C594 1.363 . S
C595 C598 1.363 . S
N596 C598 1.356 . S
N596 H608 0.984 . S
N596 H609 0.985 . S
N597 C599 1.356 . S
N597 H602 0.984 . S
N597 H603 0.985 . S
C598 C592 1.379 . S
C598 C595 1.363 . S
C598 N596 1.356 . S
C599 C593 1.363 . S
C599 C594 1.379 . S
C599 N597 1.356 . S
N600 C592 1.356 . S
N600 H606 0.984 . S
N600 H607 0.984 . S
N601 C594 1.356 . S
N601 H604 0.984 . S
N601 H605 0.985 . S
H602 N597 0.984 . S
H603 N597 0.985 . S
H604 N601 0.984 . S
H605 N601 0.985 . S
H606 N600 0.984 . S
H607 N600 0.984 . S
H608 N596 0.984 . S
H609 N596 0.985 . S
C610 C611 1.363 . S
C610 C616 1.379 . S
C610 N618 1.356 . S
C611 C610 1.363 . S
C611 C617 1.363 . S
C612 C613 1.363 . S
C612 C617 1.379 . S
C612 N619 1.356 . S
C613 C612 1.363 . S
C613 C616 1.363 . S
N614 C616 1.356 . S
N614 H626 0.988 . S
N614 H627 0.985 . S
N615 C617 1.356 . S
N615 H620 0.984 . S
N615 H621 0.985 . S
C616 C610 1.379 . S
C616 C613 1.363 . S
C616 N614 1.356 . S
C617 C611 1.363 . S
C617 C612 1.379 . S
C617 N615 1.356 . S
N618 C610 1.356 . S
N618 H624 0.984 . S
N618 H625 0.984 . S
N619 C612 1.356 . S
N619 H622 0.984 . S
N619 H623 0.985 . S
H620 N615 0.984 . S
H621 N615 0.985 . S
H622 N619 0.984 . S
H623 N619 0.985 . S
H624 N618 0.984 . S
H625 N618 0.984 . S
H626 N614 0.988 . S
H627 N614 0.985 . S
C628 C629 1.363 . S
C628 C634 1.379 . S
C628 N636 1.356 1_556 S
C629 C628 1.363 . S
C629 C635 1.363 . S
C630 C631 1.363 . S
C630 C635 1.379 . S
C630 N637 1.356 1_565 S
C631 C630 1.363 . S
C631 C634 1.363 . S
N632 C634 1.356 1_554 S
N632 H644 0.984 . S
N632 H645 0.985 . S
N633 C635 1.356 . S
N633 H638 0.984 . S
N633 H639 0.985 1_565 S
C634 C628 1.379 . S
C634 C631 1.363 . S
C634 N632 1.356 1_556 S
C635 C629 1.363 . S
C635 C630 1.379 . S
C635 N633 1.356 . S
N636 C628 1.356 1_554 S
N636 H642 0.984 . S
N636 H643 0.984 1_554 S
N637 C630 1.356 1_545 S
N637 H640 0.984 . S
N637 H641 0.985 . S
H638 N633 0.984 . S
H639 N633 0.985 1_545 S
H640 N637 0.984 . S
H641 N637 0.985 . S
H642 N636 0.984 . S
H643 N636 0.984 1_556 S
H644 N632 0.984 . S
H645 N632 0.985 . S
C646 C647 1.363 . S
C646 C652 1.379 . S
C646 N654 1.356 . S
C647 C646 1.363 . S
C647 C653 1.363 . S
C648 C649 1.363 . S
C648 C653 1.379 . S
C648 N655 1.356 . S
C649 C648 1.363 . S
C649 C652 1.363 . S
N650 C652 1.356 1_565 S
N650 H662 0.984 . S
N650 H663 0.985 . S
N651 C653 1.356 . S
N651 H656 0.984 . S
N651 H657 0.985 . S
C652 C646 1.379 . S
C652 C649 1.363 . S
C652 N650 1.356 1_545 S
C653 C647 1.363 . S
C653 C648 1.379 . S
C653 N651 1.356 . S
N654 C646 1.356 . S
N654 H660 0.984 1_545 S
N654 H661 0.984 . S
N655 C648 1.356 . S
N655 H658 0.984 . S
N655 H659 0.985 . S
H656 N651 0.984 . S
H657 N651 0.985 . S
H658 N655 0.984 . S
H659 N655 0.985 . S
H660 N654 0.984 1_565 S
H661 N654 0.984 . S
H662 N650 0.984 . S
H663 N650 0.985 . S
C664 C665 1.363 . S
C664 C670 1.379 . S
C664 N672 1.356 . S
C665 C664 1.363 . S
C665 C671 1.363 . S
C666 C667 1.363 . S
C666 C671 1.379 . S
C666 N673 1.356 . S
C667 C666 1.363 . S
C667 C670 1.363 . S
N668 C670 1.356 . S
N668 H680 0.984 . S
N668 H681 0.985 . S
N669 C671 1.356 . S
N669 H674 0.984 . S
N669 H675 0.985 . S
C670 C664 1.379 . S
C670 C667 1.363 . S
C670 N668 1.356 . S
C671 C665 1.363 . S
C671 C666 1.379 . S
C671 N669 1.356 . S
N672 C664 1.356 . S
N672 H678 0.984 . S
N672 H679 0.984 . S
N673 C666 1.356 . S
N673 H676 0.984 . S
N673 H677 0.985 . S
H674 N669 0.984 . S
H675 N669 0.985 . S
H676 N673 0.984 . S
H677 N673 0.985 . S
H678 N672 0.984 . S
H679 N672 0.984 . S
H680 N668 0.984 . S
H681 N668 0.985 . S
C682 C683 1.363 . S
C682 C688 1.379 . S
C682 N690 1.356 . S
C683 C682 1.363 . S
C683 C689 1.363 . S
C684 C685 1.363 . S
C684 C689 1.379 . S
C684 N691 1.356 . S
C685 C684 1.363 . S
C685 C688 1.363 . S
N686 C688 1.356 . S
N686 H698 0.984 . S
N686 H699 0.985 . S
N687 C689 1.356 . S
N687 H692 0.984 . S
N687 H693 0.985 . S
C688 C682 1.379 . S
C688 C685 1.363 . S
C688 N686 1.356 . S
C689 C683 1.363 . S
C689 C684 1.379 . S
C689 N687 1.356 . S
N690 C682 1.356 . S
N690 H696 0.984 . S
N690 H697 0.984 . S
N691 C684 1.356 . S
N691 H694 0.984 . S
N691 H695 0.985 . S
H692 N687 0.984 . S
H693 N687 0.985 . S
H694 N691 0.984 . S
H695 N691 0.985 . S
H696 N690 0.984 . S
H697 N690 0.984 . S
H698 N686 0.984 . S
H699 N686 0.985 . S
C700 C701 1.363 . S
C700 C706 1.379 . S
C700 N708 1.356 1_556 S
C701 C700 1.363 . S
C701 C707 1.363 . S
C702 C703 1.363 . S
C702 C707 1.379 . S
C702 N709 1.356 . S
C703 C702 1.363 . S
C703 C706 1.363 . S
N704 C706 1.356 1_554 S
N704 H716 0.984 1_655 S
N704 H717 0.985 . S
N705 C707 1.356 . S
N705 H710 0.984 . S
N705 H711 0.985 . S
C706 C700 1.379 . S
C706 C703 1.363 . S
C706 N704 1.356 1_556 S
C707 C701 1.363 . S
C707 C702 1.379 . S
C707 N705 1.356 . S
N708 C700 1.356 1_554 S
N708 H714 0.984 . S
N708 H715 0.984 1_554 S
N709 C702 1.356 . S
N709 H712 0.984 . S
N709 H713 0.985 . S
H710 N705 0.984 . S
H711 N705 0.985 . S
H712 N709 0.984 . S
H713 N709 0.985 . S
H714 N708 0.984 . S
H715 N708 0.984 1_556 S
H716 N704 0.984 1_455 S
H717 N704 0.985 . S
C718 C719 1.363 . S
C718 C724 1.379 . S
C718 N726 1.356 . S
C719 C718 1.363 . S
C719 C725 1.363 . S
C720 C721 1.363 . S
C720 C725 1.379 . S
C720 N727 1.356 . S
C721 C720 1.363 . S
C721 C724 1.363 . S
N722 C724 1.356 1_556 S
N722 H734 0.984 . S
N722 H735 0.985 . S
N723 C725 1.356 . S
N723 H728 0.984 . S
N723 H729 0.985 . S
C724 C718 1.379 . S
C724 C721 1.363 . S
C724 N722 1.356 1_554 S
C725 C719 1.363 . S
C725 C720 1.379 . S
C725 N723 1.356 . S
N726 C718 1.356 . S
N726 H732 0.984 1_554 S
N726 H733 0.984 . S
N727 C720 1.356 . S
N727 H730 0.984 . S
N727 H731 0.985 . S
H728 N723 0.984 . S
H729 N723 0.985 . S
H730 N727 0.984 . S
H731 N727 0.985 . S
H732 N726 0.984 1_556 S
H733 N726 0.984 . S
H734 N722 0.984 . S
H735 N722 0.985 . S
C736 C737 1.363 . S
C736 C742 1.379 . S
C736 N744 1.356 . S
C737 C736 1.363 . S
C737 C743 1.363 . S
C738 C739 1.363 1_655 S
C738 C743 1.379 1_655 S
C738 N745 1.356 . S
C739 C738 1.363 1_455 S
C739 C742 1.363 . S
N740 C742 1.356 . S
N740 H752 0.984 . S
N740 H753 0.985 . S
N741 C743 1.356 1_655 S
N741 H746 0.984 . S
N741 H747 0.985 . S
C742 C736 1.379 . S
C742 C739 1.363 . S
C742 N740 1.356 . S
C743 C737 1.363 . S
C743 C738 1.379 1_455 S
C743 N741 1.356 1_455 S
N744 C736 1.356 . S
N744 H750 0.984 . S
N744 H751 0.984 . S
N745 C738 1.356 . S
N745 H748 0.984 . S
N745 H749 0.985 . S
H746 N741 0.984 . S
H747 N741 0.985 . S
H748 N745 0.984 . S
H749 N745 0.985 . S
H750 N744 0.984 . S
H751 N744 0.984 . S
H752 N740 0.984 . S
H753 N740 0.985 . S
C754 C755 1.363 . S
C754 C760 1.379 . S
C754 N762 1.356 . S
C755 C754 1.363 . S
C755 C761 1.363 . S
C756 C757 1.363 . S
C756 C761 1.379 . S
C756 N763 1.356 . S
C757 C756 1.363 . S
C757 C760 1.363 . S
N758 C760 1.356 . S
N758 H770 0.984 . S
N758 H771 0.985 . S
N759 C761 1.356 . S
N759 H764 0.984 . S
N759 H765 0.985 . S
C760 C754 1.379 . S
C760 C757 1.363 . S
C760 N758 1.356 . S
C761 C755 1.363 . S
C761 C756 1.379 . S
C761 N759 1.356 . S
N762 C754 1.356 . S
N762 H768 0.984 . S
N762 H769 0.984 . S
N763 C756 1.356 . S
N763 H766 0.984 . S
N763 H767 0.985 . S
H764 N759 0.984 . S
H765 N759 0.985 . S
H766 N763 0.984 . S
H767 N763 0.985 . S
H768 N762 0.984 . S
H769 N762 0.984 . S
H770 N758 0.984 . S
H771 N758 0.985 . S
C341 C29 1.541 . S
C343 C274 1.567 . S
C359 C49 1.494 . S
C361 C291 1.451 . S
C379 C314 1.229 . S
C377 C93 1.437 . S
C395 C119 1.626 . S
C397 C335 1.377 . S
C415 C294 1.696 . S
C413 C17 1.654 . S
C433 C271 1.664 . S
C431 C61 1.738 . S
C451 C333 1.358 . S
C449 C81 1.359 . S
C469 C312 1.507 . S
C467 C125 1.432 . S
C485 C23 1.597 . S
C487 C336 1.631 . S
C505 C293 1.276 . S
C503 C87 1.522 . S
C521 C113 1.583 . S
C523 C269 1.555 . S
C539 C55 1.556 . S
C541 C315 1.548 . S
C559 C273 1.533 . S
C557 C157 1.615 . S
C575 C189 1.305 . S
C577 C292 1.339 . S
C593 C221 1.541 . S
C595 C311 1.273 . S
C611 C253 1.596 . S
C613 C332 1.353 . S
C629 C145 1.729 . S
C631 C295 1.696 . S
C649 C270 1.649 . S
C647 C183 1.614 . S
C667 C334 1.282 . S
C665 C209 1.336 . S
C685 C313 1.529 . S
C683 C247 1.479 . S
C701 C151 1.560 . S
C703 C337 1.532 . S
C721 C290 1.230 . S
C719 C215 1.532 . S
C739 C272 1.407 . S
C737 C241 1.437 . S
C755 C177 1.436 . S
C757 C316 1.497 . S
