# Generated by pormake.
# Topology rtl, (3,6)-cn, num edge types: 1
# Building blocks:
#     Node 0, Type 0, BuildingBlock: QEWDON_clean_linker_0, # of connection points: 3
#     Node 1, Type 0, BuildingBlock: QEWDON_clean_linker_0, # of connection points: 3
#     Node 2, Type 0, BuildingBlock: QEWDON_clean_linker_0, # of connection points: 3
#     Node 3, Type 0, BuildingBlock: QEWDON_clean_linker_0, # of connection points: 3
#     Node 4, Type 1, BuildingBlock: FUNLAD_clean_sbu_0, # of connection points: 6
#     Node 5, Type 1, BuildingBlock: FUNLAD_clean_sbu_0, # of connection points: 6
#     Edge 6, Type (0, 1), BuildingBlock: ZUJKAS_clean_linker_0, # of connection points: 2
#     Edge 7, Type (0, 1), BuildingBlock: ZUJKAS_clean_linker_0, # of connection points: 2
#     Edge 8, Type (0, 1), BuildingBlock: ZUJKAS_clean_linker_0, # of connection points: 2
#     Edge 9, Type (0, 1), BuildingBlock: ZUJKAS_clean_linker_0, # of connection points: 2
#     Edge 10, Type (0, 1), BuildingBlock: ZUJKAS_clean_linker_0, # of connection points: 2
#     Edge 11, Type (0, 1), BuildingBlock: ZUJKAS_clean_linker_0, # of connection points: 2
#     Edge 12, Type (0, 1), BuildingBlock: ZUJKAS_clean_linker_0, # of connection points: 2
#     Edge 13, Type (0, 1), BuildingBlock: ZUJKAS_clean_linker_0, # of connection points: 2
#     Edge 14, Type (0, 1), BuildingBlock: ZUJKAS_clean_linker_0, # of connection points: 2
#     Edge 15, Type (0, 1), BuildingBlock: ZUJKAS_clean_linker_0, # of connection points: 2
#     Edge 16, Type (0, 1), BuildingBlock: ZUJKAS_clean_linker_0, # of connection points: 2
#     Edge 17, Type (0, 1), BuildingBlock: ZUJKAS_clean_linker_0, # of connection points: 2
# Relax obj value: 0.016
# Max RMSD: 0.110
# Mean RMSD: 0.088
data_MOF--net-rtl--node1-FUNLAD_clean_sbu_0--node2-QEWDON_clean_linker_0--edge1-ZUJKAS_clean_linker_0
_symmetry_space_group_name_H-M    P1
_symmetry_Int_Tables_number       1
_symmetry_cell_setting            triclinic
loop_
_symmetry_equiv_pos_as_xyz
'x, y, z'
_cell_length_a     52.997056
_cell_length_b     52.897978
_cell_length_c     26.884213
_cell_angle_alpha  91.2514
_cell_angle_beta   92.54917
_cell_angle_gamma 89.986419
loop_
_atom_site_label
_atom_site_type_symbol
_atom_site_fract_x
_atom_site_fract_y
_atom_site_fract_z
_atom_type_partial_charge
H0 H 0.20691 0.85861 0.09569 0.0
C1 C 0.19814 0.8585 0.05847 0.0
C2 C 0.17309 0.8667 0.05124 0.0
C3 C 0.21252 0.8517 0.01755 0.0
H4 H 0.14314 0.87419 0.99684 0.0
C5 C 0.16233 0.86739 0.00268 0.0
C6 C 0.17653 0.86112 0.96136 0.0
C7 C 0.20166 0.85307 0.96901 0.0
C8 C 0.23983 0.84682 0.02538 0.0
H9 H 0.21305 0.84899 0.93731 0.0
C10 C 0.25041 0.82315 0.0135 0.0
C11 C 0.27659 0.81911 0.02118 0.0
C12 C 0.2555 0.86634 0.04493 0.0
H13 H 0.24766 0.88469 0.05422 0.0
C14 C 0.28139 0.86248 0.05213 0.0
H15 H 0.23835 0.80799 -0.00141 0.0
C16 C 0.29191 0.83907 0.04035 0.0
H17 H 0.31203 0.83642 0.04717 0.0
H18 H 0.29335 0.87765 0.06714 0.0
H19 H 0.71313 0.68837 0.4669 0.0
C20 C 0.70188 0.68338 0.49794 0.0
C21 C 0.67724 0.67401 0.48889 0.0
C22 C 0.71249 0.68498 0.54681 0.0
H23 H 0.64444 0.6588 0.52222 0.0
C24 C 0.66321 0.66662 0.52919 0.0
C25 C 0.67367 0.66764 0.57802 0.0
C26 C 0.6982 0.67721 0.58665 0.0
C27 C 0.73941 0.69191 0.556 0.0
H28 H 0.70664 0.67758 0.62415 0.0
C29 C 0.74919 0.71473 0.53877 0.0
C30 C 0.7749 0.72088 0.54799 0.0
C31 C 0.75554 0.67529 0.58222 0.0
H32 H 0.74848 0.65756 0.59548 0.0
C33 C 0.78098 0.6812 0.59104 0.0
H34 H 0.73684 0.72765 0.51859 0.0
C35 C 0.79063 0.70381 0.57415 0.0
H36 H 0.81036 0.70816 0.58244 0.0
H37 H 0.79325 0.66827 0.61127 0.0
H38 H 0.80938 0.18715 0.07687 0.0
C39 C 0.82137 0.1829 0.04613 0.0
C40 C 0.84619 0.17425 0.05565 0.0
C41 C 0.8116 0.18476 0.99686 0.0
H42 H 0.88008 0.16064 0.02268 0.0
C43 C 0.86116 0.16786 0.01546 0.0
C44 C 0.85149 0.16911 0.96617 0.0
C45 C 0.82677 0.17791 0.95715 0.0
C46 C 0.78466 0.19072 0.98631 0.0
H47 H 0.81884 0.17832 0.91929 0.0
C48 C 0.77458 0.21463 0.9982 0.0
C49 C 0.74933 0.2204 0.98394 0.0
C50 C 0.76915 0.17243 0.96178 0.0
H51 H 0.77657 0.15391 0.95247 0.0
C52 C 0.74401 0.17784 0.94894 0.0
H53 H 0.78659 0.22894 0.01646 0.0
C54 C 0.73417 0.20168 0.95964 0.0
H55 H 0.71461 0.20549 0.94896 0.0
H56 H 0.73217 0.1636 0.93017 0.0
H57 H 0.35104 0.31445 0.57939 0.0
C58 C 0.35248 0.32498 0.54549 0.0
C59 C 0.36238 0.34964 0.54767 0.0
C60 C 0.34652 0.31313 0.49913 0.0
H61 H 0.37327 0.3815 0.50497 0.0
C62 C 0.36518 0.36265 0.5033 0.0
C63 C 0.35951 0.351 0.45683 0.0
C64 C 0.35016 0.32616 0.45502 0.0
C65 C 0.34075 0.28587 0.49597 0.0
H66 H 0.34651 0.31662 0.41931 0.0
C67 C 0.31604 0.27675 0.50054 0.0
C68 C 0.31084 0.25075 0.49332 0.0
C69 C 0.36026 0.26892 0.4854 0.0
H70 H 0.37935 0.27571 0.48158 0.0
C71 C 0.35526 0.24316 0.47917 0.0
H72 H 0.30088 0.28986 0.50805 0.0
C73 C 0.33072 0.23411 0.48284 0.0
H74 H 0.32727 0.21401 0.4777 0.0
H75 H 0.3704 0.2302 0.47105 0.0
C76 C 0.03463 0.99062 0.43368 0.0
N77 N 0.05366 0.05867 0.50964 0.0
C78 C 0.07824 0.0512 0.51114 0.0
C79 C 0.09765 0.06909 0.51204 0.0
C80 C 0.09182 0.09502 0.51097 0.0
C81 C 0.06623 0.10216 0.50947 0.0
C82 C 0.0474 0.08362 0.50895 0.0
Zn83 Zn 0.02579 0.03164 0.50842 0.0
C84 C 0.98274 0.04389 0.43767 0.0
N85 N 0.96781 0.97504 0.50622 0.0
C86 C 0.97469 0.95025 0.50517 0.0
C87 C 0.94307 0.98189 0.50697 0.0
C88 C 0.92414 0.96347 0.50701 0.0
C89 C 0.93072 0.93773 0.50646 0.0
C90 C 0.95641 0.93125 0.50531 0.0
Zn91 Zn 0.99551 1.00222 0.50732 0.0
O92 O 0.04378 0.0113 0.4514 0.0
C93 C 0.03833 0.98982 0.57821 0.0
O94 O 0.01411 0.98232 0.44995 0.0
H95 H 0.93799 1.0017 0.50791 0.0
H96 H 0.08285 0.03129 0.51172 0.0
H97 H 0.99443 0.94517 0.50435 0.0
O98 O 0.04678 0.01063 0.56292 0.0
O99 O 0.01693 0.98187 0.56135 0.0
H100 H 0.02775 0.08919 0.50779 0.0
O101 O 0.97759 0.0226 0.56466 0.0
O102 O 1.00725 0.05159 0.56539 0.0
O103 O 0.97445 0.02312 0.45344 0.0
O104 O 1.00423 0.05198 0.4539 0.0
C105 C 0.98681 0.04334 0.58204 0.0
H106 H 0.11704 0.0626 0.51408 0.0
H107 H 0.06075 0.12185 0.50795 0.0
H108 H 0.9046 0.96934 0.50842 0.0
H109 H 0.96235 0.91166 0.50412 0.0
C110 C 0.48373 0.49022 0.95145 0.0
N111 N 0.55341 0.4746 0.02532 0.0
C112 C 0.54608 0.45004 0.02793 0.0
C113 C 0.56401 0.43067 0.02893 0.0
C114 C 0.58983 0.43651 0.0269 0.0
C115 C 0.59683 0.46208 0.02434 0.0
C116 C 0.57826 0.48088 0.0237 0.0
Zn117 Zn 0.52639 0.50249 0.02389 0.0
C118 C 0.53677 0.54222 0.95136 0.0
N119 N 0.46976 0.56041 0.02182 0.0
C120 C 0.44475 0.55442 0.01964 0.0
C121 C 0.47751 0.58493 0.0219 0.0
C122 C 0.45989 0.60452 0.01936 0.0
C123 C 0.43393 0.59896 0.01652 0.0
C124 C 0.42644 0.57347 0.01699 0.0
Zn125 Zn 0.49663 0.53243 0.02354 0.0
O126 O 0.50481 0.48189 0.96859 0.0
C127 C 0.48607 0.49265 0.09572 0.0
O128 O 0.47569 0.51142 0.96741 0.0
H129 H 0.49746 0.58933 0.02374 0.0
H130 H 0.52625 0.44541 0.02928 0.0
H131 H 0.43896 0.53481 0.01951 0.0
O132 O 0.50672 0.48405 0.0799 0.0
O133 O 0.47728 0.51326 0.07874 0.0
H134 H 0.58372 0.50051 0.02165 0.0
O135 O 0.51812 0.55279 0.07983 0.0
O136 O 0.54759 0.52364 0.07901 0.0
O137 O 0.51647 0.55114 0.96811 0.0
O138 O 0.54536 0.52142 0.9678 0.0
C139 C 0.53946 0.54461 0.09589 0.0
H140 H 0.55766 0.41132 0.03176 0.0
H141 H 0.61642 0.46754 0.02204 0.0
H142 H 0.46659 0.62387 0.02001 0.0
H143 H 0.40666 0.56825 0.01441 0.0
H144 H 0.2774 0.25819 0.56715 0.0
H145 H 0.23658 0.23673 0.57511 0.0
H146 H 0.24527 0.19888 0.4333 0.0
H147 H 0.28593 0.22002 0.42529 0.0
H148 H 0.19253 0.22304 0.46007 0.0
H149 H 0.23748 0.15426 0.59107 0.0
H150 H 0.24403 0.18756 0.59986 0.0
H151 H 0.25571 0.17089 0.54693 0.0
C152 C 0.27032 0.24563 0.53736 0.0
C153 C 0.28486 0.24057 0.4958 0.0
C154 C 0.24712 0.23337 0.542 0.0
C155 C 0.23807 0.21618 0.50485 0.0
C156 C 0.25198 0.21207 0.46232 0.0
H157 H 0.13665 0.09232 0.46389 0.0
H158 H 0.17073 0.12346 0.46606 0.0
C159 C 0.27521 0.22406 0.45791 0.0
C160 C 0.21511 0.20093 0.51145 0.0
H161 H 0.19525 0.14677 0.56451 0.0
C162 C 0.19291 0.20659 0.48349 0.0
C163 C 0.21589 0.17938 0.54162 0.0
C164 C 0.23951 0.17242 0.57163 0.0
C165 C 0.17153 0.1909 0.48435 0.0
C166 C 0.17256 0.16902 0.51361 0.0
C167 C 0.19458 0.16365 0.54228 0.0
C168 C 0.15156 0.15055 0.51238 0.0
C169 C 0.14827 0.19716 0.4527 0.0
C170 C 0.12955 0.15549 0.53797 0.0
C171 C 0.1101 0.13756 0.53745 0.0
C172 C 0.11231 0.11437 0.51117 0.0
C173 C 0.13441 0.1097 0.48527 0.0
C174 C 0.15387 0.12755 0.48613 0.0
H175 H 0.15109 0.21394 0.42942 0.0
H176 H 0.14288 0.18076 0.428 0.0
H177 H 0.13228 0.20101 0.47708 0.0
H178 H 0.12756 0.1731 0.55878 0.0
H179 H 0.09356 0.14169 0.55839 0.0
H180 H 0.31892 0.80925 0.9703 0.0
H181 H 0.34178 0.76923 0.96445 0.0
H182 H 0.28416 0.73261 0.04553 0.0
H183 H 0.26098 0.77267 0.05083 0.0
H184 H 0.36103 0.74473 0.04555 0.0
H185 H 0.29592 0.68085 0.93476 0.0
H186 H 0.29192 0.71476 0.93669 0.0
H187 H 0.28223 0.69606 0.9875 0.0
C188 C 0.31091 0.79255 0.98613 0.0
C189 C 0.28823 0.79408 0.01119 0.0
C190 C 0.32397 0.7697 0.98273 0.0
C191 C 0.31466 0.74786 0.00433 0.0
C192 C 0.29148 0.74906 0.02772 0.0
H193 H 0.38856 0.60272 0.06201 0.0
H194 H 0.35848 0.63793 0.05868 0.0
C195 C 0.27827 0.77196 0.03081 0.0
C196 C 0.33055 0.72472 0.00637 0.0
H197 H 0.33264 0.66213 0.9722 0.0
C198 C 0.35482 0.72671 0.02932 0.0
C199 C 0.32234 0.70113 0.98569 0.0
C200 C 0.29677 0.69801 0.95938 0.0
C201 C 0.37114 0.70588 0.03194 0.0
C202 C 0.36314 0.68243 0.01053 0.0
C203 C 0.33871 0.68019 0.98844 0.0
C204 C 0.38032 0.66031 0.00976 0.0
C205 C 0.39681 0.70907 0.05797 0.0
C206 C 0.40224 0.66104 0.98247 0.0
C207 C 0.41937 0.64097 0.98406 0.0
C208 C 0.41493 0.61969 0.01298 0.0
C209 C 0.39251 0.61871 0.03912 0.0
C210 C 0.37533 0.63883 0.0374 0.0
H211 H 0.39775 0.72627 0.08244 0.0
H212 H 0.40168 0.69236 0.08078 0.0
H213 H 0.41128 0.71088 0.02967 0.0
H214 H 0.40622 0.67729 0.96026 0.0
H215 H 0.43611 0.64214 0.96256 0.0
H216 H 0.7548 0.76832 0.55876 0.0
H217 H 0.77526 0.80882 0.54308 0.0
H218 H 0.83983 0.769 0.48862 0.0
H219 H 0.81935 0.72865 0.50318 0.0
H220 H 0.82024 0.82447 0.58916 0.0
H221 H 0.82855 0.82319 0.38476 0.0
H222 H 0.80724 0.80258 0.41541 0.0
H223 H 0.84018 0.79465 0.41243 0.0
C224 C 0.77306 0.76824 0.5422 0.0
C225 C 0.78551 0.74531 0.53234 0.0
C226 C 0.78479 0.79137 0.53353 0.0
C227 C 0.80898 0.79195 0.51422 0.0
C228 C 0.82099 0.76906 0.50264 0.0
H229 H 0.93231 0.89429 0.55989 0.0
H230 H 0.90047 0.86096 0.56084 0.0
C231 C 0.80936 0.746 0.51146 0.0
C232 C 0.82286 0.81618 0.51074 0.0
H233 H 0.857 0.85106 0.43202 0.0
C234 C 0.82794 0.8305 0.55463 0.0
C235 C 0.83268 0.82424 0.46563 0.0
C236 C 0.82667 0.8105 0.41679 0.0
C237 C 0.84363 0.8519 0.5551 0.0
C238 C 0.85483 0.85894 0.51065 0.0
C239 C 0.84868 0.84544 0.46622 0.0
C240 C 0.87392 0.87944 0.51009 0.0
C241 C 0.84831 0.8666 0.60334 0.0
C242 C 0.86984 0.90065 0.48032 0.0
C243 C 0.88816 0.91969 0.47934 0.0
C244 C 0.91102 0.91771 0.50772 0.0
C245 C 0.91505 0.89632 0.53723 0.0
C246 C 0.89673 0.87738 0.53828 0.0
H247 H 0.83294 0.8636 0.62939 0.0
H248 H 0.86624 0.86009 0.62172 0.0
H249 H 0.84998 0.88717 0.59669 0.0
H250 H 0.85246 0.90249 0.45793 0.0
H251 H 0.8846 0.93575 0.45574 0.0
H252 H 0.75088 0.24895 0.07057 0.0
H253 H 0.72867 0.28904 0.08609 0.0
H254 H 0.70124 0.28913 0.93268 0.0
H255 H 0.72332 0.24936 0.917 0.0
H256 H 0.71974 0.33807 0.97503 0.0
H257 H 0.64895 0.28984 0.08744 0.0
H258 H 0.68186 0.28521 0.10425 0.0
H259 H 0.66901 0.27258 0.04608 0.0
C260 C 0.74043 0.25778 0.04009 0.0
C261 C 0.73856 0.24594 0.99274 0.0
C262 C 0.72767 0.28056 0.04902 0.0
C263 C 0.71311 0.29185 0.01062 0.0
C264 C 0.71229 0.28067 0.96284 0.0
H265 H 0.58646 0.38981 0.98072 0.0
H266 H 0.61795 0.3561 0.98155 0.0
C267 C 0.7248 0.2579 0.95401 0.0
C268 C 0.69738 0.31447 0.02016 0.0
H269 H 0.6422 0.33281 0.07117 0.0
C270 C 0.70299 0.3371 0.99668 0.0
C271 C 0.67539 0.31296 0.04791 0.0
C272 C 0.6682 0.28886 0.07275 0.0
C273 C 0.68689 0.35817 -0.00054 0.0
C274 C 0.66466 0.35647 0.02639 0.0
C275 C 0.65934 0.33402 0.05073 0.0
C276 C 0.64578 0.37713 0.02677 0.0
C277 C 0.69315 0.38175 0.97195 0.0
C278 C 0.65095 0.40008 0.05229 0.0
C279 C 0.63285 0.41937 0.05242 0.0
C280 C 0.60922 0.41606 0.02695 0.0
C281 C 0.60422 0.39295 0.00144 0.0
C282 C 0.62225 0.37367 0.00159 0.0
H283 H 0.70931 0.37886 0.94751 0.0
H284 H 0.6765 0.388 0.94887 0.0
H285 H 0.69808 0.39719 -0.00074 0.0
H286 H 0.66891 0.40298 0.07244 0.0
H287 H 0.63724 0.43672 0.07311 0.0
H288 H 0.14652 0.91065 0.05421 0.0
H289 H 0.1229 0.92821 0.12263 0.0
H290 H 0.14386 0.86424 0.21227 0.0
H291 H 0.16788 0.84654 0.14356 0.0
H292 H 0.08261 0.90824 0.16818 0.0
H293 H 0.16353 0.92409 0.30403 0.0
H294 H 0.16775 0.91696 0.23899 0.0
H295 H 0.15998 0.89221 0.28039 0.0
C296 C 0.14598 0.90019 0.08835 0.0
C297 C 0.1589 0.87711 0.09343 0.0
C298 C 0.13255 0.91032 0.12749 0.0
C299 C 0.13176 0.89765 0.17267 0.0
C300 C 0.14459 0.87455 0.17801 0.0
H301 H 0.02334 0.94339 0.39521 0.0
H302 H 0.04652 0.91905 0.33369 0.0
C303 C 0.15822 0.86443 0.13877 0.0
C304 C 0.11715 0.9088 0.21351 0.0
H305 H 0.12294 0.93415 0.33136 0.0
C306 C 0.09138 0.91379 0.20399 0.0
C307 C 0.12872 0.91623 0.25996 0.0
C308 C 0.15655 0.91234 0.27153 0.0
C309 C 0.07693 0.92639 0.23931 0.0
C310 C 0.08845 0.93371 0.28588 0.0
C311 C 0.11413 0.92838 0.29571 0.0
C312 C 0.07454 0.94808 0.3239 0.0
C313 C 0.04973 0.9326 0.22566 0.0
C314 C 0.08293 0.97222 0.33967 0.0
C315 C 0.06987 0.98608 0.37509 0.0
C316 C 0.04814 0.97606 0.39547 0.0
C317 C 0.03986 0.95177 0.37985 0.0
C318 C 0.05303 0.93786 0.34458 0.0
H319 H 0.04565 0.93127 0.18479 0.0
H320 H 0.03725 0.919 0.24357 0.0
H321 H 0.04487 0.95195 0.23895 0.0
H322 H 0.09951 0.98044 0.32425 0.0
H323 H 0.07683 1.00468 0.38641 0.0
H324 H 0.66727 0.68711 0.67218 0.0
H325 H 0.64393 0.66802 0.73881 0.0
H326 H 0.62598 0.60357 0.64265 0.0
H327 H 0.64899 0.62249 0.57626 0.0
H328 H 0.58473 0.62168 0.6896 0.0
H329 H 0.66575 0.6086 0.82499 0.0
H330 H 0.66125 0.64042 0.80435 0.0
H331 H 0.66988 0.61607 0.76067 0.0
C332 C 0.65844 0.66881 0.6655 0.0
C333 C 0.65979 0.65639 0.61892 0.0
C334 C 0.6452 0.6579 0.70356 0.0
C335 C 0.63342 0.63426 0.6958 0.0
C336 C 0.63485 0.62185 0.64939 0.0
H337 H 0.57927 0.5275 0.90436 0.0
H338 H 0.60211 0.5509 0.84303 0.0
C339 C 0.64792 0.63276 0.61141 0.0
C340 C 0.61913 0.62239 0.73534 0.0
H341 H 0.62528 0.59779 0.85165 0.0
C342 C 0.59356 0.61653 0.72512 0.0
C343 C 0.6308 0.61543 0.78138 0.0
C344 C 0.65848 0.62021 0.79354 0.0
C345 C 0.57935 0.60374 0.7595 0.0
C346 C 0.59091 0.5971 0.80583 0.0
C347 C 0.61644 0.60307 0.81621 0.0
C348 C 0.57703 0.58318 0.84334 0.0
C349 C 0.55234 0.59676 0.74524 0.0
C350 C 0.55549 0.59368 0.86417 0.0
C351 C 0.54228 0.58028 0.89894 0.0
C352 C 0.55053 0.55623 0.91392 0.0
C353 C 0.57234 0.54592 0.89348 0.0
C354 C 0.58547 0.5593 0.85855 0.0
H355 H 0.54842 0.59744 0.70434 0.0
H356 H 0.54781 0.57751 0.75788 0.0
H357 H 0.5395 0.61038 0.7633 0.0
H358 H 0.54895 0.61231 0.85371 0.0
H359 H 0.5257 0.58888 0.91433 0.0
H360 H 0.82313 0.14627 0.12442 0.0
H361 H 0.84316 0.1278 0.19912 0.0
H362 H 0.9116 0.16894 0.17484 0.0
H363 H 0.89163 0.18754 0.10039 0.0
H364 H 0.88756 0.09772 0.18778 0.0
H365 H 0.90416 0.17542 0.32758 0.0
H366 H 0.88047 0.17724 0.2773 0.0
H367 H 0.91317 0.18231 0.26564 0.0
C368 C 0.8421 0.15212 0.13615 0.0
C369 C 0.85585 0.16833 0.10669 0.0
C370 C 0.85357 0.14143 0.17858 0.0
C371 C 0.87882 0.14708 0.1926 0.0
C372 C 0.892 0.1646 0.16514 0.0
H373 H 0.99646 0.08617 0.38836 0.0
H374 H 0.97039 0.11089 0.3298 0.0
C375 C 0.88061 0.17514 0.12254 0.0
C376 C 0.89246 0.13215 0.23126 0.0
H377 H 0.92641 0.13695 0.342 0.0
C378 C 0.8958 0.1062 0.22184 0.0
C379 C 0.90349 0.14339 0.27516 0.0
C380 C 0.90003 0.17109 0.28742 0.0
C381 C 0.91043 0.09125 0.25451 0.0
C382 C 0.92148 0.10243 0.29858 0.0
C383 C 0.91791 0.12838 0.30826 0.0
C384 C 0.93708 0.08757 0.33466 0.0
C385 C 0.91469 0.06383 0.24048 0.0
C386 C 0.92695 0.06639 0.35726 0.0
C387 C 0.94188 0.05206 0.39023 0.0
C388 C 0.96715 0.05884 0.4019 0.0
C389 C 0.97711 0.08035 0.37998 0.0
C390 C 0.96221 0.09456 0.34665 0.0
H391 H 0.91113 0.06018 0.19991 0.0
H392 H 0.93428 0.05788 0.25084 0.0
H393 H 0.90146 0.05187 0.26053 0.0
H394 H 0.90744 0.06099 0.34954 0.0
H395 H 0.9335 0.0358 0.40696 0.0
H396 H 0.40898 0.36971 0.56512 0.0
H397 H 0.42557 0.39208 0.6398 0.0
H398 H 0.35599 0.37826 0.71208 0.0
H399 H 0.33925 0.35544 0.63682 0.0
H400 H 0.40442 0.43545 0.68013 0.0
H401 H 0.41099 0.35825 0.81747 0.0
H402 H 0.40761 0.35208 0.75117 0.0
H403 H 0.38087 0.36225 0.78507 0.0
C404 C 0.39723 0.37132 0.59701 0.0
C405 C 0.37272 0.36112 0.59508 0.0
C406 C 0.40676 0.38405 0.63966 0.0
C407 C 0.39204 0.38684 0.68148 0.0
C408 C 0.36777 0.37605 0.68039 0.0
H409 H 0.43664 0.50087 0.91116 0.0
H410 H 0.41189 0.47592 0.84869 0.0
C411 C 0.35822 0.36309 0.6375 0.0
C412 C 0.40202 0.40227 0.72466 0.0
H413 H 0.42342 0.39906 0.84607 0.0
C414 C 0.40838 0.42757 0.71658 0.0
C415 C 0.40732 0.39185 0.77196 0.0
C416 C 0.40156 0.36458 0.78216 0.0
C417 C 0.42048 0.44259 0.75407 0.0
C418 C 0.42591 0.43217 0.80135 0.0
C419 C 0.41908 0.40702 0.80984 0.0
C420 C 0.44008 0.44664 0.84134 0.0
C421 C 0.42831 0.46913 0.74204 0.0
C422 C 0.46385 0.43812 0.85886 0.0
C423 C 0.47799 0.45224 0.89469 0.0
C424 C 0.4686 0.47518 0.91378 0.0
C425 C 0.44454 0.48343 0.89685 0.0
C426 C 0.43038 0.46923 0.8611 0.0
H427 H 0.42787 0.4722 0.70125 0.0
H428 H 0.41512 0.48281 0.75888 0.0
H429 H 0.44765 0.47333 0.75762 0.0
H430 H 0.47167 0.42072 0.84411 0.0
H431 H 0.49638 0.44526 0.90709 0.0
H432 H 0.69992 0.64768 0.41506 0.0
H433 H 0.67932 0.62965 0.3389 0.0
H434 H 0.61028 0.66827 0.37261 0.0
H435 H 0.6308 0.68638 0.44866 0.0
H436 H 0.6351 0.59828 0.34971 0.0
H437 H 0.61628 0.67688 0.21943 0.0
H438 H 0.64088 0.67836 0.26822 0.0
H439 H 0.60848 0.68301 0.283 0.0
C440 C 0.68066 0.65308 0.40521 0.0
C441 C 0.66693 0.66842 0.43767 0.0
C442 C 0.66887 0.64265 0.36192 0.0
C443 C 0.64333 0.64772 0.35008 0.0
C444 C 0.6301 0.6644 0.3807 0.0
H445 H 0.52558 0.58667 0.14918 0.0
H446 H 0.55159 0.61144 0.20992 0.0
C447 C 0.6418 0.67466 0.42417 0.0
C448 C 0.62956 0.63291 0.31015 0.0
H449 H 0.59505 0.63801 0.20059 0.0
C450 C 0.62657 0.60687 0.31676 0.0
C451 C 0.61817 0.64431 0.26778 0.0
C452 C 0.6212 0.67215 0.25875 0.0
C453 C 0.61195 0.59195 0.28271 0.0
C454 C 0.6006 0.60328 0.24005 0.0
C455 C 0.60379 0.62934 0.23322 0.0
C456 C 0.58505 0.58843 0.20253 0.0
C457 C 0.60804 0.56441 0.29386 0.0
C458 C 0.59528 0.56743 0.17777 0.0
C459 C 0.58038 0.55304 0.14358 0.0
C460 C 0.55505 0.55963 0.13281 0.0
C461 C 0.54499 0.58101 0.15683 0.0
C462 C 0.55985 0.59525 0.19141 0.0
H463 H 0.61168 0.5606 0.33403 0.0
H464 H 0.58852 0.55823 0.28295 0.0
H465 H 0.6214 0.55275 0.27254 0.0
H466 H 0.61485 0.56219 0.18477 0.0
H467 H 0.58882 0.53691 0.12522 0.0
H468 H 0.87833 0.12519 0.96401 0.0
H469 H 0.90242 0.10769 0.89622 0.0
H470 H 0.882 0.17164 0.80616 0.0
H471 H 0.85767 0.1894 0.87431 0.0
H472 H 0.87599 0.12588 0.75537 0.0
H473 H 0.97063 0.1311 0.85087 0.0
H474 H 0.94809 0.11492 0.88656 0.0
H475 H 0.94368 0.14791 0.87365 0.0
C476 C 0.87929 0.1358 0.93014 0.0
C477 C 0.86641 0.15889 0.92478 0.0
C478 C 0.89308 0.12575 0.8914 0.0
C479 C 0.89446 0.13863 0.84657 0.0
C480 C 0.88134 0.16152 0.84068 0.0
H481 H 0.99929 0.09002 0.62147 0.0
H482 H 0.97655 0.11487 0.68282 0.0
C483 C 0.86743 0.1716 0.8795 0.0
C484 C 0.90885 0.12752 0.80544 0.0
H485 H 0.96675 0.104 0.77835 0.0
C486 C 0.89591 0.12134 0.76013 0.0
C487 C 0.93491 0.12196 0.81147 0.0
C488 C 0.95021 0.12955 0.85808 0.0
C489 C 0.90811 0.10883 0.72138 0.0
C490 C 0.93379 0.1019 0.72858 0.0
C491 C 0.94697 0.109 0.77313 0.0
C492 C 0.94726 0.08694 0.69077 0.0
C493 C 0.89338 0.10321 0.67307 0.0
C494 C 0.93855 0.06282 0.67547 0.0
C495 C 0.95145 0.04859 0.64032 0.0
C496 C 0.97348 0.05811 0.62021 0.0
C497 C 0.98238 0.08212 0.63622 0.0
C498 C 0.9694 0.09637 0.67123 0.0
H499 H 0.87695 0.11611 0.66808 0.0
H500 H 0.9055 0.10496 0.64067 0.0
H501 H 0.88606 0.08357 0.67336 0.0
H502 H 0.92187 0.0549 0.69101 0.0
H503 H 0.94416 0.03012 0.62901 0.0
H504 H 0.38607 0.33139 0.38032 0.0
H505 H 0.40458 0.35472 0.3131 0.0
H506 H 0.36879 0.42313 0.3639 0.0
H507 H 0.35003 0.39993 0.43112 0.0
H508 H 0.37102 0.40694 0.24517 0.0
H509 H 0.46004 0.41408 0.3633 0.0
H510 H 0.44324 0.38442 0.35922 0.0
H511 H 0.42956 0.41109 0.39016 0.0
C512 C 0.3815 0.35122 0.37627 0.0
C513 C 0.36666 0.36388 0.41102 0.0
C514 C 0.39221 0.36452 0.33809 0.0
C515 C 0.3881 0.39059 0.33394 0.0
C516 C 0.37212 0.40299 0.36666 0.0
H517 H 0.44224 0.50615 0.13953 0.0
H518 H 0.41801 0.48131 0.19649 0.0
C519 C 0.3615 0.38975 0.40501 0.0
C520 C 0.40237 0.40532 0.29859 0.0
H521 H 0.45997 0.43235 0.28444 0.0
C522 C 0.39046 0.41254 0.25354 0.0
C523 C 0.42769 0.41244 0.30989 0.0
C524 C 0.44104 0.40527 0.35829 0.0
C525 C 0.40343 0.4266 0.21899 0.0
C526 C 0.42873 0.43404 0.23057 0.0
C527 C 0.44058 0.42668 0.27569 0.0
C528 C 0.44342 0.44927 0.19631 0.0
C529 C 0.39013 0.43286 0.17002 0.0
C530 C 0.4662 0.43988 0.17868 0.0
C531 C 0.48026 0.45415 0.14665 0.0
C532 C 0.47183 0.47814 0.13171 0.0
C533 C 0.4492 0.48769 0.15011 0.0
C534 C 0.4352 0.47343 0.18233 0.0
H535 H 0.37377 0.42014 0.16137 0.0
H536 H 0.38293 0.45254 0.17206 0.0
H537 H 0.40324 0.43145 0.13898 0.0
H538 H 0.47298 0.42136 0.18931 0.0
H539 H 0.49758 0.44621 0.13315 0.0
H540 H 0.13092 0.84612 0.91991 0.0
H541 H 0.10912 0.86344 0.84605 0.0
H542 H 0.1752 0.90757 0.81764 0.0
H543 H 0.19719 0.88986 0.89084 0.0
H544 H 0.0986 0.91291 0.84086 0.0
H545 H 0.15355 0.88469 0.67812 0.0
H546 H 0.15739 0.86941 0.73739 0.0
H547 H 0.17264 0.89917 0.72764 0.0
C548 C 0.14103 0.85888 0.89689 0.0
C549 C 0.16574 0.86662 0.91095 0.0
C550 C 0.12856 0.86883 0.85484 0.0
C551 C 0.14053 0.88675 0.82611 0.0
C552 C 0.16574 0.89338 0.83848 0.0
H553 H 0.08657 0.99877 0.61545 0.0
H554 H 0.11143 0.97317 0.67465 0.0
C555 C 0.17831 0.88324 0.88035 0.0
C556 C 0.12563 0.90083 0.7877 0.0
H557 H 0.12395 0.91849 0.66605 0.0
C558 C 0.10401 0.91386 0.80251 0.0
C559 C 0.13283 0.90232 0.73778 0.0
C560 C 0.15524 0.88795 0.71911 0.0
C561 C 0.08963 0.9286 0.76907 0.0
C562 C 0.09691 0.93021 0.71934 0.0
C563 C 0.11849 0.91723 0.70433 0.0
C564 C 0.08215 0.94524 0.68246 0.0
C565 C 0.06704 0.9428 0.78745 0.0
C566 C 0.05757 0.93786 0.66708 0.0
C567 C 0.04333 0.95239 0.63335 0.0
C568 C 0.05342 0.97463 0.61438 0.0
C569 C 0.07818 0.98185 0.62959 0.0
C570 C 0.09245 0.9672 0.66319 0.0
H571 H 0.06705 0.94382 0.82877 0.0
H572 H 0.06653 0.96233 0.77309 0.0
H573 H 0.0495 0.93301 0.77359 0.0
H574 H 0.0494 0.92082 0.6812 0.0
H575 H 0.02439 0.9462 0.62223 0.0
loop_
_geom_bond_atom_site_label_1
_geom_bond_atom_site_label_2
_geom_bond_distance
_geom_bond_site_symmetry_2
_ccdc_geom_bond_type
H0 C1 0.949 . S
C1 H0 0.949 . S
C1 C2 1.395 . S
C1 C3 1.391 . S
C2 C1 1.395 . S
C2 C5 1.390 . S
C3 C1 1.391 . S
C3 C7 1.387 1_554 S
C3 C8 1.491 1_554 S
H4 C5 0.950 . S
C5 C2 1.390 . S
C5 H4 0.950 . S
C5 C6 1.378 1_554 S
C6 C5 1.378 1_556 S
C6 C7 1.409 . S
C7 C3 1.387 1_556 S
C7 C6 1.409 . S
C7 H9 0.951 . S
C8 C3 1.491 1_556 S
C8 C10 1.382 1_556 S
C8 C12 1.404 . S
H9 C7 0.951 . S
C10 C8 1.382 1_554 S
C10 C11 1.390 . S
C10 H15 0.949 . S
C11 C10 1.390 . S
C11 C16 1.399 1_554 S
C12 C8 1.404 . S
C12 H13 0.950 . S
C12 C14 1.375 . S
H13 C12 0.950 . S
C14 C12 1.375 . S
C14 C16 1.382 . S
C14 H18 0.950 . S
H15 C10 0.949 . S
C16 C11 1.399 1_556 S
C16 C14 1.382 . S
C16 H17 0.952 . S
H17 C16 0.952 . S
H18 C14 0.950 . S
H19 C20 0.949 . S
C20 H19 0.949 . S
C20 C21 1.395 . S
C20 C22 1.391 . S
C21 C20 1.395 . S
C21 C24 1.390 . S
C22 C20 1.391 . S
C22 C26 1.387 . S
C22 C27 1.491 . S
H23 C24 0.950 . S
C24 C21 1.390 . S
C24 H23 0.950 . S
C24 C25 1.378 . S
C25 C24 1.378 . S
C25 C26 1.409 . S
C26 C22 1.387 . S
C26 C25 1.409 . S
C26 H28 0.951 . S
C27 C22 1.491 . S
C27 C29 1.382 . S
C27 C31 1.404 . S
H28 C26 0.951 . S
C29 C27 1.382 . S
C29 C30 1.390 . S
C29 H34 0.949 . S
C30 C29 1.390 . S
C30 C35 1.399 . S
C31 C27 1.404 . S
C31 H32 0.950 . S
C31 C33 1.375 . S
H32 C31 0.950 . S
C33 C31 1.375 . S
C33 C35 1.382 . S
C33 H37 0.950 . S
H34 C29 0.949 . S
C35 C30 1.399 . S
C35 C33 1.382 . S
C35 H36 0.952 . S
H36 C35 0.952 . S
H37 C33 0.950 . S
H38 C39 0.949 . S
C39 H38 0.949 . S
C39 C40 1.395 . S
C39 C41 1.391 1_554 S
C40 C39 1.395 . S
C40 C43 1.390 . S
C41 C39 1.391 1_556 S
C41 C45 1.387 . S
C41 C46 1.491 . S
H42 C43 0.950 . S
C43 C40 1.390 . S
C43 H42 0.950 . S
C43 C44 1.378 1_554 S
C44 C43 1.378 1_556 S
C44 C45 1.409 . S
C45 C41 1.387 . S
C45 C44 1.409 . S
C45 H47 0.951 . S
C46 C41 1.491 . S
C46 C48 1.382 1_556 S
C46 C50 1.404 . S
H47 C45 0.951 . S
C48 C46 1.382 1_554 S
C48 C49 1.390 . S
C48 H53 0.949 . S
C49 C48 1.390 . S
C49 C54 1.399 1_554 S
C50 C46 1.404 . S
C50 H51 0.950 . S
C50 C52 1.375 . S
H51 C50 0.950 . S
C52 C50 1.375 . S
C52 C54 1.382 . S
C52 H56 0.950 . S
H53 C48 0.949 . S
C54 C49 1.399 1_556 S
C54 C52 1.382 . S
C54 H55 0.952 . S
H55 C54 0.952 . S
H56 C52 0.950 . S
H57 C58 0.949 . S
C58 H57 0.949 . S
C58 C59 1.395 . S
C58 C60 1.391 . S
C59 C58 1.395 . S
C59 C62 1.390 . S
C60 C58 1.391 . S
C60 C64 1.387 . S
C60 C65 1.491 . S
H61 C62 0.950 . S
C62 C59 1.390 . S
C62 H61 0.950 . S
C62 C63 1.378 . S
C63 C62 1.378 . S
C63 C64 1.409 . S
C64 C60 1.387 . S
C64 C63 1.409 . S
C64 H66 0.951 . S
C65 C60 1.491 . S
C65 C67 1.382 . S
C65 C69 1.404 . S
H66 C64 0.951 . S
C67 C65 1.382 . S
C67 C68 1.390 . S
C67 H72 0.949 . S
C68 C67 1.390 . S
C68 C73 1.399 . S
C69 C65 1.404 . S
C69 H70 0.950 . S
C69 C71 1.375 . S
H70 C69 0.950 . S
C71 C69 1.375 . S
C71 C73 1.382 . S
C71 H75 0.950 . S
H72 C67 0.949 . S
C73 C68 1.399 . S
C73 C71 1.382 . S
C73 H74 0.952 . S
H74 C73 0.952 . S
H75 C71 0.950 . S
C76 O92 1.251 1_565 S
C76 O94 1.254 . S
N77 C78 1.333 . S
N77 C82 1.307 . S
N77 Zn83 2.020 . S
C78 N77 1.333 . S
C78 C79 1.379 . S
C78 H96 0.952 . S
C79 C78 1.379 . S
C79 C80 1.390 . S
C79 H106 0.949 . S
C80 C79 1.390 . S
C80 C81 1.357 . S
C81 C80 1.357 . S
C81 C82 1.370 . S
C81 H107 0.950 . S
C82 N77 1.307 . S
C82 C81 1.370 . S
C82 H100 0.948 . S
Zn83 N77 2.020 . S
Zn83 O92 2.039 . S
Zn83 O98 2.034 . S
Zn83 O102 2.050 . S
Zn83 O104 2.029 . S
C84 O103 1.246 . S
C84 O104 1.243 1_655 S
N85 C86 1.307 . S
N85 C87 1.333 . S
N85 Zn91 2.020 . S
C86 N85 1.307 . S
C86 C90 1.370 . S
C86 H97 0.948 . S
C87 N85 1.333 . S
C87 C88 1.379 . S
C87 H95 0.952 . S
C88 C87 1.379 . S
C88 C89 1.390 . S
C88 H108 0.949 . S
C89 C88 1.390 . S
C89 C90 1.357 . S
C90 C86 1.370 . S
C90 C89 1.357 . S
C90 H109 0.950 . S
Zn91 N85 2.020 . S
Zn91 O94 2.025 1_655 S
Zn91 O99 2.024 1_655 S
Zn91 O101 2.039 1_565 S
Zn91 O103 2.034 1_565 S
O92 C76 1.251 1_545 S
O92 Zn83 2.039 . S
C93 O98 1.246 1_565 S
C93 O99 1.249 . S
O94 C76 1.254 . S
O94 Zn91 2.025 1_455 S
H95 C87 0.952 . S
H96 C78 0.952 . S
H97 C86 0.948 . S
O98 Zn83 2.034 . S
O98 C93 1.246 1_545 S
O99 Zn91 2.024 1_455 S
O99 C93 1.249 . S
H100 C82 0.948 . S
O101 Zn91 2.039 1_545 S
O101 C105 1.251 . S
O102 Zn83 2.050 . S
O102 C105 1.222 1_455 S
O103 C84 1.246 . S
O103 Zn91 2.034 1_545 S
O104 Zn83 2.029 . S
O104 C84 1.243 1_455 S
C105 O101 1.251 . S
C105 O102 1.222 1_655 S
H106 C79 0.949 . S
H107 C81 0.950 . S
H108 C88 0.949 . S
H109 C90 0.950 . S
C110 O126 1.251 . S
C110 O128 1.254 . S
N111 C112 1.333 . S
N111 C116 1.307 . S
N111 Zn117 2.020 . S
C112 N111 1.333 . S
C112 C113 1.379 . S
C112 H130 0.948 1_554 S
C113 C112 1.379 . S
C113 C114 1.390 . S
C113 H140 0.949 1_554 S
C114 C113 1.390 . S
C114 C115 1.357 . S
C115 C114 1.357 . S
C115 C116 1.370 . S
C115 H141 0.950 . S
C116 N111 1.307 . S
C116 C115 1.370 . S
C116 H134 0.948 . S
Zn117 N111 2.020 . S
Zn117 O126 2.039 1_554 S
Zn117 O132 2.034 . S
Zn117 O136 2.025 . S
Zn117 O138 2.024 1_554 S
C118 O137 1.246 . S
C118 O138 1.249 . S
N119 C120 1.307 . S
N119 C121 1.333 . S
N119 Zn125 2.020 . S
C120 N119 1.307 . S
C120 C124 1.370 . S
C120 H131 0.948 . S
C121 N119 1.333 . S
C121 C122 1.379 . S
C121 H129 0.952 . S
C122 C121 1.379 . S
C122 C123 1.390 . S
C122 H142 0.949 . S
C123 C122 1.390 . S
C123 C124 1.357 . S
C124 C120 1.370 . S
C124 C123 1.357 . S
C124 H143 0.950 . S
Zn125 N119 2.020 . S
Zn125 O128 2.025 1_554 S
Zn125 O133 2.024 . S
Zn125 O135 2.039 . S
Zn125 O137 2.034 1_554 S
O126 C110 1.251 . S
O126 Zn117 2.039 1_556 S
C127 O132 1.246 . S
C127 O133 1.249 . S
O128 C110 1.254 . S
O128 Zn125 2.025 1_556 S
H129 C121 0.952 . S
H130 C112 0.948 1_556 S
H131 C120 0.948 . S
O132 Zn117 2.034 . S
O132 C127 1.246 . S
O133 Zn125 2.024 . S
O133 C127 1.249 . S
H134 C116 0.948 . S
O135 Zn125 2.039 . S
O135 C139 1.251 . S
O136 Zn117 2.025 . S
O136 C139 1.254 . S
O137 C118 1.246 . S
O137 Zn125 2.034 1_556 S
O138 Zn117 2.024 1_556 S
O138 C118 1.249 . S
C139 O135 1.251 . S
C139 O136 1.254 . S
H140 C113 0.949 1_556 S
H141 C115 0.950 . S
H142 C122 0.949 . S
H143 C124 0.950 . S
H144 C152 0.929 . S
H145 C154 0.930 . S
H146 C156 0.930 . S
H147 C159 0.929 . S
H148 C162 0.930 . S
H149 C164 0.960 . S
H150 C164 0.960 . S
H151 C164 0.960 . S
C152 H144 0.929 . S
C152 C153 1.377 . S
C152 C154 1.384 . S
C153 C152 1.377 . S
C153 C159 1.390 . S
C154 H145 0.930 . S
C154 C152 1.384 . S
C154 C155 1.372 . S
C155 C154 1.372 . S
C155 C156 1.400 . S
C155 C160 1.490 . S
C156 H146 0.930 . S
C156 C155 1.400 . S
C156 C159 1.386 . S
H157 C173 0.930 . S
H158 C174 0.931 . S
C159 H147 0.929 . S
C159 C153 1.390 . S
C159 C156 1.386 . S
C160 C155 1.490 . S
C160 C162 1.395 . S
C160 C163 1.403 . S
H161 C167 0.930 . S
C162 H148 0.930 . S
C162 C160 1.395 . S
C162 C165 1.403 . S
C163 C160 1.403 . S
C163 C164 1.524 . S
C163 C167 1.400 . S
C164 H149 0.960 . S
C164 H150 0.960 . S
C164 H151 0.960 . S
C164 C163 1.524 . S
C165 C162 1.403 . S
C165 C166 1.392 . S
C165 C169 1.495 . S
C166 C165 1.392 . S
C166 C167 1.385 . S
C166 C168 1.478 . S
C167 H161 0.930 . S
C167 C163 1.400 . S
C167 C166 1.385 . S
C168 C166 1.478 . S
C168 C170 1.381 . S
C168 C174 1.383 . S
C169 C165 1.495 . S
C169 H175 0.959 . S
C169 H176 0.961 . S
C169 H177 0.960 . S
C170 C168 1.381 . S
C170 C171 1.394 . S
C170 H178 0.930 . S
C171 C170 1.394 . S
C171 C172 1.383 . S
C171 H179 0.929 . S
C172 C171 1.383 . S
C172 C173 1.377 . S
C173 H157 0.930 . S
C173 C172 1.377 . S
C173 C174 1.379 . S
C174 H158 0.931 . S
C174 C168 1.383 . S
C174 C173 1.379 . S
H175 C169 0.959 . S
H176 C169 0.961 . S
H177 C169 0.960 . S
H178 C170 0.930 . S
H179 C171 0.929 . S
H180 C188 0.929 . S
H181 C190 0.930 . S
H182 C192 0.930 . S
H183 C195 0.929 . S
H184 C198 0.930 . S
H185 C200 0.960 . S
H186 C200 0.960 . S
H187 C200 0.960 . S
C188 H180 0.929 . S
C188 C189 1.377 1_556 S
C188 C190 1.384 . S
C189 C188 1.377 1_554 S
C189 C195 1.390 . S
C190 H181 0.930 . S
C190 C188 1.384 . S
C190 C191 1.372 1_556 S
C191 C190 1.372 1_554 S
C191 C192 1.400 . S
C191 C196 1.490 . S
C192 H182 0.930 . S
C192 C191 1.400 . S
C192 C195 1.386 . S
H193 C209 0.930 . S
H194 C210 0.931 . S
C195 H183 0.929 . S
C195 C189 1.390 . S
C195 C192 1.386 . S
C196 C191 1.490 . S
C196 C198 1.395 . S
C196 C199 1.403 . S
H197 C203 0.930 . S
C198 H184 0.930 . S
C198 C196 1.395 . S
C198 C201 1.403 . S
C199 C196 1.403 . S
C199 C200 1.524 . S
C199 C203 1.400 . S
C200 H185 0.960 . S
C200 H186 0.960 . S
C200 H187 0.960 . S
C200 C199 1.524 . S
C201 C198 1.403 . S
C201 C202 1.392 . S
C201 C205 1.495 . S
C202 C201 1.392 . S
C202 C203 1.385 . S
C202 C204 1.478 . S
C203 H197 0.930 . S
C203 C199 1.400 . S
C203 C202 1.385 . S
C204 C202 1.478 . S
C204 C206 1.381 1_554 S
C204 C210 1.383 . S
C205 C201 1.495 . S
C205 H211 0.959 . S
C205 H212 0.961 . S
C205 H213 0.960 1_554 S
C206 C204 1.381 1_556 S
C206 C207 1.394 . S
C206 H214 0.930 . S
C207 C206 1.394 . S
C207 C208 1.383 1_556 S
C207 H215 0.929 . S
C208 C207 1.383 1_554 S
C208 C209 1.377 . S
C209 H193 0.930 . S
C209 C208 1.377 . S
C209 C210 1.379 . S
C210 H194 0.931 . S
C210 C204 1.383 . S
C210 C209 1.379 . S
H211 C205 0.959 . S
H212 C205 0.961 . S
H213 C205 0.960 1_556 S
H214 C206 0.930 . S
H215 C207 0.929 . S
H216 C224 0.929 . S
H217 C226 0.930 . S
H218 C228 0.930 . S
H219 C231 0.929 . S
H220 C234 0.930 . S
H221 C236 0.960 . S
H222 C236 0.960 . S
H223 C236 0.960 . S
C224 H216 0.929 . S
C224 C225 1.377 . S
C224 C226 1.384 . S
C225 C224 1.377 . S
C225 C231 1.390 . S
C226 H217 0.930 . S
C226 C224 1.384 . S
C226 C227 1.372 . S
C227 C226 1.372 . S
C227 C228 1.400 . S
C227 C232 1.490 . S
C228 H218 0.930 . S
C228 C227 1.400 . S
C228 C231 1.386 . S
H229 C245 0.930 . S
H230 C246 0.931 . S
C231 H219 0.929 . S
C231 C225 1.390 . S
C231 C228 1.386 . S
C232 C227 1.490 . S
C232 C234 1.395 . S
C232 C235 1.403 . S
H233 C239 0.930 . S
C234 H220 0.930 . S
C234 C232 1.395 . S
C234 C237 1.403 . S
C235 C232 1.403 . S
C235 C236 1.524 . S
C235 C239 1.400 . S
C236 H221 0.960 . S
C236 H222 0.960 . S
C236 H223 0.960 . S
C236 C235 1.524 . S
C237 C234 1.403 . S
C237 C238 1.392 . S
C237 C241 1.495 . S
C238 C237 1.392 . S
C238 C239 1.385 . S
C238 C240 1.478 . S
C239 H233 0.930 . S
C239 C235 1.400 . S
C239 C238 1.385 . S
C240 C238 1.478 . S
C240 C242 1.381 . S
C240 C246 1.383 . S
C241 C237 1.495 . S
C241 H247 0.959 . S
C241 H248 0.961 . S
C241 H249 0.960 . S
C242 C240 1.381 . S
C242 C243 1.394 . S
C242 H250 0.930 . S
C243 C242 1.394 . S
C243 C244 1.383 . S
C243 H251 0.929 . S
C244 C243 1.383 . S
C244 C245 1.377 . S
C245 H229 0.930 . S
C245 C244 1.377 . S
C245 C246 1.379 . S
C246 H230 0.931 . S
C246 C240 1.383 . S
C246 C245 1.379 . S
H247 C241 0.959 . S
H248 C241 0.961 . S
H249 C241 0.960 . S
H250 C242 0.930 . S
H251 C243 0.929 . S
H252 C260 0.929 . S
H253 C262 0.930 . S
H254 C264 0.930 . S
H255 C267 0.929 . S
H256 C270 0.930 . S
H257 C272 0.960 . S
H258 C272 0.960 . S
H259 C272 0.979 . S
C260 H252 0.929 . S
C260 C261 1.377 . S
C260 C262 1.384 . S
C261 C260 1.377 . S
C261 C267 1.390 1_554 S
C262 H253 0.930 . S
C262 C260 1.384 . S
C262 C263 1.372 . S
C263 C262 1.372 . S
C263 C264 1.400 1_554 S
C263 C268 1.490 . S
C264 H254 0.930 . S
C264 C263 1.400 1_556 S
C264 C267 1.386 . S
H265 C281 0.930 . S
H266 C282 0.931 . S
C267 H255 0.929 . S
C267 C261 1.390 1_556 S
C267 C264 1.386 . S
C268 C263 1.490 . S
C268 C270 1.395 . S
C268 C271 1.403 . S
H269 C275 0.930 . S
C270 H256 0.930 . S
C270 C268 1.395 . S
C270 C273 1.403 . S
C271 C268 1.403 . S
C271 C272 1.524 . S
C271 C275 1.400 . S
C272 H257 0.960 . S
C272 H258 0.960 . S
C272 H259 0.979 . S
C272 C271 1.524 . S
C273 C270 1.403 . S
C273 C274 1.392 . S
C273 C277 1.495 . S
C274 C273 1.392 . S
C274 C275 1.385 . S
C274 C276 1.478 . S
C275 H269 0.930 . S
C275 C271 1.400 . S
C275 C274 1.385 . S
C276 C274 1.478 . S
C276 C278 1.381 . S
C276 C282 1.383 1_554 S
C277 C273 1.495 . S
C277 H283 0.959 . S
C277 H284 0.961 1_554 S
C277 H285 0.960 . S
C278 C276 1.381 . S
C278 C279 1.394 . S
C278 H286 0.930 . S
C279 C278 1.394 . S
C279 C280 1.383 . S
C279 H287 0.929 . S
C280 C279 1.383 . S
C280 C281 1.377 1_554 S
C281 H265 0.930 . S
C281 C280 1.377 1_556 S
C281 C282 1.379 . S
C282 H266 0.931 . S
C282 C276 1.383 1_556 S
C282 C281 1.379 . S
H283 C277 0.959 . S
H284 C277 0.961 1_556 S
H285 C277 0.960 . S
H286 C278 0.930 . S
H287 C279 0.929 . S
H288 C296 0.929 . S
H289 C298 0.930 . S
H290 C300 0.930 . S
H291 C303 0.929 . S
H292 C306 0.930 . S
H293 C308 0.960 . S
H294 C308 0.960 . S
H295 C308 0.960 . S
C296 H288 0.929 . S
C296 C297 1.377 . S
C296 C298 1.384 . S
C297 C296 1.377 . S
C297 C303 1.390 . S
C298 H289 0.930 . S
C298 C296 1.384 . S
C298 C299 1.372 . S
C299 C298 1.372 . S
C299 C300 1.400 . S
C299 C304 1.490 . S
C300 H290 0.930 . S
C300 C299 1.400 . S
C300 C303 1.386 . S
H301 C317 0.930 . S
H302 C318 0.931 . S
C303 H291 0.929 . S
C303 C297 1.390 . S
C303 C300 1.386 . S
C304 C299 1.490 . S
C304 C306 1.395 . S
C304 C307 1.403 . S
H305 C311 0.930 . S
C306 H292 0.930 . S
C306 C304 1.395 . S
C306 C309 1.403 . S
C307 C304 1.403 . S
C307 C308 1.524 . S
C307 C311 1.400 . S
C308 H293 0.960 . S
C308 H294 0.960 . S
C308 H295 0.960 . S
C308 C307 1.524 . S
C309 C306 1.403 . S
C309 C310 1.392 . S
C309 C313 1.495 . S
C310 C309 1.392 . S
C310 C311 1.385 . S
C310 C312 1.478 . S
C311 H305 0.930 . S
C311 C307 1.400 . S
C311 C310 1.385 . S
C312 C310 1.478 . S
C312 C314 1.381 . S
C312 C318 1.383 . S
C313 C309 1.495 . S
C313 H319 0.959 . S
C313 H320 0.961 . S
C313 H321 0.960 . S
C314 C312 1.381 . S
C314 C315 1.394 . S
C314 H322 0.930 . S
C315 C314 1.394 . S
C315 C316 1.383 . S
C315 H323 0.929 . S
C316 C315 1.383 . S
C316 C317 1.377 . S
C317 H301 0.930 . S
C317 C316 1.377 . S
C317 C318 1.379 . S
C318 H302 0.931 . S
C318 C312 1.383 . S
C318 C317 1.379 . S
H319 C313 0.959 . S
H320 C313 0.961 . S
H321 C313 0.960 . S
H322 C314 0.930 . S
H323 C315 0.929 . S
H324 C332 0.929 . S
H325 C334 0.930 . S
H326 C336 0.930 . S
H327 C339 0.929 . S
H328 C342 0.930 . S
H329 C344 0.960 . S
H330 C344 0.960 . S
H331 C344 0.960 . S
C332 H324 0.929 . S
C332 C333 1.377 . S
C332 C334 1.384 . S
C333 C332 1.377 . S
C333 C339 1.390 . S
C334 H325 0.930 . S
C334 C332 1.384 . S
C334 C335 1.372 . S
C335 C334 1.372 . S
C335 C336 1.400 . S
C335 C340 1.490 . S
C336 H326 0.930 . S
C336 C335 1.400 . S
C336 C339 1.386 . S
H337 C353 0.930 . S
H338 C354 0.931 . S
C339 H327 0.929 . S
C339 C333 1.390 . S
C339 C336 1.386 . S
C340 C335 1.490 . S
C340 C342 1.395 . S
C340 C343 1.403 . S
H341 C347 0.930 . S
C342 H328 0.930 . S
C342 C340 1.395 . S
C342 C345 1.403 . S
C343 C340 1.403 . S
C343 C344 1.524 . S
C343 C347 1.400 . S
C344 H329 0.960 . S
C344 H330 0.960 . S
C344 H331 0.960 . S
C344 C343 1.524 . S
C345 C342 1.403 . S
C345 C346 1.392 . S
C345 C349 1.495 . S
C346 C345 1.392 . S
C346 C347 1.385 . S
C346 C348 1.478 . S
C347 H341 0.930 . S
C347 C343 1.400 . S
C347 C346 1.385 . S
C348 C346 1.478 . S
C348 C350 1.381 . S
C348 C354 1.383 . S
C349 C345 1.495 . S
C349 H355 0.959 . S
C349 H356 0.961 . S
C349 H357 0.960 . S
C350 C348 1.381 . S
C350 C351 1.394 . S
C350 H358 0.930 . S
C351 C350 1.394 . S
C351 C352 1.383 . S
C351 H359 0.929 . S
C352 C351 1.383 . S
C352 C353 1.377 . S
C353 H337 0.930 . S
C353 C352 1.377 . S
C353 C354 1.379 . S
C354 H338 0.931 . S
C354 C348 1.383 . S
C354 C353 1.379 . S
H355 C349 0.959 . S
H356 C349 0.961 . S
H357 C349 0.960 . S
H358 C350 0.930 . S
H359 C351 0.929 . S
H360 C368 0.929 . S
H361 C370 0.930 . S
H362 C372 0.930 . S
H363 C375 0.929 . S
H364 C378 0.930 . S
H365 C380 0.960 . S
H366 C380 0.960 . S
H367 C380 0.960 . S
C368 H360 0.929 . S
C368 C369 1.377 . S
C368 C370 1.384 . S
C369 C368 1.377 . S
C369 C375 1.390 . S
C370 H361 0.930 . S
C370 C368 1.384 . S
C370 C371 1.372 . S
C371 C370 1.372 . S
C371 C372 1.400 . S
C371 C376 1.490 . S
C372 H362 0.930 . S
C372 C371 1.400 . S
C372 C375 1.386 . S
H373 C389 0.930 . S
H374 C390 0.931 . S
C375 H363 0.929 . S
C375 C369 1.390 . S
C375 C372 1.386 . S
C376 C371 1.490 . S
C376 C378 1.395 . S
C376 C379 1.403 . S
H377 C383 0.930 . S
C378 H364 0.930 . S
C378 C376 1.395 . S
C378 C381 1.403 . S
C379 C376 1.403 . S
C379 C380 1.524 . S
C379 C383 1.400 . S
C380 H365 0.960 . S
C380 H366 0.960 . S
C380 H367 0.960 . S
C380 C379 1.524 . S
C381 C378 1.403 . S
C381 C382 1.392 . S
C381 C385 1.495 . S
C382 C381 1.392 . S
C382 C383 1.385 . S
C382 C384 1.478 . S
C383 H377 0.930 . S
C383 C379 1.400 . S
C383 C382 1.385 . S
C384 C382 1.478 . S
C384 C386 1.381 . S
C384 C390 1.383 . S
C385 C381 1.495 . S
C385 H391 0.959 . S
C385 H392 0.961 . S
C385 H393 0.960 . S
C386 C384 1.381 . S
C386 C387 1.394 . S
C386 H394 0.930 . S
C387 C386 1.394 . S
C387 C388 1.383 . S
C387 H395 0.929 . S
C388 C387 1.383 . S
C388 C389 1.377 . S
C389 H373 0.930 . S
C389 C388 1.377 . S
C389 C390 1.379 . S
C390 H374 0.931 . S
C390 C384 1.383 . S
C390 C389 1.379 . S
H391 C385 0.959 . S
H392 C385 0.961 . S
H393 C385 0.960 . S
H394 C386 0.930 . S
H395 C387 0.929 . S
H396 C404 0.929 . S
H397 C406 0.930 . S
H398 C408 0.930 . S
H399 C411 0.929 . S
H400 C414 0.930 . S
H401 C416 0.960 . S
H402 C416 0.960 . S
H403 C416 0.960 . S
C404 H396 0.929 . S
C404 C405 1.377 . S
C404 C406 1.384 . S
C405 C404 1.377 . S
C405 C411 1.390 . S
C406 H397 0.930 . S
C406 C404 1.384 . S
C406 C407 1.372 . S
C407 C406 1.372 . S
C407 C408 1.400 . S
C407 C412 1.490 . S
C408 H398 0.930 . S
C408 C407 1.400 . S
C408 C411 1.386 . S
H409 C425 0.930 . S
H410 C426 0.931 . S
C411 H399 0.929 . S
C411 C405 1.390 . S
C411 C408 1.386 . S
C412 C407 1.490 . S
C412 C414 1.395 . S
C412 C415 1.403 . S
H413 C419 0.930 . S
C414 H400 0.930 . S
C414 C412 1.395 . S
C414 C417 1.403 . S
C415 C412 1.403 . S
C415 C416 1.524 . S
C415 C419 1.400 . S
C416 H401 0.960 . S
C416 H402 0.960 . S
C416 H403 0.960 . S
C416 C415 1.524 . S
C417 C414 1.403 . S
C417 C418 1.392 . S
C417 C421 1.495 . S
C418 C417 1.392 . S
C418 C419 1.385 . S
C418 C420 1.478 . S
C419 H413 0.930 . S
C419 C415 1.400 . S
C419 C418 1.385 . S
C420 C418 1.478 . S
C420 C422 1.381 . S
C420 C426 1.383 . S
C421 C417 1.495 . S
C421 H427 0.959 . S
C421 H428 0.961 . S
C421 H429 0.960 . S
C422 C420 1.381 . S
C422 C423 1.394 . S
C422 H430 0.930 . S
C423 C422 1.394 . S
C423 C424 1.383 . S
C423 H431 0.929 . S
C424 C423 1.383 . S
C424 C425 1.377 . S
C425 H409 0.930 . S
C425 C424 1.377 . S
C425 C426 1.379 . S
C426 H410 0.931 . S
C426 C420 1.383 . S
C426 C425 1.379 . S
H427 C421 0.959 . S
H428 C421 0.961 . S
H429 C421 0.960 . S
H430 C422 0.930 . S
H431 C423 0.929 . S
H432 C440 0.929 . S
H433 C442 0.930 . S
H434 C444 0.930 . S
H435 C447 0.929 . S
H436 C450 0.930 . S
H437 C452 0.960 . S
H438 C452 0.960 . S
H439 C452 0.960 . S
C440 H432 0.929 . S
C440 C441 1.377 . S
C440 C442 1.384 . S
C441 C440 1.377 . S
C441 C447 1.390 . S
C442 H433 0.930 . S
C442 C440 1.384 . S
C442 C443 1.372 . S
C443 C442 1.372 . S
C443 C444 1.400 . S
C443 C448 1.490 . S
C444 H434 0.930 . S
C444 C443 1.400 . S
C444 C447 1.386 . S
H445 C461 0.930 . S
H446 C462 0.931 . S
C447 H435 0.929 . S
C447 C441 1.390 . S
C447 C444 1.386 . S
C448 C443 1.490 . S
C448 C450 1.395 . S
C448 C451 1.403 . S
H449 C455 0.930 . S
C450 H436 0.930 . S
C450 C448 1.395 . S
C450 C453 1.403 . S
C451 C448 1.403 . S
C451 C452 1.524 . S
C451 C455 1.400 . S
C452 H437 0.960 . S
C452 H438 0.960 . S
C452 H439 0.960 . S
C452 C451 1.524 . S
C453 C450 1.403 . S
C453 C454 1.392 . S
C453 C457 1.495 . S
C454 C453 1.392 . S
C454 C455 1.385 . S
C454 C456 1.478 . S
C455 H449 0.930 . S
C455 C451 1.400 . S
C455 C454 1.385 . S
C456 C454 1.478 . S
C456 C458 1.381 . S
C456 C462 1.383 . S
C457 C453 1.495 . S
C457 H463 0.959 . S
C457 H464 0.961 . S
C457 H465 0.960 . S
C458 C456 1.381 . S
C458 C459 1.394 . S
C458 H466 0.930 . S
C459 C458 1.394 . S
C459 C460 1.383 . S
C459 H467 0.929 . S
C460 C459 1.383 . S
C460 C461 1.377 . S
C461 H445 0.930 . S
C461 C460 1.377 . S
C461 C462 1.379 . S
C462 H446 0.931 . S
C462 C456 1.383 . S
C462 C461 1.379 . S
H463 C457 0.959 . S
H464 C457 0.961 . S
H465 C457 0.960 . S
H466 C458 0.930 . S
H467 C459 0.929 . S
H468 C476 0.929 . S
H469 C478 0.930 . S
H470 C480 0.930 . S
H471 C483 0.929 . S
H472 C486 0.930 . S
H473 C488 0.960 . S
H474 C488 0.960 . S
H475 C488 0.960 . S
C476 H468 0.929 . S
C476 C477 1.377 . S
C476 C478 1.384 . S
C477 C476 1.377 . S
C477 C483 1.390 . S
C478 H469 0.930 . S
C478 C476 1.384 . S
C478 C479 1.372 . S
C479 C478 1.372 . S
C479 C480 1.400 . S
C479 C484 1.490 . S
C480 H470 0.930 . S
C480 C479 1.400 . S
C480 C483 1.386 . S
H481 C497 0.930 . S
H482 C498 0.931 . S
C483 H471 0.929 . S
C483 C477 1.390 . S
C483 C480 1.386 . S
C484 C479 1.490 . S
C484 C486 1.395 . S
C484 C487 1.403 . S
H485 C491 0.930 . S
C486 H472 0.930 . S
C486 C484 1.395 . S
C486 C489 1.403 . S
C487 C484 1.403 . S
C487 C488 1.524 . S
C487 C491 1.400 . S
C488 H473 0.960 . S
C488 H474 0.960 . S
C488 H475 0.960 . S
C488 C487 1.524 . S
C489 C486 1.403 . S
C489 C490 1.392 . S
C489 C493 1.495 . S
C490 C489 1.392 . S
C490 C491 1.385 . S
C490 C492 1.478 . S
C491 H485 0.930 . S
C491 C487 1.400 . S
C491 C490 1.385 . S
C492 C490 1.478 . S
C492 C494 1.381 . S
C492 C498 1.383 . S
C493 C489 1.495 . S
C493 H499 0.959 . S
C493 H500 0.961 . S
C493 H501 0.960 . S
C494 C492 1.381 . S
C494 C495 1.394 . S
C494 H502 0.930 . S
C495 C494 1.394 . S
C495 C496 1.383 . S
C495 H503 0.929 . S
C496 C495 1.383 . S
C496 C497 1.377 . S
C497 H481 0.930 . S
C497 C496 1.377 . S
C497 C498 1.379 . S
C498 H482 0.931 . S
C498 C492 1.383 . S
C498 C497 1.379 . S
H499 C493 0.959 . S
H500 C493 0.961 . S
H501 C493 0.960 . S
H502 C494 0.930 . S
H503 C495 0.929 . S
H504 C512 0.929 . S
H505 C514 0.930 . S
H506 C516 0.930 . S
H507 C519 0.929 . S
H508 C522 0.930 . S
H509 C524 0.960 . S
H510 C524 0.960 . S
H511 C524 0.960 . S
C512 H504 0.929 . S
C512 C513 1.377 . S
C512 C514 1.384 . S
C513 C512 1.377 . S
C513 C519 1.390 . S
C514 H505 0.930 . S
C514 C512 1.384 . S
C514 C515 1.372 . S
C515 C514 1.372 . S
C515 C516 1.400 . S
C515 C520 1.490 . S
C516 H506 0.930 . S
C516 C515 1.400 . S
C516 C519 1.386 . S
H517 C533 0.930 . S
H518 C534 0.931 . S
C519 H507 0.929 . S
C519 C513 1.390 . S
C519 C516 1.386 . S
C520 C515 1.490 . S
C520 C522 1.395 . S
C520 C523 1.403 . S
H521 C527 0.930 . S
C522 H508 0.930 . S
C522 C520 1.395 . S
C522 C525 1.403 . S
C523 C520 1.403 . S
C523 C524 1.524 . S
C523 C527 1.400 . S
C524 H509 0.960 . S
C524 H510 0.960 . S
C524 H511 0.960 . S
C524 C523 1.524 . S
C525 C522 1.403 . S
C525 C526 1.392 . S
C525 C529 1.495 . S
C526 C525 1.392 . S
C526 C527 1.385 . S
C526 C528 1.478 . S
C527 H521 0.930 . S
C527 C523 1.400 . S
C527 C526 1.385 . S
C528 C526 1.478 . S
C528 C530 1.381 . S
C528 C534 1.383 . S
C529 C525 1.495 . S
C529 H535 0.959 . S
C529 H536 0.961 . S
C529 H537 0.960 . S
C530 C528 1.381 . S
C530 C531 1.394 . S
C530 H538 0.930 . S
C531 C530 1.394 . S
C531 C532 1.383 . S
C531 H539 0.929 . S
C532 C531 1.383 . S
C532 C533 1.377 . S
C533 H517 0.930 . S
C533 C532 1.377 . S
C533 C534 1.379 . S
C534 H518 0.931 . S
C534 C528 1.383 . S
C534 C533 1.379 . S
H535 C529 0.959 . S
H536 C529 0.961 . S
H537 C529 0.960 . S
H538 C530 0.930 . S
H539 C531 0.929 . S
H540 C548 0.929 . S
H541 C550 0.930 . S
H542 C552 0.930 . S
H543 C555 0.929 . S
H544 C558 0.930 . S
H545 C560 0.960 . S
H546 C560 0.960 . S
H547 C560 0.960 . S
C548 H540 0.929 . S
C548 C549 1.377 . S
C548 C550 1.384 . S
C549 C548 1.377 . S
C549 C555 1.390 . S
C550 H541 0.930 . S
C550 C548 1.384 . S
C550 C551 1.372 . S
C551 C550 1.372 . S
C551 C552 1.400 . S
C551 C556 1.490 . S
C552 H542 0.930 . S
C552 C551 1.400 . S
C552 C555 1.386 . S
H553 C569 0.956 . S
H554 C570 0.931 . S
C555 H543 0.929 . S
C555 C549 1.390 . S
C555 C552 1.386 . S
C556 C551 1.490 . S
C556 C558 1.395 . S
C556 C559 1.403 . S
H557 C563 0.930 . S
C558 H544 0.930 . S
C558 C556 1.395 . S
C558 C561 1.403 . S
C559 C556 1.403 . S
C559 C560 1.524 . S
C559 C563 1.400 . S
C560 H545 0.960 . S
C560 H546 0.960 . S
C560 H547 0.960 . S
C560 C559 1.524 . S
C561 C558 1.403 . S
C561 C562 1.392 . S
C561 C565 1.495 . S
C562 C561 1.392 . S
C562 C563 1.385 . S
C562 C564 1.478 . S
C563 H557 0.930 . S
C563 C559 1.400 . S
C563 C562 1.385 . S
C564 C562 1.478 . S
C564 C566 1.381 . S
C564 C570 1.383 . S
C565 C561 1.495 . S
C565 H571 0.959 . S
C565 H572 0.961 . S
C565 H573 0.960 . S
C566 C564 1.381 . S
C566 C567 1.394 . S
C566 H574 0.930 . S
C567 C566 1.394 . S
C567 C568 1.383 . S
C567 H575 0.929 . S
C568 C567 1.383 . S
C568 C569 1.377 . S
C569 H553 0.956 . S
C569 C568 1.377 . S
C569 C570 1.379 . S
C570 H554 0.931 . S
C570 C564 1.383 . S
C570 C569 1.379 . S
H571 C565 0.959 . S
H572 C565 0.961 . S
H573 C565 0.960 . S
H574 C566 0.930 . S
H575 C567 0.929 . S
C172 C80 1.549 . S
C153 C68 1.440 . S
C189 C11 1.432 . S
C208 C123 1.557 . S
C225 C30 1.444 . S
C244 C89 1.556 . S
C261 C49 1.442 . S
C280 C114 1.550 . S
C316 C76 1.635 . S
C297 C2 1.596 . S
C352 C118 1.615 . S
C333 C25 1.615 . S
C369 C40 1.602 . S
C388 C84 1.630 . S
C405 C59 1.575 . S
C424 C110 1.609 . S
C460 C139 1.503 . S
C441 C21 1.480 . S
C496 C105 1.493 . S
C477 C44 1.493 . S
C532 C127 1.502 . S
C513 C63 1.516 . S
C549 C6 1.494 . S
C568 C93 1.492 . S
