# Generated by pormake.
# Topology pyr, (3,6)-cn, num edge types: 1
# Building blocks:
#     Node 0, Type 0, BuildingBlock: BELTOD_clean_linker_0, # of connection points: 3
#     Node 1, Type 0, BuildingBlock: BELTOD_clean_linker_0, # of connection points: 3
#     Node 2, Type 0, BuildingBlock: BELTOD_clean_linker_0, # of connection points: 3
#     Node 3, Type 0, BuildingBlock: BELTOD_clean_linker_0, # of connection points: 3
#     Node 4, Type 0, BuildingBlock: BELTOD_clean_linker_0, # of connection points: 3
#     Node 5, Type 0, BuildingBlock: BELTOD_clean_linker_0, # of connection points: 3
#     Node 6, Type 0, BuildingBlock: BELTOD_clean_linker_0, # of connection points: 3
#     Node 7, Type 0, BuildingBlock: BELTOD_clean_linker_0, # of connection points: 3
#     Node 8, Type 1, BuildingBlock: JUFBIX_clean_sbu_0, # of connection points: 6
#     Node 9, Type 1, BuildingBlock: JUFBIX_clean_sbu_0, # of connection points: 6
#     Node 10, Type 1, BuildingBlock: JUFBIX_clean_sbu_0, # of connection points: 6
#     Node 11, Type 1, BuildingBlock: JUFBIX_clean_sbu_0, # of connection points: 6
#     Edge 12, Type (0, 1), BuildingBlock: XIVTED_clean_linker_0, # of connection points: 2
#     Edge 13, Type (0, 1), BuildingBlock: XIVTED_clean_linker_0, # of connection points: 2
#     Edge 14, Type (0, 1), BuildingBlock: XIVTED_clean_linker_0, # of connection points: 2
#     Edge 15, Type (0, 1), BuildingBlock: XIVTED_clean_linker_0, # of connection points: 2
#     Edge 16, Type (0, 1), BuildingBlock: XIVTED_clean_linker_0, # of connection points: 2
#     Edge 17, Type (0, 1), BuildingBlock: XIVTED_clean_linker_0, # of connection points: 2
#     Edge 18, Type (0, 1), BuildingBlock: XIVTED_clean_linker_0, # of connection points: 2
#     Edge 19, Type (0, 1), BuildingBlock: XIVTED_clean_linker_0, # of connection points: 2
#     Edge 20, Type (0, 1), BuildingBlock: XIVTED_clean_linker_0, # of connection points: 2
#     Edge 21, Type (0, 1), BuildingBlock: XIVTED_clean_linker_0, # of connection points: 2
#     Edge 22, Type (0, 1), BuildingBlock: XIVTED_clean_linker_0, # of connection points: 2
#     Edge 23, Type (0, 1), BuildingBlock: XIVTED_clean_linker_0, # of connection points: 2
#     Edge 24, Type (0, 1), BuildingBlock: XIVTED_clean_linker_0, # of connection points: 2
#     Edge 25, Type (0, 1), BuildingBlock: XIVTED_clean_linker_0, # of connection points: 2
#     Edge 26, Type (0, 1), BuildingBlock: XIVTED_clean_linker_0, # of connection points: 2
#     Edge 27, Type (0, 1), BuildingBlock: XIVTED_clean_linker_0, # of connection points: 2
#     Edge 28, Type (0, 1), BuildingBlock: XIVTED_clean_linker_0, # of connection points: 2
#     Edge 29, Type (0, 1), BuildingBlock: XIVTED_clean_linker_0, # of connection points: 2
#     Edge 30, Type (0, 1), BuildingBlock: XIVTED_clean_linker_0, # of connection points: 2
#     Edge 31, Type (0, 1), BuildingBlock: XIVTED_clean_linker_0, # of connection points: 2
#     Edge 32, Type (0, 1), BuildingBlock: XIVTED_clean_linker_0, # of connection points: 2
#     Edge 33, Type (0, 1), BuildingBlock: XIVTED_clean_linker_0, # of connection points: 2
#     Edge 34, Type (0, 1), BuildingBlock: XIVTED_clean_linker_0, # of connection points: 2
#     Edge 35, Type (0, 1), BuildingBlock: XIVTED_clean_linker_0, # of connection points: 2
# Relax obj value: 0.052
# Max RMSD: 0.092
# Mean RMSD: 0.040
data_MOF--net-pry--node1-JUFBIX_clean_sbu_0--node2-BELTOD_clean_linker_0--edge1-XIVTED_clean_linker_0
_symmetry_space_group_name_H-M    P1
_symmetry_Int_Tables_number       1
_symmetry_cell_setting            triclinic
loop_
_symmetry_equiv_pos_as_xyz
'x, y, z'
_cell_length_a     43.104383
_cell_length_b     41.23522
_cell_length_c     42.768113
_cell_angle_alpha  85.059817
_cell_angle_beta   90.09612
_cell_angle_gamma 91.408991
loop_
_atom_site_label
_atom_site_type_symbol
_atom_site_fract_x
_atom_site_fract_y
_atom_site_fract_z
_atom_type_partial_charge
P0 P 0.2073 0.17827 0.20103 0.0
H1 H 0.26716 0.2007 0.17517 0.0
H2 H 0.30765 0.17474 0.14719 0.0
H3 H 0.25041 0.08727 0.14739 0.0
H4 H 0.20963 0.11369 0.17563 0.0
H5 H 0.151 0.21119 0.21653 0.0
H6 H 0.11858 0.2505 0.1874 0.0
H7 H 0.1762 0.24524 0.10535 0.0
H8 H 0.20713 0.20388 0.13426 0.0
H9 H 0.22902 0.1421 0.25784 0.0
H10 H 0.14283 0.15093 0.20703 0.0
O11 O 0.22717 0.20395 0.22212 0.0
H12 H 0.20231 0.11128 0.30142 0.0
H13 H 0.11541 0.12216 0.25134 0.0
C14 C 0.23561 0.15893 0.17807 0.0
C15 C 0.26324 0.17592 0.16926 0.0
C16 C 0.28647 0.16099 0.15331 0.0
C17 C 0.28253 0.12872 0.14544 0.0
C18 C 0.2542 0.11214 0.15311 0.0
C19 C 0.23093 0.12714 0.16935 0.0
C20 C 0.18091 0.20359 0.1774 0.0
C21 C 0.15603 0.21758 0.19194 0.0
C22 C 0.13783 0.24075 0.1753 0.0
C23 C 0.14477 0.25163 0.1439 0.0
C24 C 0.16966 0.23729 0.12926 0.0
C25 C 0.18753 0.21355 0.14586 0.0
C26 C 0.18785 0.14972 0.22954 0.0
C27 C 0.20429 0.13729 0.25602 0.0
C28 C 0.18882 0.12 0.28118 0.0
C29 C 0.15636 0.11497 0.28062 0.0
C30 C 0.14032 0.12552 0.25295 0.0
C31 C 0.15599 0.14238 0.22754 0.0
P32 P 0.44508 0.91769 0.58154 0.0
H33 H 0.49825 0.93919 0.61807 0.0
H34 H 0.50271 0.9558 0.67162 0.0
H35 H 0.40421 0.93761 0.68498 0.0
H36 H 0.3999 0.9219 0.6316 0.0
H37 H 0.48264 0.87522 0.54625 0.0
H38 H 0.48726 0.8161 0.54875 0.0
H39 H 0.41865 0.80511 0.62265 0.0
H40 H 0.41417 0.86434 0.62011 0.0
H41 H 0.42004 0.98206 0.56922 0.0
H42 H 0.38843 0.88292 0.56187 0.0
O43 O 0.47311 0.93587 0.55901 0.0
H44 H 0.36734 1.00082 0.55897 0.0
H45 H 0.33576 0.90124 0.55281 0.0
C46 C 0.44867 0.92997 0.62072 0.0
C47 C 0.47764 0.93908 0.63253 0.0
C48 C 0.48017 0.94834 0.66317 0.0
C49 C 0.45374 0.94839 0.68245 0.0
C50 C 0.42489 0.93864 0.67054 0.0
C51 C 0.42241 0.92946 0.64002 0.0
C52 C 0.4483 0.87416 0.58319 0.0
C53 C 0.46867 0.86015 0.56306 0.0
C54 C 0.47133 0.82637 0.56456 0.0
C55 C 0.4534 0.80606 0.58602 0.0
C56 C 0.43262 0.82018 0.60581 0.0
C57 C 0.43024 0.854 0.60453 0.0
C58 C 0.40813 0.93113 0.5666 0.0
C59 C 0.40187 0.9644 0.56481 0.0
C60 C 0.3717 0.97504 0.55928 0.0
C61 C 0.34725 0.95248 0.55555 0.0
C62 C 0.35404 0.9193 0.5554 0.0
C63 C 0.38425 0.90872 0.56086 0.0
P64 P 0.7034 0.31603 0.8286 0.0
H65 H 0.76785 0.29892 0.8405 0.0
H66 H 0.80986 0.32364 0.86911 0.0
H67 H 0.74808 0.39789 0.89488 0.0
H68 H 0.70576 0.37258 0.86623 0.0
H69 H 0.63937 0.29358 0.81971 0.0
H70 H 0.60598 0.2537 0.84949 0.0
H71 H 0.67759 0.23954 0.91994 0.0
H72 H 0.71018 0.28077 0.8907 0.0
H73 H 0.71559 0.34405 0.76494 0.0
H74 H 0.64873 0.35605 0.83763 0.0
O75 O 0.71973 0.29099 0.80512 0.0
H76 H 0.68708 0.38122 0.72872 0.0
H77 H 0.61992 0.39367 0.80138 0.0
C78 C 0.73383 0.33428 0.85073 0.0
C79 C 0.76328 0.32058 0.85217 0.0
C80 C 0.78737 0.33483 0.86849 0.0
C81 C 0.78249 0.36301 0.88397 0.0
C82 C 0.75261 0.37616 0.88327 0.0
C83 C 0.72846 0.36187 0.86677 0.0
C84 C 0.67692 0.29099 0.85341 0.0
C85 C 0.64749 0.28273 0.84209 0.0
C86 C 0.62858 0.25941 0.85896 0.0
C87 C 0.63905 0.2431 0.88714 0.0
C88 C 0.66843 0.2519 0.89868 0.0
C89 C 0.68719 0.27553 0.88191 0.0
C90 C 0.68382 0.34662 0.80369 0.0
C91 C 0.69484 0.35491 0.77318 0.0
C92 C 0.67859 0.3764 0.75252 0.0
C93 C 0.65101 0.39024 0.76202 0.0
C94 C 0.64077 0.38299 0.79316 0.0
C95 C 0.65725 0.36159 0.81392 0.0
P96 P 0.90566 0.67857 0.40468 0.0
H97 H 0.96711 0.69628 0.37912 0.0
H98 H 0.00896 0.72962 0.39886 0.0
H99 H 0.96132 0.72844 0.48787 0.0
H100 H 0.92065 0.6937 0.46856 0.0
H101 H 0.86946 0.66889 0.34913 0.0
H102 H 0.87697 0.63643 0.30482 0.0
H103 H 0.96198 0.5999 0.34662 0.0
H104 H 0.95418 0.63256 0.39119 0.0
H105 H 0.85845 0.70179 0.4449 0.0
H106 H 0.8956 0.6093 0.42608 0.0
O107 O 0.8883 0.71218 0.38972 0.0
H108 H 0.81764 0.67406 0.47678 0.0
H109 H 0.85488 0.58104 0.45863 0.0
C110 C 0.94088 0.69215 0.42245 0.0
C111 C 0.96648 0.70175 0.40342 0.0
C112 C 0.99027 0.72119 0.41464 0.0
C113 C 0.98827 0.73231 0.44475 0.0
C114 C 0.96392 0.72019 0.46467 0.0
C115 C 0.94039 0.70035 0.45355 0.0
C116 C 0.91178 0.65385 0.37283 0.0
C117 C 0.88978 0.65399 0.34872 0.0
C118 C 0.89394 0.63521 0.32357 0.0
C119 C 0.92016 0.61582 0.32221 0.0
C120 C 0.94181 0.61504 0.34688 0.0
C121 C 0.93744 0.63368 0.37226 0.0
C122 C 0.87949 0.65757 0.43256 0.0
C123 C 0.8581 0.67545 0.44811 0.0
C124 C 0.83493 0.65948 0.46666 0.0
C125 C 0.83283 0.62524 0.47013 0.0
C126 C 0.85561 0.60741 0.45605 0.0
C127 C 0.8789 0.62351 0.43749 0.0
P128 P 0.84855 0.8607 0.87947 0.0
H129 H 0.82479 0.88878 0.93423 0.0
H130 H 0.77321 0.90137 0.95158 0.0
H131 H 0.73373 0.8629 0.86905 0.0
H132 H 0.78626 0.85096 0.85133 0.0
H133 H 0.87398 0.83574 0.93971 0.0
H134 H 0.89227 0.78251 0.95998 0.0
H135 H 0.86258 0.74236 0.8745 0.0
H136 H 0.84427 0.7961 0.85428 0.0
H137 H 0.82327 0.90568 0.82893 0.0
H138 H 0.89545 0.83509 0.83971 0.0
O139 O 0.87232 0.88647 0.8965 0.0
H140 H 0.84297 0.92403 0.77649 0.0
H141 H 0.91456 0.85245 0.78735 0.0
C142 C 0.80952 0.86954 0.89114 0.0
C143 C 0.80514 0.88321 0.91965 0.0
C144 C 0.77542 0.8901 0.92976 0.0
C145 C 0.74906 0.88308 0.91185 0.0
C146 C 0.75346 0.869 0.8833 0.0
C147 C 0.78345 0.86206 0.87316 0.0
C148 C 0.8585 0.82011 0.89515 0.0
C149 C 0.87123 0.81549 0.92534 0.0
C150 C 0.88154 0.7849 0.93702 0.0
C151 C 0.87923 0.75813 0.91877 0.0
C152 C 0.86523 0.76256 0.88895 0.0
C153 C 0.85463 0.79323 0.8774 0.0
C154 C 0.85713 0.86816 0.83801 0.0
C155 C 0.84256 0.89322 0.8196 0.0
C156 C 0.85396 0.9038 0.7896 0.0
C157 C 0.88053 0.88989 0.77767 0.0
C158 C 0.89431 0.86404 0.79583 0.0
C159 C 0.88298 0.85361 0.82571 0.0
P160 P 0.64814 0.19833 0.36449 0.0
H161 H 0.6165 0.25481 0.33657 0.0
H162 H 0.58888 0.29832 0.35913 0.0
H163 H 0.59852 0.24828 0.45153 0.0
H164 H 0.62578 0.2046 0.4287 0.0
H165 H 0.7093 0.21432 0.3888 0.0
H166 H 0.7457 0.18279 0.42208 0.0
H167 H 0.67624 0.10581 0.43846 0.0
H168 H 0.64 0.1375 0.40478 0.0
H169 H 0.5812 0.18529 0.35371 0.0
H170 H 0.66912 0.1456 0.33075 0.0
O171 O 0.67119 0.21908 0.33813 0.0
H172 H 0.55419 0.145 0.32379 0.0
H173 H 0.6426 0.10579 0.30074 0.0
C174 C 0.62373 0.227 0.38107 0.0
C175 C 0.61232 0.25305 0.36163 0.0
C176 C 0.59664 0.27789 0.37455 0.0
C177 C 0.59201 0.27693 0.40714 0.0
C178 C 0.60173 0.24965 0.42633 0.0
C179 C 0.61749 0.22478 0.41334 0.0
C180 C 0.6724 0.17776 0.39365 0.0
C181 C 0.70177 0.19087 0.39992 0.0
C182 C 0.72246 0.17291 0.41919 0.0
C183 C 0.71396 0.1416 0.43258 0.0
C184 C 0.68361 0.1296 0.42801 0.0
C185 C 0.66291 0.14767 0.4088 0.0
C186 C 0.62714 0.16838 0.34427 0.0
C187 C 0.59466 0.16784 0.34238 0.0
C188 C 0.57927 0.14483 0.32528 0.0
C189 C 0.59622 0.12204 0.31007 0.0
C190 C 0.62875 0.12249 0.31267 0.0
C191 C 0.644 0.14545 0.32956 0.0
P192 P 0.35113 0.62428 0.16782 0.0
H193 H 0.32305 0.56644 0.14421 0.0
H194 H 0.27042 0.55257 0.12826 0.0
H195 H 0.23803 0.64217 0.16056 0.0
H196 H 0.29128 0.65606 0.17662 0.0
H197 H 0.3964 0.67035 0.1914 0.0
H198 H 0.41404 0.72465 0.17163 0.0
H199 H 0.34298 0.72636 0.10007 0.0
H200 H 0.32628 0.67122 0.11931 0.0
H201 H 0.40754 0.59543 0.19365 0.0
H202 H 0.32216 0.63008 0.22949 0.0
O203 O 0.37295 0.60425 0.14405 0.0
H204 H 0.4268 0.58431 0.2469 0.0
H205 H 0.34156 0.6192 0.28337 0.0
C206 C 0.31122 0.61266 0.16086 0.0
C207 C 0.30469 0.58308 0.1481 0.0
C208 C 0.27456 0.57519 0.13891 0.0
C209 C 0.25019 0.59656 0.14261 0.0
C210 C 0.25637 0.62528 0.15733 0.0
C211 C 0.28675 0.63328 0.1664 0.0
C212 C 0.35944 0.66691 0.15738 0.0
C213 C 0.38407 0.68261 0.17192 0.0
C214 C 0.39417 0.71387 0.16055 0.0
C215 C 0.37998 0.73009 0.13419 0.0
C216 C 0.35473 0.71454 0.12017 0.0
C217 C 0.34481 0.68313 0.13146 0.0
C218 C 0.36318 0.61304 0.2076 0.0
C219 C 0.39271 0.60026 0.21303 0.0
C220 C 0.40388 0.59424 0.24355 0.0
C221 C 0.38581 0.60105 0.26941 0.0
C222 C 0.35593 0.61344 0.26396 0.0
C223 C 0.34481 0.61964 0.23322 0.0
P224 P 0.10718 0.36763 0.61925 0.0
H225 H 0.11193 0.32708 0.56731 0.0
H226 H 0.078 0.28454 0.54934 0.0
H227 H 1.0072 0.30875 0.61402 0.0
H228 H 0.04069 0.35246 0.63103 0.0
H229 H 0.1442 0.42278 0.63613 0.0
H230 H 0.18457 0.45522 0.60837 0.0
H231 H 0.15918 0.41335 0.52247 0.0
H232 H 0.11784 0.38132 0.55039 0.0
H233 H 0.12096 0.35893 0.68618 0.0
H234 H 0.0603 0.41716 0.62513 0.0
O235 O 0.13385 0.34118 0.63249 0.0
H236 H 0.10599 0.38887 0.7302 0.0
H237 H 0.0446 0.44695 0.66987 0.0
C238 C 0.07864 0.34392 0.59975 0.0
C239 C 0.08843 0.32479 0.57624 0.0
C240 C 0.06907 0.30017 0.56616 0.0
C241 C 0.03994 0.29351 0.58021 0.0
C242 C 0.0295 0.31361 0.60269 0.0
C243 C 0.04867 0.33873 0.61231 0.0
C244 C 0.1281 0.39913 0.59558 0.0
C245 C 0.14625 0.42146 0.61104 0.0
C246 C 0.16944 0.44021 0.59504 0.0
C247 C 0.17536 0.43657 0.56327 0.0
C248 C 0.15538 0.41633 0.54708 0.0
C249 C 0.13181 0.3978 0.56314 0.0
C250 C 0.09158 0.38573 0.65243 0.0
C251 C 0.10394 0.37771 0.68232 0.0
C252 C 0.09551 0.39491 0.70746 0.0
C253 C 0.07436 0.42022 0.7032 0.0
C254 C 0.06089 0.42741 0.67359 0.0
C255 C 0.06976 0.41044 0.64819 0.0
Co256 Co 0.99058 0.0081 0.51416 0.0
C257 C 0.02082 0.94961 0.51244 0.0
Co258 Co 0.03452 0.00572 0.54049 0.0
C259 C 0.927 0.0227 0.50064 0.0
C260 C 0.94707 0.99599 0.46531 0.0
N261 N 0.95349 0.00881 0.49261 0.0
N262 N 0.90426 0.01918 0.4794 0.0
C263 C 0.91679 0.00228 0.45715 0.0
H264 H 0.92452 0.03525 0.52167 0.0
H265 H 0.96351 0.98335 0.45196 0.0
C266 C 1.00458 0.06457 0.54164 0.0
N267 N 0.07161 0.00503 0.56199 0.0
C268 C 0.09938 0.99663 0.55118 0.0
C269 C 0.07726 0.01392 0.59109 0.0
N270 N 0.12228 1.00006 0.57226 0.0
C271 C 0.10842 0.01092 0.59748 0.0
C272 C 0.04118 0.02928 0.47731 0.0
O273 O 0.9849 0.05147 0.52423 0.0
O274 O 0.02791 0.04858 0.55168 0.0
O275 O 0.05556 0.02323 0.50307 0.0
O276 O 0.01197 0.0243 0.47667 0.0
O277 O 0.04099 0.9627 0.52933 0.0
H278 H 0.0599 0.02237 0.60651 0.0
H279 H 0.10277 0.98894 0.52789 0.0
O280 O 0.99679 0.96517 0.50384 0.0
O281 O 0.9692 0.99159 0.55197 0.0
O282 O 0.01333 0.98835 0.57738 0.0
C283 C 0.98401 0.98421 0.57727 0.0
H284 H 0.90525 0.99588 0.43596 0.0
H285 H 0.11989 0.01622 0.61905 0.0
Co286 Co 0.49054 0.99073 0.99598 0.0
C287 C 0.48038 0.93947 0.04172 0.0
Co288 Co 0.51725 0.99555 0.03938 0.0
C289 C 0.4774 0.98858 0.93019 0.0
C290 C 0.43658 0.98039 0.95849 0.0
N291 N 0.46735 0.98666 0.96016 0.0
N292 N 0.45412 0.98374 0.90986 0.0
C293 C 0.42836 0.97867 0.92758 0.0
H294 H 0.50137 0.99349 0.92345 0.0
H295 H 0.42118 0.9768 0.9785 0.0
C296 C 0.52735 0.0469 0.99365 0.0
N297 N 0.54063 0.99947 0.0754 0.0
C298 C 0.53064 0.00445 0.10448 0.0
C299 C 0.57185 0.99898 0.0778 0.0
N300 N 0.55435 0.007 0.1248 0.0
C301 C 0.58031 0.00343 0.10814 0.0
C302 C 0.54862 0.96304 0.99442 0.0
O303 O 0.50744 0.03127 0.97844 0.0
O304 O 0.53517 0.03546 0.02102 0.0
O305 O 0.54981 0.97206 0.02206 0.0
O306 O 0.52431 0.96872 0.97819 0.0
O307 O 0.49916 0.95577 0.05758 0.0
H308 H 0.58764 0.99648 0.05859 0.0
H309 H 0.50648 0.00658 0.11065 0.0
O310 O 0.47385 0.95016 0.01377 0.0
O311 O 0.45692 0.01283 0.01397 0.0
O312 O 0.48441 0.01891 0.05619 0.0
C313 C 0.45927 0.02325 0.04104 0.0
H314 H 0.40537 0.97317 0.91894 0.0
H315 H 0.6038 0.00547 0.11691 0.0
Co316 Co 0.52854 0.5365 0.52411 0.0
C317 C 0.47996 0.54471 0.48166 0.0
Co318 Co 0.48502 0.51204 0.54105 0.0
C319 C 0.59402 0.55057 0.51467 0.0
C320 C 0.56563 0.59094 0.49966 0.0
N321 N 0.56419 0.55946 0.51129 0.0
N322 N 0.6139 0.57549 0.50616 0.0
C323 C 0.59619 0.6009 0.49665 0.0
H324 H 0.60101 0.52682 0.52462 0.0
H325 H 0.54571 0.60601 0.49482 0.0
C326 C 0.53391 0.50347 0.58323 0.0
N327 N 0.44926 0.48915 0.5538 0.0
C328 C 0.41958 0.49669 0.54692 0.0
C329 C 0.4477 0.45868 0.56806 0.0
N330 N 0.39968 0.47186 0.55576 0.0
C331 C 0.41725 0.44796 0.56921 0.0
C332 C 0.52421 0.47468 0.50675 0.0
O333 O 0.54869 0.52035 0.56162 0.0
O334 O 0.50517 0.49725 0.57942 0.0
O335 O 0.49896 0.4746 0.5221 0.0
O336 O 0.54133 0.50025 0.50422 0.0
O337 O 0.46536 0.52681 0.50266 0.0
H338 H 0.46758 0.44458 0.57572 0.0
H339 H 0.41288 0.51917 0.534 0.0
O340 O 0.50818 0.55246 0.48644 0.0
O341 O 0.51576 0.57258 0.54418 0.0
O342 O 0.47129 0.54981 0.55976 0.0
C343 C 0.49009 0.57416 0.5583 0.0
H344 H 0.60478 0.62507 0.48859 0.0
H345 H 0.40877 0.42412 0.57847 0.0
Co346 Co 0.0187 0.49555 0.9988 0.0
C347 C 0.96116 0.46577 0.99474 0.0
Co348 Co 0.99196 0.49651 0.04245 0.0
C349 C 0.03292 0.49786 0.9326 0.0
C350 C 0.07341 0.4933 0.96158 0.0
N351 N 0.04232 0.4959 0.96281 0.0
N352 N 0.05697 0.49661 0.91259 0.0
C353 C 0.08247 0.49381 0.93079 0.0
H354 H 0.00889 0.49985 0.92548 0.0
H355 H 0.08848 0.49045 0.98183 0.0
C356 C 0.04983 0.52629 0.04607 0.0
N357 N 0.96873 0.49548 0.07875 0.0
C358 C 0.96885 0.51722 0.10056 0.0
C359 C 0.94934 0.47114 0.09017 0.0
N360 N 0.9504 0.50734 0.1252 0.0
C361 C 0.93795 0.47842 0.11866 0.0
C362 C 0.02918 0.44224 0.04148 0.0
O363 O 0.05095 0.51895 0.01789 0.0
O364 O 0.02548 0.51877 0.06207 0.0
O365 O 0.00928 0.45611 0.05728 0.0
O366 O 0.03687 0.45526 0.01447 0.0
O367 O 0.95874 0.47427 0.02249 0.0
H368 H 0.94449 0.44904 0.07895 0.0
H369 H 0.98249 0.53969 0.09854 0.0
O370 O 0.98633 0.47218 0.97984 0.0
O371 O 1.00038 0.53575 0.98341 0.0
O372 O 0.97475 0.53712 0.02755 0.0
C373 C 0.98141 0.54996 1.00018 0.0
H374 H 0.10589 0.49095 0.92255 0.0
H375 H 0.92266 0.46303 0.1339 0.0
H376 H 0.10295 0.07586 0.28456 0.0
H377 H 0.10136 0.05218 0.4723 0.0
H378 H 0.17034 0.12146 0.34271 0.0
H379 H 0.02039 0.0341 0.4163 0.0
H380 H 0.12944 0.07197 0.4245 0.0
H381 H 0.0747 0.05506 0.332 0.0
C382 C 0.11189 0.08162 0.30715 0.0
C383 C 0.13933 0.10054 0.3093 0.0
C384 C 0.10552 0.06372 0.42266 0.0
C385 C 0.10715 0.07612 0.36393 0.0
C386 C 0.08946 0.05235 0.44996 0.0
C387 C 0.05838 0.04156 0.4484 0.0
C388 C 0.09061 0.06397 0.39338 0.0
C389 C 0.04425 0.04235 0.41869 0.0
C390 C 0.09574 0.06956 0.33427 0.0
C391 C 0.14981 0.10649 0.33954 0.0
N392 N 0.06049 0.05322 0.39237 0.0
N393 N 0.13381 0.09431 0.36551 0.0
H394 H 0.41346 0.98511 0.713 0.0
H395 H 0.5035 0.96511 0.877 0.0
H396 H 0.49916 0.93366 0.72622 0.0
H397 H 0.40993 0.99917 0.86641 0.0
H398 H 0.50568 0.96018 0.82044 0.0
H399 H 0.41515 0.99696 0.76787 0.0
C400 C 0.43265 0.97629 0.72745 0.0
C401 C 0.456 0.958 0.71506 0.0
C402 C 0.48473 0.96887 0.83049 0.0
C403 C 0.45825 0.97183 0.77791 0.0
C404 C 0.48355 0.97189 0.86273 0.0
C405 C 0.45641 0.9824 0.87643 0.0
C406 C 0.45867 0.97663 0.81183 0.0
C407 C 0.43111 0.9905 0.85688 0.0
C408 C 0.43366 0.98319 0.75876 0.0
C409 C 0.48072 0.94795 0.73471 0.0
N410 N 0.43284 0.9874 0.82559 0.0
N411 N 0.4811 0.95482 0.76524 0.0
H412 H 0.58776 0.38978 0.75398 0.0
H413 H 0.59493 0.51296 0.59855 0.0
H414 H 0.67193 0.43722 0.71706 0.0
H415 H 0.51067 0.46364 0.63304 0.0
H416 H 0.62258 0.48862 0.64419 0.0
H417 H 0.55827 0.4201 0.71268 0.0
C418 C 0.60001 0.4069 0.73747 0.0
C419 C 0.63244 0.41077 0.73893 0.0
C420 C 0.59801 0.48321 0.64191 0.0
C421 C 0.59882 0.44527 0.69125 0.0
C422 C 0.58216 0.49714 0.61581 0.0
C423 C 0.5504 0.49024 0.61183 0.0
C424 C 0.5821 0.46211 0.66429 0.0
C425 C 0.53515 0.4696 0.63508 0.0
C426 C 0.58317 0.42403 0.71374 0.0
C427 C 0.64705 0.43303 0.71659 0.0
N428 N 0.55116 0.45615 0.66021 0.0
N429 N 0.63018 0.44927 0.69365 0.0
H430 H 0.87769 0.57871 0.29273 0.0
H431 H 0.99201 0.54672 0.15226 0.0
H432 H 0.97364 0.61116 0.28874 0.0
H433 H 0.90005 0.50357 0.16323 0.0
H434 H 0.98527 0.57203 0.20131 0.0
H435 H 0.88518 0.55177 0.24473 0.0
C436 C 0.90036 0.58007 0.28174 0.0
C437 C 0.92507 0.59726 0.29461 0.0
C438 C 0.96658 0.55699 0.193 0.0
C439 C 0.93382 0.56657 0.2397 0.0
C440 C 0.97031 0.54278 0.16486 0.0
C441 C 0.9465 0.52307 0.15362 0.0
C442 C 0.93877 0.55161 0.20993 0.0
C443 C 0.91908 0.51832 0.17121 0.0
C444 C 0.90466 0.56462 0.25442 0.0
C445 C 0.95406 0.59793 0.2797 0.0
N446 N 0.91593 0.53256 0.19845 0.0
N447 N 0.9576 0.58298 0.25288 0.0
H448 H 0.34434 0.13077 0.16006 0.0
H449 H 0.39922 0.02878 0.01955 0.0
H450 H 0.27992 0.08961 0.09615 0.0
H451 H 0.45887 0.05395 0.09538 0.0
H452 H 0.3558 0.05379 0.04475 0.0
H453 H 0.38694 0.10564 0.1343 0.0
C454 C 0.33914 0.11654 0.14048 0.0
C455 C 0.30842 0.1125 0.13019 0.0
C456 C 0.3784 0.05383 0.05583 0.0
C457 C 0.35739 0.08338 0.10047 0.0
C458 C 0.40326 0.03968 0.04139 0.0
C459 C 0.43284 0.03926 0.0553 0.0
C460 C 0.38314 0.06795 0.08429 0.0
C461 C 0.43655 0.05365 0.08373 0.0
C462 C 0.36352 0.10202 0.12587 0.0
C463 C 0.30317 0.09326 0.10501 0.0
N464 N 0.41209 0.06742 0.09717 0.0
N465 N 0.32739 0.07958 0.09091 0.0
H466 H 0.32085 0.99707 0.5904 0.0
H467 H 0.14807 0.95937 0.53343 0.0
H468 H 0.29894 0.93129 0.51979 0.0
H469 H 0.17099 0.02757 0.60154 0.0
H470 H 0.20325 0.95028 0.52653 0.0
H471 H 0.26628 0.01059 0.59267 0.0
C472 C 0.30465 0.98584 0.57496 0.0
C473 C 0.31456 0.96299 0.55484 0.0
C474 C 0.1962 0.9673 0.54293 0.0
C475 C 0.25173 0.97784 0.5579 0.0
C476 C 0.16467 0.97261 0.5468 0.0
C477 C 0.15479 0.99426 0.56815 0.0
C478 C 0.21809 0.98372 0.56055 0.0
C479 C 0.17743 0.01032 0.58518 0.0
C480 C 0.27339 0.99336 0.5765 0.0
C481 C 0.2923 0.94873 0.53592 0.0
N482 N 0.208 0.00469 0.58103 0.0
N483 N 0.26191 0.95628 0.53802 0.0
H484 H 0.84243 0.3729 0.86363 0.0
H485 H 0.90258 0.45191 0.01819 0.0
H486 H 0.78251 0.38893 0.94125 0.0
H487 H 0.95921 0.44341 0.93628 0.0
H488 H 0.85877 0.42722 0.99154 0.0
H489 H 0.88576 0.39708 0.89093 0.0
C490 C 0.8384 0.38138 0.88652 0.0
C491 C 0.80875 0.37867 0.90022 0.0
C492 C 0.8808 0.43073 0.97943 0.0
C493 C 0.85845 0.40675 0.93165 0.0
C494 C 0.90586 0.44474 0.99466 0.0
C495 C 0.93467 0.44975 0.97948 0.0
C496 C 0.88455 0.42153 0.94881 0.0
C497 C 0.93749 0.44003 0.94895 0.0
C498 C 0.86316 0.39537 0.90204 0.0
C499 C 0.80488 0.39071 0.92969 0.0
N500 N 0.91279 0.42642 0.93468 0.0
N501 N 0.82945 0.40409 0.94447 0.0
H502 H 0.802 0.6407 0.52278 0.0
H503 H 0.65303 0.52931 0.49027 0.0
H504 H 0.79958 0.57275 0.45137 0.0
H505 H 0.64994 0.62278 0.52786 0.0
H506 H 0.71016 0.53388 0.48945 0.0
H507 H 0.74972 0.62215 0.53898 0.0
C508 C 0.79071 0.62151 0.51084 0.0
C509 C 0.80492 0.60886 0.48515 0.0
C510 C 0.6969 0.55311 0.4983 0.0
C511 C 0.74532 0.58739 0.50379 0.0
C512 C 0.6645 0.55047 0.49881 0.0
C513 C 0.64707 0.57597 0.50866 0.0
C514 C 0.71168 0.58114 0.50832 0.0
C515 C 0.66272 0.60295 0.51955 0.0
C516 C 0.76093 0.61092 0.52015 0.0
C517 C 0.78953 0.58334 0.47119 0.0
N518 N 0.69417 0.60491 0.51898 0.0
N519 N 0.76031 0.57377 0.48037 0.0
H520 H 0.12996 0.26193 0.08067 0.0
H521 H 0.02637 0.41624 0.1023 0.0
H522 H 0.1193 0.3043 0.16888 0.0
H523 H 0.06704 0.40054 0.01285 0.0
H524 H 0.05373 0.36932 0.12622 0.0
H525 H 0.10148 0.30741 0.05463 0.0
C526 C 0.1218 0.28066 0.09465 0.0
C527 C 0.12704 0.27882 0.12727 0.0
C528 C 0.05663 0.37606 0.10134 0.0
C529 C 0.09374 0.33062 0.09749 0.0
C530 C 0.04088 0.40279 0.08758 0.0
C531 C 0.04444 0.41248 0.05547 0.0
C532 C 0.07591 0.35844 0.0829 0.0
C533 C 0.06369 0.39402 0.0377 0.0
C534 C 0.10539 0.30655 0.07971 0.0
C535 C 0.11531 0.30384 0.14395 0.0
N536 N 0.07866 0.36781 0.05163 0.0
N537 N 0.09918 0.32844 0.12895 0.0
H538 H 0.60309 0.197 0.86038 0.0
H539 H 0.56651 0.08966 0.02108 0.0
H540 H 0.63254 0.22591 0.9507 0.0
H541 H 0.52178 0.07372 0.93313 0.0
H542 H 0.59209 0.13876 0.99588 0.0
H543 H 0.57413 0.15117 0.88671 0.0
C544 C 0.6032 0.19406 0.88578 0.0
C545 C 0.62032 0.21566 0.90326 0.0
C546 C 0.57655 0.12461 0.98216 0.0
C547 C 0.58757 0.16233 0.93366 0.0
C548 C 0.56197 0.09653 0.99651 0.0
C549 C 0.54199 0.07746 0.97918 0.0
C550 C 0.57137 0.13355 0.95017 0.0
C551 C 0.53696 0.08763 0.94743 0.0
C552 C 0.58677 0.16763 0.90081 0.0
C553 C 0.62008 0.20978 0.93615 0.0
N554 N 0.55168 0.11482 0.93394 0.0
N555 N 0.6041 0.18364 0.95025 0.0
H556 H 1.00557 0.78552 0.40571 0.0
H557 H 0.04984 0.89733 0.54294 0.0
H558 H 0.01252 0.74594 0.50229 0.0
H559 H 1.00221 0.92857 0.45721 0.0
H560 H 0.05263 0.84215 0.52503 0.0
H561 H 0.02354 0.83802 0.42102 0.0
C562 C 0.01181 0.78743 0.43003 0.0
C563 C 1.00696 0.7612 0.45284 0.0
C564 C 0.04199 0.86132 0.5101 0.0
C565 C 0.02668 0.82193 0.47057 0.0
C566 C 0.0404 0.89264 0.52023 0.0
C567 C 0.02536 0.91718 0.50164 0.0
C568 C 0.02917 0.85511 0.48093 0.0
C569 C 0.01354 0.91011 0.47243 0.0
C570 C 0.02172 0.81767 0.43878 0.0
C571 C 0.01518 0.76569 0.48405 0.0
N572 N 0.01568 0.87974 0.46299 0.0
N573 N 0.02414 0.79572 0.49215 0.0
H574 H 0.40773 0.75819 0.58855 0.0
H575 H 0.53102 0.61776 0.57939 0.0
H576 H 0.50717 0.77272 0.58817 0.0
H577 H 0.43287 0.60085 0.5664 0.0
H578 H 0.5209 0.67272 0.59227 0.0
H579 H 0.41487 0.6992 0.58881 0.0
C580 C 0.43103 0.74891 0.58883 0.0
C581 C 0.45693 0.77031 0.58796 0.0
C582 C 0.50144 0.65704 0.5869 0.0
C583 C 0.46522 0.70323 0.58839 0.0
C584 C 0.50721 0.62558 0.57963 0.0
C585 C 0.48275 0.60494 0.57144 0.0
C586 C 0.47097 0.66829 0.58561 0.0
C587 C 0.45234 0.61613 0.57253 0.0
C588 C 0.43507 0.71534 0.58889 0.0
C589 C 0.48658 0.75713 0.58826 0.0
N590 N 0.44729 0.64737 0.57901 0.0
N591 N 0.48988 0.72452 0.58834 0.0
H592 H 0.9425 0.89982 0.7652 0.0
H593 H 0.92121 0.97312 0.58669 0.0
H594 H 0.85262 0.91216 0.7218 0.0
H595 H 0.00941 0.9644 0.63421 0.0
H596 H 0.89529 0.9503 0.63502 0.0
H597 H 0.96691 0.9224 0.71661 0.0
C598 C 0.92782 0.90697 0.74534 0.0
C599 C 0.89535 0.90368 0.74767 0.0
C600 C 0.92031 0.95342 0.63483 0.0
C601 C 0.92342 0.93033 0.6916 0.0
C602 C 0.93514 0.96644 0.60723 0.0
C603 C 0.9676 0.9707 0.60628 0.0
C604 C 0.93804 0.94451 0.6617 0.0
C605 C 0.98438 0.9616 0.6337 0.0
C606 C 0.94184 0.92016 0.71757 0.0
C607 C 0.87769 0.91431 0.72121 0.0
N608 N 0.96945 0.94896 0.66014 0.0
N609 N 0.89193 0.92705 0.69428 0.0
H610 H 0.54876 0.13461 0.26831 0.0
H611 H 0.59146 0.98688 0.17311 0.0
H612 H 0.60879 0.05796 0.30453 0.0
H613 H 0.51449 0.04864 0.14812 0.0
H614 H 0.59428 0.00924 0.22415 0.0
H615 H 0.53111 0.10043 0.22757 0.0
C616 C 0.55769 0.1103 0.26817 0.0
C617 C 0.58078 0.09939 0.28946 0.0
C618 C 0.5764 0.01756 0.20777 0.0
C619 C 0.5612 0.06046 0.2425 0.0
C620 C 0.57492 0.00489 0.17863 0.0
C621 C 0.55299 0.01626 0.15637 0.0
C622 C 0.55619 0.04229 0.21444 0.0
C623 C 0.53174 0.03927 0.1647 0.0
C624 C 0.54773 0.09085 0.24478 0.0
C625 C 0.59161 0.06771 0.28803 0.0
N626 N 0.53423 0.05201 0.1929 0.0
N627 N 0.58214 0.0496 0.26461 0.0
H628 H 0.44421 0.61641 0.28942 0.0
H629 H 0.41973 0.53303 0.46402 0.0
H630 H 0.35679 0.57377 0.32301 0.0
H631 H 0.50513 0.58079 0.4307 0.0
H632 H 0.39564 0.54895 0.41335 0.0
H633 H 0.46624 0.60477 0.34162 0.0
C634 C 0.42964 0.60452 0.3078 0.0
C635 C 0.39867 0.59575 0.30171 0.0
C636 C 0.4196 0.55607 0.41718 0.0
C637 C 0.42378 0.58247 0.36184 0.0
C638 C 0.4334 0.54698 0.44612 0.0
C639 C 0.46459 0.55546 0.45163 0.0
C640 C 0.43711 0.5737 0.39348 0.0
C641 C 0.48108 0.57362 0.42754 0.0
C642 C 0.44221 0.59802 0.33769 0.0
C643 C 0.38073 0.58104 0.32666 0.0
N644 N 0.46719 0.58198 0.39953 0.0
N645 N 0.39361 0.57465 0.35557 0.0
H646 H 0.01857 0.43044 0.73093 0.0
H647 H 0.10156 0.51661 0.8704 0.0
H648 H 0.11632 0.45422 0.7352 0.0
H649 H 0.00987 0.47234 0.87841 0.0
H650 H 0.10283 0.50574 0.81528 0.0
H651 H 0.01081 0.45718 0.77955 0.0
C652 C 0.03822 0.44184 0.74186 0.0
C653 C 0.06815 0.43993 0.72953 0.0
C654 C 0.08228 0.49869 0.82899 0.0
C655 C 0.05961 0.47033 0.78453 0.0
C656 C 0.0816 0.5048 0.86047 0.0
C657 C 0.05585 0.49477 0.87916 0.0
C658 C 0.05708 0.48226 0.81606 0.0
C659 C 0.03024 0.48038 0.86487 0.0
C660 C 0.03386 0.45692 0.76954 0.0
C661 C 0.09296 0.45491 0.74435 0.0
N662 N 0.03166 0.47411 0.83421 0.0
N663 N 0.08817 0.4693 0.77119 0.0
H664 H 0.72693 0.87591 0.97227 0.0
H665 H 0.56024 0.95182 0.93288 0.0
H666 H 0.6987 0.90731 0.87784 0.0
H667 H 0.59968 0.93932 0.02581 0.0
H668 H 0.6075 0.9295 0.91183 0.0
H669 H 0.67725 0.89272 0.99162 0.0
C670 C 0.71034 0.88642 0.95552 0.0
C671 C 0.71744 0.89062 0.92333 0.0
C672 C 0.60568 0.93152 0.93683 0.0
C673 C 0.65979 0.90965 0.94553 0.0
C674 C 0.57866 0.94413 0.94889 0.0
C675 C 0.57594 0.94755 0.9812 0.0
C676 C 0.63004 0.92195 0.95724 0.0
C677 C 0.60068 0.9373 1.00076 0.0
C678 C 0.68181 0.89591 0.96664 0.0
C679 C 0.69437 0.90351 0.90282 0.0
N680 N 0.62655 0.92503 0.98851 0.0
N681 N 0.66669 0.91273 0.91427 0.0
H682 H 0.75948 0.1576 0.47402 0.0
H683 H 0.85205 0.99599 0.45285 0.0
H684 H 0.72318 0.07738 0.42543 0.0
H685 H 0.88717 0.07405 0.505 0.0
H686 H 0.80209 0.02264 0.44801 0.0
H687 H 0.80361 0.12455 0.4915 0.0
C688 C 0.7606 0.1329 0.46737 0.0
C689 C 0.73779 0.12035 0.44797 0.0
C690 C 0.82062 0.0338 0.4608 0.0
C691 C 0.78823 0.08248 0.46769 0.0
C692 C 0.84919 0.01867 0.46339 0.0
C693 C 0.87392 0.033 0.47902 0.0
C694 C 0.81681 0.06366 0.47367 0.0
C695 C 0.86875 0.06208 0.49283 0.0
C696 C 0.78575 0.11402 0.47739 0.0
C697 C 0.74013 0.08802 0.44047 0.0
N698 N 0.84087 0.07665 0.48951 0.0
N699 N 0.76512 0.07037 0.44999 0.0
H700 H 0.1923 0.59986 0.16968 0.0
H701 H 0.10446 0.54453 0.01701 0.0
H702 H 0.23752 0.57774 0.08446 0.0
H703 H 0.0589 0.54214 0.10704 0.0
H704 H 0.15175 0.5646 0.04046 0.0
H705 H 0.14185 0.58606 0.14636 0.0
C706 C 0.19158 0.59228 0.14606 0.0
C707 C 0.21916 0.58959 0.1291 0.0
C708 C 0.13144 0.55983 0.05517 0.0
C709 C 0.1618 0.5741 0.10231 0.0
C710 C 0.10428 0.54843 0.04174 0.0
C711 C 0.07761 0.54136 0.0601 0.0
C712 C 0.13222 0.56436 0.08732 0.0
C713 C 0.07894 0.54714 0.09202 0.0
C714 C 0.16287 0.5843 0.13284 0.0
C715 C 0.21694 0.57963 0.0986 0.0
N716 N 0.10587 0.55818 0.10469 0.0
N717 N 0.18887 0.5723 0.08626 0.0
H718 H 0.20464 0.49612 0.56762 0.0
H719 H 0.36692 0.41906 0.54008 0.0
H720 H 0.21545 0.40371 0.5291 0.0
H721 H 0.35823 0.52023 0.55597 0.0
H722 H 0.31102 0.41495 0.53191 0.0
H723 H 0.25987 0.50843 0.5582 0.0
C724 C 0.21846 0.4788 0.55645 0.0
C725 C 0.20551 0.44864 0.54957 0.0
C726 C 0.32126 0.43819 0.53687 0.0
C727 C 0.26866 0.46229 0.53924 0.0
C728 C 0.35313 0.44042 0.54186 0.0
C729 C 0.36702 0.46987 0.54922 0.0
C730 C 0.30297 0.4655 0.5398 0.0
C731 C 0.34827 0.49706 0.55047 0.0
C732 C 0.24997 0.48581 0.55112 0.0
C733 C 0.22436 0.42725 0.53479 0.0
N734 N 0.31706 0.49412 0.5463 0.0
N735 N 0.25509 0.43421 0.53072 0.0
H736 H 0.87592 0.72725 0.97831 0.0
H737 H 0.98642 0.58155 0.94105 0.0
H738 H 0.91296 0.71626 0.88628 0.0
H739 H 0.9422 0.58818 0.03067 0.0
H740 H 0.96063 0.63128 0.92077 0.0
H741 H 0.90057 0.67676 0.99796 0.0
C742 C 0.88923 0.71423 0.9622 0.0
C743 C 0.89239 0.72619 0.93056 0.0
C744 C 0.95656 0.62186 0.94487 0.0
C745 C 0.92079 0.66807 0.953 0.0
C746 C 0.97137 0.59348 0.95652 0.0
C747 C 0.96655 0.58059 0.98768 0.0
C748 C 0.93682 0.63765 0.96449 0.0
C749 C 0.94667 0.59715 0.00652 0.0
C750 C 0.90324 0.68529 0.97343 0.0
C751 C 0.9096 0.70789 0.91075 0.0
N752 N 0.93262 0.62476 0.99467 0.0
N753 N 0.92326 0.67991 0.92231 0.0
H754 H 0.38522 0.75212 0.07185 0.0
H755 H 0.48243 0.91375 0.10299 0.0
H756 H 0.40455 0.78106 0.16474 0.0
H757 H 0.44444 0.89542 0.01254 0.0
H758 H 0.45683 0.86359 0.12577 0.0
H759 H 0.40876 0.80329 0.04951 0.0
C760 C 0.39402 0.76934 0.08763 0.0
C761 C 0.39277 0.76209 0.12033 0.0
C762 C 0.45408 0.87058 0.10095 0.0
C763 C 0.42057 0.82063 0.09469 0.0
C764 C 0.4688 0.89914 0.08789 0.0
C765 C 0.46563 0.90881 0.05578 0.0
C766 C 0.43625 0.85136 0.08173 0.0
C767 C 0.44754 0.88896 0.0374 0.0
C768 C 0.40771 0.79851 0.07479 0.0
C769 C 0.40534 0.78524 0.13942 0.0
N770 N 0.43364 0.86116 0.05061 0.0
N771 N 0.41881 0.81335 0.12633 0.0
H772 H 0.02009 0.24698 0.62496 0.0
H773 H 0.97683 0.11402 0.50619 0.0
H774 H 0.02411 0.26892 0.52458 0.0
H775 H 0.02537 0.09227 0.59351 0.0
H776 H 0.97709 0.17183 0.5164 0.0
H777 H 1.00375 0.191 0.61699 0.0
C778 C 0.01658 0.24026 0.60125 0.0
C779 C 0.02352 0.26246 0.57534 0.0
C780 C 0.98723 0.15421 0.53344 0.0
C781 C 1.00511 0.19869 0.56619 0.0
C782 C 0.98703 0.12136 0.52773 0.0
C783 C 1.00138 0.09856 0.54895 0.0
C784 C 1.00116 0.16397 0.56089 0.0
C785 C 0.01437 0.10921 0.57644 0.0
C786 C 0.00757 0.20832 0.59676 0.0
C787 C 0.01911 0.25238 0.54511 0.0
N788 N 0.01395 0.14121 0.58164 0.0
N789 N 0.01034 0.22107 0.54131 0.0
H790 H 0.54878 0.27826 0.45424 0.0
H791 H 0.57227 0.46954 0.46621 0.0
H792 H 0.60781 0.34072 0.39243 0.0
H793 H 0.49745 0.4134 0.51318 0.0
H794 H 0.58751 0.42131 0.44149 0.0
H795 H 0.53125 0.32639 0.47859 0.0
C796 C 0.55794 0.30209 0.44575 0.0
C797 C 0.57964 0.30556 0.42119 0.0
C798 C 0.5677 0.41952 0.45713 0.0
C799 C 0.55995 0.36045 0.44892 0.0
C800 C 0.55904 0.44704 0.47134 0.0
C801 C 0.53353 0.44549 0.49177 0.0
C802 C 0.55092 0.39008 0.46354 0.0
C803 C 0.51723 0.41567 0.49751 0.0
C804 C 0.54787 0.3295 0.45954 0.0
C805 C 0.59069 0.33697 0.41097 0.0
N806 N 0.52628 0.38905 0.48353 0.0
N807 N 0.58086 0.36313 0.42497 0.0
loop_
_geom_bond_atom_site_label_1
_geom_bond_atom_site_label_2
_geom_bond_distance
_geom_bond_site_symmetry_2
_ccdc_geom_bond_type
P0 O11 1.490 . S
P0 C14 1.812 . S
P0 C20 1.803 . S
P0 C26 1.819 . S
H1 C15 0.941 . S
H2 C16 0.939 . S
H3 C18 0.940 . S
H4 C19 0.940 . S
H5 C21 0.939 . S
H6 C22 0.942 . S
H7 C24 0.940 . S
H8 C25 0.939 . S
H9 C27 0.941 . S
H10 C31 0.939 . S
O11 P0 1.490 . S
H12 C28 0.939 . S
H13 C30 0.940 . S
C14 P0 1.812 . S
C14 C15 1.389 . S
C14 C19 1.391 . S
C15 H1 0.941 . S
C15 C14 1.389 . S
C15 C16 1.397 . S
C16 H2 0.939 . S
C16 C15 1.397 . S
C16 C17 1.378 . S
C17 C16 1.378 . S
C17 C18 1.378 . S
C18 H3 0.940 . S
C18 C17 1.378 . S
C18 C19 1.396 . S
C19 H4 0.940 . S
C19 C14 1.391 . S
C19 C18 1.396 . S
C20 P0 1.803 . S
C20 C21 1.378 . S
C20 C25 1.400 . S
C21 H5 0.939 . S
C21 C20 1.378 . S
C21 C22 1.361 . S
C22 H6 0.942 . S
C22 C21 1.361 . S
C22 C23 1.369 . S
C23 C22 1.369 . S
C23 C24 1.404 . S
C24 H7 0.940 . S
C24 C23 1.404 . S
C24 C25 1.389 . S
C25 H8 0.939 . S
C25 C20 1.400 . S
C25 C24 1.389 . S
C26 P0 1.819 . S
C26 C27 1.391 . S
C26 C31 1.391 . S
C27 H9 0.941 . S
C27 C26 1.391 . S
C27 C28 1.396 . S
C28 H12 0.939 . S
C28 C27 1.396 . S
C28 C29 1.397 . S
C29 C28 1.397 . S
C29 C30 1.385 . S
C30 H13 0.940 . S
C30 C29 1.385 . S
C30 C31 1.388 . S
C31 H10 0.939 . S
C31 C26 1.391 . S
C31 C30 1.388 . S
P32 O43 1.490 . S
P32 C46 1.812 . S
P32 C52 1.803 . S
P32 C58 1.819 . S
H33 C47 0.941 . S
H34 C48 0.939 . S
H35 C50 0.940 . S
H36 C51 0.940 . S
H37 C53 0.939 . S
H38 C54 0.942 . S
H39 C56 0.940 . S
H40 C57 0.939 . S
H41 C59 0.941 . S
H42 C63 0.939 . S
O43 P32 1.490 . S
H44 C60 0.939 . S
H45 C62 0.940 . S
C46 P32 1.812 . S
C46 C47 1.389 . S
C46 C51 1.391 . S
C47 H33 0.941 . S
C47 C46 1.389 . S
C47 C48 1.397 . S
C48 H34 0.939 . S
C48 C47 1.397 . S
C48 C49 1.378 . S
C49 C48 1.378 . S
C49 C50 1.378 . S
C50 H35 0.940 . S
C50 C49 1.378 . S
C50 C51 1.396 . S
C51 H36 0.940 . S
C51 C46 1.391 . S
C51 C50 1.396 . S
C52 P32 1.803 . S
C52 C53 1.378 . S
C52 C57 1.400 . S
C53 H37 0.939 . S
C53 C52 1.378 . S
C53 C54 1.361 . S
C54 H38 0.942 . S
C54 C53 1.361 . S
C54 C55 1.369 . S
C55 C54 1.369 . S
C55 C56 1.404 . S
C56 H39 0.940 . S
C56 C55 1.404 . S
C56 C57 1.389 . S
C57 H40 0.939 . S
C57 C52 1.400 . S
C57 C56 1.389 . S
C58 P32 1.819 . S
C58 C59 1.391 . S
C58 C63 1.391 . S
C59 H41 0.941 . S
C59 C58 1.391 . S
C59 C60 1.396 . S
C60 H44 0.939 . S
C60 C59 1.396 . S
C60 C61 1.397 . S
C61 C60 1.397 . S
C61 C62 1.385 . S
C62 H45 0.940 . S
C62 C61 1.385 . S
C62 C63 1.388 . S
C63 H42 0.939 . S
C63 C58 1.391 . S
C63 C62 1.388 . S
P64 O75 1.490 . S
P64 C78 1.812 . S
P64 C84 1.803 . S
P64 C90 1.819 . S
H65 C79 0.941 . S
H66 C80 0.939 . S
H67 C82 0.940 . S
H68 C83 0.940 . S
H69 C85 0.939 . S
H70 C86 0.942 . S
H71 C88 0.940 . S
H72 C89 0.939 . S
H73 C91 0.941 . S
H74 C95 0.939 . S
O75 P64 1.490 . S
H76 C92 0.939 . S
H77 C94 0.940 . S
C78 P64 1.812 . S
C78 C79 1.389 . S
C78 C83 1.391 . S
C79 H65 0.941 . S
C79 C78 1.389 . S
C79 C80 1.397 . S
C80 H66 0.939 . S
C80 C79 1.397 . S
C80 C81 1.378 . S
C81 C80 1.378 . S
C81 C82 1.378 . S
C82 H67 0.940 . S
C82 C81 1.378 . S
C82 C83 1.396 . S
C83 H68 0.940 . S
C83 C78 1.391 . S
C83 C82 1.396 . S
C84 P64 1.803 . S
C84 C85 1.378 . S
C84 C89 1.400 . S
C85 H69 0.939 . S
C85 C84 1.378 . S
C85 C86 1.361 . S
C86 H70 0.942 . S
C86 C85 1.361 . S
C86 C87 1.369 . S
C87 C86 1.369 . S
C87 C88 1.404 . S
C88 H71 0.940 . S
C88 C87 1.404 . S
C88 C89 1.389 . S
C89 H72 0.939 . S
C89 C84 1.400 . S
C89 C88 1.389 . S
C90 P64 1.819 . S
C90 C91 1.391 . S
C90 C95 1.391 . S
C91 H73 0.941 . S
C91 C90 1.391 . S
C91 C92 1.396 . S
C92 H76 0.939 . S
C92 C91 1.396 . S
C92 C93 1.397 . S
C93 C92 1.397 . S
C93 C94 1.385 . S
C94 H77 0.940 . S
C94 C93 1.385 . S
C94 C95 1.388 . S
C95 H74 0.939 . S
C95 C90 1.391 . S
C95 C94 1.388 . S
P96 O107 1.490 . S
P96 C110 1.812 . S
P96 C116 1.803 . S
P96 C122 1.819 . S
H97 C111 0.941 . S
H98 C112 0.939 . S
H99 C114 0.940 . S
H100 C115 0.940 . S
H101 C117 0.939 . S
H102 C118 0.942 . S
H103 C120 0.940 . S
H104 C121 0.939 . S
H105 C123 0.941 . S
H106 C127 0.939 . S
O107 P96 1.490 . S
H108 C124 0.939 . S
H109 C126 0.940 . S
C110 P96 1.812 . S
C110 C111 1.389 . S
C110 C115 1.391 . S
C111 H97 0.941 . S
C111 C110 1.389 . S
C111 C112 1.397 . S
C112 H98 0.939 . S
C112 C111 1.397 . S
C112 C113 1.378 . S
C113 C112 1.378 . S
C113 C114 1.378 . S
C114 H99 0.940 . S
C114 C113 1.378 . S
C114 C115 1.396 . S
C115 H100 0.940 . S
C115 C110 1.391 . S
C115 C114 1.396 . S
C116 P96 1.803 . S
C116 C117 1.378 . S
C116 C121 1.400 . S
C117 H101 0.939 . S
C117 C116 1.378 . S
C117 C118 1.361 . S
C118 H102 0.942 . S
C118 C117 1.361 . S
C118 C119 1.369 . S
C119 C118 1.369 . S
C119 C120 1.404 . S
C120 H103 0.940 . S
C120 C119 1.404 . S
C120 C121 1.389 . S
C121 H104 0.939 . S
C121 C116 1.400 . S
C121 C120 1.389 . S
C122 P96 1.819 . S
C122 C123 1.391 . S
C122 C127 1.391 . S
C123 H105 0.941 . S
C123 C122 1.391 . S
C123 C124 1.396 . S
C124 H108 0.939 . S
C124 C123 1.396 . S
C124 C125 1.397 . S
C125 C124 1.397 . S
C125 C126 1.385 . S
C126 H109 0.940 . S
C126 C125 1.385 . S
C126 C127 1.388 . S
C127 H106 0.939 . S
C127 C122 1.391 . S
C127 C126 1.388 . S
P128 O139 1.490 . S
P128 C142 1.812 . S
P128 C148 1.803 . S
P128 C154 1.819 . S
H129 C143 0.941 . S
H130 C144 0.939 . S
H131 C146 0.940 . S
H132 C147 0.940 . S
H133 C149 0.939 . S
H134 C150 0.942 . S
H135 C152 0.940 . S
H136 C153 0.939 . S
H137 C155 0.941 . S
H138 C159 0.939 . S
O139 P128 1.490 . S
H140 C156 0.939 . S
H141 C158 0.940 . S
C142 P128 1.812 . S
C142 C143 1.389 . S
C142 C147 1.391 . S
C143 H129 0.941 . S
C143 C142 1.389 . S
C143 C144 1.397 . S
C144 H130 0.939 . S
C144 C143 1.397 . S
C144 C145 1.378 . S
C145 C144 1.378 . S
C145 C146 1.378 . S
C146 H131 0.940 . S
C146 C145 1.378 . S
C146 C147 1.396 . S
C147 H132 0.940 . S
C147 C142 1.391 . S
C147 C146 1.396 . S
C148 P128 1.803 . S
C148 C149 1.378 . S
C148 C153 1.400 . S
C149 H133 0.939 . S
C149 C148 1.378 . S
C149 C150 1.361 . S
C150 H134 0.942 . S
C150 C149 1.361 . S
C150 C151 1.369 . S
C151 C150 1.369 . S
C151 C152 1.404 . S
C152 H135 0.940 . S
C152 C151 1.404 . S
C152 C153 1.389 . S
C153 H136 0.939 . S
C153 C148 1.400 . S
C153 C152 1.389 . S
C154 P128 1.819 . S
C154 C155 1.391 . S
C154 C159 1.391 . S
C155 H137 0.941 . S
C155 C154 1.391 . S
C155 C156 1.396 . S
C156 H140 0.939 . S
C156 C155 1.396 . S
C156 C157 1.397 . S
C157 C156 1.397 . S
C157 C158 1.385 . S
C158 H141 0.940 . S
C158 C157 1.385 . S
C158 C159 1.388 . S
C159 H138 0.939 . S
C159 C154 1.391 . S
C159 C158 1.388 . S
P160 O171 1.490 . S
P160 C174 1.812 . S
P160 C180 1.803 . S
P160 C186 1.819 . S
H161 C175 0.941 . S
H162 C176 0.939 . S
H163 C178 0.940 . S
H164 C179 0.940 . S
H165 C181 0.939 . S
H166 C182 0.942 . S
H167 C184 0.940 . S
H168 C185 0.939 . S
H169 C187 0.941 . S
H170 C191 0.939 . S
O171 P160 1.490 . S
H172 C188 0.939 . S
H173 C190 0.940 . S
C174 P160 1.812 . S
C174 C175 1.389 . S
C174 C179 1.391 . S
C175 H161 0.941 . S
C175 C174 1.389 . S
C175 C176 1.397 . S
C176 H162 0.939 . S
C176 C175 1.397 . S
C176 C177 1.378 . S
C177 C176 1.378 . S
C177 C178 1.378 . S
C178 H163 0.940 . S
C178 C177 1.378 . S
C178 C179 1.396 . S
C179 H164 0.940 . S
C179 C174 1.391 . S
C179 C178 1.396 . S
C180 P160 1.803 . S
C180 C181 1.378 . S
C180 C185 1.400 . S
C181 H165 0.939 . S
C181 C180 1.378 . S
C181 C182 1.361 . S
C182 H166 0.942 . S
C182 C181 1.361 . S
C182 C183 1.369 . S
C183 C182 1.369 . S
C183 C184 1.404 . S
C184 H167 0.940 . S
C184 C183 1.404 . S
C184 C185 1.389 . S
C185 H168 0.939 . S
C185 C180 1.400 . S
C185 C184 1.389 . S
C186 P160 1.819 . S
C186 C187 1.391 . S
C186 C191 1.391 . S
C187 H169 0.941 . S
C187 C186 1.391 . S
C187 C188 1.396 . S
C188 H172 0.939 . S
C188 C187 1.396 . S
C188 C189 1.397 . S
C189 C188 1.397 . S
C189 C190 1.385 . S
C190 H173 0.940 . S
C190 C189 1.385 . S
C190 C191 1.388 . S
C191 H170 0.939 . S
C191 C186 1.391 . S
C191 C190 1.388 . S
P192 O203 1.490 . S
P192 C206 1.812 . S
P192 C212 1.803 . S
P192 C218 1.819 . S
H193 C207 0.941 . S
H194 C208 0.939 . S
H195 C210 0.940 . S
H196 C211 0.940 . S
H197 C213 0.939 . S
H198 C214 0.942 . S
H199 C216 0.940 . S
H200 C217 0.939 . S
H201 C219 0.941 . S
H202 C223 0.939 . S
O203 P192 1.490 . S
H204 C220 0.939 . S
H205 C222 0.940 . S
C206 P192 1.812 . S
C206 C207 1.389 . S
C206 C211 1.391 . S
C207 H193 0.941 . S
C207 C206 1.389 . S
C207 C208 1.397 . S
C208 H194 0.939 . S
C208 C207 1.397 . S
C208 C209 1.378 . S
C209 C208 1.378 . S
C209 C210 1.378 . S
C210 H195 0.940 . S
C210 C209 1.378 . S
C210 C211 1.396 . S
C211 H196 0.940 . S
C211 C206 1.391 . S
C211 C210 1.396 . S
C212 P192 1.803 . S
C212 C213 1.378 . S
C212 C217 1.400 . S
C213 H197 0.939 . S
C213 C212 1.378 . S
C213 C214 1.361 . S
C214 H198 0.942 . S
C214 C213 1.361 . S
C214 C215 1.369 . S
C215 C214 1.369 . S
C215 C216 1.404 . S
C216 H199 0.940 . S
C216 C215 1.404 . S
C216 C217 1.389 . S
C217 H200 0.939 . S
C217 C212 1.400 . S
C217 C216 1.389 . S
C218 P192 1.819 . S
C218 C219 1.391 . S
C218 C223 1.391 . S
C219 H201 0.941 . S
C219 C218 1.391 . S
C219 C220 1.396 . S
C220 H204 0.939 . S
C220 C219 1.396 . S
C220 C221 1.397 . S
C221 C220 1.397 . S
C221 C222 1.385 . S
C222 H205 0.940 . S
C222 C221 1.385 . S
C222 C223 1.388 . S
C223 H202 0.939 . S
C223 C218 1.391 . S
C223 C222 1.388 . S
P224 O235 1.490 . S
P224 C238 1.812 . S
P224 C244 1.803 . S
P224 C250 1.819 . S
H225 C239 0.941 . S
H226 C240 0.939 . S
H227 C242 0.940 . S
H228 C243 0.940 . S
H229 C245 0.939 . S
H230 C246 0.942 . S
H231 C248 0.940 . S
H232 C249 0.939 . S
H233 C251 0.941 . S
H234 C255 0.939 . S
O235 P224 1.490 . S
H236 C252 0.939 . S
H237 C254 0.940 . S
C238 P224 1.812 . S
C238 C239 1.389 . S
C238 C243 1.391 . S
C239 H225 0.941 . S
C239 C238 1.389 . S
C239 C240 1.397 . S
C240 H226 0.939 . S
C240 C239 1.397 . S
C240 C241 1.378 . S
C241 C240 1.378 . S
C241 C242 1.378 . S
C242 H227 0.940 . S
C242 C241 1.378 . S
C242 C243 1.396 . S
C243 H228 0.940 . S
C243 C238 1.391 . S
C243 C242 1.396 . S
C244 P224 1.803 . S
C244 C245 1.378 . S
C244 C249 1.400 . S
C245 H229 0.939 . S
C245 C244 1.378 . S
C245 C246 1.361 . S
C246 H230 0.942 . S
C246 C245 1.361 . S
C246 C247 1.369 . S
C247 C246 1.369 . S
C247 C248 1.404 . S
C248 H231 0.940 . S
C248 C247 1.404 . S
C248 C249 1.389 . S
C249 H232 0.939 . S
C249 C244 1.400 . S
C249 C248 1.389 . S
C250 P224 1.819 . S
C250 C251 1.391 . S
C250 C255 1.391 . S
C251 H233 0.941 . S
C251 C250 1.391 . S
C251 C252 1.396 . S
C252 H236 0.939 . S
C252 C251 1.396 . S
C252 C253 1.397 . S
C253 C252 1.397 . S
C253 C254 1.385 . S
C254 H237 0.940 . S
C254 C253 1.385 . S
C254 C255 1.388 . S
C255 H234 0.939 . S
C255 C250 1.391 . S
C255 C254 1.388 . S
Co256 N261 2.057 . S
Co256 O273 2.021 . S
Co256 O276 2.062 . S
Co256 O280 2.117 1_545 S
Co256 O281 2.020 . S
C257 O277 1.259 1_655 S
C257 O280 1.258 . S
Co258 N267 2.057 . S
Co258 O274 2.117 1_565 S
Co258 O275 2.020 1_565 S
Co258 O277 2.021 . S
Co258 O282 2.062 . S
C259 N261 1.316 . S
C259 N262 1.347 . S
C259 H264 0.931 . S
C260 N261 1.396 . S
C260 C263 1.364 . S
C260 H265 0.900 1_545 S
N261 Co256 2.057 . S
N261 C259 1.316 . S
N261 C260 1.396 . S
N262 C259 1.347 . S
N262 C263 1.373 . S
C263 C260 1.364 . S
C263 N262 1.373 . S
C263 H284 0.931 . S
H264 C259 0.931 . S
H265 C260 0.900 1_565 S
C266 O273 1.259 1_455 S
C266 O274 1.258 . S
N267 Co258 2.057 . S
N267 C268 1.316 . S
N267 C269 1.375 1_565 S
C268 N267 1.316 . S
C268 N270 1.347 . S
C268 H279 0.931 . S
C269 N267 1.375 1_545 S
C269 C271 1.350 1_545 S
C269 H278 0.930 . S
N270 C268 1.347 . S
N270 C271 1.373 . S
C271 C269 1.350 1_565 S
C271 N270 1.373 . S
C271 H285 0.931 1_565 S
C272 O275 1.256 . S
C272 O276 1.255 1_455 S
O273 Co256 2.021 . S
O273 C266 1.259 1_655 S
O274 Co258 2.117 1_545 S
O274 C266 1.258 . S
O275 Co258 2.020 1_545 S
O275 C272 1.256 . S
O276 Co256 2.062 . S
O276 C272 1.255 1_655 S
O277 C257 1.259 1_455 S
O277 Co258 2.021 . S
H278 C269 0.930 . S
H279 C268 0.931 . S
O280 Co256 2.117 1_565 S
O280 C257 1.258 . S
O281 Co256 2.020 . S
O281 C283 1.256 1_545 S
O282 Co258 2.062 . S
O282 C283 1.255 1_455 S
C283 O281 1.256 1_565 S
C283 O282 1.255 1_655 S
H284 C263 0.931 . S
H285 C271 0.931 1_545 S
Co286 N291 2.057 1_545 S
Co286 O303 2.021 . S
Co286 O306 2.062 1_545 S
Co286 O310 2.117 1_546 S
Co286 O311 2.020 1_556 S
C287 O307 1.259 . S
C287 O310 1.258 . S
Co288 N297 2.057 . S
Co288 O304 2.117 . S
Co288 O305 2.020 1_545 S
Co288 O307 2.021 1_545 S
Co288 O312 2.062 . S
C289 N291 1.316 . S
C289 N292 1.347 . S
C289 H294 0.931 1_565 S
C290 N291 1.375 . S
C290 C293 1.350 . S
C290 H295 0.930 . S
N291 Co286 2.057 1_565 S
N291 C289 1.316 . S
N291 C290 1.375 . S
N292 C289 1.347 . S
N292 C293 1.373 . S
C293 C290 1.350 . S
C293 N292 1.373 . S
C293 H314 0.931 . S
H294 C289 0.931 1_545 S
H295 C290 0.930 . S
C296 O303 1.259 . S
C296 O304 1.258 1_556 S
N297 Co288 2.057 . S
N297 C298 1.316 . S
N297 C299 1.375 . S
C298 N297 1.316 . S
C298 N300 1.347 . S
C298 H309 0.931 . S
C299 N297 1.375 . S
C299 C301 1.350 . S
C299 H308 0.930 . S
N300 C298 1.347 . S
N300 C301 1.373 . S
C301 C299 1.350 . S
C301 N300 1.373 . S
C301 H315 0.931 . S
C302 O305 1.256 1_556 S
C302 O306 1.255 . S
O303 Co286 2.021 . S
O303 C296 1.259 . S
O304 Co288 2.117 . S
O304 C296 1.258 1_554 S
O305 Co288 2.020 1_565 S
O305 C302 1.256 1_554 S
O306 Co286 2.062 1_565 S
O306 C302 1.255 . S
O307 C287 1.259 . S
O307 Co288 2.021 1_565 S
H308 C299 0.930 . S
H309 C298 0.931 . S
O310 Co286 2.117 1_564 S
O310 C287 1.258 . S
O311 Co286 2.020 1_554 S
O311 C313 1.256 . S
O312 Co288 2.062 . S
O312 C313 1.255 . S
C313 O311 1.256 . S
C313 O312 1.255 . S
H314 C293 0.931 . S
H315 C301 0.931 . S
Co316 N321 2.057 . S
Co316 O333 2.021 . S
Co316 O336 2.062 . S
Co316 O340 2.117 . S
Co316 O341 2.020 . S
C317 O337 1.259 . S
C317 O340 1.258 . S
Co318 N327 2.057 . S
Co318 O334 2.117 . S
Co318 O335 2.020 . S
Co318 O337 2.021 . S
Co318 O342 2.062 . S
C319 N321 1.316 . S
C319 N322 1.347 . S
C319 H324 0.931 . S
C320 N321 1.375 . S
C320 C323 1.350 . S
C320 H325 0.930 . S
N321 Co316 2.057 . S
N321 C319 1.316 . S
N321 C320 1.375 . S
N322 C319 1.347 . S
N322 C323 1.373 . S
C323 C320 1.350 . S
C323 N322 1.373 . S
C323 H344 0.931 . S
H324 C319 0.931 . S
H325 C320 0.930 . S
C326 O333 1.259 . S
C326 O334 1.258 . S
N327 Co318 2.057 . S
N327 C328 1.316 . S
N327 C329 1.375 . S
C328 N327 1.316 . S
C328 N330 1.347 . S
C328 H339 0.931 . S
C329 N327 1.375 . S
C329 C331 1.350 . S
C329 H338 0.930 . S
N330 C328 1.347 . S
N330 C331 1.373 . S
C331 C329 1.350 . S
C331 N330 1.373 . S
C331 H345 0.931 . S
C332 O335 1.256 . S
C332 O336 1.255 . S
O333 Co316 2.021 . S
O333 C326 1.259 . S
O334 Co318 2.117 . S
O334 C326 1.258 . S
O335 Co318 2.020 . S
O335 C332 1.256 . S
O336 Co316 2.062 . S
O336 C332 1.255 . S
O337 C317 1.259 . S
O337 Co318 2.021 . S
H338 C329 0.930 . S
H339 C328 0.931 . S
O340 Co316 2.117 . S
O340 C317 1.258 . S
O341 Co316 2.020 . S
O341 C343 1.256 . S
O342 Co318 2.062 . S
O342 C343 1.255 . S
C343 O341 1.256 . S
C343 O342 1.255 . S
H344 C323 0.931 . S
H345 C331 0.931 . S
Co346 N351 2.057 . S
Co346 O363 2.021 . S
Co346 O366 2.050 1_556 S
Co346 O370 2.117 1_455 S
Co346 O371 2.020 1_455 S
C347 O367 1.281 . S
C347 O370 1.244 1_554 S
Co348 N357 2.057 . S
Co348 O364 2.117 1_655 S
Co348 O365 2.020 1_655 S
Co348 O367 2.021 . S
Co348 O372 2.062 . S
C349 N351 1.316 . S
C349 N352 1.347 . S
C349 H354 0.931 . S
C350 N351 1.375 1_655 S
C350 C353 1.350 1_655 S
C350 H355 0.930 . S
N351 Co346 2.057 . S
N351 C349 1.316 . S
N351 C350 1.375 1_455 S
N352 C349 1.347 . S
N352 C353 1.373 . S
C353 C350 1.350 1_455 S
C353 N352 1.373 . S
C353 H374 0.931 1_455 S
H354 C349 0.931 . S
H355 C350 0.930 . S
C356 O363 1.259 1_554 S
C356 O364 1.258 . S
N357 Co348 2.057 . S
N357 C358 1.316 . S
N357 C359 1.375 1_655 S
C358 N357 1.316 . S
C358 N360 1.347 . S
C358 H369 0.931 . S
C359 N357 1.375 1_455 S
C359 C361 1.350 1_455 S
C359 H368 0.930 . S
N360 C358 1.347 . S
N360 C361 1.373 . S
C361 C359 1.350 1_655 S
C361 N360 1.373 . S
C361 H375 0.931 1_655 S
C362 O365 1.256 . S
C362 O366 1.284 . S
O363 Co346 2.021 . S
O363 C356 1.259 1_556 S
O364 Co348 2.117 1_455 S
O364 C356 1.258 . S
O365 Co348 2.020 1_455 S
O365 C362 1.256 . S
O366 Co346 2.050 1_554 S
O366 C362 1.284 . S
O367 C347 1.281 . S
O367 Co348 2.021 . S
H368 C359 0.930 . S
H369 C358 0.931 . S
O370 Co346 2.117 1_655 S
O370 C347 1.244 1_556 S
O371 Co346 2.020 1_655 S
O371 C373 1.256 . S
O372 Co348 2.062 . S
O372 C373 1.255 1_554 S
C373 O371 1.256 . S
C373 O372 1.255 1_556 S
H374 C353 0.931 1_655 S
H375 C361 0.931 1_455 S
H376 C382 0.930 . S
H377 C386 0.930 . S
H378 C391 0.929 . S
H379 C389 0.929 1_565 S
H380 C384 0.929 . S
H381 C390 0.929 . S
C382 H376 0.930 . S
C382 C383 1.367 . S
C382 C390 1.378 . S
C383 C382 1.367 . S
C383 C391 1.433 . S
C384 H380 0.929 . S
C384 C386 1.378 . S
C384 C388 1.350 . S
C385 C388 1.463 . S
C385 C390 1.350 . S
C385 N393 1.427 . S
C386 H377 0.930 . S
C386 C384 1.378 . S
C386 C387 1.367 . S
C387 C386 1.367 . S
C387 C389 1.433 . S
C388 C384 1.350 . S
C388 C385 1.463 . S
C388 N392 1.427 . S
C389 H379 0.929 1_545 S
C389 C387 1.433 . S
C389 N392 1.384 . S
C390 H381 0.929 . S
C390 C382 1.378 . S
C390 C385 1.350 . S
C391 H378 0.929 . S
C391 C383 1.433 . S
C391 N393 1.384 . S
N392 C388 1.427 . S
N392 C389 1.384 . S
N393 C385 1.427 . S
N393 C391 1.384 . S
H394 C400 0.930 . S
H395 C404 0.930 . S
H396 C409 0.929 . S
H397 C407 0.929 . S
H398 C402 0.929 . S
H399 C408 0.929 . S
C400 H394 0.930 . S
C400 C401 1.367 . S
C400 C408 1.378 . S
C401 C400 1.367 . S
C401 C409 1.433 . S
C402 H398 0.929 . S
C402 C404 1.378 . S
C402 C406 1.350 . S
C403 C406 1.463 . S
C403 C408 1.350 . S
C403 N411 1.427 . S
C404 H395 0.930 . S
C404 C402 1.378 . S
C404 C405 1.367 . S
C405 C404 1.367 . S
C405 C407 1.433 . S
C406 C402 1.350 . S
C406 C403 1.463 . S
C406 N410 1.427 . S
C407 H397 0.929 . S
C407 C405 1.433 . S
C407 N410 1.384 . S
C408 H399 0.929 . S
C408 C400 1.378 . S
C408 C403 1.350 . S
C409 H396 0.929 . S
C409 C401 1.433 . S
C409 N411 1.384 . S
N410 C406 1.427 . S
N410 C407 1.384 . S
N411 C403 1.427 . S
N411 C409 1.384 . S
H412 C418 0.930 . S
H413 C422 0.930 . S
H414 C427 0.929 . S
H415 C425 0.929 . S
H416 C420 0.929 . S
H417 C426 0.929 . S
C418 H412 0.930 . S
C418 C419 1.367 . S
C418 C426 1.378 . S
C419 C418 1.367 . S
C419 C427 1.433 . S
C420 H416 0.929 . S
C420 C422 1.378 . S
C420 C424 1.350 . S
C421 C424 1.463 . S
C421 C426 1.350 . S
C421 N429 1.427 . S
C422 H413 0.930 . S
C422 C420 1.378 . S
C422 C423 1.367 . S
C423 C422 1.367 . S
C423 C425 1.433 . S
C424 C420 1.350 . S
C424 C421 1.463 . S
C424 N428 1.427 . S
C425 H415 0.929 . S
C425 C423 1.433 . S
C425 N428 1.384 . S
C426 H417 0.929 . S
C426 C418 1.378 . S
C426 C421 1.350 . S
C427 H414 0.929 . S
C427 C419 1.433 . S
C427 N429 1.384 . S
N428 C424 1.427 . S
N428 C425 1.384 . S
N429 C421 1.427 . S
N429 C427 1.384 . S
H430 C436 0.930 . S
H431 C440 0.930 . S
H432 C445 0.929 . S
H433 C443 0.929 . S
H434 C438 0.929 . S
H435 C444 0.929 . S
C436 H430 0.930 . S
C436 C437 1.367 . S
C436 C444 1.378 . S
C437 C436 1.367 . S
C437 C445 1.433 . S
C438 H434 0.929 . S
C438 C440 1.378 . S
C438 C442 1.350 . S
C439 C442 1.463 . S
C439 C444 1.350 . S
C439 N447 1.427 . S
C440 H431 0.930 . S
C440 C438 1.378 . S
C440 C441 1.367 . S
C441 C440 1.367 . S
C441 C443 1.433 . S
C442 C438 1.350 . S
C442 C439 1.463 . S
C442 N446 1.427 . S
C443 H433 0.929 . S
C443 C441 1.433 . S
C443 N446 1.384 . S
C444 H435 0.929 . S
C444 C436 1.378 . S
C444 C439 1.350 . S
C445 H432 0.929 . S
C445 C437 1.433 . S
C445 N447 1.384 . S
N446 C442 1.427 . S
N446 C443 1.384 . S
N447 C439 1.427 . S
N447 C445 1.384 . S
H448 C454 0.930 . S
H449 C458 0.930 1_565 S
H450 C463 0.929 . S
H451 C461 0.929 . S
H452 C456 0.929 . S
H453 C462 0.929 . S
C454 H448 0.930 . S
C454 C455 1.367 . S
C454 C462 1.378 . S
C455 C454 1.367 . S
C455 C463 1.433 . S
C456 H452 0.929 . S
C456 C458 1.378 . S
C456 C460 1.350 . S
C457 C460 1.463 . S
C457 C462 1.350 . S
C457 N465 1.427 . S
C458 H449 0.930 1_545 S
C458 C456 1.378 . S
C458 C459 1.367 . S
C459 C458 1.367 . S
C459 C461 1.433 . S
C460 C456 1.350 . S
C460 C457 1.463 . S
C460 N464 1.427 . S
C461 H451 0.929 . S
C461 C459 1.433 . S
C461 N464 1.384 . S
C462 H453 0.929 . S
C462 C454 1.378 . S
C462 C457 1.350 . S
C463 H450 0.929 . S
C463 C455 1.433 . S
C463 N465 1.384 . S
N464 C460 1.427 . S
N464 C461 1.384 . S
N465 C457 1.427 . S
N465 C463 1.384 . S
H466 C472 0.930 . S
H467 C476 0.930 . S
H468 C481 0.929 . S
H469 C479 0.929 . S
H470 C474 0.929 . S
H471 C480 0.929 . S
C472 H466 0.930 . S
C472 C473 1.367 . S
C472 C480 1.378 . S
C473 C472 1.367 . S
C473 C481 1.433 . S
C474 H470 0.929 . S
C474 C476 1.378 . S
C474 C478 1.350 . S
C475 C478 1.463 . S
C475 C480 1.350 . S
C475 N483 1.427 . S
C476 H467 0.930 . S
C476 C474 1.378 . S
C476 C477 1.367 . S
C477 C476 1.367 . S
C477 C479 1.433 . S
C478 C474 1.350 . S
C478 C475 1.463 . S
C478 N482 1.427 . S
C479 H469 0.929 . S
C479 C477 1.433 . S
C479 N482 1.384 . S
C480 H471 0.929 . S
C480 C472 1.378 . S
C480 C475 1.350 . S
C481 H468 0.929 . S
C481 C473 1.433 . S
C481 N483 1.384 . S
N482 C478 1.427 . S
N482 C479 1.384 . S
N483 C475 1.427 . S
N483 C481 1.384 . S
H484 C490 0.930 . S
H485 C494 0.930 . S
H486 C499 0.929 . S
H487 C497 0.929 . S
H488 C492 0.929 . S
H489 C498 0.929 . S
C490 H484 0.930 . S
C490 C491 1.367 . S
C490 C498 1.378 . S
C491 C490 1.367 . S
C491 C499 1.433 . S
C492 H488 0.929 . S
C492 C494 1.378 . S
C492 C496 1.350 . S
C493 C496 1.463 . S
C493 C498 1.350 . S
C493 N501 1.427 . S
C494 H485 0.930 . S
C494 C492 1.378 . S
C494 C495 1.367 . S
C495 C494 1.367 . S
C495 C497 1.433 . S
C496 C492 1.350 . S
C496 C493 1.463 . S
C496 N500 1.427 . S
C497 H487 0.929 . S
C497 C495 1.433 . S
C497 N500 1.384 . S
C498 H489 0.929 . S
C498 C490 1.378 . S
C498 C493 1.350 . S
C499 H486 0.929 . S
C499 C491 1.433 . S
C499 N501 1.384 . S
N500 C496 1.427 . S
N500 C497 1.384 . S
N501 C493 1.427 . S
N501 C499 1.384 . S
H502 C508 0.930 . S
H503 C512 0.930 . S
H504 C517 0.929 . S
H505 C515 0.929 . S
H506 C510 0.929 . S
H507 C516 0.929 . S
C508 H502 0.930 . S
C508 C509 1.367 . S
C508 C516 1.378 . S
C509 C508 1.367 . S
C509 C517 1.433 . S
C510 H506 0.929 . S
C510 C512 1.378 . S
C510 C514 1.350 . S
C511 C514 1.463 . S
C511 C516 1.350 . S
C511 N519 1.427 . S
C512 H503 0.930 . S
C512 C510 1.378 . S
C512 C513 1.367 . S
C513 C512 1.367 . S
C513 C515 1.433 . S
C514 C510 1.350 . S
C514 C511 1.463 . S
C514 N518 1.427 . S
C515 H505 0.929 . S
C515 C513 1.433 . S
C515 N518 1.384 . S
C516 H507 0.929 . S
C516 C508 1.378 . S
C516 C511 1.350 . S
C517 H504 0.929 . S
C517 C509 1.433 . S
C517 N519 1.384 . S
N518 C514 1.427 . S
N518 C515 1.384 . S
N519 C511 1.427 . S
N519 C517 1.384 . S
H520 C526 0.930 . S
H521 C530 0.930 . S
H522 C535 0.929 . S
H523 C533 0.929 1_655 S
H524 C528 0.929 . S
H525 C534 0.929 . S
C526 H520 0.930 . S
C526 C527 1.367 . S
C526 C534 1.378 . S
C527 C526 1.367 . S
C527 C535 1.433 . S
C528 H524 0.929 . S
C528 C530 1.378 . S
C528 C532 1.350 . S
C529 C532 1.463 . S
C529 C534 1.350 . S
C529 N537 1.427 . S
C530 H521 0.930 . S
C530 C528 1.378 . S
C530 C531 1.367 . S
C531 C530 1.367 . S
C531 C533 1.433 . S
C532 C528 1.350 . S
C532 C529 1.463 . S
C532 N536 1.427 . S
C533 H523 0.929 1_455 S
C533 C531 1.433 . S
C533 N536 1.384 . S
C534 H525 0.929 . S
C534 C526 1.378 . S
C534 C529 1.350 . S
C535 H522 0.929 . S
C535 C527 1.433 . S
C535 N537 1.384 . S
N536 C532 1.427 . S
N536 C533 1.384 . S
N537 C529 1.427 . S
N537 C535 1.384 . S
H538 C544 0.930 . S
H539 C548 0.930 1_554 S
H540 C553 0.929 . S
H541 C551 0.929 . S
H542 C546 0.929 . S
H543 C552 0.929 . S
C544 H538 0.930 . S
C544 C545 1.367 . S
C544 C552 1.378 . S
C545 C544 1.367 . S
C545 C553 1.433 . S
C546 H542 0.929 . S
C546 C548 1.378 . S
C546 C550 1.350 . S
C547 C550 1.463 . S
C547 C552 1.350 . S
C547 N555 1.427 . S
C548 H539 0.930 1_556 S
C548 C546 1.378 . S
C548 C549 1.367 . S
C549 C548 1.367 . S
C549 C551 1.433 . S
C550 C546 1.350 . S
C550 C547 1.463 . S
C550 N554 1.427 . S
C551 H541 0.929 . S
C551 C549 1.433 . S
C551 N554 1.384 . S
C552 H543 0.929 . S
C552 C544 1.378 . S
C552 C547 1.350 . S
C553 H540 0.929 . S
C553 C545 1.433 . S
C553 N555 1.384 . S
N554 C550 1.427 . S
N554 C551 1.384 . S
N555 C547 1.427 . S
N555 C553 1.384 . S
H556 C562 0.930 . S
H557 C566 0.930 . S
H558 C571 0.929 . S
H559 C569 0.929 . S
H560 C564 0.929 . S
H561 C570 0.929 . S
C562 H556 0.930 . S
C562 C563 1.367 . S
C562 C570 1.378 . S
C563 C562 1.367 . S
C563 C571 1.433 . S
C564 H560 0.929 . S
C564 C566 1.378 . S
C564 C568 1.350 . S
C565 C568 1.463 . S
C565 C570 1.350 . S
C565 N573 1.427 . S
C566 H557 0.930 . S
C566 C564 1.378 . S
C566 C567 1.367 . S
C567 C566 1.367 . S
C567 C569 1.433 . S
C568 C564 1.350 . S
C568 C565 1.463 . S
C568 N572 1.427 . S
C569 H559 0.929 . S
C569 C567 1.433 . S
C569 N572 1.384 . S
C570 H561 0.929 . S
C570 C562 1.378 . S
C570 C565 1.350 . S
C571 H558 0.929 . S
C571 C563 1.433 . S
C571 N573 1.384 . S
N572 C568 1.427 . S
N572 C569 1.384 . S
N573 C565 1.427 . S
N573 C571 1.384 . S
H574 C580 0.930 . S
H575 C584 0.930 . S
H576 C589 0.929 . S
H577 C587 0.929 . S
H578 C582 0.929 . S
H579 C588 0.929 . S
C580 H574 0.930 . S
C580 C581 1.367 . S
C580 C588 1.378 . S
C581 C580 1.367 . S
C581 C589 1.433 . S
C582 H578 0.929 . S
C582 C584 1.378 . S
C582 C586 1.350 . S
C583 C586 1.463 . S
C583 C588 1.350 . S
C583 N591 1.427 . S
C584 H575 0.930 . S
C584 C582 1.378 . S
C584 C585 1.367 . S
C585 C584 1.367 . S
C585 C587 1.433 . S
C586 C582 1.350 . S
C586 C583 1.463 . S
C586 N590 1.427 . S
C587 H577 0.929 . S
C587 C585 1.433 . S
C587 N590 1.384 . S
C588 H579 0.929 . S
C588 C580 1.378 . S
C588 C583 1.350 . S
C589 H576 0.929 . S
C589 C581 1.433 . S
C589 N591 1.384 . S
N590 C586 1.427 . S
N590 C587 1.384 . S
N591 C583 1.427 . S
N591 C589 1.384 . S
H592 C598 0.930 . S
H593 C602 0.930 . S
H594 C607 0.929 . S
H595 C605 0.929 1_455 S
H596 C600 0.929 . S
H597 C606 0.929 . S
C598 H592 0.930 . S
C598 C599 1.367 . S
C598 C606 1.378 . S
C599 C598 1.367 . S
C599 C607 1.433 . S
C600 H596 0.929 . S
C600 C602 1.378 . S
C600 C604 1.350 . S
C601 C604 1.463 . S
C601 C606 1.350 . S
C601 N609 1.427 . S
C602 H593 0.930 . S
C602 C600 1.378 . S
C602 C603 1.367 . S
C603 C602 1.367 . S
C603 C605 1.433 . S
C604 C600 1.350 . S
C604 C601 1.463 . S
C604 N608 1.427 . S
C605 H595 0.929 1_655 S
C605 C603 1.433 . S
C605 N608 1.384 . S
C606 H597 0.929 . S
C606 C598 1.378 . S
C606 C601 1.350 . S
C607 H594 0.929 . S
C607 C599 1.433 . S
C607 N609 1.384 . S
N608 C604 1.427 . S
N608 C605 1.384 . S
N609 C601 1.427 . S
N609 C607 1.384 . S
H610 C616 0.930 . S
H611 C620 0.930 . S
H612 C625 0.929 . S
H613 C623 0.929 . S
H614 C618 0.929 . S
H615 C624 0.929 . S
C616 H610 0.930 . S
C616 C617 1.367 . S
C616 C624 1.378 . S
C617 C616 1.367 . S
C617 C625 1.433 . S
C618 H614 0.929 . S
C618 C620 1.378 . S
C618 C622 1.350 . S
C619 C622 1.463 . S
C619 C624 1.350 . S
C619 N627 1.427 . S
C620 H611 0.930 . S
C620 C618 1.378 . S
C620 C621 1.367 . S
C621 C620 1.367 . S
C621 C623 1.433 . S
C622 C618 1.350 . S
C622 C619 1.463 . S
C622 N626 1.427 . S
C623 H613 0.929 . S
C623 C621 1.433 . S
C623 N626 1.384 . S
C624 H615 0.929 . S
C624 C616 1.378 . S
C624 C619 1.350 . S
C625 H612 0.929 . S
C625 C617 1.433 . S
C625 N627 1.384 . S
N626 C622 1.427 . S
N626 C623 1.384 . S
N627 C619 1.427 . S
N627 C625 1.384 . S
H628 C634 0.930 . S
H629 C638 0.930 . S
H630 C643 0.929 . S
H631 C641 0.929 . S
H632 C636 0.929 . S
H633 C642 0.929 . S
C634 H628 0.930 . S
C634 C635 1.367 . S
C634 C642 1.378 . S
C635 C634 1.367 . S
C635 C643 1.433 . S
C636 H632 0.929 . S
C636 C638 1.378 . S
C636 C640 1.350 . S
C637 C640 1.463 . S
C637 C642 1.350 . S
C637 N645 1.427 . S
C638 H629 0.930 . S
C638 C636 1.378 . S
C638 C639 1.367 . S
C639 C638 1.367 . S
C639 C641 1.433 . S
C640 C636 1.350 . S
C640 C637 1.463 . S
C640 N644 1.427 . S
C641 H631 0.929 . S
C641 C639 1.433 . S
C641 N644 1.384 . S
C642 H633 0.929 . S
C642 C634 1.378 . S
C642 C637 1.350 . S
C643 H630 0.929 . S
C643 C635 1.433 . S
C643 N645 1.384 . S
N644 C640 1.427 . S
N644 C641 1.384 . S
N645 C637 1.427 . S
N645 C643 1.384 . S
H646 C652 0.930 . S
H647 C656 0.930 . S
H648 C661 0.929 . S
H649 C659 0.929 . S
H650 C654 0.929 . S
H651 C660 0.929 . S
C652 H646 0.930 . S
C652 C653 1.367 . S
C652 C660 1.378 . S
C653 C652 1.367 . S
C653 C661 1.433 . S
C654 H650 0.929 . S
C654 C656 1.378 . S
C654 C658 1.350 . S
C655 C658 1.463 . S
C655 C660 1.350 . S
C655 N663 1.427 . S
C656 H647 0.930 . S
C656 C654 1.378 . S
C656 C657 1.367 . S
C657 C656 1.367 . S
C657 C659 1.433 . S
C658 C654 1.350 . S
C658 C655 1.463 . S
C658 N662 1.427 . S
C659 H649 0.929 . S
C659 C657 1.433 . S
C659 N662 1.384 . S
C660 H651 0.929 . S
C660 C652 1.378 . S
C660 C655 1.350 . S
C661 H648 0.929 . S
C661 C653 1.433 . S
C661 N663 1.384 . S
N662 C658 1.427 . S
N662 C659 1.384 . S
N663 C655 1.427 . S
N663 C661 1.384 . S
H664 C670 0.930 . S
H665 C674 0.930 1_545 S
H666 C679 0.929 . S
H667 C677 0.909 1_554 S
H668 C672 0.929 1_545 S
H669 C678 0.929 . S
C670 H664 0.930 . S
C670 C671 1.367 . S
C670 C678 1.378 . S
C671 C670 1.367 . S
C671 C679 1.433 . S
C672 H668 0.929 1_565 S
C672 C674 1.378 . S
C672 C676 1.350 . S
C673 C676 1.463 . S
C673 C678 1.350 . S
C673 N681 1.427 . S
C674 H665 0.930 1_565 S
C674 C672 1.378 . S
C674 C675 1.367 . S
C675 C674 1.367 . S
C675 C677 1.447 . S
C676 C672 1.350 . S
C676 C673 1.463 . S
C676 N680 1.427 . S
C677 H667 0.909 1_556 S
C677 C675 1.447 . S
C677 N680 1.393 . S
C678 H669 0.929 . S
C678 C670 1.378 . S
C678 C673 1.350 . S
C679 H666 0.929 . S
C679 C671 1.433 . S
C679 N681 1.384 . S
N680 C676 1.427 . S
N680 C677 1.393 . S
N681 C673 1.427 . S
N681 C679 1.384 . S
H682 C688 0.930 . S
H683 C692 0.930 . S
H684 C697 0.929 . S
H685 C695 0.929 . S
H686 C690 0.929 . S
H687 C696 0.929 . S
C688 H682 0.930 . S
C688 C689 1.367 . S
C688 C696 1.378 . S
C689 C688 1.367 . S
C689 C697 1.433 . S
C690 H686 0.929 . S
C690 C692 1.378 . S
C690 C694 1.350 . S
C691 C694 1.463 . S
C691 C696 1.350 . S
C691 N699 1.427 . S
C692 H683 0.930 . S
C692 C690 1.378 . S
C692 C693 1.367 . S
C693 C692 1.367 . S
C693 C695 1.433 . S
C694 C690 1.350 . S
C694 C691 1.463 . S
C694 N698 1.427 . S
C695 H685 0.929 . S
C695 C693 1.433 . S
C695 N698 1.384 . S
C696 H687 0.929 . S
C696 C688 1.378 . S
C696 C691 1.350 . S
C697 H684 0.929 . S
C697 C689 1.433 . S
C697 N699 1.384 . S
N698 C694 1.427 . S
N698 C695 1.384 . S
N699 C691 1.427 . S
N699 C697 1.384 . S
H700 C706 0.930 . S
H701 C710 0.930 . S
H702 C715 0.929 . S
H703 C713 0.929 . S
H704 C708 0.929 . S
H705 C714 0.929 . S
C706 H700 0.930 . S
C706 C707 1.367 . S
C706 C714 1.378 . S
C707 C706 1.367 . S
C707 C715 1.433 . S
C708 H704 0.929 . S
C708 C710 1.378 . S
C708 C712 1.350 . S
C709 C712 1.463 . S
C709 C714 1.350 . S
C709 N717 1.427 . S
C710 H701 0.930 . S
C710 C708 1.378 . S
C710 C711 1.367 . S
C711 C710 1.367 . S
C711 C713 1.433 . S
C712 C708 1.350 . S
C712 C709 1.463 . S
C712 N716 1.427 . S
C713 H703 0.929 . S
C713 C711 1.433 . S
C713 N716 1.384 . S
C714 H705 0.929 . S
C714 C706 1.378 . S
C714 C709 1.350 . S
C715 H702 0.929 . S
C715 C707 1.433 . S
C715 N717 1.384 . S
N716 C712 1.427 . S
N716 C713 1.384 . S
N717 C709 1.427 . S
N717 C715 1.384 . S
H718 C724 0.930 . S
H719 C728 0.930 . S
H720 C733 0.929 . S
H721 C731 0.929 . S
H722 C726 0.929 . S
H723 C732 0.929 . S
C724 H718 0.930 . S
C724 C725 1.367 . S
C724 C732 1.378 . S
C725 C724 1.367 . S
C725 C733 1.433 . S
C726 H722 0.929 . S
C726 C728 1.378 . S
C726 C730 1.350 . S
C727 C730 1.463 . S
C727 C732 1.350 . S
C727 N735 1.427 . S
C728 H719 0.930 . S
C728 C726 1.378 . S
C728 C729 1.367 . S
C729 C728 1.367 . S
C729 C731 1.433 . S
C730 C726 1.350 . S
C730 C727 1.463 . S
C730 N734 1.427 . S
C731 H721 0.929 . S
C731 C729 1.433 . S
C731 N734 1.384 . S
C732 H723 0.929 . S
C732 C724 1.378 . S
C732 C727 1.350 . S
C733 H720 0.929 . S
C733 C725 1.433 . S
C733 N735 1.384 . S
N734 C730 1.427 . S
N734 C731 1.384 . S
N735 C727 1.427 . S
N735 C733 1.384 . S
H736 C742 0.930 . S
H737 C746 0.930 . S
H738 C751 0.929 . S
H739 C749 0.929 . S
H740 C744 0.929 . S
H741 C750 0.929 1_554 S
C742 H736 0.930 . S
C742 C743 1.367 . S
C742 C750 1.378 . S
C743 C742 1.367 . S
C743 C751 1.433 . S
C744 H740 0.929 . S
C744 C746 1.378 . S
C744 C748 1.350 . S
C745 C748 1.463 . S
C745 C750 1.350 . S
C745 N753 1.427 . S
C746 H737 0.930 . S
C746 C744 1.378 . S
C746 C747 1.367 . S
C747 C746 1.367 . S
C747 C749 1.433 1_556 S
C748 C744 1.350 . S
C748 C745 1.463 . S
C748 N752 1.427 1_556 S
C749 H739 0.929 . S
C749 C747 1.433 1_554 S
C749 N752 1.384 . S
C750 H741 0.929 1_556 S
C750 C742 1.378 . S
C750 C745 1.350 . S
C751 H738 0.929 . S
C751 C743 1.433 . S
C751 N753 1.384 . S
N752 C748 1.427 1_554 S
N752 C749 1.384 . S
N753 C745 1.427 . S
N753 C751 1.384 . S
H754 C760 0.930 . S
H755 C764 0.930 . S
H756 C769 0.929 . S
H757 C767 0.929 . S
H758 C762 0.929 . S
H759 C768 0.929 . S
C760 H754 0.930 . S
C760 C761 1.367 . S
C760 C768 1.378 . S
C761 C760 1.367 . S
C761 C769 1.433 . S
C762 H758 0.929 . S
C762 C764 1.378 . S
C762 C766 1.350 . S
C763 C766 1.463 . S
C763 C768 1.350 . S
C763 N771 1.427 . S
C764 H755 0.930 . S
C764 C762 1.378 . S
C764 C765 1.367 . S
C765 C764 1.367 . S
C765 C767 1.433 . S
C766 C762 1.350 . S
C766 C763 1.463 . S
C766 N770 1.427 . S
C767 H757 0.929 . S
C767 C765 1.433 . S
C767 N770 1.384 . S
C768 H759 0.929 . S
C768 C760 1.378 . S
C768 C763 1.350 . S
C769 H756 0.929 . S
C769 C761 1.433 . S
C769 N771 1.384 . S
N770 C766 1.427 . S
N770 C767 1.384 . S
N771 C763 1.427 . S
N771 C769 1.384 . S
H772 C778 0.930 . S
H773 C782 0.930 . S
H774 C787 0.929 . S
H775 C785 0.929 . S
H776 C780 0.929 . S
H777 C786 0.929 . S
C778 H772 0.930 . S
C778 C779 1.367 . S
C778 C786 1.378 . S
C779 C778 1.367 . S
C779 C787 1.433 . S
C780 H776 0.929 . S
C780 C782 1.378 . S
C780 C784 1.350 . S
C781 C784 1.463 . S
C781 C786 1.350 . S
C781 N789 1.427 . S
C782 H773 0.930 . S
C782 C780 1.378 . S
C782 C783 1.367 . S
C783 C782 1.367 . S
C783 C785 1.433 . S
C784 C780 1.350 . S
C784 C781 1.463 . S
C784 N788 1.427 . S
C785 H775 0.929 . S
C785 C783 1.433 . S
C785 N788 1.384 . S
C786 H777 0.929 . S
C786 C778 1.378 . S
C786 C781 1.350 . S
C787 H774 0.929 . S
C787 C779 1.433 . S
C787 N789 1.384 . S
N788 C784 1.427 . S
N788 C785 1.384 . S
N789 C781 1.427 . S
N789 C787 1.384 . S
H790 C796 0.930 . S
H791 C800 0.930 . S
H792 C805 0.929 . S
H793 C803 0.929 . S
H794 C798 0.929 . S
H795 C804 0.929 . S
C796 H790 0.930 . S
C796 C797 1.367 . S
C796 C804 1.378 . S
C797 C796 1.367 . S
C797 C805 1.433 . S
C798 H794 0.929 . S
C798 C800 1.378 . S
C798 C802 1.350 . S
C799 C802 1.463 . S
C799 C804 1.350 . S
C799 N807 1.427 . S
C800 H791 0.930 . S
C800 C798 1.378 . S
C800 C801 1.367 . S
C801 C800 1.367 . S
C801 C803 1.433 . S
C802 C798 1.350 . S
C802 C799 1.463 . S
C802 N806 1.427 . S
C803 H793 0.929 . S
C803 C801 1.433 . S
C803 N806 1.384 . S
C804 H795 0.929 . S
C804 C796 1.378 . S
C804 C799 1.350 . S
C805 H792 0.929 . S
C805 C797 1.433 . S
C805 N807 1.384 . S
N806 C802 1.427 . S
N806 C803 1.384 . S
N807 C799 1.427 . S
N807 C805 1.384 . S
C383 C29 2.095 . S
C387 C272 2.204 . S
C401 C49 1.088 . S
C405 N292 1.071 . S
C423 C326 2.015 . S
C419 C93 1.915 . S
C437 C119 1.198 . S
C441 N360 1.199 . S
C459 C313 2.302 . S
C455 C17 2.203 . S
C477 N270 1.181 . S
C473 C61 1.239 . S
C495 C347 1.973 1_556 S
C491 C81 1.887 . S
C513 N322 1.056 . S
C509 C125 0.999 . S
C527 C23 1.715 . S
C531 C362 1.797 . S
C549 C296 1.681 . S
C545 C87 1.588 . S
C563 C113 1.380 . S
C567 C257 1.476 . S
C581 C55 1.432 . S
C585 C343 1.426 . S
C603 C283 2.136 . S
C599 C157 2.124 . S
C617 C189 1.072 . S
C621 N300 1.119 . S
C635 C221 1.978 . S
C639 C317 1.983 . S
C653 C253 1.247 . S
C657 N352 1.270 . S
C671 C145 2.347 . S
C675 C302 2.349 . S
C693 N262 1.105 . S
C689 C183 1.086 . S
C711 C356 2.012 . S
C707 C209 2.002 . S
C729 N330 1.002 . S
C725 C247 0.971 . S
C743 C151 1.811 . S
C747 C373 1.814 . S
C765 C287 1.688 . S
C761 C215 1.689 . S
C783 C266 1.467 . S
C779 C241 1.370 . S
C797 C177 1.384 . S
C801 C332 1.464 . S
