# Generated by pormake.
# Topology tsx, (6,3)-cn, num edge types: 1
# Building blocks:
#     Node 0, Type 0, BuildingBlock: FUNLAD_clean_sbu_0, # of connection points: 6
#     Node 1, Type 0, BuildingBlock: FUNLAD_clean_sbu_0, # of connection points: 6
#     Node 2, Type 1, BuildingBlock: INOVEN_clean_linker_0, # of connection points: 3
#     Node 3, Type 1, BuildingBlock: INOVEN_clean_linker_0, # of connection points: 3
#     Node 4, Type 1, BuildingBlock: INOVEN_clean_linker_0, # of connection points: 3
#     Node 5, Type 1, BuildingBlock: INOVEN_clean_linker_0, # of connection points: 3
#     Edge 6, Type (0, 1), BuildingBlock: XUDNAN_clean_linker_2, # of connection points: 2
#     Edge 7, Type (0, 1), BuildingBlock: XUDNAN_clean_linker_2, # of connection points: 2
#     Edge 8, Type (0, 1), BuildingBlock: XUDNAN_clean_linker_2, # of connection points: 2
#     Edge 9, Type (0, 1), BuildingBlock: XUDNAN_clean_linker_2, # of connection points: 2
#     Edge 10, Type (0, 1), BuildingBlock: XUDNAN_clean_linker_2, # of connection points: 2
#     Edge 11, Type (0, 1), BuildingBlock: XUDNAN_clean_linker_2, # of connection points: 2
#     Edge 12, Type (0, 1), BuildingBlock: XUDNAN_clean_linker_2, # of connection points: 2
#     Edge 13, Type (0, 1), BuildingBlock: XUDNAN_clean_linker_2, # of connection points: 2
#     Edge 14, Type (0, 1), BuildingBlock: XUDNAN_clean_linker_2, # of connection points: 2
#     Edge 15, Type (0, 1), BuildingBlock: XUDNAN_clean_linker_2, # of connection points: 2
#     Edge 16, Type (0, 1), BuildingBlock: XUDNAN_clean_linker_2, # of connection points: 2
#     Edge 17, Type (0, 1), BuildingBlock: XUDNAN_clean_linker_2, # of connection points: 2
# Relax obj value: 0.103
# Max RMSD: 0.111
# Mean RMSD: 0.105
data_MOF--net-tsx--node1-FUNLAD_clean_sbu_0--node2-INOVEN_clean_linker_0--edge1-XUDNAN_clean_linker_2
_symmetry_space_group_name_H-M    P1
_symmetry_Int_Tables_number       1
_symmetry_cell_setting            triclinic
loop_
_symmetry_equiv_pos_as_xyz
'x, y, z'
_cell_length_a     19.429645
_cell_length_b     21.367843
_cell_length_c     39.547997
_cell_angle_alpha  90.95155
_cell_angle_beta   101.03092
_cell_angle_gamma 90.714919
loop_
_atom_site_label
_atom_site_type_symbol
_atom_site_fract_x
_atom_site_fract_y
_atom_site_fract_z
_atom_type_partial_charge
C0 C 0.86366 0.90646 0.0003 0.0
N1 N 0.00886 0.00388 0.07558 0.0
C2 C 0.95784 0.00466 0.09485 0.0
C3 C 0.97528 0.01481 0.13042 0.0
C4 C 0.04558 0.0256 0.14598 0.0
C5 C 0.09726 0.02395 0.12571 0.0
C6 C 0.07771 0.01219 0.09036 0.0
Zn7 Zn 0.98162 0.99544 0.02331 0.0
C8 C 0.06062 0.89885 -0.00558 0.0
N9 N 0.92581 0.98398 0.91417 0.0
C10 C 0.85858 0.97708 0.8966 0.0
C11 C 0.98082 0.98592 0.89746 0.0
C12 C 0.96944 0.98203 0.86175 0.0
C13 C 0.90099 0.97474 0.84308 0.0
C14 C 0.84489 0.97165 0.86062 0.0
Zn15 Zn 0.94991 0.99119 0.96639 0.0
O16 O 0.90194 0.93005 0.02727 0.0
C17 C 0.87064 0.0874 -0.00467 0.0
O18 O 0.87355 0.92279 0.97085 0.0
H19 H 0.03392 0.99022 0.91184 0.0
H20 H 0.90341 0.99862 0.08256 0.0
H21 H 0.81573 0.97554 0.91047 0.0
O22 O 0.9096 0.06957 0.02296 0.0
O23 O 0.8756 0.06126 0.96681 0.0
H24 H 0.11753 0.01082 0.07467 0.0
O25 O 0.02521 0.06096 0.96224 0.0
O26 O 0.06118 0.06072 0.01821 0.0
O27 O 0.02533 0.92042 0.9668 0.0
O28 O 0.05248 0.92149 0.02326 0.0
C29 C 0.06677 0.08115 0.98891 0.0
H30 H 0.93421 0.01608 0.14547 0.0
H31 H 0.15207 0.03167 0.13711 0.0
H32 H 0.0138 0.98363 0.8488 0.0
H33 H 0.79146 0.96563 0.84668 0.0
C34 C 0.46394 0.44052 0.52502 0.0
N35 N 0.60475 0.55592 0.59316 0.0
C36 C 0.54978 0.56864 0.60882 0.0
C37 C 0.56101 0.58243 0.64396 0.0
C38 C 0.62921 0.58185 0.6633 0.0
C39 C 0.68521 0.56784 0.64693 0.0
C40 C 0.67176 0.55556 0.61138 0.0
Zn41 Zn 0.58174 0.5376 0.54135 0.0
C42 C 0.66159 0.43559 0.51842 0.0
N43 N 0.52176 0.50177 0.43368 0.0
C44 C 0.45482 0.50212 0.41544 0.0
C45 C 0.57684 0.48889 0.41813 0.0
C46 C 0.56567 0.47392 0.38316 0.0
C47 C 0.4974 0.47369 0.36384 0.0
C48 C 0.4414 0.48871 0.38002 0.0
Zn49 Zn 0.54451 0.51983 0.48531 0.0
O50 O 0.50508 0.47 0.54911 0.0
C51 C 0.46602 0.62303 0.50794 0.0
O52 O 0.46737 0.45195 0.4939 0.0
H53 H 0.62978 0.49 0.43287 0.0
H54 H 0.49682 0.56766 0.5941 0.0
H55 H 0.4119 0.51256 0.42835 0.0
O56 O 0.50629 0.60931 0.53596 0.0
O57 O 0.46912 0.59164 0.48072 0.0
H58 H 0.71463 0.54531 0.5984 0.0
O59 O 0.62227 0.58756 0.47719 0.0
O60 O 0.65728 0.60501 0.53279 0.0
O61 O 0.61999 0.44886 0.49073 0.0
O62 O 0.65827 0.46603 0.54593 0.0
C63 C 0.66218 0.61644 0.5019 0.0
H64 H 0.51667 0.59202 0.65611 0.0
H65 H 0.73841 0.56645 0.66145 0.0
H66 H 0.60999 0.46317 0.37121 0.0
H67 H 0.38807 0.4889 0.36559 0.0
H68 H 0.12694 0.01487 0.49449 0.0
H69 H 0.19391 0.9702 0.39929 0.0
H70 H 0.04946 0.11854 0.40309 0.0
N71 N 0.04102 0.10585 0.47008 0.0
N72 N 0.99354 0.13985 0.45499 0.0
C73 C 0.12597 0.02349 0.46758 0.0
C74 C 0.1655 0.98589 0.44907 0.0
C75 C 0.08325 0.07083 0.45121 0.0
C76 C 0.08199 0.08207 0.41617 0.0
C77 C 0.12144 0.04539 0.39759 0.0
C78 C 0.16292 0.9976 0.41399 0.0
H79 H 0.02869 0.01572 0.51791 0.0
H80 H 0.90103 0.92273 0.57975 0.0
H81 H 0.06172 0.05295 0.62725 0.0
N82 N 0.10489 0.08614 0.57241 0.0
N83 N 0.12677 0.10372 0.54637 0.0
C84 C 0.0155 0.00765 0.54275 0.0
C85 C 0.96114 0.96476 0.54553 0.0
C86 C 0.05125 0.04029 0.57255 0.0
C87 C 0.03297 0.02867 0.60452 0.0
C88 C 0.97902 0.98618 0.60747 0.0
C89 C 0.94328 0.95528 0.57779 0.0
H90 H 0.50989 0.46478 0.97954 0.0
H91 H 0.65075 0.46384 0.90794 0.0
H92 H 0.48453 0.59699 0.8975 0.0
N93 N 0.43563 0.56125 0.95376 0.0
N94 N 0.39911 0.60325 0.93823 0.0
C95 C 0.52716 0.48403 0.95735 0.0
C96 C 0.58344 0.45725 0.94514 0.0
C97 C 0.49157 0.53454 0.94041 0.0
C98 C 0.51296 0.55881 0.9111 0.0
C99 C 0.5701 0.53324 0.89895 0.0
C100 C 0.60555 0.4831 0.91654 0.0
H101 H 0.41812 0.47564 0.01354 0.0
H102 H 0.37776 0.37734 0.10209 0.0
H103 H 0.50561 0.544 0.11587 0.0
N104 N 0.49728 0.56456 0.04768 0.0
N105 N 0.53958 0.60225 0.06522 0.0
C106 C 0.42409 0.47124 0.04118 0.0
C107 C 0.39371 0.42016 0.05498 0.0
C108 C 0.46433 0.51595 0.06287 0.0
C109 C 0.47364 0.51017 0.09885 0.0
C110 C 0.44333 0.4594 0.11289 0.0
C111 C 0.40283 0.41531 0.09092 0.0
H112 H 0.19409 0.09797 0.03032 0.0
H113 H 0.05583 0.17458 0.9421 0.0
H114 H 0.13696 0.26515 0.94318 0.0
H115 H 0.23517 0.23202 0.07569 0.0
H116 H 0.32606 0.21559 0.09213 0.0
H117 H 0.26407 0.15223 0.08049 0.0
H118 H 0.33934 0.10664 0.0387 0.0
H119 H 0.40213 0.16988 0.05042 0.0
H120 H 0.36302 0.15539 0.00581 0.0
H121 H 0.21969 0.356 0.96175 0.0
H122 H 0.30071 0.43588 -0.00615 0.0
H123 H 0.39184 0.29444 0.06575 0.0
C124 C 0.18202 0.13307 0.01069 0.0
C125 C 0.11909 0.1299 0.98624 0.0
C126 C 0.10435 0.17637 0.96092 0.0
C127 C 0.1501 0.22776 0.96129 0.0
C128 C 0.21104 0.23058 0.98649 0.0
C129 C 0.22781 0.18363 0.01022 0.0
C130 C 0.29326 0.19981 0.03633 0.0
C131 C 0.2787 0.19995 0.07331 0.0
C132 C 0.35298 0.15528 0.03257 0.0
C133 C 0.30798 0.26497 0.02507 0.0
C134 C 0.26066 0.28184 -0.00393 0.0
C135 C 0.2585 0.34275 0.9838 0.0
C136 C 0.3048 0.38782 0.00217 0.0
C137 C 0.35238 0.37149 0.03243 0.0
C138 C 0.35561 0.30864 0.04295 0.0
H139 H 0.11237 0.85973 0.93835 0.0
H140 H 0.12158 0.82324 0.04676 0.0
H141 H 0.20448 0.73743 0.04339 0.0
H142 H 0.12341 0.69916 0.90955 0.0
H143 H 0.17829 0.71887 0.87921 0.0
H144 H 0.11677 0.77485 0.88981 0.0
H145 H 0.21746 0.85659 0.90757 0.0
H146 H 0.2792 0.80106 0.89687 0.0
H147 H 0.29317 0.83661 0.93934 0.0
H148 H 0.28787 0.6565 0.02807 0.0
H149 H 0.37153 0.59247 0.0031 0.0
H150 H 0.31043 0.68512 0.90563 0.0
C151 C 0.13131 0.83338 0.96134 0.0
C152 C 0.11029 0.84778 -0.00723 0.0
C153 C 0.13708 0.81287 0.02241 0.0
C154 C 0.18385 0.76392 0.0207 0.0
C155 C 0.20345 0.7509 0.98924 0.0
C156 C 0.17842 0.785 0.96018 0.0
C157 C 0.21038 0.76408 0.92997 0.0
C158 C 0.15383 0.73766 0.90039 0.0
C159 C 0.25257 0.81777 0.91774 0.0
C160 C 0.2578 0.71314 0.94661 0.0
C161 C 0.2525 0.70562 0.98068 0.0
C162 C 0.29228 0.66188 0.00141 0.0
C163 C 0.33953 0.62566 0.98702 0.0
C164 C 0.34677 0.63413 0.95239 0.0
C165 C 0.30497 0.67781 0.93203 0.0
H166 H 0.83826 0.85185 0.0588 0.0
H167 H 0.76124 0.86001 0.94837 0.0
H168 H 0.66512 0.78633 0.95356 0.0
H169 H 0.80468 0.68878 0.06625 0.0
H170 H 0.77923 0.69698 0.10759 0.0
H171 H 0.8403 0.75215 0.09527 0.0
H172 H 0.75995 0.84346 0.10591 0.0
H173 H 0.69838 0.78852 0.1181 0.0
H174 H 0.66957 0.8427 0.08402 0.0
H175 H 0.5785 0.7116 0.97058 0.0
H176 H 0.51072 0.63611 -0.00191 0.0
H177 H 0.64524 0.67469 0.09693 0.0
C178 C 0.80106 0.83835 0.03571 0.0
C179 C 0.80703 0.86167 0.0032 0.0
C180 C 0.75765 0.84257 0.97354 0.0
C181 C 0.70275 0.80102 0.97623 0.0
C182 C 0.69828 0.77911 0.00871 0.0
C183 C 0.74627 0.79678 0.03789 0.0
C184 C 0.7311 0.76473 0.06954 0.0
C185 C 0.79247 0.72319 0.08559 0.0
C186 C 0.7137 0.81273 0.09595 0.0
C187 C 0.66725 0.72592 0.05355 0.0
C188 C 0.64891 0.73528 0.01848 0.0
C189 C 0.59244 0.70382 -0.00201 0.0
C190 C 0.55445 0.66081 0.01375 0.0
C191 C 0.57367 0.64937 0.04948 0.0
C192 C 0.62986 0.68306 0.06961 0.0
H193 H 0.78553 0.13947 0.94043 0.0
H194 H 0.84646 0.15403 0.05181 0.0
H195 H 0.77045 0.24596 0.05202 0.0
H196 H 0.78924 0.2991 0.92514 0.0
H197 H 0.71498 0.29723 0.88996 0.0
H198 H 0.76794 0.22891 0.89911 0.0
H199 H 0.65767 0.16323 0.90474 0.0
H200 H 0.6042 0.23143 0.89545 0.0
H201 H 0.60328 0.18882 0.93432 0.0
H202 H 0.69443 0.3418 0.03915 0.0
H203 H 0.62759 0.43357 0.01404 0.0
H204 H 0.6175 0.35358 0.91164 0.0
C205 C 0.78216 0.16126 0.96497 0.0
C206 C 0.82179 0.13953 -0.0039 0.0
C207 C 0.81638 0.16985 0.02762 0.0
C208 C 0.77322 0.22196 0.02801 0.0
C209 C 0.73567 0.24277 -0.00328 0.0
C210 C 0.73963 0.2131 0.96582 0.0
C211 C 0.69787 0.24665 0.93552 0.0
C212 C 0.74536 0.26931 0.91101 0.0
C213 C 0.63715 0.20504 0.91639 0.0
C214 C 0.67119 0.30079 0.95407 0.0
C215 C 0.69268 0.29762 0.98938 0.0
C216 C 0.6767 0.3444 0.01156 0.0
C217 C 0.63868 0.39617 -0.00286 0.0
C218 C 0.61799 0.40068 0.96095 0.0
C219 C 0.63336 0.35165 0.9394 0.0
H220 H 0.64746 0.74157 0.50822 0.0
H221 H 0.78682 0.60135 0.48077 0.0
H222 H 0.87373 0.68461 0.47459 0.0
H223 H 0.69515 0.86764 0.45033 0.0
H224 H 0.68774 0.928 0.48177 0.0
H225 H 0.63297 0.85855 0.47846 0.0
H226 H 0.67773 0.83709 0.54334 0.0
H227 H 0.73087 0.90697 0.54679 0.0
H228 H 0.77085 0.83321 0.55954 0.0
H229 H 0.95331 0.78072 0.48326 0.0
H230 H 0.01689 0.87701 0.50796 0.0
H231 H 0.82127 0.9571 0.52259 0.0
C232 C 0.69562 0.72888 0.50002 0.0
C233 C 0.71093 0.66563 0.49483 0.0
C234 C 0.77444 0.64994 0.48459 0.0
C235 C 0.82372 0.69692 0.48085 0.0
C236 C 0.80763 0.75931 0.48658 0.0
C237 C 0.7445 0.77526 0.49551 0.0
C238 C 0.74215 0.84457 0.50351 0.0
C239 C 0.68617 0.87657 0.47692 0.0
C240 C 0.72974 0.85608 0.54047 0.0
C241 C 0.81531 0.86479 0.4998 0.0
C242 C 0.85224 0.81525 0.48954 0.0
C243 C 0.92433 0.82034 0.49015 0.0
C244 C 0.96013 0.8756 0.5038 0.0
C245 C 0.92368 0.9247 0.51665 0.0
C246 C 0.8498 0.92088 0.51192 0.0
H247 H 0.68817 0.37397 0.4617 0.0
H248 H 0.75545 0.38744 0.57279 0.0
H249 H 0.84626 0.30815 0.56949 0.0
H250 H 0.71459 0.20772 0.45212 0.0
H251 H 0.74515 0.21666 0.41219 0.0
H252 H 0.6834 0.27113 0.42403 0.0
H253 H 0.76764 0.36342 0.41783 0.0
H254 H 0.82972 0.30938 0.40604 0.0
H255 H 0.85643 0.36328 0.44184 0.0
H256 H 0.93217 0.22839 0.55294 0.0
H257 H 0.00671 0.15959 0.52464 0.0
H258 H 0.88372 0.20299 0.42486 0.0
C259 C 0.72136 0.35997 0.4855 0.0
C260 C 0.71447 0.38667 0.51756 0.0
C261 C 0.75967 0.3674 0.54795 0.0
C262 C 0.81125 0.32238 0.54631 0.0
C263 C 0.81681 0.2974 0.51411 0.0
C264 C 0.77298 0.31576 0.4843 0.0
C265 C 0.79101 0.28441 0.45267 0.0
C266 C 0.7299 0.24249 0.43417 0.0
C267 C 0.8125 0.33303 0.42817 0.0
C268 C 0.85261 0.24594 0.46916 0.0
C269 C 0.86647 0.2533 0.50465 0.0
C270 C 0.92159 0.22234 0.5252 0.0
C271 C 0.96371 0.18336 0.50895 0.0
C272 C 0.95059 0.1764 0.47257 0.0
C273 C 0.89433 0.20783 0.45269 0.0
H274 H 0.37711 0.35637 0.48149 0.0
H275 H 0.43811 0.41601 0.58877 0.0
H276 H 0.35982 0.33567 0.60518 0.0
H277 H 0.19403 0.32249 0.48376 0.0
H278 H 0.18819 0.25427 0.45586 0.0
H279 H 0.24865 0.31708 0.45178 0.0
H280 H 0.35079 0.23866 0.46 0.0
H281 H 0.29056 0.17576 0.46425 0.0
H282 H 0.36632 0.19072 0.49771 0.0
H283 H 0.27729 0.24966 0.61091 0.0
H284 H 0.19149 0.16312 0.60556 0.0
H285 H 0.18081 0.15551 0.49489 0.0
C286 C 0.37367 0.35266 0.50839 0.0
C287 C 0.41407 0.39278 0.53382 0.0
C288 C 0.40811 0.38605 0.56876 0.0
C289 C 0.36369 0.34043 0.57841 0.0
C290 C 0.32524 0.30146 0.55292 0.0
C291 C 0.32935 0.30692 0.5186 0.0
C292 C 0.28197 0.25831 0.49664 0.0
C293 C 0.22482 0.28995 0.47046 0.0
C294 C 0.325 0.21319 0.47859 0.0
C295 C 0.25075 0.22509 0.52407 0.0
C296 C 0.27683 0.25096 0.55629 0.0
C297 C 0.2564 0.22898 0.58582 0.0
C298 C 0.2075 0.17956 0.58245 0.0
C299 C 0.17909 0.15223 0.54967 0.0
C300 C 0.20155 0.17528 0.52018 0.0
H301 H 0.36455 0.66107 0.45416 0.0
H302 H 0.46296 0.70857 0.5597 0.0
H303 H 0.39205 0.80377 0.55735 0.0
H304 H 0.35855 0.81385 0.42244 0.0
H305 H 0.27406 0.80433 0.39447 0.0
H306 H 0.32896 0.73752 0.40507 0.0
H307 H 0.22885 0.68052 0.42779 0.0
H308 H 0.17341 0.74708 0.41703 0.0
H309 H 0.18942 0.71818 0.46035 0.0
H310 H 0.31812 0.89844 0.54192 0.0
H311 H 0.24284 0.98332 0.51513 0.0
H312 H 0.18715 0.87076 0.42108 0.0
C313 C 0.37055 0.69107 0.47692 0.0
C314 C 0.41933 0.67734 0.50709 0.0
C315 C 0.42576 0.71795 0.5363 0.0
C316 C 0.38574 0.77221 0.53524 0.0
C317 C 0.33889 0.78487 0.50495 0.0
C318 C 0.33051 0.74516 0.47644 0.0
C319 C 0.27785 0.77047 0.44679 0.0
C320 C 0.31192 0.78224 0.41535 0.0
C321 C 0.21357 0.72644 0.43745 0.0
C322 C 0.25934 0.83127 0.46283 0.0
C323 C 0.29493 0.8387 0.4964 0.0
C324 C 0.28901 0.89272 0.51582 0.0
C325 C 0.24577 0.94058 0.50041 0.0
C326 C 0.20879 0.93399 0.46594 0.0
C327 C 0.21524 0.87797 0.44728 0.0
H328 H 0.02182 0.95271 0.19848 0.0
H329 H 0.11238 0.13037 0.17665 0.0
H330 H 0.1415 0.15601 0.23918 0.0
H331 H 0.94637 0.00437 0.26952 0.0
H332 H 0.96756 0.93432 0.29388 0.0
H333 H 0.9532 0.93078 0.24753 0.0
H334 H 0.07549 0.88163 0.25041 0.0
H335 H 0.09017 0.88492 0.29678 0.0
H336 H 0.15217 0.92155 0.27446 0.0
H337 H 0.15505 0.1638 0.30389 0.0
H338 H 0.16175 0.149 0.36658 0.0
H339 H 0.06997 0.96324 0.34571 0.0
C340 C 0.04774 0.99695 0.20702 0.0
C341 C 0.06469 0.0399 0.18314 0.0
C342 C 0.09927 0.09707 0.19488 0.0
C343 C 0.11571 0.11199 0.23019 0.0
C344 C 0.09806 0.06869 0.25321 0.0
C345 C 0.0657 0.01198 0.24213 0.0
C346 C 0.05427 0.97281 0.27212 0.0
C347 C 0.97568 0.95984 0.27067 0.0
C348 C 0.0955 0.91162 0.27352 0.0
C349 C 0.08453 0.01658 0.3018 0.0
C350 C 0.10892 0.07193 0.29041 0.0
C351 C 0.13683 0.12043 0.31315 0.0
C352 C 0.14029 0.11182 0.34853 0.0
C353 C 0.11694 0.05491 0.36051 0.0
C354 C 0.08885 0.00683 0.33693 0.0
H355 H 0.92534 0.0635 0.79851 0.0
H356 H 0.85763 0.87073 0.80414 0.0
H357 H 0.86457 0.85366 0.74274 0.0
H358 H 0.83263 0.0877 0.70722 0.0
H359 H 0.903 0.13695 0.69858 0.0
H360 H 0.88347 0.13534 0.74131 0.0
H361 H 0.01258 0.10704 0.76558 0.0
H362 H 0.03219 0.107 0.72293 0.0
H363 H 0.04917 0.03849 0.74903 0.0
H364 H 0.89818 0.85366 0.68489 0.0
H365 H 0.9388 0.8736 0.63085 0.0
H366 H 0.97563 0.0695 0.6611 0.0
C367 C 0.90969 0.01845 0.78629 0.0
C368 C 0.89019 0.96846 0.80544 0.0
C369 C 0.87144 0.90959 0.78935 0.0
C370 C 0.87567 0.89952 0.75471 0.0
C371 C 0.89758 0.94924 0.73673 0.0
C372 C 0.91257 0.00799 0.75168 0.0
C373 C 0.93794 0.05263 0.72721 0.0
C374 C 0.88616 0.10633 0.71803 0.0
C375 C 0.01238 0.07773 0.74209 0.0
C376 C 0.93756 0.00916 0.69663 0.0
C377 C 0.91421 0.94978 0.70269 0.0
C378 C 0.91438 0.90042 0.67936 0.0
C379 C 0.93742 0.9124 0.64864 0.0
C380 C 0.95904 0.97355 0.6412 0.0
C381 C 0.95943 0.0223 0.66581 0.0
H382 H 0.6571 0.49335 0.7118 0.0
H383 H 0.61793 0.69105 0.698 0.0
H384 H 0.61312 0.70327 0.75997 0.0
H385 H 0.53564 0.46908 0.76227 0.0
H386 H 0.58418 0.41208 0.78996 0.0
H387 H 0.59962 0.42136 0.74695 0.0
H388 H 0.73188 0.44207 0.77085 0.0
H389 H 0.71693 0.43223 0.81407 0.0
H390 H 0.75832 0.50295 0.80299 0.0
H391 H 0.59818 0.6908 0.82135 0.0
H392 H 0.57248 0.65486 0.87676 0.0
H393 H 0.61279 0.46357 0.84819 0.0
C394 C 0.6505 0.53952 0.72233 0.0
C395 C 0.63979 0.59167 0.70081 0.0
C396 C 0.62785 0.65107 0.71464 0.0
C397 C 0.62501 0.65831 0.74966 0.0
C398 C 0.63371 0.60548 0.77021 0.0
C399 C 0.64646 0.54723 0.75705 0.0
C400 C 0.64494 0.49661 0.78318 0.0
C401 C 0.58768 0.4469 0.76978 0.0
C402 C 0.71734 0.46672 0.79338 0.0
C403 C 0.62701 0.53503 0.81265 0.0
C404 C 0.62209 0.59785 0.80502 0.0
C405 C 0.60258 0.64178 0.82774 0.0
C406 C 0.58734 0.62082 0.85899 0.0
C407 C 0.59065 0.55635 0.86697 0.0
C408 C 0.61135 0.51333 0.84342 0.0
H409 H 0.44542 0.54856 0.31005 0.0
H410 H 0.52701 0.36373 0.33516 0.0
H411 H 0.51926 0.33915 0.27316 0.0
H412 H 0.3252 0.50492 0.22949 0.0
H413 H 0.34375 0.57535 0.20819 0.0
H414 H 0.34971 0.57609 0.25423 0.0
H415 H 0.47762 0.61818 0.26239 0.0
H416 H 0.47236 0.61688 0.21643 0.0
H417 H 0.54088 0.57513 0.24378 0.0
H418 H 0.50665 0.33601 0.20943 0.0
H419 H 0.49056 0.35442 0.14692 0.0
H420 H 0.42257 0.54333 0.16303 0.0
C421 C 0.46012 0.50257 0.30224 0.0
C422 C 0.48584 0.4575 0.32692 0.0
C423 C 0.50659 0.39834 0.31628 0.0
C424 C 0.50243 0.38411 0.28128 0.0
C425 C 0.47808 0.42992 0.25748 0.0
C426 C 0.45729 0.48796 0.26741 0.0
C427 C 0.43699 0.5299 0.23671 0.0
C428 C 0.35929 0.54758 0.23187 0.0
C429 C 0.48483 0.58848 0.24004 0.0
C430 C 0.45004 0.48647 0.20805 0.0
C431 C 0.47316 0.42889 0.22063 0.0
C432 C 0.48844 0.38081 0.19921 0.0
C433 C 0.47919 0.39165 0.16387 0.0
C434 C 0.45553 0.45024 0.15043 0.0
C435 C 0.44133 0.49837 0.17283 0.0
loop_
_geom_bond_atom_site_label_1
_geom_bond_atom_site_label_2
_geom_bond_distance
_geom_bond_site_symmetry_2
_ccdc_geom_bond_type
C0 O16 1.251 . S
C0 O18 1.254 1_554 S
N1 C2 1.333 1_445 S
N1 C6 1.307 . S
N1 Zn7 2.020 . S
C2 N1 1.333 1_665 S
C2 C3 1.379 . S
C2 H20 0.952 . S
C3 C2 1.379 . S
C3 C4 1.390 1_665 S
C3 H30 0.949 . S
C4 C3 1.390 1_445 S
C4 C5 1.357 . S
C5 C4 1.357 . S
C5 C6 1.370 . S
C5 H31 0.950 . S
C6 N1 1.307 . S
C6 C5 1.370 . S
C6 H24 0.948 . S
Zn7 N1 2.020 . S
Zn7 O16 2.039 1_445 S
Zn7 O22 2.034 1_455 S
Zn7 O26 2.025 . S
Zn7 O28 2.024 1_545 S
C8 O27 1.246 1_554 S
C8 O28 1.249 . S
N9 C10 1.319 1_545 S
N9 C11 1.318 1_655 S
N9 Zn15 2.022 1_655 S
C10 N9 1.319 1_565 S
C10 C14 1.370 . S
C10 H21 0.948 . S
C11 N9 1.318 1_455 S
C11 C12 1.379 . S
C11 H19 0.952 . S
C12 C11 1.379 . S
C12 C13 1.390 1_455 S
C12 H32 0.949 . S
C13 C12 1.390 1_655 S
C13 C14 1.357 1_545 S
C14 C10 1.370 . S
C14 C13 1.357 1_565 S
C14 H33 0.950 . S
Zn15 N9 2.022 1_455 S
Zn15 O18 2.025 1_445 S
Zn15 O23 2.024 1_455 S
Zn15 O25 2.039 . S
Zn15 O27 2.034 1_545 S
O16 C0 1.251 . S
O16 Zn7 2.039 1_665 S
C17 O22 1.246 . S
C17 O23 1.249 1_554 S
O18 C0 1.254 1_556 S
O18 Zn15 2.025 1_665 S
H19 C11 0.952 . S
H20 C2 0.952 . S
H21 C10 0.948 . S
O22 Zn7 2.034 1_655 S
O22 C17 1.246 . S
O23 Zn15 2.024 1_655 S
O23 C17 1.249 1_556 S
H24 C6 0.948 . S
O25 Zn15 2.039 . S
O25 C29 1.251 1_556 S
O26 Zn7 2.025 . S
O26 C29 1.254 . S
O27 C8 1.246 1_556 S
O27 Zn15 2.034 1_565 S
O28 Zn7 2.024 1_565 S
O28 C8 1.249 . S
C29 O25 1.251 1_554 S
C29 O26 1.254 . S
H30 C3 0.949 . S
H31 C5 0.950 . S
H32 C12 0.949 . S
H33 C14 0.950 . S
C34 O50 1.251 . S
C34 O52 1.254 . S
N35 C36 1.333 . S
N35 C40 1.307 . S
N35 Zn41 2.020 . S
C36 N35 1.333 . S
C36 C37 1.379 . S
C36 H54 0.952 . S
C37 C36 1.379 . S
C37 C38 1.390 . S
C37 H64 0.949 . S
C38 C37 1.390 . S
C38 C39 1.357 . S
C39 C38 1.357 . S
C39 C40 1.370 . S
C39 H65 0.950 . S
C40 N35 1.307 . S
C40 C39 1.370 . S
C40 H58 0.948 . S
Zn41 N35 2.020 . S
Zn41 O50 2.039 . S
Zn41 O56 2.034 . S
Zn41 O60 2.025 . S
Zn41 O62 2.024 . S
C42 O61 1.246 . S
C42 O62 1.249 . S
N43 C44 1.307 . S
N43 C45 1.333 . S
N43 Zn49 2.020 . S
C44 N43 1.307 . S
C44 C48 1.370 . S
C44 H55 0.948 . S
C45 N43 1.333 . S
C45 C46 1.379 . S
C45 H53 0.952 . S
C46 C45 1.379 . S
C46 C47 1.390 . S
C46 H66 0.949 . S
C47 C46 1.390 . S
C47 C48 1.357 . S
C48 C44 1.370 . S
C48 C47 1.357 . S
C48 H67 0.950 . S
Zn49 N43 2.020 . S
Zn49 O52 2.025 . S
Zn49 O57 2.024 . S
Zn49 O59 2.039 . S
Zn49 O61 2.034 . S
O50 C34 1.251 . S
O50 Zn41 2.039 . S
C51 O56 1.246 . S
C51 O57 1.249 . S
O52 C34 1.254 . S
O52 Zn49 2.025 . S
H53 C45 0.952 . S
H54 C36 0.952 . S
H55 C44 0.948 . S
O56 Zn41 2.034 . S
O56 C51 1.246 . S
O57 Zn49 2.024 . S
O57 C51 1.249 . S
H58 C40 0.948 . S
O59 Zn49 2.039 . S
O59 C63 1.251 . S
O60 Zn41 2.025 . S
O60 C63 1.254 . S
O61 C42 1.246 . S
O61 Zn49 2.034 . S
O62 Zn41 2.024 . S
O62 C42 1.249 . S
C63 O59 1.251 . S
C63 O60 1.254 . S
H64 C37 0.949 . S
H65 C39 0.950 . S
H66 C46 0.949 . S
H67 C48 0.950 . S
H68 C73 0.929 . S
H69 C78 0.931 . S
H70 C76 0.930 1_655 S
N71 N72 1.234 . S
N71 C75 1.453 1_655 S
N72 N71 1.234 . S
C73 H68 0.929 . S
C73 C74 1.373 . S
C73 C75 1.368 1_565 S
C74 C73 1.373 . S
C74 C78 1.397 . S
C75 N71 1.453 1_455 S
C75 C73 1.368 1_545 S
C75 C76 1.373 . S
C76 H70 0.930 1_455 S
C76 C75 1.373 . S
C76 C77 1.371 . S
C77 C76 1.371 . S
C77 C78 1.383 1_545 S
C78 H69 0.931 . S
C78 C74 1.397 . S
C78 C77 1.383 1_565 S
H79 C84 0.929 . S
H80 C89 0.931 . S
H81 C87 0.930 . S
N82 N83 1.234 . S
N82 C86 1.453 . S
N83 N82 1.234 . S
C84 H79 0.929 . S
C84 C85 1.373 . S
C84 C86 1.368 1_665 S
C85 C84 1.373 . S
C85 C89 1.397 . S
C86 N82 1.453 . S
C86 C84 1.368 1_445 S
C86 C87 1.373 . S
C87 H81 0.930 . S
C87 C86 1.373 . S
C87 C88 1.371 1_455 S
C88 C87 1.371 1_655 S
C88 C89 1.383 1_545 S
C89 H80 0.931 . S
C89 C85 1.397 . S
C89 C88 1.383 1_565 S
H90 C95 0.929 1_554 S
H91 C100 0.931 . S
H92 C98 0.930 . S
N93 N94 1.234 . S
N93 C97 1.453 . S
N94 N93 1.234 . S
C95 H90 0.929 1_556 S
C95 C96 1.373 . S
C95 C97 1.368 . S
C96 C95 1.373 . S
C96 C100 1.397 . S
C97 N93 1.453 . S
C97 C95 1.368 . S
C97 C98 1.373 . S
C98 H92 0.930 . S
C98 C97 1.373 . S
C98 C99 1.371 . S
C99 C98 1.371 . S
C99 C100 1.383 . S
C100 H91 0.931 . S
C100 C96 1.397 . S
C100 C99 1.383 . S
H101 C106 0.929 1_556 S
H102 C111 0.931 . S
H103 C109 0.930 . S
N104 N105 1.234 . S
N104 C108 1.453 . S
N105 N104 1.234 . S
C106 H101 0.929 1_554 S
C106 C107 1.373 . S
C106 C108 1.368 . S
C107 C106 1.373 . S
C107 C111 1.397 . S
C108 N104 1.453 . S
C108 C106 1.368 . S
C108 C109 1.373 . S
C109 H103 0.930 . S
C109 C108 1.373 . S
C109 C110 1.371 . S
C110 C109 1.371 . S
C110 C111 1.383 . S
C111 H102 0.931 . S
C111 C107 1.397 . S
C111 C110 1.383 . S
H112 C124 0.930 . S
H113 C126 0.930 1_556 S
H114 C127 0.930 1_556 S
H115 C131 0.959 . S
H116 C131 0.959 . S
H117 C131 0.961 . S
H118 C132 0.960 . S
H119 C132 0.961 . S
H120 C132 0.959 . S
H121 C135 0.929 . S
H122 C136 0.931 . S
H123 C138 0.930 . S
C124 H112 0.930 . S
C124 C125 1.399 . S
C124 C129 1.399 . S
C125 C124 1.399 . S
C125 C126 1.376 . S
C126 H113 0.930 1_554 S
C126 C125 1.376 . S
C126 C127 1.388 . S
C127 H114 0.930 1_554 S
C127 C126 1.388 . S
C127 C128 1.390 . S
C128 C127 1.390 . S
C128 C129 1.394 . S
C128 C134 1.465 . S
C129 C124 1.399 . S
C129 C128 1.394 . S
C129 C130 1.516 . S
C130 C129 1.516 . S
C130 C131 1.502 . S
C130 C132 1.561 1_554 S
C130 C133 1.526 . S
C131 H115 0.959 . S
C131 H116 0.959 . S
C131 H117 0.961 . S
C131 C130 1.502 . S
C132 H118 0.960 . S
C132 H119 0.961 . S
C132 H120 0.959 . S
C132 C130 1.561 1_556 S
C133 C130 1.526 . S
C133 C134 1.396 . S
C133 C138 1.390 . S
C134 C128 1.465 . S
C134 C133 1.396 . S
C134 C135 1.399 . S
C135 H121 0.929 . S
C135 C134 1.399 . S
C135 C136 1.385 . S
C136 H122 0.931 . S
C136 C135 1.385 . S
C136 C137 1.389 . S
C137 C136 1.389 . S
C137 C138 1.387 . S
C138 H123 0.930 . S
C138 C133 1.390 . S
C138 C137 1.387 . S
H139 C151 0.930 . S
H140 C153 0.930 . S
H141 C154 0.930 . S
H142 C158 0.959 . S
H143 C158 0.959 . S
H144 C158 0.961 . S
H145 C159 0.960 . S
H146 C159 0.961 . S
H147 C159 0.959 . S
H148 C162 0.929 . S
H149 C163 0.931 . S
H150 C165 0.930 . S
C151 H139 0.930 . S
C151 C152 1.399 1_556 S
C151 C156 1.399 . S
C152 C151 1.399 1_554 S
C152 C153 1.376 . S
C153 H140 0.930 . S
C153 C152 1.376 . S
C153 C154 1.388 . S
C154 H141 0.930 . S
C154 C153 1.388 . S
C154 C155 1.390 . S
C155 C154 1.390 . S
C155 C156 1.394 1_554 S
C155 C161 1.465 . S
C156 C151 1.399 . S
C156 C155 1.394 1_556 S
C156 C157 1.516 . S
C157 C156 1.516 . S
C157 C158 1.502 . S
C157 C159 1.561 . S
C157 C160 1.526 . S
C158 H142 0.959 . S
C158 H143 0.959 . S
C158 H144 0.961 . S
C158 C157 1.502 . S
C159 H145 0.960 . S
C159 H146 0.961 . S
C159 H147 0.959 . S
C159 C157 1.561 . S
C160 C157 1.526 . S
C160 C161 1.396 1_556 S
C160 C165 1.390 . S
C161 C155 1.465 . S
C161 C160 1.396 1_554 S
C161 C162 1.399 . S
C162 H148 0.929 . S
C162 C161 1.399 . S
C162 C163 1.385 . S
C163 H149 0.931 . S
C163 C162 1.385 . S
C163 C164 1.389 . S
C164 C163 1.389 . S
C164 C165 1.387 1_554 S
C165 H150 0.930 . S
C165 C160 1.390 . S
C165 C164 1.387 1_556 S
H166 C178 0.930 . S
H167 C180 0.930 . S
H168 C181 0.930 . S
H169 C185 0.959 . S
H170 C185 0.959 . S
H171 C185 0.961 . S
H172 C186 0.960 . S
H173 C186 0.961 . S
H174 C186 0.959 . S
H175 C189 0.929 . S
H176 C190 0.931 . S
H177 C192 0.930 . S
C178 H166 0.930 . S
C178 C179 1.399 . S
C178 C183 1.399 . S
C179 C178 1.399 . S
C179 C180 1.376 1_554 S
C180 H167 0.930 . S
C180 C179 1.376 1_556 S
C180 C181 1.388 . S
C181 H168 0.930 . S
C181 C180 1.388 . S
C181 C182 1.390 . S
C182 C181 1.390 . S
C182 C183 1.394 1_556 S
C182 C188 1.465 . S
C183 C178 1.399 . S
C183 C182 1.394 1_554 S
C183 C184 1.516 . S
C184 C183 1.516 . S
C184 C185 1.502 . S
C184 C186 1.561 . S
C184 C187 1.526 . S
C185 H169 0.959 . S
C185 H170 0.959 . S
C185 H171 0.961 . S
C185 C184 1.502 . S
C186 H172 0.960 . S
C186 H173 0.961 . S
C186 H174 0.959 . S
C186 C184 1.561 . S
C187 C184 1.526 . S
C187 C188 1.396 1_554 S
C187 C192 1.390 . S
C188 C182 1.465 . S
C188 C187 1.396 1_556 S
C188 C189 1.399 . S
C189 H175 0.929 . S
C189 C188 1.399 . S
C189 C190 1.385 . S
C190 H176 0.931 . S
C190 C189 1.385 . S
C190 C191 1.389 1_556 S
C191 C190 1.389 1_554 S
C191 C192 1.387 . S
C192 H177 0.930 . S
C192 C187 1.390 . S
C192 C191 1.387 . S
H193 C205 0.930 . S
H194 C207 0.930 . S
H195 C208 0.930 . S
H196 C212 0.959 . S
H197 C212 0.959 . S
H198 C212 0.961 . S
H199 C213 0.960 . S
H200 C213 0.961 . S
H201 C213 0.959 . S
H202 C216 0.929 . S
H203 C217 0.931 . S
H204 C219 0.930 . S
C205 H193 0.930 . S
C205 C206 1.396 1_554 S
C205 C210 1.399 . S
C206 C205 1.396 1_556 S
C206 C207 1.379 . S
C207 H194 0.930 . S
C207 C206 1.379 . S
C207 C208 1.388 . S
C208 H195 0.930 . S
C208 C207 1.388 . S
C208 C209 1.390 . S
C209 C208 1.390 . S
C209 C210 1.394 1_556 S
C209 C215 1.465 . S
C210 C205 1.399 . S
C210 C209 1.394 1_554 S
C210 C211 1.516 . S
C211 C210 1.516 . S
C211 C212 1.502 . S
C211 C213 1.561 . S
C211 C214 1.526 . S
C212 H196 0.959 . S
C212 H197 0.959 . S
C212 H198 0.961 . S
C212 C211 1.502 . S
C213 H199 0.960 . S
C213 H200 0.961 . S
C213 H201 0.959 . S
C213 C211 1.561 . S
C214 C211 1.526 . S
C214 C215 1.396 1_554 S
C214 C219 1.390 . S
C215 C209 1.465 . S
C215 C214 1.396 1_556 S
C215 C216 1.399 . S
C216 H202 0.929 . S
C216 C215 1.399 . S
C216 C217 1.385 . S
C217 H203 0.931 . S
C217 C216 1.385 . S
C217 C218 1.389 . S
C218 C217 1.389 . S
C218 C219 1.387 1_556 S
C219 H204 0.930 . S
C219 C214 1.390 . S
C219 C218 1.387 1_554 S
H220 C232 0.930 . S
H221 C234 0.930 . S
H222 C235 0.930 . S
H223 C239 0.959 . S
H224 C239 0.959 . S
H225 C239 0.961 . S
H226 C240 0.960 . S
H227 C240 0.961 . S
H228 C240 0.959 . S
H229 C243 0.929 . S
H230 C244 0.931 . S
H231 C246 0.930 . S
C232 H220 0.930 . S
C232 C233 1.399 . S
C232 C237 1.399 . S
C233 C232 1.399 . S
C233 C234 1.376 . S
C234 H221 0.930 . S
C234 C233 1.376 . S
C234 C235 1.388 . S
C235 H222 0.930 . S
C235 C234 1.388 . S
C235 C236 1.390 . S
C236 C235 1.390 . S
C236 C237 1.394 . S
C236 C242 1.465 . S
C237 C232 1.399 . S
C237 C236 1.394 . S
C237 C238 1.516 . S
C238 C237 1.516 . S
C238 C239 1.502 . S
C238 C240 1.561 . S
C238 C241 1.526 . S
C239 H223 0.959 . S
C239 H224 0.959 . S
C239 H225 0.961 . S
C239 C238 1.502 . S
C240 H226 0.960 . S
C240 H227 0.961 . S
C240 H228 0.959 . S
C240 C238 1.561 . S
C241 C238 1.526 . S
C241 C242 1.396 . S
C241 C246 1.390 . S
C242 C236 1.465 . S
C242 C241 1.396 . S
C242 C243 1.399 . S
C243 H229 0.929 . S
C243 C242 1.399 . S
C243 C244 1.385 . S
C244 H230 0.931 . S
C244 C243 1.385 . S
C244 C245 1.389 . S
C245 C244 1.389 . S
C245 C246 1.387 . S
C246 H231 0.930 . S
C246 C241 1.390 . S
C246 C245 1.387 . S
H247 C259 0.930 . S
H248 C261 0.930 . S
H249 C262 0.930 . S
H250 C266 0.959 . S
H251 C266 0.959 . S
H252 C266 0.961 . S
H253 C267 0.960 . S
H254 C267 0.961 . S
H255 C267 0.959 . S
H256 C270 0.929 . S
H257 C271 0.931 . S
H258 C273 0.930 . S
C259 H247 0.930 . S
C259 C260 1.399 . S
C259 C264 1.399 . S
C260 C259 1.399 . S
C260 C261 1.376 . S
C261 H248 0.930 . S
C261 C260 1.376 . S
C261 C262 1.388 . S
C262 H249 0.930 . S
C262 C261 1.388 . S
C262 C263 1.390 . S
C263 C262 1.390 . S
C263 C264 1.394 . S
C263 C269 1.465 . S
C264 C259 1.399 . S
C264 C263 1.394 . S
C264 C265 1.516 . S
C265 C264 1.516 . S
C265 C266 1.502 . S
C265 C267 1.561 . S
C265 C268 1.526 . S
C266 H250 0.959 . S
C266 H251 0.959 . S
C266 H252 0.961 . S
C266 C265 1.502 . S
C267 H253 0.960 . S
C267 H254 0.961 . S
C267 H255 0.959 . S
C267 C265 1.561 . S
C268 C265 1.526 . S
C268 C269 1.396 . S
C268 C273 1.390 . S
C269 C263 1.465 . S
C269 C268 1.396 . S
C269 C270 1.399 . S
C270 H256 0.929 . S
C270 C269 1.399 . S
C270 C271 1.385 . S
C271 H257 0.931 . S
C271 C270 1.385 . S
C271 C272 1.389 . S
C272 C271 1.389 . S
C272 C273 1.387 . S
C273 H258 0.930 . S
C273 C268 1.390 . S
C273 C272 1.387 . S
H274 C286 0.930 . S
H275 C288 0.930 . S
H276 C289 0.930 . S
H277 C293 0.959 . S
H278 C293 0.959 . S
H279 C293 0.961 . S
H280 C294 0.960 . S
H281 C294 0.961 . S
H282 C294 0.959 . S
H283 C297 0.929 . S
H284 C298 0.931 . S
H285 C300 0.930 . S
C286 H274 0.930 . S
C286 C287 1.399 . S
C286 C291 1.399 . S
C287 C286 1.399 . S
C287 C288 1.376 . S
C288 H275 0.930 . S
C288 C287 1.376 . S
C288 C289 1.388 . S
C289 H276 0.930 . S
C289 C288 1.388 . S
C289 C290 1.390 . S
C290 C289 1.390 . S
C290 C291 1.394 . S
C290 C296 1.465 . S
C291 C286 1.399 . S
C291 C290 1.394 . S
C291 C292 1.516 . S
C292 C291 1.516 . S
C292 C293 1.502 . S
C292 C294 1.561 . S
C292 C295 1.526 . S
C293 H277 0.959 . S
C293 H278 0.959 . S
C293 H279 0.961 . S
C293 C292 1.502 . S
C294 H280 0.960 . S
C294 H281 0.961 . S
C294 H282 0.959 . S
C294 C292 1.561 . S
C295 C292 1.526 . S
C295 C296 1.396 . S
C295 C300 1.390 . S
C296 C290 1.465 . S
C296 C295 1.396 . S
C296 C297 1.399 . S
C297 H283 0.929 . S
C297 C296 1.399 . S
C297 C298 1.385 . S
C298 H284 0.931 . S
C298 C297 1.385 . S
C298 C299 1.389 . S
C299 C298 1.389 . S
C299 C300 1.387 . S
C300 H285 0.930 . S
C300 C295 1.390 . S
C300 C299 1.387 . S
H301 C313 0.930 . S
H302 C315 0.930 . S
H303 C316 0.930 . S
H304 C320 0.959 . S
H305 C320 0.959 . S
H306 C320 0.961 . S
H307 C321 0.960 . S
H308 C321 0.961 . S
H309 C321 0.959 . S
H310 C324 0.929 . S
H311 C325 0.931 . S
H312 C327 0.930 . S
C313 H301 0.930 . S
C313 C314 1.399 . S
C313 C318 1.399 . S
C314 C313 1.399 . S
C314 C315 1.376 . S
C315 H302 0.930 . S
C315 C314 1.376 . S
C315 C316 1.388 . S
C316 H303 0.930 . S
C316 C315 1.388 . S
C316 C317 1.390 . S
C317 C316 1.390 . S
C317 C318 1.394 . S
C317 C323 1.465 . S
C318 C313 1.399 . S
C318 C317 1.394 . S
C318 C319 1.516 . S
C319 C318 1.516 . S
C319 C320 1.502 . S
C319 C321 1.561 . S
C319 C322 1.526 . S
C320 H304 0.959 . S
C320 H305 0.959 . S
C320 H306 0.961 . S
C320 C319 1.502 . S
C321 H307 0.960 . S
C321 H308 0.961 . S
C321 H309 0.959 . S
C321 C319 1.561 . S
C322 C319 1.526 . S
C322 C323 1.396 . S
C322 C327 1.390 . S
C323 C317 1.465 . S
C323 C322 1.396 . S
C323 C324 1.399 . S
C324 H310 0.929 . S
C324 C323 1.399 . S
C324 C325 1.385 . S
C325 H311 0.931 . S
C325 C324 1.385 . S
C325 C326 1.389 . S
C326 C325 1.389 . S
C326 C327 1.387 . S
C327 H312 0.930 . S
C327 C322 1.390 . S
C327 C326 1.387 . S
H328 C340 0.930 . S
H329 C342 0.930 . S
H330 C343 0.930 . S
H331 C347 0.959 . S
H332 C347 0.959 . S
H333 C347 0.961 . S
H334 C348 0.960 . S
H335 C348 0.961 . S
H336 C348 0.959 . S
H337 C351 0.929 . S
H338 C352 0.931 . S
H339 C354 0.930 . S
C340 H328 0.930 . S
C340 C341 1.399 1_565 S
C340 C345 1.399 . S
C341 C340 1.399 1_545 S
C341 C342 1.376 . S
C342 H329 0.930 . S
C342 C341 1.376 . S
C342 C343 1.388 . S
C343 H330 0.930 . S
C343 C342 1.388 . S
C343 C344 1.390 . S
C344 C343 1.390 . S
C344 C345 1.394 1_545 S
C344 C350 1.465 . S
C345 C340 1.399 . S
C345 C344 1.394 1_565 S
C345 C346 1.516 . S
C346 C345 1.516 . S
C346 C347 1.502 1_455 S
C346 C348 1.561 . S
C346 C349 1.526 . S
C347 H331 0.959 . S
C347 H332 0.959 . S
C347 H333 0.961 . S
C347 C346 1.502 1_655 S
C348 H334 0.960 . S
C348 H335 0.961 . S
C348 H336 0.959 . S
C348 C346 1.561 . S
C349 C346 1.526 . S
C349 C350 1.396 1_565 S
C349 C354 1.390 . S
C350 C344 1.465 . S
C350 C349 1.396 1_545 S
C350 C351 1.399 . S
C351 H337 0.929 . S
C351 C350 1.399 . S
C351 C352 1.385 . S
C352 H338 0.931 . S
C352 C351 1.385 . S
C352 C353 1.389 . S
C353 C352 1.389 . S
C353 C354 1.387 1_545 S
C354 H339 0.930 . S
C354 C349 1.390 . S
C354 C353 1.387 1_565 S
H355 C367 0.930 . S
H356 C369 0.930 . S
H357 C370 0.930 . S
H358 C374 0.959 . S
H359 C374 0.959 . S
H360 C374 0.961 . S
H361 C375 0.960 . S
H362 C375 0.961 . S
H363 C375 0.959 . S
H364 C378 0.929 . S
H365 C379 0.931 . S
H366 C381 0.930 . S
C367 H355 0.930 . S
C367 C368 1.399 . S
C367 C372 1.399 . S
C368 C367 1.399 . S
C368 C369 1.376 1_645 S
C369 H356 0.930 . S
C369 C368 1.376 1_465 S
C369 C370 1.388 . S
C370 H357 0.930 . S
C370 C369 1.388 . S
C370 C371 1.390 . S
C371 C370 1.390 . S
C371 C372 1.394 1_465 S
C371 C377 1.465 . S
C372 C367 1.399 . S
C372 C371 1.394 1_645 S
C372 C373 1.516 . S
C373 C372 1.516 . S
C373 C374 1.502 . S
C373 C375 1.561 1_655 S
C373 C376 1.526 . S
C374 H358 0.959 . S
C374 H359 0.959 . S
C374 H360 0.961 . S
C374 C373 1.502 . S
C375 H361 0.960 . S
C375 H362 0.961 . S
C375 H363 0.959 . S
C375 C373 1.561 1_455 S
C376 C373 1.526 . S
C376 C377 1.396 1_645 S
C376 C381 1.390 . S
C377 C371 1.465 . S
C377 C376 1.396 1_465 S
C377 C378 1.399 . S
C378 H364 0.929 . S
C378 C377 1.399 . S
C378 C379 1.385 . S
C379 H365 0.931 . S
C379 C378 1.385 . S
C379 C380 1.389 1_465 S
C380 C379 1.389 1_645 S
C380 C381 1.387 . S
C381 H366 0.930 . S
C381 C376 1.390 . S
C381 C380 1.387 . S
H382 C394 0.930 . S
H383 C396 0.930 . S
H384 C397 0.930 . S
H385 C401 0.959 . S
H386 C401 0.959 . S
H387 C401 0.961 . S
H388 C402 0.960 . S
H389 C402 0.961 . S
H390 C402 0.959 . S
H391 C405 0.929 . S
H392 C406 0.931 . S
H393 C408 0.930 . S
C394 H382 0.930 . S
C394 C395 1.399 . S
C394 C399 1.399 . S
C395 C394 1.399 . S
C395 C396 1.376 . S
C396 H383 0.930 . S
C396 C395 1.376 . S
C396 C397 1.388 . S
C397 H384 0.930 . S
C397 C396 1.388 . S
C397 C398 1.390 . S
C398 C397 1.390 . S
C398 C399 1.394 . S
C398 C404 1.465 . S
C399 C394 1.399 . S
C399 C398 1.394 . S
C399 C400 1.516 . S
C400 C399 1.516 . S
C400 C401 1.502 . S
C400 C402 1.561 . S
C400 C403 1.526 . S
C401 H385 0.959 . S
C401 H386 0.959 . S
C401 H387 0.961 . S
C401 C400 1.502 . S
C402 H388 0.960 . S
C402 H389 0.961 . S
C402 H390 0.959 . S
C402 C400 1.561 . S
C403 C400 1.526 . S
C403 C404 1.396 . S
C403 C408 1.390 . S
C404 C398 1.465 . S
C404 C403 1.396 . S
C404 C405 1.399 . S
C405 H391 0.929 . S
C405 C404 1.399 . S
C405 C406 1.385 . S
C406 H392 0.931 . S
C406 C405 1.385 . S
C406 C407 1.389 . S
C407 C406 1.389 . S
C407 C408 1.387 . S
C408 H393 0.930 . S
C408 C403 1.390 . S
C408 C407 1.387 . S
H409 C421 0.930 . S
H410 C423 0.930 . S
H411 C424 0.930 . S
H412 C428 0.959 . S
H413 C428 0.959 . S
H414 C428 0.961 . S
H415 C429 0.960 . S
H416 C429 0.961 . S
H417 C429 0.959 . S
H418 C432 0.929 . S
H419 C433 0.931 . S
H420 C435 0.930 . S
C421 H409 0.930 . S
C421 C422 1.399 . S
C421 C426 1.399 . S
C422 C421 1.399 . S
C422 C423 1.376 . S
C423 H410 0.930 . S
C423 C422 1.376 . S
C423 C424 1.388 . S
C424 H411 0.930 . S
C424 C423 1.388 . S
C424 C425 1.390 . S
C425 C424 1.390 . S
C425 C426 1.394 . S
C425 C431 1.465 . S
C426 C421 1.399 . S
C426 C425 1.394 . S
C426 C427 1.516 . S
C427 C426 1.516 . S
C427 C428 1.502 . S
C427 C429 1.561 . S
C427 C430 1.526 . S
C428 H412 0.959 . S
C428 H413 0.959 . S
C428 H414 0.961 . S
C428 C427 1.502 . S
C429 H415 0.960 . S
C429 H416 0.961 . S
C429 H417 0.959 . S
C429 C427 1.561 . S
C430 C427 1.526 . S
C430 C431 1.396 . S
C430 C435 1.390 . S
C431 C425 1.465 . S
C431 C430 1.396 . S
C431 C432 1.399 . S
C432 H418 0.929 . S
C432 C431 1.399 . S
C432 C433 1.385 . S
C433 H419 0.931 . S
C433 C432 1.385 . S
C433 C434 1.389 . S
C434 C433 1.389 . S
C434 C435 1.387 . S
C435 H420 0.930 . S
C435 C430 1.390 . S
C435 C434 1.387 . S
C137 C107 1.463 . S
C125 C29 1.477 . S
C152 C8 1.397 . S
C164 N94 1.389 1_554 S
C179 C0 1.408 . S
C191 N105 1.395 . S
C206 C17 1.480 1_556 S
C218 C96 1.438 . S
C233 C63 1.481 . S
C245 C85 1.456 . S
C260 C42 1.387 . S
C272 N72 1.355 . S
C299 N83 1.318 . S
C287 C34 1.402 . S
C326 C74 1.431 . S
C314 C51 1.478 . S
C341 C4 1.505 . S
C353 C77 1.510 . S
C368 C13 1.497 . S
C380 C88 1.486 . S
C407 C99 1.510 . S
C395 C38 1.505 . S
C422 C47 1.496 . S
C434 C110 1.481 . S
