# Generated by pormake.
# Topology rtl, (3,6)-cn, num edge types: 1
# Building blocks:
#     Node 0, Type 0, BuildingBlock: VETTIZ_charged_linker_0, # of connection points: 3
#     Node 1, Type 0, BuildingBlock: VETTIZ_charged_linker_0, # of connection points: 3
#     Node 2, Type 0, BuildingBlock: VETTIZ_charged_linker_0, # of connection points: 3
#     Node 3, Type 0, BuildingBlock: VETTIZ_charged_linker_0, # of connection points: 3
#     Node 4, Type 1, BuildingBlock: KUMBOL_clean_sbu_1, # of connection points: 6
#     Node 5, Type 1, BuildingBlock: KUMBOL_clean_sbu_1, # of connection points: 6
#     Edge 6, Type (0, 1), BuildingBlock: CIFDUS_clean_linker_0, # of connection points: 2
#     Edge 7, Type (0, 1), BuildingBlock: CIFDUS_clean_linker_0, # of connection points: 2
#     Edge 8, Type (0, 1), BuildingBlock: CIFDUS_clean_linker_0, # of connection points: 2
#     Edge 9, Type (0, 1), BuildingBlock: CIFDUS_clean_linker_0, # of connection points: 2
#     Edge 10, Type (0, 1), BuildingBlock: CIFDUS_clean_linker_0, # of connection points: 2
#     Edge 11, Type (0, 1), BuildingBlock: CIFDUS_clean_linker_0, # of connection points: 2
#     Edge 12, Type (0, 1), BuildingBlock: CIFDUS_clean_linker_0, # of connection points: 2
#     Edge 13, Type (0, 1), BuildingBlock: CIFDUS_clean_linker_0, # of connection points: 2
#     Edge 14, Type (0, 1), BuildingBlock: CIFDUS_clean_linker_0, # of connection points: 2
#     Edge 15, Type (0, 1), BuildingBlock: CIFDUS_clean_linker_0, # of connection points: 2
#     Edge 16, Type (0, 1), BuildingBlock: CIFDUS_clean_linker_0, # of connection points: 2
#     Edge 17, Type (0, 1), BuildingBlock: CIFDUS_clean_linker_0, # of connection points: 2
# Relax obj value: 0.018
# Max RMSD: 0.104
# Mean RMSD: 0.061
data_MOF--net-rtl--node1-KUMBOL_clean_sbu_1--node2-VETTIZ_charged_linker_0--edge1-CIFDUS_clean_linker_0
_symmetry_space_group_name_H-M    P1
_symmetry_Int_Tables_number       1
_symmetry_cell_setting            triclinic
loop_
_symmetry_equiv_pos_as_xyz
'x, y, z'
_cell_length_a     35.318062
_cell_length_b     36.065132
_cell_length_c     31.46827
_cell_angle_alpha  78.261822
_cell_angle_beta   98.810526
_cell_angle_gamma 90.84128
loop_
_atom_site_label
_atom_site_type_symbol
_atom_site_fract_x
_atom_site_fract_y
_atom_site_fract_z
_atom_type_partial_charge
C0 C 0.1773 0.92498 0.87386 0.0
C1 C 0.1446 0.94835 0.86764 0.0
C2 C 0.13233 0.95769 0.90491 0.0
C3 C 0.1828 0.9178 0.95298 0.0
C4 C 0.19584 0.91024 0.91637 0.0
C5 C 0.23002 0.88389 0.92793 0.0
H6 H 0.33025 0.74639 0.07419 0.0
C7 C 0.20653 0.89508 0.99235 0.0
C8 C 0.2344 0.87543 0.97772 0.0
H9 H 0.34614 0.79109 0.93944 0.0
H10 H 0.30128 0.84132 0.93504 0.0
H11 H 0.33845 0.82829 0.09779 0.0
H12 H 0.23954 0.76197 0.06768 0.0
H13 H 0.23592 0.77964 0.11535 0.0
H14 H 0.27556 0.74912 0.11532 0.0
H15 H 0.32132 0.79354 0.13951 0.0
H16 H 0.30341 0.84189 0.12591 0.0
C17 C 0.2648 0.90554 0.91081 0.0
C18 C 0.21925 0.84825 0.90851 0.0
C19 C 0.16937 0.88718 0.14427 0.0
C20 C 0.18282 0.86433 0.18562 0.0
C21 C 0.21492 0.8403 0.18986 0.0
C22 C 0.23238 0.83787 0.15341 0.0
C23 C 0.21752 0.85948 0.11199 0.0
C24 C 0.18705 0.88424 0.108 0.0
C25 C 0.17481 0.9044 0.06108 0.0
C26 C 0.20334 0.88809 0.03785 0.0
C27 C 0.22796 0.8614 0.06788 0.0
C28 C 0.18013 0.94743 0.05843 0.0
C29 C 0.13311 0.89299 0.0465 0.0
C30 C 0.32454 0.76698 0.04368 0.0
C31 C 0.34078 0.7631 1.0064 0.0
C32 C 0.33272 0.79161 0.968 0.0
C33 C 0.30685 0.82122 0.9655 0.0
C34 C 0.28889 0.82294 1.0018 0.0
C35 C 0.2994 0.79749 0.04082 0.0
C36 C 0.28068 0.80698 0.07736 0.0
C37 C 0.2554 0.84082 0.05277 0.0
C38 C 0.25958 0.84906 1.00826 0.0
C39 C 0.31241 0.81804 0.11223 0.0
C40 C 0.25671 0.77268 0.09524 0.0
H41 H 0.14033 0.95041 0.97446 0.0
H42 H 0.18758 0.91691 0.84629 0.0
H43 H 0.19103 0.83746 0.91674 0.0
H44 H 0.23978 0.82448 0.92117 0.0
H45 H 0.21715 0.8549 0.87217 0.0
H46 H 0.26012 0.93679 0.9036 0.0
H47 H 0.27059 0.89763 0.88007 0.0
H48 H 0.29113 0.90049 0.93557 0.0
H49 H 0.14455 0.90565 0.13981 0.0
H50 H 0.22617 0.82281 0.22142 0.0
H51 H 0.25619 0.81853 0.15869 0.0
H52 H 0.20683 0.95291 0.0799 0.0
H53 H 0.15576 0.96011 0.06934 0.0
H54 H 0.18342 0.96288 0.02514 0.0
H55 H 0.12851 0.86271 0.06076 0.0
H56 H 0.12581 0.89535 1.01072 0.0
H57 H 0.11223 0.91026 0.05757 0.0
H58 H 0.10779 0.97635 0.90124 0.0
C59 C 0.15131 0.94266 0.94745 0.0
C60 C 0.64308 0.67894 0.76256 0.0
C61 C 0.61519 0.6508 0.76854 0.0
C62 C 0.60083 0.63324 0.73349 0.0
C63 C 0.64091 0.67207 0.68686 0.0
C64 C 0.65527 0.68942 0.72122 0.0
C65 C 0.68305 0.72025 0.70754 0.0
H66 H 0.77377 0.81785 0.54396 0.0
C67 C 0.65777 0.69012 0.64778 0.0
C68 C 0.68231 0.71882 0.65935 0.0
H69 H 0.78652 0.83408 0.67774 0.0
H70 H 0.74079 0.78417 0.69463 0.0
H71 H 0.77441 0.72933 0.56582 0.0
H72 H 0.6854 0.81445 0.53011 0.0
H73 H 0.66658 0.77684 0.50636 0.0
H74 H 0.70929 0.79991 0.48975 0.0
H75 H 0.7627 0.75784 0.51163 0.0
H76 H 0.73955 0.71353 0.52784 0.0
C77 C 0.72283 0.70901 0.735 0.0
C78 C 0.66705 0.75834 0.71313 0.0
C79 C 0.62681 0.64069 0.50556 0.0
C80 C 0.63678 0.65361 0.46349 0.0
C81 C 0.65806 0.68687 0.45532 0.0
C82 C 0.67046 0.7064 0.48877 0.0
C83 C 0.66136 0.69276 0.53101 0.0
C84 C 0.63896 0.66109 0.53866 0.0
C85 C 0.63016 0.65263 0.58505 0.0
C86 C 0.65267 0.68334 0.60429 0.0
C87 C 0.67117 0.70623 0.57252 0.0
C88 C 0.64614 0.61253 0.60751 0.0
C89 C 0.58629 0.65751 0.58315 0.0
C90 C 0.76643 0.81141 0.57682 0.0
C91 C 0.78363 0.83048 0.60926 0.0
C92 C 0.77387 0.81984 0.65198 0.0
C93 C 0.74718 0.79096 0.66168 0.0
C94 C 0.73008 0.77249 0.62835 0.0
C95 C 0.73996 0.78317 0.58681 0.0
C96 C 0.71966 0.76123 0.5549 0.0
C97 C 0.69607 0.73498 0.58394 0.0
C98 C 0.70195 0.7414 0.62709 0.0
C99 C 0.7504 0.73943 0.53876 0.0
C100 C 0.69405 0.78934 0.5181 0.0
H101 H 0.60147 0.62908 0.66759 0.0
H102 H 0.65421 0.69311 0.78897 0.0
H103 H 0.63568 0.76085 0.70123 0.0
H104 H 0.67971 0.78307 0.69382 0.0
H105 H 0.67179 0.76065 0.74821 0.0
H106 H 0.72903 0.67839 0.73766 0.0
H107 H 0.72408 0.71418 0.7688 0.0
H108 H 0.7464 0.72418 0.72005 0.0
H109 H 0.60998 0.61543 0.51241 0.0
H110 H 0.66614 0.69715 0.42317 0.0
H111 H 0.68729 0.73102 0.48047 0.0
H112 H 0.67537 0.60855 0.59989 0.0
H113 H 0.6276 0.59038 0.59576 0.0
H114 H 0.64921 0.60728 0.64366 0.0
H115 H 0.57304 0.67638 0.55203 0.0
H116 H 0.57919 0.67137 0.60933 0.0
H117 H 0.57161 0.62989 0.58532 0.0
H118 H 0.57937 0.61154 0.73756 0.0
C119 C 0.61362 0.64355 0.69288 0.0
C120 C 0.82319 0.10702 0.21975 0.0
C121 C 0.85077 0.07764 0.23128 0.0
C122 C 0.86251 0.06193 0.19769 0.0
C123 C 0.81976 0.10523 0.14245 0.0
C124 C 0.80826 0.12029 0.17555 0.0
C125 C 0.77985 0.15231 0.15832 0.0
H126 H 0.67175 0.2658 0.98731 0.0
C127 C 0.7989 0.1261 0.10001 0.0
C128 C 0.77541 0.15359 0.1094 0.0
H129 H 0.68639 0.27078 0.12523 0.0
H130 H 0.72828 0.21649 0.1427 0.0
H131 H 0.76216 0.25199 0.98732 0.0
H132 H 0.66674 0.1772 0.99849 0.0
H133 H 0.69673 0.15778 0.96876 0.0
H134 H 0.67532 0.20422 0.94645 0.0
H135 H 0.72454 0.24998 0.94254 0.0
H136 H 0.76604 0.21909 0.95395 0.0
C137 C 0.79817 0.18885 0.17071 0.0
C138 C 0.7422 0.14083 0.17686 0.0
C139 C 0.82184 0.09558 0.95423 0.0
C140 C 0.80443 0.10939 0.91061 0.0
C141 C 0.77482 0.13684 0.90219 0.0
C142 C 0.76296 0.15086 0.93635 0.0
C143 C 0.78075 0.13729 0.97967 0.0
C144 C 0.80916 0.10959 0.98832 0.0
C145 C 0.82293 0.09722 0.03697 0.0
C146 C 0.79896 0.12294 0.05563 0.0
C147 C 0.77466 0.1466 0.02167 0.0
C148 C 0.86618 0.10556 0.04587 0.0
C149 C 0.81306 0.05498 0.05106 0.0
C150 C 0.68411 0.25536 0.02127 0.0
C151 C 0.67508 0.27264 0.05487 0.0
C152 C 0.69179 0.25769 0.09864 0.0
C153 C 0.71665 0.22626 0.10879 0.0
C154 C 0.72561 0.2096 0.0749 0.0
C155 C 0.70958 0.2242 0.032 0.0
C156 C 0.72374 0.20361 1.00024 0.0
C157 C 0.751 0.1744 0.03128 0.0
C158 C 0.75168 0.17797 0.07488 0.0
C159 C 0.74507 0.23245 0.96901 0.0
C160 C 0.689 0.18485 0.97687 0.0
H161 H 0.85731 0.06259 0.12932 0.0
H162 H 0.81416 0.12035 0.24452 0.0
H163 H 0.73611 0.11044 0.17703 0.0
H164 H 0.71674 0.15644 0.15691 0.0
H165 H 0.74421 0.14493 0.21117 0.0
H166 H 0.83001 0.18735 0.17481 0.0
H167 H 0.79025 0.19354 0.20206 0.0
H168 H 0.7903 0.21439 0.14478 0.0
H169 H 0.84433 0.07411 0.9616 0.0
H170 H 0.76117 0.14797 0.86884 0.0
H171 H 0.74047 0.1719 0.92758 0.0
H172 H 0.87247 0.13375 0.02645 0.0
H173 H 0.88354 0.08396 0.03644 0.0
H174 H 0.8764 0.10683 0.08045 0.0
H175 H 0.78519 0.04848 0.03248 0.0
H176 H 0.80936 0.04706 0.08594 0.0
H177 H 0.83532 0.03622 0.04473 0.0
H178 H 0.88364 0.03913 0.20571 0.0
C179 C 0.84711 0.07551 0.15338 0.0
C180 C 0.37734 0.35936 0.33556 0.0
C181 C 0.40421 0.38876 0.33281 0.0
C182 C 0.42487 0.39666 0.37185 0.0
C183 C 0.39135 0.34767 0.41528 0.0
C184 C 0.37129 0.33925 0.3772 0.0
C185 C 0.34329 0.3077 0.38697 0.0
H186 H 0.2694 0.17923 0.54227 0.0
C187 C 0.37866 0.32218 0.45315 0.0
C188 C 0.35064 0.29826 0.43701 0.0
H189 H 0.23448 0.19793 0.40185 0.0
H190 H 0.28211 0.24717 0.39136 0.0
H191 H 0.36003 0.18489 0.54146 0.0
H192 H 0.27082 0.26214 0.54736 0.0
H193 H 0.31111 0.27551 0.58027 0.0
H194 H 0.29233 0.22861 0.5948 0.0
H195 H 0.33843 0.18364 0.58974 0.0
H196 H 0.37968 0.21227 0.57934 0.0
C197 C 0.35425 0.27431 0.36707 0.0
C198 C 0.30229 0.32371 0.36892 0.0
C199 C 0.4302 0.33864 0.6084 0.0
C200 C 0.42273 0.31956 0.64992 0.0
C201 C 0.39971 0.28713 0.65259 0.0
C202 C 0.38324 0.27476 0.61477 0.0
C203 C 0.38944 0.29509 0.57348 0.0
C204 C 0.41331 0.32587 0.57074 0.0
C205 C 0.41675 0.34353 0.52384 0.0
C206 C 0.38975 0.3191 0.49909 0.0
C207 C 0.37376 0.29109 0.52843 0.0
C208 C 0.45898 0.33896 0.51729 0.0
C209 C 0.40207 0.38512 0.51465 0.0
C210 C 0.27234 0.19338 0.50912 0.0
C211 C 0.24861 0.18429 0.47286 0.0
C212 C 0.25257 0.20441 0.43036 0.0
C213 C 0.28021 0.2329 0.42438 0.0
C214 C 0.3037 0.24165 0.46135 0.0
C215 C 0.2992 0.2219 0.50274 0.0
C216 C 0.32463 0.23559 0.53875 0.0
C217 C 0.34569 0.26675 0.5125 0.0
C218 C 0.33376 0.2703 0.46707 0.0
C219 C 0.35207 0.2025 0.56406 0.0
C220 C 0.29871 0.25109 0.56713 0.0
H221 H 0.43536 0.38391 0.44113 0.0
H222 H 0.36099 0.35267 0.30612 0.0
H223 H 0.29947 0.35305 0.37425 0.0
H224 H 0.28023 0.30745 0.38572 0.0
H225 H 0.29522 0.32464 0.33307 0.0
H226 H 0.38574 0.26894 0.37442 0.0
H227 H 0.3459 0.28058 0.33081 0.0
H228 H 0.34107 0.24749 0.38072 0.0
H229 H 0.4481 0.36339 0.60522 0.0
H230 H 0.3929 0.27214 0.6839 0.0
H231 H 0.36537 0.25044 0.61923 0.0
H232 H 0.47345 0.31423 0.54098 0.0
H233 H 0.47582 0.36444 0.52207 0.0
H234 H 0.46136 0.33312 0.4846 0.0
H235 H 0.37602 0.38711 0.53003 0.0
H236 H 0.39328 0.39715 0.47942 0.0
H237 H 0.42411 0.40355 0.52839 0.0
H238 H 0.44623 0.41857 0.37066 0.0
C239 C 0.41869 0.37631 0.41285 0.0
C240 C 0.94577 0.12061 0.48935 0.0
C241 C 0.87945 0.10388 0.46965 0.0
C242 C 0.91616 0.09517 0.49432 0.0
C243 C 0.87339 0.13786 0.43833 0.0
C244 C 0.93928 0.15555 0.45935 0.0
C245 C 0.90325 0.16362 0.43317 0.0
N246 N 0.9801 0.11223 0.51575 0.0
C247 C 0.00796 0.13889 0.51626 0.0
C248 C 0.96878 0.18189 0.45765 0.0
C249 C 1.00302 0.17375 0.48673 0.0
Gd250 Gd 0.03934 0.96868 0.52322 0.0
Gd251 Gd 0.98542 0.05222 0.56301 0.0
N252 N 0.92295 0.06237 0.52462 0.0
C253 C 0.84974 0.07855 0.478 0.0
C254 C 0.89366 0.03882 0.53497 0.0
C255 C 0.85677 0.04615 0.51128 0.0
H256 H 0.89888 0.0144 0.56145 0.0
H257 H 0.83377 0.02698 0.51888 0.0
H258 H 0.12222 0.00384 0.49137 0.0
H259 H 0.03399 0.13369 0.53971 0.0
H260 H 0.19138 0.99664 0.51883 0.0
H261 H 0.82112 0.08422 0.45976 0.0
H262 H 0.84549 0.14488 0.41869 0.0
H263 H 0.99835 0.89408 0.57875 0.0
H264 H 0.96492 0.20907 0.4351 0.0
H265 H 0.02549 0.19448 0.48675 0.0
H266 H 0.20036 0.89459 0.64458 0.0
H267 H 0.89787 0.19018 0.40968 0.0
H268 H 0.08447 0.8314 0.67646 0.0
H269 H 0.01669 0.84069 0.64126 0.0
N270 N 0.0546 0.91598 0.5805 0.0
C271 C 0.09223 0.91017 0.5976 0.0
C272 C 0.02776 0.89076 0.59458 0.0
C273 C 0.07647 0.85509 0.64935 0.0
C274 C 0.03817 0.86027 0.62964 0.0
C275 C 0.10416 0.87987 0.63298 0.0
H276 H 0.15298 0.85195 0.67768 0.0
N277 N 0.10626 0.96237 0.54387 0.0
C278 C 0.11881 0.93432 0.57897 0.0
C279 C 0.18447 0.95196 0.57388 0.0
C280 C 0.15823 0.92858 0.5952 0.0
C281 C 0.13188 0.98362 0.52131 0.0
C282 C 0.17125 0.9792 0.53637 0.0
O283 O 0.96079 0.0322 0.50035 0.0
O284 O 0.01608 0.02116 0.47629 0.0
O285 O 0.06616 0.94348 0.47738 0.0
O286 O 1.00555 0.93398 0.48299 0.0
O287 O 0.97231 0.99138 0.59026 0.0
O288 O 0.97741 0.96008 0.53407 0.0
O289 O 0.04279 0.96968 0.59534 0.0
O290 O 0.04455 0.0329 0.5975 0.0
O291 O 0.96386 0.04011 0.62554 0.0
O292 O 0.97923 0.09708 0.59833 0.0
O293 O 0.06206 0.02799 0.50202 0.0
O294 O 0.04556 0.0672 0.54763 0.0
C295 C 0.97966 0.02979 0.46814 0.0
C296 C 0.962 0.96466 0.56828 0.0
C297 C 0.03111 0.90465 0.42987 0.0
C298 C 0.05386 0.8858 0.36754 0.0
C299 C 0.99683 0.85754 0.3944 0.0
C300 C 1.00066 0.87943 0.42654 0.0
C301 C 0.02318 0.86062 0.36514 0.0
C302 C 0.05765 0.90787 0.40012 0.0
C303 C 0.03433 0.92802 0.46369 0.0
C304 C 0.17022 0.89922 0.63144 0.0
C305 C 0.14325 0.8749 0.65028 0.0
H306 H 0.21499 0.9485 0.58533 0.0
C307 C 0.05581 0.99774 0.61382 0.0
C308 C 0.06649 0.05858 0.51938 0.0
C309 C 0.92816 0.08972 0.63969 0.0
C310 C 0.8877 0.0971 0.69403 0.0
C311 C 0.86629 0.12173 0.61618 0.0
C312 C 0.90021 0.10888 0.60617 0.0
C313 C 0.86 0.11593 0.65971 0.0
C314 C 0.92189 0.08399 0.68365 0.0
C315 C 0.96371 0.0754 0.6291 0.0
H316 H 0.97323 0.83821 0.39204 0.0
H317 H 0.97979 0.87655 0.44885 0.0
H318 H 0.01923 0.84365 0.34011 0.0
H319 H 0.08116 0.9274 0.40231 0.0
H320 H 0.84492 0.13655 0.59012 0.0
H321 H 0.90464 0.11417 0.57228 0.0
H322 H 0.83372 0.12697 0.66657 0.0
H323 H 0.94344 0.06919 0.70959 0.0
C324 C 0.63146 0.55697 0.07487 0.0
C325 C 0.62836 0.62561 0.05948 0.0
C326 C 0.61096 0.59032 0.07136 0.0
C327 C 0.66615 0.62683 0.05043 0.0
C328 C 0.66959 0.55806 0.06645 0.0
C329 C 0.68672 0.59315 0.05397 0.0
N330 N 0.61381 0.52341 0.08573 0.0
C331 C 0.6332 0.48992 0.09113 0.0
C332 C 0.68931 0.52379 0.07065 0.0
C333 C 0.6711 0.48958 0.08336 0.0
Gd334 Gd 0.47136 0.5005 1.00151 0.0
Gd335 Gd 0.5505 0.52667 0.09861 0.0
N336 N 0.57434 0.58826 0.08023 0.0
C337 C 0.60745 0.65869 0.05765 0.0
C338 C 0.55473 0.62041 0.08084 0.0
C339 C 0.57065 0.65603 0.06888 0.0
H340 H 0.52726 0.61895 0.09162 0.0
H341 H 0.55471 0.68142 0.06894 0.0
H342 H 0.49033 0.40903 1.01026 0.0
H343 H 0.61979 0.4634 0.1022 0.0
H344 H 0.46099 0.34714 0.03451 0.0
H345 H 0.61978 0.68633 0.04865 0.0
H346 H 0.67986 0.6537 0.04107 0.0
H347 H 0.40051 0.56603 0.98924 0.0
H348 H 0.71866 0.52343 0.06454 0.0
H349 H 0.68631 0.46295 0.08743 0.0
H350 H 0.34066 0.3799 0.07199 0.0
H351 H 0.71592 0.59455 0.04715 0.0
H352 H 0.3057 0.5115 0.04367 0.0
H353 H 0.33663 0.5698 1.01 0.0
N354 N 0.40849 0.50723 0.01628 0.0
C355 C 0.39088 0.47454 0.03193 0.0
C356 C 0.38868 0.54085 1.00652 0.0
C357 C 0.33443 0.5099 0.03597 0.0
C358 C 0.35185 0.54288 0.01715 0.0
C359 C 0.35352 0.47502 0.04253 0.0
H360 H 0.3074 0.44058 0.06651 0.0
N361 N 0.44513 0.44085 0.02378 0.0
C362 C 0.40944 0.44028 0.03501 0.0
C363 C 0.41059 0.37189 0.04926 0.0
C364 C 0.39145 0.40574 0.04879 0.0
C365 C 0.46311 0.4081 0.022 0.0
C366 C 0.44638 0.37311 0.03527 0.0
O367 O 0.56574 0.53243 0.02998 0.0
O368 O 0.50841 0.55163 0.98724 0.0
O369 O 0.48465 0.4806 0.94451 0.0
O370 O 0.43236 0.51235 0.93991 0.0
O371 O 0.49517 0.56116 0.0833 0.0
O372 O 0.46858 0.5615 1.01076 0.0
O373 O 0.47504 0.46695 0.07107 0.0
O374 O 0.48943 0.51391 0.10863 0.0
O375 O 0.56635 0.54881 0.15796 0.0
O376 O 0.56994 0.48841 0.16069 0.0
O377 O 0.52954 0.47095 0.01518 0.0
O378 O 0.54852 0.46609 0.09001 0.0
C379 C 0.54597 0.55092 0.99318 0.0
C380 C 0.47278 0.57629 0.0464 0.0
C381 C 0.42988 0.4628 0.90099 0.0
C382 C 0.42155 0.42277 0.84668 0.0
C383 C 0.37989 0.41572 0.90231 0.0
C384 C 0.39877 0.44494 0.91932 0.0
C385 C 0.39134 0.40446 0.86636 0.0
C386 C 0.44084 0.45198 0.86412 0.0
C387 C 0.45165 0.49168 0.92103 0.0
C388 C 0.35486 0.40614 0.06094 0.0
C389 C 0.33597 0.44071 0.05791 0.0
H390 H 0.39769 0.34474 0.05952 0.0
C391 C 0.47389 0.48122 0.10585 0.0
C392 C 0.54741 0.45309 0.05363 0.0
C393 C 0.6106 0.51352 0.21516 0.0
C394 C 0.6412 0.52661 0.28548 0.0
C395 C 0.67675 0.49426 0.24291 0.0
C396 C 0.64466 0.49634 0.21043 0.0
C397 C 0.67511 0.50922 0.28026 0.0
C398 C 0.60905 0.52855 0.25262 0.0
C399 C 0.57584 0.51566 0.18239 0.0
H400 H 0.35618 0.40193 0.91689 0.0
H401 H 0.38896 0.45354 0.94673 0.0
H402 H 0.37603 0.38201 0.8532 0.0
H403 H 0.46447 0.46591 0.84937 0.0
H404 H 0.70302 0.48105 0.23912 0.0
H405 H 0.64643 0.48437 0.18196 0.0
H406 H 0.70054 0.50771 0.30469 0.0
H407 H 0.58249 0.54135 0.25641 0.0
H408 H 0.17267 0.18744 0.43782 0.0
H409 H 0.259 0.1148 0.5266 0.0
H410 H 0.21009 0.06996 0.54968 0.0
H411 H 0.14225 0.05345 0.54852 0.0
H412 H 0.05596 0.12286 0.45656 0.0
H413 H 0.10493 0.16758 0.43168 0.0
C414 C 0.18078 0.16143 0.46153 0.0
C415 C 0.21936 0.15465 0.48077 0.0
C416 C 0.15238 0.13574 0.47489 0.0
C417 C 0.22942 0.12091 0.51174 0.0
C418 C 0.20149 0.0953 0.52506 0.0
C419 C 0.13442 0.07814 0.52265 0.0
C420 C 0.09582 0.0854 0.50472 0.0
C421 C 0.16283 0.1028 0.50759 0.0
C422 C 0.0856 0.11747 0.47148 0.0
C423 C 0.1136 0.14271 0.45696 0.0
H424 H 0.38745 0.71927 0.07619 0.0
H425 H 0.34829 0.72928 0.93709 0.0
H426 H 0.38795 0.67517 0.9366 0.0
H427 H 0.43293 0.62398 0.97544 0.0
H428 H 0.46299 0.60734 0.1164 0.0
H429 H 0.42753 0.66477 0.1161 0.0
C430 C 0.38685 0.7095 0.04576 0.0
C431 C 0.365 0.7293 1.00667 0.0
C432 C 0.40825 0.67691 0.04591 0.0
C433 C 0.36562 0.71593 0.96762 0.0
C434 C 0.38801 0.68447 0.96728 0.0
C435 C 0.43131 0.63251 1.00624 0.0
C436 C 0.45069 0.61115 0.04581 0.0
C437 C 0.40935 0.66466 1.00623 0.0
C438 C 0.44867 0.62324 0.08525 0.0
C439 C 0.42823 0.65607 0.08522 0.0
H440 H 0.85057 0.84636 0.65912 0.0
H441 H 0.78019 0.88324 0.53284 0.0
H442 H 0.82996 0.92588 0.50828 0.0
H443 H 0.89473 0.95123 0.52115 0.0
H444 H 0.96246 0.92084 0.64938 0.0
H445 H 0.91274 0.87726 0.67473 0.0
C446 C 0.84579 0.86419 0.62654 0.0
C447 C 0.81193 0.86062 0.5976 0.0
C448 C 0.87435 0.88954 0.61272 0.0
C449 C 0.80639 0.88425 0.55547 0.0
C450 C 0.83481 0.90887 0.54132 0.0
C451 C 0.89848 0.93488 0.55456 0.0
C452 C 0.93217 0.93849 0.58325 0.0
C453 C 0.8692 0.9112 0.56929 0.0
C454 C 0.93664 0.91809 0.62679 0.0
C455 C 0.90824 0.89332 0.64124 0.0
H456 H 0.62319 0.29065 0.10348 0.0
H457 H 0.66926 0.33182 0.98343 0.0
H458 H 0.63081 0.38988 0.97016 0.0
H459 H 0.58782 0.43132 0.99576 0.0
H460 H 0.54773 0.39211 0.11964 0.0
H461 H 0.58072 0.3313 0.12878 0.0
C462 C 0.62522 0.31239 0.07457 0.0
C463 C 0.64948 0.3068 0.04479 0.0
C464 C 0.60428 0.34631 0.06802 0.0
C465 C 0.65062 0.33498 1.0068 0.0
C466 C 0.62888 0.36844 0.99935 0.0
C467 C 0.58614 0.40922 0.02446 0.0
C468 C 0.56565 0.41598 0.05709 0.0
C469 C 0.60613 0.3747 0.03013 0.0
C470 C 0.56376 0.38748 0.09438 0.0
C471 C 0.58249 0.35275 0.09955 0.0
H472 H 0.15506 0.92364 0.2149 0.0
H473 H 0.16282 0.80159 0.24083 0.0
H474 H 0.12578 0.79768 0.30079 0.0
H475 H 0.0887 0.82845 0.34386 0.0
H476 H 0.08014 0.95028 0.3191 0.0
H477 H 0.12026 0.95483 0.26122 0.0
C478 C 0.14864 0.89625 0.23377 0.0
C479 C 0.16174 0.86296 0.22337 0.0
C480 C 0.12721 0.89416 0.26846 0.0
C481 C 0.15352 0.82766 0.24842 0.0
C482 C 0.13214 0.82536 0.2826 0.0
C483 C 0.09569 0.85601 0.32582 0.0
C484 C 0.0812 0.88895 0.33547 0.0
C485 C 0.11852 0.85836 0.29262 0.0
C486 C 0.09107 0.92449 0.31241 0.0
C487 C 0.11379 0.92709 0.27912 0.0
H488 H 0.65086 0.61342 0.84852 0.0
H489 H 0.54276 0.66338 0.78025 0.0
H490 H 0.51219 0.63874 0.84474 0.0
H491 H 0.51507 0.59932 0.9183 0.0
H492 H 0.62206 0.54566 0.9857 0.0
H493 H 0.65425 0.57563 0.92442 0.0
C494 C 0.62082 0.61942 0.84832 0.0
C495 C 0.59903 0.64036 0.81001 0.0
C496 C 0.60319 0.60424 0.88524 0.0
C497 C 0.56 0.6475 0.80959 0.0
C498 C 0.54252 0.63326 0.84633 0.0
C499 C 0.54548 0.59424 0.91978 0.0
C500 C 0.56608 0.57033 0.95683 0.0
C501 C 0.56362 0.61093 0.88398 0.0
C502 C 0.60552 0.5643 0.95801 0.0
C503 C 0.62395 0.58126 0.92275 0.0
H504 H 0.92607 0.06328 0.26332 0.0
H505 H 0.81509 0.06477 0.30423 0.0
H506 H 0.84488 0.04985 0.3813 0.0
H507 H 0.90285 0.03731 0.43709 0.0
H508 H 0.0136 0.03719 0.39507 0.0
H509 H 0.98342 0.04954 0.31867 0.0
C510 C 0.90832 0.05968 0.28906 0.0
C511 C 0.86845 0.06513 0.27798 0.0
C512 C 0.92561 0.05135 0.33322 0.0
C513 C 0.84593 0.06105 0.31185 0.0
C514 C 0.86292 0.05244 0.35593 0.0
C515 C 0.92035 0.04045 0.41122 0.0
C516 C 0.96043 0.0369 0.42195 0.0
C517 C 0.90281 0.04792 0.36703 0.0
C518 C 0.98266 0.03997 0.38793 0.0
C519 C 0.96545 0.04707 0.34409 0.0
H520 H 0.42279 0.39336 0.65796 0.0
H521 H 0.4504 0.28014 0.73243 0.0
H522 H 0.45661 0.30324 0.80079 0.0
H523 H 0.44514 0.35391 0.83928 0.0
H524 H 0.41876 0.46718 0.7654 0.0
H525 H 0.42203 0.44602 0.69676 0.0
C526 C 0.43134 0.3739 0.68903 0.0
C527 C 0.43526 0.33492 0.69009 0.0
C528 C 0.43472 0.38736 0.72829 0.0
C529 C 0.44623 0.31013 0.73075 0.0
C530 C 0.44985 0.32331 0.76986 0.0
C531 C 0.44098 0.37399 0.80813 0.0
C532 C 0.43138 0.41183 0.80698 0.0
C533 C 0.44266 0.36155 0.76904 0.0
C534 C 0.42624 0.43789 0.76676 0.0
C535 C 0.42786 0.42574 0.72762 0.0
H536 H 0.65619 0.5808 0.4662 0.0
H537 H 0.59806 0.67899 0.38143 0.0
H538 H 0.59225 0.64729 0.31902 0.0
H539 H 0.60915 0.59417 0.28744 0.0
H540 H 0.66949 0.49661 0.3714 0.0
H541 H 0.66948 0.52564 0.43519 0.0
C542 C 0.64149 0.59476 0.43422 0.0
C543 C 0.62739 0.63197 0.42822 0.0
C544 C 0.63938 0.5768 0.39827 0.0
C545 C 0.60901 0.65025 0.38661 0.0
C546 C 0.6059 0.63224 0.35097 0.0
C547 C 0.62176 0.57897 0.31979 0.0
C548 C 0.63948 0.54336 0.32459 0.0
C549 C 0.62183 0.5959 0.3562 0.0
C550 C 0.65619 0.52432 0.3667 0.0
C551 C 0.65597 0.54078 0.40322 0.0
H552 H 0.87621 0.11014 0.88882 0.0
H553 H 0.75961 0.08044 0.84776 0.0
H554 H 0.77635 0.06971 0.77868 0.0
H555 H 0.82213 0.07574 0.72678 0.0
H556 H 0.93812 0.10876 0.76534 0.0
H557 H 0.92403 0.11035 0.83874 0.0
C558 C 0.85481 0.10046 0.86508 0.0
C559 C 0.81671 0.09627 0.87309 0.0
C560 C 0.86446 0.0953 0.82483 0.0
C561 C 0.78905 0.08406 0.84204 0.0
C562 C 0.79858 0.07804 0.80254 0.0
C563 C 0.84441 0.08309 0.75133 0.0
C564 C 0.88095 0.09267 0.74035 0.0
C565 C 0.83585 0.08478 0.793 0.0
C566 C 0.90975 0.10122 0.77289 0.0
C567 C 0.90162 0.10241 0.81479 0.0
H568 H 0.41592 0.3636 0.25951 0.0
H569 H 0.40909 0.46535 0.31028 0.0
H570 H 0.42903 0.50303 0.24412 0.0
H571 H 0.45207 0.5068 0.17384 0.0
H572 H 0.45983 0.40533 0.1228 0.0
H573 H 0.43538 0.36804 0.18644 0.0
C574 C 0.41816 0.39408 0.25566 0.0
C575 C 0.41142 0.41158 0.28995 0.0
C576 C 0.43002 0.41566 0.21755 0.0
C577 C 0.41469 0.45112 0.28464 0.0
C578 C 0.42606 0.47272 0.24681 0.0
C579 C 0.44833 0.47653 0.1766 0.0
C580 C 0.45776 0.45891 0.14363 0.0
C581 C 0.43456 0.45522 0.21346 0.0
C582 C 0.45244 0.41971 0.1475 0.0
C583 C 0.43863 0.39829 0.18404 0.0
H584 H 0.17223 0.96861 0.78967 0.0
H585 H 0.0666 0.95531 0.8442 0.0
H586 H 0.02992 0.96993 0.77046 0.0
H587 H 0.02763 0.98361 0.69 0.0
H588 H 0.13287 0.99419 0.6356 0.0
H589 H 0.17007 0.98191 0.70974 0.0
C590 C 0.14119 0.96855 0.78558 0.0
C591 C 0.12236 0.96068 0.82275 0.0
C592 C 0.12021 0.97581 0.74302 0.0
C593 C 0.08203 0.96179 0.81648 0.0
C594 C 0.06095 0.9697 0.77422 0.0
C595 C 0.05873 0.98305 0.69472 0.0
C596 C 0.07782 0.98931 0.65805 0.0
C597 C 0.07971 0.97626 0.73729 0.0
C598 C 0.11792 0.98897 0.6638 0.0
C599 C 0.13905 0.98219 0.70603 0.0
loop_
_geom_bond_atom_site_label_1
_geom_bond_atom_site_label_2
_geom_bond_distance
_geom_bond_site_symmetry_2
_ccdc_geom_bond_type
C0 C1 1.391 . S
C0 C4 1.391 . S
C0 H42 0.948 . S
C1 C0 1.391 . S
C1 C2 1.391 . S
C2 C1 1.391 . S
C2 H58 0.947 . S
C2 C59 1.392 . S
C3 C4 1.391 . S
C3 C7 1.397 . S
C3 C59 1.419 . S
C4 C0 1.391 . S
C4 C3 1.391 . S
C4 C5 1.399 . S
C5 C4 1.399 . S
C5 C8 1.396 . S
C5 C17 1.453 . S
C5 C18 1.684 . S
H6 C30 0.948 . S
C7 C3 1.397 . S
C7 C8 1.394 . S
C7 C26 1.723 1_556 S
C8 C5 1.396 . S
C8 C7 1.394 . S
C8 C38 1.723 1_556 S
H9 C32 0.947 . S
H10 C33 0.948 . S
H11 C39 0.982 . S
H12 C40 0.979 . S
H13 C40 0.980 . S
H14 C40 0.983 . S
H15 C39 0.979 . S
H16 C39 0.977 . S
C17 C5 1.453 . S
C17 H46 0.982 . S
C17 H47 0.979 . S
C17 H48 0.977 . S
C18 C5 1.684 . S
C18 H43 0.979 . S
C18 H44 0.980 . S
C18 H45 0.983 . S
C19 C20 1.391 . S
C19 C24 1.391 . S
C19 H49 0.948 . S
C20 C19 1.391 . S
C20 C21 1.391 . S
C21 C20 1.391 . S
C21 C22 1.392 . S
C21 H50 0.947 . S
C22 C21 1.392 . S
C22 C23 1.419 . S
C22 H51 0.948 . S
C23 C22 1.419 . S
C23 C24 1.391 . S
C23 C27 1.397 . S
C24 C19 1.391 . S
C24 C23 1.391 . S
C24 C25 1.399 . S
C25 C24 1.399 . S
C25 C26 1.396 . S
C25 C28 1.453 . S
C25 C29 1.684 . S
C26 C7 1.723 1_554 S
C26 C25 1.396 . S
C26 C27 1.394 . S
C27 C23 1.397 . S
C27 C26 1.394 . S
C27 C37 1.723 . S
C28 C25 1.453 . S
C28 H52 0.982 . S
C28 H53 0.979 . S
C28 H54 0.977 1_554 S
C29 C25 1.684 . S
C29 H55 0.979 . S
C29 H56 0.980 1_554 S
C29 H57 0.983 . S
C30 H6 0.948 . S
C30 C31 1.391 . S
C30 C35 1.391 . S
C31 C30 1.391 . S
C31 C32 1.391 1_554 S
C32 H9 0.947 . S
C32 C31 1.391 1_556 S
C32 C33 1.392 . S
C33 H10 0.948 . S
C33 C32 1.392 . S
C33 C34 1.419 1_556 S
C34 C33 1.419 1_554 S
C34 C35 1.391 . S
C34 C38 1.397 . S
C35 C30 1.391 . S
C35 C34 1.391 . S
C35 C36 1.399 . S
C36 C35 1.399 . S
C36 C37 1.396 . S
C36 C39 1.453 . S
C36 C40 1.684 . S
C37 C27 1.723 . S
C37 C36 1.396 . S
C37 C38 1.394 . S
C38 C8 1.723 1_554 S
C38 C34 1.397 . S
C38 C37 1.394 . S
C39 H11 0.982 . S
C39 H15 0.979 . S
C39 H16 0.977 . S
C39 C36 1.453 . S
C40 H12 0.979 . S
C40 H13 0.980 . S
C40 H14 0.983 . S
C40 C36 1.684 . S
H41 C59 0.948 . S
H42 C0 0.948 . S
H43 C18 0.979 . S
H44 C18 0.980 . S
H45 C18 0.983 . S
H46 C17 0.982 . S
H47 C17 0.979 . S
H48 C17 0.977 . S
H49 C19 0.948 . S
H50 C21 0.947 . S
H51 C22 0.948 . S
H52 C28 0.982 . S
H53 C28 0.979 . S
H54 C28 0.977 1_556 S
H55 C29 0.979 . S
H56 C29 0.980 1_556 S
H57 C29 0.983 . S
H58 C2 0.947 . S
C59 C2 1.392 . S
C59 C3 1.419 . S
C59 H41 0.948 . S
C60 C61 1.391 . S
C60 C64 1.391 . S
C60 H102 0.948 . S
C61 C60 1.391 . S
C61 C62 1.391 . S
C62 C61 1.391 . S
C62 H118 0.947 . S
C62 C119 1.392 . S
C63 C64 1.391 . S
C63 C67 1.397 . S
C63 C119 1.419 . S
C64 C60 1.391 . S
C64 C63 1.391 . S
C64 C65 1.399 . S
C65 C64 1.399 . S
C65 C68 1.396 . S
C65 C77 1.453 . S
C65 C78 1.684 . S
H66 C90 0.948 . S
C67 C63 1.397 . S
C67 C68 1.394 . S
C67 C86 1.723 . S
C68 C65 1.396 . S
C68 C67 1.394 . S
C68 C98 1.723 . S
H69 C92 0.947 . S
H70 C93 0.948 . S
H71 C99 0.982 . S
H72 C100 0.979 . S
H73 C100 0.980 . S
H74 C100 0.983 . S
H75 C99 0.979 . S
H76 C99 0.977 . S
C77 C65 1.453 . S
C77 H106 0.982 . S
C77 H107 0.979 . S
C77 H108 0.977 . S
C78 C65 1.684 . S
C78 H103 0.979 . S
C78 H104 0.980 . S
C78 H105 0.983 . S
C79 C80 1.391 . S
C79 C84 1.391 . S
C79 H109 0.948 . S
C80 C79 1.391 . S
C80 C81 1.391 . S
C81 C80 1.391 . S
C81 C82 1.392 . S
C81 H110 0.947 . S
C82 C81 1.392 . S
C82 C83 1.419 . S
C82 H111 0.948 . S
C83 C82 1.419 . S
C83 C84 1.391 . S
C83 C87 1.397 . S
C84 C79 1.391 . S
C84 C83 1.391 . S
C84 C85 1.399 . S
C85 C84 1.399 . S
C85 C86 1.396 . S
C85 C88 1.453 . S
C85 C89 1.684 . S
C86 C67 1.723 . S
C86 C85 1.396 . S
C86 C87 1.394 . S
C87 C83 1.397 . S
C87 C86 1.394 . S
C87 C97 1.723 . S
C88 C85 1.453 . S
C88 H112 0.982 . S
C88 H113 0.979 . S
C88 H114 0.977 . S
C89 C85 1.684 . S
C89 H115 0.979 . S
C89 H116 0.980 . S
C89 H117 0.983 . S
C90 H66 0.948 . S
C90 C91 1.391 . S
C90 C95 1.391 . S
C91 C90 1.391 . S
C91 C92 1.391 . S
C92 H69 0.947 . S
C92 C91 1.391 . S
C92 C93 1.392 . S
C93 H70 0.948 . S
C93 C92 1.392 . S
C93 C94 1.419 . S
C94 C93 1.419 . S
C94 C95 1.391 . S
C94 C98 1.397 . S
C95 C90 1.391 . S
C95 C94 1.391 . S
C95 C96 1.399 . S
C96 C95 1.399 . S
C96 C97 1.396 . S
C96 C99 1.453 . S
C96 C100 1.684 . S
C97 C87 1.723 . S
C97 C96 1.396 . S
C97 C98 1.394 . S
C98 C68 1.723 . S
C98 C94 1.397 . S
C98 C97 1.394 . S
C99 H71 0.982 . S
C99 H75 0.979 . S
C99 H76 0.977 . S
C99 C96 1.453 . S
C100 H72 0.979 . S
C100 H73 0.980 . S
C100 H74 0.983 . S
C100 C96 1.684 . S
H101 C119 0.948 . S
H102 C60 0.948 . S
H103 C78 0.979 . S
H104 C78 0.980 . S
H105 C78 0.983 . S
H106 C77 0.982 . S
H107 C77 0.979 . S
H108 C77 0.977 . S
H109 C79 0.948 . S
H110 C81 0.947 . S
H111 C82 0.948 . S
H112 C88 0.982 . S
H113 C88 0.979 . S
H114 C88 0.977 . S
H115 C89 0.979 . S
H116 C89 0.980 . S
H117 C89 0.983 . S
H118 C62 0.947 . S
C119 C62 1.392 . S
C119 C63 1.419 . S
C119 H101 0.948 . S
C120 C121 1.391 . S
C120 C124 1.391 . S
C120 H162 0.948 . S
C121 C120 1.391 . S
C121 C122 1.391 . S
C122 C121 1.391 . S
C122 H178 0.947 . S
C122 C179 1.392 . S
C123 C124 1.391 . S
C123 C127 1.397 . S
C123 C179 1.419 . S
C124 C120 1.391 . S
C124 C123 1.391 . S
C124 C125 1.399 . S
C125 C124 1.399 . S
C125 C128 1.396 . S
C125 C137 1.453 . S
C125 C138 1.684 . S
H126 C150 0.948 1_556 S
C127 C123 1.397 . S
C127 C128 1.394 . S
C127 C146 1.723 . S
C128 C125 1.396 . S
C128 C127 1.394 . S
C128 C158 1.723 . S
H129 C152 0.947 . S
H130 C153 0.948 . S
H131 C159 0.982 . S
H132 C160 0.979 . S
H133 C160 0.980 . S
H134 C160 0.983 . S
H135 C159 0.979 . S
H136 C159 0.977 . S
C137 C125 1.453 . S
C137 H166 0.982 . S
C137 H167 0.979 . S
C137 H168 0.977 . S
C138 C125 1.684 . S
C138 H163 0.979 . S
C138 H164 0.980 . S
C138 H165 0.983 . S
C139 C140 1.391 . S
C139 C144 1.391 . S
C139 H169 0.948 . S
C140 C139 1.391 . S
C140 C141 1.391 . S
C141 C140 1.391 . S
C141 C142 1.392 . S
C141 H170 0.947 . S
C142 C141 1.392 . S
C142 C143 1.419 . S
C142 H171 0.948 . S
C143 C142 1.419 . S
C143 C144 1.391 . S
C143 C147 1.397 1_556 S
C144 C139 1.391 . S
C144 C143 1.391 . S
C144 C145 1.399 1_556 S
C145 C144 1.399 1_554 S
C145 C146 1.396 . S
C145 C148 1.453 . S
C145 C149 1.684 . S
C146 C127 1.723 . S
C146 C145 1.396 . S
C146 C147 1.394 . S
C147 C143 1.397 1_554 S
C147 C146 1.394 . S
C147 C157 1.723 . S
C148 C145 1.453 . S
C148 H172 0.982 . S
C148 H173 0.979 . S
C148 H174 0.977 . S
C149 C145 1.684 . S
C149 H175 0.979 . S
C149 H176 0.980 . S
C149 H177 0.983 . S
C150 H126 0.948 1_554 S
C150 C151 1.391 . S
C150 C155 1.391 . S
C151 C150 1.391 . S
C151 C152 1.391 . S
C152 H129 0.947 . S
C152 C151 1.391 . S
C152 C153 1.392 . S
C153 H130 0.948 . S
C153 C152 1.392 . S
C153 C154 1.419 . S
C154 C153 1.419 . S
C154 C155 1.391 . S
C154 C158 1.397 . S
C155 C150 1.391 . S
C155 C154 1.391 . S
C155 C156 1.399 1_554 S
C156 C155 1.399 1_556 S
C156 C157 1.396 1_556 S
C156 C159 1.453 . S
C156 C160 1.684 . S
C157 C147 1.723 . S
C157 C156 1.396 1_554 S
C157 C158 1.394 . S
C158 C128 1.723 . S
C158 C154 1.397 . S
C158 C157 1.394 . S
C159 H131 0.982 . S
C159 H135 0.979 . S
C159 H136 0.977 . S
C159 C156 1.453 . S
C160 H132 0.979 . S
C160 H133 0.980 . S
C160 H134 0.983 . S
C160 C156 1.684 . S
H161 C179 0.948 . S
H162 C120 0.948 . S
H163 C138 0.979 . S
H164 C138 0.980 . S
H165 C138 0.983 . S
H166 C137 0.982 . S
H167 C137 0.979 . S
H168 C137 0.977 . S
H169 C139 0.948 . S
H170 C141 0.947 . S
H171 C142 0.948 . S
H172 C148 0.982 . S
H173 C148 0.979 . S
H174 C148 0.977 . S
H175 C149 0.979 . S
H176 C149 0.980 . S
H177 C149 0.983 . S
H178 C122 0.947 . S
C179 C122 1.392 . S
C179 C123 1.419 . S
C179 H161 0.948 . S
C180 C181 1.391 . S
C180 C184 1.391 . S
C180 H222 0.948 . S
C181 C180 1.391 . S
C181 C182 1.391 . S
C182 C181 1.391 . S
C182 H238 0.947 . S
C182 C239 1.392 . S
C183 C184 1.391 . S
C183 C187 1.397 . S
C183 C239 1.419 . S
C184 C180 1.391 . S
C184 C183 1.391 . S
C184 C185 1.399 . S
C185 C184 1.399 . S
C185 C188 1.396 . S
C185 C197 1.453 . S
C185 C198 1.684 . S
H186 C210 0.948 . S
C187 C183 1.397 . S
C187 C188 1.394 . S
C187 C206 1.723 . S
C188 C185 1.396 . S
C188 C187 1.394 . S
C188 C218 1.723 . S
H189 C212 0.947 . S
H190 C213 0.948 . S
H191 C219 0.982 . S
H192 C220 0.979 . S
H193 C220 0.980 . S
H194 C220 0.983 . S
H195 C219 0.979 . S
H196 C219 0.977 . S
C197 C185 1.453 . S
C197 H226 0.982 . S
C197 H227 0.979 . S
C197 H228 0.977 . S
C198 C185 1.684 . S
C198 H223 0.979 . S
C198 H224 0.980 . S
C198 H225 0.983 . S
C199 C200 1.391 . S
C199 C204 1.391 . S
C199 H229 0.948 . S
C200 C199 1.391 . S
C200 C201 1.391 . S
C201 C200 1.391 . S
C201 C202 1.392 . S
C201 H230 0.947 . S
C202 C201 1.392 . S
C202 C203 1.419 . S
C202 H231 0.948 . S
C203 C202 1.419 . S
C203 C204 1.391 . S
C203 C207 1.397 . S
C204 C199 1.391 . S
C204 C203 1.391 . S
C204 C205 1.399 . S
C205 C204 1.399 . S
C205 C206 1.396 . S
C205 C208 1.453 . S
C205 C209 1.684 . S
C206 C187 1.723 . S
C206 C205 1.396 . S
C206 C207 1.394 . S
C207 C203 1.397 . S
C207 C206 1.394 . S
C207 C217 1.723 . S
C208 C205 1.453 . S
C208 H232 0.982 . S
C208 H233 0.979 . S
C208 H234 0.977 . S
C209 C205 1.684 . S
C209 H235 0.979 . S
C209 H236 0.980 . S
C209 H237 0.983 . S
C210 H186 0.948 . S
C210 C211 1.391 . S
C210 C215 1.391 . S
C211 C210 1.391 . S
C211 C212 1.391 . S
C212 H189 0.947 . S
C212 C211 1.391 . S
C212 C213 1.392 . S
C213 H190 0.948 . S
C213 C212 1.392 . S
C213 C214 1.419 . S
C214 C213 1.419 . S
C214 C215 1.391 . S
C214 C218 1.397 . S
C215 C210 1.391 . S
C215 C214 1.391 . S
C215 C216 1.399 . S
C216 C215 1.399 . S
C216 C217 1.396 . S
C216 C219 1.453 . S
C216 C220 1.684 . S
C217 C207 1.723 . S
C217 C216 1.396 . S
C217 C218 1.394 . S
C218 C188 1.723 . S
C218 C214 1.397 . S
C218 C217 1.394 . S
C219 H191 0.982 . S
C219 H195 0.979 . S
C219 H196 0.977 . S
C219 C216 1.453 . S
C220 H192 0.979 . S
C220 H193 0.980 . S
C220 H194 0.983 . S
C220 C216 1.684 . S
H221 C239 0.948 . S
H222 C180 0.948 . S
H223 C198 0.979 . S
H224 C198 0.980 . S
H225 C198 0.983 . S
H226 C197 0.982 . S
H227 C197 0.979 . S
H228 C197 0.977 . S
H229 C199 0.948 . S
H230 C201 0.947 . S
H231 C202 0.948 . S
H232 C208 0.982 . S
H233 C208 0.979 . S
H234 C208 0.977 . S
H235 C209 0.979 . S
H236 C209 0.980 . S
H237 C209 0.983 . S
H238 C182 0.947 . S
C239 C182 1.392 . S
C239 C183 1.419 . S
C239 H221 0.948 . S
C240 C242 1.422 . S
C240 C244 1.415 . S
C240 N246 1.369 . S
C241 C242 1.421 . S
C241 C243 1.417 . S
C241 C253 1.422 . S
C242 C240 1.422 . S
C242 C241 1.421 . S
C242 N252 1.359 . S
C243 C241 1.417 . S
C243 C245 1.329 . S
C243 H262 0.930 . S
C244 C240 1.415 . S
C244 C245 1.437 . S
C244 C248 1.413 . S
C245 C243 1.329 . S
C245 C244 1.437 . S
C245 H267 0.929 . S
N246 C240 1.369 . S
N246 C247 1.339 . S
N246 Gd251 2.622 . S
C247 N246 1.339 . S
C247 C249 1.378 . S
C247 H259 0.928 1_655 S
C248 C244 1.413 . S
C248 C249 1.348 . S
C248 H264 0.931 . S
C249 C247 1.378 . S
C249 C248 1.348 . S
C249 H265 0.930 1_655 S
Gd250 N270 2.622 . S
Gd250 N277 2.570 . S
Gd250 O284 2.355 1_455 S
Gd250 O285 2.468 . S
Gd250 O286 2.427 . S
Gd250 O288 2.388 1_455 S
Gd250 O289 2.386 . S
Gd250 O293 2.307 1_565 S
Gd250 C303 2.805 . S
Gd251 N246 2.622 . S
Gd251 N252 2.570 . S
Gd251 O283 2.386 . S
Gd251 O287 2.307 1_545 S
Gd251 O290 2.353 1_655 S
Gd251 O291 2.468 . S
Gd251 O292 2.427 . S
Gd251 O294 2.388 1_655 S
Gd251 C315 2.805 . S
N252 C242 1.359 . S
N252 Gd251 2.570 . S
N252 C254 1.343 . S
C253 C241 1.422 . S
C253 C255 1.321 . S
C253 H261 0.931 . S
C254 N252 1.343 . S
C254 C255 1.390 . S
C254 H256 0.931 . S
C255 C253 1.321 . S
C255 C254 1.390 . S
C255 H257 0.930 . S
H256 C254 0.931 . S
H257 C255 0.930 . S
H258 C281 0.931 . S
H259 C247 0.928 1_455 S
H260 C282 0.930 . S
H261 C253 0.931 . S
H262 C243 0.930 . S
H263 C272 0.929 1_655 S
H264 C248 0.931 . S
H265 C249 0.930 1_455 S
H266 C304 0.930 . S
H267 C245 0.929 . S
H268 C273 0.931 . S
H269 C274 0.930 1_655 S
N270 Gd250 2.622 . S
N270 C271 1.369 . S
N270 C272 1.338 . S
C271 N270 1.369 . S
C271 C275 1.415 . S
C271 C278 1.422 . S
C272 H263 0.929 1_455 S
C272 N270 1.338 . S
C272 C274 1.378 . S
C273 H268 0.931 . S
C273 C274 1.348 . S
C273 C275 1.413 . S
C274 H269 0.930 1_455 S
C274 C272 1.378 . S
C274 C273 1.348 . S
C275 C271 1.415 . S
C275 C273 1.413 . S
C275 C305 1.437 . S
H276 C305 0.929 . S
N277 Gd250 2.570 . S
N277 C278 1.359 . S
N277 C281 1.343 . S
C278 C271 1.422 . S
C278 N277 1.359 . S
C278 C280 1.421 . S
C279 C280 1.422 . S
C279 C282 1.321 . S
C279 H306 0.931 . S
C280 C278 1.421 . S
C280 C279 1.422 . S
C280 C304 1.417 . S
C281 H258 0.931 . S
C281 N277 1.343 . S
C281 C282 1.390 . S
C282 H260 0.930 . S
C282 C279 1.321 . S
C282 C281 1.390 . S
O283 Gd251 2.386 . S
O283 C295 1.265 . S
O284 Gd250 2.355 1_655 S
O284 C295 1.239 1_565 S
O285 Gd250 2.468 . S
O285 C303 1.263 . S
O286 Gd250 2.427 . S
O286 C303 1.252 . S
O287 Gd251 2.307 1_565 S
O287 C296 1.261 . S
O288 Gd250 2.388 1_655 S
O288 C296 1.252 . S
O289 Gd250 2.386 . S
O289 C307 1.265 . S
O290 Gd251 2.353 1_455 S
O290 C307 1.242 1_545 S
O291 Gd251 2.468 . S
O291 C315 1.263 . S
O292 Gd251 2.427 . S
O292 C315 1.252 . S
O293 Gd250 2.307 1_545 S
O293 C308 1.261 . S
O294 Gd251 2.388 1_455 S
O294 C308 1.252 . S
C295 O283 1.265 . S
C295 O284 1.239 1_545 S
C296 O287 1.261 . S
C296 O288 1.252 . S
C297 C300 1.394 . S
C297 C302 1.370 . S
C297 C303 1.500 . S
C298 C301 1.383 . S
C298 C302 1.395 . S
C299 C300 1.396 . S
C299 C301 1.365 . S
C299 H316 0.929 . S
C300 C297 1.394 . S
C300 C299 1.396 . S
C300 H317 0.930 . S
C301 C298 1.383 . S
C301 C299 1.365 . S
C301 H318 0.931 . S
C302 C297 1.370 . S
C302 C298 1.395 . S
C302 H319 0.930 . S
C303 Gd250 2.805 . S
C303 O285 1.263 . S
C303 O286 1.252 . S
C303 C297 1.500 . S
C304 H266 0.930 . S
C304 C280 1.417 . S
C304 C305 1.329 . S
C305 C275 1.437 . S
C305 H276 0.929 . S
C305 C304 1.329 . S
H306 C279 0.931 . S
C307 O289 1.265 . S
C307 O290 1.242 1_565 S
C308 O293 1.261 . S
C308 O294 1.252 . S
C309 C312 1.394 . S
C309 C314 1.370 . S
C309 C315 1.500 . S
C310 C313 1.383 . S
C310 C314 1.395 . S
C311 C312 1.396 . S
C311 C313 1.365 . S
C311 H320 0.929 . S
C312 C309 1.394 . S
C312 C311 1.396 . S
C312 H321 0.930 . S
C313 C310 1.383 . S
C313 C311 1.365 . S
C313 H322 0.931 . S
C314 C309 1.370 . S
C314 C310 1.395 . S
C314 H323 0.930 . S
C315 Gd251 2.805 . S
C315 O291 1.263 . S
C315 O292 1.252 . S
C315 C309 1.500 . S
H316 C299 0.929 . S
H317 C300 0.930 . S
H318 C301 0.931 . S
H319 C302 0.930 . S
H320 C311 0.929 . S
H321 C312 0.930 . S
H322 C313 0.931 . S
H323 C314 0.930 . S
C324 C326 1.422 . S
C324 C328 1.415 . S
C324 N330 1.369 . S
C325 C326 1.421 . S
C325 C327 1.417 . S
C325 C337 1.422 . S
C326 C324 1.422 . S
C326 C325 1.421 . S
C326 N336 1.359 . S
C327 C325 1.417 . S
C327 C329 1.329 . S
C327 H346 0.930 . S
C328 C324 1.415 . S
C328 C329 1.437 . S
C328 C332 1.413 . S
C329 C327 1.329 . S
C329 C328 1.437 . S
C329 H351 0.929 . S
N330 C324 1.369 . S
N330 C331 1.338 . S
N330 Gd335 2.622 . S
C331 N330 1.338 . S
C331 C333 1.378 . S
C331 H343 0.929 . S
C332 C328 1.413 . S
C332 C333 1.348 . S
C332 H348 0.931 . S
C333 C331 1.378 . S
C333 C332 1.348 . S
C333 H349 0.930 . S
Gd334 N354 2.622 . S
Gd334 N361 2.570 1_556 S
Gd334 O368 2.353 . S
Gd334 O369 2.468 . S
Gd334 O370 2.427 . S
Gd334 O372 2.387 . S
Gd334 O373 2.386 1_556 S
Gd334 O377 2.307 1_556 S
Gd334 C387 2.805 . S
Gd335 N330 2.622 . S
Gd335 N336 2.570 . S
Gd335 O367 2.370 1_554 S
Gd335 O371 2.307 . S
Gd335 O374 2.353 . S
Gd335 O375 2.468 . S
Gd335 O376 2.427 . S
Gd335 O378 2.388 . S
Gd335 C399 2.805 . S
N336 C326 1.359 . S
N336 Gd335 2.570 . S
N336 C338 1.343 . S
C337 C325 1.422 . S
C337 C339 1.321 . S
C337 H345 0.931 . S
C338 N336 1.343 . S
C338 C339 1.390 . S
C338 H340 0.931 . S
C339 C337 1.321 . S
C339 C338 1.390 . S
C339 H341 0.930 . S
H340 C338 0.931 . S
H341 C339 0.930 . S
H342 C365 0.931 . S
H343 C331 0.929 . S
H344 C366 0.930 . S
H345 C337 0.931 . S
H346 C327 0.930 . S
H347 C356 0.929 . S
H348 C332 0.931 . S
H349 C333 0.930 . S
H350 C388 0.930 . S
H351 C329 0.929 . S
H352 C357 0.931 . S
H353 C358 0.930 . S
N354 Gd334 2.622 . S
N354 C355 1.369 1_556 S
N354 C356 1.338 . S
C355 N354 1.369 1_554 S
C355 C359 1.415 . S
C355 C362 1.422 . S
C356 H347 0.929 . S
C356 N354 1.338 . S
C356 C358 1.378 . S
C357 H352 0.931 . S
C357 C358 1.348 1_554 S
C357 C359 1.413 . S
C358 H353 0.930 . S
C358 C356 1.378 . S
C358 C357 1.348 1_556 S
C359 C355 1.415 . S
C359 C357 1.413 . S
C359 C389 1.437 . S
H360 C389 0.929 . S
N361 Gd334 2.570 1_554 S
N361 C362 1.359 . S
N361 C365 1.343 . S
C362 C355 1.422 . S
C362 N361 1.359 . S
C362 C364 1.421 . S
C363 C364 1.422 . S
C363 C366 1.321 . S
C363 H390 0.931 . S
C364 C362 1.421 . S
C364 C363 1.422 . S
C364 C388 1.417 . S
C365 H342 0.931 . S
C365 N361 1.343 . S
C365 C366 1.390 . S
C366 H344 0.930 . S
C366 C363 1.321 . S
C366 C365 1.390 . S
O367 Gd335 2.370 1_556 S
O367 C379 1.278 . S
O368 Gd334 2.353 . S
O368 C379 1.242 . S
O369 Gd334 2.468 . S
O369 C387 1.263 . S
O370 Gd334 2.427 . S
O370 C387 1.252 . S
O371 Gd335 2.307 . S
O371 C380 1.261 . S
O372 Gd334 2.387 . S
O372 C380 1.253 1_556 S
O373 Gd334 2.386 1_554 S
O373 C391 1.265 . S
O374 Gd335 2.353 . S
O374 C391 1.242 . S
O375 Gd335 2.468 . S
O375 C399 1.263 . S
O376 Gd335 2.427 . S
O376 C399 1.252 . S
O377 Gd334 2.307 1_554 S
O377 C392 1.261 . S
O378 Gd335 2.388 . S
O378 C392 1.252 . S
C379 O367 1.278 . S
C379 O368 1.242 . S
C380 O371 1.261 . S
C380 O372 1.253 1_554 S
C381 C384 1.394 . S
C381 C386 1.370 . S
C381 C387 1.500 . S
C382 C385 1.383 . S
C382 C386 1.395 . S
C383 C384 1.396 . S
C383 C385 1.365 . S
C383 H400 0.929 . S
C384 C381 1.394 . S
C384 C383 1.396 . S
C384 H401 0.930 . S
C385 C382 1.383 . S
C385 C383 1.365 . S
C385 H402 0.931 . S
C386 C381 1.370 . S
C386 C382 1.395 . S
C386 H403 0.930 . S
C387 Gd334 2.805 . S
C387 O369 1.263 . S
C387 O370 1.252 . S
C387 C381 1.500 . S
C388 H350 0.930 . S
C388 C364 1.417 . S
C388 C389 1.329 . S
C389 C359 1.437 . S
C389 H360 0.929 . S
C389 C388 1.329 . S
H390 C363 0.931 . S
C391 O373 1.265 . S
C391 O374 1.242 . S
C392 O377 1.261 . S
C392 O378 1.252 . S
C393 C396 1.394 . S
C393 C398 1.370 . S
C393 C399 1.500 . S
C394 C397 1.383 . S
C394 C398 1.395 . S
C395 C396 1.396 . S
C395 C397 1.365 . S
C395 H404 0.929 . S
C396 C393 1.394 . S
C396 C395 1.396 . S
C396 H405 0.930 . S
C397 C394 1.383 . S
C397 C395 1.365 . S
C397 H406 0.931 . S
C398 C393 1.370 . S
C398 C394 1.395 . S
C398 H407 0.930 . S
C399 Gd335 2.805 . S
C399 O375 1.263 . S
C399 O376 1.252 . S
C399 C393 1.500 . S
H400 C383 0.929 . S
H401 C384 0.930 . S
H402 C385 0.931 . S
H403 C386 0.930 . S
H404 C395 0.929 . S
H405 C396 0.930 . S
H406 C397 0.931 . S
H407 C398 0.930 . S
H408 C414 0.930 . S
H409 C417 0.930 . S
H410 C418 0.930 . S
H411 C419 0.930 . S
H412 C422 0.930 . S
H413 C423 0.930 . S
C414 H408 0.930 . S
C414 C415 1.355 . S
C414 C416 1.415 . S
C415 C414 1.355 . S
C415 C417 1.419 . S
C416 C414 1.415 . S
C416 C421 1.425 . S
C416 C423 1.409 . S
C417 H409 0.930 . S
C417 C415 1.419 . S
C417 C418 1.362 . S
C418 H410 0.930 . S
C418 C417 1.362 . S
C418 C421 1.409 . S
C419 H411 0.930 . S
C419 C420 1.355 . S
C419 C421 1.415 . S
C420 C419 1.355 . S
C420 C422 1.419 . S
C421 C416 1.425 . S
C421 C418 1.409 . S
C421 C419 1.415 . S
C422 H412 0.930 . S
C422 C420 1.419 . S
C422 C423 1.362 . S
C423 H413 0.930 . S
C423 C416 1.409 . S
C423 C422 1.362 . S
H424 C430 0.930 . S
H425 C433 0.930 . S
H426 C434 0.930 . S
H427 C435 0.930 . S
H428 C438 0.930 . S
H429 C439 0.930 . S
C430 H424 0.930 . S
C430 C431 1.355 . S
C430 C432 1.415 . S
C431 C430 1.355 . S
C431 C433 1.419 . S
C432 C430 1.415 . S
C432 C437 1.425 . S
C432 C439 1.409 . S
C433 H425 0.930 . S
C433 C431 1.419 . S
C433 C434 1.362 . S
C434 H426 0.930 . S
C434 C433 1.362 . S
C434 C437 1.409 . S
C435 H427 0.930 . S
C435 C436 1.355 . S
C435 C437 1.415 . S
C436 C435 1.355 . S
C436 C438 1.419 . S
C437 C432 1.425 . S
C437 C434 1.409 . S
C437 C435 1.415 . S
C438 H428 0.930 . S
C438 C436 1.419 . S
C438 C439 1.362 . S
C439 H429 0.930 . S
C439 C432 1.409 . S
C439 C438 1.362 . S
H440 C446 0.930 . S
H441 C449 0.930 . S
H442 C450 0.930 . S
H443 C451 0.930 . S
H444 C454 0.930 . S
H445 C455 0.930 . S
C446 H440 0.930 . S
C446 C447 1.355 . S
C446 C448 1.415 . S
C447 C446 1.355 . S
C447 C449 1.419 . S
C448 C446 1.415 . S
C448 C453 1.425 . S
C448 C455 1.409 . S
C449 H441 0.930 . S
C449 C447 1.419 . S
C449 C450 1.362 . S
C450 H442 0.930 . S
C450 C449 1.362 . S
C450 C453 1.409 . S
C451 H443 0.930 . S
C451 C452 1.355 . S
C451 C453 1.415 . S
C452 C451 1.355 . S
C452 C454 1.419 . S
C453 C448 1.425 . S
C453 C450 1.409 . S
C453 C451 1.415 . S
C454 H444 0.930 . S
C454 C452 1.419 . S
C454 C455 1.362 . S
C455 H445 0.930 . S
C455 C448 1.409 . S
C455 C454 1.362 . S
H456 C462 0.930 . S
H457 C465 0.930 . S
H458 C466 0.930 . S
H459 C467 0.942 . S
H460 C470 0.930 . S
H461 C471 0.930 . S
C462 H456 0.930 . S
C462 C463 1.355 . S
C462 C464 1.415 . S
C463 C462 1.355 . S
C463 C465 1.419 1_554 S
C464 C462 1.415 . S
C464 C469 1.425 . S
C464 C471 1.409 . S
C465 H457 0.930 . S
C465 C463 1.419 1_556 S
C465 C466 1.362 . S
C466 H458 0.930 . S
C466 C465 1.362 . S
C466 C469 1.409 1_556 S
C467 H459 0.942 . S
C467 C468 1.355 . S
C467 C469 1.415 . S
C468 C467 1.355 . S
C468 C470 1.419 . S
C469 C464 1.425 . S
C469 C466 1.409 1_554 S
C469 C467 1.415 . S
C470 H460 0.930 . S
C470 C468 1.419 . S
C470 C471 1.362 . S
C471 H461 0.930 . S
C471 C464 1.409 . S
C471 C470 1.362 . S
H472 C478 0.930 . S
H473 C481 0.930 . S
H474 C482 0.930 . S
H475 C483 0.930 . S
H476 C486 0.930 1_545 S
H477 C487 0.930 1_545 S
C478 H472 0.930 . S
C478 C479 1.355 . S
C478 C480 1.415 . S
C479 C478 1.355 . S
C479 C481 1.419 . S
C480 C478 1.415 . S
C480 C485 1.425 . S
C480 C487 1.409 . S
C481 H473 0.930 . S
C481 C479 1.419 . S
C481 C482 1.362 . S
C482 H474 0.930 . S
C482 C481 1.362 . S
C482 C485 1.409 . S
C483 H475 0.930 . S
C483 C484 1.355 . S
C483 C485 1.415 . S
C484 C483 1.355 . S
C484 C486 1.419 . S
C485 C480 1.425 . S
C485 C482 1.409 . S
C485 C483 1.415 . S
C486 H476 0.930 1_565 S
C486 C484 1.419 . S
C486 C487 1.362 . S
C487 H477 0.930 1_565 S
C487 C480 1.409 . S
C487 C486 1.362 . S
H488 C494 0.930 . S
H489 C497 0.930 . S
H490 C498 0.930 . S
H491 C499 0.930 . S
H492 C502 0.930 . S
H493 C503 0.930 . S
C494 H488 0.930 . S
C494 C495 1.355 . S
C494 C496 1.415 . S
C495 C494 1.355 . S
C495 C497 1.419 . S
C496 C494 1.415 . S
C496 C501 1.425 . S
C496 C503 1.409 . S
C497 H489 0.930 . S
C497 C495 1.419 . S
C497 C498 1.362 . S
C498 H490 0.930 . S
C498 C497 1.362 . S
C498 C501 1.409 . S
C499 H491 0.930 . S
C499 C500 1.355 . S
C499 C501 1.415 . S
C500 C499 1.355 . S
C500 C502 1.419 . S
C501 C496 1.425 . S
C501 C498 1.409 . S
C501 C499 1.415 . S
C502 H492 0.930 . S
C502 C500 1.419 . S
C502 C503 1.362 . S
C503 H493 0.930 . S
C503 C496 1.409 . S
C503 C502 1.362 . S
H504 C510 0.930 . S
H505 C513 0.930 . S
H506 C514 0.930 . S
H507 C515 0.930 . S
H508 C518 0.930 . S
H509 C519 0.930 . S
C510 H504 0.930 . S
C510 C511 1.355 . S
C510 C512 1.415 . S
C511 C510 1.355 . S
C511 C513 1.419 . S
C512 C510 1.415 . S
C512 C517 1.425 . S
C512 C519 1.409 . S
C513 H505 0.930 . S
C513 C511 1.419 . S
C513 C514 1.362 . S
C514 H506 0.930 . S
C514 C513 1.362 . S
C514 C517 1.409 . S
C515 H507 0.930 . S
C515 C516 1.355 . S
C515 C517 1.415 . S
C516 C515 1.355 . S
C516 C518 1.419 . S
C517 C512 1.425 . S
C517 C514 1.409 . S
C517 C515 1.415 . S
C518 H508 0.930 . S
C518 C516 1.419 . S
C518 C519 1.362 . S
C519 H509 0.930 . S
C519 C512 1.409 . S
C519 C518 1.362 . S
H520 C526 0.930 . S
H521 C529 0.930 . S
H522 C530 0.930 . S
H523 C531 0.930 . S
H524 C534 0.930 . S
H525 C535 0.930 . S
C526 H520 0.930 . S
C526 C527 1.355 . S
C526 C528 1.415 . S
C527 C526 1.355 . S
C527 C529 1.419 . S
C528 C526 1.415 . S
C528 C533 1.425 . S
C528 C535 1.409 . S
C529 H521 0.930 . S
C529 C527 1.419 . S
C529 C530 1.362 . S
C530 H522 0.930 . S
C530 C529 1.362 . S
C530 C533 1.409 . S
C531 H523 0.930 . S
C531 C532 1.355 . S
C531 C533 1.415 . S
C532 C531 1.355 . S
C532 C534 1.419 . S
C533 C528 1.425 . S
C533 C530 1.409 . S
C533 C531 1.415 . S
C534 H524 0.930 . S
C534 C532 1.419 . S
C534 C535 1.362 . S
C535 H525 0.930 . S
C535 C528 1.409 . S
C535 C534 1.362 . S
H536 C542 0.930 . S
H537 C545 0.930 . S
H538 C546 0.930 . S
H539 C547 0.930 . S
H540 C550 0.930 . S
H541 C551 0.930 . S
C542 H536 0.930 . S
C542 C543 1.355 . S
C542 C544 1.415 . S
C543 C542 1.355 . S
C543 C545 1.419 . S
C544 C542 1.415 . S
C544 C549 1.425 . S
C544 C551 1.409 . S
C545 H537 0.930 . S
C545 C543 1.419 . S
C545 C546 1.362 . S
C546 H538 0.930 . S
C546 C545 1.362 . S
C546 C549 1.409 . S
C547 H539 0.930 . S
C547 C548 1.355 . S
C547 C549 1.415 . S
C548 C547 1.355 . S
C548 C550 1.419 . S
C549 C544 1.425 . S
C549 C546 1.409 . S
C549 C547 1.415 . S
C550 H540 0.930 . S
C550 C548 1.419 . S
C550 C551 1.362 . S
C551 H541 0.930 . S
C551 C544 1.409 . S
C551 C550 1.362 . S
H552 C558 0.930 . S
H553 C561 0.930 . S
H554 C562 0.930 . S
H555 C563 0.930 . S
H556 C566 0.930 . S
H557 C567 0.930 . S
C558 H552 0.930 . S
C558 C559 1.355 . S
C558 C560 1.415 . S
C559 C558 1.355 . S
C559 C561 1.419 . S
C560 C558 1.415 . S
C560 C565 1.425 . S
C560 C567 1.409 . S
C561 H553 0.930 . S
C561 C559 1.419 . S
C561 C562 1.362 . S
C562 H554 0.930 . S
C562 C561 1.362 . S
C562 C565 1.409 . S
C563 H555 0.930 . S
C563 C564 1.355 . S
C563 C565 1.415 . S
C564 C563 1.355 . S
C564 C566 1.419 . S
C565 C560 1.425 . S
C565 C562 1.409 . S
C565 C563 1.415 . S
C566 H556 0.930 . S
C566 C564 1.419 . S
C566 C567 1.362 . S
C567 H557 0.930 . S
C567 C560 1.409 . S
C567 C566 1.362 . S
H568 C574 0.930 . S
H569 C577 0.930 . S
H570 C578 0.930 . S
H571 C579 0.930 . S
H572 C582 0.930 . S
H573 C583 0.930 . S
C574 H568 0.930 . S
C574 C575 1.355 . S
C574 C576 1.415 . S
C575 C574 1.355 . S
C575 C577 1.419 . S
C576 C574 1.415 . S
C576 C581 1.425 . S
C576 C583 1.409 . S
C577 H569 0.930 . S
C577 C575 1.419 . S
C577 C578 1.362 . S
C578 H570 0.930 . S
C578 C577 1.362 . S
C578 C581 1.409 . S
C579 H571 0.930 . S
C579 C580 1.355 . S
C579 C581 1.415 . S
C580 C579 1.355 . S
C580 C582 1.419 . S
C581 C576 1.425 . S
C581 C578 1.409 . S
C581 C579 1.415 . S
C582 H572 0.930 . S
C582 C580 1.419 . S
C582 C583 1.362 . S
C583 H573 0.930 . S
C583 C576 1.409 . S
C583 C582 1.362 . S
H584 C590 0.930 . S
H585 C593 0.930 . S
H586 C594 0.930 . S
H587 C595 0.930 . S
H588 C598 0.930 . S
H589 C599 0.930 . S
C590 H584 0.930 . S
C590 C591 1.355 . S
C590 C592 1.415 . S
C591 C590 1.355 . S
C591 C593 1.419 . S
C592 C590 1.415 . S
C592 C597 1.425 . S
C592 C599 1.409 . S
C593 H585 0.930 . S
C593 C591 1.419 . S
C593 C594 1.362 . S
C594 H586 0.930 . S
C594 C593 1.362 . S
C594 C597 1.409 . S
C595 H587 0.930 . S
C595 C596 1.355 . S
C595 C597 1.415 . S
C596 C595 1.355 . S
C596 C598 1.419 . S
C597 C592 1.425 . S
C597 C594 1.409 . S
C597 C595 1.415 . S
C598 H588 0.930 . S
C598 C596 1.419 . S
C598 C599 1.362 . S
C599 H589 0.930 . S
C599 C592 1.409 . S
C599 C598 1.362 . S
C420 C308 1.650 . S
C415 C211 1.631 . S
C431 C31 1.500 . S
C436 C380 1.629 . S
C447 C91 1.651 . S
C452 C296 1.647 . S
C463 C151 1.614 . S
C468 C392 1.606 . S
C484 C298 1.434 . S
C479 C20 1.494 . S
C500 C379 1.607 . S
C495 C61 1.555 . S
C511 C121 1.630 . S
C516 C295 1.626 . S
C527 C200 1.474 . S
C532 C382 1.360 . S
C548 C394 1.391 . S
C543 C80 1.471 . S
C564 C310 1.373 . S
C559 C140 1.536 . S
C580 C391 1.606 . S
C575 C181 1.491 . S
C591 C1 1.530 . S
C596 C307 1.628 . S
