# Generated by pormake.
# Topology eea, (3,6)-cn, num edge types: 1
# Building blocks:
#     Node 0, Type 0, BuildingBlock: QEWDON_clean_linker_0, # of connection points: 3
#     Node 1, Type 0, BuildingBlock: QEWDON_clean_linker_0, # of connection points: 3
#     Node 2, Type 0, BuildingBlock: QEWDON_clean_linker_0, # of connection points: 3
#     Node 3, Type 0, BuildingBlock: QEWDON_clean_linker_0, # of connection points: 3
#     Node 4, Type 0, BuildingBlock: QEWDON_clean_linker_0, # of connection points: 3
#     Node 5, Type 0, BuildingBlock: QEWDON_clean_linker_0, # of connection points: 3
#     Node 6, Type 0, BuildingBlock: QEWDON_clean_linker_0, # of connection points: 3
#     Node 7, Type 0, BuildingBlock: QEWDON_clean_linker_0, # of connection points: 3
#     Node 8, Type 0, BuildingBlock: QEWDON_clean_linker_0, # of connection points: 3
#     Node 9, Type 0, BuildingBlock: QEWDON_clean_linker_0, # of connection points: 3
#     Node 10, Type 0, BuildingBlock: QEWDON_clean_linker_0, # of connection points: 3
#     Node 11, Type 0, BuildingBlock: QEWDON_clean_linker_0, # of connection points: 3
#     Node 12, Type 0, BuildingBlock: QEWDON_clean_linker_0, # of connection points: 3
#     Node 13, Type 0, BuildingBlock: QEWDON_clean_linker_0, # of connection points: 3
#     Node 14, Type 0, BuildingBlock: QEWDON_clean_linker_0, # of connection points: 3
#     Node 15, Type 0, BuildingBlock: QEWDON_clean_linker_0, # of connection points: 3
#     Node 16, Type 0, BuildingBlock: QEWDON_clean_linker_0, # of connection points: 3
#     Node 17, Type 0, BuildingBlock: QEWDON_clean_linker_0, # of connection points: 3
#     Node 18, Type 1, BuildingBlock: KUMBUR_clean_sbu_0, # of connection points: 6
#     Node 19, Type 1, BuildingBlock: KUMBUR_clean_sbu_0, # of connection points: 6
#     Node 20, Type 1, BuildingBlock: KUMBUR_clean_sbu_0, # of connection points: 6
#     Node 21, Type 1, BuildingBlock: KUMBUR_clean_sbu_0, # of connection points: 6
#     Node 22, Type 1, BuildingBlock: KUMBUR_clean_sbu_0, # of connection points: 6
#     Node 23, Type 1, BuildingBlock: KUMBUR_clean_sbu_0, # of connection points: 6
#     Node 24, Type 1, BuildingBlock: KUMBUR_clean_sbu_0, # of connection points: 6
#     Node 25, Type 1, BuildingBlock: KUMBUR_clean_sbu_0, # of connection points: 6
#     Node 26, Type 1, BuildingBlock: KUMBUR_clean_sbu_0, # of connection points: 6
#     Edge 27, Type (0, 1), None
#     Edge 28, Type (0, 1), None
#     Edge 29, Type (0, 1), None
#     Edge 30, Type (0, 1), None
#     Edge 31, Type (0, 1), None
#     Edge 32, Type (0, 1), None
#     Edge 33, Type (0, 1), None
#     Edge 34, Type (0, 1), None
#     Edge 35, Type (0, 1), None
#     Edge 36, Type (0, 1), None
#     Edge 37, Type (0, 1), None
#     Edge 38, Type (0, 1), None
#     Edge 39, Type (0, 1), None
#     Edge 40, Type (0, 1), None
#     Edge 41, Type (0, 1), None
#     Edge 42, Type (0, 1), None
#     Edge 43, Type (0, 1), None
#     Edge 44, Type (0, 1), None
#     Edge 45, Type (0, 1), None
#     Edge 46, Type (0, 1), None
#     Edge 47, Type (0, 1), None
#     Edge 48, Type (0, 1), None
#     Edge 49, Type (0, 1), None
#     Edge 50, Type (0, 1), None
#     Edge 51, Type (0, 1), None
#     Edge 52, Type (0, 1), None
#     Edge 53, Type (0, 1), None
#     Edge 54, Type (0, 1), None
#     Edge 55, Type (0, 1), None
#     Edge 56, Type (0, 1), None
#     Edge 57, Type (0, 1), None
#     Edge 58, Type (0, 1), None
#     Edge 59, Type (0, 1), None
#     Edge 60, Type (0, 1), None
#     Edge 61, Type (0, 1), None
#     Edge 62, Type (0, 1), None
#     Edge 63, Type (0, 1), None
#     Edge 64, Type (0, 1), None
#     Edge 65, Type (0, 1), None
#     Edge 66, Type (0, 1), None
#     Edge 67, Type (0, 1), None
#     Edge 68, Type (0, 1), None
#     Edge 69, Type (0, 1), None
#     Edge 70, Type (0, 1), None
#     Edge 71, Type (0, 1), None
#     Edge 72, Type (0, 1), None
#     Edge 73, Type (0, 1), None
#     Edge 74, Type (0, 1), None
#     Edge 75, Type (0, 1), None
#     Edge 76, Type (0, 1), None
#     Edge 77, Type (0, 1), None
#     Edge 78, Type (0, 1), None
#     Edge 79, Type (0, 1), None
#     Edge 80, Type (0, 1), None
# Relax obj value: 0.051
# Max RMSD: 0.262
# Mean RMSD: 0.189
data_MOF--net-eea--node1-KUMBUR_clean_sbu_0--node2-QEWDON_clean_linker_0--edge1-none
_symmetry_space_group_name_H-M    P1
_symmetry_Int_Tables_number       1
_symmetry_cell_setting            triclinic
loop_
_symmetry_equiv_pos_as_xyz
'x, y, z'
_cell_length_a     25.992865
_cell_length_b     26.92941
_cell_length_c     35.787854
_cell_angle_alpha  90.485851
_cell_angle_beta   89.970397
_cell_angle_gamma 119.83639
loop_
_atom_site_label
_atom_site_type_symbol
_atom_site_fract_x
_atom_site_fract_y
_atom_site_fract_z
_atom_type_partial_charge
H0 H 0.28255 0.17968 0.44194 0.0
C1 C 0.28058 0.14348 0.4271 0.0
C2 C 0.31515 0.11997 0.43933 0.0
C3 C 0.24139 0.11853 0.39708 0.0
H4 H 0.33492 0.05152 0.43256 0.0
C5 C 0.30966 0.0705 0.42191 0.0
C6 C 0.27057 0.04499 0.39147 0.0
C7 C 0.23907 0.07111 0.37832 0.0
C8 C 0.19498 0.13385 0.38894 0.0
H9 H 0.20861 0.05169 0.3551 0.0
C10 C 0.20602 0.19076 0.38533 0.0
C11 C 0.1596 0.19991 0.37329 0.0
C12 C 0.13712 0.08825 0.38377 0.0
H13 H 0.12709 0.04523 0.38983 0.0
C14 C 0.09282 0.09723 0.36993 0.0
H15 H 0.25006 0.22681 0.39008 0.0
C16 C 0.10429 0.15251 0.3641 0.0
H17 H 0.06953 0.15818 0.35224 0.0
H18 H 0.04963 0.0613 0.36336 0.0
H19 H 0.85663 0.10853 0.43838 0.0
C20 C 0.89109 0.14425 0.4231 0.0
C21 C 0.90732 0.19981 0.43429 0.0
C22 C 0.9214 0.13427 0.3942 0.0
H23 H 0.96207 0.2886 0.4243 0.0
C24 C 0.95197 0.24618 0.41517 0.0
C25 C 0.98707 0.23921 0.38763 0.0
C26 C 0.97096 0.18215 0.37718 0.0
C27 C 0.9076 0.07368 0.38886 0.0
H28 H 0.99653 0.17484 0.3565 0.0
C29 C 0.84894 0.02813 0.38134 0.0
C30 C 0.8343 0.97019 0.38587 0.0
C31 C 0.95075 0.06003 0.39986 0.0
H32 H 0.99473 0.09366 0.40767 0.0
C33 C 0.9366 1.00314 0.40385 0.0
H34 H 0.81461 0.03777 0.37354 0.0
C35 C 0.87889 0.95871 0.39734 0.0
H36 H 0.86913 0.91495 0.40091 0.0
H37 H 0.97033 0.99347 0.41297 0.0
H38 H 0.92485 0.75813 0.43644 0.0
C39 C 0.88922 0.76036 0.42226 0.0
C40 C 0.83191 0.73011 0.43673 0.0
C41 C 0.90101 0.79508 0.39055 0.0
H42 H 0.74204 0.7076 0.43114 0.0
C43 C 0.78567 0.73295 0.41905 0.0
C44 C 0.79411 0.76743 0.38757 0.0
C45 C 0.85283 0.79893 0.37341 0.0
C46 C 0.96495 0.8337 0.37984 0.0
H47 H 0.86109 0.82632 0.34957 0.0
C48 C 1.00978 0.81714 0.38045 0.0
C49 C 0.07091 0.85821 0.37414 0.0
C50 C 0.9826 0.8909 0.37273 0.0
H51 H 0.95068 0.90547 0.37152 0.0
C52 C 0.04192 0.93114 0.36876 0.0
H53 H 0.99717 0.77288 0.3852 0.0
C54 C 0.08564 0.91571 0.3708 0.0
H55 H 0.13099 0.94912 0.36813 0.0
H56 H 0.05336 0.97437 0.36259 0.0
H57 H 0.18171 0.25762 0.61406 0.0
C58 C 0.14427 0.25833 0.62691 0.0
C59 C 0.12123 0.28902 0.60941 0.0
C60 C 0.11785 0.22545 0.65863 0.0
H61 H 0.05618 0.31432 0.61049 0.0
C62 C 0.07161 0.28875 0.62464 0.0
C63 C 0.04237 0.25656 0.65708 0.0
C64 C 0.06569 0.22382 0.6736 0.0
C65 C 0.14099 0.18678 0.67068 0.0
H66 H 0.04357 0.19724 0.69744 0.0
C67 C 0.20289 0.20398 0.6695 0.0
C68 C 0.22251 0.16345 0.67331 0.0
C69 C 0.09999 0.12895 0.67607 0.0
H70 H 0.05295 0.11406 0.67676 0.0
C71 C 0.11863 0.08882 0.67788 0.0
H72 H 0.23556 0.24856 0.66534 0.0
C73 C 0.17876 0.10555 0.67608 0.0
H74 H 0.19062 0.07274 0.67741 0.0
H75 H 0.08576 0.04424 0.68034 0.0
H76 H 0.75299 0.9135 0.6013 0.0
C77 C 0.75366 0.88131 0.61899 0.0
C78 C 0.71587 0.82338 0.61074 0.0
C79 C 0.79533 0.89791 0.64808 0.0
H80 H 0.68929 0.73693 0.62493 0.0
C81 C 0.71829 0.78156 0.63235 0.0
C82 C 0.76077 0.79654 0.66099 0.0
C83 C 0.79878 0.85527 0.66916 0.0
C84 C 0.84283 0.95887 0.65007 0.0
H85 H 0.83336 0.86808 0.69 0.0
C86 C 0.8305 1.00378 0.65726 0.0
C87 C 0.87601 0.06145 0.65432 0.0
C88 C 0.90054 0.97242 0.64001 0.0
H89 H 0.91077 0.93881 0.63381 0.0
C90 C 0.94497 0.02927 0.63625 0.0
H91 H 0.78645 0.99389 0.66585 0.0
C92 C 0.93287 0.07343 0.64333 0.0
H93 H 0.96859 0.11731 0.6413 0.0
H94 H 0.98909 0.03915 0.62796 0.0
H95 H 0.09344 0.84217 0.6101 0.0
C96 C 0.1289 0.88069 0.62274 0.0
C97 C 0.18445 0.90771 0.60507 0.0
C98 C 0.1187 0.90384 0.65537 0.0
H99 H 0.27235 0.98108 0.60486 0.0
C100 C 0.23013 0.95992 0.61919 0.0
C101 C 0.22198 0.98356 0.6524 0.0
C102 C 0.16699 0.95418 0.67071 0.0
C103 C 0.05697 0.87932 0.67111 0.0
H104 H 0.16152 0.97236 0.69621 0.0
C105 C 1.01151 0.82142 0.66498 0.0
C106 C 0.95248 0.80211 0.67673 0.0
C107 C 0.04169 0.91604 0.69023 0.0
H108 H 0.07359 0.96014 0.69576 0.0
C109 C 0.98388 0.8976 0.70114 0.0
H110 H 0.0215 0.79126 0.65129 0.0
C111 C 0.93975 0.84191 0.69363 0.0
H112 H 0.89586 0.83081 0.70145 0.0
H113 H 0.97293 0.9271 0.71491 0.0
H114 H 0.94922 0.51301 0.77527 0.0
C115 C 0.94725 0.47682 0.76044 0.0
C116 C 0.98181 0.4533 0.77267 0.0
C117 C 0.90805 0.45186 0.73041 0.0
H118 H 1.00159 0.38485 0.76589 0.0
C119 C 0.97632 0.40383 0.75524 0.0
C120 C 0.93724 0.37832 0.72481 0.0
C121 C 0.90573 0.40444 0.71166 0.0
C122 C 0.86164 0.46718 0.72227 0.0
H123 H 0.87528 0.38503 0.68843 0.0
C124 C 0.87269 0.52409 0.71866 0.0
C125 C 0.82627 0.53325 0.70663 0.0
C126 C 0.80379 0.42158 0.71711 0.0
H127 H 0.79376 0.37856 0.72317 0.0
C128 C 0.75949 0.43057 0.70326 0.0
H129 H 0.91672 0.56014 0.72341 0.0
C130 C 0.77096 0.48584 0.69743 0.0
H131 H 0.73619 0.49151 0.68558 0.0
H132 H 0.7163 0.39463 0.69669 0.0
H133 H 0.5233 0.44186 0.77172 0.0
C134 C 0.55775 0.47758 0.75643 0.0
C135 C 0.57398 0.53314 0.76762 0.0
C136 C 0.58807 0.4676 0.72753 0.0
H137 H 0.62874 0.62194 0.75763 0.0
C138 C 0.61863 0.57952 0.7485 0.0
C139 C 0.65374 0.57254 0.72096 0.0
C140 C 0.63762 0.51548 0.71051 0.0
C141 C 0.57426 0.40701 0.72219 0.0
H142 H 0.6632 0.50818 0.68983 0.0
C143 C 0.51561 0.36146 0.71468 0.0
C144 C 0.50096 0.30353 0.7192 0.0
C145 C 0.61742 0.39336 0.73319 0.0
H146 H 0.6614 0.427 0.741 0.0
C147 C 0.60327 0.33647 0.73719 0.0
H148 H 0.48128 0.3711 0.70687 0.0
C149 C 0.54556 0.29204 0.73067 0.0
H150 H 0.5358 0.24828 0.73424 0.0
H151 H 0.637 0.3268 0.7463 0.0
H152 H 0.59151 0.09147 0.76977 0.0
C153 C 0.55589 0.09369 0.75559 0.0
C154 C 0.49858 0.06344 0.77006 0.0
C155 C 0.56768 0.12841 0.72389 0.0
H156 H 0.4087 0.04093 0.76448 0.0
C157 C 0.45234 0.06628 0.75238 0.0
C158 C 0.46078 0.10077 0.72091 0.0
C159 C 0.5195 0.13226 0.70674 0.0
C160 C 0.63161 0.16704 0.71317 0.0
H161 H 0.52776 0.15966 0.6829 0.0
C162 C 0.67644 0.15047 0.71378 0.0
C163 C 0.73757 0.19154 0.70748 0.0
C164 C 0.64927 0.22424 0.70606 0.0
H165 H 0.61735 0.23881 0.70485 0.0
C166 C 0.70858 0.26447 0.70209 0.0
H167 H 0.66384 0.10621 0.71853 0.0
C168 C 0.7523 0.24904 0.70413 0.0
H169 H 0.79766 0.28245 0.70146 0.0
H170 H 0.72003 0.3077 0.69593 0.0
H171 H 0.84838 0.59095 0.94739 0.0
C172 C 0.81094 0.59166 0.96024 0.0
C173 C 0.78789 0.62236 0.94275 0.0
C174 C 0.78452 0.55878 0.99196 0.0
H175 H 0.72285 0.64766 0.94382 0.0
C176 C 0.73828 0.62208 0.95797 0.0
C177 C 0.70904 0.58989 0.99041 0.0
C178 C 0.73235 0.55716 1.00694 0.0
C179 C 0.80766 0.52012 1.00401 0.0
H180 H 0.71023 0.53057 0.03077 0.0
C181 C 0.86956 0.53731 1.00283 0.0
C182 C 0.88918 0.49678 1.00664 0.0
C183 C 0.76666 0.46228 1.0094 0.0
H184 H 0.71961 0.4474 1.0101 0.0
C185 C 0.7853 0.42215 1.01121 0.0
H186 H 0.90222 0.5819 0.99867 0.0
C187 C 0.84542 0.43888 1.00942 0.0
H188 H 0.85729 0.40608 1.01075 0.0
H189 H 0.75242 0.37758 0.01367 0.0
H190 H 0.41966 0.24683 0.93463 0.0
C191 C 0.42033 0.21464 0.95232 0.0
C192 C 0.38254 0.15671 0.94407 0.0
C193 C 0.462 0.23125 0.98142 0.0
H194 H 0.35596 0.07026 0.95826 0.0
C195 C 0.38496 0.1149 0.96569 0.0
C196 C 0.42744 0.12987 0.99433 0.0
C197 C 0.46545 0.18861 1.00249 0.0
C198 C 0.50949 0.29221 0.9834 0.0
H199 H 0.50003 0.20141 0.02333 0.0
C200 C 0.49717 0.33711 0.9906 0.0
C201 C 0.54268 0.39479 0.98766 0.0
C202 C 0.5672 0.30575 0.97335 0.0
H203 H 0.57744 0.27215 0.96715 0.0
C204 C 0.61163 0.3626 0.96958 0.0
H205 H 0.45312 0.32723 0.99919 0.0
C206 C 0.59954 0.40676 0.97667 0.0
H207 H 0.63526 0.45065 0.97464 0.0
H208 H 0.65576 0.37248 0.9613 0.0
H209 H 0.76011 0.1755 0.94343 0.0
C210 C 0.79557 0.21402 0.95608 0.0
C211 C 0.85112 0.24104 0.93841 0.0
C212 C 0.78536 0.23718 0.9887 0.0
H213 H 0.93901 0.31441 0.9382 0.0
C214 C 0.8968 0.29326 0.95253 0.0
C215 C 0.88864 0.31689 0.98574 0.0
C216 C 0.83366 0.28751 1.00404 0.0
C217 C 0.72363 0.21265 1.00444 0.0
H218 H 0.82818 0.30569 0.02954 0.0
C219 C 0.67818 0.15476 0.99832 0.0
C220 C 0.61915 0.13545 1.01006 0.0
C221 C 0.70836 0.24937 0.02357 0.0
H222 H 0.74026 0.29348 0.02909 0.0
C223 C 0.65055 0.23093 0.03448 0.0
H224 H 0.68817 0.1246 0.98462 0.0
C225 C 0.60642 0.17524 0.02696 0.0
H226 H 0.56253 0.16415 0.03479 0.0
H227 H 0.63959 0.26044 0.04824 0.0
H228 H 0.61589 0.84635 0.10861 0.0
C229 C 0.61392 0.81015 0.09377 0.0
C230 C 0.64848 0.78664 0.106 0.0
C231 C 0.57472 0.78519 0.06374 0.0
H232 H 0.66825 0.71819 0.09922 0.0
C233 C 0.64299 0.73717 0.08857 0.0
C234 C 0.60391 0.71166 0.05814 0.0
C235 C 0.5724 0.73778 0.04499 0.0
C236 C 0.52831 0.80051 0.0556 0.0
H237 H 0.54194 0.71836 0.02176 0.0
C238 C 0.53935 0.85743 0.052 0.0
C239 C 0.49293 0.86658 0.03996 0.0
C240 C 0.47046 0.75491 0.05044 0.0
H241 H 0.46042 0.7119 0.0565 0.0
C242 C 0.42616 0.7639 0.03659 0.0
H243 H 0.58339 0.89347 0.05675 0.0
C244 C 0.43763 0.81917 0.03076 0.0
H245 H 0.40286 0.82485 0.01891 0.0
H246 H 0.38296 0.72797 0.03002 0.0
H247 H 0.18996 0.7752 0.10505 0.0
C248 C 0.22442 0.81091 0.08977 0.0
C249 C 0.24065 0.86647 0.10095 0.0
C250 C 0.25473 0.80094 0.06086 0.0
H251 H 0.29541 0.95527 0.09097 0.0
C252 C 0.2853 0.91285 0.08183 0.0
C253 C 0.32041 0.90587 0.05429 0.0
C254 C 0.30429 0.84882 0.04385 0.0
C255 C 0.24093 0.74035 0.05552 0.0
H256 H 0.32986 0.84151 0.02316 0.0
C257 C 0.18227 0.69479 0.04801 0.0
C258 C 0.16763 0.63686 0.05253 0.0
C259 C 0.28409 0.72669 0.06652 0.0
H260 H 0.32806 0.76033 0.07434 0.0
C261 C 0.26993 0.6698 0.07052 0.0
H262 H 0.14794 0.70443 0.04021 0.0
C263 C 0.21223 0.62537 0.06401 0.0
H264 H 0.20246 0.58162 0.06757 0.0
H265 H 0.30366 0.66013 0.07964 0.0
H266 H 0.25818 0.4248 0.1031 0.0
C267 C 0.22256 0.42702 0.08892 0.0
C268 C 0.16525 0.39677 0.1034 0.0
C269 C 0.23434 0.46174 0.05722 0.0
H270 H 0.07537 0.37427 0.09781 0.0
C271 C 0.11901 0.39962 0.08572 0.0
C272 C 0.12745 0.4341 0.05424 0.0
C273 C 0.18616 0.4656 0.04008 0.0
C274 C 0.29828 0.50037 0.0465 0.0
H275 H 0.19442 0.49299 0.01624 0.0
C276 C 0.34311 0.48381 0.04711 0.0
C277 C 0.40424 0.52488 0.04081 0.0
C278 C 0.31593 0.55757 0.0394 0.0
H279 H 0.28401 0.57214 0.03819 0.0
C280 C 0.37525 0.59781 0.03542 0.0
H281 H 0.33051 0.43954 0.05187 0.0
C282 C 0.41897 0.58237 0.03747 0.0
H283 H 0.46432 0.61578 0.03479 0.0
H284 H 0.3867 0.64103 0.02926 0.0
H285 H 0.51505 0.92429 0.28073 0.0
C286 C 0.47761 0.925 0.29358 0.0
C287 C 0.45456 0.95569 0.27608 0.0
C288 C 0.45118 0.89211 0.3253 0.0
H289 H 0.38952 0.98099 0.27715 0.0
C290 C 0.40495 0.95542 0.2913 0.0
C291 C 0.3757 0.92323 0.32374 0.0
C292 C 0.39902 0.89049 0.34027 0.0
C293 C 0.47432 0.85345 0.33734 0.0
H294 H 0.3769 0.8639 0.36411 0.0
C295 C 0.53623 0.87065 0.33616 0.0
C296 C 0.55585 0.83012 0.33997 0.0
C297 C 0.43332 0.79562 0.34274 0.0
H298 H 0.38628 0.78073 0.34343 0.0
C299 C 0.45197 0.75548 0.34454 0.0
H300 H 0.56889 0.91523 0.332 0.0
C301 C 0.51209 0.77222 0.34275 0.0
H302 H 0.52396 0.73941 0.34408 0.0
H303 H 0.41909 0.71091 0.347 0.0
H304 H 0.08633 0.58016 0.26796 0.0
C305 C 0.087 0.54798 0.28566 0.0
C306 C 0.04921 0.49004 0.27741 0.0
C307 C 0.12866 0.56458 0.31475 0.0
H308 H 0.02263 0.40359 0.29159 0.0
C309 C 0.05162 0.44823 0.29902 0.0
C310 C 0.09411 0.4632 0.32766 0.0
C311 C 0.13212 0.52194 0.33582 0.0
C312 C 0.17616 0.62554 0.31673 0.0
H313 H 0.1667 0.53475 0.35666 0.0
C314 C 0.16384 0.67044 0.32393 0.0
C315 C 0.20935 0.72812 0.32099 0.0
C316 C 0.23387 0.63909 0.30668 0.0
H317 H 0.2441 0.60548 0.30048 0.0
C318 C 0.2783 0.69594 0.30291 0.0
H319 H 0.11978 0.66056 0.33252 0.0
C320 C 0.26621 0.74009 0.31 0.0
H321 H 0.30193 0.78398 0.30797 0.0
H322 H 0.32243 0.70581 0.29463 0.0
H323 H 0.42678 0.50883 0.27676 0.0
C324 C 0.46224 0.54735 0.28941 0.0
C325 C 0.51779 0.57437 0.27174 0.0
C326 C 0.45203 0.57051 0.32204 0.0
H327 H 0.60568 0.64775 0.27153 0.0
C328 C 0.56347 0.62659 0.28586 0.0
C329 C 0.55531 0.65023 0.31907 0.0
C330 C 0.50033 0.62085 0.33738 0.0
C331 C 0.3903 0.54599 0.33778 0.0
H332 H 0.49485 0.63902 0.36288 0.0
C333 C 0.34484 0.48809 0.33165 0.0
C334 C 0.28581 0.46878 0.34339 0.0
C335 C 0.37502 0.58271 0.3569 0.0
H336 H 0.40692 0.62681 0.36242 0.0
C337 C 0.31722 0.56427 0.36781 0.0
H338 H 0.35484 0.45793 0.31795 0.0
C339 C 0.27309 0.50858 0.36029 0.0
H340 H 0.2292 0.49748 0.36812 0.0
H341 H 0.30626 0.59377 0.38157 0.0
Tb342 Tb 0.46551 0.99063 0.9737 0.0
C343 C 0.56955 0.14321 0.11413 0.0
C344 C 0.66646 0.15181 0.11779 0.0
C345 C 0.64646 0.21826 0.1525 0.0
C346 C 0.60775 0.12401 0.10403 0.0
C347 C 0.58863 0.19122 0.13794 0.0
C348 C 0.68507 0.19813 0.14278 0.0
C349 C 0.49048 0.17928 0.13369 0.0
N350 N 0.51308 0.11378 0.10133 0.0
C351 C 0.47317 0.13079 0.11116 0.0
C352 C 0.54842 0.20939 0.14742 0.0
Tb353 Tb 0.48549 0.02851 0.07123 0.0
N354 N 0.58636 0.07623 0.08226 0.0
C355 C 0.62291 0.05533 0.07216 0.0
C356 C 0.70394 0.13095 0.10708 0.0
C357 C 0.68218 0.08284 0.08384 0.0
H358 H 0.42741 0.10609 0.10216 0.0
H359 H 0.71082 0.06633 0.07531 0.0
H360 H 0.729 0.21841 0.15507 0.0
H361 H 0.45872 0.19249 0.14123 0.0
H362 H 0.60751 0.01817 0.05436 0.0
H363 H 0.22943 0.86389 0.95433 0.0
H364 H 0.74948 0.15136 0.11679 0.0
H365 H 0.57717 0.97473 0.94275 0.0
H366 H 0.32234 0.94643 0.97686 0.0
H367 H 0.58956 0.90558 0.90381 0.0
H368 H 0.66162 0.25443 0.17152 0.0
H369 H 0.23215 0.78626 0.91886 0.0
H370 H 0.29379 0.75043 0.88675 0.0
H371 H 0.56142 0.24589 0.16583 0.0
H372 H 0.39092 0.75961 0.87483 0.0
N373 N 0.37649 0.9116 0.95988 0.0
C374 C 0.32378 0.91071 0.96408 0.0
C375 C 0.27276 0.82051 0.93082 0.0
C376 C 0.32721 0.82296 0.92491 0.0
C377 C 0.27106 0.86448 0.95063 0.0
C378 C 0.3788 0.86887 0.94082 0.0
H379 H 0.50146 0.81786 0.88048 0.0
N380 N 0.48281 0.92434 0.94438 0.0
C381 C 0.54558 0.89667 0.91169 0.0
C382 C 0.43398 0.87595 0.93215 0.0
C383 C 0.53834 0.93569 0.93388 0.0
C384 C 0.49576 0.84703 0.89877 0.0
C385 C 0.43914 0.83642 0.90862 0.0
O386 O 0.51408 0.03596 0.92628 0.0
O387 O 0.51895 0.05091 0.01621 0.0
O388 O 0.46801 0.09086 0.04081 0.0
O389 O 0.42029 0.03833 0.98742 0.0
O390 O 0.56325 0.05016 0.97071 0.0
O391 O 0.42143 0.0082 0.93058 0.0
O392 O 0.44013 0.01577 0.12274 0.0
O393 O 0.42498 0.96491 0.03045 0.0
O394 O 0.48272 0.92796 0.99878 0.0
O395 O 0.50462 0.95729 0.06128 0.0
O396 O 0.39284 1.00172 0.06676 0.0
O397 O 0.48739 0.97163 0.11039 0.0
C398 C 0.56997 0.07565 1.0022 0.0
C399 C 0.45979 0.00956 0.86956 0.0
C400 C 0.48318 0.02527 0.80274 0.0
C401 C 0.49065 0.04679 0.83977 0.0
C402 C 0.44761 0.96625 0.79619 0.0
C403 C 0.42073 0.95169 0.86125 0.0
C404 C 0.41632 0.92979 0.8253 0.0
C405 C 0.43831 0.0841 1.00903 0.0
C406 C 0.46779 0.0309 0.90887 0.0
C407 C 0.38787 0.78981 0.89361 0.0
C408 C 0.33227 0.7839 0.90105 0.0
C409 C 0.37654 0.96022 0.04308 0.0
C410 C 0.48803 0.99841 0.17362 0.0
C411 C 0.45506 0.97578 0.20675 0.0
C412 C 0.48441 0.98822 0.24183 0.0
C413 C 0.5458 0.02631 0.24352 0.0
C414 C 0.54991 0.03265 0.17642 0.0
C415 C 0.57825 0.04818 0.21099 0.0
C416 C 0.49949 0.92325 0.03258 0.0
C417 C 0.45934 0.9832 0.13607 0.0
H418 H 0.51769 0.09238 0.84505 0.0
H419 H 0.44063 0.94903 0.76799 0.0
H420 H 0.39211 0.92347 0.88217 0.0
H421 H 0.38649 0.88476 0.8197 0.0
H422 H 0.40774 0.94624 0.20506 0.0
H423 H 0.56916 0.03676 0.27004 0.0
H424 H 0.57694 0.04566 0.1519 0.0
H425 H 0.62596 0.07532 0.21245 0.0
Tb426 Tb 0.04399 0.50015 0.97629 0.0
C427 C 0.86696 0.42776 0.09295 0.0
C428 C 0.85989 0.51384 0.09467 0.0
C429 C 0.77156 0.42114 0.10333 0.0
C430 C 0.89363 0.48646 0.09033 0.0
C431 C 0.80619 0.39464 0.10132 0.0
C432 C 0.79843 0.48053 0.09921 0.0
C433 C 0.81915 0.31223 0.10598 0.0
N434 N 0.90102 0.40323 0.08825 0.0
C435 C 0.87912 0.3469 0.09753 0.0
C436 C 0.78209 0.33595 0.10688 0.0
Tb437 Tb 0.99686 0.46313 0.06998 0.0
N438 N 0.95218 0.51651 0.08209 0.0
C439 C 0.98107 0.57503 0.08186 0.0
C440 C 0.8886 0.57356 0.09277 0.0
C441 C 0.94975 0.60435 0.08706 0.0
H442 H 0.90734 0.32799 0.09623 0.0
H443 H 0.97268 0.65064 0.08612 0.0
H444 H 0.77138 0.50024 0.09812 0.0
H445 H 0.80166 0.26709 0.11065 0.0
H446 H 0.028 0.59959 0.07729 0.0
H447 H 0.07301 0.31628 0.94871 0.0
H448 H 0.86409 0.59619 0.09584 0.0
H449 H 0.13817 0.64181 0.96233 0.0
H450 H 0.02851 0.36566 0.97986 0.0
H451 H 0.23397 0.70057 0.93531 0.0
H452 H 0.72409 0.39606 0.10746 0.0
H453 H 0.16101 0.36937 0.90883 0.0
H454 H 0.2356 0.46221 0.88082 0.0
H455 H 0.7353 0.30909 0.11234 0.0
H456 H 0.28089 0.56679 0.87839 0.0
N457 N 0.09155 0.44939 0.96024 0.0
C458 C 0.06733 0.39114 0.96346 0.0
C459 C 0.14237 0.39218 0.92341 0.0
C460 C 0.16747 0.45133 0.92023 0.0
C461 C 0.09274 0.36215 0.94576 0.0
C462 C 0.14203 0.47924 0.94026 0.0
H463 H 0.28457 0.65618 0.90153 0.0
N464 N 0.13958 0.56278 0.95665 0.0
C465 C 0.2163 0.65504 0.9358 0.0
C466 C 0.16745 0.53788 0.93901 0.0
C467 C 0.16238 0.62089 0.95332 0.0
C468 C 0.24429 0.62978 0.91698 0.0
C469 C 0.21892 0.57035 0.91739 0.0
O470 O 0.04001 0.54627 0.93035 0.0
O471 O 0.97565 0.48287 0.01637 0.0
O472 O 0.93738 0.38648 0.03606 0.0
O473 O 0.97193 0.41065 0.97495 0.0
O474 O 0.98727 0.54076 0.97758 0.0
O475 O 1.00329 0.45494 0.92651 0.0
O476 O 1.00417 0.41992 0.11698 0.0
O477 O 0.06893 0.47873 0.03115 0.0
O478 O 0.08934 0.57978 1.00914 0.0
O479 O 0.08299 0.545 0.06859 0.0
O480 O 0.02471 0.40181 0.05795 0.0
O481 O 0.03333 0.50955 0.11994 0.0
C482 C 0.95399 0.51313 1.00518 0.0
C483 C 0.03927 0.50732 0.8703 0.0
C484 C 0.02293 0.48077 0.80421 0.0
C485 C 1.00145 0.47413 0.84099 0.0
C486 C 0.08279 0.51918 0.79697 0.0
C487 C 0.09826 0.54798 0.86199 0.0
C488 C 0.12026 0.55277 0.82584 0.0
C489 C 0.93594 0.37376 0.99995 0.0
C490 C 0.01523 0.50135 0.90855 0.0
C491 C 0.24234 0.54256 0.89581 0.0
C492 C 0.21644 0.48308 0.89707 0.0
C493 C 0.0724 0.43423 0.03947 0.0
C494 C 0.99819 0.45817 0.17624 0.0
C495 C 0.03527 0.47883 0.20794 0.0
C496 C 1.0108 0.47242 0.24396 0.0
C497 C 0.94919 0.44554 0.24817 0.0
C498 C 0.93657 0.43207 0.18124 0.0
C499 C 0.91232 0.42586 0.21686 0.0
C500 C 0.10788 0.58696 0.04392 0.0
C501 C 0.02479 0.46491 0.1386 0.0
H502 H 0.955 0.44458 0.84652 0.0
H503 H 0.0998 0.52498 0.76874 0.0
H504 H 0.12705 0.5772 0.88302 0.0
H505 H 0.16601 0.58393 0.81998 0.0
H506 H 0.08295 0.49888 0.20472 0.0
H507 H 0.92971 0.43969 0.2757 0.0
H508 H 0.9067 0.41613 0.15801 0.0
H509 H 0.8647 0.40532 0.22018 0.0
Tb510 Tb 0.55932 0.52907 0.0683 0.0
C511 C 0.48619 0.63482 0.95176 0.0
C512 C 0.38069 0.56961 0.95078 0.0
C513 C 0.41907 0.67189 0.94324 0.0
C514 C 0.43901 0.58012 0.9546 0.0
C515 C 0.47716 0.68122 0.94465 0.0
C516 C 0.37101 0.61619 0.94683 0.0
C517 C 0.58337 0.74144 0.93966 0.0
N518 N 0.54132 0.64207 0.95508 0.0
C519 C 0.58994 0.69396 0.94711 0.0
C520 C 0.52676 0.73531 0.93941 0.0
Tb521 Tb 0.54679 0.56398 0.97493 0.0
N522 N 0.45049 0.53718 0.9614 0.0
C523 C 0.40587 0.48144 0.95992 0.0
C524 C 0.33426 0.51303 0.953 0.0
C525 C 0.34693 0.46853 0.95598 0.0
H526 H 0.63401 0.69952 0.94836 0.0
H527 H 0.31126 0.42455 0.95693 0.0
H528 H 0.32684 0.6098 0.94745 0.0
H529 H 0.62198 0.78288 0.93484 0.0
H530 H 0.41514 0.44697 0.96392 0.0
H531 H 0.78533 0.65148 0.11626 0.0
H532 H 0.28872 0.50332 0.95327 0.0
H533 H 0.45947 0.38943 0.07164 0.0
H534 H 0.70059 0.63375 0.07657 0.0
H535 H 0.45105 0.30413 0.10246 0.0
H536 H 0.41084 0.70722 0.93945 0.0
H537 H 0.77978 0.57434 0.15607 0.0
H538 H 0.72367 0.47091 0.17519 0.0
H539 H 0.52187 0.77231 0.93472 0.0
H540 H 0.63552 0.37521 0.16842 0.0
N541 N 0.6481 0.54616 0.09206 0.0
C542 C 0.69814 0.59888 0.09254 0.0
C543 C 0.74278 0.56587 0.13802 0.0
C544 C 0.69257 0.51122 0.13596 0.0
C545 C 0.7462 0.60942 0.11543 0.0
C546 C 0.64588 0.50247 0.11192 0.0
H547 H 0.53427 0.31238 0.14047 0.0
N548 N 0.54916 0.44427 0.08874 0.0
C549 C 0.49195 0.34468 0.1045 0.0
C550 C 0.59555 0.4492 0.10912 0.0
C551 C 0.49698 0.3931 0.08697 0.0
C552 C 0.53921 0.34939 0.12577 0.0
C553 C 0.59139 0.40233 0.12894 0.0
O554 O 0.49744 0.50897 0.11135 0.0
O555 O 0.50644 0.5449 0.02895 0.0
O556 O 0.55953 0.63582 1.01123 0.0
O557 O 0.6047 0.62273 0.06319 0.0
O558 O 0.46049 0.48108 0.06456 0.0
O559 O 0.5858 0.58054 0.11753 0.0
O560 O 0.59898 0.59153 0.92597 0.0
O561 O 0.60444 0.55098 1.01319 0.0
O562 O 0.56564 0.46561 0.0341 0.0
O563 O 0.51733 0.47033 0.98083 0.0
O564 O 0.64078 0.62224 0.98209 0.0
O565 O 0.52292 0.50765 0.92879 0.0
C566 C 0.45372 0.51024 0.03879 0.0
C567 C 0.53496 0.53115 0.17291 0.0
C568 C 0.52794 0.54479 0.24002 0.0
C569 C 0.53533 0.56539 0.20313 0.0
C570 C 0.5235 0.49152 0.24661 0.0
C571 C 0.52735 0.47678 0.18042 0.0
C572 C 0.52346 0.45787 0.21693 0.0
C573 C 0.59026 0.65473 0.04286 0.0
C574 C 0.53484 0.54896 0.1338 0.0
C575 C 0.63808 0.41053 0.15263 0.0
C576 C 0.68812 0.46508 0.15663 0.0
C577 C 0.6548 0.59292 1.00368 0.0
C578 C 0.54504 0.55155 0.8696 0.0
C579 C 0.56695 0.5379 0.83743 0.0
C580 C 0.54814 0.54367 0.8015 0.0
C581 C 0.50746 0.56312 0.79796 0.0
C582 C 0.50373 0.57021 0.86524 0.0
C583 C 0.48513 0.57598 0.82976 0.0
C584 C 0.53674 0.44302 1.00263 0.0
C585 C 0.56428 0.54493 0.90736 0.0
H586 H 0.53786 0.60613 0.19784 0.0
H587 H 0.51784 0.47507 0.27475 0.0
H588 H 0.52153 0.44751 0.15821 0.0
H589 H 0.51791 0.41594 0.22212 0.0
H590 H 0.59904 0.52357 0.84025 0.0
H591 H 0.49315 0.56843 0.77059 0.0
H592 H 0.48557 0.58021 0.88912 0.0
H593 H 0.45343 0.59069 0.82693 0.0
Tb594 Tb 0.13218 0.32397 0.30703 0.0
C595 C 0.23621 0.47655 0.44746 0.0
C596 C 0.33313 0.48514 0.45112 0.0
C597 C 0.31313 0.5516 0.48583 0.0
C598 C 0.27442 0.45734 0.43737 0.0
C599 C 0.2553 0.52456 0.47127 0.0
C600 C 0.35174 0.53147 0.47611 0.0
C601 C 0.15715 0.51262 0.46702 0.0
N602 N 0.17974 0.44711 0.43467 0.0
C603 C 0.13983 0.46412 0.4445 0.0
C604 C 0.21509 0.54272 0.48076 0.0
Tb605 Tb 0.15216 0.36185 0.40457 0.0
N606 N 0.25303 0.40956 0.41559 0.0
C607 C 0.28957 0.38866 0.40549 0.0
C608 C 0.3706 0.46429 0.44041 0.0
C609 C 0.34884 0.41617 0.41717 0.0
H610 H 0.09408 0.43942 0.43549 0.0
H611 H 0.37748 0.39967 0.40864 0.0
H612 H 0.39566 0.55175 0.4884 0.0
H613 H 0.12539 0.52583 0.47456 0.0
H614 H 0.27418 0.3515 0.3877 0.0
H615 H 0.8961 0.19723 0.28766 0.0
H616 H 0.41615 0.4847 0.45012 0.0
H617 H 0.24384 0.30806 0.27608 0.0
H618 H 0.98901 0.27977 0.31019 0.0
H619 H 0.25622 0.23892 0.23715 0.0
H620 H 0.32829 0.58776 0.50486 0.0
H621 H 0.89882 0.11959 0.25219 0.0
H622 H 0.96045 0.08377 0.22008 0.0
H623 H 0.22808 0.57922 0.49917 0.0
H624 H 0.05759 0.09294 0.20817 0.0
N625 N 0.04316 0.24494 0.29321 0.0
C626 C 0.99045 0.24404 0.29741 0.0
C627 C 0.93943 0.15385 0.26415 0.0
C628 C 0.99388 0.15629 0.25824 0.0
C629 C 0.93773 0.19781 0.28397 0.0
C630 C 0.04546 0.2022 0.27415 0.0
H631 H 0.16812 0.15119 0.21381 0.0
N632 N 0.14948 0.25767 0.27771 0.0
C633 C 0.21225 0.23 0.24503 0.0
C634 C 0.10065 0.20929 0.26548 0.0
C635 C 0.205 0.26902 0.26722 0.0
C636 C 0.16243 0.18036 0.2321 0.0
C637 C 0.10581 0.16975 0.24195 0.0
O638 O 0.18075 0.3693 0.25961 0.0
O639 O 0.18562 0.38425 0.34954 0.0
O640 O 0.13467 0.4242 0.37414 0.0
O641 O 0.08696 0.37166 0.32075 0.0
O642 O 0.22992 0.38349 0.30404 0.0
O643 O 0.0881 0.34154 0.26392 0.0
O644 O 0.1068 0.3491 0.45608 0.0
O645 O 0.09165 0.29824 0.36378 0.0
O646 O 0.14939 0.26129 0.33211 0.0
O647 O 0.17129 0.29062 0.39462 0.0
O648 O 0.05951 0.33505 0.40009 0.0
O649 O 0.15406 0.30497 0.44373 0.0
C650 C 0.23664 0.40898 0.33553 0.0
C651 C 0.12646 0.34289 0.20289 0.0
C652 C 0.14985 0.3586 0.13607 0.0
C653 C 0.15732 0.38013 0.1731 0.0
C654 C 0.11428 0.29959 0.12953 0.0
C655 C 0.0874 0.28502 0.19458 0.0
C656 C 0.08299 0.26313 0.15863 0.0
C657 C 0.10498 0.41744 0.34237 0.0
C658 C 0.13446 0.36424 0.24221 0.0
C659 C 0.05454 0.12314 0.22695 0.0
C660 C 0.99894 0.11723 0.23438 0.0
C661 C 0.04321 0.29356 0.37641 0.0
C662 C 0.1547 0.33174 0.50695 0.0
C663 C 0.12173 0.30911 0.54008 0.0
C664 C 0.15107 0.32156 0.57516 0.0
C665 C 0.21246 0.35965 0.57686 0.0
C666 C 0.21658 0.36598 0.50975 0.0
C667 C 0.24492 0.38151 0.54432 0.0
C668 C 0.16616 0.25659 0.36591 0.0
C669 C 0.12601 0.31654 0.4694 0.0
H670 H 0.18435 0.42572 0.17838 0.0
H671 H 0.1073 0.28236 0.10133 0.0
H672 H 0.05878 0.2568 0.21551 0.0
H673 H 0.05316 0.2181 0.15303 0.0
H674 H 0.07441 0.27957 0.53839 0.0
H675 H 0.23582 0.37009 0.60338 0.0
H676 H 0.24361 0.379 0.48523 0.0
H677 H 0.29263 0.40865 0.54579 0.0
Tb678 Tb 0.71066 0.83349 0.30963 0.0
C679 C 0.53363 0.76109 0.42628 0.0
C680 C 0.52656 0.84717 0.428 0.0
C681 C 0.43822 0.75447 0.43666 0.0
C682 C 0.5603 0.8198 0.42367 0.0
C683 C 0.47285 0.72797 0.43465 0.0
C684 C 0.4651 0.81387 0.43254 0.0
C685 C 0.48582 0.64556 0.43931 0.0
N686 N 0.56768 0.73657 0.42159 0.0
C687 C 0.54578 0.68024 0.43086 0.0
C688 C 0.44876 0.66928 0.44021 0.0
Tb689 Tb 0.66353 0.79646 0.40332 0.0
N690 N 0.61885 0.84984 0.41542 0.0
C691 C 0.64774 0.90836 0.41519 0.0
C692 C 0.55526 0.90689 0.4261 0.0
C693 C 0.61642 0.93769 0.42039 0.0
H694 H 0.574 0.66132 0.42957 0.0
H695 H 0.63935 0.98397 0.41945 0.0
H696 H 0.43805 0.83357 0.43145 0.0
H697 H 0.46832 0.60042 0.44398 0.0
H698 H 0.69467 0.93293 0.41062 0.0
H699 H 0.73968 0.64962 0.28205 0.0
H700 H 0.53076 0.92953 0.42917 0.0
H701 H 0.80483 0.97515 0.29566 0.0
H702 H 0.69518 0.69899 0.31319 0.0
H703 H 0.90064 0.0339 0.26864 0.0
H704 H 0.39076 0.72939 0.4408 0.0
H705 H 0.82768 0.7027 0.24217 0.0
H706 H 0.90226 0.79554 0.21416 0.0
H707 H 0.40197 0.64242 0.44567 0.0
H708 H 0.94756 0.90012 0.21172 0.0
N709 N 0.75822 0.78273 0.29357 0.0
C710 C 0.73399 0.72447 0.29679 0.0
C711 C 0.80904 0.72551 0.25675 0.0
C712 C 0.83414 0.78466 0.25356 0.0
C713 C 0.7594 0.69549 0.27909 0.0
C714 C 0.80869 0.81257 0.27359 0.0
H715 H 0.95124 0.98952 0.23486 0.0
N716 N 0.80625 0.89612 0.28998 0.0
C717 C 0.88297 0.98838 0.26913 0.0
C718 C 0.83411 0.87122 0.27234 0.0
C719 C 0.82905 0.95423 0.28665 0.0
C720 C 0.91095 0.96312 0.25031 0.0
C721 C 0.88559 0.90369 0.25072 0.0
O722 O 0.70668 0.87961 0.26369 0.0
O723 O 0.64232 0.81621 0.3497 0.0
O724 O 0.60405 0.71981 0.36939 0.0
O725 O 0.63859 0.74398 0.30829 0.0
O726 O 0.65394 0.8741 0.31092 0.0
O727 O 0.66995 0.78828 0.25985 0.0
O728 O 0.67083 0.75325 0.45031 0.0
O729 O 0.7356 0.81207 0.36449 0.0
O730 O 0.75601 0.91311 0.34248 0.0
O731 O 0.74966 0.87833 0.40192 0.0
O732 O 0.69138 0.73515 0.39128 0.0
O733 O 0.7 0.84289 0.45327 0.0
C734 C 0.62066 0.84646 0.33852 0.0
C735 C 0.70593 0.84065 0.20363 0.0
C736 C 0.68959 0.8141 0.13754 0.0
C737 C 0.66811 0.80747 0.17432 0.0
C738 C 0.74946 0.85252 0.1303 0.0
C739 C 0.76493 0.88131 0.19533 0.0
C740 C 0.78693 0.88611 0.15917 0.0
C741 C 0.60261 0.7071 0.33329 0.0
C742 C 0.6819 0.83468 0.24188 0.0
C743 C 0.909 0.8759 0.22914 0.0
C744 C 0.88311 0.81641 0.23041 0.0
C745 C 0.73907 0.76757 0.3728 0.0
C746 C 0.66486 0.7915 0.50958 0.0
C747 C 0.70194 0.81217 0.54127 0.0
C748 C 0.67746 0.80575 0.57729 0.0
C749 C 0.61585 0.77887 0.58151 0.0
C750 C 0.60324 0.7654 0.51457 0.0
C751 C 0.57899 0.75919 0.55019 0.0
C752 C 0.77455 0.92029 0.37725 0.0
C753 C 0.69146 0.79825 0.47193 0.0
H754 H 0.62167 0.77791 0.17985 0.0
H755 H 0.76647 0.85831 0.10207 0.0
H756 H 0.79372 0.91053 0.21635 0.0
H757 H 0.83268 0.91726 0.15331 0.0
H758 H 0.74962 0.83221 0.53805 0.0
H759 H 0.59638 0.77302 0.60903 0.0
H760 H 0.57337 0.74947 0.49135 0.0
H761 H 0.53137 0.73865 0.55351 0.0
Tb762 Tb 0.22599 0.8624 0.40163 0.0
C763 C 0.15286 0.96815 0.28509 0.0
C764 C 0.04736 0.90295 0.28411 0.0
C765 C 0.08573 1.00522 0.27658 0.0
C766 C 0.10567 0.91346 0.28793 0.0
C767 C 0.14382 0.01455 0.27799 0.0
C768 C 0.03768 0.94953 0.28016 0.0
C769 C 0.25004 0.07477 0.273 0.0
N770 N 0.20799 0.9754 0.28842 0.0
C771 C 0.25661 0.0273 0.28044 0.0
C772 C 0.19343 0.06865 0.27275 0.0
Tb773 Tb 0.21345 0.89731 0.30826 0.0
N774 N 0.11716 0.87051 0.29473 0.0
C775 C 0.07254 0.81477 0.29325 0.0
C776 C 1.00092 0.84637 0.28633 0.0
C777 C 0.01359 0.80186 0.28931 0.0
H778 H 0.30068 0.03285 0.28169 0.0
H779 H 0.97793 0.75789 0.29026 0.0
H780 H 0.99351 0.94314 0.28078 0.0
H781 H 0.28865 0.11622 0.26818 0.0
H782 H 0.08181 0.78031 0.29725 0.0
H783 H 0.45199 0.98481 0.44959 0.0
H784 H 0.95539 0.83665 0.28661 0.0
H785 H 0.12613 0.72277 0.40497 0.0
H786 H 0.36726 0.96708 0.4099 0.0
H787 H 0.11772 0.63747 0.43579 0.0
H788 H 0.07751 0.04055 0.27279 0.0
H789 H 0.44645 0.90768 0.4894 0.0
H790 H 0.39034 0.80425 0.50853 0.0
H791 H 0.18853 0.10564 0.26805 0.0
H792 H 0.30219 0.70854 0.50175 0.0
N793 N 0.31477 0.87949 0.42539 0.0
C794 C 0.36481 0.93222 0.42588 0.0
C795 C 0.40944 0.8992 0.47135 0.0
C796 C 0.35924 0.84455 0.4693 0.0
C797 C 0.41287 0.94275 0.44876 0.0
C798 C 0.31255 0.8358 0.44526 0.0
H799 H 0.20094 0.64571 0.47381 0.0
N800 N 0.21582 0.7776 0.42208 0.0
C801 C 0.15862 0.67802 0.43784 0.0
C802 C 0.26222 0.78254 0.44245 0.0
C803 C 0.16365 0.72643 0.42031 0.0
C804 C 0.20588 0.68273 0.4591 0.0
C805 C 0.25806 0.73567 0.46227 0.0
O806 O 0.16411 0.8423 0.44469 0.0
O807 O 0.17311 0.87823 0.36229 0.0
O808 O 0.2262 0.96916 0.34456 0.0
O809 O 0.27137 0.95606 0.39653 0.0
O810 O 0.12716 0.81442 0.39789 0.0
O811 O 0.25246 0.91387 0.45086 0.0
O812 O 0.26565 0.92486 0.2593 0.0
O813 O 0.27111 0.88431 0.34653 0.0
O814 O 0.23231 0.79895 0.36744 0.0
O815 O 0.184 0.80366 0.31417 0.0
O816 O 0.30744 0.95557 0.31543 0.0
O817 O 0.18959 0.84098 0.26212 0.0
C818 C 0.12038 0.84358 0.37213 0.0
C819 C 0.20162 0.86449 0.50625 0.0
C820 C 0.19461 0.87813 0.57335 0.0
C821 C 0.202 0.89872 0.53646 0.0
C822 C 0.19016 0.82486 0.57994 0.0
C823 C 0.19402 0.81011 0.51375 0.0
C824 C 0.19013 0.79121 0.55026 0.0
C825 C 0.25693 0.98806 0.37619 0.0
C826 C 0.20151 0.88229 0.46714 0.0
C827 C 0.30475 0.74386 0.48596 0.0
C828 C 0.35479 0.79841 0.48997 0.0
C829 C 0.32147 0.92626 0.33701 0.0
C830 C 0.21171 0.88488 0.20293 0.0
C831 C 0.23362 0.87123 0.17076 0.0
C832 C 0.21481 0.877 0.13484 0.0
C833 C 0.17413 0.89645 0.13129 0.0
C834 C 0.17039 0.90354 0.19858 0.0
C835 C 0.1518 0.90932 0.16309 0.0
C836 C 0.20341 0.77636 0.33596 0.0
C837 C 0.23094 0.87827 0.24069 0.0
H838 H 0.20453 0.93946 0.53117 0.0
H839 H 0.18451 0.8084 0.60808 0.0
H840 H 0.1882 0.78084 0.49154 0.0
H841 H 0.18457 0.74927 0.55545 0.0
H842 H 0.2657 0.8569 0.17358 0.0
H843 H 0.15982 0.90177 0.10393 0.0
H844 H 0.15224 0.91355 0.22245 0.0
H845 H 0.12009 0.92403 0.16026 0.0
Tb846 Tb 0.79884 0.6573 0.64037 0.0
C847 C 0.90288 0.80988 0.78079 0.0
C848 C 0.99979 0.81847 0.78446 0.0
C849 C 0.9798 0.88493 0.81917 0.0
C850 C 0.94109 0.79068 0.7707 0.0
C851 C 0.92196 0.85789 0.80461 0.0
C852 C 0.01841 0.8648 0.80945 0.0
C853 C 0.82381 0.84595 0.80035 0.0
N854 N 0.84641 0.78044 0.768 0.0
C855 C 0.8065 0.79745 0.77783 0.0
C856 C 0.88175 0.87605 0.81409 0.0
Tb857 Tb 0.81883 0.69518 0.7379 0.0
N858 N 0.91969 0.74289 0.74893 0.0
C859 C 0.95624 0.72199 0.73883 0.0
C860 C 0.03727 0.79762 0.77374 0.0
C861 C 0.01551 0.7495 0.7505 0.0
H862 H 0.76075 0.77275 0.76882 0.0
H863 H 0.04415 0.733 0.74198 0.0
H864 H 0.06233 0.88508 0.82173 0.0
H865 H 0.79205 0.85916 0.80789 0.0
H866 H 0.94084 0.68483 0.72103 0.0
H867 H 0.56276 0.53056 0.621 0.0
H868 H 0.08281 0.81803 0.78345 0.0
H869 H 0.91051 0.64139 0.60941 0.0
H870 H 0.65567 0.6131 0.64353 0.0
H871 H 0.92289 0.57225 0.57048 0.0
H872 H 0.99495 0.92109 0.83819 0.0
H873 H 0.56548 0.45293 0.58553 0.0
H874 H 0.62712 0.4171 0.55342 0.0
H875 H 0.89475 0.91255 0.8325 0.0
H876 H 0.72425 0.42627 0.5415 0.0
N877 N 0.70982 0.57827 0.62654 0.0
C878 C 0.65711 0.57738 0.63074 0.0
C879 C 0.6061 0.48718 0.59749 0.0
C880 C 0.66054 0.48963 0.59158 0.0
C881 C 0.60439 0.53115 0.6173 0.0
C882 C 0.71213 0.53554 0.60749 0.0
H883 H 0.83479 0.48452 0.54714 0.0
N884 N 0.81614 0.59101 0.61105 0.0
C885 C 0.87892 0.56333 0.57836 0.0
C886 C 0.76731 0.54262 0.59881 0.0
C887 C 0.87167 0.60235 0.60055 0.0
C888 C 0.82909 0.51369 0.56543 0.0
C889 C 0.77247 0.50308 0.57528 0.0
O890 O 0.84742 0.70263 0.59294 0.0
O891 O 0.85228 0.71758 0.68287 0.0
O892 O 0.80134 0.75753 0.70747 0.0
O893 O 0.75363 0.705 0.65409 0.0
O894 O 0.89658 0.71682 0.63738 0.0
O895 O 0.75476 0.67487 0.59725 0.0
O896 O 0.77346 0.68243 0.78941 0.0
O897 O 0.75832 0.63158 0.69712 0.0
O898 O 0.81605 0.59462 0.66544 0.0
O899 O 0.83796 0.62396 0.72795 0.0
O900 O 0.72618 0.66838 0.73343 0.0
O901 O 0.82072 0.6383 0.77706 0.0
C902 C 0.9033 0.74232 0.66886 0.0
C903 C 0.79313 0.67622 0.53622 0.0
C904 C 0.81652 0.69193 0.46941 0.0
C905 C 0.82399 0.71346 0.50644 0.0
C906 C 0.78094 0.63292 0.46286 0.0
C907 C 0.75406 0.61835 0.52792 0.0
C908 C 0.74966 0.59646 0.49196 0.0
C909 C 0.77164 0.75077 0.6757 0.0
C910 C 0.80112 0.69757 0.57554 0.0
C911 C 0.7212 0.45648 0.56028 0.0
C912 C 0.6656 0.45057 0.56771 0.0
C913 C 0.70987 0.62689 0.70974 0.0
C914 C 0.82136 0.66507 0.84029 0.0
C915 C 0.78839 0.64244 0.87342 0.0
C916 C 0.81774 0.65489 0.9085 0.0
C917 C 0.87913 0.69298 0.91019 0.0
C918 C 0.88325 0.69931 0.84308 0.0
C919 C 0.91159 0.71484 0.87765 0.0
C920 C 0.83283 0.58992 0.69925 0.0
C921 C 0.79267 0.64987 0.80274 0.0
H922 H 0.85102 0.75905 0.51171 0.0
H923 H 0.77397 0.61569 0.43466 0.0
H924 H 0.72545 0.59013 0.54884 0.0
H925 H 0.71982 0.55143 0.48636 0.0
H926 H 0.74107 0.6129 0.87173 0.0
H927 H 0.90249 0.70342 0.93671 0.0
H928 H 0.91027 0.71233 0.81857 0.0
H929 H 0.95929 0.74198 0.87912 0.0
Tb930 Tb 0.37733 0.16682 0.64296 0.0
C931 C 0.20029 0.09442 0.75962 0.0
C932 C 0.19323 0.1805 0.76133 0.0
C933 C 0.10489 0.0878 0.76999 0.0
C934 C 0.22696 0.15313 0.757 0.0
C935 C 0.13952 0.0613 0.76799 0.0
C936 C 0.13176 0.1472 0.76588 0.0
C937 C 0.15249 0.97889 0.77264 0.0
N938 N 0.23435 0.0699 0.75492 0.0
C939 C 0.21245 0.01357 0.7642 0.0
C940 C 0.11542 1.00261 0.77354 0.0
Tb941 Tb 0.33019 0.12979 0.73665 0.0
N942 N 0.28551 0.18318 0.74876 0.0
C943 C 0.3144 0.2417 0.74853 0.0
C944 C 0.22193 0.24023 0.75943 0.0
C945 C 0.28308 0.27102 0.75372 0.0
H946 H 0.24067 0.99466 0.7629 0.0
H947 H 0.30602 0.3173 0.75278 0.0
H948 H 0.10472 0.16691 0.76479 0.0
H949 H 0.13499 0.93376 0.77732 0.0
H950 H 0.36133 0.26626 0.74395 0.0
H951 H 0.40635 0.98295 0.61538 0.0
H952 H 0.19743 0.26286 0.7625 0.0
H953 H 0.4715 0.30848 0.629 0.0
H954 H 0.36185 0.03233 0.64653 0.0
H955 H 0.56731 0.36723 0.60197 0.0
H956 H 0.05743 0.06273 0.77413 0.0
H957 H 0.49434 0.03603 0.5755 0.0
H958 H 0.56893 0.12887 0.54749 0.0
H959 H 0.06863 0.97575 0.779 0.0
H960 H 0.61423 0.23345 0.54505 0.0
N961 N 0.42489 0.11606 0.62691 0.0
C962 C 0.40066 0.05781 0.63012 0.0
C963 C 0.47571 0.05884 0.59008 0.0
C964 C 0.50081 0.118 0.58689 0.0
C965 C 0.42607 0.02882 0.61243 0.0
C966 C 0.47536 0.1459 0.60693 0.0
H967 H 0.61791 0.32285 0.56819 0.0
N968 N 0.47291 0.22945 0.62331 0.0
C969 C 0.54963 0.32171 0.60247 0.0
C970 C 0.50078 0.20455 0.60567 0.0
C971 C 0.49571 0.28756 0.61999 0.0
C972 C 0.57762 0.29645 0.58365 0.0
C973 C 0.55226 0.23702 0.58406 0.0
O974 O 0.37335 0.21294 0.59702 0.0
O975 O 0.30899 0.14954 0.68304 0.0
O976 O 0.27072 0.05314 0.70273 0.0
O977 O 0.30526 0.07731 0.64162 0.0
O978 O 0.3206 0.20743 0.64425 0.0
O979 O 0.33662 0.12161 0.59318 0.0
O980 O 0.3375 0.08658 0.78365 0.0
O981 O 0.40227 0.1454 0.69782 0.0
O982 O 0.42268 0.24645 0.67581 0.0
O983 O 0.41633 0.21166 0.73526 0.0
O984 O 0.35804 0.06848 0.72461 0.0
O985 O 0.36667 0.17622 0.7866 0.0
C986 C 0.28733 0.1798 0.67185 0.0
C987 C 0.3726 0.17399 0.53697 0.0
C988 C 0.35626 0.14743 0.47087 0.0
C989 C 0.33478 0.1408 0.50765 0.0
C990 C 0.41613 0.18585 0.46364 0.0
C991 C 0.43159 0.21464 0.52866 0.0
C992 C 0.4536 0.21944 0.4925 0.0
C993 C 0.26927 0.04043 0.66662 0.0
C994 C 0.34857 0.16801 0.57521 0.0
C995 C 0.57567 0.20923 0.56248 0.0
C996 C 0.54977 0.14974 0.56374 0.0
C997 C 0.40573 0.1009 0.70613 0.0
C998 C 0.33152 0.12484 0.84291 0.0
C999 C 0.3686 0.1455 0.87461 0.0
C1000 C 0.34413 0.13909 0.91062 0.0
C1001 C 0.28252 0.1122 0.91484 0.0
C1002 C 0.2699 0.09874 0.8479 0.0
C1003 C 0.24566 0.09253 0.88352 0.0
C1004 C 0.44121 0.25362 0.71059 0.0
C1005 C 0.35812 0.13158 0.80526 0.0
H1006 H 0.28834 0.11125 0.51318 0.0
H1007 H 0.43314 0.19164 0.4354 0.0
H1008 H 0.46039 0.24386 0.54968 0.0
H1009 H 0.49935 0.25059 0.48665 0.0
H1010 H 0.41629 0.16554 0.87138 0.0
H1011 H 0.26304 0.10635 0.94236 0.0
H1012 H 0.24004 0.0828 0.82468 0.0
H1013 H 0.19803 0.07199 0.88684 0.0
Tb1014 Tb 0.89265 0.19573 0.73497 0.0
C1015 C 0.81953 0.30148 0.61843 0.0
C1016 C 0.71403 0.23628 0.61744 0.0
C1017 C 0.7524 0.33855 0.60991 0.0
C1018 C 0.77234 0.24679 0.62126 0.0
C1019 C 0.81049 0.34789 0.61132 0.0
C1020 C 0.70435 0.28286 0.6135 0.0
C1021 C 0.9167 0.4081 0.60633 0.0
N1022 N 0.87465 0.30873 0.62175 0.0
C1023 C 0.92327 0.36063 0.61378 0.0
C1024 C 0.8601 0.40198 0.60608 0.0
Tb1025 Tb 0.88012 0.23064 0.64159 0.0
N1026 N 0.78382 0.20384 0.62806 0.0
C1027 C 0.7392 0.1481 0.62658 0.0
C1028 C 0.66759 0.1797 0.61967 0.0
C1029 C 0.68026 0.13519 0.62265 0.0
H1030 H 0.96734 0.36619 0.61502 0.0
H1031 H 0.64459 0.09122 0.6236 0.0
H1032 H 0.66017 0.27647 0.61412 0.0
H1033 H 0.95532 0.44955 0.60151 0.0
H1034 H 0.74848 0.11364 0.63058 0.0
H1035 H 0.11866 0.31814 0.78292 0.0
H1036 H 0.62206 0.16998 0.61994 0.0
H1037 H 0.7928 0.0561 0.73831 0.0
H1038 H 0.03392 0.30041 0.74323 0.0
H1039 H 0.78439 0.9708 0.76912 0.0
H1040 H 0.74418 0.37388 0.60612 0.0
H1041 H 0.11311 0.24101 0.82273 0.0
H1042 H 0.057 0.13758 0.84186 0.0
H1043 H 0.8552 0.43898 0.60139 0.0
H1044 H 0.96885 0.04187 0.83509 0.0
N1045 N 0.98143 0.21283 0.75873 0.0
C1046 C 0.03148 0.26555 0.75921 0.0
C1047 C 0.07611 0.23253 0.80469 0.0
C1048 C 0.0259 0.17789 0.80263 0.0
C1049 C 0.07954 0.27608 0.7821 0.0
C1050 C 0.97921 0.16913 0.77859 0.0
H1051 H 0.86761 0.97904 0.80714 0.0
N1052 N 0.88249 0.11093 0.75541 0.0
C1053 C 0.82528 0.01135 0.77117 0.0
C1054 C 0.92888 0.11587 0.77578 0.0
C1055 C 0.83032 0.05976 0.75364 0.0
C1056 C 0.87254 0.01606 0.79244 0.0
C1057 C 0.92472 0.069 0.79561 0.0
O1058 O 0.83077 0.17563 0.77802 0.0
O1059 O 0.83978 0.21156 0.69562 0.0
O1060 O 0.89286 0.30249 0.6779 0.0
O1061 O 0.93804 0.2894 0.72986 0.0
O1062 O 0.79382 0.14775 0.73122 0.0
O1063 O 0.91913 0.2472 0.7842 0.0
O1064 O 0.93231 0.2582 0.59264 0.0
O1065 O 0.93777 0.21765 0.67986 0.0
O1066 O 0.89897 0.13228 0.70077 0.0
O1067 O 0.85067 0.137 0.6475 0.0
O1068 O 0.97411 0.2889 0.64876 0.0
O1069 O 0.85626 0.17432 0.59546 0.0
C1070 C 0.78705 0.17691 0.70546 0.0
C1071 C 0.86829 0.19782 0.83958 0.0
C1072 C 0.86127 0.21146 0.90669 0.0
C1073 C 0.86866 0.23206 0.86979 0.0
C1074 C 0.85683 0.15819 0.91327 0.0
C1075 C 0.86069 0.14345 0.84709 0.0
C1076 C 0.8568 0.12454 0.8836 0.0
C1077 C 0.92359 0.32139 0.70953 0.0
C1078 C 0.86818 0.21563 0.80047 0.0
C1079 C 0.97142 0.07719 0.8193 0.0
C1080 C 0.02145 0.13175 0.8233 0.0
C1081 C 0.98813 0.25959 0.67034 0.0
C1082 C 0.87838 0.21821 0.53626 0.0
C1083 C 0.90029 0.20457 0.50409 0.0
C1084 C 0.88148 0.21034 0.46817 0.0
C1085 C 0.8408 0.22979 0.46463 0.0
C1086 C 0.83706 0.23687 0.53191 0.0
C1087 C 0.81847 0.24265 0.49643 0.0
C1088 C 0.87007 0.10969 0.6693 0.0
C1089 C 0.89761 0.2116 0.57402 0.0
H1090 H 0.8712 0.27279 0.86451 0.0
H1091 H 0.85118 0.14173 0.94141 0.0
H1092 H 0.85487 0.11418 0.82487 0.0
H1093 H 0.85124 0.0826 0.88879 0.0
H1094 H 0.93237 0.19023 0.50691 0.0
H1095 H 0.82648 0.2351 0.43726 0.0
H1096 H 0.81891 0.24688 0.55579 0.0
H1097 H 0.78676 0.25736 0.49359 0.0
loop_
_geom_bond_atom_site_label_1
_geom_bond_atom_site_label_2
_geom_bond_distance
_geom_bond_site_symmetry_2
_ccdc_geom_bond_type
H0 C1 0.949 . S
C1 H0 0.949 . S
C1 C2 1.395 . S
C1 C3 1.391 . S
C2 C1 1.395 . S
C2 C5 1.390 . S
C3 C1 1.391 . S
C3 C7 1.387 . S
C3 C8 1.491 . S
H4 C5 0.950 . S
C5 C2 1.390 . S
C5 H4 0.950 . S
C5 C6 1.378 . S
C6 C5 1.378 . S
C6 C7 1.409 . S
C7 C3 1.387 . S
C7 C6 1.409 . S
C7 H9 0.951 . S
C8 C3 1.491 . S
C8 C10 1.382 . S
C8 C12 1.404 . S
H9 C7 0.951 . S
C10 C8 1.382 . S
C10 C11 1.390 . S
C10 H15 0.949 . S
C11 C10 1.390 . S
C11 C16 1.399 . S
C12 C8 1.404 . S
C12 H13 0.950 . S
C12 C14 1.375 . S
H13 C12 0.950 . S
C14 C12 1.375 . S
C14 C16 1.382 . S
C14 H18 0.950 . S
H15 C10 0.949 . S
C16 C11 1.399 . S
C16 C14 1.382 . S
C16 H17 0.952 . S
H17 C16 0.952 . S
H18 C14 0.950 . S
H19 C20 0.949 . S
C20 H19 0.949 . S
C20 C21 1.395 . S
C20 C22 1.391 . S
C21 C20 1.395 . S
C21 C24 1.390 . S
C22 C20 1.391 . S
C22 C26 1.387 . S
C22 C27 1.491 . S
H23 C24 0.950 . S
C24 C21 1.390 . S
C24 H23 0.950 . S
C24 C25 1.378 . S
C25 C24 1.378 . S
C25 C26 1.409 . S
C26 C22 1.387 . S
C26 C25 1.409 . S
C26 H28 0.951 . S
C27 C22 1.491 . S
C27 C29 1.382 1_545 S
C27 C31 1.404 . S
H28 C26 0.951 . S
C29 C27 1.382 1_565 S
C29 C30 1.390 . S
C29 H34 0.949 . S
C30 C29 1.390 . S
C30 C35 1.399 . S
C31 C27 1.404 . S
C31 H32 0.950 . S
C31 C33 1.375 1_545 S
H32 C31 0.950 . S
C33 C31 1.375 1_565 S
C33 C35 1.382 . S
C33 H37 0.950 . S
H34 C29 0.949 . S
C35 C30 1.399 . S
C35 C33 1.382 . S
C35 H36 0.952 . S
H36 C35 0.952 . S
H37 C33 0.950 . S
H38 C39 0.949 . S
C39 H38 0.949 . S
C39 C40 1.395 . S
C39 C41 1.391 . S
C40 C39 1.395 . S
C40 C43 1.390 . S
C41 C39 1.391 . S
C41 C45 1.387 . S
C41 C46 1.491 . S
H42 C43 0.950 . S
C43 C40 1.390 . S
C43 H42 0.950 . S
C43 C44 1.378 . S
C44 C43 1.378 . S
C44 C45 1.409 . S
C45 C41 1.387 . S
C45 C44 1.409 . S
C45 H47 0.951 . S
C46 C41 1.491 . S
C46 C48 1.382 1_655 S
C46 C50 1.407 1_655 S
H47 C45 0.951 . S
C48 C46 1.382 1_455 S
C48 C49 1.390 . S
C48 H53 0.949 . S
C49 C48 1.390 . S
C49 C54 1.399 . S
C50 C46 1.407 1_455 S
C50 H51 0.933 1_455 S
C50 C52 1.388 . S
H51 C50 0.933 1_655 S
C52 C50 1.388 . S
C52 C54 1.382 . S
C52 H56 0.950 . S
H53 C48 0.949 . S
C54 C49 1.399 . S
C54 C52 1.382 . S
C54 H55 0.952 . S
H55 C54 0.952 . S
H56 C52 0.950 . S
H57 C58 0.949 . S
C58 H57 0.949 . S
C58 C59 1.395 . S
C58 C60 1.391 . S
C59 C58 1.395 . S
C59 C62 1.390 . S
C60 C58 1.391 . S
C60 C64 1.387 . S
C60 C65 1.491 . S
H61 C62 0.950 . S
C62 C59 1.390 . S
C62 H61 0.950 . S
C62 C63 1.378 . S
C63 C62 1.378 . S
C63 C64 1.409 . S
C64 C60 1.387 . S
C64 C63 1.409 . S
C64 H66 0.951 . S
C65 C60 1.491 . S
C65 C67 1.382 . S
C65 C69 1.404 . S
H66 C64 0.951 . S
C67 C65 1.382 . S
C67 C68 1.390 . S
C67 H72 0.949 . S
C68 C67 1.390 . S
C68 C73 1.399 . S
C69 C65 1.404 . S
C69 H70 0.950 . S
C69 C71 1.375 . S
H70 C69 0.950 . S
C71 C69 1.375 . S
C71 C73 1.382 . S
C71 H75 0.950 . S
H72 C67 0.949 . S
C73 C68 1.399 . S
C73 C71 1.382 . S
C73 H74 0.952 . S
H74 C73 0.952 . S
H75 C71 0.950 . S
H76 C77 0.949 . S
C77 H76 0.949 . S
C77 C78 1.395 . S
C77 C79 1.391 . S
C78 C77 1.395 . S
C78 C81 1.390 . S
C79 C77 1.391 . S
C79 C83 1.387 . S
C79 C84 1.491 . S
H80 C81 0.950 . S
C81 C78 1.390 . S
C81 H80 0.950 . S
C81 C82 1.378 . S
C82 C81 1.378 . S
C82 C83 1.409 . S
C83 C79 1.387 . S
C83 C82 1.409 . S
C83 H85 0.951 . S
C84 C79 1.491 . S
C84 C86 1.382 1_565 S
C84 C88 1.404 . S
H85 C83 0.951 . S
C86 C84 1.382 1_545 S
C86 C87 1.390 . S
C86 H91 0.949 . S
C87 C86 1.390 . S
C87 C92 1.399 . S
C88 C84 1.404 . S
C88 H89 0.950 . S
C88 C90 1.375 1_565 S
H89 C88 0.950 . S
C90 C88 1.375 1_545 S
C90 C92 1.382 . S
C90 H94 0.950 . S
H91 C86 0.949 . S
C92 C87 1.399 . S
C92 C90 1.382 . S
C92 H93 0.952 . S
H93 C92 0.952 . S
H94 C90 0.950 . S
H95 C96 0.949 . S
C96 H95 0.949 . S
C96 C97 1.395 . S
C96 C98 1.391 . S
C97 C96 1.395 . S
C97 C100 1.390 . S
C98 C96 1.391 . S
C98 C102 1.387 . S
C98 C103 1.491 . S
H99 C100 0.950 . S
C100 C97 1.390 . S
C100 H99 0.950 . S
C100 C101 1.378 . S
C101 C100 1.378 . S
C101 C102 1.409 . S
C102 C98 1.387 . S
C102 C101 1.409 . S
C102 H104 0.951 . S
C103 C98 1.491 . S
C103 C105 1.382 1_455 S
C103 C107 1.404 . S
H104 C102 0.951 . S
C105 C103 1.382 1_655 S
C105 C106 1.390 . S
C105 H110 0.949 . S
C106 C105 1.390 . S
C106 C111 1.399 . S
C107 C103 1.404 . S
C107 H108 0.950 . S
C107 C109 1.375 1_455 S
H108 C107 0.950 . S
C109 C107 1.375 1_655 S
C109 C111 1.382 . S
C109 H113 0.950 . S
H110 C105 0.949 . S
C111 C106 1.399 . S
C111 C109 1.382 . S
C111 H112 0.952 . S
H112 C111 0.952 . S
H113 C109 0.950 . S
H114 C115 0.949 . S
C115 H114 0.949 . S
C115 C116 1.395 . S
C115 C117 1.391 . S
C116 C115 1.395 . S
C116 C119 1.390 . S
C117 C115 1.391 . S
C117 C121 1.387 . S
C117 C122 1.491 . S
H118 C119 0.950 . S
C119 C116 1.390 . S
C119 H118 0.950 . S
C119 C120 1.378 . S
C120 C119 1.378 . S
C120 C121 1.409 . S
C121 C117 1.387 . S
C121 C120 1.409 . S
C121 H123 0.951 . S
C122 C117 1.491 . S
C122 C124 1.382 . S
C122 C126 1.404 . S
H123 C121 0.951 . S
C124 C122 1.382 . S
C124 C125 1.390 . S
C124 H129 0.949 . S
C125 C124 1.390 . S
C125 C130 1.399 . S
C126 C122 1.404 . S
C126 H127 0.950 . S
C126 C128 1.375 . S
H127 C126 0.950 . S
C128 C126 1.375 . S
C128 C130 1.382 . S
C128 H132 0.950 . S
H129 C124 0.949 . S
C130 C125 1.399 . S
C130 C128 1.382 . S
C130 H131 0.952 . S
H131 C130 0.952 . S
H132 C128 0.950 . S
H133 C134 0.949 . S
C134 H133 0.949 . S
C134 C135 1.395 . S
C134 C136 1.391 . S
C135 C134 1.395 . S
C135 C138 1.390 . S
C136 C134 1.391 . S
C136 C140 1.387 . S
C136 C141 1.491 . S
H137 C138 0.950 . S
C138 C135 1.390 . S
C138 H137 0.950 . S
C138 C139 1.378 . S
C139 C138 1.378 . S
C139 C140 1.409 . S
C140 C136 1.387 . S
C140 C139 1.409 . S
C140 H142 0.951 . S
C141 C136 1.491 . S
C141 C143 1.382 . S
C141 C145 1.404 . S
H142 C140 0.951 . S
C143 C141 1.382 . S
C143 C144 1.390 . S
C143 H148 0.949 . S
C144 C143 1.390 . S
C144 C149 1.399 . S
C145 C141 1.404 . S
C145 H146 0.950 . S
C145 C147 1.375 . S
H146 C145 0.950 . S
C147 C145 1.375 . S
C147 C149 1.382 . S
C147 H151 0.950 . S
H148 C143 0.949 . S
C149 C144 1.399 . S
C149 C147 1.382 . S
C149 H150 0.952 . S
H150 C149 0.952 . S
H151 C147 0.950 . S
H152 C153 0.949 . S
C153 H152 0.949 . S
C153 C154 1.395 . S
C153 C155 1.391 . S
C154 C153 1.395 . S
C154 C157 1.390 . S
C155 C153 1.391 . S
C155 C159 1.387 . S
C155 C160 1.491 . S
H156 C157 0.950 . S
C157 C154 1.390 . S
C157 H156 0.950 . S
C157 C158 1.378 . S
C158 C157 1.378 . S
C158 C159 1.409 . S
C159 C155 1.387 . S
C159 C158 1.409 . S
C159 H161 0.951 . S
C160 C155 1.491 . S
C160 C162 1.382 . S
C160 C164 1.404 . S
H161 C159 0.951 . S
C162 C160 1.382 . S
C162 C163 1.390 . S
C162 H167 0.949 . S
C163 C162 1.390 . S
C163 C168 1.399 . S
C164 C160 1.404 . S
C164 H165 0.950 . S
C164 C166 1.375 . S
H165 C164 0.950 . S
C166 C164 1.375 . S
C166 C168 1.382 . S
C166 H170 0.950 . S
H167 C162 0.949 . S
C168 C163 1.399 . S
C168 C166 1.382 . S
C168 H169 0.952 . S
H169 C168 0.952 . S
H170 C166 0.950 . S
H171 C172 0.949 . S
C172 H171 0.949 . S
C172 C173 1.395 . S
C172 C174 1.391 . S
C173 C172 1.395 . S
C173 C176 1.390 . S
C174 C172 1.391 . S
C174 C178 1.387 . S
C174 C179 1.491 . S
H175 C176 0.950 . S
C176 C173 1.390 . S
C176 H175 0.950 . S
C176 C177 1.378 . S
C177 C176 1.378 . S
C177 C178 1.409 . S
C178 C174 1.387 . S
C178 C177 1.409 . S
C178 H180 0.951 1_556 S
C179 C174 1.491 . S
C179 C181 1.382 . S
C179 C183 1.404 1_556 S
H180 C178 0.951 1_554 S
C181 C179 1.382 . S
C181 C182 1.390 . S
C181 H186 0.949 . S
C182 C181 1.390 . S
C182 C187 1.399 1_556 S
C183 C179 1.404 1_554 S
C183 H184 0.950 . S
C183 C185 1.375 . S
H184 C183 0.950 . S
C185 C183 1.375 . S
C185 C187 1.382 . S
C185 H189 0.950 . S
H186 C181 0.949 . S
C187 C182 1.399 1_554 S
C187 C185 1.382 . S
C187 H188 0.952 . S
H188 C187 0.952 . S
H189 C185 0.950 . S
H190 C191 0.949 . S
C191 H190 0.949 . S
C191 C192 1.395 . S
C191 C193 1.391 . S
C192 C191 1.395 . S
C192 C195 1.390 . S
C193 C191 1.391 . S
C193 C197 1.387 . S
C193 C198 1.491 . S
H194 C195 0.950 . S
C195 C192 1.390 . S
C195 H194 0.950 . S
C195 C196 1.378 . S
C196 C195 1.378 . S
C196 C197 1.409 . S
C197 C193 1.387 . S
C197 C196 1.409 . S
C197 H199 0.951 1_556 S
C198 C193 1.491 . S
C198 C200 1.382 . S
C198 C202 1.404 1_556 S
H199 C197 0.951 1_554 S
C200 C198 1.382 . S
C200 C201 1.390 1_556 S
C200 H205 0.949 . S
C201 C200 1.390 1_554 S
C201 C206 1.399 . S
C202 C198 1.404 1_554 S
C202 H203 0.950 . S
C202 C204 1.375 . S
H203 C202 0.950 . S
C204 C202 1.375 . S
C204 C206 1.382 . S
C204 H208 0.950 . S
H205 C200 0.949 . S
C206 C201 1.399 . S
C206 C204 1.382 . S
C206 H207 0.952 . S
H207 C206 0.952 . S
H208 C204 0.950 . S
H209 C210 0.949 . S
C210 H209 0.949 . S
C210 C211 1.395 . S
C210 C212 1.391 . S
C211 C210 1.395 . S
C211 C214 1.390 . S
C212 C210 1.391 . S
C212 C216 1.387 . S
C212 C217 1.491 . S
H213 C214 0.950 . S
C214 C211 1.390 . S
C214 H213 0.950 . S
C214 C215 1.378 . S
C215 C214 1.378 . S
C215 C216 1.409 . S
C216 C212 1.387 . S
C216 C215 1.409 . S
C216 H218 0.951 1_556 S
C217 C212 1.491 . S
C217 C219 1.382 . S
C217 C221 1.404 1_556 S
H218 C216 0.951 1_554 S
C219 C217 1.382 . S
C219 C220 1.390 1_556 S
C219 H224 0.949 . S
C220 C219 1.390 1_554 S
C220 C225 1.399 . S
C221 C217 1.404 1_554 S
C221 H222 0.950 . S
C221 C223 1.375 . S
H222 C221 0.950 . S
C223 C221 1.375 . S
C223 C225 1.382 . S
C223 H227 0.950 . S
H224 C219 0.949 . S
C225 C220 1.399 . S
C225 C223 1.382 . S
C225 H226 0.952 . S
H226 C225 0.952 . S
H227 C223 0.950 . S
H228 C229 0.949 . S
C229 H228 0.949 . S
C229 C230 1.395 . S
C229 C231 1.391 . S
C230 C229 1.395 . S
C230 C233 1.390 . S
C231 C229 1.391 . S
C231 C235 1.387 . S
C231 C236 1.491 . S
H232 C233 0.950 . S
C233 C230 1.390 . S
C233 H232 0.950 . S
C233 C234 1.378 . S
C234 C233 1.378 . S
C234 C235 1.409 . S
C235 C231 1.387 . S
C235 C234 1.409 . S
C235 H237 0.972 . S
C236 C231 1.491 . S
C236 C238 1.382 . S
C236 C240 1.404 . S
H237 C235 0.972 . S
C238 C236 1.382 . S
C238 C239 1.390 . S
C238 H243 0.949 . S
C239 C238 1.390 . S
C239 C244 1.399 1_554 S
C240 C236 1.404 . S
C240 H241 0.947 1_554 S
C240 C242 1.375 1_554 S
H241 C240 0.947 1_556 S
C242 C240 1.375 1_556 S
C242 C244 1.382 . S
C242 H246 0.950 . S
H243 C238 0.949 . S
C244 C239 1.399 1_556 S
C244 C242 1.382 . S
C244 H245 0.952 . S
H245 C244 0.952 . S
H246 C242 0.950 . S
H247 C248 0.949 . S
C248 H247 0.949 . S
C248 C249 1.395 . S
C248 C250 1.391 . S
C249 C248 1.395 . S
C249 C252 1.390 . S
C250 C248 1.391 . S
C250 C254 1.387 . S
C250 C255 1.491 . S
H251 C252 0.950 . S
C252 C249 1.390 . S
C252 H251 0.950 . S
C252 C253 1.378 . S
C253 C252 1.378 . S
C253 C254 1.409 . S
C254 C250 1.387 . S
C254 C253 1.409 . S
C254 H256 0.951 . S
C255 C250 1.491 . S
C255 C257 1.382 . S
C255 C259 1.404 . S
H256 C254 0.951 . S
C257 C255 1.382 . S
C257 C258 1.390 . S
C257 H262 0.949 . S
C258 C257 1.390 . S
C258 C263 1.399 1_554 S
C259 C255 1.404 . S
C259 H260 0.950 . S
C259 C261 1.375 1_554 S
H260 C259 0.950 . S
C261 C259 1.375 1_556 S
C261 C263 1.382 . S
C261 H265 0.950 . S
H262 C257 0.949 . S
C263 C258 1.399 1_556 S
C263 C261 1.382 . S
C263 H264 0.952 . S
H264 C263 0.952 . S
H265 C261 0.950 . S
H266 C267 0.949 . S
C267 H266 0.949 . S
C267 C268 1.395 . S
C267 C269 1.391 . S
C268 C267 1.395 . S
C268 C271 1.390 . S
C269 C267 1.391 . S
C269 C273 1.387 . S
C269 C274 1.491 . S
H270 C271 0.950 . S
C271 C268 1.390 . S
C271 H270 0.950 . S
C271 C272 1.378 . S
C272 C271 1.378 . S
C272 C273 1.409 . S
C273 C269 1.387 . S
C273 C272 1.409 . S
C273 H275 0.951 . S
C274 C269 1.491 . S
C274 C276 1.382 . S
C274 C278 1.404 . S
H275 C273 0.951 . S
C276 C274 1.382 . S
C276 C277 1.390 . S
C276 H281 0.949 . S
C277 C276 1.390 . S
C277 C282 1.416 . S
C278 C274 1.404 . S
C278 H279 0.950 . S
C278 C280 1.375 1_554 S
H279 C278 0.950 . S
C280 C278 1.375 1_556 S
C280 C282 1.379 1_556 S
C280 H284 0.950 . S
H281 C276 0.949 . S
C282 C277 1.416 . S
C282 C280 1.379 1_554 S
C282 H283 0.939 1_554 S
H283 C282 0.939 1_556 S
H284 C280 0.950 . S
H285 C286 0.949 . S
C286 H285 0.949 . S
C286 C287 1.395 . S
C286 C288 1.391 . S
C287 C286 1.395 . S
C287 C290 1.390 . S
C288 C286 1.391 . S
C288 C292 1.387 . S
C288 C293 1.491 . S
H289 C290 0.950 . S
C290 C287 1.390 . S
C290 H289 0.950 . S
C290 C291 1.378 . S
C291 C290 1.378 . S
C291 C292 1.409 . S
C292 C288 1.387 . S
C292 C291 1.409 . S
C292 H294 0.951 . S
C293 C288 1.491 . S
C293 C295 1.382 . S
C293 C297 1.404 . S
H294 C292 0.951 . S
C295 C293 1.382 . S
C295 C296 1.390 . S
C295 H300 0.949 . S
C296 C295 1.390 . S
C296 C301 1.399 . S
C297 C293 1.404 . S
C297 H298 0.950 . S
C297 C299 1.375 . S
H298 C297 0.950 . S
C299 C297 1.375 . S
C299 C301 1.382 . S
C299 H303 0.950 . S
H300 C295 0.949 . S
C301 C296 1.399 . S
C301 C299 1.382 . S
C301 H302 0.952 . S
H302 C301 0.952 . S
H303 C299 0.950 . S
H304 C305 0.949 . S
C305 H304 0.949 . S
C305 C306 1.395 . S
C305 C307 1.391 . S
C306 C305 1.395 . S
C306 C309 1.390 . S
C307 C305 1.391 . S
C307 C311 1.387 . S
C307 C312 1.491 . S
H308 C309 0.950 . S
C309 C306 1.390 . S
C309 H308 0.950 . S
C309 C310 1.378 . S
C310 C309 1.378 . S
C310 C311 1.409 . S
C311 C307 1.387 . S
C311 C310 1.409 . S
C311 H313 0.951 . S
C312 C307 1.491 . S
C312 C314 1.382 . S
C312 C316 1.404 . S
H313 C311 0.951 . S
C314 C312 1.382 . S
C314 C315 1.390 . S
C314 H319 0.949 . S
C315 C314 1.390 . S
C315 C320 1.399 . S
C316 C312 1.404 . S
C316 H317 0.950 . S
C316 C318 1.375 . S
H317 C316 0.950 . S
C318 C316 1.375 . S
C318 C320 1.382 . S
C318 H322 0.950 . S
H319 C314 0.949 . S
C320 C315 1.399 . S
C320 C318 1.382 . S
C320 H321 0.952 . S
H321 C320 0.952 . S
H322 C318 0.950 . S
H323 C324 0.949 . S
C324 H323 0.949 . S
C324 C325 1.395 . S
C324 C326 1.391 . S
C325 C324 1.395 . S
C325 C328 1.390 . S
C326 C324 1.391 . S
C326 C330 1.387 . S
C326 C331 1.491 . S
H327 C328 0.950 . S
C328 C325 1.390 . S
C328 H327 0.950 . S
C328 C329 1.378 . S
C329 C328 1.378 . S
C329 C330 1.409 . S
C330 C326 1.387 . S
C330 C329 1.409 . S
C330 H332 0.951 . S
C331 C326 1.491 . S
C331 C333 1.382 . S
C331 C335 1.404 . S
H332 C330 0.951 . S
C333 C331 1.382 . S
C333 C334 1.390 . S
C333 H338 0.949 . S
C334 C333 1.390 . S
C334 C339 1.399 . S
C335 C331 1.404 . S
C335 H336 0.950 . S
C335 C337 1.375 . S
H336 C335 0.950 . S
C337 C335 1.375 . S
C337 C339 1.382 . S
C337 H341 0.950 . S
H338 C333 0.949 . S
C339 C334 1.399 . S
C339 C337 1.382 . S
C339 H340 0.952 . S
H340 C339 0.952 . S
H341 C337 0.950 . S
Tb342 N373 2.660 . S
Tb342 N380 2.600 . S
Tb342 O386 2.546 . S
Tb342 O387 2.610 1_566 S
Tb342 O389 2.320 1_565 S
Tb342 O390 2.552 1_565 S
Tb342 O391 2.413 1_565 S
Tb342 O393 2.362 1_556 S
Tb342 O394 2.421 . S
Tb342 C406 2.832 1_565 S
C343 C346 1.432 . S
C343 C347 1.414 . S
C343 N350 1.359 . S
C344 C346 1.417 . S
C344 C348 1.432 . S
C344 C356 1.410 . S
C345 C347 1.444 . S
C345 C348 1.317 . S
C345 H368 0.929 . S
C346 C343 1.432 . S
C346 C344 1.417 . S
C346 N354 1.360 . S
C347 C343 1.414 . S
C347 C345 1.444 . S
C347 C352 1.385 . S
C348 C344 1.432 . S
C348 C345 1.317 . S
C348 H360 0.930 . S
C349 C351 1.392 . S
C349 C352 1.370 . S
C349 H361 0.931 . S
N350 C343 1.359 . S
N350 C351 1.327 . S
N350 Tb353 2.600 . S
C351 C349 1.392 . S
C351 N350 1.327 . S
C351 H358 0.930 . S
C352 C347 1.385 . S
C352 C349 1.370 . S
C352 H371 0.930 . S
Tb353 N350 2.600 . S
Tb353 N354 2.660 . S
Tb353 O387 2.362 . S
Tb353 O388 2.421 . S
Tb353 O392 2.546 . S
Tb353 O393 2.610 1_545 S
Tb353 O395 2.320 1_545 S
Tb353 O396 2.552 1_545 S
Tb353 O397 2.413 1_545 S
Tb353 C417 2.833 . S
N354 C346 1.360 . S
N354 Tb353 2.660 . S
N354 C355 1.305 . S
C355 N354 1.305 . S
C355 C357 1.407 . S
C355 H362 0.930 . S
C356 C344 1.410 . S
C356 C357 1.345 . S
C356 H364 0.930 . S
C357 C355 1.407 . S
C357 C356 1.345 . S
C357 H359 0.930 . S
H358 C351 0.930 . S
H359 C357 0.930 . S
H360 C348 0.930 . S
H361 C349 0.931 . S
H362 C355 0.930 . S
H363 C377 0.930 . S
H364 C356 0.930 . S
H365 C383 0.930 . S
H366 C374 0.930 . S
H367 C381 0.931 . S
H368 C345 0.929 . S
H369 C375 0.930 . S
H370 C408 0.930 . S
H371 C352 0.930 . S
H372 C407 0.929 . S
N373 Tb342 2.660 . S
N373 C374 1.305 . S
N373 C378 1.360 . S
C374 H366 0.930 . S
C374 N373 1.305 . S
C374 C377 1.407 . S
C375 H369 0.930 . S
C375 C376 1.410 . S
C375 C377 1.345 . S
C376 C375 1.410 . S
C376 C378 1.417 . S
C376 C408 1.432 . S
C377 H363 0.930 . S
C377 C374 1.407 . S
C377 C375 1.345 . S
C378 N373 1.360 . S
C378 C376 1.417 . S
C378 C382 1.432 . S
H379 C384 0.930 . S
N380 Tb342 2.600 . S
N380 C382 1.359 . S
N380 C383 1.327 . S
C381 H367 0.931 . S
C381 C383 1.392 . S
C381 C384 1.370 . S
C382 C378 1.432 . S
C382 N380 1.359 . S
C382 C385 1.414 . S
C383 H365 0.930 . S
C383 N380 1.327 . S
C383 C381 1.392 . S
C384 H379 0.930 . S
C384 C381 1.370 . S
C384 C385 1.385 . S
C385 C382 1.414 . S
C385 C384 1.385 . S
C385 C407 1.444 . S
O386 Tb342 2.546 . S
O386 C406 1.241 1_565 S
O387 Tb342 2.610 1_544 S
O387 Tb353 2.362 . S
O387 C398 1.283 1_554 S
O388 Tb353 2.421 . S
O388 C405 1.262 1_554 S
O389 Tb342 2.320 1_545 S
O389 C405 1.260 . S
O390 Tb342 2.552 1_545 S
O390 C398 1.243 . S
O391 Tb342 2.413 1_545 S
O391 C406 1.264 . S
O392 Tb353 2.546 . S
O392 C417 1.251 . S
O393 Tb342 2.362 1_554 S
O393 Tb353 2.610 1_565 S
O393 C409 1.283 . S
O394 Tb342 2.421 . S
O394 C416 1.262 1_556 S
O395 Tb353 2.320 1_565 S
O395 C416 1.260 . S
O396 Tb353 2.552 1_565 S
O396 C409 1.243 . S
O397 Tb353 2.413 1_565 S
O397 C417 1.256 1_565 S
C398 O387 1.283 1_556 S
C398 O390 1.243 . S
C399 C401 1.382 . S
C399 C403 1.393 1_545 S
C399 C406 1.502 . S
C400 C401 1.400 . S
C400 C402 1.384 . S
C401 C399 1.382 . S
C401 C400 1.400 . S
C401 H418 0.930 . S
C402 C400 1.384 . S
C402 C404 1.392 1_545 S
C402 H419 0.931 . S
C403 C399 1.393 1_565 S
C403 C404 1.401 . S
C403 H420 0.930 . S
C404 C402 1.392 1_565 S
C404 C403 1.401 . S
C404 H421 0.930 . S
C405 O388 1.262 1_556 S
C405 O389 1.260 . S
C406 Tb342 2.832 1_545 S
C406 O386 1.241 1_545 S
C406 O391 1.264 . S
C406 C399 1.502 . S
C407 H372 0.929 . S
C407 C385 1.444 . S
C407 C408 1.317 . S
C408 H370 0.930 . S
C408 C376 1.432 . S
C408 C407 1.317 . S
C409 O393 1.283 . S
C409 O396 1.243 . S
C410 C411 1.382 . S
C410 C414 1.393 1_565 S
C410 C417 1.500 1_565 S
C411 C410 1.382 . S
C411 C412 1.400 . S
C411 H422 0.930 . S
C412 C411 1.400 . S
C412 C413 1.384 . S
C413 C412 1.384 . S
C413 C415 1.392 1_565 S
C413 H423 0.931 . S
C414 C410 1.393 1_545 S
C414 C415 1.401 . S
C414 H424 0.930 . S
C415 C413 1.392 1_545 S
C415 C414 1.401 . S
C415 H425 0.930 . S
C416 O394 1.262 1_554 S
C416 O395 1.260 . S
C417 Tb353 2.833 . S
C417 O392 1.251 . S
C417 O397 1.256 1_545 S
C417 C410 1.500 1_545 S
H418 C401 0.930 . S
H419 C402 0.931 . S
H420 C403 0.930 . S
H421 C404 0.930 . S
H422 C411 0.930 . S
H423 C413 0.931 . S
H424 C414 0.930 . S
H425 C415 0.930 . S
Tb426 N457 2.660 . S
Tb426 N464 2.600 . S
Tb426 O470 2.546 . S
Tb426 O471 2.610 1_456 S
Tb426 O473 2.320 1_455 S
Tb426 O474 2.552 1_455 S
Tb426 O475 2.413 1_455 S
Tb426 O477 2.362 1_556 S
Tb426 O478 2.421 . S
Tb426 C490 2.833 . S
C427 C430 1.432 . S
C427 C431 1.414 . S
C427 N434 1.359 . S
C428 C430 1.417 . S
C428 C432 1.432 . S
C428 C440 1.410 . S
C429 C431 1.444 . S
C429 C432 1.317 . S
C429 H452 0.929 . S
C430 C427 1.432 . S
C430 C428 1.417 . S
C430 N438 1.360 . S
C431 C427 1.414 . S
C431 C429 1.444 . S
C431 C436 1.385 . S
C432 C428 1.432 . S
C432 C429 1.317 . S
C432 H444 0.930 . S
C433 C435 1.392 . S
C433 C436 1.370 . S
C433 H445 0.931 . S
N434 C427 1.359 . S
N434 C435 1.327 . S
N434 Tb437 2.600 . S
C435 C433 1.392 . S
C435 N434 1.327 . S
C435 H442 0.930 . S
C436 C431 1.385 . S
C436 C433 1.370 . S
C436 H455 0.930 . S
Tb437 N434 2.600 . S
Tb437 N438 2.660 . S
Tb437 O471 2.362 . S
Tb437 O472 2.421 . S
Tb437 O476 2.546 . S
Tb437 O477 2.610 1_655 S
Tb437 O479 2.320 1_655 S
Tb437 O480 2.552 1_655 S
Tb437 O481 2.413 1_655 S
Tb437 C501 2.833 . S
N438 C430 1.360 . S
N438 Tb437 2.660 . S
N438 C439 1.305 . S
C439 N438 1.305 . S
C439 C441 1.407 . S
C439 H446 0.930 . S
C440 C428 1.410 . S
C440 C441 1.345 . S
C440 H448 0.930 . S
C441 C439 1.407 . S
C441 C440 1.345 . S
C441 H443 0.930 . S
H442 C435 0.930 . S
H443 C441 0.930 . S
H444 C432 0.930 . S
H445 C433 0.931 . S
H446 C439 0.930 . S
H447 C461 0.930 . S
H448 C440 0.930 . S
H449 C467 0.930 . S
H450 C458 0.930 . S
H451 C465 0.931 . S
H452 C429 0.929 . S
H453 C459 0.930 . S
H454 C492 0.930 . S
H455 C436 0.930 . S
H456 C491 0.929 . S
N457 Tb426 2.660 . S
N457 C458 1.305 . S
N457 C462 1.360 . S
C458 H450 0.930 . S
C458 N457 1.305 . S
C458 C461 1.407 . S
C459 H453 0.930 . S
C459 C460 1.410 . S
C459 C461 1.345 . S
C460 C459 1.410 . S
C460 C462 1.417 . S
C460 C492 1.432 . S
C461 H447 0.930 . S
C461 C458 1.407 . S
C461 C459 1.345 . S
C462 N457 1.360 . S
C462 C460 1.417 . S
C462 C466 1.432 . S
H463 C468 0.930 . S
N464 Tb426 2.600 . S
N464 C466 1.359 . S
N464 C467 1.327 . S
C465 H451 0.931 . S
C465 C467 1.392 . S
C465 C468 1.370 . S
C466 C462 1.432 . S
C466 N464 1.359 . S
C466 C469 1.414 . S
C467 H449 0.930 . S
C467 N464 1.327 . S
C467 C465 1.392 . S
C468 H463 0.930 . S
C468 C465 1.370 . S
C468 C469 1.385 . S
C469 C466 1.414 . S
C469 C468 1.385 . S
C469 C491 1.444 . S
O470 Tb426 2.546 . S
O470 C490 1.251 . S
O471 Tb426 2.610 1_654 S
O471 Tb437 2.362 . S
O471 C482 1.283 1_554 S
O472 Tb437 2.421 . S
O472 C489 1.262 1_554 S
O473 Tb426 2.320 1_655 S
O473 C489 1.260 . S
O474 Tb426 2.552 1_655 S
O474 C482 1.243 . S
O475 Tb426 2.413 1_655 S
O475 C490 1.256 1_655 S
O476 Tb437 2.546 . S
O476 C501 1.251 . S
O477 Tb426 2.362 1_554 S
O477 Tb437 2.610 1_455 S
O477 C493 1.283 . S
O478 Tb426 2.421 . S
O478 C500 1.262 1_556 S
O479 Tb437 2.320 1_455 S
O479 C500 1.260 . S
O480 Tb437 2.552 1_455 S
O480 C493 1.243 . S
O481 Tb437 2.413 1_455 S
O481 C501 1.256 1_455 S
C482 O471 1.283 1_556 S
C482 O474 1.243 . S
C483 C485 1.382 . S
C483 C487 1.393 1_655 S
C483 C490 1.500 1_655 S
C484 C485 1.400 . S
C484 C486 1.384 . S
C485 C483 1.382 . S
C485 C484 1.400 . S
C485 H502 0.930 . S
C486 C484 1.384 . S
C486 C488 1.392 1_655 S
C486 H503 0.931 . S
C487 C483 1.393 1_455 S
C487 C488 1.401 . S
C487 H504 0.930 . S
C488 C486 1.392 1_455 S
C488 C487 1.401 . S
C488 H505 0.930 . S
C489 O472 1.262 1_556 S
C489 O473 1.260 . S
C490 Tb426 2.833 . S
C490 O470 1.251 . S
C490 O475 1.256 1_455 S
C490 C483 1.500 1_455 S
C491 H456 0.929 . S
C491 C469 1.444 . S
C491 C492 1.317 . S
C492 H454 0.930 . S
C492 C460 1.432 . S
C492 C491 1.317 . S
C493 O477 1.283 . S
C493 O480 1.243 . S
C494 C495 1.382 . S
C494 C498 1.393 1_455 S
C494 C501 1.500 1_455 S
C495 C494 1.382 . S
C495 C496 1.400 . S
C495 H506 0.930 . S
C496 C495 1.400 . S
C496 C497 1.384 . S
C497 C496 1.384 . S
C497 C499 1.392 1_455 S
C497 H507 0.931 . S
C498 C494 1.393 1_655 S
C498 C499 1.401 . S
C498 H508 0.930 . S
C499 C497 1.392 1_655 S
C499 C498 1.401 . S
C499 H509 0.930 . S
C500 O478 1.262 1_554 S
C500 O479 1.260 . S
C501 Tb437 2.833 . S
C501 O476 1.251 . S
C501 O481 1.256 1_655 S
C501 C494 1.500 1_655 S
H502 C485 0.930 . S
H503 C486 0.931 . S
H504 C487 0.930 . S
H505 C488 0.930 . S
H506 C495 0.930 . S
H507 C497 0.931 . S
H508 C498 0.930 . S
H509 C499 0.930 . S
Tb510 N541 2.660 . S
Tb510 N548 2.600 . S
Tb510 O554 2.546 . S
Tb510 O555 2.610 . S
Tb510 O557 2.320 . S
Tb510 O558 2.552 . S
Tb510 O559 2.413 . S
Tb510 O561 2.362 . S
Tb510 O562 2.421 . S
Tb510 C574 2.833 . S
C511 C514 1.432 . S
C511 C515 1.414 . S
C511 N518 1.359 . S
C512 C514 1.417 . S
C512 C516 1.432 . S
C512 C524 1.410 . S
C513 C515 1.444 . S
C513 C516 1.317 . S
C513 H536 0.929 . S
C514 C511 1.432 . S
C514 C512 1.417 . S
C514 N522 1.360 . S
C515 C511 1.414 . S
C515 C513 1.444 . S
C515 C520 1.385 . S
C516 C512 1.432 . S
C516 C513 1.317 . S
C516 H528 0.930 . S
C517 C519 1.392 . S
C517 C520 1.370 . S
C517 H529 0.931 . S
N518 C511 1.359 . S
N518 C519 1.327 . S
N518 Tb521 2.600 . S
C519 C517 1.392 . S
C519 N518 1.327 . S
C519 H526 0.930 . S
C520 C515 1.385 . S
C520 C517 1.370 . S
C520 H539 0.930 . S
Tb521 N518 2.600 . S
Tb521 N522 2.660 . S
Tb521 O555 2.362 1_556 S
Tb521 O556 2.421 . S
Tb521 O560 2.546 . S
Tb521 O561 2.610 1_556 S
Tb521 O563 2.320 . S
Tb521 O564 2.552 . S
Tb521 O565 2.413 . S
Tb521 C585 2.833 . S
N522 C514 1.360 . S
N522 Tb521 2.660 . S
N522 C523 1.305 . S
C523 N522 1.305 . S
C523 C525 1.407 . S
C523 H530 0.930 . S
C524 C512 1.410 . S
C524 C525 1.345 . S
C524 H532 0.930 . S
C525 C523 1.407 . S
C525 C524 1.345 . S
C525 H527 0.930 . S
H526 C519 0.930 . S
H527 C525 0.930 . S
H528 C516 0.930 . S
H529 C517 0.931 . S
H530 C523 0.930 . S
H531 C545 0.930 . S
H532 C524 0.930 . S
H533 C551 0.930 . S
H534 C542 0.930 . S
H535 C549 0.931 . S
H536 C513 0.929 . S
H537 C543 0.930 . S
H538 C576 0.930 . S
H539 C520 0.930 . S
H540 C575 0.929 . S
N541 Tb510 2.660 . S
N541 C542 1.305 . S
N541 C546 1.360 . S
C542 H534 0.930 . S
C542 N541 1.305 . S
C542 C545 1.407 . S
C543 H537 0.930 . S
C543 C544 1.410 . S
C543 C545 1.345 . S
C544 C543 1.410 . S
C544 C546 1.417 . S
C544 C576 1.432 . S
C545 H531 0.930 . S
C545 C542 1.407 . S
C545 C543 1.345 . S
C546 N541 1.360 . S
C546 C544 1.417 . S
C546 C550 1.432 . S
H547 C552 0.930 . S
N548 Tb510 2.600 . S
N548 C550 1.359 . S
N548 C551 1.327 . S
C549 H535 0.931 . S
C549 C551 1.392 . S
C549 C552 1.370 . S
C550 C546 1.432 . S
C550 N548 1.359 . S
C550 C553 1.414 . S
C551 H533 0.930 . S
C551 N548 1.327 . S
C551 C549 1.392 . S
C552 H547 0.930 . S
C552 C549 1.370 . S
C552 C553 1.385 . S
C553 C550 1.414 . S
C553 C552 1.385 . S
C553 C575 1.444 . S
O554 Tb510 2.546 . S
O554 C574 1.251 . S
O555 Tb510 2.610 . S
O555 Tb521 2.362 1_554 S
O555 C566 1.283 . S
O556 Tb521 2.421 . S
O556 C573 1.262 1_556 S
O557 Tb510 2.320 . S
O557 C573 1.260 . S
O558 Tb510 2.552 . S
O558 C566 1.243 . S
O559 Tb510 2.413 . S
O559 C574 1.256 . S
O560 Tb521 2.546 . S
O560 C585 1.251 . S
O561 Tb510 2.362 . S
O561 Tb521 2.610 1_554 S
O561 C577 1.283 1_554 S
O562 Tb510 2.421 . S
O562 C584 1.262 1_554 S
O563 Tb521 2.320 . S
O563 C584 1.260 . S
O564 Tb521 2.552 . S
O564 C577 1.243 . S
O565 Tb521 2.413 . S
O565 C585 1.256 . S
C566 O555 1.283 . S
C566 O558 1.243 . S
C567 C569 1.382 . S
C567 C571 1.393 . S
C567 C574 1.500 . S
C568 C569 1.400 . S
C568 C570 1.384 . S
C569 C567 1.382 . S
C569 C568 1.400 . S
C569 H586 0.930 . S
C570 C568 1.384 . S
C570 C572 1.392 . S
C570 H587 0.931 . S
C571 C567 1.393 . S
C571 C572 1.401 . S
C571 H588 0.930 . S
C572 C570 1.392 . S
C572 C571 1.401 . S
C572 H589 0.930 . S
C573 O556 1.262 1_554 S
C573 O557 1.260 . S
C574 Tb510 2.833 . S
C574 O554 1.251 . S
C574 O559 1.256 . S
C574 C567 1.500 . S
C575 H540 0.929 . S
C575 C553 1.444 . S
C575 C576 1.317 . S
C576 H538 0.930 . S
C576 C544 1.432 . S
C576 C575 1.317 . S
C577 O561 1.283 1_556 S
C577 O564 1.243 . S
C578 C579 1.382 . S
C578 C582 1.393 . S
C578 C585 1.500 . S
C579 C578 1.382 . S
C579 C580 1.400 . S
C579 H590 0.930 . S
C580 C579 1.400 . S
C580 C581 1.384 . S
C581 C580 1.384 . S
C581 C583 1.392 . S
C581 H591 0.931 . S
C582 C578 1.393 . S
C582 C583 1.401 . S
C582 H592 0.930 . S
C583 C581 1.392 . S
C583 C582 1.401 . S
C583 H593 0.930 . S
C584 O562 1.262 1_556 S
C584 O563 1.260 . S
C585 Tb521 2.833 . S
C585 O560 1.251 . S
C585 O565 1.256 . S
C585 C578 1.500 . S
H586 C569 0.930 . S
H587 C570 0.931 . S
H588 C571 0.930 . S
H589 C572 0.930 . S
H590 C579 0.930 . S
H591 C581 0.931 . S
H592 C582 0.930 . S
H593 C583 0.930 . S
Tb594 N625 2.660 1_455 S
Tb594 N632 2.600 . S
Tb594 O638 2.546 . S
Tb594 O639 2.610 . S
Tb594 O641 2.320 . S
Tb594 O642 2.552 . S
Tb594 O643 2.413 . S
Tb594 O645 2.362 . S
Tb594 O646 2.421 . S
Tb594 C658 2.833 . S
C595 C598 1.432 . S
C595 C599 1.414 . S
C595 N602 1.359 . S
C596 C598 1.417 . S
C596 C600 1.432 . S
C596 C608 1.410 . S
C597 C599 1.444 . S
C597 C600 1.317 . S
C597 H620 0.929 . S
C598 C595 1.432 . S
C598 C596 1.417 . S
C598 N606 1.360 . S
C599 C595 1.414 . S
C599 C597 1.444 . S
C599 C604 1.385 . S
C600 C596 1.432 . S
C600 C597 1.317 . S
C600 H612 0.930 . S
C601 C603 1.392 . S
C601 C604 1.370 . S
C601 H613 0.931 . S
N602 C595 1.359 . S
N602 C603 1.327 . S
N602 Tb605 2.600 . S
C603 C601 1.392 . S
C603 N602 1.327 . S
C603 H610 0.930 . S
C604 C599 1.385 . S
C604 C601 1.370 . S
C604 H623 0.930 . S
Tb605 N602 2.600 . S
Tb605 N606 2.660 . S
Tb605 O639 2.362 . S
Tb605 O640 2.421 . S
Tb605 O644 2.546 . S
Tb605 O645 2.610 . S
Tb605 O647 2.320 . S
Tb605 O648 2.552 . S
Tb605 O649 2.413 . S
Tb605 C669 2.833 . S
N606 C598 1.360 . S
N606 Tb605 2.660 . S
N606 C607 1.305 . S
C607 N606 1.305 . S
C607 C609 1.407 . S
C607 H614 0.930 . S
C608 C596 1.410 . S
C608 C609 1.345 . S
C608 H616 0.930 . S
C609 C607 1.407 . S
C609 C608 1.345 . S
C609 H611 0.930 . S
H610 C603 0.930 . S
H611 C609 0.930 . S
H612 C600 0.930 . S
H613 C601 0.931 . S
H614 C607 0.930 . S
H615 C629 0.930 . S
H616 C608 0.930 . S
H617 C635 0.930 . S
H618 C626 0.930 . S
H619 C633 0.931 . S
H620 C597 0.929 . S
H621 C627 0.930 . S
H622 C660 0.930 . S
H623 C604 0.930 . S
H624 C659 0.929 . S
N625 Tb594 2.660 1_655 S
N625 C626 1.305 . S
N625 C630 1.360 . S
C626 H618 0.930 . S
C626 N625 1.305 . S
C626 C629 1.407 . S
C627 H621 0.930 . S
C627 C628 1.410 . S
C627 C629 1.345 . S
C628 C627 1.410 . S
C628 C630 1.417 . S
C628 C660 1.432 . S
C629 H615 0.930 . S
C629 C626 1.407 . S
C629 C627 1.345 . S
C630 N625 1.360 . S
C630 C628 1.417 . S
C630 C634 1.432 . S
H631 C636 0.930 . S
N632 Tb594 2.600 . S
N632 C634 1.359 1_455 S
N632 C635 1.327 . S
C633 H619 0.931 . S
C633 C635 1.392 . S
C633 C636 1.370 1_455 S
C634 C630 1.432 . S
C634 N632 1.359 1_655 S
C634 C637 1.414 . S
C635 H617 0.930 . S
C635 N632 1.327 . S
C635 C633 1.392 . S
C636 H631 0.930 . S
C636 C633 1.370 1_655 S
C636 C637 1.385 . S
C637 C634 1.414 . S
C637 C636 1.385 . S
C637 C659 1.444 . S
O638 Tb594 2.546 . S
O638 C658 1.251 . S
O639 Tb594 2.610 . S
O639 Tb605 2.362 . S
O639 C650 1.283 . S
O640 Tb605 2.421 . S
O640 C657 1.262 . S
O641 Tb594 2.320 . S
O641 C657 1.260 . S
O642 Tb594 2.552 . S
O642 C650 1.243 . S
O643 Tb594 2.413 . S
O643 C658 1.256 . S
O644 Tb605 2.546 . S
O644 C669 1.251 . S
O645 Tb594 2.362 . S
O645 Tb605 2.610 . S
O645 C661 1.283 . S
O646 Tb594 2.421 . S
O646 C668 1.262 . S
O647 Tb605 2.320 . S
O647 C668 1.260 . S
O648 Tb605 2.552 . S
O648 C661 1.243 . S
O649 Tb605 2.413 . S
O649 C669 1.256 . S
C650 O639 1.283 . S
C650 O642 1.243 . S
C651 C653 1.382 . S
C651 C655 1.393 . S
C651 C658 1.500 . S
C652 C653 1.400 . S
C652 C654 1.384 . S
C653 C651 1.382 . S
C653 C652 1.400 . S
C653 H670 0.930 . S
C654 C652 1.384 . S
C654 C656 1.392 . S
C654 H671 0.931 . S
C655 C651 1.393 . S
C655 C656 1.401 . S
C655 H672 0.930 . S
C656 C654 1.392 . S
C656 C655 1.401 . S
C656 H673 0.930 . S
C657 O640 1.262 . S
C657 O641 1.260 . S
C658 Tb594 2.833 . S
C658 O638 1.251 . S
C658 O643 1.256 . S
C658 C651 1.500 . S
C659 H624 0.929 . S
C659 C637 1.444 . S
C659 C660 1.317 . S
C660 H622 0.930 . S
C660 C628 1.432 . S
C660 C659 1.317 . S
C661 O645 1.283 . S
C661 O648 1.243 . S
C662 C663 1.382 . S
C662 C666 1.393 . S
C662 C669 1.500 . S
C663 C662 1.382 . S
C663 C664 1.400 . S
C663 H674 0.930 . S
C664 C663 1.400 . S
C664 C665 1.384 . S
C665 C664 1.384 . S
C665 C667 1.392 . S
C665 H675 0.931 . S
C666 C662 1.393 . S
C666 C667 1.401 . S
C666 H676 0.930 . S
C667 C665 1.392 . S
C667 C666 1.401 . S
C667 H677 0.930 . S
C668 O646 1.262 . S
C668 O647 1.260 . S
C669 Tb605 2.833 . S
C669 O644 1.251 . S
C669 O649 1.256 . S
C669 C662 1.500 . S
H670 C653 0.930 . S
H671 C654 0.931 . S
H672 C655 0.930 . S
H673 C656 0.930 . S
H674 C663 0.930 . S
H675 C665 0.931 . S
H676 C666 0.930 . S
H677 C667 0.930 . S
Tb678 N709 2.660 . S
Tb678 N716 2.600 . S
Tb678 O722 2.546 . S
Tb678 O723 2.610 . S
Tb678 O725 2.320 . S
Tb678 O726 2.552 . S
Tb678 O727 2.413 . S
Tb678 O729 2.362 . S
Tb678 O730 2.421 . S
Tb678 C742 2.833 . S
C679 C682 1.432 . S
C679 C683 1.414 . S
C679 N686 1.359 . S
C680 C682 1.417 . S
C680 C684 1.432 . S
C680 C692 1.410 . S
C681 C683 1.444 . S
C681 C684 1.317 . S
C681 H704 0.929 . S
C682 C679 1.432 . S
C682 C680 1.417 . S
C682 N690 1.360 . S
C683 C679 1.414 . S
C683 C681 1.444 . S
C683 C688 1.385 . S
C684 C680 1.432 . S
C684 C681 1.317 . S
C684 H696 0.930 . S
C685 C687 1.392 . S
C685 C688 1.370 . S
C685 H697 0.931 . S
N686 C679 1.359 . S
N686 C687 1.327 . S
N686 Tb689 2.600 . S
C687 C685 1.392 . S
C687 N686 1.327 . S
C687 H694 0.930 . S
C688 C683 1.385 . S
C688 C685 1.370 . S
C688 H707 0.930 . S
Tb689 N686 2.600 . S
Tb689 N690 2.660 . S
Tb689 O723 2.362 . S
Tb689 O724 2.421 . S
Tb689 O728 2.546 . S
Tb689 O729 2.610 . S
Tb689 O731 2.320 . S
Tb689 O732 2.552 . S
Tb689 O733 2.413 . S
Tb689 C753 2.833 . S
N690 C682 1.360 . S
N690 Tb689 2.660 . S
N690 C691 1.305 . S
C691 N690 1.305 . S
C691 C693 1.407 . S
C691 H698 0.930 . S
C692 C680 1.410 . S
C692 C693 1.345 . S
C692 H700 0.930 . S
C693 C691 1.407 . S
C693 C692 1.345 . S
C693 H695 0.930 . S
H694 C687 0.930 . S
H695 C693 0.930 . S
H696 C684 0.930 . S
H697 C685 0.931 . S
H698 C691 0.930 . S
H699 C713 0.930 . S
H700 C692 0.930 . S
H701 C719 0.930 . S
H702 C710 0.930 . S
H703 C717 0.931 . S
H704 C681 0.929 . S
H705 C711 0.930 . S
H706 C744 0.930 . S
H707 C688 0.930 . S
H708 C743 0.929 . S
N709 Tb678 2.660 . S
N709 C710 1.305 . S
N709 C714 1.360 . S
C710 H702 0.930 . S
C710 N709 1.305 . S
C710 C713 1.407 . S
C711 H705 0.930 . S
C711 C712 1.410 . S
C711 C713 1.345 . S
C712 C711 1.410 . S
C712 C714 1.417 . S
C712 C744 1.432 . S
C713 H699 0.930 . S
C713 C710 1.407 . S
C713 C711 1.345 . S
C714 N709 1.360 . S
C714 C712 1.417 . S
C714 C718 1.432 . S
H715 C720 0.930 . S
N716 Tb678 2.600 . S
N716 C718 1.359 . S
N716 C719 1.327 . S
C717 H703 0.931 . S
C717 C719 1.392 . S
C717 C720 1.370 . S
C718 C714 1.432 . S
C718 N716 1.359 . S
C718 C721 1.414 . S
C719 H701 0.930 . S
C719 N716 1.327 . S
C719 C717 1.392 . S
C720 H715 0.930 . S
C720 C717 1.370 . S
C720 C721 1.385 . S
C721 C718 1.414 . S
C721 C720 1.385 . S
C721 C743 1.444 . S
O722 Tb678 2.546 . S
O722 C742 1.251 . S
O723 Tb678 2.610 . S
O723 Tb689 2.362 . S
O723 C734 1.283 . S
O724 Tb689 2.421 . S
O724 C741 1.262 . S
O725 Tb678 2.320 . S
O725 C741 1.260 . S
O726 Tb678 2.552 . S
O726 C734 1.243 . S
O727 Tb678 2.413 . S
O727 C742 1.256 . S
O728 Tb689 2.546 . S
O728 C753 1.251 . S
O729 Tb678 2.362 . S
O729 Tb689 2.610 . S
O729 C745 1.283 . S
O730 Tb678 2.421 . S
O730 C752 1.262 . S
O731 Tb689 2.320 . S
O731 C752 1.260 . S
O732 Tb689 2.552 . S
O732 C745 1.243 . S
O733 Tb689 2.413 . S
O733 C753 1.256 . S
C734 O723 1.283 . S
C734 O726 1.243 . S
C735 C737 1.382 . S
C735 C739 1.393 . S
C735 C742 1.500 . S
C736 C737 1.400 . S
C736 C738 1.384 . S
C737 C735 1.382 . S
C737 C736 1.400 . S
C737 H754 0.930 . S
C738 C736 1.384 . S
C738 C740 1.392 . S
C738 H755 0.931 . S
C739 C735 1.393 . S
C739 C740 1.401 . S
C739 H756 0.930 . S
C740 C738 1.392 . S
C740 C739 1.401 . S
C740 H757 0.930 . S
C741 O724 1.262 . S
C741 O725 1.260 . S
C742 Tb678 2.833 . S
C742 O722 1.251 . S
C742 O727 1.256 . S
C742 C735 1.500 . S
C743 H708 0.929 . S
C743 C721 1.444 . S
C743 C744 1.317 . S
C744 H706 0.930 . S
C744 C712 1.432 . S
C744 C743 1.317 . S
C745 O729 1.283 . S
C745 O732 1.243 . S
C746 C747 1.382 . S
C746 C750 1.393 . S
C746 C753 1.500 . S
C747 C746 1.382 . S
C747 C748 1.400 . S
C747 H758 0.930 . S
C748 C747 1.400 . S
C748 C749 1.384 . S
C749 C748 1.384 . S
C749 C751 1.392 . S
C749 H759 0.931 . S
C750 C746 1.393 . S
C750 C751 1.401 . S
C750 H760 0.930 . S
C751 C749 1.392 . S
C751 C750 1.401 . S
C751 H761 0.930 . S
C752 O730 1.262 . S
C752 O731 1.260 . S
C753 Tb689 2.833 . S
C753 O728 1.251 . S
C753 O733 1.256 . S
C753 C746 1.500 . S
H754 C737 0.930 . S
H755 C738 0.931 . S
H756 C739 0.930 . S
H757 C740 0.930 . S
H758 C747 0.930 . S
H759 C749 0.931 . S
H760 C750 0.930 . S
H761 C751 0.930 . S
Tb762 N793 2.660 . S
Tb762 N800 2.600 . S
Tb762 O806 2.546 . S
Tb762 O807 2.610 . S
Tb762 O809 2.320 . S
Tb762 O810 2.552 . S
Tb762 O811 2.413 . S
Tb762 O813 2.362 . S
Tb762 O814 2.421 . S
Tb762 C826 2.833 . S
C763 C766 1.432 . S
C763 C767 1.414 . S
C763 N770 1.359 . S
C764 C766 1.417 . S
C764 C768 1.432 1_455 S
C764 C776 1.410 1_455 S
C765 C767 1.444 . S
C765 C768 1.317 1_455 S
C765 H788 0.929 . S
C766 C763 1.432 . S
C766 C764 1.417 . S
C766 N774 1.360 . S
C767 C763 1.414 . S
C767 C765 1.444 . S
C767 C772 1.385 1_565 S
C768 C764 1.432 1_655 S
C768 C765 1.317 1_655 S
C768 H780 0.930 . S
C769 C771 1.392 . S
C769 C772 1.370 . S
C769 H781 0.931 . S
N770 C763 1.359 . S
N770 C771 1.327 1_565 S
N770 Tb773 2.600 . S
C771 C769 1.392 . S
C771 N770 1.327 1_545 S
C771 H778 0.930 . S
C772 C767 1.385 1_545 S
C772 C769 1.370 . S
C772 H791 0.930 . S
Tb773 N770 2.600 . S
Tb773 N774 2.660 . S
Tb773 O807 2.362 . S
Tb773 O808 2.421 1_565 S
Tb773 O812 2.546 . S
Tb773 O813 2.610 . S
Tb773 O815 2.320 . S
Tb773 O816 2.552 . S
Tb773 O817 2.413 . S
Tb773 C837 2.833 . S
N774 C766 1.360 . S
N774 Tb773 2.660 . S
N774 C775 1.305 . S
C775 N774 1.305 . S
C775 C777 1.407 . S
C775 H782 0.930 . S
C776 C764 1.410 1_655 S
C776 C777 1.345 1_655 S
C776 H784 0.930 . S
C777 C775 1.407 . S
C777 C776 1.345 1_455 S
C777 H779 0.930 1_455 S
H778 C771 0.930 . S
H779 C777 0.930 1_655 S
H780 C768 0.930 . S
H781 C769 0.931 . S
H782 C775 0.930 . S
H783 C797 0.930 . S
H784 C776 0.930 . S
H785 C803 0.930 . S
H786 C794 0.930 . S
H787 C801 0.931 . S
H788 C765 0.929 . S
H789 C795 0.930 . S
H790 C828 0.930 . S
H791 C772 0.930 . S
H792 C827 0.929 . S
N793 Tb762 2.660 . S
N793 C794 1.305 1_565 S
N793 C798 1.360 . S
C794 H786 0.930 . S
C794 N793 1.305 1_545 S
C794 C797 1.407 . S
C795 H789 0.930 . S
C795 C796 1.410 1_545 S
C795 C797 1.345 . S
C796 C795 1.410 1_565 S
C796 C798 1.417 . S
C796 C828 1.432 . S
C797 H783 0.930 . S
C797 C794 1.407 . S
C797 C795 1.345 . S
C798 N793 1.360 . S
C798 C796 1.417 . S
C798 C802 1.432 . S
H799 C804 0.930 . S
N800 Tb762 2.600 . S
N800 C802 1.359 . S
N800 C803 1.327 . S
C801 H787 0.931 . S
C801 C803 1.392 . S
C801 C804 1.370 . S
C802 C798 1.432 . S
C802 N800 1.359 . S
C802 C805 1.414 . S
C803 H785 0.930 . S
C803 N800 1.327 . S
C803 C801 1.392 . S
C804 H799 0.930 . S
C804 C801 1.370 . S
C804 C805 1.385 . S
C805 C802 1.414 . S
C805 C804 1.385 . S
C805 C827 1.444 . S
O806 Tb762 2.546 . S
O806 C826 1.251 . S
O807 Tb762 2.610 . S
O807 Tb773 2.362 . S
O807 C818 1.283 . S
O808 Tb773 2.421 1_545 S
O808 C825 1.262 . S
O809 Tb762 2.320 . S
O809 C825 1.260 1_565 S
O810 Tb762 2.552 . S
O810 C818 1.243 . S
O811 Tb762 2.413 . S
O811 C826 1.256 . S
O812 Tb773 2.546 . S
O812 C837 1.251 . S
O813 Tb762 2.362 . S
O813 Tb773 2.610 . S
O813 C829 1.283 . S
O814 Tb762 2.421 . S
O814 C836 1.262 . S
O815 Tb773 2.320 . S
O815 C836 1.260 . S
O816 Tb773 2.552 . S
O816 C829 1.243 . S
O817 Tb773 2.413 . S
O817 C837 1.256 . S
C818 O807 1.283 . S
C818 O810 1.243 . S
C819 C821 1.382 . S
C819 C823 1.393 . S
C819 C826 1.500 . S
C820 C821 1.400 . S
C820 C822 1.384 . S
C821 C819 1.382 . S
C821 C820 1.400 . S
C821 H838 0.930 . S
C822 C820 1.384 . S
C822 C824 1.392 . S
C822 H839 0.931 . S
C823 C819 1.393 . S
C823 C824 1.401 . S
C823 H840 0.930 . S
C824 C822 1.392 . S
C824 C823 1.401 . S
C824 H841 0.930 . S
C825 O808 1.262 . S
C825 O809 1.260 1_545 S
C826 Tb762 2.833 . S
C826 O806 1.251 . S
C826 O811 1.256 . S
C826 C819 1.500 . S
C827 H792 0.929 . S
C827 C805 1.444 . S
C827 C828 1.317 . S
C828 H790 0.930 . S
C828 C796 1.432 . S
C828 C827 1.317 . S
C829 O813 1.283 . S
C829 O816 1.243 . S
C830 C831 1.382 . S
C830 C834 1.393 . S
C830 C837 1.500 . S
C831 C830 1.382 . S
C831 C832 1.400 . S
C831 H842 0.930 . S
C832 C831 1.400 . S
C832 C833 1.384 . S
C833 C832 1.384 . S
C833 C835 1.392 . S
C833 H843 0.931 . S
C834 C830 1.393 . S
C834 C835 1.401 . S
C834 H844 0.930 . S
C835 C833 1.392 . S
C835 C834 1.401 . S
C835 H845 0.930 . S
C836 O814 1.262 . S
C836 O815 1.260 . S
C837 Tb773 2.833 . S
C837 O812 1.251 . S
C837 O817 1.256 . S
C837 C830 1.500 . S
H838 C821 0.930 . S
H839 C822 0.931 . S
H840 C823 0.930 . S
H841 C824 0.930 . S
H842 C831 0.930 . S
H843 C833 0.931 . S
H844 C834 0.930 . S
H845 C835 0.930 . S
Tb846 N877 2.660 . S
Tb846 N884 2.600 . S
Tb846 O890 2.546 . S
Tb846 O891 2.610 . S
Tb846 O893 2.320 . S
Tb846 O894 2.552 . S
Tb846 O895 2.413 . S
Tb846 O897 2.362 . S
Tb846 O898 2.421 . S
Tb846 C910 2.833 . S
C847 C850 1.432 . S
C847 C851 1.414 . S
C847 N854 1.359 . S
C848 C850 1.417 . S
C848 C852 1.432 1_655 S
C848 C860 1.410 1_655 S
C849 C851 1.444 . S
C849 C852 1.317 1_655 S
C849 H872 0.929 . S
C850 C847 1.432 . S
C850 C848 1.417 . S
C850 N858 1.360 . S
C851 C847 1.414 . S
C851 C849 1.444 . S
C851 C856 1.385 . S
C852 C848 1.432 1_455 S
C852 C849 1.317 1_455 S
C852 H864 0.930 . S
C853 C855 1.392 . S
C853 C856 1.370 . S
C853 H865 0.931 . S
N854 C847 1.359 . S
N854 C855 1.327 . S
N854 Tb857 2.600 . S
C855 C853 1.392 . S
C855 N854 1.327 . S
C855 H862 0.930 . S
C856 C851 1.385 . S
C856 C853 1.370 . S
C856 H875 0.930 . S
Tb857 N854 2.600 . S
Tb857 N858 2.660 . S
Tb857 O891 2.362 . S
Tb857 O892 2.421 . S
Tb857 O896 2.546 . S
Tb857 O897 2.610 . S
Tb857 O899 2.320 . S
Tb857 O900 2.552 . S
Tb857 O901 2.413 . S
Tb857 C921 2.833 . S
N858 C850 1.360 . S
N858 Tb857 2.660 . S
N858 C859 1.305 . S
C859 N858 1.305 . S
C859 C861 1.407 . S
C859 H866 0.930 . S
C860 C848 1.410 1_455 S
C860 C861 1.345 1_455 S
C860 H868 0.930 . S
C861 C859 1.407 . S
C861 C860 1.345 1_655 S
C861 H863 0.930 1_655 S
H862 C855 0.930 . S
H863 C861 0.930 1_455 S
H864 C852 0.930 . S
H865 C853 0.931 . S
H866 C859 0.930 . S
H867 C881 0.930 . S
H868 C860 0.930 . S
H869 C887 0.930 . S
H870 C878 0.930 . S
H871 C885 0.931 . S
H872 C849 0.929 . S
H873 C879 0.930 . S
H874 C912 0.930 . S
H875 C856 0.930 . S
H876 C911 0.929 . S
N877 Tb846 2.660 . S
N877 C878 1.305 . S
N877 C882 1.360 . S
C878 H870 0.930 . S
C878 N877 1.305 . S
C878 C881 1.407 . S
C879 H873 0.930 . S
C879 C880 1.410 . S
C879 C881 1.345 . S
C880 C879 1.410 . S
C880 C882 1.417 . S
C880 C912 1.432 . S
C881 H867 0.930 . S
C881 C878 1.407 . S
C881 C879 1.345 . S
C882 N877 1.360 . S
C882 C880 1.417 . S
C882 C886 1.432 . S
H883 C888 0.930 . S
N884 Tb846 2.600 . S
N884 C886 1.359 . S
N884 C887 1.327 . S
C885 H871 0.931 . S
C885 C887 1.392 . S
C885 C888 1.370 . S
C886 C882 1.432 . S
C886 N884 1.359 . S
C886 C889 1.414 . S
C887 H869 0.930 . S
C887 N884 1.327 . S
C887 C885 1.392 . S
C888 H883 0.930 . S
C888 C885 1.370 . S
C888 C889 1.385 . S
C889 C886 1.414 . S
C889 C888 1.385 . S
C889 C911 1.444 . S
O890 Tb846 2.546 . S
O890 C910 1.251 . S
O891 Tb846 2.610 . S
O891 Tb857 2.362 . S
O891 C902 1.283 . S
O892 Tb857 2.421 . S
O892 C909 1.262 . S
O893 Tb846 2.320 . S
O893 C909 1.260 . S
O894 Tb846 2.552 . S
O894 C902 1.243 . S
O895 Tb846 2.413 . S
O895 C910 1.256 . S
O896 Tb857 2.546 . S
O896 C921 1.251 . S
O897 Tb846 2.362 . S
O897 Tb857 2.610 . S
O897 C913 1.283 . S
O898 Tb846 2.421 . S
O898 C920 1.262 . S
O899 Tb857 2.320 . S
O899 C920 1.260 . S
O900 Tb857 2.552 . S
O900 C913 1.243 . S
O901 Tb857 2.413 . S
O901 C921 1.256 . S
C902 O891 1.283 . S
C902 O894 1.243 . S
C903 C905 1.382 . S
C903 C907 1.393 . S
C903 C910 1.500 . S
C904 C905 1.400 . S
C904 C906 1.384 . S
C905 C903 1.382 . S
C905 C904 1.400 . S
C905 H922 0.930 . S
C906 C904 1.384 . S
C906 C908 1.392 . S
C906 H923 0.931 . S
C907 C903 1.393 . S
C907 C908 1.401 . S
C907 H924 0.930 . S
C908 C906 1.392 . S
C908 C907 1.401 . S
C908 H925 0.930 . S
C909 O892 1.262 . S
C909 O893 1.260 . S
C910 Tb846 2.833 . S
C910 O890 1.251 . S
C910 O895 1.256 . S
C910 C903 1.500 . S
C911 H876 0.929 . S
C911 C889 1.444 . S
C911 C912 1.317 . S
C912 H874 0.930 . S
C912 C880 1.432 . S
C912 C911 1.317 . S
C913 O897 1.283 . S
C913 O900 1.243 . S
C914 C915 1.382 . S
C914 C918 1.393 . S
C914 C921 1.500 . S
C915 C914 1.382 . S
C915 C916 1.400 . S
C915 H926 0.930 . S
C916 C915 1.400 . S
C916 C917 1.384 . S
C917 C916 1.384 . S
C917 C919 1.392 . S
C917 H927 0.931 . S
C918 C914 1.393 . S
C918 C919 1.401 . S
C918 H928 0.930 . S
C919 C917 1.392 . S
C919 C918 1.401 . S
C919 H929 0.930 . S
C920 O898 1.262 . S
C920 O899 1.260 . S
C921 Tb857 2.833 . S
C921 O896 1.251 . S
C921 O901 1.256 . S
C921 C914 1.500 . S
H922 C905 0.930 . S
H923 C906 0.931 . S
H924 C907 0.930 . S
H925 C908 0.930 . S
H926 C915 0.930 . S
H927 C917 0.931 . S
H928 C918 0.930 . S
H929 C919 0.930 . S
Tb930 N961 2.660 . S
Tb930 N968 2.600 . S
Tb930 O974 2.546 . S
Tb930 O975 2.610 . S
Tb930 O977 2.320 . S
Tb930 O978 2.552 . S
Tb930 O979 2.413 . S
Tb930 O981 2.362 . S
Tb930 O982 2.421 . S
Tb930 C994 2.833 . S
C931 C934 1.432 . S
C931 C935 1.414 . S
C931 N938 1.359 . S
C932 C934 1.417 . S
C932 C936 1.432 . S
C932 C944 1.410 . S
C933 C935 1.444 . S
C933 C936 1.317 . S
C933 H956 0.929 . S
C934 C931 1.432 . S
C934 C932 1.417 . S
C934 N942 1.360 . S
C935 C931 1.414 . S
C935 C933 1.444 . S
C935 C940 1.385 1_545 S
C936 C932 1.432 . S
C936 C933 1.317 . S
C936 H948 0.930 . S
C937 C939 1.392 . S
C937 C940 1.370 . S
C937 H949 0.931 . S
N938 C931 1.359 . S
N938 C939 1.327 1_545 S
N938 Tb941 2.600 . S
C939 C937 1.392 . S
C939 N938 1.327 1_565 S
C939 H946 0.930 . S
C940 C935 1.385 1_565 S
C940 C937 1.370 . S
C940 H959 0.930 . S
Tb941 N938 2.600 . S
Tb941 N942 2.660 . S
Tb941 O975 2.362 . S
Tb941 O976 2.421 . S
Tb941 O980 2.546 . S
Tb941 O981 2.610 . S
Tb941 O983 2.320 . S
Tb941 O984 2.552 . S
Tb941 O985 2.413 . S
Tb941 C1005 2.833 . S
N942 C934 1.360 . S
N942 Tb941 2.660 . S
N942 C943 1.305 . S
C943 N942 1.305 . S
C943 C945 1.407 . S
C943 H950 0.930 . S
C944 C932 1.410 . S
C944 C945 1.345 . S
C944 H952 0.930 . S
C945 C943 1.407 . S
C945 C944 1.345 . S
C945 H947 0.930 . S
H946 C939 0.930 . S
H947 C945 0.930 . S
H948 C936 0.930 . S
H949 C937 0.931 . S
H950 C943 0.930 . S
H951 C965 0.930 . S
H952 C944 0.930 . S
H953 C971 0.930 . S
H954 C962 0.930 1_565 S
H955 C969 0.931 . S
H956 C933 0.929 . S
H957 C963 0.930 . S
H958 C996 0.930 . S
H959 C940 0.930 . S
H960 C995 0.929 . S
N961 Tb930 2.660 . S
N961 C962 1.305 . S
N961 C966 1.360 . S
C962 H954 0.930 1_545 S
C962 N961 1.305 . S
C962 C965 1.407 1_545 S
C963 H957 0.930 . S
C963 C964 1.410 1_565 S
C963 C965 1.345 . S
C964 C963 1.410 1_545 S
C964 C966 1.417 . S
C964 C996 1.432 . S
C965 H951 0.930 . S
C965 C962 1.407 1_565 S
C965 C963 1.345 . S
C966 N961 1.360 . S
C966 C964 1.417 . S
C966 C970 1.432 . S
H967 C972 0.930 . S
N968 Tb930 2.600 . S
N968 C970 1.359 . S
N968 C971 1.327 . S
C969 H955 0.931 . S
C969 C971 1.392 . S
C969 C972 1.370 . S
C970 C966 1.432 . S
C970 N968 1.359 . S
C970 C973 1.414 . S
C971 H953 0.930 . S
C971 N968 1.327 . S
C971 C969 1.392 . S
C972 H967 0.930 . S
C972 C969 1.370 . S
C972 C973 1.385 . S
C973 C970 1.414 . S
C973 C972 1.385 . S
C973 C995 1.444 . S
O974 Tb930 2.546 . S
O974 C994 1.251 . S
O975 Tb930 2.610 . S
O975 Tb941 2.362 . S
O975 C986 1.283 . S
O976 Tb941 2.421 . S
O976 C993 1.262 1_545 S
O977 Tb930 2.320 . S
O977 C993 1.260 1_545 S
O978 Tb930 2.552 . S
O978 C986 1.243 . S
O979 Tb930 2.413 . S
O979 C994 1.256 . S
O980 Tb941 2.546 . S
O980 C1005 1.251 . S
O981 Tb930 2.362 . S
O981 Tb941 2.610 . S
O981 C997 1.283 . S
O982 Tb930 2.421 . S
O982 C1004 1.262 . S
O983 Tb941 2.320 . S
O983 C1004 1.260 . S
O984 Tb941 2.552 . S
O984 C997 1.243 . S
O985 Tb941 2.413 . S
O985 C1005 1.256 . S
C986 O975 1.283 . S
C986 O978 1.243 . S
C987 C989 1.382 . S
C987 C991 1.393 . S
C987 C994 1.500 . S
C988 C989 1.400 . S
C988 C990 1.384 . S
C989 C987 1.382 . S
C989 C988 1.400 . S
C989 H1006 0.930 . S
C990 C988 1.384 . S
C990 C992 1.392 . S
C990 H1007 0.931 . S
C991 C987 1.393 . S
C991 C992 1.401 . S
C991 H1008 0.930 . S
C992 C990 1.392 . S
C992 C991 1.401 . S
C992 H1009 0.930 . S
C993 O976 1.262 1_565 S
C993 O977 1.260 1_565 S
C994 Tb930 2.833 . S
C994 O974 1.251 . S
C994 O979 1.256 . S
C994 C987 1.500 . S
C995 H960 0.929 . S
C995 C973 1.444 . S
C995 C996 1.317 . S
C996 H958 0.930 . S
C996 C964 1.432 . S
C996 C995 1.317 . S
C997 O981 1.283 . S
C997 O984 1.243 . S
C998 C999 1.382 . S
C998 C1002 1.393 . S
C998 C1005 1.500 . S
C999 C998 1.382 . S
C999 C1000 1.400 . S
C999 H1010 0.930 . S
C1000 C999 1.400 . S
C1000 C1001 1.384 . S
C1001 C1000 1.384 . S
C1001 C1003 1.392 . S
C1001 H1011 0.931 . S
C1002 C998 1.393 . S
C1002 C1003 1.401 . S
C1002 H1012 0.930 . S
C1003 C1001 1.392 . S
C1003 C1002 1.401 . S
C1003 H1013 0.930 . S
C1004 O982 1.262 . S
C1004 O983 1.260 . S
C1005 Tb941 2.833 . S
C1005 O980 1.251 . S
C1005 O985 1.256 . S
C1005 C998 1.500 . S
H1006 C989 0.930 . S
H1007 C990 0.931 . S
H1008 C991 0.930 . S
H1009 C992 0.930 . S
H1010 C999 0.930 . S
H1011 C1001 0.931 . S
H1012 C1002 0.930 . S
H1013 C1003 0.930 . S
Tb1014 N1045 2.660 1_655 S
Tb1014 N1052 2.600 . S
Tb1014 O1058 2.546 . S
Tb1014 O1059 2.610 . S
Tb1014 O1061 2.320 . S
Tb1014 O1062 2.552 . S
Tb1014 O1063 2.413 . S
Tb1014 O1065 2.362 . S
Tb1014 O1066 2.421 . S
Tb1014 C1078 2.833 . S
C1015 C1018 1.432 . S
C1015 C1019 1.414 . S
C1015 N1022 1.359 . S
C1016 C1018 1.417 . S
C1016 C1020 1.432 . S
C1016 C1028 1.410 . S
C1017 C1019 1.444 . S
C1017 C1020 1.317 . S
C1017 H1040 0.929 . S
C1018 C1015 1.432 . S
C1018 C1016 1.417 . S
C1018 N1026 1.360 . S
C1019 C1015 1.414 . S
C1019 C1017 1.444 . S
C1019 C1024 1.385 . S
C1020 C1016 1.432 . S
C1020 C1017 1.317 . S
C1020 H1032 0.930 . S
C1021 C1023 1.392 . S
C1021 C1024 1.370 . S
C1021 H1033 0.931 . S
N1022 C1015 1.359 . S
N1022 C1023 1.327 . S
N1022 Tb1025 2.600 . S
C1023 C1021 1.392 . S
C1023 N1022 1.327 . S
C1023 H1030 0.930 . S
C1024 C1019 1.385 . S
C1024 C1021 1.370 . S
C1024 H1043 0.930 . S
Tb1025 N1022 2.600 . S
Tb1025 N1026 2.660 . S
Tb1025 O1059 2.362 . S
Tb1025 O1060 2.421 . S
Tb1025 O1064 2.546 . S
Tb1025 O1065 2.610 . S
Tb1025 O1067 2.320 . S
Tb1025 O1068 2.552 . S
Tb1025 O1069 2.413 . S
Tb1025 C1089 2.833 . S
N1026 C1018 1.360 . S
N1026 Tb1025 2.660 . S
N1026 C1027 1.305 . S
C1027 N1026 1.305 . S
C1027 C1029 1.407 . S
C1027 H1034 0.930 . S
C1028 C1016 1.410 . S
C1028 C1029 1.345 . S
C1028 H1036 0.930 . S
C1029 C1027 1.407 . S
C1029 C1028 1.345 . S
C1029 H1031 0.930 . S
H1030 C1023 0.930 . S
H1031 C1029 0.930 . S
H1032 C1020 0.930 . S
H1033 C1021 0.931 . S
H1034 C1027 0.930 . S
H1035 C1049 0.930 . S
H1036 C1028 0.930 . S
H1037 C1055 0.930 . S
H1038 C1046 0.930 . S
H1039 C1053 0.931 . S
H1040 C1017 0.929 . S
H1041 C1047 0.930 . S
H1042 C1080 0.930 . S
H1043 C1024 0.930 . S
H1044 C1079 0.929 . S
N1045 Tb1014 2.660 1_455 S
N1045 C1046 1.305 . S
N1045 C1050 1.360 . S
C1046 H1038 0.930 . S
C1046 N1045 1.305 . S
C1046 C1049 1.407 . S
C1047 H1041 0.930 . S
C1047 C1048 1.410 . S
C1047 C1049 1.345 . S
C1048 C1047 1.410 . S
C1048 C1050 1.417 . S
C1048 C1080 1.432 . S
C1049 H1035 0.930 . S
C1049 C1046 1.407 . S
C1049 C1047 1.345 . S
C1050 N1045 1.360 . S
C1050 C1048 1.417 . S
C1050 C1054 1.432 . S
H1051 C1056 0.930 . S
N1052 Tb1014 2.600 . S
N1052 C1054 1.359 1_655 S
N1052 C1055 1.327 . S
C1053 H1039 0.931 . S
C1053 C1055 1.392 . S
C1053 C1056 1.370 1_655 S
C1054 C1050 1.432 . S
C1054 N1052 1.359 1_455 S
C1054 C1057 1.414 . S
C1055 H1037 0.930 . S
C1055 N1052 1.327 . S
C1055 C1053 1.392 . S
C1056 H1051 0.930 . S
C1056 C1053 1.370 1_455 S
C1056 C1057 1.385 . S
C1057 C1054 1.414 . S
C1057 C1056 1.385 . S
C1057 C1079 1.444 . S
O1058 Tb1014 2.546 . S
O1058 C1078 1.251 . S
O1059 Tb1014 2.610 . S
O1059 Tb1025 2.362 . S
O1059 C1070 1.283 . S
O1060 Tb1025 2.421 . S
O1060 C1077 1.262 . S
O1061 Tb1014 2.320 . S
O1061 C1077 1.260 . S
O1062 Tb1014 2.552 . S
O1062 C1070 1.243 . S
O1063 Tb1014 2.413 . S
O1063 C1078 1.256 . S
O1064 Tb1025 2.546 . S
O1064 C1089 1.251 . S
O1065 Tb1014 2.362 . S
O1065 Tb1025 2.610 . S
O1065 C1081 1.283 . S
O1066 Tb1014 2.421 . S
O1066 C1088 1.262 . S
O1067 Tb1025 2.320 . S
O1067 C1088 1.260 . S
O1068 Tb1025 2.552 . S
O1068 C1081 1.243 . S
O1069 Tb1025 2.413 . S
O1069 C1089 1.256 . S
C1070 O1059 1.283 . S
C1070 O1062 1.243 . S
C1071 C1073 1.382 . S
C1071 C1075 1.393 . S
C1071 C1078 1.500 . S
C1072 C1073 1.400 . S
C1072 C1074 1.384 . S
C1073 C1071 1.382 . S
C1073 C1072 1.400 . S
C1073 H1090 0.930 . S
C1074 C1072 1.384 . S
C1074 C1076 1.392 . S
C1074 H1091 0.931 . S
C1075 C1071 1.393 . S
C1075 C1076 1.401 . S
C1075 H1092 0.930 . S
C1076 C1074 1.392 . S
C1076 C1075 1.401 . S
C1076 H1093 0.930 . S
C1077 O1060 1.262 . S
C1077 O1061 1.260 . S
C1078 Tb1014 2.833 . S
C1078 O1058 1.251 . S
C1078 O1063 1.256 . S
C1078 C1071 1.500 . S
C1079 H1044 0.929 . S
C1079 C1057 1.444 . S
C1079 C1080 1.317 . S
C1080 H1042 0.930 . S
C1080 C1048 1.432 . S
C1080 C1079 1.317 . S
C1081 O1065 1.283 . S
C1081 O1068 1.243 . S
C1082 C1083 1.382 . S
C1082 C1086 1.393 . S
C1082 C1089 1.500 . S
C1083 C1082 1.382 . S
C1083 C1084 1.400 . S
C1083 H1094 0.930 . S
C1084 C1083 1.400 . S
C1084 C1085 1.384 . S
C1085 C1084 1.384 . S
C1085 C1087 1.392 . S
C1085 H1095 0.931 . S
C1086 C1082 1.393 . S
C1086 C1087 1.401 . S
C1086 H1096 0.930 . S
C1087 C1085 1.392 . S
C1087 C1086 1.401 . S
C1087 H1097 0.930 . S
C1088 O1066 1.262 . S
C1088 O1067 1.260 . S
C1089 Tb1025 2.833 . S
C1089 O1064 1.251 . S
C1089 O1069 1.256 . S
C1089 C1082 1.500 . S
H1090 C1073 0.930 . S
H1091 C1074 0.931 . S
H1092 C1075 0.930 . S
H1093 C1076 0.930 . S
H1094 C1083 0.930 . S
H1095 C1085 0.931 . S
H1096 C1086 0.930 . S
H1097 C1087 0.930 . S
C253 C409 1.667 . S
C272 C493 1.764 . S
C234 C573 1.848 . S
C215 C489 1.921 . S
C577 C177 1.726 . S
C196 C405 1.833 . S
C398 C220 1.712 1_556 S
C482 C182 1.762 . S
C201 C584 1.523 1_554 S
C258 C500 1.504 . S
C277 C566 1.682 . S
C416 C239 1.450 . S
C661 C25 1.667 1_455 S
C44 C745 1.764 . S
C6 C825 1.847 . S
C329 C741 1.921 . S
C291 C829 1.725 . S
C310 C657 1.832 . S
C334 C650 1.712 . S
C296 C734 1.762 . S
C836 C315 1.522 . S
C30 C752 1.504 . S
C818 C49 1.682 . S
C11 C668 1.450 . S
C913 C139 1.667 . S
C158 C997 1.764 . S
C1077 C120 1.847 . S
C993 C101 1.921 . S
C1081 C63 1.725 1_655 S
C82 C909 1.833 . S
C106 C902 1.713 . S
C68 C986 1.762 . S
C1088 C87 1.522 . S
C144 C1004 1.504 . S
C163 C1070 1.682 . S
C125 C920 1.450 . S
C287 C412 1.853 . S
C496 C306 1.840 . S
C325 C568 1.558 . S
C116 C484 1.484 . S
C135 C580 1.760 . S
C400 C154 1.519 . S
C59 C664 1.853 . S
C78 C748 1.839 . S
C97 C820 1.558 . S
C230 C736 1.484 . S
C832 C249 1.760 . S
C268 C652 1.519 . S
C173 C916 1.853 . S
C192 C1000 1.839 . S
C1072 C211 1.558 . S
C2 C988 1.484 . S
C21 C1084 1.760 . S
C40 C904 1.519 . S
