# Generated by pormake.
# Topology ctn, (3,4)-cn, num edge types: 1
# Building blocks:
#     Node 0, Type 0, BuildingBlock: CUQRIR_clean_linker_1, # of connection points: 3
#     Node 1, Type 0, BuildingBlock: CUQRIR_clean_linker_1, # of connection points: 3
#     Node 2, Type 0, BuildingBlock: CUQRIR_clean_linker_1, # of connection points: 3
#     Node 3, Type 0, BuildingBlock: CUQRIR_clean_linker_1, # of connection points: 3
#     Node 4, Type 0, BuildingBlock: CUQRIR_clean_linker_1, # of connection points: 3
#     Node 5, Type 0, BuildingBlock: CUQRIR_clean_linker_1, # of connection points: 3
#     Node 6, Type 0, BuildingBlock: CUQRIR_clean_linker_1, # of connection points: 3
#     Node 7, Type 0, BuildingBlock: CUQRIR_clean_linker_1, # of connection points: 3
#     Node 8, Type 0, BuildingBlock: CUQRIR_clean_linker_1, # of connection points: 3
#     Node 9, Type 0, BuildingBlock: CUQRIR_clean_linker_1, # of connection points: 3
#     Node 10, Type 0, BuildingBlock: CUQRIR_clean_linker_1, # of connection points: 3
#     Node 11, Type 0, BuildingBlock: CUQRIR_clean_linker_1, # of connection points: 3
#     Node 12, Type 0, BuildingBlock: CUQRIR_clean_linker_1, # of connection points: 3
#     Node 13, Type 0, BuildingBlock: CUQRIR_clean_linker_1, # of connection points: 3
#     Node 14, Type 0, BuildingBlock: CUQRIR_clean_linker_1, # of connection points: 3
#     Node 15, Type 0, BuildingBlock: CUQRIR_clean_linker_1, # of connection points: 3
#     Node 16, Type 1, BuildingBlock: QUQFOY_clean_sbu_1, # of connection points: 4
#     Node 17, Type 1, BuildingBlock: QUQFOY_clean_sbu_1, # of connection points: 4
#     Node 18, Type 1, BuildingBlock: QUQFOY_clean_sbu_1, # of connection points: 4
#     Node 19, Type 1, BuildingBlock: QUQFOY_clean_sbu_1, # of connection points: 4
#     Node 20, Type 1, BuildingBlock: QUQFOY_clean_sbu_1, # of connection points: 4
#     Node 21, Type 1, BuildingBlock: QUQFOY_clean_sbu_1, # of connection points: 4
#     Node 22, Type 1, BuildingBlock: QUQFOY_clean_sbu_1, # of connection points: 4
#     Node 23, Type 1, BuildingBlock: QUQFOY_clean_sbu_1, # of connection points: 4
#     Node 24, Type 1, BuildingBlock: QUQFOY_clean_sbu_1, # of connection points: 4
#     Node 25, Type 1, BuildingBlock: QUQFOY_clean_sbu_1, # of connection points: 4
#     Node 26, Type 1, BuildingBlock: QUQFOY_clean_sbu_1, # of connection points: 4
#     Node 27, Type 1, BuildingBlock: QUQFOY_clean_sbu_1, # of connection points: 4
#     Edge 28, Type (0, 1), BuildingBlock: UVAHIK_clean_linker_0, # of connection points: 2
#     Edge 29, Type (0, 1), BuildingBlock: UVAHIK_clean_linker_0, # of connection points: 2
#     Edge 30, Type (0, 1), BuildingBlock: UVAHIK_clean_linker_0, # of connection points: 2
#     Edge 31, Type (0, 1), BuildingBlock: UVAHIK_clean_linker_0, # of connection points: 2
#     Edge 32, Type (0, 1), BuildingBlock: UVAHIK_clean_linker_0, # of connection points: 2
#     Edge 33, Type (0, 1), BuildingBlock: UVAHIK_clean_linker_0, # of connection points: 2
#     Edge 34, Type (0, 1), BuildingBlock: UVAHIK_clean_linker_0, # of connection points: 2
#     Edge 35, Type (0, 1), BuildingBlock: UVAHIK_clean_linker_0, # of connection points: 2
#     Edge 36, Type (0, 1), BuildingBlock: UVAHIK_clean_linker_0, # of connection points: 2
#     Edge 37, Type (0, 1), BuildingBlock: UVAHIK_clean_linker_0, # of connection points: 2
#     Edge 38, Type (0, 1), BuildingBlock: UVAHIK_clean_linker_0, # of connection points: 2
#     Edge 39, Type (0, 1), BuildingBlock: UVAHIK_clean_linker_0, # of connection points: 2
#     Edge 40, Type (0, 1), BuildingBlock: UVAHIK_clean_linker_0, # of connection points: 2
#     Edge 41, Type (0, 1), BuildingBlock: UVAHIK_clean_linker_0, # of connection points: 2
#     Edge 42, Type (0, 1), BuildingBlock: UVAHIK_clean_linker_0, # of connection points: 2
#     Edge 43, Type (0, 1), BuildingBlock: UVAHIK_clean_linker_0, # of connection points: 2
#     Edge 44, Type (0, 1), BuildingBlock: UVAHIK_clean_linker_0, # of connection points: 2
#     Edge 45, Type (0, 1), BuildingBlock: UVAHIK_clean_linker_0, # of connection points: 2
#     Edge 46, Type (0, 1), BuildingBlock: UVAHIK_clean_linker_0, # of connection points: 2
#     Edge 47, Type (0, 1), BuildingBlock: UVAHIK_clean_linker_0, # of connection points: 2
#     Edge 48, Type (0, 1), BuildingBlock: UVAHIK_clean_linker_0, # of connection points: 2
#     Edge 49, Type (0, 1), BuildingBlock: UVAHIK_clean_linker_0, # of connection points: 2
#     Edge 50, Type (0, 1), BuildingBlock: UVAHIK_clean_linker_0, # of connection points: 2
#     Edge 51, Type (0, 1), BuildingBlock: UVAHIK_clean_linker_0, # of connection points: 2
#     Edge 52, Type (0, 1), BuildingBlock: UVAHIK_clean_linker_0, # of connection points: 2
#     Edge 53, Type (0, 1), BuildingBlock: UVAHIK_clean_linker_0, # of connection points: 2
#     Edge 54, Type (0, 1), BuildingBlock: UVAHIK_clean_linker_0, # of connection points: 2
#     Edge 55, Type (0, 1), BuildingBlock: UVAHIK_clean_linker_0, # of connection points: 2
#     Edge 56, Type (0, 1), BuildingBlock: UVAHIK_clean_linker_0, # of connection points: 2
#     Edge 57, Type (0, 1), BuildingBlock: UVAHIK_clean_linker_0, # of connection points: 2
#     Edge 58, Type (0, 1), BuildingBlock: UVAHIK_clean_linker_0, # of connection points: 2
#     Edge 59, Type (0, 1), BuildingBlock: UVAHIK_clean_linker_0, # of connection points: 2
#     Edge 60, Type (0, 1), BuildingBlock: UVAHIK_clean_linker_0, # of connection points: 2
#     Edge 61, Type (0, 1), BuildingBlock: UVAHIK_clean_linker_0, # of connection points: 2
#     Edge 62, Type (0, 1), BuildingBlock: UVAHIK_clean_linker_0, # of connection points: 2
#     Edge 63, Type (0, 1), BuildingBlock: UVAHIK_clean_linker_0, # of connection points: 2
#     Edge 64, Type (0, 1), BuildingBlock: UVAHIK_clean_linker_0, # of connection points: 2
#     Edge 65, Type (0, 1), BuildingBlock: UVAHIK_clean_linker_0, # of connection points: 2
#     Edge 66, Type (0, 1), BuildingBlock: UVAHIK_clean_linker_0, # of connection points: 2
#     Edge 67, Type (0, 1), BuildingBlock: UVAHIK_clean_linker_0, # of connection points: 2
#     Edge 68, Type (0, 1), BuildingBlock: UVAHIK_clean_linker_0, # of connection points: 2
#     Edge 69, Type (0, 1), BuildingBlock: UVAHIK_clean_linker_0, # of connection points: 2
#     Edge 70, Type (0, 1), BuildingBlock: UVAHIK_clean_linker_0, # of connection points: 2
#     Edge 71, Type (0, 1), BuildingBlock: UVAHIK_clean_linker_0, # of connection points: 2
#     Edge 72, Type (0, 1), BuildingBlock: UVAHIK_clean_linker_0, # of connection points: 2
#     Edge 73, Type (0, 1), BuildingBlock: UVAHIK_clean_linker_0, # of connection points: 2
#     Edge 74, Type (0, 1), BuildingBlock: UVAHIK_clean_linker_0, # of connection points: 2
#     Edge 75, Type (0, 1), BuildingBlock: UVAHIK_clean_linker_0, # of connection points: 2
# Relax obj value: 0.105
# Max RMSD: 0.206
# Mean RMSD: 0.156
data_MOF--net-ctn--node1-QUQFOY_clean_sbu_1--node2-CUQRIR_clean_linker_1--edge1-UVAHIK_clean_linker_0
_symmetry_space_group_name_H-M    P1
_symmetry_Int_Tables_number       1
_symmetry_cell_setting            triclinic
loop_
_symmetry_equiv_pos_as_xyz
'x, y, z'
_cell_length_a     68.744694
_cell_length_b     63.734223
_cell_length_c     65.632882
_cell_angle_alpha  99.910305
_cell_angle_beta   88.677129
_cell_angle_gamma 97.869342
loop_
_atom_site_label
_atom_site_type_symbol
_atom_site_fract_x
_atom_site_fract_y
_atom_site_fract_z
_atom_type_partial_charge
C0 C 0.05742 0.09738 0.12756 0.0
N1 N 0.06321 0.09764 0.10776 0.0
N2 N 0.04075 0.1065 0.13161 0.0
C3 C 0.06675 0.08597 0.14222 0.0
C4 C 0.03662 0.11232 0.11347 0.0
N5 N 0.0501 0.10666 0.09891 0.0
C6 C 0.01857 0.12205 0.10966 0.0
H7 H 0.06313 0.06835 0.13719 0.0
H8 H 0.0615 0.09041 0.1583 0.0
H9 H 0.08295 0.08998 0.14188 0.0
H10 H 0.01438 0.13275 0.12375 0.0
H11 H 0.00619 0.10898 0.1055 0.0
H12 H 0.02098 0.13146 0.09687 0.0
C13 C 0.27397 0.76615 0.26242 0.0
N14 N 0.28309 0.75476 0.27399 0.0
N15 N 0.28581 0.78426 0.25969 0.0
C16 C 0.25411 0.75894 0.25251 0.0
C17 C 0.30254 0.78331 0.2698 0.0
N18 N 0.30086 0.76541 0.27853 0.0
C19 C 0.32047 0.79987 0.27123 0.0
H20 H 0.25499 0.76022 0.23585 0.0
H21 H 0.24364 0.76973 0.25988 0.0
H22 H 0.24825 0.74224 0.2542 0.0
H23 H 0.31649 0.81583 0.26971 0.0
H24 H 0.3307 0.79497 0.25852 0.0
H25 H 0.32818 0.80107 0.28614 0.0
C26 C 0.95202 0.50285 0.09824 0.0
N27 N 0.96097 0.48513 0.09783 0.0
N28 N 0.9355 0.49808 0.08659 0.0
C29 C 0.95882 0.52454 0.11087 0.0
C30 C 0.93468 0.47678 0.07913 0.0
N31 N 0.95007 0.46887 0.08616 0.0
C32 C 0.92011 0.46429 0.06325 0.0
H33 H 0.94627 0.53369 0.11504 0.0
H34 H 0.96943 0.5338 0.10166 0.0
H35 H 0.96628 0.52284 0.12519 0.0
H36 H 0.91475 0.47495 0.05355 0.0
H37 H 0.90735 0.45679 0.07135 0.0
H38 H 0.92666 0.45134 0.05305 0.0
C39 C 0.70858 0.75576 0.25272 0.0
N40 N 0.72395 0.76752 0.24495 0.0
N41 N 0.70575 0.76375 0.27287 0.0
C42 C 0.69576 0.73707 0.2405 0.0
C43 C 0.71985 0.78096 0.277 0.0
N44 N 0.73105 0.78314 0.26006 0.0
C45 C 0.72093 0.79742 0.2965 0.0
H46 H 0.68408 0.74321 0.23273 0.0
H47 H 0.68866 0.72617 0.2508 0.0
H48 H 0.70444 0.728 0.22844 0.0
H49 H 0.73558 0.79878 0.30372 0.0
H50 H 0.70948 0.79326 0.30785 0.0
H51 H 0.7193 0.81338 0.29264 0.0
C52 C 0.03334 0.99601 0.49638 0.0
N53 N 0.05142 0.99702 0.50454 0.0
N54 N 0.03459 0.00383 0.47841 0.0
C55 C 0.01462 0.98577 0.50503 0.0
C56 C 0.05409 0.00939 0.4758 0.0
N57 N 0.06434 0.00499 0.49156 0.0
C58 C 0.063 0.02071 0.4588 0.0
H59 H 0.00352 0.97959 0.49268 0.0
H60 H 0.00854 0.99798 0.51663 0.0
H61 H 0.01743 0.97234 0.5128 0.0
H62 H 0.07617 0.03218 0.46442 0.0
H63 H 0.05227 0.02953 0.45262 0.0
H64 H 0.06761 0.00859 0.44604 0.0
C65 C 0.18612 0.74971 0.81923 0.0
N66 N 0.20016 0.74235 0.82905 0.0
N67 N 0.18657 0.74232 0.79865 0.0
C68 C 0.17265 0.76502 0.82965 0.0
C69 C 0.20154 0.73029 0.7963 0.0
N70 N 0.20997 0.73051 0.81483 0.0
C71 C 0.20653 0.71663 0.77631 0.0
H72 H 0.16772 0.77465 0.81867 0.0
H73 H 0.18008 0.77604 0.84299 0.0
H74 H 0.15956 0.75567 0.83555 0.0
H75 H 0.21835 0.72589 0.76842 0.0
H76 H 0.19361 0.7122 0.76588 0.0
H77 H 0.21187 0.70174 0.77918 0.0
C78 C 0.92586 0.57267 0.42026 0.0
N79 N 0.94069 0.58912 0.42161 0.0
N80 N 0.91083 0.57823 0.43277 0.0
C81 C 0.92618 0.55091 0.40716 0.0
C82 C 0.91708 0.59874 0.44182 0.0
N83 N 0.93519 0.60546 0.43486 0.0
C84 C 0.90688 0.61103 0.45966 0.0
H85 H 0.93487 0.55229 0.39287 0.0
H86 H 0.91103 0.54309 0.40299 0.0
H87 H 0.93313 0.54058 0.41603 0.0
H88 H 0.89484 0.60075 0.46615 0.0
H89 H 0.90064 0.62425 0.45421 0.0
H90 H 0.91754 0.61836 0.47216 0.0
C91 C 0.78152 0.81815 0.81472 0.0
N92 N 0.79635 0.80634 0.80944 0.0
N93 N 0.77843 0.82944 0.79967 0.0
C94 C 0.76924 0.81755 0.83394 0.0
C95 C 0.79186 0.82393 0.78498 0.0
N96 N 0.80259 0.80966 0.79083 0.0
C97 C 0.79565 0.83391 0.76584 0.0
H98 H 0.76789 0.80144 0.83851 0.0
H99 H 0.75435 0.8216 0.83161 0.0
H100 H 0.7765 0.82947 0.84678 0.0
H101 H 0.79108 0.85019 0.76807 0.0
H102 H 0.78708 0.82363 0.75282 0.0
H103 H 0.81143 0.83511 0.7616 0.0
C104 C 0.27026 0.29784 0.30192 0.0
N105 N 0.28785 0.29039 0.30012 0.0
N106 N 0.2692 0.31202 0.28894 0.0
C107 C 0.25472 0.2924 0.31742 0.0
C108 C 0.28685 0.31308 0.27932 0.0
N109 N 0.29831 0.30011 0.2863 0.0
C110 C 0.29307 0.3274 0.26367 0.0
H111 H 0.24156 0.30041 0.31626 0.0
H112 H 0.26093 0.29717 0.33326 0.0
H113 H 0.25011 0.27479 0.31487 0.0
H114 H 0.29983 0.34333 0.2719 0.0
H115 H 0.28034 0.3299 0.25478 0.0
H116 H 0.30398 0.32048 0.25272 0.0
C117 C 0.4537 0.00332 0.6021 0.0
N118 N 0.46306 0.98568 0.59801 0.0
N119 N 0.4408 0.00336 0.58683 0.0
C120 C 0.45806 0.02113 0.62032 0.0
C121 C 0.44283 0.98531 0.57317 0.0
N122 N 0.45645 0.97465 0.57989 0.0
C123 C 0.43233 0.97878 0.55273 0.0
H124 H 0.45213 0.0154 0.63454 0.0
H125 H 0.45132 0.03557 0.61864 0.0
H126 H 0.47418 0.02552 0.62231 0.0
H127 H 0.44096 0.98663 0.54095 0.0
H128 H 0.41756 0.98399 0.55364 0.0
H129 H 0.43084 0.96111 0.54765 0.0
C130 C 0.20474 0.25885 0.7587 0.0
N131 N 0.22005 0.26965 0.7498 0.0
N132 N 0.20215 0.26866 0.77837 0.0
C133 C 0.19135 0.23985 0.74771 0.0
C134 C 0.21647 0.28575 0.78108 0.0
N135 N 0.22743 0.28628 0.76376 0.0
C136 C 0.21838 0.30322 0.79981 0.0
H137 H 0.17896 0.24569 0.74084 0.0
H138 H 0.18522 0.22921 0.75866 0.0
H139 H 0.19925 0.23049 0.73513 0.0
H140 H 0.21039 0.29781 0.81327 0.0
H141 H 0.21231 0.3174 0.79615 0.0
H142 H 0.23406 0.30828 0.804 0.0
C143 C 0.78491 0.27004 0.74426 0.0
N144 N 0.79291 0.2588 0.75686 0.0
N145 N 0.79861 0.28536 0.73856 0.0
C146 C 0.76433 0.26458 0.73576 0.0
C147 C 0.81528 0.28281 0.74795 0.0
N148 N 0.81181 0.26659 0.75897 0.0
C149 C 0.83467 0.29678 0.74717 0.0
H150 H 0.76352 0.26894 0.72019 0.0
H151 H 0.75441 0.27374 0.74628 0.0
H152 H 0.75904 0.24719 0.73473 0.0
H153 H 0.84271 0.29871 0.76199 0.0
H154 H 0.83259 0.31284 0.74392 0.0
H155 H 0.84375 0.28899 0.73467 0.0
C156 C 0.54494 0.58586 0.62485 0.0
N157 N 0.55554 0.58797 0.60753 0.0
N158 N 0.53218 0.60046 0.62837 0.0
C159 C 0.54686 0.56941 0.63835 0.0
C160 C 0.53542 0.6116 0.61254 0.0
N161 N 0.54982 0.60418 0.59998 0.0
C162 C 0.5227 0.6276 0.60771 0.0
H163 H 0.53716 0.55434 0.6323 0.0
H164 H 0.54233 0.5752 0.65445 0.0
H165 H 0.5622 0.56578 0.63828 0.0
H166 H 0.5088 0.627 0.61661 0.0
H167 H 0.51916 0.6246 0.59096 0.0
H168 H 0.53091 0.64401 0.6116 0.0
C169 C 0.53047 0.48542 0.98518 0.0
N170 N 0.54812 0.48725 0.99449 0.0
N171 N 0.53234 0.49374 0.9675 0.0
C172 C 0.51157 0.47447 0.99276 0.0
C173 C 0.55182 0.50057 0.96631 0.0
N174 N 0.56145 0.49634 0.9826 0.0
C175 C 0.56106 0.51342 0.95051 0.0
H176 H 0.51437 0.46114 0.0007 0.0
H177 H 0.50119 0.46803 0.97978 0.0
H178 H 0.50464 0.4863 0.00402 0.0
H179 H 0.55021 0.52196 0.94417 0.0
H180 H 0.56685 0.50233 0.93761 0.0
H181 H 0.57346 0.52539 0.95732 0.0
C182 C 0.68904 0.2451 0.30957 0.0
N183 N 0.7032 0.23826 0.31967 0.0
N184 N 0.68944 0.23704 0.28913 0.0
C185 C 0.67551 0.26057 0.31953 0.0
C186 C 0.70449 0.22515 0.28714 0.0
N187 N 0.71303 0.22608 0.30576 0.0
C188 C 0.70953 0.21104 0.26745 0.0
H189 H 0.67046 0.2697 0.30818 0.0
H190 H 0.68292 0.27204 0.33259 0.0
H191 H 0.66249 0.25138 0.32574 0.0
H192 H 0.72142 0.22003 0.25941 0.0
H193 H 0.69666 0.2064 0.25697 0.0
H194 H 0.7148 0.19628 0.27076 0.0
C195 C 0.43122 0.06454 0.94552 0.0
N196 N 0.44394 0.0823 0.94373 0.0
N197 N 0.41547 0.06992 0.95696 0.0
C198 C 0.43383 0.04202 0.93558 0.0
C199 C 0.41904 0.0916 0.96205 0.0
N200 N 0.43626 0.09918 0.95376 0.0
C201 C 0.40697 0.10504 0.97717 0.0
H202 H 0.44186 0.04202 0.92071 0.0
H203 H 0.41941 0.03179 0.93279 0.0
H204 H 0.44254 0.03498 0.94605 0.0
H205 H 0.39817 0.09526 0.98742 0.0
H206 H 0.3968 0.11229 0.9684 0.0
H207 H 0.41648 0.11827 0.98693 0.0
O208 O 0.23373 0.87258 0.03666 0.0
Cd209 Cd 0.24463 0.89733 0.05974 0.0
Cd210 Cd 0.21744 0.9186 0.04118 0.0
O211 O 0.21128 0.8883 0.02376 0.0
O212 O 0.26101 0.88329 0.07649 0.0
O213 O 0.23512 0.89812 0.08922 0.0
C214 C 0.2496 0.88795 0.09196 0.0
C215 C 0.19182 0.93937 0.04916 0.0
C216 C 0.22005 0.87199 0.02379 0.0
C217 C 0.26084 0.93583 0.04096 0.0
O218 O 0.24344 0.93671 0.03544 0.0
O219 O 0.26438 0.92169 0.05131 0.0
O220 O 0.19831 0.93495 0.0306 0.0
O221 O 0.19936 0.9312 0.06333 0.0
O222 O 0.1709 0.54352 0.29939 0.0
Cd223 Cd 0.14838 0.51878 0.30043 0.0
Cd224 Cd 0.13504 0.53262 0.26826 0.0
O225 O 0.16325 0.5486 0.26838 0.0
O226 O 0.15869 0.49777 0.31497 0.0
O227 O 0.14968 0.49042 0.28202 0.0
C228 C 0.15688 0.48437 0.29775 0.0
C229 C 0.12003 0.51749 0.2366 0.0
C230 C 0.17486 0.55262 0.28375 0.0
C231 C 0.11221 0.53897 0.30803 0.0
O232 O 0.11571 0.54455 0.29049 0.0
O233 O 0.12275 0.52666 0.31461 0.0
O234 O 0.12409 0.53797 0.24217 0.0
O235 O 0.12509 0.50526 0.24876 0.0
O236 O 0.77913 0.68302 0.97728 0.0
Cd237 Cd 0.77045 0.66989 0.00328 0.0
Cd238 Cd 0.78945 0.63756 0.98282 0.0
O239 O 0.79652 0.65816 0.96188 0.0
O240 O 0.75898 0.69331 0.02156 0.0
O241 O 0.78446 0.67937 0.03071 0.0
C242 C 0.77173 0.69257 0.03539 0.0
C243 C 0.81367 0.62387 0.99861 0.0
C244 C 0.78997 0.67595 0.96241 0.0
C245 C 0.74699 0.62584 0.99126 0.0
O246 O 0.76198 0.61961 0.98166 0.0
O247 O 0.74773 0.64494 0.00103 0.0
O248 O 0.80851 0.61649 0.97967 0.0
O249 O 0.8055 0.63976 0.00844 0.0
O250 O 0.88839 0.02154 0.32004 0.0
Cd251 Cd 0.87271 0.02408 0.29447 0.0
Cd252 Cd 0.84606 0.03358 0.32385 0.0
O253 O 0.8678 0.03228 0.3446 0.0
O254 O 0.89276 0.02037 0.27243 0.0
O255 O 0.87967 0.05043 0.281 0.0
C256 C 0.89197 0.0398 0.26987 0.0
C257 C 0.83289 0.06528 0.3241 0.0
C258 C 0.88421 0.02606 0.33909 0.0
C259 C 0.83516 0.99362 0.293 0.0
O260 O 0.83041 0.0049 0.30982 0.0
O261 O 0.85102 0.99925 0.28388 0.0
O262 O 0.82728 0.05278 0.33727 0.0
O263 O 0.84625 0.05979 0.31081 0.0
O264 O 0.28283 0.18737 0.48283 0.0
Cd265 Cd 0.27289 0.17331 0.50802 0.0
Cd266 Cd 0.29385 0.14206 0.48901 0.0
O267 O 0.29997 0.16224 0.46761 0.0
O268 O 0.26004 0.19573 0.52617 0.0
O269 O 0.28555 0.1824 0.53617 0.0
C270 C 0.27224 0.19496 0.54053 0.0
C271 C 0.31924 0.13119 0.50563 0.0
C272 C 0.29372 0.18018 0.46806 0.0
C273 C 0.25146 0.12811 0.49543 0.0
O274 O 0.26732 0.12238 0.48746 0.0
O275 O 0.25092 0.14741 0.50419 0.0
O276 O 0.3146 0.123 0.48672 0.0
O277 O 0.30965 0.14611 0.51506 0.0
O278 O 0.38606 0.52431 0.81301 0.0
Cd279 Cd 0.36789 0.52701 0.78938 0.0
Cd280 Cd 0.34321 0.53533 0.82086 0.0
O281 O 0.36662 0.53344 0.83929 0.0
O282 O 0.38542 0.52572 0.76488 0.0
O283 O 0.37147 0.55449 0.77747 0.0
C284 C 0.38285 0.54516 0.76397 0.0
C285 C 0.3298 0.56718 0.8233 0.0
C286 C 0.38295 0.52797 0.83237 0.0
C287 C 0.33095 0.49585 0.79 0.0
O288 O 0.32694 0.5069 0.80724 0.0
O289 O 0.34621 0.50174 0.78007 0.0
O290 O 0.32524 0.55433 0.83641 0.0
O291 O 0.34222 0.56193 0.80886 0.0
O292 O 0.73874 0.37872 0.52146 0.0
Cd293 Cd 0.74979 0.40435 0.54356 0.0
Cd294 Cd 0.71986 0.42285 0.52673 0.0
O295 O 0.71396 0.39216 0.51007 0.0
O296 O 0.7689 0.39151 0.55825 0.0
O297 O 0.74304 0.40419 0.57371 0.0
C298 C 0.75847 0.3949 0.57471 0.0
C299 C 0.69369 0.44166 0.53838 0.0
C300 C 0.72397 0.37673 0.50966 0.0
C301 C 0.76201 0.44271 0.52287 0.0
O302 O 0.74408 0.44213 0.51827 0.0
O303 O 0.76719 0.42957 0.53355 0.0
O304 O 0.698 0.43745 0.51905 0.0
O305 O 0.7039 0.43448 0.55129 0.0
O306 O 0.67009 0.0577 0.80025 0.0
Cd307 Cd 0.65009 0.03197 0.80561 0.0
Cd308 Cd 0.63008 0.04198 0.77402 0.0
O309 O 0.65573 0.06241 0.77202 0.0
O310 O 0.66458 0.01431 0.82046 0.0
O311 O 0.65203 0.00271 0.78912 0.0
C312 C 0.66189 0.99929 0.80449 0.0
C313 C 0.61414 0.02586 0.74298 0.0
C314 C 0.66982 0.06735 0.78488 0.0
C315 C 0.61146 0.04681 0.81652 0.0
O316 O 0.6112 0.05021 0.79803 0.0
O317 O 0.62542 0.03837 0.82276 0.0
O318 O 0.61517 0.04615 0.7498 0.0
O319 O 0.62261 0.01445 0.75364 0.0
O320 O 0.97222 0.25621 0.95955 0.0
Cd321 Cd 0.97417 0.2299 0.93667 0.0
Cd322 Cd 0.99799 0.25772 0.91832 0.0
O323 O 0.99557 0.2773 0.9465 0.0
O324 O 0.97107 0.2033 0.94922 0.0
O325 O 0.99899 0.21676 0.93588 0.0
C326 C 0.98949 0.2024 0.94541 0.0
C327 C 0.02894 0.25786 0.90278 0.0
C328 C 0.98336 0.27404 0.96084 0.0
C329 C 0.95934 0.23837 0.89734 0.0
O330 O 0.97448 0.25239 0.89826 0.0
O331 O 0.9566 0.22613 0.91082 0.0
O332 O 0.01915 0.27383 0.90361 0.0
O333 O 0.02127 0.24175 0.91114 0.0
O334 O 0.48071 0.7601 0.45635 0.0
Cd335 Cd 0.47893 0.73076 0.43712 0.0
Cd336 Cd 0.4999 0.75245 0.41074 0.0
O337 O 0.49823 0.77788 0.43469 0.0
O338 O 0.47586 0.70799 0.45457 0.0
O339 O 0.50221 0.71473 0.43541 0.0
C340 C 0.49315 0.70386 0.44853 0.0
C341 C 0.52988 0.7515 0.39334 0.0
C342 C 0.48959 0.77761 0.452 0.0
C343 C 0.45941 0.7301 0.39715 0.0
O344 O 0.47529 0.74107 0.39268 0.0
O345 O 0.45741 0.724 0.41461 0.0
O346 O 0.51826 0.76508 0.39089 0.0
O347 O 0.52459 0.73835 0.40599 0.0
O348 O 0.98438 0.77828 0.66374 0.0
Cd349 Cd 0.0093 0.7767 0.6456 0.0
Cd350 Cd 0.99612 0.80887 0.62993 0.0
O351 O 0.97575 0.80674 0.65332 0.0
O352 O 0.0245 0.75744 0.65754 0.0
O353 O 0.03535 0.79175 0.6574 0.0
C354 C 0.03809 0.77351 0.66213 0.0
C355 C 0.01259 0.84245 0.62649 0.0
C356 C 0.97297 0.79253 0.66487 0.0
C357 C 0.99878 0.76856 0.6002 0.0
O358 O 0.99231 0.78658 0.60302 0.0
O359 O 0.00668 0.76234 0.61501 0.0
O360 O 0.99422 0.83721 0.62205 0.0
O361 O 0.02178 0.82867 0.63329 0.0
O362 O 0.48423 0.27852 0.16602 0.0
Cd363 Cd 0.50813 0.2781 0.14634 0.0
Cd364 Cd 0.49412 0.31192 0.13483 0.0
O365 O 0.47653 0.30953 0.16052 0.0
O366 O 0.52402 0.25768 0.15546 0.0
O367 O 0.53473 0.29232 0.15723 0.0
C368 C 0.53778 0.27354 0.16027 0.0
C369 C 0.51082 0.34512 0.13047 0.0
C370 C 0.4739 0.29378 0.17026 0.0
C371 C 0.49415 0.27308 0.10245 0.0
O372 O 0.48728 0.29076 0.10753 0.0
O373 O 0.50382 0.26603 0.11545 0.0
O374 O 0.49201 0.34088 0.12855 0.0
O375 O 0.5203 0.33064 0.13557 0.0
C376 C 0.22116 0.76062 0.85832 0.0
C377 C 0.2041 0.74719 0.85085 0.0
C378 C 0.22313 0.7689 0.87944 0.0
C379 C 0.22624 0.78148 0.92611 0.0
H380 H 0.17824 0.80056 0.95009 0.0
C381 C 0.2258 0.83505 0.00648 0.0
C382 C 0.21558 0.85287 0.00743 0.0
C383 C 0.22339 0.81824 0.98958 0.0
C384 C 0.19178 0.79535 0.94365 0.0
H385 H 0.17644 0.73037 0.85912 0.0
H386 H 0.18004 0.74405 0.89621 0.0
H387 H 0.17728 0.77798 0.91627 0.0
H388 H 0.19412 0.86648 0.99178 0.0
H389 H 0.19015 0.83748 0.96231 0.0
H390 H 0.24091 0.8001 0.95302 0.0
C391 C 0.19169 0.74884 0.88589 0.0
C392 C 0.1912 0.7821 0.92434 0.0
C393 C 0.18965 0.74084 0.86477 0.0
C394 C 0.20223 0.85302 0.99158 0.0
C395 C 0.19986 0.83628 0.97469 0.0
C396 C 0.22683 0.79488 0.94541 0.0
C397 C 0.20809 0.76367 0.8934 0.0
C398 C 0.20849 0.77537 0.9151 0.0
C399 C 0.2107 0.81889 0.97327 0.0
C400 C 0.20967 0.8024 0.95417 0.0
H401 H 0.23233 0.76575 0.84764 0.0
H402 H 0.23588 0.78042 0.88457 0.0
H403 H 0.23978 0.77636 0.91961 0.0
H404 H 0.23612 0.83434 0.01848 0.0
H405 H 0.23172 0.80493 0.98912 0.0
C406 C 0.97125 0.57294 0.4167 0.0
C407 C 0.95982 0.58829 0.41252 0.0
C408 C 0.98924 0.57099 0.4068 0.0
C409 C 0.01441 0.57924 0.35897 0.0
H410 H 0.06025 0.56897 0.38719 0.0
C411 C 0.08603 0.56302 0.31514 0.0
C412 C 0.09588 0.54696 0.32082 0.0
C413 C 0.07056 0.57053 0.32713 0.0
C414 C 0.04752 0.57162 0.37904 0.0
H415 H 0.95819 0.61421 0.39563 0.0
H416 H 0.98982 0.61072 0.37787 0.0
H417 H 0.03137 0.57834 0.40718 0.0
H418 H 0.09716 0.5262 0.34356 0.0
H419 H 0.06986 0.53887 0.36416 0.0
H420 H 0.03016 0.57177 0.33079 0.0
C421 C 0.98482 0.60013 0.38874 0.0
C422 C 0.03104 0.57709 0.39051 0.0
C423 C 0.96687 0.60222 0.39887 0.0
C424 C 0.08995 0.53865 0.3388 0.0
C425 C 0.07437 0.54604 0.3507 0.0
C426 C 0.03083 0.57359 0.34748 0.0
C427 C 0.99605 0.5843 0.39244 0.0
C428 C 0.01423 0.58067 0.38056 0.0
C429 C 0.06446 0.56206 0.345 0.0
C430 C 0.04749 0.56942 0.35735 0.0
H431 H 0.96608 0.56229 0.42745 0.0
H432 H 0.9975 0.55855 0.40986 0.0
H433 H 0.00155 0.58163 0.35087 0.0
H434 H 0.09033 0.5699 0.30146 0.0
H435 H 0.06346 0.5831 0.32244 0.0
C436 C 0.79879 0.7692 0.81349 0.0
C437 C 0.80277 0.79131 0.82092 0.0
C438 C 0.80129 0.75444 0.82639 0.0
C439 C 0.82316 0.74717 0.87512 0.0
H440 H 0.77424 0.7105 0.88143 0.0
C441 C 0.81005 0.68468 0.9317 0.0
C442 C 0.79413 0.68812 0.94516 0.0
C443 C 0.81344 0.69586 0.91507 0.0
C444 C 0.78804 0.7205 0.87968 0.0
H445 H 0.81361 0.81557 0.84673 0.0
H446 H 0.81847 0.78978 0.86931 0.0
H447 H 0.77749 0.73209 0.85386 0.0
H448 H 0.7693 0.70588 0.95169 0.0
H449 H 0.77495 0.72487 0.9224 0.0
H450 H 0.83351 0.73574 0.9013 0.0
C451 C 0.81338 0.78378 0.85362 0.0
C452 C 0.78996 0.73271 0.86384 0.0
C453 C 0.81058 0.79851 0.84082 0.0
C454 C 0.78172 0.70293 0.94167 0.0
C455 C 0.78487 0.71371 0.92485 0.0
C456 C 0.82135 0.73461 0.89078 0.0
C457 C 0.8081 0.76163 0.84677 0.0
C458 C 0.80737 0.74652 0.86168 0.0
C459 C 0.8007 0.71024 0.91138 0.0
C460 C 0.8036 0.72159 0.89347 0.0
H461 H 0.79262 0.76348 0.79819 0.0
H462 H 0.79718 0.73744 0.82072 0.0
H463 H 0.83672 0.7577 0.87377 0.0
H464 H 0.81989 0.67341 0.93404 0.0
H465 H 0.82574 0.69295 0.90485 0.0
C466 C 0.01886 0.99737 0.44418 0.0
C467 C 0.01878 0.00599 0.46531 0.0
C468 C 0.00345 0.99933 0.43146 0.0
C469 C 0.96277 0.03108 0.42832 0.0
H470 H 0.94408 0.9833 0.38528 0.0
C471 C 0.8957 0.03071 0.37592 0.0
C472 C 0.8986 0.02371 0.35469 0.0
C473 C 0.90951 0.02836 0.39042 0.0
C474 C 0.94921 0.99681 0.39718 0.0
H475 H 0.00286 0.0235 0.48984 0.0
H476 H 0.97553 0.02659 0.46775 0.0
H477 H 0.96987 0.97953 0.40871 0.0
H478 H 0.9183 0.00871 0.33209 0.0
H479 H 0.94221 0.00464 0.3573 0.0
H480 H 0.94204 0.04833 0.41667 0.0
C481 C 0.98759 0.01855 0.46089 0.0
C482 C 0.96403 0.99469 0.41056 0.0
C483 C 0.00307 0.01663 0.47357 0.0
C484 C 0.91555 0.01428 0.34831 0.0
C485 C 0.92923 0.01179 0.36276 0.0
C486 C 0.94786 0.03317 0.41497 0.0
C487 C 0.98758 0.00989 0.43968 0.0
C488 C 0.97118 0.01188 0.42611 0.0
C489 C 0.92636 0.01877 0.38396 0.0
C490 C 0.94114 0.01615 0.39909 0.0
H491 H 0.03084 0.98901 0.43759 0.0
H492 H 0.00406 0.99276 0.41514 0.0
H493 H 0.96809 0.04471 0.43999 0.0
H494 H 0.8828 0.03806 0.38133 0.0
H495 H 0.90691 0.03379 0.40669 0.0
C496 C 0.21389 0.26496 0.71238 0.0
C497 C 0.22663 0.26514 0.72876 0.0
C498 C 0.2201 0.25975 0.69195 0.0
C499 C 0.26461 0.25254 0.65909 0.0
H500 H 0.22623 0.21785 0.62055 0.0
C501 C 0.28251 0.20558 0.57784 0.0
C502 C 0.26985 0.20685 0.56169 0.0
C503 C 0.27865 0.21486 0.59822 0.0
C504 C 0.23707 0.2277 0.63109 0.0
H505 H 0.25584 0.26091 0.7371 0.0
H506 H 0.26671 0.25099 0.70135 0.0
H507 H 0.21664 0.22968 0.65608 0.0
H508 H 0.24376 0.2197 0.55416 0.0
H509 H 0.23703 0.23563 0.58959 0.0
H510 H 0.28517 0.24977 0.63393 0.0
C511 C 0.25203 0.2552 0.70409 0.0
C512 C 0.23156 0.23461 0.65147 0.0
C513 C 0.24585 0.2607 0.72453 0.0
C514 C 0.25376 0.21831 0.56622 0.0
C515 C 0.24983 0.22737 0.58653 0.0
C516 C 0.27018 0.24537 0.63869 0.0
C517 C 0.23914 0.25438 0.68751 0.0
C518 C 0.2452 0.24723 0.66574 0.0
C519 C 0.26197 0.22536 0.60279 0.0
C520 C 0.25641 0.233 0.62448 0.0
H521 H 0.19914 0.26883 0.71547 0.0
H522 H 0.20993 0.25989 0.67964 0.0
H523 H 0.27547 0.26244 0.66955 0.0
H524 H 0.29503 0.19688 0.57484 0.0
H525 H 0.28821 0.21304 0.6105 0.0
C526 C 0.51214 0.61749 0.65652 0.0
C527 C 0.5153 0.59968 0.64164 0.0
C528 C 0.49535 0.61664 0.66901 0.0
C529 C 0.44576 0.58581 0.6718 0.0
H530 H 0.45187 0.60249 0.7312 0.0
C531 C 0.39964 0.54424 0.73 0.0
C532 C 0.39336 0.55635 0.74826 0.0
C533 C 0.41149 0.55421 0.71598 0.0
C534 C 0.44981 0.59823 0.71462 0.0
H535 H 0.50363 0.56735 0.62762 0.0
H536 H 0.47456 0.56552 0.64957 0.0
H537 H 0.4793 0.6114 0.70845 0.0
H538 H 0.39397 0.58843 0.76599 0.0
H539 H 0.41533 0.60595 0.7415 0.0
H540 H 0.41669 0.57154 0.67804 0.0
C541 C 0.48475 0.58027 0.65158 0.0
C542 C 0.46551 0.6033 0.70159 0.0
C543 C 0.50148 0.58113 0.63922 0.0
C544 C 0.39859 0.57877 0.75195 0.0
C545 C 0.41083 0.58876 0.73804 0.0
C546 C 0.43016 0.58065 0.6848 0.0
C547 C 0.48144 0.59801 0.66659 0.0
C548 C 0.46388 0.59637 0.6801 0.0
C549 C 0.41756 0.57648 0.72006 0.0
C550 C 0.43229 0.5861 0.70635 0.0
H551 H 0.52267 0.63196 0.6584 0.0
H552 H 0.49316 0.63057 0.6804 0.0
H553 H 0.4439 0.58073 0.65526 0.0
H554 H 0.39577 0.52694 0.72675 0.0
H555 H 0.41666 0.54432 0.70238 0.0
C556 C 0.78104 0.31232 0.72676 0.0
C557 C 0.79627 0.29951 0.72419 0.0
C558 C 0.77768 0.32465 0.71183 0.0
C559 C 0.78677 0.32657 0.65652 0.0
H560 H 0.77038 0.38321 0.66991 0.0
C561 C 0.78093 0.37767 0.59395 0.0
C562 C 0.76377 0.38733 0.59367 0.0
C563 C 0.78534 0.3687 0.61093 0.0
C564 C 0.7748 0.36734 0.66598 0.0
H565 H 0.82021 0.28982 0.70449 0.0
H566 H 0.81489 0.31185 0.67867 0.0
H567 H 0.77776 0.36447 0.69779 0.0
H568 H 0.73814 0.3959 0.61137 0.0
H569 H 0.74588 0.38007 0.6412 0.0
H570 H 0.78387 0.32937 0.6248 0.0
C571 C 0.80525 0.31212 0.69196 0.0
C572 C 0.77902 0.3566 0.68191 0.0
C573 C 0.80849 0.29973 0.70683 0.0
C574 C 0.75146 0.38854 0.61113 0.0
C575 C 0.75592 0.37955 0.62821 0.0
C576 C 0.78265 0.33731 0.64067 0.0
C577 C 0.78957 0.32442 0.69408 0.0
C578 C 0.78515 0.33611 0.67735 0.0
C579 C 0.77271 0.36914 0.62807 0.0
C580 C 0.77673 0.35785 0.64519 0.0
H581 H 0.77152 0.3124 0.74014 0.0
H582 H 0.7654 0.33378 0.71389 0.0
H583 H 0.79095 0.31061 0.65242 0.0
H584 H 0.79084 0.37663 0.58086 0.0
H585 H 0.79857 0.36117 0.61052 0.0
C586 C 0.4977 0.98005 0.59973 0.0
C587 C 0.47938 0.98145 0.60932 0.0
C588 C 0.51414 0.97864 0.6113 0.0
C589 C 0.54745 0.9946 0.64162 0.0
H590 H 0.54479 0.96916 0.69136 0.0
C591 C 0.59622 0.0297 0.71159 0.0
C592 C 0.6027 0.01622 0.72407 0.0
C593 C 0.58372 0.02124 0.69491 0.0
C594 C 0.54594 0.97604 0.67732 0.0
H595 H 0.46342 0.98123 0.63802 0.0
H596 H 0.49217 0.97959 0.65857 0.0
H597 H 0.5175 0.9603 0.66689 0.0
H598 H 0.60172 0.98313 0.72839 0.0
H599 H 0.5797 0.96822 0.69903 0.0
H600 H 0.57575 0.01051 0.65212 0.0
C601 C 0.49395 0.97918 0.64208 0.0
C602 C 0.53019 0.97117 0.66342 0.0
C603 C 0.47752 0.9804 0.63043 0.0
C604 C 0.59696 0.99391 0.71903 0.0
C605 C 0.58428 0.98541 0.70232 0.0
C606 C 0.56319 0.99937 0.65544 0.0
C607 C 0.51259 0.97883 0.63276 0.0
C608 C 0.53047 0.98097 0.64574 0.0
C609 C 0.57732 0.99905 0.69025 0.0
C610 C 0.56233 0.99077 0.67382 0.0
H611 H 0.49945 0.981 0.58347 0.0
H612 H 0.52818 0.97805 0.60354 0.0
H613 H 0.5482 0.0026 0.62828 0.0
H614 H 0.60039 0.04696 0.715 0.0
H615 H 0.57843 0.03228 0.68618 0.0
C616 C 0.84247 0.25156 0.76227 0.0
C617 C 0.82567 0.25938 0.77134 0.0
C618 C 0.85638 0.24541 0.77444 0.0
C619 C 0.86488 0.23407 0.82741 0.0
H620 H 0.9194 0.24956 0.81332 0.0
C621 C 0.94583 0.25337 0.86874 0.0
C622 C 0.94448 0.23723 0.88104 0.0
C623 C 0.93139 0.25325 0.85413 0.0
C624 C 0.90426 0.24524 0.81759 0.0
H625 H 0.80975 0.26661 0.79983 0.0
H626 H 0.83434 0.25674 0.82147 0.0
H627 H 0.89376 0.25489 0.79078 0.0
H628 H 0.9271 0.20795 0.88723 0.0
H629 H 0.90208 0.2074 0.86123 0.0
H630 H 0.87546 0.22571 0.85493 0.0
C631 C 0.8367 0.25473 0.80493 0.0
C632 C 0.88948 0.24797 0.80444 0.0
C633 C 0.82267 0.26055 0.79265 0.0
C634 C 0.92853 0.22067 0.87806 0.0
C635 C 0.91412 0.22044 0.86324 0.0
C636 C 0.87968 0.23159 0.84073 0.0
C637 C 0.85388 0.24731 0.79602 0.0
C638 C 0.86957 0.24272 0.80929 0.0
C639 C 0.91529 0.23686 0.8512 0.0
C640 C 0.89956 0.23751 0.83617 0.0
H641 H 0.84478 0.25028 0.74575 0.0
H642 H 0.86914 0.23931 0.76692 0.0
H643 H 0.84974 0.22946 0.83149 0.0
H644 H 0.95782 0.26647 0.87071 0.0
H645 H 0.93263 0.26643 0.84553 0.0
C646 C 0.46051 0.93651 0.57726 0.0
C647 C 0.46334 0.95554 0.56899 0.0
C648 C 0.4655 0.91742 0.56569 0.0
C649 C 0.47324 0.89307 0.51123 0.0
H650 H 0.49309 0.84883 0.53545 0.0
C651 C 0.49669 0.81771 0.46095 0.0
C652 C 0.48922 0.79794 0.46676 0.0
C653 C 0.4952 0.83701 0.47428 0.0
C654 C 0.48746 0.86103 0.52853 0.0
H655 H 0.47463 0.97031 0.54314 0.0
H656 H 0.48394 0.93722 0.52301 0.0
H657 H 0.48794 0.88274 0.55738 0.0
H658 H 0.47493 0.78295 0.49148 0.0
H659 H 0.4724 0.81676 0.51478 0.0
H660 H 0.47281 0.87145 0.48242 0.0
C661 C 0.47726 0.93665 0.53804 0.0
C662 C 0.48447 0.88042 0.54107 0.0
C663 C 0.47208 0.9556 0.54952 0.0
C664 C 0.48078 0.7979 0.48649 0.0
C665 C 0.47942 0.81724 0.49989 0.0
C666 C 0.47637 0.87381 0.49872 0.0
C667 C 0.47359 0.91719 0.54575 0.0
C668 C 0.4773 0.89668 0.53256 0.0
C669 C 0.48633 0.837 0.49377 0.0
C670 C 0.48348 0.85757 0.50721 0.0
H671 H 0.45377 0.93632 0.59231 0.0
H672 H 0.46234 0.90274 0.57206 0.0
H673 H 0.46724 0.90496 0.5042 0.0
H674 H 0.50335 0.81835 0.44591 0.0
H675 H 0.50087 0.852 0.46925 0.0
C676 C 0.17237 0.28125 0.79443 0.0
C677 C 0.18507 0.26558 0.79106 0.0
C678 C 0.15638 0.27916 0.80772 0.0
C679 C 0.12313 0.24044 0.83165 0.0
H680 H 0.11356 0.29133 0.87025 0.0
C681 C 0.05863 0.24031 0.89039 0.0
C682 C 0.04811 0.25796 0.89208 0.0
C683 C 0.0764 0.24033 0.87952 0.0
C684 C 0.11595 0.27701 0.85948 0.0
H685 H 0.19111 0.23532 0.7983 0.0
H686 H 0.16274 0.23136 0.8216 0.0
H687 H 0.14237 0.29273 0.84798 0.0
H688 H 0.04805 0.2895 0.88384 0.0
H689 H 0.07874 0.28942 0.86483 0.0
H690 H 0.09639 0.22488 0.84284 0.0
C691 C 0.16519 0.24527 0.81398 0.0
C692 C 0.13245 0.27781 0.84674 0.0
C693 C 0.18133 0.24747 0.80073 0.0
C694 C 0.05581 0.27567 0.88291 0.0
C695 C 0.0735 0.27569 0.8721 0.0
C696 C 0.10651 0.23966 0.84436 0.0
C697 C 0.15272 0.26128 0.81781 0.0
C698 C 0.13603 0.25968 0.83242 0.0
C699 C 0.084 0.25802 0.87022 0.0
C700 C 0.10254 0.25808 0.85813 0.0
H701 H 0.17501 0.29521 0.7869 0.0
H702 H 0.14683 0.29155 0.81007 0.0
H703 H 0.12549 0.22625 0.82068 0.0
H704 H 0.05308 0.22642 0.8973 0.0
H705 H 0.08423 0.22654 0.87849 0.0
C706 C 0.56003 0.63085 0.57761 0.0
C707 C 0.55432 0.60939 0.57977 0.0
C708 C 0.55918 0.63712 0.55832 0.0
C709 C 0.52956 0.61981 0.51127 0.0
H710 H 0.55762 0.67215 0.49664 0.0
C711 C 0.49209 0.67589 0.47103 0.0
C712 C 0.50264 0.688 0.45744 0.0
C713 C 0.50137 0.66254 0.48124 0.0
C714 C 0.54982 0.65726 0.50018 0.0
H715 H 0.54492 0.57728 0.56346 0.0
H716 H 0.54423 0.58792 0.52946 0.0
H717 H 0.57124 0.65528 0.52271 0.0
H718 H 0.53107 0.69491 0.44322 0.0
H719 H 0.54733 0.6714 0.46109 0.0
H720 H 0.50802 0.62193 0.48899 0.0
C721 C 0.54888 0.60009 0.5427 0.0
C722 C 0.55753 0.64771 0.51531 0.0
C723 C 0.54956 0.5939 0.56208 0.0
C724 C 0.52255 0.68581 0.45365 0.0
C725 C 0.53188 0.67244 0.46396 0.0
C726 C 0.52194 0.62926 0.49608 0.0
C727 C 0.5527 0.62195 0.54077 0.0
C728 C 0.54708 0.62936 0.52166 0.0
C729 C 0.52145 0.66092 0.47813 0.0
C730 C 0.53154 0.6486 0.49099 0.0
H731 H 0.56373 0.64299 0.59115 0.0
H732 H 0.5621 0.6541 0.55758 0.0
H733 H 0.52096 0.6058 0.51576 0.0
H734 H 0.47674 0.67718 0.4743 0.0
H735 H 0.49293 0.6542 0.49229 0.0
C736 C 0.83789 0.80653 0.78903 0.0
C737 C 0.81917 0.80155 0.78004 0.0
C738 C 0.8545 0.80199 0.77726 0.0
C739 C 0.8701 0.79539 0.72282 0.0
H740 H 0.91781 0.78101 0.74414 0.0
C741 C 0.94366 0.80837 0.6808 0.0
C742 C 0.956 0.79232 0.67924 0.0
C743 C 0.92716 0.8078 0.69358 0.0
C744 C 0.90454 0.78484 0.7379 0.0
H745 H 0.8027 0.78664 0.75251 0.0
H746 H 0.83162 0.77813 0.73191 0.0
H747 H 0.88822 0.78099 0.76556 0.0
H748 H 0.96082 0.76324 0.69028 0.0
H749 H 0.93183 0.76216 0.71251 0.0
H750 H 0.88623 0.79912 0.69517 0.0
C751 C 0.83365 0.78605 0.74784 0.0
C752 C 0.88764 0.78501 0.75024 0.0
C753 C 0.81711 0.79073 0.75958 0.0
C754 C 0.95163 0.77587 0.69111 0.0
C755 C 0.93506 0.77529 0.70392 0.0
C756 C 0.88693 0.79522 0.71054 0.0
C757 C 0.85261 0.79229 0.75632 0.0
C758 C 0.87026 0.79047 0.74289 0.0
C759 C 0.92251 0.79113 0.70512 0.0
C760 C 0.90443 0.79022 0.718 0.0
H761 H 0.8397 0.81505 0.80477 0.0
H762 H 0.86885 0.80716 0.78426 0.0
H763 H 0.8571 0.79999 0.71674 0.0
H764 H 0.94664 0.82138 0.67202 0.0
H765 H 0.91803 0.8205 0.69445 0.0
C766 C 0.04672 0.99596 0.54154 0.0
C767 C 0.0559 0.98898 0.5228 0.0
C768 C 0.047 0.98471 0.55796 0.0
C769 C 0.06748 0.94151 0.57813 0.0
H770 H 0.01313 0.9247 0.59196 0.0
C771 C 0.04056 0.86426 0.61165 0.0
C772 C 0.02274 0.8632 0.62251 0.0
C773 C 0.04792 0.88294 0.60392 0.0
C774 C 0.02848 0.92955 0.5889 0.0
H775 H 0.07407 0.96626 0.50687 0.0
H776 H 0.07469 0.94639 0.53569 0.0
H777 H 0.02113 0.95225 0.57096 0.0
H778 H -0.00038 0.88114 0.63567 0.0
H779 H 0.01308 0.91419 0.62363 0.0
H780 H 0.07478 0.91854 0.59603 0.0
C781 C 0.06731 0.96057 0.53776 0.0
C782 C 0.03305 0.94538 0.5767 0.0
C783 C 0.06697 0.97187 0.5213 0.0
C784 C 0.01329 0.88157 0.6271 0.0
C785 C 0.02093 0.9004 0.61996 0.0
C786 C 0.06293 0.92581 0.59071 0.0
C787 C 0.05652 0.96629 0.55587 0.0
C788 C 0.05253 0.95132 0.57091 0.0
C789 C 0.03778 0.90102 0.60734 0.0
C790 C 0.04329 0.91935 0.59598 0.0
H791 H 0.03829 0.0093 0.54296 0.0
H792 H 0.03881 0.98965 0.57185 0.0
H793 H 0.08264 0.94583 0.57388 0.0
H794 H 0.04801 0.85017 0.60783 0.0
H795 H 0.06085 0.88264 0.5942 0.0
C796 C 0.15278 0.74049 0.78639 0.0
C797 C 0.17303 0.74506 0.78325 0.0
C798 C 0.1395 0.74362 0.77184 0.0
C799 C 0.13495 0.77211 0.72792 0.0
H800 H 0.0872 0.73176 0.71815 0.0
C801 C 0.06757 0.7886 0.68444 0.0
C802 C 0.05599 0.77089 0.67288 0.0
C803 C 0.08338 0.78552 0.69618 0.0
C804 C 0.10056 0.74305 0.7204 0.0
H805 H 0.19547 0.75623 0.76255 0.0
H806 H 0.17222 0.76116 0.73652 0.0
H807 H 0.11187 0.72559 0.74137 0.0
H808 H 0.05258 0.73628 0.66337 0.0
H809 H 0.08042 0.73098 0.6831 0.0
H810 H 0.12373 0.78927 0.70644 0.0
C811 C 0.16656 0.75557 0.75045 0.0
C812 C 0.11461 0.73968 0.73402 0.0
C813 C 0.17986 0.75256 0.76517 0.0
C814 C 0.06106 0.75021 0.67242 0.0
C815 C 0.07697 0.74717 0.68384 0.0
C816 C 0.12091 0.77541 0.71411 0.0
C817 C 0.1462 0.75115 0.75364 0.0
C818 C 0.13187 0.75429 0.73818 0.0
C819 C 0.08801 0.7647 0.69633 0.0
C820 C 0.10347 0.76099 0.7103 0.0
H821 H 0.14725 0.73449 0.80017 0.0
H822 H 0.12395 0.74037 0.77499 0.0
H823 H 0.14802 0.78378 0.73089 0.0
H824 H 0.06396 0.80472 0.68507 0.0
H825 H 0.09146 0.79938 0.70573 0.0
C826 C 0.96462 0.62157 0.45532 0.0
C827 C 0.94799 0.6241 0.44452 0.0
C828 C 0.97457 0.63898 0.46862 0.0
C829 C 0.97828 0.69809 0.48691 0.0
H830 H 0.98598 0.68177 0.5401 0.0
C831 C 0.98447 0.7581 0.56442 0.0
C832 C 0.99685 0.75437 0.57978 0.0
C833 C 0.98165 0.74362 0.54579 0.0
C834 C 0.98431 0.68665 0.52529 0.0
H835 H 0.92937 0.64675 0.43787 0.0
H836 H 0.94647 0.67732 0.46148 0.0
H837 H 0.97646 0.65417 0.51051 0.0
H838 H 0.01691 0.73323 0.58712 0.0
H839 H 0.01228 0.70831 0.55462 0.0
H840 H 0.98567 0.73075 0.50207 0.0
C841 C 0.95208 0.66203 0.45951 0.0
C842 C 0.97888 0.67077 0.50826 0.0
C843 C 0.94224 0.64459 0.44609 0.0
C844 C 0.00702 0.73641 0.57576 0.0
C845 C 0.00433 0.72207 0.55713 0.0
C846 C 0.98377 0.71407 0.50403 0.0
C847 C 0.96787 0.65919 0.47156 0.0
C848 C 0.9756 0.67627 0.48891 0.0
C849 C 0.99126 0.7252 0.54211 0.0
C850 C 0.98667 0.7085 0.52346 0.0
H851 H 0.96909 0.60583 0.45459 0.0
H852 H 0.98688 0.63636 0.47742 0.0
H853 H 0.97596 0.70283 0.47217 0.0
H854 H 0.97646 0.77183 0.56705 0.0
H855 H 0.97135 0.74641 0.53462 0.0
C856 C 0.76087 0.80886 0.26917 0.0
C857 C 0.7438 0.80224 0.25724 0.0
C858 C 0.77149 0.82917 0.26902 0.0
C859 C 0.76347 0.88278 0.26163 0.0
H860 H 0.82027 0.89486 0.26413 0.0
C861 C 0.82977 0.95909 0.26778 0.0
C862 C 0.82313 0.9729 0.28481 0.0
C863 C 0.8197 0.93851 0.26144 0.0
C864 C 0.8044 0.89174 0.26321 0.0
H865 H 0.72458 0.81093 0.23541 0.0
H866 H 0.74323 0.84648 0.23488 0.0
H867 H 0.80444 0.85762 0.25758 0.0
H868 H 0.80016 0.97621 0.30792 0.0
H869 H 0.78255 0.94026 0.29677 0.0
H870 H 0.76341 0.9169 0.26762 0.0
C871 C 0.74842 0.83609 0.2444 0.0
C872 C 0.79535 0.87043 0.25964 0.0
C873 C 0.7379 0.81574 0.24449 0.0
C874 C 0.80569 0.96598 0.29477 0.0
C875 C 0.79556 0.94542 0.28833 0.0
C876 C 0.77251 0.90409 0.26536 0.0
C877 C 0.76506 0.84321 0.25705 0.0
C878 C 0.77479 0.86573 0.25904 0.0
C879 C 0.80269 0.93131 0.27188 0.0
C880 C 0.79306 0.90879 0.26642 0.0
H881 H 0.76549 0.79862 0.27916 0.0
H882 H 0.78415 0.83427 0.27906 0.0
H883 H 0.74757 0.87967 0.26147 0.0
H884 H 0.8431 0.96391 0.25968 0.0
H885 H 0.82539 0.92809 0.24853 0.0
C886 C 0.74591 0.21504 0.29902 0.0
C887 C 0.72829 0.21417 0.31024 0.0
C888 C 0.75992 0.20187 0.30195 0.0
C889 C 0.77531 0.16799 0.33753 0.0
H890 H 0.79475 0.1354 0.28764 0.0
C891 C 0.80834 0.08981 0.33762 0.0
C892 C 0.8238 0.08502 0.32398 0.0
C893 C 0.79902 0.10781 0.33694 0.0
C894 C 0.7898 0.14463 0.30176 0.0
H895 H 0.71155 0.19943 0.33357 0.0
H896 H 0.73609 0.17655 0.339 0.0
H897 H 0.77451 0.16333 0.28501 0.0
H898 H 0.84195 0.09571 0.29928 0.0
H899 H 0.82582 0.12737 0.29829 0.0
H900 H 0.79037 0.14911 0.35428 0.0
C901 C 0.73922 0.18749 0.32805 0.0
C902 C 0.77816 0.16064 0.30024 0.0
C903 C 0.72518 0.20056 0.325 0.0
C904 C 0.83002 0.0989 0.30993 0.0
C905 C 0.82071 0.11699 0.3093 0.0
C906 C 0.78703 0.15205 0.33906 0.0
C907 C 0.75659 0.1877 0.31628 0.0
C908 C 0.7705 0.17223 0.31809 0.0
C909 C 0.80496 0.12154 0.32266 0.0
C910 C 0.79411 0.13989 0.32117 0.0
H911 H 0.74862 0.22563 0.28772 0.0
H912 H 0.77326 0.20259 0.29284 0.0
H913 H 0.76985 0.17687 0.35158 0.0
H914 H 0.80315 0.07942 0.3486 0.0
H915 H 0.78675 0.11059 0.34724 0.0
C916 C 0.40482 0.04039 0.97604 0.0
C917 C 0.40013 0.05576 0.96472 0.0
C918 C 0.38997 0.02747 0.9847 0.0
C919 C 0.33845 0.02577 0.00169 0.0
H920 H 0.34126 0.96513 3e-05 0.0
C921 C 0.27321 0.9668 0.02325 0.0
C922 C 0.27715 0.95087 0.03438 0.0
C923 C 0.28854 0.98015 0.01583 0.0
C924 C 0.34041 0.98211 0.00087 0.0
H925 H 0.37661 0.0697 0.95316 0.0
H926 H 0.35038 0.04693 0.96812 0.0
H927 H 0.36726 0.98691 0.98412 0.0
H928 H 0.30032 0.93686 0.04689 0.0
H929 H 0.32712 0.96034 0.034 0.0
H930 H 0.31154 0.02093 0.01833 0.0
C931 C 0.36551 0.045 0.97056 0.0
C932 C 0.35527 0.99457 0.99172 0.0
C933 C 0.38041 0.05791 0.96191 0.0
C934 C 0.29678 0.94892 0.03832 0.0
C935 C 0.31213 0.96227 0.03084 0.0
C936 C 0.32359 0.01331 0.01083 0.0
C937 C 0.37015 0.02975 0.98219 0.0
C938 C 0.35441 0.01651 0.99195 0.0
C939 C 0.30816 0.97788 0.01934 0.0
C940 C 0.32436 0.99132 0.01043 0.0
H941 H 0.42001 0.03881 0.97862 0.0
H942 H 0.39403 0.01609 0.99379 0.0
H943 H 0.33756 0.04272 0.00246 0.0
H944 H 0.25827 0.96876 0.01994 0.0
H945 H 0.28501 0.99187 0.00684 0.0
C946 C 0.24334 0.32537 0.27125 0.0
C947 C 0.25474 0.32628 0.2889 0.0
C948 C 0.22978 0.33984 0.27111 0.0
C949 C 0.20133 0.37638 0.30562 0.0
H950 H 0.20313 0.40827 0.26019 0.0
C951 C 0.17233 0.45752 0.31323 0.0
C952 C 0.16387 0.46318 0.29602 0.0
C953 C 0.18048 0.43841 0.31142 0.0
C954 C 0.20211 0.39923 0.27281 0.0
H955 H 0.26104 0.3425 0.32018 0.0
H956 H 0.23719 0.36774 0.32018 0.0
H957 H 0.22289 0.37902 0.25866 0.0
H958 H 0.15669 0.45281 0.26352 0.0
H959 H 0.17073 0.41917 0.26041 0.0
H960 H 0.18077 0.39667 0.31992 0.0
C961 C 0.23857 0.35585 0.30648 0.0
C962 C 0.21348 0.3825 0.27194 0.0
C963 C 0.25223 0.34155 0.30651 0.0
C964 C 0.16317 0.44894 0.27706 0.0
C965 C 0.17132 0.42973 0.27525 0.0
C966 C 0.18987 0.39298 0.30644 0.0
C967 C 0.22729 0.35525 0.28874 0.0
C968 C 0.21356 0.37126 0.28856 0.0
C969 C 0.18031 0.42439 0.29236 0.0
C970 C 0.1905 0.40498 0.29028 0.0
H971 H 0.24506 0.31354 0.2576 0.0
H972 H 0.2212 0.33894 0.25727 0.0
H973 H 0.20085 0.36773 0.3185 0.0
H974 H 0.17315 0.46813 0.32806 0.0
H975 H 0.18754 0.43502 0.32485 0.0
C976 C 0.09846 0.00265 0.48047 0.0
C977 C 0.08505 0.01077 0.49512 0.0
C978 C 0.11831 0.01117 0.48186 0.0
C979 C 0.15552 0.04871 0.51595 0.0
H980 H 0.17835 0.05945 0.4635 0.0
C981 C 0.21799 0.1169 0.50876 0.0
C982 C 0.23368 0.11214 0.49543 0.0
C983 C 0.20138 0.10176 0.50938 0.0
C984 C 0.1723 0.0563 0.47823 0.0
H985 H 0.08153 0.03323 0.52311 0.0
H986 H 0.11611 0.04868 0.5255 0.0
H987 H 0.14668 0.03718 0.464 0.0
H988 H 0.24419 0.08774 0.47219 0.0
H989 H 0.2148 0.06137 0.47295 0.0
H990 H 0.18082 0.06887 0.53013 0.0
C991 C 0.11161 0.03543 0.51313 0.0
C992 C 0.15416 0.04343 0.47856 0.0
C993 C 0.09181 0.02668 0.51182 0.0
C994 C 0.23233 0.0919 0.48261 0.0
C995 C 0.21554 0.07683 0.48303 0.0
C996 C 0.17354 0.06179 0.51562 0.0
C997 C 0.12502 0.02822 0.49781 0.0
C998 C 0.14536 0.03978 0.49745 0.0
C999 C 0.19997 0.0816 0.49651 0.0
C1000 C 0.18192 0.06601 0.49677 0.0
H1001 H 0.09337 0.99029 0.46752 0.0
H1002 H 0.12826 0.00487 0.47006 0.0
H1003 H 0.1494 0.04592 0.53075 0.0
H1004 H 0.21858 0.1323 0.51891 0.0
H1005 H 0.18947 0.10595 0.51972 0.0
C1006 C 0.79054 0.22029 0.75868 0.0
C1007 C 0.78345 0.24007 0.76436 0.0
C1008 C 0.77989 0.20152 0.76362 0.0
C1009 C 0.729 0.17997 0.77299 0.0
H1010 H 0.75169 0.13211 0.78765 0.0
C1011 C 0.68466 0.09632 0.76574 0.0
C1012 C 0.68524 0.08544 0.78257 0.0
C1013 C 0.69792 0.11467 0.76446 0.0
C1014 C 0.74516 0.14541 0.78369 0.0
H1015 H 0.76058 0.2563 0.78054 0.0
H1016 H 0.74187 0.22354 0.78942 0.0
H1017 H 0.77273 0.16597 0.78565 0.0
H1018 H 0.7008 0.08482 0.81081 0.0
H1019 H 0.72399 0.11703 0.80856 0.0
H1020 H 0.70148 0.15959 0.77104 0.0
C1021 C 0.75546 0.22237 0.78087 0.0
C1022 C 0.7572 0.16471 0.78241 0.0
C1023 C 0.76612 0.24108 0.77592 0.0
C1024 C 0.69993 0.09285 0.79767 0.0
C1025 C 0.71325 0.11125 0.79636 0.0
C1026 C 0.71703 0.16072 0.77418 0.0
C1027 C 0.76195 0.2023 0.77428 0.0
C1028 C 0.74924 0.18216 0.77694 0.0
C1029 C 0.7121 0.1226 0.77996 0.0
C1030 C 0.72498 0.14315 0.77934 0.0
H1031 H 0.80382 0.21924 0.74957 0.0
H1032 H 0.7852 0.18631 0.75816 0.0
H1033 H 0.72243 0.19297 0.76845 0.0
H1034 H 0.67367 0.09097 0.75373 0.0
H1035 H 0.69692 0.12283 0.75142 0.0
C1036 C 0.44013 0.03928 0.5783 0.0
C1037 C 0.43012 0.02035 0.58366 0.0
C1038 C 0.42969 0.05492 0.57305 0.0
C1039 C 0.40427 0.07563 0.54735 0.0
H1040 H 0.35477 0.08816 0.57284 0.0
C1041 C 0.34562 0.10781 0.50514 0.0
C1042 C 0.33452 0.12288 0.5163 0.0
C1043 C 0.359 0.09854 0.51524 0.0
C1044 C 0.36871 0.0851 0.56573 0.0
H1045 H 0.40171 0.00282 0.58838 0.0
H1046 H 0.38319 0.02997 0.57894 0.0
H1047 H 0.37488 0.0663 0.5883 0.0
H1048 H 0.32912 0.14046 0.54678 0.0
H1049 H 0.35262 0.12421 0.56449 0.0
H1050 H 0.39805 0.09424 0.5247 0.0
C1051 C 0.39908 0.03304 0.57908 0.0
C1052 C 0.38012 0.07237 0.57446 0.0
C1053 C 0.40957 0.01746 0.58436 0.0
C1054 C 0.33746 0.12889 0.53776 0.0
C1055 C 0.35082 0.1195 0.54791 0.0
C1056 C 0.39287 0.08832 0.53864 0.0
C1057 C 0.40902 0.05179 0.57299 0.0
C1058 C 0.39786 0.06715 0.56514 0.0
C1059 C 0.36159 0.10406 0.53677 0.0
C1060 C 0.37476 0.09281 0.54746 0.0
H1061 H 0.45602 0.04163 0.57765 0.0
H1062 H 0.43779 0.06927 0.56869 0.0
H1063 H 0.41776 0.07179 0.53965 0.0
H1064 H 0.34372 0.10281 0.4886 0.0
H1065 H 0.36685 0.08649 0.50623 0.0
C1066 C 0.58854 0.58183 0.59445 0.0
C1067 C 0.56895 0.57384 0.59786 0.0
C1068 C 0.60197 0.56768 0.58696 0.0
C1069 C 0.62863 0.53277 0.5855 0.0
H1070 H 0.61387 0.48343 0.54265 0.0
C1071 C 0.67531 0.46285 0.56644 0.0
C1072 C 0.67822 0.45531 0.54533 0.0
C1073 C 0.6617 0.47716 0.57266 0.0
C1074 C 0.61827 0.49719 0.55456 0.0
H1075 H 0.54754 0.54534 0.59515 0.0
H1076 H 0.57086 0.5205 0.58222 0.0
H1077 H 0.59116 0.50964 0.55244 0.0
H1078 H 0.66885 0.45651 0.51424 0.0
H1079 H 0.64525 0.48135 0.52507 0.0
H1080 H 0.65585 0.5204 0.58744 0.0
C1081 C 0.57602 0.53758 0.58531 0.0
C1082 C 0.60519 0.51212 0.56028 0.0
C1083 C 0.56271 0.5517 0.59285 0.0
C1084 C 0.66695 0.46197 0.53064 0.0
C1085 C 0.65334 0.47616 0.53684 0.0
C1086 C 0.6417 0.51778 0.57982 0.0
C1087 C 0.59589 0.54535 0.58258 0.0
C1088 C 0.61019 0.53006 0.57585 0.0
C1089 C 0.65067 0.48409 0.5579 0.0
C1090 C 0.63666 0.49981 0.5643 0.0
H1091 H 0.59352 0.59891 0.59819 0.0
H1092 H 0.61712 0.57417 0.58474 0.0
H1093 H 0.63282 0.54629 0.59772 0.0
H1094 H 0.68379 0.45804 0.57812 0.0
H1095 H 0.65979 0.48279 0.58903 0.0
C1096 C 0.72441 0.258 0.34817 0.0
C1097 C 0.70739 0.24411 0.34137 0.0
C1098 C 0.72653 0.26735 0.36903 0.0
C1099 C 0.73005 0.28242 0.41537 0.0
H1100 H 0.68201 0.30178 0.43891 0.0
C1101 C 0.73018 0.33958 0.49366 0.0
C1102 C 0.71953 0.35698 0.49405 0.0
C1103 C 0.72772 0.32208 0.47744 0.0
C1104 C 0.69557 0.29653 0.43258 0.0
H1105 H 0.67997 0.2276 0.35063 0.0
H1106 H 0.68386 0.24314 0.38732 0.0
H1107 H 0.6809 0.27764 0.40595 0.0
H1108 H 0.69732 0.36917 0.47811 0.0
H1109 H 0.6933 0.33897 0.44973 0.0
H1110 H 0.74486 0.30251 0.44143 0.0
C1111 C 0.69535 0.24746 0.37664 0.0
C1112 C 0.69491 0.28238 0.41378 0.0
C1113 C 0.69316 0.23839 0.35577 0.0
C1114 C 0.70574 0.35604 0.47834 0.0
C1115 C 0.70336 0.33862 0.46208 0.0
C1116 C 0.73072 0.29673 0.43414 0.0
C1117 C 0.71168 0.26274 0.38341 0.0
C1118 C 0.7122 0.27549 0.40469 0.0
C1119 C 0.7146 0.32162 0.46121 0.0
C1120 C 0.71354 0.30435 0.44272 0.0
H1121 H 0.7354 0.26266 0.33712 0.0
H1122 H 0.73921 0.27918 0.37358 0.0
H1123 H 0.7436 0.27721 0.40899 0.0
H1124 H 0.74083 0.33971 0.50561 0.0
H1125 H 0.73636 0.30909 0.47744 0.0
C1126 C 0.47671 0.07092 0.9384 0.0
C1127 C 0.46252 0.08296 0.93324 0.0
C1128 C 0.49405 0.06995 0.92701 0.0
C1129 C 0.5127 0.07361 0.87518 0.0
H1130 H 0.56368 0.07486 0.89979 0.0
C1131 C 0.58188 0.06554 0.82505 0.0
C1132 C 0.59538 0.0529 0.83076 0.0
C1133 C 0.56654 0.07118 0.83825 0.0
C1134 C 0.54951 0.07425 0.89268 0.0
H1135 H 0.45536 0.10417 0.91303 0.0
H1136 H 0.48581 0.1025 0.89281 0.0
H1137 H 0.53551 0.08196 0.92202 0.0
H1138 H 0.60341 0.03636 0.85491 0.0
H1139 H 0.57629 0.04573 0.87777 0.0
H1140 H 0.52638 0.06525 0.84592 0.0
C1141 C 0.48348 0.09367 0.90555 0.0
C1142 C 0.53342 0.07842 0.90541 0.0
C1143 C 0.46619 0.09475 0.9171 0.0
C1144 C 0.59328 0.04616 0.85008 0.0
C1145 C 0.57781 0.05167 0.86324 0.0
C1146 C 0.52872 0.06928 0.86247 0.0
C1147 C 0.49743 0.08096 0.91019 0.0
C1148 C 0.51483 0.07802 0.89678 0.0
C1149 C 0.56419 0.06417 0.85743 0.0
C1150 C 0.54732 0.06943 0.87105 0.0
H1151 H 0.47414 0.06195 0.95102 0.0
H1152 H 0.50446 0.05994 0.93088 0.0
H1153 H 0.49847 0.07281 0.86811 0.0
H1154 H 0.58318 0.07119 0.81036 0.0
H1155 H 0.55657 0.08116 0.83343 0.0
C1156 C 0.31027 0.28656 0.32754 0.0
C1157 C 0.29509 0.27757 0.31351 0.0
C1158 C 0.31501 0.27548 0.34298 0.0
C1159 C 0.30621 0.22231 0.36066 0.0
H1160 H 0.31076 0.25725 0.4153 0.0
C1161 C 0.31032 0.18461 0.43425 0.0
C1162 C 0.29842 0.19233 0.45082 0.0
C1163 C 0.31366 0.19537 0.41736 0.0
C1164 C 0.30949 0.24725 0.40016 0.0
H1165 H 0.27389 0.24967 0.30343 0.0
H1166 H 0.28177 0.2303 0.33054 0.0
H1167 H 0.31016 0.27448 0.38504 0.0
H1168 H 0.2811 0.21776 0.46281 0.0
H1169 H 0.28667 0.23627 0.43333 0.0
H1170 H 0.30447 0.19501 0.37588 0.0
C1171 C 0.29021 0.24577 0.32969 0.0
C1172 C 0.30944 0.25715 0.38275 0.0
C1173 C 0.28554 0.25686 0.31428 0.0
C1174 C 0.29036 0.21136 0.45035 0.0
C1175 C 0.29368 0.22208 0.43347 0.0
C1176 C 0.30621 0.2124 0.37808 0.0
C1177 C 0.30461 0.2552 0.34463 0.0
C1178 C 0.30736 0.24478 0.3628 0.0
C1179 C 0.30518 0.2141 0.41666 0.0
C1180 C 0.3074 0.22473 0.39808 0.0
H1181 H 0.31774 0.30259 0.32715 0.0
H1182 H 0.3264 0.28306 0.35401 0.0
H1183 H 0.30485 0.21231 0.34551 0.0
H1184 H 0.31684 0.17006 0.43414 0.0
H1185 H 0.3228 0.18894 0.40481 0.0
C1186 C 0.518 0.48987 0.93278 0.0
C1187 C 0.51697 0.49669 0.95421 0.0
C1188 C 0.50338 0.49341 0.91982 0.0
C1189 C 0.45212 0.50392 0.91946 0.0
H1190 H 0.46753 0.52633 0.86932 0.0
C1191 C 0.39607 0.53072 0.86828 0.0
C1192 C 0.39835 0.52531 0.84676 0.0
C1193 C 0.41057 0.52775 0.88171 0.0
C1194 C 0.46295 0.51984 0.88314 0.0
H1195 H 0.50019 0.5126 0.97902 0.0
H1196 H 0.47437 0.51857 0.95643 0.0
H1197 H 0.49266 0.51942 0.89197 0.0
H1198 H 0.41764 0.51248 0.82249 0.0
H1199 H 0.44262 0.50695 0.84584 0.0
H1200 H 0.4224 0.50404 0.91054 0.0
C1201 C 0.48635 0.51034 0.94963 0.0
C1202 C 0.47736 0.5159 0.8961 0.0
C1203 C 0.50105 0.50692 0.96254 0.0
C1204 C 0.41545 0.51694 0.83898 0.0
C1205 C 0.42986 0.51388 0.85238 0.0
C1206 C 0.43768 0.50773 0.90643 0.0
C1207 C 0.48743 0.50373 0.92812 0.0
C1208 C 0.4721 0.50786 0.91437 0.0
C1209 C 0.42761 0.51923 0.87391 0.0
C1210 C 0.44293 0.51568 0.88808 0.0
H1211 H 0.53013 0.48183 0.92614 0.0
H1212 H 0.50447 0.48793 0.90332 0.0
H1213 H 0.44763 0.49751 0.93335 0.0
H1214 H 0.38311 0.53728 0.87477 0.0
H1215 H 0.4085 0.53231 0.89821 0.0
C1216 C 0.7184 0.76581 0.20781 0.0
C1217 C 0.73087 0.76457 0.22398 0.0
C1218 C 0.72457 0.76124 0.18731 0.0
C1219 C 0.76841 0.75197 0.15385 0.0
H1220 H 0.72857 0.71977 0.11556 0.0
C1221 C 0.78316 0.7033 0.07232 0.0
C1222 C 0.77052 0.70525 0.0564 0.0
C1223 C 0.78013 0.71322 0.0927 0.0
C1224 C 0.73982 0.72895 0.12602 0.0
H1225 H 0.75962 0.75853 0.23194 0.0
H1226 H 0.77039 0.74964 0.196 0.0
H1227 H 0.7197 0.73195 0.15121 0.0
H1228 H 0.74551 0.72012 0.0492 0.0
H1229 H 0.74023 0.73717 0.08461 0.0
H1230 H 0.78864 0.74805 0.12846 0.0
C1231 C 0.75598 0.75455 0.19898 0.0
C1232 C 0.73474 0.73606 0.14647 0.0
C1233 C 0.74986 0.75948 0.21952 0.0
C1234 C 0.75544 0.71814 0.06109 0.0
C1235 C 0.75234 0.72786 0.08139 0.0
C1236 C 0.77356 0.74457 0.13335 0.0
C1237 C 0.74325 0.75496 0.18257 0.0
C1238 C 0.74891 0.74778 0.16068 0.0
C1239 C 0.76433 0.72507 0.09747 0.0
C1240 C 0.75926 0.7331 0.11923 0.0
H1241 H 0.70382 0.77013 0.21111 0.0
H1242 H 0.71456 0.76236 0.17516 0.0
H1243 H 0.77969 0.76112 0.16427 0.0
H1244 H 0.79493 0.69351 0.06919 0.0
H1245 H 0.78955 0.71078 0.10485 0.0
C1246 C 0.01923 0.08183 0.14972 0.0
C1247 C 0.0269 0.10292 0.14778 0.0
C1248 C 0.0053 0.07798 0.16483 0.0
C1249 C 0.96625 0.10043 0.19561 0.0
H1250 H 0.97221 0.05583 0.22752 0.0
C1251 C 0.90908 0.07198 0.25613 0.0
C1252 C 0.90573 0.0496 0.25545 0.0
C1253 C 0.92397 0.08106 0.24407 0.0
C1254 C 0.97027 0.06826 0.21866 0.0
H1255 H 0.02617 0.13657 0.15978 0.0
H1256 H 0.00117 0.12988 0.18631 0.0
H1257 H 0.99877 0.06736 0.20509 0.0
H1258 H 0.91448 0.01915 0.24074 0.0
H1259 H 0.93998 0.03484 0.21963 0.0
H1260 H 0.93739 0.10076 0.20877 0.0
C1261 C 0.00612 0.11637 0.17616 0.0
C1262 C 0.98551 0.0749 0.2059 0.0
C1263 C 0.02034 0.1202 0.16111 0.0
C1264 C 0.91685 0.03646 0.24184 0.0
C1265 C 0.93158 0.04547 0.22983 0.0
C1266 C 0.95087 0.09368 0.20837 0.0
C1267 C 0.99856 0.09518 0.17818 0.0
C1268 C 0.98346 0.09061 0.19383 0.0
C1269 C 0.93568 0.06787 0.2312 0.0
C1270 C 0.95254 0.07706 0.21954 0.0
H1271 H 0.02389 0.06834 0.1393 0.0
H1272 H 0.99948 0.06151 0.16581 0.0
H1273 H 0.96431 0.11255 0.18639 0.0
H1274 H 0.90073 0.08249 0.26651 0.0
H1275 H 0.92678 0.09838 0.24539 0.0
C1276 C 0.2955 0.80157 0.2296 0.0
C1277 C 0.28258 0.79887 0.24606 0.0
C1278 C 0.2918 0.81467 0.21553 0.0
C1279 C 0.25147 0.83612 0.19388 0.0
H1280 H 0.29408 0.8713 0.17093 0.0
C1281 C 0.23959 0.88382 0.12835 0.0
C1282 C 0.25313 0.88145 0.112 0.0
C1283 C 0.24286 0.87672 0.14688 0.0
C1284 C 0.28202 0.86151 0.17716 0.0
H1285 H 0.25599 0.80794 0.26119 0.0
H1286 H 0.24929 0.83088 0.23644 0.0
H1287 H 0.30053 0.85347 0.19961 0.0
H1288 H 0.28086 0.87015 0.10243 0.0
H1289 H 0.28646 0.85779 0.13449 0.0
H1290 H 0.23308 0.84374 0.17103 0.0
C1291 C 0.26222 0.82276 0.23431 0.0
C1292 C 0.28572 0.8513 0.19358 0.0
C1293 C 0.26601 0.8097 0.24844 0.0
C1294 C 0.27012 0.87223 0.1147 0.0
C1295 C 0.27343 0.86528 0.13317 0.0
C1296 C 0.24777 0.84635 0.17742 0.0
C1297 C 0.27502 0.82527 0.21761 0.0
C1298 C 0.27059 0.83807 0.2018 0.0
C1299 C 0.25981 0.86731 0.14945 0.0
C1300 C 0.26311 0.85873 0.16856 0.0
H1301 H 0.30816 0.79303 0.22731 0.0
H1302 H 0.30176 0.81593 0.20264 0.0
H1303 H 0.23953 0.82589 0.19976 0.0
H1304 H 0.22637 0.89088 0.12673 0.0
H1305 H 0.23216 0.87861 0.1592 0.0
C1306 C 0.996 0.49811 0.10426 0.0
C1307 C 0.9792 0.48406 0.1077 0.0
C1308 C 0.01324 0.49861 0.11523 0.0
C1309 C 0.03939 0.46987 0.14811 0.0
H1310 H 0.0617 0.52764 0.17262 0.0
C1311 C 0.09507 0.48984 0.21643 0.0
C1312 C 0.1084 0.5088 0.21768 0.0
C1313 C 0.08123 0.48419 0.2004 0.0
C1314 C 0.056 0.51138 0.16559 0.0
H1315 H 0.96727 0.45867 0.12422 0.0
H1316 H 0.99755 0.45949 0.1437 0.0
H1317 H 0.03395 0.52247 0.14939 0.0
H1318 H 0.11903 0.53558 0.20225 0.0
H1319 H 0.09561 0.52529 0.1739 0.0
H1320 H 0.06149 0.45884 0.16461 0.0
C1321 C 0.99743 0.4701 0.13247 0.0
C1322 C 0.03999 0.50843 0.15229 0.0
C1323 C 0.98014 0.46965 0.12145 0.0
C1324 C 0.10873 0.52103 0.2018 0.0
C1325 C 0.09518 0.51521 0.18565 0.0
C1326 C 0.05559 0.47283 0.16139 0.0
C1327 C 0.014 0.485 0.12986 0.0
C1328 C 0.03147 0.48768 0.14341 0.0
C1329 C 0.08068 0.49728 0.18524 0.0
C1330 C 0.06408 0.49366 0.17031 0.0
H1331 H 0.99564 0.50898 0.09333 0.0
H1332 H 0.02588 0.50996 0.11257 0.0
H1333 H 0.03315 0.45368 0.14141 0.0
H1334 H 0.09448 0.48018 0.22854 0.0
H1335 H 0.07026 0.47031 0.20062 0.0
C1336 C 0.31411 0.75525 0.30942 0.0
C1337 C 0.31611 0.75773 0.28865 0.0
C1338 C 0.32916 0.74831 0.31943 0.0
C1339 C 0.38221 0.74894 0.31798 0.0
H1340 H 0.37258 0.70674 0.35441 0.0
C1341 C 0.44602 0.72804 0.36171 0.0
C1342 C 0.4427 0.7264 0.38261 0.0
C1343 C 0.43032 0.72789 0.34855 0.0
C1344 C 0.37551 0.71867 0.34443 0.0
H1345 H 0.33502 0.75492 0.26186 0.0
H1346 H 0.3617 0.74315 0.27941 0.0
H1347 H 0.34542 0.71452 0.33479 0.0
H1348 H 0.42027 0.72224 0.40587 0.0
H1349 H 0.39288 0.72268 0.38312 0.0
H1350 H 0.412 0.75392 0.3281 0.0
C1351 C 0.34848 0.74644 0.28797 0.0
C1352 C 0.35996 0.72306 0.33315 0.0
C1353 C 0.33332 0.75316 0.27794 0.0
C1354 C 0.42328 0.72346 0.38981 0.0
C1355 C 0.40756 0.72364 0.37671 0.0
C1356 C 0.39769 0.74475 0.32939 0.0
C1357 C 0.34659 0.74406 0.30886 0.0
C1358 C 0.36315 0.73836 0.31993 0.0
C1359 C 0.41092 0.72647 0.35604 0.0
C1360 C 0.39455 0.72966 0.34288 0.0
H1361 H 0.30113 0.75924 0.31803 0.0
H1362 H 0.32743 0.74698 0.33562 0.0
H1363 H 0.38506 0.76105 0.30816 0.0
H1364 H 0.46082 0.73005 0.35564 0.0
H1365 H 0.43346 0.72946 0.3326 0.0
C1366 C 0.9729 0.44496 0.0689 0.0
C1367 C 0.95533 0.44768 0.07965 0.0
C1368 C 0.97693 0.42439 0.0603 0.0
C1369 C 0.95082 0.37062 0.04076 0.0
H1370 H 0.00346 0.35495 0.03492 0.0
C1371 C 0.9662 0.28981 0.9929 0.0
C1372 C 0.98161 0.29153 0.97856 0.0
C1373 C 0.96371 0.30711 0.00858 0.0
C1374 C 0.98867 0.35911 0.03642 0.0
H1375 H 0.92862 0.43146 0.09084 0.0
H1376 H 0.93566 0.39526 0.07609 0.0
H1377 H 0.99788 0.38857 0.05695 0.0
H1378 H 0.00696 0.31251 0.97002 0.0
H1379 H 0.00255 0.34259 0.99723 0.0
H1380 H 0.94168 0.34143 0.01989 0.0
C1381 C 0.94622 0.40895 0.07395 0.0
C1382 C 0.98548 0.37837 0.04902 0.0
C1383 C 0.94221 0.42956 0.08248 0.0
C1384 C 0.99488 0.31064 0.98074 0.0
C1385 C 0.99245 0.32785 0.99645 0.0
C1386 C 0.954 0.35134 0.02824 0.0
C1387 C 0.96342 0.40615 0.06233 0.0
C1388 C 0.96657 0.38458 0.05099 0.0
C1389 C 0.97665 0.32643 0.01034 0.0
C1390 C 0.97302 0.34559 0.02559 0.0
H1391 H 0.98306 0.45882 0.06637 0.0
H1392 H 0.99017 0.42288 0.05122 0.0
H1393 H 0.93611 0.37502 0.04164 0.0
H1394 H 0.95575 0.2753 0.99172 0.0
H1395 H 0.9515 0.30547 0.01918 0.0
C1396 C 0.67083 0.7661 0.27926 0.0
C1397 C 0.68833 0.75954 0.28473 0.0
C1398 C 0.65424 0.76396 0.29175 0.0
C1399 C 0.62997 0.73522 0.33077 0.0
H1400 H 0.60471 0.78649 0.34586 0.0
C1401 C 0.56315 0.73948 0.38676 0.0
C1402 C 0.54854 0.75115 0.38173 0.0
C1403 C 0.58093 0.73984 0.37584 0.0
C1404 C 0.6114 0.77193 0.34161 0.0
H1405 H 0.70249 0.74526 0.3069 0.0
H1406 H 0.67311 0.74102 0.32887 0.0
H1407 H 0.63409 0.78765 0.32451 0.0
H1408 H 0.54082 0.77175 0.36095 0.0
H1409 H 0.5713 0.77187 0.34168 0.0
H1410 H 0.60691 0.7193 0.34738 0.0
C1411 C 0.67226 0.74783 0.31494 0.0
C1412 C 0.62828 0.77265 0.32944 0.0
C1413 C 0.68897 0.75024 0.30251 0.0
C1414 C 0.55187 0.7628 0.36539 0.0
C1415 C 0.56945 0.76299 0.35441 0.0
C1416 C 0.61287 0.73441 0.34279 0.0
C1417 C 0.65486 0.75505 0.30984 0.0
C1418 C 0.63757 0.75426 0.32367 0.0
C1419 C 0.58432 0.75175 0.35962 0.0
C1420 C 0.60322 0.7527 0.34808 0.0
H1421 H 0.67024 0.77342 0.26561 0.0
H1422 H 0.64096 0.76947 0.28738 0.0
H1423 H 0.63689 0.72081 0.32647 0.0
H1424 H 0.56098 0.73036 0.3993 0.0
H1425 H 0.59211 0.73112 0.38035 0.0
C1426 C 0.03283 0.10043 0.06554 0.0
C1427 C 0.04971 0.10861 0.07742 0.0
C1428 C 0.03087 0.10581 0.04604 0.0
C1429 C 0.04857 0.15027 0.01855 0.0
H1430 H 0.01337 0.11692 0.97598 0.0
C1431 C 0.02036 0.18906 0.95417 0.0
C1432 C -0.00026 0.18648 0.95331 0.0
C1433 C 0.02996 0.17599 0.96452 0.0
C1434 C 0.02335 0.12636 0.98767 0.0
H1435 H 0.07865 0.12673 0.07769 0.0
H1436 H 0.07563 0.13578 0.04315 0.0
H1437 H 0.0251 0.0995 0.00281 0.0
H1438 H 0.97307 0.16726 0.96136 0.0
H1439 H 0.98982 0.1444 0.97926 0.0
H1440 H 0.0464 0.17721 0.00371 0.0
C1441 C 0.06357 0.12582 0.04913 0.0
C1442 C 0.03003 0.11643 0.00309 0.0
C1443 C 0.06542 0.12052 0.06876 0.0
C1444 C 0.98898 0.16971 0.96184 0.0
C1445 C 0.99858 0.15651 0.97198 0.0
C1446 C 0.04207 0.16011 0.00302 0.0
C1447 C 0.04592 0.11927 0.03789 0.0
C1448 C 0.04212 0.12846 0.01919 0.0
C1449 C 0.01913 0.15993 0.97397 0.0
C1450 C 0.02884 0.14845 0.98785 0.0
H1451 H 0.02073 0.0908 0.07186 0.0
H1452 H 0.01702 0.1005 0.03801 0.0
H1453 H 0.05763 0.16017 0.03078 0.0
H1454 H 0.02907 0.20181 0.9477 0.0
H1455 H 0.04583 0.17888 0.9657 0.0
C1456 C 0.33247 0.31543 0.2805 0.0
C1457 C 0.31821 0.29743 0.28024 0.0
C1458 C 0.35106 0.31315 0.27212 0.0
C1459 C 0.37577 0.27535 0.23431 0.0
H1460 H 0.42183 0.31628 0.25195 0.0
C1461 C 0.45072 0.27334 0.19227 0.0
C1462 C 0.45829 0.29294 0.18614 0.0
C1463 C 0.43509 0.27236 0.20626 0.0
C1464 C 0.40908 0.30471 0.24691 0.0
H1465 H 0.31245 0.26282 0.27265 0.0
H1466 H 0.34529 0.2585 0.25871 0.0
H1467 H 0.3921 0.3166 0.27299 0.0
H1468 H 0.45587 0.327 0.19046 0.0
H1469 H 0.42884 0.32533 0.21519 0.0
H1470 H 0.39292 0.26349 0.20825 0.0
C1471 C 0.34196 0.27454 0.26464 0.0
C1472 C 0.392 0.30494 0.25888 0.0
C1473 C 0.32324 0.27692 0.27282 0.0
C1474 C 0.45032 0.31164 0.19481 0.0
C1475 C 0.43494 0.31073 0.20906 0.0
C1476 C 0.39295 0.27493 0.22252 0.0
C1477 C 0.35594 0.2927 0.26363 0.0
C1478 C 0.37493 0.29062 0.25246 0.0
C1479 C 0.42699 0.29104 0.2147 0.0
C1480 C 0.40961 0.28993 0.22846 0.0
H1481 H 0.32899 0.33137 0.2866 0.0
H1482 H 0.36126 0.32756 0.27153 0.0
H1483 H 0.3629 0.2643 0.22862 0.0
H1484 H 0.45652 0.25864 0.18584 0.0
H1485 H 0.42926 0.257 0.21043 0.0
C1486 C 0.56355 0.46401 0.01378 0.0
C1487 C 0.5518 0.48029 0.01356 0.0
C1488 C 0.56374 0.45405 0.03119 0.0
C1489 C 0.52934 0.44109 0.07135 0.0
H1490 H 0.57206 0.41783 0.09332 0.0
C1491 C 0.51176 0.38383 0.12856 0.0
C1492 C 0.52101 0.36526 0.125 0.0
C1493 C 0.51912 0.40168 0.11969 0.0
C1494 C 0.55996 0.42414 0.0873 0.0
H1495 H 0.53269 0.50055 0.03158 0.0
H1496 H 0.53308 0.4834 0.06216 0.0
H1497 H 0.57905 0.4426 0.06855 0.0
H1498 H 0.54583 0.35108 0.11051 0.0
H1499 H 0.55824 0.38184 0.09408 0.0
H1500 H 0.51007 0.42199 0.08881 0.0
C1501 C 0.54183 0.47795 0.04885 0.0
C1502 C 0.56399 0.43838 0.07318 0.0
C1503 C 0.54161 0.48779 0.03147 0.0
C1504 C 0.5385 0.36531 0.11356 0.0
C1505 C 0.54562 0.383 0.10419 0.0
C1506 C 0.5253 0.42678 0.08519 0.0
C1507 C 0.55218 0.46034 0.04857 0.0
C1508 C 0.54866 0.44686 0.06496 0.0
C1509 C 0.53553 0.40108 0.10646 0.0
C1510 C 0.54049 0.41793 0.09327 0.0
H1511 H 0.57146 0.45807 0.0 0.0
H1512 H 0.5718 0.44049 0.03047 0.0
H1513 H 0.51713 0.44689 0.06493 0.0
H1514 H 0.49836 0.38424 0.13755 0.0
H1515 H 0.51135 0.41557 0.12242 0.0
C1516 C 0.6556 0.23445 0.2768 0.0
C1517 C 0.67582 0.23924 0.2736 0.0
C1518 C 0.6422 0.23758 0.26237 0.0
C1519 C 0.63717 0.26746 0.21978 0.0
H1520 H 0.58912 0.2276 0.20986 0.0
C1521 C 0.56834 0.28713 0.18129 0.0
C1522 C 0.55621 0.27006 0.16948 0.0
C1523 C 0.58466 0.28316 0.19169 0.0
C1524 C 0.60256 0.23876 0.21214 0.0
H1525 H 0.6981 0.25064 0.25285 0.0
H1526 H 0.67461 0.25569 0.22705 0.0
H1527 H 0.61435 0.22014 0.23174 0.0
H1528 H 0.55232 0.23574 0.15808 0.0
H1529 H 0.58103 0.22893 0.17552 0.0
H1530 H 0.62541 0.28589 0.1998 0.0
C1531 C 0.66908 0.24988 0.24093 0.0
C1532 C 0.61694 0.23462 0.22497 0.0
C1533 C 0.68251 0.24681 0.2555 0.0
C1534 C 0.56124 0.24918 0.16736 0.0
C1535 C 0.57765 0.24526 0.17746 0.0
C1536 C 0.62279 0.27154 0.20678 0.0
C1537 C 0.64875 0.24538 0.24427 0.0
C1538 C 0.63427 0.24908 0.22924 0.0
C1539 C 0.58925 0.26208 0.19024 0.0
C1540 C 0.6052 0.25735 0.20299 0.0
H1541 H 0.6502 0.22844 0.29062 0.0
H1542 H 0.62667 0.23425 0.26562 0.0
H1543 H 0.6503 0.27901 0.22286 0.0
H1544 H 0.56478 0.30339 0.18319 0.0
H1545 H 0.59317 0.29649 0.20152 0.0
C1546 C 0.43731 0.13822 0.95582 0.0
C1547 C 0.4464 0.12065 0.95898 0.0
C1548 C 0.44498 0.15907 0.96498 0.0
C1549 C 0.4875 0.19158 0.99508 0.0
H1550 H 0.44691 0.2192 0.02683 0.0
C1551 C 0.50094 0.24251 0.07515 0.0
C1552 C 0.49092 0.26034 0.08143 0.0
C1553 C 0.49736 0.22966 0.05583 0.0
C1554 C 0.45843 0.21206 0.01775 0.0
H1555 H 0.47109 0.11085 0.97289 0.0
H1556 H 0.48464 0.14715 0.98891 0.0
H1557 H 0.4377 0.18888 0.99936 0.0
H1558 H 0.46973 0.27908 0.07199 0.0
H1559 H 0.4633 0.25636 0.03812 0.0
H1560 H 0.5082 0.21415 0.01431 0.0
C1561 C 0.47175 0.14508 0.97921 0.0
C1562 C 0.45316 0.19465 0.00194 0.0
C1563 C 0.46405 0.12427 0.97005 0.0
C1564 C 0.47762 0.2654 0.06765 0.0
C1565 C 0.47392 0.25239 0.04829 0.0
C1566 C 0.49277 0.20899 0.01091 0.0
C1567 C 0.46187 0.16263 0.97746 0.0
C1568 C 0.46762 0.18371 0.99095 0.0
C1569 C 0.48361 0.23424 0.04229 0.0
C1570 C 0.47827 0.21887 0.02293 0.0
H1571 H 0.42368 0.13563 0.94723 0.0
H1572 H 0.43718 0.17228 0.96311 0.0
H1573 H 0.49898 0.18373 0.98664 0.0
H1574 H 0.51138 0.23821 0.08531 0.0
H1575 H 0.50484 0.21561 0.05184 0.0
C1576 C 0.23298 0.31796 0.7468 0.0
C1577 C 0.23997 0.30483 0.75925 0.0
C1578 C 0.24337 0.3381 0.74547 0.0
C1579 C 0.291 0.37269 0.75687 0.0
H1580 H 0.25887 0.41893 0.76777 0.0
C1581 C 0.30201 0.46792 0.79303 0.0
C1582 C 0.31877 0.47512 0.78217 0.0
C1583 C 0.2918 0.44736 0.7868 0.0
C1584 C 0.26801 0.40619 0.76467 0.0
H1585 H 0.26349 0.30143 0.77912 0.0
H1586 H 0.28193 0.33673 0.77686 0.0
H1587 H 0.24321 0.38166 0.76235 0.0
H1588 H 0.33743 0.46664 0.7557 0.0
H1589 H 0.31959 0.43082 0.74492 0.0
H1590 H 0.31583 0.39724 0.7599 0.0
C1591 C 0.2685 0.33154 0.76801 0.0
C1592 C 0.25906 0.38485 0.76134 0.0
C1593 C 0.25802 0.31143 0.76939 0.0
C1594 C 0.32464 0.4616 0.76449 0.0
C1595 C 0.3145 0.44101 0.75835 0.0
C1596 C 0.29995 0.39404 0.76006 0.0
C1597 C 0.26096 0.34535 0.75655 0.0
C1598 C 0.27047 0.36787 0.75776 0.0
C1599 C 0.29819 0.43354 0.76965 0.0
C1600 C 0.28856 0.411 0.76436 0.0
H1601 H 0.21896 0.31306 0.73903 0.0
H1602 H 0.23733 0.34829 0.73634 0.0
H1603 H 0.30015 0.35994 0.75403 0.0
H1604 H 0.29708 0.47792 0.80669 0.0
H1605 H 0.27936 0.44198 0.79591 0.0
C1606 C 0.222 0.70397 0.8329 0.0
C1607 C 0.2252 0.71835 0.81884 0.0
C1608 C 0.23594 0.69053 0.83523 0.0
C1609 C 0.2744 0.66437 0.80584 0.0
H1610 H 0.28714 0.64995 0.85854 0.0
C1611 C 0.32638 0.60167 0.81105 0.0
C1612 C 0.32059 0.58703 0.82451 0.0
C1613 C 0.31698 0.61989 0.81161 0.0
C1614 C 0.28362 0.65368 0.84368 0.0
H1615 H 0.24562 0.73084 0.79693 0.0
H1616 H 0.27009 0.70718 0.8008 0.0
H1617 H 0.26666 0.6782 0.85761 0.0
H1618 H 0.30063 0.58023 0.84934 0.0
H1619 H 0.28398 0.61163 0.85001 0.0
H1620 H 0.29072 0.63946 0.79179 0.0
C1621 C 0.25675 0.70614 0.8099 0.0
C1622 C 0.27194 0.66991 0.84317 0.0
C1623 C 0.24284 0.71966 0.80769 0.0
C1624 C 0.30548 0.59121 0.83879 0.0
C1625 C 0.29602 0.60934 0.83927 0.0
C1626 C 0.28596 0.64807 0.80632 0.0
C1627 C 0.25329 0.69115 0.82343 0.0
C1628 C 0.26701 0.67524 0.82422 0.0
C1629 C 0.30151 0.62381 0.82556 0.0
C1630 C 0.29051 0.64231 0.82523 0.0
H1631 H 0.20834 0.70251 0.84141 0.0
H1632 H 0.23273 0.67899 0.84559 0.0
H1633 H 0.27061 0.66788 0.79097 0.0
H1634 H 0.33807 0.59898 0.79995 0.0
H1635 H 0.32179 0.63086 0.80104 0.0
C1636 C 0.8756 0.56707 0.43795 0.0
C1637 C 0.89519 0.56385 0.43973 0.0
C1638 C 0.86055 0.55389 0.44613 0.0
C1639 C 0.8499 0.50176 0.4647 0.0
H1640 H 0.80804 0.52816 0.4953 0.0
C1641 C 0.79712 0.4568 0.51684 0.0
C1642 C 0.77703 0.45806 0.51473 0.0
C1643 C 0.81123 0.47018 0.50771 0.0
C1644 C 0.81955 0.52055 0.48665 0.0
H1645 H 0.91473 0.54486 0.45138 0.0
H1646 H 0.88859 0.52181 0.46579 0.0
H1647 H 0.83301 0.55015 0.47822 0.0
H1648 H 0.75605 0.47485 0.50195 0.0
H1649 H 0.78074 0.49821 0.48609 0.0
H1650 H 0.8366 0.47223 0.47337 0.0
C1651 C 0.88465 0.53411 0.45776 0.0
C1652 C 0.8338 0.53311 0.4768 0.0
C1653 C 0.89961 0.54724 0.44956 0.0
C1654 C 0.7714 0.47343 0.50384 0.0
C1655 C 0.78553 0.48689 0.49482 0.0
C1656 C 0.83573 0.48925 0.47462 0.0
C1657 C 0.86494 0.53735 0.45627 0.0
C1658 C 0.84921 0.52387 0.46583 0.0
C1659 C 0.80556 0.48517 0.4964 0.0
C1660 C 0.82049 0.49853 0.4858 0.0
H1661 H 0.87206 0.57994 0.43047 0.0
H1662 H 0.8455 0.55666 0.44455 0.0
H1663 H 0.86138 0.49407 0.45607 0.0
H1664 H 0.80196 0.44518 0.52516 0.0
H1665 H 0.8266 0.46873 0.50943 0.0
C1666 C 0.75188 0.84266 0.78287 0.0
C1667 C 0.76461 0.84448 0.79967 0.0
C1668 C 0.73864 0.85747 0.7828 0.0
C1669 C 0.71357 0.89723 0.81753 0.0
H1670 H 0.70964 0.92321 0.76878 0.0
C1671 C 0.68151 0.97624 0.82059 0.0
C1672 C 0.67056 0.97915 0.80372 0.0
C1673 C 0.69079 0.95796 0.81964 0.0
C1674 C 0.71027 0.91585 0.7824 0.0
H1675 H 0.77375 0.86308 0.82943 0.0
H1676 H 0.7505 0.88892 0.82955 0.0
H1677 H 0.73009 0.89464 0.76789 0.0
H1678 H 0.66036 0.96485 0.77277 0.0
H1679 H 0.67645 0.93267 0.77119 0.0
H1680 H 0.69393 0.9185 0.83213 0.0
C1681 C 0.75054 0.87595 0.8165 0.0
C1682 C 0.72203 0.89951 0.78189 0.0
C1683 C 0.76385 0.86124 0.81646 0.0
C1684 C 0.66874 0.9631 0.78601 0.0
C1685 C 0.67805 0.94474 0.78506 0.0
C1686 C 0.70175 0.91347 0.818 0.0
C1687 C 0.73782 0.87426 0.79965 0.0
C1688 C 0.72409 0.89032 0.79958 0.0
C1689 C 0.68933 0.94205 0.80182 0.0
C1690 C 0.70026 0.92328 0.80058 0.0
H1691 H 0.75215 0.8297 0.76986 0.0
H1692 H 0.72891 0.85567 0.76968 0.0
H1693 H 0.71458 0.89016 0.83128 0.0
H1694 H 0.68326 0.98831 0.83446 0.0
H1695 H 0.6996 0.95662 0.8327 0.0
C1696 C 0.58617 0.51955 0.00563 0.0
C1697 C 0.58162 0.50397 0.98798 0.0
C1698 C 0.60522 0.53043 0.0086 0.0
C1699 C 0.65685 0.53127 0.99123 0.0
H1700 H 0.6568 0.59301 0.00041 0.0
C1701 C 0.72586 0.59083 0.97844 0.0
C1702 C 0.72871 0.6107 0.99186 0.0
C1703 C 0.70852 0.57665 0.9793 0.0
C1704 C 0.65719 0.57584 0.99822 0.0
H1705 H 0.5932 0.48631 0.96037 0.0
H1706 H 0.62673 0.50522 0.96554 0.0
H1707 H 0.62602 0.56941 0.00116 0.0
H1708 H 0.71584 0.631 0.01711 0.0
H1709 H 0.68603 0.6062 0.01898 0.0
H1710 H 0.6881 0.53774 0.98829 0.0
C1711 C 0.61568 0.50905 0.97711 0.0
C1712 C 0.6395 0.5623 0.99866 0.0
C1713 C 0.59658 0.49828 0.9741 0.0
C1714 C 0.71401 0.61595 0.00634 0.0
C1715 C 0.69684 0.60172 0.00736 0.0
C1716 C 0.67464 0.54486 0.991 0.0
C1717 C 0.62 0.5258 0.99399 0.0
C1718 C 0.63911 0.53989 0.99506 0.0
C1719 C 0.69376 0.58197 0.99374 0.0
C1720 C 0.67501 0.56733 0.99438 0.0
H1721 H 0.57472 0.52421 0.01638 0.0
H1722 H 0.60821 0.54311 0.02187 0.0
H1723 H 0.65695 0.51403 0.98846 0.0
H1724 H 0.73692 0.58632 0.96711 0.0
H1725 H 0.70656 0.56171 0.96839 0.0
C1726 C 0.27688 0.71604 0.26076 0.0
C1727 C 0.2766 0.7332 0.27719 0.0
C1728 C 0.26934 0.69518 0.26334 0.0
C1729 C 0.2355 0.66648 0.29754 0.0
H1730 H 0.25384 0.61626 0.26487 0.0
C1731 C 0.19972 0.58077 0.30328 0.0
C1732 C 0.19181 0.56968 0.28426 0.0
C1733 C 0.21344 0.5992 0.30399 0.0
C1734 C 0.24869 0.63018 0.27417 0.0
H1735 H 0.26867 0.74248 0.30913 0.0
H1736 H 0.25659 0.70589 0.3143 0.0
H1737 H 0.27186 0.6519 0.26394 0.0
H1738 H 0.1931 0.56825 0.25101 0.0
H1739 H 0.21746 0.6002 0.25227 0.0
H1740 H 0.21246 0.64462 0.30786 0.0
C1741 C 0.26204 0.70839 0.29918 0.0
C1742 C 0.25887 0.65062 0.27353 0.0
C1743 C 0.26921 0.72929 0.2964 0.0
C1744 C 0.19887 0.57653 0.26589 0.0
C1745 C 0.21287 0.59473 0.2666 0.0
C1746 C 0.2256 0.64605 0.29847 0.0
C1747 C 0.26164 0.69106 0.28256 0.0
C1748 C 0.25215 0.66911 0.28485 0.0
C1749 C 0.21979 0.60659 0.28568 0.0
C1750 C 0.23186 0.62777 0.2865 0.0
H1751 H 0.28245 0.71897 0.24579 0.0
H1752 H 0.26897 0.68247 0.25004 0.0
H1753 H 0.22956 0.68023 0.30616 0.0
H1754 H 0.19454 0.57591 0.3177 0.0
H1755 H 0.21865 0.60808 0.31888 0.0
C1756 C 0.90266 0.50851 0.08303 0.0
C1757 C 0.92313 0.51274 0.08115 0.0
C1758 C 0.89059 0.52194 0.07635 0.0
C1759 C 0.89036 0.57572 0.0623 0.0
H1760 H 0.84628 0.54733 0.02763 0.0
C1761 C 0.83297 0.62078 0.02978 0.0
C1762 C 0.82763 0.61339 0.00897 0.0
C1763 C 0.84486 0.6096 0.03987 0.0
C1764 C 0.85856 0.55549 0.03725 0.0
H1765 H 0.94712 0.53422 0.07109 0.0
H1766 H 0.92611 0.55793 0.05957 0.0
H1767 H 0.86628 0.5259 0.04366 0.0
H1768 H 0.83107 0.58884 0.98226 0.0
H1769 H 0.85174 0.56948 0.99981 0.0
H1770 H 0.88277 0.60533 0.0555 0.0
C1771 C 0.91935 0.54441 0.0664 0.0
C1772 C 0.86988 0.54324 0.04662 0.0
C1773 C 0.93138 0.53089 0.07298 0.0
C1774 C 0.83483 0.59495 0.99832 0.0
C1775 C 0.84657 0.58374 0.00841 0.0
C1776 C 0.87892 0.58802 0.05303 0.0
C1777 C 0.89881 0.5399 0.06774 0.0
C1778 C 0.88604 0.55318 0.05906 0.0
C1779 C 0.85148 0.59074 0.02936 0.0
C1780 C 0.86308 0.57799 0.04017 0.0
H1781 H 0.89607 0.49465 0.08945 0.0
H1782 H 0.87482 0.51819 0.07778 0.0
H1783 H 0.90265 0.58384 0.07194 0.0
H1784 H 0.82765 0.63494 0.0384 0.0
H1785 H 0.84839 0.61533 0.05604 0.0
C1786 C 0.06943 0.06462 0.08484 0.0
C1787 C 0.07669 0.08431 0.09697 0.0
C1788 C 0.08203 0.04949 0.07778 0.0
C1789 C 0.11278 0.02221 0.05865 0.0
H1790 H 0.15219 0.01676 0.09806 0.0
C1791 C 0.17101 0.96479 0.03846 0.0
C1792 C 0.1771 0.95443 0.05399 0.0
C1793 C 0.1584 0.98036 0.04307 0.0
C1794 C 0.14112 0.01788 0.08696 0.0
H1795 H 0.10258 0.10439 0.11048 0.0
H1796 H 0.125 0.0783 0.09758 0.0
H1797 H 0.13147 0.04508 0.10623 0.0
H1798 H 0.17424 0.95185 0.08645 0.0
H1799 H 0.15175 0.9787 0.09444 0.0
H1800 H 0.12195 0.99449 0.03974 0.0
C1801 C 0.10953 0.0742 0.09387 0.0
C1802 C 0.12945 0.0344 0.09148 0.0
C1803 C 0.09685 0.08925 0.10103 0.0
C1804 C 0.16986 0.95959 0.07416 0.0
C1805 C 0.15711 0.97511 0.07876 0.0
C1806 C 0.12437 0.0056 0.05419 0.0
C1807 C 0.10218 0.05386 0.0827 0.0
C1808 C 0.11513 0.0368 0.07739 0.0
C1809 C 0.15142 0.98588 0.0633 0.0
C1810 C 0.13871 0.00323 0.06828 0.0
H1811 H 0.05382 0.06052 0.08189 0.0
H1812 H 0.07578 0.03396 0.06943 0.0
H1813 H 0.10201 0.02364 0.04737 0.0
H1814 H 0.17638 0.96129 0.02276 0.0
H1815 H 0.1546 0.98849 0.03083 0.0
loop_
_geom_bond_atom_site_label_1
_geom_bond_atom_site_label_2
_geom_bond_distance
_geom_bond_site_symmetry_2
_ccdc_geom_bond_type
C0 N1 1.317 . S
C0 N2 1.348 . S
C0 C3 1.485 . S
N1 C0 1.317 . S
N1 N5 1.370 . S
N2 C0 1.348 . S
N2 C4 1.346 . S
C3 C0 1.485 . S
C3 H7 0.960 . S
C3 H8 0.961 . S
C3 H9 0.960 . S
C4 N2 1.346 . S
C4 N5 1.307 . S
C4 C6 1.486 . S
N5 N1 1.370 . S
N5 C4 1.307 . S
C6 C4 1.486 . S
C6 H10 0.960 . S
C6 H11 0.960 . S
C6 H12 0.959 . S
H7 C3 0.960 . S
H8 C3 0.961 . S
H9 C3 0.960 . S
H10 C6 0.960 . S
H11 C6 0.960 . S
H12 C6 0.959 . S
C13 N14 1.317 . S
C13 N15 1.348 . S
C13 C16 1.485 . S
N14 C13 1.317 . S
N14 N18 1.370 . S
N15 C13 1.348 . S
N15 C17 1.346 . S
C16 C13 1.485 . S
C16 H20 0.960 . S
C16 H21 0.961 . S
C16 H22 0.960 . S
C17 N15 1.346 . S
C17 N18 1.307 . S
C17 C19 1.486 . S
N18 N14 1.370 . S
N18 C17 1.307 . S
C19 C17 1.486 . S
C19 H23 0.960 . S
C19 H24 0.960 . S
C19 H25 0.959 . S
H20 C16 0.960 . S
H21 C16 0.961 . S
H22 C16 0.960 . S
H23 C19 0.960 . S
H24 C19 0.960 . S
H25 C19 0.959 . S
C26 N27 1.317 . S
C26 N28 1.348 . S
C26 C29 1.485 . S
N27 C26 1.317 . S
N27 N31 1.370 . S
N28 C26 1.348 . S
N28 C30 1.346 . S
C29 C26 1.485 . S
C29 H33 0.960 . S
C29 H34 0.961 . S
C29 H35 0.960 . S
C30 N28 1.346 . S
C30 N31 1.307 . S
C30 C32 1.486 . S
N31 N27 1.370 . S
N31 C30 1.307 . S
C32 C30 1.486 . S
C32 H36 0.960 . S
C32 H37 0.960 . S
C32 H38 0.959 . S
H33 C29 0.960 . S
H34 C29 0.961 . S
H35 C29 0.960 . S
H36 C32 0.960 . S
H37 C32 0.960 . S
H38 C32 0.959 . S
C39 N40 1.317 . S
C39 N41 1.348 . S
C39 C42 1.485 . S
N40 C39 1.317 . S
N40 N44 1.370 . S
N41 C39 1.348 . S
N41 C43 1.346 . S
C42 C39 1.485 . S
C42 H46 0.960 . S
C42 H47 0.961 . S
C42 H48 0.960 . S
C43 N41 1.346 . S
C43 N44 1.307 . S
C43 C45 1.486 . S
N44 N40 1.370 . S
N44 C43 1.307 . S
C45 C43 1.486 . S
C45 H49 0.960 . S
C45 H50 0.960 . S
C45 H51 0.959 . S
H46 C42 0.960 . S
H47 C42 0.961 . S
H48 C42 0.960 . S
H49 C45 0.960 . S
H50 C45 0.960 . S
H51 C45 0.959 . S
C52 N53 1.317 . S
C52 N54 1.348 . S
C52 C55 1.485 . S
N53 C52 1.317 . S
N53 N57 1.370 . S
N54 C52 1.348 . S
N54 C56 1.346 . S
C55 C52 1.485 . S
C55 H59 0.960 . S
C55 H60 0.961 . S
C55 H61 0.960 . S
C56 N54 1.346 . S
C56 N57 1.307 . S
C56 C58 1.486 . S
N57 N53 1.370 . S
N57 C56 1.307 . S
C58 C56 1.486 . S
C58 H62 0.960 1_565 S
C58 H63 0.960 . S
C58 H64 0.959 . S
H59 C55 0.960 . S
H60 C55 0.961 . S
H61 C55 0.960 . S
H62 C58 0.960 1_545 S
H63 C58 0.960 . S
H64 C58 0.959 . S
C65 N66 1.317 . S
C65 N67 1.348 . S
C65 C68 1.485 . S
N66 C65 1.317 . S
N66 N70 1.370 . S
N67 C65 1.348 . S
N67 C69 1.346 . S
C68 C65 1.485 . S
C68 H72 0.960 . S
C68 H73 0.961 . S
C68 H74 0.960 . S
C69 N67 1.346 . S
C69 N70 1.307 . S
C69 C71 1.486 . S
N70 N66 1.370 . S
N70 C69 1.307 . S
C71 C69 1.486 . S
C71 H75 0.960 . S
C71 H76 0.960 . S
C71 H77 0.959 . S
H72 C68 0.960 . S
H73 C68 0.961 . S
H74 C68 0.960 . S
H75 C71 0.960 . S
H76 C71 0.960 . S
H77 C71 0.959 . S
C78 N79 1.317 . S
C78 N80 1.348 . S
C78 C81 1.485 . S
N79 C78 1.317 . S
N79 N83 1.370 . S
N80 C78 1.348 . S
N80 C82 1.346 . S
C81 C78 1.485 . S
C81 H85 0.960 . S
C81 H86 0.961 . S
C81 H87 0.960 . S
C82 N80 1.346 . S
C82 N83 1.307 . S
C82 C84 1.486 . S
N83 N79 1.370 . S
N83 C82 1.307 . S
C84 C82 1.486 . S
C84 H88 0.960 . S
C84 H89 0.960 . S
C84 H90 0.959 . S
H85 C81 0.960 . S
H86 C81 0.961 . S
H87 C81 0.960 . S
H88 C84 0.960 . S
H89 C84 0.960 . S
H90 C84 0.959 . S
C91 N92 1.317 . S
C91 N93 1.348 . S
C91 C94 1.485 . S
N92 C91 1.317 . S
N92 N96 1.370 . S
N93 C91 1.348 . S
N93 C95 1.346 . S
C94 C91 1.485 . S
C94 H98 0.960 . S
C94 H99 0.961 . S
C94 H100 0.960 . S
C95 N93 1.346 . S
C95 N96 1.307 . S
C95 C97 1.486 . S
N96 N92 1.370 . S
N96 C95 1.307 . S
C97 C95 1.486 . S
C97 H101 0.960 . S
C97 H102 0.960 . S
C97 H103 0.959 . S
H98 C94 0.960 . S
H99 C94 0.961 . S
H100 C94 0.960 . S
H101 C97 0.960 . S
H102 C97 0.960 . S
H103 C97 0.959 . S
C104 N105 1.317 . S
C104 N106 1.348 . S
C104 C107 1.485 . S
N105 C104 1.317 . S
N105 N109 1.370 . S
N106 C104 1.348 . S
N106 C108 1.346 . S
C107 C104 1.485 . S
C107 H111 0.960 . S
C107 H112 0.961 . S
C107 H113 0.960 . S
C108 N106 1.346 . S
C108 N109 1.307 . S
C108 C110 1.486 . S
N109 N105 1.370 . S
N109 C108 1.307 . S
C110 C108 1.486 . S
C110 H114 0.960 . S
C110 H115 0.960 . S
C110 H116 0.959 . S
H111 C107 0.960 . S
H112 C107 0.961 . S
H113 C107 0.960 . S
H114 C110 0.960 . S
H115 C110 0.960 . S
H116 C110 0.959 . S
C117 N118 1.317 . S
C117 N119 1.348 . S
C117 C120 1.485 . S
N118 C117 1.317 . S
N118 N122 1.370 . S
N119 C117 1.348 . S
N119 C121 1.346 . S
C120 C117 1.485 . S
C120 H124 0.960 . S
C120 H125 0.961 . S
C120 H126 0.960 . S
C121 N119 1.346 . S
C121 N122 1.307 . S
C121 C123 1.486 . S
N122 N118 1.370 . S
N122 C121 1.307 . S
C123 C121 1.486 . S
C123 H127 0.960 . S
C123 H128 0.960 . S
C123 H129 0.959 . S
H124 C120 0.960 . S
H125 C120 0.961 . S
H126 C120 0.960 . S
H127 C123 0.960 . S
H128 C123 0.960 . S
H129 C123 0.959 . S
C130 N131 1.317 . S
C130 N132 1.348 . S
C130 C133 1.485 . S
N131 C130 1.317 . S
N131 N135 1.370 . S
N132 C130 1.348 . S
N132 C134 1.346 . S
C133 C130 1.485 . S
C133 H137 0.960 . S
C133 H138 0.961 . S
C133 H139 0.960 . S
C134 N132 1.346 . S
C134 N135 1.307 . S
C134 C136 1.486 . S
N135 N131 1.370 . S
N135 C134 1.307 . S
C136 C134 1.486 . S
C136 H140 0.960 . S
C136 H141 0.960 . S
C136 H142 0.959 . S
H137 C133 0.960 . S
H138 C133 0.961 . S
H139 C133 0.960 . S
H140 C136 0.960 . S
H141 C136 0.960 . S
H142 C136 0.959 . S
C143 N144 1.317 . S
C143 N145 1.348 . S
C143 C146 1.485 . S
N144 C143 1.317 . S
N144 N148 1.370 . S
N145 C143 1.348 . S
N145 C147 1.346 . S
C146 C143 1.485 . S
C146 H150 0.960 . S
C146 H151 0.961 . S
C146 H152 0.960 . S
C147 N145 1.346 . S
C147 N148 1.307 . S
C147 C149 1.486 . S
N148 N144 1.370 . S
N148 C147 1.307 . S
C149 C147 1.486 . S
C149 H153 0.960 . S
C149 H154 0.960 . S
C149 H155 0.959 . S
H150 C146 0.960 . S
H151 C146 0.961 . S
H152 C146 0.960 . S
H153 C149 0.960 . S
H154 C149 0.960 . S
H155 C149 0.959 . S
C156 N157 1.317 . S
C156 N158 1.348 . S
C156 C159 1.485 . S
N157 C156 1.317 . S
N157 N161 1.370 . S
N158 C156 1.348 . S
N158 C160 1.346 . S
C159 C156 1.485 . S
C159 H163 0.960 . S
C159 H164 0.961 . S
C159 H165 0.960 . S
C160 N158 1.346 . S
C160 N161 1.307 . S
C160 C162 1.486 . S
N161 N157 1.370 . S
N161 C160 1.307 . S
C162 C160 1.486 . S
C162 H166 0.960 . S
C162 H167 0.960 . S
C162 H168 0.959 . S
H163 C159 0.960 . S
H164 C159 0.961 . S
H165 C159 0.960 . S
H166 C162 0.960 . S
H167 C162 0.960 . S
H168 C162 0.959 . S
C169 N170 1.317 . S
C169 N171 1.348 . S
C169 C172 1.485 . S
N170 C169 1.317 . S
N170 N174 1.370 . S
N171 C169 1.348 . S
N171 C173 1.346 . S
C172 C169 1.485 . S
C172 H176 0.960 . S
C172 H177 0.961 . S
C172 H178 0.960 . S
C173 N171 1.346 . S
C173 N174 1.307 . S
C173 C175 1.486 . S
N174 N170 1.370 . S
N174 C173 1.307 . S
C175 C173 1.486 . S
C175 H179 0.960 . S
C175 H180 0.960 . S
C175 H181 0.959 . S
H176 C172 0.960 . S
H177 C172 0.961 . S
H178 C172 0.960 . S
H179 C175 0.960 . S
H180 C175 0.960 . S
H181 C175 0.959 . S
C182 N183 1.317 . S
C182 N184 1.348 . S
C182 C185 1.485 . S
N183 C182 1.317 . S
N183 N187 1.370 . S
N184 C182 1.348 . S
N184 C186 1.346 . S
C185 C182 1.485 . S
C185 H189 0.960 . S
C185 H190 0.961 . S
C185 H191 0.960 . S
C186 N184 1.346 . S
C186 N187 1.307 . S
C186 C188 1.486 . S
N187 N183 1.370 . S
N187 C186 1.307 . S
C188 C186 1.486 . S
C188 H192 0.960 . S
C188 H193 0.960 . S
C188 H194 0.959 . S
H189 C185 0.960 . S
H190 C185 0.961 . S
H191 C185 0.960 . S
H192 C188 0.960 . S
H193 C188 0.960 . S
H194 C188 0.959 . S
C195 N196 1.317 . S
C195 N197 1.348 . S
C195 C198 1.485 . S
N196 C195 1.317 . S
N196 N200 1.370 . S
N197 C195 1.348 . S
N197 C199 1.346 . S
C198 C195 1.485 . S
C198 H202 0.960 . S
C198 H203 0.961 . S
C198 H204 0.960 . S
C199 N197 1.346 . S
C199 N200 1.307 . S
C199 C201 1.486 . S
N200 N196 1.370 . S
N200 C199 1.307 . S
C201 C199 1.486 . S
C201 H205 0.960 . S
C201 H206 0.960 . S
C201 H207 0.959 . S
H202 C198 0.960 . S
H203 C198 0.961 . S
H204 C198 0.960 . S
H205 C201 0.960 . S
H206 C201 0.960 . S
H207 C201 0.959 . S
O208 Cd209 2.223 . S
O208 C216 1.315 . S
Cd209 O208 2.223 . S
Cd209 O212 2.297 . S
Cd209 O213 2.439 . S
Cd209 O219 2.240 . S
Cd210 O211 2.240 . S
Cd210 O218 2.223 . S
Cd210 O220 2.297 . S
Cd210 O221 2.439 . S
O211 Cd210 2.240 . S
O211 C216 1.279 . S
O212 Cd209 2.297 . S
O212 C214 1.247 . S
O213 Cd209 2.439 . S
O213 C214 1.208 . S
C214 O212 1.247 . S
C214 O213 1.208 . S
C215 O220 1.247 . S
C215 O221 1.208 . S
C216 O208 1.315 . S
C216 O211 1.279 . S
C217 O218 1.315 . S
C217 O219 1.279 . S
O218 Cd210 2.223 . S
O218 C217 1.315 . S
O219 Cd209 2.240 . S
O219 C217 1.279 . S
O220 Cd210 2.297 . S
O220 C215 1.247 . S
O221 Cd210 2.439 . S
O221 C215 1.208 . S
O222 Cd223 2.223 . S
O222 C230 1.315 . S
Cd223 O222 2.223 . S
Cd223 O226 2.297 . S
Cd223 O227 2.439 . S
Cd223 O233 2.240 . S
Cd224 O225 2.240 . S
Cd224 O232 2.223 . S
Cd224 O234 2.297 . S
Cd224 O235 2.439 . S
O225 Cd224 2.240 . S
O225 C230 1.279 . S
O226 Cd223 2.297 . S
O226 C228 1.247 . S
O227 Cd223 2.439 . S
O227 C228 1.208 . S
C228 O226 1.247 . S
C228 O227 1.208 . S
C229 O234 1.247 . S
C229 O235 1.208 . S
C230 O222 1.315 . S
C230 O225 1.279 . S
C231 O232 1.315 . S
C231 O233 1.279 . S
O232 Cd224 2.223 . S
O232 C231 1.315 . S
O233 Cd223 2.240 . S
O233 C231 1.279 . S
O234 Cd224 2.297 . S
O234 C229 1.247 . S
O235 Cd224 2.439 . S
O235 C229 1.208 . S
O236 Cd237 2.223 1_556 S
O236 C244 1.315 . S
Cd237 O236 2.223 1_554 S
Cd237 O240 2.297 . S
Cd237 O241 2.439 . S
Cd237 O247 2.240 . S
Cd238 O239 2.240 . S
Cd238 O246 2.223 . S
Cd238 O248 2.304 . S
Cd238 O249 2.439 1_556 S
O239 Cd238 2.240 . S
O239 C244 1.279 . S
O240 Cd237 2.297 . S
O240 C242 1.247 . S
O241 Cd237 2.439 . S
O241 C242 1.208 . S
C242 O240 1.247 . S
C242 O241 1.208 . S
C243 O248 1.232 1_554 S
C243 O249 1.208 . S
C244 O236 1.315 . S
C244 O239 1.279 . S
C245 O246 1.315 . S
C245 O247 1.279 1_556 S
O246 Cd238 2.223 . S
O246 C245 1.315 . S
O247 Cd237 2.240 . S
O247 C245 1.279 1_554 S
O248 Cd238 2.304 . S
O248 C243 1.232 1_556 S
O249 Cd238 2.439 1_554 S
O249 C243 1.208 . S
O250 Cd251 2.223 . S
O250 C258 1.315 . S
Cd251 O250 2.223 . S
Cd251 O254 2.297 . S
Cd251 O255 2.439 . S
Cd251 O261 2.240 . S
Cd252 O253 2.240 . S
Cd252 O260 2.223 . S
Cd252 O262 2.297 . S
Cd252 O263 2.439 . S
O253 Cd252 2.240 . S
O253 C258 1.279 . S
O254 Cd251 2.297 . S
O254 C256 1.247 . S
O255 Cd251 2.439 . S
O255 C256 1.208 . S
C256 O254 1.247 . S
C256 O255 1.208 . S
C257 O262 1.247 . S
C257 O263 1.208 . S
C258 O250 1.315 . S
C258 O253 1.279 . S
C259 O260 1.315 . S
C259 O261 1.279 . S
O260 Cd252 2.223 . S
O260 C259 1.315 . S
O261 Cd251 2.240 . S
O261 C259 1.279 . S
O262 Cd252 2.297 . S
O262 C257 1.247 . S
O263 Cd252 2.439 . S
O263 C257 1.208 . S
O264 Cd265 2.223 . S
O264 C272 1.315 . S
Cd265 O264 2.223 . S
Cd265 O268 2.297 . S
Cd265 O269 2.439 . S
Cd265 O275 2.240 . S
Cd266 O267 2.240 . S
Cd266 O274 2.223 . S
Cd266 O276 2.297 . S
Cd266 O277 2.439 . S
O267 Cd266 2.240 . S
O267 C272 1.279 . S
O268 Cd265 2.297 . S
O268 C270 1.247 . S
O269 Cd265 2.439 . S
O269 C270 1.208 . S
C270 O268 1.247 . S
C270 O269 1.208 . S
C271 O276 1.247 . S
C271 O277 1.208 . S
C272 O264 1.315 . S
C272 O267 1.279 . S
C273 O274 1.315 . S
C273 O275 1.279 . S
O274 Cd266 2.223 . S
O274 C273 1.315 . S
O275 Cd265 2.240 . S
O275 C273 1.279 . S
O276 Cd266 2.297 . S
O276 C271 1.247 . S
O277 Cd266 2.439 . S
O277 C271 1.208 . S
O278 Cd279 2.223 . S
O278 C286 1.315 . S
Cd279 O278 2.223 . S
Cd279 O282 2.297 . S
Cd279 O283 2.439 . S
Cd279 O289 2.240 . S
Cd280 O281 2.240 . S
Cd280 O288 2.223 . S
Cd280 O290 2.297 . S
Cd280 O291 2.439 . S
O281 Cd280 2.240 . S
O281 C286 1.279 . S
O282 Cd279 2.297 . S
O282 C284 1.247 . S
O283 Cd279 2.439 . S
O283 C284 1.208 . S
C284 O282 1.247 . S
C284 O283 1.208 . S
C285 O290 1.247 . S
C285 O291 1.208 . S
C286 O278 1.315 . S
C286 O281 1.279 . S
C287 O288 1.315 . S
C287 O289 1.279 . S
O288 Cd280 2.223 . S
O288 C287 1.315 . S
O289 Cd279 2.240 . S
O289 C287 1.279 . S
O290 Cd280 2.297 . S
O290 C285 1.247 . S
O291 Cd280 2.439 . S
O291 C285 1.208 . S
O292 Cd293 2.223 . S
O292 C300 1.315 . S
Cd293 O292 2.223 . S
Cd293 O296 2.297 . S
Cd293 O297 2.439 . S
Cd293 O303 2.240 . S
Cd294 O295 2.240 . S
Cd294 O302 2.223 . S
Cd294 O304 2.297 . S
Cd294 O305 2.439 . S
O295 Cd294 2.240 . S
O295 C300 1.279 . S
O296 Cd293 2.297 . S
O296 C298 1.247 . S
O297 Cd293 2.439 . S
O297 C298 1.208 . S
C298 O296 1.247 . S
C298 O297 1.208 . S
C299 O304 1.247 . S
C299 O305 1.208 . S
C300 O292 1.315 . S
C300 O295 1.279 . S
C301 O302 1.315 . S
C301 O303 1.279 . S
O302 Cd294 2.223 . S
O302 C301 1.315 . S
O303 Cd293 2.240 . S
O303 C301 1.279 . S
O304 Cd294 2.297 . S
O304 C299 1.247 . S
O305 Cd294 2.439 . S
O305 C299 1.208 . S
O306 Cd307 2.203 1_545 S
O306 C314 1.315 . S
Cd307 O306 2.203 1_565 S
Cd307 O310 2.309 . S
Cd307 O311 2.452 . S
Cd307 O317 2.231 1_565 S
Cd308 O309 2.240 . S
Cd308 O316 2.223 . S
Cd308 O318 2.297 . S
Cd308 O319 2.439 1_545 S
O309 Cd308 2.240 . S
O309 C314 1.279 . S
O310 Cd307 2.309 . S
O310 C312 1.247 . S
O311 Cd307 2.452 . S
O311 C312 1.208 . S
C312 O310 1.247 . S
C312 O311 1.208 . S
C313 O318 1.247 1_565 S
C313 O319 1.208 . S
C314 O306 1.315 . S
C314 O309 1.279 . S
C315 O316 1.315 . S
C315 O317 1.279 . S
O316 Cd308 2.223 . S
O316 C315 1.315 . S
O317 Cd307 2.231 1_545 S
O317 C315 1.279 . S
O318 Cd308 2.297 . S
O318 C313 1.247 1_545 S
O319 Cd308 2.439 1_565 S
O319 C313 1.208 . S
O320 Cd321 2.223 . S
O320 C328 1.315 . S
Cd321 O320 2.223 . S
Cd321 O324 2.297 . S
Cd321 O325 2.439 1_655 S
Cd321 O331 2.240 . S
Cd322 O323 2.224 1_455 S
Cd322 O330 2.223 1_455 S
Cd322 O332 2.297 . S
Cd322 O333 2.439 . S
O323 Cd322 2.224 1_655 S
O323 C328 1.326 . S
O324 Cd321 2.297 . S
O324 C326 1.247 1_655 S
O325 Cd321 2.439 1_455 S
O325 C326 1.208 . S
C326 O324 1.247 1_455 S
C326 O325 1.208 . S
C327 O332 1.247 . S
C327 O333 1.208 . S
C328 O320 1.315 . S
C328 O323 1.326 . S
C329 O330 1.315 . S
C329 O331 1.279 . S
O330 Cd322 2.223 1_655 S
O330 C329 1.315 . S
O331 Cd321 2.240 . S
O331 C329 1.279 . S
O332 Cd322 2.297 . S
O332 C327 1.247 . S
O333 Cd322 2.439 . S
O333 C327 1.208 . S
O334 Cd335 2.223 . S
O334 C342 1.315 . S
Cd335 O334 2.223 . S
Cd335 O338 2.297 . S
Cd335 O339 2.439 . S
Cd335 O345 2.240 . S
Cd336 O337 2.240 . S
Cd336 O344 2.223 . S
Cd336 O346 2.297 . S
Cd336 O347 2.439 . S
O337 Cd336 2.240 . S
O337 C342 1.279 . S
O338 Cd335 2.297 . S
O338 C340 1.247 . S
O339 Cd335 2.439 . S
O339 C340 1.208 . S
C340 O338 1.247 . S
C340 O339 1.208 . S
C341 O346 1.247 . S
C341 O347 1.208 . S
C342 O334 1.315 . S
C342 O337 1.279 . S
C343 O344 1.315 . S
C343 O345 1.279 . S
O344 Cd336 2.223 . S
O344 C343 1.315 . S
O345 Cd335 2.240 . S
O345 C343 1.279 . S
O346 Cd336 2.297 . S
O346 C341 1.247 . S
O347 Cd336 2.439 . S
O347 C341 1.208 . S
O348 Cd349 2.223 . S
O348 C356 1.315 1_455 S
Cd349 O348 2.223 . S
Cd349 O352 2.297 . S
Cd349 O353 2.439 . S
Cd349 O359 2.240 . S
Cd350 O351 2.240 . S
Cd350 O358 2.223 1_455 S
Cd350 O360 2.297 . S
Cd350 O361 2.439 . S
O351 Cd350 2.240 . S
O351 C356 1.279 1_455 S
O352 Cd349 2.297 . S
O352 C354 1.247 . S
O353 Cd349 2.439 . S
O353 C354 1.208 . S
C354 O352 1.247 . S
C354 O353 1.208 . S
C355 O360 1.247 . S
C355 O361 1.208 . S
C356 O348 1.315 1_655 S
C356 O351 1.279 1_655 S
C357 O358 1.315 1_455 S
C357 O359 1.279 . S
O358 Cd350 2.223 1_655 S
O358 C357 1.315 1_655 S
O359 Cd349 2.240 . S
O359 C357 1.279 . S
O360 Cd350 2.297 . S
O360 C355 1.247 . S
O361 Cd350 2.439 . S
O361 C355 1.208 . S
O362 Cd363 2.223 . S
O362 C370 1.315 . S
Cd363 O362 2.223 . S
Cd363 O366 2.297 . S
Cd363 O367 2.439 . S
Cd363 O373 2.240 . S
Cd364 O365 2.240 . S
Cd364 O372 2.223 . S
Cd364 O374 2.297 . S
Cd364 O375 2.439 . S
O365 Cd364 2.240 . S
O365 C370 1.279 . S
O366 Cd363 2.297 . S
O366 C368 1.247 . S
O367 Cd363 2.439 . S
O367 C368 1.208 . S
C368 O366 1.247 . S
C368 O367 1.208 . S
C369 O374 1.247 . S
C369 O375 1.208 . S
C370 O362 1.315 . S
C370 O365 1.279 . S
C371 O372 1.315 . S
C371 O373 1.279 . S
O372 Cd364 2.223 . S
O372 C371 1.315 . S
O373 Cd363 2.240 . S
O373 C371 1.279 . S
O374 Cd364 2.297 . S
O374 C369 1.247 . S
O375 Cd364 2.439 . S
O375 C369 1.208 . S
C376 C377 1.349 . S
C376 C378 1.327 . S
C376 H401 0.950 . S
C377 C376 1.349 . S
C377 C393 1.349 . S
C378 C376 1.327 . S
C378 C397 1.429 . S
C378 H402 0.950 . S
C379 C396 1.574 . S
C379 C398 1.368 . S
C379 H403 0.949 . S
H380 C384 0.949 . S
C381 C382 1.349 . S
C381 C383 1.327 1_554 S
C381 H404 0.950 . S
C382 C381 1.349 . S
C382 C394 1.349 1_554 S
C383 C381 1.327 1_556 S
C383 C399 1.429 . S
C383 H405 0.950 . S
C384 H380 0.949 . S
C384 C392 1.574 . S
C384 C400 1.368 . S
H385 C393 0.950 . S
H386 C391 0.950 . S
H387 C392 0.949 . S
H388 C394 0.950 . S
H389 C395 0.950 . S
H390 C396 0.949 . S
C391 H386 0.950 . S
C391 C393 1.327 . S
C391 C397 1.429 . S
C392 C384 1.574 . S
C392 H387 0.949 . S
C392 C398 1.368 . S
C393 C377 1.349 . S
C393 H385 0.950 . S
C393 C391 1.327 . S
C394 C382 1.349 1_556 S
C394 H388 0.950 . S
C394 C395 1.327 . S
C395 H389 0.950 . S
C395 C394 1.327 . S
C395 C399 1.429 . S
C396 C379 1.574 . S
C396 H390 0.949 . S
C396 C400 1.368 . S
C397 C378 1.429 . S
C397 C391 1.429 . S
C397 C398 1.523 . S
C398 C379 1.368 . S
C398 C392 1.368 . S
C398 C397 1.523 . S
C399 C383 1.429 . S
C399 C395 1.429 . S
C399 C400 1.523 . S
C400 C384 1.368 . S
C400 C396 1.368 . S
C400 C399 1.523 . S
H401 C376 0.950 . S
H402 C378 0.950 . S
H403 C379 0.949 . S
H404 C381 0.950 . S
H405 C383 0.950 . S
C406 C407 1.349 . S
C406 C408 1.327 . S
C406 H431 0.950 . S
C407 C406 1.349 . S
C407 C423 1.349 . S
C408 C406 1.327 . S
C408 C427 1.429 . S
C408 H432 0.950 . S
C409 C426 1.574 1_655 S
C409 C428 1.368 . S
C409 H433 0.949 . S
H410 C414 0.949 . S
C411 C412 1.349 . S
C411 C413 1.327 . S
C411 H434 0.950 . S
C412 C411 1.349 . S
C412 C424 1.349 . S
C413 C411 1.327 . S
C413 C429 1.429 . S
C413 H435 0.950 . S
C414 H410 0.949 . S
C414 C422 1.574 . S
C414 C430 1.368 . S
H415 C423 0.950 . S
H416 C421 0.950 . S
H417 C422 0.949 . S
H418 C424 0.950 . S
H419 C425 0.950 . S
H420 C426 0.949 . S
C421 H416 0.950 . S
C421 C423 1.327 . S
C421 C427 1.429 . S
C422 C414 1.574 . S
C422 H417 0.949 . S
C422 C428 1.368 1_455 S
C423 C407 1.349 . S
C423 H415 0.950 . S
C423 C421 1.327 . S
C424 C412 1.349 . S
C424 H418 0.950 . S
C424 C425 1.327 . S
C425 H419 0.950 . S
C425 C424 1.327 . S
C425 C429 1.429 . S
C426 C409 1.574 1_455 S
C426 H420 0.949 . S
C426 C430 1.368 . S
C427 C408 1.429 . S
C427 C421 1.429 . S
C427 C428 1.523 . S
C428 C409 1.368 . S
C428 C422 1.368 1_655 S
C428 C427 1.523 . S
C429 C413 1.429 . S
C429 C425 1.429 . S
C429 C430 1.523 . S
C430 C414 1.368 . S
C430 C426 1.368 . S
C430 C429 1.523 . S
H431 C406 0.950 . S
H432 C408 0.950 . S
H433 C409 0.949 . S
H434 C411 0.950 . S
H435 C413 0.950 . S
C436 C437 1.349 . S
C436 C438 1.327 . S
C436 H461 0.950 . S
C437 C436 1.349 . S
C437 C453 1.349 . S
C438 C436 1.327 . S
C438 C457 1.429 . S
C438 H462 0.950 . S
C439 C456 1.574 . S
C439 C458 1.368 . S
C439 H463 0.949 . S
H440 C444 0.949 . S
C441 C442 1.349 . S
C441 C443 1.327 . S
C441 H464 0.950 . S
C442 C441 1.349 . S
C442 C454 1.349 . S
C443 C441 1.327 . S
C443 C459 1.429 . S
C443 H465 0.950 . S
C444 H440 0.949 . S
C444 C452 1.574 . S
C444 C460 1.368 . S
H445 C453 0.950 . S
H446 C451 0.950 . S
H447 C452 0.949 . S
H448 C454 0.950 . S
H449 C455 0.950 . S
H450 C456 0.949 . S
C451 H446 0.950 . S
C451 C453 1.327 . S
C451 C457 1.429 . S
C452 C444 1.574 . S
C452 H447 0.949 . S
C452 C458 1.368 . S
C453 C437 1.349 . S
C453 H445 0.950 . S
C453 C451 1.327 . S
C454 C442 1.349 . S
C454 H448 0.950 . S
C454 C455 1.327 . S
C455 H449 0.950 . S
C455 C454 1.327 . S
C455 C459 1.429 . S
C456 C439 1.574 . S
C456 H450 0.949 . S
C456 C460 1.368 . S
C457 C438 1.429 . S
C457 C451 1.429 . S
C457 C458 1.523 . S
C458 C439 1.368 . S
C458 C452 1.368 . S
C458 C457 1.523 . S
C459 C443 1.429 . S
C459 C455 1.429 . S
C459 C460 1.523 . S
C460 C444 1.368 . S
C460 C456 1.368 . S
C460 C459 1.523 . S
H461 C436 0.950 . S
H462 C438 0.950 . S
H463 C439 0.949 . S
H464 C441 0.950 . S
H465 C443 0.950 . S
C466 C467 1.349 . S
C466 C468 1.327 . S
C466 H491 0.950 . S
C467 C466 1.349 . S
C467 C483 1.349 . S
C468 C466 1.327 . S
C468 C487 1.429 . S
C468 H492 0.950 . S
C469 C486 1.574 . S
C469 C488 1.368 1_545 S
C469 H493 0.949 1_655 S
H470 C474 0.949 . S
C471 C472 1.349 . S
C471 C473 1.327 . S
C471 H494 0.950 . S
C472 C471 1.349 . S
C472 C484 1.349 . S
C473 C471 1.327 . S
C473 C489 1.429 . S
C473 H495 0.950 . S
C474 H470 0.949 . S
C474 C482 1.574 . S
C474 C490 1.368 1_565 S
H475 C483 0.950 . S
H476 C481 0.950 1_545 S
H477 C482 0.949 . S
H478 C484 0.950 . S
H479 C485 0.950 1_565 S
H480 C486 0.949 . S
C481 H476 0.950 1_565 S
C481 C483 1.327 . S
C481 C487 1.429 . S
C482 C474 1.574 . S
C482 H477 0.949 . S
C482 C488 1.368 . S
C483 C467 1.349 . S
C483 H475 0.950 . S
C483 C481 1.327 . S
C484 C472 1.349 . S
C484 H478 0.950 . S
C484 C485 1.327 . S
C485 H479 0.950 1_545 S
C485 C484 1.327 . S
C485 C489 1.429 . S
C486 C469 1.574 . S
C486 H480 0.949 . S
C486 C490 1.368 . S
C487 C468 1.429 . S
C487 C481 1.429 . S
C487 C488 1.523 1_455 S
C488 C469 1.368 1_565 S
C488 C482 1.368 . S
C488 C487 1.523 1_655 S
C489 C473 1.429 . S
C489 C485 1.429 . S
C489 C490 1.523 . S
C490 C474 1.368 1_545 S
C490 C486 1.368 . S
C490 C489 1.523 . S
H491 C466 0.950 . S
H492 C468 0.950 . S
H493 C469 0.949 1_455 S
H494 C471 0.950 . S
H495 C473 0.950 . S
C496 C497 1.349 . S
C496 C498 1.327 . S
C496 H521 0.950 . S
C497 C496 1.349 . S
C497 C513 1.349 . S
C498 C496 1.327 . S
C498 C517 1.429 . S
C498 H522 0.950 . S
C499 C516 1.574 . S
C499 C518 1.368 . S
C499 H523 0.949 . S
H500 C504 0.949 . S
C501 C502 1.349 . S
C501 C503 1.327 . S
C501 H524 0.950 . S
C502 C501 1.349 . S
C502 C514 1.349 . S
C503 C501 1.327 . S
C503 C519 1.429 . S
C503 H525 0.950 . S
C504 H500 0.949 . S
C504 C512 1.574 . S
C504 C520 1.368 . S
H505 C513 0.950 . S
H506 C511 0.950 . S
H507 C512 0.949 . S
H508 C514 0.950 . S
H509 C515 0.950 . S
H510 C516 0.949 . S
C511 H506 0.950 . S
C511 C513 1.327 . S
C511 C517 1.429 . S
C512 C504 1.574 . S
C512 H507 0.949 . S
C512 C518 1.368 . S
C513 C497 1.349 . S
C513 H505 0.950 . S
C513 C511 1.327 . S
C514 C502 1.349 . S
C514 H508 0.950 . S
C514 C515 1.327 . S
C515 H509 0.950 . S
C515 C514 1.327 . S
C515 C519 1.429 . S
C516 C499 1.574 . S
C516 H510 0.949 . S
C516 C520 1.368 . S
C517 C498 1.429 . S
C517 C511 1.429 . S
C517 C518 1.523 . S
C518 C499 1.368 . S
C518 C512 1.368 . S
C518 C517 1.523 . S
C519 C503 1.429 . S
C519 C515 1.429 . S
C519 C520 1.523 . S
C520 C504 1.368 . S
C520 C516 1.368 . S
C520 C519 1.523 . S
H521 C496 0.950 . S
H522 C498 0.950 . S
H523 C499 0.949 . S
H524 C501 0.950 . S
H525 C503 0.950 . S
C526 C527 1.349 . S
C526 C528 1.327 . S
C526 H551 0.950 . S
C527 C526 1.349 . S
C527 C543 1.349 . S
C528 C526 1.327 . S
C528 C547 1.429 . S
C528 H552 0.950 . S
C529 C546 1.574 . S
C529 C548 1.368 . S
C529 H553 0.949 . S
H530 C534 0.949 . S
C531 C532 1.349 . S
C531 C533 1.327 . S
C531 H554 0.950 . S
C532 C531 1.349 . S
C532 C544 1.349 . S
C533 C531 1.327 . S
C533 C549 1.429 . S
C533 H555 0.950 . S
C534 H530 0.949 . S
C534 C542 1.574 . S
C534 C550 1.368 . S
H535 C543 0.950 . S
H536 C541 0.950 . S
H537 C542 0.949 . S
H538 C544 0.950 . S
H539 C545 0.950 . S
H540 C546 0.949 . S
C541 H536 0.950 . S
C541 C543 1.327 . S
C541 C547 1.429 . S
C542 C534 1.574 . S
C542 H537 0.949 . S
C542 C548 1.368 . S
C543 C527 1.349 . S
C543 H535 0.950 . S
C543 C541 1.327 . S
C544 C532 1.349 . S
C544 H538 0.950 . S
C544 C545 1.327 . S
C545 H539 0.950 . S
C545 C544 1.327 . S
C545 C549 1.429 . S
C546 C529 1.574 . S
C546 H540 0.949 . S
C546 C550 1.368 . S
C547 C528 1.429 . S
C547 C541 1.429 . S
C547 C548 1.523 . S
C548 C529 1.368 . S
C548 C542 1.368 . S
C548 C547 1.523 . S
C549 C533 1.429 . S
C549 C545 1.429 . S
C549 C550 1.523 . S
C550 C534 1.368 . S
C550 C546 1.368 . S
C550 C549 1.523 . S
H551 C526 0.950 . S
H552 C528 0.950 . S
H553 C529 0.949 . S
H554 C531 0.950 . S
H555 C533 0.950 . S
C556 C557 1.349 . S
C556 C558 1.327 . S
C556 H581 0.950 . S
C557 C556 1.349 . S
C557 C573 1.349 . S
C558 C556 1.327 . S
C558 C577 1.429 . S
C558 H582 0.950 . S
C559 C576 1.574 . S
C559 C578 1.368 . S
C559 H583 0.949 . S
H560 C564 0.949 . S
C561 C562 1.349 . S
C561 C563 1.327 . S
C561 H584 0.950 . S
C562 C561 1.349 . S
C562 C574 1.349 . S
C563 C561 1.327 . S
C563 C579 1.429 . S
C563 H585 0.950 . S
C564 H560 0.949 . S
C564 C572 1.574 . S
C564 C580 1.368 . S
H565 C573 0.950 . S
H566 C571 0.950 . S
H567 C572 0.949 . S
H568 C574 0.950 . S
H569 C575 0.950 . S
H570 C576 0.949 . S
C571 H566 0.950 . S
C571 C573 1.327 . S
C571 C577 1.429 . S
C572 C564 1.574 . S
C572 H567 0.949 . S
C572 C578 1.368 . S
C573 C557 1.349 . S
C573 H565 0.950 . S
C573 C571 1.327 . S
C574 C562 1.349 . S
C574 H568 0.950 . S
C574 C575 1.327 . S
C575 H569 0.950 . S
C575 C574 1.327 . S
C575 C579 1.429 . S
C576 C559 1.574 . S
C576 H570 0.949 . S
C576 C580 1.368 . S
C577 C558 1.429 . S
C577 C571 1.429 . S
C577 C578 1.523 . S
C578 C559 1.368 . S
C578 C572 1.368 . S
C578 C577 1.523 . S
C579 C563 1.429 . S
C579 C575 1.429 . S
C579 C580 1.523 . S
C580 C564 1.368 . S
C580 C576 1.368 . S
C580 C579 1.523 . S
H581 C556 0.950 . S
H582 C558 0.950 . S
H583 C559 0.949 . S
H584 C561 0.950 . S
H585 C563 0.950 . S
C586 C587 1.349 . S
C586 C588 1.327 . S
C586 H611 0.950 . S
C587 C586 1.349 . S
C587 C603 1.349 . S
C588 C586 1.327 . S
C588 C607 1.429 . S
C588 H612 0.950 . S
C589 C606 1.574 . S
C589 C608 1.368 . S
C589 H613 0.949 . S
H590 C594 0.949 . S
C591 C592 1.349 . S
C591 C593 1.327 . S
C591 H614 0.961 . S
C592 C591 1.349 . S
C592 C604 1.349 . S
C593 C591 1.327 . S
C593 C609 1.429 . S
C593 H615 0.950 . S
C594 H590 0.949 . S
C594 C602 1.574 . S
C594 C610 1.368 . S
H595 C603 0.950 . S
H596 C601 0.950 . S
H597 C602 0.949 . S
H598 C604 0.950 . S
H599 C605 0.950 . S
H600 C606 0.949 . S
C601 H596 0.950 . S
C601 C603 1.327 . S
C601 C607 1.429 . S
C602 C594 1.574 . S
C602 H597 0.949 . S
C602 C608 1.368 . S
C603 C587 1.349 . S
C603 H595 0.950 . S
C603 C601 1.327 . S
C604 C592 1.349 . S
C604 H598 0.950 . S
C604 C605 1.327 . S
C605 H599 0.950 . S
C605 C604 1.327 . S
C605 C609 1.429 . S
C606 C589 1.574 . S
C606 H600 0.949 . S
C606 C610 1.368 . S
C607 C588 1.429 . S
C607 C601 1.429 . S
C607 C608 1.523 . S
C608 C589 1.368 . S
C608 C602 1.368 . S
C608 C607 1.523 . S
C609 C593 1.429 . S
C609 C605 1.429 . S
C609 C610 1.523 . S
C610 C594 1.368 . S
C610 C606 1.368 . S
C610 C609 1.523 . S
H611 C586 0.950 . S
H612 C588 0.950 . S
H613 C589 0.949 . S
H614 C591 0.961 . S
H615 C593 0.950 . S
C616 C617 1.349 . S
C616 C618 1.327 . S
C616 H641 0.950 . S
C617 C616 1.349 . S
C617 C633 1.349 . S
C618 C616 1.327 . S
C618 C637 1.429 . S
C618 H642 0.950 . S
C619 C636 1.574 . S
C619 C638 1.368 . S
C619 H643 0.949 . S
H620 C624 0.949 . S
C621 C622 1.349 . S
C621 C623 1.327 . S
C621 H644 0.950 . S
C622 C621 1.349 . S
C622 C634 1.349 . S
C623 C621 1.327 . S
C623 C639 1.429 . S
C623 H645 0.950 . S
C624 H620 0.949 . S
C624 C632 1.574 . S
C624 C640 1.368 . S
H625 C633 0.950 . S
H626 C631 0.950 . S
H627 C632 0.949 . S
H628 C634 0.950 . S
H629 C635 0.950 . S
H630 C636 0.949 . S
C631 H626 0.950 . S
C631 C633 1.327 . S
C631 C637 1.429 . S
C632 C624 1.574 . S
C632 H627 0.949 . S
C632 C638 1.368 . S
C633 C617 1.349 . S
C633 H625 0.950 . S
C633 C631 1.327 . S
C634 C622 1.349 . S
C634 H628 0.950 . S
C634 C635 1.327 . S
C635 H629 0.950 . S
C635 C634 1.327 . S
C635 C639 1.429 . S
C636 C619 1.574 . S
C636 H630 0.949 . S
C636 C640 1.368 . S
C637 C618 1.429 . S
C637 C631 1.429 . S
C637 C638 1.523 . S
C638 C619 1.368 . S
C638 C632 1.368 . S
C638 C637 1.523 . S
C639 C623 1.429 . S
C639 C635 1.429 . S
C639 C640 1.523 . S
C640 C624 1.368 . S
C640 C636 1.368 . S
C640 C639 1.523 . S
H641 C616 0.950 . S
H642 C618 0.950 . S
H643 C619 0.949 . S
H644 C621 0.950 . S
H645 C623 0.950 . S
C646 C647 1.349 . S
C646 C648 1.327 . S
C646 H671 0.950 . S
C647 C646 1.349 . S
C647 C663 1.349 . S
C648 C646 1.327 . S
C648 C667 1.429 . S
C648 H672 0.950 . S
C649 C666 1.574 . S
C649 C668 1.368 . S
C649 H673 0.949 . S
H650 C654 0.949 . S
C651 C652 1.349 . S
C651 C653 1.327 . S
C651 H674 0.950 . S
C652 C651 1.349 . S
C652 C664 1.349 . S
C653 C651 1.327 . S
C653 C669 1.429 . S
C653 H675 0.950 . S
C654 H650 0.949 . S
C654 C662 1.574 . S
C654 C670 1.368 . S
H655 C663 0.950 . S
H656 C661 0.950 . S
H657 C662 0.949 . S
H658 C664 0.950 . S
H659 C665 0.950 . S
H660 C666 0.949 . S
C661 H656 0.950 . S
C661 C663 1.327 . S
C661 C667 1.429 . S
C662 C654 1.574 . S
C662 H657 0.949 . S
C662 C668 1.368 . S
C663 C647 1.349 . S
C663 H655 0.950 . S
C663 C661 1.327 . S
C664 C652 1.349 . S
C664 H658 0.950 . S
C664 C665 1.327 . S
C665 H659 0.950 . S
C665 C664 1.327 . S
C665 C669 1.429 . S
C666 C649 1.574 . S
C666 H660 0.949 . S
C666 C670 1.368 . S
C667 C648 1.429 . S
C667 C661 1.429 . S
C667 C668 1.523 . S
C668 C649 1.368 . S
C668 C662 1.368 . S
C668 C667 1.523 . S
C669 C653 1.429 . S
C669 C665 1.429 . S
C669 C670 1.523 . S
C670 C654 1.368 . S
C670 C666 1.368 . S
C670 C669 1.523 . S
H671 C646 0.950 . S
H672 C648 0.950 . S
H673 C649 0.949 . S
H674 C651 0.950 . S
H675 C653 0.950 . S
C676 C677 1.349 . S
C676 C678 1.327 . S
C676 H701 0.950 . S
C677 C676 1.349 . S
C677 C693 1.349 . S
C678 C676 1.327 . S
C678 C697 1.429 . S
C678 H702 0.950 . S
C679 C696 1.574 . S
C679 C698 1.368 . S
C679 H703 0.949 . S
H680 C684 0.949 . S
C681 C682 1.349 . S
C681 C683 1.327 . S
C681 H704 0.950 . S
C682 C681 1.349 . S
C682 C694 1.349 . S
C683 C681 1.327 . S
C683 C699 1.429 . S
C683 H705 0.950 . S
C684 H680 0.949 . S
C684 C692 1.574 . S
C684 C700 1.368 . S
H685 C693 0.950 . S
H686 C691 0.950 . S
H687 C692 0.949 . S
H688 C694 0.950 . S
H689 C695 0.950 . S
H690 C696 0.949 . S
C691 H686 0.950 . S
C691 C693 1.327 . S
C691 C697 1.429 . S
C692 C684 1.574 . S
C692 H687 0.949 . S
C692 C698 1.368 . S
C693 C677 1.349 . S
C693 H685 0.950 . S
C693 C691 1.327 . S
C694 C682 1.349 . S
C694 H688 0.950 . S
C694 C695 1.327 . S
C695 H689 0.950 . S
C695 C694 1.327 . S
C695 C699 1.429 . S
C696 C679 1.574 . S
C696 H690 0.949 . S
C696 C700 1.368 . S
C697 C678 1.429 . S
C697 C691 1.429 . S
C697 C698 1.523 . S
C698 C679 1.368 . S
C698 C692 1.368 . S
C698 C697 1.523 . S
C699 C683 1.429 . S
C699 C695 1.429 . S
C699 C700 1.523 . S
C700 C684 1.368 . S
C700 C696 1.368 . S
C700 C699 1.523 . S
H701 C676 0.950 . S
H702 C678 0.950 . S
H703 C679 0.949 . S
H704 C681 0.950 . S
H705 C683 0.950 . S
C706 C707 1.349 . S
C706 C708 1.327 . S
C706 H731 0.950 . S
C707 C706 1.349 . S
C707 C723 1.349 . S
C708 C706 1.327 . S
C708 C727 1.429 . S
C708 H732 0.950 . S
C709 C726 1.574 . S
C709 C728 1.368 . S
C709 H733 0.949 . S
H710 C714 0.949 . S
C711 C712 1.349 . S
C711 C713 1.327 . S
C711 H734 0.950 . S
C712 C711 1.349 . S
C712 C724 1.349 . S
C713 C711 1.327 . S
C713 C729 1.429 . S
C713 H735 0.950 . S
C714 H710 0.949 . S
C714 C722 1.574 . S
C714 C730 1.368 . S
H715 C723 0.950 . S
H716 C721 0.950 . S
H717 C722 0.949 . S
H718 C724 0.950 . S
H719 C725 0.950 . S
H720 C726 0.949 . S
C721 H716 0.950 . S
C721 C723 1.327 . S
C721 C727 1.429 . S
C722 C714 1.574 . S
C722 H717 0.949 . S
C722 C728 1.368 . S
C723 C707 1.349 . S
C723 H715 0.950 . S
C723 C721 1.327 . S
C724 C712 1.349 . S
C724 H718 0.950 . S
C724 C725 1.327 . S
C725 H719 0.950 . S
C725 C724 1.327 . S
C725 C729 1.429 . S
C726 C709 1.574 . S
C726 H720 0.949 . S
C726 C730 1.368 . S
C727 C708 1.429 . S
C727 C721 1.429 . S
C727 C728 1.523 . S
C728 C709 1.368 . S
C728 C722 1.368 . S
C728 C727 1.523 . S
C729 C713 1.429 . S
C729 C725 1.429 . S
C729 C730 1.523 . S
C730 C714 1.368 . S
C730 C726 1.368 . S
C730 C729 1.523 . S
H731 C706 0.950 . S
H732 C708 0.950 . S
H733 C709 0.949 . S
H734 C711 0.950 . S
H735 C713 0.950 . S
C736 C737 1.349 . S
C736 C738 1.327 . S
C736 H761 0.950 . S
C737 C736 1.349 . S
C737 C753 1.349 . S
C738 C736 1.327 . S
C738 C757 1.429 . S
C738 H762 0.950 . S
C739 C756 1.574 . S
C739 C758 1.368 . S
C739 H763 0.949 . S
H740 C744 0.949 . S
C741 C742 1.349 . S
C741 C743 1.327 . S
C741 H764 0.950 . S
C742 C741 1.349 . S
C742 C754 1.349 . S
C743 C741 1.327 . S
C743 C759 1.429 . S
C743 H765 0.950 . S
C744 H740 0.949 . S
C744 C752 1.574 . S
C744 C760 1.368 . S
H745 C753 0.950 . S
H746 C751 0.950 . S
H747 C752 0.949 . S
H748 C754 0.950 . S
H749 C755 0.950 . S
H750 C756 0.949 . S
C751 H746 0.950 . S
C751 C753 1.327 . S
C751 C757 1.429 . S
C752 C744 1.574 . S
C752 H747 0.949 . S
C752 C758 1.368 . S
C753 C737 1.349 . S
C753 H745 0.950 . S
C753 C751 1.327 . S
C754 C742 1.349 . S
C754 H748 0.950 . S
C754 C755 1.327 . S
C755 H749 0.950 . S
C755 C754 1.327 . S
C755 C759 1.429 . S
C756 C739 1.574 . S
C756 H750 0.949 . S
C756 C760 1.368 . S
C757 C738 1.429 . S
C757 C751 1.429 . S
C757 C758 1.523 . S
C758 C739 1.368 . S
C758 C752 1.368 . S
C758 C757 1.523 . S
C759 C743 1.429 . S
C759 C755 1.429 . S
C759 C760 1.523 . S
C760 C744 1.368 . S
C760 C756 1.368 . S
C760 C759 1.523 . S
H761 C736 0.950 . S
H762 C738 0.950 . S
H763 C739 0.949 . S
H764 C741 0.950 . S
H765 C743 0.950 . S
C766 C767 1.349 . S
C766 C768 1.327 . S
C766 H791 0.950 . S
C767 C766 1.349 . S
C767 C783 1.349 . S
C768 C766 1.327 . S
C768 C787 1.429 . S
C768 H792 0.950 . S
C769 C786 1.574 . S
C769 C788 1.368 . S
C769 H793 0.949 . S
H770 C774 0.949 . S
C771 C772 1.349 . S
C771 C773 1.327 . S
C771 H794 0.950 . S
C772 C771 1.349 . S
C772 C784 1.349 . S
C773 C771 1.327 . S
C773 C789 1.429 . S
C773 H795 0.950 . S
C774 H770 0.949 . S
C774 C782 1.574 . S
C774 C790 1.368 . S
H775 C783 0.950 . S
H776 C781 0.950 . S
H777 C782 0.949 . S
H778 C784 0.950 . S
H779 C785 0.950 . S
H780 C786 0.949 . S
C781 H776 0.950 . S
C781 C783 1.327 . S
C781 C787 1.429 . S
C782 C774 1.574 . S
C782 H777 0.949 . S
C782 C788 1.368 . S
C783 C767 1.349 . S
C783 H775 0.950 . S
C783 C781 1.327 . S
C784 C772 1.349 . S
C784 H778 0.950 . S
C784 C785 1.327 . S
C785 H779 0.950 . S
C785 C784 1.327 . S
C785 C789 1.429 . S
C786 C769 1.574 . S
C786 H780 0.949 . S
C786 C790 1.368 . S
C787 C768 1.429 . S
C787 C781 1.429 . S
C787 C788 1.523 . S
C788 C769 1.368 . S
C788 C782 1.368 . S
C788 C787 1.523 . S
C789 C773 1.429 . S
C789 C785 1.429 . S
C789 C790 1.523 . S
C790 C774 1.368 . S
C790 C786 1.368 . S
C790 C789 1.523 . S
H791 C766 0.950 . S
H792 C768 0.950 . S
H793 C769 0.949 . S
H794 C771 0.950 . S
H795 C773 0.950 . S
C796 C797 1.349 . S
C796 C798 1.327 . S
C796 H821 0.950 . S
C797 C796 1.349 . S
C797 C813 1.349 . S
C798 C796 1.327 . S
C798 C817 1.429 . S
C798 H822 0.950 . S
C799 C816 1.574 . S
C799 C818 1.368 . S
C799 H823 0.949 . S
H800 C804 0.949 . S
C801 C802 1.349 . S
C801 C803 1.327 . S
C801 H824 0.950 . S
C802 C801 1.349 . S
C802 C814 1.349 . S
C803 C801 1.327 . S
C803 C819 1.429 . S
C803 H825 0.950 . S
C804 H800 0.949 . S
C804 C812 1.574 . S
C804 C820 1.368 . S
H805 C813 0.950 . S
H806 C811 0.950 . S
H807 C812 0.949 . S
H808 C814 0.950 . S
H809 C815 0.950 . S
H810 C816 0.949 . S
C811 H806 0.950 . S
C811 C813 1.327 . S
C811 C817 1.429 . S
C812 C804 1.574 . S
C812 H807 0.949 . S
C812 C818 1.368 . S
C813 C797 1.349 . S
C813 H805 0.950 . S
C813 C811 1.327 . S
C814 C802 1.349 . S
C814 H808 0.950 . S
C814 C815 1.327 . S
C815 H809 0.950 . S
C815 C814 1.327 . S
C815 C819 1.429 . S
C816 C799 1.574 . S
C816 H810 0.949 . S
C816 C820 1.368 . S
C817 C798 1.429 . S
C817 C811 1.429 . S
C817 C818 1.523 . S
C818 C799 1.368 . S
C818 C812 1.368 . S
C818 C817 1.523 . S
C819 C803 1.429 . S
C819 C815 1.429 . S
C819 C820 1.523 . S
C820 C804 1.368 . S
C820 C816 1.368 . S
C820 C819 1.523 . S
H821 C796 0.950 . S
H822 C798 0.950 . S
H823 C799 0.949 . S
H824 C801 0.950 . S
H825 C803 0.950 . S
C826 C827 1.349 . S
C826 C828 1.327 . S
C826 H851 0.950 . S
C827 C826 1.349 . S
C827 C843 1.349 . S
C828 C826 1.327 . S
C828 C847 1.429 . S
C828 H852 0.950 . S
C829 C846 1.574 . S
C829 C848 1.368 . S
C829 H853 0.949 . S
H830 C834 0.949 . S
C831 C832 1.349 1_455 S
C831 C833 1.327 1_455 S
C831 H854 0.950 . S
C832 C831 1.349 1_655 S
C832 C844 1.349 . S
C833 C831 1.327 1_655 S
C833 C849 1.429 . S
C833 H855 0.950 1_655 S
C834 H830 0.949 . S
C834 C842 1.574 . S
C834 C850 1.368 . S
H835 C843 0.950 . S
H836 C841 0.950 . S
H837 C842 0.949 . S
H838 C844 0.950 . S
H839 C845 0.950 . S
H840 C846 0.949 . S
C841 H836 0.950 . S
C841 C843 1.327 . S
C841 C847 1.429 . S
C842 C834 1.574 . S
C842 H837 0.949 . S
C842 C848 1.368 . S
C843 C827 1.349 . S
C843 H835 0.950 . S
C843 C841 1.327 . S
C844 C832 1.349 . S
C844 H838 0.950 . S
C844 C845 1.327 . S
C845 H839 0.950 . S
C845 C844 1.327 . S
C845 C849 1.429 . S
C846 C829 1.574 . S
C846 H840 0.949 . S
C846 C850 1.368 . S
C847 C828 1.429 . S
C847 C841 1.429 . S
C847 C848 1.523 . S
C848 C829 1.368 . S
C848 C842 1.368 . S
C848 C847 1.523 . S
C849 C833 1.429 . S
C849 C845 1.429 . S
C849 C850 1.523 . S
C850 C834 1.368 . S
C850 C846 1.368 . S
C850 C849 1.523 . S
H851 C826 0.950 . S
H852 C828 0.950 . S
H853 C829 0.949 . S
H854 C831 0.950 . S
H855 C833 0.950 1_455 S
C856 C857 1.349 . S
C856 C858 1.327 . S
C856 H881 0.950 . S
C857 C856 1.349 . S
C857 C873 1.349 . S
C858 C856 1.327 . S
C858 C877 1.429 . S
C858 H882 0.950 . S
C859 C876 1.574 . S
C859 C878 1.368 . S
C859 H883 0.949 . S
H860 C864 0.949 . S
C861 C862 1.349 . S
C861 C863 1.327 1_545 S
C861 H884 0.950 . S
C862 C861 1.349 . S
C862 C874 1.349 1_545 S
C863 C861 1.327 1_565 S
C863 C879 1.429 . S
C863 H885 0.950 . S
C864 H860 0.949 . S
C864 C872 1.574 . S
C864 C880 1.368 . S
H865 C873 0.950 . S
H866 C871 0.950 . S
H867 C872 0.949 . S
H868 C874 0.950 . S
H869 C875 0.950 . S
H870 C876 0.949 . S
C871 H866 0.950 . S
C871 C873 1.327 . S
C871 C877 1.429 . S
C872 C864 1.574 . S
C872 H867 0.949 . S
C872 C878 1.368 . S
C873 C857 1.349 . S
C873 H865 0.950 . S
C873 C871 1.327 . S
C874 C862 1.349 1_565 S
C874 H868 0.950 . S
C874 C875 1.327 . S
C875 H869 0.950 . S
C875 C874 1.327 . S
C875 C879 1.429 . S
C876 C859 1.574 . S
C876 H870 0.949 . S
C876 C880 1.368 . S
C877 C858 1.429 . S
C877 C871 1.429 . S
C877 C878 1.523 . S
C878 C859 1.368 . S
C878 C872 1.368 . S
C878 C877 1.523 . S
C879 C863 1.429 . S
C879 C875 1.429 . S
C879 C880 1.523 . S
C880 C864 1.368 . S
C880 C876 1.368 . S
C880 C879 1.523 . S
H881 C856 0.950 . S
H882 C858 0.950 . S
H883 C859 0.949 . S
H884 C861 0.950 . S
H885 C863 0.950 . S
C886 C887 1.349 . S
C886 C888 1.327 . S
C886 H911 0.950 . S
C887 C886 1.349 . S
C887 C903 1.349 . S
C888 C886 1.327 . S
C888 C907 1.429 . S
C888 H912 0.950 . S
C889 C906 1.574 . S
C889 C908 1.368 . S
C889 H913 0.949 . S
H890 C894 0.949 . S
C891 C892 1.349 . S
C891 C893 1.327 . S
C891 H914 0.950 . S
C892 C891 1.349 . S
C892 C904 1.349 . S
C893 C891 1.327 . S
C893 C909 1.429 . S
C893 H915 0.950 . S
C894 H890 0.949 . S
C894 C902 1.574 . S
C894 C910 1.368 . S
H895 C903 0.950 . S
H896 C901 0.950 . S
H897 C902 0.949 . S
H898 C904 0.950 . S
H899 C905 0.950 . S
H900 C906 0.949 . S
C901 H896 0.950 . S
C901 C903 1.327 . S
C901 C907 1.429 . S
C902 C894 1.574 . S
C902 H897 0.949 . S
C902 C908 1.368 . S
C903 C887 1.349 . S
C903 H895 0.950 . S
C903 C901 1.327 . S
C904 C892 1.349 . S
C904 H898 0.950 . S
C904 C905 1.327 . S
C905 H899 0.950 . S
C905 C904 1.327 . S
C905 C909 1.429 . S
C906 C889 1.574 . S
C906 H900 0.949 . S
C906 C910 1.368 . S
C907 C888 1.429 . S
C907 C901 1.429 . S
C907 C908 1.523 . S
C908 C889 1.368 . S
C908 C902 1.368 . S
C908 C907 1.523 . S
C909 C893 1.429 . S
C909 C905 1.429 . S
C909 C910 1.523 . S
C910 C894 1.368 . S
C910 C906 1.368 . S
C910 C909 1.523 . S
H911 C886 0.950 . S
H912 C888 0.950 . S
H913 C889 0.949 . S
H914 C891 0.950 . S
H915 C893 0.950 . S
C916 C917 1.349 . S
C916 C918 1.327 . S
C916 H941 0.950 . S
C917 C916 1.349 . S
C917 C933 1.349 . S
C918 C916 1.327 . S
C918 C937 1.429 . S
C918 H942 0.950 . S
C919 C936 1.550 1_556 S
C919 C938 1.397 . S
C919 H943 0.946 1_556 S
H920 C924 0.949 . S
C921 C922 1.349 . S
C921 C923 1.327 . S
C921 H944 0.950 . S
C922 C921 1.349 . S
C922 C934 1.349 . S
C923 C921 1.327 . S
C923 C939 1.429 . S
C923 H945 0.950 1_565 S
C924 H920 0.949 . S
C924 C932 1.574 1_565 S
C924 C940 1.368 1_566 S
H925 C933 0.950 . S
H926 C931 0.950 . S
H927 C932 0.949 . S
H928 C934 0.950 . S
H929 C935 0.950 1_556 S
H930 C936 0.949 . S
C931 H926 0.950 . S
C931 C933 1.327 . S
C931 C937 1.429 . S
C932 C924 1.574 1_545 S
C932 H927 0.949 . S
C932 C938 1.368 . S
C933 C917 1.349 . S
C933 H925 0.950 . S
C933 C931 1.327 . S
C934 C922 1.349 . S
C934 H928 0.950 . S
C934 C935 1.327 . S
C935 H929 0.950 1_554 S
C935 C934 1.327 . S
C935 C939 1.429 . S
C936 C919 1.550 1_554 S
C936 H930 0.949 . S
C936 C940 1.368 . S
C937 C918 1.429 . S
C937 C931 1.429 . S
C937 C938 1.523 . S
C938 C919 1.397 . S
C938 C932 1.368 . S
C938 C937 1.523 . S
C939 C923 1.429 . S
C939 C935 1.429 . S
C939 C940 1.523 1_565 S
C940 C924 1.368 1_544 S
C940 C936 1.368 . S
C940 C939 1.523 1_545 S
H941 C916 0.950 . S
H942 C918 0.950 . S
H943 C919 0.946 1_554 S
H944 C921 0.950 . S
H945 C923 0.950 1_545 S
C946 C947 1.349 . S
C946 C948 1.327 . S
C946 H971 0.950 . S
C947 C946 1.349 . S
C947 C963 1.349 . S
C948 C946 1.327 . S
C948 C967 1.429 . S
C948 H972 0.950 . S
C949 C966 1.574 . S
C949 C968 1.368 . S
C949 H973 0.949 . S
H950 C954 0.949 . S
C951 C952 1.349 . S
C951 C953 1.327 . S
C951 H974 0.950 . S
C952 C951 1.349 . S
C952 C964 1.349 . S
C953 C951 1.327 . S
C953 C969 1.429 . S
C953 H975 0.950 . S
C954 H950 0.949 . S
C954 C962 1.574 . S
C954 C970 1.368 . S
H955 C963 0.950 . S
H956 C961 0.950 . S
H957 C962 0.949 . S
H958 C964 0.950 . S
H959 C965 0.950 . S
H960 C966 0.949 . S
C961 H956 0.950 . S
C961 C963 1.327 . S
C961 C967 1.429 . S
C962 C954 1.574 . S
C962 H957 0.949 . S
C962 C968 1.368 . S
C963 C947 1.349 . S
C963 H955 0.950 . S
C963 C961 1.327 . S
C964 C952 1.349 . S
C964 H958 0.950 . S
C964 C965 1.327 . S
C965 H959 0.950 . S
C965 C964 1.327 . S
C965 C969 1.429 . S
C966 C949 1.574 . S
C966 H960 0.949 . S
C966 C970 1.368 . S
C967 C948 1.429 . S
C967 C961 1.429 . S
C967 C968 1.523 . S
C968 C949 1.368 . S
C968 C962 1.368 . S
C968 C967 1.523 . S
C969 C953 1.429 . S
C969 C965 1.429 . S
C969 C970 1.523 . S
C970 C954 1.368 . S
C970 C966 1.368 . S
C970 C969 1.523 . S
H971 C946 0.950 . S
H972 C948 0.950 . S
H973 C949 0.949 . S
H974 C951 0.950 . S
H975 C953 0.950 . S
C976 C977 1.349 . S
C976 C978 1.327 1_565 S
C976 H1001 0.950 . S
C977 C976 1.349 . S
C977 C993 1.349 . S
C978 C976 1.327 1_545 S
C978 C997 1.429 . S
C978 H1002 0.950 . S
C979 C996 1.574 . S
C979 C998 1.368 . S
C979 H1003 0.949 . S
H980 C984 0.949 . S
C981 C982 1.349 . S
C981 C983 1.327 . S
C981 H1004 0.950 . S
C982 C981 1.349 . S
C982 C994 1.349 . S
C983 C981 1.327 . S
C983 C999 1.429 . S
C983 H1005 0.950 . S
C984 H980 0.949 . S
C984 C992 1.574 . S
C984 C1000 1.368 . S
H985 C993 0.950 . S
H986 C991 0.950 . S
H987 C992 0.949 . S
H988 C994 0.950 . S
H989 C995 0.950 . S
H990 C996 0.949 . S
C991 H986 0.950 . S
C991 C993 1.327 . S
C991 C997 1.429 1_565 S
C992 C984 1.574 . S
C992 H987 0.949 . S
C992 C998 1.368 . S
C993 C977 1.349 . S
C993 H985 0.950 . S
C993 C991 1.327 . S
C994 C982 1.349 . S
C994 H988 0.950 . S
C994 C995 1.327 . S
C995 H989 0.950 . S
C995 C994 1.327 . S
C995 C999 1.429 . S
C996 C979 1.574 . S
C996 H990 0.949 . S
C996 C1000 1.368 . S
C997 C978 1.429 . S
C997 C991 1.429 1_545 S
C997 C998 1.523 . S
C998 C979 1.368 . S
C998 C992 1.368 . S
C998 C997 1.523 . S
C999 C983 1.429 . S
C999 C995 1.429 . S
C999 C1000 1.523 . S
C1000 C984 1.368 . S
C1000 C996 1.368 . S
C1000 C999 1.523 . S
H1001 C976 0.950 . S
H1002 C978 0.950 . S
H1003 C979 0.949 . S
H1004 C981 0.950 . S
H1005 C983 0.950 . S
C1006 C1007 1.349 . S
C1006 C1008 1.327 . S
C1006 H1031 0.950 . S
C1007 C1006 1.349 . S
C1007 C1023 1.349 . S
C1008 C1006 1.327 . S
C1008 C1027 1.429 . S
C1008 H1032 0.950 . S
C1009 C1026 1.574 . S
C1009 C1028 1.368 . S
C1009 H1033 0.949 . S
H1010 C1014 0.949 . S
C1011 C1012 1.349 . S
C1011 C1013 1.327 . S
C1011 H1034 0.950 . S
C1012 C1011 1.349 . S
C1012 C1024 1.349 . S
C1013 C1011 1.327 . S
C1013 C1029 1.429 . S
C1013 H1035 0.950 . S
C1014 H1010 0.949 . S
C1014 C1022 1.574 . S
C1014 C1030 1.368 . S
H1015 C1023 0.950 . S
H1016 C1021 0.950 . S
H1017 C1022 0.949 . S
H1018 C1024 0.950 . S
H1019 C1025 0.950 . S
H1020 C1026 0.949 . S
C1021 H1016 0.950 . S
C1021 C1023 1.327 . S
C1021 C1027 1.429 . S
C1022 C1014 1.574 . S
C1022 H1017 0.949 . S
C1022 C1028 1.368 . S
C1023 C1007 1.349 . S
C1023 H1015 0.950 . S
C1023 C1021 1.327 . S
C1024 C1012 1.349 . S
C1024 H1018 0.950 . S
C1024 C1025 1.327 . S
C1025 H1019 0.950 . S
C1025 C1024 1.327 . S
C1025 C1029 1.429 . S
C1026 C1009 1.574 . S
C1026 H1020 0.949 . S
C1026 C1030 1.368 . S
C1027 C1008 1.429 . S
C1027 C1021 1.429 . S
C1027 C1028 1.523 . S
C1028 C1009 1.368 . S
C1028 C1022 1.368 . S
C1028 C1027 1.523 . S
C1029 C1013 1.429 . S
C1029 C1025 1.429 . S
C1029 C1030 1.523 . S
C1030 C1014 1.368 . S
C1030 C1026 1.368 . S
C1030 C1029 1.523 . S
H1031 C1006 0.950 . S
H1032 C1008 0.950 . S
H1033 C1009 0.949 . S
H1034 C1011 0.950 . S
H1035 C1013 0.950 . S
C1036 C1037 1.349 . S
C1036 C1038 1.327 . S
C1036 H1061 0.950 . S
C1037 C1036 1.349 . S
C1037 C1053 1.349 . S
C1038 C1036 1.327 . S
C1038 C1057 1.429 . S
C1038 H1062 0.950 1_565 S
C1039 C1056 1.587 . S
C1039 C1058 1.369 . S
C1039 H1063 0.936 1_545 S
H1040 C1044 0.949 . S
C1041 C1042 1.349 . S
C1041 C1043 1.327 . S
C1041 H1064 0.950 . S
C1042 C1041 1.349 . S
C1042 C1054 1.349 . S
C1043 C1041 1.327 . S
C1043 C1059 1.429 . S
C1043 H1065 0.950 . S
C1044 H1040 0.949 . S
C1044 C1052 1.574 . S
C1044 C1060 1.368 . S
H1045 C1053 0.950 . S
H1046 C1051 0.950 . S
H1047 C1052 0.949 . S
H1048 C1054 0.950 . S
H1049 C1055 0.950 . S
H1050 C1056 0.949 . S
C1051 H1046 0.950 . S
C1051 C1053 1.327 . S
C1051 C1057 1.429 . S
C1052 C1044 1.574 . S
C1052 H1047 0.949 . S
C1052 C1058 1.368 . S
C1053 C1037 1.349 . S
C1053 H1045 0.950 . S
C1053 C1051 1.327 . S
C1054 C1042 1.349 . S
C1054 H1048 0.950 . S
C1054 C1055 1.327 . S
C1055 H1049 0.950 . S
C1055 C1054 1.327 . S
C1055 C1059 1.429 . S
C1056 C1039 1.587 . S
C1056 H1050 0.949 . S
C1056 C1060 1.368 . S
C1057 C1038 1.429 . S
C1057 C1051 1.429 . S
C1057 C1058 1.523 1_565 S
C1058 C1039 1.369 . S
C1058 C1052 1.368 . S
C1058 C1057 1.523 1_545 S
C1059 C1043 1.429 . S
C1059 C1055 1.429 . S
C1059 C1060 1.523 . S
C1060 C1044 1.368 . S
C1060 C1056 1.368 . S
C1060 C1059 1.523 . S
H1061 C1036 0.950 . S
H1062 C1038 0.950 1_545 S
H1063 C1039 0.936 1_565 S
H1064 C1041 0.950 . S
H1065 C1043 0.950 . S
C1066 C1067 1.349 . S
C1066 C1068 1.327 . S
C1066 H1091 0.950 . S
C1067 C1066 1.349 . S
C1067 C1083 1.349 . S
C1068 C1066 1.327 . S
C1068 C1087 1.429 . S
C1068 H1092 0.950 . S
C1069 C1086 1.574 . S
C1069 C1088 1.368 . S
C1069 H1093 0.949 . S
H1070 C1074 0.949 . S
C1071 C1072 1.349 . S
C1071 C1073 1.327 . S
C1071 H1094 0.950 . S
C1072 C1071 1.349 . S
C1072 C1084 1.349 . S
C1073 C1071 1.327 . S
C1073 C1089 1.429 . S
C1073 H1095 0.950 . S
C1074 H1070 0.949 . S
C1074 C1082 1.574 . S
C1074 C1090 1.368 . S
H1075 C1083 0.950 . S
H1076 C1081 0.950 . S
H1077 C1082 0.949 . S
H1078 C1084 0.950 . S
H1079 C1085 0.950 . S
H1080 C1086 0.949 . S
C1081 H1076 0.950 . S
C1081 C1083 1.327 . S
C1081 C1087 1.429 . S
C1082 C1074 1.574 . S
C1082 H1077 0.949 . S
C1082 C1088 1.368 . S
C1083 C1067 1.349 . S
C1083 H1075 0.950 . S
C1083 C1081 1.327 . S
C1084 C1072 1.349 . S
C1084 H1078 0.950 . S
C1084 C1085 1.327 . S
C1085 H1079 0.950 . S
C1085 C1084 1.327 . S
C1085 C1089 1.429 . S
C1086 C1069 1.574 . S
C1086 H1080 0.949 . S
C1086 C1090 1.368 . S
C1087 C1068 1.429 . S
C1087 C1081 1.429 . S
C1087 C1088 1.523 . S
C1088 C1069 1.368 . S
C1088 C1082 1.368 . S
C1088 C1087 1.523 . S
C1089 C1073 1.429 . S
C1089 C1085 1.429 . S
C1089 C1090 1.523 . S
C1090 C1074 1.368 . S
C1090 C1086 1.368 . S
C1090 C1089 1.523 . S
H1091 C1066 0.950 . S
H1092 C1068 0.950 . S
H1093 C1069 0.949 . S
H1094 C1071 0.950 . S
H1095 C1073 0.950 . S
C1096 C1097 1.349 . S
C1096 C1098 1.327 . S
C1096 H1121 0.950 . S
C1097 C1096 1.349 . S
C1097 C1113 1.349 . S
C1098 C1096 1.327 . S
C1098 C1117 1.429 . S
C1098 H1122 0.950 . S
C1099 C1116 1.574 . S
C1099 C1118 1.368 . S
C1099 H1123 0.949 . S
H1100 C1104 0.949 . S
C1101 C1102 1.349 . S
C1101 C1103 1.327 . S
C1101 H1124 0.950 . S
C1102 C1101 1.349 . S
C1102 C1114 1.349 . S
C1103 C1101 1.327 . S
C1103 C1119 1.429 . S
C1103 H1125 0.950 . S
C1104 H1100 0.949 . S
C1104 C1112 1.574 . S
C1104 C1120 1.368 . S
H1105 C1113 0.950 . S
H1106 C1111 0.950 . S
H1107 C1112 0.949 . S
H1108 C1114 0.950 . S
H1109 C1115 0.950 . S
H1110 C1116 0.949 . S
C1111 H1106 0.950 . S
C1111 C1113 1.327 . S
C1111 C1117 1.429 . S
C1112 C1104 1.574 . S
C1112 H1107 0.949 . S
C1112 C1118 1.368 . S
C1113 C1097 1.349 . S
C1113 H1105 0.950 . S
C1113 C1111 1.327 . S
C1114 C1102 1.349 . S
C1114 H1108 0.950 . S
C1114 C1115 1.327 . S
C1115 H1109 0.950 . S
C1115 C1114 1.327 . S
C1115 C1119 1.429 . S
C1116 C1099 1.574 . S
C1116 H1110 0.949 . S
C1116 C1120 1.368 . S
C1117 C1098 1.429 . S
C1117 C1111 1.429 . S
C1117 C1118 1.523 . S
C1118 C1099 1.368 . S
C1118 C1112 1.368 . S
C1118 C1117 1.523 . S
C1119 C1103 1.429 . S
C1119 C1115 1.429 . S
C1119 C1120 1.523 . S
C1120 C1104 1.368 . S
C1120 C1116 1.368 . S
C1120 C1119 1.523 . S
H1121 C1096 0.950 . S
H1122 C1098 0.950 . S
H1123 C1099 0.949 . S
H1124 C1101 0.950 . S
H1125 C1103 0.950 . S
C1126 C1127 1.349 . S
C1126 C1128 1.327 . S
C1126 H1151 0.950 . S
C1127 C1126 1.349 . S
C1127 C1143 1.349 . S
C1128 C1126 1.327 . S
C1128 C1147 1.429 . S
C1128 H1152 0.950 . S
C1129 C1146 1.574 . S
C1129 C1148 1.368 . S
C1129 H1153 0.949 . S
H1130 C1134 0.949 . S
C1131 C1132 1.349 . S
C1131 C1133 1.327 . S
C1131 H1154 0.950 . S
C1132 C1131 1.349 . S
C1132 C1144 1.349 . S
C1133 C1131 1.327 . S
C1133 C1149 1.429 . S
C1133 H1155 0.950 . S
C1134 H1130 0.949 . S
C1134 C1142 1.574 . S
C1134 C1150 1.368 . S
H1135 C1143 0.950 . S
H1136 C1141 0.950 . S
H1137 C1142 0.949 . S
H1138 C1144 0.950 . S
H1139 C1145 0.950 . S
H1140 C1146 0.949 . S
C1141 H1136 0.950 . S
C1141 C1143 1.327 . S
C1141 C1147 1.429 . S
C1142 C1134 1.574 . S
C1142 H1137 0.949 . S
C1142 C1148 1.368 . S
C1143 C1127 1.349 . S
C1143 H1135 0.950 . S
C1143 C1141 1.327 . S
C1144 C1132 1.349 . S
C1144 H1138 0.950 . S
C1144 C1145 1.327 . S
C1145 H1139 0.950 . S
C1145 C1144 1.327 . S
C1145 C1149 1.429 . S
C1146 C1129 1.574 . S
C1146 H1140 0.949 . S
C1146 C1150 1.368 . S
C1147 C1128 1.429 . S
C1147 C1141 1.429 . S
C1147 C1148 1.523 . S
C1148 C1129 1.368 . S
C1148 C1142 1.368 . S
C1148 C1147 1.523 . S
C1149 C1133 1.429 . S
C1149 C1145 1.429 . S
C1149 C1150 1.523 . S
C1150 C1134 1.368 . S
C1150 C1146 1.368 . S
C1150 C1149 1.523 . S
H1151 C1126 0.950 . S
H1152 C1128 0.950 . S
H1153 C1129 0.949 . S
H1154 C1131 0.950 . S
H1155 C1133 0.950 . S
C1156 C1157 1.349 . S
C1156 C1158 1.327 . S
C1156 H1181 0.950 . S
C1157 C1156 1.349 . S
C1157 C1173 1.349 . S
C1158 C1156 1.327 . S
C1158 C1177 1.429 . S
C1158 H1182 0.950 . S
C1159 C1176 1.574 . S
C1159 C1178 1.368 . S
C1159 H1183 0.949 . S
H1160 C1164 0.949 . S
C1161 C1162 1.349 . S
C1161 C1163 1.327 . S
C1161 H1184 0.950 . S
C1162 C1161 1.349 . S
C1162 C1174 1.349 . S
C1163 C1161 1.327 . S
C1163 C1179 1.429 . S
C1163 H1185 0.950 . S
C1164 H1160 0.949 . S
C1164 C1172 1.574 . S
C1164 C1180 1.368 . S
H1165 C1173 0.950 . S
H1166 C1171 0.950 . S
H1167 C1172 0.949 . S
H1168 C1174 0.950 . S
H1169 C1175 0.950 . S
H1170 C1176 0.949 . S
C1171 H1166 0.950 . S
C1171 C1173 1.327 . S
C1171 C1177 1.429 . S
C1172 C1164 1.574 . S
C1172 H1167 0.949 . S
C1172 C1178 1.368 . S
C1173 C1157 1.349 . S
C1173 H1165 0.950 . S
C1173 C1171 1.327 . S
C1174 C1162 1.349 . S
C1174 H1168 0.950 . S
C1174 C1175 1.327 . S
C1175 H1169 0.950 . S
C1175 C1174 1.327 . S
C1175 C1179 1.429 . S
C1176 C1159 1.574 . S
C1176 H1170 0.949 . S
C1176 C1180 1.368 . S
C1177 C1158 1.429 . S
C1177 C1171 1.429 . S
C1177 C1178 1.523 . S
C1178 C1159 1.368 . S
C1178 C1172 1.368 . S
C1178 C1177 1.523 . S
C1179 C1163 1.429 . S
C1179 C1175 1.429 . S
C1179 C1180 1.523 . S
C1180 C1164 1.368 . S
C1180 C1176 1.368 . S
C1180 C1179 1.523 . S
H1181 C1156 0.950 . S
H1182 C1158 0.950 . S
H1183 C1159 0.949 . S
H1184 C1161 0.950 . S
H1185 C1163 0.950 . S
C1186 C1187 1.349 . S
C1186 C1188 1.327 . S
C1186 H1211 0.950 . S
C1187 C1186 1.349 . S
C1187 C1203 1.349 . S
C1188 C1186 1.327 . S
C1188 C1207 1.429 . S
C1188 H1212 0.950 . S
C1189 C1206 1.574 . S
C1189 C1208 1.368 . S
C1189 H1213 0.949 . S
H1190 C1194 0.949 . S
C1191 C1192 1.349 . S
C1191 C1193 1.327 . S
C1191 H1214 0.950 . S
C1192 C1191 1.349 . S
C1192 C1204 1.349 . S
C1193 C1191 1.327 . S
C1193 C1209 1.429 . S
C1193 H1215 0.950 . S
C1194 H1190 0.949 . S
C1194 C1202 1.574 . S
C1194 C1210 1.368 . S
H1195 C1203 0.950 . S
H1196 C1201 0.950 . S
H1197 C1202 0.949 . S
H1198 C1204 0.950 . S
H1199 C1205 0.950 . S
H1200 C1206 0.949 . S
C1201 H1196 0.950 . S
C1201 C1203 1.327 . S
C1201 C1207 1.429 . S
C1202 C1194 1.574 . S
C1202 H1197 0.949 . S
C1202 C1208 1.368 . S
C1203 C1187 1.349 . S
C1203 H1195 0.950 . S
C1203 C1201 1.327 . S
C1204 C1192 1.349 . S
C1204 H1198 0.950 . S
C1204 C1205 1.327 . S
C1205 H1199 0.950 . S
C1205 C1204 1.327 . S
C1205 C1209 1.429 . S
C1206 C1189 1.574 . S
C1206 H1200 0.949 . S
C1206 C1210 1.368 . S
C1207 C1188 1.429 . S
C1207 C1201 1.429 . S
C1207 C1208 1.523 . S
C1208 C1189 1.368 . S
C1208 C1202 1.368 . S
C1208 C1207 1.523 . S
C1209 C1193 1.429 . S
C1209 C1205 1.429 . S
C1209 C1210 1.523 . S
C1210 C1194 1.368 . S
C1210 C1206 1.368 . S
C1210 C1209 1.523 . S
H1211 C1186 0.950 . S
H1212 C1188 0.950 . S
H1213 C1189 0.949 . S
H1214 C1191 0.950 . S
H1215 C1193 0.950 . S
C1216 C1217 1.349 . S
C1216 C1218 1.327 . S
C1216 H1241 0.950 . S
C1217 C1216 1.349 . S
C1217 C1233 1.349 . S
C1218 C1216 1.327 . S
C1218 C1237 1.429 . S
C1218 H1242 0.950 . S
C1219 C1236 1.574 . S
C1219 C1238 1.368 . S
C1219 H1243 0.949 . S
H1220 C1224 0.949 . S
C1221 C1222 1.349 . S
C1221 C1223 1.327 . S
C1221 H1244 0.950 . S
C1222 C1221 1.349 . S
C1222 C1234 1.349 . S
C1223 C1221 1.327 . S
C1223 C1239 1.429 . S
C1223 H1245 0.950 . S
C1224 H1220 0.949 . S
C1224 C1232 1.574 . S
C1224 C1240 1.368 . S
H1225 C1233 0.950 . S
H1226 C1231 0.950 . S
H1227 C1232 0.949 . S
H1228 C1234 0.950 . S
H1229 C1235 0.950 . S
H1230 C1236 0.949 . S
C1231 H1226 0.950 . S
C1231 C1233 1.327 . S
C1231 C1237 1.429 . S
C1232 C1224 1.574 . S
C1232 H1227 0.949 . S
C1232 C1238 1.368 . S
C1233 C1217 1.349 . S
C1233 H1225 0.950 . S
C1233 C1231 1.327 . S
C1234 C1222 1.349 . S
C1234 H1228 0.950 . S
C1234 C1235 1.327 . S
C1235 H1229 0.950 . S
C1235 C1234 1.327 . S
C1235 C1239 1.429 . S
C1236 C1219 1.574 . S
C1236 H1230 0.949 . S
C1236 C1240 1.368 . S
C1237 C1218 1.429 . S
C1237 C1231 1.429 . S
C1237 C1238 1.523 . S
C1238 C1219 1.368 . S
C1238 C1232 1.368 . S
C1238 C1237 1.523 . S
C1239 C1223 1.429 . S
C1239 C1235 1.429 . S
C1239 C1240 1.523 . S
C1240 C1224 1.368 . S
C1240 C1236 1.368 . S
C1240 C1239 1.523 . S
H1241 C1216 0.950 . S
H1242 C1218 0.950 . S
H1243 C1219 0.949 . S
H1244 C1221 0.950 . S
H1245 C1223 0.950 . S
C1246 C1247 1.349 . S
C1246 C1248 1.327 . S
C1246 H1271 0.950 . S
C1247 C1246 1.349 . S
C1247 C1263 1.349 . S
C1248 C1246 1.327 . S
C1248 C1267 1.429 . S
C1248 H1272 0.950 . S
C1249 C1266 1.574 . S
C1249 C1268 1.368 1_655 S
C1249 H1273 0.952 . S
H1250 C1254 0.949 . S
C1251 C1252 1.349 . S
C1251 C1253 1.327 . S
C1251 H1274 0.950 . S
C1252 C1251 1.349 . S
C1252 C1264 1.349 . S
C1253 C1251 1.327 . S
C1253 C1269 1.429 . S
C1253 H1275 0.950 . S
C1254 H1250 0.949 . S
C1254 C1262 1.574 1_655 S
C1254 C1270 1.368 . S
H1255 C1263 0.950 . S
H1256 C1261 0.950 . S
H1257 C1262 0.949 . S
H1258 C1264 0.950 . S
H1259 C1265 0.950 . S
H1260 C1266 0.949 . S
C1261 H1256 0.950 . S
C1261 C1263 1.327 . S
C1261 C1267 1.429 . S
C1262 C1254 1.574 1_455 S
C1262 H1257 0.949 . S
C1262 C1268 1.368 . S
C1263 C1247 1.349 . S
C1263 H1255 0.950 . S
C1263 C1261 1.327 . S
C1264 C1252 1.349 . S
C1264 H1258 0.950 . S
C1264 C1265 1.327 . S
C1265 H1259 0.950 . S
C1265 C1264 1.327 . S
C1265 C1269 1.429 . S
C1266 C1249 1.574 . S
C1266 H1260 0.949 . S
C1266 C1270 1.368 . S
C1267 C1248 1.429 . S
C1267 C1261 1.429 . S
C1267 C1268 1.523 . S
C1268 C1249 1.368 1_455 S
C1268 C1262 1.368 . S
C1268 C1267 1.523 . S
C1269 C1253 1.429 . S
C1269 C1265 1.429 . S
C1269 C1270 1.523 . S
C1270 C1254 1.368 . S
C1270 C1266 1.368 . S
C1270 C1269 1.523 . S
H1271 C1246 0.950 . S
H1272 C1248 0.950 . S
H1273 C1249 0.952 . S
H1274 C1251 0.950 . S
H1275 C1253 0.950 . S
C1276 C1277 1.349 . S
C1276 C1278 1.327 . S
C1276 H1301 0.950 . S
C1277 C1276 1.349 . S
C1277 C1293 1.349 . S
C1278 C1276 1.327 . S
C1278 C1297 1.429 . S
C1278 H1302 0.950 . S
C1279 C1296 1.574 . S
C1279 C1298 1.368 . S
C1279 H1303 0.949 . S
H1280 C1284 0.949 . S
C1281 C1282 1.349 . S
C1281 C1283 1.327 . S
C1281 H1304 0.950 . S
C1282 C1281 1.349 . S
C1282 C1294 1.349 . S
C1283 C1281 1.327 . S
C1283 C1299 1.429 . S
C1283 H1305 0.950 . S
C1284 H1280 0.949 . S
C1284 C1292 1.574 . S
C1284 C1300 1.368 . S
H1285 C1293 0.950 . S
H1286 C1291 0.950 . S
H1287 C1292 0.949 . S
H1288 C1294 0.950 . S
H1289 C1295 0.950 . S
H1290 C1296 0.949 . S
C1291 H1286 0.950 . S
C1291 C1293 1.327 . S
C1291 C1297 1.429 . S
C1292 C1284 1.574 . S
C1292 H1287 0.949 . S
C1292 C1298 1.368 . S
C1293 C1277 1.349 . S
C1293 H1285 0.950 . S
C1293 C1291 1.327 . S
C1294 C1282 1.349 . S
C1294 H1288 0.950 . S
C1294 C1295 1.327 . S
C1295 H1289 0.950 . S
C1295 C1294 1.327 . S
C1295 C1299 1.429 . S
C1296 C1279 1.574 . S
C1296 H1290 0.949 . S
C1296 C1300 1.368 . S
C1297 C1278 1.429 . S
C1297 C1291 1.429 . S
C1297 C1298 1.523 . S
C1298 C1279 1.368 . S
C1298 C1292 1.368 . S
C1298 C1297 1.523 . S
C1299 C1283 1.429 . S
C1299 C1295 1.429 . S
C1299 C1300 1.523 . S
C1300 C1284 1.368 . S
C1300 C1296 1.368 . S
C1300 C1299 1.523 . S
H1301 C1276 0.950 . S
H1302 C1278 0.950 . S
H1303 C1279 0.949 . S
H1304 C1281 0.950 . S
H1305 C1283 0.950 . S
C1306 C1307 1.349 . S
C1306 C1308 1.327 . S
C1306 H1331 0.950 . S
C1307 C1306 1.349 . S
C1307 C1323 1.349 . S
C1308 C1306 1.327 . S
C1308 C1327 1.429 . S
C1308 H1332 0.950 . S
C1309 C1326 1.574 1_655 S
C1309 C1328 1.368 . S
C1309 H1333 0.949 . S
H1310 C1314 0.949 . S
C1311 C1312 1.349 . S
C1311 C1313 1.327 . S
C1311 H1334 0.950 . S
C1312 C1311 1.349 . S
C1312 C1324 1.349 . S
C1313 C1311 1.327 . S
C1313 C1329 1.429 . S
C1313 H1335 0.950 . S
C1314 H1310 0.949 . S
C1314 C1322 1.574 1_455 S
C1314 C1330 1.368 . S
H1315 C1323 0.950 . S
H1316 C1321 0.950 . S
H1317 C1322 0.949 . S
H1318 C1324 0.950 . S
H1319 C1325 0.950 . S
H1320 C1326 0.949 . S
C1321 H1316 0.950 . S
C1321 C1323 1.327 . S
C1321 C1327 1.429 . S
C1322 C1314 1.574 1_655 S
C1322 H1317 0.949 . S
C1322 C1328 1.368 . S
C1323 C1307 1.349 . S
C1323 H1315 0.950 . S
C1323 C1321 1.327 . S
C1324 C1312 1.349 . S
C1324 H1318 0.950 . S
C1324 C1325 1.327 . S
C1325 H1319 0.950 . S
C1325 C1324 1.327 . S
C1325 C1329 1.429 . S
C1326 C1309 1.574 1_455 S
C1326 H1320 0.949 . S
C1326 C1330 1.368 . S
C1327 C1308 1.429 . S
C1327 C1321 1.429 . S
C1327 C1328 1.523 . S
C1328 C1309 1.368 . S
C1328 C1322 1.368 . S
C1328 C1327 1.523 . S
C1329 C1313 1.429 . S
C1329 C1325 1.429 . S
C1329 C1330 1.523 . S
C1330 C1314 1.368 . S
C1330 C1326 1.368 . S
C1330 C1329 1.523 . S
H1331 C1306 0.950 . S
H1332 C1308 0.950 . S
H1333 C1309 0.949 . S
H1334 C1311 0.950 . S
H1335 C1313 0.950 . S
C1336 C1337 1.349 . S
C1336 C1338 1.327 . S
C1336 H1361 0.950 . S
C1337 C1336 1.349 . S
C1337 C1353 1.349 . S
C1338 C1336 1.327 . S
C1338 C1357 1.429 . S
C1338 H1362 0.950 . S
C1339 C1356 1.574 . S
C1339 C1358 1.368 . S
C1339 H1363 0.949 . S
H1340 C1344 0.949 . S
C1341 C1342 1.349 . S
C1341 C1343 1.327 . S
C1341 H1364 0.950 . S
C1342 C1341 1.349 . S
C1342 C1354 1.349 . S
C1343 C1341 1.327 . S
C1343 C1359 1.429 . S
C1343 H1365 0.950 . S
C1344 H1340 0.949 . S
C1344 C1352 1.574 . S
C1344 C1360 1.368 . S
H1345 C1353 0.950 . S
H1346 C1351 0.950 . S
H1347 C1352 0.949 . S
H1348 C1354 0.950 . S
H1349 C1355 0.950 . S
H1350 C1356 0.949 . S
C1351 H1346 0.950 . S
C1351 C1353 1.327 . S
C1351 C1357 1.429 . S
C1352 C1344 1.574 . S
C1352 H1347 0.949 . S
C1352 C1358 1.368 . S
C1353 C1337 1.349 . S
C1353 H1345 0.950 . S
C1353 C1351 1.327 . S
C1354 C1342 1.349 . S
C1354 H1348 0.950 . S
C1354 C1355 1.327 . S
C1355 H1349 0.950 . S
C1355 C1354 1.327 . S
C1355 C1359 1.429 . S
C1356 C1339 1.574 . S
C1356 H1350 0.949 . S
C1356 C1360 1.368 . S
C1357 C1338 1.429 . S
C1357 C1351 1.429 . S
C1357 C1358 1.523 . S
C1358 C1339 1.368 . S
C1358 C1352 1.368 . S
C1358 C1357 1.523 . S
C1359 C1343 1.429 . S
C1359 C1355 1.429 . S
C1359 C1360 1.523 . S
C1360 C1344 1.368 . S
C1360 C1356 1.368 . S
C1360 C1359 1.523 . S
H1361 C1336 0.950 . S
H1362 C1338 0.950 . S
H1363 C1339 0.949 . S
H1364 C1341 0.950 . S
H1365 C1343 0.950 . S
C1366 C1367 1.349 . S
C1366 C1368 1.327 . S
C1366 H1391 0.950 . S
C1367 C1366 1.349 . S
C1367 C1383 1.349 . S
C1368 C1366 1.327 . S
C1368 C1387 1.429 . S
C1368 H1392 0.950 . S
C1369 C1386 1.574 . S
C1369 C1388 1.368 . S
C1369 H1393 0.949 . S
H1370 C1374 0.949 1_556 S
C1371 C1372 1.349 . S
C1371 C1373 1.327 . S
C1371 H1394 0.950 . S
C1372 C1371 1.349 . S
C1372 C1384 1.349 . S
C1373 C1371 1.327 . S
C1373 C1389 1.429 . S
C1373 H1395 0.950 . S
C1374 H1370 0.949 1_554 S
C1374 C1382 1.574 . S
C1374 C1390 1.368 . S
H1375 C1383 0.950 . S
H1376 C1381 0.950 . S
H1377 C1382 0.949 . S
H1378 C1384 0.950 . S
H1379 C1385 0.950 . S
H1380 C1386 0.949 . S
C1381 H1376 0.950 . S
C1381 C1383 1.327 . S
C1381 C1387 1.429 . S
C1382 C1374 1.574 . S
C1382 H1377 0.949 . S
C1382 C1388 1.368 . S
C1383 C1367 1.349 . S
C1383 H1375 0.950 . S
C1383 C1381 1.327 . S
C1384 C1372 1.349 . S
C1384 H1378 0.950 . S
C1384 C1385 1.327 . S
C1385 H1379 0.950 . S
C1385 C1384 1.327 . S
C1385 C1389 1.429 . S
C1386 C1369 1.574 . S
C1386 H1380 0.949 . S
C1386 C1390 1.368 . S
C1387 C1368 1.429 . S
C1387 C1381 1.429 . S
C1387 C1388 1.523 . S
C1388 C1369 1.368 . S
C1388 C1382 1.368 . S
C1388 C1387 1.523 . S
C1389 C1373 1.429 . S
C1389 C1385 1.429 . S
C1389 C1390 1.523 1_556 S
C1390 C1374 1.368 . S
C1390 C1386 1.368 . S
C1390 C1389 1.523 1_554 S
H1391 C1366 0.950 . S
H1392 C1368 0.950 . S
H1393 C1369 0.949 . S
H1394 C1371 0.950 . S
H1395 C1373 0.950 . S
C1396 C1397 1.349 . S
C1396 C1398 1.327 . S
C1396 H1421 0.950 . S
C1397 C1396 1.349 . S
C1397 C1413 1.349 . S
C1398 C1396 1.327 . S
C1398 C1417 1.429 . S
C1398 H1422 0.950 . S
C1399 C1416 1.574 . S
C1399 C1418 1.368 . S
C1399 H1423 0.949 . S
H1400 C1404 0.949 . S
C1401 C1402 1.349 . S
C1401 C1403 1.327 . S
C1401 H1424 0.950 . S
C1402 C1401 1.349 . S
C1402 C1414 1.349 . S
C1403 C1401 1.327 . S
C1403 C1419 1.429 . S
C1403 H1425 0.950 . S
C1404 H1400 0.949 . S
C1404 C1412 1.574 . S
C1404 C1420 1.368 . S
H1405 C1413 0.950 . S
H1406 C1411 0.950 . S
H1407 C1412 0.949 . S
H1408 C1414 0.950 . S
H1409 C1415 0.950 . S
H1410 C1416 0.949 . S
C1411 H1406 0.950 . S
C1411 C1413 1.327 . S
C1411 C1417 1.429 . S
C1412 C1404 1.574 . S
C1412 H1407 0.949 . S
C1412 C1418 1.368 . S
C1413 C1397 1.349 . S
C1413 H1405 0.950 . S
C1413 C1411 1.327 . S
C1414 C1402 1.349 . S
C1414 H1408 0.950 . S
C1414 C1415 1.327 . S
C1415 H1409 0.950 . S
C1415 C1414 1.327 . S
C1415 C1419 1.429 . S
C1416 C1399 1.574 . S
C1416 H1410 0.949 . S
C1416 C1420 1.368 . S
C1417 C1398 1.429 . S
C1417 C1411 1.429 . S
C1417 C1418 1.523 . S
C1418 C1399 1.368 . S
C1418 C1412 1.368 . S
C1418 C1417 1.523 . S
C1419 C1403 1.429 . S
C1419 C1415 1.429 . S
C1419 C1420 1.523 . S
C1420 C1404 1.368 . S
C1420 C1416 1.368 . S
C1420 C1419 1.523 . S
H1421 C1396 0.950 . S
H1422 C1398 0.950 . S
H1423 C1399 0.949 . S
H1424 C1401 0.950 . S
H1425 C1403 0.950 . S
C1426 C1427 1.349 . S
C1426 C1428 1.327 . S
C1426 H1451 0.950 . S
C1427 C1426 1.349 . S
C1427 C1443 1.349 . S
C1428 C1426 1.327 . S
C1428 C1447 1.429 . S
C1428 H1452 0.950 . S
C1429 C1446 1.574 . S
C1429 C1448 1.368 . S
C1429 H1453 0.949 . S
H1430 C1434 0.949 . S
C1431 C1432 1.349 . S
C1431 C1433 1.327 1_556 S
C1431 H1454 0.950 . S
C1432 C1431 1.349 . S
C1432 C1444 1.349 . S
C1433 C1431 1.327 1_554 S
C1433 C1449 1.429 . S
C1433 H1455 0.950 . S
C1434 H1430 0.949 . S
C1434 C1442 1.574 . S
C1434 C1450 1.368 . S
H1435 C1443 0.950 . S
H1436 C1441 0.950 . S
H1437 C1442 0.949 . S
H1438 C1444 0.950 . S
H1439 C1445 0.952 1_554 S
H1440 C1446 0.949 . S
C1441 H1436 0.950 . S
C1441 C1443 1.327 . S
C1441 C1447 1.429 . S
C1442 C1434 1.574 . S
C1442 H1437 0.949 . S
C1442 C1448 1.368 . S
C1443 C1427 1.349 . S
C1443 H1435 0.950 . S
C1443 C1441 1.327 . S
C1444 C1432 1.349 . S
C1444 H1438 0.950 . S
C1444 C1445 1.327 . S
C1445 H1439 0.952 1_556 S
C1445 C1444 1.327 . S
C1445 C1449 1.429 1_556 S
C1446 C1429 1.574 . S
C1446 H1440 0.949 . S
C1446 C1450 1.368 . S
C1447 C1428 1.429 . S
C1447 C1441 1.429 . S
C1447 C1448 1.523 . S
C1448 C1429 1.368 . S
C1448 C1442 1.368 . S
C1448 C1447 1.523 . S
C1449 C1433 1.429 . S
C1449 C1445 1.429 1_554 S
C1449 C1450 1.523 . S
C1450 C1434 1.368 . S
C1450 C1446 1.368 . S
C1450 C1449 1.523 . S
H1451 C1426 0.950 . S
H1452 C1428 0.950 . S
H1453 C1429 0.949 . S
H1454 C1431 0.950 . S
H1455 C1433 0.950 . S
C1456 C1457 1.349 . S
C1456 C1458 1.327 . S
C1456 H1481 0.950 . S
C1457 C1456 1.349 . S
C1457 C1473 1.349 . S
C1458 C1456 1.327 . S
C1458 C1477 1.429 . S
C1458 H1482 0.950 . S
C1459 C1476 1.574 . S
C1459 C1478 1.368 . S
C1459 H1483 0.949 . S
H1460 C1464 0.949 . S
C1461 C1462 1.349 . S
C1461 C1463 1.327 . S
C1461 H1484 0.950 . S
C1462 C1461 1.349 . S
C1462 C1474 1.349 . S
C1463 C1461 1.327 . S
C1463 C1479 1.429 . S
C1463 H1485 0.950 . S
C1464 H1460 0.949 . S
C1464 C1472 1.574 . S
C1464 C1480 1.368 . S
H1465 C1473 0.950 . S
H1466 C1471 0.950 . S
H1467 C1472 0.949 . S
H1468 C1474 0.950 . S
H1469 C1475 0.950 . S
H1470 C1476 0.949 . S
C1471 H1466 0.950 . S
C1471 C1473 1.327 . S
C1471 C1477 1.429 . S
C1472 C1464 1.574 . S
C1472 H1467 0.949 . S
C1472 C1478 1.368 . S
C1473 C1457 1.349 . S
C1473 H1465 0.950 . S
C1473 C1471 1.327 . S
C1474 C1462 1.349 . S
C1474 H1468 0.950 . S
C1474 C1475 1.327 . S
C1475 H1469 0.950 . S
C1475 C1474 1.327 . S
C1475 C1479 1.429 . S
C1476 C1459 1.574 . S
C1476 H1470 0.949 . S
C1476 C1480 1.368 . S
C1477 C1458 1.429 . S
C1477 C1471 1.429 . S
C1477 C1478 1.523 . S
C1478 C1459 1.368 . S
C1478 C1472 1.368 . S
C1478 C1477 1.523 . S
C1479 C1463 1.429 . S
C1479 C1475 1.429 . S
C1479 C1480 1.523 . S
C1480 C1464 1.368 . S
C1480 C1476 1.368 . S
C1480 C1479 1.523 . S
H1481 C1456 0.950 . S
H1482 C1458 0.950 . S
H1483 C1459 0.949 . S
H1484 C1461 0.950 . S
H1485 C1463 0.950 . S
C1486 C1487 1.349 . S
C1486 C1488 1.327 . S
C1486 H1511 0.950 . S
C1487 C1486 1.349 . S
C1487 C1503 1.349 . S
C1488 C1486 1.327 . S
C1488 C1507 1.429 . S
C1488 H1512 0.950 . S
C1489 C1506 1.574 . S
C1489 C1508 1.368 1_554 S
C1489 H1513 0.949 . S
H1490 C1494 0.949 . S
C1491 C1492 1.349 . S
C1491 C1493 1.327 . S
C1491 H1514 0.950 . S
C1492 C1491 1.349 . S
C1492 C1504 1.349 . S
C1493 C1491 1.327 . S
C1493 C1509 1.429 . S
C1493 H1515 0.950 . S
C1494 H1490 0.949 . S
C1494 C1502 1.574 1_554 S
C1494 C1510 1.368 . S
H1495 C1503 0.950 . S
H1496 C1501 0.950 . S
H1497 C1502 0.949 . S
H1498 C1504 0.950 . S
H1499 C1505 0.950 . S
H1500 C1506 0.949 . S
C1501 H1496 0.950 . S
C1501 C1503 1.327 . S
C1501 C1507 1.429 . S
C1502 C1494 1.574 1_556 S
C1502 H1497 0.949 . S
C1502 C1508 1.368 . S
C1503 C1487 1.349 . S
C1503 H1495 0.950 . S
C1503 C1501 1.327 . S
C1504 C1492 1.349 . S
C1504 H1498 0.950 . S
C1504 C1505 1.327 . S
C1505 H1499 0.950 . S
C1505 C1504 1.327 . S
C1505 C1509 1.429 . S
C1506 C1489 1.574 . S
C1506 H1500 0.949 . S
C1506 C1510 1.368 . S
C1507 C1488 1.429 . S
C1507 C1501 1.429 . S
C1507 C1508 1.523 . S
C1508 C1489 1.368 1_556 S
C1508 C1502 1.368 . S
C1508 C1507 1.523 . S
C1509 C1493 1.429 . S
C1509 C1505 1.429 . S
C1509 C1510 1.523 . S
C1510 C1494 1.368 . S
C1510 C1506 1.368 . S
C1510 C1509 1.523 . S
H1511 C1486 0.950 . S
H1512 C1488 0.950 . S
H1513 C1489 0.949 . S
H1514 C1491 0.950 . S
H1515 C1493 0.950 . S
C1516 C1517 1.349 . S
C1516 C1518 1.327 . S
C1516 H1541 0.950 . S
C1517 C1516 1.349 . S
C1517 C1533 1.349 . S
C1518 C1516 1.327 . S
C1518 C1537 1.429 . S
C1518 H1542 0.950 . S
C1519 C1536 1.574 . S
C1519 C1538 1.368 . S
C1519 H1543 0.949 . S
H1520 C1524 0.949 . S
C1521 C1522 1.349 . S
C1521 C1523 1.327 . S
C1521 H1544 0.950 . S
C1522 C1521 1.349 . S
C1522 C1534 1.349 . S
C1523 C1521 1.327 . S
C1523 C1539 1.429 . S
C1523 H1545 0.950 . S
C1524 H1520 0.949 . S
C1524 C1532 1.574 . S
C1524 C1540 1.368 . S
H1525 C1533 0.950 . S
H1526 C1531 0.950 . S
H1527 C1532 0.949 . S
H1528 C1534 0.950 . S
H1529 C1535 0.950 . S
H1530 C1536 0.949 . S
C1531 H1526 0.950 . S
C1531 C1533 1.327 . S
C1531 C1537 1.429 . S
C1532 C1524 1.574 . S
C1532 H1527 0.949 . S
C1532 C1538 1.368 . S
C1533 C1517 1.349 . S
C1533 H1525 0.950 . S
C1533 C1531 1.327 . S
C1534 C1522 1.349 . S
C1534 H1528 0.950 . S
C1534 C1535 1.327 . S
C1535 H1529 0.950 . S
C1535 C1534 1.327 . S
C1535 C1539 1.429 . S
C1536 C1519 1.574 . S
C1536 H1530 0.949 . S
C1536 C1540 1.368 . S
C1537 C1518 1.429 . S
C1537 C1531 1.429 . S
C1537 C1538 1.523 . S
C1538 C1519 1.368 . S
C1538 C1532 1.368 . S
C1538 C1537 1.523 . S
C1539 C1523 1.429 . S
C1539 C1535 1.429 . S
C1539 C1540 1.523 . S
C1540 C1524 1.368 . S
C1540 C1536 1.368 . S
C1540 C1539 1.523 . S
H1541 C1516 0.950 . S
H1542 C1518 0.950 . S
H1543 C1519 0.949 . S
H1544 C1521 0.950 . S
H1545 C1523 0.950 . S
C1546 C1547 1.349 . S
C1546 C1548 1.327 . S
C1546 H1571 0.950 . S
C1547 C1546 1.349 . S
C1547 C1563 1.349 . S
C1548 C1546 1.327 . S
C1548 C1567 1.429 . S
C1548 H1572 0.950 . S
C1549 C1566 1.574 . S
C1549 C1568 1.368 . S
C1549 H1573 0.949 . S
H1550 C1554 0.949 . S
C1551 C1552 1.349 . S
C1551 C1553 1.327 . S
C1551 H1574 0.950 . S
C1552 C1551 1.349 . S
C1552 C1564 1.349 . S
C1553 C1551 1.327 . S
C1553 C1569 1.429 . S
C1553 H1575 0.950 . S
C1554 H1550 0.949 . S
C1554 C1562 1.574 . S
C1554 C1570 1.368 . S
H1555 C1563 0.950 . S
H1556 C1561 0.950 . S
H1557 C1562 0.949 . S
H1558 C1564 0.950 . S
H1559 C1565 0.950 . S
H1560 C1566 0.949 . S
C1561 H1556 0.950 . S
C1561 C1563 1.327 . S
C1561 C1567 1.429 . S
C1562 C1554 1.574 . S
C1562 H1557 0.949 . S
C1562 C1568 1.368 . S
C1563 C1547 1.349 . S
C1563 H1555 0.950 . S
C1563 C1561 1.327 . S
C1564 C1552 1.349 . S
C1564 H1558 0.950 . S
C1564 C1565 1.327 . S
C1565 H1559 0.950 . S
C1565 C1564 1.327 . S
C1565 C1569 1.429 . S
C1566 C1549 1.574 . S
C1566 H1560 0.949 . S
C1566 C1570 1.368 . S
C1567 C1548 1.429 . S
C1567 C1561 1.429 . S
C1567 C1568 1.523 1_556 S
C1568 C1549 1.368 . S
C1568 C1562 1.368 . S
C1568 C1567 1.523 1_554 S
C1569 C1553 1.429 . S
C1569 C1565 1.429 . S
C1569 C1570 1.523 . S
C1570 C1554 1.368 . S
C1570 C1566 1.368 . S
C1570 C1569 1.523 . S
H1571 C1546 0.950 . S
H1572 C1548 0.950 . S
H1573 C1549 0.949 . S
H1574 C1551 0.950 . S
H1575 C1553 0.950 . S
C1576 C1577 1.349 . S
C1576 C1578 1.327 . S
C1576 H1601 0.950 . S
C1577 C1576 1.349 . S
C1577 C1593 1.349 . S
C1578 C1576 1.327 . S
C1578 C1597 1.429 . S
C1578 H1602 0.950 . S
C1579 C1596 1.574 . S
C1579 C1598 1.368 . S
C1579 H1603 0.949 . S
H1580 C1584 0.949 . S
C1581 C1582 1.349 . S
C1581 C1583 1.327 . S
C1581 H1604 0.950 . S
C1582 C1581 1.349 . S
C1582 C1594 1.349 . S
C1583 C1581 1.327 . S
C1583 C1599 1.429 . S
C1583 H1605 0.950 . S
C1584 H1580 0.949 . S
C1584 C1592 1.574 . S
C1584 C1600 1.368 . S
H1585 C1593 0.950 . S
H1586 C1591 0.950 . S
H1587 C1592 0.949 . S
H1588 C1594 0.950 . S
H1589 C1595 0.950 . S
H1590 C1596 0.949 . S
C1591 H1586 0.950 . S
C1591 C1593 1.327 . S
C1591 C1597 1.429 . S
C1592 C1584 1.574 . S
C1592 H1587 0.949 . S
C1592 C1598 1.368 . S
C1593 C1577 1.349 . S
C1593 H1585 0.950 . S
C1593 C1591 1.327 . S
C1594 C1582 1.349 . S
C1594 H1588 0.950 . S
C1594 C1595 1.327 . S
C1595 H1589 0.950 . S
C1595 C1594 1.327 . S
C1595 C1599 1.429 . S
C1596 C1579 1.574 . S
C1596 H1590 0.949 . S
C1596 C1600 1.368 . S
C1597 C1578 1.429 . S
C1597 C1591 1.429 . S
C1597 C1598 1.523 . S
C1598 C1579 1.368 . S
C1598 C1592 1.368 . S
C1598 C1597 1.523 . S
C1599 C1583 1.429 . S
C1599 C1595 1.429 . S
C1599 C1600 1.523 . S
C1600 C1584 1.368 . S
C1600 C1596 1.368 . S
C1600 C1599 1.523 . S
H1601 C1576 0.950 . S
H1602 C1578 0.950 . S
H1603 C1579 0.949 . S
H1604 C1581 0.950 . S
H1605 C1583 0.950 . S
C1606 C1607 1.349 . S
C1606 C1608 1.327 . S
C1606 H1631 0.950 . S
C1607 C1606 1.349 . S
C1607 C1623 1.349 . S
C1608 C1606 1.327 . S
C1608 C1627 1.429 . S
C1608 H1632 0.950 . S
C1609 C1626 1.574 . S
C1609 C1628 1.368 . S
C1609 H1633 0.949 . S
H1610 C1614 0.949 . S
C1611 C1612 1.349 . S
C1611 C1613 1.327 . S
C1611 H1634 0.950 . S
C1612 C1611 1.349 . S
C1612 C1624 1.349 . S
C1613 C1611 1.327 . S
C1613 C1629 1.429 . S
C1613 H1635 0.950 . S
C1614 H1610 0.949 . S
C1614 C1622 1.574 . S
C1614 C1630 1.368 . S
H1615 C1623 0.950 . S
H1616 C1621 0.950 . S
H1617 C1622 0.949 . S
H1618 C1624 0.950 . S
H1619 C1625 0.950 . S
H1620 C1626 0.949 . S
C1621 H1616 0.950 . S
C1621 C1623 1.327 . S
C1621 C1627 1.429 . S
C1622 C1614 1.574 . S
C1622 H1617 0.949 . S
C1622 C1628 1.368 . S
C1623 C1607 1.349 . S
C1623 H1615 0.950 . S
C1623 C1621 1.327 . S
C1624 C1612 1.349 . S
C1624 H1618 0.950 . S
C1624 C1625 1.327 . S
C1625 H1619 0.950 . S
C1625 C1624 1.327 . S
C1625 C1629 1.429 . S
C1626 C1609 1.574 . S
C1626 H1620 0.949 . S
C1626 C1630 1.368 . S
C1627 C1608 1.429 . S
C1627 C1621 1.429 . S
C1627 C1628 1.523 . S
C1628 C1609 1.368 . S
C1628 C1622 1.368 . S
C1628 C1627 1.523 . S
C1629 C1613 1.429 . S
C1629 C1625 1.429 . S
C1629 C1630 1.523 . S
C1630 C1614 1.368 . S
C1630 C1626 1.368 . S
C1630 C1629 1.523 . S
H1631 C1606 0.950 . S
H1632 C1608 0.950 . S
H1633 C1609 0.949 . S
H1634 C1611 0.950 . S
H1635 C1613 0.950 . S
C1636 C1637 1.349 . S
C1636 C1638 1.327 . S
C1636 H1661 0.950 . S
C1637 C1636 1.349 . S
C1637 C1653 1.349 . S
C1638 C1636 1.327 . S
C1638 C1657 1.429 . S
C1638 H1662 0.950 . S
C1639 C1656 1.574 . S
C1639 C1658 1.368 . S
C1639 H1663 0.949 . S
H1640 C1644 0.949 . S
C1641 C1642 1.349 . S
C1641 C1643 1.327 . S
C1641 H1664 0.950 . S
C1642 C1641 1.349 . S
C1642 C1654 1.349 . S
C1643 C1641 1.327 . S
C1643 C1659 1.429 . S
C1643 H1665 0.950 . S
C1644 H1640 0.949 . S
C1644 C1652 1.574 . S
C1644 C1660 1.368 . S
H1645 C1653 0.950 . S
H1646 C1651 0.950 . S
H1647 C1652 0.949 . S
H1648 C1654 0.950 . S
H1649 C1655 0.950 . S
H1650 C1656 0.949 . S
C1651 H1646 0.950 . S
C1651 C1653 1.327 . S
C1651 C1657 1.429 . S
C1652 C1644 1.574 . S
C1652 H1647 0.949 . S
C1652 C1658 1.368 . S
C1653 C1637 1.349 . S
C1653 H1645 0.950 . S
C1653 C1651 1.327 . S
C1654 C1642 1.349 . S
C1654 H1648 0.950 . S
C1654 C1655 1.327 . S
C1655 H1649 0.950 . S
C1655 C1654 1.327 . S
C1655 C1659 1.429 . S
C1656 C1639 1.574 . S
C1656 H1650 0.949 . S
C1656 C1660 1.368 . S
C1657 C1638 1.429 . S
C1657 C1651 1.429 . S
C1657 C1658 1.523 . S
C1658 C1639 1.368 . S
C1658 C1652 1.368 . S
C1658 C1657 1.523 . S
C1659 C1643 1.429 . S
C1659 C1655 1.429 . S
C1659 C1660 1.523 . S
C1660 C1644 1.368 . S
C1660 C1656 1.368 . S
C1660 C1659 1.523 . S
H1661 C1636 0.950 . S
H1662 C1638 0.950 . S
H1663 C1639 0.949 . S
H1664 C1641 0.950 . S
H1665 C1643 0.950 . S
C1666 C1667 1.349 . S
C1666 C1668 1.327 . S
C1666 H1691 0.950 . S
C1667 C1666 1.349 . S
C1667 C1683 1.349 . S
C1668 C1666 1.327 . S
C1668 C1687 1.429 . S
C1668 H1692 0.950 . S
C1669 C1686 1.574 . S
C1669 C1688 1.368 . S
C1669 H1693 0.949 . S
H1670 C1674 0.949 . S
C1671 C1672 1.349 . S
C1671 C1673 1.327 . S
C1671 H1694 0.950 . S
C1672 C1671 1.349 . S
C1672 C1684 1.349 . S
C1673 C1671 1.327 . S
C1673 C1689 1.429 . S
C1673 H1695 0.950 . S
C1674 H1670 0.949 . S
C1674 C1682 1.574 . S
C1674 C1690 1.368 . S
H1675 C1683 0.950 . S
H1676 C1681 0.950 . S
H1677 C1682 0.949 . S
H1678 C1684 0.950 . S
H1679 C1685 0.950 . S
H1680 C1686 0.949 . S
C1681 H1676 0.950 . S
C1681 C1683 1.327 . S
C1681 C1687 1.429 . S
C1682 C1674 1.574 . S
C1682 H1677 0.949 . S
C1682 C1688 1.368 . S
C1683 C1667 1.349 . S
C1683 H1675 0.950 . S
C1683 C1681 1.327 . S
C1684 C1672 1.349 . S
C1684 H1678 0.950 . S
C1684 C1685 1.327 . S
C1685 H1679 0.950 . S
C1685 C1684 1.327 . S
C1685 C1689 1.429 . S
C1686 C1669 1.574 . S
C1686 H1680 0.949 . S
C1686 C1690 1.368 . S
C1687 C1668 1.429 . S
C1687 C1681 1.429 . S
C1687 C1688 1.523 . S
C1688 C1669 1.368 . S
C1688 C1682 1.368 . S
C1688 C1687 1.523 . S
C1689 C1673 1.429 . S
C1689 C1685 1.429 . S
C1689 C1690 1.523 . S
C1690 C1674 1.368 . S
C1690 C1686 1.368 . S
C1690 C1689 1.523 . S
H1691 C1666 0.950 . S
H1692 C1668 0.950 . S
H1693 C1669 0.949 . S
H1694 C1671 0.950 . S
H1695 C1673 0.950 . S
C1696 C1697 1.349 . S
C1696 C1698 1.327 . S
C1696 H1721 0.950 . S
C1697 C1696 1.349 . S
C1697 C1713 1.349 . S
C1698 C1696 1.327 . S
C1698 C1717 1.429 . S
C1698 H1722 0.950 . S
C1699 C1716 1.574 . S
C1699 C1718 1.368 . S
C1699 H1723 0.949 . S
H1700 C1704 0.949 . S
C1701 C1702 1.349 . S
C1701 C1703 1.327 . S
C1701 H1724 0.950 . S
C1702 C1701 1.349 . S
C1702 C1714 1.349 . S
C1703 C1701 1.327 . S
C1703 C1719 1.429 . S
C1703 H1725 0.950 . S
C1704 H1700 0.949 . S
C1704 C1712 1.574 . S
C1704 C1720 1.368 . S
H1705 C1713 0.950 . S
H1706 C1711 0.950 . S
H1707 C1712 0.949 . S
H1708 C1714 0.950 . S
H1709 C1715 0.950 . S
H1710 C1716 0.949 . S
C1711 H1706 0.950 . S
C1711 C1713 1.327 . S
C1711 C1717 1.429 . S
C1712 C1704 1.574 . S
C1712 H1707 0.949 . S
C1712 C1718 1.368 . S
C1713 C1697 1.349 . S
C1713 H1705 0.950 . S
C1713 C1711 1.327 . S
C1714 C1702 1.349 . S
C1714 H1708 0.950 . S
C1714 C1715 1.327 . S
C1715 H1709 0.950 . S
C1715 C1714 1.327 . S
C1715 C1719 1.429 . S
C1716 C1699 1.574 . S
C1716 H1710 0.949 . S
C1716 C1720 1.368 . S
C1717 C1698 1.429 . S
C1717 C1711 1.429 . S
C1717 C1718 1.523 . S
C1718 C1699 1.368 . S
C1718 C1712 1.368 . S
C1718 C1717 1.523 . S
C1719 C1703 1.429 . S
C1719 C1715 1.429 . S
C1719 C1720 1.523 . S
C1720 C1704 1.368 . S
C1720 C1716 1.368 . S
C1720 C1719 1.523 . S
H1721 C1696 0.950 . S
H1722 C1698 0.950 . S
H1723 C1699 0.949 . S
H1724 C1701 0.950 . S
H1725 C1703 0.950 . S
C1726 C1727 1.349 . S
C1726 C1728 1.327 . S
C1726 H1751 0.950 . S
C1727 C1726 1.349 . S
C1727 C1743 1.349 . S
C1728 C1726 1.327 . S
C1728 C1747 1.429 . S
C1728 H1752 0.950 . S
C1729 C1746 1.574 . S
C1729 C1748 1.368 . S
C1729 H1753 0.949 . S
H1730 C1734 0.949 . S
C1731 C1732 1.349 . S
C1731 C1733 1.327 . S
C1731 H1754 0.950 . S
C1732 C1731 1.349 . S
C1732 C1744 1.349 . S
C1733 C1731 1.327 . S
C1733 C1749 1.429 . S
C1733 H1755 0.950 . S
C1734 H1730 0.949 . S
C1734 C1742 1.574 . S
C1734 C1750 1.368 . S
H1735 C1743 0.950 . S
H1736 C1741 0.950 . S
H1737 C1742 0.949 . S
H1738 C1744 0.950 . S
H1739 C1745 0.950 . S
H1740 C1746 0.949 . S
C1741 H1736 0.950 . S
C1741 C1743 1.327 . S
C1741 C1747 1.429 . S
C1742 C1734 1.574 . S
C1742 H1737 0.949 . S
C1742 C1748 1.368 . S
C1743 C1727 1.349 . S
C1743 H1735 0.950 . S
C1743 C1741 1.327 . S
C1744 C1732 1.349 . S
C1744 H1738 0.950 . S
C1744 C1745 1.327 . S
C1745 H1739 0.950 . S
C1745 C1744 1.327 . S
C1745 C1749 1.429 . S
C1746 C1729 1.574 . S
C1746 H1740 0.949 . S
C1746 C1750 1.368 . S
C1747 C1728 1.429 . S
C1747 C1741 1.429 . S
C1747 C1748 1.523 . S
C1748 C1729 1.368 . S
C1748 C1742 1.368 . S
C1748 C1747 1.523 . S
C1749 C1733 1.429 . S
C1749 C1745 1.429 . S
C1749 C1750 1.523 . S
C1750 C1734 1.368 . S
C1750 C1746 1.368 . S
C1750 C1749 1.523 . S
H1751 C1726 0.950 . S
H1752 C1728 0.950 . S
H1753 C1729 0.949 . S
H1754 C1731 0.950 . S
H1755 C1733 0.950 . S
C1756 C1757 1.349 . S
C1756 C1758 1.327 . S
C1756 H1781 0.950 . S
C1757 C1756 1.349 . S
C1757 C1773 1.349 . S
C1758 C1756 1.327 . S
C1758 C1777 1.429 . S
C1758 H1782 0.950 . S
C1759 C1776 1.574 . S
C1759 C1778 1.368 . S
C1759 H1783 0.949 . S
H1760 C1764 0.949 . S
C1761 C1762 1.349 . S
C1761 C1763 1.327 . S
C1761 H1784 0.950 . S
C1762 C1761 1.349 . S
C1762 C1774 1.349 . S
C1763 C1761 1.327 . S
C1763 C1779 1.429 . S
C1763 H1785 0.950 . S
C1764 H1760 0.949 . S
C1764 C1772 1.574 . S
C1764 C1780 1.368 . S
H1765 C1773 0.950 . S
H1766 C1771 0.950 . S
H1767 C1772 0.949 . S
H1768 C1774 0.950 . S
H1769 C1775 0.950 . S
H1770 C1776 0.949 . S
C1771 H1766 0.950 . S
C1771 C1773 1.327 . S
C1771 C1777 1.429 . S
C1772 C1764 1.574 . S
C1772 H1767 0.949 . S
C1772 C1778 1.368 . S
C1773 C1757 1.349 . S
C1773 H1765 0.950 . S
C1773 C1771 1.327 . S
C1774 C1762 1.349 . S
C1774 H1768 0.950 . S
C1774 C1775 1.327 . S
C1775 H1769 0.950 . S
C1775 C1774 1.327 . S
C1775 C1779 1.429 . S
C1776 C1759 1.574 . S
C1776 H1770 0.949 . S
C1776 C1780 1.368 . S
C1777 C1758 1.429 . S
C1777 C1771 1.429 . S
C1777 C1778 1.523 . S
C1778 C1759 1.368 . S
C1778 C1772 1.368 . S
C1778 C1777 1.523 . S
C1779 C1763 1.429 . S
C1779 C1775 1.429 . S
C1779 C1780 1.523 . S
C1780 C1764 1.368 . S
C1780 C1776 1.368 . S
C1780 C1779 1.523 . S
H1781 C1756 0.950 . S
H1782 C1758 0.950 . S
H1783 C1759 0.949 . S
H1784 C1761 0.950 . S
H1785 C1763 0.950 . S
C1786 C1787 1.349 . S
C1786 C1788 1.327 . S
C1786 H1811 0.950 . S
C1787 C1786 1.349 . S
C1787 C1803 1.349 . S
C1788 C1786 1.327 . S
C1788 C1807 1.429 . S
C1788 H1812 0.950 . S
C1789 C1806 1.574 . S
C1789 C1808 1.368 . S
C1789 H1813 0.949 . S
H1790 C1794 0.949 . S
C1791 C1792 1.349 1_545 S
C1791 C1793 1.327 . S
C1791 H1814 0.950 . S
C1792 C1791 1.349 1_565 S
C1792 C1804 1.349 . S
C1793 C1791 1.327 . S
C1793 C1809 1.429 . S
C1793 H1815 0.950 . S
C1794 H1790 0.949 . S
C1794 C1802 1.574 . S
C1794 C1810 1.368 . S
H1795 C1803 0.950 . S
H1796 C1801 0.950 . S
H1797 C1802 0.949 . S
H1798 C1804 0.950 . S
H1799 C1805 0.942 1_565 S
H1800 C1806 0.949 . S
C1801 H1796 0.950 . S
C1801 C1803 1.327 . S
C1801 C1807 1.429 . S
C1802 C1794 1.574 . S
C1802 H1797 0.949 . S
C1802 C1808 1.368 . S
C1803 C1787 1.349 . S
C1803 H1795 0.950 . S
C1803 C1801 1.327 . S
C1804 C1792 1.349 . S
C1804 H1798 0.950 . S
C1804 C1805 1.289 1_565 S
C1805 H1799 0.942 1_545 S
C1805 C1804 1.289 1_545 S
C1805 C1809 1.476 . S
C1806 C1789 1.574 . S
C1806 H1800 0.949 . S
C1806 C1810 1.368 . S
C1807 C1788 1.429 . S
C1807 C1801 1.429 . S
C1807 C1808 1.523 . S
C1808 C1789 1.368 . S
C1808 C1802 1.368 . S
C1808 C1807 1.523 . S
C1809 C1793 1.429 . S
C1809 C1805 1.476 . S
C1809 C1810 1.523 . S
C1810 C1794 1.368 . S
C1810 C1806 1.368 . S
C1810 C1809 1.523 . S
H1811 C1786 0.950 . S
H1812 C1788 0.950 . S
H1813 C1789 0.949 . S
H1814 C1791 0.950 . S
H1815 C1793 0.950 . S
C382 C216 1.426 . S
C377 N66 1.413 . S
C412 C231 1.765 . S
C407 N79 1.772 . S
C437 N92 1.969 . S
C442 C244 1.985 . S
C472 C258 1.328 . S
C467 N54 1.379 . S
C502 C270 1.719 . S
C497 N131 1.798 . S
C532 C284 0.881 . S
C527 N158 0.888 . S
C557 N145 1.802 . S
C562 C298 1.761 . S
C592 C313 1.665 . S
C587 N118 1.681 . S
C617 N148 2.059 . S
C622 C329 2.017 . S
C652 C342 1.460 . S
C647 N122 1.443 . S
C677 N132 1.468 . S
C682 C327 1.396 . S
C712 C340 1.454 . S
C707 N161 1.428 . S
C737 N96 2.332 . S
C742 C356 2.351 . S
C767 N53 1.720 . S
C772 C355 1.697 . S
C797 N67 1.247 . S
C802 C354 1.198 . S
C827 N83 1.229 . S
C832 C357 1.252 1_655 S
C857 N44 1.646 . S
C862 C259 1.668 . S
C887 N187 1.437 . S
C892 C257 1.442 . S
C922 C217 1.175 . S
C917 N197 1.173 . S
C952 C228 1.488 . S
C947 N106 1.512 . S
C977 N57 1.931 . S
C982 C273 1.958 . S
C1012 C314 1.885 . S
C1007 N144 1.875 . S
C1042 C271 1.357 . S
C1037 N119 1.344 . S
C1072 C299 1.690 . S
C1067 N157 1.704 . S
C1102 C300 1.426 . S
C1097 N183 1.413 . S
C1127 N196 1.772 . S
C1132 C315 1.765 . S
C1157 N105 1.969 . S
C1162 C272 1.985 . S
C1192 C286 1.328 . S
C1187 N171 1.379 . S
C1217 N40 1.798 . S
C1222 C242 1.719 . S
C1252 C256 0.881 . S
C1247 N2 0.888 . S
C1282 C214 1.761 . S
C1277 N15 1.802 . S
C1312 C229 1.665 . S
C1307 N27 1.681 . S
C1337 N18 2.059 . S
C1342 C343 2.017 . S
C1367 N31 1.443 . S
C1372 C328 1.459 . S
C1397 N41 1.468 . S
C1402 C341 1.396 . S
C1427 N5 1.428 . S
C1432 C326 1.454 . S
C1462 C370 2.351 . S
C1457 N109 2.332 . S
C1492 C369 1.697 . S
C1487 N170 1.720 . S
C1522 C368 1.198 . S
C1517 N184 1.247 . S
C1547 N200 1.229 . S
C1552 C371 1.252 . S
C1577 N135 1.646 . S
C1582 C287 1.668 . S
C1612 C285 1.442 . S
C1607 N70 1.437 . S
C1642 C301 1.175 . S
C1637 N80 1.173 . S
C1672 C312 1.488 . S
C1667 N93 1.512 . S
C1697 N174 1.931 . S
C1702 C245 1.958 . S
C1732 C230 1.885 . S
C1727 N14 1.875 . S
C1757 N28 1.344 . S
C1762 C243 1.357 . S
C1792 C215 1.690 . S
C1787 N1 1.704 . S
