# Generated by pormake.
# Topology zzz, (3,6)-cn, num edge types: 1
# Building blocks:
#     Node 0, Type 0, BuildingBlock: ESEHIV_clean_linker_0, # of connection points: 3
#     Node 1, Type 0, BuildingBlock: ESEHIV_clean_linker_0, # of connection points: 3
#     Node 2, Type 0, BuildingBlock: ESEHIV_clean_linker_0, # of connection points: 3
#     Node 3, Type 0, BuildingBlock: ESEHIV_clean_linker_0, # of connection points: 3
#     Node 4, Type 0, BuildingBlock: ESEHIV_clean_linker_0, # of connection points: 3
#     Node 5, Type 0, BuildingBlock: ESEHIV_clean_linker_0, # of connection points: 3
#     Node 6, Type 0, BuildingBlock: ESEHIV_clean_linker_0, # of connection points: 3
#     Node 7, Type 0, BuildingBlock: ESEHIV_clean_linker_0, # of connection points: 3
#     Node 8, Type 1, BuildingBlock: INOVEN_clean_sbu_0, # of connection points: 6
#     Node 9, Type 1, BuildingBlock: INOVEN_clean_sbu_0, # of connection points: 6
#     Node 10, Type 1, BuildingBlock: INOVEN_clean_sbu_0, # of connection points: 6
#     Node 11, Type 1, BuildingBlock: INOVEN_clean_sbu_0, # of connection points: 6
#     Edge 12, Type (0, 1), BuildingBlock: UVAHIK_clean_linker_0, # of connection points: 2
#     Edge 13, Type (0, 1), BuildingBlock: UVAHIK_clean_linker_0, # of connection points: 2
#     Edge 14, Type (0, 1), BuildingBlock: UVAHIK_clean_linker_0, # of connection points: 2
#     Edge 15, Type (0, 1), BuildingBlock: UVAHIK_clean_linker_0, # of connection points: 2
#     Edge 16, Type (0, 1), BuildingBlock: UVAHIK_clean_linker_0, # of connection points: 2
#     Edge 17, Type (0, 1), BuildingBlock: UVAHIK_clean_linker_0, # of connection points: 2
#     Edge 18, Type (0, 1), BuildingBlock: UVAHIK_clean_linker_0, # of connection points: 2
#     Edge 19, Type (0, 1), BuildingBlock: UVAHIK_clean_linker_0, # of connection points: 2
#     Edge 20, Type (0, 1), BuildingBlock: UVAHIK_clean_linker_0, # of connection points: 2
#     Edge 21, Type (0, 1), BuildingBlock: UVAHIK_clean_linker_0, # of connection points: 2
#     Edge 22, Type (0, 1), BuildingBlock: UVAHIK_clean_linker_0, # of connection points: 2
#     Edge 23, Type (0, 1), BuildingBlock: UVAHIK_clean_linker_0, # of connection points: 2
#     Edge 24, Type (0, 1), BuildingBlock: UVAHIK_clean_linker_0, # of connection points: 2
#     Edge 25, Type (0, 1), BuildingBlock: UVAHIK_clean_linker_0, # of connection points: 2
#     Edge 26, Type (0, 1), BuildingBlock: UVAHIK_clean_linker_0, # of connection points: 2
#     Edge 27, Type (0, 1), BuildingBlock: UVAHIK_clean_linker_0, # of connection points: 2
#     Edge 28, Type (0, 1), BuildingBlock: UVAHIK_clean_linker_0, # of connection points: 2
#     Edge 29, Type (0, 1), BuildingBlock: UVAHIK_clean_linker_0, # of connection points: 2
#     Edge 30, Type (0, 1), BuildingBlock: UVAHIK_clean_linker_0, # of connection points: 2
#     Edge 31, Type (0, 1), BuildingBlock: UVAHIK_clean_linker_0, # of connection points: 2
#     Edge 32, Type (0, 1), BuildingBlock: UVAHIK_clean_linker_0, # of connection points: 2
#     Edge 33, Type (0, 1), BuildingBlock: UVAHIK_clean_linker_0, # of connection points: 2
#     Edge 34, Type (0, 1), BuildingBlock: UVAHIK_clean_linker_0, # of connection points: 2
#     Edge 35, Type (0, 1), BuildingBlock: UVAHIK_clean_linker_0, # of connection points: 2
# Relax obj value: 0.429
# Max RMSD: 0.269
# Mean RMSD: 0.251
data_MOF--net-zzz--node1-INOVEN_clean_sbu_0--node2-ESEHIV_clean_linker_0--edge1-UVAHIK_clean_linker_0
_symmetry_space_group_name_H-M    P1
_symmetry_Int_Tables_number       1
_symmetry_cell_setting            triclinic
loop_
_symmetry_equiv_pos_as_xyz
'x, y, z'
_cell_length_a     60.130831
_cell_length_b     60.104151
_cell_length_c     18.514405
_cell_angle_alpha  89.696155
_cell_angle_beta   90.019811
_cell_angle_gamma 90.079315
loop_
_atom_site_label
_atom_site_type_symbol
_atom_site_fract_x
_atom_site_fract_y
_atom_site_fract_z
_atom_type_partial_charge
H0 H 0.78068 0.47907 0.25194 0.0
H1 H 0.71781 0.47132 0.14662 0.0
H2 H 0.72149 0.50476 0.35235 0.0
C3 C 0.7628 0.48149 0.25168 0.0
C4 C 0.75266 0.49247 0.3095 0.0
C5 C 0.75029 0.47378 0.19328 0.0
C6 C 0.72728 0.47671 0.19326 0.0
C7 C 0.71657 0.48788 0.25006 0.0
C8 C 0.72941 0.49586 0.30864 0.0
H9 H 0.06474 0.77062 0.29817 0.0
H10 H 0.05408 0.7136 0.1651 0.0
H11 H 0.01097 0.72536 0.34711 0.0
C12 C 0.05585 0.75522 0.28819 0.0
C13 C 0.03754 0.74943 0.33163 0.0
C14 C 0.06173 0.74251 0.22814 0.0
C15 C 0.04968 0.72329 0.21227 0.0
C16 C 0.03165 0.71675 0.25552 0.0
C17 C 0.02527 0.73003 0.31479 0.0
H18 H 0.74043 0.06134 0.34059 0.0
H19 H 0.79682 0.0669 0.20046 0.0
H20 H 0.79198 0.01203 0.35171 0.0
C21 C 0.75666 0.05548 0.32356 0.0
C22 C 0.76503 0.03576 0.35332 0.0
C23 C 0.76797 0.0667 0.26831 0.0
C24 C 0.78843 0.05843 0.24452 0.0
C25 C 0.79768 0.03896 0.27492 0.0
C26 C 0.78555 0.02735 0.32884 0.0
H27 H 0.45312 0.74274 0.29016 0.0
H28 H 0.49887 0.79366 0.36037 0.0
H29 H 0.45956 0.80291 0.1675 0.0
C30 C 0.46028 0.75923 0.28436 0.0
C31 C 0.45434 0.77216 0.22452 0.0
C32 C 0.47639 0.7666 0.33383 0.0
C33 C 0.48637 0.78768 0.32302 0.0
C34 C 0.47984 0.80106 0.26372 0.0
C35 C 0.46409 0.793 0.21441 0.0
H36 H 0.24462 0.5696 0.08881 0.0
H37 H 0.30293 0.56151 0.21889 0.0
H38 H 0.29217 0.51846 0.03656 0.0
C39 C 0.26052 0.56154 0.09776 0.0
C40 C 0.26695 0.54371 0.05363 0.0
C41 C 0.27329 0.56787 0.15737 0.0
C42 C 0.2932 0.55682 0.17198 0.0
C43 C 0.30033 0.53929 0.12797 0.0
C44 C 0.28701 0.53241 0.06934 0.0
H45 H 0.94877 0.23907 0.10569 0.0
H46 H 0.95086 0.29841 0.23169 0.0
H47 H 0.99682 0.29 0.05444 0.0
C48 C 0.95564 0.25552 0.11486 0.0
C49 C 0.9734 0.26307 0.07206 0.0
C50 C 0.94758 0.26812 0.17236 0.0
C51 C 0.95698 0.28891 0.18623 0.0
C52 C 0.97443 0.29734 0.14331 0.0
C53 C 0.98309 0.284 0.08703 0.0
H54 H 0.27294 0.94925 0.07914 0.0
H55 H 0.2174 0.9526 0.22344 0.0
H56 H 0.22551 1.00255 0.0574 0.0
C57 C 0.25733 0.95694 0.09446 0.0
C58 C 0.25041 0.97647 0.05912 0.0
C59 C 0.24571 0.9484 0.15391 0.0
C60 C 0.22626 0.95898 0.17667 0.0
C61 C 0.21863 0.97823 0.1413 0.0
C62 C 0.23095 0.98728 0.08322 0.0
H63 H 0.56928 0.2757 0.07097 0.0
H64 H 0.52047 0.22376 0.05233 0.0
H65 H 0.57289 0.21898 0.21136 0.0
C66 C 0.56332 0.25932 0.08663 0.0
C67 C 0.57359 0.24806 0.14391 0.0
C68 C 0.54416 0.25083 0.05365 0.0
C69 C 0.53542 0.23024 0.0772 0.0
C70 C 0.54624 0.21809 0.13269 0.0
C71 C 0.56513 0.22741 0.16602 0.0
Gd72 Gd 0.02423 1.00055 0.76934 0.0
Gd73 Gd 0.99363 0.01115 0.65352 0.0
C74 C 0.00802 0.96092 0.6622 0.0
C75 C 0.0462 0.98445 0.87772 0.0
C76 C 0.06148 0.96582 0.88994 0.0
C77 C 0.07597 0.96635 0.94909 0.0
C78 C 0.06163 0.94743 0.84359 0.0
C79 C 0.08933 0.9293 0.91945 0.0
C80 C 0.07542 0.92928 0.85832 0.0
C81 C 0.08983 0.94826 0.9637 0.0
C82 C 0.04504 0.01274 0.64472 0.0
C83 C 0.00968 0.05072 0.75996 0.0
C84 C 0.97159 0.02868 0.54799 0.0
C85 C 0.95798 0.04901 0.54009 0.0
C86 C 0.93472 0.04736 0.53478 0.0
C87 C 0.96791 0.07017 0.5391 0.0
C88 C 0.93159 0.08768 0.52699 0.0
C89 C 0.95488 0.08924 0.53241 0.0
C90 C 0.92164 0.06649 0.5286 0.0
C91 C 0.97279 0.99861 0.77741 0.0
O92 O 0.01464 0.96604 0.72826 0.0
O93 O 1.00213 0.97677 0.6166 0.0
O94 O 0.05372 1.00047 0.83658 0.0
O95 O 0.02552 0.97921 0.86372 0.0
O96 O 0.05122 0.01888 0.70847 0.0
O97 O 0.02844 1.00007 0.6498 0.0
O98 O 1.00357 0.04556 0.69357 0.0
O99 O 0.01504 0.03484 0.80608 0.0
O100 O 0.96344 0.01315 0.58994 0.0
O101 O 0.99303 0.0314 0.55658 0.0
O102 O 0.96675 0.99262 0.71334 0.0
O103 O 0.98936 0.01142 0.77325 0.0
H104 H 0.07625 0.98057 0.9848 0.0
H105 H 0.05071 0.94687 0.79712 0.0
H106 H 0.07444 0.91485 0.82364 0.0
H107 H 0.10057 0.94889 0.01062 0.0
H108 H 0.92663 0.03124 0.53552 0.0
H109 H 0.98578 0.07209 0.543 0.0
H110 H 0.96321 0.10521 0.52959 0.0
H111 H 0.90376 0.06467 0.525 0.0
Gd112 Gd 0.51248 0.02556 0.76675 0.0
Gd113 Gd 0.50091 0.99561 0.63345 0.0
C114 C 0.55282 1.00726 0.66441 0.0
C115 C 0.52794 0.04391 0.882 0.0
C116 C 0.54718 0.05821 0.89937 0.0
C117 C 0.54366 0.08002 0.92366 0.0
C118 C 0.56906 0.05045 0.8916 0.0
C119 C 0.58361 0.08597 0.93349 0.0
C120 C 0.58704 0.06413 0.90875 0.0
C121 C 0.56168 0.0938 0.94028 0.0
C122 C 0.50214 0.04745 0.64271 0.0
C123 C 0.46213 0.01119 0.74312 0.0
C124 C 0.48854 0.98184 0.5084 0.0
C125 C 0.47155 0.96603 0.48421 0.0
C126 C 0.47264 0.95708 0.41466 0.0
C127 C 0.45423 0.95967 0.53066 0.0
C128 C 0.43825 0.93662 0.4362 0.0
C129 C 0.43768 0.94514 0.50681 0.0
C130 C 0.45614 0.94246 0.3908 0.0
C131 C 0.50194 0.97025 0.75625 0.0
O132 O 0.5469 0.0181 0.72358 0.0
O133 O 0.53807 0.99824 0.62009 0.0
O134 O 0.51248 0.05303 0.84193 0.0
O135 O 0.5321 0.02323 0.8644 0.0
O136 O 0.49719 0.05448 0.70678 0.0
O137 O 0.5134 0.02984 0.64767 0.0
O138 O 0.46734 1.0072 0.67476 0.0
O139 O 0.47759 0.01492 0.79249 0.0
O140 O 0.50523 0.97304 0.54402 0.0
O141 O 0.48101 1.00025 0.53744 0.0
O142 O 0.49736 0.96242 0.69289 0.0
O143 O 0.5055 0.9907 0.74931 0.0
H144 H 0.52693 0.08641 0.92989 0.0
H145 H 0.57237 0.03373 0.87295 0.0
H146 H 0.60363 0.0573 0.90437 0.0
H147 H 0.55841 0.11057 0.95854 0.0
H148 H 0.4861 0.96162 0.37854 0.0
H149 H 0.45328 0.96629 0.58491 0.0
H150 H 0.42401 0.94127 0.54284 0.0
H151 H 0.45722 0.93596 0.33646 0.0
Gd152 Gd 0.48995 0.51207 0.75106 0.0
Gd153 Gd 0.52409 0.50415 0.64324 0.0
C154 C 0.50794 0.55377 0.65442 0.0
C155 C 0.46464 0.52626 0.85402 0.0
C156 C 0.45061 0.54582 0.86586 0.0
C157 C 0.43564 0.54597 0.9237 0.0
C158 C 0.45226 0.5645 0.8205 0.0
C159 C 0.42547 0.5842 0.89489 0.0
C160 C 0.43985 0.58358 0.83501 0.0
C161 C 0.4231 0.56498 0.93804 0.0
C162 C 0.4732 0.50057 0.6202 0.0
C163 C 0.50624 0.46242 0.7405 0.0
C164 C 0.54903 0.4897 0.53997 0.0
C165 C 0.56289 0.46991 0.52692 0.0
C166 C 0.58521 0.47262 0.50667 0.0
C167 C 0.55413 0.44835 0.53395 0.0
C168 C 0.5896 0.43246 0.49714 0.0
C169 C 0.5673 0.42985 0.5189 0.0
C170 C 0.59848 0.45408 0.49217 0.0
C171 C 0.54084 0.51594 0.77361 0.0
O172 O 0.4995 0.54734 0.71708 0.0
O173 O 0.51579 0.53894 0.60893 0.0
O174 O 0.45784 0.51265 0.80397 0.0
O175 O 0.48607 0.52992 0.85151 0.0
O176 O 0.46581 0.49319 0.68137 0.0
O177 O 0.48901 0.51394 0.63091 0.0
O178 O 0.51545 0.46881 0.67888 0.0
O179 O 0.49776 0.4772 0.78494 0.0
O180 O 0.55615 0.5033 0.58969 0.0
O181 O 0.52746 0.48672 0.54196 0.0
O182 O 0.54826 0.52312 0.71215 0.0
O183 O 0.52505 0.50245 0.76358 0.0
H184 H 0.43397 0.53154 0.95863 0.0
H185 H 0.46353 0.56456 0.77498 0.0
H186 H 0.44228 0.59814 0.80119 0.0
H187 H 0.41192 0.56481 0.9839 0.0
H188 H 0.59235 0.48911 0.50145 0.0
H189 H 0.53699 0.44572 0.5499 0.0
H190 H 0.5597 0.41353 0.52206 0.0
H191 H 0.61563 0.45673 0.47651 0.0
Gd192 Gd 1.00529 0.49331 0.74248 0.0
Gd193 Gd 0.01334 0.52596 0.63079 0.0
C194 C 0.9638 0.50937 0.64187 0.0
C195 C 0.98951 0.46896 0.84547 0.0
C196 C 0.97025 0.454 0.84687 0.0
C197 C 0.96194 0.44504 0.78233 0.0
C198 C 0.95871 0.4505 0.91143 0.0
C199 C 0.9296 0.4307 0.84619 0.0
C200 C 0.93854 0.43898 0.91118 0.0
C201 C 0.94186 0.43336 0.78206 0.0
C202 C 0.01749 0.4746 0.61534 0.0
C203 C 0.05457 0.51013 0.73253 0.0
C204 C 0.02772 0.55005 0.5242 0.0
C205 C 0.04683 0.56457 0.50996 0.0
C206 C 0.04659 0.57857 0.44934 0.0
C207 C 0.06545 0.56437 0.55561 0.0
C208 C 0.08427 0.59078 0.47643 0.0
C209 C 0.08406 0.57735 0.53891 0.0
C210 C 0.06514 0.59162 0.43272 0.0
C211 C 1.0009 0.5443 0.7584 0.0
O212 O 0.97005 0.50123 0.70511 0.0
O213 O 0.97871 0.51729 0.59641 0.0
O214 O 1.00606 0.46273 0.8046 0.0
O215 O 0.98469 0.49005 0.83794 0.0
O216 O 0.02438 0.46818 0.67822 0.0
O217 O 1.00407 0.49057 0.62223 0.0
O218 O 0.04851 0.51735 0.66785 0.0
O219 O 0.03944 0.50302 0.77867 0.0
O220 O 0.01358 0.55723 0.5721 0.0
O221 O 0.03205 0.52883 0.53129 0.0
O222 O 0.99383 0.5508 0.6958 0.0
O223 O 0.01457 0.52862 0.75083 0.0
H224 H 0.97058 0.44778 0.73167 0.0
H225 H 0.96478 0.45754 0.96148 0.0
H226 H 0.92939 0.43771 0.96139 0.0
H227 H 0.93559 0.42707 0.73127 0.0
H228 H 0.03221 0.57909 0.41406 0.0
H229 H 0.06581 0.5538 0.60311 0.0
H230 H 0.0986 0.57613 0.57323 0.0
H231 H 0.06468 0.60202 0.38479 0.0
C232 C 0.19996 1.00476 0.2246 0.0
C233 C 0.1983 0.98892 0.16951 0.0
C234 C 0.18115 0.01077 0.26464 0.0
C235 C 0.12712 0.98678 0.31999 0.0
H236 H 0.11807 0.04455 0.40719 0.0
C237 C 0.08002 0.0255 0.58371 0.0
C238 C 0.05976 0.01387 0.5806 0.0
C239 C 0.09496 0.02488 0.52575 0.0
C240 C 0.12042 0.02828 0.38353 0.0
H241 H 0.17583 0.96748 0.11098 0.0
H242 H 0.14276 0.97845 0.17894 0.0
H243 H 0.14749 0.03972 0.31767 0.0
H244 H 0.03883 0.99323 0.51313 0.0
H245 H 0.06481 0.99227 0.41163 0.0
H246 H 0.10042 0.9752 0.38668 0.0
C247 C 0.15856 0.98607 0.19226 0.0
C248 C 0.1373 0.02551 0.33212 0.0
C249 C 0.17739 0.98 0.15256 0.0
C250 C 0.05438 1.00226 0.51726 0.0
C251 C 0.06934 1.00161 0.45929 0.0
C252 C 0.11025 0.98956 0.37118 0.0
C253 C 0.1603 1.00095 0.25054 0.0
C254 C 0.14108 1.00464 0.3003 0.0
C255 C 0.09 0.0126 0.46323 0.0
C256 C 0.10685 0.01026 0.40442 0.0
H257 H 0.21604 0.01144 0.23962 0.0
H258 H 0.18326 0.02207 0.30947 0.0
H259 H 0.12974 0.97034 0.29796 0.0
H260 H 0.08462 0.03461 0.6318 0.0
H261 H 0.11077 0.03336 0.53115 0.0
C262 C 0.5526 0.17957 0.18139 0.0
C263 C 0.5376 0.19634 0.16034 0.0
C264 C 0.54532 0.1608 0.21938 0.0
C265 C 0.49822 0.14235 0.33578 0.0
H266 H 0.53322 0.08832 0.343 0.0
C267 C 0.4958 0.08439 0.58394 0.0
C268 C 0.50129 0.0618 0.57746 0.0
C269 C 0.497 0.09869 0.52425 0.0
C270 C 0.52288 0.10303 0.34124 0.0
H271 H 0.50276 0.20546 0.15779 0.0
H272 H 0.4898 0.1721 0.22085 0.0
H273 H 0.54035 0.11562 0.24924 0.0
H274 H 0.51138 0.0362 0.50262 0.0
H275 H 0.5124 0.06082 0.39723 0.0
H276 H 0.48009 0.12934 0.42578 0.0
C277 C 0.50743 0.1739 0.21062 0.0
C278 C 0.52728 0.11902 0.28781 0.0
C279 C 0.5148 0.19293 0.17329 0.0
C280 C 0.50715 0.05358 0.50924 0.0
C281 C 0.50794 0.06781 0.44897 0.0
C282 C 0.49349 0.12615 0.38823 0.0
C283 C 0.52269 0.1579 0.23644 0.0
C284 C 0.51557 0.13931 0.28575 0.0
C285 C 0.5033 0.09073 0.45578 0.0
C286 C 0.50626 0.10656 0.3935 0.0
H287 H 0.57024 0.18138 0.17102 0.0
H288 H 0.55777 0.14919 0.2384 0.0
H289 H 0.4888 0.15767 0.3368 0.0
H290 H 0.49133 0.09128 0.6359 0.0
H291 H 0.49375 0.11617 0.53287 0.0
C292 C 0.321 0.51045 0.19772 0.0
C293 C 0.32134 0.52809 0.14785 0.0
C294 C 0.3405 0.50401 0.23358 0.0
C295 C 0.39332 0.52927 0.29248 0.0
H296 H 0.40576 0.46993 0.36463 0.0
C297 C 0.46525 0.51333 0.49331 0.0
C298 C 0.45984 0.49984 0.55298 0.0
C299 C 0.45107 0.5144 0.43323 0.0
C300 C 0.40249 0.48662 0.34511 0.0
H301 H 0.34224 0.55223 0.0937 0.0
H302 H 0.37652 0.54058 0.15421 0.0
H303 H 0.37618 0.47547 0.2759 0.0
H304 H 0.43591 0.47612 0.59512 0.0
H305 H 0.41117 0.47807 0.49108 0.0
H306 H 0.41912 0.54055 0.36297 0.0
C307 C 0.36121 0.53184 0.16664 0.0
C308 C 0.38552 0.4898 0.29415 0.0
C309 C 0.34169 0.53831 0.13109 0.0
C310 C 0.44051 0.48671 0.55001 0.0
C311 C 0.42638 0.48774 0.49003 0.0
C312 C 0.41027 0.5261 0.3433 0.0
C313 C 0.36072 0.51521 0.2205 0.0
C314 C 0.38043 0.51123 0.26809 0.0
C315 C 0.43122 0.50193 0.4314 0.0
C316 C 0.41482 0.5048 0.37139 0.0
H317 H 0.30537 0.50272 0.21274 0.0
H318 H 0.33935 0.49131 0.27512 0.0
H319 H 0.38969 0.54608 0.27488 0.0
H320 H 0.48009 0.52357 0.49392 0.0
H321 H 0.4555 0.52527 0.38865 0.0
C322 C 1.00615 0.32371 0.17047 0.0
C323 C 0.98329 0.31987 0.16079 0.0
C324 C 0.01365 0.34362 0.20184 0.0
C325 C 0.99339 0.39957 0.26897 0.0
H326 H 0.04149 0.39214 0.40582 0.0
C327 C 0.01146 0.46736 0.48295 0.0
C328 C 0.01833 0.4599 0.55134 0.0
C329 C 0.01098 0.45273 0.42405 0.0
C330 C 0.0278 0.39453 0.36865 0.0
H331 H 0.95062 0.33473 0.1701 0.0
H332 H 0.96326 0.36848 0.22686 0.0
H333 H 0.03318 0.3626 0.32181 0.0
H334 H 0.03034 0.43133 0.61154 0.0
H335 H 0.02837 0.40574 0.51142 0.0
H336 H 0.98669 0.43059 0.32 0.0
C337 C 0.97572 0.35663 0.20992 0.0
C338 C 0.02331 0.37762 0.3189 0.0
C339 C 0.96833 0.33701 0.1779 0.0
C340 C 0.02508 0.43767 0.5594 0.0
C341 C 0.02415 0.42297 0.50126 0.0
C342 C 0.99751 0.41623 0.3199 0.0
C343 C 0.99843 0.36005 0.22466 0.0
C344 C 1.00559 0.37955 0.26954 0.0
C345 C 0.01693 0.43014 0.43254 0.0
C346 C 0.01439 0.41373 0.37204 0.0
H347 H 0.01811 0.31086 0.15766 0.0
H348 H 0.03133 0.34575 0.21031 0.0
H349 H 0.98007 0.4022 0.23056 0.0
H350 H 1.0063 0.48447 0.4751 0.0
H351 H 1.00578 0.45919 0.37208 0.0
C352 C 0.82295 1.0081 0.23161 0.0
C353 C 0.81942 0.03075 0.24641 0.0
C354 C 0.84211 1.00121 0.19457 0.0
C355 C 0.89729 0.02218 0.12333 0.0
H356 H 0.88854 0.97559 0.98257 0.0
C357 C 0.96502 1.00357 0.90967 0.0
C358 C 0.95765 0.99762 0.84047 0.0
C359 C 0.95012 1.00413 0.96795 0.0
C360 C 0.89129 0.98885 0.02088 0.0
H361 H 0.83426 0.06359 0.239 0.0
H362 H 0.8666 0.052 0.17193 0.0
H363 H 0.85939 0.98357 0.06869 0.0
H364 H 0.92898 0.98729 0.77813 0.0
H365 H 0.90292 0.98935 0.87764 0.0
H366 H 0.92838 0.02872 0.07182 0.0
C367 C 0.85501 0.03929 0.18937 0.0
C368 C 0.87461 0.99315 0.0717 0.0
C369 C 0.83613 0.04607 0.22713 0.0
C370 C 0.93522 0.99183 0.83095 0.0
C371 C 0.92025 0.99283 0.88862 0.0
C372 C 0.91375 0.01822 0.0715 0.0
C373 C 0.85813 0.01682 0.17088 0.0
C374 C 0.8771 0.01025 0.12279 0.0
C375 C 0.92736 0.99919 0.9581 0.0
C376 C 0.91084 1.0018 0.01832 0.0
H377 H 0.81048 0.99581 0.24567 0.0
H378 H 0.84406 0.98368 0.18313 0.0
H379 H 0.90029 0.03506 0.16281 0.0
H380 H 0.98228 1.00797 0.91862 0.0
H381 H 0.9565 0.00861 0.02056 0.0
C382 C 0.47564 0.84211 0.26367 0.0
C383 C 0.489 0.8235 0.24972 0.0
C384 C 0.47973 0.86238 0.22857 0.0
C385 C 0.51839 0.89343 0.10656 0.0
H386 H 0.46374 0.91172 0.01216 0.0
C387 C 0.51127 0.96467 0.88805 0.0
C388 C 0.50132 0.9571 0.82399 0.0
C389 C 0.51095 0.95135 0.95071 0.0
C390 C 0.4791 0.90699 0.03867 0.0
H391 H 0.51783 0.81168 0.19182 0.0
H392 H 0.52525 0.84717 0.13087 0.0
H393 H 0.46247 0.88381 0.10788 0.0
H394 H 0.48302 0.92995 0.77537 0.0
H395 H 0.4819 0.90715 0.88454 0.0
H396 H 0.53499 0.91631 0.03481 0.0
C397 C 0.51177 0.84628 0.16956 0.0
C398 C 0.47839 0.89112 0.09399 0.0
C399 C 0.50763 0.82597 0.2047 0.0
C400 C 0.49082 0.93623 0.82393 0.0
C401 C 0.49011 0.9232 0.8865 0.0
C402 C 0.51906 0.90963 0.05164 0.0
C403 C 0.49719 0.86438 0.17832 0.0
C404 C 0.49806 0.88371 0.12753 0.0
C405 C 0.50021 0.93053 0.95049 0.0
C406 C 0.49946 0.91609 0.01585 0.0
H407 H 0.46094 0.84047 0.29716 0.0
H408 H 0.46836 0.87607 0.23724 0.0
H409 H 0.53382 0.88813 0.13145 0.0
H410 H 0.51955 0.98066 0.88939 0.0
H411 H 0.51885 0.95738 0.99941 0.0
C412 C 0.67824 0.47533 0.21775 0.0
C413 C 0.69236 0.49239 0.24202 0.0
C414 C 0.65745 0.48025 0.18815 0.0
C415 C 0.62984 0.52741 0.0944 0.0
H416 H 0.58381 0.48302 0.06809 0.0
C417 C 0.57529 0.52686 0.83999 0.0
C418 C 0.55401 0.51724 0.84117 0.0
C419 C 0.58881 0.52642 0.90138 0.0
C420 C 0.59619 0.49589 0.07546 0.0
H421 H 0.69469 0.52776 0.26169 0.0
H422 H 0.6578 0.53639 0.21343 0.0
H423 H 0.61166 0.47771 0.16136 0.0
H424 H 0.52975 0.5005 0.90869 0.0
H425 H 0.55301 0.50045 0.01719 0.0
H426 H 0.61401 0.54592 0.01013 0.0
C427 C 0.66317 0.51921 0.21437 0.0
C428 C 0.6125 0.49266 0.12858 0.0
C429 C 0.68419 0.51426 0.24338 0.0
C430 C 0.54617 0.50792 0.9061 0.0
C431 C 0.55962 0.50776 0.96812 0.0
C432 C 0.61331 0.53084 0.04229 0.0
C433 C 0.64997 0.5024 0.18284 0.0
C434 C 0.63013 0.50792 0.13695 0.0
C435 C 0.58133 0.51668 0.96638 0.0
C436 C 0.59674 0.51472 0.02989 0.0
H437 H 0.68403 0.45827 0.2165 0.0
H438 H 0.64809 0.46673 0.16452 0.0
H439 H 0.64304 0.5396 0.09834 0.0
H440 H 0.58187 0.53411 0.79073 0.0
H441 H 0.60549 0.53306 0.89667 0.0
C442 C 0.0282 0.67549 0.2555 0.0
C443 C 0.0197 0.69627 0.2344 0.0
C444 C 0.02213 0.65618 0.21827 0.0
C445 C 0.98394 0.63332 0.07696 0.0
H446 H 0.03555 0.59826 0.02513 0.0
C447 C 0.01112 0.55279 0.88704 0.0
C448 C 0.99916 0.55819 0.82415 0.0
C449 C 0.01101 0.56713 0.94657 0.0
C450 C 0.02082 0.60752 0.03992 0.0
H451 H 0.99768 0.71317 0.16003 0.0
H452 H 0.98684 0.67954 0.09526 0.0
H453 H 0.0391 0.6274 0.11482 0.0
H454 H 0.97704 0.5824 0.77535 0.0
H455 H 0.97706 0.60749 0.87822 0.0
H456 H 0.96581 0.61372 1.00051 0.0
C457 C 0.99789 0.67794 0.14119 0.0
C458 C 0.02285 0.6243 0.09166 0.0
C459 C 1.00398 0.69724 0.17848 0.0
C460 C 0.98646 0.57779 0.82301 0.0
C461 C 0.98635 0.59212 0.88236 0.0
C462 C 0.9819 0.61648 0.02523 0.0
C463 C 1.0076 0.65728 0.15866 0.0
C464 C 1.00455 0.63771 0.11004 0.0
C465 C 0.99892 0.58721 0.9446 0.0
C466 C 1.00041 0.60361 0.00496 0.0
H467 H 0.04072 0.67443 0.29747 0.0
H468 H 0.02968 0.64053 0.23398 0.0
H469 H 0.96943 0.6431 0.09038 0.0
H470 H 0.02098 0.53773 0.88967 0.0
H471 H 0.0206 0.56259 0.99388 0.0
C472 C 0.93574 0.25649 0.29595 0.0
C473 C 0.93099 0.2582 0.22194 0.0
C474 C 0.92321 0.24235 0.3401 0.0
C475 C 0.89511 0.21009 0.4266 0.0
H476 H 0.89426 0.15435 0.32254 0.0
C477 C 0.92425 0.1283 0.54662 0.0
C478 C 0.91813 0.10807 0.51442 0.0
C479 C 0.91483 0.14828 0.52327 0.0
C480 C 0.89362 0.1697 0.35279 0.0
H481 H 0.90789 0.24885 0.13764 0.0
H482 H 0.8856 0.22451 0.21508 0.0
H483 H 0.89704 0.18875 0.25633 0.0
H484 H 0.89534 0.09276 0.4384 0.0
H485 H 0.8783 0.1275 0.39985 0.0
H486 H 0.89315 0.19059 0.5236 0.0
C487 C 0.89936 0.23355 0.23873 0.0
C488 C 0.89523 0.18962 0.31444 0.0
C489 C 0.91207 0.24748 0.19442 0.0
C490 C 0.9006 0.10802 0.46414 0.0
C491 C 0.89095 0.12801 0.44147 0.0
C492 C 0.89343 0.19007 0.46515 0.0
C493 C 0.90562 0.22979 0.311 0.0
C494 C 0.89723 0.20997 0.35094 0.0
C495 C 0.89886 0.14846 0.46772 0.0
C496 C 0.89391 0.16958 0.42871 0.0
H497 H 0.9503 0.26455 0.31841 0.0
H498 H 0.92866 0.2398 0.39527 0.0
H499 H 0.89614 0.22554 0.45625 0.0
H500 H 0.93723 0.12886 0.58715 0.0
H501 H 0.92141 0.16364 0.54491 0.0
C502 C 0.26488 0.9117 0.16607 0.0
C503 C 0.25639 0.93096 0.19843 0.0
C504 C 0.28096 0.89893 0.20165 0.0
C505 C 0.31666 0.89803 0.36963 0.0
H506 H 0.36358 0.8917 0.22785 0.0
C507 C 0.40805 0.9079 0.4522 0.0
C508 C 0.41921 0.92347 0.40818 0.0
C509 C 0.3882 0.89808 0.42896 0.0
C510 C 0.35067 0.89323 0.26831 0.0
H511 H 0.25609 0.95072 0.29573 0.0
H512 H 0.28454 0.92927 0.35662 0.0
H513 H 0.32534 0.89324 0.18824 0.0
H514 H 0.41872 0.94015 0.30403 0.0
H515 H 0.38438 0.92336 0.26397 0.0
H516 H 0.3424 0.90054 0.44875 0.0
C517 C 0.27871 0.9234 0.3048 0.0
C518 C 0.32855 0.89376 0.24572 0.0
C519 C 0.26234 0.93586 0.26978 0.0
C520 C 0.41078 0.92801 0.33895 0.0
C521 C 0.39101 0.91825 0.31583 0.0
C522 C 0.33886 0.8979 0.39209 0.0
C523 C 0.28926 0.90561 0.26932 0.0
C524 C 0.31132 0.8976 0.29562 0.0
C525 C 0.37912 0.90364 0.36124 0.0
C526 C 0.35614 0.89691 0.34103 0.0
H527 H 0.26032 0.90749 0.11119 0.0
H528 H 0.28812 0.8849 0.1736 0.0
H529 H 0.30381 0.90021 0.40992 0.0
H530 H 0.41434 0.90378 0.50543 0.0
H531 H 0.37961 0.88668 0.46489 0.0
C532 C 0.60758 0.27213 0.15183 0.0
C533 C 0.5909 0.25967 0.18661 0.0
C534 C 0.62 0.28776 0.19029 0.0
C535 C 0.62876 0.31244 0.37348 0.0
H536 H 0.61871 0.36763 0.26951 0.0
C537 C 0.59979 0.39206 0.5091 0.0
C538 C 0.60278 0.41274 0.47461 0.0
C539 C 0.60874 0.37273 0.47954 0.0
C540 C 0.62237 0.35253 0.29927 0.0
H541 H 0.57574 0.25214 0.2901 0.0
H542 H 0.59712 0.27943 0.35687 0.0
H543 H 0.61676 0.33285 0.20571 0.0
H544 H 0.61954 0.42952 0.38577 0.0
H545 H 0.63592 0.39598 0.33621 0.0
H546 H 0.63318 0.33233 0.46809 0.0
C547 C 0.60088 0.27709 0.30022 0.0
C548 C 0.62124 0.33242 0.26236 0.0
C549 C 0.58854 0.26142 0.26183 0.0
C550 C 0.61679 0.41391 0.41385 0.0
C551 C 0.626 0.3946 0.38484 0.0
C552 C 0.63003 0.33265 0.4105 0.0
C553 C 0.61585 0.29129 0.26409 0.0
C554 C 0.62333 0.3121 0.29962 0.0
C555 C 0.62117 0.37364 0.41522 0.0
C556 C 0.62573 0.35287 0.37443 0.0
H557 H 0.61 0.27082 0.09403 0.0
H558 H 0.63174 0.29815 0.16124 0.0
H559 H 0.63081 0.29705 0.40343 0.0
H560 H 0.58962 0.39062 0.55718 0.0
H561 H 0.60456 0.35695 0.50457 0.0
C562 C 0.25663 0.60475 0.18725 0.0
C563 C 0.26375 0.58361 0.2097 0.0
C564 C 0.24245 0.61722 0.23104 0.0
C565 C 0.20997 0.61392 0.40588 0.0
H566 H 0.1626 0.63488 0.28123 0.0
C567 C 0.11934 0.61224 0.50308 0.0
C568 C 0.10508 0.60198 0.45302 0.0
C569 C 0.14025 0.62012 0.48148 0.0
C570 C 0.17567 0.62915 0.31705 0.0
H571 H 0.26331 0.55958 0.29696 0.0
H572 H 0.23782 0.58043 0.3715 0.0
H573 H 0.1994 0.62998 0.23218 0.0
H574 H 0.10133 0.59255 0.34078 0.0
H575 H 0.13747 0.60578 0.30356 0.0
H576 H 0.18538 0.61062 0.48846 0.0
C577 C 0.2435 0.58809 0.3218 0.0
C578 C 0.19705 0.62667 0.28916 0.0
C579 C 0.2581 0.57594 0.27884 0.0
C580 C 0.11171 0.60071 0.38051 0.0
C581 C 0.13253 0.60844 0.35907 0.0
C582 C 0.18841 0.61588 0.43332 0.0
C583 C 0.23451 0.60839 0.29685 0.0
C584 C 0.21422 0.61767 0.33201 0.0
C585 C 0.14732 0.61778 0.40948 0.0
C586 C 0.17075 0.62218 0.38781 0.0
H587 H 0.26099 0.61102 0.13414 0.0
H588 H 0.23658 0.6331 0.21093 0.0
H589 H 0.22292 0.60784 0.44148 0.0
H590 H 0.11455 0.6137 0.55924 0.0
H591 H 0.15109 0.62746 0.52155 0.0
C592 C 0.07136 0.75756 0.10725 0.0
C593 C 0.07827 0.75144 0.17678 0.0
C594 C 0.08458 0.77152 0.06484 0.0
C595 C 0.12546 0.81584 0.0994 0.0
H596 H 0.10999 0.82909 0.90074 0.0
C597 C 0.10065 0.90178 0.01371 0.0
C598 C 0.10128 0.90875 0.9413 0.0
C599 C 0.10871 0.88094 0.0337 0.0
C600 C 0.11514 0.8256 0.95567 0.0
H601 H 0.10531 0.75262 0.25365 0.0
H602 H 0.12922 0.77588 0.17787 0.0
H603 H 0.10589 0.79142 0.94622 0.0
H604 H 0.11244 0.90001 0.83379 0.0
H605 H 0.12678 0.86344 0.86893 0.0
H606 H 0.13493 0.84996 0.10855 0.0
C607 C 0.11316 0.77091 0.15701 0.0
C608 C 0.1124 0.80397 0.98228 0.0
C609 C 0.09962 0.75739 0.20025 0.0
C610 C 0.11143 0.89493 0.88991 0.0
C611 C 0.11965 0.874 0.91005 0.0
C612 C 0.12878 0.83728 0.07226 0.0
C613 C 0.1052 0.77938 0.09073 0.0
C614 C 0.11575 0.79926 0.05608 0.0
C615 C 0.11775 0.86648 0.9819 0.0
C616 C 0.12192 0.84283 1.0019 0.0
H617 H 0.05487 0.75323 0.0883 0.0
H618 H 0.07755 0.77764 0.01477 0.0
H619 H 0.12859 0.81311 0.15629 0.0
H620 H 0.09263 0.91182 0.0545 0.0
H621 H 0.1064 0.87568 0.08921 0.0
C622 C 0.7543 0.0843 0.15427 0.0
C623 C 0.75663 0.08512 0.22967 0.0
C624 C 0.73863 0.09769 0.11936 0.0
C625 C 0.703 0.12721 0.05423 0.0
H626 H 0.64881 0.11483 0.16034 0.0
C627 C 0.62334 0.09822 0.92004 0.0
C628 C 0.60289 0.09978 0.95641 0.0
C629 C 0.64253 0.10762 0.94938 0.0
C630 C 0.66362 0.11919 0.13014 0.0
H631 H 0.74667 0.10258 0.32644 0.0
H632 H 0.71937 0.12616 0.26535 0.0
H633 H 0.68411 0.11217 0.2212 0.0
H634 H 0.5862 0.1146 0.04834 0.0
H635 H 0.61946 0.13178 0.09772 0.0
H636 H 0.68229 0.13302 0.96192 0.0
C637 C 0.72928 0.11483 0.23341 0.0
C638 C 0.68403 0.11764 0.16537 0.0
C639 C 0.74488 0.10136 0.26836 0.0
C640 C 0.60166 0.11292 0.01891 0.0
C641 C 0.62082 0.12261 0.04774 0.0
C642 C 0.68248 0.12892 0.01894 0.0
C643 C 0.72505 0.11217 0.15926 0.0
C644 C 0.704 0.12046 0.12696 0.0
C645 C 0.64169 0.11908 0.01539 0.0
C646 C 0.66262 0.12371 0.0556 0.0
H647 H 0.76305 0.07188 0.12306 0.0
H648 H 0.73575 0.09508 0.06228 0.0
H649 H 0.71811 0.12987 0.02352 0.0
H650 H 0.62477 0.08879 0.87058 0.0
H651 H 0.65822 0.10444 0.92274 0.0
C652 C 0.44916 0.75574 0.1033 0.0
C653 C 0.43984 0.76247 0.16889 0.0
C654 C 0.43731 0.7417 0.05746 0.0
C655 C 0.39431 0.69851 0.07754 0.0
H656 H 0.414 0.68601 0.88277 0.0
C657 C 0.41518 0.61169 0.98961 0.0
C658 C 0.41497 0.60547 0.91666 0.0
C659 C 0.40857 0.63293 0.01001 0.0
C660 C 0.40772 0.68936 0.93642 0.0
H661 H 0.41034 0.76197 0.23551 0.0
H662 H 0.38893 0.7385 0.15343 0.0
H663 H 0.4191 0.72303 0.93185 0.0
H664 H 0.40609 0.61614 0.80836 0.0
H665 H 0.39442 0.65347 0.8442 0.0
H666 H 0.38289 0.66488 0.08197 0.0
C667 C 0.40569 0.74317 0.13833 0.0
C668 C 0.411 0.71057 0.96513 0.0
C669 C 0.4178 0.75678 0.18508 0.0
C670 C 0.40674 0.62059 0.86494 0.0
C671 C 0.40004 0.64194 0.88546 0.0
C672 C 0.39058 0.67751 0.04829 0.0
C673 C 0.41575 0.73438 0.07593 0.0
C674 C 0.40581 0.71493 0.03785 0.0
C675 C 0.40149 0.64856 0.95806 0.0
C676 C 0.39871 0.67222 0.97938 0.0
H677 H 0.46625 0.75987 0.0903 0.0
H678 H 0.4459 0.73523 0.01074 0.0
H679 H 0.38986 0.70102 0.13352 0.0
H680 H 0.42176 0.60065 0.03075 0.0
H681 H 0.41044 0.63748 0.06619 0.0
C682 C 0.7547 0.44371 0.10064 0.0
C683 C 0.7616 0.4641 0.12999 0.0
C684 C 0.76636 0.43433 0.04284 0.0
C685 C 0.80808 0.44801 0.90184 0.0
H686 H 0.83218 0.38948 0.94208 0.0
C687 C 0.8979 0.41014 0.90406 0.0
C688 C 0.90645 0.42201 0.84471 0.0
C689 C 0.875 0.40735 0.9122 0.0
C690 C 0.82547 0.40574 0.9294 0.0
H691 H 0.78515 0.49125 0.12022 0.0
H692 H 0.80549 0.475 0.02031 0.0
H693 H 0.8001 0.40264 0.00999 0.0
H694 H 0.8978 0.43742 0.74206 0.0
H695 H 0.85806 0.43151 0.75451 0.0
H696 H 0.83457 0.45233 0.82721 0.0
C697 C 0.79111 0.46619 0.04118 0.0
C698 C 0.80691 0.41318 0.9678 0.0
C699 C 0.77969 0.47537 0.09909 0.0
C700 C 0.89185 0.42834 0.78891 0.0
C701 C 0.86895 0.42518 0.79644 0.0
C702 C 0.82671 0.44072 0.86411 0.0
C703 C 0.78477 0.44546 0.01292 0.0
C704 C 0.79903 0.43495 0.95759 0.0
C705 C 0.86016 0.4161 0.86055 0.0
C706 C 0.83655 0.42009 0.88094 0.0
H707 H 0.74074 0.43476 0.12371 0.0
H708 H 0.76119 0.41831 0.02219 0.0
H709 H 0.80197 0.46468 0.89172 0.0
H710 H 0.90877 0.4044 0.94692 0.0
H711 H 0.86904 0.40017 0.96233 0.0
C712 C 0.96621 0.23787 0.96805 0.0
C713 C 0.98167 0.24776 0.01507 0.0
C714 C 0.97158 0.21856 0.93023 0.0
C715 C 0.01429 0.18107 0.8632 0.0
H716 H 0.97374 0.1341 0.92263 0.0
C717 C 0.00823 0.09197 0.73454 0.0
C718 C 0.00892 0.07424 0.78449 0.0
C719 C 1.00696 0.11408 0.75837 0.0
C720 C 0.98519 0.14703 0.90549 0.0
H721 H 0.01556 0.24627 0.0542 0.0
H722 H 0.02527 0.21266 0.98565 0.0
H723 H 0.96821 0.17198 0.96645 0.0
H724 H 0.00881 0.06594 0.89865 0.0
H725 H 1.00588 0.10437 0.93981 0.0
H726 H 0.03097 0.15596 0.80089 0.0
C727 C 0.00889 0.21986 0.979 0.0
C728 C 0.98197 0.16872 0.93027 0.0
C729 C 1.0034 0.23917 0.01778 0.0
C730 C 0.00838 0.07915 0.85867 0.0
C731 C 1.00665 0.10116 0.88234 0.0
C732 C 0.01723 0.15935 0.83696 0.0
C733 C 0.99267 0.20882 0.9376 0.0
C734 C 0.99649 0.18597 0.90965 0.0
C735 C 1.00585 0.11887 0.83254 0.0
C736 C 1.00277 0.14209 0.85835 0.0
H737 H 0.94935 0.24413 0.96482 0.0
H738 H 0.95884 0.21055 0.89811 0.0
H739 H 0.02571 0.19406 0.84653 0.0
H740 H 0.00864 0.08878 0.67703 0.0
H741 H 1.00621 0.12741 0.71881 0.0
C742 C 0.27366 1.00772 0.00844 0.0
C743 C 0.26535 0.98595 1.00256 0.0
C744 C 0.29222 0.01445 0.96771 0.0
C745 C 0.33133 0.996 0.82013 0.0
H746 H 0.37443 0.02922 0.93177 0.0
C747 C 0.42111 0.01164 0.71445 0.0
C748 C 0.43837 0.01109 0.7657 0.0
C749 C 0.39877 0.01157 0.73646 0.0
C750 C 0.36271 0.01974 0.89988 0.0
H751 H 0.26862 0.95492 0.94471 0.0
H752 H 0.30093 0.96627 0.87541 0.0
H753 H 0.33709 0.02412 0.97841 0.0
H754 H 0.44557 0.00965 0.88042 0.0
H755 H 0.40698 0.00873 0.91852 0.0
H756 H 0.35743 0.99036 0.74391 0.0
C757 C 0.29329 0.9784 0.91055 0.0
C758 C 0.34102 0.01718 0.92613 0.0
C759 C 0.27474 0.97178 0.9507 0.0
C760 C 0.43275 0.01033 0.83936 0.0
C761 C 0.41049 0.00999 0.8613 0.0
C762 C 0.35313 0.99833 0.79429 0.0
C763 C 0.30291 0.99953 0.92045 0.0
C764 C 0.32508 1.00487 0.88743 0.0
C765 C 0.3931 0.01068 0.81032 0.0
C766 C 0.36931 0.00984 0.83451 0.0
H767 H 0.26685 0.019 0.0481 0.0
H768 H 0.29874 0.03106 0.97562 0.0
H769 H 0.31952 0.98677 0.78784 0.0
H770 H 0.42482 0.01233 0.65724 0.0
H771 H 0.38597 0.01241 0.69542 0.0
C772 C 0.51289 0.27605 0.01935 0.0
C773 C 0.53276 0.26536 1.00031 0.0
C774 C 0.50586 0.29506 0.98149 0.0
C775 C 0.5091 0.34401 0.93892 0.0
H776 H 0.51457 0.35466 0.73301 0.0
C777 C 0.49257 0.43111 0.81876 0.0
C778 C 0.50627 0.43856 0.76207 0.0
C779 C 0.49304 0.40889 0.84157 0.0
C780 C 0.51318 0.35207 0.79073 0.0
H781 H 0.56002 0.26511 0.92414 0.0
H782 H 0.54754 0.29786 0.85691 0.0
H783 H 0.5191 0.31698 0.78104 0.0
H784 H 0.53107 0.42828 0.68419 0.0
H785 H 0.53247 0.38966 0.72539 0.0
H786 H 0.50418 0.379 0.94969 0.0
C787 C 0.53732 0.2917 0.90085 0.0
C788 C 0.51563 0.3304 0.81818 0.0
C789 C 0.54445 0.27287 0.93913 0.0
C790 C 0.52024 0.4231 0.72788 0.0
C791 C 0.52092 0.40087 0.75134 0.0
C792 C 0.50688 0.36564 0.91169 0.0
C793 C 0.5185 0.30362 0.92358 0.0
C794 C 0.51376 0.32612 0.89272 0.0
C795 C 0.50748 0.39347 0.80908 0.0
C796 C 0.50902 0.37008 0.83723 0.0
H797 H 0.50379 0.27083 0.06702 0.0
H798 H 0.49112 0.30371 0.9998 0.0
H799 H 0.50805 0.34144 0.99677 0.0
H800 H 0.4814 0.44248 0.84576 0.0
H801 H 0.48203 0.40385 0.88492 0.0
C802 C 0.24028 0.55242 0.95344 0.0
C803 C 0.2512 0.53638 0.99615 0.0
C804 C 0.22163 0.54679 0.91239 0.0
C805 C 0.17665 0.50442 0.90954 0.0
H806 H 0.15723 0.53914 0.74427 0.0
C807 C 0.08418 0.50811 0.82785 0.0
C808 C 0.07831 0.51098 0.7549 0.0
C809 C 0.10644 0.50913 0.84971 0.0
C810 C 0.16239 0.52897 0.78968 0.0
H811 H 0.25215 0.50139 0.02419 0.0
H812 H 0.22009 0.49123 0.94986 0.0
H813 H 0.195 0.54324 0.78868 0.0
H814 H 0.09141 0.51692 0.64747 0.0
H815 H 0.13031 0.51799 0.68504 0.0
H816 H 0.14429 0.48967 0.90927 0.0
C817 C 0.2255 0.50841 0.95008 0.0
C818 C 0.1841 0.53158 0.81598 0.0
C819 C 0.24415 0.51413 0.99181 0.0
C820 C 0.09533 0.51473 0.70418 0.0
C821 C 0.11768 0.51547 0.72593 0.0
C822 C 0.15506 0.5016 0.88265 0.0
C823 C 0.21343 0.52484 0.91197 0.0
C824 C 0.19141 0.51977 0.87751 0.0
C825 C 0.12359 0.51275 0.79916 0.0
C826 C 0.14736 0.51425 0.82344 0.0
H827 H 0.24542 0.56969 0.9551 0.0
H828 H 0.2129 0.56004 0.88461 0.0
H829 H 0.1814 0.49512 0.95731 0.0
H830 H 0.07152 0.50539 0.86857 0.0
H831 H 0.11008 0.50749 0.90674 0.0
C832 C 0.04755 0.77459 0.43392 0.0
C833 C 0.03098 0.76524 0.38973 0.0
C834 C 0.04332 0.79374 0.4741 0.0
C835 C 1.00191 0.83129 0.55139 0.0
H836 H 0.04316 0.87793 0.49453 0.0
C837 C 0.0097 0.91955 0.68606 0.0
C838 C 0.0088 0.93748 0.63692 0.0
C839 C 0.01081 0.89753 0.66116 0.0
C840 C 0.03155 0.86508 0.51108 0.0
H841 H 0.99635 0.76757 0.35846 0.0
H842 H 0.98873 0.80087 0.43097 0.0
H843 H 0.04764 0.84042 0.44654 0.0
H844 H 0.00849 0.94624 0.52309 0.0
H845 H 0.01112 0.90802 0.48012 0.0
H846 H 0.98603 0.85615 0.61692 0.0
C847 C 1.00509 0.7934 0.43345 0.0
C848 C 0.03417 0.84358 0.48392 0.0
C849 C 0.00941 0.77426 0.39232 0.0
C850 C 0.00905 0.93287 0.5625 0.0
C851 C 0.01063 0.91097 0.53777 0.0
C852 C 0.99957 0.8528 0.57996 0.0
C853 C 0.02231 0.80386 0.47212 0.0
C854 C 0.01935 0.82646 0.50339 0.0
C855 C 0.01156 0.89306 0.58671 0.0
C856 C 0.01427 0.86995 0.55947 0.0
H857 H 0.06428 0.76791 0.43371 0.0
H858 H 0.05681 0.80124 0.50423 0.0
H859 H 0.99025 0.81841 0.56726 0.0
H860 H 0.00952 0.92252 0.74371 0.0
H861 H 0.01165 0.88403 0.70005 0.0
C862 C 0.74715 0.03293 0.47416 0.0
C863 C 0.75057 0.02384 0.40541 0.0
C864 C 0.72827 0.02724 0.51452 0.0
C865 C 0.67818 0.98986 0.52055 0.0
H866 H 0.65021 0.04206 0.6024 0.0
C867 C 0.58381 0.99459 0.583 0.0
C868 C 0.57683 1.00628 0.64464 0.0
C869 C 0.60623 0.99445 0.5624 0.0
C870 C 0.65787 0.0272 0.58097 0.0
H871 H 0.73756 1.001 0.32612 0.0
H872 H 0.70457 0.99099 0.39603 0.0
H873 H 0.68766 0.04478 0.55412 0.0
H874 H 0.58829 0.0266 0.73382 0.0
H875 H 0.62732 0.02629 0.69797 0.0
H876 H 0.64793 0.97252 0.54563 0.0
C877 C 0.71659 1.00218 0.41993 0.0
C878 C 0.67948 0.02872 0.55335 0.0
C879 C 0.73559 1.00777 0.37986 0.0
C880 C 0.59297 0.01748 0.68588 0.0
C881 C 0.61538 0.0174 0.6651 0.0
C882 C 0.65648 0.98837 0.54801 0.0
C883 C 0.71216 0.01259 0.48642 0.0
C884 C 0.68991 0.01015 0.522 0.0
C885 C 0.6223 1.00605 0.6027 0.0
C886 C 0.64594 1.00709 0.57784 0.0
H887 H 0.75825 0.04568 0.49436 0.0
H888 H 0.72574 0.03522 0.56615 0.0
H889 H 0.6857 0.97513 0.49771 0.0
H890 H 0.57192 0.98574 0.54984 0.0
H891 H 0.61085 0.98575 0.51359 0.0
C892 C 0.5054 0.7448 0.40235 0.0
C893 C 0.48308 0.75103 0.39287 0.0
C894 C 0.51088 0.72615 0.44491 0.0
C895 C 0.4864 0.68338 0.57229 0.0
H896 H 0.531 0.64517 0.4873 0.0
C897 C 0.5027 0.59434 0.68387 0.0
C898 C 0.50759 0.57768 0.63324 0.0
C899 C 0.50214 0.61682 0.66312 0.0
C900 C 0.51833 0.65549 0.51156 0.0
H901 H 0.44923 0.7438 0.42537 0.0
H902 H 0.45851 0.71138 0.49753 0.0
H903 H 0.5256 0.68243 0.43947 0.0
H904 H 0.51555 0.57171 0.5208 0.0
H905 H 0.51383 0.6105 0.48419 0.0
H906 H 0.47811 0.65593 0.64116 0.0
C907 C 0.47199 0.72072 0.47324 0.0
C908 C 0.51551 0.67717 0.48486 0.0
C909 C 0.46659 0.73933 0.43131 0.0
C910 C 0.51191 0.58407 0.56146 0.0
C911 C 0.5111 0.60647 0.54054 0.0
C912 C 0.48902 0.6616 0.59837 0.0
C913 C 0.49413 0.71332 0.47875 0.0
C914 C 0.49918 0.69133 0.51378 0.0
C915 C 0.50622 0.62325 0.59095 0.0
C916 C 0.50473 0.64714 0.56746 0.0
H917 H 0.51847 0.75342 0.37323 0.0
H918 H 0.52818 0.72134 0.44907 0.0
H919 H 0.47395 0.69381 0.59721 0.0
H920 H 0.4994 0.59003 0.73974 0.0
H921 H 0.49865 0.62915 0.70395 0.0
C922 C 0.78324 0.51705 0.35145 0.0
C923 C 0.76744 0.50057 0.36785 0.0
C924 C 0.8018 0.52023 0.39577 0.0
C925 C 0.83709 0.48822 0.52281 0.0
H926 H 0.86865 0.54431 0.53663 0.0
C927 C 0.92415 0.49663 0.65995 0.0
C928 C 0.9399 0.50917 0.62083 0.0
C929 C 0.90169 0.49644 0.63906 0.0
C930 C 0.86008 0.52849 0.53309 0.0
H931 H 0.75809 0.47514 0.44506 0.0
H932 H 0.7902 0.48112 0.52441 0.0
H933 H 0.83106 0.54358 0.48732 0.0
H934 H 0.94424 0.53147 0.52942 0.0
H935 H 0.90527 0.53124 0.49354 0.0
H936 H 0.86631 0.47316 0.56813 0.0
C937 C 0.78844 0.49145 0.47666 0.0
C938 C 0.83849 0.52805 0.50473 0.0
C939 C 0.7698 0.48827 0.43205 0.0
C940 C 0.93261 0.52161 0.56082 0.0
C941 C 0.91019 0.52162 0.54053 0.0
C942 C 0.85865 0.48869 0.55175 0.0
C943 C 0.80513 0.50692 0.45768 0.0
C944 C 0.82684 0.50784 0.49745 0.0
C945 C 0.89441 0.50903 0.57921 0.0
C946 C 0.87064 0.50876 0.55562 0.0
H947 H 0.78205 0.52638 0.30135 0.0
H948 H 0.81429 0.5321 0.37846 0.0
H949 H 0.82889 0.47227 0.51733 0.0
H950 H 0.92918 0.48679 0.70633 0.0
H951 H 0.88998 0.4866 0.6702 0.0
loop_
_geom_bond_atom_site_label_1
_geom_bond_atom_site_label_2
_geom_bond_distance
_geom_bond_site_symmetry_2
_ccdc_geom_bond_type
H0 C3 0.931 . S
H1 C6 0.928 . S
H2 C8 0.930 . S
C3 H0 0.931 . S
C3 C4 1.413 . S
C3 C5 1.360 . S
C4 C3 1.413 . S
C4 C8 1.429 . S
C5 C3 1.360 . S
C5 C6 1.372 . S
C6 H1 0.928 . S
C6 C5 1.372 . S
C6 C7 1.404 . S
C7 C6 1.404 . S
C7 C8 1.391 . S
C8 H2 0.930 . S
C8 C4 1.429 . S
C8 C7 1.391 . S
H9 C12 0.931 . S
H10 C15 0.928 . S
H11 C17 0.930 . S
C12 H9 0.931 . S
C12 C13 1.413 . S
C12 C14 1.360 . S
C13 C12 1.413 . S
C13 C17 1.429 . S
C14 C12 1.360 . S
C14 C15 1.372 . S
C15 H10 0.928 . S
C15 C14 1.372 . S
C15 C16 1.404 . S
C16 C15 1.404 . S
C16 C17 1.391 . S
C17 H11 0.930 . S
C17 C13 1.429 . S
C17 C16 1.391 . S
H18 C21 0.931 . S
H19 C24 0.928 . S
H20 C26 0.930 . S
C21 H18 0.931 . S
C21 C22 1.413 . S
C21 C23 1.360 . S
C22 C21 1.413 . S
C22 C26 1.429 . S
C23 C21 1.360 . S
C23 C24 1.372 . S
C24 H19 0.928 . S
C24 C23 1.372 . S
C24 C25 1.404 . S
C25 C24 1.404 . S
C25 C26 1.391 . S
C26 H20 0.930 . S
C26 C22 1.429 . S
C26 C25 1.391 . S
H27 C30 0.931 . S
H28 C33 0.928 . S
H29 C35 0.930 . S
C30 H27 0.931 . S
C30 C31 1.413 . S
C30 C32 1.360 . S
C31 C30 1.413 . S
C31 C35 1.429 . S
C32 C30 1.360 . S
C32 C33 1.372 . S
C33 H28 0.928 . S
C33 C32 1.372 . S
C33 C34 1.404 . S
C34 C33 1.404 . S
C34 C35 1.391 . S
C35 H29 0.930 . S
C35 C31 1.429 . S
C35 C34 1.391 . S
H36 C39 0.931 . S
H37 C42 0.928 . S
H38 C44 0.930 . S
C39 H36 0.931 . S
C39 C40 1.413 1_554 S
C39 C41 1.360 . S
C40 C39 1.413 1_556 S
C40 C44 1.429 . S
C41 C39 1.360 . S
C41 C42 1.372 . S
C42 H37 0.928 . S
C42 C41 1.372 . S
C42 C43 1.404 . S
C43 C42 1.404 . S
C43 C44 1.391 1_554 S
C44 H38 0.930 . S
C44 C40 1.429 . S
C44 C43 1.391 1_556 S
H45 C48 0.931 . S
H46 C51 0.929 . S
H47 C53 0.930 . S
C48 H45 0.931 . S
C48 C49 1.413 1_554 S
C48 C50 1.360 . S
C49 C48 1.413 1_556 S
C49 C53 1.429 . S
C50 C48 1.360 . S
C50 C51 1.372 . S
C51 H46 0.929 . S
C51 C50 1.372 . S
C51 C52 1.404 . S
C52 C51 1.404 . S
C52 C53 1.391 1_554 S
C53 H47 0.930 . S
C53 C49 1.429 . S
C53 C52 1.391 1_556 S
H54 C57 0.931 . S
H55 C60 0.928 . S
H56 C62 0.930 . S
C57 H54 0.931 . S
C57 C58 1.413 1_554 S
C57 C59 1.360 . S
C58 C57 1.413 1_556 S
C58 C62 1.429 . S
C59 C57 1.360 . S
C59 C60 1.372 . S
C60 H55 0.928 . S
C60 C59 1.372 . S
C60 C61 1.404 . S
C61 C60 1.404 . S
C61 C62 1.391 1_554 S
C62 H56 0.930 . S
C62 C58 1.429 . S
C62 C61 1.391 1_556 S
H63 C66 0.931 . S
H64 C69 0.928 . S
H65 C71 0.930 . S
C66 H63 0.931 . S
C66 C67 1.413 . S
C66 C68 1.360 1_554 S
C67 C66 1.413 . S
C67 C71 1.429 . S
C68 C66 1.360 1_556 S
C68 C69 1.372 . S
C69 H64 0.928 . S
C69 C68 1.372 . S
C69 C70 1.404 1_556 S
C70 C69 1.404 1_554 S
C70 C71 1.391 . S
C71 H65 0.930 . S
C71 C67 1.429 . S
C71 C70 1.391 . S
Gd72 C75 2.818 . S
Gd72 O92 2.377 . S
Gd72 O94 2.448 . S
Gd72 O95 2.506 . S
Gd72 O96 2.435 . S
Gd72 O97 2.717 1_565 S
Gd72 O99 2.395 1_565 S
Gd72 O103 2.327 1_455 S
Gd73 C84 2.818 . S
Gd73 O93 2.395 1_545 S
Gd73 O97 2.327 1_655 S
Gd73 O98 2.377 . S
Gd73 O100 2.448 . S
Gd73 O101 2.506 . S
Gd73 O102 2.435 . S
Gd73 O103 2.717 1_545 S
C74 O92 1.240 1_655 S
C74 O93 1.240 . S
C75 Gd72 2.818 . S
C75 C76 1.510 . S
C75 O94 1.249 . S
C75 O95 1.252 . S
C76 C75 1.510 . S
C76 C77 1.404 . S
C76 C78 1.352 . S
C77 C76 1.404 . S
C77 C81 1.389 . S
C77 H104 0.930 . S
C78 C76 1.352 . S
C78 C80 1.374 . S
C78 H105 0.931 1_455 S
C79 C80 1.359 . S
C79 C81 1.364 . S
C80 C78 1.374 . S
C80 C79 1.359 . S
C80 H106 0.931 1_455 S
C81 C77 1.389 . S
C81 C79 1.364 . S
C81 H107 0.931 . S
C82 O96 1.256 1_545 S
C82 O97 1.257 . S
C83 O98 1.240 1_455 S
C83 O99 1.240 . S
C84 Gd73 2.818 . S
C84 C85 1.510 . S
C84 O100 1.249 . S
C84 O101 1.252 . S
C85 C84 1.510 . S
C85 C86 1.404 . S
C85 C87 1.352 . S
C86 C85 1.404 . S
C86 C90 1.389 . S
C86 H108 0.930 . S
C87 C85 1.352 . S
C87 C89 1.374 . S
C87 H109 0.931 1_655 S
C88 C89 1.359 . S
C88 C90 1.364 . S
C89 C87 1.374 . S
C89 C88 1.359 . S
C89 H110 0.931 1_655 S
C90 C86 1.389 . S
C90 C88 1.364 . S
C90 H111 0.931 . S
C91 O102 1.256 . S
C91 O103 1.257 1_545 S
O92 Gd72 2.377 . S
O92 C74 1.240 1_455 S
O93 Gd73 2.395 1_565 S
O93 C74 1.240 . S
O94 Gd72 2.448 . S
O94 C75 1.249 . S
O95 Gd72 2.506 . S
O95 C75 1.252 . S
O96 Gd72 2.435 . S
O96 C82 1.256 1_565 S
O97 Gd72 2.717 1_545 S
O97 Gd73 2.327 1_455 S
O97 C82 1.257 . S
O98 Gd73 2.377 . S
O98 C83 1.240 1_655 S
O99 Gd72 2.395 1_545 S
O99 C83 1.240 . S
O100 Gd73 2.448 . S
O100 C84 1.249 . S
O101 Gd73 2.506 . S
O101 C84 1.252 . S
O102 Gd73 2.435 . S
O102 C91 1.256 . S
O103 Gd72 2.327 1_655 S
O103 Gd73 2.717 1_565 S
O103 C91 1.257 1_565 S
H104 C77 0.930 . S
H105 C78 0.931 1_655 S
H106 C80 0.931 1_655 S
H107 C81 0.931 . S
H108 C86 0.930 . S
H109 C87 0.931 1_455 S
H110 C89 0.931 1_455 S
H111 C90 0.931 . S
Gd112 C115 2.818 . S
Gd112 O132 2.377 . S
Gd112 O134 2.448 . S
Gd112 O135 2.506 . S
Gd112 O136 2.435 . S
Gd112 O137 2.717 . S
Gd112 O139 2.395 . S
Gd112 O143 2.327 1_545 S
Gd113 C124 2.818 . S
Gd113 O133 2.395 . S
Gd113 O137 2.327 1_565 S
Gd113 O138 2.377 . S
Gd113 O140 2.448 . S
Gd113 O141 2.506 . S
Gd113 O142 2.435 . S
Gd113 O143 2.717 . S
C114 O132 1.240 1_565 S
C114 O133 1.240 . S
C115 Gd112 2.818 . S
C115 C116 1.510 . S
C115 O134 1.249 . S
C115 O135 1.252 . S
C116 C115 1.510 . S
C116 C117 1.404 . S
C116 C118 1.352 . S
C117 C116 1.404 . S
C117 C121 1.389 . S
C117 H144 0.930 . S
C118 C116 1.352 . S
C118 C120 1.374 . S
C118 H145 0.931 1_545 S
C119 C120 1.359 . S
C119 C121 1.364 . S
C120 C118 1.374 . S
C120 C119 1.359 . S
C120 H146 0.931 1_545 S
C121 C117 1.389 . S
C121 C119 1.364 . S
C121 H147 0.931 . S
C122 O136 1.256 . S
C122 O137 1.257 . S
C123 O138 1.240 1_545 S
C123 O139 1.240 . S
C124 Gd113 2.818 . S
C124 C125 1.510 . S
C124 O140 1.249 . S
C124 O141 1.252 . S
C125 C124 1.510 . S
C125 C126 1.404 . S
C125 C127 1.352 . S
C126 C125 1.404 . S
C126 C130 1.389 . S
C126 H148 0.930 . S
C127 C125 1.352 . S
C127 C129 1.374 . S
C127 H149 0.931 1_565 S
C128 C129 1.359 . S
C128 C130 1.364 . S
C129 C127 1.374 . S
C129 C128 1.359 . S
C129 H150 0.931 1_565 S
C130 C126 1.389 . S
C130 C128 1.364 . S
C130 H151 0.931 . S
C131 O142 1.256 . S
C131 O143 1.257 . S
O132 Gd112 2.377 . S
O132 C114 1.240 1_545 S
O133 Gd113 2.395 . S
O133 C114 1.240 . S
O134 Gd112 2.448 . S
O134 C115 1.249 . S
O135 Gd112 2.506 . S
O135 C115 1.252 . S
O136 Gd112 2.435 . S
O136 C122 1.256 . S
O137 Gd112 2.717 . S
O137 Gd113 2.327 1_545 S
O137 C122 1.257 . S
O138 Gd113 2.377 . S
O138 C123 1.240 1_565 S
O139 Gd112 2.395 . S
O139 C123 1.240 . S
O140 Gd113 2.448 . S
O140 C124 1.249 . S
O141 Gd113 2.506 . S
O141 C124 1.252 . S
O142 Gd113 2.435 . S
O142 C131 1.256 . S
O143 Gd112 2.327 1_565 S
O143 Gd113 2.717 . S
O143 C131 1.257 . S
H144 C117 0.930 . S
H145 C118 0.931 1_565 S
H146 C120 0.931 1_565 S
H147 C121 0.931 . S
H148 C126 0.930 . S
H149 C127 0.931 1_545 S
H150 C129 0.931 1_545 S
H151 C130 0.931 . S
Gd152 C155 2.818 . S
Gd152 O172 2.377 . S
Gd152 O174 2.448 . S
Gd152 O175 2.506 . S
Gd152 O176 2.435 . S
Gd152 O177 2.717 . S
Gd152 O179 2.395 . S
Gd152 O183 2.327 . S
Gd153 C164 2.818 . S
Gd153 O173 2.395 . S
Gd153 O177 2.327 . S
Gd153 O178 2.377 . S
Gd153 O180 2.448 . S
Gd153 O181 2.506 . S
Gd153 O182 2.435 . S
Gd153 O183 2.717 . S
C154 O172 1.240 . S
C154 O173 1.240 . S
C155 Gd152 2.818 . S
C155 C156 1.510 . S
C155 O174 1.249 . S
C155 O175 1.252 . S
C156 C155 1.510 . S
C156 C157 1.404 . S
C156 C158 1.352 . S
C157 C156 1.404 . S
C157 C161 1.389 . S
C157 H184 0.930 . S
C158 C156 1.352 . S
C158 C160 1.374 . S
C158 H185 0.931 . S
C159 C160 1.359 . S
C159 C161 1.364 . S
C160 C158 1.374 . S
C160 C159 1.359 . S
C160 H186 0.931 . S
C161 C157 1.389 . S
C161 C159 1.364 . S
C161 H187 0.931 . S
C162 O176 1.256 . S
C162 O177 1.257 . S
C163 O178 1.240 . S
C163 O179 1.240 . S
C164 Gd153 2.818 . S
C164 C165 1.510 . S
C164 O180 1.249 . S
C164 O181 1.252 . S
C165 C164 1.510 . S
C165 C166 1.404 . S
C165 C167 1.352 . S
C166 C165 1.404 . S
C166 C170 1.389 . S
C166 H188 0.930 . S
C167 C165 1.352 . S
C167 C169 1.374 . S
C167 H189 0.931 . S
C168 C169 1.359 . S
C168 C170 1.364 . S
C169 C167 1.374 . S
C169 C168 1.359 . S
C169 H190 0.931 . S
C170 C166 1.389 . S
C170 C168 1.364 . S
C170 H191 0.931 . S
C171 O182 1.256 . S
C171 O183 1.257 . S
O172 Gd152 2.377 . S
O172 C154 1.240 . S
O173 Gd153 2.395 . S
O173 C154 1.240 . S
O174 Gd152 2.448 . S
O174 C155 1.249 . S
O175 Gd152 2.506 . S
O175 C155 1.252 . S
O176 Gd152 2.435 . S
O176 C162 1.256 . S
O177 Gd152 2.717 . S
O177 Gd153 2.327 . S
O177 C162 1.257 . S
O178 Gd153 2.377 . S
O178 C163 1.240 . S
O179 Gd152 2.395 . S
O179 C163 1.240 . S
O180 Gd153 2.448 . S
O180 C164 1.249 . S
O181 Gd153 2.506 . S
O181 C164 1.252 . S
O182 Gd153 2.435 . S
O182 C171 1.256 . S
O183 Gd152 2.327 . S
O183 Gd153 2.717 . S
O183 C171 1.257 . S
H184 C157 0.930 . S
H185 C158 0.931 . S
H186 C160 0.931 . S
H187 C161 0.931 . S
H188 C166 0.930 . S
H189 C167 0.931 . S
H190 C169 0.931 . S
H191 C170 0.931 . S
Gd192 C195 2.818 . S
Gd192 O212 2.377 . S
Gd192 O214 2.448 . S
Gd192 O215 2.506 . S
Gd192 O216 2.435 . S
Gd192 O217 2.717 1_655 S
Gd192 O219 2.395 1_655 S
Gd192 O223 2.327 . S
Gd193 C204 2.818 . S
Gd193 O213 2.395 1_455 S
Gd193 O217 2.327 . S
Gd193 O218 2.377 . S
Gd193 O220 2.448 . S
Gd193 O221 2.506 . S
Gd193 O222 2.435 . S
Gd193 O223 2.717 1_455 S
C194 O212 1.240 . S
C194 O213 1.240 . S
C195 Gd192 2.818 . S
C195 C196 1.510 . S
C195 O214 1.249 . S
C195 O215 1.252 . S
C196 C195 1.510 . S
C196 C197 1.404 . S
C196 C198 1.352 . S
C197 C196 1.404 . S
C197 C201 1.389 . S
C197 H224 0.930 . S
C198 C196 1.352 . S
C198 C200 1.374 . S
C198 H225 0.931 . S
C199 C200 1.359 . S
C199 C201 1.364 . S
C200 C198 1.374 . S
C200 C199 1.359 . S
C200 H226 0.931 . S
C201 C197 1.389 . S
C201 C199 1.364 . S
C201 H227 0.931 . S
C202 O216 1.282 . S
C202 O217 1.244 1_655 S
C203 O218 1.240 . S
C203 O219 1.240 . S
C204 Gd193 2.818 . S
C204 C205 1.510 . S
C204 O220 1.249 . S
C204 O221 1.252 . S
C205 C204 1.510 . S
C205 C206 1.404 . S
C205 C207 1.352 . S
C206 C205 1.404 . S
C206 C210 1.389 . S
C206 H228 0.930 . S
C207 C205 1.352 . S
C207 C209 1.374 . S
C207 H229 0.931 . S
C208 C209 1.359 . S
C208 C210 1.364 . S
C209 C207 1.374 . S
C209 C208 1.359 . S
C209 H230 0.931 . S
C210 C206 1.389 . S
C210 C208 1.364 . S
C210 H231 0.931 . S
C211 O222 1.256 . S
C211 O223 1.257 1_455 S
O212 Gd192 2.377 . S
O212 C194 1.240 . S
O213 Gd193 2.395 1_655 S
O213 C194 1.240 . S
O214 Gd192 2.448 . S
O214 C195 1.249 . S
O215 Gd192 2.506 . S
O215 C195 1.252 . S
O216 Gd192 2.435 . S
O216 C202 1.282 . S
O217 Gd192 2.717 1_455 S
O217 Gd193 2.327 . S
O217 C202 1.244 1_455 S
O218 Gd193 2.377 . S
O218 C203 1.240 . S
O219 Gd192 2.395 1_455 S
O219 C203 1.240 . S
O220 Gd193 2.448 . S
O220 C204 1.249 . S
O221 Gd193 2.506 . S
O221 C204 1.252 . S
O222 Gd193 2.435 . S
O222 C211 1.256 . S
O223 Gd192 2.327 . S
O223 Gd193 2.717 1_655 S
O223 C211 1.257 1_655 S
H224 C197 0.930 . S
H225 C198 0.931 . S
H226 C200 0.931 . S
H227 C201 0.931 . S
H228 C206 0.930 . S
H229 C207 0.931 . S
H230 C209 0.931 . S
H231 C210 0.931 . S
C232 C233 1.349 . S
C232 C234 1.327 . S
C232 H257 0.950 . S
C233 C232 1.349 . S
C233 C249 1.349 1_545 S
C234 C232 1.327 . S
C234 C253 1.429 . S
C234 H258 0.950 . S
C235 C252 1.574 . S
C235 C254 1.368 1_565 S
C235 H259 0.949 . S
H236 C240 0.949 . S
C237 C238 1.349 1_565 S
C237 C239 1.327 . S
C237 H260 0.950 . S
C238 C237 1.349 1_545 S
C238 C250 1.349 . S
C239 C237 1.327 . S
C239 C255 1.429 1_565 S
C239 H261 0.950 . S
C240 H236 0.949 . S
C240 C248 1.574 . S
C240 C256 1.368 . S
H241 C249 0.950 . S
H242 C247 0.950 . S
H243 C248 0.949 . S
H244 C250 0.950 . S
H245 C251 0.950 . S
H246 C252 0.949 . S
C247 H242 0.950 . S
C247 C249 1.327 . S
C247 C253 1.429 1_565 S
C248 C240 1.574 . S
C248 H243 0.949 . S
C248 C254 1.368 . S
C249 C233 1.349 1_565 S
C249 H241 0.950 . S
C249 C247 1.327 . S
C250 C238 1.349 . S
C250 H244 0.950 . S
C250 C251 1.327 . S
C251 H245 0.950 . S
C251 C250 1.327 . S
C251 C255 1.429 . S
C252 C235 1.574 . S
C252 H246 0.949 . S
C252 C256 1.368 1_565 S
C253 C234 1.429 . S
C253 C247 1.429 1_545 S
C253 C254 1.523 . S
C254 C235 1.368 1_545 S
C254 C248 1.368 . S
C254 C253 1.523 . S
C255 C239 1.429 1_545 S
C255 C251 1.429 . S
C255 C256 1.523 . S
C256 C240 1.368 . S
C256 C252 1.368 1_545 S
C256 C255 1.523 . S
H257 C232 0.950 . S
H258 C234 0.950 . S
H259 C235 0.949 . S
H260 C237 0.950 . S
H261 C239 0.950 . S
C262 C263 1.349 . S
C262 C264 1.327 . S
C262 H287 0.950 . S
C263 C262 1.349 . S
C263 C279 1.349 . S
C264 C262 1.327 . S
C264 C283 1.429 . S
C264 H288 0.950 . S
C265 C282 1.574 . S
C265 C284 1.368 . S
C265 H289 0.949 . S
H266 C270 0.949 . S
C267 C268 1.349 . S
C267 C269 1.327 . S
C267 H290 0.950 . S
C268 C267 1.349 . S
C268 C280 1.349 . S
C269 C267 1.327 . S
C269 C285 1.429 . S
C269 H291 0.950 . S
C270 H266 0.949 . S
C270 C278 1.574 . S
C270 C286 1.368 . S
H271 C279 0.950 . S
H272 C277 0.950 . S
H273 C278 0.949 . S
H274 C280 0.950 . S
H275 C281 0.950 . S
H276 C282 0.949 . S
C277 H272 0.950 . S
C277 C279 1.327 . S
C277 C283 1.429 . S
C278 C270 1.574 . S
C278 H273 0.949 . S
C278 C284 1.368 . S
C279 C263 1.349 . S
C279 H271 0.950 . S
C279 C277 1.327 . S
C280 C268 1.349 . S
C280 H274 0.950 . S
C280 C281 1.327 . S
C281 H275 0.950 . S
C281 C280 1.327 . S
C281 C285 1.429 . S
C282 C265 1.574 . S
C282 H276 0.949 . S
C282 C286 1.368 . S
C283 C264 1.429 . S
C283 C277 1.429 . S
C283 C284 1.523 . S
C284 C265 1.368 . S
C284 C278 1.368 . S
C284 C283 1.523 . S
C285 C269 1.429 . S
C285 C281 1.429 . S
C285 C286 1.523 . S
C286 C270 1.368 . S
C286 C282 1.368 . S
C286 C285 1.523 . S
H287 C262 0.950 . S
H288 C264 0.950 . S
H289 C265 0.949 . S
H290 C267 0.950 . S
H291 C269 0.950 . S
C292 C293 1.349 . S
C292 C294 1.327 . S
C292 H317 0.950 . S
C293 C292 1.349 . S
C293 C309 1.349 . S
C294 C292 1.327 . S
C294 C313 1.429 . S
C294 H318 0.950 . S
C295 C312 1.574 . S
C295 C314 1.368 . S
C295 H319 0.949 . S
H296 C300 0.949 . S
C297 C298 1.349 . S
C297 C299 1.327 . S
C297 H320 0.950 . S
C298 C297 1.349 . S
C298 C310 1.349 . S
C299 C297 1.327 . S
C299 C315 1.429 . S
C299 H321 0.950 . S
C300 H296 0.949 . S
C300 C308 1.574 . S
C300 C316 1.368 . S
H301 C309 0.950 . S
H302 C307 0.950 . S
H303 C308 0.949 . S
H304 C310 0.950 . S
H305 C311 0.950 . S
H306 C312 0.949 . S
C307 H302 0.950 . S
C307 C309 1.327 . S
C307 C313 1.429 . S
C308 C300 1.574 . S
C308 H303 0.949 . S
C308 C314 1.368 . S
C309 C293 1.349 . S
C309 H301 0.950 . S
C309 C307 1.327 . S
C310 C298 1.349 . S
C310 H304 0.950 . S
C310 C311 1.327 . S
C311 H305 0.950 . S
C311 C310 1.327 . S
C311 C315 1.429 . S
C312 C295 1.574 . S
C312 H306 0.949 . S
C312 C316 1.368 . S
C313 C294 1.429 . S
C313 C307 1.429 . S
C313 C314 1.523 . S
C314 C295 1.368 . S
C314 C308 1.368 . S
C314 C313 1.523 . S
C315 C299 1.429 . S
C315 C311 1.429 . S
C315 C316 1.523 . S
C316 C300 1.368 . S
C316 C312 1.368 . S
C316 C315 1.523 . S
H317 C292 0.950 . S
H318 C294 0.950 . S
H319 C295 0.949 . S
H320 C297 0.950 . S
H321 C299 0.950 . S
C322 C323 1.349 . S
C322 C324 1.327 . S
C322 H347 0.950 . S
C323 C322 1.349 . S
C323 C339 1.349 1_455 S
C324 C322 1.327 . S
C324 C343 1.429 . S
C324 H348 0.950 . S
C325 C342 1.574 . S
C325 C344 1.368 1_655 S
C325 H349 0.949 . S
H326 C330 0.949 . S
C327 C328 1.349 1_655 S
C327 C329 1.327 . S
C327 H350 0.950 . S
C328 C327 1.349 1_455 S
C328 C340 1.349 . S
C329 C327 1.327 . S
C329 C345 1.429 1_655 S
C329 H351 0.950 . S
C330 H326 0.949 . S
C330 C338 1.574 . S
C330 C346 1.368 . S
H331 C339 0.950 . S
H332 C337 0.950 . S
H333 C338 0.949 . S
H334 C340 0.950 . S
H335 C341 0.950 . S
H336 C342 0.949 . S
C337 H332 0.950 . S
C337 C339 1.327 . S
C337 C343 1.429 1_655 S
C338 C330 1.574 . S
C338 H333 0.949 . S
C338 C344 1.368 . S
C339 C323 1.349 1_655 S
C339 H331 0.950 . S
C339 C337 1.327 . S
C340 C328 1.349 . S
C340 H334 0.950 . S
C340 C341 1.327 . S
C341 H335 0.950 . S
C341 C340 1.327 . S
C341 C345 1.429 . S
C342 C325 1.574 . S
C342 H336 0.949 . S
C342 C346 1.368 1_655 S
C343 C324 1.429 . S
C343 C337 1.429 1_455 S
C343 C344 1.523 . S
C344 C325 1.368 1_455 S
C344 C338 1.368 . S
C344 C343 1.523 . S
C345 C329 1.429 1_455 S
C345 C341 1.429 . S
C345 C346 1.523 . S
C346 C330 1.368 . S
C346 C342 1.368 1_455 S
C346 C345 1.523 . S
H347 C322 0.950 . S
H348 C324 0.950 . S
H349 C325 0.949 . S
H350 C327 0.950 . S
H351 C329 0.950 . S
C352 C353 1.349 . S
C352 C354 1.327 . S
C352 H377 0.950 . S
C353 C352 1.349 . S
C353 C369 1.349 1_565 S
C354 C352 1.327 . S
C354 C373 1.429 . S
C354 H378 0.950 . S
C355 C372 1.574 . S
C355 C374 1.368 1_545 S
C355 H379 0.949 . S
H356 C360 0.949 . S
C357 C358 1.315 1_545 S
C357 C359 1.327 . S
C357 H380 0.950 . S
C358 C357 1.315 1_565 S
C358 C370 1.384 . S
C359 C357 1.327 . S
C359 C375 1.429 1_545 S
C359 H381 0.950 . S
C360 H356 0.949 . S
C360 C368 1.574 1_556 S
C360 C376 1.368 . S
H361 C369 0.950 . S
H362 C367 0.950 . S
H363 C368 0.949 . S
H364 C370 0.950 . S
H365 C371 0.950 . S
H366 C372 0.949 . S
C367 H362 0.950 . S
C367 C369 1.327 . S
C367 C373 1.429 1_545 S
C368 C360 1.574 1_554 S
C368 H363 0.949 . S
C368 C374 1.368 . S
C369 C353 1.349 1_545 S
C369 H361 0.950 . S
C369 C367 1.327 . S
C370 C358 1.384 . S
C370 H364 0.950 . S
C370 C371 1.327 . S
C371 H365 0.950 . S
C371 C370 1.327 . S
C371 C375 1.429 . S
C372 C355 1.574 . S
C372 H366 0.949 . S
C372 C376 1.368 1_544 S
C373 C354 1.429 . S
C373 C367 1.429 1_565 S
C373 C374 1.523 . S
C374 C355 1.368 1_565 S
C374 C368 1.368 . S
C374 C373 1.523 . S
C375 C359 1.429 1_565 S
C375 C371 1.429 . S
C375 C376 1.523 . S
C376 C360 1.368 . S
C376 C372 1.368 1_566 S
C376 C375 1.523 . S
H377 C352 0.950 . S
H378 C354 0.950 . S
H379 C355 0.949 . S
H380 C357 0.950 . S
H381 C359 0.950 . S
C382 C383 1.349 . S
C382 C384 1.327 . S
C382 H407 0.950 . S
C383 C382 1.349 . S
C383 C399 1.349 . S
C384 C382 1.327 . S
C384 C403 1.429 . S
C384 H408 0.950 . S
C385 C402 1.574 . S
C385 C404 1.368 . S
C385 H409 0.949 . S
H386 C390 0.949 . S
C387 C388 1.349 . S
C387 C389 1.327 . S
C387 H410 0.950 . S
C388 C387 1.349 . S
C388 C400 1.349 . S
C389 C387 1.327 . S
C389 C405 1.429 . S
C389 H411 0.950 . S
C390 H386 0.949 . S
C390 C398 1.574 1_556 S
C390 C406 1.368 . S
H391 C399 0.950 . S
H392 C397 0.950 . S
H393 C398 0.949 . S
H394 C400 0.950 . S
H395 C401 0.950 . S
H396 C402 0.949 . S
C397 H392 0.950 . S
C397 C399 1.327 . S
C397 C403 1.429 . S
C398 C390 1.574 1_554 S
C398 H393 0.949 . S
C398 C404 1.368 . S
C399 C383 1.349 . S
C399 H391 0.950 . S
C399 C397 1.327 . S
C400 C388 1.349 . S
C400 H394 0.950 . S
C400 C401 1.327 . S
C401 H395 0.950 . S
C401 C400 1.327 . S
C401 C405 1.429 . S
C402 C385 1.574 . S
C402 H396 0.949 . S
C402 C406 1.368 1_554 S
C403 C384 1.429 . S
C403 C397 1.429 . S
C403 C404 1.523 . S
C404 C385 1.368 . S
C404 C398 1.368 . S
C404 C403 1.523 . S
C405 C389 1.429 . S
C405 C401 1.429 . S
C405 C406 1.523 . S
C406 C390 1.368 . S
C406 C402 1.368 1_556 S
C406 C405 1.523 . S
H407 C382 0.950 . S
H408 C384 0.950 . S
H409 C385 0.949 . S
H410 C387 0.950 . S
H411 C389 0.950 . S
C412 C413 1.349 . S
C412 C414 1.327 . S
C412 H437 0.950 . S
C413 C412 1.349 . S
C413 C429 1.349 . S
C414 C412 1.327 . S
C414 C433 1.429 . S
C414 H438 0.950 . S
C415 C432 1.574 1_554 S
C415 C434 1.368 . S
C415 H439 0.949 . S
H416 C420 0.949 . S
C417 C418 1.349 . S
C417 C419 1.327 . S
C417 H440 0.950 . S
C418 C417 1.349 . S
C418 C430 1.349 . S
C419 C417 1.327 . S
C419 C435 1.429 . S
C419 H441 0.950 . S
C420 H416 0.949 . S
C420 C428 1.574 . S
C420 C436 1.368 1_554 S
H421 C429 0.950 . S
H422 C427 0.950 . S
H423 C428 0.949 . S
H424 C430 0.950 . S
H425 C431 0.950 . S
H426 C432 0.949 . S
C427 H422 0.950 . S
C427 C429 1.327 . S
C427 C433 1.429 . S
C428 C420 1.574 . S
C428 H423 0.949 . S
C428 C434 1.368 . S
C429 C413 1.349 . S
C429 H421 0.950 . S
C429 C427 1.327 . S
C430 C418 1.349 . S
C430 H424 0.950 . S
C430 C431 1.327 . S
C431 H425 0.950 . S
C431 C430 1.327 . S
C431 C435 1.429 . S
C432 C415 1.574 1_556 S
C432 H426 0.949 . S
C432 C436 1.368 . S
C433 C414 1.429 . S
C433 C427 1.429 . S
C433 C434 1.523 . S
C434 C415 1.368 . S
C434 C428 1.368 . S
C434 C433 1.523 . S
C435 C419 1.429 . S
C435 C431 1.429 . S
C435 C436 1.523 . S
C436 C420 1.368 1_556 S
C436 C432 1.368 . S
C436 C435 1.523 . S
H437 C412 0.950 . S
H438 C414 0.950 . S
H439 C415 0.949 . S
H440 C417 0.950 . S
H441 C419 0.950 . S
C442 C443 1.349 1_455 S
C442 C444 1.327 . S
C442 H467 0.950 . S
C443 C442 1.349 1_655 S
C443 C459 1.349 . S
C444 C442 1.327 . S
C444 C463 1.429 1_455 S
C444 H468 0.950 . S
C445 C462 1.574 . S
C445 C464 1.368 . S
C445 H469 0.949 . S
H446 C450 0.949 . S
C447 C448 1.349 . S
C447 C449 1.327 . S
C447 H470 0.950 . S
C448 C447 1.349 . S
C448 C460 1.349 1_655 S
C449 C447 1.327 . S
C449 C465 1.429 . S
C449 H471 0.950 . S
C450 H446 0.949 . S
C450 C458 1.574 1_556 S
C450 C466 1.368 1_455 S
H451 C459 0.950 . S
H452 C457 0.950 . S
H453 C458 0.949 . S
H454 C460 0.950 . S
H455 C461 0.950 . S
H456 C462 0.949 . S
C457 H452 0.950 . S
C457 C459 1.327 . S
C457 C463 1.429 . S
C458 C450 1.574 1_554 S
C458 H453 0.949 . S
C458 C464 1.368 1_455 S
C459 C443 1.349 . S
C459 H451 0.950 . S
C459 C457 1.327 . S
C460 C448 1.349 1_455 S
C460 H454 0.950 . S
C460 C461 1.327 . S
C461 H455 0.950 . S
C461 C460 1.327 . S
C461 C465 1.429 1_455 S
C462 C445 1.574 . S
C462 H456 0.949 . S
C462 C466 1.368 1_554 S
C463 C444 1.429 1_655 S
C463 C457 1.429 . S
C463 C464 1.523 . S
C464 C445 1.368 . S
C464 C458 1.368 1_655 S
C464 C463 1.523 . S
C465 C449 1.429 . S
C465 C461 1.429 1_655 S
C465 C466 1.523 . S
C466 C450 1.368 1_655 S
C466 C462 1.368 1_556 S
C466 C465 1.523 . S
H467 C442 0.950 . S
H468 C444 0.950 . S
H469 C445 0.949 . S
H470 C447 0.950 . S
H471 C449 0.950 . S
C472 C473 1.349 . S
C472 C474 1.327 . S
C472 H497 0.950 . S
C473 C472 1.349 . S
C473 C489 1.349 1_455 S
C474 C472 1.327 . S
C474 C493 1.429 1_455 S
C474 H498 0.950 . S
C475 C492 1.574 . S
C475 C494 1.368 . S
C475 H499 0.949 . S
H476 C480 0.949 . S
C477 C478 1.349 . S
C477 C479 1.327 . S
C477 H500 0.950 . S
C478 C477 1.349 . S
C478 C490 1.349 . S
C479 C477 1.327 . S
C479 C495 1.429 . S
C479 H501 0.950 . S
C480 H476 0.949 . S
C480 C488 1.574 . S
C480 C496 1.368 . S
H481 C489 0.950 . S
H482 C487 0.950 . S
H483 C488 0.949 1_455 S
H484 C490 0.950 . S
H485 C491 0.950 . S
H486 C492 0.949 . S
C487 H482 0.950 . S
C487 C489 1.327 . S
C487 C493 1.429 . S
C488 C480 1.574 . S
C488 H483 0.949 1_655 S
C488 C494 1.368 . S
C489 C473 1.349 1_655 S
C489 H481 0.950 . S
C489 C487 1.327 . S
C490 C478 1.349 . S
C490 H484 0.950 . S
C490 C491 1.327 . S
C491 H485 0.950 . S
C491 C490 1.327 . S
C491 C495 1.429 . S
C492 C475 1.574 . S
C492 H486 0.949 . S
C492 C496 1.368 . S
C493 C474 1.429 1_655 S
C493 C487 1.429 . S
C493 C494 1.523 . S
C494 C475 1.368 . S
C494 C488 1.368 . S
C494 C493 1.523 . S
C495 C479 1.429 . S
C495 C491 1.429 . S
C495 C496 1.523 . S
C496 C480 1.368 . S
C496 C492 1.368 . S
C496 C495 1.523 . S
H497 C472 0.950 . S
H498 C474 0.950 . S
H499 C475 0.949 . S
H500 C477 0.950 . S
H501 C479 0.950 . S
C502 C503 1.349 1_565 S
C502 C504 1.327 . S
C502 H527 0.950 . S
C503 C502 1.349 1_545 S
C503 C519 1.349 . S
C504 C502 1.327 . S
C504 C523 1.429 . S
C504 H528 0.950 . S
C505 C522 1.574 . S
C505 C524 1.368 1_545 S
C505 H529 0.949 . S
H506 C510 0.949 . S
C507 C508 1.349 . S
C507 C509 1.327 . S
C507 H530 0.958 . S
C508 C507 1.349 . S
C508 C520 1.349 . S
C509 C507 1.327 . S
C509 C525 1.429 . S
C509 H531 0.950 1_565 S
C510 H506 0.949 . S
C510 C518 1.574 . S
C510 C526 1.368 . S
H511 C519 0.950 . S
H512 C517 0.950 . S
H513 C518 0.949 . S
H514 C520 0.950 . S
H515 C521 0.950 . S
H516 C522 0.949 . S
C517 H512 0.950 . S
C517 C519 1.327 . S
C517 C523 1.429 1_545 S
C518 C510 1.574 . S
C518 H513 0.949 . S
C518 C524 1.368 . S
C519 C503 1.349 . S
C519 H511 0.950 . S
C519 C517 1.327 . S
C520 C508 1.349 . S
C520 H514 0.950 . S
C520 C521 1.327 . S
C521 H515 0.950 . S
C521 C520 1.327 . S
C521 C525 1.429 . S
C522 C505 1.574 . S
C522 H516 0.949 . S
C522 C526 1.368 1_545 S
C523 C504 1.429 . S
C523 C517 1.429 1_565 S
C523 C524 1.523 . S
C524 C505 1.368 1_565 S
C524 C518 1.368 . S
C524 C523 1.523 . S
C525 C509 1.429 . S
C525 C521 1.429 . S
C525 C526 1.523 . S
C526 C510 1.368 . S
C526 C522 1.368 1_565 S
C526 C525 1.523 . S
H527 C502 0.950 . S
H528 C504 0.950 . S
H529 C505 0.949 . S
H530 C507 0.958 . S
H531 C509 0.950 1_545 S
C532 C533 1.349 . S
C532 C534 1.327 . S
C532 H557 0.950 . S
C533 C532 1.349 . S
C533 C549 1.349 . S
C534 C532 1.327 . S
C534 C553 1.429 . S
C534 H558 0.950 . S
C535 C552 1.574 . S
C535 C554 1.368 . S
C535 H559 0.949 . S
H536 C540 0.949 . S
C537 C538 1.349 . S
C537 C539 1.327 . S
C537 H560 0.950 . S
C538 C537 1.349 . S
C538 C550 1.349 . S
C539 C537 1.327 . S
C539 C555 1.429 . S
C539 H561 0.950 . S
C540 H536 0.949 . S
C540 C548 1.574 . S
C540 C556 1.368 . S
H541 C549 0.950 . S
H542 C547 0.950 . S
H543 C548 0.949 . S
H544 C550 0.950 . S
H545 C551 0.950 . S
H546 C552 0.949 . S
C547 H542 0.950 . S
C547 C549 1.327 . S
C547 C553 1.429 . S
C548 C540 1.574 . S
C548 H543 0.949 . S
C548 C554 1.368 . S
C549 C533 1.349 . S
C549 H541 0.950 . S
C549 C547 1.327 . S
C550 C538 1.349 . S
C550 H544 0.950 . S
C550 C551 1.327 . S
C551 H545 0.950 . S
C551 C550 1.327 . S
C551 C555 1.429 . S
C552 C535 1.574 . S
C552 H546 0.949 . S
C552 C556 1.368 . S
C553 C534 1.429 . S
C553 C547 1.429 . S
C553 C554 1.523 . S
C554 C535 1.368 . S
C554 C548 1.368 . S
C554 C553 1.523 . S
C555 C539 1.429 . S
C555 C551 1.429 . S
C555 C556 1.523 . S
C556 C540 1.368 . S
C556 C552 1.368 . S
C556 C555 1.523 . S
H557 C532 0.950 . S
H558 C534 0.950 . S
H559 C535 0.949 . S
H560 C537 0.950 . S
H561 C539 0.950 . S
C562 C563 1.349 . S
C562 C564 1.327 . S
C562 H587 0.950 . S
C563 C562 1.349 . S
C563 C579 1.349 . S
C564 C562 1.327 . S
C564 C583 1.429 . S
C564 H588 0.950 . S
C565 C582 1.574 . S
C565 C584 1.368 . S
C565 H589 0.949 . S
H566 C570 0.949 . S
C567 C568 1.349 . S
C567 C569 1.327 . S
C567 H590 0.950 . S
C568 C567 1.349 . S
C568 C580 1.349 . S
C569 C567 1.327 . S
C569 C585 1.429 . S
C569 H591 0.950 . S
C570 H566 0.949 . S
C570 C578 1.574 . S
C570 C586 1.368 . S
H571 C579 0.950 . S
H572 C577 0.950 . S
H573 C578 0.949 . S
H574 C580 0.950 . S
H575 C581 0.950 . S
H576 C582 0.949 . S
C577 H572 0.950 . S
C577 C579 1.327 . S
C577 C583 1.429 . S
C578 C570 1.574 . S
C578 H573 0.949 . S
C578 C584 1.368 . S
C579 C563 1.349 . S
C579 H571 0.950 . S
C579 C577 1.327 . S
C580 C568 1.349 . S
C580 H574 0.950 . S
C580 C581 1.327 . S
C581 H575 0.950 . S
C581 C580 1.327 . S
C581 C585 1.429 . S
C582 C565 1.574 . S
C582 H576 0.949 . S
C582 C586 1.368 . S
C583 C564 1.429 . S
C583 C577 1.429 . S
C583 C584 1.523 . S
C584 C565 1.368 . S
C584 C578 1.368 . S
C584 C583 1.523 . S
C585 C569 1.429 . S
C585 C581 1.429 . S
C585 C586 1.523 . S
C586 C570 1.368 . S
C586 C582 1.368 . S
C586 C585 1.523 . S
H587 C562 0.950 . S
H588 C564 0.950 . S
H589 C565 0.949 . S
H590 C567 0.950 . S
H591 C569 0.950 . S
C592 C593 1.349 . S
C592 C594 1.327 . S
C592 H617 0.950 . S
C593 C592 1.349 . S
C593 C609 1.349 1_655 S
C594 C592 1.327 . S
C594 C613 1.429 1_655 S
C594 H618 0.950 . S
C595 C612 1.574 . S
C595 C614 1.368 . S
C595 H619 0.949 . S
H596 C600 0.949 1_656 S
C597 C598 1.349 1_554 S
C597 C599 1.327 . S
C597 H620 0.950 . S
C598 C597 1.349 1_556 S
C598 C610 1.349 . S
C599 C597 1.327 . S
C599 C615 1.429 . S
C599 H621 0.950 . S
C600 H596 0.949 1_454 S
C600 C608 1.571 1_455 S
C600 C616 1.368 . S
H601 C609 0.950 . S
H602 C607 0.950 . S
H603 C608 0.958 . S
H604 C610 0.950 . S
H605 C611 0.950 . S
H606 C612 0.949 . S
C607 H602 0.950 . S
C607 C609 1.327 . S
C607 C613 1.429 . S
C608 C600 1.571 1_655 S
C608 H603 0.958 . S
C608 C614 1.361 1_655 S
C609 C593 1.349 1_455 S
C609 H601 0.950 . S
C609 C607 1.327 . S
C610 C598 1.349 . S
C610 H604 0.950 . S
C610 C611 1.327 . S
C611 H605 0.950 . S
C611 C610 1.327 . S
C611 C615 1.429 1_556 S
C612 C595 1.574 . S
C612 H606 0.949 . S
C612 C616 1.368 . S
C613 C594 1.429 1_455 S
C613 C607 1.429 . S
C613 C614 1.523 . S
C614 C595 1.368 . S
C614 C608 1.361 1_455 S
C614 C613 1.523 . S
C615 C599 1.429 . S
C615 C611 1.429 1_554 S
C615 C616 1.523 . S
C616 C600 1.368 . S
C616 C612 1.368 . S
C616 C615 1.523 . S
H617 C592 0.950 . S
H618 C594 0.950 . S
H619 C595 0.949 . S
H620 C597 0.950 . S
H621 C599 0.950 . S
C622 C623 1.349 . S
C622 C624 1.327 . S
C622 H647 0.950 . S
C623 C622 1.349 . S
C623 C639 1.349 1_565 S
C624 C622 1.327 . S
C624 C643 1.429 1_565 S
C624 H648 0.950 . S
C625 C642 1.574 . S
C625 C644 1.368 . S
C625 H649 0.949 . S
H626 C630 0.949 . S
C627 C628 1.349 . S
C627 C629 1.327 . S
C627 H650 0.950 . S
C628 C627 1.349 . S
C628 C640 1.349 . S
C629 C627 1.327 . S
C629 C645 1.429 1_556 S
C629 H651 0.950 . S
C630 H626 0.949 . S
C630 C638 1.574 . S
C630 C646 1.368 . S
H631 C639 0.950 . S
H632 C637 0.950 . S
H633 C638 0.949 1_565 S
H634 C640 0.950 1_554 S
H635 C641 0.950 . S
H636 C642 0.949 1_556 S
C637 H632 0.950 . S
C637 C639 1.327 . S
C637 C643 1.429 . S
C638 C630 1.574 . S
C638 H633 0.949 1_545 S
C638 C644 1.368 . S
C639 C623 1.349 1_545 S
C639 H631 0.950 . S
C639 C637 1.327 . S
C640 C628 1.349 . S
C640 H634 0.950 1_556 S
C640 C641 1.327 1_556 S
C641 H635 0.950 . S
C641 C640 1.327 1_554 S
C641 C645 1.429 . S
C642 C625 1.574 . S
C642 H636 0.949 1_554 S
C642 C646 1.368 . S
C643 C624 1.429 1_545 S
C643 C637 1.429 . S
C643 C644 1.523 . S
C644 C625 1.368 . S
C644 C638 1.368 . S
C644 C643 1.523 . S
C645 C629 1.429 1_554 S
C645 C641 1.429 . S
C645 C646 1.523 . S
C646 C630 1.368 . S
C646 C642 1.368 . S
C646 C645 1.523 . S
H647 C622 0.950 . S
H648 C624 0.950 . S
H649 C625 0.949 . S
H650 C627 0.950 . S
H651 C629 0.950 . S
C652 C653 1.349 . S
C652 C654 1.327 . S
C652 H677 0.950 . S
C653 C652 1.349 . S
C653 C669 1.349 . S
C654 C652 1.327 . S
C654 C673 1.429 . S
C654 H678 0.950 . S
C655 C672 1.574 . S
C655 C674 1.368 . S
C655 H679 0.949 . S
H656 C660 0.937 1_556 S
C657 C658 1.349 . S
C657 C659 1.327 1_556 S
C657 H680 0.950 1_556 S
C658 C657 1.349 . S
C658 C670 1.349 . S
C659 C657 1.327 1_554 S
C659 C675 1.429 . S
C659 H681 0.950 . S
C660 H656 0.937 1_554 S
C660 C668 1.574 . S
C660 C676 1.368 . S
H661 C669 0.950 . S
H662 C667 0.950 . S
H663 C668 0.949 . S
H664 C670 0.950 . S
H665 C671 0.950 . S
H666 C672 0.949 . S
C667 H662 0.950 . S
C667 C669 1.327 . S
C667 C673 1.429 . S
C668 C660 1.574 . S
C668 H663 0.949 . S
C668 C674 1.368 . S
C669 C653 1.349 . S
C669 H661 0.950 . S
C669 C667 1.327 . S
C670 C658 1.349 . S
C670 H664 0.950 . S
C670 C671 1.327 . S
C671 H665 0.950 . S
C671 C670 1.327 . S
C671 C675 1.429 1_556 S
C672 C655 1.574 . S
C672 H666 0.949 . S
C672 C676 1.368 . S
C673 C654 1.429 . S
C673 C667 1.429 . S
C673 C674 1.523 . S
C674 C655 1.368 . S
C674 C668 1.368 . S
C674 C673 1.523 . S
C675 C659 1.429 . S
C675 C671 1.429 1_554 S
C675 C676 1.523 . S
C676 C660 1.368 . S
C676 C672 1.368 . S
C676 C675 1.523 . S
H677 C652 0.950 . S
H678 C654 0.950 . S
H679 C655 0.949 . S
H680 C657 0.950 1_554 S
H681 C659 0.950 . S
C682 C683 1.349 . S
C682 C684 1.327 . S
C682 H707 0.950 . S
C683 C682 1.349 . S
C683 C699 1.349 . S
C684 C682 1.327 . S
C684 C703 1.429 . S
C684 H708 0.950 . S
C685 C702 1.574 . S
C685 C704 1.368 . S
C685 H709 0.949 . S
H686 C690 0.949 . S
C687 C688 1.349 . S
C687 C689 1.327 1_556 S
C687 H710 0.950 . S
C688 C687 1.349 . S
C688 C700 1.349 . S
C689 C687 1.327 1_554 S
C689 C705 1.429 . S
C689 H711 0.950 . S
C690 H686 0.949 . S
C690 C698 1.574 . S
C690 C706 1.368 . S
H691 C699 0.950 . S
H692 C697 0.950 . S
H693 C698 0.949 . S
H694 C700 0.950 . S
H695 C701 0.950 . S
H696 C702 0.949 . S
C697 H692 0.950 . S
C697 C699 1.327 . S
C697 C703 1.429 . S
C698 C690 1.574 . S
C698 H693 0.949 . S
C698 C704 1.368 . S
C699 C683 1.349 . S
C699 H691 0.950 . S
C699 C697 1.327 . S
C700 C688 1.349 . S
C700 H694 0.950 . S
C700 C701 1.327 . S
C701 H695 0.950 . S
C701 C700 1.327 . S
C701 C705 1.429 1_556 S
C702 C685 1.574 . S
C702 H696 0.949 . S
C702 C706 1.368 . S
C703 C684 1.429 . S
C703 C697 1.429 . S
C703 C704 1.523 . S
C704 C685 1.368 . S
C704 C698 1.368 . S
C704 C703 1.523 . S
C705 C689 1.429 . S
C705 C701 1.429 1_554 S
C705 C706 1.523 . S
C706 C690 1.368 . S
C706 C702 1.368 . S
C706 C705 1.523 . S
H707 C682 0.950 . S
H708 C684 0.950 . S
H709 C685 0.949 . S
H710 C687 0.950 . S
H711 C689 0.950 . S
C712 C713 1.349 1_655 S
C712 C714 1.327 . S
C712 H737 0.950 . S
C713 C712 1.349 1_455 S
C713 C729 1.349 . S
C714 C712 1.327 . S
C714 C733 1.429 1_655 S
C714 H738 0.950 . S
C715 C732 1.574 . S
C715 C734 1.368 . S
C715 H739 0.949 . S
H716 C720 0.949 . S
C717 C718 1.349 . S
C717 C719 1.327 . S
C717 H740 0.950 . S
C718 C717 1.349 . S
C718 C730 1.349 1_455 S
C719 C717 1.327 . S
C719 C735 1.429 . S
C719 H741 0.950 . S
C720 H716 0.949 . S
C720 C728 1.574 . S
C720 C736 1.368 1_655 S
H721 C729 0.950 . S
H722 C727 0.950 . S
H723 C728 0.949 . S
H724 C730 0.950 . S
H725 C731 0.950 . S
H726 C732 0.949 . S
C727 H722 0.950 . S
C727 C729 1.327 . S
C727 C733 1.429 . S
C728 C720 1.574 . S
C728 H723 0.949 . S
C728 C734 1.368 1_655 S
C729 C713 1.349 . S
C729 H721 0.950 . S
C729 C727 1.327 . S
C730 C718 1.349 1_655 S
C730 H724 0.950 . S
C730 C731 1.327 . S
C731 H725 0.950 . S
C731 C730 1.327 . S
C731 C735 1.429 1_655 S
C732 C715 1.574 . S
C732 H726 0.949 . S
C732 C736 1.368 . S
C733 C714 1.429 1_455 S
C733 C727 1.429 . S
C733 C734 1.523 . S
C734 C715 1.368 . S
C734 C728 1.368 1_455 S
C734 C733 1.523 . S
C735 C719 1.429 . S
C735 C731 1.429 1_455 S
C735 C736 1.523 . S
C736 C720 1.368 1_455 S
C736 C732 1.368 . S
C736 C735 1.523 . S
H737 C712 0.950 . S
H738 C714 0.950 . S
H739 C715 0.949 . S
H740 C717 0.950 . S
H741 C719 0.950 . S
C742 C743 1.349 . S
C742 C744 1.327 . S
C742 H767 0.950 . S
C743 C742 1.349 . S
C743 C759 1.349 1_545 S
C744 C742 1.327 . S
C744 C763 1.429 . S
C744 H768 0.950 . S
C745 C762 1.574 . S
C745 C764 1.368 1_565 S
C745 H769 0.949 . S
H746 C750 0.949 . S
C747 C748 1.349 . S
C747 C749 1.327 . S
C747 H770 0.950 1_545 S
C748 C747 1.349 . S
C748 C760 1.349 . S
C749 C747 1.327 . S
C749 C765 1.429 . S
C749 H771 0.950 1_545 S
C750 H746 0.949 . S
C750 C758 1.574 . S
C750 C766 1.368 . S
H751 C759 0.950 . S
H752 C757 0.950 . S
H753 C758 0.949 . S
H754 C760 0.950 . S
H755 C761 0.950 . S
H756 C762 0.949 . S
C757 H752 0.950 . S
C757 C759 1.327 . S
C757 C763 1.429 1_565 S
C758 C750 1.574 . S
C758 H753 0.949 . S
C758 C764 1.368 . S
C759 C743 1.349 1_565 S
C759 H751 0.950 . S
C759 C757 1.327 . S
C760 C748 1.349 . S
C760 H754 0.950 . S
C760 C761 1.327 . S
C761 H755 0.950 . S
C761 C760 1.327 . S
C761 C765 1.429 . S
C762 C745 1.574 . S
C762 H756 0.949 . S
C762 C766 1.368 1_565 S
C763 C744 1.429 . S
C763 C757 1.429 1_545 S
C763 C764 1.523 . S
C764 C745 1.368 1_545 S
C764 C758 1.368 . S
C764 C763 1.523 . S
C765 C749 1.429 . S
C765 C761 1.429 . S
C765 C766 1.523 . S
C766 C750 1.368 . S
C766 C762 1.368 1_545 S
C766 C765 1.523 . S
H767 C742 0.950 . S
H768 C744 0.950 . S
H769 C745 0.949 . S
H770 C747 0.950 1_565 S
H771 C749 0.950 1_565 S
C772 C773 1.349 . S
C772 C774 1.327 . S
C772 H797 0.950 . S
C773 C772 1.349 . S
C773 C789 1.349 . S
C774 C772 1.327 . S
C774 C793 1.429 . S
C774 H798 0.950 . S
C775 C792 1.574 . S
C775 C794 1.368 . S
C775 H799 0.949 . S
H776 C780 0.949 . S
C777 C778 1.349 . S
C777 C779 1.327 . S
C777 H800 0.950 . S
C778 C777 1.349 . S
C778 C790 1.349 . S
C779 C777 1.327 . S
C779 C795 1.429 . S
C779 H801 0.950 . S
C780 H776 0.949 . S
C780 C788 1.574 . S
C780 C796 1.368 . S
H781 C789 0.950 . S
H782 C787 0.950 . S
H783 C788 0.949 . S
H784 C790 0.950 . S
H785 C791 0.950 . S
H786 C792 0.949 . S
C787 H782 0.950 . S
C787 C789 1.327 . S
C787 C793 1.429 . S
C788 C780 1.574 . S
C788 H783 0.949 . S
C788 C794 1.368 . S
C789 C773 1.349 . S
C789 H781 0.950 . S
C789 C787 1.327 . S
C790 C778 1.349 . S
C790 H784 0.950 . S
C790 C791 1.327 . S
C791 H785 0.950 . S
C791 C790 1.327 . S
C791 C795 1.429 . S
C792 C775 1.574 . S
C792 H786 0.949 . S
C792 C796 1.368 . S
C793 C774 1.429 . S
C793 C787 1.429 . S
C793 C794 1.523 . S
C794 C775 1.368 . S
C794 C788 1.368 . S
C794 C793 1.523 . S
C795 C779 1.429 . S
C795 C791 1.429 . S
C795 C796 1.523 . S
C796 C780 1.368 . S
C796 C792 1.368 . S
C796 C795 1.523 . S
H797 C772 0.950 . S
H798 C774 0.950 . S
H799 C775 0.949 . S
H800 C777 0.950 . S
H801 C779 0.950 . S
C802 C803 1.349 . S
C802 C804 1.327 . S
C802 H827 0.950 . S
C803 C802 1.349 . S
C803 C819 1.349 . S
C804 C802 1.327 . S
C804 C823 1.429 . S
C804 H828 0.950 . S
C805 C822 1.574 . S
C805 C824 1.368 . S
C805 H829 0.949 . S
H806 C810 0.949 . S
C807 C808 1.349 . S
C807 C809 1.327 . S
C807 H830 0.950 . S
C808 C807 1.349 . S
C808 C820 1.349 . S
C809 C807 1.327 . S
C809 C825 1.429 . S
C809 H831 0.950 . S
C810 H806 0.949 . S
C810 C818 1.574 . S
C810 C826 1.368 . S
H811 C819 0.950 . S
H812 C817 0.950 . S
H813 C818 0.949 . S
H814 C820 0.950 . S
H815 C821 0.950 . S
H816 C822 0.949 . S
C817 H812 0.950 . S
C817 C819 1.327 . S
C817 C823 1.429 . S
C818 C810 1.574 . S
C818 H813 0.949 . S
C818 C824 1.368 . S
C819 C803 1.349 . S
C819 H811 0.950 . S
C819 C817 1.327 . S
C820 C808 1.349 . S
C820 H814 0.950 . S
C820 C821 1.327 . S
C821 H815 0.950 . S
C821 C820 1.327 . S
C821 C825 1.429 . S
C822 C805 1.574 . S
C822 H816 0.949 . S
C822 C826 1.368 . S
C823 C804 1.429 . S
C823 C817 1.429 . S
C823 C824 1.523 . S
C824 C805 1.368 . S
C824 C818 1.368 . S
C824 C823 1.523 . S
C825 C809 1.429 . S
C825 C821 1.429 . S
C825 C826 1.523 . S
C826 C810 1.368 . S
C826 C822 1.368 . S
C826 C825 1.523 . S
H827 C802 0.950 . S
H828 C804 0.950 . S
H829 C805 0.949 . S
H830 C807 0.950 . S
H831 C809 0.950 . S
C832 C833 1.349 . S
C832 C834 1.327 . S
C832 H857 0.946 1_655 S
C833 C832 1.349 . S
C833 C849 1.349 . S
C834 C832 1.327 . S
C834 C853 1.429 . S
C834 H858 0.955 . S
C835 C852 1.574 . S
C835 C854 1.368 . S
C835 H859 0.949 . S
H836 C840 0.949 . S
C837 C838 1.349 . S
C837 C839 1.327 . S
C837 H860 0.950 . S
C838 C837 1.349 . S
C838 C850 1.349 . S
C839 C837 1.327 . S
C839 C855 1.429 . S
C839 H861 0.950 . S
C840 H836 0.949 . S
C840 C848 1.574 . S
C840 C856 1.368 . S
H841 C849 0.950 . S
H842 C847 0.950 . S
H843 C848 0.949 . S
H844 C850 0.950 . S
H845 C851 0.950 . S
H846 C852 0.949 . S
C847 H842 0.950 . S
C847 C849 1.327 . S
C847 C853 1.429 . S
C848 C840 1.574 . S
C848 H843 0.949 . S
C848 C854 1.368 . S
C849 C833 1.349 . S
C849 H841 0.950 . S
C849 C847 1.327 . S
C850 C838 1.349 . S
C850 H844 0.950 . S
C850 C851 1.327 . S
C851 H845 0.950 . S
C851 C850 1.327 . S
C851 C855 1.429 . S
C852 C835 1.574 . S
C852 H846 0.949 . S
C852 C856 1.368 . S
C853 C834 1.429 . S
C853 C847 1.429 . S
C853 C854 1.523 . S
C854 C835 1.368 . S
C854 C848 1.368 . S
C854 C853 1.523 . S
C855 C839 1.429 . S
C855 C851 1.429 . S
C855 C856 1.523 . S
C856 C840 1.368 . S
C856 C852 1.368 . S
C856 C855 1.523 . S
H857 C832 0.946 1_455 S
H858 C834 0.955 . S
H859 C835 0.949 . S
H860 C837 0.950 . S
H861 C839 0.950 . S
C862 C863 1.349 1_545 S
C862 C864 1.327 . S
C862 H887 0.950 . S
C863 C862 1.349 1_565 S
C863 C879 1.349 . S
C864 C862 1.327 . S
C864 C883 1.429 1_545 S
C864 H888 0.950 . S
C865 C882 1.574 . S
C865 C884 1.368 . S
C865 H889 0.949 . S
H866 C870 0.949 . S
C867 C868 1.349 . S
C867 C869 1.327 . S
C867 H890 0.950 . S
C868 C867 1.349 . S
C868 C880 1.349 1_565 S
C869 C867 1.327 . S
C869 C885 1.429 . S
C869 H891 0.950 . S
C870 H866 0.949 . S
C870 C878 1.574 . S
C870 C886 1.368 1_545 S
H871 C879 0.950 . S
H872 C877 0.950 . S
H873 C878 0.949 . S
H874 C880 0.950 . S
H875 C881 0.950 . S
H876 C882 0.949 . S
C877 H872 0.950 . S
C877 C879 1.327 . S
C877 C883 1.429 . S
C878 C870 1.574 . S
C878 H873 0.949 . S
C878 C884 1.368 1_545 S
C879 C863 1.349 . S
C879 H871 0.950 . S
C879 C877 1.327 . S
C880 C868 1.349 1_545 S
C880 H874 0.950 . S
C880 C881 1.327 . S
C881 H875 0.950 . S
C881 C880 1.327 . S
C881 C885 1.429 1_545 S
C882 C865 1.574 . S
C882 H876 0.949 . S
C882 C886 1.368 . S
C883 C864 1.429 1_565 S
C883 C877 1.429 . S
C883 C884 1.523 . S
C884 C865 1.368 . S
C884 C878 1.368 1_565 S
C884 C883 1.523 . S
C885 C869 1.429 . S
C885 C881 1.429 1_565 S
C885 C886 1.523 . S
C886 C870 1.368 1_565 S
C886 C882 1.368 . S
C886 C885 1.523 . S
H887 C862 0.950 . S
H888 C864 0.950 . S
H889 C865 0.949 . S
H890 C867 0.950 . S
H891 C869 0.950 . S
C892 C893 1.349 . S
C892 C894 1.327 . S
C892 H917 0.950 . S
C893 C892 1.349 . S
C893 C909 1.349 . S
C894 C892 1.327 . S
C894 C913 1.429 . S
C894 H918 0.950 . S
C895 C912 1.574 . S
C895 C914 1.368 . S
C895 H919 0.949 . S
H896 C900 0.949 . S
C897 C898 1.349 . S
C897 C899 1.327 . S
C897 H920 0.950 . S
C898 C897 1.349 . S
C898 C910 1.349 . S
C899 C897 1.327 . S
C899 C915 1.429 . S
C899 H921 0.950 . S
C900 H896 0.949 . S
C900 C908 1.574 . S
C900 C916 1.368 . S
H901 C909 0.950 . S
H902 C907 0.950 . S
H903 C908 0.949 . S
H904 C910 0.950 . S
H905 C911 0.950 . S
H906 C912 0.949 . S
C907 H902 0.950 . S
C907 C909 1.327 . S
C907 C913 1.429 . S
C908 C900 1.574 . S
C908 H903 0.949 . S
C908 C914 1.368 . S
C909 C893 1.349 . S
C909 H901 0.950 . S
C909 C907 1.327 . S
C910 C898 1.349 . S
C910 H904 0.950 . S
C910 C911 1.327 . S
C911 H905 0.950 . S
C911 C910 1.327 . S
C911 C915 1.429 . S
C912 C895 1.574 . S
C912 H906 0.949 . S
C912 C916 1.368 . S
C913 C894 1.429 . S
C913 C907 1.429 . S
C913 C914 1.523 . S
C914 C895 1.368 . S
C914 C908 1.368 . S
C914 C913 1.523 . S
C915 C899 1.429 . S
C915 C911 1.429 . S
C915 C916 1.523 . S
C916 C900 1.368 . S
C916 C912 1.368 . S
C916 C915 1.523 . S
H917 C892 0.950 . S
H918 C894 0.950 . S
H919 C895 0.949 . S
H920 C897 0.950 . S
H921 C899 0.950 . S
C922 C923 1.349 . S
C922 C924 1.327 . S
C922 H947 0.950 . S
C923 C922 1.349 . S
C923 C939 1.349 . S
C924 C922 1.327 . S
C924 C943 1.429 . S
C924 H948 0.950 . S
C925 C942 1.574 . S
C925 C944 1.368 . S
C925 H949 0.949 . S
H926 C930 0.949 . S
C927 C928 1.349 . S
C927 C929 1.327 . S
C927 H950 0.950 . S
C928 C927 1.349 . S
C928 C940 1.349 . S
C929 C927 1.327 . S
C929 C945 1.429 . S
C929 H951 0.950 . S
C930 H926 0.949 . S
C930 C938 1.574 . S
C930 C946 1.368 . S
H931 C939 0.950 . S
H932 C937 0.950 . S
H933 C938 0.949 . S
H934 C940 0.950 . S
H935 C941 0.950 . S
H936 C942 0.949 . S
C937 H932 0.950 . S
C937 C939 1.327 . S
C937 C943 1.429 . S
C938 C930 1.574 . S
C938 H933 0.949 . S
C938 C944 1.368 . S
C939 C923 1.349 . S
C939 H931 0.950 . S
C939 C937 1.327 . S
C940 C928 1.349 . S
C940 H934 0.950 . S
C940 C941 1.327 . S
C941 H935 0.950 . S
C941 C940 1.327 . S
C941 C945 1.429 . S
C942 C925 1.574 . S
C942 H936 0.949 . S
C942 C946 1.368 . S
C943 C924 1.429 . S
C943 C937 1.429 . S
C943 C944 1.523 . S
C944 C925 1.368 . S
C944 C938 1.368 . S
C944 C943 1.523 . S
C945 C929 1.429 . S
C945 C941 1.429 . S
C945 C946 1.523 . S
C946 C930 1.368 . S
C946 C942 1.368 . S
C946 C945 1.523 . S
H947 C922 0.950 . S
H948 C924 0.950 . S
H949 C925 0.949 . S
H950 C927 0.950 . S
H951 C929 0.950 . S
C233 C61 1.652 . S
C238 C82 1.737 . S
C268 C122 1.737 . S
C263 C70 1.662 . S
C298 C162 1.737 . S
C293 C43 1.653 . S
C328 C202 1.735 1_455 S
C323 C52 1.655 . S
C358 C91 1.732 1_565 S
C353 C25 1.653 . S
C383 C34 1.662 . S
C388 C131 1.736 . S
C413 C7 1.653 . S
C418 C171 1.738 . S
C443 C16 1.655 . S
C448 C211 1.740 1_655 S
C478 C88 0.352 . S
C473 C50 0.286 . S
C508 C128 0.354 . S
C503 C59 0.290 . S
C538 C168 0.352 . S
C533 C67 0.272 . S
C563 C41 0.290 . S
C568 C208 0.354 . S
C593 C14 0.271 . S
C598 C79 0.352 . S
C628 C119 0.354 . S
C623 C23 0.274 . S
C658 C159 0.352 . S
C653 C31 0.280 . S
C683 C5 0.274 . S
C688 C199 0.354 . S
C713 C49 1.784 . S
C718 C83 1.976 . S
C743 C58 1.782 . S
C748 C123 1.974 . S
C778 C163 1.975 . S
C773 C68 1.781 . S
C808 C203 1.974 . S
C803 C40 1.782 . S
C833 C13 1.784 . S
C838 C74 1.977 . S
C868 C114 1.974 . S
C863 C22 1.781 . S
C898 C154 1.975 . S
C893 C32 1.782 . S
C923 C4 1.782 . S
C928 C194 1.974 . S
