# Generated by pormake.
# Topology ant, (3,6)-cn, num edge types: 1
# Building blocks:
#     Node 0, Type 0, BuildingBlock: BETDAH_clean_linker_0, # of connection points: 3
#     Node 1, Type 0, BuildingBlock: BETDAH_clean_linker_0, # of connection points: 3
#     Node 2, Type 0, BuildingBlock: BETDAH_clean_linker_0, # of connection points: 3
#     Node 3, Type 0, BuildingBlock: BETDAH_clean_linker_0, # of connection points: 3
#     Node 4, Type 0, BuildingBlock: BETDAH_clean_linker_0, # of connection points: 3
#     Node 5, Type 0, BuildingBlock: BETDAH_clean_linker_0, # of connection points: 3
#     Node 6, Type 0, BuildingBlock: BETDAH_clean_linker_0, # of connection points: 3
#     Node 7, Type 0, BuildingBlock: BETDAH_clean_linker_0, # of connection points: 3
#     Node 8, Type 1, BuildingBlock: MIDCAF_clean_sbu_0, # of connection points: 6
#     Node 9, Type 1, BuildingBlock: MIDCAF_clean_sbu_0, # of connection points: 6
#     Node 10, Type 1, BuildingBlock: MIDCAF_clean_sbu_0, # of connection points: 6
#     Node 11, Type 1, BuildingBlock: MIDCAF_clean_sbu_0, # of connection points: 6
#     Edge 12, Type (0, 1), BuildingBlock: EYOCIG_clean_linker_4, # of connection points: 2
#     Edge 13, Type (0, 1), BuildingBlock: EYOCIG_clean_linker_4, # of connection points: 2
#     Edge 14, Type (0, 1), BuildingBlock: EYOCIG_clean_linker_4, # of connection points: 2
#     Edge 15, Type (0, 1), BuildingBlock: EYOCIG_clean_linker_4, # of connection points: 2
#     Edge 16, Type (0, 1), BuildingBlock: EYOCIG_clean_linker_4, # of connection points: 2
#     Edge 17, Type (0, 1), BuildingBlock: EYOCIG_clean_linker_4, # of connection points: 2
#     Edge 18, Type (0, 1), BuildingBlock: EYOCIG_clean_linker_4, # of connection points: 2
#     Edge 19, Type (0, 1), BuildingBlock: EYOCIG_clean_linker_4, # of connection points: 2
#     Edge 20, Type (0, 1), BuildingBlock: EYOCIG_clean_linker_4, # of connection points: 2
#     Edge 21, Type (0, 1), BuildingBlock: EYOCIG_clean_linker_4, # of connection points: 2
#     Edge 22, Type (0, 1), BuildingBlock: EYOCIG_clean_linker_4, # of connection points: 2
#     Edge 23, Type (0, 1), BuildingBlock: EYOCIG_clean_linker_4, # of connection points: 2
#     Edge 24, Type (0, 1), BuildingBlock: EYOCIG_clean_linker_4, # of connection points: 2
#     Edge 25, Type (0, 1), BuildingBlock: EYOCIG_clean_linker_4, # of connection points: 2
#     Edge 26, Type (0, 1), BuildingBlock: EYOCIG_clean_linker_4, # of connection points: 2
#     Edge 27, Type (0, 1), BuildingBlock: EYOCIG_clean_linker_4, # of connection points: 2
#     Edge 28, Type (0, 1), BuildingBlock: EYOCIG_clean_linker_4, # of connection points: 2
#     Edge 29, Type (0, 1), BuildingBlock: EYOCIG_clean_linker_4, # of connection points: 2
#     Edge 30, Type (0, 1), BuildingBlock: EYOCIG_clean_linker_4, # of connection points: 2
#     Edge 31, Type (0, 1), BuildingBlock: EYOCIG_clean_linker_4, # of connection points: 2
#     Edge 32, Type (0, 1), BuildingBlock: EYOCIG_clean_linker_4, # of connection points: 2
#     Edge 33, Type (0, 1), BuildingBlock: EYOCIG_clean_linker_4, # of connection points: 2
#     Edge 34, Type (0, 1), BuildingBlock: EYOCIG_clean_linker_4, # of connection points: 2
#     Edge 35, Type (0, 1), BuildingBlock: EYOCIG_clean_linker_4, # of connection points: 2
# Relax obj value: 0.057
# Max RMSD: 0.148
# Mean RMSD: 0.089
data_MOF--net-ant--node1-MIDCAF_clean_sbu_0--node2-BETDAH_clean_linker_0--edge1-EYOCIG_clean_linker_4
_symmetry_space_group_name_H-M    P1
_symmetry_Int_Tables_number       1
_symmetry_cell_setting            triclinic
loop_
_symmetry_equiv_pos_as_xyz
'x, y, z'
_cell_length_a     23.306968
_cell_length_b     22.853861
_cell_length_c     54.909616
_cell_angle_alpha  92.75513
_cell_angle_beta   99.34815
_cell_angle_gamma 88.958448
loop_
_atom_site_label
_atom_site_type_symbol
_atom_site_fract_x
_atom_site_fract_y
_atom_site_fract_z
_atom_type_partial_charge
H0 H 0.16203 0.31938 0.03431 0.0
H1 H 0.22025 0.15132 0.06131 0.0
H2 H 0.22686 0.30287 0.11161 0.0
C3 C 0.17953 0.29244 0.04958 0.0
C4 C 0.19258 0.31798 0.07346 0.0
C5 C 0.18957 0.23247 0.04523 0.0
C6 C 0.21222 0.19753 0.06491 0.0
C7 C 0.22586 0.22291 0.08903 0.0
C8 C 0.21623 0.28323 0.09309 0.0
N9 N 0.24998 0.18946 0.10947 0.0
C10 C 0.24991 0.12853 0.1092 0.0
H11 H 0.19912 0.79868 0.29308 0.0
H12 H 0.02215 0.76668 0.30128 0.0
H13 H 0.14938 0.8126 0.36521 0.0
C14 C 0.16582 0.79714 0.30474 0.0
C15 C 0.18047 0.80855 0.33026 0.0
C16 C 0.10881 0.78199 0.2943 0.0
C17 C 0.06599 0.77905 0.30943 0.0
C18 C 0.08057 0.79044 0.33513 0.0
C19 C 0.13792 0.80489 0.34538 0.0
N20 N 0.03934 0.78631 0.35134 0.0
C21 C 0.97966 0.78205 0.34375 0.0
H22 H 0.66648 0.81604 0.53434 0.0
H23 H 0.7246 0.64749 0.56082 0.0
H24 H 0.73258 0.79851 0.61147 0.0
C25 C 0.68413 0.78885 0.54952 0.0
C26 C 0.69769 0.81409 0.57342 0.0
C27 C 0.6939 0.72892 0.545 0.0
C28 C 0.71676 0.69369 0.56455 0.0
C29 C 0.73089 0.7188 0.5887 0.0
C30 C 0.72155 0.77909 0.59292 0.0
N31 N 0.7553 0.68512 0.60902 0.0
C32 C 0.75463 0.62423 0.60868 0.0
H33 H 0.70175 0.29332 0.79341 0.0
H34 H 0.52479 0.25885 0.80093 0.0
H35 H 0.64993 0.30801 0.86513 0.0
C36 C 0.66815 0.29143 0.80491 0.0
C37 C 0.682 0.30369 0.83039 0.0
C38 C 0.61157 0.27518 0.79428 0.0
C39 C 0.56832 0.27199 0.8092 0.0
C40 C 0.58211 0.28417 0.83489 0.0
C41 C 0.63909 0.29962 0.84532 0.0
N42 N 0.54049 0.27992 0.85091 0.0
C43 C 0.48077 0.27652 0.8432 0.0
H44 H 0.0387 0.6175 0.94119 0.0
H45 H 0.06795 0.80334 0.94599 0.0
H46 H 0.00313 0.71608 0.87571 0.0
C47 C 0.03724 0.65916 0.93238 0.0
C48 C 0.01846 0.66129 0.90698 0.0
C49 C 0.05491 0.71004 0.94646 0.0
C50 C 0.05409 0.76393 0.93502 0.0
C51 C 0.03501 0.76615 0.90931 0.0
C52 C 0.01698 0.71464 0.8955 0.0
N53 N 0.0336 0.81861 0.89642 0.0
C54 C 0.05267 0.87312 0.90651 0.0
H55 H 0.53978 0.78531 0.20096 0.0
H56 H 0.71624 0.74058 0.19352 0.0
H57 H 0.58803 0.7648 0.12866 0.0
C58 C 0.57277 0.77696 0.18933 0.0
C59 C 0.55762 0.77794 0.16361 0.0
C60 C 0.6299 0.76346 0.20008 0.0
C61 C 0.67235 0.7517 0.18508 0.0
C62 C 0.65735 0.75237 0.15918 0.0
C63 C 0.59984 0.76524 0.14861 0.0
N64 N 0.69841 0.73879 0.14323 0.0
C65 C 0.75823 0.73592 0.1509 0.0
H66 H 0.53654 0.11215 0.44108 0.0
H67 H 0.57638 0.29582 0.44649 0.0
H68 H 0.50638 0.21251 0.376 0.0
C69 C 0.53724 0.15384 0.43244 0.0
C70 C 0.51838 0.15713 0.40709 0.0
C71 C 0.55799 0.20356 0.44666 0.0
C72 C 0.56 0.25734 0.43542 0.0
C73 C 0.54096 0.2606 0.40975 0.0
C74 C 0.52001 0.21032 0.39579 0.0
N75 N 0.543 0.31281 0.39702 0.0
C76 C 0.56102 0.36695 0.40777 0.0
H77 H 0.04218 0.2868 0.70099 0.0
H78 H 0.21719 0.23568 0.69375 0.0
H79 H 0.09003 0.26182 0.62875 0.0
C80 C 0.075 0.27696 0.6894 0.0
C81 C 0.06005 0.27746 0.66367 0.0
C82 C 0.13165 0.26189 0.70021 0.0
C83 C 0.1737 0.24806 0.68525 0.0
C84 C 0.15877 0.24826 0.65934 0.0
C85 C 0.10181 0.26271 0.6487 0.0
N86 N 0.1994 0.23269 0.64346 0.0
C87 C 0.25905 0.22971 0.65129 0.0
Zn88 Zn 0.21365 0.66549 0.15177 0.0
Zn89 Zn 0.07174 0.80199 0.09992 0.0
Zn90 Zn 0.14595 0.73185 0.1228 0.0
C91 C 0.10108 0.71351 0.06626 0.0
C92 C 0.16927 0.86746 0.11397 0.0
O93 O 0.11266 0.72702 0.15838 0.0
O94 O 0.18422 0.68492 0.18322 0.0
C95 C 0.16879 0.59526 0.11056 0.0
O96 O 0.12483 0.6884 0.08593 0.0
O97 O 0.07814 0.76368 0.06752 0.0
O98 O 0.11529 0.87565 0.10794 0.0
O99 O 0.18997 0.81583 0.11879 0.0
O100 O 0.19249 0.59092 0.13275 0.0
O101 O 0.15164 0.64559 0.10226 0.0
O102 O 0.23144 0.77517 0.12953 0.0
O103 O 0.28641 0.70366 0.14694 0.0
C104 C 0.28175 0.75352 0.1379 0.0
O105 O 0.06609 0.74082 0.14073 0.0
O106 O 0.0014 0.78769 0.11437 0.0
C107 C 0.13595 0.71151 0.18007 0.0
C108 C 0.0138 0.75988 0.1338 0.0
Zn109 Zn 0.52728 0.68798 0.34213 0.0
Zn110 Zn 0.66644 0.84059 0.40103 0.0
Zn111 Zn 0.59479 0.76446 0.37187 0.0
C112 C 0.56099 0.89763 0.38346 0.0
C113 C 0.723 0.79939 0.36234 0.0
O114 O 0.59312 0.68309 0.39146 0.0
O115 O 0.55041 0.6195 0.3627 0.0
C116 C 0.45666 0.78081 0.35553 0.0
O117 O 0.54528 0.84559 0.3756 0.0
O118 O 0.61242 0.9081 0.3938 0.0
O119 O 0.73309 0.82758 0.38287 0.0
O120 O 0.67275 0.77683 0.35453 0.0
O121 O 0.45341 0.72959 0.34582 0.0
O122 O 0.50618 0.80313 0.36479 0.0
O123 O 0.62925 0.75321 0.33675 0.0
O124 O 0.56206 0.70136 0.31209 0.0
C125 C 0.60821 0.73069 0.31528 0.0
O126 O 0.62107 0.72548 0.4081 0.0
O127 O 0.66593 0.79786 0.43165 0.0
C128 C 0.57635 0.63083 0.38438 0.0
C129 C 0.64578 0.74667 0.42928 0.0
Zn130 Zn 0.57531 0.29742 0.59957 0.0
Zn131 Zn 0.72154 0.1617 0.65184 0.0
Zn132 Zn 0.65168 0.22769 0.62274 0.0
C133 C 0.78677 0.25191 0.63746 0.0
C134 C 0.67595 0.0914 0.6105 0.0
O135 O 0.57356 0.23676 0.64125 0.0
O136 O 0.50687 0.2824 0.61527 0.0
C137 C 0.6731 0.36338 0.61305 0.0
O138 O 0.73599 0.27213 0.62897 0.0
O139 O 0.79284 0.2024 0.64679 0.0
O140 O 0.70114 0.08731 0.6325 0.0
O141 O 0.65747 0.14147 0.60233 0.0
O142 O 0.61907 0.37125 0.60702 0.0
O143 O 0.69414 0.31202 0.61815 0.0
O144 O 0.62988 0.18366 0.58602 0.0
O145 O 0.58111 0.25756 0.56736 0.0
C146 C 0.60498 0.20779 0.56629 0.0
O147 O 0.62011 0.22194 0.65871 0.0
O148 O 0.69187 0.1796 0.68337 0.0
C149 C 0.52098 0.25534 0.63482 0.0
C150 C 0.64343 0.2059 0.68032 0.0
Zn151 Zn 0.02827 0.19006 0.8421 0.0
Zn152 Zn 0.16786 0.3387 0.90098 0.0
Zn153 Zn 0.09539 0.26422 0.87203 0.0
C154 C 0.14481 0.24543 0.92925 0.0
C155 C 0.06416 0.39852 0.88369 0.0
O156 O 0.13024 0.25296 0.83693 0.0
O157 O 0.06219 0.20308 0.81191 0.0
C158 C 0.07499 0.12998 0.88366 0.0
O159 O 0.12017 0.22418 0.90807 0.0
O160 O 0.16579 0.29626 0.93154 0.0
O161 O 0.11591 0.40774 0.8939 0.0
O162 O 0.04716 0.34674 0.87589 0.0
O163 O 0.04983 0.12003 0.86175 0.0
O164 O 0.09208 0.18188 0.89132 0.0
O165 O 0.00745 0.30459 0.86515 0.0
O166 O 0.95454 0.23141 0.84597 0.0
C167 C 0.95785 0.28244 0.85585 0.0
O168 O 0.17401 0.27551 0.85483 0.0
O169 O 0.23512 0.32505 0.88327 0.0
C170 C 0.10897 0.23135 0.81532 0.0
C171 C 0.22466 0.29719 0.86268 0.0
C172 C 0.17331 0.43178 0.0812 0.0
C173 C 0.18204 0.37997 0.07763 0.0
C174 C 0.1656 0.49227 0.087 0.0
C175 C 0.16368 0.54229 0.09511 0.0
C176 C 0.86641 0.78138 0.33836 0.0
C177 C 0.92732 0.78033 0.33933 0.0
C178 C 0.81671 0.78432 0.34187 0.0
C179 C 0.77061 0.78823 0.34911 0.0
C180 C 0.74587 0.51969 0.61075 0.0
C181 C 0.75202 0.57166 0.60938 0.0
C182 C 0.7312 0.46054 0.61264 0.0
C183 C 0.71009 0.41309 0.61358 0.0
C184 C 0.7921 0.32631 0.84827 0.0
C185 C 0.74131 0.31636 0.84122 0.0
C186 C 0.85337 0.32657 0.85415 0.0
C187 C 0.90436 0.31397 0.85663 0.0
C188 C -0.00146 0.55726 0.8853 0.0
C189 C 0.00569 0.60725 0.8929 0.0
C190 C 0.00542 0.49664 0.88088 0.0
C191 C 0.02541 0.4478 0.88058 0.0
C192 C 0.87164 0.73699 0.15696 0.0
C193 C 0.81062 0.73507 0.15556 0.0
C194 C 0.92142 0.741 0.15383 0.0
C195 C 0.96745 0.74653 0.14689 0.0
C196 C 0.58474 0.4775 0.41518 0.0
C197 C 0.57426 0.41683 0.41385 0.0
C198 C 0.58858 0.52848 0.41122 0.0
C199 C 0.58663 0.58387 0.40092 0.0
C200 C 0.94995 0.29796 0.64533 0.0
C201 C 0.00062 0.28841 0.65276 0.0
C202 C 0.88885 0.29755 0.63915 0.0
C203 C 0.83844 0.28421 0.63668 0.0
C204 C 0.37231 0.2314 0.65902 0.0
C205 C 0.31125 0.22907 0.65655 0.0
C206 C 0.42262 0.23548 0.65686 0.0
C207 C 0.47632 0.24174 0.64868 0.0
C208 C 0.44669 0.79644 0.14567 0.0
C209 C 0.49776 0.78784 0.15282 0.0
C210 C 0.38538 0.79637 0.13976 0.0
C211 C 0.33454 0.78433 0.13729 0.0
C212 C 0.36753 0.27762 0.83823 0.0
C213 C 0.42837 0.27564 0.83889 0.0
C214 C 0.318 0.28121 0.84197 0.0
C215 C 0.27209 0.28564 0.84936 0.0
C216 C 0.2913 0.82795 0.34786 0.0
C217 C 0.24023 0.81945 0.34091 0.0
C218 C 0.35255 0.82637 0.35365 0.0
C219 C 0.40326 0.81263 0.3561 0.0
C220 C 0.67899 0.92787 0.58125 0.0
C221 C 0.68752 0.87605 0.5777 0.0
C222 C 0.67161 0.98838 0.587 0.0
C223 C 0.67006 0.03838 0.59512 0.0
C224 C 0.24023 0.01513 0.11188 0.0
C225 C 0.24789 0.07591 0.10999 0.0
C226 C 0.22683 0.9649 0.11354 0.0
C227 C 0.20641 0.91711 0.11454 0.0
C228 C 0.49373 0.05462 0.38492 0.0
C229 C 0.50307 0.10407 0.39274 0.0
C230 C 0.50008 0.99412 0.38037 0.0
C231 C 0.52103 0.94577 0.38016 0.0
C232 C 0.07751 0.9748 0.91299 0.0
C233 C 0.06678 0.92324 0.91171 0.0
C234 C 0.08393 0.03446 0.90853 0.0
C235 C 0.08325 0.0818 0.89971 0.0
C236 C 0.16682 0.19762 0.99828 0.0
C237 C 0.17853 0.20839 0.02021 0.0
C238 C 0.15476 0.19894 0.9723 0.0
C239 C 0.14693 0.21346 0.95121 0.0
C240 C 0.09184 0.75515 0.24632 0.0
C241 C 0.09586 0.76673 0.2682 0.0
C242 C 0.09684 0.74091 0.2214 0.0
C243 C 0.11062 0.72948 0.20145 0.0
C244 C 0.67027 0.69549 0.49795 0.0
C245 C 0.68243 0.7053 0.51992 0.0
C246 C 0.65757 0.69833 0.47203 0.0
C247 C 0.64908 0.71398 0.4511 0.0
C248 C 0.59673 0.24765 0.74637 0.0
C249 C 0.59957 0.25944 0.7682 0.0
C250 C 0.60313 0.23371 0.72158 0.0
C251 C 0.61775 0.22288 0.70173 0.0
C252 C 0.08672 0.69526 0.99418 0.0
C253 C 0.07291 0.70524 0.97265 0.0
C254 C 0.09823 0.68592 0.01975 0.0
C255 C 0.10386 0.68921 0.04197 0.0
C256 C 0.649 0.75533 0.24857 0.0
C257 C 0.64347 0.75832 0.22645 0.0
C258 C 0.64585 0.74956 0.2738 0.0
C259 C 0.63305 0.7437 0.29394 0.0
C260 C 0.59052 0.18772 0.49428 0.0
C261 C 0.57646 0.1978 0.47277 0.0
C262 C 0.60218 0.17895 0.51989 0.0
C263 C 0.6079 0.18299 0.5421 0.0
C264 C 0.15064 0.25462 0.74874 0.0
C265 C 0.14502 0.25713 0.7266 0.0
C266 C 0.14752 0.24941 0.77399 0.0
C267 C 0.13456 0.24392 0.79412 0.0
loop_
_geom_bond_atom_site_label_1
_geom_bond_atom_site_label_2
_geom_bond_distance
_geom_bond_site_symmetry_2
_ccdc_geom_bond_type
H0 C3 0.929 . S
H1 C6 0.929 . S
H2 C8 0.930 . S
C3 H0 0.929 . S
C3 C4 1.398 . S
C3 C5 1.396 . S
C4 C3 1.398 . S
C4 C8 1.407 . S
C5 C3 1.396 . S
C5 C6 1.394 . S
C6 H1 0.929 . S
C6 C5 1.394 . S
C6 C7 1.382 . S
C7 C6 1.382 . S
C7 C8 1.392 . S
C7 N9 1.420 . S
C8 H2 0.930 . S
C8 C4 1.407 . S
C8 C7 1.392 . S
N9 C7 1.420 . S
N9 C10 1.244 . S
C10 N9 1.244 . S
H11 C14 0.929 . S
H12 C17 0.929 . S
H13 C19 0.930 . S
C14 H11 0.929 . S
C14 C15 1.398 . S
C14 C16 1.396 . S
C15 C14 1.398 . S
C15 C19 1.407 . S
C16 C14 1.396 . S
C16 C17 1.394 . S
C17 H12 0.929 . S
C17 C16 1.394 . S
C17 C18 1.382 . S
C18 C17 1.382 . S
C18 C19 1.392 . S
C18 N20 1.420 . S
C19 H13 0.930 . S
C19 C15 1.407 . S
C19 C18 1.392 . S
N20 C18 1.420 . S
N20 C21 1.244 1_455 S
C21 N20 1.244 1_655 S
H22 C25 0.929 . S
H23 C28 0.929 . S
H24 C30 0.930 . S
C25 H22 0.929 . S
C25 C26 1.398 . S
C25 C27 1.396 . S
C26 C25 1.398 . S
C26 C30 1.407 . S
C27 C25 1.396 . S
C27 C28 1.394 . S
C28 H23 0.929 . S
C28 C27 1.394 . S
C28 C29 1.382 . S
C29 C28 1.382 . S
C29 C30 1.392 . S
C29 N31 1.420 . S
C30 H24 0.930 . S
C30 C26 1.407 . S
C30 C29 1.392 . S
N31 C29 1.420 . S
N31 C32 1.244 . S
C32 N31 1.244 . S
H33 C36 0.929 . S
H34 C39 0.929 . S
H35 C41 0.930 . S
C36 H33 0.929 . S
C36 C37 1.398 . S
C36 C38 1.396 . S
C37 C36 1.398 . S
C37 C41 1.407 . S
C38 C36 1.396 . S
C38 C39 1.394 . S
C39 H34 0.929 . S
C39 C38 1.394 . S
C39 C40 1.382 . S
C40 C39 1.382 . S
C40 C41 1.392 . S
C40 N42 1.420 . S
C41 H35 0.930 . S
C41 C37 1.407 . S
C41 C40 1.392 . S
N42 C40 1.420 . S
N42 C43 1.244 . S
C43 N42 1.244 . S
H44 C47 0.929 . S
H45 C50 0.929 . S
H46 C52 0.930 . S
C47 H44 0.929 . S
C47 C48 1.398 . S
C47 C49 1.396 . S
C48 C47 1.398 . S
C48 C52 1.407 . S
C49 C47 1.396 . S
C49 C50 1.394 . S
C50 H45 0.929 . S
C50 C49 1.394 . S
C50 C51 1.382 . S
C51 C50 1.382 . S
C51 C52 1.392 . S
C51 N53 1.420 . S
C52 H46 0.930 . S
C52 C48 1.407 . S
C52 C51 1.392 . S
N53 C51 1.420 . S
N53 C54 1.244 . S
C54 N53 1.244 . S
H55 C58 0.929 . S
H56 C61 0.929 . S
H57 C63 0.930 . S
C58 H55 0.929 . S
C58 C59 1.398 . S
C58 C60 1.396 . S
C59 C58 1.398 . S
C59 C63 1.407 . S
C60 C58 1.396 . S
C60 C61 1.394 . S
C61 H56 0.929 . S
C61 C60 1.394 . S
C61 C62 1.382 . S
C62 C61 1.382 . S
C62 C63 1.392 . S
C62 N64 1.420 . S
C63 H57 0.930 . S
C63 C59 1.407 . S
C63 C62 1.392 . S
N64 C62 1.420 . S
N64 C65 1.244 . S
C65 N64 1.244 . S
H66 C69 0.929 . S
H67 C72 0.929 . S
H68 C74 0.930 . S
C69 H66 0.929 . S
C69 C70 1.398 . S
C69 C71 1.396 . S
C70 C69 1.398 . S
C70 C74 1.407 . S
C71 C69 1.396 . S
C71 C72 1.394 . S
C72 H67 0.929 . S
C72 C71 1.394 . S
C72 C73 1.382 . S
C73 C72 1.382 . S
C73 C74 1.392 . S
C73 N75 1.420 . S
C74 H68 0.930 . S
C74 C70 1.407 . S
C74 C73 1.392 . S
N75 C73 1.420 . S
N75 C76 1.244 . S
C76 N75 1.244 . S
H77 C80 0.929 . S
H78 C83 0.929 . S
H79 C85 0.930 . S
C80 H77 0.929 . S
C80 C81 1.398 . S
C80 C82 1.396 . S
C81 C80 1.398 . S
C81 C85 1.407 . S
C82 C80 1.396 . S
C82 C83 1.394 . S
C83 H78 0.929 . S
C83 C82 1.394 . S
C83 C84 1.382 . S
C84 C83 1.382 . S
C84 C85 1.392 . S
C84 N86 1.420 . S
C85 H79 0.930 . S
C85 C81 1.407 . S
C85 C84 1.392 . S
N86 C84 1.420 . S
N86 C87 1.244 . S
C87 N86 1.244 . S
Zn88 O94 1.920 . S
Zn88 O100 1.898 . S
Zn88 O103 1.905 . S
Zn89 O97 1.905 . S
Zn89 O98 1.898 . S
Zn89 O106 1.920 . S
Zn90 O93 2.080 . S
Zn90 O96 2.114 . S
Zn90 O99 2.120 . S
Zn90 O101 2.120 . S
Zn90 O102 2.114 . S
Zn90 O105 2.080 . S
C91 O96 1.166 . S
C91 O97 1.182 . S
C92 O98 1.167 . S
C92 O99 1.299 . S
O93 Zn90 2.080 . S
O93 C107 1.305 . S
O94 Zn88 1.920 . S
O94 C107 1.234 . S
C95 O100 1.167 . S
C95 O101 1.299 . S
O96 Zn90 2.114 . S
O96 C91 1.166 . S
O97 Zn89 1.905 . S
O97 C91 1.182 . S
O98 Zn89 1.898 . S
O98 C92 1.167 . S
O99 Zn90 2.120 . S
O99 C92 1.299 . S
O100 Zn88 1.898 . S
O100 C95 1.167 . S
O101 Zn90 2.120 . S
O101 C95 1.299 . S
O102 Zn90 2.114 . S
O102 C104 1.166 . S
O103 Zn88 1.905 . S
O103 C104 1.182 . S
C104 O102 1.166 . S
C104 O103 1.182 . S
O105 Zn90 2.080 . S
O105 C108 1.305 . S
O106 Zn89 1.920 . S
O106 C108 1.234 . S
C107 O93 1.305 . S
C107 O94 1.234 . S
C108 O105 1.305 . S
C108 O106 1.234 . S
Zn109 O115 1.920 . S
Zn109 O121 1.898 . S
Zn109 O124 1.905 . S
Zn110 O118 1.905 . S
Zn110 O119 1.898 . S
Zn110 O127 1.920 . S
Zn111 O114 2.080 . S
Zn111 O117 2.114 . S
Zn111 O120 2.120 . S
Zn111 O122 2.120 . S
Zn111 O123 2.114 . S
Zn111 O126 2.080 . S
C112 O117 1.166 . S
C112 O118 1.182 . S
C113 O119 1.167 . S
C113 O120 1.299 . S
O114 Zn111 2.080 . S
O114 C128 1.305 . S
O115 Zn109 1.920 . S
O115 C128 1.234 . S
C116 O121 1.167 . S
C116 O122 1.299 . S
O117 Zn111 2.114 . S
O117 C112 1.166 . S
O118 Zn110 1.905 . S
O118 C112 1.182 . S
O119 Zn110 1.898 . S
O119 C113 1.167 . S
O120 Zn111 2.120 . S
O120 C113 1.299 . S
O121 Zn109 1.898 . S
O121 C116 1.167 . S
O122 Zn111 2.120 . S
O122 C116 1.299 . S
O123 Zn111 2.114 . S
O123 C125 1.166 . S
O124 Zn109 1.905 . S
O124 C125 1.182 . S
C125 O123 1.166 . S
C125 O124 1.182 . S
O126 Zn111 2.080 . S
O126 C129 1.305 . S
O127 Zn110 1.920 . S
O127 C129 1.234 . S
C128 O114 1.305 . S
C128 O115 1.234 . S
C129 O126 1.305 . S
C129 O127 1.234 . S
Zn130 O136 1.920 . S
Zn130 O142 1.898 . S
Zn130 O145 1.905 . S
Zn131 O139 1.905 . S
Zn131 O140 1.898 . S
Zn131 O148 1.920 . S
Zn132 O135 2.080 . S
Zn132 O138 2.114 . S
Zn132 O141 2.120 . S
Zn132 O143 2.120 . S
Zn132 O144 2.114 . S
Zn132 O147 2.080 . S
C133 O138 1.166 . S
C133 O139 1.182 . S
C134 O140 1.167 . S
C134 O141 1.299 . S
O135 Zn132 2.080 . S
O135 C149 1.305 . S
O136 Zn130 1.920 . S
O136 C149 1.234 . S
C137 O142 1.167 . S
C137 O143 1.299 . S
O138 Zn132 2.114 . S
O138 C133 1.166 . S
O139 Zn131 1.905 . S
O139 C133 1.182 . S
O140 Zn131 1.898 . S
O140 C134 1.167 . S
O141 Zn132 2.120 . S
O141 C134 1.299 . S
O142 Zn130 1.898 . S
O142 C137 1.167 . S
O143 Zn132 2.120 . S
O143 C137 1.299 . S
O144 Zn132 2.114 . S
O144 C146 1.166 . S
O145 Zn130 1.905 . S
O145 C146 1.182 . S
C146 O144 1.166 . S
C146 O145 1.182 . S
O147 Zn132 2.080 . S
O147 C150 1.305 . S
O148 Zn131 1.920 . S
O148 C150 1.234 . S
C149 O135 1.305 . S
C149 O136 1.234 . S
C150 O147 1.305 . S
C150 O148 1.234 . S
Zn151 O157 1.929 . S
Zn151 O163 1.901 . S
Zn151 O166 1.896 1_455 S
Zn152 O160 1.905 . S
Zn152 O161 1.898 . S
Zn152 O169 1.920 . S
Zn153 O156 2.080 . S
Zn153 O159 2.114 . S
Zn153 O162 2.120 . S
Zn153 O164 2.120 . S
Zn153 O165 2.114 . S
Zn153 O168 2.080 . S
C154 O159 1.166 . S
C154 O160 1.182 . S
C155 O161 1.167 . S
C155 O162 1.299 . S
O156 Zn153 2.080 . S
O156 C170 1.305 . S
O157 Zn151 1.929 . S
O157 C170 1.234 . S
C158 O163 1.167 . S
C158 O164 1.299 . S
O159 Zn153 2.114 . S
O159 C154 1.166 . S
O160 Zn152 1.905 . S
O160 C154 1.182 . S
O161 Zn152 1.898 . S
O161 C155 1.167 . S
O162 Zn153 2.120 . S
O162 C155 1.299 . S
O163 Zn151 1.901 . S
O163 C158 1.167 . S
O164 Zn153 2.120 . S
O164 C158 1.299 . S
O165 Zn153 2.114 . S
O165 C167 1.166 1_455 S
O166 Zn151 1.896 1_655 S
O166 C167 1.182 . S
C167 O165 1.166 1_655 S
C167 O166 1.182 . S
O168 Zn153 2.080 . S
O168 C171 1.305 . S
O169 Zn152 1.920 . S
O169 C171 1.234 . S
C170 O156 1.305 . S
C170 O157 1.234 . S
C171 O168 1.305 . S
C171 O169 1.234 . S
C172 C173 1.170 . S
C172 C174 1.380 . S
C173 C172 1.170 . S
C174 C172 1.380 . S
C174 C175 1.170 . S
C175 C174 1.170 . S
C176 C177 1.170 . S
C176 C178 1.380 . S
C177 C176 1.170 . S
C178 C176 1.380 . S
C178 C179 1.170 . S
C179 C178 1.170 . S
C180 C181 1.170 . S
C180 C182 1.380 . S
C181 C180 1.170 . S
C182 C180 1.380 . S
C182 C183 1.170 . S
C183 C182 1.170 . S
C184 C185 1.170 . S
C184 C186 1.380 . S
C185 C184 1.170 . S
C186 C184 1.380 . S
C186 C187 1.170 . S
C187 C186 1.170 . S
C188 C189 1.170 . S
C188 C190 1.380 . S
C189 C188 1.170 . S
C190 C188 1.380 . S
C190 C191 1.170 . S
C191 C190 1.170 . S
C192 C193 1.170 . S
C192 C194 1.380 . S
C193 C192 1.170 . S
C194 C192 1.380 . S
C194 C195 1.170 . S
C195 C194 1.170 . S
C196 C197 1.170 . S
C196 C198 1.380 . S
C197 C196 1.170 . S
C198 C196 1.380 . S
C198 C199 1.170 . S
C199 C198 1.170 . S
C200 C201 1.170 1_655 S
C200 C202 1.380 . S
C201 C200 1.170 1_455 S
C202 C200 1.380 . S
C202 C203 1.170 . S
C203 C202 1.170 . S
C204 C205 1.170 . S
C204 C206 1.380 . S
C205 C204 1.170 . S
C206 C204 1.380 . S
C206 C207 1.170 . S
C207 C206 1.170 . S
C208 C209 1.170 . S
C208 C210 1.380 . S
C209 C208 1.170 . S
C210 C208 1.380 . S
C210 C211 1.170 . S
C211 C210 1.170 . S
C212 C213 1.170 . S
C212 C214 1.380 . S
C213 C212 1.170 . S
C214 C212 1.380 . S
C214 C215 1.170 . S
C215 C214 1.170 . S
C216 C217 1.170 . S
C216 C218 1.380 . S
C217 C216 1.170 . S
C218 C216 1.380 . S
C218 C219 1.170 . S
C219 C218 1.170 . S
C220 C221 1.170 . S
C220 C222 1.380 . S
C221 C220 1.170 . S
C222 C220 1.380 . S
C222 C223 1.170 1_565 S
C223 C222 1.170 1_545 S
C224 C225 1.170 . S
C224 C226 1.380 1_545 S
C225 C224 1.170 . S
C226 C224 1.380 1_565 S
C226 C227 1.170 . S
C227 C226 1.170 . S
C228 C229 1.170 . S
C228 C230 1.380 1_545 S
C229 C228 1.170 . S
C230 C228 1.380 1_565 S
C230 C231 1.170 . S
C231 C230 1.170 . S
C232 C233 1.170 . S
C232 C234 1.380 1_565 S
C233 C232 1.170 . S
C234 C232 1.380 1_545 S
C234 C235 1.170 . S
C235 C234 1.170 . S
C236 C237 1.170 1_556 S
C236 C238 1.380 . S
C237 C236 1.170 1_554 S
C238 C236 1.380 . S
C238 C239 1.170 . S
C239 C238 1.170 . S
C240 C241 1.170 . S
C240 C242 1.380 . S
C241 C240 1.170 . S
C242 C240 1.380 . S
C242 C243 1.170 . S
C243 C242 1.170 . S
C244 C245 1.170 . S
C244 C246 1.380 . S
C245 C244 1.170 . S
C246 C244 1.380 . S
C246 C247 1.170 . S
C247 C246 1.170 . S
C248 C249 1.170 . S
C248 C250 1.380 . S
C249 C248 1.170 . S
C250 C248 1.380 . S
C250 C251 1.170 . S
C251 C250 1.170 . S
C252 C253 1.179 . S
C252 C254 1.372 1_556 S
C253 C252 1.179 . S
C254 C252 1.372 1_554 S
C254 C255 1.170 . S
C255 C254 1.170 . S
C256 C257 1.170 . S
C256 C258 1.380 . S
C257 C256 1.170 . S
C258 C256 1.380 . S
C258 C259 1.170 . S
C259 C258 1.170 . S
C260 C261 1.170 . S
C260 C262 1.380 . S
C261 C260 1.170 . S
C262 C260 1.380 . S
C262 C263 1.170 . S
C263 C262 1.170 . S
C264 C265 1.170 . S
C264 C266 1.380 . S
C265 C264 1.170 . S
C266 C264 1.380 . S
C266 C267 1.170 . S
C267 C266 1.170 . S
C175 C95 1.421 . S
C173 C4 1.533 . S
C179 C113 1.405 . S
C177 C21 1.456 . S
C181 C32 1.406 . S
C183 C137 1.290 . S
C187 C167 1.261 . S
C185 C37 1.423 . S
C191 C155 1.304 . S
C189 C48 1.386 . S
C193 C65 1.485 . S
C195 C108 1.403 1_655 S
C197 C76 1.594 . S
C199 C128 1.489 . S
C201 C81 1.444 . S
C203 C133 1.337 . S
C205 C87 1.480 . S
C207 C149 1.379 . S
C209 C59 1.433 . S
C211 C104 1.291 . S
C215 C171 1.412 . S
C213 C43 1.454 . S
C219 C116 1.286 . S
C217 C15 1.430 . S
C221 C26 1.533 . S
C223 C134 1.396 . S
C225 C10 1.412 . S
C227 C92 1.295 . S
C231 C112 1.312 . S
C229 C70 1.385 . S
C235 C158 1.497 . S
C233 C54 1.580 . S
C239 C154 1.404 . S
C237 C5 1.519 . S
C243 C107 1.494 . S
C241 C16 1.533 . S
C245 C27 1.515 . S
C247 C129 1.338 . S
C249 C38 1.548 . S
C251 C150 1.508 . S
C255 C91 1.305 . S
C253 C49 1.586 . S
C257 C60 1.514 . S
C259 C125 1.463 . S
C263 C146 1.312 . S
C261 C71 1.598 . S
C267 C170 1.413 . S
C265 C82 1.482 . S
