# Generated by pormake.
# Topology ptr, (4,4)-cn, num edge types: 1
# Building blocks:
#     Node 0, Type 0, BuildingBlock: QUQFOY_clean_sbu_3, # of connection points: 4
#     Node 1, Type 0, BuildingBlock: QUQFOY_clean_sbu_3, # of connection points: 4
#     Node 2, Type 0, BuildingBlock: QUQFOY_clean_sbu_3, # of connection points: 4
#     Node 3, Type 0, BuildingBlock: QUQFOY_clean_sbu_3, # of connection points: 4
#     Node 4, Type 0, BuildingBlock: QUQFOY_clean_sbu_3, # of connection points: 4
#     Node 5, Type 0, BuildingBlock: QUQFOY_clean_sbu_3, # of connection points: 4
#     Node 6, Type 0, BuildingBlock: QUQFOY_clean_sbu_3, # of connection points: 4
#     Node 7, Type 0, BuildingBlock: QUQFOY_clean_sbu_3, # of connection points: 4
#     Node 8, Type 0, BuildingBlock: QUQFOY_clean_sbu_3, # of connection points: 4
#     Node 9, Type 0, BuildingBlock: QUQFOY_clean_sbu_3, # of connection points: 4
#     Node 10, Type 0, BuildingBlock: QUQFOY_clean_sbu_3, # of connection points: 4
#     Node 11, Type 0, BuildingBlock: QUQFOY_clean_sbu_3, # of connection points: 4
#     Node 12, Type 0, BuildingBlock: QUQFOY_clean_sbu_3, # of connection points: 4
#     Node 13, Type 0, BuildingBlock: QUQFOY_clean_sbu_3, # of connection points: 4
#     Node 14, Type 0, BuildingBlock: QUQFOY_clean_sbu_3, # of connection points: 4
#     Node 15, Type 0, BuildingBlock: QUQFOY_clean_sbu_3, # of connection points: 4
#     Node 16, Type 0, BuildingBlock: QUQFOY_clean_sbu_3, # of connection points: 4
#     Node 17, Type 0, BuildingBlock: QUQFOY_clean_sbu_3, # of connection points: 4
#     Node 18, Type 1, BuildingBlock: KUFVIS_clean_linker_0, # of connection points: 4
#     Node 19, Type 1, BuildingBlock: KUFVIS_clean_linker_0, # of connection points: 4
#     Node 20, Type 1, BuildingBlock: KUFVIS_clean_linker_0, # of connection points: 4
#     Node 21, Type 1, BuildingBlock: KUFVIS_clean_linker_0, # of connection points: 4
#     Node 22, Type 1, BuildingBlock: KUFVIS_clean_linker_0, # of connection points: 4
#     Node 23, Type 1, BuildingBlock: KUFVIS_clean_linker_0, # of connection points: 4
#     Node 24, Type 1, BuildingBlock: KUFVIS_clean_linker_0, # of connection points: 4
#     Node 25, Type 1, BuildingBlock: KUFVIS_clean_linker_0, # of connection points: 4
#     Node 26, Type 1, BuildingBlock: KUFVIS_clean_linker_0, # of connection points: 4
#     Node 27, Type 1, BuildingBlock: KUFVIS_clean_linker_0, # of connection points: 4
#     Node 28, Type 1, BuildingBlock: KUFVIS_clean_linker_0, # of connection points: 4
#     Node 29, Type 1, BuildingBlock: KUFVIS_clean_linker_0, # of connection points: 4
#     Node 30, Type 1, BuildingBlock: KUFVIS_clean_linker_0, # of connection points: 4
#     Node 31, Type 1, BuildingBlock: KUFVIS_clean_linker_0, # of connection points: 4
#     Node 32, Type 1, BuildingBlock: KUFVIS_clean_linker_0, # of connection points: 4
#     Node 33, Type 1, BuildingBlock: KUFVIS_clean_linker_0, # of connection points: 4
#     Node 34, Type 1, BuildingBlock: KUFVIS_clean_linker_0, # of connection points: 4
#     Node 35, Type 1, BuildingBlock: KUFVIS_clean_linker_0, # of connection points: 4
#     Edge 36, Type (0, 1), BuildingBlock: XUDNAN_clean_linker_2, # of connection points: 2
#     Edge 37, Type (0, 1), BuildingBlock: XUDNAN_clean_linker_2, # of connection points: 2
#     Edge 38, Type (0, 1), BuildingBlock: XUDNAN_clean_linker_2, # of connection points: 2
#     Edge 39, Type (0, 1), BuildingBlock: XUDNAN_clean_linker_2, # of connection points: 2
#     Edge 40, Type (0, 1), BuildingBlock: XUDNAN_clean_linker_2, # of connection points: 2
#     Edge 41, Type (0, 1), BuildingBlock: XUDNAN_clean_linker_2, # of connection points: 2
#     Edge 42, Type (0, 1), BuildingBlock: XUDNAN_clean_linker_2, # of connection points: 2
#     Edge 43, Type (0, 1), BuildingBlock: XUDNAN_clean_linker_2, # of connection points: 2
#     Edge 44, Type (0, 1), BuildingBlock: XUDNAN_clean_linker_2, # of connection points: 2
#     Edge 45, Type (0, 1), BuildingBlock: XUDNAN_clean_linker_2, # of connection points: 2
#     Edge 46, Type (0, 1), BuildingBlock: XUDNAN_clean_linker_2, # of connection points: 2
#     Edge 47, Type (0, 1), BuildingBlock: XUDNAN_clean_linker_2, # of connection points: 2
#     Edge 48, Type (0, 1), BuildingBlock: XUDNAN_clean_linker_2, # of connection points: 2
#     Edge 49, Type (0, 1), BuildingBlock: XUDNAN_clean_linker_2, # of connection points: 2
#     Edge 50, Type (0, 1), BuildingBlock: XUDNAN_clean_linker_2, # of connection points: 2
#     Edge 51, Type (0, 1), BuildingBlock: XUDNAN_clean_linker_2, # of connection points: 2
#     Edge 52, Type (0, 1), BuildingBlock: XUDNAN_clean_linker_2, # of connection points: 2
#     Edge 53, Type (0, 1), BuildingBlock: XUDNAN_clean_linker_2, # of connection points: 2
#     Edge 54, Type (0, 1), BuildingBlock: XUDNAN_clean_linker_2, # of connection points: 2
#     Edge 55, Type (0, 1), BuildingBlock: XUDNAN_clean_linker_2, # of connection points: 2
#     Edge 56, Type (0, 1), BuildingBlock: XUDNAN_clean_linker_2, # of connection points: 2
#     Edge 57, Type (0, 1), BuildingBlock: XUDNAN_clean_linker_2, # of connection points: 2
#     Edge 58, Type (0, 1), BuildingBlock: XUDNAN_clean_linker_2, # of connection points: 2
#     Edge 59, Type (0, 1), BuildingBlock: XUDNAN_clean_linker_2, # of connection points: 2
#     Edge 60, Type (0, 1), BuildingBlock: XUDNAN_clean_linker_2, # of connection points: 2
#     Edge 61, Type (0, 1), BuildingBlock: XUDNAN_clean_linker_2, # of connection points: 2
#     Edge 62, Type (0, 1), BuildingBlock: XUDNAN_clean_linker_2, # of connection points: 2
#     Edge 63, Type (0, 1), BuildingBlock: XUDNAN_clean_linker_2, # of connection points: 2
#     Edge 64, Type (0, 1), BuildingBlock: XUDNAN_clean_linker_2, # of connection points: 2
#     Edge 65, Type (0, 1), BuildingBlock: XUDNAN_clean_linker_2, # of connection points: 2
#     Edge 66, Type (0, 1), BuildingBlock: XUDNAN_clean_linker_2, # of connection points: 2
#     Edge 67, Type (0, 1), BuildingBlock: XUDNAN_clean_linker_2, # of connection points: 2
#     Edge 68, Type (0, 1), BuildingBlock: XUDNAN_clean_linker_2, # of connection points: 2
#     Edge 69, Type (0, 1), BuildingBlock: XUDNAN_clean_linker_2, # of connection points: 2
#     Edge 70, Type (0, 1), BuildingBlock: XUDNAN_clean_linker_2, # of connection points: 2
#     Edge 71, Type (0, 1), BuildingBlock: XUDNAN_clean_linker_2, # of connection points: 2
#     Edge 72, Type (0, 1), BuildingBlock: XUDNAN_clean_linker_2, # of connection points: 2
#     Edge 73, Type (0, 1), BuildingBlock: XUDNAN_clean_linker_2, # of connection points: 2
#     Edge 74, Type (0, 1), BuildingBlock: XUDNAN_clean_linker_2, # of connection points: 2
#     Edge 75, Type (0, 1), BuildingBlock: XUDNAN_clean_linker_2, # of connection points: 2
#     Edge 76, Type (0, 1), BuildingBlock: XUDNAN_clean_linker_2, # of connection points: 2
#     Edge 77, Type (0, 1), BuildingBlock: XUDNAN_clean_linker_2, # of connection points: 2
#     Edge 78, Type (0, 1), BuildingBlock: XUDNAN_clean_linker_2, # of connection points: 2
#     Edge 79, Type (0, 1), BuildingBlock: XUDNAN_clean_linker_2, # of connection points: 2
#     Edge 80, Type (0, 1), BuildingBlock: XUDNAN_clean_linker_2, # of connection points: 2
#     Edge 81, Type (0, 1), BuildingBlock: XUDNAN_clean_linker_2, # of connection points: 2
#     Edge 82, Type (0, 1), BuildingBlock: XUDNAN_clean_linker_2, # of connection points: 2
#     Edge 83, Type (0, 1), BuildingBlock: XUDNAN_clean_linker_2, # of connection points: 2
#     Edge 84, Type (0, 1), BuildingBlock: XUDNAN_clean_linker_2, # of connection points: 2
#     Edge 85, Type (0, 1), BuildingBlock: XUDNAN_clean_linker_2, # of connection points: 2
#     Edge 86, Type (0, 1), BuildingBlock: XUDNAN_clean_linker_2, # of connection points: 2
#     Edge 87, Type (0, 1), BuildingBlock: XUDNAN_clean_linker_2, # of connection points: 2
#     Edge 88, Type (0, 1), BuildingBlock: XUDNAN_clean_linker_2, # of connection points: 2
#     Edge 89, Type (0, 1), BuildingBlock: XUDNAN_clean_linker_2, # of connection points: 2
#     Edge 90, Type (0, 1), BuildingBlock: XUDNAN_clean_linker_2, # of connection points: 2
#     Edge 91, Type (0, 1), BuildingBlock: XUDNAN_clean_linker_2, # of connection points: 2
#     Edge 92, Type (0, 1), BuildingBlock: XUDNAN_clean_linker_2, # of connection points: 2
#     Edge 93, Type (0, 1), BuildingBlock: XUDNAN_clean_linker_2, # of connection points: 2
#     Edge 94, Type (0, 1), BuildingBlock: XUDNAN_clean_linker_2, # of connection points: 2
#     Edge 95, Type (0, 1), BuildingBlock: XUDNAN_clean_linker_2, # of connection points: 2
#     Edge 96, Type (0, 1), BuildingBlock: XUDNAN_clean_linker_2, # of connection points: 2
#     Edge 97, Type (0, 1), BuildingBlock: XUDNAN_clean_linker_2, # of connection points: 2
#     Edge 98, Type (0, 1), BuildingBlock: XUDNAN_clean_linker_2, # of connection points: 2
#     Edge 99, Type (0, 1), BuildingBlock: XUDNAN_clean_linker_2, # of connection points: 2
#     Edge 100, Type (0, 1), BuildingBlock: XUDNAN_clean_linker_2, # of connection points: 2
#     Edge 101, Type (0, 1), BuildingBlock: XUDNAN_clean_linker_2, # of connection points: 2
#     Edge 102, Type (0, 1), BuildingBlock: XUDNAN_clean_linker_2, # of connection points: 2
#     Edge 103, Type (0, 1), BuildingBlock: XUDNAN_clean_linker_2, # of connection points: 2
#     Edge 104, Type (0, 1), BuildingBlock: XUDNAN_clean_linker_2, # of connection points: 2
#     Edge 105, Type (0, 1), BuildingBlock: XUDNAN_clean_linker_2, # of connection points: 2
#     Edge 106, Type (0, 1), BuildingBlock: XUDNAN_clean_linker_2, # of connection points: 2
#     Edge 107, Type (0, 1), BuildingBlock: XUDNAN_clean_linker_2, # of connection points: 2
# Relax obj value: 0.043
# Max RMSD: 0.106
# Mean RMSD: 0.079
data_MOF--net-ptr--node1-QUQFOY_clean_sbu_3--node2-KUFVIS_clean_linker_0--edge1-XUDNAN_clean_linker_2
_symmetry_space_group_name_H-M    P1
_symmetry_Int_Tables_number       1
_symmetry_cell_setting            triclinic
loop_
_symmetry_equiv_pos_as_xyz
'x, y, z'
_cell_length_a     79.54027
_cell_length_b     79.883343
_cell_length_c     49.971489
_cell_angle_alpha  90.187744
_cell_angle_beta   89.743587
_cell_angle_gamma 120.54696
loop_
_atom_site_label
_atom_site_type_symbol
_atom_site_fract_x
_atom_site_fract_y
_atom_site_fract_z
_atom_type_partial_charge
C0 C 0.95802 0.32925 0.00539 0.0
O1 O 0.95361 0.34157 0.01378 0.0
Cd2 Cd 0.97643 0.37435 0.0271 0.0
O3 O 0.97589 0.3338 0.00379 0.0
Cd4 Cd 0.00895 0.36284 0.01433 0.0
C5 C 0.00458 0.39278 0.9702 0.0
O6 O 0.99971 0.3731 0.05571 0.0
O7 O 0.02816 0.39296 0.03967 0.0
O8 O 0.01815 0.33909 0.02851 0.0
C9 C 0.01569 0.38907 0.05801 0.0
O10 O 0.99254 0.39308 0.98683 0.0
C11 C 0.03504 0.34789 0.01802 0.0
O12 O 0.01166 0.3818 0.97406 0.0
O13 O 0.03969 0.36336 0.00522 0.0
C14 C 0.63727 0.68485 0.00899 0.0
O15 O 0.62216 0.6749 0.99479 0.0
Cd16 Cd 0.60885 0.64137 0.98342 0.0
O17 O 0.64743 0.67754 0.01683 0.0
Cd18 Cd 0.64815 0.64663 0.01099 0.0
C19 C 0.60611 0.62195 0.04672 0.0
O20 O 0.63412 0.637 0.96611 0.0
O21 O 0.63508 0.61493 0.98968 0.0
O22 O 0.68192 0.66621 -0.00359 0.0
C23 C 0.63093 0.61976 0.96765 0.0
O24 O 0.5983 0.62398 0.0257 0.0
C25 C 0.68895 0.65863 0.01164 0.0
O26 O 0.62466 0.62974 0.04836 0.0
O27 O 0.67712 0.64587 0.02807 0.0
C28 C 0.32304 0.96413 -0.0011 0.0
O29 O 0.3304 0.95487 0.98808 0.0
Cd30 Cd 0.36371 0.96733 0.9756 0.0
O31 O 0.33364 0.98223 0.00436 0.0
Cd32 Cd 0.3686 0.00957 7e-05 0.0
C33 C 0.3857 0.98527 0.03743 0.0
O34 O 0.37306 0.99803 0.95756 0.0
O35 O 0.39834 0.02407 0.97143 0.0
O36 O 0.35363 0.02915 0.99112 0.0
C37 C 0.39082 0.01073 0.95402 0.0
O38 O 0.38088 0.97355 0.01775 0.0
C39 C 0.36599 0.04411 0.00395 0.0
O40 O 0.38212 0.99919 0.0373 0.0
O41 O 0.37935 0.04289 0.01609 0.0
C42 C 0.95279 0.63291 0.01966 0.0
O43 O 0.94748 0.61768 0.03344 0.0
Cd44 Cd 0.967 0.60391 0.04511 0.0
O45 O 0.97043 0.64319 0.01149 0.0
Cd46 Cd 1.00225 0.64349 0.01533 0.0
C47 C 0.98303 0.60067 0.98137 0.0
O48 O 0.99733 0.62956 0.06014 0.0
O49 O 0.02084 0.63081 0.03728 0.0
O50 O 0.01805 0.6788 0.02256 0.0
C51 C 0.01101 0.62584 0.05876 0.0
O52 O 0.97337 0.59301 0.00275 0.0
C53 C 0.03337 0.68318 0.00924 0.0
O54 O 0.99391 0.61913 0.9792 0.0
O55 O 0.03399 0.66933 -0.00232 0.0
C56 C 0.33084 0.37284 0.01987 0.0
O57 O 0.34142 0.39126 0.0194 0.0
Cd58 Cd 0.37462 0.40983 0.00463 0.0
O59 O 0.33806 0.36214 0.01435 0.0
Cd60 Cd 0.37099 0.36682 0.00352 0.0
C61 C 0.39967 0.39993 0.05161 0.0
O62 O 0.37585 0.39031 0.96969 0.0
O63 O 0.4001 0.38573 0.97456 0.0
O64 O 0.36437 0.33901 0.9752 0.0
C65 C 0.39276 0.39442 0.96236 0.0
O66 O 0.39631 0.41231 0.04065 0.0
C67 C 0.3646 0.32846 0.99393 0.0
O68 O 0.39154 0.3825 0.043 0.0
O69 O 0.36746 0.33544 0.0174 0.0
C70 C 0.68223 0.04773 0.00341 0.0
O71 O 0.67081 0.05332 0.0119 0.0
Cd72 Cd 0.63669 0.03243 0.02129 0.0
O73 O 0.67608 0.02964 0.00031 0.0
Cd74 Cd 0.6449 0.99801 0.00921 0.0
C75 C 0.61886 0.00646 0.96264 0.0
O76 O 0.63372 0.00719 0.04985 0.0
O77 O 0.61267 0.98059 0.03059 0.0
O78 O 0.66355 0.9847 0.0299 0.0
C79 C 0.61678 0.99224 0.05004 0.0
O80 O 0.61922 0.01881 0.97919 0.0
C81 C 0.65682 0.96961 0.01532 0.0
O82 O 0.62818 0.99769 0.96749 0.0
O83 O 0.64478 0.96782 -0.00269 0.0
C84 C 0.63228 0.65896 0.34846 0.0
O85 O 0.62405 0.66755 0.35869 0.0
Cd86 Cd 0.64094 0.70088 0.37374 0.0
O87 O 0.65078 0.66791 0.34556 0.0
Cd88 Cd 0.67999 0.70063 0.35478 0.0
C89 C 0.66518 0.72535 0.31577 0.0
O90 O 0.66974 0.70844 0.39767 0.0
O91 O 0.69487 0.73168 0.37781 0.0
O92 O 0.69616 0.684 0.37239 0.0
C93 C 0.68317 0.72623 0.39749 0.0
O94 O 0.65274 0.7214 0.33441 0.0
C95 C 0.71113 0.69218 0.3574 0.0
O96 O 0.6763 0.71812 0.31585 0.0
O97 O 0.71175 0.70439 0.34056 0.0
C98 C 0.30364 0.01917 0.323 0.0
O99 O 0.28846 0.01002 0.30864 0.0
Cd100 Cd 0.27386 0.97625 0.29692 0.0
O101 O 0.31315 0.01103 0.33017 0.0
Cd102 Cd 0.31309 0.97996 0.32249 0.0
C103 C 0.27184 0.95629 0.35955 0.0
O104 O 0.29805 0.97082 0.27779 0.0
O105 O 0.30006 0.94877 0.2999 0.0
O106 O 0.34758 1.00165 0.31222 0.0
C107 C 0.29482 0.95353 0.27874 0.0
O108 O 0.26364 0.95861 0.33918 0.0
C109 C 0.35381 0.99211 0.32478 0.0
O110 O 0.29035 0.96363 0.36022 0.0
O111 O 0.34117 0.97698 0.33714 0.0
C112 C 0.9992 0.29579 0.3525 0.0
O113 O 0.01085 0.28955 0.34829 0.0
Cd114 Cd 0.04408 0.30764 0.33298 0.0
O115 O 0.00489 0.31386 0.35047 0.0
Cd116 Cd 0.03541 0.3455 0.34047 0.0
C117 C 0.06574 0.33995 0.38502 0.0
O118 O 0.04281 0.3306 0.30472 0.0
O119 O 0.06153 0.36158 0.30548 0.0
O120 O 0.01437 0.3576 0.32501 0.0
C121 C 0.05753 0.34546 0.2952 0.0
O122 O 0.06384 0.32566 0.37119 0.0
C123 C 0.02271 0.37326 0.33854 0.0
O124 O 0.05647 0.34861 0.37897 0.0
O125 O 0.03682 0.37588 0.35332 0.0
C126 C 0.61988 0.96767 0.35187 0.0
O127 O 0.61267 0.95136 0.36356 0.0
Cd128 Cd 0.63205 0.93737 0.3768 0.0
O129 O 0.63809 0.97761 0.34673 0.0
Cd130 Cd 0.66841 0.97607 0.35223 0.0
C131 C 0.64988 0.93508 0.31462 0.0
O132 O 0.66221 0.961 0.39716 0.0
O133 O 0.68633 0.96311 0.37442 0.0
O134 O 0.68266 0.01072 0.36139 0.0
C135 C 0.67648 0.95806 0.39589 0.0
O136 O 0.6393 0.92676 0.33506 0.0
C137 C 0.69829 0.0163 0.34822 0.0
O138 O 0.66123 0.95352 0.31408 0.0
O139 O 0.70008 0.00322 0.33625 0.0
C140 C 0.99952 0.71152 0.34381 0.0
O141 O 0.0116 0.72904 0.33737 0.0
Cd142 Cd 0.0438 0.74336 0.31938 0.0
O143 O 0.00412 0.69834 0.34199 0.0
Cd144 Cd 0.0338 0.69686 0.32705 0.0
C145 C 0.06646 0.73301 0.36956 0.0
O146 O 0.03859 0.71789 0.29032 0.0
O147 O 0.05902 0.70801 0.29028 0.0
O148 O 0.01373 0.6623 0.31429 0.0
C149 C 0.05325 0.71853 0.27954 0.0
O150 O 0.06518 0.74579 0.356 0.0
C151 C 0.02422 0.65704 0.3267 0.0
O152 O 0.05607 0.715 0.36382 0.0
O153 O 0.03867 0.67015 0.33958 0.0
C154 C 0.3483 0.38209 0.34881 0.0
O155 O 0.33762 0.38691 0.36173 0.0
Cd156 Cd 0.30429 0.36643 0.37478 0.0
O157 O 0.34167 0.36435 0.3421 0.0
Cd158 Cd 0.30988 0.33227 0.34878 0.0
C159 C 0.28351 0.34679 0.31312 0.0
O160 O 0.30047 0.33763 0.39375 0.0
O161 O 0.27804 0.31405 0.37099 0.0
O162 O 0.32818 0.31603 0.35998 0.0
C163 C 0.28297 0.32363 0.39262 0.0
O164 O 0.28537 0.35698 0.33378 0.0
C165 C 0.31841 0.30129 0.3451 0.0
O166 O 0.29238 0.33723 0.31145 0.0
O167 O 0.30526 0.3013 0.33081 0.0
C168 C 0.29474 0.98954 0.6724 0.0
O169 O 0.28643 0.9973 0.68474 0.0
Cd170 Cd 0.30073 0.02988 0.6998 0.0
O171 O 0.31306 0.99926 0.66727 0.0
Cd172 Cd 0.34166 0.03289 0.67801 0.0
C173 C 0.32293 0.05548 0.64114 0.0
O174 O 0.32898 0.0345 0.72119 0.0
O175 O 0.35333 0.06166 0.70858 0.0
O176 O 0.35959 0.01675 0.69084 0.0
C177 C 0.34068 0.05216 0.72646 0.0
O178 O 0.31045 0.05038 0.66003 0.0
C179 C 0.3754 0.02819 0.67875 0.0
O180 O 0.33561 0.05014 0.64104 0.0
O181 O 0.37551 0.04169 0.66516 0.0
C182 C 0.96221 0.34534 0.67973 0.0
O183 O 0.94451 0.33286 0.67452 0.0
Cd184 Cd 0.93067 0.30024 0.65855 0.0
O185 O 0.97562 0.341 0.67749 0.0
Cd186 Cd 0.97785 0.31147 0.66367 0.0
C187 C 0.94388 0.28005 0.7094 0.0
O188 O 0.95514 0.30483 0.62771 0.0
O189 O 0.96654 0.28572 0.62814 0.0
O190 O 0.01253 0.33533 0.65387 0.0
C191 C 0.95488 0.29019 0.61772 0.0
O192 O 0.93059 0.28062 0.69599 0.0
C193 C 0.0187 0.32387 0.65943 0.0
O194 O 0.96183 0.2906 0.70292 0.0
O195 O 0.00607 0.30692 0.66715 0.0
C196 C 0.66286 0.63077 0.66601 0.0
O197 O 0.67272 0.62524 0.65247 0.0
Cd198 Cd 0.70722 0.64397 0.64554 0.0
O199 O 0.67099 0.64798 0.6756 0.0
Cd200 Cd 0.70356 0.67898 0.67443 0.0
C201 C 0.72316 0.65766 0.71122 0.0
O202 O 0.71444 0.67497 0.63067 0.0
O203 O 0.73665 0.69729 0.65532 0.0
O204 O 0.6857 0.69489 0.66155 0.0
C205 C 0.73214 0.6882 0.63326 0.0
O206 O 0.72162 0.64824 0.68983 0.0
C207 C 0.6942 0.70924 0.67741 0.0
O208 O 0.71672 0.66941 0.71239 0.0
O209 O 0.70677 0.70931 0.69312 0.0
C210 C 0.29913 0.30849 0.66935 0.0
O211 O 0.29146 0.29028 0.67247 0.0
Cd212 Cd 0.30924 0.27381 0.68104 0.0
O213 O 0.31766 0.3195 0.66984 0.0
Cd214 Cd 0.34647 0.31486 0.67464 0.0
C215 C 0.3372 0.28208 0.62515 0.0
O216 O 0.33519 0.29161 0.71224 0.0
O217 O 0.3604 0.29571 0.69012 0.0
O218 O 0.36811 0.34271 0.70234 0.0
C219 C 0.34905 0.28812 0.70996 0.0
O220 O 0.32341 0.26977 0.63998 0.0
C221 C 0.37974 0.3528 0.68374 0.0
O222 O 0.34689 0.29998 0.63174 0.0
O223 O 0.37572 0.3456 0.66035 0.0
C224 C 0.66434 0.04361 0.65895 0.0
O225 O 0.67554 0.0581 0.64443 0.0
Cd226 Cd 0.70856 0.06763 0.63386 0.0
O227 O 0.67008 0.0324 0.66796 0.0
Cd228 Cd 0.69924 0.02807 0.66567 0.0
C229 C 0.72609 0.07074 0.69856 0.0
O230 O 0.70914 0.03953 0.61993 0.0
O231 O 0.73024 0.03691 0.64348 0.0
O232 O 0.6749 0.99367 0.65949 0.0
C233 C 0.72582 0.04115 0.62122 0.0
O234 O 0.72543 0.07835 0.67651 0.0
C235 C 0.68377 0.98709 0.6729 0.0
O236 O 0.71682 0.05228 0.70153 0.0
O237 O 0.69954 0.99952 0.68422 0.0
C238 C 0.02224 0.71966 0.66746 0.0
O239 O 0.01226 0.72793 0.67017 0.0
Cd240 Cd 0.97957 0.71269 0.68821 0.0
O241 O 0.01486 0.70168 0.67313 0.0
Cd242 Cd 0.98338 0.67316 0.68931 0.0
C243 C 0.95406 0.67664 0.64173 0.0
O244 O 0.97968 0.69282 0.72362 0.0
O245 O 0.95738 0.66268 0.72375 0.0
O246 O 0.00551 0.66182 0.7038 0.0
C247 C 0.96385 0.67949 0.73355 0.0
O248 O 0.95721 0.69222 0.65325 0.0
C249 C 0.99391 0.644 0.6985 0.0
O250 O 0.96271 0.66774 0.64948 0.0
O251 O 0.97739 0.63963 0.68901 0.0
H252 H 0.22895 0.33481 0.13345 0.0
H253 H 0.1868 0.33841 0.08462 0.0
H254 H 0.17585 0.32525 0.16907 0.0
H255 H 0.16334 0.34341 0.16769 0.0
H256 H 0.11429 0.33887 0.12686 0.0
H257 H 0.15445 0.32792 0.08355 0.0
C258 C 0.21469 0.33338 0.13169 0.0
C259 C 0.20342 0.33067 0.15455 0.0
C260 C 0.20825 0.33528 0.10646 0.0
C261 C 0.19075 0.33549 0.10401 0.0
C262 C 0.179 0.33269 0.1268 0.0
C263 C 0.18507 0.32896 0.15155 0.0
C264 C 0.16129 0.33492 0.1258 0.0
C265 C 0.15505 0.34005 0.14937 0.0
C266 C 0.13786 0.34077 0.15013 0.0
C267 C 0.12767 0.33837 0.12645 0.0
C268 C 0.13392 0.33426 0.10238 0.0
C269 C 0.15042 0.33205 0.10207 0.0
H270 H 0.66971 0.89495 0.13452 0.0
H271 H 0.6831 0.85672 0.0907 0.0
H272 H 0.66637 0.84625 0.17426 0.0
H273 H 0.68627 0.83495 0.17483 0.0
H274 H 0.67397 0.78117 0.13935 0.0
H275 H 0.67046 0.82378 0.0914 0.0
C276 C 0.67185 0.88258 0.13404 0.0
C277 C 0.66838 0.87166 0.15726 0.0
C278 C 0.67689 0.87721 0.1099 0.0
C279 C 0.67888 0.86061 0.10926 0.0
C280 C 0.67568 0.84938 0.1327 0.0
C281 C 0.66989 0.85495 0.15631 0.0
C282 C 0.67766 0.83158 0.13313 0.0
C283 C 0.68201 0.82559 0.15743 0.0
C284 C 0.68011 0.80721 0.16015 0.0
C285 C 0.67614 0.79564 0.13732 0.0
C286 C 0.67349 0.80183 0.11221 0.0
C287 C 0.67375 0.81961 0.11036 0.0
H288 H 0.22797 0.89816 0.11054 0.0
H289 H 0.18025 0.85356 0.06602 0.0
H290 H 0.18786 0.84515 0.14987 0.0
H291 H 0.15609 0.82803 0.15013 0.0
H292 H 0.11629 0.77509 0.11073 0.0
H293 H 0.16239 0.82109 0.06518 0.0
C294 C 0.21472 0.884 0.11012 0.0
C295 C 0.20849 0.87274 0.13329 0.0
C296 C 0.20483 0.87699 0.08594 0.0
C297 C 0.18792 0.85848 0.08484 0.0
C298 C 0.18103 0.84672 0.10807 0.0
C299 C 0.19201 0.85397 0.132 0.0
C300 C 0.16259 0.82706 0.10791 0.0
C301 C 0.15199 0.81943 0.13199 0.0
C302 C 0.13583 0.80058 0.13312 0.0
C303 C 0.12931 0.78942 0.1099 0.0
C304 C 0.1384 0.79701 0.08529 0.0
C305 C 0.15521 0.81571 0.08427 0.0
H306 H 0.34206 0.11345 0.89806 0.0
H307 H 0.35941 0.16912 0.93242 0.0
H308 H 0.33704 0.15491 0.85113 0.0
H309 H 0.35303 0.18526 0.84409 0.0
H310 H 0.35329 0.23454 0.87696 0.0
H311 H 0.35181 0.19193 0.93028 0.0
C312 C 0.34358 0.12771 0.89647 0.0
C313 C 0.33943 0.13327 0.87221 0.0
C314 C 0.35023 0.14032 0.91842 0.0
C315 C 0.35346 0.15931 0.91559 0.0
C316 C 0.34889 0.16526 0.89121 0.0
C317 C 0.34157 0.15168 0.8698 0.0
C318 C 0.35135 0.18522 0.88777 0.0
C319 C 0.3524 0.19277 0.86173 0.0
C320 C 0.35233 0.21008 0.85787 0.0
C321 C 0.353 0.22096 0.88008 0.0
C322 C 0.35391 0.21507 0.90612 0.0
C323 C 0.35226 0.19681 0.91001 0.0
H324 H 0.77761 0.11635 0.88016 0.0
H325 H 0.8263 0.15498 0.92934 0.0
H326 H 0.82819 0.16328 0.84363 0.0
H327 H 0.85938 0.17451 0.84875 0.0
H328 H 0.90214 0.22553 0.88908 0.0
H329 H 0.84753 0.18785 0.9283 0.0
C330 C 0.79242 0.12849 0.88196 0.0
C331 C 0.80234 0.13864 0.85894 0.0
C332 C 0.8008 0.1344 0.90739 0.0
C333 C 0.81976 0.15076 0.90971 0.0
C334 C 0.83023 0.1613 0.88671 0.0
C335 C 0.82099 0.15518 0.86152 0.0
C336 C 0.85063 0.17863 0.88849 0.0
C337 C 0.86354 0.18358 0.86644 0.0
C338 C 0.88197 0.20049 0.86661 0.0
C339 C 0.88818 0.21206 0.88952 0.0
C340 C 0.87609 0.20748 0.91208 0.0
C341 C 0.85717 0.19087 0.91135 0.0
H342 H 0.77743 0.66896 0.89314 0.0
H343 H 0.82749 0.6795 0.93887 0.0
H344 H 0.82393 0.66629 0.85427 0.0
H345 H 0.85597 0.68554 0.8559 0.0
H346 H 0.89699 0.67443 0.89451 0.0
H347 H 0.84653 0.66574 0.93824 0.0
C348 C 0.79185 0.67068 0.89405 0.0
C349 C 0.79998 0.66796 0.87081 0.0
C350 C 0.80151 0.67457 0.91869 0.0
C351 C 0.81995 0.67607 0.91989 0.0
C352 C 0.82864 0.67355 0.89655 0.0
C353 C 0.81813 0.66906 0.87227 0.0
C354 C 0.84837 0.67521 0.89704 0.0
C355 C 0.86023 0.68097 0.87372 0.0
C356 C 0.87747 0.68029 0.87281 0.0
C357 C 0.88376 0.67518 0.89568 0.0
C358 C 0.87317 0.67067 0.91968 0.0
C359 C 0.8552 0.67023 0.92011 0.0
H360 H 0.89645 0.66198 0.46586 0.0
H361 H 0.85942 0.67779 0.42435 0.0
H362 H 0.84617 0.65615 0.50563 0.0
H363 H 0.83494 0.67634 0.50797 0.0
H364 H 0.78862 0.67813 0.46781 0.0
H365 H 0.82672 0.66548 0.42253 0.0
C366 C 0.88319 0.66265 0.46503 0.0
C367 C 0.87167 0.65818 0.48802 0.0
C368 C 0.8788 0.66953 0.44188 0.0
C369 C 0.86237 0.67184 0.44193 0.0
C370 C 0.85025 0.66714 0.4648 0.0
C371 C 0.85511 0.66012 0.48775 0.0
C372 C 0.83315 0.6703 0.46522 0.0
C373 C 0.82706 0.67466 0.48962 0.0
C374 C 0.81063 0.67678 0.49071 0.0
C375 C 0.80078 0.67559 0.46711 0.0
C376 C 0.80653 0.67168 0.44253 0.0
C377 C 0.8227 0.66899 0.44155 0.0
H378 H 0.35014 0.23389 0.45063 0.0
H379 H 0.33285 0.17973 0.41139 0.0
H380 H 0.35293 0.18957 0.49379 0.0
H381 H 0.33429 0.15859 0.49769 0.0
H382 H 0.33013 0.10851 0.46044 0.0
H383 H 0.34194 0.15761 0.41201 0.0
C384 C 0.34864 0.21962 0.45074 0.0
C385 C 0.35204 0.21279 0.47449 0.0
C386 C 0.34227 0.20807 0.42769 0.0
C387 C 0.33866 0.18885 0.42892 0.0
C388 C 0.34239 0.18158 0.45277 0.0
C389 C 0.34937 0.19407 0.47534 0.0
C390 C 0.33884 0.16113 0.45457 0.0
C391 C 0.33531 0.15166 0.47966 0.0
C392 C 0.33301 0.13307 0.48199 0.0
C393 C 0.33312 0.1233 0.45879 0.0
C394 C 0.33585 0.13186 0.43346 0.0
C395 C 0.33906 0.15088 0.43153 0.0
H396 H 0.89744 0.22184 0.45816 0.0
H397 H 0.85749 0.1733 0.41026 0.0
H398 H 0.84522 0.17666 0.49424 0.0
H399 H 0.83229 0.1448 0.49206 0.0
H400 H 0.78476 0.10025 0.44741 0.0
H401 H 0.82457 0.15384 0.40852 0.0
C402 C 0.88393 0.20796 0.45649 0.0
C403 C 0.87215 0.19992 0.479 0.0
C404 C 0.87836 0.19869 0.4317 0.0
C405 C 0.86107 0.18062 0.42944 0.0
C406 C 0.84892 0.17197 0.45208 0.0
C407 C 0.85443 0.18229 0.47668 0.0
C408 C 0.83102 0.15208 0.45046 0.0
C409 C 0.82445 0.13998 0.47335 0.0
C410 C 0.80745 0.1216 0.47255 0.0
C411 C 0.79768 0.11465 0.44829 0.0
C412 C 0.804 0.12603 0.4252 0.0
C413 C 0.82037 0.14491 0.42633 0.0
H414 H 0.00561 0.445 0.22669 0.0
H415 H 0.9963 0.48642 0.26884 0.0
H416 H 0.01326 0.49474 0.18501 0.0
H417 H 0.99821 0.51034 0.18256 0.0
H418 H 1.00243 0.55991 0.22108 0.0
H419 H 0.0064 0.51762 0.2686 0.0
C420 C 0.00476 0.45813 0.22667 0.0
C421 C 0.00873 0.46868 0.20302 0.0
C422 C 1.00075 0.4647 0.25051 0.0
C423 C 1.00012 0.482 0.25043 0.0
C424 C 0.00405 0.49308 0.22665 0.0
C425 C 0.0091 0.48641 0.20331 0.0
C426 C 1.00279 0.51133 0.22574 0.0
C427 C 1.00032 0.51834 0.20091 0.0
C428 C 1.00053 0.53594 0.19912 0.0
C429 C 1.00167 0.54599 0.2225 0.0
C430 C 1.00298 0.53907 0.24762 0.0
C431 C 0.00421 0.52211 0.24918 0.0
H432 H 0.4535 0.44072 0.23006 0.0
H433 H 0.48984 0.49396 0.27282 0.0
H434 H 0.50417 0.486 0.19187 0.0
H435 H 0.51347 0.51714 0.18908 0.0
H436 H 0.56066 0.56647 0.22767 0.0
H437 H 0.52341 0.51558 0.27395 0.0
C438 C 0.46671 0.45482 0.23145 0.0
C439 C 0.47855 0.46215 0.20881 0.0
C440 C 0.47071 0.46592 0.25488 0.0
C441 C 0.48705 0.48505 0.25517 0.0
C442 C 0.49936 0.4928 0.2324 0.0
C443 C 0.49498 0.48085 0.20951 0.0
C444 C 0.5162 0.51344 0.23162 0.0
C445 C 0.52173 0.52376 0.20709 0.0
C446 C 0.53807 0.54262 0.20531 0.0
C447 C 0.54835 0.5517 0.22861 0.0
C448 C 0.54291 0.54218 0.2533 0.0
C449 C 0.52705 0.52298 0.25484 0.0
H450 H 0.44014 0.99432 0.21913 0.0
H451 H 0.4902 0.00343 0.26302 0.0
H452 H 0.48219 0.98447 0.18016 0.0
H453 H 0.51312 0.99794 0.17864 0.0
H454 H 0.55648 0.99234 0.22108 0.0
H455 H 0.50989 0.99171 0.26506 0.0
C456 C 0.45381 0.99439 0.21967 0.0
C457 C 0.4606 0.98981 0.19661 0.0
C458 C 0.46417 0.99871 0.24364 0.0
C459 C 0.48209 0.99919 0.24449 0.0
C460 C 0.48926 0.99427 0.22153 0.0
C461 C 0.47784 0.98906 0.19791 0.0
C462 C 0.50838 0.99445 0.2218 0.0
C463 C 0.51829 0.99577 0.19752 0.0
C464 C 0.53529 0.99454 0.19702 0.0
C465 C 0.54333 0.99327 0.22117 0.0
C466 C 0.53441 0.99274 0.24556 0.0
C467 C 0.51685 0.99298 0.24595 0.0
H468 H 0.56703 0.00569 0.78258 0.0
H469 H 0.52882 0.02114 0.74404 0.0
H470 H 0.51722 0.99816 0.82502 0.0
H471 H 0.50155 0.01287 0.82999 0.0
H472 H 0.45571 0.01648 0.7923 0.0
H473 H 0.49792 0.0126 0.74314 0.0
C474 C 0.55375 0.00635 0.78276 0.0
C475 C 0.54272 1.00149 0.80619 0.0
C476 C 0.54851 0.01287 0.76007 0.0
C477 C 0.53213 0.01525 0.76132 0.0
C478 C 0.52037 0.01018 0.78472 0.0
C479 C 0.5259 0.00298 0.80696 0.0
C480 C 0.50262 0.01252 0.78626 0.0
C481 C 0.49476 0.01317 0.81148 0.0
C482 C 0.47779 0.01423 0.81347 0.0
C483 C 0.46885 0.01562 0.79042 0.0
C484 C 0.47611 0.01518 0.76505 0.0
C485 C 0.49297 0.01361 0.76293 0.0
H486 H 0.9966 0.5567 0.80339 0.0
H487 H 0.01174 0.52139 0.75599 0.0
H488 H 0.99787 0.50901 0.84018 0.0
H489 H 0.02008 0.49964 0.83653 0.0
H490 H 0.0139 0.45011 0.79482 0.0
H491 H 0.9971 0.48725 0.75592 0.0
C492 C 0.99901 0.54451 0.80195 0.0
C493 C 0.99732 0.53376 0.82482 0.0
C494 C 0.00393 0.54001 0.77717 0.0
C495 C 0.00733 0.52439 0.7751 0.0
C496 C 0.00515 0.51284 0.79782 0.0
C497 C 0.99986 0.51765 0.82252 0.0
C498 C 0.00848 0.49594 0.79617 0.0
C499 C 0.01593 0.49093 0.81849 0.0
C500 C 0.01804 0.47454 0.81784 0.0
C501 C 0.01315 0.4633 0.79461 0.0
C502 C 0.00578 0.46777 0.77207 0.0
C503 C 1.00339 0.48412 0.77297 0.0
H504 H 0.57453 0.56422 0.79137 0.0
H505 H 0.52316 0.5227 0.74875 0.0
H506 H 0.52846 0.51661 0.83381 0.0
H507 H 0.49652 0.50529 0.83256 0.0
H508 H 0.45271 0.45186 0.79864 0.0
H509 H 0.50437 0.4889 0.75267 0.0
C510 C 0.56 0.55147 0.79135 0.0
C511 C 0.55223 0.54162 0.81538 0.0
C512 C 0.54977 0.5447 0.76722 0.0
C513 C 0.53122 0.52767 0.7673 0.0
C514 C 0.52304 0.51744 0.7914 0.0
C515 C 0.53403 0.52443 0.81518 0.0
C516 C 0.50309 0.49964 0.79227 0.0
C517 C 0.4916 0.49538 0.81573 0.0
C518 C 0.47381 0.47799 0.81804 0.0
C519 C 0.46673 0.46515 0.79656 0.0
C520 C 0.47754 0.46893 0.77285 0.0
C521 C 0.49573 0.48629 0.77065 0.0
H522 H 0.67475 0.78267 0.56381 0.0
H523 H 0.67753 0.82886 0.6108 0.0
H524 H 0.66872 0.82673 0.52489 0.0
H525 H 0.68227 0.85749 0.52712 0.0
H526 H 0.67436 0.89925 0.57008 0.0
H527 H 0.6662 0.8488 0.61129 0.0
C528 C 0.67365 0.79564 0.56502 0.0
C529 C 0.67203 0.80408 0.54151 0.0
C530 C 0.67491 0.80413 0.59005 0.0
C531 C 0.67546 0.82203 0.59144 0.0
C532 C 0.67344 0.83086 0.568 0.0
C533 C 0.67119 0.8212 0.54322 0.0
C534 C 0.67395 0.85007 0.56899 0.0
C535 C 0.67842 0.8617 0.54565 0.0
C536 C 0.67779 0.87896 0.54565 0.0
C537 C 0.67417 0.88556 0.56965 0.0
C538 C 0.67056 0.87499 0.59327 0.0
C539 C 0.66993 0.85707 0.59293 0.0
H540 H 0.12492 0.77395 0.54912 0.0
H541 H 0.16278 0.82796 0.58859 0.0
H542 H 0.17302 0.81908 0.50582 0.0
H543 H 0.18368 0.8504 0.50333 0.0
H544 H 0.23159 0.89983 0.54003 0.0
H545 H 0.19589 0.84879 0.5872 0.0
C546 C 0.13785 0.78834 0.54867 0.0
C547 C 0.14829 0.79544 0.52483 0.0
C548 C 0.14318 0.79989 0.57165 0.0
C549 C 0.1593 0.81896 0.57089 0.0
C550 C 0.17045 0.82636 0.5471 0.0
C551 C 0.16476 0.81418 0.52427 0.0
C552 C 0.18756 0.84678 0.5455 0.0
C553 C 0.1925 0.85697 0.52094 0.0
C554 C 0.20883 0.87575 0.5187 0.0
C555 C 0.2198 0.88487 0.54153 0.0
C556 C 0.21512 0.87543 0.5664 0.0
C557 C 0.19913 0.85627 0.56818 0.0
H558 H 0.12307 0.3543 0.56303 0.0
H559 H 0.15705 0.33547 0.60577 0.0
H560 H 0.16938 0.35251 0.52221 0.0
H561 H 0.18026 0.33253 0.52115 0.0
H562 H 0.22578 0.32966 0.56199 0.0
H563 H 0.18874 0.34405 0.60653 0.0
C564 C 0.13513 0.35158 0.56336 0.0
C565 C 0.14562 0.35373 0.53996 0.0
C566 C 0.13936 0.34528 0.58703 0.0
C567 C 0.15442 0.34091 0.58742 0.0
C568 C 0.16568 0.34334 0.56403 0.0
C569 C 0.16102 0.34995 0.54041 0.0
C570 C 0.1821 0.33899 0.56388 0.0
C571 C 0.18796 0.3341 0.53961 0.0
C572 C 0.20415 0.33151 0.53869 0.0
C573 C 0.21365 0.33226 0.56243 0.0
C574 C 0.20785 0.33628 0.58684 0.0
C575 C 0.19242 0.34011 0.58759 0.0
H576 H 0.99176 0.3849 0.1004 0.0
H577 H 0.04554 0.42684 0.06076 0.0
H578 H 0.04909 0.45222 0.09241 0.0
H579 H 0.97397 0.4172 0.11412 0.0
H580 H 0.96413 0.40696 0.14651 0.0
H581 H 0.96577 0.39202 0.12076 0.0
H582 H 0.98596 0.38331 0.15236 0.0
H583 H 0.98425 0.3981 0.17827 0.0
H584 H 0.00783 0.40255 0.16754 0.0
H585 H 0.04638 0.47334 0.128 0.0
H586 H 0.03886 0.48767 0.16705 0.0
H587 H 0.98723 0.43181 0.18343 0.0
C588 C 0.00433 0.3994 0.09845 0.0
C589 C 0.01834 0.40389 0.07807 0.0
C590 C 0.03461 0.42304 0.07624 0.0
C591 C 0.03673 0.43759 0.09405 0.0
C592 C 0.02252 0.43275 0.1137 0.0
C593 C 0.00674 0.41407 0.11618 0.0
C594 C 0.99374 0.41257 0.13936 0.0
C595 C 0.97319 0.40685 0.12959 0.0
C596 C 0.99291 0.39829 0.16064 0.0
C597 C 0.00465 0.43331 0.14949 0.0
C598 C 0.02114 0.44479 0.13435 0.0
C599 C 0.03351 0.46448 0.14002 0.0
C600 C 0.02907 0.47253 0.16208 0.0
C601 C 0.01252 0.46084 0.17823 0.0
C602 C 1.00008 0.44106 0.17153 0.0
H603 H 0.61575 0.61134 0.09459 0.0
H604 H 0.56648 0.605 0.04886 0.0
H605 H 0.544 0.58391 0.08385 0.0
H606 H 0.59199 0.56222 0.11912 0.0
H607 H 0.60303 0.56881 0.15179 0.0
H608 H 0.61562 0.58378 0.12327 0.0
H609 H 0.61821 0.61375 0.14742 0.0
H610 H 0.60569 0.59888 0.17604 0.0
H611 H 0.59637 0.61265 0.15991 0.0
H612 H 0.52648 0.56302 0.12324 0.0
H613 H 0.51541 0.54475 0.16571 0.0
H614 H 0.5756 0.56415 0.18609 0.0
C615 C 0.60026 0.6056 0.092 0.0
C616 C 0.59299 0.6099 0.06884 0.0
C617 C 0.57254 0.60199 0.0663 0.0
C618 C 0.55956 0.58993 0.08609 0.0
C619 C 0.56715 0.58584 0.10847 0.0
C620 C 0.587 0.59347 0.11167 0.0
C621 C 0.5912 0.5867 0.13779 0.0
C622 C 0.60104 0.57466 0.13267 0.0
C623 C 0.6036 0.60403 0.15639 0.0
C624 C 0.57063 0.57413 0.14864 0.0
C625 C 0.55698 0.57379 0.13136 0.0
C626 C 0.53703 0.56315 0.13697 0.0
C627 C 0.53086 0.55271 0.16105 0.0
C628 C 0.5446 0.55301 0.17926 0.0
C629 C 0.56474 0.5638 0.17275 0.0
H630 H 0.40089 0.00796 0.08299 0.0
H631 H 0.39418 0.95641 0.04332 0.0
H632 H 0.41247 0.9521 0.07941 0.0
H633 H 0.44969 0.02579 0.1063 0.0
H634 H 0.44598 0.03433 0.13797 0.0
H635 H 0.43192 0.03336 0.10924 0.0
H636 H 0.39989 0.01187 0.13563 0.0
H637 H 0.41386 0.01283 0.16446 0.0
H638 H 0.39581 0.98967 0.15084 0.0
H639 H 0.43215 0.95352 0.11898 0.0
H640 H 0.45103 0.9602 0.1608 0.0
H641 H 0.44519 0.01064 0.17511 0.0
C642 C 0.40316 0.99571 0.08198 0.0
C643 C 0.39605 0.98257 0.06019 0.0
C644 C 0.39944 0.96675 0.05969 0.0
C645 C 0.40985 0.96413 0.08012 0.0
C646 C 0.4168 0.97739 0.1011 0.0
C647 C 0.41355 0.99282 0.10233 0.0
C648 C 0.42276 0.00498 0.12718 0.0
C649 C 0.43852 0.02585 0.11971 0.0
C650 C 0.40714 0.00482 0.14561 0.0
C651 C 0.43169 0.99398 0.13955 0.0
C652 C 0.42811 0.97814 0.12414 0.0
C653 C 0.43505 0.96588 0.13128 0.0
C654 C 0.44585 0.96985 0.15495 0.0
C655 C 0.44956 0.9859 0.17121 0.0
C656 C 0.44239 0.99812 0.16325 0.0
H657 H 0.42082 0.03839 0.92387 0.0
H658 H 0.38851 0.97657 0.94062 0.0
H659 H 0.41035 0.97177 0.9105 0.0
H660 H 0.42615 0.0324 0.85387 0.0
H661 H 0.45004 0.05382 0.8513 0.0
H662 H 0.43308 0.05261 0.87625 0.0
H663 H 0.45879 0.05992 0.91309 0.0
H664 H 0.47572 0.06084 0.88821 0.0
H665 H 0.46911 0.04449 0.91622 0.0
H666 H 0.43567 0.9736 0.87902 0.0
H667 H 0.45888 0.98087 0.84163 0.0
H668 H 0.47275 0.04079 0.84163 0.0
C669 C 0.41848 0.02389 0.92123 0.0
C670 C 0.40316 0.00786 0.93471 0.0
C671 C 0.40018 0.98902 0.93047 0.0
C672 C 0.41262 0.98619 0.9136 0.0
C673 C 0.42772 1.0023 0.90075 0.0
C674 C 0.43042 0.02071 0.9038 0.0
C675 C 0.44647 0.03516 0.8855 0.0
C676 C 0.43845 0.04401 0.86555 0.0
C677 C 0.46353 0.05104 0.90174 0.0
C678 C 0.45226 0.02195 0.87159 0.0
C679 C 0.44161 0.00316 0.88124 0.0
C680 C 0.44413 0.98825 0.87133 0.0
C681 C 0.45741 0.99252 0.85031 0.0
C682 C 0.46765 0.01139 0.83923 0.0
C683 C 0.46528 0.02635 0.85023 0.0
H684 H 0.9901 0.41573 0.9536 0.0
H685 H 0.03354 0.40001 0.93387 0.0
H686 H 0.04464 0.42284 0.89575 0.0
H687 H 0.97693 0.41838 0.88707 0.0
H688 H 0.97333 0.43859 0.8932 0.0
H689 H 0.96996 0.42213 0.91993 0.0
H690 H 0.99506 0.45121 0.9486 0.0
H691 H 0.99872 0.46773 0.92171 0.0
H692 H 0.01926 0.46708 0.93557 0.0
H693 H 0.04974 0.44591 0.85836 0.0
H694 H 0.0465 0.46526 0.82237 0.0
H695 H 0.99996 0.46611 0.86658 0.0
C696 C 1.00205 0.41716 0.94142 0.0
C697 C 0.01098 0.40607 0.94683 0.0
C698 C 0.02644 0.40829 0.93016 0.0
C699 C 0.03295 0.42134 0.90857 0.0
C700 C 0.0239 0.43212 0.90395 0.0
C701 C 0.0087 0.43006 0.9198 0.0
C702 C 1.00059 0.44238 0.90954 0.0
C703 C 0.97892 0.42961 0.90198 0.0
C704 C 1.00359 0.45803 0.93009 0.0
C705 C 0.01332 0.45137 0.88506 0.0
C706 C 0.02687 0.44548 0.88241 0.0
C707 C 0.03938 0.45082 0.86042 0.0
C708 C 0.0375 0.46187 0.84015 0.0
C709 C 0.0232 0.46739 0.84198 0.0
C710 C 0.01139 0.46256 0.8651 0.0
H711 H 0.61747 0.62518 0.91991 0.0
H712 H 0.61946 0.58116 0.96824 0.0
H713 H 0.59947 0.55622 0.93466 0.0
H714 H 0.56826 0.59591 0.89846 0.0
H715 H 0.57278 0.60594 0.86517 0.0
H716 H 0.5878 0.62047 0.89256 0.0
H717 H 0.6188 0.62634 0.86708 0.0
H718 H 0.60388 0.61191 0.83954 0.0
H719 H 0.62038 0.6058 0.85538 0.0
H720 H 0.57823 0.53584 0.89641 0.0
H721 H 0.55877 0.52197 0.85522 0.0
H722 H 0.57071 0.57937 0.83236 0.0
C723 C 0.61385 0.61033 0.92333 0.0
C724 C 0.62002 0.60512 0.94669 0.0
C725 C 0.61491 0.5855 0.95047 0.0
C726 C 0.60353 0.57122 0.93153 0.0
C727 C 0.59745 0.5768 0.9089 0.0
C728 C 0.60254 0.59591 0.90463 0.0
C729 C 0.594 0.59807 0.87877 0.0
C730 C 0.57987 0.60554 0.88407 0.0
C731 C 0.61024 0.61131 0.85903 0.0
C732 C 0.58324 0.57719 0.86925 0.0
C733 C 0.58535 0.56511 0.88689 0.0
C734 C 0.57652 0.54516 0.8824 0.0
C735 C 0.5654 0.53739 0.85908 0.0
C736 C 0.56329 0.54959 0.84059 0.0
C737 C 0.57226 0.56971 0.84596 0.0
H738 H 0.00451 0.61019 0.93445 0.0
H739 H 0.95927 0.56121 0.97898 0.0
H740 H 0.95855 0.53879 0.94457 0.0
H741 H 0.98561 0.59116 0.86848 0.0
H742 H 0.00945 0.6005 0.85375 0.0
H743 H 0.00625 0.61284 0.88179 0.0
H744 H 0.03286 0.61014 0.90791 0.0
H745 H 0.03603 0.59766 0.88002 0.0
H746 H 0.03029 0.58659 0.91269 0.0
H747 H 0.963 0.52137 0.9057 0.0
H748 H 0.97131 0.51066 0.86368 0.0
H749 H 0.01383 0.57071 0.84492 0.0
C750 C 0.99434 0.59477 0.93687 0.0
C751 C 0.98196 0.58754 0.9595 0.0
C752 C 0.96895 0.5672 0.9619 0.0
C753 C 0.96842 0.55428 0.94246 0.0
C754 C 0.98099 0.56184 0.92064 0.0
C755 C 0.99362 0.58161 0.91763 0.0
C756 C 0.00559 0.58589 0.89224 0.0
C757 C 1.00147 0.59833 0.87293 0.0
C758 C 0.02749 0.59565 0.89861 0.0
C759 C 0.99766 0.56548 0.88153 0.0
C760 C 0.98353 0.55179 0.89824 0.0
C761 C 0.97406 0.53195 0.89243 0.0
C762 C 0.97896 0.52598 0.86864 0.0
C763 C 0.99314 0.53982 0.85098 0.0
C764 C 1.00274 0.55978 0.85784 0.0
H765 H 0.42682 0.40308 0.93678 0.0
H766 H 0.38422 0.42148 0.94438 0.0
H767 H 0.40288 0.44788 0.91197 0.0
H768 H 0.4701 0.4515 0.92812 0.0
H769 H 0.48088 0.44318 0.90355 0.0
H770 H 0.46523 0.42687 0.92928 0.0
H771 H 0.44311 0.40217 0.89312 0.0
H772 H 0.45881 0.4183 0.86738 0.0
H773 H 0.4331 0.41005 0.86705 0.0
H774 H 0.42492 0.4709 0.87644 0.0
H775 H 0.44749 0.48708 0.83821 0.0
H776 H 0.47528 0.4535 0.85358 0.0
C777 C 0.42157 0.41283 0.93188 0.0
C778 C 0.40415 0.41031 0.94317 0.0
C779 C 0.39755 0.42315 0.93594 0.0
C780 C 0.40811 0.43827 0.91769 0.0
C781 C 0.42522 0.44035 0.90683 0.0
C782 C 0.43184 0.4279 0.91352 0.0
C783 C 0.44977 0.43228 0.89741 0.0
C784 C 0.46755 0.43885 0.91569 0.0
C785 C 0.44596 0.41466 0.88022 0.0
C786 C 0.45198 0.44888 0.8803 0.0
C787 C 0.43786 0.45354 0.88627 0.0
C788 C 0.43625 0.46761 0.87187 0.0
C789 C 0.44912 0.4768 0.85037 0.0
C790 C 0.46324 0.47175 0.84364 0.0
C791 C 0.46489 0.45791 0.85902 0.0
H792 H 0.59806 0.02327 0.94529 0.0
H793 H 0.61205 0.9789 0.92441 0.0
H794 H 0.59114 0.97053 0.88439 0.0
H795 H 0.54749 0.99694 0.92324 0.0
H796 H 0.54828 0.01839 0.91037 0.0
H797 H 0.56359 0.02033 0.9381 0.0
H798 H 0.59426 0.04562 0.91196 0.0
H799 H 0.57903 0.04393 0.88434 0.0
H800 H 0.59894 0.03961 0.87902 0.0
H801 H 0.56992 0.96797 0.8456 0.0
H802 H 0.55175 0.9729 0.80945 0.0
H803 H 0.55122 0.01861 0.8557 0.0
C804 C 0.5967 0.01173 0.93241 0.0
C805 C 0.60674 1.00173 0.93811 0.0
C806 C 0.60457 0.9868 0.92054 0.0
C807 C 0.59263 0.98186 0.89782 0.0
C808 C 0.58286 0.99192 0.89294 0.0
C809 C 0.58485 0.00661 0.90966 0.0
C810 C 0.57351 0.01579 0.89924 0.0
C811 C 0.55725 0.01267 0.91892 0.0
C812 C 0.58726 0.03752 0.89328 0.0
C813 C 0.56509 0.00419 0.87377 0.0
C814 C 0.57051 0.99036 0.87065 0.0
C815 C 0.56542 0.9786 0.84798 0.0
C816 C 0.55505 0.98144 0.82761 0.0
C817 C 0.54987 0.99593 0.83001 0.0
C818 C 0.55455 0.0071 0.85369 0.0
H819 H 0.62176 0.01187 0.09739 0.0
H820 H 0.57738 0.96778 0.046 0.0
H821 H 0.55173 0.96498 0.07677 0.0
H822 H 0.5981 0.98924 0.1595 0.0
H823 H 0.60551 0.01191 0.17638 0.0
H824 H 0.62036 0.01094 0.14981 0.0
H825 H 0.61847 0.03829 0.12479 0.0
H826 H 0.60348 0.03925 0.1512 0.0
H827 H 0.59493 0.03523 0.11714 0.0
H828 H 0.53083 0.96718 0.11273 0.0
H829 H 0.51627 0.97199 0.1537 0.0
H830 H 0.57413 0.01389 0.18255 0.0
C831 C 0.60664 1.00164 0.09262 0.0
C832 C 0.60157 0.9901 0.06923 0.0
C833 C 0.58163 0.97676 0.06381 0.0
C834 C 0.56694 0.97513 0.08109 0.0
C835 C 0.5724 0.98681 0.10386 0.0
C836 C 0.59177 0.99965 0.10985 0.0
C837 C 0.5937 0.00993 0.13621 0.0
C838 C 0.60509 0.00522 0.15668 0.0
C839 C 0.60321 0.03198 0.13207 0.0
C840 C 0.5724 1.00084 0.14408 0.0
C841 C 0.56036 0.98771 0.12499 0.0
C842 C 0.54011 0.97743 0.12782 0.0
C843 C 0.53197 0.98036 0.15106 0.0
C844 C 0.54405 0.99333 0.17127 0.0
C845 C 0.56453 0.00383 0.16749 0.0
H846 H 0.98932 0.60941 0.10429 0.0
H847 H 0.03492 0.6107 0.05464 0.0
H848 H 0.03484 0.5854 0.08283 0.0
H849 H 0.00779 0.60337 0.16686 0.0
H850 H 0.98391 0.58756 0.18085 0.0
H851 H 0.98729 0.60544 0.15627 0.0
H852 H 0.96045 0.57826 0.12687 0.0
H853 H 0.95722 0.56025 0.15121 0.0
H854 H 0.96282 0.55784 0.11692 0.0
H855 H 0.02999 0.56008 0.11634 0.0
H856 H 0.02335 0.5393 0.15609 0.0
H857 H 0.98079 0.55422 0.18372 0.0
C858 C 0.99935 0.60443 0.09943 0.0
C859 C 0.01208 0.61199 0.07721 0.0
C860 C 0.02503 0.60513 0.07156 0.0
C861 C 0.02501 0.59066 0.08734 0.0
C862 C 0.01201 0.58323 0.10875 0.0
C863 C 0.9996 0.59004 0.11505 0.0
C864 C 0.98764 0.58015 0.13981 0.0
C865 C 0.99192 0.59501 0.16227 0.0
C866 C 0.96573 0.56843 0.1333 0.0
C867 C 0.99543 0.56687 0.14655 0.0
C868 C 0.0093 0.5687 0.12821 0.0
C869 C 0.01906 0.55842 0.13078 0.0
C870 C 0.01506 0.54651 0.15327 0.0
C871 C 1.00153 0.5451 0.17293 0.0
C872 C 0.99121 0.555 0.16901 0.0
H873 H 0.42236 0.43676 0.07163 0.0
H874 H 0.40822 0.37712 0.08315 0.0
H875 H 0.43069 0.38752 0.12169 0.0
H876 H 0.47414 0.46 0.09068 0.0
H877 H 0.47382 0.47992 0.10722 0.0
H878 H 0.45801 0.46808 0.07909 0.0
H879 H 0.4279 0.46116 0.10779 0.0
H880 H 0.44362 0.47312 0.13582 0.0
H881 H 0.4236 0.4485 0.13916 0.0
H882 H 0.45199 0.40386 0.16165 0.0
H883 H 0.46975 0.42475 0.20036 0.0
H884 H 0.47087 0.47376 0.1617 0.0
C885 C 0.42411 0.42587 0.08203 0.0
C886 C 0.41348 0.40609 0.07434 0.0
C887 C 0.4162 0.39235 0.08862 0.0
C888 C 0.42901 0.39814 0.11046 0.0
C889 C 0.43917 0.41774 0.11756 0.0
C890 C 0.4369 0.4314 0.10371 0.0
C891 C 0.44856 0.45134 0.11632 0.0
C892 C 0.46458 0.46568 0.09718 0.0
C893 C 0.43512 0.45896 0.12531 0.0
C894 C 0.45725 0.44668 0.14 0.0
C895 C 0.45184 0.42725 0.14022 0.0
C896 C 0.45665 0.41916 0.1614 0.0
C897 C 0.46676 0.4311 0.18323 0.0
C898 C 0.47197 0.45088 0.18363 0.0
C899 C 0.46761 0.45884 0.16142 0.0
H900 H 0.66173 0.71981 0.44396 0.0
H901 H 0.7046 0.76565 0.39282 0.0
H902 H 0.70402 0.79024 0.42196 0.0
H903 H 0.63381 0.74303 0.46066 0.0
H904 H 0.6298 0.73496 0.49496 0.0
H905 H 0.63273 0.72063 0.46945 0.0
H906 H 0.66118 0.72179 0.49611 0.0
H907 H 0.6582 0.73595 0.52178 0.0
H908 H 0.68161 0.745 0.5058 0.0
H909 H 0.69935 0.81006 0.45673 0.0
H910 H 0.69333 0.8238 0.49746 0.0
H911 H 0.65371 0.76547 0.52663 0.0
C912 C 0.67095 0.73502 0.43889 0.0
C913 C 0.68316 0.74076 0.41603 0.0
C914 C 0.69513 0.76084 0.41022 0.0
C915 C 0.69483 0.77496 0.42656 0.0
C916 C 0.68255 0.76885 0.4488 0.0
C917 C 0.67098 0.74938 0.4552 0.0
C918 C 0.65989 0.74687 0.48108 0.0
C919 C 0.63774 0.73571 0.47623 0.0
C920 C 0.66557 0.73681 0.50245 0.0
C921 C 0.66723 0.76794 0.48828 0.0
C922 C 0.68008 0.78035 0.46919 0.0
C923 C 0.68921 0.80049 0.47177 0.0
C924 C 0.68557 0.80817 0.49488 0.0
C925 C 0.67301 0.79576 0.51523 0.0
C926 C 0.66341 0.77536 0.51147 0.0
H927 H 0.28277 0.94529 0.40572 0.0
H928 H 0.2323 0.93973 0.36413 0.0
H929 H 0.21082 0.91833 0.39979 0.0
H930 H 0.25977 0.89609 0.42884 0.0
H931 H 0.2718 0.90224 0.46086 0.0
H932 H 0.28352 0.91757 0.43231 0.0
H933 H 0.28693 0.94726 0.45834 0.0
H934 H 0.2753 0.93203 0.48702 0.0
H935 H 0.26552 0.94601 0.47283 0.0
H936 H 0.19451 0.89694 0.43937 0.0
H937 H 0.18482 0.87819 0.48154 0.0
H938 H 0.24558 0.89726 0.49733 0.0
C939 C 0.26722 0.93969 0.40419 0.0
C940 C 0.25929 0.94425 0.38202 0.0
C941 C 0.23882 0.93651 0.38083 0.0
C942 C 0.22643 0.92428 0.401 0.0
C943 C 0.23467 0.9199 0.42235 0.0
C944 C 0.25458 0.92743 0.42422 0.0
C945 C 0.25961 0.92033 0.44934 0.0
C946 C 0.26924 0.90835 0.44241 0.0
C947 C 0.2726 0.93742 0.46798 0.0
C948 C 0.23941 0.90766 0.46118 0.0
C949 C 0.22523 0.90756 0.44527 0.0
C950 C 0.20548 0.89688 0.45203 0.0
C951 C 0.20009 0.88616 0.4759 0.0
C952 C 0.21442 0.88625 0.49272 0.0
C953 C 0.2343 0.89706 0.48503 0.0
H954 H 0.08608 0.3235 0.40491 0.0
H955 H 0.07646 0.37185 0.41717 0.0
H956 H 0.09954 0.38313 0.45509 0.0
H957 H 0.08744 0.31326 0.47291 0.0
H958 H 0.106 0.30685 0.46876 0.0
H959 H 0.09003 0.30371 0.44141 0.0
H960 H 0.12014 0.32506 0.41141 0.0
H961 H 0.13621 0.32847 0.43886 0.0
H962 H 0.13794 0.34926 0.42218 0.0
H963 H 0.1219 0.38779 0.49349 0.0
H964 H 0.13988 0.38417 0.53113 0.0
H965 H 0.13512 0.33302 0.49341 0.0
C966 C 0.08892 0.33658 0.41536 0.0
C967 C 0.07945 0.34682 0.40796 0.0
C968 C 0.0835 0.36375 0.42242 0.0
C969 C 0.0967 0.37034 0.44388 0.0
C970 C 0.10579 0.3599 0.45054 0.0
C971 C 0.102 0.34334 0.43676 0.0
C972 C 0.11267 0.33401 0.44895 0.0
C973 C 0.09817 0.31324 0.45859 0.0
C974 C 0.12763 0.33422 0.42916 0.0
C975 C 0.1227 0.34765 0.47221 0.0
C976 C 0.11876 0.36264 0.47257 0.0
C977 C 0.1253 0.37628 0.49319 0.0
C978 C 0.13553 0.37415 0.51442 0.0
C979 C 0.13909 0.35849 0.51489 0.0
C980 C 0.13307 0.34543 0.49312 0.0
H981 H 0.07501 0.36631 0.24973 0.0
H982 H 0.07085 0.3205 0.30064 0.0
H983 H 0.09363 0.31681 0.27105 0.0
H984 H 0.07419 0.34295 0.18867 0.0
H985 H 0.09087 0.36498 0.17117 0.0
H986 H 0.07594 0.36562 0.19787 0.0
H987 H 0.10693 0.39198 0.22215 0.0
H988 H 0.12197 0.39135 0.19554 0.0
H989 H 0.12633 0.38731 0.22963 0.0
H990 H 0.11587 0.31733 0.23595 0.0
H991 H 0.13358 0.31936 0.19439 0.0
H992 H 0.1221 0.36342 0.16402 0.0
C993 C 0.07916 0.35571 0.2547 0.0
C994 C 0.07133 0.34373 0.27744 0.0
C995 C 0.07665 0.32972 0.2832 0.0
C996 C 0.0897 0.32764 0.26666 0.0
C997 C 0.09708 0.33953 0.24424 0.0
C998 C 0.09185 0.35312 0.23796 0.0
C999 C 0.10054 0.36274 0.21131 0.0
C1000 C 0.08442 0.35883 0.19106 0.0
C1001 C 0.11479 0.38464 0.21489 0.0
C1002 C 0.11125 0.35224 0.20354 0.0
C1003 C 0.10935 0.33923 0.22314 0.0
C1004 C 0.11758 0.32754 0.22049 0.0
C1005 C 0.1277 0.32889 0.1969 0.0
C1006 C 0.1293 0.34163 0.17612 0.0
C1007 C 0.12114 0.35361 0.17965 0.0
H1008 H 0.6836 0.73333 0.26589 0.0
H1009 H 0.65152 0.75021 0.31944 0.0
H1010 H 0.65452 0.7745 0.28704 0.0
H1011 H 0.71696 0.78211 0.23922 0.0
H1012 H 0.7164 0.77367 0.20555 0.0
H1013 H 0.71298 0.75806 0.23355 0.0
H1014 H 0.68008 0.73142 0.2137 0.0
H1015 H 0.68345 0.74691 0.18561 0.0
H1016 H 0.66159 0.73729 0.20566 0.0
H1017 H 0.65941 0.79596 0.24915 0.0
H1018 H 0.66426 0.81225 0.20592 0.0
H1019 H 0.69365 0.78268 0.17552 0.0
C1020 C 0.67734 0.74224 0.2708 0.0
C1021 C 0.6673 0.73975 0.29529 0.0
C1022 C 0.65917 0.75163 0.30082 0.0
C1023 C 0.6609 0.76563 0.2826 0.0
C1024 C 0.67076 0.76769 0.25873 0.0
C1025 C 0.67876 0.75632 0.25257 0.0
C1026 C 0.68769 0.76104 0.22467 0.0
C1027 C 0.70982 0.76921 0.22583 0.0
C1028 C 0.6776 0.7431 0.20633 0.0
C1029 C 0.68313 0.77658 0.2162 0.0
C1030 C 0.67356 0.78028 0.23638 0.0
C1031 C 0.66712 0.7934 0.23324 0.0
C1032 C 0.67014 0.80277 0.20858 0.0
C1033 C 0.67956 0.79903 0.18719 0.0
C1034 C 0.6864 0.78592 0.19136 0.0
H1035 H 0.27551 0.95736 0.23577 0.0
H1036 H 0.28645 0.91588 0.27641 0.0
H1037 H 0.26456 0.89028 0.24482 0.0
H1038 H 0.22476 0.92439 0.22267 0.0
H1039 H 0.22522 0.93438 0.19021 0.0
H1040 H 0.24201 0.9496 0.21575 0.0
H1041 H 0.2712 0.95855 0.18391 0.0
H1042 H 0.25449 0.94349 0.15821 0.0
H1043 H 0.27375 0.93942 0.16881 0.0
H1044 H 0.24119 0.86899 0.20878 0.0
H1045 H 0.21962 0.85435 0.16957 0.0
H1046 H 0.22338 0.90951 0.15345 0.0
C1047 C 0.27343 0.94294 0.2379 0.0
C1048 C 0.28273 0.93865 0.25855 0.0
C1049 C 0.2795 0.91953 0.26074 0.0
C1050 C 0.26704 0.90486 0.24294 0.0
C1051 C 0.25787 0.90948 0.22306 0.0
C1052 C 0.26099 0.92808 0.22035 0.0
C1053 C 0.24939 0.92924 0.19723 0.0
C1054 C 0.23446 0.93472 0.20706 0.0
C1055 C 0.26302 0.94352 0.17577 0.0
C1056 C 0.23937 0.90845 0.18729 0.0
C1057 C 0.24437 0.89723 0.20249 0.0
C1058 C 0.23712 0.87762 0.19678 0.0
C1059 C 0.22475 0.86938 0.17461 0.0
C1060 C 0.21982 0.88076 0.15841 0.0
C1061 C 0.22702 0.90045 0.16527 0.0
H1062 H 0.67331 0.94585 0.26939 0.0
H1063 H 0.62475 0.89616 0.30848 0.0
H1064 H 0.62418 0.87481 0.27257 0.0
H1065 H 0.65681 0.93024 0.201 0.0
H1066 H 0.6811 0.93904 0.18818 0.0
H1067 H 0.6774 0.95077 0.21657 0.0
H1068 H 0.70179 0.94541 0.24413 0.0
H1069 H 0.7055 0.93359 0.21587 0.0
H1070 H 0.69779 0.92119 0.24756 0.0
H1071 H 0.6293 0.85845 0.23351 0.0
H1072 H 0.63923 0.84842 0.19241 0.0
H1073 H 0.68456 0.90835 0.17856 0.0
C1074 C 0.66244 0.93053 0.27025 0.0
C1075 C 0.64909 0.92275 0.29184 0.0
C1076 C 0.63518 0.90254 0.29225 0.0
C1077 C 0.63471 0.89023 0.27192 0.0
C1078 C 0.6482 0.89828 0.25119 0.0
C1079 C 0.66175 0.91795 0.25006 0.0
C1080 C 0.67478 0.92272 0.22564 0.0
C1081 C 0.67237 0.93651 0.20673 0.0
C1082 C 0.69624 0.93123 0.2338 0.0
C1083 C 0.66647 0.90265 0.21344 0.0
C1084 C 0.65116 0.88878 0.22852 0.0
C1085 C 0.64127 0.86917 0.22148 0.0
C1086 C 0.6471 0.86359 0.19823 0.0
C1087 C 0.66268 0.87758 0.18232 0.0
C1088 C 0.67247 0.89735 0.19018 0.0
H1089 H 0.08151 0.72012 0.2459 0.0
H1090 H 0.05119 0.75063 0.26742 0.0
H1091 H 0.07107 0.77632 0.23484 0.0
H1092 H 0.12934 0.76278 0.23394 0.0
H1093 H 0.13455 0.75229 0.20539 0.0
H1094 H 0.11892 0.73682 0.23179 0.0
H1095 H 0.09152 0.71705 0.19735 0.0
H1096 H 0.10712 0.73235 0.17087 0.0
H1097 H 0.08335 0.72955 0.1758 0.0
H1098 H 0.09413 0.79878 0.20012 0.0
H1099 H 0.11625 0.81446 0.16146 0.0
H1100 H 0.13005 0.76851 0.16023 0.0
C1101 C 0.07917 0.73228 0.24383 0.0
C1102 C 0.06495 0.73348 0.25935 0.0
C1103 C 0.06206 0.74944 0.2558 0.0
C1104 C 0.07335 0.76417 0.23745 0.0
C1105 C 0.08732 0.76265 0.22255 0.0
C1106 C 0.0901 0.74699 0.22521 0.0
C1107 C 0.10519 0.74827 0.20542 0.0
C1108 C 0.12306 0.75015 0.22001 0.0
C1109 C 0.09625 0.73077 0.18622 0.0
C1110 C 0.11023 0.76693 0.19106 0.0
C1111 C 0.10005 0.7752 0.20164 0.0
C1112 C 0.10221 0.79247 0.19166 0.0
C1113 C 0.11482 0.80132 0.16988 0.0
C1114 C 0.12478 0.79266 0.15818 0.0
C1115 C 0.1226 0.77539 0.16905 0.0
H1116 H 0.27591 0.32812 0.2638 0.0
H1117 H 0.26026 0.36264 0.31417 0.0
H1118 H 0.23685 0.36019 0.28042 0.0
H1119 H 0.27355 0.34923 0.20141 0.0
H1120 H 0.26334 0.32681 0.1828 0.0
H1121 H 0.27863 0.33057 0.21134 0.0
H1122 H 0.25109 0.29882 0.23264 0.0
H1123 H 0.23568 0.29504 0.20422 0.0
H1124 H 0.22724 0.29584 0.23748 0.0
H1125 H 0.21571 0.35491 0.24173 0.0
H1126 H 0.19925 0.34876 0.19837 0.0
H1127 H 0.2275 0.3171 0.17205 0.0
C1128 C 0.26755 0.33514 0.26771 0.0
C1129 C 0.27 0.34556 0.29177 0.0
C1130 C 0.25878 0.35459 0.29599 0.0
C1131 C 0.24532 0.35323 0.27696 0.0
C1132 C 0.24317 0.3428 0.25366 0.0
C1133 C 0.254 0.33401 0.24875 0.0
C1134 C 0.24913 0.32426 0.22146 0.0
C1135 C 0.26724 0.33326 0.20318 0.0
C1136 C 0.24025 0.30218 0.22412 0.0
C1137 C 0.23405 0.32918 0.21185 0.0
C1138 C 0.23077 0.33973 0.23094 0.0
C1139 C 0.21797 0.34648 0.22667 0.0
C1140 C 0.20851 0.34271 0.20198 0.0
C1141 C 0.21181 0.33222 0.18171 0.0
C1142 C 0.22462 0.32516 0.18701 0.0
H1143 H 0.28833 0.34461 0.43872 0.0
H1144 H 0.24369 0.29765 0.39101 0.0
H1145 H 0.21833 0.2953 0.42201 0.0
H1146 H 0.26625 0.32506 0.50304 0.0
H1147 H 0.27349 0.34857 0.51711 0.0
H1148 H 0.28801 0.34637 0.49113 0.0
H1149 H 0.28483 0.3717 0.46267 0.0
H1150 H 0.27012 0.37382 0.48846 0.0
H1151 H 0.2609 0.36755 0.45481 0.0
H1152 H 0.19759 0.29858 0.45807 0.0
H1153 H 0.18375 0.30564 0.49823 0.0
H1154 H 0.24201 0.35029 0.52183 0.0
C1155 C 0.27324 0.33374 0.43489 0.0
C1156 C 0.26802 0.32133 0.41242 0.0
C1157 C 0.24808 0.30731 0.40811 0.0
C1158 C 0.23353 0.30591 0.42555 0.0
C1159 C 0.23914 0.31857 0.44727 0.0
C1160 C 0.25854 0.3321 0.45212 0.0
C1161 C 0.26075 0.34384 0.47704 0.0
C1162 C 0.27284 0.34077 0.49834 0.0
C1163 C 0.26968 0.36551 0.47033 0.0
C1164 C 0.23959 0.33479 0.48549 0.0
C1165 C 0.22729 0.32033 0.46801 0.0
C1166 C 0.20709 0.30987 0.47191 0.0
C1167 C 0.19934 0.31404 0.49462 0.0
C1168 C 0.21181 0.32842 0.51314 0.0
C1169 C 0.23213 0.33908 0.50812 0.0
H1170 H 0.65571 0.9416 0.44232 0.0
H1171 H 0.70576 0.94974 0.39631 0.0
H1172 H 0.71137 0.93016 0.42913 0.0
H1173 H 0.67648 0.94421 0.50781 0.0
H1174 H 0.65365 0.92582 0.52211 0.0
H1175 H 0.65375 0.94081 0.49518 0.0
H1176 H 0.63107 0.90991 0.4676 0.0
H1177 H 0.631 0.89485 0.49439 0.0
H1178 H 0.63838 0.89228 0.4612 0.0
H1179 H 0.71114 0.90891 0.46638 0.0
H1180 H 0.70588 0.88892 0.50675 0.0
H1181 H 0.65605 0.89452 0.5283 0.0
C1182 C 0.66793 0.93939 0.43927 0.0
C1183 C 0.68028 0.94722 0.41672 0.0
C1184 C 0.69608 0.94391 0.41342 0.0
C1185 C 0.69939 0.93276 0.43193 0.0
C1186 C 0.68682 0.92504 0.45375 0.0
C1187 C 0.67148 0.9283 0.45762 0.0
C1188 C 0.66013 0.91827 0.48274 0.0
C1189 C 0.66107 0.93317 0.50317 0.0
C1190 C 0.63889 0.90292 0.47607 0.0
C1191 C 0.67146 0.90888 0.4923 0.0
C1192 C 0.68677 0.9129 0.47527 0.0
C1193 C 0.69921 0.90568 0.4799 0.0
C1194 C 0.69605 0.89424 0.50276 0.0
C1195 C 0.68062 0.89021 0.5207 0.0
C1196 C 0.66812 0.89755 0.51514 0.0
H1197 H 0.0903 0.77004 0.38858 0.0
H1198 H 0.07412 0.70995 0.4018 0.0
H1199 H 0.09681 0.72017 0.43998 0.0
H1200 H 0.14203 0.79206 0.40725 0.0
H1201 H 0.14254 0.81251 0.42345 0.0
H1202 H 0.12642 0.80077 0.39557 0.0
H1203 H 0.09683 0.7951 0.42449 0.0
H1204 H 0.11287 0.80696 0.45228 0.0
H1205 H 0.09234 0.78266 0.45608 0.0
H1206 H 0.11888 0.73643 0.47903 0.0
H1207 H 0.13777 0.75746 0.51701 0.0
H1208 H 0.14001 0.80691 0.47792 0.0
C1209 C 0.09168 0.75902 0.39926 0.0
C1210 C 0.08042 0.73918 0.39211 0.0
C1211 C 0.08257 0.72524 0.40684 0.0
C1212 C 0.09551 0.73092 0.42848 0.0
C1213 C 0.1063 0.75059 0.43505 0.0
C1214 C 0.10453 0.76443 0.42087 0.0
C1215 C 0.11678 0.78443 0.43311 0.0
C1216 C 0.1329 0.79826 0.41368 0.0
C1217 C 0.10393 0.79276 0.44202 0.0
C1218 C 0.12529 0.77959 0.45686 0.0
C1219 C 0.11925 0.76002 0.45744 0.0
C1220 C 0.12397 0.75182 0.47856 0.0
C1221 C 0.13468 0.76384 0.5 0.0
C1222 C 0.14053 0.7838 0.5001 0.0
C1223 C 0.13619 0.79182 0.47793 0.0
H1224 H 0.36096 0.09096 0.7407 0.0
H1225 H 0.31153 0.03498 0.7634 0.0
H1226 H 0.30384 0.05055 0.80023 0.0
H1227 H 0.37584 0.10851 0.80711 0.0
H1228 H 0.38293 0.13327 0.79937 0.0
H1229 H 0.38392 0.11787 0.77381 0.0
H1230 H 0.36169 0.12477 0.74366 0.0
H1231 H 0.36043 0.14 0.76934 0.0
H1232 H 0.3383 0.11981 0.75616 0.0
H1233 H 0.30227 0.07147 0.83577 0.0
H1234 H 0.30838 0.09645 0.86982 0.0
H1235 H 0.35834 0.13914 0.82435 0.0
C1236 C 0.3485 0.08201 0.75338 0.0
C1237 C 0.33682 0.06175 0.74911 0.0
C1238 C 0.32069 0.05052 0.76624 0.0
C1239 C 0.31611 0.05924 0.78714 0.0
C1240 C 0.32776 0.07923 0.79067 0.0
C1241 C 0.34369 0.0905 0.77443 0.0
C1242 C 0.35435 0.11155 0.78351 0.0
C1243 C 0.37551 0.11818 0.79142 0.0
C1244 C 0.35364 0.12481 0.76188 0.0
C1245 C 0.34213 0.11022 0.80768 0.0
C1246 C 0.32674 0.09146 0.81123 0.0
C1247 C 0.3141 0.08628 0.83304 0.0
C1248 C 0.31761 0.10052 0.85219 0.0
C1249 C 0.33359 0.11968 0.84935 0.0
C1250 C 0.34571 0.1247 0.82651 0.0
H1251 H 0.9069 0.25474 0.72775 0.0
H1252 H 0.96795 0.27515 0.74379 0.0
H1253 H 0.95827 0.25335 0.78297 0.0
H1254 H 0.89246 0.25291 0.79431 0.0
H1255 H 0.86883 0.23136 0.79022 0.0
H1256 H 0.88059 0.24715 0.76216 0.0
H1257 H 0.87762 0.21803 0.73507 0.0
H1258 H 0.86602 0.20218 0.76325 0.0
H1259 H 0.88764 0.20404 0.74854 0.0
H1260 H 0.94209 0.23165 0.82272 0.0
H1261 H 0.92079 0.21284 0.86066 0.0
H1262 H 0.87042 0.20611 0.81796 0.0
C1263 C 0.91827 0.25451 0.73927 0.0
C1264 C 0.93821 0.26669 0.73262 0.0
C1265 C 0.95258 0.26597 0.74842 0.0
C1266 C 0.94722 0.25354 0.77064 0.0
C1267 C 0.92743 0.2418 0.77666 0.0
C1268 C 0.91319 0.24218 0.7614 0.0
C1269 C 0.89304 0.22911 0.77306 0.0
C1270 C 0.88316 0.24084 0.78038 0.0
C1271 C 0.88033 0.21234 0.75383 0.0
C1272 C 0.89819 0.22176 0.79776 0.0
C1273 C 0.91808 0.22906 0.79933 0.0
C1274 C 0.92647 0.22557 0.82147 0.0
C1275 C 0.91429 0.21486 0.84287 0.0
C1276 C 0.89397 0.20778 0.84196 0.0
C1277 C 0.88581 0.21084 0.81879 0.0
H1278 H 0.73486 0.67887 0.75828 0.0
H1279 H 0.73523 0.63136 0.7162 0.0
H1280 H 0.75464 0.62879 0.75236 0.0
H1281 H 0.78363 0.70134 0.78208 0.0
H1282 H 0.77841 0.70806 0.81418 0.0
H1283 H 0.76363 0.70573 0.78563 0.0
H1284 H 0.73252 0.68089 0.81139 0.0
H1285 H 0.7472 0.68324 0.8401 0.0
H1286 H 0.73134 0.65962 0.8257 0.0
H1287 H 0.77523 0.6321 0.79189 0.0
H1288 H 0.7943 0.64019 0.8337 0.0
H1289 H 0.78091 0.68557 0.85017 0.0
C1290 C 0.73881 0.66776 0.75683 0.0
C1291 C 0.73348 0.65534 0.73431 0.0
C1292 C 0.73912 0.64111 0.73315 0.0
C1293 C 0.75018 0.6395 0.75361 0.0
C1294 C 0.75549 0.65218 0.77523 0.0
C1295 C 0.74989 0.66594 0.77714 0.0
C1296 C 0.7579 0.67798 0.80238 0.0
C1297 C 0.77171 0.69955 0.79565 0.0
C1298 C 0.74124 0.67526 0.82099 0.0
C1299 C 0.76895 0.66891 0.81415 0.0
C1300 C 0.76737 0.65406 0.79816 0.0
C1301 C 0.77654 0.64367 0.80465 0.0
C1302 C 0.78746 0.64847 0.8283 0.0
C1303 C 0.78911 0.6635 0.84518 0.0
C1304 C 0.77976 0.67387 0.83782 0.0
H1305 H 0.72696 0.66668 0.58815 0.0
H1306 H 0.77164 0.71348 0.63601 0.0
H1307 H 0.79712 0.71474 0.60609 0.0
H1308 H 0.75338 0.64229 0.57494 0.0
H1309 H 0.74443 0.63566 0.54121 0.0
H1310 H 0.72977 0.63864 0.56621 0.0
H1311 H 0.72765 0.66395 0.53625 0.0
H1312 H 0.74212 0.66089 0.51106 0.0
H1313 H 0.74981 0.68475 0.5242 0.0
H1314 H 0.81777 0.71065 0.57053 0.0
H1315 H 0.83139 0.70288 0.53079 0.0
H1316 H 0.77293 0.65832 0.50781 0.0
C1317 C 0.74209 0.6773 0.59227 0.0
C1318 C 0.74732 0.68999 0.61438 0.0
C1319 C 0.7673 0.70362 0.61913 0.0
C1320 C 0.78188 0.7044 0.60232 0.0
C1321 C 0.77621 0.69143 0.58093 0.0
C1322 C 0.75677 0.67823 0.5758 0.0
C1323 C 0.75444 0.66597 0.55146 0.0
C1324 C 0.74494 0.64436 0.55891 0.0
C1325 C 0.74282 0.66909 0.52945 0.0
C1326 C 0.77558 0.67442 0.54355 0.0
C1327 C 0.78799 0.68902 0.56079 0.0
C1328 C 0.80819 0.69919 0.55695 0.0
C1329 C 0.81581 0.69461 0.53449 0.0
C1330 C 0.8032 0.68007 0.51625 0.0
C1331 C 0.78291 0.66962 0.52132 0.0
H1332 H 0.34356 0.06659 0.59312 0.0
H1333 H 0.30136 0.07324 0.6405 0.0
H1334 H 0.30019 0.09433 0.60586 0.0
H1335 H 0.3697 0.11583 0.56711 0.0
H1336 H 0.37331 0.10865 0.53434 0.0
H1337 H 0.37134 0.09426 0.56316 0.0
H1338 H 0.34292 0.06379 0.54063 0.0
H1339 H 0.34482 0.07809 0.51175 0.0
H1340 H 0.32185 0.06454 0.52917 0.0
H1341 H 0.30311 0.11455 0.56623 0.0
H1342 H 0.30928 0.13169 0.52305 0.0
H1343 H 0.34947 0.11228 0.50079 0.0
C1344 C 0.33413 0.07252 0.59623 0.0
C1345 C 0.32257 0.06817 0.61966 0.0
C1346 C 0.31034 0.07622 0.62279 0.0
C1347 C 0.30958 0.08831 0.60322 0.0
C1348 C 0.32108 0.09228 0.58044 0.0
C1349 C 0.33308 0.08461 0.57671 0.0
C1350 C 0.34358 0.09094 0.54997 0.0
C1351 C 0.3658 0.10315 0.55389 0.0
C1352 C 0.33795 0.07329 0.53181 0.0
C1353 C 0.33552 0.10325 0.53934 0.0
C1354 C 0.32265 0.10391 0.55733 0.0
C1355 C 0.31323 0.11422 0.55198 0.0
C1356 C 0.31692 0.12403 0.52747 0.0
C1357 C 0.32989 0.12341 0.50852 0.0
C1358 C 0.33936 0.11293 0.51475 0.0
H1359 H 0.95426 0.26196 0.58568 0.0
H1360 H 0.92036 0.28864 0.60773 0.0
H1361 H 0.89364 0.26566 0.57827 0.0
H1362 H 0.941 0.25588 0.51676 0.0
H1363 H 0.94051 0.23316 0.51335 0.0
H1364 H 0.95618 0.25072 0.53778 0.0
H1365 H 0.94009 0.22461 0.57495 0.0
H1366 H 0.92417 0.20705 0.55061 0.0
H1367 H 0.914 0.21221 0.57962 0.0
H1368 H 0.87068 0.23998 0.54574 0.0
H1369 H 0.85541 0.21661 0.50824 0.0
H1370 H 0.9049 0.20795 0.50604 0.0
C1371 C 0.94115 0.26287 0.58441 0.0
C1372 C 0.93931 0.27696 0.59914 0.0
C1373 C 0.92208 0.27793 0.59664 0.0
C1374 C 0.90676 0.26485 0.58012 0.0
C1375 C 0.90895 0.25101 0.56601 0.0
C1376 C 0.92585 0.25014 0.56766 0.0
C1377 C 0.92518 0.23492 0.54886 0.0
C1378 C 0.94169 0.24423 0.52795 0.0
C1379 C 0.9259 0.21874 0.56445 0.0
C1380 C 0.90537 0.22751 0.53619 0.0
C1381 C 0.89604 0.23669 0.54669 0.0
C1382 C 0.87779 0.23261 0.53748 0.0
C1383 C 0.86915 0.21925 0.51638 0.0
C1384 C 0.87894 0.21044 0.50466 0.0
C1385 C 0.89705 0.21434 0.51506 0.0
H1386 H 0.32036 0.24472 0.60617 0.0
H1387 H 0.36772 0.30354 0.59067 0.0
H1388 H 0.37899 0.29136 0.5533 0.0
H1389 H 0.34722 0.22037 0.59144 0.0
H1390 H 0.32676 0.19984 0.57566 0.0
H1391 H 0.32267 0.21301 0.60177 0.0
H1392 H 0.30052 0.21907 0.5702 0.0
H1393 H 0.30424 0.20561 0.54425 0.0
H1394 H 0.30979 0.23012 0.53799 0.0
H1395 H 0.38442 0.27296 0.51672 0.0
H1396 H 0.38175 0.25014 0.48114 0.0
H1397 H 0.33134 0.20336 0.52107 0.0
C1398 C 0.33309 0.2551 0.59493 0.0
C1399 C 0.34315 0.27512 0.60141 0.0
C1400 C 0.35972 0.28815 0.58609 0.0
C1401 C 0.36633 0.28135 0.56495 0.0
C1402 C 0.35627 0.26148 0.55945 0.0
C1403 C 0.33991 0.24857 0.57385 0.0
C1404 C 0.33121 0.22805 0.56317 0.0
C1405 C 0.33202 0.21453 0.58427 0.0
C1406 C 0.3102 0.22026 0.55331 0.0
C1407 C 0.34503 0.23147 0.54017 0.0
C1408 C 0.35953 0.25083 0.53855 0.0
C1409 C 0.37329 0.25775 0.51797 0.0
C1410 C 0.37175 0.2447 0.49796 0.0
C1411 C 0.35656 0.225 0.49872 0.0
C1412 C 0.34342 0.21822 0.52051 0.0
H1413 H 0.72161 0.05562 0.57376 0.0
H1414 H 0.764 0.05029 0.62176 0.0
H1415 H 0.78976 0.07016 0.58884 0.0
H1416 H 0.74137 0.05349 0.50872 0.0
H1417 H 0.73621 0.07096 0.49402 0.0
H1418 H 0.72107 0.05551 0.52075 0.0
H1419 H 0.72769 0.08593 0.54802 0.0
H1420 H 0.74298 0.10147 0.52149 0.0
H1421 H 0.75252 0.10457 0.55494 0.0
H1422 H 0.81134 0.09233 0.55162 0.0
H1423 H 0.82629 0.11312 0.51164 0.0
H1424 H 0.76955 0.10366 0.48883 0.0
C1425 C 0.73625 0.0584 0.57719 0.0
C1426 C 0.74079 0.0514 0.60031 0.0
C1427 C 0.76017 0.05548 0.60414 0.0
C1428 C 0.77492 0.06679 0.5856 0.0
C1429 C 0.77002 0.07381 0.56329 0.0
C1430 C 0.7511 0.06961 0.55891 0.0
C1431 C 0.74967 0.07918 0.53367 0.0
C1432 C 0.73629 0.06387 0.51308 0.0
C1433 C 0.74281 0.09365 0.53992 0.0
C1434 C 0.77075 0.08955 0.52464 0.0
C1435 C 0.78232 0.08635 0.54194 0.0
C1436 C 0.8024 0.09483 0.53784 0.0
C1437 C 0.81078 0.1067 0.51524 0.0
C1438 C 0.79904 0.10983 0.49709 0.0
C1439 C 0.77883 0.10125 0.50212 0.0
H1440 H 0.93129 0.69067 0.62278 0.0
H1441 H 0.9446 0.64485 0.60991 0.0
H1442 H 0.92131 0.63238 0.57223 0.0
H1443 H 0.8792 0.6619 0.60595 0.0
H1444 H 0.87936 0.68208 0.58967 0.0
H1445 H 0.89582 0.68639 0.61697 0.0
H1446 H 0.9253 0.70937 0.58698 0.0
H1447 H 0.90893 0.70529 0.55977 0.0
H1448 H 0.92866 0.7006 0.55529 0.0
H1449 H 0.8989 0.62685 0.53337 0.0
H1450 H 0.88017 0.62946 0.49581 0.0
H1451 H 0.88075 0.67817 0.53503 0.0
C1452 C 0.92922 0.67789 0.61226 0.0
C1453 C 0.93983 0.66875 0.61937 0.0
C1454 C 0.93666 0.6521 0.60491 0.0
C1455 C 0.92338 0.64486 0.58355 0.0
C1456 C 0.91322 0.65428 0.57706 0.0
C1457 C 0.91597 0.67042 0.59104 0.0
C1458 C 0.90417 0.67862 0.57916 0.0
C1459 C 0.88872 0.67715 0.59913 0.0
C1460 C 0.91756 0.69971 0.56974 0.0
C1461 C 0.89475 0.66492 0.55576 0.0
C1462 C 0.89999 0.65084 0.55504 0.0
C1463 C 0.89441 0.63756 0.53403 0.0
C1464 C 0.88373 0.63909 0.51285 0.0
C1465 C 0.8787 0.65374 0.5129 0.0
C1466 C 0.88385 0.66645 0.53499 0.0
H1467 H 0.9335 0.6535 0.76491 0.0
H1468 H 0.96789 0.71485 0.74557 0.0
H1469 H 0.94745 0.72151 0.77623 0.0
H1470 H 0.88667 0.6503 0.7712 0.0
H1471 H 0.87902 0.63387 0.79924 0.0
H1472 H 0.89573 0.63382 0.77482 0.0
H1473 H 0.92067 0.63985 0.81227 0.0
H1474 H 0.90394 0.63964 0.83679 0.0
H1475 H 0.92837 0.66026 0.83454 0.0
H1476 H 0.92307 0.72134 0.80957 0.0
H1477 H 0.89934 0.71475 0.84633 0.0
H1478 H 0.88203 0.65387 0.84456 0.0
C1479 C 0.93669 0.66833 0.76705 0.0
C1480 C 0.95222 0.68365 0.75278 0.0
C1481 C 0.95608 0.70289 0.75637 0.0
C1482 C 0.94446 0.70679 0.77359 0.0
C1483 C 0.92913 0.69131 0.78721 0.0
C1484 C 0.92542 0.6725 0.78438 0.0
C1485 C 0.90885 0.65859 0.80241 0.0
C1486 C 0.89155 0.64324 0.78592 0.0
C1487 C 0.91589 0.64903 0.8227 0.0
C1488 C 0.90388 0.6725 0.81598 0.0
C1489 C 0.91552 0.69128 0.80671 0.0
C1490 C 0.91382 0.70668 0.81687 0.0
C1491 C 0.90026 0.70283 0.83754 0.0
C1492 C 0.88882 0.68381 0.84786 0.0
C1493 C 0.89047 0.66848 0.83663 0.0
H1494 H 0.32834 0.27107 0.75591 0.0
H1495 H 0.37417 0.27444 0.70467 0.0
H1496 H 0.37777 0.252 0.73469 0.0
H1497 H 0.35055 0.27149 0.81711 0.0
H1498 H 0.32803 0.25484 0.83382 0.0
H1499 H 0.32803 0.2699 0.80713 0.0
H1500 H 0.302 0.2392 0.78195 0.0
H1501 H 0.30203 0.22403 0.80855 0.0
H1502 H 0.30679 0.21989 0.77459 0.0
H1503 H 0.37768 0.23058 0.77176 0.0
H1504 H 0.37512 0.21359 0.81431 0.0
H1505 H 0.3292 0.22398 0.84078 0.0
C1506 C 0.33899 0.26693 0.75086 0.0
C1507 C 0.35092 0.27446 0.72791 0.0
C1508 C 0.36485 0.26885 0.72216 0.0
C1509 C 0.36694 0.25603 0.73901 0.0
C1510 C 0.35499 0.2489 0.76152 0.0
C1511 C 0.34133 0.2542 0.76752 0.0
C1512 C 0.33111 0.24541 0.79376 0.0
C1513 C 0.33465 0.26136 0.81415 0.0
C1514 C 0.30918 0.23129 0.78944 0.0
C1515 C 0.34143 0.23468 0.80183 0.0
C1516 C 0.355 0.23665 0.78286 0.0
C1517 C 0.36695 0.22876 0.78663 0.0
C1518 C 0.36533 0.21904 0.81075 0.0
C1519 C 0.35197 0.21747 0.83078 0.0
C1520 C 0.33957 0.22499 0.82582 0.0
H1521 H 0.73511 0.06119 0.7476 0.0
H1522 H 0.74444 0.11033 0.69922 0.0
H1523 H 0.76523 0.13278 0.73439 0.0
H1524 H 0.73301 0.08154 0.81144 0.0
H1525 H 0.74584 0.07181 0.82917 0.0
H1526 H 0.73146 0.05933 0.8002 0.0
H1527 H 0.76169 0.06067 0.77818 0.0
H1528 H 0.77616 0.07321 0.80706 0.0
H1529 H 0.78387 0.08381 0.77428 0.0
H1530 H 0.78502 0.15016 0.7745 0.0
H1531 H 0.80199 0.16119 0.81782 0.0
H1532 H 0.78077 0.10117 0.84005 0.0
C1533 C 0.74146 0.07665 0.74446 0.0
C1534 C 0.73808 0.08391 0.72055 0.0
C1535 C 0.74677 0.10431 0.71726 0.0
C1536 C 0.75865 0.11725 0.73714 0.0
C1537 C 0.7618 0.10966 0.7603 0.0
C1538 C 0.75346 0.08987 0.76415 0.0
C1539 C 0.75931 0.08565 0.79101 0.0
C1540 C 0.74133 0.07389 0.80901 0.0
C1541 C 0.77095 0.07522 0.7874 0.0
C1542 C 0.77215 0.10615 0.80154 0.0
C1543 C 0.7734 0.11977 0.78348 0.0
C1544 C 0.78425 0.13965 0.7888 0.0
C1545 C 0.79396 0.14579 0.81338 0.0
C1546 C 0.7928 0.13209 0.83235 0.0
C1547 C 0.78182 0.11202 0.82611 0.0
H1548 H 0.07457 0.37033 0.0228 0.0
H1549 H 0.02699 0.31056 0.02463 0.0
H1550 H 0.05015 0.29983 0.03692 0.0
H1551 H 0.11466 0.36127 0.00094 0.0
H1552 H 0.13191 0.3797 0.02332 0.0
H1553 H 0.11265 0.38224 0.00867 0.0
H1554 H 0.10118 0.38574 0.05596 0.0
H1555 H 0.12049 0.38345 0.07058 0.0
H1556 H 0.09556 0.36717 0.08062 0.0
H1557 H 0.07733 0.29608 0.05509 0.0
H1558 H 0.10481 0.30003 0.08285 0.0
H1559 H 0.13435 0.36227 0.0716 0.0
C1560 C 0.06919 0.35493 0.02483 0.0
C1561 C 0.04909 0.34121 0.02224 0.0
C1562 C 0.04239 0.32126 0.02621 0.0
C1563 C 0.05547 0.31504 0.03301 0.0
C1564 C 0.07519 0.32898 0.036 0.0
C1565 C 0.08199 0.34856 0.03225 0.0
C1566 C 0.10307 0.36086 0.04099 0.0
C1567 C 0.11636 0.37165 0.01705 0.0
C1568 C 0.10518 0.37513 0.06337 0.0
C1569 C 0.10686 0.34525 0.05124 0.0
C1570 C 0.0908 0.32689 0.04741 0.0
C1571 C 0.09016 0.31032 0.0576 0.0
C1572 C 0.10588 0.31264 0.07312 0.0
C1573 C 0.12188 0.33138 0.07851 0.0
C1574 C 0.12263 0.34777 0.06671 0.0
H1575 H 0.66753 0.71021 0.04147 0.0
H1576 H 0.61842 0.70445 -0.0039 0.0
H1577 H 0.62509 0.73623 0.0131 0.0
H1578 H 0.65949 0.72988 0.09858 0.0
H1579 H 0.68487 0.74641 0.10597 0.0
H1580 H 0.67782 0.72443 0.0876 0.0
H1581 H 0.70133 0.74456 0.04908 0.0
H1582 H 0.70847 0.76665 0.06739 0.0
H1583 H 0.69917 0.7638 0.03383 0.0
H1584 H 0.63452 0.7667 0.03938 0.0
H1585 H 0.64586 0.79294 0.07305 0.0
H1586 H 0.68981 0.7798 0.09942 0.0
C1587 C 0.65841 0.71579 0.03465 0.0
C1588 C 0.64247 0.70477 0.01738 0.0
C1589 C 0.63076 0.71257 0.00926 0.0
C1590 C 0.63446 0.73068 0.01874 0.0
C1591 C 0.65007 0.74099 0.03613 0.0
C1592 C 0.66195 0.73389 0.04385 0.0
C1593 C 0.67687 0.74715 0.06421 0.0
C1594 C 0.67461 0.73632 0.09065 0.0
C1595 C 0.6977 0.75607 0.05294 0.0
C1596 C 0.67106 0.76239 0.06746 0.0
C1597 C 0.65571 0.75874 0.05089 0.0
C1598 C 0.64681 0.76995 0.05206 0.0
C1599 C 0.65344 0.78493 0.07116 0.0
C1600 C 0.66877 0.78851 0.08888 0.0
C1601 C 0.67803 0.77743 0.08622 0.0
H1602 H 0.29864 0.92476 0.00084 0.0
H1603 H 0.29989 0.97915 0.01339 0.0
H1604 H 0.26526 0.96084 0.0275 0.0
H1605 H 0.24648 0.89484 0.97909 0.0
H1606 H 0.24329 0.87392 -0.00283 0.0
H1607 H 0.2668 0.89101 0.98313 0.0
H1608 H 0.28283 0.89588 0.02981 0.0
H1609 H 0.25952 0.8786 0.04369 0.0
H1610 H 0.27315 0.90269 0.05776 0.0
H1611 H 0.23247 0.9371 0.04642 0.0
H1612 H 0.20631 0.91071 0.07324 0.0
H1613 H 0.22624 0.87179 0.04844 0.0
C1614 C 0.29151 0.93285 0.00585 0.0
C1615 C 0.30195 0.95341 0.00577 0.0
C1616 C 0.29219 0.96341 0.01319 0.0
C1617 C 0.27246 0.95312 0.02099 0.0
C1618 C 0.26266 0.93283 0.02115 0.0
C1619 C 0.27194 0.92282 0.01388 0.0
C1620 C 0.25919 0.90126 0.01932 0.0
C1621 C 0.25361 0.88957 0.99311 0.0
C1622 C 0.26927 0.89422 0.03881 0.0
C1623 C 0.24162 0.90075 0.03202 0.0
C1624 C 0.24365 0.91903 0.0322 0.0
C1625 C 0.23044 0.92265 0.04573 0.0
C1626 C 0.21549 0.90754 0.06069 0.0
C1627 C 0.21396 0.88913 0.06207 0.0
C1628 C 0.2266 0.88548 0.04658 0.0
H1629 H 0.33531 0.04854 0.9905 0.0
H1630 H 0.39636 0.08121 0.01268 0.0
H1631 H 0.39729 0.11187 0.00176 0.0
H1632 H 0.3385 0.07384 0.93535 0.0
H1633 H 0.31553 0.07297 0.93928 0.0
H1634 H 0.31885 0.05441 0.95403 0.0
H1635 H 0.30952 0.06187 0.00053 0.0
H1636 H 0.30627 0.08061 0.98581 0.0
H1637 H 0.32269 0.08629 0.01359 0.0
H1638 H 0.39325 0.1379 0.97881 0.0
H1639 H 0.38432 0.15602 0.94727 0.0
H1640 H 0.32535 0.1069 0.9439 0.0
C1641 C 0.3487 0.0622 0.99393 0.0
C1642 C 0.36573 0.06251 0.00249 0.0
C1643 C 0.38306 0.08064 0.00641 0.0
C1644 C 0.38371 0.09814 0.00028 0.0
C1645 C 0.36678 0.09729 0.99092 0.0
C1646 C 0.34948 0.07974 0.98831 0.0
C1647 C 0.33386 0.08239 0.97529 0.0
C1648 C 0.32627 0.0702 0.94947 0.0
C1649 C 0.3171 0.0775 0.99499 0.0
C1650 C 0.34537 0.10394 0.96934 0.0
C1651 C 0.36428 0.11245 0.97881 0.0
C1652 C 0.37832 0.13157 0.97209 0.0
C1653 C 0.37313 0.14185 0.95432 0.0
C1654 C 0.3541 0.13292 0.94348 0.0
C1655 C 0.33989 0.11418 0.95238 0.0
H1656 H 0.9613 0.29886 0.98504 0.0
H1657 H 0.91859 0.31511 0.00686 0.0
H1658 H 0.89213 0.28321 0.99138 0.0
H1659 H 0.93911 0.27528 0.92554 0.0
H1660 H 0.94488 0.25628 0.92875 0.0
H1661 H 0.96019 0.27947 0.94439 0.0
H1662 H 0.95525 0.26238 0.99018 0.0
H1663 H 0.93976 0.2391 0.97464 0.0
H1664 H 0.93086 0.24664 0.0027 0.0
H1665 H 0.87049 0.25093 0.96889 0.0
H1666 H 0.85615 0.22195 0.93954 0.0
H1667 H 0.9125 0.2259 0.93445 0.0
C1668 C 0.94637 0.29561 0.98698 0.0
C1669 C 0.94211 0.30957 -0.00275 0.0
C1670 C 0.92233 0.30473 -0.00087 0.0
C1671 C 0.90713 0.28656 0.9905 0.0
C1672 C 0.91184 0.27322 0.98025 0.0
C1673 C 0.93099 0.2775 0.97854 0.0
C1674 C 0.93224 0.2612 0.96493 0.0
C1675 C 0.94484 0.2685 0.93939 0.0
C1676 C 0.93999 0.25177 0.98428 0.0
C1677 C 0.91092 0.24744 0.95841 0.0
C1678 C 0.89931 0.25447 0.9677 0.0
C1679 C 0.87938 0.24508 0.96196 0.0
C1680 C 0.87129 0.22851 0.94544 0.0
C1681 C 0.88315 0.22159 0.93475 0.0
C1682 C 0.90302 0.23079 0.94237 0.0
H1683 H 0.71653 0.68538 0.97795 0.0
H1684 H 0.70725 0.64136 0.03621 0.0
H1685 H 0.73933 0.64534 0.02426 0.0
H1686 H 0.7348 0.66978 0.92884 0.0
H1687 H 0.75236 0.69346 0.91612 0.0
H1688 H 0.73087 0.68996 0.93308 0.0
H1689 H 0.7524 0.71739 0.96658 0.0
H1690 H 0.77405 0.72097 0.94964 0.0
H1691 H 0.7711 0.71607 0.98507 0.0
H1692 H 0.7698 0.65022 0.00025 0.0
H1693 H 0.79447 0.65477 0.9661 0.0
H1694 H 0.78393 0.69603 0.92454 0.0
C1695 C 0.72148 0.677 0.98885 0.0
C1696 C 0.7094 0.66314 0.00816 0.0
C1697 C 0.71632 0.65222 0.02155 0.0
C1698 C 0.73455 0.65441 0.0149 0.0
C1699 C 0.74583 0.66777 0.99506 0.0
C1700 C 0.73957 0.67902 0.98245 0.0
C1701 C 0.75311 0.69068 0.95975 0.0
C1702 C 0.74213 0.68565 0.93288 0.0
C1703 C 0.76327 0.71258 0.96562 0.0
C1704 C 0.76747 0.68357 0.96063 0.0
C1705 C 0.76333 0.67064 0.98142 0.0
C1706 C 0.77344 0.66067 0.98432 0.0
C1707 C 0.78754 0.66343 0.96494 0.0
C1708 C 0.7912 0.67586 0.94283 0.0
C1709 C 0.78159 0.68662 0.94144 0.0
H1710 H 0.95811 0.66489 0.99148 0.0
H1711 H 0.91351 0.61212 0.03003 0.0
H1712 H 0.88818 0.61865 0.01399 0.0
H1713 H 0.93388 0.6939 0.00348 0.0
H1714 H 0.94158 0.70571 0.9714 0.0
H1715 H 0.95649 0.69822 0.98878 0.0
H1716 H 0.95566 0.67823 0.9473 0.0
H1717 H 0.94084 0.68568 0.92985 0.0
H1718 H 0.93242 0.66019 0.9337 0.0
H1719 H 0.86726 0.62838 0.98842 0.0
H1720 H 0.85301 0.64068 0.95546 0.0
H1721 H 0.91108 0.68825 0.9364 0.0
C1722 C 0.94307 0.65492 -0.00297 0.0
C1723 C 0.93788 0.638 0.01205 0.0
C1724 C 0.91795 0.62523 0.01862 0.0
C1725 C 0.9034 0.62883 0.00968 0.0
C1726 C 0.90896 0.64543 0.99449 0.0
C1727 C 0.92834 0.65838 0.98846 0.0
C1728 C 0.93032 0.67438 0.97022 0.0
C1729 C 0.94121 0.69423 0.98432 0.0
C1730 C 0.94039 0.67462 0.94371 0.0
C1731 C 0.90902 0.66794 0.96605 0.0
C1732 C 0.89689 0.65133 0.9804 0.0
C1733 C 0.87661 0.64165 0.97755 0.0
C1734 C 0.86861 0.6488 0.95889 0.0
C1735 C 0.88089 0.66542 0.94331 0.0
C1736 C 0.90127 0.67547 0.94792 0.0
H1737 H 0.38141 0.31968 0.95332 0.0
H1738 H 0.34338 0.29446 0.022 0.0
H1739 H 0.33884 0.26212 0.0104 0.0
H1740 H 0.35675 0.28138 0.90865 0.0
H1741 H 0.37845 0.28379 0.89343 0.0
H1742 H 0.37909 0.30462 0.90829 0.0
H1743 H 0.40786 0.30995 0.93853 0.0
H1744 H 0.4072 0.289 0.92382 0.0
H1745 H 0.40513 0.29043 0.95958 0.0
H1746 H 0.33531 0.23164 0.98666 0.0
H1747 H 0.33472 0.20726 0.95505 0.0
H1748 H 0.37902 0.25402 0.90678 0.0
C1749 C 0.37226 0.30735 0.96602 0.0
C1750 C 0.36256 0.30937 0.98832 0.0
C1751 C 0.35089 0.29307 0.00476 0.0
C1752 C 0.34827 0.27471 -0.00166 0.0
C1753 C 0.35797 0.27314 0.97596 0.0
C1754 C 0.37005 0.28919 0.96043 0.0
C1755 C 0.37875 0.28389 0.93735 0.0
C1756 C 0.3729 0.2887 0.91035 0.0
C1757 C 0.40106 0.29391 0.94 0.0
C1758 C 0.36912 0.26222 0.94156 0.0
C1759 C 0.3571 0.25611 0.9638 0.0
C1760 C 0.34506 0.23634 0.96957 0.0
C1761 C 0.34489 0.22256 0.95164 0.0
C1762 C 0.35676 0.22872 0.92839 0.0
C1763 C 0.36966 0.24881 0.92428 0.0
H1764 H 0.70754 0.04417 0.96935 0.0
H1765 H 0.70301 0.08505 0.02186 0.0
H1766 H 0.73608 0.1107 0.00844 0.0
H1767 H 0.76118 0.06413 0.97717 0.0
H1768 H 0.76414 0.06027 0.94233 0.0
H1769 H 0.74148 0.04426 0.95926 0.0
H1770 H 0.72252 0.05146 0.92343 0.0
H1771 H 0.74505 0.06733 0.90638 0.0
H1772 H 0.72935 0.07631 0.91681 0.0
H1773 H 0.76798 0.13291 0.98557 0.0
H1774 H 0.79449 0.15012 0.95241 0.0
H1775 H 0.77852 0.09506 0.91475 0.0
C1776 C 0.71373 0.05838 0.97854 0.0
C1777 C 0.70273 0.06254 -0.00317 0.0
C1778 C 0.71115 0.08149 0.00785 0.0
C1779 C 0.73001 0.09614 0.0005 0.0
C1780 C 0.74035 0.09169 0.98206 0.0
C1781 C 0.73249 0.07326 0.97116 0.0
C1782 C 0.74567 0.07284 0.94951 0.0
C1783 C 0.75359 0.05959 0.95756 0.0
C1784 C 0.73501 0.06663 0.92244 0.0
C1785 C 0.76177 0.09402 0.94928 0.0
C1786 C 0.75868 0.10459 0.96858 0.0
C1787 C 0.77076 0.12473 0.97068 0.0
C1788 C 0.78589 0.1344 0.95189 0.0
C1789 C 0.78863 0.12394 0.9311 0.0
C1790 C 0.77686 0.10342 0.93057 0.0
H1791 H 0.68288 0.97054 0.05174 0.0
H1792 H 0.64171 0.93394 0.99092 0.0
H1793 H 0.64741 0.90726 0.00321 0.0
H1794 H 0.71675 0.95093 0.04554 0.0
H1795 H 0.72089 0.9527 0.08113 0.0
H1796 H 0.71604 0.9698 0.0645 0.0
H1797 H 0.68712 0.96082 0.09693 0.0
H1798 H 0.69199 0.94388 0.11368 0.0
H1799 H 0.66808 0.93573 0.10014 0.0
H1800 H 0.65364 0.88298 0.02721 0.0
H1801 H 0.65889 0.86371 0.06139 0.0
H1802 H 0.69715 0.91661 0.1048 0.0
C1803 C 0.67543 0.9571 0.0405 0.0
C1804 C 0.6619 0.95438 0.02028 0.0
C1805 C 0.65225 0.93643 0.00636 0.0
C1806 C 0.65545 0.9212 0.01315 0.0
C1807 C 0.66857 0.92421 0.03364 0.0
C1808 C 0.67854 0.94182 0.04693 0.0
C1809 C 0.69034 0.94086 0.06993 0.0
C1810 C 0.71231 0.95438 0.06496 0.0
C1811 C 0.68399 0.94559 0.09673 0.0
C1812 C 0.68474 0.91972 0.06838 0.0
C1813 C 0.67244 0.91036 0.04707 0.0
C1814 C 0.66365 0.89026 0.04355 0.0
C1815 C 0.66682 0.87941 0.06294 0.0
C1816 C 0.67853 0.88868 0.08561 0.0
C1817 C 0.68833 0.90918 0.08747 0.0
H1818 H 0.06995 0.69389 0.0255 0.0
H1819 H 0.0346 0.7171 -0.00295 0.0
H1820 H 0.06229 0.75061 0.00414 0.0
H1821 H 0.08814 0.7249 0.07893 0.0
H1822 H 0.11191 0.72725 0.07886 0.0
H1823 H 0.09138 0.7058 0.06527 0.0
H1824 H 0.11002 0.71156 0.02036 0.0
H1825 H 0.13057 0.73325 0.03386 0.0
H1826 H 0.11933 0.73445 0.00326 0.0
H1827 H 0.09219 0.7812 0.01962 0.0
H1828 H 0.11874 0.80527 0.04849 0.0
H1829 H 0.13349 0.76198 0.0705 0.0
C1830 C 0.0684 0.7061 0.01976 0.0
C1831 C 0.05046 0.70307 0.00992 0.0
C1832 C 0.04844 0.71925 0.00402 0.0
C1833 C 0.06412 0.73829 0.00788 0.0
C1834 C 0.0816 0.74087 0.01811 0.0
C1835 C 0.08371 0.72515 0.02432 0.0
C1836 C 0.10246 0.73155 0.03956 0.0
C1837 C 0.09821 0.7218 0.06728 0.0
C1838 C 0.11642 0.72746 0.02328 0.0
C1839 C 0.11027 0.7532 0.04182 0.0
C1840 C 0.0984 0.75841 0.02851 0.0
C1841 C 0.10178 0.77735 0.02965 0.0
C1842 C 0.11703 0.79101 0.04587 0.0
C1843 C 0.12841 0.78556 0.06111 0.0
C1844 C 0.12541 0.76664 0.05825 0.0
H1845 H 0.31282 0.39057 0.04328 0.0
H1846 H 0.30155 0.33489 0.01269 0.0
H1847 H 0.2667 0.32027 0.02499 0.0
H1848 H 0.28337 0.37205 0.09989 0.0
H1849 H 0.27531 0.38946 0.09963 0.0
H1850 H 0.29854 0.39574 0.08525 0.0
H1851 H 0.28804 0.40404 0.04047 0.0
H1852 H 0.2646 0.39744 0.0547 0.0
H1853 H 0.26595 0.38595 0.02432 0.0
H1854 H 0.23379 0.31116 0.0443 0.0
H1855 H 0.20673 0.30773 0.07303 0.0
H1856 H 0.23978 0.36919 0.09114 0.0
C1857 C 0.30299 0.37536 0.03872 0.0
C1858 C 0.30989 0.3639 0.02682 0.0
C1859 C 0.29659 0.34397 0.02175 0.0
C1860 C 0.27675 0.33558 0.02846 0.0
C1861 C 0.27045 0.34733 0.0402 0.0
C1862 C 0.28325 0.36677 0.04546 0.0
C1863 C 0.27336 0.37582 0.06069 0.0
C1864 C 0.28323 0.38371 0.08798 0.0
C1865 C 0.27297 0.39175 0.04404 0.0
C1866 C 0.2531 0.35831 0.06388 0.0
C1867 C 0.25155 0.34208 0.05145 0.0
C1868 C 0.23469 0.32384 0.0536 0.0
C1869 C 0.21934 0.32203 0.06972 0.0
C1870 C 0.22109 0.33833 0.08344 0.0
C1871 C 0.23791 0.35673 0.07991 0.0
H1872 H 0.71154 0.66456 0.38895 0.0
H1873 H 0.74754 0.71116 0.33385 0.0
H1874 H 0.77545 0.70654 0.34346 0.0
H1875 H 0.74603 0.67716 0.43766 0.0
H1876 H 0.73879 0.65266 0.44721 0.0
H1877 H 0.72127 0.65769 0.43253 0.0
H1878 H 0.71412 0.63201 0.39561 0.0
H1879 H 0.73186 0.62705 0.41014 0.0
H1880 H 0.73391 0.63399 0.37546 0.0
H1881 H 0.8007 0.70017 0.36486 0.0
H1882 H 0.82039 0.69354 0.3968 0.0
H1883 H 0.76735 0.65013 0.43584 0.0
C1884 C 0.72515 0.67351 0.37838 0.0
C1885 C 0.72733 0.68819 0.36058 0.0
C1886 C 0.74548 0.69973 0.34743 0.0
C1887 C 0.7614 0.69715 0.35272 0.0
C1888 C 0.75885 0.68277 0.37086 0.0
C1889 C 0.74106 0.67104 0.3833 0.0
C1890 C 0.74243 0.65794 0.40388 0.0
C1891 C 0.73681 0.6616 0.43196 0.0
C1892 C 0.72983 0.63647 0.39578 0.0
C1893 C 0.76395 0.6647 0.40204 0.0
C1894 C 0.77321 0.67882 0.38262 0.0
C1895 C 0.79351 0.68878 0.37962 0.0
C1896 C 0.80461 0.68482 0.39767 0.0
C1897 C 0.79535 0.67115 0.4185 0.0
C1898 C 0.77475 0.66036 0.41972 0.0
H1899 H 0.33002 0.04031 0.3625 0.0
H1900 H 0.29056 0.04296 0.30525 0.0
H1901 H 0.29842 0.07489 0.32337 0.0
H1902 H 0.31682 0.05868 0.41622 0.0
H1903 H 0.34089 0.07236 0.43049 0.0
H1904 H 0.33445 0.0512 0.4105 0.0
H1905 H 0.36401 0.07178 0.37928 0.0
H1906 H 0.37054 0.09307 0.39923 0.0
H1907 H 0.36665 0.09334 0.36376 0.0
H1908 H 0.30764 0.10471 0.35095 0.0
H1909 H 0.31625 0.12893 0.38703 0.0
H1910 H 0.35015 0.10728 0.4258 0.0
C1911 C 0.32338 0.04781 0.35332 0.0
C1912 C 0.30975 0.03914 0.33232 0.0
C1913 C 0.30108 0.04929 0.3213 0.0
C1914 C 0.30553 0.06751 0.33137 0.0
C1915 C 0.31875 0.07548 0.35242 0.0
C1916 C 0.32758 0.06597 0.36324 0.0
C1917 C 0.33983 0.07678 0.38736 0.0
C1918 C 0.33255 0.06399 0.41262 0.0
C1919 C 0.36155 0.08418 0.38208 0.0
C1920 C 0.33594 0.09346 0.38898 0.0
C1921 C 0.32402 0.09266 0.36839 0.0
C1922 C 0.31726 0.10569 0.3669 0.0
C1923 C 0.32233 0.1195 0.38741 0.0
C1924 C 0.3339 0.12007 0.40925 0.0
C1925 C 0.34127 0.10724 0.40941 0.0
H1926 H 0.98472 0.26034 0.37629 0.0
H1927 H 0.96716 0.29929 0.34333 0.0
H1928 H 0.93259 0.27495 0.35284 0.0
H1929 H 0.94237 0.21421 0.35475 0.0
H1930 H 0.9414 0.20206 0.38555 0.0
H1931 H 0.96445 0.22144 0.37322 0.0
H1932 H 0.97043 0.24008 0.41809 0.0
H1933 H 0.94767 0.22056 0.43064 0.0
H1934 H 0.9521 0.24504 0.43058 0.0
H1935 H 0.90024 0.24726 0.36855 0.0
H1936 H 0.87374 0.22118 0.39553 0.0
H1937 H 0.91263 0.201 0.41939 0.0
C1938 C 0.97357 0.26364 0.37073 0.0
C1939 C 0.97857 0.2816 0.35885 0.0
C1940 C 0.96363 0.28559 0.35246 0.0
C1941 C 0.94395 0.27177 0.35751 0.0
C1942 C 0.93951 0.25411 0.36908 0.0
C1943 C 0.95395 0.25017 0.376 0.0
C1944 C 0.94563 0.23114 0.39101 0.0
C1945 C 0.94864 0.21634 0.37518 0.0
C1946 C 0.95447 0.23441 0.41924 0.0
C1947 C 0.92428 0.22517 0.39201 0.0
C1948 C 0.92094 0.23835 0.37867 0.0
C1949 C 0.9026 0.23667 0.37863 0.0
C1950 C 0.88758 0.22171 0.39372 0.0
C1951 C 0.89111 0.20885 0.40872 0.0
C1952 C 0.90946 0.21022 0.40715 0.0
H1953 H 0.99383 0.37168 0.30724 0.0
H1954 H 0.03947 0.40903 0.36275 0.0
H1955 H 0.03298 0.43556 0.35331 0.0
H1956 H 0.00549 0.40525 0.25891 0.0
H1957 H 0.9809 0.39738 0.24852 0.0
H1958 H 0.98628 0.38042 0.26401 0.0
H1959 H 0.95977 0.37286 0.30005 0.0
H1960 H 0.95446 0.39004 0.28468 0.0
H1961 H 0.96089 0.39241 0.31959 0.0
H1962 H 0.02611 0.45965 0.33131 0.0
H1963 H 0.02058 0.47887 0.2975 0.0
H1964 H 0.97824 0.42568 0.25806 0.0
C1965 C 1.00204 0.38523 0.31806 0.0
C1966 C 0.01709 0.38825 0.33581 0.0
C1967 C 0.02777 0.40633 0.34918 0.0
C1968 C 0.02411 0.42147 0.34405 0.0
C1969 C 0.00952 0.41822 0.32581 0.0
C1970 C 0.99853 0.40044 0.3132 0.0
C1971 C 0.9855 0.40132 0.29196 0.0
C1972 C 0.98982 0.39578 0.26424 0.0
C1973 C 0.96387 0.38839 0.29954 0.0
C1974 C 0.99173 0.42264 0.29341 0.0
C1975 C 0.00528 0.43211 0.31345 0.0
C1976 C 0.0151 0.45232 0.31608 0.0
C1977 C 0.01177 0.46316 0.29691 0.0
C1978 C 0.99889 0.45372 0.27534 0.0
C1979 C 0.98794 0.4332 0.27463 0.0
H1980 H 0.59357 0.63958 0.33485 0.0
H1981 H 0.64382 0.63222 0.34103 0.0
H1982 H 0.62388 0.59846 0.32452 0.0
H1983 H 0.55544 0.58923 0.35199 0.0
H1984 H 0.53871 0.58893 0.3275 0.0
H1985 H 0.55605 0.61144 0.34346 0.0
H1986 H 0.56936 0.62724 0.29706 0.0
H1987 H 0.55191 0.60492 0.28109 0.0
H1988 H 0.57755 0.61559 0.27374 0.0
H1989 H 0.5993 0.56655 0.30346 0.0
H1990 H 0.57357 0.54102 0.27495 0.0
H1991 H 0.53981 0.56954 0.28137 0.0
C1992 C 0.60028 0.63073 0.33329 0.0
C1993 C 0.6202 0.63847 0.33952 0.0
C1994 C 0.62856 0.62658 0.33647 0.0
C1995 C 0.6173 0.60733 0.32731 0.0
C1996 C 0.59771 0.60018 0.32117 0.0
C1997 C 0.58933 0.6116 0.32381 0.0
C1998 C 0.56871 0.60133 0.31296 0.0
C1999 C 0.55385 0.59751 0.33532 0.0
C2000 C 0.56678 0.61296 0.28984 0.0
C2001 C 0.56693 0.58254 0.30314 0.0
C2002 C 0.58365 0.58193 0.30861 0.0
C2003 C 0.586 0.56669 0.29957 0.0
C2004 C 0.57127 0.55215 0.28363 0.0
C2005 C 0.55453 0.55307 0.27682 0.0
C2006 C 0.55214 0.56815 0.28729 0.0
H2007 H 0.36846 0.9678 0.32242 0.0
H2008 H 0.38549 0.0286 0.32046 0.0
H2009 H 0.41935 0.03748 0.30945 0.0
H2010 H 0.41695 0.9742 0.3455 0.0
H2011 H 0.41439 0.95524 0.32325 0.0
H2012 H 0.39302 0.95401 0.33791 0.0
H2013 H 0.37849 0.95108 0.2906 0.0
H2014 H 0.39966 0.95216 0.27596 0.0
H2015 H 0.39257 0.96935 0.26585 0.0
H2016 H 0.44939 0.03936 0.2909 0.0
H2017 H 0.47172 0.03377 0.26265 0.0
H2018 H 0.43514 0.97181 0.27464 0.0
C2019 C 0.37956 0.98302 0.32083 0.0
C2020 C 0.37453 0.99757 0.32284 0.0
C2021 C 0.38916 0.01728 0.31937 0.0
C2022 C 0.40845 0.02245 0.31326 0.0
C2023 C 0.41287 0.00772 0.31049 0.0
C2024 C 0.39879 0.98836 0.31411 0.0
C2025 C 0.40632 0.97515 0.30544 0.0
C2026 C 0.40776 0.96399 0.32946 0.0
C2027 C 0.39351 0.96113 0.28314 0.0
C2028 C 0.42642 0.99 0.29512 0.0
C2029 C 0.43019 0.00876 0.299 0.0
C2030 C 0.44688 0.0248 0.28844 0.0
C2031 C 0.45958 0.02155 0.2726 0.0
C2032 C 0.4554 1.00243 0.26733 0.0
C2033 C 0.43901 0.98657 0.27944 0.0
H2034 H 0.5831 0.94627 0.33139 0.0
H2035 H 0.62803 0.00523 0.35072 0.0
H2036 H 0.60744 0.01747 0.33239 0.0
H2037 H 0.57305 0.9578 0.26894 0.0
H2038 H 0.54725 0.94033 0.26963 0.0
H2039 H 0.56376 0.93602 0.28874 0.0
H2040 H 0.54385 0.93243 0.33176 0.0
H2041 H 0.52735 0.93692 0.31271 0.0
H2042 H 0.53965 0.95177 0.34145 0.0
H2043 H 0.58359 0.02358 0.3081 0.0
H2044 H 0.5604 0.02346 0.2751 0.0
H2045 H 0.53193 0.96085 0.26902 0.0
C2046 C 0.5883 0.96169 0.33246 0.0
C2047 C 0.60695 0.97481 0.34291 0.0
C2048 C 0.61368 0.99496 0.34303 0.0
C2049 C 0.60203 1.002 0.33283 0.0
C2050 C 0.58379 0.98872 0.3223 0.0
C2051 C 0.57705 0.96899 0.32176 0.0
C2052 C 0.55825 0.9581 0.30597 0.0
C2053 C 0.56074 0.94745 0.2819 0.0
C2054 C 0.54127 0.94397 0.32406 0.0
C2055 C 0.55573 0.97481 0.29708 0.0
C2056 C 0.57034 0.99231 0.30732 0.0
C2057 C 0.57189 0.00994 0.30039 0.0
C2058 C 0.55861 0.00976 0.28182 0.0
C2059 C 0.54415 0.99211 0.27027 0.0
C2060 C 0.54245 0.97442 0.2784 0.0
H2061 H 0.99405 0.62561 0.30151 0.0
H2062 H 0.0469 0.64332 0.34678 0.0
H2063 H 0.04349 0.61125 0.33871 0.0
H2064 H 0.968 0.57282 0.32174 0.0
H2065 H 0.95757 0.56518 0.28888 0.0
H2066 H 0.96229 0.58819 0.30215 0.0
H2067 H 0.98326 0.60582 0.26034 0.0
H2068 H 0.97849 0.58293 0.24696 0.0
H2069 H 1.00331 0.60241 0.25138 0.0
H2070 H 0.03773 0.57976 0.31863 0.0
H2071 H 0.03015 0.55233 0.28807 0.0
H2072 H 0.97978 0.55394 0.25896 0.0
C2073 C 0.00459 0.62255 0.31037 0.0
C2074 C 0.0207 0.63697 0.32483 0.0
C2075 C 0.03436 0.63248 0.33575 0.0
C2076 C 0.03251 0.61424 0.33136 0.0
C2077 C 0.01672 0.60049 0.31642 0.0
C2078 C 1.00286 0.60437 0.30637 0.0
C2079 C 0.98839 0.58795 0.28873 0.0
C2080 C 0.96784 0.57794 0.30113 0.0
C2081 C 0.98839 0.59522 0.26018 0.0
C2082 C 0.99686 0.57472 0.28927 0.0
C2083 C 0.01305 0.58201 0.30562 0.0
C2084 C 0.02475 0.57359 0.30638 0.0
C2085 C 0.02028 0.55792 0.28911 0.0
C2086 C 0.00431 0.55096 0.27133 0.0
C2087 C 0.99194 0.55884 0.27262 0.0
H2088 H 0.37723 0.37841 0.32307 0.0
H2089 H 0.36471 0.42126 0.35619 0.0
H2090 H 0.39679 0.44752 0.34095 0.0
H2091 H 0.43025 0.4056 0.33887 0.0
H2092 H 0.43662 0.39815 0.30823 0.0
H2093 H 0.41335 0.38247 0.32396 0.0
H2094 H 0.39566 0.38149 0.28003 0.0
H2095 H 0.41884 0.39705 0.2642 0.0
H2096 H 0.40054 0.40399 0.26489 0.0
H2097 H 0.4286 0.4694 0.31744 0.0
H2098 H 0.4572 0.48466 0.28725 0.0
H2099 H 0.4507 0.42806 0.27262 0.0
C2100 C 0.38135 0.39329 0.32749 0.0
C2101 C 0.36832 0.39765 0.34089 0.0
C2102 C 0.37433 0.4174 0.34605 0.0
C2103 C 0.39262 0.43251 0.33754 0.0
C2104 C 0.405 0.42775 0.32415 0.0
C2105 C 0.3997 0.40861 0.31934 0.0
C2106 C 0.41533 0.40753 0.30325 0.0
C2107 C 0.42443 0.39786 0.31956 0.0
C2108 C 0.4071 0.39689 0.27652 0.0
C2109 C 0.42982 0.42899 0.29897 0.0
C2110 C 0.42369 0.44044 0.31134 0.0
C2111 C 0.43378 0.4606 0.30811 0.0
C2112 C 0.45016 0.46921 0.29106 0.0
C2113 C 0.45632 0.45766 0.27743 0.0
C2114 C 0.44638 0.43737 0.28252 0.0
H2115 H 0.35025 0.30019 0.36311 0.0
H2116 H 0.29192 0.26357 0.33178 0.0
H2117 H 0.29395 0.23437 0.34197 0.0
H2118 H 0.37004 0.26816 0.34025 0.0
H2119 H 0.38466 0.27375 0.37003 0.0
H2120 H 0.37979 0.29162 0.35598 0.0
H2121 H 0.36568 0.29443 0.40155 0.0
H2122 H 0.37053 0.27668 0.41565 0.0
H2123 H 0.34616 0.27282 0.41688 0.0
H2124 H 0.29988 0.20931 0.36448 0.0
H2125 H 0.30973 0.19156 0.39525 0.0
H2126 H 0.36545 0.24427 0.40719 0.0
C2127 C 0.33815 0.28605 0.35761 0.0
C2128 C 0.32096 0.28415 0.3466 0.0
C2129 C 0.30533 0.26539 0.33997 0.0
C2130 C 0.30636 0.2487 0.3457 0.0
C2131 C 0.32333 0.25103 0.35738 0.0
C2132 C 0.33912 0.26931 0.36269 0.0
C2133 C 0.35503 0.26798 0.37727 0.0
C2134 C 0.37347 0.27584 0.35983 0.0
C2135 C 0.3596 0.27859 0.40444 0.0
C2136 C 0.3453 0.24618 0.3808 0.0
C2137 C 0.32708 0.23654 0.36902 0.0
C2138 C 0.31437 0.21663 0.37306 0.0
C2139 C 0.32011 0.20658 0.39043 0.0
C2140 C 0.33838 0.21649 0.40354 0.0
C2141 C 0.35144 0.23625 0.3973 0.0
H2142 H 0.73741 0.03011 0.3502 0.0
H2143 H 0.69471 0.04845 0.35007 0.0
H2144 H 0.72083 0.08231 0.35871 0.0
H2145 H 0.76074 0.05557 0.40528 0.0
H2146 H 0.78502 0.06167 0.3953 0.0
H2147 H 0.76427 0.04047 0.3817 0.0
H2148 H 0.77638 0.05338 0.3337 0.0
H2149 H 0.79715 0.07482 0.34735 0.0
H2150 H 0.78102 0.07716 0.32444 0.0
H2151 H 0.74995 0.11246 0.3754 0.0
H2152 H 0.77809 0.13471 0.40357 0.0
H2153 H 0.80175 0.09678 0.39518 0.0
C2154 C 0.73377 0.04146 0.3508 0.0
C2155 C 0.71418 0.03684 0.34888 0.0
C2156 C 0.70971 0.05181 0.35109 0.0
C2157 C 0.72448 0.0711 0.35583 0.0
C2158 C 0.74365 0.07516 0.35853 0.0
C2159 C 0.74831 0.0607 0.35621 0.0
C2160 C 0.76913 0.06799 0.36492 0.0
C2161 C 0.76981 0.0557 0.38818 0.0
C2162 C 0.78166 0.06836 0.34118 0.0
C2163 C 0.77512 0.08841 0.37387 0.0
C2164 C 0.76048 0.09254 0.36913 0.0
C2165 C 0.76174 0.10963 0.37853 0.0
C2166 C 0.77784 0.12231 0.39432 0.0
C2167 C 0.79225 0.11765 0.40078 0.0
C2168 C 0.79126 0.10096 0.38951 0.0
H2169 H 0.97077 0.67766 0.3675 0.0
H2170 H 0.98361 0.7347 0.34087 0.0
H2171 H 0.95161 0.72793 0.3573 0.0
H2172 H 0.91748 0.6519 0.35314 0.0
H2173 H 0.91145 0.63707 0.38274 0.0
H2174 H 0.93445 0.64527 0.36596 0.0
H2175 H 0.95289 0.66075 0.41013 0.0
H2176 H 0.92998 0.65251 0.42701 0.0
H2177 H 0.94842 0.67793 0.42755 0.0
H2178 H 0.92006 0.71681 0.38074 0.0
H2179 H 0.89197 0.70256 0.4117 0.0
H2180 H 0.89839 0.65213 0.42177 0.0
C2181 C 0.9667 0.68857 0.36471 0.0
C2182 C 0.97976 0.7067 0.35285 0.0
C2183 C 0.97395 0.7207 0.34994 0.0
C2184 C 0.9557 0.71696 0.35903 0.0
C2185 C 0.94326 0.69909 0.37088 0.0
C2186 C 0.94847 0.68509 0.37376 0.0
C2187 C 0.93303 0.66777 0.38928 0.0
C2188 C 0.92354 0.64941 0.37172 0.0
C2189 C 0.94159 0.66457 0.41501 0.0
C2190 C 0.91877 0.67458 0.39546 0.0
C2191 C 0.92479 0.69255 0.38431 0.0
C2192 C 0.91493 0.70254 0.38916 0.0
C2193 C 0.89887 0.69426 0.40664 0.0
C2194 C 0.89288 0.67618 0.41914 0.0
C2195 C 0.90259 0.66597 0.41256 0.0
H2196 H 0.37833 1.00039 0.70658 0.0
H2197 H 0.41265 0.05274 0.65983 0.0
H2198 H 0.4426 0.05198 0.67078 0.0
H2199 H 0.41032 0.01319 0.75885 0.0
H2200 H 0.40597 0.98909 0.76511 0.0
H2201 H 0.38729 0.99215 0.74993 0.0
H2202 H 0.38588 0.97077 0.70985 0.0
H2203 H 0.40471 0.96774 0.72493 0.0
H2204 H 0.40787 0.97716 0.6914 0.0
H2205 H 0.46939 0.04792 0.69252 0.0
H2206 H 0.4897 0.04156 0.72377 0.0
H2207 H 0.43751 0.99156 0.75491 0.0
C2208 C 0.39206 0.01144 0.69803 0.0
C2209 C 0.39309 0.02657 0.6822 0.0
C2210 C 0.41144 0.0409 0.67182 0.0
C2211 C 0.42854 0.04056 0.6779 0.0
C2212 C 0.42705 0.02565 0.69413 0.0
C2213 C 0.40918 0.01127 0.70386 0.0
C2214 C 0.41151 0.99791 0.72292 0.0
C2215 C 0.4033 0.99812 0.75084 0.0
C2216 C 0.40192 0.97716 0.71159 0.0
C2217 C 0.43351 0.00742 0.72333 0.0
C2218 C 0.44231 0.02323 0.70632 0.0
C2219 C 0.46262 0.03531 0.70544 0.0
C2220 C 0.47409 0.03154 0.7231 0.0
C2221 C 0.46518 0.01595 0.74148 0.0
C2222 C 0.44472 0.00338 0.74071 0.0
H2223 H 0.99698 0.37547 0.69978 0.0
H2224 H 0.93794 0.36016 0.67858 0.0
H2225 H 0.94462 0.3923 0.69353 0.0
H2226 H 0.9991 0.3997 0.75913 0.0
H2227 H 0.02437 0.41843 0.75578 0.0
H2228 H 0.01576 0.3951 0.74039 0.0
H2229 H 0.02866 0.41189 0.69445 0.0
H2230 H 0.03716 0.43531 0.70976 0.0
H2231 H 0.02071 0.42782 0.68171 0.0
H2232 H 0.95624 0.42462 0.71512 0.0
H2233 H 0.97147 0.45361 0.74428 0.0
H2234 H 0.02342 0.44906 0.74989 0.0
C2235 C 0.98557 0.379 0.69786 0.0
C2236 C 0.96694 0.3652 0.68792 0.0
C2237 C 0.95234 0.37037 0.68614 0.0
C2238 C 0.95602 0.3887 0.69441 0.0
C2239 C 0.97442 0.40189 0.70433 0.0
C2240 C 0.98898 0.39731 0.7061 0.0
C2241 C 0.00694 0.41356 0.7196 0.0
C2242 C 0.01182 0.40626 0.74524 0.0
C2243 C 0.0244 0.42269 0.70022 0.0
C2244 C 0.99991 0.42759 0.72594 0.0
C2245 C 0.98122 0.42074 0.7166 0.0
C2246 C 0.97103 0.43035 0.72211 0.0
C2247 C 0.97986 0.44694 0.73853 0.0
C2248 C 0.99866 0.45369 0.74936 0.0
C2249 C 0.00904 0.44429 0.7419 0.0
H2250 H 0.63859 0.63464 0.70154 0.0
H2251 H 0.64025 0.59446 0.64443 0.0
H2252 H 0.60716 0.56926 0.65829 0.0
H2253 H 0.61812 0.60247 0.75235 0.0
H2254 H 0.603 0.61146 0.76527 0.0
H2255 H 0.62486 0.62744 0.74704 0.0
H2256 H 0.60474 0.63523 0.71395 0.0
H2257 H 0.58271 0.61912 0.73213 0.0
H2258 H 0.58427 0.61566 0.69674 0.0
H2259 H 0.57685 0.5468 0.68377 0.0
H2260 H 0.55296 0.52914 0.71983 0.0
H2261 H 0.56991 0.58392 0.75907 0.0
C2262 C 0.63175 0.62076 0.69134 0.0
C2263 C 0.64204 0.6166 0.67184 0.0
C2264 C 0.6327 0.59806 0.6594 0.0
C2265 C 0.61381 0.58365 0.66701 0.0
C2266 C 0.60429 0.58801 0.68687 0.0
C2267 C 0.61289 0.60619 0.69873 0.0
C2268 C 0.60067 0.60646 0.72185 0.0
C2269 C 0.61236 0.61229 0.74816 0.0
C2270 C 0.59262 0.61992 0.71579 0.0
C2271 C 0.58448 0.58535 0.72213 0.0
C2272 C 0.58655 0.575 0.70145 0.0
C2273 C 0.57475 0.55481 0.69963 0.0
C2274 C 0.56111 0.54488 0.72012 0.0
C2275 C 0.55957 0.55516 0.74219 0.0
C2276 C 0.57072 0.5757 0.74233 0.0
H2277 H 0.66439 0.70984 0.65176 0.0
H2278 H 0.71687 0.74624 0.69741 0.0
H2279 H 0.71418 0.77502 0.6866 0.0
H2280 H 0.67498 0.74023 0.59952 0.0
H2281 H 0.65046 0.73505 0.59352 0.0
H2282 H 0.65435 0.71717 0.60933 0.0
H2283 H 0.63306 0.71579 0.64968 0.0
H2284 H 0.62907 0.73373 0.63388 0.0
H2285 H 0.63895 0.73786 0.66723 0.0
H2286 H 0.70917 0.80045 0.66329 0.0
H2287 H 0.70211 0.81932 0.63052 0.0
H2288 H 0.65208 0.76597 0.60236 0.0
C2289 C 0.67497 0.72376 0.66023 0.0
C2290 C 0.69079 0.7258 0.6755 0.0
C2291 C 0.7045 0.74431 0.6859 0.0
C2292 C 0.70307 0.76074 0.67985 0.0
C2293 C 0.68765 0.75834 0.66384 0.0
C2294 C 0.67366 0.74019 0.65457 0.0
C2295 C 0.6597 0.74155 0.63548 0.0
C2296 C 0.65991 0.73301 0.60785 0.0
C2297 C 0.63897 0.73165 0.64728 0.0
C2298 C 0.6686 0.76336 0.63425 0.0
C2299 C 0.68454 0.77288 0.65101 0.0
C2300 C 0.6964 0.79313 0.65066 0.0
C2301 C 0.69225 0.80378 0.6321 0.0
C2302 C 0.67649 0.79409 0.61407 0.0
C2303 C 0.66411 0.77375 0.61613 0.0
H2304 H 0.30118 0.9703 0.63123 0.0
H2305 H 0.26041 0.96235 0.69476 0.0
H2306 H 0.23788 0.92914 0.67887 0.0
H2307 H 0.26688 0.94836 0.5821 0.0
H2308 H 0.27824 0.93675 0.56497 0.0
H2309 H 0.2929 0.95843 0.58419 0.0
H2310 H 0.30634 0.94045 0.61198 0.0
H2311 H 0.29163 0.91864 0.59278 0.0
H2312 H 0.28956 0.91809 0.62874 0.0
H2313 H 0.21755 0.89922 0.65245 0.0
H2314 H 0.20064 0.87549 0.6163 0.0
H2315 H 0.25456 0.90149 0.57046 0.0
C2316 C 0.28779 0.96132 0.64224 0.0
C2317 C 0.2826 0.96891 0.66427 0.0
C2318 C 0.2647 0.95689 0.67778 0.0
C2319 C 0.25184 0.93791 0.66905 0.0
C2320 C 0.25707 0.93102 0.64682 0.0
C2321 C 0.27465 0.94229 0.63363 0.0
C2322 C 0.27565 0.9322 0.60843 0.0
C2323 C 0.27858 0.94467 0.58346 0.0
C2324 C 0.29175 0.92704 0.61063 0.0
C2325 C 0.25554 0.91407 0.60889 0.0
C2326 C 0.24521 0.91347 0.63148 0.0
C2327 C 0.22562 0.89924 0.63496 0.0
C2328 C 0.21614 0.88571 0.61435 0.0
C2329 C 0.22621 0.88657 0.59048 0.0
C2330 C 0.2464 0.90045 0.5884 0.0
H2331 H 0.03345 0.30114 0.64341 0.0
H2332 H 0.05071 0.35991 0.6673 0.0
H2333 H 0.08541 0.36991 0.66025 0.0
H2334 H 0.07671 0.29982 0.66887 0.0
H2335 H 0.07754 0.28672 0.63994 0.0
H2336 H 0.0545 0.28327 0.65156 0.0
H2337 H 0.04785 0.29249 0.60468 0.0
H2338 H 0.07063 0.29558 0.59293 0.0
H2339 H 0.06578 0.31521 0.58977 0.0
H2340 H 0.11772 0.37424 0.64657 0.0
H2341 H 0.14406 0.37398 0.6205 0.0
H2342 H 0.10584 0.31298 0.60286 0.0
C2343 C 0.04461 0.31599 0.64781 0.0
C2344 C 0.0395 0.32971 0.65636 0.0
C2345 C 0.05438 0.34917 0.66095 0.0
C2346 C 0.07412 0.35491 0.65723 0.0
C2347 C 0.07871 0.34106 0.6486 0.0
C2348 C 0.06434 0.32206 0.64354 0.0
C2349 C 0.07283 0.31076 0.63059 0.0
C2350 C 0.07024 0.29416 0.64884 0.0
C2351 C 0.06374 0.30307 0.60286 0.0
C2352 C 0.09415 0.3265 0.62843 0.0
C2353 C 0.09733 0.34372 0.63969 0.0
C2354 C 0.11549 0.36075 0.63818 0.0
C2355 C 0.13046 0.36045 0.62362 0.0
C2356 C 0.12714 0.3433 0.61053 0.0
C2357 C 0.10898 0.326 0.61375 0.0
H2358 H 0.26021 0.28868 0.65691 0.0
H2359 H 0.30926 0.34699 0.6692 0.0
H2360 H 0.28828 0.36049 0.65772 0.0
H2361 H 0.24313 0.29935 0.59995 0.0
H2362 H 0.21765 0.28296 0.60709 0.0
H2363 H 0.23571 0.27817 0.62043 0.0
H2364 H 0.22238 0.27708 0.66828 0.0
H2365 H 0.20445 0.28223 0.65497 0.0
H2366 H 0.22103 0.2976 0.68061 0.0
H2367 H 0.263 0.36771 0.63944 0.0
H2368 H 0.23714 0.36785 0.61212 0.0
H2369 H 0.20487 0.30501 0.61187 0.0
C2370 C 0.26647 0.30428 0.65784 0.0
C2371 C 0.28638 0.31675 0.66421 0.0
C2372 C 0.29404 0.33711 0.66451 0.0
C2373 C 0.28218 0.34491 0.6582 0.0
C2374 C 0.26265 0.33219 0.65171 0.0
C2375 C 0.2549 0.31229 0.65141 0.0
C2376 C 0.23423 0.3018 0.64075 0.0
C2377 C 0.2326 0.28989 0.61557 0.0
C2378 C 0.21967 0.28892 0.66246 0.0
C2379 C 0.23174 0.3189 0.63416 0.0
C2380 C 0.24811 0.33633 0.64116 0.0
C2381 C 0.24992 0.35415 0.6345 0.0
C2382 C 0.23509 0.35414 0.61926 0.0
C2383 C 0.21878 0.33644 0.61077 0.0
C2384 C 0.21681 0.31869 0.61917 0.0
H2385 H 0.70651 0.97065 0.67169 0.0
H2386 H 0.64631 0.95662 0.67035 0.0
H2387 H 0.63567 0.9223 0.66056 0.0
H2388 H 0.70327 0.94566 0.61596 0.0
H2389 H 0.71972 0.93754 0.62595 0.0
H2390 H 0.72204 0.9592 0.64037 0.0
H2391 H 0.71871 0.94479 0.68784 0.0
H2392 H 0.71623 0.92293 0.67339 0.0
H2393 H 0.69776 0.92148 0.69589 0.0
H2394 H 0.63206 0.89161 0.64239 0.0
H2395 H 0.6361 0.86864 0.6136 0.0
H2396 H 0.69859 0.90256 0.62461 0.0
C2397 C 0.69104 0.96011 0.67061 0.0
C2398 C 0.67717 0.96612 0.6724 0.0
C2399 C 0.65711 0.9522 0.6695 0.0
C2400 C 0.65095 0.93266 0.66406 0.0
C2401 C 0.66504 0.92727 0.66137 0.0
C2402 C 0.68472 0.94064 0.66452 0.0
C2403 C 0.69713 0.93216 0.65575 0.0
C2404 C 0.71135 0.94436 0.63317 0.0
C2405 C 0.70811 0.93022 0.67965 0.0
C2406 C 0.68147 0.91235 0.64579 0.0
C2407 C 0.663 0.90954 0.65005 0.0
C2408 C 0.64638 0.89337 0.63968 0.0
C2409 C 0.64874 0.88028 0.62354 0.0
C2410 C 0.66758 0.88354 0.61778 0.0
C2411 C 0.68402 0.89934 0.62984 0.0
H2412 H 0.03974 0.75418 0.63986 0.0
H2413 H 0.05131 0.71121 0.67416 0.0
H2414 H 0.08569 0.73059 0.65936 0.0
H2415 H 0.06773 0.76192 0.58154 0.0
H2416 H 0.07614 0.78751 0.57933 0.0
H2417 H 0.05321 0.77135 0.59535 0.0
H2418 H 0.06511 0.79268 0.63813 0.0
H2419 H 0.08824 0.80872 0.6223 0.0
H2420 H 0.08749 0.79748 0.65385 0.0
H2421 H 0.11812 0.75336 0.63821 0.0
H2422 H 0.14479 0.77555 0.60773 0.0
H2423 H 0.11215 0.80335 0.5864 0.0
C2424 C 0.04957 0.74898 0.6446 0.0
C2425 C 0.04285 0.73124 0.65838 0.0
C2426 C 0.0561 0.72475 0.66365 0.0
C2427 C 0.07571 0.73575 0.65553 0.0
C2428 C 0.08186 0.75319 0.64205 0.0
C2429 C 0.06912 0.75966 0.63633 0.0
C2430 C 0.0789 0.77787 0.61928 0.0
C2431 C 0.06837 0.77444 0.59228 0.0
C2432 C 0.08 0.79521 0.63429 0.0
C2433 C 0.09901 0.78041 0.61577 0.0
C2434 C 0.10055 0.76625 0.62954 0.0
C2435 C 0.11723 0.76473 0.62777 0.0
C2436 C 0.13238 0.77749 0.61066 0.0
C2437 C 0.13072 0.79151 0.59556 0.0
C2438 C 0.11406 0.79329 0.59867 0.0
H2439 H 0.96935 0.60526 0.70852 0.0
H2440 H 0.03059 0.64915 0.7012 0.0
H2441 H 0.03963 0.62456 0.71219 0.0
H2442 H 0.97502 0.58401 0.76567 0.0
H2443 H 0.95646 0.55953 0.7572 0.0
H2444 H 0.95501 0.57972 0.74428 0.0
H2445 H 0.95349 0.56696 0.69602 0.0
H2446 H 0.95526 0.54685 0.70891 0.0
H2447 H 0.97258 0.56287 0.68432 0.0
H2448 H 0.04208 0.59601 0.72839 0.0
H2449 H 0.03778 0.56757 0.75398 0.0
H2450 H 0.97516 0.54274 0.75246 0.0
C2451 C 0.98464 0.60956 0.70857 0.0
C2452 C 0.99928 0.62904 0.70364 0.0
C2453 C 0.01915 0.63427 0.70476 0.0
C2454 C 0.02441 0.62036 0.71077 0.0
C2455 C 0.00963 0.60128 0.71581 0.0
C2456 C 0.99014 0.59593 0.71505 0.0
C2457 C 0.97718 0.57524 0.7247 0.0
C2458 C 0.96523 0.5746 0.74943 0.0
C2459 C 0.96384 0.56221 0.70214 0.0
C2460 C 0.99242 0.56995 0.73177 0.0
C2461 C 0.01104 0.58497 0.72584 0.0
C2462 C 0.02756 0.58402 0.73262 0.0
C2463 C 0.02501 0.56774 0.74689 0.0
C2464 C 0.00614 0.5528 0.75445 0.0
C2465 C 0.98967 0.55367 0.746 0.0
H2466 H 0.40104 0.36295 0.72928 0.0
H2467 H 0.39833 0.38497 0.6513 0.0
H2468 H 0.42696 0.41709 0.66299 0.0
H2469 H 0.41273 0.4039 0.76653 0.0
H2470 H 0.42915 0.40157 0.78887 0.0
H2471 H 0.40973 0.38034 0.77305 0.0
H2472 H 0.43494 0.37206 0.75357 0.0
H2473 H 0.45449 0.39343 0.76923 0.0
H2474 H 0.45504 0.38985 0.73367 0.0
H2475 H 0.4531 0.44813 0.68659 0.0
H2476 H 0.474 0.47401 0.71899 0.0
H2477 H 0.46161 0.43001 0.77877 0.0
C2478 C 0.40662 0.37448 0.71455 0.0
C2479 C 0.39746 0.37164 0.68952 0.0
C2480 C 0.40522 0.38695 0.67062 0.0
C2481 C 0.42148 0.40518 0.67707 0.0
C2482 C 0.43009 0.40758 0.70217 0.0
C2483 C 0.42305 0.39247 0.72038 0.0
C2484 C 0.43426 0.39873 0.74632 0.0
C2485 C 0.42066 0.39598 0.77007 0.0
C2486 C 0.44534 0.38787 0.75095 0.0
C2487 C 0.44815 0.41997 0.74046 0.0
C2488 C 0.4457 0.42493 0.7149 0.0
C2489 C 0.45547 0.4443 0.7064 0.0
C2490 C 0.46742 0.45892 0.72483 0.0
C2491 C 0.4694 0.454 0.75135 0.0
C2492 C 0.46038 0.43421 0.75861 0.0
H2493 H 0.63414 0.0116 0.68336 0.0
H2494 H 0.65064 0.06862 0.65226 0.0
H2495 H 0.6196 0.06475 0.66877 0.0
H2496 H 0.58067 0.9887 0.66965 0.0
H2497 H 0.57432 0.97461 0.70001 0.0
H2498 H 0.59661 0.98077 0.68254 0.0
H2499 H 0.6164 0.9965 0.72577 0.0
H2500 H 0.59423 0.99035 0.7433 0.0
H2501 H 0.61397 0.01524 0.74239 0.0
H2502 H 0.58919 0.05682 0.69488 0.0
H2503 H 0.56234 0.04529 0.728 0.0
H2504 H 0.56435 0.99249 0.73875 0.0
C2505 C 0.63106 0.02311 0.67952 0.0
C2506 C 0.64486 0.0404 0.66651 0.0
C2507 C 0.64029 0.05517 0.66206 0.0
C2508 C 0.62264 0.0531 0.6713 0.0
C2509 C 0.60951 0.03602 0.68452 0.0
C2510 C 0.61342 0.02117 0.68831 0.0
C2511 C 0.5976 0.0049 0.70481 0.0
C2512 C 0.58665 0.98613 0.68826 0.0
C2513 C 0.60606 1.00157 0.73059 0.0
C2514 C 0.58471 0.01333 0.71081 0.0
C2515 C 0.59164 0.03119 0.69873 0.0
C2516 C 0.58332 0.04263 0.70391 0.0
C2517 C 0.56798 0.03593 0.72264 0.0
C2518 C 0.56123 0.018 0.73595 0.0
C2519 C 0.56919 0.00627 0.72891 0.0
loop_
_geom_bond_atom_site_label_1
_geom_bond_atom_site_label_2
_geom_bond_distance
_geom_bond_site_symmetry_2
_ccdc_geom_bond_type
C0 O1 1.306 1_556 S
C0 O3 1.160 . S
O1 C0 1.306 1_554 S
O1 Cd2 2.228 . S
Cd2 O1 2.228 . S
Cd2 O6 2.273 . S
Cd2 O10 2.277 1_554 S
O3 C0 1.160 . S
O3 Cd4 2.203 1_656 S
Cd4 O3 2.203 1_454 S
Cd4 O6 2.411 1_455 S
Cd4 O7 2.333 . S
Cd4 O8 2.352 . S
Cd4 O12 2.277 1_554 S
Cd4 O13 2.356 . S
C5 O10 1.209 1_455 S
C5 O12 1.226 . S
O6 Cd2 2.273 . S
O6 Cd4 2.411 1_655 S
O6 C9 1.295 1_655 S
O7 Cd4 2.333 . S
O7 C9 1.274 . S
O8 Cd4 2.352 . S
O8 C11 1.258 . S
C9 O6 1.295 1_455 S
C9 O7 1.274 . S
O10 Cd2 2.277 1_556 S
O10 C5 1.209 1_655 S
C11 O8 1.258 . S
C11 O13 1.282 . S
O12 Cd4 2.277 1_556 S
O12 C5 1.226 . S
O13 Cd4 2.356 . S
O13 C11 1.282 . S
C14 O15 1.306 . S
C14 O17 1.160 . S
O15 C14 1.306 . S
O15 Cd16 2.228 . S
Cd16 O15 2.228 . S
Cd16 O20 2.273 1_554 S
Cd16 O24 2.277 . S
O17 C14 1.160 . S
O17 Cd18 2.203 . S
Cd18 O17 2.203 . S
Cd18 O20 2.411 1_554 S
Cd18 O21 2.333 1_554 S
Cd18 O22 2.352 1_554 S
Cd18 O26 2.277 . S
Cd18 O27 2.356 . S
C19 O24 1.209 . S
C19 O26 1.226 . S
O20 Cd16 2.273 1_556 S
O20 Cd18 2.411 1_556 S
O20 C23 1.320 . S
O21 Cd18 2.333 1_556 S
O21 C23 1.214 . S
O22 Cd18 2.352 1_556 S
O22 C25 1.258 . S
C23 O20 1.320 . S
C23 O21 1.214 . S
O24 Cd16 2.277 . S
O24 C19 1.209 . S
C25 O22 1.258 . S
C25 O27 1.282 1_556 S
O26 Cd18 2.277 . S
O26 C19 1.226 . S
O27 Cd18 2.356 . S
O27 C25 1.282 1_554 S
C28 O29 1.306 . S
C28 O31 1.160 . S
O29 C28 1.306 . S
O29 Cd30 2.228 . S
Cd30 O29 2.228 . S
Cd30 O34 2.273 1_554 S
Cd30 O38 2.277 . S
O31 C28 1.160 . S
O31 Cd32 2.203 1_565 S
Cd32 O31 2.203 1_545 S
Cd32 O34 2.411 1_544 S
Cd32 O35 2.333 1_554 S
Cd32 O36 2.352 1_554 S
Cd32 O40 2.277 . S
Cd32 O41 2.356 . S
C33 O38 1.209 1_545 S
C33 O40 1.226 . S
O34 Cd30 2.273 1_556 S
O34 Cd32 2.411 1_566 S
O34 C37 1.320 1_565 S
O35 Cd32 2.333 1_556 S
O35 C37 1.214 . S
O36 Cd32 2.352 1_556 S
O36 C39 1.258 . S
C37 O34 1.320 1_545 S
C37 O35 1.214 . S
O38 Cd30 2.277 . S
O38 C33 1.209 1_565 S
C39 O36 1.258 . S
C39 O41 1.282 1_556 S
O40 Cd32 2.277 . S
O40 C33 1.226 . S
O41 Cd32 2.356 . S
O41 C39 1.282 1_554 S
C42 O43 1.306 1_556 S
C42 O45 1.160 . S
O43 C42 1.306 1_554 S
O43 Cd44 2.228 . S
Cd44 O43 2.228 . S
Cd44 O48 2.273 . S
Cd44 O52 2.277 1_554 S
O45 C42 1.160 . S
O45 Cd46 2.203 1_656 S
Cd46 O45 2.203 1_454 S
Cd46 O48 2.411 1_455 S
Cd46 O49 2.333 . S
Cd46 O50 2.352 . S
Cd46 O54 2.277 1_554 S
Cd46 O55 2.356 . S
C47 O52 1.209 1_455 S
C47 O54 1.226 . S
O48 Cd44 2.273 . S
O48 Cd46 2.411 1_655 S
O48 C51 1.275 1_655 S
O49 Cd46 2.333 . S
O49 C51 1.250 . S
O50 Cd46 2.352 . S
O50 C53 1.258 . S
C51 O48 1.275 1_455 S
C51 O49 1.250 . S
O52 Cd44 2.277 1_556 S
O52 C47 1.209 1_655 S
C53 O50 1.258 . S
C53 O55 1.282 . S
O54 Cd46 2.277 1_556 S
O54 C47 1.226 . S
O55 Cd46 2.356 . S
O55 C53 1.282 . S
C56 O57 1.306 . S
C56 O59 1.160 . S
O57 C56 1.306 . S
O57 Cd58 2.228 . S
Cd58 O57 2.228 . S
Cd58 O62 2.273 1_554 S
Cd58 O66 2.277 . S
O59 C56 1.160 . S
O59 Cd60 2.203 . S
Cd60 O59 2.203 . S
Cd60 O62 2.411 1_554 S
Cd60 O63 2.333 1_554 S
Cd60 O64 2.352 1_554 S
Cd60 O68 2.277 . S
Cd60 O69 2.356 . S
C61 O66 1.209 . S
C61 O68 1.226 . S
O62 Cd58 2.273 1_556 S
O62 Cd60 2.411 1_556 S
O62 C65 1.320 . S
O63 Cd60 2.333 1_556 S
O63 C65 1.214 . S
O64 Cd60 2.352 1_556 S
O64 C67 1.258 . S
C65 O62 1.320 . S
C65 O63 1.214 . S
O66 Cd58 2.277 . S
O66 C61 1.209 . S
C67 O64 1.258 . S
C67 O69 1.282 1_556 S
O68 Cd60 2.277 . S
O68 C61 1.226 . S
O69 Cd60 2.356 . S
O69 C67 1.282 1_554 S
C70 O71 1.306 1_556 S
C70 O73 1.160 . S
O71 C70 1.306 1_554 S
O71 Cd72 2.228 . S
Cd72 O71 2.228 . S
Cd72 O76 2.273 . S
Cd72 O80 2.277 1_554 S
O73 C70 1.160 . S
O73 Cd74 2.203 1_546 S
Cd74 O73 2.203 1_564 S
Cd74 O76 2.411 1_565 S
Cd74 O77 2.333 . S
Cd74 O78 2.352 . S
Cd74 O82 2.277 1_554 S
Cd74 O83 2.356 . S
C75 O80 1.175 1_565 S
C75 O82 1.274 . S
O76 Cd72 2.273 . S
O76 Cd74 2.411 1_545 S
O76 C79 1.342 . S
O77 Cd74 2.333 . S
O77 C79 1.167 1_565 S
O78 Cd74 2.352 . S
O78 C81 1.258 . S
C79 O76 1.342 . S
C79 O77 1.167 1_545 S
O80 Cd72 2.277 1_556 S
O80 C75 1.175 1_545 S
C81 O78 1.258 . S
C81 O83 1.282 . S
O82 Cd74 2.277 1_556 S
O82 C75 1.274 . S
O83 Cd74 2.356 . S
O83 C81 1.282 . S
C84 O85 1.306 . S
C84 O87 1.160 . S
O85 C84 1.306 . S
O85 Cd86 2.228 . S
Cd86 O85 2.228 . S
Cd86 O90 2.273 . S
Cd86 O94 2.277 . S
O87 C84 1.160 . S
O87 Cd88 2.203 . S
Cd88 O87 2.203 . S
Cd88 O90 2.411 . S
Cd88 O91 2.333 . S
Cd88 O92 2.352 . S
Cd88 O96 2.277 . S
Cd88 O97 2.356 . S
C89 O94 1.209 . S
C89 O96 1.226 . S
O90 Cd86 2.273 . S
O90 Cd88 2.411 . S
O90 C93 1.320 . S
O91 Cd88 2.333 . S
O91 C93 1.214 . S
O92 Cd88 2.352 . S
O92 C95 1.258 . S
C93 O90 1.320 . S
C93 O91 1.214 . S
O94 Cd86 2.277 . S
O94 C89 1.209 . S
C95 O92 1.258 . S
C95 O97 1.282 . S
O96 Cd88 2.277 . S
O96 C89 1.226 . S
O97 Cd88 2.356 . S
O97 C95 1.282 . S
C98 O99 1.306 . S
C98 O101 1.160 . S
O99 C98 1.306 . S
O99 Cd100 2.228 1_545 S
Cd100 O99 2.228 1_565 S
Cd100 O104 2.273 . S
Cd100 O108 2.277 . S
O101 C98 1.160 . S
O101 Cd102 2.203 1_545 S
Cd102 O101 2.203 1_565 S
Cd102 O104 2.411 . S
Cd102 O105 2.333 . S
Cd102 O106 2.359 . S
Cd102 O110 2.277 . S
Cd102 O111 2.356 . S
C103 O108 1.209 . S
C103 O110 1.226 . S
O104 Cd100 2.273 . S
O104 Cd102 2.411 . S
O104 C107 1.320 . S
O105 Cd102 2.333 . S
O105 C107 1.214 . S
O106 Cd102 2.359 . S
O106 C109 1.292 . S
C107 O104 1.320 . S
C107 O105 1.214 . S
O108 Cd100 2.277 . S
O108 C103 1.209 . S
C109 O106 1.292 . S
C109 O111 1.282 . S
O110 Cd102 2.277 . S
O110 C103 1.226 . S
O111 Cd102 2.356 . S
O111 C109 1.282 . S
C112 O113 1.306 . S
C112 O115 1.160 . S
O113 C112 1.306 . S
O113 Cd114 2.228 1_655 S
Cd114 O113 2.228 1_455 S
Cd114 O118 2.273 . S
Cd114 O122 2.277 . S
O115 C112 1.160 . S
O115 Cd116 2.203 1_655 S
Cd116 O115 2.203 1_455 S
Cd116 O118 2.411 . S
Cd116 O119 2.333 . S
Cd116 O120 2.352 . S
Cd116 O124 2.277 . S
Cd116 O125 2.356 . S
C117 O122 1.209 . S
C117 O124 1.226 . S
O118 Cd114 2.273 . S
O118 Cd116 2.411 . S
O118 C121 1.320 . S
O119 Cd116 2.333 . S
O119 C121 1.214 . S
O120 Cd116 2.352 . S
O120 C123 1.258 . S
C121 O118 1.320 . S
C121 O119 1.214 . S
O122 Cd114 2.277 . S
O122 C117 1.209 . S
C123 O120 1.258 . S
C123 O125 1.282 . S
O124 Cd116 2.277 . S
O124 C117 1.226 . S
O125 Cd116 2.356 . S
O125 C123 1.282 . S
C126 O127 1.306 . S
C126 O129 1.160 . S
O127 C126 1.306 . S
O127 Cd128 2.228 . S
Cd128 O127 2.228 . S
Cd128 O132 2.273 . S
Cd128 O136 2.277 . S
O129 C126 1.160 . S
O129 Cd130 2.203 . S
Cd130 O129 2.203 . S
Cd130 O132 2.411 . S
Cd130 O133 2.333 . S
Cd130 O134 2.352 1_565 S
Cd130 O138 2.277 . S
Cd130 O139 2.356 1_565 S
C131 O136 1.209 . S
C131 O138 1.226 . S
O132 Cd128 2.273 . S
O132 Cd130 2.411 . S
O132 C135 1.320 . S
O133 Cd130 2.333 . S
O133 C135 1.214 . S
O134 Cd130 2.352 1_545 S
O134 C137 1.258 . S
C135 O132 1.320 . S
C135 O133 1.214 . S
O136 Cd128 2.277 . S
O136 C131 1.209 . S
C137 O134 1.258 . S
C137 O139 1.282 . S
O138 Cd130 2.277 . S
O138 C131 1.226 . S
O139 Cd130 2.356 1_545 S
O139 C137 1.282 . S
C140 O141 1.306 . S
C140 O143 1.160 . S
O141 C140 1.306 . S
O141 Cd142 2.228 1_655 S
Cd142 O141 2.228 1_455 S
Cd142 O146 2.273 . S
Cd142 O150 2.277 . S
O143 C140 1.160 . S
O143 Cd144 2.203 1_655 S
Cd144 O143 2.203 1_455 S
Cd144 O146 2.411 . S
Cd144 O147 2.333 . S
Cd144 O148 2.352 . S
Cd144 O152 2.277 . S
Cd144 O153 2.356 . S
C145 O150 1.209 . S
C145 O152 1.226 . S
O146 Cd142 2.273 . S
O146 Cd144 2.411 . S
O146 C149 1.320 . S
O147 Cd144 2.333 . S
O147 C149 1.214 . S
O148 Cd144 2.352 . S
O148 C151 1.258 . S
C149 O146 1.320 . S
C149 O147 1.214 . S
O150 Cd142 2.277 . S
O150 C145 1.209 . S
C151 O148 1.258 . S
C151 O153 1.282 . S
O152 Cd144 2.277 . S
O152 C145 1.226 . S
O153 Cd144 2.356 . S
O153 C151 1.282 . S
C154 O155 1.306 . S
C154 O157 1.160 . S
O155 C154 1.306 . S
O155 Cd156 2.228 . S
Cd156 O155 2.228 . S
Cd156 O160 2.273 . S
Cd156 O164 2.277 . S
O157 C154 1.160 . S
O157 Cd158 2.203 . S
Cd158 O157 2.203 . S
Cd158 O160 2.411 . S
Cd158 O161 2.333 . S
Cd158 O162 2.352 . S
Cd158 O166 2.277 . S
Cd158 O167 2.356 . S
C159 O164 1.209 . S
C159 O166 1.226 . S
O160 Cd156 2.273 . S
O160 Cd158 2.411 . S
O160 C163 1.320 . S
O161 Cd158 2.333 . S
O161 C163 1.214 . S
O162 Cd158 2.352 . S
O162 C165 1.258 . S
C163 O160 1.320 . S
C163 O161 1.214 . S
O164 Cd156 2.277 . S
O164 C159 1.209 . S
C165 O162 1.258 . S
C165 O167 1.282 . S
O166 Cd158 2.277 . S
O166 C159 1.226 . S
O167 Cd158 2.356 . S
O167 C165 1.282 . S
C168 O169 1.306 . S
C168 O171 1.160 . S
O169 C168 1.306 . S
O169 Cd170 2.228 1_565 S
Cd170 O169 2.228 1_545 S
Cd170 O174 2.273 . S
Cd170 O178 2.277 . S
O171 C168 1.160 . S
O171 Cd172 2.203 1_565 S
Cd172 O171 2.203 1_545 S
Cd172 O174 2.411 . S
Cd172 O175 2.333 . S
Cd172 O176 2.352 . S
Cd172 O180 2.277 . S
Cd172 O181 2.356 . S
C173 O178 1.209 . S
C173 O180 1.226 . S
O174 Cd170 2.273 . S
O174 Cd172 2.411 . S
O174 C177 1.320 . S
O175 Cd172 2.333 . S
O175 C177 1.214 . S
O176 Cd172 2.352 . S
O176 C179 1.258 . S
C177 O174 1.320 . S
C177 O175 1.214 . S
O178 Cd170 2.277 . S
O178 C173 1.209 . S
C179 O176 1.258 . S
C179 O181 1.282 . S
O180 Cd172 2.277 . S
O180 C173 1.226 . S
O181 Cd172 2.356 . S
O181 C179 1.282 . S
C182 O183 1.306 . S
C182 O185 1.160 . S
O183 C182 1.306 . S
O183 Cd184 2.228 . S
Cd184 O183 2.228 . S
Cd184 O188 2.273 . S
Cd184 O192 2.277 . S
O185 C182 1.160 . S
O185 Cd186 2.203 . S
Cd186 O185 2.203 . S
Cd186 O188 2.411 . S
Cd186 O189 2.333 . S
Cd186 O190 2.352 1_655 S
Cd186 O194 2.277 . S
Cd186 O195 2.356 1_655 S
C187 O192 1.209 . S
C187 O194 1.226 . S
O188 Cd184 2.273 . S
O188 Cd186 2.411 . S
O188 C191 1.320 . S
O189 Cd186 2.333 . S
O189 C191 1.214 . S
O190 Cd186 2.352 1_455 S
O190 C193 1.258 . S
C191 O188 1.320 . S
C191 O189 1.214 . S
O192 Cd184 2.277 . S
O192 C187 1.209 . S
C193 O190 1.258 . S
C193 O195 1.282 . S
O194 Cd186 2.277 . S
O194 C187 1.226 . S
O195 Cd186 2.356 1_455 S
O195 C193 1.282 . S
C196 O197 1.306 . S
C196 O199 1.160 . S
O197 C196 1.306 . S
O197 Cd198 2.228 . S
Cd198 O197 2.228 . S
Cd198 O202 2.273 . S
Cd198 O206 2.277 . S
O199 C196 1.160 . S
O199 Cd200 2.203 . S
Cd200 O199 2.203 . S
Cd200 O202 2.411 . S
Cd200 O203 2.333 . S
Cd200 O204 2.352 . S
Cd200 O208 2.277 . S
Cd200 O209 2.356 . S
C201 O206 1.209 . S
C201 O208 1.226 . S
O202 Cd198 2.273 . S
O202 Cd200 2.411 . S
O202 C205 1.320 . S
O203 Cd200 2.333 . S
O203 C205 1.214 . S
O204 Cd200 2.352 . S
O204 C207 1.258 . S
C205 O202 1.320 . S
C205 O203 1.214 . S
O206 Cd198 2.277 . S
O206 C201 1.209 . S
C207 O204 1.258 . S
C207 O209 1.282 . S
O208 Cd200 2.277 . S
O208 C201 1.226 . S
O209 Cd200 2.356 . S
O209 C207 1.282 . S
C210 O211 1.306 . S
C210 O213 1.160 . S
O211 C210 1.306 . S
O211 Cd212 2.228 . S
Cd212 O211 2.228 . S
Cd212 O216 2.273 . S
Cd212 O220 2.277 . S
O213 C210 1.160 . S
O213 Cd214 2.203 . S
Cd214 O213 2.203 . S
Cd214 O216 2.411 . S
Cd214 O217 2.333 . S
Cd214 O218 2.352 . S
Cd214 O222 2.277 . S
Cd214 O223 2.356 . S
C215 O220 1.209 . S
C215 O222 1.226 . S
O216 Cd212 2.273 . S
O216 Cd214 2.411 . S
O216 C219 1.320 . S
O217 Cd214 2.333 . S
O217 C219 1.214 . S
O218 Cd214 2.352 . S
O218 C221 1.258 . S
C219 O216 1.320 . S
C219 O217 1.214 . S
O220 Cd212 2.277 . S
O220 C215 1.209 . S
C221 O218 1.258 . S
C221 O223 1.282 . S
O222 Cd214 2.277 . S
O222 C215 1.226 . S
O223 Cd214 2.356 . S
O223 C221 1.282 . S
C224 O225 1.306 . S
C224 O227 1.160 . S
O225 C224 1.306 . S
O225 Cd226 2.228 . S
Cd226 O225 2.228 . S
Cd226 O230 2.273 . S
Cd226 O234 2.277 . S
O227 C224 1.160 . S
O227 Cd228 2.203 . S
Cd228 O227 2.203 . S
Cd228 O230 2.411 . S
Cd228 O231 2.333 . S
Cd228 O232 2.352 1_545 S
Cd228 O236 2.277 . S
Cd228 O237 2.356 1_545 S
C229 O234 1.209 . S
C229 O236 1.226 . S
O230 Cd226 2.273 . S
O230 Cd228 2.411 . S
O230 C233 1.320 . S
O231 Cd228 2.333 . S
O231 C233 1.214 . S
O232 Cd228 2.352 1_565 S
O232 C235 1.258 . S
C233 O230 1.320 . S
C233 O231 1.214 . S
O234 Cd226 2.277 . S
O234 C229 1.209 . S
C235 O232 1.258 . S
C235 O237 1.282 . S
O236 Cd228 2.277 . S
O236 C229 1.226 . S
O237 Cd228 2.356 1_565 S
O237 C235 1.282 . S
C238 O239 1.306 . S
C238 O241 1.160 . S
O239 C238 1.306 . S
O239 Cd240 2.228 1_455 S
Cd240 O239 2.228 1_655 S
Cd240 O244 2.273 . S
Cd240 O248 2.277 . S
O241 C238 1.160 . S
O241 Cd242 2.203 1_455 S
Cd242 O241 2.203 1_655 S
Cd242 O244 2.411 . S
Cd242 O245 2.333 . S
Cd242 O246 2.380 . S
Cd242 O250 2.277 . S
Cd242 O251 2.356 . S
C243 O248 1.209 . S
C243 O250 1.226 . S
O244 Cd240 2.273 . S
O244 Cd242 2.411 . S
O244 C247 1.320 . S
O245 Cd242 2.333 . S
O245 C247 1.214 . S
O246 Cd242 2.380 . S
O246 C249 1.259 . S
C247 O244 1.320 . S
C247 O245 1.214 . S
O248 Cd240 2.277 . S
O248 C243 1.209 . S
C249 O246 1.259 . S
C249 O251 1.282 . S
O250 Cd242 2.277 . S
O250 C243 1.226 . S
O251 Cd242 2.356 . S
O251 C249 1.282 . S
H252 C258 0.930 . S
H253 C261 0.931 . S
H254 C263 0.931 . S
H255 C265 0.930 . S
H256 C267 0.930 . S
H257 C269 0.931 . S
C258 H252 0.930 . S
C258 C259 1.380 . S
C258 C260 1.394 . S
C259 C258 1.380 . S
C259 C263 1.382 . S
C260 C258 1.394 . S
C260 C261 1.400 . S
C261 H253 0.931 . S
C261 C260 1.400 . S
C261 C262 1.375 . S
C262 C261 1.375 . S
C262 C263 1.415 . S
C262 C264 1.501 . S
C263 H254 0.931 . S
C263 C259 1.382 . S
C263 C262 1.415 . S
C264 C262 1.501 . S
C264 C265 1.384 . S
C264 C269 1.408 . S
C265 H255 0.930 . S
C265 C264 1.384 . S
C265 C266 1.389 . S
C266 C265 1.389 . S
C266 C267 1.405 . S
C267 H256 0.930 . S
C267 C266 1.405 . S
C267 C268 1.364 . S
C268 C267 1.364 . S
C268 C269 1.400 . S
C269 H257 0.931 . S
C269 C264 1.408 . S
C269 C268 1.400 . S
H270 C276 0.930 . S
H271 C279 0.931 . S
H272 C281 0.931 . S
H273 C283 0.930 . S
H274 C285 0.930 . S
H275 C287 0.931 . S
C276 H270 0.930 . S
C276 C277 1.380 . S
C276 C278 1.394 . S
C277 C276 1.380 . S
C277 C281 1.382 . S
C278 C276 1.394 . S
C278 C279 1.400 . S
C279 H271 0.931 . S
C279 C278 1.400 . S
C279 C280 1.375 . S
C280 C279 1.375 . S
C280 C281 1.415 . S
C280 C282 1.501 . S
C281 H272 0.931 . S
C281 C277 1.382 . S
C281 C280 1.415 . S
C282 C280 1.501 . S
C282 C283 1.384 . S
C282 C287 1.408 . S
C283 H273 0.930 . S
C283 C282 1.384 . S
C283 C284 1.389 . S
C284 C283 1.389 . S
C284 C285 1.405 . S
C285 H274 0.930 . S
C285 C284 1.405 . S
C285 C286 1.364 . S
C286 C285 1.364 . S
C286 C287 1.400 . S
C287 H275 0.931 . S
C287 C282 1.408 . S
C287 C286 1.400 . S
H288 C294 0.930 . S
H289 C297 0.931 . S
H290 C299 0.931 . S
H291 C301 0.930 . S
H292 C303 0.930 . S
H293 C305 0.931 . S
C294 H288 0.930 . S
C294 C295 1.380 . S
C294 C296 1.394 . S
C295 C294 1.380 . S
C295 C299 1.382 . S
C296 C294 1.394 . S
C296 C297 1.400 . S
C297 H289 0.931 . S
C297 C296 1.400 . S
C297 C298 1.375 . S
C298 C297 1.375 . S
C298 C299 1.415 . S
C298 C300 1.501 . S
C299 H290 0.931 . S
C299 C295 1.382 . S
C299 C298 1.415 . S
C300 C298 1.501 . S
C300 C301 1.384 . S
C300 C305 1.408 . S
C301 H291 0.930 . S
C301 C300 1.384 . S
C301 C302 1.389 . S
C302 C301 1.389 . S
C302 C303 1.405 . S
C303 H292 0.930 . S
C303 C302 1.405 . S
C303 C304 1.364 . S
C304 C303 1.364 . S
C304 C305 1.400 . S
C305 H293 0.931 . S
C305 C300 1.408 . S
C305 C304 1.400 . S
H306 C312 0.930 . S
H307 C315 0.931 . S
H308 C317 0.931 . S
H309 C319 0.930 . S
H310 C321 0.930 . S
H311 C323 0.931 . S
C312 H306 0.930 . S
C312 C313 1.380 . S
C312 C314 1.394 . S
C313 C312 1.380 . S
C313 C317 1.382 . S
C314 C312 1.394 . S
C314 C315 1.400 . S
C315 H307 0.931 . S
C315 C314 1.400 . S
C315 C316 1.375 . S
C316 C315 1.375 . S
C316 C317 1.415 . S
C316 C318 1.501 . S
C317 H308 0.931 . S
C317 C313 1.382 . S
C317 C316 1.415 . S
C318 C316 1.501 . S
C318 C319 1.384 . S
C318 C323 1.408 . S
C319 H309 0.930 . S
C319 C318 1.384 . S
C319 C320 1.389 . S
C320 C319 1.389 . S
C320 C321 1.405 . S
C321 H310 0.930 . S
C321 C320 1.405 . S
C321 C322 1.364 . S
C322 C321 1.364 . S
C322 C323 1.400 . S
C323 H311 0.931 . S
C323 C318 1.408 . S
C323 C322 1.400 . S
H324 C330 0.930 . S
H325 C333 0.931 . S
H326 C335 0.931 . S
H327 C337 0.930 . S
H328 C339 0.930 . S
H329 C341 0.931 . S
C330 H324 0.930 . S
C330 C331 1.380 . S
C330 C332 1.394 . S
C331 C330 1.380 . S
C331 C335 1.382 . S
C332 C330 1.394 . S
C332 C333 1.400 . S
C333 H325 0.931 . S
C333 C332 1.400 . S
C333 C334 1.375 . S
C334 C333 1.375 . S
C334 C335 1.415 . S
C334 C336 1.501 . S
C335 H326 0.931 . S
C335 C331 1.382 . S
C335 C334 1.415 . S
C336 C334 1.501 . S
C336 C337 1.384 . S
C336 C341 1.408 . S
C337 H327 0.930 . S
C337 C336 1.384 . S
C337 C338 1.389 . S
C338 C337 1.389 . S
C338 C339 1.405 . S
C339 H328 0.930 . S
C339 C338 1.405 . S
C339 C340 1.364 . S
C340 C339 1.364 . S
C340 C341 1.400 . S
C341 H329 0.931 . S
C341 C336 1.408 . S
C341 C340 1.400 . S
H342 C348 0.930 . S
H343 C351 0.931 . S
H344 C353 0.931 . S
H345 C355 0.930 . S
H346 C357 0.930 . S
H347 C359 0.931 . S
C348 H342 0.930 . S
C348 C349 1.380 . S
C348 C350 1.394 . S
C349 C348 1.380 . S
C349 C353 1.382 . S
C350 C348 1.394 . S
C350 C351 1.400 . S
C351 H343 0.931 . S
C351 C350 1.400 . S
C351 C352 1.375 . S
C352 C351 1.375 . S
C352 C353 1.415 . S
C352 C354 1.501 . S
C353 H344 0.931 . S
C353 C349 1.382 . S
C353 C352 1.415 . S
C354 C352 1.501 . S
C354 C355 1.384 . S
C354 C359 1.408 . S
C355 H345 0.930 . S
C355 C354 1.384 . S
C355 C356 1.389 . S
C356 C355 1.389 . S
C356 C357 1.405 . S
C357 H346 0.930 . S
C357 C356 1.405 . S
C357 C358 1.364 . S
C358 C357 1.364 . S
C358 C359 1.400 . S
C359 H347 0.931 . S
C359 C354 1.408 . S
C359 C358 1.400 . S
H360 C366 0.930 . S
H361 C369 0.931 . S
H362 C371 0.931 . S
H363 C373 0.930 . S
H364 C375 0.930 . S
H365 C377 0.931 . S
C366 H360 0.930 . S
C366 C367 1.380 . S
C366 C368 1.394 . S
C367 C366 1.380 . S
C367 C371 1.382 . S
C368 C366 1.394 . S
C368 C369 1.400 . S
C369 H361 0.931 . S
C369 C368 1.400 . S
C369 C370 1.375 . S
C370 C369 1.375 . S
C370 C371 1.415 . S
C370 C372 1.501 . S
C371 H362 0.931 . S
C371 C367 1.382 . S
C371 C370 1.415 . S
C372 C370 1.501 . S
C372 C373 1.384 . S
C372 C377 1.408 . S
C373 H363 0.930 . S
C373 C372 1.384 . S
C373 C374 1.389 . S
C374 C373 1.389 . S
C374 C375 1.405 . S
C375 H364 0.930 . S
C375 C374 1.405 . S
C375 C376 1.364 . S
C376 C375 1.364 . S
C376 C377 1.400 . S
C377 H365 0.931 . S
C377 C372 1.408 . S
C377 C376 1.400 . S
H378 C384 0.930 . S
H379 C387 0.931 . S
H380 C389 0.931 . S
H381 C391 0.930 . S
H382 C393 0.930 . S
H383 C395 0.931 . S
C384 H378 0.930 . S
C384 C385 1.380 . S
C384 C386 1.394 . S
C385 C384 1.380 . S
C385 C389 1.382 . S
C386 C384 1.394 . S
C386 C387 1.400 . S
C387 H379 0.931 . S
C387 C386 1.400 . S
C387 C388 1.375 . S
C388 C387 1.375 . S
C388 C389 1.415 . S
C388 C390 1.501 . S
C389 H380 0.931 . S
C389 C385 1.382 . S
C389 C388 1.415 . S
C390 C388 1.501 . S
C390 C391 1.384 . S
C390 C395 1.408 . S
C391 H381 0.930 . S
C391 C390 1.384 . S
C391 C392 1.389 . S
C392 C391 1.389 . S
C392 C393 1.405 . S
C393 H382 0.930 . S
C393 C392 1.405 . S
C393 C394 1.364 . S
C394 C393 1.364 . S
C394 C395 1.400 . S
C395 H383 0.931 . S
C395 C390 1.408 . S
C395 C394 1.400 . S
H396 C402 0.930 . S
H397 C405 0.931 . S
H398 C407 0.931 . S
H399 C409 0.930 . S
H400 C411 0.930 . S
H401 C413 0.931 . S
C402 H396 0.930 . S
C402 C403 1.380 . S
C402 C404 1.394 . S
C403 C402 1.380 . S
C403 C407 1.382 . S
C404 C402 1.394 . S
C404 C405 1.400 . S
C405 H397 0.931 . S
C405 C404 1.400 . S
C405 C406 1.375 . S
C406 C405 1.375 . S
C406 C407 1.415 . S
C406 C408 1.501 . S
C407 H398 0.931 . S
C407 C403 1.382 . S
C407 C406 1.415 . S
C408 C406 1.501 . S
C408 C409 1.384 . S
C408 C413 1.408 . S
C409 H399 0.930 . S
C409 C408 1.384 . S
C409 C410 1.389 . S
C410 C409 1.389 . S
C410 C411 1.405 . S
C411 H400 0.930 . S
C411 C410 1.405 . S
C411 C412 1.364 . S
C412 C411 1.364 . S
C412 C413 1.400 . S
C413 H401 0.931 . S
C413 C408 1.408 . S
C413 C412 1.400 . S
H414 C420 0.925 . S
H415 C423 0.931 . S
H416 C425 0.931 . S
H417 C427 0.930 . S
H418 C429 0.930 . S
H419 C431 0.939 1_655 S
C420 H414 0.925 . S
C420 C421 1.384 . S
C420 C422 1.395 1_655 S
C421 C420 1.384 . S
C421 C425 1.382 . S
C422 C420 1.395 1_455 S
C422 C423 1.400 . S
C423 H415 0.931 . S
C423 C422 1.400 . S
C423 C424 1.375 . S
C424 C423 1.375 . S
C424 C425 1.415 1_455 S
C424 C426 1.501 . S
C425 H416 0.931 . S
C425 C421 1.382 . S
C425 C424 1.415 1_655 S
C426 C424 1.501 . S
C426 C427 1.384 . S
C426 C431 1.420 . S
C427 H417 0.930 . S
C427 C426 1.384 . S
C427 C428 1.389 . S
C428 C427 1.389 . S
C428 C429 1.405 . S
C429 H418 0.930 . S
C429 C428 1.405 . S
C429 C430 1.360 . S
C430 C429 1.360 . S
C430 C431 1.391 . S
C431 H419 0.939 1_455 S
C431 C426 1.420 . S
C431 C430 1.391 . S
H432 C438 0.930 . S
H433 C441 0.931 . S
H434 C443 0.931 . S
H435 C445 0.930 . S
H436 C447 0.930 . S
H437 C449 0.931 . S
C438 H432 0.930 . S
C438 C439 1.380 . S
C438 C440 1.394 . S
C439 C438 1.380 . S
C439 C443 1.382 . S
C440 C438 1.394 . S
C440 C441 1.400 . S
C441 H433 0.931 . S
C441 C440 1.400 . S
C441 C442 1.375 . S
C442 C441 1.375 . S
C442 C443 1.415 . S
C442 C444 1.501 . S
C443 H434 0.931 . S
C443 C439 1.382 . S
C443 C442 1.415 . S
C444 C442 1.501 . S
C444 C445 1.384 . S
C444 C449 1.408 . S
C445 H435 0.930 . S
C445 C444 1.384 . S
C445 C446 1.389 . S
C446 C445 1.389 . S
C446 C447 1.405 . S
C447 H436 0.930 . S
C447 C446 1.405 . S
C447 C448 1.364 . S
C448 C447 1.364 . S
C448 C449 1.400 . S
C449 H437 0.931 . S
C449 C444 1.408 . S
C449 C448 1.400 . S
H450 C456 0.959 . S
H451 C459 0.931 . S
H452 C461 0.931 . S
H453 C463 0.930 . S
H454 C465 0.930 . S
H455 C467 0.916 . S
C456 H450 0.959 . S
C456 C457 1.374 . S
C456 C458 1.373 1_545 S
C457 C456 1.374 . S
C457 C461 1.382 . S
C458 C456 1.373 1_565 S
C458 C459 1.400 . S
C459 H451 0.931 . S
C459 C458 1.400 . S
C459 C460 1.375 . S
C460 C459 1.375 . S
C460 C461 1.415 1_565 S
C460 C462 1.501 . S
C461 H452 0.931 . S
C461 C457 1.382 . S
C461 C460 1.415 1_545 S
C462 C460 1.501 . S
C462 C463 1.384 . S
C462 C467 1.397 . S
C463 H453 0.930 . S
C463 C462 1.384 . S
C463 C464 1.389 . S
C464 C463 1.389 . S
C464 C465 1.405 . S
C465 H454 0.930 . S
C465 C464 1.405 . S
C465 C466 1.380 . S
C466 C465 1.380 . S
C466 C467 1.402 . S
C467 H455 0.916 . S
C467 C462 1.397 . S
C467 C466 1.402 . S
H468 C474 0.918 . S
H469 C477 0.931 . S
H470 C479 0.927 1_545 S
H471 C481 0.930 . S
H472 C483 0.900 . S
H473 C485 0.931 . S
C474 H468 0.918 . S
C474 C475 1.381 . S
C474 C476 1.416 1_545 S
C475 C474 1.381 . S
C475 C479 1.399 1_545 S
C476 C474 1.416 1_565 S
C476 C477 1.371 . S
C477 H469 0.931 . S
C477 C476 1.371 . S
C477 C478 1.375 . S
C478 C477 1.375 . S
C478 C479 1.412 . S
C478 C480 1.501 . S
C479 H470 0.927 1_565 S
C479 C475 1.399 1_565 S
C479 C478 1.412 . S
C480 C478 1.501 . S
C480 C481 1.384 . S
C480 C485 1.408 1_565 S
C481 H471 0.930 . S
C481 C480 1.384 . S
C481 C482 1.389 . S
C482 C481 1.389 . S
C482 C483 1.431 . S
C483 H472 0.900 . S
C483 C482 1.431 . S
C483 C484 1.373 1_565 S
C484 C483 1.373 1_545 S
C484 C485 1.400 . S
C485 H473 0.931 . S
C485 C480 1.408 1_545 S
C485 C484 1.400 . S
H486 C492 0.958 . S
H487 C495 0.931 . S
H488 C497 0.934 1_655 S
H489 C499 0.930 . S
H490 C501 0.930 . S
H491 C503 0.931 . S
C492 H486 0.958 . S
C492 C493 1.378 . S
C492 C494 1.366 1_655 S
C493 C492 1.378 . S
C493 C497 1.359 1_655 S
C494 C492 1.366 1_455 S
C494 C495 1.433 . S
C495 H487 0.931 . S
C495 C494 1.433 . S
C495 C496 1.375 . S
C496 C495 1.375 . S
C496 C497 1.416 . S
C496 C498 1.501 . S
C497 H488 0.934 1_455 S
C497 C493 1.359 1_455 S
C497 C496 1.416 . S
C498 C496 1.501 . S
C498 C499 1.384 . S
C498 C503 1.408 1_455 S
C499 H489 0.930 . S
C499 C498 1.384 . S
C499 C500 1.389 . S
C500 C499 1.389 . S
C500 C501 1.405 . S
C501 H490 0.930 . S
C501 C500 1.405 . S
C501 C502 1.364 1_455 S
C502 C501 1.364 1_655 S
C502 C503 1.400 . S
C503 H491 0.931 . S
C503 C498 1.408 1_655 S
C503 C502 1.400 . S
H504 C510 0.930 . S
H505 C513 0.931 . S
H506 C515 0.931 . S
H507 C517 0.930 . S
H508 C519 0.930 . S
H509 C521 0.931 . S
C510 H504 0.930 . S
C510 C511 1.380 . S
C510 C512 1.394 . S
C511 C510 1.380 . S
C511 C515 1.382 . S
C512 C510 1.394 . S
C512 C513 1.400 . S
C513 H505 0.931 . S
C513 C512 1.400 . S
C513 C514 1.375 . S
C514 C513 1.375 . S
C514 C515 1.415 . S
C514 C516 1.501 . S
C515 H506 0.931 . S
C515 C511 1.382 . S
C515 C514 1.415 . S
C516 C514 1.501 . S
C516 C517 1.384 . S
C516 C521 1.408 . S
C517 H507 0.930 . S
C517 C516 1.384 . S
C517 C518 1.389 . S
C518 C517 1.389 . S
C518 C519 1.405 . S
C519 H508 0.930 . S
C519 C518 1.405 . S
C519 C520 1.364 . S
C520 C519 1.364 . S
C520 C521 1.400 . S
C521 H509 0.931 . S
C521 C516 1.408 . S
C521 C520 1.400 . S
H522 C528 0.930 . S
H523 C531 0.931 . S
H524 C533 0.931 . S
H525 C535 0.930 . S
H526 C537 0.930 . S
H527 C539 0.931 . S
C528 H522 0.930 . S
C528 C529 1.380 . S
C528 C530 1.394 . S
C529 C528 1.380 . S
C529 C533 1.382 . S
C530 C528 1.394 . S
C530 C531 1.400 . S
C531 H523 0.931 . S
C531 C530 1.400 . S
C531 C532 1.375 . S
C532 C531 1.375 . S
C532 C533 1.415 . S
C532 C534 1.501 . S
C533 H524 0.931 . S
C533 C529 1.382 . S
C533 C532 1.415 . S
C534 C532 1.501 . S
C534 C535 1.384 . S
C534 C539 1.408 . S
C535 H525 0.930 . S
C535 C534 1.384 . S
C535 C536 1.389 . S
C536 C535 1.389 . S
C536 C537 1.405 . S
C537 H526 0.930 . S
C537 C536 1.405 . S
C537 C538 1.364 . S
C538 C537 1.364 . S
C538 C539 1.400 . S
C539 H527 0.931 . S
C539 C534 1.408 . S
C539 C538 1.400 . S
H540 C546 0.930 . S
H541 C549 0.931 . S
H542 C551 0.931 . S
H543 C553 0.930 . S
H544 C555 0.930 . S
H545 C557 0.931 . S
C546 H540 0.930 . S
C546 C547 1.380 . S
C546 C548 1.394 . S
C547 C546 1.380 . S
C547 C551 1.382 . S
C548 C546 1.394 . S
C548 C549 1.400 . S
C549 H541 0.931 . S
C549 C548 1.400 . S
C549 C550 1.375 . S
C550 C549 1.375 . S
C550 C551 1.415 . S
C550 C552 1.501 . S
C551 H542 0.931 . S
C551 C547 1.382 . S
C551 C550 1.415 . S
C552 C550 1.501 . S
C552 C553 1.384 . S
C552 C557 1.408 . S
C553 H543 0.930 . S
C553 C552 1.384 . S
C553 C554 1.389 . S
C554 C553 1.389 . S
C554 C555 1.405 . S
C555 H544 0.930 . S
C555 C554 1.405 . S
C555 C556 1.364 . S
C556 C555 1.364 . S
C556 C557 1.400 . S
C557 H545 0.931 . S
C557 C552 1.408 . S
C557 C556 1.400 . S
H558 C564 0.930 . S
H559 C567 0.931 . S
H560 C569 0.931 . S
H561 C571 0.930 . S
H562 C573 0.930 . S
H563 C575 0.931 . S
C564 H558 0.930 . S
C564 C565 1.380 . S
C564 C566 1.394 . S
C565 C564 1.380 . S
C565 C569 1.382 . S
C566 C564 1.394 . S
C566 C567 1.400 . S
C567 H559 0.931 . S
C567 C566 1.400 . S
C567 C568 1.375 . S
C568 C567 1.375 . S
C568 C569 1.415 . S
C568 C570 1.501 . S
C569 H560 0.931 . S
C569 C565 1.382 . S
C569 C568 1.415 . S
C570 C568 1.501 . S
C570 C571 1.384 . S
C570 C575 1.408 . S
C571 H561 0.930 . S
C571 C570 1.384 . S
C571 C572 1.389 . S
C572 C571 1.389 . S
C572 C573 1.405 . S
C573 H562 0.930 . S
C573 C572 1.405 . S
C573 C574 1.364 . S
C574 C573 1.364 . S
C574 C575 1.400 . S
C575 H563 0.931 . S
C575 C570 1.408 . S
C575 C574 1.400 . S
H576 C588 0.930 . S
H577 C590 0.930 . S
H578 C591 0.930 . S
H579 C595 0.959 . S
H580 C595 0.959 . S
H581 C595 0.961 . S
H582 C596 0.960 . S
H583 C596 0.961 . S
H584 C596 0.959 . S
H585 C599 0.929 . S
H586 C600 0.931 . S
H587 C602 0.930 . S
C588 H576 0.930 . S
C588 C589 1.399 . S
C588 C593 1.399 . S
C589 C588 1.399 . S
C589 C590 1.376 1_655 S
C590 H577 0.930 . S
C590 C589 1.376 1_455 S
C590 C591 1.388 . S
C591 H578 0.930 . S
C591 C590 1.388 . S
C591 C592 1.390 . S
C592 C591 1.390 . S
C592 C593 1.394 1_455 S
C592 C598 1.465 . S
C593 C588 1.399 . S
C593 C592 1.394 1_655 S
C593 C594 1.516 . S
C594 C593 1.516 . S
C594 C595 1.502 . S
C594 C596 1.561 . S
C594 C597 1.526 . S
C595 H579 0.959 . S
C595 H580 0.959 . S
C595 H581 0.961 . S
C595 C594 1.502 . S
C596 H582 0.960 . S
C596 H583 0.961 . S
C596 H584 0.959 . S
C596 C594 1.561 . S
C597 C594 1.526 . S
C597 C598 1.396 1_655 S
C597 C602 1.390 . S
C598 C592 1.465 . S
C598 C597 1.396 1_455 S
C598 C599 1.399 . S
C599 H585 0.929 . S
C599 C598 1.399 . S
C599 C600 1.385 . S
C600 H586 0.931 . S
C600 C599 1.385 . S
C600 C601 1.389 1_455 S
C601 C600 1.389 1_655 S
C601 C602 1.387 . S
C602 H587 0.930 . S
C602 C597 1.390 . S
C602 C601 1.387 . S
H603 C615 0.930 . S
H604 C617 0.930 . S
H605 C618 0.930 . S
H606 C622 0.959 . S
H607 C622 0.959 . S
H608 C622 0.961 . S
H609 C623 0.960 . S
H610 C623 0.961 . S
H611 C623 0.959 . S
H612 C626 0.929 . S
H613 C627 0.931 . S
H614 C629 0.930 . S
C615 H603 0.930 . S
C615 C616 1.399 . S
C615 C620 1.399 . S
C616 C615 1.399 . S
C616 C617 1.376 . S
C617 H604 0.930 . S
C617 C616 1.376 . S
C617 C618 1.388 . S
C618 H605 0.930 . S
C618 C617 1.388 . S
C618 C619 1.390 . S
C619 C618 1.390 . S
C619 C620 1.394 . S
C619 C625 1.465 . S
C620 C615 1.399 . S
C620 C619 1.394 . S
C620 C621 1.516 . S
C621 C620 1.516 . S
C621 C622 1.502 . S
C621 C623 1.561 . S
C621 C624 1.526 . S
C622 H606 0.959 . S
C622 H607 0.959 . S
C622 H608 0.961 . S
C622 C621 1.502 . S
C623 H609 0.960 . S
C623 H610 0.961 . S
C623 H611 0.959 . S
C623 C621 1.561 . S
C624 C621 1.526 . S
C624 C625 1.396 . S
C624 C629 1.390 . S
C625 C619 1.465 . S
C625 C624 1.396 . S
C625 C626 1.399 . S
C626 H612 0.929 . S
C626 C625 1.399 . S
C626 C627 1.385 . S
C627 H613 0.931 . S
C627 C626 1.385 . S
C627 C628 1.389 . S
C628 C627 1.389 . S
C628 C629 1.387 . S
C629 H614 0.930 . S
C629 C624 1.390 . S
C629 C628 1.387 . S
H630 C642 0.930 . S
H631 C644 0.914 . S
H632 C645 0.931 1_565 S
H633 C649 0.909 1_565 S
H634 C649 0.942 . S
H635 C649 0.983 . S
H636 C650 0.960 . S
H637 C650 0.961 . S
H638 C650 0.959 . S
H639 C653 0.929 1_565 S
H640 C654 0.931 1_565 S
H641 C656 0.930 . S
C642 H630 0.930 . S
C642 C643 1.399 . S
C642 C647 1.399 . S
C643 C642 1.399 . S
C643 C644 1.376 . S
C644 H631 0.914 . S
C644 C643 1.376 . S
C644 C645 1.388 . S
C645 H632 0.931 1_545 S
C645 C644 1.388 . S
C645 C646 1.390 . S
C646 C645 1.390 . S
C646 C647 1.394 . S
C646 C652 1.465 . S
C647 C642 1.399 . S
C647 C646 1.394 . S
C647 C648 1.516 . S
C648 C647 1.516 . S
C648 C649 1.552 . S
C648 C650 1.561 . S
C648 C651 1.526 . S
C649 H633 0.909 1_545 S
C649 H634 0.942 . S
C649 H635 0.983 . S
C649 C648 1.552 . S
C650 H636 0.960 . S
C650 H637 0.961 . S
C650 H638 0.959 . S
C650 C648 1.561 . S
C651 C648 1.526 . S
C651 C652 1.396 . S
C651 C656 1.390 . S
C652 C646 1.465 . S
C652 C651 1.396 . S
C652 C653 1.399 . S
C653 H639 0.929 1_545 S
C653 C652 1.399 . S
C653 C654 1.385 . S
C654 H640 0.931 1_545 S
C654 C653 1.385 . S
C654 C655 1.389 . S
C655 C654 1.389 . S
C655 C656 1.387 . S
C656 H641 0.930 . S
C656 C651 1.390 . S
C656 C655 1.387 . S
H657 C669 0.930 . S
H658 C671 0.930 . S
H659 C672 0.930 . S
H660 C676 0.959 . S
H661 C676 0.959 . S
H662 C676 0.961 . S
H663 C677 0.960 . S
H664 C677 0.961 . S
H665 C677 0.959 . S
H666 C680 0.929 . S
H667 C681 0.931 . S
H668 C683 0.930 . S
C669 H657 0.930 . S
C669 C670 1.399 1_545 S
C669 C674 1.399 . S
C670 C669 1.399 1_565 S
C670 C671 1.376 . S
C671 H658 0.930 . S
C671 C670 1.376 . S
C671 C672 1.388 . S
C672 H659 0.930 . S
C672 C671 1.388 . S
C672 C673 1.390 . S
C673 C672 1.390 . S
C673 C674 1.394 1_565 S
C673 C679 1.465 . S
C674 C669 1.399 . S
C674 C673 1.394 1_545 S
C674 C675 1.516 . S
C675 C674 1.516 . S
C675 C676 1.502 . S
C675 C677 1.561 . S
C675 C678 1.526 . S
C676 H660 0.959 . S
C676 H661 0.959 . S
C676 H662 0.961 . S
C676 C675 1.502 . S
C677 H663 0.960 . S
C677 H664 0.961 . S
C677 H665 0.959 . S
C677 C675 1.561 . S
C678 C675 1.526 . S
C678 C679 1.396 1_545 S
C678 C683 1.390 . S
C679 C673 1.465 . S
C679 C678 1.396 1_565 S
C679 C680 1.399 . S
C680 H666 0.929 . S
C680 C679 1.399 . S
C680 C681 1.385 . S
C681 H667 0.931 . S
C681 C680 1.385 . S
C681 C682 1.389 . S
C682 C681 1.389 . S
C682 C683 1.387 1_565 S
C683 H668 0.930 . S
C683 C678 1.390 . S
C683 C682 1.387 1_545 S
H684 C696 0.930 . S
H685 C698 0.930 . S
H686 C699 0.930 . S
H687 C703 0.959 . S
H688 C703 0.959 . S
H689 C703 0.961 . S
H690 C704 0.960 . S
H691 C704 0.961 . S
H692 C704 0.959 . S
H693 C707 0.929 . S
H694 C708 0.931 . S
H695 C710 0.930 . S
C696 H684 0.930 . S
C696 C697 1.399 1_655 S
C696 C701 1.399 . S
C697 C696 1.399 1_455 S
C697 C698 1.376 . S
C698 H685 0.930 . S
C698 C697 1.376 . S
C698 C699 1.388 . S
C699 H686 0.930 . S
C699 C698 1.388 . S
C699 C700 1.390 . S
C700 C699 1.390 . S
C700 C701 1.394 1_455 S
C700 C706 1.465 . S
C701 C696 1.399 . S
C701 C700 1.394 1_655 S
C701 C702 1.516 . S
C702 C701 1.516 . S
C702 C703 1.502 . S
C702 C704 1.561 . S
C702 C705 1.526 . S
C703 H687 0.959 . S
C703 H688 0.959 . S
C703 H689 0.961 . S
C703 C702 1.502 . S
C704 H690 0.960 . S
C704 H691 0.961 . S
C704 H692 0.959 . S
C704 C702 1.561 . S
C705 C702 1.526 . S
C705 C706 1.396 1_655 S
C705 C710 1.390 . S
C706 C700 1.465 . S
C706 C705 1.396 1_455 S
C706 C707 1.399 . S
C707 H693 0.929 . S
C707 C706 1.399 . S
C707 C708 1.385 . S
C708 H694 0.931 . S
C708 C707 1.385 . S
C708 C709 1.389 . S
C709 C708 1.389 . S
C709 C710 1.387 1_455 S
C710 H695 0.930 . S
C710 C705 1.390 . S
C710 C709 1.387 1_655 S
H711 C723 0.930 . S
H712 C725 0.930 . S
H713 C726 0.930 . S
H714 C730 0.959 . S
H715 C730 0.959 . S
H716 C730 0.961 . S
H717 C731 0.960 . S
H718 C731 0.961 . S
H719 C731 0.959 . S
H720 C734 0.929 . S
H721 C735 0.931 . S
H722 C737 0.930 . S
C723 H711 0.930 . S
C723 C724 1.399 . S
C723 C728 1.399 . S
C724 C723 1.399 . S
C724 C725 1.376 . S
C725 H712 0.930 . S
C725 C724 1.376 . S
C725 C726 1.388 . S
C726 H713 0.930 . S
C726 C725 1.388 . S
C726 C727 1.390 . S
C727 C726 1.390 . S
C727 C728 1.394 . S
C727 C733 1.465 . S
C728 C723 1.399 . S
C728 C727 1.394 . S
C728 C729 1.516 . S
C729 C728 1.516 . S
C729 C730 1.502 . S
C729 C731 1.561 . S
C729 C732 1.526 . S
C730 H714 0.959 . S
C730 H715 0.959 . S
C730 H716 0.961 . S
C730 C729 1.502 . S
C731 H717 0.960 . S
C731 H718 0.961 . S
C731 H719 0.959 . S
C731 C729 1.561 . S
C732 C729 1.526 . S
C732 C733 1.396 . S
C732 C737 1.390 . S
C733 C727 1.465 . S
C733 C732 1.396 . S
C733 C734 1.399 . S
C734 H720 0.929 . S
C734 C733 1.399 . S
C734 C735 1.385 . S
C735 H721 0.931 . S
C735 C734 1.385 . S
C735 C736 1.389 . S
C736 C735 1.389 . S
C736 C737 1.387 . S
C737 H722 0.930 . S
C737 C732 1.390 . S
C737 C736 1.387 . S
H738 C750 0.930 . S
H739 C752 0.930 . S
H740 C753 0.930 . S
H741 C757 0.959 1_655 S
H742 C757 0.959 . S
H743 C757 0.961 . S
H744 C758 0.960 . S
H745 C758 0.961 . S
H746 C758 0.959 . S
H747 C761 0.929 . S
H748 C762 0.931 . S
H749 C764 0.930 . S
C750 H738 0.930 . S
C750 C751 1.399 . S
C750 C755 1.399 . S
C751 C750 1.399 . S
C751 C752 1.376 1_455 S
C752 H739 0.930 . S
C752 C751 1.376 1_655 S
C752 C753 1.388 . S
C753 H740 0.930 . S
C753 C752 1.388 . S
C753 C754 1.390 . S
C754 C753 1.390 . S
C754 C755 1.394 1_655 S
C754 C760 1.465 . S
C755 C750 1.399 . S
C755 C754 1.394 1_455 S
C755 C756 1.516 . S
C756 C755 1.516 . S
C756 C757 1.502 . S
C756 C758 1.561 . S
C756 C759 1.526 . S
C757 H741 0.959 1_455 S
C757 H742 0.959 . S
C757 H743 0.961 . S
C757 C756 1.502 . S
C758 H744 0.960 . S
C758 H745 0.961 . S
C758 H746 0.959 . S
C758 C756 1.561 . S
C759 C756 1.526 . S
C759 C760 1.396 1_455 S
C759 C764 1.390 . S
C760 C754 1.465 . S
C760 C759 1.396 1_655 S
C760 C761 1.399 . S
C761 H747 0.929 . S
C761 C760 1.399 . S
C761 C762 1.385 . S
C762 H748 0.931 . S
C762 C761 1.385 . S
C762 C763 1.389 . S
C763 C762 1.389 . S
C763 C764 1.387 1_655 S
C764 H749 0.930 . S
C764 C759 1.390 . S
C764 C763 1.387 1_455 S
H765 C777 0.930 . S
H766 C779 0.930 . S
H767 C780 0.930 . S
H768 C784 0.959 . S
H769 C784 0.959 . S
H770 C784 0.961 . S
H771 C785 0.960 . S
H772 C785 0.961 . S
H773 C785 0.959 . S
H774 C788 0.929 . S
H775 C789 0.931 . S
H776 C791 0.930 . S
C777 H765 0.930 . S
C777 C778 1.399 . S
C777 C782 1.399 . S
C778 C777 1.399 . S
C778 C779 1.376 . S
C779 H766 0.930 . S
C779 C778 1.376 . S
C779 C780 1.388 . S
C780 H767 0.930 . S
C780 C779 1.388 . S
C780 C781 1.390 . S
C781 C780 1.390 . S
C781 C782 1.394 . S
C781 C787 1.465 . S
C782 C777 1.399 . S
C782 C781 1.394 . S
C782 C783 1.516 . S
C783 C782 1.516 . S
C783 C784 1.502 . S
C783 C785 1.561 . S
C783 C786 1.526 . S
C784 H768 0.959 . S
C784 H769 0.959 . S
C784 H770 0.961 . S
C784 C783 1.502 . S
C785 H771 0.960 . S
C785 H772 0.961 . S
C785 H773 0.959 . S
C785 C783 1.561 . S
C786 C783 1.526 . S
C786 C787 1.396 . S
C786 C791 1.390 . S
C787 C781 1.465 . S
C787 C786 1.396 . S
C787 C788 1.399 . S
C788 H774 0.929 . S
C788 C787 1.399 . S
C788 C789 1.385 . S
C789 H775 0.931 . S
C789 C788 1.385 . S
C789 C790 1.389 . S
C790 C789 1.389 . S
C790 C791 1.387 . S
C791 H776 0.930 . S
C791 C786 1.390 . S
C791 C790 1.387 . S
H792 C804 0.930 . S
H793 C806 0.930 . S
H794 C807 0.930 . S
H795 C811 0.959 . S
H796 C811 0.959 . S
H797 C811 0.961 . S
H798 C812 0.960 . S
H799 C812 0.961 . S
H800 C812 0.959 . S
H801 C815 0.929 . S
H802 C816 0.931 . S
H803 C818 0.930 . S
C804 H792 0.930 . S
C804 C805 1.399 1_545 S
C804 C809 1.399 . S
C805 C804 1.399 1_565 S
C805 C806 1.376 . S
C806 H793 0.930 . S
C806 C805 1.376 . S
C806 C807 1.388 . S
C807 H794 0.930 . S
C807 C806 1.388 . S
C807 C808 1.390 . S
C808 C807 1.390 . S
C808 C809 1.394 1_565 S
C808 C814 1.465 . S
C809 C804 1.399 . S
C809 C808 1.394 1_545 S
C809 C810 1.516 . S
C810 C809 1.516 . S
C810 C811 1.502 . S
C810 C812 1.561 . S
C810 C813 1.526 . S
C811 H795 0.959 . S
C811 H796 0.959 . S
C811 H797 0.961 . S
C811 C810 1.502 . S
C812 H798 0.960 . S
C812 H799 0.961 . S
C812 H800 0.959 . S
C812 C810 1.561 . S
C813 C810 1.526 . S
C813 C814 1.396 1_545 S
C813 C818 1.390 . S
C814 C808 1.465 . S
C814 C813 1.396 1_565 S
C814 C815 1.399 . S
C815 H801 0.929 . S
C815 C814 1.399 . S
C815 C816 1.385 . S
C816 H802 0.931 . S
C816 C815 1.385 . S
C816 C817 1.389 . S
C817 C816 1.389 . S
C817 C818 1.387 1_565 S
C818 H803 0.930 . S
C818 C813 1.390 . S
C818 C817 1.387 1_545 S
H819 C831 0.930 . S
H820 C833 0.930 . S
H821 C834 0.930 . S
H822 C838 0.959 . S
H823 C838 0.959 . S
H824 C838 0.961 . S
H825 C839 0.960 . S
H826 C839 0.961 . S
H827 C839 0.959 . S
H828 C842 0.929 . S
H829 C843 0.931 . S
H830 C845 0.930 . S
C831 H819 0.930 . S
C831 C832 1.436 . S
C831 C836 1.399 . S
C832 C831 1.436 . S
C832 C833 1.347 1_545 S
C833 H820 0.930 . S
C833 C832 1.347 1_565 S
C833 C834 1.388 . S
C834 H821 0.930 . S
C834 C833 1.388 . S
C834 C835 1.390 . S
C835 C834 1.390 . S
C835 C836 1.394 1_565 S
C835 C841 1.465 . S
C836 C831 1.399 . S
C836 C835 1.394 1_545 S
C836 C837 1.516 . S
C837 C836 1.516 . S
C837 C838 1.502 . S
C837 C839 1.561 . S
C837 C840 1.526 . S
C838 H822 0.959 . S
C838 H823 0.959 . S
C838 H824 0.961 . S
C838 C837 1.502 . S
C839 H825 0.960 . S
C839 H826 0.961 . S
C839 H827 0.959 . S
C839 C837 1.561 . S
C840 C837 1.526 . S
C840 C841 1.396 1_545 S
C840 C845 1.390 . S
C841 C835 1.465 . S
C841 C840 1.396 1_565 S
C841 C842 1.399 . S
C842 H828 0.929 . S
C842 C841 1.399 . S
C842 C843 1.385 . S
C843 H829 0.931 . S
C843 C842 1.385 . S
C843 C844 1.389 . S
C844 C843 1.389 . S
C844 C845 1.387 1_565 S
C845 H830 0.930 . S
C845 C840 1.390 . S
C845 C844 1.387 1_545 S
H846 C858 0.930 . S
H847 C860 0.930 . S
H848 C861 0.930 . S
H849 C865 0.959 . S
H850 C865 0.959 . S
H851 C865 0.961 . S
H852 C866 0.960 . S
H853 C866 0.961 . S
H854 C866 0.959 . S
H855 C869 0.921 . S
H856 C870 0.939 . S
H857 C872 0.930 . S
C858 H846 0.930 . S
C858 C859 1.399 . S
C858 C863 1.399 . S
C859 C858 1.399 . S
C859 C860 1.376 . S
C860 H847 0.930 . S
C860 C859 1.376 . S
C860 C861 1.388 . S
C861 H848 0.930 . S
C861 C860 1.388 . S
C861 C862 1.390 . S
C862 C861 1.390 . S
C862 C863 1.394 . S
C862 C868 1.465 . S
C863 C858 1.399 . S
C863 C862 1.394 . S
C863 C864 1.516 . S
C864 C863 1.516 . S
C864 C865 1.502 1_655 S
C864 C866 1.561 . S
C864 C867 1.526 . S
C865 H849 0.959 . S
C865 H850 0.959 . S
C865 H851 0.961 . S
C865 C864 1.502 1_455 S
C866 H852 0.960 . S
C866 H853 0.961 . S
C866 H854 0.959 . S
C866 C864 1.561 . S
C867 C864 1.526 . S
C867 C868 1.396 . S
C867 C872 1.390 . S
C868 C862 1.465 . S
C868 C867 1.396 . S
C868 C869 1.433 . S
C869 H855 0.921 . S
C869 C868 1.433 . S
C869 C870 1.358 1_655 S
C870 H856 0.939 . S
C870 C869 1.358 1_455 S
C870 C871 1.388 . S
C871 C870 1.388 . S
C871 C872 1.385 1_455 S
C872 H857 0.930 . S
C872 C867 1.390 . S
C872 C871 1.385 1_655 S
H873 C885 0.930 . S
H874 C887 0.930 . S
H875 C888 0.930 . S
H876 C892 0.959 . S
H877 C892 0.959 . S
H878 C892 0.961 . S
H879 C893 0.960 . S
H880 C893 0.961 . S
H881 C893 0.959 . S
H882 C896 0.929 . S
H883 C897 0.931 . S
H884 C899 0.930 . S
C885 H873 0.930 . S
C885 C886 1.399 . S
C885 C890 1.399 . S
C886 C885 1.399 . S
C886 C887 1.376 . S
C887 H874 0.930 . S
C887 C886 1.376 . S
C887 C888 1.388 . S
C888 H875 0.930 . S
C888 C887 1.388 . S
C888 C889 1.390 . S
C889 C888 1.390 . S
C889 C890 1.394 . S
C889 C895 1.465 . S
C890 C885 1.399 . S
C890 C889 1.394 . S
C890 C891 1.516 . S
C891 C890 1.516 . S
C891 C892 1.502 . S
C891 C893 1.561 . S
C891 C894 1.526 . S
C892 H876 0.959 . S
C892 H877 0.959 . S
C892 H878 0.961 . S
C892 C891 1.502 . S
C893 H879 0.960 . S
C893 H880 0.961 . S
C893 H881 0.959 . S
C893 C891 1.561 . S
C894 C891 1.526 . S
C894 C895 1.396 . S
C894 C899 1.390 . S
C895 C889 1.465 . S
C895 C894 1.396 . S
C895 C896 1.399 . S
C896 H882 0.929 . S
C896 C895 1.399 . S
C896 C897 1.385 . S
C897 H883 0.931 . S
C897 C896 1.385 . S
C897 C898 1.389 . S
C898 C897 1.389 . S
C898 C899 1.387 . S
C899 H884 0.930 . S
C899 C894 1.390 . S
C899 C898 1.387 . S
H900 C912 0.930 . S
H901 C914 0.930 . S
H902 C915 0.930 . S
H903 C919 0.959 . S
H904 C919 0.959 . S
H905 C919 0.961 . S
H906 C920 0.960 . S
H907 C920 0.961 . S
H908 C920 0.959 . S
H909 C923 0.929 . S
H910 C924 0.931 . S
H911 C926 0.930 . S
C912 H900 0.930 . S
C912 C913 1.399 . S
C912 C917 1.399 . S
C913 C912 1.399 . S
C913 C914 1.376 . S
C914 H901 0.930 . S
C914 C913 1.376 . S
C914 C915 1.388 . S
C915 H902 0.930 . S
C915 C914 1.388 . S
C915 C916 1.390 . S
C916 C915 1.390 . S
C916 C917 1.394 . S
C916 C922 1.465 . S
C917 C912 1.399 . S
C917 C916 1.394 . S
C917 C918 1.516 . S
C918 C917 1.516 . S
C918 C919 1.502 . S
C918 C920 1.561 . S
C918 C921 1.526 . S
C919 H903 0.959 . S
C919 H904 0.959 . S
C919 H905 0.961 . S
C919 C918 1.502 . S
C920 H906 0.960 . S
C920 H907 0.961 . S
C920 H908 0.959 . S
C920 C918 1.561 . S
C921 C918 1.526 . S
C921 C922 1.396 . S
C921 C926 1.390 . S
C922 C916 1.465 . S
C922 C921 1.396 . S
C922 C923 1.399 . S
C923 H909 0.929 . S
C923 C922 1.399 . S
C923 C924 1.385 . S
C924 H910 0.931 . S
C924 C923 1.385 . S
C924 C925 1.389 . S
C925 C924 1.389 . S
C925 C926 1.387 . S
C926 H911 0.930 . S
C926 C921 1.390 . S
C926 C925 1.387 . S
H927 C939 0.930 . S
H928 C941 0.930 . S
H929 C942 0.930 . S
H930 C946 0.959 . S
H931 C946 0.959 . S
H932 C946 0.961 . S
H933 C947 0.960 . S
H934 C947 0.961 . S
H935 C947 0.959 . S
H936 C950 0.929 . S
H937 C951 0.931 . S
H938 C953 0.930 . S
C939 H927 0.930 . S
C939 C940 1.399 . S
C939 C944 1.399 . S
C940 C939 1.399 . S
C940 C941 1.376 . S
C941 H928 0.930 . S
C941 C940 1.376 . S
C941 C942 1.388 . S
C942 H929 0.930 . S
C942 C941 1.388 . S
C942 C943 1.390 . S
C943 C942 1.390 . S
C943 C944 1.394 . S
C943 C949 1.465 . S
C944 C939 1.399 . S
C944 C943 1.394 . S
C944 C945 1.516 . S
C945 C944 1.516 . S
C945 C946 1.502 . S
C945 C947 1.561 . S
C945 C948 1.526 . S
C946 H930 0.959 . S
C946 H931 0.959 . S
C946 H932 0.961 . S
C946 C945 1.502 . S
C947 H933 0.960 . S
C947 H934 0.961 . S
C947 H935 0.959 . S
C947 C945 1.561 . S
C948 C945 1.526 . S
C948 C949 1.396 . S
C948 C953 1.390 . S
C949 C943 1.465 . S
C949 C948 1.396 . S
C949 C950 1.399 . S
C950 H936 0.929 . S
C950 C949 1.399 . S
C950 C951 1.385 . S
C951 H937 0.931 . S
C951 C950 1.385 . S
C951 C952 1.389 . S
C952 C951 1.389 . S
C952 C953 1.387 . S
C953 H938 0.930 . S
C953 C948 1.390 . S
C953 C952 1.387 . S
H954 C966 0.930 . S
H955 C968 0.930 . S
H956 C969 0.930 . S
H957 C973 0.959 . S
H958 C973 0.959 . S
H959 C973 0.961 . S
H960 C974 0.960 . S
H961 C974 0.961 . S
H962 C974 0.959 . S
H963 C977 0.929 . S
H964 C978 0.931 . S
H965 C980 0.930 . S
C966 H954 0.930 . S
C966 C967 1.399 . S
C966 C971 1.399 . S
C967 C966 1.399 . S
C967 C968 1.376 . S
C968 H955 0.930 . S
C968 C967 1.376 . S
C968 C969 1.388 . S
C969 H956 0.930 . S
C969 C968 1.388 . S
C969 C970 1.390 . S
C970 C969 1.390 . S
C970 C971 1.394 . S
C970 C976 1.465 . S
C971 C966 1.399 . S
C971 C970 1.394 . S
C971 C972 1.516 . S
C972 C971 1.516 . S
C972 C973 1.502 . S
C972 C974 1.561 . S
C972 C975 1.526 . S
C973 H957 0.959 . S
C973 H958 0.959 . S
C973 H959 0.961 . S
C973 C972 1.502 . S
C974 H960 0.960 . S
C974 H961 0.961 . S
C974 H962 0.959 . S
C974 C972 1.561 . S
C975 C972 1.526 . S
C975 C976 1.396 . S
C975 C980 1.390 . S
C976 C970 1.465 . S
C976 C975 1.396 . S
C976 C977 1.399 . S
C977 H963 0.929 . S
C977 C976 1.399 . S
C977 C978 1.385 . S
C978 H964 0.931 . S
C978 C977 1.385 . S
C978 C979 1.389 . S
C979 C978 1.389 . S
C979 C980 1.387 . S
C980 H965 0.930 . S
C980 C975 1.390 . S
C980 C979 1.387 . S
H981 C993 0.930 . S
H982 C995 0.930 . S
H983 C996 0.930 . S
H984 C1000 0.959 . S
H985 C1000 0.959 . S
H986 C1000 0.961 . S
H987 C1001 0.960 . S
H988 C1001 0.961 . S
H989 C1001 0.959 . S
H990 C1004 0.929 . S
H991 C1005 0.931 . S
H992 C1007 0.930 . S
C993 H981 0.930 . S
C993 C994 1.399 . S
C993 C998 1.399 . S
C994 C993 1.399 . S
C994 C995 1.376 . S
C995 H982 0.930 . S
C995 C994 1.376 . S
C995 C996 1.388 . S
C996 H983 0.930 . S
C996 C995 1.388 . S
C996 C997 1.390 . S
C997 C996 1.390 . S
C997 C998 1.394 . S
C997 C1003 1.465 . S
C998 C993 1.399 . S
C998 C997 1.394 . S
C998 C999 1.516 . S
C999 C998 1.516 . S
C999 C1000 1.502 . S
C999 C1001 1.561 . S
C999 C1002 1.526 . S
C1000 H984 0.959 . S
C1000 H985 0.959 . S
C1000 H986 0.961 . S
C1000 C999 1.502 . S
C1001 H987 0.960 . S
C1001 H988 0.961 . S
C1001 H989 0.959 . S
C1001 C999 1.561 . S
C1002 C999 1.526 . S
C1002 C1003 1.396 . S
C1002 C1007 1.390 . S
C1003 C997 1.465 . S
C1003 C1002 1.396 . S
C1003 C1004 1.399 . S
C1004 H990 0.929 . S
C1004 C1003 1.399 . S
C1004 C1005 1.385 . S
C1005 H991 0.931 . S
C1005 C1004 1.385 . S
C1005 C1006 1.389 . S
C1006 C1005 1.389 . S
C1006 C1007 1.387 . S
C1007 H992 0.930 . S
C1007 C1002 1.390 . S
C1007 C1006 1.387 . S
H1008 C1020 0.930 . S
H1009 C1022 0.930 . S
H1010 C1023 0.930 . S
H1011 C1027 0.959 . S
H1012 C1027 0.959 . S
H1013 C1027 0.961 . S
H1014 C1028 0.960 . S
H1015 C1028 0.961 . S
H1016 C1028 0.959 . S
H1017 C1031 0.929 . S
H1018 C1032 0.931 . S
H1019 C1034 0.930 . S
C1020 H1008 0.930 . S
C1020 C1021 1.399 . S
C1020 C1025 1.399 . S
C1021 C1020 1.399 . S
C1021 C1022 1.376 . S
C1022 H1009 0.930 . S
C1022 C1021 1.376 . S
C1022 C1023 1.388 . S
C1023 H1010 0.930 . S
C1023 C1022 1.388 . S
C1023 C1024 1.390 . S
C1024 C1023 1.390 . S
C1024 C1025 1.394 . S
C1024 C1030 1.465 . S
C1025 C1020 1.399 . S
C1025 C1024 1.394 . S
C1025 C1026 1.516 . S
C1026 C1025 1.516 . S
C1026 C1027 1.502 . S
C1026 C1028 1.561 . S
C1026 C1029 1.526 . S
C1027 H1011 0.959 . S
C1027 H1012 0.959 . S
C1027 H1013 0.961 . S
C1027 C1026 1.502 . S
C1028 H1014 0.960 . S
C1028 H1015 0.961 . S
C1028 H1016 0.959 . S
C1028 C1026 1.561 . S
C1029 C1026 1.526 . S
C1029 C1030 1.396 . S
C1029 C1034 1.390 . S
C1030 C1024 1.465 . S
C1030 C1029 1.396 . S
C1030 C1031 1.399 . S
C1031 H1017 0.929 . S
C1031 C1030 1.399 . S
C1031 C1032 1.385 . S
C1032 H1018 0.931 . S
C1032 C1031 1.385 . S
C1032 C1033 1.389 . S
C1033 C1032 1.389 . S
C1033 C1034 1.387 . S
C1034 H1019 0.930 . S
C1034 C1029 1.390 . S
C1034 C1033 1.387 . S
H1035 C1047 0.930 . S
H1036 C1049 0.930 . S
H1037 C1050 0.930 . S
H1038 C1054 0.959 . S
H1039 C1054 0.959 . S
H1040 C1054 0.961 . S
H1041 C1055 0.960 . S
H1042 C1055 0.961 . S
H1043 C1055 0.959 . S
H1044 C1058 0.929 . S
H1045 C1059 0.931 . S
H1046 C1061 0.930 . S
C1047 H1035 0.930 . S
C1047 C1048 1.399 . S
C1047 C1052 1.399 . S
C1048 C1047 1.399 . S
C1048 C1049 1.376 . S
C1049 H1036 0.930 . S
C1049 C1048 1.376 . S
C1049 C1050 1.388 . S
C1050 H1037 0.930 . S
C1050 C1049 1.388 . S
C1050 C1051 1.390 . S
C1051 C1050 1.390 . S
C1051 C1052 1.394 . S
C1051 C1057 1.465 . S
C1052 C1047 1.399 . S
C1052 C1051 1.394 . S
C1052 C1053 1.516 . S
C1053 C1052 1.516 . S
C1053 C1054 1.502 . S
C1053 C1055 1.561 . S
C1053 C1056 1.526 . S
C1054 H1038 0.959 . S
C1054 H1039 0.959 . S
C1054 H1040 0.961 . S
C1054 C1053 1.502 . S
C1055 H1041 0.960 . S
C1055 H1042 0.961 . S
C1055 H1043 0.959 . S
C1055 C1053 1.561 . S
C1056 C1053 1.526 . S
C1056 C1057 1.396 . S
C1056 C1061 1.390 . S
C1057 C1051 1.465 . S
C1057 C1056 1.396 . S
C1057 C1058 1.399 . S
C1058 H1044 0.929 . S
C1058 C1057 1.399 . S
C1058 C1059 1.385 . S
C1059 H1045 0.931 . S
C1059 C1058 1.385 . S
C1059 C1060 1.389 . S
C1060 C1059 1.389 . S
C1060 C1061 1.387 . S
C1061 H1046 0.930 . S
C1061 C1056 1.390 . S
C1061 C1060 1.387 . S
H1062 C1074 0.930 . S
H1063 C1076 0.930 . S
H1064 C1077 0.930 . S
H1065 C1081 0.959 . S
H1066 C1081 0.959 . S
H1067 C1081 0.961 . S
H1068 C1082 0.960 . S
H1069 C1082 0.961 . S
H1070 C1082 0.959 . S
H1071 C1085 0.929 . S
H1072 C1086 0.931 . S
H1073 C1088 0.930 . S
C1074 H1062 0.930 . S
C1074 C1075 1.399 . S
C1074 C1079 1.399 . S
C1075 C1074 1.399 . S
C1075 C1076 1.376 . S
C1076 H1063 0.930 . S
C1076 C1075 1.376 . S
C1076 C1077 1.388 . S
C1077 H1064 0.930 . S
C1077 C1076 1.388 . S
C1077 C1078 1.390 . S
C1078 C1077 1.390 . S
C1078 C1079 1.394 . S
C1078 C1084 1.465 . S
C1079 C1074 1.399 . S
C1079 C1078 1.394 . S
C1079 C1080 1.516 . S
C1080 C1079 1.516 . S
C1080 C1081 1.502 . S
C1080 C1082 1.561 . S
C1080 C1083 1.526 . S
C1081 H1065 0.959 . S
C1081 H1066 0.959 . S
C1081 H1067 0.961 . S
C1081 C1080 1.502 . S
C1082 H1068 0.960 . S
C1082 H1069 0.961 . S
C1082 H1070 0.959 . S
C1082 C1080 1.561 . S
C1083 C1080 1.526 . S
C1083 C1084 1.396 . S
C1083 C1088 1.390 . S
C1084 C1078 1.465 . S
C1084 C1083 1.396 . S
C1084 C1085 1.399 . S
C1085 H1071 0.929 . S
C1085 C1084 1.399 . S
C1085 C1086 1.385 . S
C1086 H1072 0.931 . S
C1086 C1085 1.385 . S
C1086 C1087 1.389 . S
C1087 C1086 1.389 . S
C1087 C1088 1.387 . S
C1088 H1073 0.930 . S
C1088 C1083 1.390 . S
C1088 C1087 1.387 . S
H1089 C1101 0.930 . S
H1090 C1103 0.930 . S
H1091 C1104 0.930 . S
H1092 C1108 0.959 . S
H1093 C1108 0.959 . S
H1094 C1108 0.961 . S
H1095 C1109 0.960 . S
H1096 C1109 0.961 . S
H1097 C1109 0.959 . S
H1098 C1112 0.929 . S
H1099 C1113 0.931 . S
H1100 C1115 0.930 . S
C1101 H1089 0.930 . S
C1101 C1102 1.399 . S
C1101 C1106 1.399 . S
C1102 C1101 1.399 . S
C1102 C1103 1.376 . S
C1103 H1090 0.930 . S
C1103 C1102 1.376 . S
C1103 C1104 1.388 . S
C1104 H1091 0.930 . S
C1104 C1103 1.388 . S
C1104 C1105 1.390 . S
C1105 C1104 1.390 . S
C1105 C1106 1.394 . S
C1105 C1111 1.465 . S
C1106 C1101 1.399 . S
C1106 C1105 1.394 . S
C1106 C1107 1.516 . S
C1107 C1106 1.516 . S
C1107 C1108 1.502 . S
C1107 C1109 1.561 . S
C1107 C1110 1.526 . S
C1108 H1092 0.959 . S
C1108 H1093 0.959 . S
C1108 H1094 0.961 . S
C1108 C1107 1.502 . S
C1109 H1095 0.960 . S
C1109 H1096 0.961 . S
C1109 H1097 0.959 . S
C1109 C1107 1.561 . S
C1110 C1107 1.526 . S
C1110 C1111 1.396 . S
C1110 C1115 1.390 . S
C1111 C1105 1.465 . S
C1111 C1110 1.396 . S
C1111 C1112 1.399 . S
C1112 H1098 0.929 . S
C1112 C1111 1.399 . S
C1112 C1113 1.385 . S
C1113 H1099 0.931 . S
C1113 C1112 1.385 . S
C1113 C1114 1.389 . S
C1114 C1113 1.389 . S
C1114 C1115 1.387 . S
C1115 H1100 0.930 . S
C1115 C1110 1.390 . S
C1115 C1114 1.387 . S
H1116 C1128 0.930 . S
H1117 C1130 0.930 . S
H1118 C1131 0.930 . S
H1119 C1135 0.959 . S
H1120 C1135 0.959 . S
H1121 C1135 0.961 . S
H1122 C1136 0.960 . S
H1123 C1136 0.961 . S
H1124 C1136 0.959 . S
H1125 C1139 0.929 . S
H1126 C1140 0.931 . S
H1127 C1142 0.930 . S
C1128 H1116 0.930 . S
C1128 C1129 1.399 . S
C1128 C1133 1.399 . S
C1129 C1128 1.399 . S
C1129 C1130 1.376 . S
C1130 H1117 0.930 . S
C1130 C1129 1.376 . S
C1130 C1131 1.388 . S
C1131 H1118 0.930 . S
C1131 C1130 1.388 . S
C1131 C1132 1.390 . S
C1132 C1131 1.390 . S
C1132 C1133 1.394 . S
C1132 C1138 1.465 . S
C1133 C1128 1.399 . S
C1133 C1132 1.394 . S
C1133 C1134 1.516 . S
C1134 C1133 1.516 . S
C1134 C1135 1.502 . S
C1134 C1136 1.561 . S
C1134 C1137 1.526 . S
C1135 H1119 0.959 . S
C1135 H1120 0.959 . S
C1135 H1121 0.961 . S
C1135 C1134 1.502 . S
C1136 H1122 0.960 . S
C1136 H1123 0.961 . S
C1136 H1124 0.959 . S
C1136 C1134 1.561 . S
C1137 C1134 1.526 . S
C1137 C1138 1.396 . S
C1137 C1142 1.390 . S
C1138 C1132 1.465 . S
C1138 C1137 1.396 . S
C1138 C1139 1.399 . S
C1139 H1125 0.929 . S
C1139 C1138 1.399 . S
C1139 C1140 1.385 . S
C1140 H1126 0.931 . S
C1140 C1139 1.385 . S
C1140 C1141 1.389 . S
C1141 C1140 1.389 . S
C1141 C1142 1.387 . S
C1142 H1127 0.930 . S
C1142 C1137 1.390 . S
C1142 C1141 1.387 . S
H1143 C1155 0.930 . S
H1144 C1157 0.930 . S
H1145 C1158 0.930 . S
H1146 C1162 0.959 . S
H1147 C1162 0.959 . S
H1148 C1162 0.961 . S
H1149 C1163 0.960 . S
H1150 C1163 0.961 . S
H1151 C1163 0.959 . S
H1152 C1166 0.929 . S
H1153 C1167 0.931 . S
H1154 C1169 0.930 . S
C1155 H1143 0.930 . S
C1155 C1156 1.399 . S
C1155 C1160 1.399 . S
C1156 C1155 1.399 . S
C1156 C1157 1.376 . S
C1157 H1144 0.930 . S
C1157 C1156 1.376 . S
C1157 C1158 1.388 . S
C1158 H1145 0.930 . S
C1158 C1157 1.388 . S
C1158 C1159 1.390 . S
C1159 C1158 1.390 . S
C1159 C1160 1.394 . S
C1159 C1165 1.465 . S
C1160 C1155 1.399 . S
C1160 C1159 1.394 . S
C1160 C1161 1.516 . S
C1161 C1160 1.516 . S
C1161 C1162 1.502 . S
C1161 C1163 1.561 . S
C1161 C1164 1.526 . S
C1162 H1146 0.959 . S
C1162 H1147 0.959 . S
C1162 H1148 0.961 . S
C1162 C1161 1.502 . S
C1163 H1149 0.960 . S
C1163 H1150 0.961 . S
C1163 H1151 0.959 . S
C1163 C1161 1.561 . S
C1164 C1161 1.526 . S
C1164 C1165 1.396 . S
C1164 C1169 1.390 . S
C1165 C1159 1.465 . S
C1165 C1164 1.396 . S
C1165 C1166 1.399 . S
C1166 H1152 0.929 . S
C1166 C1165 1.399 . S
C1166 C1167 1.385 . S
C1167 H1153 0.931 . S
C1167 C1166 1.385 . S
C1167 C1168 1.389 . S
C1168 C1167 1.389 . S
C1168 C1169 1.387 . S
C1169 H1154 0.930 . S
C1169 C1164 1.390 . S
C1169 C1168 1.387 . S
H1170 C1182 0.930 . S
H1171 C1184 0.930 . S
H1172 C1185 0.930 . S
H1173 C1189 0.959 . S
H1174 C1189 0.959 . S
H1175 C1189 0.961 . S
H1176 C1190 0.960 . S
H1177 C1190 0.961 . S
H1178 C1190 0.959 . S
H1179 C1193 0.929 . S
H1180 C1194 0.931 . S
H1181 C1196 0.930 . S
C1182 H1170 0.930 . S
C1182 C1183 1.399 . S
C1182 C1187 1.399 . S
C1183 C1182 1.399 . S
C1183 C1184 1.376 . S
C1184 H1171 0.930 . S
C1184 C1183 1.376 . S
C1184 C1185 1.388 . S
C1185 H1172 0.930 . S
C1185 C1184 1.388 . S
C1185 C1186 1.390 . S
C1186 C1185 1.390 . S
C1186 C1187 1.394 . S
C1186 C1192 1.465 . S
C1187 C1182 1.399 . S
C1187 C1186 1.394 . S
C1187 C1188 1.516 . S
C1188 C1187 1.516 . S
C1188 C1189 1.502 . S
C1188 C1190 1.561 . S
C1188 C1191 1.526 . S
C1189 H1173 0.959 . S
C1189 H1174 0.959 . S
C1189 H1175 0.961 . S
C1189 C1188 1.502 . S
C1190 H1176 0.960 . S
C1190 H1177 0.961 . S
C1190 H1178 0.959 . S
C1190 C1188 1.561 . S
C1191 C1188 1.526 . S
C1191 C1192 1.396 . S
C1191 C1196 1.390 . S
C1192 C1186 1.465 . S
C1192 C1191 1.396 . S
C1192 C1193 1.399 . S
C1193 H1179 0.929 . S
C1193 C1192 1.399 . S
C1193 C1194 1.385 . S
C1194 H1180 0.931 . S
C1194 C1193 1.385 . S
C1194 C1195 1.389 . S
C1195 C1194 1.389 . S
C1195 C1196 1.387 . S
C1196 H1181 0.930 . S
C1196 C1191 1.390 . S
C1196 C1195 1.387 . S
H1197 C1209 0.930 . S
H1198 C1211 0.930 . S
H1199 C1212 0.930 . S
H1200 C1216 0.959 . S
H1201 C1216 0.959 . S
H1202 C1216 0.961 . S
H1203 C1217 0.960 . S
H1204 C1217 0.961 . S
H1205 C1217 0.959 . S
H1206 C1220 0.929 . S
H1207 C1221 0.931 . S
H1208 C1223 0.930 . S
C1209 H1197 0.930 . S
C1209 C1210 1.399 . S
C1209 C1214 1.399 . S
C1210 C1209 1.399 . S
C1210 C1211 1.376 . S
C1211 H1198 0.930 . S
C1211 C1210 1.376 . S
C1211 C1212 1.388 . S
C1212 H1199 0.930 . S
C1212 C1211 1.388 . S
C1212 C1213 1.390 . S
C1213 C1212 1.390 . S
C1213 C1214 1.394 . S
C1213 C1219 1.465 . S
C1214 C1209 1.399 . S
C1214 C1213 1.394 . S
C1214 C1215 1.516 . S
C1215 C1214 1.516 . S
C1215 C1216 1.502 . S
C1215 C1217 1.561 . S
C1215 C1218 1.526 . S
C1216 H1200 0.959 . S
C1216 H1201 0.959 . S
C1216 H1202 0.961 . S
C1216 C1215 1.502 . S
C1217 H1203 0.960 . S
C1217 H1204 0.961 . S
C1217 H1205 0.959 . S
C1217 C1215 1.561 . S
C1218 C1215 1.526 . S
C1218 C1219 1.396 . S
C1218 C1223 1.390 . S
C1219 C1213 1.465 . S
C1219 C1218 1.396 . S
C1219 C1220 1.399 . S
C1220 H1206 0.929 . S
C1220 C1219 1.399 . S
C1220 C1221 1.385 . S
C1221 H1207 0.931 . S
C1221 C1220 1.385 . S
C1221 C1222 1.389 . S
C1222 C1221 1.389 . S
C1222 C1223 1.387 . S
C1223 H1208 0.930 . S
C1223 C1218 1.390 . S
C1223 C1222 1.387 . S
H1224 C1236 0.930 . S
H1225 C1238 0.930 . S
H1226 C1239 0.930 . S
H1227 C1243 0.959 . S
H1228 C1243 0.959 . S
H1229 C1243 0.961 . S
H1230 C1244 0.960 . S
H1231 C1244 0.961 . S
H1232 C1244 0.959 . S
H1233 C1247 0.929 . S
H1234 C1248 0.931 . S
H1235 C1250 0.930 . S
C1236 H1224 0.930 . S
C1236 C1237 1.399 . S
C1236 C1241 1.399 . S
C1237 C1236 1.399 . S
C1237 C1238 1.376 . S
C1238 H1225 0.930 . S
C1238 C1237 1.376 . S
C1238 C1239 1.388 . S
C1239 H1226 0.930 . S
C1239 C1238 1.388 . S
C1239 C1240 1.390 . S
C1240 C1239 1.390 . S
C1240 C1241 1.394 . S
C1240 C1246 1.465 . S
C1241 C1236 1.399 . S
C1241 C1240 1.394 . S
C1241 C1242 1.516 . S
C1242 C1241 1.516 . S
C1242 C1243 1.502 . S
C1242 C1244 1.561 . S
C1242 C1245 1.526 . S
C1243 H1227 0.959 . S
C1243 H1228 0.959 . S
C1243 H1229 0.961 . S
C1243 C1242 1.502 . S
C1244 H1230 0.960 . S
C1244 H1231 0.961 . S
C1244 H1232 0.959 . S
C1244 C1242 1.561 . S
C1245 C1242 1.526 . S
C1245 C1246 1.396 . S
C1245 C1250 1.390 . S
C1246 C1240 1.465 . S
C1246 C1245 1.396 . S
C1246 C1247 1.399 . S
C1247 H1233 0.929 . S
C1247 C1246 1.399 . S
C1247 C1248 1.385 . S
C1248 H1234 0.931 . S
C1248 C1247 1.385 . S
C1248 C1249 1.389 . S
C1249 C1248 1.389 . S
C1249 C1250 1.387 . S
C1250 H1235 0.930 . S
C1250 C1245 1.390 . S
C1250 C1249 1.387 . S
H1251 C1263 0.930 . S
H1252 C1265 0.930 . S
H1253 C1266 0.930 . S
H1254 C1270 0.959 . S
H1255 C1270 0.959 . S
H1256 C1270 0.961 . S
H1257 C1271 0.960 . S
H1258 C1271 0.961 . S
H1259 C1271 0.959 . S
H1260 C1274 0.929 . S
H1261 C1275 0.931 . S
H1262 C1277 0.930 . S
C1263 H1251 0.930 . S
C1263 C1264 1.399 . S
C1263 C1268 1.399 . S
C1264 C1263 1.399 . S
C1264 C1265 1.376 . S
C1265 H1252 0.930 . S
C1265 C1264 1.376 . S
C1265 C1266 1.388 . S
C1266 H1253 0.930 . S
C1266 C1265 1.388 . S
C1266 C1267 1.390 . S
C1267 C1266 1.390 . S
C1267 C1268 1.394 . S
C1267 C1273 1.465 . S
C1268 C1263 1.399 . S
C1268 C1267 1.394 . S
C1268 C1269 1.516 . S
C1269 C1268 1.516 . S
C1269 C1270 1.502 . S
C1269 C1271 1.561 . S
C1269 C1272 1.526 . S
C1270 H1254 0.959 . S
C1270 H1255 0.959 . S
C1270 H1256 0.961 . S
C1270 C1269 1.502 . S
C1271 H1257 0.960 . S
C1271 H1258 0.961 . S
C1271 H1259 0.959 . S
C1271 C1269 1.561 . S
C1272 C1269 1.526 . S
C1272 C1273 1.396 . S
C1272 C1277 1.390 . S
C1273 C1267 1.465 . S
C1273 C1272 1.396 . S
C1273 C1274 1.399 . S
C1274 H1260 0.929 . S
C1274 C1273 1.399 . S
C1274 C1275 1.385 . S
C1275 H1261 0.931 . S
C1275 C1274 1.385 . S
C1275 C1276 1.389 . S
C1276 C1275 1.389 . S
C1276 C1277 1.387 . S
C1277 H1262 0.930 . S
C1277 C1272 1.390 . S
C1277 C1276 1.387 . S
H1278 C1290 0.930 . S
H1279 C1292 0.930 . S
H1280 C1293 0.930 . S
H1281 C1297 0.959 . S
H1282 C1297 0.959 . S
H1283 C1297 0.961 . S
H1284 C1298 0.960 . S
H1285 C1298 0.961 . S
H1286 C1298 0.959 . S
H1287 C1301 0.929 . S
H1288 C1302 0.931 . S
H1289 C1304 0.930 . S
C1290 H1278 0.930 . S
C1290 C1291 1.399 . S
C1290 C1295 1.399 . S
C1291 C1290 1.399 . S
C1291 C1292 1.376 . S
C1292 H1279 0.930 . S
C1292 C1291 1.376 . S
C1292 C1293 1.388 . S
C1293 H1280 0.930 . S
C1293 C1292 1.388 . S
C1293 C1294 1.390 . S
C1294 C1293 1.390 . S
C1294 C1295 1.394 . S
C1294 C1300 1.465 . S
C1295 C1290 1.399 . S
C1295 C1294 1.394 . S
C1295 C1296 1.516 . S
C1296 C1295 1.516 . S
C1296 C1297 1.502 . S
C1296 C1298 1.561 . S
C1296 C1299 1.526 . S
C1297 H1281 0.959 . S
C1297 H1282 0.959 . S
C1297 H1283 0.961 . S
C1297 C1296 1.502 . S
C1298 H1284 0.960 . S
C1298 H1285 0.961 . S
C1298 H1286 0.959 . S
C1298 C1296 1.561 . S
C1299 C1296 1.526 . S
C1299 C1300 1.396 . S
C1299 C1304 1.390 . S
C1300 C1294 1.465 . S
C1300 C1299 1.396 . S
C1300 C1301 1.399 . S
C1301 H1287 0.929 . S
C1301 C1300 1.399 . S
C1301 C1302 1.385 . S
C1302 H1288 0.931 . S
C1302 C1301 1.385 . S
C1302 C1303 1.389 . S
C1303 C1302 1.389 . S
C1303 C1304 1.387 . S
C1304 H1289 0.930 . S
C1304 C1299 1.390 . S
C1304 C1303 1.387 . S
H1305 C1317 0.930 . S
H1306 C1319 0.930 . S
H1307 C1320 0.930 . S
H1308 C1324 0.959 . S
H1309 C1324 0.959 . S
H1310 C1324 0.961 . S
H1311 C1325 0.960 . S
H1312 C1325 0.961 . S
H1313 C1325 0.959 . S
H1314 C1328 0.929 . S
H1315 C1329 0.931 . S
H1316 C1331 0.930 . S
C1317 H1305 0.930 . S
C1317 C1318 1.399 . S
C1317 C1322 1.399 . S
C1318 C1317 1.399 . S
C1318 C1319 1.376 . S
C1319 H1306 0.930 . S
C1319 C1318 1.376 . S
C1319 C1320 1.388 . S
C1320 H1307 0.930 . S
C1320 C1319 1.388 . S
C1320 C1321 1.390 . S
C1321 C1320 1.390 . S
C1321 C1322 1.394 . S
C1321 C1327 1.465 . S
C1322 C1317 1.399 . S
C1322 C1321 1.394 . S
C1322 C1323 1.516 . S
C1323 C1322 1.516 . S
C1323 C1324 1.502 . S
C1323 C1325 1.561 . S
C1323 C1326 1.526 . S
C1324 H1308 0.959 . S
C1324 H1309 0.959 . S
C1324 H1310 0.961 . S
C1324 C1323 1.502 . S
C1325 H1311 0.960 . S
C1325 H1312 0.961 . S
C1325 H1313 0.959 . S
C1325 C1323 1.561 . S
C1326 C1323 1.526 . S
C1326 C1327 1.396 . S
C1326 C1331 1.390 . S
C1327 C1321 1.465 . S
C1327 C1326 1.396 . S
C1327 C1328 1.399 . S
C1328 H1314 0.929 . S
C1328 C1327 1.399 . S
C1328 C1329 1.385 . S
C1329 H1315 0.931 . S
C1329 C1328 1.385 . S
C1329 C1330 1.389 . S
C1330 C1329 1.389 . S
C1330 C1331 1.387 . S
C1331 H1316 0.930 . S
C1331 C1326 1.390 . S
C1331 C1330 1.387 . S
H1332 C1344 0.930 . S
H1333 C1346 0.930 . S
H1334 C1347 0.930 . S
H1335 C1351 0.959 . S
H1336 C1351 0.959 . S
H1337 C1351 0.961 . S
H1338 C1352 0.960 . S
H1339 C1352 0.961 . S
H1340 C1352 0.959 . S
H1341 C1355 0.929 . S
H1342 C1356 0.931 . S
H1343 C1358 0.930 . S
C1344 H1332 0.930 . S
C1344 C1345 1.399 . S
C1344 C1349 1.399 . S
C1345 C1344 1.399 . S
C1345 C1346 1.376 . S
C1346 H1333 0.930 . S
C1346 C1345 1.376 . S
C1346 C1347 1.388 . S
C1347 H1334 0.930 . S
C1347 C1346 1.388 . S
C1347 C1348 1.390 . S
C1348 C1347 1.390 . S
C1348 C1349 1.394 . S
C1348 C1354 1.465 . S
C1349 C1344 1.399 . S
C1349 C1348 1.394 . S
C1349 C1350 1.516 . S
C1350 C1349 1.516 . S
C1350 C1351 1.502 . S
C1350 C1352 1.561 . S
C1350 C1353 1.526 . S
C1351 H1335 0.959 . S
C1351 H1336 0.959 . S
C1351 H1337 0.961 . S
C1351 C1350 1.502 . S
C1352 H1338 0.960 . S
C1352 H1339 0.961 . S
C1352 H1340 0.959 . S
C1352 C1350 1.561 . S
C1353 C1350 1.526 . S
C1353 C1354 1.396 . S
C1353 C1358 1.390 . S
C1354 C1348 1.465 . S
C1354 C1353 1.396 . S
C1354 C1355 1.399 . S
C1355 H1341 0.929 . S
C1355 C1354 1.399 . S
C1355 C1356 1.385 . S
C1356 H1342 0.931 . S
C1356 C1355 1.385 . S
C1356 C1357 1.389 . S
C1357 C1356 1.389 . S
C1357 C1358 1.387 . S
C1358 H1343 0.930 . S
C1358 C1353 1.390 . S
C1358 C1357 1.387 . S
H1359 C1371 0.930 . S
H1360 C1373 0.930 . S
H1361 C1374 0.930 . S
H1362 C1378 0.959 . S
H1363 C1378 0.959 . S
H1364 C1378 0.961 . S
H1365 C1379 0.960 . S
H1366 C1379 0.961 . S
H1367 C1379 0.959 . S
H1368 C1382 0.929 . S
H1369 C1383 0.931 . S
H1370 C1385 0.930 . S
C1371 H1359 0.930 . S
C1371 C1372 1.399 . S
C1371 C1376 1.399 . S
C1372 C1371 1.399 . S
C1372 C1373 1.376 . S
C1373 H1360 0.930 . S
C1373 C1372 1.376 . S
C1373 C1374 1.388 . S
C1374 H1361 0.930 . S
C1374 C1373 1.388 . S
C1374 C1375 1.390 . S
C1375 C1374 1.390 . S
C1375 C1376 1.394 . S
C1375 C1381 1.465 . S
C1376 C1371 1.399 . S
C1376 C1375 1.394 . S
C1376 C1377 1.516 . S
C1377 C1376 1.516 . S
C1377 C1378 1.502 . S
C1377 C1379 1.561 . S
C1377 C1380 1.526 . S
C1378 H1362 0.959 . S
C1378 H1363 0.959 . S
C1378 H1364 0.961 . S
C1378 C1377 1.502 . S
C1379 H1365 0.960 . S
C1379 H1366 0.961 . S
C1379 H1367 0.959 . S
C1379 C1377 1.561 . S
C1380 C1377 1.526 . S
C1380 C1381 1.396 . S
C1380 C1385 1.390 . S
C1381 C1375 1.465 . S
C1381 C1380 1.396 . S
C1381 C1382 1.399 . S
C1382 H1368 0.929 . S
C1382 C1381 1.399 . S
C1382 C1383 1.385 . S
C1383 H1369 0.931 . S
C1383 C1382 1.385 . S
C1383 C1384 1.389 . S
C1384 C1383 1.389 . S
C1384 C1385 1.387 . S
C1385 H1370 0.930 . S
C1385 C1380 1.390 . S
C1385 C1384 1.387 . S
H1386 C1398 0.930 . S
H1387 C1400 0.930 . S
H1388 C1401 0.930 . S
H1389 C1405 0.959 . S
H1390 C1405 0.959 . S
H1391 C1405 0.961 . S
H1392 C1406 0.960 . S
H1393 C1406 0.961 . S
H1394 C1406 0.959 . S
H1395 C1409 0.929 . S
H1396 C1410 0.931 . S
H1397 C1412 0.930 . S
C1398 H1386 0.930 . S
C1398 C1399 1.399 . S
C1398 C1403 1.399 . S
C1399 C1398 1.399 . S
C1399 C1400 1.376 . S
C1400 H1387 0.930 . S
C1400 C1399 1.376 . S
C1400 C1401 1.388 . S
C1401 H1388 0.930 . S
C1401 C1400 1.388 . S
C1401 C1402 1.390 . S
C1402 C1401 1.390 . S
C1402 C1403 1.394 . S
C1402 C1408 1.465 . S
C1403 C1398 1.399 . S
C1403 C1402 1.394 . S
C1403 C1404 1.516 . S
C1404 C1403 1.516 . S
C1404 C1405 1.502 . S
C1404 C1406 1.561 . S
C1404 C1407 1.526 . S
C1405 H1389 0.959 . S
C1405 H1390 0.959 . S
C1405 H1391 0.961 . S
C1405 C1404 1.502 . S
C1406 H1392 0.960 . S
C1406 H1393 0.961 . S
C1406 H1394 0.959 . S
C1406 C1404 1.561 . S
C1407 C1404 1.526 . S
C1407 C1408 1.396 . S
C1407 C1412 1.390 . S
C1408 C1402 1.465 . S
C1408 C1407 1.396 . S
C1408 C1409 1.399 . S
C1409 H1395 0.929 . S
C1409 C1408 1.399 . S
C1409 C1410 1.385 . S
C1410 H1396 0.931 . S
C1410 C1409 1.385 . S
C1410 C1411 1.389 . S
C1411 C1410 1.389 . S
C1411 C1412 1.387 . S
C1412 H1397 0.930 . S
C1412 C1407 1.390 . S
C1412 C1411 1.387 . S
H1413 C1425 0.930 . S
H1414 C1427 0.930 . S
H1415 C1428 0.930 . S
H1416 C1432 0.959 . S
H1417 C1432 0.959 . S
H1418 C1432 0.961 . S
H1419 C1433 0.960 . S
H1420 C1433 0.961 . S
H1421 C1433 0.959 . S
H1422 C1436 0.929 . S
H1423 C1437 0.931 . S
H1424 C1439 0.930 . S
C1425 H1413 0.930 . S
C1425 C1426 1.399 . S
C1425 C1430 1.399 . S
C1426 C1425 1.399 . S
C1426 C1427 1.376 . S
C1427 H1414 0.930 . S
C1427 C1426 1.376 . S
C1427 C1428 1.388 . S
C1428 H1415 0.930 . S
C1428 C1427 1.388 . S
C1428 C1429 1.390 . S
C1429 C1428 1.390 . S
C1429 C1430 1.394 . S
C1429 C1435 1.465 . S
C1430 C1425 1.399 . S
C1430 C1429 1.394 . S
C1430 C1431 1.516 . S
C1431 C1430 1.516 . S
C1431 C1432 1.502 . S
C1431 C1433 1.561 . S
C1431 C1434 1.526 . S
C1432 H1416 0.959 . S
C1432 H1417 0.959 . S
C1432 H1418 0.961 . S
C1432 C1431 1.502 . S
C1433 H1419 0.960 . S
C1433 H1420 0.961 . S
C1433 H1421 0.959 . S
C1433 C1431 1.561 . S
C1434 C1431 1.526 . S
C1434 C1435 1.396 . S
C1434 C1439 1.390 . S
C1435 C1429 1.465 . S
C1435 C1434 1.396 . S
C1435 C1436 1.399 . S
C1436 H1422 0.929 . S
C1436 C1435 1.399 . S
C1436 C1437 1.385 . S
C1437 H1423 0.931 . S
C1437 C1436 1.385 . S
C1437 C1438 1.389 . S
C1438 C1437 1.389 . S
C1438 C1439 1.387 . S
C1439 H1424 0.930 . S
C1439 C1434 1.390 . S
C1439 C1438 1.387 . S
H1440 C1452 0.930 . S
H1441 C1454 0.930 . S
H1442 C1455 0.930 . S
H1443 C1459 0.959 . S
H1444 C1459 0.959 . S
H1445 C1459 0.961 . S
H1446 C1460 0.960 . S
H1447 C1460 0.961 . S
H1448 C1460 0.959 . S
H1449 C1463 0.929 . S
H1450 C1464 0.931 . S
H1451 C1466 0.930 . S
C1452 H1440 0.930 . S
C1452 C1453 1.399 . S
C1452 C1457 1.399 . S
C1453 C1452 1.399 . S
C1453 C1454 1.376 . S
C1454 H1441 0.930 . S
C1454 C1453 1.376 . S
C1454 C1455 1.388 . S
C1455 H1442 0.930 . S
C1455 C1454 1.388 . S
C1455 C1456 1.390 . S
C1456 C1455 1.390 . S
C1456 C1457 1.394 . S
C1456 C1462 1.465 . S
C1457 C1452 1.399 . S
C1457 C1456 1.394 . S
C1457 C1458 1.516 . S
C1458 C1457 1.516 . S
C1458 C1459 1.502 . S
C1458 C1460 1.561 . S
C1458 C1461 1.526 . S
C1459 H1443 0.959 . S
C1459 H1444 0.959 . S
C1459 H1445 0.961 . S
C1459 C1458 1.502 . S
C1460 H1446 0.960 . S
C1460 H1447 0.961 . S
C1460 H1448 0.959 . S
C1460 C1458 1.561 . S
C1461 C1458 1.526 . S
C1461 C1462 1.396 . S
C1461 C1466 1.390 . S
C1462 C1456 1.465 . S
C1462 C1461 1.396 . S
C1462 C1463 1.399 . S
C1463 H1449 0.929 . S
C1463 C1462 1.399 . S
C1463 C1464 1.385 . S
C1464 H1450 0.931 . S
C1464 C1463 1.385 . S
C1464 C1465 1.389 . S
C1465 C1464 1.389 . S
C1465 C1466 1.387 . S
C1466 H1451 0.930 . S
C1466 C1461 1.390 . S
C1466 C1465 1.387 . S
H1467 C1479 0.930 . S
H1468 C1481 0.930 . S
H1469 C1482 0.930 . S
H1470 C1486 0.959 . S
H1471 C1486 0.959 . S
H1472 C1486 0.961 . S
H1473 C1487 0.960 . S
H1474 C1487 0.961 . S
H1475 C1487 0.959 . S
H1476 C1490 0.929 . S
H1477 C1491 0.931 . S
H1478 C1493 0.930 . S
C1479 H1467 0.930 . S
C1479 C1480 1.399 . S
C1479 C1484 1.399 . S
C1480 C1479 1.399 . S
C1480 C1481 1.376 . S
C1481 H1468 0.930 . S
C1481 C1480 1.376 . S
C1481 C1482 1.388 . S
C1482 H1469 0.930 . S
C1482 C1481 1.388 . S
C1482 C1483 1.390 . S
C1483 C1482 1.390 . S
C1483 C1484 1.394 . S
C1483 C1489 1.465 . S
C1484 C1479 1.399 . S
C1484 C1483 1.394 . S
C1484 C1485 1.516 . S
C1485 C1484 1.516 . S
C1485 C1486 1.502 . S
C1485 C1487 1.561 . S
C1485 C1488 1.526 . S
C1486 H1470 0.959 . S
C1486 H1471 0.959 . S
C1486 H1472 0.961 . S
C1486 C1485 1.502 . S
C1487 H1473 0.960 . S
C1487 H1474 0.961 . S
C1487 H1475 0.959 . S
C1487 C1485 1.561 . S
C1488 C1485 1.526 . S
C1488 C1489 1.396 . S
C1488 C1493 1.390 . S
C1489 C1483 1.465 . S
C1489 C1488 1.396 . S
C1489 C1490 1.399 . S
C1490 H1476 0.929 . S
C1490 C1489 1.399 . S
C1490 C1491 1.385 . S
C1491 H1477 0.931 . S
C1491 C1490 1.385 . S
C1491 C1492 1.389 . S
C1492 C1491 1.389 . S
C1492 C1493 1.387 . S
C1493 H1478 0.930 . S
C1493 C1488 1.390 . S
C1493 C1492 1.387 . S
H1494 C1506 0.930 . S
H1495 C1508 0.930 . S
H1496 C1509 0.930 . S
H1497 C1513 0.959 . S
H1498 C1513 0.959 . S
H1499 C1513 0.961 . S
H1500 C1514 0.960 . S
H1501 C1514 0.961 . S
H1502 C1514 0.959 . S
H1503 C1517 0.929 . S
H1504 C1518 0.931 . S
H1505 C1520 0.930 . S
C1506 H1494 0.930 . S
C1506 C1507 1.399 . S
C1506 C1511 1.399 . S
C1507 C1506 1.399 . S
C1507 C1508 1.376 . S
C1508 H1495 0.930 . S
C1508 C1507 1.376 . S
C1508 C1509 1.388 . S
C1509 H1496 0.930 . S
C1509 C1508 1.388 . S
C1509 C1510 1.390 . S
C1510 C1509 1.390 . S
C1510 C1511 1.394 . S
C1510 C1516 1.465 . S
C1511 C1506 1.399 . S
C1511 C1510 1.394 . S
C1511 C1512 1.516 . S
C1512 C1511 1.516 . S
C1512 C1513 1.502 . S
C1512 C1514 1.561 . S
C1512 C1515 1.526 . S
C1513 H1497 0.959 . S
C1513 H1498 0.959 . S
C1513 H1499 0.961 . S
C1513 C1512 1.502 . S
C1514 H1500 0.960 . S
C1514 H1501 0.961 . S
C1514 H1502 0.959 . S
C1514 C1512 1.561 . S
C1515 C1512 1.526 . S
C1515 C1516 1.396 . S
C1515 C1520 1.390 . S
C1516 C1510 1.465 . S
C1516 C1515 1.396 . S
C1516 C1517 1.399 . S
C1517 H1503 0.929 . S
C1517 C1516 1.399 . S
C1517 C1518 1.385 . S
C1518 H1504 0.931 . S
C1518 C1517 1.385 . S
C1518 C1519 1.389 . S
C1519 C1518 1.389 . S
C1519 C1520 1.387 . S
C1520 H1505 0.930 . S
C1520 C1515 1.390 . S
C1520 C1519 1.387 . S
H1521 C1533 0.930 . S
H1522 C1535 0.930 . S
H1523 C1536 0.930 . S
H1524 C1540 0.959 . S
H1525 C1540 0.959 . S
H1526 C1540 0.961 . S
H1527 C1541 0.960 . S
H1528 C1541 0.961 . S
H1529 C1541 0.959 . S
H1530 C1544 0.929 . S
H1531 C1545 0.931 . S
H1532 C1547 0.930 . S
C1533 H1521 0.930 . S
C1533 C1534 1.399 . S
C1533 C1538 1.399 . S
C1534 C1533 1.399 . S
C1534 C1535 1.376 . S
C1535 H1522 0.930 . S
C1535 C1534 1.376 . S
C1535 C1536 1.388 . S
C1536 H1523 0.930 . S
C1536 C1535 1.388 . S
C1536 C1537 1.390 . S
C1537 C1536 1.390 . S
C1537 C1538 1.394 . S
C1537 C1543 1.465 . S
C1538 C1533 1.399 . S
C1538 C1537 1.394 . S
C1538 C1539 1.516 . S
C1539 C1538 1.516 . S
C1539 C1540 1.502 . S
C1539 C1541 1.561 . S
C1539 C1542 1.526 . S
C1540 H1524 0.959 . S
C1540 H1525 0.959 . S
C1540 H1526 0.961 . S
C1540 C1539 1.502 . S
C1541 H1527 0.960 . S
C1541 H1528 0.961 . S
C1541 H1529 0.959 . S
C1541 C1539 1.561 . S
C1542 C1539 1.526 . S
C1542 C1543 1.396 . S
C1542 C1547 1.390 . S
C1543 C1537 1.465 . S
C1543 C1542 1.396 . S
C1543 C1544 1.399 . S
C1544 H1530 0.929 . S
C1544 C1543 1.399 . S
C1544 C1545 1.385 . S
C1545 H1531 0.931 . S
C1545 C1544 1.385 . S
C1545 C1546 1.389 . S
C1546 C1545 1.389 . S
C1546 C1547 1.387 . S
C1547 H1532 0.930 . S
C1547 C1542 1.390 . S
C1547 C1546 1.387 . S
H1548 C1560 0.930 . S
H1549 C1562 0.930 . S
H1550 C1563 0.930 . S
H1551 C1567 0.959 . S
H1552 C1567 0.959 . S
H1553 C1567 0.961 . S
H1554 C1568 0.960 . S
H1555 C1568 0.961 . S
H1556 C1568 0.959 . S
H1557 C1571 0.929 . S
H1558 C1572 0.931 . S
H1559 C1574 0.930 . S
C1560 H1548 0.930 . S
C1560 C1561 1.399 . S
C1560 C1565 1.399 . S
C1561 C1560 1.399 . S
C1561 C1562 1.376 . S
C1562 H1549 0.930 . S
C1562 C1561 1.376 . S
C1562 C1563 1.388 . S
C1563 H1550 0.930 . S
C1563 C1562 1.388 . S
C1563 C1564 1.390 . S
C1564 C1563 1.390 . S
C1564 C1565 1.394 . S
C1564 C1570 1.465 . S
C1565 C1560 1.399 . S
C1565 C1564 1.394 . S
C1565 C1566 1.516 . S
C1566 C1565 1.516 . S
C1566 C1567 1.502 . S
C1566 C1568 1.561 . S
C1566 C1569 1.526 . S
C1567 H1551 0.959 . S
C1567 H1552 0.959 . S
C1567 H1553 0.961 . S
C1567 C1566 1.502 . S
C1568 H1554 0.960 . S
C1568 H1555 0.961 . S
C1568 H1556 0.959 . S
C1568 C1566 1.561 . S
C1569 C1566 1.526 . S
C1569 C1570 1.396 . S
C1569 C1574 1.390 . S
C1570 C1564 1.465 . S
C1570 C1569 1.396 . S
C1570 C1571 1.399 . S
C1571 H1557 0.929 . S
C1571 C1570 1.399 . S
C1571 C1572 1.385 . S
C1572 H1558 0.931 . S
C1572 C1571 1.385 . S
C1572 C1573 1.389 . S
C1573 C1572 1.389 . S
C1573 C1574 1.387 . S
C1574 H1559 0.930 . S
C1574 C1569 1.390 . S
C1574 C1573 1.387 . S
H1575 C1587 0.930 . S
H1576 C1589 0.930 . S
H1577 C1590 0.930 . S
H1578 C1594 0.959 . S
H1579 C1594 0.959 . S
H1580 C1594 0.961 . S
H1581 C1595 0.960 . S
H1582 C1595 0.961 . S
H1583 C1595 0.959 . S
H1584 C1598 0.929 . S
H1585 C1599 0.931 . S
H1586 C1601 0.930 . S
C1587 H1575 0.930 . S
C1587 C1588 1.399 . S
C1587 C1592 1.399 . S
C1588 C1587 1.399 . S
C1588 C1589 1.376 . S
C1589 H1576 0.930 . S
C1589 C1588 1.376 . S
C1589 C1590 1.388 . S
C1590 H1577 0.930 . S
C1590 C1589 1.388 . S
C1590 C1591 1.390 . S
C1591 C1590 1.390 . S
C1591 C1592 1.394 . S
C1591 C1597 1.465 . S
C1592 C1587 1.399 . S
C1592 C1591 1.394 . S
C1592 C1593 1.516 . S
C1593 C1592 1.516 . S
C1593 C1594 1.502 . S
C1593 C1595 1.561 . S
C1593 C1596 1.526 . S
C1594 H1578 0.959 . S
C1594 H1579 0.959 . S
C1594 H1580 0.961 . S
C1594 C1593 1.502 . S
C1595 H1581 0.960 . S
C1595 H1582 0.961 . S
C1595 H1583 0.959 . S
C1595 C1593 1.561 . S
C1596 C1593 1.526 . S
C1596 C1597 1.396 . S
C1596 C1601 1.390 . S
C1597 C1591 1.465 . S
C1597 C1596 1.396 . S
C1597 C1598 1.399 . S
C1598 H1584 0.929 . S
C1598 C1597 1.399 . S
C1598 C1599 1.385 . S
C1599 H1585 0.931 . S
C1599 C1598 1.385 . S
C1599 C1600 1.389 . S
C1600 C1599 1.389 . S
C1600 C1601 1.387 . S
C1601 H1586 0.930 . S
C1601 C1596 1.390 . S
C1601 C1600 1.387 . S
H1602 C1614 0.930 . S
H1603 C1616 0.930 . S
H1604 C1617 0.930 . S
H1605 C1621 0.959 . S
H1606 C1621 0.959 . S
H1607 C1621 0.961 . S
H1608 C1622 0.960 . S
H1609 C1622 0.961 . S
H1610 C1622 0.959 . S
H1611 C1625 0.929 . S
H1612 C1626 0.931 . S
H1613 C1628 0.930 . S
C1614 H1602 0.930 . S
C1614 C1615 1.399 . S
C1614 C1619 1.399 . S
C1615 C1614 1.399 . S
C1615 C1616 1.376 . S
C1616 H1603 0.930 . S
C1616 C1615 1.376 . S
C1616 C1617 1.388 . S
C1617 H1604 0.930 . S
C1617 C1616 1.388 . S
C1617 C1618 1.390 . S
C1618 C1617 1.390 . S
C1618 C1619 1.394 . S
C1618 C1624 1.465 . S
C1619 C1614 1.399 . S
C1619 C1618 1.394 . S
C1619 C1620 1.516 . S
C1620 C1619 1.516 . S
C1620 C1621 1.502 . S
C1620 C1622 1.561 . S
C1620 C1623 1.526 . S
C1621 H1605 0.959 . S
C1621 H1606 0.959 . S
C1621 H1607 0.961 . S
C1621 C1620 1.502 . S
C1622 H1608 0.960 . S
C1622 H1609 0.961 . S
C1622 H1610 0.959 . S
C1622 C1620 1.561 . S
C1623 C1620 1.526 . S
C1623 C1624 1.396 . S
C1623 C1628 1.390 . S
C1624 C1618 1.465 . S
C1624 C1623 1.396 . S
C1624 C1625 1.399 . S
C1625 H1611 0.929 . S
C1625 C1624 1.399 . S
C1625 C1626 1.385 . S
C1626 H1612 0.931 . S
C1626 C1625 1.385 . S
C1626 C1627 1.389 . S
C1627 C1626 1.389 . S
C1627 C1628 1.387 . S
C1628 H1613 0.930 . S
C1628 C1623 1.390 . S
C1628 C1627 1.387 . S
H1629 C1641 0.930 1_554 S
H1630 C1643 0.930 . S
H1631 C1644 0.930 . S
H1632 C1648 0.959 . S
H1633 C1648 0.959 1_554 S
H1634 C1648 0.961 1_554 S
H1635 C1649 0.960 1_554 S
H1636 C1649 0.961 . S
H1637 C1649 0.959 . S
H1638 C1652 0.929 . S
H1639 C1653 0.931 . S
H1640 C1655 0.930 . S
C1641 H1629 0.930 1_556 S
C1641 C1642 1.399 . S
C1641 C1646 1.399 . S
C1642 C1641 1.399 . S
C1642 C1643 1.376 . S
C1643 H1630 0.930 . S
C1643 C1642 1.376 . S
C1643 C1644 1.388 . S
C1644 H1631 0.930 . S
C1644 C1643 1.388 . S
C1644 C1645 1.390 . S
C1645 C1644 1.390 . S
C1645 C1646 1.394 . S
C1645 C1651 1.465 . S
C1646 C1641 1.399 . S
C1646 C1645 1.394 . S
C1646 C1647 1.516 . S
C1647 C1646 1.516 . S
C1647 C1648 1.502 . S
C1647 C1649 1.561 . S
C1647 C1650 1.526 . S
C1648 H1632 0.959 . S
C1648 H1633 0.959 1_556 S
C1648 H1634 0.961 1_556 S
C1648 C1647 1.502 . S
C1649 H1635 0.960 1_556 S
C1649 H1636 0.961 . S
C1649 H1637 0.959 . S
C1649 C1647 1.561 . S
C1650 C1647 1.526 . S
C1650 C1651 1.396 . S
C1650 C1655 1.390 . S
C1651 C1645 1.465 . S
C1651 C1650 1.396 . S
C1651 C1652 1.399 . S
C1652 H1638 0.929 . S
C1652 C1651 1.399 . S
C1652 C1653 1.385 . S
C1653 H1639 0.931 . S
C1653 C1652 1.385 . S
C1653 C1654 1.389 . S
C1654 C1653 1.389 . S
C1654 C1655 1.387 . S
C1655 H1640 0.930 . S
C1655 C1650 1.390 . S
C1655 C1654 1.387 . S
H1656 C1668 0.930 . S
H1657 C1670 0.930 . S
H1658 C1671 0.930 . S
H1659 C1675 0.959 . S
H1660 C1675 0.959 . S
H1661 C1675 0.961 . S
H1662 C1676 0.960 1_554 S
H1663 C1676 0.961 . S
H1664 C1676 0.959 1_554 S
H1665 C1679 0.929 . S
H1666 C1680 0.931 . S
H1667 C1682 0.930 . S
C1668 H1656 0.930 . S
C1668 C1669 1.399 . S
C1668 C1673 1.399 . S
C1669 C1668 1.399 . S
C1669 C1670 1.376 . S
C1670 H1657 0.930 . S
C1670 C1669 1.376 . S
C1670 C1671 1.388 . S
C1671 H1658 0.930 . S
C1671 C1670 1.388 . S
C1671 C1672 1.390 . S
C1672 C1671 1.390 . S
C1672 C1673 1.394 . S
C1672 C1678 1.465 . S
C1673 C1668 1.399 . S
C1673 C1672 1.394 . S
C1673 C1674 1.516 . S
C1674 C1673 1.516 . S
C1674 C1675 1.502 . S
C1674 C1676 1.561 . S
C1674 C1677 1.526 . S
C1675 H1659 0.959 . S
C1675 H1660 0.959 . S
C1675 H1661 0.961 . S
C1675 C1674 1.502 . S
C1676 H1662 0.960 1_556 S
C1676 H1663 0.961 . S
C1676 H1664 0.959 1_556 S
C1676 C1674 1.561 . S
C1677 C1674 1.526 . S
C1677 C1678 1.396 . S
C1677 C1682 1.390 . S
C1678 C1672 1.465 . S
C1678 C1677 1.396 . S
C1678 C1679 1.399 . S
C1679 H1665 0.929 . S
C1679 C1678 1.399 . S
C1679 C1680 1.385 . S
C1680 H1666 0.931 . S
C1680 C1679 1.385 . S
C1680 C1681 1.389 . S
C1681 C1680 1.389 . S
C1681 C1682 1.387 . S
C1682 H1667 0.930 . S
C1682 C1677 1.390 . S
C1682 C1681 1.387 . S
H1683 C1695 0.930 . S
H1684 C1697 0.930 1_554 S
H1685 C1698 0.930 1_554 S
H1686 C1702 0.959 . S
H1687 C1702 0.959 . S
H1688 C1702 0.961 . S
H1689 C1703 0.960 . S
H1690 C1703 0.961 . S
H1691 C1703 0.959 . S
H1692 C1706 0.929 . S
H1693 C1707 0.931 . S
H1694 C1709 0.930 . S
C1695 H1683 0.930 . S
C1695 C1696 1.399 . S
C1695 C1700 1.399 . S
C1696 C1695 1.399 . S
C1696 C1697 1.376 . S
C1697 H1684 0.930 1_556 S
C1697 C1696 1.376 . S
C1697 C1698 1.388 . S
C1698 H1685 0.930 1_556 S
C1698 C1697 1.388 . S
C1698 C1699 1.390 . S
C1699 C1698 1.390 . S
C1699 C1700 1.394 . S
C1699 C1705 1.465 . S
C1700 C1695 1.399 . S
C1700 C1699 1.394 . S
C1700 C1701 1.516 . S
C1701 C1700 1.516 . S
C1701 C1702 1.502 . S
C1701 C1703 1.561 . S
C1701 C1704 1.526 . S
C1702 H1686 0.959 . S
C1702 H1687 0.959 . S
C1702 H1688 0.961 . S
C1702 C1701 1.502 . S
C1703 H1689 0.960 . S
C1703 H1690 0.961 . S
C1703 H1691 0.959 . S
C1703 C1701 1.561 . S
C1704 C1701 1.526 . S
C1704 C1705 1.396 . S
C1704 C1709 1.390 . S
C1705 C1699 1.465 . S
C1705 C1704 1.396 . S
C1705 C1706 1.399 . S
C1706 H1692 0.929 . S
C1706 C1705 1.399 . S
C1706 C1707 1.385 . S
C1707 H1693 0.931 . S
C1707 C1706 1.385 . S
C1707 C1708 1.389 . S
C1708 C1707 1.389 . S
C1708 C1709 1.387 . S
C1709 H1694 0.930 . S
C1709 C1704 1.390 . S
C1709 C1708 1.387 . S
H1710 C1722 0.930 . S
H1711 C1724 0.930 . S
H1712 C1725 0.930 . S
H1713 C1729 0.965 . S
H1714 C1729 0.959 . S
H1715 C1729 0.961 1_554 S
H1716 C1730 0.960 . S
H1717 C1730 0.961 . S
H1718 C1730 0.959 . S
H1719 C1733 0.929 . S
H1720 C1734 0.931 . S
H1721 C1736 0.930 . S
C1722 H1710 0.930 . S
C1722 C1723 1.399 . S
C1722 C1727 1.399 . S
C1723 C1722 1.399 . S
C1723 C1724 1.376 . S
C1724 H1711 0.930 . S
C1724 C1723 1.376 . S
C1724 C1725 1.388 . S
C1725 H1712 0.930 . S
C1725 C1724 1.388 . S
C1725 C1726 1.390 . S
C1726 C1725 1.390 . S
C1726 C1727 1.394 . S
C1726 C1732 1.465 . S
C1727 C1722 1.399 . S
C1727 C1726 1.394 . S
C1727 C1728 1.516 . S
C1728 C1727 1.516 . S
C1728 C1729 1.502 . S
C1728 C1730 1.561 . S
C1728 C1731 1.526 . S
C1729 H1713 0.965 . S
C1729 H1714 0.959 . S
C1729 H1715 0.961 1_556 S
C1729 C1728 1.502 . S
C1730 H1716 0.960 . S
C1730 H1717 0.961 . S
C1730 H1718 0.959 . S
C1730 C1728 1.561 . S
C1731 C1728 1.526 . S
C1731 C1732 1.396 . S
C1731 C1736 1.390 . S
C1732 C1726 1.465 . S
C1732 C1731 1.396 . S
C1732 C1733 1.399 . S
C1733 H1719 0.929 . S
C1733 C1732 1.399 . S
C1733 C1734 1.385 . S
C1734 H1720 0.931 . S
C1734 C1733 1.385 . S
C1734 C1735 1.389 . S
C1735 C1734 1.389 . S
C1735 C1736 1.387 . S
C1736 H1721 0.930 . S
C1736 C1731 1.390 . S
C1736 C1735 1.387 . S
H1737 C1749 0.930 . S
H1738 C1751 0.930 1_554 S
H1739 C1752 0.930 1_554 S
H1740 C1756 0.959 . S
H1741 C1756 0.959 . S
H1742 C1756 0.961 . S
H1743 C1757 0.960 . S
H1744 C1757 0.961 . S
H1745 C1757 0.959 . S
H1746 C1760 0.929 . S
H1747 C1761 0.931 . S
H1748 C1763 0.930 . S
C1749 H1737 0.930 . S
C1749 C1750 1.399 . S
C1749 C1754 1.399 . S
C1750 C1749 1.399 . S
C1750 C1751 1.376 . S
C1751 H1738 0.930 1_556 S
C1751 C1750 1.376 . S
C1751 C1752 1.388 . S
C1752 H1739 0.930 1_556 S
C1752 C1751 1.388 . S
C1752 C1753 1.390 . S
C1753 C1752 1.390 . S
C1753 C1754 1.394 . S
C1753 C1759 1.465 . S
C1754 C1749 1.399 . S
C1754 C1753 1.394 . S
C1754 C1755 1.516 . S
C1755 C1754 1.516 . S
C1755 C1756 1.502 . S
C1755 C1757 1.561 . S
C1755 C1758 1.526 . S
C1756 H1740 0.959 . S
C1756 H1741 0.959 . S
C1756 H1742 0.961 . S
C1756 C1755 1.502 . S
C1757 H1743 0.960 . S
C1757 H1744 0.961 . S
C1757 H1745 0.959 . S
C1757 C1755 1.561 . S
C1758 C1755 1.526 . S
C1758 C1759 1.396 . S
C1758 C1763 1.390 . S
C1759 C1753 1.465 . S
C1759 C1758 1.396 . S
C1759 C1760 1.399 . S
C1760 H1746 0.929 . S
C1760 C1759 1.399 . S
C1760 C1761 1.385 . S
C1761 H1747 0.931 . S
C1761 C1760 1.385 . S
C1761 C1762 1.389 . S
C1762 C1761 1.389 . S
C1762 C1763 1.387 . S
C1763 H1748 0.930 . S
C1763 C1758 1.390 . S
C1763 C1762 1.387 . S
H1764 C1776 0.930 . S
H1765 C1778 0.930 . S
H1766 C1779 0.930 1_554 S
H1767 C1783 0.959 . S
H1768 C1783 0.959 . S
H1769 C1783 0.961 . S
H1770 C1784 0.960 . S
H1771 C1784 0.961 . S
H1772 C1784 0.959 . S
H1773 C1787 0.929 . S
H1774 C1788 0.931 . S
H1775 C1790 0.930 . S
C1776 H1764 0.930 . S
C1776 C1777 1.399 . S
C1776 C1781 1.399 . S
C1777 C1776 1.399 . S
C1777 C1778 1.376 1_556 S
C1778 H1765 0.930 . S
C1778 C1777 1.376 1_554 S
C1778 C1779 1.388 1_554 S
C1779 H1766 0.930 1_556 S
C1779 C1778 1.388 1_556 S
C1779 C1780 1.390 . S
C1780 C1779 1.390 . S
C1780 C1781 1.394 . S
C1780 C1786 1.465 . S
C1781 C1776 1.399 . S
C1781 C1780 1.394 . S
C1781 C1782 1.516 . S
C1782 C1781 1.516 . S
C1782 C1783 1.502 . S
C1782 C1784 1.561 . S
C1782 C1785 1.526 . S
C1783 H1767 0.959 . S
C1783 H1768 0.959 . S
C1783 H1769 0.961 . S
C1783 C1782 1.502 . S
C1784 H1770 0.960 . S
C1784 H1771 0.961 . S
C1784 H1772 0.959 . S
C1784 C1782 1.561 . S
C1785 C1782 1.526 . S
C1785 C1786 1.396 . S
C1785 C1790 1.390 . S
C1786 C1780 1.465 . S
C1786 C1785 1.396 . S
C1786 C1787 1.399 . S
C1787 H1773 0.929 . S
C1787 C1786 1.399 . S
C1787 C1788 1.385 . S
C1788 H1774 0.931 . S
C1788 C1787 1.385 . S
C1788 C1789 1.389 . S
C1789 C1788 1.389 . S
C1789 C1790 1.387 . S
C1790 H1775 0.930 . S
C1790 C1785 1.390 . S
C1790 C1789 1.387 . S
H1791 C1803 0.930 . S
H1792 C1805 0.930 . S
H1793 C1806 0.930 . S
H1794 C1810 0.959 . S
H1795 C1810 0.959 . S
H1796 C1810 0.961 . S
H1797 C1811 0.960 . S
H1798 C1811 0.961 . S
H1799 C1811 0.959 . S
H1800 C1814 0.929 . S
H1801 C1815 0.931 . S
H1802 C1817 0.930 . S
C1803 H1791 0.930 . S
C1803 C1804 1.399 . S
C1803 C1808 1.399 . S
C1804 C1803 1.399 . S
C1804 C1805 1.376 . S
C1805 H1792 0.930 . S
C1805 C1804 1.376 . S
C1805 C1806 1.388 . S
C1806 H1793 0.930 . S
C1806 C1805 1.388 . S
C1806 C1807 1.390 . S
C1807 C1806 1.390 . S
C1807 C1808 1.394 . S
C1807 C1813 1.465 . S
C1808 C1803 1.399 . S
C1808 C1807 1.394 . S
C1808 C1809 1.516 . S
C1809 C1808 1.516 . S
C1809 C1810 1.502 . S
C1809 C1811 1.561 . S
C1809 C1812 1.526 . S
C1810 H1794 0.959 . S
C1810 H1795 0.959 . S
C1810 H1796 0.961 . S
C1810 C1809 1.502 . S
C1811 H1797 0.960 . S
C1811 H1798 0.961 . S
C1811 H1799 0.959 . S
C1811 C1809 1.561 . S
C1812 C1809 1.526 . S
C1812 C1813 1.396 . S
C1812 C1817 1.390 . S
C1813 C1807 1.465 . S
C1813 C1812 1.396 . S
C1813 C1814 1.399 . S
C1814 H1800 0.929 . S
C1814 C1813 1.399 . S
C1814 C1815 1.385 . S
C1815 H1801 0.931 . S
C1815 C1814 1.385 . S
C1815 C1816 1.389 . S
C1816 C1815 1.389 . S
C1816 C1817 1.387 . S
C1817 H1802 0.930 . S
C1817 C1812 1.390 . S
C1817 C1816 1.387 . S
H1818 C1830 0.930 . S
H1819 C1832 0.930 . S
H1820 C1833 0.930 . S
H1821 C1837 0.959 . S
H1822 C1837 0.959 . S
H1823 C1837 0.961 . S
H1824 C1838 0.960 . S
H1825 C1838 0.961 . S
H1826 C1838 0.959 . S
H1827 C1841 0.929 . S
H1828 C1842 0.931 . S
H1829 C1844 0.930 . S
C1830 H1818 0.930 . S
C1830 C1831 1.399 . S
C1830 C1835 1.399 . S
C1831 C1830 1.399 . S
C1831 C1832 1.376 . S
C1832 H1819 0.930 . S
C1832 C1831 1.376 . S
C1832 C1833 1.388 . S
C1833 H1820 0.930 . S
C1833 C1832 1.388 . S
C1833 C1834 1.390 . S
C1834 C1833 1.390 . S
C1834 C1835 1.394 . S
C1834 C1840 1.465 . S
C1835 C1830 1.399 . S
C1835 C1834 1.394 . S
C1835 C1836 1.516 . S
C1836 C1835 1.516 . S
C1836 C1837 1.502 . S
C1836 C1838 1.561 . S
C1836 C1839 1.526 . S
C1837 H1821 0.959 . S
C1837 H1822 0.959 . S
C1837 H1823 0.961 . S
C1837 C1836 1.502 . S
C1838 H1824 0.960 . S
C1838 H1825 0.961 . S
C1838 H1826 0.959 . S
C1838 C1836 1.561 . S
C1839 C1836 1.526 . S
C1839 C1840 1.396 . S
C1839 C1844 1.390 . S
C1840 C1834 1.465 . S
C1840 C1839 1.396 . S
C1840 C1841 1.399 . S
C1841 H1827 0.929 . S
C1841 C1840 1.399 . S
C1841 C1842 1.385 . S
C1842 H1828 0.931 . S
C1842 C1841 1.385 . S
C1842 C1843 1.389 . S
C1843 C1842 1.389 . S
C1843 C1844 1.387 . S
C1844 H1829 0.930 . S
C1844 C1839 1.390 . S
C1844 C1843 1.387 . S
H1845 C1857 0.930 . S
H1846 C1859 0.930 . S
H1847 C1860 0.930 . S
H1848 C1864 0.959 . S
H1849 C1864 0.959 . S
H1850 C1864 0.961 . S
H1851 C1865 0.960 . S
H1852 C1865 0.961 . S
H1853 C1865 0.959 . S
H1854 C1868 0.929 . S
H1855 C1869 0.931 . S
H1856 C1871 0.930 . S
C1857 H1845 0.930 . S
C1857 C1858 1.399 . S
C1857 C1862 1.399 . S
C1858 C1857 1.399 . S
C1858 C1859 1.376 . S
C1859 H1846 0.930 . S
C1859 C1858 1.376 . S
C1859 C1860 1.388 . S
C1860 H1847 0.930 . S
C1860 C1859 1.388 . S
C1860 C1861 1.390 . S
C1861 C1860 1.390 . S
C1861 C1862 1.394 . S
C1861 C1867 1.465 . S
C1862 C1857 1.399 . S
C1862 C1861 1.394 . S
C1862 C1863 1.516 . S
C1863 C1862 1.516 . S
C1863 C1864 1.502 . S
C1863 C1865 1.561 . S
C1863 C1866 1.526 . S
C1864 H1848 0.959 . S
C1864 H1849 0.959 . S
C1864 H1850 0.961 . S
C1864 C1863 1.502 . S
C1865 H1851 0.960 . S
C1865 H1852 0.961 . S
C1865 H1853 0.959 . S
C1865 C1863 1.561 . S
C1866 C1863 1.526 . S
C1866 C1867 1.396 . S
C1866 C1871 1.390 . S
C1867 C1861 1.465 . S
C1867 C1866 1.396 . S
C1867 C1868 1.399 . S
C1868 H1854 0.929 . S
C1868 C1867 1.399 . S
C1868 C1869 1.385 . S
C1869 H1855 0.931 . S
C1869 C1868 1.385 . S
C1869 C1870 1.389 . S
C1870 C1869 1.389 . S
C1870 C1871 1.387 . S
C1871 H1856 0.930 . S
C1871 C1866 1.390 . S
C1871 C1870 1.387 . S
H1872 C1884 0.930 . S
H1873 C1886 0.930 . S
H1874 C1887 0.930 . S
H1875 C1891 0.959 . S
H1876 C1891 0.959 . S
H1877 C1891 0.961 . S
H1878 C1892 0.960 . S
H1879 C1892 0.961 . S
H1880 C1892 0.959 . S
H1881 C1895 0.929 . S
H1882 C1896 0.931 . S
H1883 C1898 0.930 . S
C1884 H1872 0.930 . S
C1884 C1885 1.399 . S
C1884 C1889 1.399 . S
C1885 C1884 1.399 . S
C1885 C1886 1.376 . S
C1886 H1873 0.930 . S
C1886 C1885 1.376 . S
C1886 C1887 1.388 . S
C1887 H1874 0.930 . S
C1887 C1886 1.388 . S
C1887 C1888 1.390 . S
C1888 C1887 1.390 . S
C1888 C1889 1.394 . S
C1888 C1894 1.465 . S
C1889 C1884 1.399 . S
C1889 C1888 1.394 . S
C1889 C1890 1.516 . S
C1890 C1889 1.516 . S
C1890 C1891 1.502 . S
C1890 C1892 1.561 . S
C1890 C1893 1.526 . S
C1891 H1875 0.959 . S
C1891 H1876 0.959 . S
C1891 H1877 0.961 . S
C1891 C1890 1.502 . S
C1892 H1878 0.960 . S
C1892 H1879 0.961 . S
C1892 H1880 0.959 . S
C1892 C1890 1.561 . S
C1893 C1890 1.526 . S
C1893 C1894 1.396 . S
C1893 C1898 1.390 . S
C1894 C1888 1.465 . S
C1894 C1893 1.396 . S
C1894 C1895 1.399 . S
C1895 H1881 0.929 . S
C1895 C1894 1.399 . S
C1895 C1896 1.385 . S
C1896 H1882 0.931 . S
C1896 C1895 1.385 . S
C1896 C1897 1.389 . S
C1897 C1896 1.389 . S
C1897 C1898 1.387 . S
C1898 H1883 0.930 . S
C1898 C1893 1.390 . S
C1898 C1897 1.387 . S
H1899 C1911 0.930 . S
H1900 C1913 0.930 . S
H1901 C1914 0.930 . S
H1902 C1918 0.959 . S
H1903 C1918 0.959 . S
H1904 C1918 0.961 . S
H1905 C1919 0.960 . S
H1906 C1919 0.961 . S
H1907 C1919 0.959 . S
H1908 C1922 0.929 . S
H1909 C1923 0.931 . S
H1910 C1925 0.930 . S
C1911 H1899 0.930 . S
C1911 C1912 1.399 . S
C1911 C1916 1.399 . S
C1912 C1911 1.399 . S
C1912 C1913 1.376 . S
C1913 H1900 0.930 . S
C1913 C1912 1.376 . S
C1913 C1914 1.388 . S
C1914 H1901 0.930 . S
C1914 C1913 1.388 . S
C1914 C1915 1.390 . S
C1915 C1914 1.390 . S
C1915 C1916 1.394 . S
C1915 C1921 1.465 . S
C1916 C1911 1.399 . S
C1916 C1915 1.394 . S
C1916 C1917 1.516 . S
C1917 C1916 1.516 . S
C1917 C1918 1.502 . S
C1917 C1919 1.561 . S
C1917 C1920 1.526 . S
C1918 H1902 0.959 . S
C1918 H1903 0.959 . S
C1918 H1904 0.961 . S
C1918 C1917 1.502 . S
C1919 H1905 0.960 . S
C1919 H1906 0.961 . S
C1919 H1907 0.959 . S
C1919 C1917 1.561 . S
C1920 C1917 1.526 . S
C1920 C1921 1.396 . S
C1920 C1925 1.390 . S
C1921 C1915 1.465 . S
C1921 C1920 1.396 . S
C1921 C1922 1.399 . S
C1922 H1908 0.929 . S
C1922 C1921 1.399 . S
C1922 C1923 1.385 . S
C1923 H1909 0.931 . S
C1923 C1922 1.385 . S
C1923 C1924 1.389 . S
C1924 C1923 1.389 . S
C1924 C1925 1.387 . S
C1925 H1910 0.930 . S
C1925 C1920 1.390 . S
C1925 C1924 1.387 . S
H1926 C1938 0.930 . S
H1927 C1940 0.930 . S
H1928 C1941 0.930 . S
H1929 C1945 0.959 . S
H1930 C1945 0.959 . S
H1931 C1945 0.961 . S
H1932 C1946 0.960 . S
H1933 C1946 0.961 . S
H1934 C1946 0.959 . S
H1935 C1949 0.929 . S
H1936 C1950 0.931 . S
H1937 C1952 0.930 . S
C1938 H1926 0.930 . S
C1938 C1939 1.399 . S
C1938 C1943 1.399 . S
C1939 C1938 1.399 . S
C1939 C1940 1.376 . S
C1940 H1927 0.930 . S
C1940 C1939 1.376 . S
C1940 C1941 1.388 . S
C1941 H1928 0.930 . S
C1941 C1940 1.388 . S
C1941 C1942 1.390 . S
C1942 C1941 1.390 . S
C1942 C1943 1.394 . S
C1942 C1948 1.465 . S
C1943 C1938 1.399 . S
C1943 C1942 1.394 . S
C1943 C1944 1.516 . S
C1944 C1943 1.516 . S
C1944 C1945 1.502 . S
C1944 C1946 1.561 . S
C1944 C1947 1.526 . S
C1945 H1929 0.959 . S
C1945 H1930 0.959 . S
C1945 H1931 0.961 . S
C1945 C1944 1.502 . S
C1946 H1932 0.960 . S
C1946 H1933 0.961 . S
C1946 H1934 0.959 . S
C1946 C1944 1.561 . S
C1947 C1944 1.526 . S
C1947 C1948 1.396 . S
C1947 C1952 1.390 . S
C1948 C1942 1.465 . S
C1948 C1947 1.396 . S
C1948 C1949 1.399 . S
C1949 H1935 0.929 . S
C1949 C1948 1.399 . S
C1949 C1950 1.385 . S
C1950 H1936 0.931 . S
C1950 C1949 1.385 . S
C1950 C1951 1.389 . S
C1951 C1950 1.389 . S
C1951 C1952 1.387 . S
C1952 H1937 0.930 . S
C1952 C1947 1.390 . S
C1952 C1951 1.387 . S
H1953 C1965 0.930 1_655 S
H1954 C1967 0.930 . S
H1955 C1968 0.930 . S
H1956 C1972 0.959 1_455 S
H1957 C1972 0.959 . S
H1958 C1972 0.961 . S
H1959 C1973 0.960 . S
H1960 C1973 0.961 . S
H1961 C1973 0.959 . S
H1962 C1976 0.929 . S
H1963 C1977 0.931 . S
H1964 C1979 0.930 . S
C1965 H1953 0.930 1_455 S
C1965 C1966 1.399 . S
C1965 C1970 1.399 . S
C1966 C1965 1.399 . S
C1966 C1967 1.376 . S
C1967 H1954 0.930 . S
C1967 C1966 1.376 . S
C1967 C1968 1.388 . S
C1968 H1955 0.930 . S
C1968 C1967 1.388 . S
C1968 C1969 1.390 . S
C1969 C1968 1.390 . S
C1969 C1970 1.394 . S
C1969 C1975 1.465 . S
C1970 C1965 1.399 . S
C1970 C1969 1.394 . S
C1970 C1971 1.516 1_455 S
C1971 C1970 1.516 1_655 S
C1971 C1972 1.502 . S
C1971 C1973 1.561 . S
C1971 C1974 1.534 1_655 S
C1972 H1956 0.959 1_655 S
C1972 H1957 0.959 . S
C1972 H1958 0.961 . S
C1972 C1971 1.502 . S
C1973 H1959 0.960 . S
C1973 H1960 0.961 . S
C1973 H1961 0.959 . S
C1973 C1971 1.561 . S
C1974 C1971 1.534 1_455 S
C1974 C1975 1.424 . S
C1974 C1979 1.361 1_455 S
C1975 C1969 1.465 . S
C1975 C1974 1.424 . S
C1975 C1976 1.399 . S
C1976 H1962 0.929 . S
C1976 C1975 1.399 . S
C1976 C1977 1.385 . S
C1977 H1963 0.931 . S
C1977 C1976 1.385 . S
C1977 C1978 1.389 . S
C1978 C1977 1.389 . S
C1978 C1979 1.387 1_455 S
C1979 H1964 0.930 . S
C1979 C1974 1.361 1_655 S
C1979 C1978 1.387 1_655 S
H1980 C1992 0.930 . S
H1981 C1994 0.930 . S
H1982 C1995 0.930 . S
H1983 C1999 0.959 . S
H1984 C1999 0.959 . S
H1985 C1999 0.961 . S
H1986 C2000 0.960 . S
H1987 C2000 0.961 . S
H1988 C2000 0.959 . S
H1989 C2003 0.929 . S
H1990 C2004 0.931 . S
H1991 C2006 0.930 . S
C1992 H1980 0.930 . S
C1992 C1993 1.399 . S
C1992 C1997 1.399 . S
C1993 C1992 1.399 . S
C1993 C1994 1.376 . S
C1994 H1981 0.930 . S
C1994 C1993 1.376 . S
C1994 C1995 1.388 . S
C1995 H1982 0.930 . S
C1995 C1994 1.388 . S
C1995 C1996 1.390 . S
C1996 C1995 1.390 . S
C1996 C1997 1.394 . S
C1996 C2002 1.465 . S
C1997 C1992 1.399 . S
C1997 C1996 1.394 . S
C1997 C1998 1.516 . S
C1998 C1997 1.516 . S
C1998 C1999 1.502 . S
C1998 C2000 1.561 . S
C1998 C2001 1.526 . S
C1999 H1983 0.959 . S
C1999 H1984 0.959 . S
C1999 H1985 0.961 . S
C1999 C1998 1.502 . S
C2000 H1986 0.960 . S
C2000 H1987 0.961 . S
C2000 H1988 0.959 . S
C2000 C1998 1.561 . S
C2001 C1998 1.526 . S
C2001 C2002 1.396 . S
C2001 C2006 1.390 . S
C2002 C1996 1.465 . S
C2002 C2001 1.396 . S
C2002 C2003 1.399 . S
C2003 H1989 0.929 . S
C2003 C2002 1.399 . S
C2003 C2004 1.385 . S
C2004 H1990 0.931 . S
C2004 C2003 1.385 . S
C2004 C2005 1.389 . S
C2005 C2004 1.389 . S
C2005 C2006 1.387 . S
C2006 H1991 0.930 . S
C2006 C2001 1.390 . S
C2006 C2005 1.387 . S
H2007 C2019 0.930 . S
H2008 C2021 0.930 . S
H2009 C2022 0.930 . S
H2010 C2026 0.959 . S
H2011 C2026 0.959 . S
H2012 C2026 0.961 . S
H2013 C2027 0.960 . S
H2014 C2027 0.961 . S
H2015 C2027 0.959 . S
H2016 C2030 0.929 . S
H2017 C2031 0.931 . S
H2018 C2033 0.930 . S
C2019 H2007 0.930 . S
C2019 C2020 1.399 . S
C2019 C2024 1.399 . S
C2020 C2019 1.399 . S
C2020 C2021 1.376 1_565 S
C2021 H2008 0.930 . S
C2021 C2020 1.376 1_545 S
C2021 C2022 1.388 . S
C2022 H2009 0.930 . S
C2022 C2021 1.388 . S
C2022 C2023 1.390 . S
C2023 C2022 1.390 . S
C2023 C2024 1.394 1_545 S
C2023 C2029 1.465 . S
C2024 C2019 1.399 . S
C2024 C2023 1.394 1_565 S
C2024 C2025 1.516 . S
C2025 C2024 1.516 . S
C2025 C2026 1.502 . S
C2025 C2027 1.561 . S
C2025 C2028 1.526 . S
C2026 H2010 0.959 . S
C2026 H2011 0.959 . S
C2026 H2012 0.961 . S
C2026 C2025 1.502 . S
C2027 H2013 0.960 . S
C2027 H2014 0.961 . S
C2027 H2015 0.959 . S
C2027 C2025 1.561 . S
C2028 C2025 1.526 . S
C2028 C2029 1.396 1_565 S
C2028 C2033 1.390 . S
C2029 C2023 1.465 . S
C2029 C2028 1.396 1_545 S
C2029 C2030 1.399 . S
C2030 H2016 0.929 . S
C2030 C2029 1.399 . S
C2030 C2031 1.385 . S
C2031 H2017 0.931 . S
C2031 C2030 1.385 . S
C2031 C2032 1.389 1_545 S
C2032 C2031 1.389 1_565 S
C2032 C2033 1.387 . S
C2033 H2018 0.930 . S
C2033 C2028 1.390 . S
C2033 C2032 1.387 . S
H2034 C2046 0.930 . S
H2035 C2048 0.930 . S
H2036 C2049 0.930 . S
H2037 C2053 0.959 . S
H2038 C2053 0.959 . S
H2039 C2053 0.961 . S
H2040 C2054 0.960 . S
H2041 C2054 0.961 . S
H2042 C2054 0.959 . S
H2043 C2057 0.929 . S
H2044 C2058 0.931 . S
H2045 C2060 0.930 . S
C2046 H2034 0.930 . S
C2046 C2047 1.399 . S
C2046 C2051 1.399 . S
C2047 C2046 1.399 . S
C2047 C2048 1.376 1_565 S
C2048 H2035 0.930 . S
C2048 C2047 1.376 1_545 S
C2048 C2049 1.388 . S
C2049 H2036 0.930 . S
C2049 C2048 1.388 . S
C2049 C2050 1.390 . S
C2050 C2049 1.390 . S
C2050 C2051 1.394 1_545 S
C2050 C2056 1.465 . S
C2051 C2046 1.399 . S
C2051 C2050 1.394 1_565 S
C2051 C2052 1.516 . S
C2052 C2051 1.516 . S
C2052 C2053 1.502 . S
C2052 C2054 1.561 . S
C2052 C2055 1.526 . S
C2053 H2037 0.959 . S
C2053 H2038 0.959 . S
C2053 H2039 0.961 . S
C2053 C2052 1.502 . S
C2054 H2040 0.960 . S
C2054 H2041 0.961 . S
C2054 H2042 0.959 . S
C2054 C2052 1.561 . S
C2055 C2052 1.526 . S
C2055 C2056 1.396 1_565 S
C2055 C2060 1.390 . S
C2056 C2050 1.465 . S
C2056 C2055 1.396 1_545 S
C2056 C2057 1.399 . S
C2057 H2043 0.929 . S
C2057 C2056 1.399 . S
C2057 C2058 1.385 . S
C2058 H2044 0.931 . S
C2058 C2057 1.385 . S
C2058 C2059 1.389 . S
C2059 C2058 1.389 . S
C2059 C2060 1.387 1_545 S
C2060 H2045 0.930 . S
C2060 C2055 1.390 . S
C2060 C2059 1.387 1_565 S
H2061 C2073 0.930 . S
H2062 C2075 0.930 . S
H2063 C2076 0.930 . S
H2064 C2080 0.959 . S
H2065 C2080 0.959 . S
H2066 C2080 0.961 . S
H2067 C2081 0.960 . S
H2068 C2081 0.961 . S
H2069 C2081 0.959 . S
H2070 C2084 0.929 . S
H2071 C2085 0.931 . S
H2072 C2087 0.930 . S
C2073 H2061 0.930 . S
C2073 C2074 1.399 . S
C2073 C2078 1.399 . S
C2074 C2073 1.399 . S
C2074 C2075 1.376 . S
C2075 H2062 0.930 . S
C2075 C2074 1.376 . S
C2075 C2076 1.388 . S
C2076 H2063 0.930 . S
C2076 C2075 1.388 . S
C2076 C2077 1.390 . S
C2077 C2076 1.390 . S
C2077 C2078 1.394 . S
C2077 C2083 1.465 . S
C2078 C2073 1.399 . S
C2078 C2077 1.394 . S
C2078 C2079 1.516 1_455 S
C2079 C2078 1.516 1_655 S
C2079 C2080 1.502 1_655 S
C2079 C2081 1.561 . S
C2079 C2082 1.526 1_655 S
C2080 H2064 0.959 . S
C2080 H2065 0.959 . S
C2080 H2066 0.961 . S
C2080 C2079 1.502 1_455 S
C2081 H2067 0.960 . S
C2081 H2068 0.961 . S
C2081 H2069 0.959 . S
C2081 C2079 1.561 . S
C2082 C2079 1.526 1_455 S
C2082 C2083 1.396 . S
C2082 C2087 1.390 1_455 S
C2083 C2077 1.465 . S
C2083 C2082 1.396 . S
C2083 C2084 1.399 . S
C2084 H2070 0.929 . S
C2084 C2083 1.399 . S
C2084 C2085 1.385 . S
C2085 H2071 0.931 . S
C2085 C2084 1.385 . S
C2085 C2086 1.387 . S
C2086 C2085 1.387 . S
C2086 C2087 1.384 1_455 S
C2087 H2072 0.930 . S
C2087 C2082 1.390 1_655 S
C2087 C2086 1.384 1_655 S
H2088 C2100 0.930 . S
H2089 C2102 0.930 . S
H2090 C2103 0.930 . S
H2091 C2107 0.959 . S
H2092 C2107 0.959 . S
H2093 C2107 0.961 . S
H2094 C2108 0.960 . S
H2095 C2108 0.961 . S
H2096 C2108 0.959 . S
H2097 C2111 0.929 . S
H2098 C2112 0.931 . S
H2099 C2114 0.930 . S
C2100 H2088 0.930 . S
C2100 C2101 1.399 . S
C2100 C2105 1.399 . S
C2101 C2100 1.399 . S
C2101 C2102 1.376 . S
C2102 H2089 0.930 . S
C2102 C2101 1.376 . S
C2102 C2103 1.388 . S
C2103 H2090 0.930 . S
C2103 C2102 1.388 . S
C2103 C2104 1.390 . S
C2104 C2103 1.390 . S
C2104 C2105 1.394 . S
C2104 C2110 1.465 . S
C2105 C2100 1.399 . S
C2105 C2104 1.394 . S
C2105 C2106 1.516 . S
C2106 C2105 1.516 . S
C2106 C2107 1.502 . S
C2106 C2108 1.561 . S
C2106 C2109 1.526 . S
C2107 H2091 0.959 . S
C2107 H2092 0.959 . S
C2107 H2093 0.961 . S
C2107 C2106 1.502 . S
C2108 H2094 0.960 . S
C2108 H2095 0.961 . S
C2108 H2096 0.959 . S
C2108 C2106 1.561 . S
C2109 C2106 1.526 . S
C2109 C2110 1.396 . S
C2109 C2114 1.390 . S
C2110 C2104 1.465 . S
C2110 C2109 1.396 . S
C2110 C2111 1.399 . S
C2111 H2097 0.929 . S
C2111 C2110 1.399 . S
C2111 C2112 1.385 . S
C2112 H2098 0.931 . S
C2112 C2111 1.385 . S
C2112 C2113 1.389 . S
C2113 C2112 1.389 . S
C2113 C2114 1.387 . S
C2114 H2099 0.930 . S
C2114 C2109 1.390 . S
C2114 C2113 1.387 . S
H2115 C2127 0.930 . S
H2116 C2129 0.930 . S
H2117 C2130 0.930 . S
H2118 C2134 0.959 . S
H2119 C2134 0.959 . S
H2120 C2134 0.961 . S
H2121 C2135 0.960 . S
H2122 C2135 0.961 . S
H2123 C2135 0.959 . S
H2124 C2138 0.929 . S
H2125 C2139 0.931 . S
H2126 C2141 0.930 . S
C2127 H2115 0.930 . S
C2127 C2128 1.399 . S
C2127 C2132 1.399 . S
C2128 C2127 1.399 . S
C2128 C2129 1.376 . S
C2129 H2116 0.930 . S
C2129 C2128 1.376 . S
C2129 C2130 1.388 . S
C2130 H2117 0.930 . S
C2130 C2129 1.388 . S
C2130 C2131 1.390 . S
C2131 C2130 1.390 . S
C2131 C2132 1.394 . S
C2131 C2137 1.465 . S
C2132 C2127 1.399 . S
C2132 C2131 1.394 . S
C2132 C2133 1.516 . S
C2133 C2132 1.516 . S
C2133 C2134 1.502 . S
C2133 C2135 1.561 . S
C2133 C2136 1.526 . S
C2134 H2118 0.959 . S
C2134 H2119 0.959 . S
C2134 H2120 0.961 . S
C2134 C2133 1.502 . S
C2135 H2121 0.960 . S
C2135 H2122 0.961 . S
C2135 H2123 0.959 . S
C2135 C2133 1.561 . S
C2136 C2133 1.526 . S
C2136 C2137 1.396 . S
C2136 C2141 1.390 . S
C2137 C2131 1.465 . S
C2137 C2136 1.396 . S
C2137 C2138 1.399 . S
C2138 H2124 0.929 . S
C2138 C2137 1.399 . S
C2138 C2139 1.385 . S
C2139 H2125 0.931 . S
C2139 C2138 1.385 . S
C2139 C2140 1.389 . S
C2140 C2139 1.389 . S
C2140 C2141 1.387 . S
C2141 H2126 0.930 . S
C2141 C2136 1.390 . S
C2141 C2140 1.387 . S
H2142 C2154 0.930 . S
H2143 C2156 0.930 . S
H2144 C2157 0.930 . S
H2145 C2161 0.959 . S
H2146 C2161 0.959 . S
H2147 C2161 0.961 . S
H2148 C2162 0.960 . S
H2149 C2162 0.961 . S
H2150 C2162 0.959 . S
H2151 C2165 0.929 . S
H2152 C2166 0.931 . S
H2153 C2168 0.930 . S
C2154 H2142 0.930 . S
C2154 C2155 1.399 . S
C2154 C2159 1.399 . S
C2155 C2154 1.399 . S
C2155 C2156 1.376 . S
C2156 H2143 0.930 . S
C2156 C2155 1.376 . S
C2156 C2157 1.388 . S
C2157 H2144 0.930 . S
C2157 C2156 1.388 . S
C2157 C2158 1.390 . S
C2158 C2157 1.390 . S
C2158 C2159 1.394 . S
C2158 C2164 1.465 . S
C2159 C2154 1.399 . S
C2159 C2158 1.394 . S
C2159 C2160 1.516 . S
C2160 C2159 1.516 . S
C2160 C2161 1.502 . S
C2160 C2162 1.561 . S
C2160 C2163 1.526 . S
C2161 H2145 0.959 . S
C2161 H2146 0.959 . S
C2161 H2147 0.961 . S
C2161 C2160 1.502 . S
C2162 H2148 0.960 . S
C2162 H2149 0.961 . S
C2162 H2150 0.959 . S
C2162 C2160 1.561 . S
C2163 C2160 1.526 . S
C2163 C2164 1.396 . S
C2163 C2168 1.390 . S
C2164 C2158 1.465 . S
C2164 C2163 1.396 . S
C2164 C2165 1.399 . S
C2165 H2151 0.929 . S
C2165 C2164 1.399 . S
C2165 C2166 1.385 . S
C2166 H2152 0.931 . S
C2166 C2165 1.385 . S
C2166 C2167 1.389 . S
C2167 C2166 1.389 . S
C2167 C2168 1.387 . S
C2168 H2153 0.930 . S
C2168 C2163 1.390 . S
C2168 C2167 1.387 . S
H2169 C2181 0.930 . S
H2170 C2183 0.930 . S
H2171 C2184 0.930 . S
H2172 C2188 0.959 . S
H2173 C2188 0.959 . S
H2174 C2188 0.961 . S
H2175 C2189 0.960 . S
H2176 C2189 0.961 . S
H2177 C2189 0.959 . S
H2178 C2192 0.929 . S
H2179 C2193 0.931 . S
H2180 C2195 0.930 . S
C2181 H2169 0.930 . S
C2181 C2182 1.399 . S
C2181 C2186 1.399 . S
C2182 C2181 1.399 . S
C2182 C2183 1.376 . S
C2183 H2170 0.930 . S
C2183 C2182 1.376 . S
C2183 C2184 1.388 . S
C2184 H2171 0.930 . S
C2184 C2183 1.388 . S
C2184 C2185 1.390 . S
C2185 C2184 1.390 . S
C2185 C2186 1.394 . S
C2185 C2191 1.465 . S
C2186 C2181 1.399 . S
C2186 C2185 1.394 . S
C2186 C2187 1.516 . S
C2187 C2186 1.516 . S
C2187 C2188 1.502 . S
C2187 C2189 1.561 . S
C2187 C2190 1.526 . S
C2188 H2172 0.959 . S
C2188 H2173 0.959 . S
C2188 H2174 0.961 . S
C2188 C2187 1.502 . S
C2189 H2175 0.960 . S
C2189 H2176 0.961 . S
C2189 H2177 0.959 . S
C2189 C2187 1.561 . S
C2190 C2187 1.526 . S
C2190 C2191 1.396 . S
C2190 C2195 1.390 . S
C2191 C2185 1.465 . S
C2191 C2190 1.396 . S
C2191 C2192 1.399 . S
C2192 H2178 0.929 . S
C2192 C2191 1.399 . S
C2192 C2193 1.385 . S
C2193 H2179 0.931 . S
C2193 C2192 1.385 . S
C2193 C2194 1.389 . S
C2194 C2193 1.389 . S
C2194 C2195 1.387 . S
C2195 H2180 0.930 . S
C2195 C2190 1.390 . S
C2195 C2194 1.387 . S
H2196 C2208 0.930 . S
H2197 C2210 0.930 . S
H2198 C2211 0.930 . S
H2199 C2215 0.959 . S
H2200 C2215 0.959 . S
H2201 C2215 0.961 . S
H2202 C2216 0.960 . S
H2203 C2216 0.961 . S
H2204 C2216 0.959 . S
H2205 C2219 0.929 . S
H2206 C2220 0.931 . S
H2207 C2222 0.930 . S
C2208 H2196 0.930 . S
C2208 C2209 1.399 1_565 S
C2208 C2213 1.399 . S
C2209 C2208 1.399 1_545 S
C2209 C2210 1.376 . S
C2210 H2197 0.930 . S
C2210 C2209 1.376 . S
C2210 C2211 1.388 . S
C2211 H2198 0.930 . S
C2211 C2210 1.388 . S
C2211 C2212 1.390 . S
C2212 C2211 1.390 . S
C2212 C2213 1.394 1_545 S
C2212 C2218 1.465 . S
C2213 C2208 1.399 . S
C2213 C2212 1.394 1_565 S
C2213 C2214 1.516 . S
C2214 C2213 1.516 . S
C2214 C2215 1.502 . S
C2214 C2216 1.561 . S
C2214 C2217 1.526 . S
C2215 H2199 0.959 . S
C2215 H2200 0.959 . S
C2215 H2201 0.961 . S
C2215 C2214 1.502 . S
C2216 H2202 0.960 . S
C2216 H2203 0.961 . S
C2216 H2204 0.959 . S
C2216 C2214 1.561 . S
C2217 C2214 1.526 . S
C2217 C2218 1.396 1_565 S
C2217 C2222 1.390 . S
C2218 C2212 1.465 . S
C2218 C2217 1.396 1_545 S
C2218 C2219 1.399 . S
C2219 H2205 0.929 . S
C2219 C2218 1.399 . S
C2219 C2220 1.385 . S
C2220 H2206 0.931 . S
C2220 C2219 1.385 . S
C2220 C2221 1.389 . S
C2221 C2220 1.389 . S
C2221 C2222 1.387 1_545 S
C2222 H2207 0.930 . S
C2222 C2217 1.390 . S
C2222 C2221 1.387 1_565 S
H2223 C2235 0.930 . S
H2224 C2237 0.930 . S
H2225 C2238 0.930 . S
H2226 C2242 0.959 . S
H2227 C2242 0.959 . S
H2228 C2242 0.961 . S
H2229 C2243 0.960 . S
H2230 C2243 0.961 . S
H2231 C2243 0.959 . S
H2232 C2246 0.929 . S
H2233 C2247 0.931 . S
H2234 C2249 0.930 . S
C2235 H2223 0.930 . S
C2235 C2236 1.399 1_455 S
C2235 C2240 1.399 . S
C2236 C2235 1.399 1_655 S
C2236 C2237 1.376 . S
C2237 H2224 0.930 . S
C2237 C2236 1.376 . S
C2237 C2238 1.388 . S
C2238 H2225 0.930 . S
C2238 C2237 1.388 . S
C2238 C2239 1.390 . S
C2239 C2238 1.390 . S
C2239 C2240 1.394 1_655 S
C2239 C2245 1.465 . S
C2240 C2235 1.399 . S
C2240 C2239 1.394 1_455 S
C2240 C2241 1.516 . S
C2241 C2240 1.516 . S
C2241 C2242 1.502 . S
C2241 C2243 1.561 . S
C2241 C2244 1.526 . S
C2242 H2226 0.959 . S
C2242 H2227 0.959 . S
C2242 H2228 0.961 . S
C2242 C2241 1.502 . S
C2243 H2229 0.960 . S
C2243 H2230 0.961 . S
C2243 H2231 0.959 . S
C2243 C2241 1.561 . S
C2244 C2241 1.526 . S
C2244 C2245 1.396 1_455 S
C2244 C2249 1.390 . S
C2245 C2239 1.465 . S
C2245 C2244 1.396 1_655 S
C2245 C2246 1.399 . S
C2246 H2232 0.929 . S
C2246 C2245 1.399 . S
C2246 C2247 1.385 . S
C2247 H2233 0.931 . S
C2247 C2246 1.385 . S
C2247 C2248 1.389 . S
C2248 C2247 1.389 . S
C2248 C2249 1.387 1_655 S
C2249 H2234 0.930 . S
C2249 C2244 1.390 . S
C2249 C2248 1.387 1_455 S
H2250 C2262 0.930 . S
H2251 C2264 0.930 . S
H2252 C2265 0.930 . S
H2253 C2269 0.959 . S
H2254 C2269 0.959 . S
H2255 C2269 0.961 . S
H2256 C2270 0.960 . S
H2257 C2270 0.961 . S
H2258 C2270 0.959 . S
H2259 C2273 0.929 . S
H2260 C2274 0.931 . S
H2261 C2276 0.930 . S
C2262 H2250 0.930 . S
C2262 C2263 1.399 . S
C2262 C2267 1.399 . S
C2263 C2262 1.399 . S
C2263 C2264 1.376 . S
C2264 H2251 0.930 . S
C2264 C2263 1.376 . S
C2264 C2265 1.388 . S
C2265 H2252 0.930 . S
C2265 C2264 1.388 . S
C2265 C2266 1.390 . S
C2266 C2265 1.390 . S
C2266 C2267 1.394 . S
C2266 C2272 1.465 . S
C2267 C2262 1.399 . S
C2267 C2266 1.394 . S
C2267 C2268 1.516 . S
C2268 C2267 1.516 . S
C2268 C2269 1.502 . S
C2268 C2270 1.561 . S
C2268 C2271 1.526 . S
C2269 H2253 0.959 . S
C2269 H2254 0.959 . S
C2269 H2255 0.961 . S
C2269 C2268 1.502 . S
C2270 H2256 0.960 . S
C2270 H2257 0.961 . S
C2270 H2258 0.959 . S
C2270 C2268 1.561 . S
C2271 C2268 1.526 . S
C2271 C2272 1.396 . S
C2271 C2276 1.390 . S
C2272 C2266 1.465 . S
C2272 C2271 1.396 . S
C2272 C2273 1.399 . S
C2273 H2259 0.929 . S
C2273 C2272 1.399 . S
C2273 C2274 1.385 . S
C2274 H2260 0.931 . S
C2274 C2273 1.385 . S
C2274 C2275 1.389 . S
C2275 C2274 1.389 . S
C2275 C2276 1.387 . S
C2276 H2261 0.930 . S
C2276 C2271 1.390 . S
C2276 C2275 1.387 . S
H2277 C2289 0.930 . S
H2278 C2291 0.930 . S
H2279 C2292 0.930 . S
H2280 C2296 0.959 . S
H2281 C2296 0.959 . S
H2282 C2296 0.961 . S
H2283 C2297 0.960 . S
H2284 C2297 0.961 . S
H2285 C2297 0.959 . S
H2286 C2300 0.929 . S
H2287 C2301 0.931 . S
H2288 C2303 0.930 . S
C2289 H2277 0.930 . S
C2289 C2290 1.399 . S
C2289 C2294 1.399 . S
C2290 C2289 1.399 . S
C2290 C2291 1.376 . S
C2291 H2278 0.930 . S
C2291 C2290 1.376 . S
C2291 C2292 1.388 . S
C2292 H2279 0.930 . S
C2292 C2291 1.388 . S
C2292 C2293 1.390 . S
C2293 C2292 1.390 . S
C2293 C2294 1.394 . S
C2293 C2299 1.465 . S
C2294 C2289 1.399 . S
C2294 C2293 1.394 . S
C2294 C2295 1.516 . S
C2295 C2294 1.516 . S
C2295 C2296 1.502 . S
C2295 C2297 1.561 . S
C2295 C2298 1.526 . S
C2296 H2280 0.959 . S
C2296 H2281 0.959 . S
C2296 H2282 0.961 . S
C2296 C2295 1.502 . S
C2297 H2283 0.960 . S
C2297 H2284 0.961 . S
C2297 H2285 0.959 . S
C2297 C2295 1.561 . S
C2298 C2295 1.526 . S
C2298 C2299 1.396 . S
C2298 C2303 1.390 . S
C2299 C2293 1.465 . S
C2299 C2298 1.396 . S
C2299 C2300 1.399 . S
C2300 H2286 0.929 . S
C2300 C2299 1.399 . S
C2300 C2301 1.385 . S
C2301 H2287 0.931 . S
C2301 C2300 1.385 . S
C2301 C2302 1.389 . S
C2302 C2301 1.389 . S
C2302 C2303 1.387 . S
C2303 H2288 0.930 . S
C2303 C2298 1.390 . S
C2303 C2302 1.387 . S
H2304 C2316 0.930 . S
H2305 C2318 0.930 . S
H2306 C2319 0.930 . S
H2307 C2323 0.959 . S
H2308 C2323 0.959 . S
H2309 C2323 0.961 . S
H2310 C2324 0.960 . S
H2311 C2324 0.961 . S
H2312 C2324 0.959 . S
H2313 C2327 0.929 . S
H2314 C2328 0.931 . S
H2315 C2330 0.930 . S
C2316 H2304 0.930 . S
C2316 C2317 1.399 . S
C2316 C2321 1.399 . S
C2317 C2316 1.399 . S
C2317 C2318 1.376 . S
C2318 H2305 0.930 . S
C2318 C2317 1.376 . S
C2318 C2319 1.388 . S
C2319 H2306 0.930 . S
C2319 C2318 1.388 . S
C2319 C2320 1.390 . S
C2320 C2319 1.390 . S
C2320 C2321 1.394 . S
C2320 C2326 1.465 . S
C2321 C2316 1.399 . S
C2321 C2320 1.394 . S
C2321 C2322 1.516 . S
C2322 C2321 1.516 . S
C2322 C2323 1.502 . S
C2322 C2324 1.561 . S
C2322 C2325 1.526 . S
C2323 H2307 0.959 . S
C2323 H2308 0.959 . S
C2323 H2309 0.961 . S
C2323 C2322 1.502 . S
C2324 H2310 0.960 . S
C2324 H2311 0.961 . S
C2324 H2312 0.959 . S
C2324 C2322 1.561 . S
C2325 C2322 1.526 . S
C2325 C2326 1.396 . S
C2325 C2330 1.390 . S
C2326 C2320 1.465 . S
C2326 C2325 1.396 . S
C2326 C2327 1.399 . S
C2327 H2313 0.929 . S
C2327 C2326 1.399 . S
C2327 C2328 1.385 . S
C2328 H2314 0.931 . S
C2328 C2327 1.385 . S
C2328 C2329 1.389 . S
C2329 C2328 1.389 . S
C2329 C2330 1.387 . S
C2330 H2315 0.930 . S
C2330 C2325 1.390 . S
C2330 C2329 1.387 . S
H2331 C2343 0.930 . S
H2332 C2345 0.930 . S
H2333 C2346 0.930 . S
H2334 C2350 0.959 . S
H2335 C2350 0.959 . S
H2336 C2350 0.961 . S
H2337 C2351 0.960 . S
H2338 C2351 0.961 . S
H2339 C2351 0.959 . S
H2340 C2354 0.929 . S
H2341 C2355 0.931 . S
H2342 C2357 0.930 . S
C2343 H2331 0.930 . S
C2343 C2344 1.399 . S
C2343 C2348 1.399 . S
C2344 C2343 1.399 . S
C2344 C2345 1.376 . S
C2345 H2332 0.930 . S
C2345 C2344 1.376 . S
C2345 C2346 1.388 . S
C2346 H2333 0.930 . S
C2346 C2345 1.388 . S
C2346 C2347 1.390 . S
C2347 C2346 1.390 . S
C2347 C2348 1.394 . S
C2347 C2353 1.465 . S
C2348 C2343 1.399 . S
C2348 C2347 1.394 . S
C2348 C2349 1.516 . S
C2349 C2348 1.516 . S
C2349 C2350 1.502 . S
C2349 C2351 1.561 . S
C2349 C2352 1.526 . S
C2350 H2334 0.959 . S
C2350 H2335 0.959 . S
C2350 H2336 0.961 . S
C2350 C2349 1.502 . S
C2351 H2337 0.960 . S
C2351 H2338 0.961 . S
C2351 H2339 0.959 . S
C2351 C2349 1.561 . S
C2352 C2349 1.526 . S
C2352 C2353 1.396 . S
C2352 C2357 1.390 . S
C2353 C2347 1.465 . S
C2353 C2352 1.396 . S
C2353 C2354 1.399 . S
C2354 H2340 0.929 . S
C2354 C2353 1.399 . S
C2354 C2355 1.385 . S
C2355 H2341 0.931 . S
C2355 C2354 1.385 . S
C2355 C2356 1.389 . S
C2356 C2355 1.389 . S
C2356 C2357 1.387 . S
C2357 H2342 0.930 . S
C2357 C2352 1.390 . S
C2357 C2356 1.387 . S
H2358 C2370 0.930 . S
H2359 C2372 0.930 . S
H2360 C2373 0.930 . S
H2361 C2377 0.959 . S
H2362 C2377 0.959 . S
H2363 C2377 0.961 . S
H2364 C2378 0.960 . S
H2365 C2378 0.961 . S
H2366 C2378 0.959 . S
H2367 C2381 0.929 . S
H2368 C2382 0.931 . S
H2369 C2384 0.930 . S
C2370 H2358 0.930 . S
C2370 C2371 1.399 . S
C2370 C2375 1.399 . S
C2371 C2370 1.399 . S
C2371 C2372 1.376 . S
C2372 H2359 0.930 . S
C2372 C2371 1.376 . S
C2372 C2373 1.388 . S
C2373 H2360 0.930 . S
C2373 C2372 1.388 . S
C2373 C2374 1.390 . S
C2374 C2373 1.390 . S
C2374 C2375 1.394 . S
C2374 C2380 1.465 . S
C2375 C2370 1.399 . S
C2375 C2374 1.394 . S
C2375 C2376 1.516 . S
C2376 C2375 1.516 . S
C2376 C2377 1.502 . S
C2376 C2378 1.561 . S
C2376 C2379 1.526 . S
C2377 H2361 0.959 . S
C2377 H2362 0.959 . S
C2377 H2363 0.961 . S
C2377 C2376 1.502 . S
C2378 H2364 0.960 . S
C2378 H2365 0.961 . S
C2378 H2366 0.959 . S
C2378 C2376 1.561 . S
C2379 C2376 1.526 . S
C2379 C2380 1.396 . S
C2379 C2384 1.390 . S
C2380 C2374 1.465 . S
C2380 C2379 1.396 . S
C2380 C2381 1.399 . S
C2381 H2367 0.929 . S
C2381 C2380 1.399 . S
C2381 C2382 1.385 . S
C2382 H2368 0.931 . S
C2382 C2381 1.385 . S
C2382 C2383 1.389 . S
C2383 C2382 1.389 . S
C2383 C2384 1.387 . S
C2384 H2369 0.930 . S
C2384 C2379 1.390 . S
C2384 C2383 1.387 . S
H2385 C2397 0.930 . S
H2386 C2399 0.930 . S
H2387 C2400 0.930 . S
H2388 C2404 0.959 . S
H2389 C2404 0.959 . S
H2390 C2404 0.961 . S
H2391 C2405 0.960 . S
H2392 C2405 0.961 . S
H2393 C2405 0.959 . S
H2394 C2408 0.929 . S
H2395 C2409 0.931 . S
H2396 C2411 0.930 . S
C2397 H2385 0.930 . S
C2397 C2398 1.399 . S
C2397 C2402 1.399 . S
C2398 C2397 1.399 . S
C2398 C2399 1.376 . S
C2399 H2386 0.930 . S
C2399 C2398 1.376 . S
C2399 C2400 1.388 . S
C2400 H2387 0.930 . S
C2400 C2399 1.388 . S
C2400 C2401 1.390 . S
C2401 C2400 1.390 . S
C2401 C2402 1.394 . S
C2401 C2407 1.465 . S
C2402 C2397 1.399 . S
C2402 C2401 1.394 . S
C2402 C2403 1.516 . S
C2403 C2402 1.516 . S
C2403 C2404 1.502 . S
C2403 C2405 1.561 . S
C2403 C2406 1.526 . S
C2404 H2388 0.959 . S
C2404 H2389 0.959 . S
C2404 H2390 0.961 . S
C2404 C2403 1.502 . S
C2405 H2391 0.960 . S
C2405 H2392 0.961 . S
C2405 H2393 0.959 . S
C2405 C2403 1.561 . S
C2406 C2403 1.526 . S
C2406 C2407 1.396 . S
C2406 C2411 1.390 . S
C2407 C2401 1.465 . S
C2407 C2406 1.396 . S
C2407 C2408 1.399 . S
C2408 H2394 0.929 . S
C2408 C2407 1.399 . S
C2408 C2409 1.385 . S
C2409 H2395 0.931 . S
C2409 C2408 1.385 . S
C2409 C2410 1.389 . S
C2410 C2409 1.389 . S
C2410 C2411 1.387 . S
C2411 H2396 0.930 . S
C2411 C2406 1.390 . S
C2411 C2410 1.387 . S
H2412 C2424 0.930 . S
H2413 C2426 0.930 . S
H2414 C2427 0.930 . S
H2415 C2431 0.959 . S
H2416 C2431 0.959 . S
H2417 C2431 0.961 . S
H2418 C2432 0.960 . S
H2419 C2432 0.961 . S
H2420 C2432 0.959 . S
H2421 C2435 0.929 . S
H2422 C2436 0.931 . S
H2423 C2438 0.930 . S
C2424 H2412 0.930 . S
C2424 C2425 1.399 . S
C2424 C2429 1.399 . S
C2425 C2424 1.399 . S
C2425 C2426 1.376 . S
C2426 H2413 0.930 . S
C2426 C2425 1.376 . S
C2426 C2427 1.388 . S
C2427 H2414 0.930 . S
C2427 C2426 1.388 . S
C2427 C2428 1.390 . S
C2428 C2427 1.390 . S
C2428 C2429 1.394 . S
C2428 C2434 1.465 . S
C2429 C2424 1.399 . S
C2429 C2428 1.394 . S
C2429 C2430 1.516 . S
C2430 C2429 1.516 . S
C2430 C2431 1.502 . S
C2430 C2432 1.561 . S
C2430 C2433 1.526 . S
C2431 H2415 0.959 . S
C2431 H2416 0.959 . S
C2431 H2417 0.961 . S
C2431 C2430 1.502 . S
C2432 H2418 0.960 . S
C2432 H2419 0.961 . S
C2432 H2420 0.959 . S
C2432 C2430 1.561 . S
C2433 C2430 1.526 . S
C2433 C2434 1.396 . S
C2433 C2438 1.390 . S
C2434 C2428 1.465 . S
C2434 C2433 1.396 . S
C2434 C2435 1.399 . S
C2435 H2421 0.929 . S
C2435 C2434 1.399 . S
C2435 C2436 1.385 . S
C2436 H2422 0.931 . S
C2436 C2435 1.385 . S
C2436 C2437 1.389 . S
C2437 C2436 1.389 . S
C2437 C2438 1.387 . S
C2438 H2423 0.930 . S
C2438 C2433 1.390 . S
C2438 C2437 1.387 . S
H2439 C2451 0.930 . S
H2440 C2453 0.926 . S
H2441 C2454 0.930 . S
H2442 C2458 0.959 . S
H2443 C2458 0.959 . S
H2444 C2458 0.961 . S
H2445 C2459 0.960 . S
H2446 C2459 0.961 . S
H2447 C2459 0.959 . S
H2448 C2462 0.929 . S
H2449 C2463 0.931 . S
H2450 C2465 0.930 . S
C2451 H2439 0.930 . S
C2451 C2452 1.399 . S
C2451 C2456 1.399 . S
C2452 C2451 1.399 . S
C2452 C2453 1.374 1_655 S
C2453 H2440 0.926 . S
C2453 C2452 1.374 1_455 S
C2453 C2454 1.396 . S
C2454 H2441 0.930 . S
C2454 C2453 1.396 . S
C2454 C2455 1.381 . S
C2455 C2454 1.381 . S
C2455 C2456 1.390 1_455 S
C2455 C2461 1.477 . S
C2456 C2451 1.399 . S
C2456 C2455 1.390 1_655 S
C2456 C2457 1.516 . S
C2457 C2456 1.516 . S
C2457 C2458 1.502 . S
C2457 C2459 1.561 1_655 S
C2457 C2460 1.526 . S
C2458 H2442 0.959 . S
C2458 H2443 0.959 . S
C2458 H2444 0.961 . S
C2458 C2457 1.502 . S
C2459 H2445 0.960 . S
C2459 H2446 0.961 . S
C2459 H2447 0.959 . S
C2459 C2457 1.561 1_455 S
C2460 C2457 1.526 . S
C2460 C2461 1.396 1_655 S
C2460 C2465 1.390 . S
C2461 C2455 1.477 . S
C2461 C2460 1.396 1_455 S
C2461 C2462 1.399 . S
C2462 H2448 0.929 . S
C2462 C2461 1.399 . S
C2462 C2463 1.385 . S
C2463 H2449 0.931 . S
C2463 C2462 1.385 . S
C2463 C2464 1.383 . S
C2464 C2463 1.383 . S
C2464 C2465 1.377 1_455 S
C2465 H2450 0.930 . S
C2465 C2460 1.390 . S
C2465 C2464 1.377 1_655 S
H2466 C2478 0.930 . S
H2467 C2480 0.930 . S
H2468 C2481 0.930 . S
H2469 C2485 0.959 . S
H2470 C2485 0.959 . S
H2471 C2485 0.961 . S
H2472 C2486 0.960 . S
H2473 C2486 0.961 . S
H2474 C2486 0.959 . S
H2475 C2489 0.929 . S
H2476 C2490 0.931 . S
H2477 C2492 0.930 . S
C2478 H2466 0.930 . S
C2478 C2479 1.399 . S
C2478 C2483 1.399 . S
C2479 C2478 1.399 . S
C2479 C2480 1.376 . S
C2480 H2467 0.930 . S
C2480 C2479 1.376 . S
C2480 C2481 1.388 . S
C2481 H2468 0.930 . S
C2481 C2480 1.388 . S
C2481 C2482 1.390 . S
C2482 C2481 1.390 . S
C2482 C2483 1.394 . S
C2482 C2488 1.465 . S
C2483 C2478 1.399 . S
C2483 C2482 1.394 . S
C2483 C2484 1.516 . S
C2484 C2483 1.516 . S
C2484 C2485 1.502 . S
C2484 C2486 1.561 . S
C2484 C2487 1.526 . S
C2485 H2469 0.959 . S
C2485 H2470 0.959 . S
C2485 H2471 0.961 . S
C2485 C2484 1.502 . S
C2486 H2472 0.960 . S
C2486 H2473 0.961 . S
C2486 H2474 0.959 . S
C2486 C2484 1.561 . S
C2487 C2484 1.526 . S
C2487 C2488 1.396 . S
C2487 C2492 1.390 . S
C2488 C2482 1.465 . S
C2488 C2487 1.396 . S
C2488 C2489 1.399 . S
C2489 H2475 0.929 . S
C2489 C2488 1.399 . S
C2489 C2490 1.385 . S
C2490 H2476 0.931 . S
C2490 C2489 1.385 . S
C2490 C2491 1.389 . S
C2491 C2490 1.389 . S
C2491 C2492 1.387 . S
C2492 H2477 0.930 . S
C2492 C2487 1.390 . S
C2492 C2491 1.387 . S
H2493 C2505 0.930 . S
H2494 C2507 0.930 . S
H2495 C2508 0.930 . S
H2496 C2512 0.959 . S
H2497 C2512 0.959 . S
H2498 C2512 0.961 . S
H2499 C2513 0.960 . S
H2500 C2513 0.961 . S
H2501 C2513 0.959 . S
H2502 C2516 0.929 . S
H2503 C2517 0.931 . S
H2504 C2519 0.930 . S
C2505 H2493 0.930 . S
C2505 C2506 1.399 1_565 S
C2505 C2510 1.399 . S
C2506 C2505 1.399 1_545 S
C2506 C2507 1.376 . S
C2507 H2494 0.930 . S
C2507 C2506 1.376 . S
C2507 C2508 1.388 . S
C2508 H2495 0.930 . S
C2508 C2507 1.388 . S
C2508 C2509 1.390 . S
C2509 C2508 1.390 . S
C2509 C2510 1.394 1_545 S
C2509 C2515 1.465 . S
C2510 C2505 1.399 . S
C2510 C2509 1.394 1_565 S
C2510 C2511 1.516 . S
C2511 C2510 1.516 . S
C2511 C2512 1.502 . S
C2511 C2513 1.561 . S
C2511 C2514 1.526 . S
C2512 H2496 0.959 . S
C2512 H2497 0.959 . S
C2512 H2498 0.961 . S
C2512 C2511 1.502 . S
C2513 H2499 0.960 . S
C2513 H2500 0.961 . S
C2513 H2501 0.959 . S
C2513 C2511 1.561 . S
C2514 C2511 1.526 . S
C2514 C2515 1.396 1_565 S
C2514 C2519 1.390 . S
C2515 C2509 1.465 . S
C2515 C2514 1.396 1_545 S
C2515 C2516 1.399 . S
C2516 H2502 0.929 . S
C2516 C2515 1.399 . S
C2516 C2517 1.385 . S
C2517 H2503 0.931 . S
C2517 C2516 1.385 . S
C2517 C2518 1.389 . S
C2518 C2517 1.389 . S
C2518 C2519 1.387 1_545 S
C2519 H2504 0.930 . S
C2519 C2514 1.390 . S
C2519 C2518 1.387 1_565 S
C589 C9 1.515 1_655 S
C601 C421 1.479 . S
C616 C19 1.570 . S
C628 C446 1.506 . S
C655 C457 1.509 . S
C643 C33 1.580 . S
C670 C37 1.544 1_565 S
C682 C482 1.548 . S
C697 C5 1.521 . S
C709 C500 1.515 . S
C724 C23 1.577 . S
C736 C511 1.540 . S
C751 C47 1.515 . S
C763 C493 1.550 . S
C790 C518 1.571 . S
C778 C65 1.576 . S
C817 C475 1.474 1_565 S
C805 C75 1.528 . S
C832 C79 1.476 . S
C844 C464 1.460 . S
C871 C428 1.559 . S
C859 C51 1.559 1_655 S
C886 C61 1.558 . S
C898 C439 1.510 . S
C913 C93 1.633 . S
C925 C529 1.587 . S
C940 C103 1.587 . S
C952 C554 1.585 . S
C979 C565 1.596 . S
C967 C117 1.622 . S
C994 C121 1.593 . S
C1006 C266 1.598 . S
C1021 C89 1.592 . S
C1033 C284 1.584 . S
C1048 C107 1.616 . S
C1060 C295 1.542 . S
C1075 C131 1.544 . S
C1087 C277 1.560 . S
C1102 C149 1.584 . S
C1114 C302 1.537 . S
C1141 C259 1.544 . S
C1129 C159 1.553 . S
C1168 C572 1.549 . S
C1156 C163 1.562 . S
C1195 C536 1.552 . S
C1183 C135 1.596 . S
C1222 C547 1.537 . S
C1210 C145 1.591 . S
C1237 C177 1.606 . S
C1249 C313 1.582 . S
C1264 C187 1.584 . S
C1276 C338 1.529 . S
C1291 C201 1.636 . S
C1303 C349 1.557 . S
C1318 C205 1.640 . S
C1330 C374 1.589 . S
C1357 C392 1.546 . S
C1345 C173 1.610 . S
C1384 C403 1.606 . S
C1372 C191 1.635 . S
C1411 C385 1.572 . S
C1399 C215 1.610 . S
C1438 C410 1.558 . S
C1426 C233 1.607 . S
C1453 C243 1.561 . S
C1465 C367 1.541 . S
C1492 C356 1.508 . S
C1480 C247 1.542 . S
C1507 C219 1.598 . S
C1519 C320 1.553 . S
C1546 C331 1.560 . S
C1534 C229 1.559 . S
C1573 C268 1.410 . S
C1561 C11 1.495 . S
C1588 C14 1.440 . S
C1600 C286 1.406 . S
C1627 C296 1.505 . S
C1615 C28 1.537 . S
C1654 C314 1.416 . S
C1642 C39 1.518 . S
C1681 C340 1.433 . S
C1669 C0 1.479 . S
C1708 C350 1.399 . S
C1696 C25 1.418 . S
C1723 C42 1.559 . S
C1735 C358 1.438 . S
C1750 C67 1.490 . S
C1762 C322 1.443 . S
C1777 C70 1.479 . S
C1789 C332 1.449 . S
C1804 C81 1.496 . S
C1816 C278 1.450 . S
C1843 C304 1.418 . S
C1831 C53 1.545 . S
C1858 C56 1.512 . S
C1870 C260 1.480 . S
C1897 C376 1.421 . S
C1885 C95 1.463 . S
C1912 C98 1.500 . S
C1924 C394 1.432 . S
C1939 C112 1.577 . S
C1951 C404 1.546 . S
C1978 C422 1.440 . S
C1966 C123 1.446 . S
C1993 C84 1.500 . S
C2005 C448 1.463 . S
C2020 C109 1.429 . S
C2032 C458 1.336 . S
C2047 C126 1.501 . S
C2059 C466 1.467 1_545 S
C2074 C151 1.457 . S
C2086 C430 1.337 . S
C2113 C440 1.377 . S
C2101 C154 1.492 . S
C2128 C165 1.477 . S
C2140 C386 1.432 . S
C2155 C137 1.569 . S
C2167 C412 1.525 . S
C2194 C368 1.477 . S
C2182 C140 1.563 . S
C2221 C484 1.413 . S
C2209 C179 1.419 . S
C2236 C182 1.411 . S
C2248 C502 1.394 . S
C2263 C196 1.513 . S
C2275 C512 1.459 . S
C2302 C530 1.405 . S
C2290 C207 1.506 . S
C2329 C556 1.482 . S
C2317 C168 1.513 . S
C2344 C193 1.510 . S
C2356 C566 1.419 . S
C2371 C210 1.564 . S
C2383 C574 1.518 . S
C2398 C235 1.568 . S
C2410 C538 1.430 . S
C2437 C548 1.489 . S
C2425 C238 1.538 . S
C2464 C494 1.301 . S
C2452 C249 1.422 . S
C2491 C520 1.484 . S
C2479 C221 1.526 . S
C2506 C224 1.457 . S
C2518 C476 1.398 1_545 S
