# Generated by pormake.
# Topology zzz, (3,6)-cn, num edge types: 1
# Building blocks:
#     Node 0, Type 0, BuildingBlock: BELTOD_clean_linker_0, # of connection points: 3
#     Node 1, Type 0, BuildingBlock: BELTOD_clean_linker_0, # of connection points: 3
#     Node 2, Type 0, BuildingBlock: BELTOD_clean_linker_0, # of connection points: 3
#     Node 3, Type 0, BuildingBlock: BELTOD_clean_linker_0, # of connection points: 3
#     Node 4, Type 0, BuildingBlock: BELTOD_clean_linker_0, # of connection points: 3
#     Node 5, Type 0, BuildingBlock: BELTOD_clean_linker_0, # of connection points: 3
#     Node 6, Type 0, BuildingBlock: BELTOD_clean_linker_0, # of connection points: 3
#     Node 7, Type 0, BuildingBlock: BELTOD_clean_linker_0, # of connection points: 3
#     Node 8, Type 1, BuildingBlock: CIFDUS_clean_sbu_1, # of connection points: 6
#     Node 9, Type 1, BuildingBlock: CIFDUS_clean_sbu_1, # of connection points: 6
#     Node 10, Type 1, BuildingBlock: CIFDUS_clean_sbu_1, # of connection points: 6
#     Node 11, Type 1, BuildingBlock: CIFDUS_clean_sbu_1, # of connection points: 6
#     Edge 12, Type (0, 1), BuildingBlock: MIFKUJ_clean_linker_0, # of connection points: 2
#     Edge 13, Type (0, 1), BuildingBlock: MIFKUJ_clean_linker_0, # of connection points: 2
#     Edge 14, Type (0, 1), BuildingBlock: MIFKUJ_clean_linker_0, # of connection points: 2
#     Edge 15, Type (0, 1), BuildingBlock: MIFKUJ_clean_linker_0, # of connection points: 2
#     Edge 16, Type (0, 1), BuildingBlock: MIFKUJ_clean_linker_0, # of connection points: 2
#     Edge 17, Type (0, 1), BuildingBlock: MIFKUJ_clean_linker_0, # of connection points: 2
#     Edge 18, Type (0, 1), BuildingBlock: MIFKUJ_clean_linker_0, # of connection points: 2
#     Edge 19, Type (0, 1), BuildingBlock: MIFKUJ_clean_linker_0, # of connection points: 2
#     Edge 20, Type (0, 1), BuildingBlock: MIFKUJ_clean_linker_0, # of connection points: 2
#     Edge 21, Type (0, 1), BuildingBlock: MIFKUJ_clean_linker_0, # of connection points: 2
#     Edge 22, Type (0, 1), BuildingBlock: MIFKUJ_clean_linker_0, # of connection points: 2
#     Edge 23, Type (0, 1), BuildingBlock: MIFKUJ_clean_linker_0, # of connection points: 2
#     Edge 24, Type (0, 1), BuildingBlock: MIFKUJ_clean_linker_0, # of connection points: 2
#     Edge 25, Type (0, 1), BuildingBlock: MIFKUJ_clean_linker_0, # of connection points: 2
#     Edge 26, Type (0, 1), BuildingBlock: MIFKUJ_clean_linker_0, # of connection points: 2
#     Edge 27, Type (0, 1), BuildingBlock: MIFKUJ_clean_linker_0, # of connection points: 2
#     Edge 28, Type (0, 1), BuildingBlock: MIFKUJ_clean_linker_0, # of connection points: 2
#     Edge 29, Type (0, 1), BuildingBlock: MIFKUJ_clean_linker_0, # of connection points: 2
#     Edge 30, Type (0, 1), BuildingBlock: MIFKUJ_clean_linker_0, # of connection points: 2
#     Edge 31, Type (0, 1), BuildingBlock: MIFKUJ_clean_linker_0, # of connection points: 2
#     Edge 32, Type (0, 1), BuildingBlock: MIFKUJ_clean_linker_0, # of connection points: 2
#     Edge 33, Type (0, 1), BuildingBlock: MIFKUJ_clean_linker_0, # of connection points: 2
#     Edge 34, Type (0, 1), BuildingBlock: MIFKUJ_clean_linker_0, # of connection points: 2
#     Edge 35, Type (0, 1), BuildingBlock: MIFKUJ_clean_linker_0, # of connection points: 2
# Relax obj value: 0.285
# Max RMSD: 0.216
# Mean RMSD: 0.196
data_MOF--net-zzz--node1-CIFDUS_clean_sbu_1--node2-BELTOD_clean_linker_0--edge1-MIFKUJ_clean_linker_0
_symmetry_space_group_name_H-M    P1
_symmetry_Int_Tables_number       1
_symmetry_cell_setting            triclinic
loop_
_symmetry_equiv_pos_as_xyz
'x, y, z'
_cell_length_a     64.98212
_cell_length_b     68.60868
_cell_length_c     24.695933
_cell_angle_alpha  89.975356
_cell_angle_beta   89.977099
_cell_angle_gamma 88.310484
loop_
_atom_site_label
_atom_site_type_symbol
_atom_site_fract_x
_atom_site_fract_y
_atom_site_fract_z
_atom_type_partial_charge
P0 P 0.77112 0.57359 0.14396 0.0
H1 H 0.77559 0.54791 0.23703 0.0
H2 H 0.79852 0.54971 0.31454 0.0
H3 H 0.80797 0.61055 0.28031 0.0
H4 H 0.78466 0.60865 0.20269 0.0
H5 H 0.7467 0.54468 0.08989 0.0
H6 H 0.71309 0.5468 0.04684 0.0
H7 H 0.70207 0.60377 0.11638 0.0
H8 H 0.73638 0.60181 0.15963 0.0
H9 H 0.81234 0.58882 0.14077 0.0
H10 H 0.75745 0.59291 0.04243 0.0
O11 O 0.78123 0.55162 0.12869 0.0
H12 H 0.83189 0.60295 0.06867 0.0
H13 H 0.77733 0.60654 0.96875 0.0
C14 C 0.77888 0.57797 0.21305 0.0
C15 C 0.78188 0.56187 0.24741 0.0
C16 C 0.79514 0.56291 0.29179 0.0
C17 C 0.80562 0.58014 0.30274 0.0
C18 C 0.80059 0.59692 0.27209 0.0
C19 C 0.78706 0.5959 0.22801 0.0
C20 C 0.744 0.57297 0.12892 0.0
C21 C 0.73696 0.55743 0.09769 0.0
C22 C 0.71779 0.55868 0.07253 0.0
C23 C 0.70521 0.57546 0.07819 0.0
C24 C 0.71162 0.59067 0.11172 0.0
C25 C 0.73103 0.58947 0.13684 0.0
C26 C 0.78331 0.58996 0.09779 0.0
C27 C 0.80419 0.59369 0.10479 0.0
C28 C 0.81544 0.60186 0.06305 0.0
C29 C 0.80623 0.60563 0.01241 0.0
C30 C 0.78487 0.60366 0.00715 0.0
C31 C 0.7735 0.59577 0.04948 0.0
P32 P 0.03458 0.75935 0.18074 0.0
H33 H 0.04382 0.7633 0.29577 0.0
H34 H 0.03146 0.7868 0.36343 0.0
H35 H 0.98488 0.80807 0.25133 0.0
H36 H 0.9966 0.78383 0.18528 0.0
H37 H 0.05849 0.72591 0.14267 0.0
H38 H 0.04769 0.69605 0.0987 0.0
H39 H 0.9848 0.70914 0.14494 0.0
H40 H 0.99574 0.73896 0.19062 0.0
H41 H 0.04448 0.79809 0.1459 0.0
H42 H 0.01112 0.74976 0.08083 0.0
O43 O 0.05988 0.76033 0.19163 0.0
H44 H 0.03227 0.81837 0.07042 0.0
H45 H 0.99927 0.77011 0.00537 0.0
C46 C 0.02147 0.7721 0.23512 0.0
C47 C 0.03056 0.77263 0.28641 0.0
C48 C 0.02362 0.78629 0.32479 0.0
C49 C 0.00757 0.7998 0.31231 0.0
C50 C 0.99731 0.798 0.26246 0.0
C51 C 0.0041 0.78415 0.2244 0.0
C52 C 0.02796 0.73444 0.17077 0.0
C53 C 0.04254 0.72188 0.14603 0.0
C54 C 0.03637 0.70493 0.12046 0.0
C55 C 0.01549 0.70051 0.11857 0.0
C56 C 0.00101 0.71234 0.14636 0.0
C57 C 0.00728 0.72918 0.17294 0.0
C58 C 0.02882 0.77242 0.11929 0.0
C59 C 0.035 0.7917 0.11492 0.0
C60 C 0.02803 0.80325 0.07206 0.0
C61 C 0.01499 0.79559 0.03272 0.0
C62 C 0.00938 0.77613 0.03554 0.0
C63 C 0.01622 0.76457 0.07885 0.0
P64 P 0.73158 0.93493 0.15685 0.0
H65 H 0.73153 0.95445 0.26146 0.0
H66 H 0.70787 0.95173 0.3376 0.0
H67 H 0.68643 0.89753 0.27274 0.0
H68 H 0.7105 0.90013 0.19717 0.0
H69 H 0.75859 0.96217 0.10569 0.0
H70 H 0.79215 0.95802 0.06334 0.0
H71 H 0.79782 0.89952 0.12639 0.0
H72 H 0.76369 0.90373 0.17006 0.0
H73 H 0.6882 0.93126 0.13796 0.0
H74 H 0.7446 0.91127 0.06069 0.0
O75 O 0.72407 0.9583 0.15021 0.0
H76 H 0.66855 0.91806 0.06411 0.0
H77 H 0.72483 0.89808 0.98588 0.0
C78 C 0.7225 0.92776 0.22289 0.0
C79 C 0.72244 0.94152 0.26482 0.0
C80 C 0.70875 0.94 0.30829 0.0
C81 C 0.69485 0.92467 0.31048 0.0
C82 C 0.6966 0.90975 0.27153 0.0
C83 C 0.71052 0.91116 0.22847 0.0
C84 C 0.75876 0.93341 0.14223 0.0
C85 C 0.76721 0.94866 0.11253 0.0
C86 C 0.78635 0.94625 0.08775 0.0
C87 C 0.79739 0.92849 0.09168 0.0
C88 C 0.78948 0.91337 0.12316 0.0
C89 C 0.7702 0.91585 0.14856 0.0
C90 C 0.71782 0.92218 0.10536 0.0
C91 C 0.69634 0.92349 0.1059 0.0
C92 C 0.68511 0.91568 0.06376 0.0
C93 C 0.69516 0.90667 0.01948 0.0
C94 C 0.71672 0.90471 0.01982 0.0
C95 C 0.728 0.91238 0.06263 0.0
P96 P 0.45681 0.74481 0.18111 0.0
H97 H 0.45062 0.7416 0.29761 0.0
H98 H 0.46484 0.71876 0.3647 0.0
H99 H 0.50681 0.69498 0.24406 0.0
H100 H 0.49334 0.7185 0.17852 0.0
H101 H 0.43527 0.77931 0.14167 0.0
H102 H 0.44846 0.80841 0.09849 0.0
H103 H 0.50983 0.79244 0.15196 0.0
H104 H 0.49652 0.76331 0.19638 0.0
H105 H 0.43946 0.70981 0.13636 0.0
H106 H 0.48446 0.75157 0.08812 0.0
O107 O 0.43171 0.74504 0.19553 0.0
H108 H 0.44907 0.68955 0.05835 0.0
H109 H 0.49418 0.73123 0.0111 0.0
C110 C 0.47052 0.73137 0.23285 0.0
C111 C 0.46322 0.73177 0.28611 0.0
C112 C 0.47125 0.71856 0.32422 0.0
C113 C 0.4866 0.70463 0.30942 0.0
C114 C 0.49501 0.70543 0.25702 0.0
C115 C 0.48714 0.71881 0.21919 0.0
C116 C 0.46489 0.76933 0.17269 0.0
C117 C 0.45137 0.78256 0.14675 0.0
C118 C 0.4589 0.79907 0.12176 0.0
C119 C 0.48005 0.80241 0.12215 0.0
C120 C 0.49341 0.7901 0.1519 0.0
C121 C 0.4858 0.77362 0.17755 0.0
C122 C 0.46093 0.73235 0.11784 0.0
C123 C 0.45089 0.71493 0.10822 0.0
C124 C 0.45637 0.70342 0.0637 0.0
C125 C 0.47215 0.70909 0.02866 0.0
C126 C 0.48183 0.72676 0.0374 0.0
C127 C 0.4762 0.73836 0.0816 0.0
P128 P 0.23846 0.383 0.28143 0.0
H129 H 0.23494 0.37924 0.16307 0.0
H130 H 0.2105 0.39322 0.09778 0.0
H131 H 0.18421 0.42997 0.22388 0.0
H132 H 0.20962 0.41685 0.28745 0.0
H133 H 0.27673 0.36484 0.31948 0.0
H134 H 0.30553 0.37706 0.37056 0.0
H135 H 0.2812 0.43596 0.35008 0.0
H136 H 0.25173 0.42328 0.30081 0.0
H137 H 0.19528 0.37322 0.29071 0.0
H138 H 0.24461 0.387 0.40001 0.0
O139 O 0.24349 0.36066 0.25723 0.0
H140 H 0.17044 0.3788 0.36312 0.0
H141 H 0.21998 0.39169 0.47307 0.0
C142 C 0.22411 0.39686 0.23041 0.0
C143 C 0.22428 0.39071 0.17625 0.0
C144 C 0.20994 0.39853 0.13903 0.0
C145 C 0.19485 0.41256 0.15519 0.0
C146 C 0.19553 0.4194 0.20907 0.0
C147 C 0.21014 0.41183 0.24589 0.0
C148 C 0.2623 0.39316 0.30481 0.0
C149 C 0.27788 0.38045 0.32446 0.0
C150 C 0.29443 0.38753 0.35405 0.0
C151 C 0.29595 0.4076 0.36481 0.0
C152 C 0.28056 0.42039 0.34347 0.0
C153 C 0.26383 0.41322 0.31425 0.0
C154 C 0.22167 0.38064 0.33904 0.0
C155 C 0.20084 0.37686 0.33068 0.0
C156 C 0.18665 0.37985 0.37246 0.0
C157 C 0.19319 0.38622 0.42363 0.0
C158 C 0.21441 0.38738 0.43364 0.0
C159 C 0.22855 0.3847 0.39159 0.0
P160 P 0.03514 0.24383 0.26469 0.0
H161 H 0.04564 0.23942 0.15071 0.0
H162 H 0.03506 0.21517 0.08447 0.0
H163 H 0.98588 0.19837 0.19028 0.0
H164 H 0.99647 0.22266 0.2569 0.0
H165 H 0.05969 0.27397 0.30876 0.0
H166 H 0.05071 0.30399 0.35488 0.0
H167 H 0.98722 0.29864 0.30603 0.0
H168 H 0.99654 0.26779 0.25999 0.0
H169 H 0.05155 0.20632 0.30027 0.0
H170 H 0.00809 0.24998 0.36025 0.0
O171 O 0.06033 0.24207 0.25158 0.0
H172 H 0.04437 0.18581 0.37816 0.0
H173 H 0.00118 0.22969 0.43867 0.0
C174 C 0.02206 0.23262 0.20908 0.0
C175 C 0.03208 0.23111 0.1589 0.0
C176 C 0.02608 0.21724 0.12111 0.0
C177 C 0.00981 0.20494 0.1328 0.0
C178 C 0.99844 0.20781 0.18058 0.0
C179 C 0.00448 0.22169 0.21851 0.0
C180 C 0.02889 0.26887 0.27991 0.0
C181 C 0.04398 0.27958 0.3058 0.0
C182 C 0.03876 0.29685 0.33246 0.0
C183 C 0.01823 0.30385 0.33405 0.0
C184 C 0.00317 0.2936 0.30565 0.0
C185 C 0.0085 0.27617 0.2786 0.0
C186 C 0.03072 0.22981 0.32479 0.0
C187 C 0.04084 0.21169 0.33079 0.0
C188 C 0.03683 0.20007 0.37559 0.0
C189 C 0.02251 0.20637 0.4151 0.0
C190 C 0.0124 0.22458 0.40909 0.0
C191 C 0.01643 0.2362 0.36415 0.0
P192 P 0.2609 0.12235 0.28152 0.0
H193 H 0.26845 0.13174 0.16742 0.0
H194 H 0.29288 0.11842 0.10099 0.0
H195 H 0.31021 0.07234 0.21285 0.0
H196 H 0.28524 0.0854 0.2782 0.0
H197 H 0.22705 0.14087 0.33906 0.0
H198 H 0.19771 0.12826 0.38737 0.0
H199 H 0.21201 0.07068 0.32426 0.0
H200 H 0.24191 0.08355 0.27665 0.0
H201 H 0.29331 0.14763 0.32071 0.0
H202 H 0.26456 0.09473 0.37117 0.0
O203 O 0.25726 0.14563 0.26325 0.0
H204 H 0.31827 0.14382 0.39451 0.0
H205 H 0.28945 0.09051 0.44295 0.0
C206 C 0.27498 0.10966 0.22808 0.0
C207 C 0.27715 0.11851 0.17725 0.0
C208 C 0.29139 0.11099 0.13943 0.0
C209 C 0.30389 0.09444 0.15159 0.0
C210 C 0.30085 0.08502 0.20161 0.0
C211 C 0.28652 0.09251 0.23929 0.0
C212 C 0.23639 0.11328 0.30301 0.0
C213 C 0.22352 0.12564 0.33408 0.0
C214 C 0.20671 0.11836 0.36201 0.0
C215 C 0.20235 0.09841 0.35987 0.0
C216 C 0.21496 0.08609 0.32729 0.0
C217 C 0.23188 0.09346 0.29922 0.0
C218 C 0.27698 0.12157 0.34068 0.0
C219 C 0.29207 0.13546 0.34832 0.0
C220 C 0.30635 0.13322 0.3904 0.0
C221 C 0.30589 0.11686 0.42477 0.0
C222 C 0.29005 0.10354 0.41831 0.0
C223 C 0.27581 0.10585 0.37664 0.0
P224 P 0.47378 0.25987 0.26704 0.0
H225 H 0.46082 0.2629 0.15461 0.0
H226 H 0.46875 0.28679 0.08494 0.0
H227 H 0.51866 0.30738 0.18288 0.0
H228 H 0.51073 0.28326 0.25253 0.0
H229 H 0.45121 0.22571 0.29534 0.0
H230 H 0.46177 0.19733 0.34791 0.0
H231 H 0.52553 0.21164 0.32694 0.0
H232 H 0.51477 0.24034 0.27292 0.0
H233 H 0.46452 0.30036 0.29167 0.0
H234 H 0.49294 0.25101 0.3746 0.0
O235 O 0.44831 0.26032 0.25789 0.0
H236 H 0.47154 0.32086 0.37013 0.0
H237 H 0.50059 0.2717 0.45159 0.0
C238 C 0.48488 0.27161 0.2092 0.0
C239 C 0.47389 0.2721 0.16043 0.0
C240 C 0.47832 0.28588 0.12082 0.0
C241 C 0.49394 0.29929 0.12921 0.0
C242 C 0.50644 0.29731 0.17549 0.0
C243 C 0.50193 0.28351 0.21529 0.0
C244 C 0.4822 0.23518 0.28025 0.0
C245 C 0.46752 0.2224 0.29974 0.0
C246 C 0.47355 0.20631 0.33065 0.0
C247 C 0.49439 0.20273 0.34293 0.0
C248 C 0.50933 0.21423 0.31835 0.0
C249 C 0.50323 0.23045 0.28693 0.0
C250 C 0.47843 0.27423 0.32649 0.0
C251 C 0.47218 0.29391 0.32657 0.0
C252 C 0.4761 0.30554 0.37135 0.0
C253 C 0.48644 0.29765 0.41659 0.0
C254 C 0.49256 0.27795 0.41697 0.0
C255 C 0.48832 0.26622 0.37246 0.0
O256 O 0.00089 0.02754 0.76869 0.0
Mn257 Mn 0.99872 0.00371 0.71663 0.0
O258 O 0.97032 0.04304 0.75851 0.0
Mn259 Mn 0.95812 0.0235 0.71899 0.0
O260 O 0.99639 0.98 0.6644 0.0
O261 O 0.03006 0.00828 0.69436 0.0
Mn262 Mn 0.03704 0.98473 0.72069 0.0
O263 O 0.00373 0.98452 0.78226 0.0
O264 O 0.02584 0.96416 0.68325 0.0
O265 O 0.99246 0.02235 0.65077 0.0
O266 O 0.95865 0.0256 0.64552 0.0
O267 O 0.06087 0.99164 0.69549 0.0
O268 O 0.03677 0.98431 0.79444 0.0
C269 C 0.94865 -0.00203 0.75233 0.0
C270 C 0.98849 0.04207 0.77791 0.0
C271 C 0.00865 0.9652 0.65874 0.0
C272 C 0.05022 0.00739 0.68402 0.0
C273 C 0.01936 0.97992 0.81126 0.0
C274 C 0.97614 0.02772 0.62488 0.0
O275 O 0.96805 0.00016 0.73853 0.0
O276 O 0.93577 0.01257 0.74568 0.0
O277 O 0.51966 -0.00458 0.79798 0.0
Mn278 Mn 0.49889 0.00198 0.73428 0.0
O279 O 0.53389 0.02356 0.81505 0.0
Mn280 Mn 0.53631 0.02794 0.7422 0.0
O281 O 0.47922 0.00932 0.66951 0.0
O282 O 0.48759 0.97425 0.74818 0.0
Mn283 Mn 0.46186 0.97916 0.72701 0.0
O284 O 0.47727 0.01445 0.78858 0.0
O285 O 0.46047 0.98378 0.65451 0.0
O286 O 0.5209 0.99033 0.68088 0.0
O287 O 0.5488 0.00812 0.69977 0.0
O288 O 0.46074 0.95425 0.74514 0.0
O289 O 0.44918 -0.00294 0.7732 0.0
C290 C 0.51388 0.04597 0.70263 0.0
C291 C 0.53163 0.00585 0.82668 0.0
C292 C 0.46644 0.00024 0.64014 0.0
C293 C 0.47995 0.95689 0.7564 0.0
C294 C 0.45822 0.0108 0.79726 0.0
C295 C 0.54011 -0.0059 0.67504 0.0
O296 O 0.51061 0.02858 0.72041 0.0
O297 O 0.53191 0.05237 0.7138 0.0
O298 O 0.49558 0.51956 0.78018 0.0
Mn299 Mn 0.50096 0.50161 0.71359 0.0
O300 O 0.4627 0.52863 0.78221 0.0
Mn301 Mn 0.46031 0.52101 0.7115 0.0
O302 O 0.50749 0.48358 0.64683 0.0
O303 O 0.53157 0.50629 0.73168 0.0
Mn304 Mn 0.54389 0.48401 0.71302 0.0
O305 O 0.50125 0.47722 0.76461 0.0
O306 O 0.54153 0.48079 0.6399 0.0
O307 O 0.50171 0.52574 0.66145 0.0
O308 O 0.4696 0.53815 0.66025 0.0
O309 O 0.56485 0.49827 0.73726 0.0
O310 O 0.53346 0.46464 0.75688 0.0
C311 C 0.44945 0.49461 0.68843 0.0
C312 C 0.48037 0.52833 0.80326 0.0
C313 C 0.52382 0.47823 0.62069 0.0
C314 C 0.55023 0.51115 0.7457 0.0
C315 C 0.51522 0.46416 0.77597 0.0
C316 C 0.48812 0.53814 0.64395 0.0
O317 O 0.46946 0.49661 0.6975 0.0
O318 O 0.43706 0.50953 0.69589 0.0
O319 O 0.02331 0.4914 0.78251 0.0
Mn320 Mn 0.00185 0.5032 0.72617 0.0
O321 O 0.04825 0.51339 0.78957 0.0
Mn322 Mn 0.03806 0.53051 0.7368 0.0
O323 O 0.98074 0.5154 0.66878 0.0
O324 O 0.993 0.47472 0.71061 0.0
Mn325 Mn 0.96594 0.47815 0.71841 0.0
O326 O 0.98044 0.50784 0.78882 0.0
O327 O 0.95515 0.49441 0.66566 0.0
O328 O 0.02365 0.49933 0.66377 0.0
O329 O 0.04476 0.52451 0.66652 0.0
O330 O 0.96789 0.45298 0.70299 0.0
O331 O 0.95856 0.48369 0.78795 0.0
C332 C 0.01275 0.54903 0.75752 0.0
C333 C 0.04029 0.49729 0.80307 0.0
C334 C 0.96336 0.50997 0.6497 0.0
C335 C 0.98733 0.45673 0.70081 0.0
C336 C 0.96532 0.49883 0.80962 0.0
C337 C 0.03847 0.50918 0.64402 0.0
O338 O 0.011 0.53088 0.74286 0.0
O339 O 0.03122 0.55556 0.75534 0.0
H340 H 0.16431 0.11536 0.38086 0.0
H341 H 0.13713 0.10331 0.43917 0.0
H342 H 0.17431 0.05171 0.47381 0.0
H343 H 0.20174 0.06381 0.41615 0.0
H344 H 0.13674 0.04162 0.45411 0.0
H345 H 0.1672 0.087 0.56888 0.0
H346 H 0.18123 0.11786 0.60135 0.0
H347 H 0.12173 0.1461 0.58459 0.0
H348 H 0.10738 0.11544 0.55125 0.0
H349 H 0.09015 0.01455 0.7019 0.0
H350 H 0.11298 0.03348 0.64612 0.0
H351 H 0.0611 0.05531 0.55335 0.0
H352 H 0.03789 0.03582 0.60991 0.0
H353 H 0.1042 0.08118 0.60079 0.0
H354 H 0.0765 0.02906 0.48277 0.0
H355 H 0.06765 -0.00524 0.4675 0.0
H356 H 0.12918 0.97612 0.51035 0.0
H357 H 0.13826 0.01028 0.52677 0.0
C358 C 0.16683 0.10151 0.40117 0.0
C359 C 0.18531 0.09058 0.39353 0.0
C360 C 0.15123 0.09464 0.43465 0.0
C361 C 0.15366 0.07665 0.46142 0.0
C362 C 0.17198 0.0656 0.45352 0.0
C363 C 0.18764 0.07249 0.42015 0.0
C364 C 0.13682 0.06913 0.49617 0.0
C365 C 0.12965 0.05038 0.48596 0.0
C366 C 0.12762 0.08032 0.5385 0.0
C367 C 0.13628 0.09899 0.55672 0.0
C368 C 0.15716 0.09986 0.57135 0.0
C369 C 0.16516 0.1173 0.59012 0.0
C370 C 0.1524 0.13396 0.59481 0.0
C371 C 0.13161 0.1332 0.58076 0.0
C372 C 0.12353 0.11579 0.56192 0.0
C373 C 0.08339 0.02364 0.67031 0.0
C374 C 0.0621 0.02333 0.65931 0.0
C375 C 0.09656 0.03446 0.63844 0.0
C376 C 0.08884 0.04547 0.595 0.0
C377 C 0.0674 0.04669 0.58649 0.0
C378 C 0.0541 0.03566 0.61869 0.0
C379 C 0.1037 0.05416 0.55687 0.0
C380 C 0.11088 0.07286 0.56746 0.0
C381 C 0.1135 0.04268 0.51627 0.0
C382 C 0.10796 0.02218 0.50662 0.0
C383 C 0.08805 0.01762 0.48959 0.0
C384 C 0.08301 -0.00179 0.48056 0.0
C385 C 0.09782 0.98326 0.48811 0.0
C386 C 0.11771 0.9877 0.50462 0.0
C387 C 0.1228 0.00707 0.51377 0.0
H388 H 0.0939 0.96826 0.48102 0.0
H389 H 0.1586 0.14743 0.60951 0.0
H390 H 0.47748 0.19981 0.44269 0.0
H391 H 0.48144 0.17285 0.5064 0.0
H392 H 0.52784 0.14599 0.40332 0.0
H393 H 0.52349 0.17297 0.33838 0.0
H394 H 0.49739 0.12207 0.42283 0.0
H395 H 0.53913 0.16239 0.53266 0.0
H396 H 0.54862 0.19169 0.5836 0.0
H397 H 0.49606 0.18563 0.68697 0.0
H398 H 0.48607 0.15645 0.63623 0.0
H399 H 0.52135 0.04288 0.59716 0.0
H400 H 0.51664 0.06963 0.53383 0.0
H401 H 0.47652 0.0996 0.64803 0.0
H402 H 0.48278 0.07319 0.71347 0.0
H403 H 0.5044 0.1224 0.62259 0.0
H404 H 0.46227 0.08237 0.51073 0.0
H405 H 0.45345 0.05274 0.46037 0.0
H406 H 0.50635 0.05902 0.3585 0.0
H407 H 0.516 0.08819 0.40974 0.0
C408 C 0.48873 0.18827 0.43398 0.0
C409 C 0.49983 0.18815 0.38507 0.0
C410 C 0.49117 0.17299 0.47078 0.0
C411 C 0.5049 0.15737 0.45964 0.0
C412 C 0.5171 0.15791 0.41258 0.0
C413 C 0.51467 0.17328 0.37561 0.0
C414 C 0.5042 0.13939 0.49284 0.0
C415 C 0.49931 0.12203 0.46649 0.0
C416 C 0.50586 0.13958 0.54995 0.0
C417 C 0.51174 0.15729 0.58023 0.0
C418 C 0.52947 0.1674 0.5659 0.0
C419 C 0.53497 0.18397 0.59484 0.0
C420 C 0.52292 0.19055 0.63841 0.0
C421 C 0.50536 0.18054 0.65318 0.0
C422 C 0.49979 0.16397 0.62438 0.0
C423 C 0.5106 0.05469 0.60753 0.0
C424 C 0.50215 0.05588 0.65972 0.0
C425 C 0.50794 0.07011 0.57122 0.0
C426 C 0.49618 0.08681 0.58575 0.0
C427 C 0.48578 0.08697 0.63584 0.0
C428 C 0.48896 0.07171 0.67289 0.0
C429 C 0.49735 0.10494 0.55266 0.0
C430 C 0.50238 0.12237 0.579 0.0
C431 C 0.49576 0.10487 0.49541 0.0
C432 C 0.48993 0.08736 0.46445 0.0
C433 C 0.47212 0.0773 0.47797 0.0
C434 C 0.46695 0.06062 0.44917 0.0
C435 C 0.47923 0.05406 0.40607 0.0
C436 C 0.49681 0.06412 0.39185 0.0
C437 C 0.50218 0.0807 0.42087 0.0
H438 H 0.47513 0.04117 0.38373 0.0
H439 H 0.52721 0.20337 0.66078 0.0
H440 H 0.33611 0.39352 0.37258 0.0
H441 H 0.36327 0.40437 0.43266 0.0
H442 H 0.32236 0.44937 0.49604 0.0
H443 H 0.29475 0.43816 0.43771 0.0
H444 H 0.35958 0.46371 0.47307 0.0
H445 H 0.33383 0.41123 0.5727 0.0
H446 H 0.32239 0.37806 0.59256 0.0
H447 H 0.38323 0.35489 0.55998 0.0
H448 H 0.39499 0.38793 0.5391 0.0
H449 H 0.41538 0.47776 0.72618 0.0
H450 H 0.39115 0.45938 0.672 0.0
H451 H 0.43594 0.45436 0.54381 0.0
H452 H 0.4592 0.47473 0.59618 0.0
H453 H 0.39685 0.41956 0.60131 0.0
H454 H 0.418 0.47782 0.48785 0.0
H455 H 0.42494 0.51291 0.48248 0.0
H456 H 0.36633 0.52658 0.55567 0.0
H457 H 0.35945 0.49149 0.56343 0.0
C458 C 0.33266 0.40556 0.39972 0.0
C459 C 0.313 0.41487 0.39991 0.0
C460 C 0.34833 0.4118 0.43408 0.0
C461 C 0.3449 0.42763 0.4693 0.0
C462 C 0.32545 0.43715 0.46918 0.0
C463 C 0.30968 0.43079 0.43529 0.0
C464 C 0.36177 0.43452 0.50508 0.0
C465 C 0.36773 0.45395 0.50083 0.0
C466 C 0.37229 0.42201 0.54231 0.0
C467 C 0.36522 0.40204 0.55358 0.0
C468 C 0.34471 0.39904 0.56906 0.0
C469 C 0.33818 0.38027 0.58069 0.0
C470 C 0.35205 0.36437 0.57734 0.0
C471 C 0.37249 0.36722 0.56241 0.0
C472 C 0.3791 0.38597 0.55069 0.0
C473 C 0.42045 0.47201 0.68737 0.0
C474 C 0.43975 0.47701 0.66624 0.0
C475 C 0.40646 0.46165 0.65621 0.0
C476 C 0.41156 0.45576 0.60346 0.0
C477 C 0.43157 0.45895 0.58425 0.0
C478 C 0.44533 0.4699 0.61494 0.0
C479 C 0.39521 0.44838 0.56705 0.0
C480 C 0.38903 0.42903 0.57223 0.0
C481 C 0.38413 0.46104 0.5315 0.0
C482 C 0.38851 0.48205 0.52766 0.0
C483 C 0.40684 0.48828 0.50403 0.0
C484 C 0.41072 0.50818 0.50034 0.0
C485 C 0.39615 0.52197 0.51911 0.0
C486 C 0.37767 0.51589 0.54158 0.0
C487 C 0.37383 0.496 0.54587 0.0
H488 H 0.39913 0.53737 0.51592 0.0
H489 H 0.34698 0.34984 0.58648 0.0
H490 H 0.03975 0.33703 0.3482 0.0
H491 H 0.03519 0.36113 0.42002 0.0
H492 H 0.97971 0.33369 0.47174 0.0
H493 H 0.98475 0.30863 0.40156 0.0
H494 H 0.98168 0.37987 0.46037 0.0
H495 H 0.00758 0.32374 0.55119 0.0
H496 H 0.02929 0.29419 0.56637 0.0
H497 H 0.08328 0.32878 0.56864 0.0
H498 H 0.06189 0.35853 0.55236 0.0
H499 H 0.98666 0.4195 0.73434 0.0
H500 H 0.99397 0.39177 0.67489 0.0
H501 H 0.02533 0.42936 0.56421 0.0
H502 H 0.01689 0.45739 0.62315 0.0
H503 H 0.03205 0.37557 0.61154 0.0
H504 H 0.99882 0.43133 0.49555 0.0
H505 H 0.97231 0.4577 0.4881 0.0
H506 H 0.92638 0.41894 0.54533 0.0
H507 H 0.95282 0.39254 0.55476 0.0
C508 C 0.02652 0.33608 0.37467 0.0
C509 C 0.01282 0.32069 0.36967 0.0
C510 C 0.02394 0.3499 0.41556 0.0
C511 C 0.00736 0.3489 0.45149 0.0
C512 C 0.9927 0.33452 0.44442 0.0
C513 C 0.99551 0.32036 0.40399 0.0
C514 C 0.00614 0.36271 0.49721 0.0
C515 C 0.99263 0.3789 0.4935 0.0
C516 C 0.02013 0.36117 0.54097 0.0
C517 C 0.03316 0.34333 0.54966 0.0
C518 C 0.02411 0.32502 0.55403 0.0
C519 C 0.03635 0.30824 0.56306 0.0
C520 C 0.05766 0.3096 0.56824 0.0
C521 C 0.06677 0.32775 0.56445 0.0
C522 C 0.0546 0.34458 0.55531 0.0
C523 C 0.99599 0.4217 0.69858 0.0
C524 C 0.00107 0.44065 0.68255 0.0
C525 C 0.99993 0.40587 0.66439 0.0
C526 C 0.00941 0.40874 0.6143 0.0
C527 C 0.01739 0.42705 0.60212 0.0
C528 C 0.0131 0.44299 0.63618 0.0
C529 C 0.0085 0.39331 0.57273 0.0
C530 C 0.02133 0.37664 0.57793 0.0
C531 C 0.99348 0.39412 0.53116 0.0
C532 C 0.97787 0.41019 0.52727 0.0
C533 C 0.98317 0.42859 0.5077 0.0
C534 C 0.96814 0.4435 0.50291 0.0
C535 C 0.9477 0.44004 0.51662 0.0
C536 C 0.94225 0.42165 0.53518 0.0
C537 C 0.95726 0.40675 0.5405 0.0
H538 H 0.93607 0.45157 0.51254 0.0
H539 H 0.06711 0.2966 0.57538 0.0
H540 H 0.80088 0.91426 0.98965 0.0
H541 H 0.8295 0.91946 0.92698 0.0
H542 H 0.86461 0.94389 0.05743 0.0
H543 H 0.83581 0.93897 0.11962 0.0
H544 H 0.86053 0.96883 0.97665 0.0
H545 H 0.8807 0.90168 0.99132 0.0
H546 H 0.8785 0.8659 0.98878 0.0
H547 H 0.86136 0.86854 0.821 0.0
H548 H 0.86316 0.9044 0.82271 0.0
H549 H 0.95496 0.98615 0.85578 0.0
H550 H 0.92922 0.96915 0.90936 0.0
H551 H 0.89542 0.95691 0.76374 0.0
H552 H 0.9213 0.97364 0.71026 0.0
H553 H 0.89435 0.92643 0.8389 0.0
H554 H 0.87823 0.9921 0.82542 0.0
H555 H 0.88059 0.02785 0.82551 0.0
H556 H 0.8928 0.02705 0.99634 0.0
H557 H 0.89093 0.99119 0.99713 0.0
C558 C 0.81508 0.91998 0.00518 0.0
C559 C 0.81638 0.92602 0.05937 0.0
C560 C 0.83141 0.923 0.96939 0.0
C561 C 0.84923 0.93214 0.98738 0.0
C562 C 0.85101 0.93686 0.04257 0.0
C563 C 0.83468 0.9339 0.07821 0.0
C564 C 0.86461 0.93931 0.94795 0.0
C565 C 0.8687 0.95931 0.94832 0.0
C566 C 0.87404 0.92723 0.908 0.0
C567 C 0.87172 0.90578 0.90743 0.0
C568 C 0.8761 0.89467 0.95412 0.0
C569 C 0.87503 0.87436 0.95276 0.0
C570 C 0.86971 0.86496 0.90483 0.0
C571 C 0.86541 0.87585 0.85816 0.0
C572 C 0.86644 0.89618 0.85932 0.0
C573 C 0.94278 0.97873 0.83498 0.0
C574 C 0.94045 0.98067 0.77876 0.0
C575 C 0.92776 0.9695 0.86567 0.0
C576 C 0.9102 0.96212 0.84056 0.0
C577 C 0.90878 0.96257 0.78396 0.0
C578 C 0.9238 0.97176 0.75336 0.0
C579 C 0.89287 0.95507 0.87386 0.0
C580 C 0.88741 0.9355 0.87014 0.0
C581 C 0.88259 0.96737 0.91168 0.0
C582 C 0.88484 0.98886 0.91113 0.0
C583 C 0.88183 -0.00053 0.86284 0.0
C584 C 0.88297 0.01979 0.86278 0.0
C585 C 0.88695 0.02971 0.91085 0.0
C586 C 0.88981 0.01933 0.95908 0.0
C587 C 0.88874 -0.001 0.95935 0.0
H588 H 0.88771 0.04545 0.91078 0.0
H589 H 0.86899 0.84922 0.90379 0.0
H590 H 0.48716 0.84068 0.14052 0.0
H591 H 0.49376 0.86545 0.07122 0.0
H592 H 0.49583 0.82069 0.94831 0.0
H593 H 0.4897 0.79599 0.01779 0.0
H594 H 0.52281 0.84864 0.92569 0.0
H595 H 0.45237 0.84426 0.96736 0.0
H596 H 0.42238 0.84211 0.02794 0.0
H597 H 0.43285 0.8998 0.08723 0.0
H598 H 0.46318 0.90216 0.02762 0.0
H599 H 0.48088 0.92011 0.72166 0.0
H600 H 0.48522 0.89144 0.77856 0.0
H601 H 0.50569 0.92734 0.90984 0.0
H602 H 0.50019 0.95656 0.85325 0.0
H603 H 0.46817 0.90069 0.91943 0.0
H604 H 0.55271 0.87469 0.9081 0.0
H605 H 0.58191 0.87306 0.84424 0.0
H606 H 0.53997 0.86889 0.71083 0.0
H607 H 0.51073 0.86944 0.77402 0.0
C608 C 0.48968 0.8362 0.09893 0.0
C609 C 0.48807 0.81665 0.08397 0.0
C610 C 0.49331 0.85026 0.05944 0.0
C611 C 0.49496 0.84488 0.00462 0.0
C612 C 0.49464 0.82512 0.99033 0.0
C613 C 0.49114 0.81108 0.02985 0.0
C614 C 0.49485 0.85999 0.96193 0.0
C615 C 0.51088 0.86004 0.92402 0.0
C616 C 0.47882 0.87432 0.95882 0.0
C617 C 0.46015 0.87334 0.99332 0.0
C618 C 0.44833 0.85647 0.99347 0.0
C619 C 0.43128 0.8552 0.02765 0.0
C620 C 0.42573 0.87079 0.06149 0.0
C621 C 0.43718 0.88772 0.06101 0.0
C622 C 0.4543 0.88905 0.02699 0.0
C623 C 0.4875 0.92179 0.76161 0.0
C624 C 0.49099 0.94047 0.78242 0.0
C625 C 0.49015 0.90528 0.79401 0.0
C626 C 0.49716 0.90697 0.84729 0.0
C627 C 0.50113 0.92563 0.86795 0.0
C628 C 0.49836 0.94228 0.83547 0.0
C629 C 0.49666 0.88996 0.88415 0.0
C630 C 0.48023 0.88942 0.92098 0.0
C631 C 0.51185 0.87462 0.88428 0.0
C632 C 0.52935 0.87353 0.84561 0.0
C633 C 0.54971 0.87344 0.86511 0.0
C634 C 0.56631 0.87256 0.82905 0.0
C635 C 0.56278 0.87128 0.7734 0.0
C636 C 0.54267 0.8704 0.75384 0.0
C637 C 0.52604 0.8712 0.78979 0.0
H638 H 0.57563 0.8707 0.7455 0.0
H639 H 0.41254 0.86977 0.08802 0.0
H640 H 0.66601 0.56958 0.11181 0.0
H641 H 0.6357 0.56549 0.05383 0.0
H642 H 0.67172 0.57979 0.91331 0.0
H643 H 0.70202 0.58374 0.9713 0.0
H644 H 0.63046 0.59491 0.9086 0.0
H645 H 0.66775 0.53496 0.93647 0.0
H646 H 0.68588 0.51036 0.9931 0.0
H647 H 0.62963 0.4992 0.07741 0.0
H648 H 0.61122 0.52404 0.02182 0.0
H649 H 0.57171 0.54163 0.71055 0.0
H650 H 0.59539 0.55936 0.76695 0.0
H651 H 0.56692 0.53625 0.91007 0.0
H652 H 0.54465 0.51689 0.85292 0.0
H653 H 0.60534 0.52736 0.91145 0.0
H654 H 0.57814 0.60108 0.90652 0.0
H655 H 0.56643 0.63068 0.85727 0.0
H656 H 0.60588 0.61505 0.7237 0.0
H657 H 0.61909 0.58627 0.77434 0.0
C658 C 0.6672 0.57239 0.06878 0.0
C659 C 0.68615 0.57709 0.04582 0.0
C660 C 0.64998 0.56998 0.03568 0.0
C661 C 0.65151 0.5722 0.9792 0.0
C662 C 0.67017 0.57809 0.95673 0.0
C663 C 0.68742 0.58034 0.98977 0.0
C664 C 0.6344 0.56633 0.94338 0.0
C665 C 0.62496 0.58013 0.90899 0.0
C666 C 0.62741 0.54703 0.94344 0.0
C667 C 0.63814 0.53145 0.97528 0.0
C668 C 0.65926 0.5273 0.96721 0.0
C669 C 0.66959 0.51333 -0.00086 0.0
C670 C 0.65892 0.50325 0.0389 0.0
C671 C 0.63787 0.50704 0.0466 0.0
C672 C 0.62747 0.52106 0.01486 0.0
C673 C 0.56966 0.5413 0.75409 0.0
C674 C 0.55567 0.52848 0.77723 0.0
C675 C 0.58329 0.55158 0.78667 0.0
C676 C 0.58291 0.54966 0.84337 0.0
C677 C 0.56758 0.5382 0.86658 0.0
C678 C 0.55448 0.5274 0.83389 0.0
C679 C 0.6005 0.55619 0.87749 0.0
C680 C 0.61044 0.54228 0.91132 0.0
C681 C 0.60823 0.57531 0.87595 0.0
C682 C 0.59884 0.59112 0.84301 0.0
C683 C 0.58401 0.60382 0.86624 0.0
C684 C 0.57738 0.62061 0.83849 0.0
C685 C 0.58499 0.62449 0.78677 0.0
C686 C 0.59974 0.61188 0.76338 0.0
C687 C 0.60699 0.59546 0.79186 0.0
H688 H 0.57963 0.63739 0.76513 0.0
H689 H 0.66695 0.49246 0.06369 0.0
H690 H 0.02071 0.66139 0.13158 0.0
H691 H 0.01308 0.63598 0.0653 0.0
H692 H 0.98936 0.67996 0.95483 0.0
H693 H 0.9963 0.70527 0.02218 0.0
H694 H 0.96594 0.64872 0.95302 0.0
H695 H 0.03766 0.65996 0.93617 0.0
H696 H 0.07285 0.66442 0.97046 0.0
H697 H 0.07425 0.60617 0.0343 0.0
H698 H 0.03897 0.60144 0.00086 0.0
H699 H 0.98977 0.58077 0.7249 0.0
H700 H 0.98039 0.60794 0.78564 0.0
H701 H 0.99524 0.57165 0.92333 0.0
H702 H 0.00559 0.54511 0.86296 0.0
H703 H 0.02232 0.60208 0.902 0.0
H704 H 0.94645 0.59842 0.94889 0.0
H705 H 0.90872 0.60084 0.93792 0.0
H706 H 0.91524 0.64641 0.82024 0.0
H707 H 0.95299 0.64449 0.83175 0.0
C708 C 0.01354 0.66548 0.09348 0.0
C709 C 0.00884 0.68508 0.08182 0.0
C710 C 0.00938 0.65107 0.05548 0.0
C711 C 0.001 0.65613 0.00471 0.0
C712 C 0.99582 0.67574 0.99368 0.0
C713 C 0.99971 0.69013 0.03206 0.0
C714 C 0.99801 0.6409 0.96306 0.0
C715 C 0.97834 0.63868 0.94109 0.0
C716 C 0.01416 0.62783 0.94764 0.0
C717 C 0.03564 0.63038 0.9662 0.0
C718 C 0.04546 0.64812 0.95761 0.0
C719 C 0.06542 0.6507 0.9769 0.0
C720 C 0.07577 0.63559 0.00459 0.0
C721 C 0.06622 0.61785 0.0128 0.0
C722 C 0.04626 0.61519 0.99356 0.0
C723 C 0.98967 0.57823 0.7682 0.0
C724 C 0.99756 0.56049 0.78927 0.0
C725 C 0.98436 0.59382 0.80295 0.0
C726 C 0.98696 0.59182 0.85916 0.0
C727 C 0.99276 0.57347 0.88021 0.0
C728 C 0.99847 0.55817 0.8456 0.0
C729 C 0.98991 0.60926 0.89362 0.0
C730 C 0.00988 0.61214 0.91352 0.0
C731 C 0.97407 0.62302 0.90664 0.0
C732 C 0.95246 0.62096 0.89013 0.0
C733 C 0.93982 0.60858 0.91969 0.0
C734 C 0.91841 0.61016 0.91426 0.0
C735 C 0.90954 0.6239 0.8787 0.0
C736 C 0.9221 0.63583 0.84787 0.0
C737 C 0.94349 0.63448 0.8538 0.0
H738 H 0.89299 0.62513 0.87446 0.0
H739 H 0.0912 0.63764 0.01965 0.0
H740 H 0.98382 0.19836 0.45023 0.0
H741 H 0.97422 0.16923 0.50002 0.0
H742 H 0.03833 0.15412 0.52558 0.0
H743 H 0.04811 0.18352 0.4773 0.0
H744 H 0.01332 0.13088 0.44756 0.0
H745 H 0.01584 0.15537 0.62834 0.0
H746 H 0.00765 0.17664 0.70625 0.0
H747 H 0.94418 0.16127 0.69713 0.0
H748 H 0.95191 0.14016 0.61847 0.0
H749 H 0.00947 0.03644 0.56319 0.0
H750 H 0.01579 0.06934 0.53027 0.0
H751 H 0.95146 0.08487 0.5524 0.0
H752 H 0.94556 0.05265 0.58888 0.0
H753 H 0.97558 0.10861 0.60961 0.0
H754 H 0.97282 0.08516 0.42654 0.0
H755 H 0.9817 0.06136 0.35482 0.0
H756 H 0.04573 0.07388 0.3721 0.0
H757 H 0.03723 0.09765 0.44428 0.0
C758 C 0.99586 0.18939 0.46883 0.0
C759 C 0.01674 0.19285 0.45872 0.0
C760 C 0.99033 0.17278 0.49734 0.0
C761 C 0.00562 0.15958 0.5157 0.0
C762 C 0.02639 0.16425 0.5115 0.0
C763 C 0.03193 0.1809 0.4835 0.0
C764 C 0.00036 0.13921 0.52494 0.0
C765 C 0.00527 0.12593 0.48331 0.0
C766 C 0.98929 0.13313 0.57074 0.0
C767 C 0.98441 0.14642 0.61676 0.0
C768 C 1.00006 0.15679 0.64224 0.0
C769 C 0.99552 0.16874 0.68677 0.0
C770 C 0.97539 0.17038 0.70647 0.0
C771 C 0.95976 0.16005 0.6817 0.0
C772 C 0.96422 0.14808 0.63712 0.0
C773 C 0.99679 0.04689 0.56057 0.0
C774 C 0.97756 0.04254 0.58214 0.0
C775 C 0.00025 0.06556 0.5411 0.0
C776 C 0.98414 0.07965 0.54062 0.0
C777 C 0.96416 0.07429 0.55389 0.0
C778 C 0.96082 0.05574 0.57411 0.0
C779 C 0.98855 0.10034 0.53219 0.0
C780 C 0.98345 0.11365 0.57369 0.0
C781 C 0.99935 0.10658 0.48622 0.0
C782 C 0.0044 0.09316 0.44077 0.0
C783 C 0.98879 0.08286 0.41493 0.0
C784 C 0.99375 0.06936 0.37427 0.0
C785 C 0.01427 0.06611 0.35892 0.0
C786 C 0.02984 0.07645 0.38395 0.0
C787 C 0.02496 0.08999 0.4246 0.0
H788 H 0.01809 0.05557 0.32762 0.0
H789 H 0.97192 0.17959 0.74105 0.0
H790 H 0.30527 0.09964 0.52543 0.0
H791 H 0.33413 0.08177 0.56776 0.0
H792 H 0.37532 0.10457 0.44795 0.0
H793 H 0.34663 0.12151 0.40383 0.0
H794 H 0.37382 0.06506 0.44563 0.0
H795 H 0.37874 0.11566 0.58498 0.0
H796 H 0.36544 0.13593 0.66048 0.0
H797 H 0.35232 0.08442 0.75148 0.0
H798 H 0.36527 0.06384 0.6762 0.0
H799 H 0.47163 0.03693 0.5995 0.0
H800 H 0.44399 0.05848 0.56471 0.0
H801 H 0.40245 0.01071 0.56724 0.0
H802 H 0.42981 0.98901 0.59909 0.0
H803 H 0.40307 0.06103 0.63091 0.0
H804 H 0.38449 0.01248 0.48491 0.0
H805 H 0.39744 0.98906 0.41624 0.0
H806 H 0.43317 0.03379 0.34345 0.0
H807 H 0.42059 0.05736 0.41246 0.0
C808 C 0.32056 0.10119 0.50884 0.0
C809 C 0.32355 0.11163 0.46047 0.0
C810 C 0.33705 0.09111 0.53339 0.0
C811 C 0.35675 0.09169 0.51042 0.0
C812 C 0.36015 0.10388 0.46594 0.0
C813 C 0.3437 0.11373 0.44106 0.0
C814 C 0.37299 0.07736 0.52627 0.0
C815 C 0.38029 0.06437 0.48613 0.0
C816 C 0.38071 0.07578 0.57967 0.0
C817 C 0.37278 0.08822 0.62465 0.0
C818 C 0.37283 0.10866 0.62083 0.0
C819 C 0.36539 0.1202 0.66366 0.0
C820 C 0.35798 0.11147 0.71064 0.0
C821 C 0.35803 0.09116 0.715 0.0
C822 C 0.36542 0.07956 0.67229 0.0
C823 C 0.45688 0.03087 0.59044 0.0
C824 C 0.45294 0.01135 0.60266 0.0
C825 C 0.4411 0.04318 0.57092 0.0
C826 C 0.42137 0.03603 0.56286 0.0
C827 C 0.41774 0.01632 0.57157 0.0
C828 C 0.43352 0.00396 0.59001 0.0
C829 C 0.40415 0.0495 0.54984 0.0
C830 C 0.39653 0.062 0.59053 0.0
C831 C 0.39548 0.0502 0.49769 0.0
C832 C 0.4022 0.03644 0.45472 0.0
C833 C 0.39533 0.01722 0.45467 0.0
C834 C 0.40253 0.00394 0.41562 0.0
C835 C 0.41628 0.00988 0.37578 0.0
C836 C 0.42266 0.02916 0.37459 0.0
C837 C 0.41554 0.04246 0.41373 0.0
H838 H 0.42188 -0.00042 0.34562 0.0
H839 H 0.35223 0.12043 0.74369 0.0
H840 H 0.52478 0.30645 0.45006 0.0
H841 H 0.53346 0.33623 0.49866 0.0
H842 H 0.46897 0.34819 0.52959 0.0
H843 H 0.46028 0.31863 0.48046 0.0
H844 H 0.48738 0.37283 0.45491 0.0
H845 H 0.49917 0.34708 0.63182 0.0
H846 H 0.51424 0.32599 0.70315 0.0
H847 H 0.57434 0.34689 0.66715 0.0
H848 H 0.55972 0.36787 0.59487 0.0
H849 H 0.48943 0.46635 0.56979 0.0
H850 H 0.485 0.43341 0.53721 0.0
H851 H 0.55099 0.42372 0.53782 0.0
H852 H 0.55515 0.45626 0.57468 0.0
H853 H 0.53344 0.39732 0.59786 0.0
H854 H 0.5211 0.42227 0.41781 0.0
H855 H 0.50492 0.44545 0.35314 0.0
H856 H 0.44503 0.42662 0.3999 0.0
H857 H 0.46085 0.40342 0.46508 0.0
C858 C 0.51261 0.31496 0.4697 0.0
C859 C 0.49189 0.31067 0.46107 0.0
C860 C 0.51756 0.33189 0.49754 0.0
C861 C 0.50179 0.34442 0.51688 0.0
C862 C 0.48129 0.33864 0.51468 0.0
C863 C 0.47634 0.32186 0.48657 0.0
C864 C 0.50589 0.36517 0.52473 0.0
C865 C 0.49726 0.37823 0.48666 0.0
C866 C 0.51939 0.37193 0.56481 0.0
C867 C 0.52835 0.35886 0.60722 0.0
C868 C 0.51565 0.34697 0.63844 0.0
C869 C 0.5241 0.33509 0.67925 0.0
C870 C 0.54524 0.33504 0.68952 0.0
C871 C 0.55798 0.34689 0.65904 0.0
C872 C 0.5496 0.35879 0.61813 0.0
C873 C 0.50288 0.45734 0.56196 0.0
C874 C 0.5223 0.46344 0.57781 0.0
C875 C 0.50046 0.43853 0.54271 0.0
C876 C 0.51771 0.42596 0.53613 0.0
C877 C 0.53747 0.4331 0.54377 0.0
C878 C 0.53979 0.45182 0.56424 0.0
C879 C 0.51488 0.40492 0.52807 0.0
C880 C 0.52378 0.39182 0.56582 0.0
C881 C 0.50163 0.398 0.48766 0.0
C882 C 0.49217 0.41112 0.44627 0.0
C883 C 0.50449 0.42304 0.41415 0.0
C884 C 0.49538 0.4362 0.37748 0.0
C885 C 0.47396 0.43751 0.37241 0.0
C886 C 0.46161 0.42555 0.40375 0.0
C887 C 0.47065 0.41234 0.4404 0.0
H888 H 0.46694 0.44778 0.34421 0.0
H889 H 0.55175 0.32587 0.72122 0.0
H890 H 0.15449 0.3738 0.44928 0.0
H891 H 0.12685 0.3937 0.49081 0.0
H892 H 0.16984 0.43879 0.5248 0.0
H893 H 0.19729 0.4194 0.48278 0.0
H894 H 0.14009 0.43645 0.60341 0.0
H895 H 0.14535 0.44012 0.40917 0.0
H896 H 0.14651 0.42691 0.31633 0.0
H897 H 0.08608 0.40428 0.33698 0.0
H898 H 0.08474 0.41706 0.43038 0.0
H899 H 0.07776 0.51901 0.61883 0.0
H900 H 0.1036 0.49741 0.57798 0.0
H901 H 0.05661 0.45688 0.53634 0.0
H902 H 0.03025 0.47966 0.5728 0.0
H903 H 0.08743 0.45513 0.46564 0.0
H904 H 0.08179 0.45544 0.66051 0.0
H905 H 0.08179 0.47047 0.75102 0.0
H906 H 0.14433 0.4872 0.7287 0.0
H907 H 0.14457 0.47276 0.63723 0.0
C908 C 0.15813 0.38777 0.46671 0.0
C909 C 0.17801 0.39514 0.4618 0.0
C910 C 0.14236 0.39907 0.4905 0.0
C911 C 0.1463 0.41784 0.50965 0.0
C912 C 0.16651 0.42435 0.51005 0.0
C913 C 0.18224 0.41313 0.48616 0.0
C914 C 0.12922 0.43174 0.52233 0.0
C915 C 0.12858 0.4406 0.57339 0.0
C916 C 0.11425 0.43705 0.48296 0.0
C917 C 0.11506 0.42931 0.42694 0.0
C918 C 0.1324 0.43215 0.39409 0.0
C919 C 0.13308 0.42477 0.34135 0.0
C920 C 0.1164 0.41472 0.32082 0.0
C921 C 0.09901 0.41203 0.35298 0.0
C922 C 0.09829 0.41933 0.40583 0.0
C923 C 0.0727 0.50585 0.59934 0.0
C924 C 0.05209 0.50016 0.60258 0.0
C925 C 0.08761 0.4934 0.57654 0.0
C926 C 0.08213 0.47505 0.5574 0.0
C927 C 0.06123 0.47069 0.55302 0.0
C928 C 0.04623 0.48343 0.57472 0.0
C929 C 0.09822 0.45988 0.54682 0.0
C930 C 0.09873 0.45082 0.49604 0.0
C931 C 0.11321 0.45457 0.5864 0.0
C932 C 0.11313 0.46313 0.64172 0.0
C933 C 0.0955 0.46244 0.67468 0.0
C934 C 0.09546 0.47086 0.72622 0.0
C935 C 0.11304 0.47976 0.74572 0.0
C936 C 0.13071 0.4803 0.71358 0.0
C937 C 0.1308 0.47203 0.66182 0.0
H938 H 0.11296 0.48621 0.78572 0.0
H939 H 0.11693 0.40905 0.27994 0.0
H940 H 0.02858 0.79918 0.92957 0.0
H941 H 0.02439 0.82899 0.87526 0.0
H942 H 0.98016 0.85189 0.99095 0.0
H943 H 0.98406 0.82206 0.04435 0.0
H944 H 0.97489 0.86701 0.88388 0.0
H945 H 0.03244 0.85669 0.02248 0.0
H946 H 0.06312 0.83726 0.05182 0.0
H947 H 0.08876 0.84121 0.89207 0.0
H948 H 0.05844 0.86093 0.86221 0.0
H949 H 0.98806 0.96807 0.87768 0.0
H950 H 0.98434 0.93497 0.91346 0.0
H951 H 0.04392 0.91847 0.84689 0.0
H952 H 0.04862 0.95139 0.81809 0.0
H953 H 0.04124 0.89816 0.92214 0.0
H954 H 0.99107 0.91174 0.78088 0.0
H955 H 0.96076 0.92644 0.73423 0.0
H956 H 0.92284 0.91218 0.87062 0.0
H957 H 0.95269 0.89822 0.91786 0.0
C958 C 0.01715 0.81017 0.94147 0.0
C959 C 0.00676 0.80869 0.99092 0.0
C960 C 0.01484 0.82716 0.91076 0.0
C961 C 0.00243 0.84272 0.93021 0.0
C962 C 0.98989 0.84004 0.97561 0.0
C963 C 0.99211 0.82306 0.00606 0.0
C964 C 0.0059 0.86278 0.91221 0.0
C965 C 0.9894 0.87393 0.89161 0.0
C966 C 0.02494 0.87155 0.92153 0.0
C967 C 0.04328 0.86022 0.94025 0.0
C968 C 0.04469 0.85346 0.99382 0.0
C969 C 0.06198 0.8424 0.01047 0.0
C970 C 0.07781 0.83793 0.97378 0.0
C971 C 0.07649 0.84468 0.92046 0.0
C972 C 0.05934 0.85588 0.90374 0.0
C973 C 0.00058 0.95745 0.87284 0.0
C974 C 0.01852 0.96231 0.84503 0.0
C975 C 0.99832 0.93844 0.89215 0.0
C976 C 0.01348 0.92387 0.88096 0.0
C977 C 0.03191 0.92921 0.85631 0.0
C978 C 0.03458 0.94825 0.83972 0.0
C979 C 0.01021 0.90291 0.8921 0.0
C980 C 0.02675 0.8915 0.91264 0.0
C981 C 0.99151 0.89375 0.8798 0.0
C982 C 0.97404 0.90398 0.85289 0.0
C983 C 0.97625 0.91212 0.80103 0.0
C984 C 0.95912 0.92036 0.7744 0.0
C985 C 0.93977 0.92028 0.79911 0.0
C986 C 0.93764 0.91247 0.85105 0.0
C987 C 0.95467 0.90442 0.87789 0.0
H988 H 0.92642 0.92598 0.77768 0.0
H989 H 0.09111 0.82928 0.98669 0.0
H990 H 0.70469 0.91776 0.91654 0.0
H991 H 0.67838 0.92987 0.85385 0.0
H992 H 0.63177 0.90242 0.94932 0.0
H993 H 0.65813 0.88916 0.00974 0.0
H994 H 0.61685 0.91184 0.85177 0.0
H995 H 0.65853 0.94781 0.99437 0.0
H996 H 0.69246 0.95979 0.02214 0.0
H997 H 0.69907 0.98781 0.86777 0.0
H998 H 0.6653 0.97585 0.83915 0.0
H999 H 0.53416 0.97546 0.89958 0.0
H1000 H 0.56563 0.95653 0.92333 0.0
H1001 H 0.60146 0.99393 0.82191 0.0
H1002 H 0.57085 0.0137 0.80242 0.0
H1003 H 0.62437 0.98124 0.90385 0.0
H1004 H 0.58856 0.94767 0.75527 0.0
H1005 H 0.55537 0.93827 0.71555 0.0
H1006 H 0.53923 0.9113 0.86603 0.0
H1007 H 0.57258 0.91903 0.90442 0.0
C1008 C 0.68904 0.91309 0.92199 0.0
C1009 C 0.68316 0.90349 0.96963 0.0
C1010 C 0.67395 0.92027 0.8864 0.0
C1011 C 0.65311 0.91818 0.89939 0.0
C1012 C 0.64777 0.90479 0.93963 0.0
C1013 C 0.66287 0.8972 0.97431 0.0
C1014 C 0.63746 0.93312 0.88317 0.0
C1015 C 0.61864 0.927 0.86279 0.0
C1016 C 0.63976 0.95312 0.89619 0.0
C1017 C 0.65953 0.96091 0.91466 0.0
C1018 C 0.66723 0.95661 0.96659 0.0
C1019 C 0.68643 0.96334 0.98238 0.0
C1020 C 0.69792 0.97454 0.94673 0.0
C1021 C 0.69018 0.97912 0.89533 0.0
C1022 C 0.67102 0.9724 0.87934 0.0
C1023 C 0.54887 0.97988 0.88389 0.0
C1024 C 0.55007 -0.00401 0.84941 0.0
C1025 C 0.56677 0.96899 0.89675 0.0
C1026 C 0.58574 0.97345 0.87266 0.0
C1027 C 0.58706 0.99019 0.84085 0.0
C1028 C 0.56945 0.00145 0.82975 0.0
C1029 C 0.60363 0.95961 0.87516 0.0
C1030 C 0.62278 0.9661 0.8923 0.0
C1031 C 0.60199 0.94019 0.85741 0.0
C1032 C 0.58301 0.93358 0.83221 0.0
C1033 C 0.57799 0.93925 0.77911 0.0
C1034 C 0.5592 0.93409 0.75668 0.0
C1035 C 0.54532 0.92365 0.78755 0.0
C1036 C 0.55009 0.91866 0.84106 0.0
C1037 C 0.56909 0.92308 0.86293 0.0
H1038 H 0.5309 0.9195 0.77 0.0
H1039 H 0.7128 0.97968 0.95893 0.0
H1040 H 0.4507 0.69205 0.9482 0.0
H1041 H 0.46095 0.66179 0.90182 0.0
H1042 H 0.52124 0.66391 0.97401 0.0
H1043 H 0.51113 0.69432 0.02009 0.0
H1044 H 0.50552 0.64276 0.84463 0.0
H1045 H 0.51077 0.63723 0.0537 0.0
H1046 H 0.49781 0.64906 0.14228 0.0
H1047 H 0.43554 0.6437 0.08713 0.0
H1048 H 0.44823 0.63184 -0.00165 0.0
H1049 H 0.51729 0.54174 0.83333 0.0
H1050 H 0.52336 0.57273 0.87718 0.0
H1051 H 0.45822 0.57999 0.90785 0.0
H1052 H 0.4523 0.54844 0.86602 0.0
H1053 H 0.48218 0.5969 0.9864 0.0
H1054 H 0.47867 0.59186 0.78924 0.0
H1055 H 0.4913 0.57935 0.70136 0.0
H1056 H 0.5494 0.60597 0.7278 0.0
H1057 H 0.53692 0.61864 0.81576 0.0
C1058 C 0.46642 0.68651 0.95201 0.0
C1059 C 0.48008 0.69521 0.98795 0.0
C1060 C 0.47231 0.66938 0.92529 0.0
C1061 C 0.49177 0.66075 0.93492 0.0
C1062 C 0.50624 0.67059 0.96581 0.0
C1063 C 0.50042 0.68787 0.99218 0.0
C1064 C 0.49442 0.63971 0.92618 0.0
C1065 C 0.5009 0.6326 0.87575 0.0
C1066 C 0.48799 0.62671 0.96666 0.0
C1067 C 0.4804 0.63373 0.01977 0.0
C1068 C 0.49433 0.63861 0.06065 0.0
C1069 C 0.48704 0.64531 0.11078 0.0
C1070 C 0.46587 0.64715 0.1203 0.0
C1071 C 0.45194 0.64226 0.07972 0.0
C1072 C 0.45915 0.63553 0.02957 0.0
C1073 C 0.50451 0.54927 0.85246 0.0
C1074 C 0.48442 0.54268 0.84593 0.0
C1075 C 0.50792 0.56717 0.8767 0.0
C1076 C 0.49115 0.57878 0.89412 0.0
C1077 C 0.47133 0.57122 0.89398 0.0
C1078 C 0.46797 0.5532 0.8701 0.0
C1079 C 0.49361 0.59963 0.90496 0.0
C1080 C 0.48758 0.60682 0.95563 0.0
C1081 C 0.5005 0.61258 0.86437 0.0
C1082 C 0.5072 0.60571 0.80992 0.0
C1083 C 0.49422 0.59484 0.77666 0.0
C1084 C 0.50132 0.58774 0.72673 0.0
C1085 C 0.52128 0.5916 0.70947 0.0
C1086 C 0.53406 0.60277 0.7416 0.0
C1087 C 0.52698 0.60993 0.79135 0.0
H1088 H 0.52683 0.58623 0.67097 0.0
H1089 H 0.46025 0.65234 0.15912 0.0
H1090 H 0.80132 0.58547 0.91861 0.0
H1091 H 0.83 0.57191 0.86685 0.0
H1092 H 0.87104 0.61073 0.94696 0.0
H1093 H 0.84222 0.62505 0.99769 0.0
H1094 H 0.88251 0.59059 0.82824 0.0
H1095 H 0.86853 0.57645 0.03072 0.0
H1096 H 0.84509 0.5677 0.10511 0.0
H1097 H 0.81744 0.52496 0.00353 0.0
H1098 H 0.8411 0.53318 0.92909 0.0
H1099 H 0.97138 0.53314 0.86086 0.0
H1100 H 0.94385 0.55588 0.88967 0.0
H1101 H 0.90038 0.50979 0.87578 0.0
H1102 H 0.92782 0.4874 0.84658 0.0
H1103 H 0.88969 0.53418 0.95394 0.0
H1104 H 0.90823 0.53654 0.77199 0.0
H1105 H 0.93149 0.53817 0.69452 0.0
H1106 H 0.9453 0.59721 0.73431 0.0
H1107 H 0.92243 0.59567 0.81304 0.0
C1108 C 0.8161 0.59222 0.92256 0.0
C1109 C 0.81969 0.60582 0.96393 0.0
C1110 C 0.83255 0.58433 0.89282 0.0
C1111 C 0.85261 0.59003 0.90419 0.0
C1112 C 0.85563 0.60615 0.93772 0.0
C1113 C 0.83913 0.61423 0.96705 0.0
C1114 C 0.86968 0.57577 0.89663 0.0
C1115 C 0.88423 0.57827 0.85552 0.0
C1116 C 0.87145 0.55946 0.93148 0.0
C1117 C 0.85629 0.5556 0.97443 0.0
C1118 C 0.85729 0.56534 0.02425 0.0
C1119 C 0.84409 0.56038 0.06644 0.0
C1120 C 0.82968 0.5459 0.05891 0.0
C1121 C 0.82851 0.53626 0.00921 0.0
C1122 C 0.84186 0.54099 0.96712 0.0
C1123 C 0.95612 0.5279 0.86538 0.0
C1124 C 0.95166 0.50901 0.84873 0.0
C1125 C 0.94038 0.5408 0.88169 0.0
C1126 C 0.92004 0.53462 0.88243 0.0
C1127 C 0.916 0.51489 0.87428 0.0
C1128 C 0.93177 0.50209 0.85776 0.0
C1129 C 0.90281 0.54894 0.88587 0.0
C1130 C 0.88811 0.54642 0.9262 0.0
C1131 C 0.90051 0.56456 0.84844 0.0
C1132 C 0.91397 0.56586 0.79988 0.0
C1133 C 0.91648 0.54979 0.76496 0.0
C1134 C 0.92965 0.55069 0.72047 0.0
C1135 C 0.94021 0.56768 0.7096 0.0
C1136 C 0.9374 0.58391 0.7431 0.0
C1137 C 0.92432 0.58302 0.78787 0.0
H1138 H 0.95039 0.56837 0.67503 0.0
H1139 H 0.81955 0.54204 0.09171 0.0
H1140 H 0.03157 0.17122 0.14281 0.0
H1141 H 0.02965 0.14196 0.08636 0.0
H1142 H 0.98102 0.1697 0.99244 0.0
H1143 H 0.98278 0.19897 0.04989 0.0
H1144 H 0.9734 0.13128 0.01448 0.0
H1145 H 0.03017 0.16802 0.94529 0.0
H1146 H 0.0627 0.18532 0.955 0.0
H1147 H 0.09294 0.13271 0.01187 0.0
H1148 H 0.06049 0.11515 0.0031 0.0
H1149 H 0.9733 0.07924 0.77603 0.0
H1150 H 0.97997 0.10538 0.83954 0.0
H1151 H 0.02452 0.06843 0.92273 0.0
H1152 H 0.01802 0.04192 0.85821 0.0
H1153 H 0.03579 0.10888 0.91317 0.0
H1154 H 0.98017 0.07146 0.97784 0.0
H1155 H 0.94787 0.05376 0.96856 0.0
H1156 H 0.91585 0.10688 0.92286 0.0
H1157 H 0.94804 0.12486 0.93115 0.0
C1158 C 0.02038 0.17093 0.1103 0.0
C1159 C 0.00735 0.18719 0.10025 0.0
C1160 C 0.01935 0.1543 0.07802 0.0
C1161 C 0.00541 0.15375 0.03469 0.0
C1162 C 0.99193 0.16985 0.0256 0.0
C1163 C 0.99292 0.18651 0.05816 0.0
C1164 C 0.0053 0.13659 0.99807 0.0
C1165 C 0.98699 0.12651 0.99202 0.0
C1166 C 0.02324 0.12994 0.97011 0.0
C1167 C 0.04288 0.14032 0.97391 0.0
C1168 C 0.04374 0.16016 0.96005 0.0
C1169 C 0.06216 0.17001 0.96538 0.0
C1170 C 0.07986 0.16013 0.98414 0.0
C1171 C 0.07921 0.14035 0.99736 0.0
C1172 C 0.06082 0.13043 0.99214 0.0
C1173 C 0.98466 0.07664 0.8075 0.0
C1174 C 0.99486 0.05838 0.81274 0.0
C1175 C 0.98849 0.09164 0.8437 0.0
C1176 C 0.00242 0.08871 0.88643 0.0
C1177 C 0.01362 0.07092 0.8901 0.0
C1178 C 0.00988 0.05582 0.85334 0.0
C1179 C 0.00379 0.10388 0.92892 0.0
C1180 C 0.02229 0.11356 0.93612 0.0
C1181 C 0.98609 0.11009 0.95837 0.0
C1182 C 0.96654 0.09949 0.95487 0.0
C1183 C 0.96625 0.07936 0.96561 0.0
C1184 C 0.94797 0.06927 0.96053 0.0
C1185 C 0.92983 0.07919 0.94507 0.0
C1186 C 0.92992 0.09923 0.93486 0.0
C1187 C 0.94817 0.10938 0.93984 0.0
H1188 H 0.91569 0.07135 0.94107 0.0
H1189 H 0.0941 0.16779 0.98834 0.0
H1190 H 0.32925 0.11656 0.08854 0.0
H1191 H 0.35717 0.10542 0.0288 0.0
H1192 H 0.34495 0.04574 0.06935 0.0
H1193 H 0.31678 0.05672 0.12851 0.0
H1194 H 0.3853 0.052 0.07449 0.0
H1195 H 0.33107 0.06603 0.94632 0.0
H1196 H 0.30449 0.08597 0.89904 0.0
H1197 H 0.35023 0.12616 0.84906 0.0
H1198 H 0.37706 0.10657 0.89659 0.0
H1199 H 0.42941 -0.00336 0.86393 0.0
H1200 H 0.4063 0.01446 0.92515 0.0
H1201 H 0.43494 0.06827 0.8827 0.0
H1202 H 0.45865 0.05021 0.82107 0.0
H1203 H 0.38966 0.06904 0.87963 0.0
H1204 H 0.4444 0.05308 0.00099 0.0
H1205 H 0.47094 0.03178 0.04371 0.0
H1206 H 0.42413 -0.00542 0.10401 0.0
H1207 H 0.3973 0.01549 0.06088 0.0
C1208 C 0.33221 0.10103 0.08415 0.0
C1209 C 0.32056 0.08757 0.11348 0.0
C1210 C 0.3483 0.09468 0.04998 0.0
C1211 C 0.35317 0.07471 0.04413 0.0
C1212 C 0.34159 0.06124 0.07323 0.0
C1213 C 0.32547 0.06756 0.10729 0.0
C1214 C 0.37062 0.06778 0.00892 0.0
C1215 C 0.38612 0.05566 0.03183 0.0
C1216 C 0.37221 0.07302 0.9535 0.0
C1217 C 0.35602 0.08498 0.92572 0.0
C1218 C 0.33542 0.07924 0.92579 0.0
C1219 C 0.32032 0.09044 0.89877 0.0
C1220 C 0.32566 0.10735 0.87118 0.0
C1221 C 0.34611 0.11307 0.8705 0.0
C1222 C 0.36127 0.10192 0.89746 0.0
C1223 C 0.43098 0.01226 0.8679 0.0
C1224 C 0.4459 0.02202 0.83782 0.0
C1225 C 0.41775 0.02242 0.903 0.0
C1226 C 0.41889 0.04269 0.90867 0.0
C1227 C 0.43383 0.05261 0.87897 0.0
C1228 C 0.44745 0.0423 0.84421 0.0
C1229 C 0.404 0.0531 0.94518 0.0
C1230 C 0.38897 0.06574 0.92255 0.0
C1231 C 0.40279 0.04836 0.00083 0.0
C1232 C 0.41883 0.03581 0.02741 0.0
C1233 C 0.43976 0.04029 0.02303 0.0
C1234 C 0.45486 0.02829 0.04737 0.0
C1235 C 0.44922 0.01182 0.0765 0.0
C1236 C 0.42847 0.00734 0.08143 0.0
C1237 C 0.4133 0.01928 0.05711 0.0
H1238 H 0.46094 0.00255 0.09531 0.0
H1239 H 0.31395 0.11599 0.85021 0.0
H1240 H 0.46252 0.32317 0.09522 0.0
H1241 H 0.46421 0.35223 0.03876 0.0
H1242 H 0.53013 0.344 0.02637 0.0
H1243 H 0.52853 0.31495 0.08434 0.0
H1244 H 0.51984 0.38167 0.04259 0.0
H1245 H 0.49758 0.33164 0.92016 0.0
H1246 H 0.47521 0.30492 0.89297 0.0
H1247 H 0.42239 0.34399 0.89861 0.0
H1248 H 0.44445 0.37091 0.9263 0.0
H1249 H 0.5418 0.43547 0.81139 0.0
H1250 H 0.53525 0.40908 0.87382 0.0
H1251 H 0.47187 0.42872 0.88841 0.0
H1252 H 0.47827 0.45561 0.82513 0.0
H1253 H 0.47795 0.38716 0.87485 0.0
H1254 H 0.50088 0.43795 0.98975 0.0
H1255 H 0.52338 0.46448 0.01747 0.0
H1256 H 0.57493 0.424 0.02657 0.0
H1257 H 0.55278 0.39725 0.9982 0.0
C1258 C 0.47737 0.3274 0.07994 0.0
C1259 C 0.49537 0.31658 0.09337 0.0
C1260 C 0.47831 0.34406 0.04774 0.0
C1261 C 0.49724 0.35013 0.02739 0.0
C1262 C 0.51533 0.33955 0.04143 0.0
C1263 C 0.51442 0.32294 0.07434 0.0
C1264 C 0.49806 0.36746 0.99134 0.0
C1265 C 0.51085 0.38275 0.00565 0.0
C1266 C 0.48581 0.36922 0.94398 0.0
C1267 C 0.47263 0.35324 0.92559 0.0
C1268 C 0.48118 0.33451 0.91568 0.0
C1269 C 0.46856 0.31933 0.9002 0.0
C1270 C 0.44738 0.32274 0.89416 0.0
C1271 C 0.4388 0.34137 0.9033 0.0
C1272 C 0.45136 0.3566 0.91876 0.0
C1273 C 0.52639 0.43433 0.8276 0.0
C1274 C 0.51058 0.44785 0.81331 0.0
C1275 C 0.52272 0.41918 0.86351 0.0
C1276 C 0.50317 0.41708 0.88624 0.0
C1277 C 0.48711 0.43017 0.87139 0.0
C1278 C 0.49081 0.44554 0.83539 0.0
C1279 C 0.49997 0.40116 0.92575 0.0
C1280 C 0.48677 0.38613 0.91209 0.0
C1281 C 0.51184 0.39963 0.97371 0.0
C1282 C 0.52519 0.41561 0.99151 0.0
C1283 C 0.51704 0.43472 0.99734 0.0
C1284 C 0.52973 0.4498 0.01322 0.0
C1285 C 0.55058 0.44594 0.02369 0.0
C1286 C 0.55877 0.42697 0.01845 0.0
C1287 C 0.54615 0.41183 0.00255 0.0
H1288 H 0.56038 0.45763 0.03594 0.0
H1289 H 0.43763 0.31096 0.88233 0.0
H1290 H 0.17641 0.39223 0.07228 0.0
H1291 H 0.14877 0.40331 0.01171 0.0
H1292 H 0.14622 0.45905 0.09194 0.0
H1293 H 0.17459 0.44861 0.15083 0.0
H1294 H 0.10703 0.44238 0.07783 0.0
H1295 H 0.16758 0.45621 0.97364 0.0
H1296 H 0.20054 0.44845 0.92795 0.0
H1297 H 0.17079 0.40701 0.82643 0.0
H1298 H 0.13768 0.41431 0.87218 0.0
H1299 H 0.06063 0.50986 0.89177 0.0
H1300 H 0.08366 0.49106 0.95174 0.0
H1301 H 0.07067 0.43863 0.86371 0.0
H1302 H 0.04674 0.45738 0.80455 0.0
H1303 H 0.11561 0.44889 0.87905 0.0
H1304 H 0.05461 0.43668 0.97675 0.0
H1305 H 0.02151 0.4438 0.02235 0.0
H1306 H 0.05158 0.48099 0.13547 0.0
H1307 H 0.08484 0.47435 0.08996 0.0
C1308 C 0.17038 0.40701 0.07662 0.0
C1309 C 0.17806 0.41946 0.11697 0.0
C1310 C 0.15435 0.41326 0.04203 0.0
C1311 C 0.14534 0.43202 0.04718 0.0
C1312 C 0.15281 0.44445 0.08735 0.0
C1313 C 0.16904 0.43835 0.12136 0.0
C1314 C 0.12808 0.43876 0.01106 0.0
C1315 C 0.10897 0.44392 0.03442 0.0
C1316 C 0.1303 0.44014 0.95408 0.0
C1317 C 0.15021 0.43559 0.92689 0.0
C1318 C 0.16811 0.44527 0.94204 0.0
C1319 C 0.18681 0.44099 0.91602 0.0
C1320 C 0.18778 0.42719 0.87445 0.0
C1321 C 0.17003 0.41766 0.85874 0.0
C1322 C 0.15129 0.42186 0.88471 0.0
C1323 C 0.06233 0.49425 0.88579 0.0
C1324 C 0.05182 0.48511 0.84345 0.0
C1325 C 0.07554 0.48352 0.92008 0.0
C1326 C 0.07899 0.46345 0.9122 0.0
C1327 C 0.06822 0.45411 0.87063 0.0
C1328 C 0.05443 0.46479 0.83716 0.0
C1329 C 0.0947 0.4528 0.94603 0.0
C1330 C 0.11357 0.44702 0.92234 0.0
C1331 C 0.09223 0.45073 0.00267 0.0
C1332 C 0.0722 0.4552 0.02947 0.0
C1333 C 0.05414 0.44659 0.01087 0.0
C1334 C 0.03534 0.45049 0.03684 0.0
C1335 C 0.03443 0.46289 0.08168 0.0
C1336 C 0.05231 0.47141 0.10066 0.0
C1337 C 0.07114 0.46758 0.0748 0.0
H1338 H 0.01987 0.46585 0.10181 0.0
H1339 H 0.20226 0.42392 0.8543 0.0
H1340 H 0.03492 0.82094 0.37009 0.0
H1341 H 0.02794 0.84882 0.42874 0.0
H1342 H 0.9631 0.84607 0.39398 0.0
H1343 H 0.96985 0.81754 0.33585 0.0
H1344 H 0.98026 0.88516 0.38991 0.0
H1345 H 0.97684 0.83025 0.51051 0.0
H1346 H 0.98921 0.79897 0.54964 0.0
H1347 H 0.04488 0.8255 0.60155 0.0
H1348 H 0.03299 0.85686 0.56202 0.0
H1349 H 0.97171 0.95775 0.60772 0.0
H1350 H 0.96447 0.93002 0.54792 0.0
H1351 H 0.02729 0.90889 0.56585 0.0
H1352 H 0.03447 0.93587 0.62521 0.0
H1353 H 0.00167 0.88049 0.58234 0.0
H1354 H 0.00961 0.93251 0.45203 0.0
H1355 H 0.00094 0.9637 0.40665 0.0
H1356 H 0.94079 0.94339 0.36848 0.0
H1357 H 0.94899 0.91218 0.41445 0.0
C1358 C 0.01909 0.82592 0.37552 0.0
C1359 C 0.00291 0.81667 0.34886 0.0
C1360 C 0.01516 0.84204 0.4087 0.0
C1361 C 0.995 0.8494 0.41605 0.0
C1362 C 0.97878 0.84058 0.38879 0.0
C1363 C 0.98268 0.82429 0.35563 0.0
C1364 C 0.99123 0.86604 0.45343 0.0
C1365 C 0.98445 0.88412 0.43236 0.0
C1366 C 0.99701 0.86467 0.50849 0.0
C1367 C 0.00403 0.84589 0.53314 0.0
C1368 C 0.99176 0.82939 0.53004 0.0
C1369 C 0.99869 0.81165 0.5523 0.0
C1370 C 0.01782 0.81025 0.57803 0.0
C1371 C 0.03006 0.8266 0.58165 0.0
C1372 C 0.02321 0.84437 0.5594 0.0
C1373 C 0.98393 0.94716 0.59873 0.0
C1374 C 0.00361 0.94897 0.62173 0.0
C1375 C 0.97979 0.93138 0.56446 0.0
C1376 C 0.99534 0.91732 0.55255 0.0
C1377 C 0.01498 0.9194 0.57483 0.0
C1378 C 0.01905 0.93492 0.60894 0.0
C1379 C 0.99161 0.89993 0.51846 0.0
C1380 C 0.99691 0.88156 0.5403 0.0
C1381 C 0.98487 0.9012 0.46397 0.0
C1382 C 0.97978 0.92014 0.43756 0.0
C1383 C 0.99443 0.9348 0.43466 0.0
C1384 C 0.98963 0.95246 0.40866 0.0
C1385 C 0.97029 0.95557 0.38493 0.0
C1386 C 0.95573 0.941 0.38708 0.0
C1387 C 0.96044 0.92333 0.41314 0.0
H1388 H 0.96662 0.96922 0.36468 0.0
H1389 H 0.02317 0.79649 0.5952 0.0
H1390 H 0.65433 0.91792 0.28932 0.0
H1391 H 0.6247 0.924 0.34884 0.0
H1392 H 0.66551 0.94057 0.47743 0.0
H1393 H 0.69523 0.93424 0.41835 0.0
H1394 H 0.63342 0.91902 0.51541 0.0
H1395 H 0.6427 0.97461 0.39698 0.0
H1396 H 0.64574 0.99021 0.30746 0.0
H1397 H 0.58532 0.97163 0.26501 0.0
H1398 H 0.58205 0.95566 0.35409 0.0
H1399 H 0.58139 0.98682 0.68164 0.0
H1400 H 0.60364 0.9694 0.6172 0.0
H1401 H 0.55096 0.95697 0.51828 0.0
H1402 H 0.52838 0.97439 0.58343 0.0
H1403 H 0.58424 0.97188 0.45876 0.0
H1404 H 0.57302 0.91938 0.57969 0.0
H1405 H 0.56992 0.90273 0.66774 0.0
H1406 H 0.6328 0.91497 0.70455 0.0
H1407 H 0.63632 0.9316 0.61652 0.0
C1408 C 0.65705 0.9224 0.3307 0.0
C1409 C 0.67718 0.92564 0.34907 0.0
C1410 C 0.64006 0.92604 0.36454 0.0
C1411 C 0.64283 0.933 0.41744 0.0
C1412 C 0.66296 0.93527 0.43674 0.0
C1413 C 0.67994 0.93174 0.40286 0.0
C1414 C 0.62491 0.93913 0.45177 0.0
C1415 C 0.62272 0.93061 0.50307 0.0
C1416 C 0.61046 0.95382 0.43504 0.0
C1417 C 0.61222 0.96377 0.38196 0.0
C1418 C 0.63011 0.97376 0.36844 0.0
C1419 C 0.63187 0.98267 0.31779 0.0
C1420 C 0.61575 0.98186 0.28051 0.0
C1421 C 0.5978 0.97221 0.2939 0.0
C1422 C 0.59599 0.96324 0.34447 0.0
C1423 C 0.57446 0.98028 0.64641 0.0
C1424 C 0.5531 0.98205 0.63761 0.0
C1425 C 0.58721 0.97023 0.60967 0.0
C1426 C 0.579 0.96179 0.56295 0.0
C1427 C 0.55764 0.96333 0.55411 0.0
C1428 C 0.54475 0.97318 0.59149 0.0
C1429 C 0.59313 0.95211 0.52299 0.0
C1430 C 0.59466 0.96 0.47068 0.0
C1431 C 0.6069 0.93676 0.53858 0.0
C1432 C 0.60491 0.92679 0.59159 0.0
C1433 C 0.58617 0.91857 0.60663 0.0
C1434 C 0.58437 0.90905 0.6564 0.0
C1435 C 0.60117 0.90777 0.69166 0.0
C1436 C 0.61983 0.91592 0.6771 0.0
C1437 C 0.62177 0.92531 0.62716 0.0
H1438 H 0.59969 0.90054 0.73037 0.0
H1439 H 0.61715 0.98875 0.2413 0.0
H1440 H 0.52465 0.68651 0.32508 0.0
H1441 H 0.53255 0.65765 0.381 0.0
H1442 H 0.46922 0.65686 0.43281 0.0
H1443 H 0.461 0.68494 0.37604 0.0
H1444 H 0.49789 0.65318 0.51775 0.0
H1445 H 0.48354 0.62693 0.33954 0.0
H1446 H 0.48955 0.62313 0.24143 0.0
H1447 H 0.55122 0.6018 0.27231 0.0
H1448 H 0.54566 0.60577 0.37067 0.0
H1449 H 0.462 0.5601 0.58175 0.0
H1450 H 0.47 0.58781 0.52501 0.0
H1451 H 0.53456 0.57926 0.56013 0.0
H1452 H 0.52676 0.55076 0.61665 0.0
H1453 H 0.51479 0.58847 0.43678 0.0
H1454 H 0.52631 0.63589 0.61339 0.0
H1455 H 0.51585 0.64402 0.70709 0.0
H1456 H 0.45501 0.62419 0.67487 0.0
H1457 H 0.46491 0.61675 0.58056 0.0
C1458 C 0.5124 0.68015 0.3483 0.0
C1459 C 0.4922 0.6882 0.34636 0.0
C1460 C 0.51698 0.66372 0.38026 0.0
C1461 C 0.50146 0.65522 0.41099 0.0
C1462 C 0.48144 0.66337 0.40975 0.0
C1463 C 0.47682 0.67957 0.37757 0.0
C1464 C 0.50559 0.63767 0.4444 0.0
C1465 C 0.50193 0.63908 0.50015 0.0
C1466 C 0.51095 0.61934 0.42138 0.0
C1467 C 0.51429 0.61691 0.36236 0.0
C1468 C 0.49845 0.62162 0.32537 0.0
C1469 C 0.50176 0.6194 0.26974 0.0
C1470 C 0.52078 0.6123 0.25064 0.0
C1471 C 0.53652 0.60735 0.28717 0.0
C1472 C 0.5333 0.60959 0.34285 0.0
C1473 C 0.47797 0.56394 0.5774 0.0
C1474 C 0.49372 0.55344 0.60473 0.0
C1475 C 0.48247 0.57986 0.54507 0.0
C1476 C 0.50273 0.58592 0.5401 0.0
C1477 C 0.51875 0.57491 0.56443 0.0
C1478 C 0.51428 0.55865 0.59645 0.0
C1479 C 0.50656 0.604 0.50981 0.0
C1480 C 0.51166 0.60269 0.45467 0.0
C1481 C 0.50211 0.62248 0.53298 0.0
C1482 C 0.49657 0.62509 0.59064 0.0
C1483 C 0.51079 0.63304 0.62662 0.0
C1484 C 0.50488 0.63779 0.67957 0.0
C1485 C 0.48481 0.63451 0.69701 0.0
C1486 C 0.4706 0.62657 0.66146 0.0
C1487 C 0.47636 0.62207 0.60825 0.0
H1488 H 0.48029 0.63814 0.73806 0.0
H1489 H 0.52331 0.61058 0.20756 0.0
H1490 H 0.84336 0.59642 0.28987 0.0
H1491 H 0.87387 0.5919 0.34717 0.0
H1492 H 0.83887 0.55738 0.45822 0.0
H1493 H 0.80823 0.56238 0.40217 0.0
H1494 H 0.86327 0.57965 0.51291 0.0
H1495 H 0.87086 0.53672 0.35935 0.0
H1496 H 0.87305 0.52883 0.26206 0.0
H1497 H 0.92606 0.56433 0.24637 0.0
H1498 H 0.924 0.57265 0.34355 0.0
H1499 H 0.925 0.50303 0.61205 0.0
H1500 H 0.90305 0.5231 0.55457 0.0
H1501 H 0.95086 0.56486 0.53813 0.0
H1502 H 0.97344 0.54469 0.59795 0.0
H1503 H 0.92548 0.54706 0.43397 0.0
H1504 H 0.90945 0.59443 0.59261 0.0
H1505 H 0.90049 0.60179 0.68786 0.0
H1506 H 0.86125 0.55255 0.69235 0.0
H1507 H 0.86948 0.54533 0.59662 0.0
C1508 C 0.84202 0.58828 0.32721 0.0
C1509 C 0.8233 0.57972 0.34133 0.0
C1510 C 0.85958 0.58549 0.35959 0.0
C1511 C 0.85883 0.57402 0.40665 0.0
C1512 C 0.83993 0.56623 0.42203 0.0
C1513 C 0.8224 0.56901 0.38978 0.0
C1514 C 0.87769 0.56943 0.43932 0.0
C1515 C 0.87693 0.57274 0.49528 0.0
C1516 C 0.89575 0.56059 0.41672 0.0
C1517 C 0.89712 0.55551 0.35848 0.0
C1518 C 0.88289 0.54296 0.33504 0.0
C1519 C 0.88412 0.5384 0.27996 0.0
C1520 C 0.89964 0.54613 0.24801 0.0
C1521 C 0.91401 0.5584 0.27115 0.0
C1522 C 0.91283 0.56304 0.32623 0.0
C1523 C 0.93118 0.51639 0.59637 0.0
C1524 C 0.95119 0.52215 0.61011 0.0
C1525 C 0.91841 0.52795 0.56357 0.0
C1526 C 0.92517 0.54555 0.54258 0.0
C1527 C 0.94529 0.55134 0.5544 0.0
C1528 C 0.9582 0.53976 0.58828 0.0
C1529 C 0.91079 0.55708 0.50739 0.0
C1530 C 0.91221 0.55483 0.45096 0.0
C1531 C 0.89307 0.5665 0.52935 0.0
C1532 C 0.89027 0.56923 0.5881 0.0
C1533 C 0.89915 0.58505 0.61429 0.0
C1534 C 0.89402 0.58931 0.66805 0.0
C1535 C 0.88031 0.57764 0.69603 0.0
C1536 C 0.87185 0.56157 0.67057 0.0
C1537 C 0.87667 0.55744 0.61657 0.0
H1538 H 0.87616 0.58108 0.73735 0.0
H1539 H 0.90056 0.54259 0.20536 0.0
loop_
_geom_bond_atom_site_label_1
_geom_bond_atom_site_label_2
_geom_bond_distance
_geom_bond_site_symmetry_2
_ccdc_geom_bond_type
P0 O11 1.490 . S
P0 C14 1.812 . S
P0 C20 1.803 . S
P0 C26 1.819 . S
H1 C15 0.941 . S
H2 C16 0.939 . S
H3 C18 0.940 . S
H4 C19 0.940 . S
H5 C21 0.939 . S
H6 C22 0.942 . S
H7 C24 0.940 . S
H8 C25 0.939 . S
H9 C27 0.941 . S
H10 C31 0.939 . S
O11 P0 1.490 . S
H12 C28 0.939 . S
H13 C30 0.940 . S
C14 P0 1.812 . S
C14 C15 1.389 . S
C14 C19 1.391 . S
C15 H1 0.941 . S
C15 C14 1.389 . S
C15 C16 1.397 . S
C16 H2 0.939 . S
C16 C15 1.397 . S
C16 C17 1.378 . S
C17 C16 1.378 . S
C17 C18 1.378 . S
C18 H3 0.940 . S
C18 C17 1.378 . S
C18 C19 1.396 . S
C19 H4 0.940 . S
C19 C14 1.391 . S
C19 C18 1.396 . S
C20 P0 1.803 . S
C20 C21 1.378 . S
C20 C25 1.400 . S
C21 H5 0.939 . S
C21 C20 1.378 . S
C21 C22 1.361 . S
C22 H6 0.942 . S
C22 C21 1.361 . S
C22 C23 1.369 . S
C23 C22 1.369 . S
C23 C24 1.404 . S
C24 H7 0.940 . S
C24 C23 1.404 . S
C24 C25 1.389 . S
C25 H8 0.939 . S
C25 C20 1.400 . S
C25 C24 1.389 . S
C26 P0 1.819 . S
C26 C27 1.391 . S
C26 C31 1.391 . S
C27 H9 0.941 . S
C27 C26 1.391 . S
C27 C28 1.396 . S
C28 H12 0.939 . S
C28 C27 1.396 . S
C28 C29 1.397 1_554 S
C29 C28 1.397 1_556 S
C29 C30 1.385 . S
C30 H13 0.940 . S
C30 C29 1.385 . S
C30 C31 1.388 1_556 S
C31 H10 0.939 . S
C31 C26 1.391 . S
C31 C30 1.388 1_554 S
P32 O43 1.490 . S
P32 C46 1.812 . S
P32 C52 1.803 . S
P32 C58 1.819 . S
H33 C47 0.941 . S
H34 C48 0.939 . S
H35 C50 0.940 . S
H36 C51 0.950 . S
H37 C53 0.939 . S
H38 C54 0.942 . S
H39 C56 0.940 . S
H40 C57 0.958 . S
H41 C59 0.941 . S
H42 C63 0.928 1_655 S
O43 P32 1.490 . S
H44 C60 0.939 . S
H45 C62 0.940 1_556 S
C46 P32 1.812 . S
C46 C47 1.389 . S
C46 C51 1.375 1_455 S
C47 H33 0.941 . S
C47 C46 1.389 . S
C47 C48 1.397 . S
C48 H34 0.939 . S
C48 C47 1.397 . S
C48 C49 1.378 . S
C49 C48 1.378 . S
C49 C50 1.378 1_455 S
C50 H35 0.940 . S
C50 C49 1.378 1_655 S
C50 C51 1.403 . S
C51 H36 0.950 . S
C51 C46 1.375 1_655 S
C51 C50 1.403 . S
C52 P32 1.803 . S
C52 C53 1.378 . S
C52 C57 1.369 1_455 S
C53 H37 0.939 . S
C53 C52 1.378 . S
C53 C54 1.361 . S
C54 H38 0.942 . S
C54 C53 1.361 . S
C54 C55 1.369 . S
C55 C54 1.369 . S
C55 C56 1.404 1_455 S
C56 H39 0.940 . S
C56 C55 1.404 1_655 S
C56 C57 1.402 . S
C57 H40 0.958 . S
C57 C52 1.369 1_655 S
C57 C56 1.402 . S
C58 P32 1.819 . S
C58 C59 1.391 . S
C58 C63 1.391 . S
C59 H41 0.941 . S
C59 C58 1.391 . S
C59 C60 1.396 . S
C60 H44 0.939 . S
C60 C59 1.396 . S
C60 C61 1.406 . S
C61 C60 1.406 . S
C61 C62 1.385 1_455 S
C62 H45 0.940 1_554 S
C62 C61 1.385 1_655 S
C62 C63 1.388 1_655 S
C63 H42 0.928 1_455 S
C63 C58 1.391 . S
C63 C62 1.388 1_455 S
P64 O75 1.490 . S
P64 C78 1.812 . S
P64 C84 1.803 . S
P64 C90 1.819 . S
H65 C79 0.941 . S
H66 C80 0.939 . S
H67 C82 0.940 . S
H68 C83 0.940 . S
H69 C85 0.939 . S
H70 C86 0.942 . S
H71 C88 0.940 . S
H72 C89 0.939 . S
H73 C91 0.941 . S
H74 C95 0.939 . S
O75 P64 1.490 . S
H76 C92 0.939 . S
H77 C94 0.940 . S
C78 P64 1.812 . S
C78 C79 1.389 . S
C78 C83 1.391 . S
C79 H65 0.941 . S
C79 C78 1.389 . S
C79 C80 1.397 . S
C80 H66 0.939 . S
C80 C79 1.397 . S
C80 C81 1.378 . S
C81 C80 1.378 . S
C81 C82 1.378 . S
C82 H67 0.940 . S
C82 C81 1.378 . S
C82 C83 1.396 . S
C83 H68 0.940 . S
C83 C78 1.391 . S
C83 C82 1.396 . S
C84 P64 1.803 . S
C84 C85 1.378 . S
C84 C89 1.400 . S
C85 H69 0.939 . S
C85 C84 1.378 . S
C85 C86 1.361 . S
C86 H70 0.942 . S
C86 C85 1.361 . S
C86 C87 1.369 . S
C87 C86 1.369 . S
C87 C88 1.404 . S
C88 H71 0.940 . S
C88 C87 1.404 . S
C88 C89 1.389 . S
C89 H72 0.939 . S
C89 C84 1.400 . S
C89 C88 1.389 . S
C90 P64 1.819 . S
C90 C91 1.391 . S
C90 C95 1.391 . S
C91 H73 0.941 . S
C91 C90 1.391 . S
C91 C92 1.396 . S
C92 H76 0.939 . S
C92 C91 1.396 . S
C92 C93 1.397 1_554 S
C93 C92 1.397 1_556 S
C93 C94 1.385 . S
C94 H77 0.940 . S
C94 C93 1.385 . S
C94 C95 1.388 1_556 S
C95 H74 0.939 . S
C95 C90 1.391 . S
C95 C94 1.388 1_554 S
P96 O107 1.490 . S
P96 C110 1.812 . S
P96 C116 1.803 . S
P96 C122 1.819 . S
H97 C111 0.941 . S
H98 C112 0.939 . S
H99 C114 0.940 . S
H100 C115 0.940 . S
H101 C117 0.939 . S
H102 C118 0.942 . S
H103 C120 0.940 . S
H104 C121 0.939 . S
H105 C123 0.941 . S
H106 C127 0.939 . S
O107 P96 1.490 . S
H108 C124 0.939 . S
H109 C126 0.940 1_556 S
C110 P96 1.812 . S
C110 C111 1.389 . S
C110 C115 1.391 . S
C111 H97 0.941 . S
C111 C110 1.389 . S
C111 C112 1.397 . S
C112 H98 0.939 . S
C112 C111 1.397 . S
C112 C113 1.378 . S
C113 C112 1.378 . S
C113 C114 1.378 . S
C114 H99 0.940 . S
C114 C113 1.378 . S
C114 C115 1.396 . S
C115 H100 0.940 . S
C115 C110 1.391 . S
C115 C114 1.396 . S
C116 P96 1.803 . S
C116 C117 1.378 . S
C116 C121 1.400 . S
C117 H101 0.939 . S
C117 C116 1.378 . S
C117 C118 1.361 . S
C118 H102 0.942 . S
C118 C117 1.361 . S
C118 C119 1.369 . S
C119 C118 1.369 . S
C119 C120 1.404 . S
C120 H103 0.940 . S
C120 C119 1.404 . S
C120 C121 1.389 . S
C121 H104 0.939 . S
C121 C116 1.400 . S
C121 C120 1.389 . S
C122 P96 1.819 . S
C122 C123 1.391 . S
C122 C127 1.391 . S
C123 H105 0.941 . S
C123 C122 1.391 . S
C123 C124 1.396 . S
C124 H108 0.939 . S
C124 C123 1.396 . S
C124 C125 1.397 . S
C125 C124 1.397 . S
C125 C126 1.385 . S
C126 H109 0.940 1_554 S
C126 C125 1.385 . S
C126 C127 1.388 . S
C127 H106 0.939 . S
C127 C122 1.391 . S
C127 C126 1.388 . S
P128 O139 1.490 . S
P128 C142 1.812 . S
P128 C148 1.803 . S
P128 C154 1.819 . S
H129 C143 0.941 . S
H130 C144 0.939 . S
H131 C146 0.940 . S
H132 C147 0.940 . S
H133 C149 0.939 . S
H134 C150 0.942 . S
H135 C152 0.940 . S
H136 C153 0.939 . S
H137 C155 0.941 . S
H138 C159 0.939 . S
O139 P128 1.490 . S
H140 C156 0.939 . S
H141 C158 0.940 . S
C142 P128 1.812 . S
C142 C143 1.389 . S
C142 C147 1.391 . S
C143 H129 0.941 . S
C143 C142 1.389 . S
C143 C144 1.397 . S
C144 H130 0.939 . S
C144 C143 1.397 . S
C144 C145 1.378 . S
C145 C144 1.378 . S
C145 C146 1.378 . S
C146 H131 0.940 . S
C146 C145 1.378 . S
C146 C147 1.396 . S
C147 H132 0.940 . S
C147 C142 1.391 . S
C147 C146 1.396 . S
C148 P128 1.803 . S
C148 C149 1.378 . S
C148 C153 1.400 . S
C149 H133 0.939 . S
C149 C148 1.378 . S
C149 C150 1.361 . S
C150 H134 0.942 . S
C150 C149 1.361 . S
C150 C151 1.369 . S
C151 C150 1.369 . S
C151 C152 1.404 . S
C152 H135 0.940 . S
C152 C151 1.404 . S
C152 C153 1.389 . S
C153 H136 0.939 . S
C153 C148 1.400 . S
C153 C152 1.389 . S
C154 P128 1.819 . S
C154 C155 1.391 . S
C154 C159 1.391 . S
C155 H137 0.941 . S
C155 C154 1.391 . S
C155 C156 1.396 . S
C156 H140 0.939 . S
C156 C155 1.396 . S
C156 C157 1.397 . S
C157 C156 1.397 . S
C157 C158 1.385 . S
C158 H141 0.940 . S
C158 C157 1.385 . S
C158 C159 1.388 . S
C159 H138 0.939 . S
C159 C154 1.391 . S
C159 C158 1.388 . S
P160 O171 1.490 . S
P160 C174 1.812 . S
P160 C180 1.803 . S
P160 C186 1.819 . S
H161 C175 0.941 . S
H162 C176 0.939 . S
H163 C178 0.940 . S
H164 C179 0.943 . S
H165 C181 0.939 . S
H166 C182 0.942 . S
H167 C184 0.940 . S
H168 C185 0.951 . S
H169 C187 0.941 . S
H170 C191 0.934 1_655 S
O171 P160 1.490 . S
H172 C188 0.939 . S
H173 C190 0.940 . S
C174 P160 1.812 . S
C174 C175 1.389 . S
C174 C179 1.386 1_455 S
C175 H161 0.941 . S
C175 C174 1.389 . S
C175 C176 1.397 . S
C176 H162 0.939 . S
C176 C175 1.397 . S
C176 C177 1.378 . S
C177 C176 1.378 . S
C177 C178 1.378 1_455 S
C178 H163 0.940 . S
C178 C177 1.378 1_655 S
C178 C179 1.398 . S
C179 H164 0.943 . S
C179 C174 1.386 1_655 S
C179 C178 1.398 . S
C180 P160 1.803 . S
C180 C181 1.378 . S
C180 C185 1.382 1_455 S
C181 H165 0.939 . S
C181 C180 1.378 . S
C181 C182 1.361 . S
C182 H166 0.942 . S
C182 C181 1.361 . S
C182 C183 1.369 . S
C183 C182 1.369 . S
C183 C184 1.404 1_455 S
C184 H167 0.940 . S
C184 C183 1.404 1_655 S
C184 C185 1.396 . S
C185 H168 0.951 . S
C185 C180 1.382 1_655 S
C185 C184 1.396 . S
C186 P160 1.819 . S
C186 C187 1.391 . S
C186 C191 1.391 . S
C187 H169 0.941 . S
C187 C186 1.391 . S
C187 C188 1.396 . S
C188 H172 0.939 . S
C188 C187 1.396 . S
C188 C189 1.397 . S
C189 C188 1.397 . S
C189 C190 1.385 1_455 S
C190 H173 0.940 . S
C190 C189 1.385 1_655 S
C190 C191 1.388 1_655 S
C191 H170 0.934 1_455 S
C191 C186 1.391 . S
C191 C190 1.388 1_455 S
P192 O203 1.490 . S
P192 C206 1.812 . S
P192 C212 1.803 . S
P192 C218 1.819 . S
H193 C207 0.941 . S
H194 C208 0.939 . S
H195 C210 0.940 . S
H196 C211 0.940 . S
H197 C213 0.939 . S
H198 C214 0.942 . S
H199 C216 0.940 . S
H200 C217 0.939 . S
H201 C219 0.941 . S
H202 C223 0.939 . S
O203 P192 1.490 . S
H204 C220 0.939 . S
H205 C222 0.940 . S
C206 P192 1.812 . S
C206 C207 1.389 . S
C206 C211 1.391 . S
C207 H193 0.941 . S
C207 C206 1.389 . S
C207 C208 1.397 . S
C208 H194 0.939 . S
C208 C207 1.397 . S
C208 C209 1.378 . S
C209 C208 1.378 . S
C209 C210 1.378 . S
C210 H195 0.940 . S
C210 C209 1.378 . S
C210 C211 1.396 . S
C211 H196 0.940 . S
C211 C206 1.391 . S
C211 C210 1.396 . S
C212 P192 1.803 . S
C212 C213 1.378 . S
C212 C217 1.400 . S
C213 H197 0.939 . S
C213 C212 1.378 . S
C213 C214 1.361 . S
C214 H198 0.942 . S
C214 C213 1.361 . S
C214 C215 1.369 . S
C215 C214 1.369 . S
C215 C216 1.404 . S
C216 H199 0.940 . S
C216 C215 1.404 . S
C216 C217 1.389 . S
C217 H200 0.939 . S
C217 C212 1.400 . S
C217 C216 1.389 . S
C218 P192 1.819 . S
C218 C219 1.391 . S
C218 C223 1.391 . S
C219 H201 0.941 . S
C219 C218 1.391 . S
C219 C220 1.396 . S
C220 H204 0.939 . S
C220 C219 1.396 . S
C220 C221 1.397 . S
C221 C220 1.397 . S
C221 C222 1.385 . S
C222 H205 0.940 . S
C222 C221 1.385 . S
C222 C223 1.388 . S
C223 H202 0.939 . S
C223 C218 1.391 . S
C223 C222 1.388 . S
P224 O235 1.490 . S
P224 C238 1.812 . S
P224 C244 1.803 . S
P224 C250 1.819 . S
H225 C239 0.941 . S
H226 C240 0.939 . S
H227 C242 0.940 . S
H228 C243 0.940 . S
H229 C245 0.939 . S
H230 C246 0.942 . S
H231 C248 0.940 . S
H232 C249 0.939 . S
H233 C251 0.941 . S
H234 C255 0.939 . S
O235 P224 1.490 . S
H236 C252 0.939 . S
H237 C254 0.940 . S
C238 P224 1.812 . S
C238 C239 1.389 . S
C238 C243 1.391 . S
C239 H225 0.941 . S
C239 C238 1.389 . S
C239 C240 1.397 . S
C240 H226 0.939 . S
C240 C239 1.397 . S
C240 C241 1.378 . S
C241 C240 1.378 . S
C241 C242 1.378 . S
C242 H227 0.940 . S
C242 C241 1.378 . S
C242 C243 1.396 . S
C243 H228 0.940 . S
C243 C238 1.391 . S
C243 C242 1.396 . S
C244 P224 1.803 . S
C244 C245 1.378 . S
C244 C249 1.400 . S
C245 H229 0.939 . S
C245 C244 1.378 . S
C245 C246 1.361 . S
C246 H230 0.942 . S
C246 C245 1.361 . S
C246 C247 1.369 . S
C247 C246 1.369 . S
C247 C248 1.404 . S
C248 H231 0.940 . S
C248 C247 1.404 . S
C248 C249 1.389 . S
C249 H232 0.939 . S
C249 C244 1.400 . S
C249 C248 1.389 . S
C250 P224 1.819 . S
C250 C251 1.391 . S
C250 C255 1.391 . S
C251 H233 0.941 . S
C251 C250 1.391 . S
C251 C252 1.396 . S
C252 H236 0.939 . S
C252 C251 1.396 . S
C252 C253 1.397 . S
C253 C252 1.397 . S
C253 C254 1.385 . S
C254 H237 0.940 . S
C254 C253 1.385 . S
C254 C255 1.388 . S
C255 H234 0.939 . S
C255 C250 1.391 . S
C255 C254 1.388 . S
O256 Mn257 2.147 1_455 S
O256 C270 1.244 . S
Mn257 O256 2.147 1_655 S
Mn257 O260 2.172 1_545 S
Mn257 O261 2.174 1_655 S
Mn257 O263 2.161 1_645 S
Mn257 O265 2.168 . S
Mn257 O275 2.270 . S
O258 Mn259 2.087 . S
O258 C270 1.256 1_655 S
Mn259 O258 2.087 . S
Mn259 O266 2.089 . S
Mn259 O275 2.290 . S
Mn259 O276 2.251 . S
O260 Mn257 2.172 1_565 S
O260 C271 1.239 . S
O261 Mn257 2.174 1_455 S
O261 Mn262 2.290 1_545 S
O261 C272 1.278 . S
Mn262 O261 2.290 1_565 S
Mn262 O264 2.089 . S
Mn262 O267 2.251 . S
Mn262 O268 2.087 . S
O263 Mn257 2.161 1_465 S
O263 C273 1.244 . S
O264 Mn262 2.089 . S
O264 C271 1.256 1_455 S
O265 Mn257 2.168 . S
O265 C274 1.239 . S
O266 Mn259 2.089 . S
O266 C274 1.256 . S
O267 Mn262 2.251 . S
O267 C272 1.241 1_565 S
O268 Mn262 2.087 . S
O268 C273 1.256 . S
C269 O275 1.278 . S
C269 O276 1.241 . S
C270 O256 1.244 . S
C270 O258 1.256 1_455 S
C271 O260 1.239 . S
C271 O264 1.256 1_655 S
C272 O261 1.278 . S
C272 O267 1.241 1_545 S
C273 O263 1.244 . S
C273 O268 1.256 . S
C274 O265 1.239 . S
C274 O266 1.256 . S
O275 Mn257 2.270 . S
O275 Mn259 2.290 . S
O275 C269 1.278 . S
O276 Mn259 2.251 . S
O276 C269 1.241 . S
O277 Mn278 2.160 1_565 S
O277 C291 1.240 1_565 S
Mn278 O277 2.160 1_545 S
Mn278 O281 2.160 . S
Mn278 O282 2.221 1_545 S
Mn278 O284 2.163 . S
Mn278 O286 2.160 1_545 S
Mn278 O296 2.221 . S
O279 Mn280 2.087 . S
O279 C291 1.256 . S
Mn280 O279 2.087 . S
Mn280 O287 2.089 . S
Mn280 O296 2.290 . S
Mn280 O297 2.251 . S
O281 Mn278 2.160 . S
O281 C292 1.239 . S
O282 Mn278 2.221 1_565 S
O282 Mn283 2.290 . S
O282 C293 1.278 . S
Mn283 O282 2.290 . S
Mn283 O285 2.089 1_565 S
Mn283 O288 2.251 . S
Mn283 O289 2.087 1_565 S
O284 Mn278 2.163 . S
O284 C294 1.244 . S
O285 Mn283 2.089 1_545 S
O285 C292 1.256 . S
O286 Mn278 2.160 1_565 S
O286 C295 1.239 . S
O287 Mn280 2.089 . S
O287 C295 1.256 1_545 S
O288 Mn283 2.251 . S
O288 C293 1.241 . S
O289 Mn283 2.087 1_545 S
O289 C294 1.256 . S
C290 O296 1.278 . S
C290 O297 1.241 . S
C291 O277 1.240 1_545 S
C291 O279 1.256 . S
C292 O281 1.239 . S
C292 O285 1.256 . S
C293 O282 1.278 . S
C293 O288 1.241 . S
C294 O284 1.244 . S
C294 O289 1.256 . S
C295 O286 1.239 . S
C295 O287 1.256 1_565 S
O296 Mn278 2.221 . S
O296 Mn280 2.290 . S
O296 C290 1.278 . S
O297 Mn280 2.251 . S
O297 C290 1.241 . S
O298 Mn299 2.163 . S
O298 C312 1.244 . S
Mn299 O298 2.163 . S
Mn299 O302 2.160 . S
Mn299 O303 2.221 . S
Mn299 O305 2.163 . S
Mn299 O307 2.160 . S
Mn299 O317 2.221 . S
O300 Mn301 2.087 . S
O300 C312 1.256 . S
Mn301 O300 2.087 . S
Mn301 O308 2.089 . S
Mn301 O317 2.290 . S
Mn301 O318 2.251 . S
O302 Mn299 2.160 . S
O302 C313 1.239 . S
O303 Mn299 2.221 . S
O303 Mn304 2.290 . S
O303 C314 1.278 . S
Mn304 O303 2.290 . S
Mn304 O306 2.089 . S
Mn304 O309 2.251 . S
Mn304 O310 2.087 . S
O305 Mn299 2.163 . S
O305 C315 1.244 . S
O306 Mn304 2.089 . S
O306 C313 1.256 . S
O307 Mn299 2.160 . S
O307 C316 1.239 . S
O308 Mn301 2.089 . S
O308 C316 1.256 . S
O309 Mn304 2.251 . S
O309 C314 1.241 . S
O310 Mn304 2.087 . S
O310 C315 1.256 . S
C311 O317 1.278 . S
C311 O318 1.241 . S
C312 O298 1.244 . S
C312 O300 1.256 . S
C313 O302 1.239 . S
C313 O306 1.256 . S
C314 O303 1.278 . S
C314 O309 1.241 . S
C315 O305 1.244 . S
C315 O310 1.256 . S
C316 O307 1.239 . S
C316 O308 1.256 . S
O317 Mn299 2.221 . S
O317 Mn301 2.290 . S
O317 C311 1.278 . S
O318 Mn301 2.251 . S
O318 C311 1.241 . S
O319 Mn320 2.163 . S
O319 C333 1.244 . S
Mn320 O319 2.163 . S
Mn320 O323 2.160 1_455 S
Mn320 O324 2.221 1_455 S
Mn320 O326 2.163 1_455 S
Mn320 O328 2.160 . S
Mn320 O338 2.221 . S
O321 Mn322 2.087 . S
O321 C333 1.256 . S
Mn322 O321 2.087 . S
Mn322 O329 2.089 . S
Mn322 O338 2.290 . S
Mn322 O339 2.251 . S
O323 Mn320 2.160 1_655 S
O323 C334 1.239 . S
O324 Mn320 2.221 1_655 S
O324 Mn325 2.290 . S
O324 C335 1.278 . S
Mn325 O324 2.290 . S
Mn325 O327 2.089 . S
Mn325 O330 2.251 . S
Mn325 O331 2.087 . S
O326 Mn320 2.163 1_655 S
O326 C336 1.244 . S
O327 Mn325 2.089 . S
O327 C334 1.256 . S
O328 Mn320 2.160 . S
O328 C337 1.239 . S
O329 Mn322 2.089 . S
O329 C337 1.256 . S
O330 Mn325 2.251 . S
O330 C335 1.241 . S
O331 Mn325 2.087 . S
O331 C336 1.256 . S
C332 O338 1.278 . S
C332 O339 1.241 . S
C333 O319 1.244 . S
C333 O321 1.256 . S
C334 O323 1.239 . S
C334 O327 1.256 . S
C335 O324 1.278 . S
C335 O330 1.241 . S
C336 O326 1.244 . S
C336 O331 1.256 . S
C337 O328 1.239 . S
C337 O329 1.256 . S
O338 Mn320 2.221 . S
O338 Mn322 2.290 . S
O338 C332 1.278 . S
O339 Mn322 2.251 . S
O339 C332 1.241 . S
H340 C358 0.951 . S
H341 C360 0.951 . S
H342 C362 0.950 . S
H343 C363 0.950 . S
H344 C365 0.950 . S
H345 C368 0.950 . S
H346 C369 0.950 . S
H347 C371 0.950 . S
H348 C372 0.950 . S
H349 C373 0.951 . S
H350 C375 0.951 . S
H351 C377 0.950 . S
H352 C378 0.950 . S
H353 C380 0.950 . S
H354 C383 0.950 . S
H355 C384 0.955 . S
H356 C386 0.950 . S
H357 C387 0.950 . S
C358 H340 0.951 . S
C358 C359 1.366 . S
C358 C360 1.388 . S
C359 C358 1.366 . S
C359 C363 1.385 . S
C360 H341 0.951 . S
C360 C358 1.388 . S
C360 C361 1.366 . S
C361 C360 1.366 . S
C361 C362 1.414 . S
C361 C364 1.499 . S
C362 H342 0.950 . S
C362 C361 1.414 . S
C362 C363 1.374 . S
C363 H343 0.950 . S
C363 C359 1.385 . S
C363 C362 1.374 . S
C364 C361 1.499 . S
C364 C365 1.373 . S
C364 C366 1.389 . S
C365 H344 0.950 . S
C365 C364 1.373 . S
C365 C381 1.377 . S
C366 C364 1.389 . S
C366 C367 1.524 . S
C366 C380 1.377 . S
C367 C366 1.524 . S
C367 C368 1.397 . S
C367 C372 1.363 . S
C368 H345 0.950 . S
C368 C367 1.397 . S
C368 C369 1.334 . S
C369 H346 0.950 . S
C369 C368 1.334 . S
C369 C370 1.287 . S
C370 C369 1.287 . S
C370 C371 1.524 . S
C370 H389 0.913 . S
C371 H347 0.950 . S
C371 C370 1.524 . S
C371 C372 1.415 . S
C372 H348 0.950 . S
C372 C367 1.363 . S
C372 C371 1.415 . S
C373 H349 0.951 . S
C373 C374 1.366 . S
C373 C375 1.388 . S
C374 C373 1.366 . S
C374 C378 1.385 . S
C375 H350 0.951 . S
C375 C373 1.388 . S
C375 C376 1.366 . S
C376 C375 1.366 . S
C376 C377 1.414 . S
C376 C379 1.499 . S
C377 H351 0.950 . S
C377 C376 1.414 . S
C377 C378 1.374 . S
C378 H352 0.950 . S
C378 C374 1.385 . S
C378 C377 1.374 . S
C379 C376 1.499 . S
C379 C380 1.373 . S
C379 C381 1.389 . S
C380 H353 0.950 . S
C380 C366 1.377 . S
C380 C379 1.373 . S
C381 C365 1.377 . S
C381 C379 1.389 . S
C381 C382 1.524 . S
C382 C381 1.524 . S
C382 C383 1.397 . S
C382 C387 1.363 . S
C383 H354 0.950 . S
C383 C382 1.397 . S
C383 C384 1.334 . S
C384 H355 0.955 . S
C384 C383 1.334 . S
C384 C385 1.287 1_545 S
C385 C384 1.287 1_565 S
C385 C386 1.524 . S
C385 H388 0.999 . S
C386 H356 0.950 . S
C386 C385 1.524 . S
C386 C387 1.415 1_565 S
C387 H357 0.950 . S
C387 C382 1.363 . S
C387 C386 1.415 1_545 S
H388 C385 0.999 . S
H389 C370 0.913 . S
H390 C408 0.951 . S
H391 C410 0.951 . S
H392 C412 0.950 . S
H393 C413 0.950 . S
H394 C415 0.950 . S
H395 C418 0.950 . S
H396 C419 0.950 . S
H397 C421 0.950 . S
H398 C422 0.950 . S
H399 C423 0.951 . S
H400 C425 0.951 . S
H401 C427 0.950 . S
H402 C428 0.950 . S
H403 C430 0.950 . S
H404 C433 0.950 . S
H405 C434 0.950 . S
H406 C436 0.950 . S
H407 C437 0.950 . S
C408 H390 0.951 . S
C408 C409 1.366 . S
C408 C410 1.388 . S
C409 C408 1.366 . S
C409 C413 1.385 . S
C410 H391 0.951 . S
C410 C408 1.388 . S
C410 C411 1.366 . S
C411 C410 1.366 . S
C411 C412 1.414 . S
C411 C414 1.499 . S
C412 H392 0.950 . S
C412 C411 1.414 . S
C412 C413 1.374 . S
C413 H393 0.950 . S
C413 C409 1.385 . S
C413 C412 1.374 . S
C414 C411 1.499 . S
C414 C415 1.373 . S
C414 C416 1.389 . S
C415 H394 0.950 . S
C415 C414 1.373 . S
C415 C431 1.377 . S
C416 C414 1.389 . S
C416 C417 1.524 . S
C416 C430 1.377 . S
C417 C416 1.524 . S
C417 C418 1.397 . S
C417 C422 1.363 . S
C418 H395 0.950 . S
C418 C417 1.397 . S
C418 C419 1.334 . S
C419 H396 0.950 . S
C419 C418 1.334 . S
C419 C420 1.287 . S
C420 C419 1.287 . S
C420 C421 1.524 . S
C420 H439 0.913 . S
C421 H397 0.950 . S
C421 C420 1.524 . S
C421 C422 1.415 . S
C422 H398 0.950 . S
C422 C417 1.363 . S
C422 C421 1.415 . S
C423 H399 0.951 . S
C423 C424 1.366 . S
C423 C425 1.388 . S
C424 C423 1.366 . S
C424 C428 1.385 . S
C425 H400 0.951 . S
C425 C423 1.388 . S
C425 C426 1.366 . S
C426 C425 1.366 . S
C426 C427 1.414 . S
C426 C429 1.499 . S
C427 H401 0.950 . S
C427 C426 1.414 . S
C427 C428 1.374 . S
C428 H402 0.950 . S
C428 C424 1.385 . S
C428 C427 1.374 . S
C429 C426 1.499 . S
C429 C430 1.373 . S
C429 C431 1.389 . S
C430 H403 0.950 . S
C430 C416 1.377 . S
C430 C429 1.373 . S
C431 C415 1.377 . S
C431 C429 1.389 . S
C431 C432 1.524 . S
C432 C431 1.524 . S
C432 C433 1.397 . S
C432 C437 1.363 . S
C433 H404 0.950 . S
C433 C432 1.397 . S
C433 C434 1.334 . S
C434 H405 0.950 . S
C434 C433 1.334 . S
C434 C435 1.287 . S
C435 C434 1.287 . S
C435 C436 1.524 . S
C435 H438 0.999 . S
C436 H406 0.950 . S
C436 C435 1.524 . S
C436 C437 1.415 . S
C437 H407 0.950 . S
C437 C432 1.363 . S
C437 C436 1.415 . S
H438 C435 0.999 . S
H439 C420 0.913 . S
H440 C458 0.951 . S
H441 C460 0.951 . S
H442 C462 0.950 . S
H443 C463 0.950 . S
H444 C465 0.950 . S
H445 C468 0.950 . S
H446 C469 0.950 . S
H447 C471 0.950 . S
H448 C472 0.950 . S
H449 C473 0.951 . S
H450 C475 0.951 . S
H451 C477 0.950 . S
H452 C478 0.950 . S
H453 C480 0.950 . S
H454 C483 0.950 . S
H455 C484 0.950 . S
H456 C486 0.950 . S
H457 C487 0.950 . S
C458 H440 0.951 . S
C458 C459 1.366 . S
C458 C460 1.388 . S
C459 C458 1.366 . S
C459 C463 1.385 . S
C460 H441 0.951 . S
C460 C458 1.388 . S
C460 C461 1.366 . S
C461 C460 1.366 . S
C461 C462 1.414 . S
C461 C464 1.499 . S
C462 H442 0.950 . S
C462 C461 1.414 . S
C462 C463 1.374 . S
C463 H443 0.950 . S
C463 C459 1.385 . S
C463 C462 1.374 . S
C464 C461 1.499 . S
C464 C465 1.373 . S
C464 C466 1.389 . S
C465 H444 0.950 . S
C465 C464 1.373 . S
C465 C481 1.377 . S
C466 C464 1.389 . S
C466 C467 1.524 . S
C466 C480 1.377 . S
C467 C466 1.524 . S
C467 C468 1.397 . S
C467 C472 1.363 . S
C468 H445 0.950 . S
C468 C467 1.397 . S
C468 C469 1.334 . S
C469 H446 0.950 . S
C469 C468 1.334 . S
C469 C470 1.287 . S
C470 C469 1.287 . S
C470 C471 1.524 . S
C470 H489 0.913 . S
C471 H447 0.950 . S
C471 C470 1.524 . S
C471 C472 1.415 . S
C472 H448 0.950 . S
C472 C467 1.363 . S
C472 C471 1.415 . S
C473 H449 0.951 . S
C473 C474 1.366 . S
C473 C475 1.388 . S
C474 C473 1.366 . S
C474 C478 1.385 . S
C475 H450 0.951 . S
C475 C473 1.388 . S
C475 C476 1.366 . S
C476 C475 1.366 . S
C476 C477 1.414 . S
C476 C479 1.499 . S
C477 H451 0.950 . S
C477 C476 1.414 . S
C477 C478 1.374 . S
C478 H452 0.950 . S
C478 C474 1.385 . S
C478 C477 1.374 . S
C479 C476 1.499 . S
C479 C480 1.373 . S
C479 C481 1.389 . S
C480 H453 0.950 . S
C480 C466 1.377 . S
C480 C479 1.373 . S
C481 C465 1.377 . S
C481 C479 1.389 . S
C481 C482 1.524 . S
C482 C481 1.524 . S
C482 C483 1.397 . S
C482 C487 1.363 . S
C483 H454 0.950 . S
C483 C482 1.397 . S
C483 C484 1.334 . S
C484 H455 0.950 . S
C484 C483 1.334 . S
C484 C485 1.287 . S
C485 C484 1.287 . S
C485 C486 1.524 . S
C485 H488 0.999 . S
C486 H456 0.950 . S
C486 C485 1.524 . S
C486 C487 1.415 . S
C487 H457 0.950 . S
C487 C482 1.363 . S
C487 C486 1.415 . S
H488 C485 0.999 . S
H489 C470 0.913 . S
H490 C508 0.951 . S
H491 C510 0.951 . S
H492 C512 0.950 . S
H493 C513 0.950 . S
H494 C515 0.950 . S
H495 C518 0.950 . S
H496 C519 0.950 . S
H497 C521 0.950 . S
H498 C522 0.950 . S
H499 C523 0.951 . S
H500 C525 0.951 . S
H501 C527 0.950 . S
H502 C528 0.950 . S
H503 C530 0.950 . S
H504 C533 0.950 . S
H505 C534 0.950 . S
H506 C536 0.950 . S
H507 C537 0.950 . S
C508 H490 0.951 . S
C508 C509 1.355 1_455 S
C508 C510 1.388 . S
C509 C508 1.355 1_655 S
C509 C513 1.395 . S
C510 H491 0.951 . S
C510 C508 1.388 . S
C510 C511 1.366 1_455 S
C511 C510 1.366 1_655 S
C511 C512 1.414 . S
C511 C514 1.499 . S
C512 H492 0.950 . S
C512 C511 1.414 . S
C512 C513 1.374 . S
C513 H493 0.950 . S
C513 C509 1.395 . S
C513 C512 1.374 . S
C514 C511 1.499 . S
C514 C515 1.373 . S
C514 C516 1.389 1_655 S
C515 H494 0.950 . S
C515 C514 1.373 . S
C515 C531 1.377 . S
C516 C514 1.389 1_455 S
C516 C517 1.524 . S
C516 C530 1.377 . S
C517 C516 1.524 . S
C517 C518 1.397 . S
C517 C522 1.363 . S
C518 H495 0.950 . S
C518 C517 1.397 . S
C518 C519 1.334 . S
C519 H496 0.950 . S
C519 C518 1.334 . S
C519 C520 1.287 . S
C520 C519 1.287 . S
C520 C521 1.524 . S
C520 H539 0.913 . S
C521 H497 0.950 . S
C521 C520 1.524 . S
C521 C522 1.415 . S
C522 H498 0.950 . S
C522 C517 1.363 . S
C522 C521 1.415 . S
C523 H499 0.951 . S
C523 C524 1.366 . S
C523 C525 1.388 . S
C524 C523 1.366 . S
C524 C528 1.385 1_655 S
C525 H500 0.951 . S
C525 C523 1.388 . S
C525 C526 1.366 . S
C526 C525 1.366 . S
C526 C527 1.414 1_655 S
C526 C529 1.499 . S
C527 H501 0.950 . S
C527 C526 1.414 1_455 S
C527 C528 1.374 . S
C528 H502 0.950 . S
C528 C524 1.385 1_455 S
C528 C527 1.374 . S
C529 C526 1.499 . S
C529 C530 1.373 1_655 S
C529 C531 1.389 . S
C530 H503 0.950 . S
C530 C516 1.377 . S
C530 C529 1.373 1_455 S
C531 C515 1.377 . S
C531 C529 1.389 . S
C531 C532 1.524 . S
C532 C531 1.524 . S
C532 C533 1.397 . S
C532 C537 1.363 . S
C533 H504 0.950 . S
C533 C532 1.397 . S
C533 C534 1.334 . S
C534 H505 0.950 . S
C534 C533 1.334 . S
C534 C535 1.287 . S
C535 C534 1.287 . S
C535 C536 1.524 . S
C535 H538 0.999 . S
C536 H506 0.950 . S
C536 C535 1.524 . S
C536 C537 1.415 . S
C537 H507 0.950 . S
C537 C532 1.363 . S
C537 C536 1.415 . S
H538 C535 0.999 . S
H539 C520 0.913 . S
H540 C558 0.951 . S
H541 C560 0.951 . S
H542 C562 0.950 . S
H543 C563 0.950 . S
H544 C565 0.950 . S
H545 C568 0.950 . S
H546 C569 0.950 1_554 S
H547 C571 0.950 . S
H548 C572 0.950 . S
H549 C573 0.951 1_545 S
H550 C575 0.951 . S
H551 C577 0.950 . S
H552 C578 0.950 . S
H553 C580 0.950 . S
H554 C583 0.938 1_565 S
H555 C584 0.950 . S
H556 C586 0.950 . S
H557 C587 0.950 . S
C558 H540 0.951 . S
C558 C559 1.366 1_556 S
C558 C560 1.388 . S
C559 C558 1.366 1_554 S
C559 C563 1.385 . S
C560 H541 0.951 . S
C560 C558 1.388 . S
C560 C561 1.366 . S
C561 C560 1.366 . S
C561 C562 1.414 1_556 S
C561 C564 1.499 . S
C562 H542 0.950 . S
C562 C561 1.414 1_554 S
C562 C563 1.374 . S
C563 H543 0.950 . S
C563 C559 1.385 . S
C563 C562 1.374 . S
C564 C561 1.499 . S
C564 C565 1.373 . S
C564 C566 1.389 . S
C565 H544 0.950 . S
C565 C564 1.373 . S
C565 C581 1.377 . S
C566 C564 1.389 . S
C566 C567 1.524 . S
C566 C580 1.377 . S
C567 C566 1.524 . S
C567 C568 1.397 . S
C567 C572 1.363 . S
C568 H545 0.950 . S
C568 C567 1.397 . S
C568 C569 1.334 . S
C569 H546 0.950 1_556 S
C569 C568 1.334 . S
C569 C570 1.287 . S
C570 C569 1.287 . S
C570 C571 1.524 . S
C570 H589 0.913 . S
C571 H547 0.950 . S
C571 C570 1.524 . S
C571 C572 1.415 . S
C572 H548 0.950 . S
C572 C567 1.363 . S
C572 C571 1.415 . S
C573 H549 0.951 1_565 S
C573 C574 1.366 . S
C573 C575 1.388 . S
C574 C573 1.366 . S
C574 C578 1.385 . S
C575 H550 0.951 . S
C575 C573 1.388 . S
C575 C576 1.366 . S
C576 C575 1.366 . S
C576 C577 1.414 . S
C576 C579 1.499 . S
C577 H551 0.950 . S
C577 C576 1.414 . S
C577 C578 1.374 . S
C578 H552 0.950 . S
C578 C574 1.385 . S
C578 C577 1.374 . S
C579 C576 1.499 . S
C579 C580 1.373 . S
C579 C581 1.389 . S
C580 H553 0.950 . S
C580 C566 1.377 . S
C580 C579 1.373 . S
C581 C565 1.377 . S
C581 C579 1.389 . S
C581 C582 1.524 . S
C582 C581 1.524 . S
C582 C583 1.397 1_565 S
C582 C587 1.363 1_565 S
C583 H554 0.938 1_545 S
C583 C582 1.397 1_545 S
C583 C584 1.334 . S
C584 H555 0.950 . S
C584 C583 1.334 . S
C584 C585 1.287 . S
C585 C584 1.287 . S
C585 C586 1.524 . S
C585 H588 0.999 . S
C586 H556 0.950 . S
C586 C585 1.524 . S
C586 C587 1.415 . S
C587 H557 0.950 . S
C587 C582 1.363 1_545 S
C587 C586 1.415 . S
H588 C585 0.999 . S
H589 C570 0.913 . S
H590 C608 0.951 . S
H591 C610 0.951 . S
H592 C612 0.950 . S
H593 C613 0.950 1_556 S
H594 C615 0.950 . S
H595 C618 0.950 . S
H596 C619 0.950 . S
H597 C621 0.950 . S
H598 C622 0.950 . S
H599 C623 0.951 . S
H600 C625 0.951 . S
H601 C627 0.950 . S
H602 C628 0.950 . S
H603 C630 0.950 . S
H604 C633 0.950 . S
H605 C634 0.950 . S
H606 C636 0.950 . S
H607 C637 0.950 . S
C608 H590 0.951 . S
C608 C609 1.366 . S
C608 C610 1.388 . S
C609 C608 1.366 . S
C609 C613 1.385 . S
C610 H591 0.951 . S
C610 C608 1.388 . S
C610 C611 1.366 1_554 S
C611 C610 1.366 1_556 S
C611 C612 1.414 . S
C611 C614 1.499 . S
C612 H592 0.950 . S
C612 C611 1.414 . S
C612 C613 1.374 1_556 S
C613 H593 0.950 1_554 S
C613 C609 1.385 . S
C613 C612 1.374 1_554 S
C614 C611 1.499 . S
C614 C615 1.373 . S
C614 C616 1.389 . S
C615 H594 0.950 . S
C615 C614 1.373 . S
C615 C631 1.377 . S
C616 C614 1.389 . S
C616 C617 1.524 . S
C616 C630 1.377 . S
C617 C616 1.524 . S
C617 C618 1.397 . S
C617 C622 1.363 1_556 S
C618 H595 0.950 . S
C618 C617 1.397 . S
C618 C619 1.334 1_556 S
C619 H596 0.950 . S
C619 C618 1.334 1_554 S
C619 C620 1.287 . S
C620 C619 1.287 . S
C620 C621 1.524 . S
C620 H639 0.913 . S
C621 H597 0.950 . S
C621 C620 1.524 . S
C621 C622 1.415 . S
C622 H598 0.950 . S
C622 C617 1.363 1_554 S
C622 C621 1.415 . S
C623 H599 0.951 . S
C623 C624 1.366 . S
C623 C625 1.388 . S
C624 C623 1.366 . S
C624 C628 1.385 . S
C625 H600 0.951 . S
C625 C623 1.388 . S
C625 C626 1.366 . S
C626 C625 1.366 . S
C626 C627 1.414 . S
C626 C629 1.499 . S
C627 H601 0.950 . S
C627 C626 1.414 . S
C627 C628 1.374 . S
C628 H602 0.950 . S
C628 C624 1.385 . S
C628 C627 1.374 . S
C629 C626 1.499 . S
C629 C630 1.373 . S
C629 C631 1.389 . S
C630 H603 0.950 . S
C630 C616 1.377 . S
C630 C629 1.373 . S
C631 C615 1.377 . S
C631 C629 1.389 . S
C631 C632 1.524 . S
C632 C631 1.524 . S
C632 C633 1.397 . S
C632 C637 1.363 . S
C633 H604 0.950 . S
C633 C632 1.397 . S
C633 C634 1.334 . S
C634 H605 0.950 . S
C634 C633 1.334 . S
C634 C635 1.287 . S
C635 C634 1.287 . S
C635 C636 1.524 . S
C635 H638 0.999 . S
C636 H606 0.950 . S
C636 C635 1.524 . S
C636 C637 1.415 . S
C637 H607 0.950 . S
C637 C632 1.363 . S
C637 C636 1.415 . S
H638 C635 0.999 . S
H639 C620 0.913 . S
H640 C658 0.951 . S
H641 C660 0.951 . S
H642 C662 0.950 . S
H643 C663 0.950 . S
H644 C665 0.950 . S
H645 C668 0.950 . S
H646 C669 0.950 . S
H647 C671 0.950 . S
H648 C672 0.950 . S
H649 C673 0.951 . S
H650 C675 0.951 . S
H651 C677 0.950 . S
H652 C678 0.950 . S
H653 C680 0.950 . S
H654 C683 0.950 . S
H655 C684 0.950 . S
H656 C686 0.950 . S
H657 C687 0.950 . S
C658 H640 0.951 . S
C658 C659 1.366 . S
C658 C660 1.388 . S
C659 C658 1.366 . S
C659 C663 1.385 1_554 S
C660 H641 0.951 . S
C660 C658 1.388 . S
C660 C661 1.366 1_554 S
C661 C660 1.366 1_556 S
C661 C662 1.414 . S
C661 C664 1.499 . S
C662 H642 0.950 . S
C662 C661 1.414 . S
C662 C663 1.374 . S
C663 H643 0.950 . S
C663 C659 1.385 1_556 S
C663 C662 1.374 . S
C664 C661 1.499 . S
C664 C665 1.373 . S
C664 C666 1.389 . S
C665 H644 0.950 . S
C665 C664 1.373 . S
C665 C681 1.377 . S
C666 C664 1.389 . S
C666 C667 1.524 . S
C666 C680 1.377 . S
C667 C666 1.524 . S
C667 C668 1.397 . S
C667 C672 1.363 1_556 S
C668 H645 0.950 . S
C668 C667 1.397 . S
C668 C669 1.334 1_556 S
C669 H646 0.950 . S
C669 C668 1.334 1_554 S
C669 C670 1.287 . S
C670 C669 1.287 . S
C670 C671 1.524 . S
C670 H689 0.913 . S
C671 H647 0.950 . S
C671 C670 1.524 . S
C671 C672 1.415 . S
C672 H648 0.950 . S
C672 C667 1.363 1_554 S
C672 C671 1.415 . S
C673 H649 0.951 . S
C673 C674 1.366 . S
C673 C675 1.388 . S
C674 C673 1.366 . S
C674 C678 1.385 . S
C675 H650 0.951 . S
C675 C673 1.388 . S
C675 C676 1.366 . S
C676 C675 1.366 . S
C676 C677 1.414 . S
C676 C679 1.499 . S
C677 H651 0.950 . S
C677 C676 1.414 . S
C677 C678 1.374 . S
C678 H652 0.950 . S
C678 C674 1.385 . S
C678 C677 1.374 . S
C679 C676 1.499 . S
C679 C680 1.373 . S
C679 C681 1.389 . S
C680 H653 0.950 . S
C680 C666 1.377 . S
C680 C679 1.373 . S
C681 C665 1.377 . S
C681 C679 1.389 . S
C681 C682 1.524 . S
C682 C681 1.524 . S
C682 C683 1.397 . S
C682 C687 1.363 . S
C683 H654 0.950 . S
C683 C682 1.397 . S
C683 C684 1.334 . S
C684 H655 0.950 . S
C684 C683 1.334 . S
C684 C685 1.287 . S
C685 C684 1.287 . S
C685 C686 1.524 . S
C685 H688 0.999 . S
C686 H656 0.950 . S
C686 C685 1.524 . S
C686 C687 1.415 . S
C687 H657 0.950 . S
C687 C682 1.363 . S
C687 C686 1.415 . S
H688 C685 0.999 . S
H689 C670 0.913 . S
H690 C708 0.951 . S
H691 C710 0.951 . S
H692 C712 0.950 . S
H693 C713 0.950 1_556 S
H694 C715 0.950 . S
H695 C718 0.950 . S
H696 C719 0.950 . S
H697 C721 0.950 . S
H698 C722 0.950 . S
H699 C723 0.951 . S
H700 C725 0.951 . S
H701 C727 0.950 . S
H702 C728 0.950 . S
H703 C730 0.950 . S
H704 C733 0.950 . S
H705 C734 0.950 . S
H706 C736 0.950 . S
H707 C737 0.950 . S
C708 H690 0.951 . S
C708 C709 1.366 . S
C708 C710 1.388 . S
C709 C708 1.366 . S
C709 C713 1.384 1_455 S
C710 H691 0.951 . S
C710 C708 1.388 . S
C710 C711 1.366 1_554 S
C711 C710 1.366 1_556 S
C711 C712 1.414 1_455 S
C711 C714 1.499 . S
C712 H692 0.950 . S
C712 C711 1.414 1_655 S
C712 C713 1.374 1_556 S
C713 H693 0.950 1_554 S
C713 C709 1.384 1_655 S
C713 C712 1.374 1_554 S
C714 C711 1.499 . S
C714 C715 1.373 1_455 S
C714 C716 1.389 . S
C715 H694 0.950 . S
C715 C714 1.373 1_655 S
C715 C731 1.377 . S
C716 C714 1.389 . S
C716 C717 1.524 . S
C716 C730 1.377 . S
C717 C716 1.524 . S
C717 C718 1.397 . S
C717 C722 1.363 1_556 S
C718 H695 0.950 . S
C718 C717 1.397 . S
C718 C719 1.334 . S
C719 H696 0.950 . S
C719 C718 1.334 . S
C719 C720 1.287 1_556 S
C720 C719 1.287 1_554 S
C720 C721 1.524 . S
C720 H739 0.913 . S
C721 H697 0.950 . S
C721 C720 1.524 . S
C721 C722 1.415 . S
C722 H698 0.950 . S
C722 C717 1.363 1_554 S
C722 C721 1.415 . S
C723 H699 0.951 . S
C723 C724 1.366 1_655 S
C723 C725 1.388 . S
C724 C723 1.366 1_455 S
C724 C728 1.385 . S
C725 H700 0.951 . S
C725 C723 1.388 . S
C725 C726 1.366 1_655 S
C726 C725 1.366 1_455 S
C726 C727 1.414 . S
C726 C729 1.499 . S
C727 H701 0.950 . S
C727 C726 1.414 . S
C727 C728 1.374 . S
C728 H702 0.950 . S
C728 C724 1.385 . S
C728 C727 1.374 . S
C729 C726 1.499 . S
C729 C730 1.373 . S
C729 C731 1.389 1_455 S
C730 H703 0.950 . S
C730 C716 1.377 . S
C730 C729 1.373 . S
C731 C715 1.377 . S
C731 C729 1.389 1_655 S
C731 C732 1.524 . S
C732 C731 1.524 . S
C732 C733 1.397 . S
C732 C737 1.363 . S
C733 H704 0.950 . S
C733 C732 1.397 . S
C733 C734 1.334 . S
C734 H705 0.950 . S
C734 C733 1.334 . S
C734 C735 1.287 . S
C735 C734 1.287 . S
C735 C736 1.524 . S
C735 H738 0.999 . S
C736 H706 0.950 . S
C736 C735 1.524 . S
C736 C737 1.415 . S
C737 H707 0.950 . S
C737 C732 1.363 . S
C737 C736 1.415 . S
H738 C735 0.999 . S
H739 C720 0.913 . S
H740 C758 0.951 . S
H741 C760 0.951 . S
H742 C762 0.950 . S
H743 C763 0.950 . S
H744 C765 0.950 . S
H745 C768 0.954 . S
H746 C769 0.950 1_455 S
H747 C771 0.950 . S
H748 C772 0.950 . S
H749 C773 0.951 . S
H750 C775 0.951 . S
H751 C777 0.950 . S
H752 C778 0.950 . S
H753 C780 0.950 . S
H754 C783 0.950 . S
H755 C784 0.950 . S
H756 C786 0.950 . S
H757 C787 0.950 . S
C758 H740 0.951 . S
C758 C759 1.366 1_655 S
C758 C760 1.388 . S
C759 C758 1.366 1_455 S
C759 C763 1.385 . S
C760 H741 0.951 . S
C760 C758 1.388 . S
C760 C761 1.366 . S
C761 C760 1.366 . S
C761 C762 1.414 1_655 S
C761 C764 1.499 . S
C762 H742 0.950 . S
C762 C761 1.414 1_455 S
C762 C763 1.374 . S
C763 H743 0.950 . S
C763 C759 1.385 . S
C763 C762 1.374 . S
C764 C761 1.499 . S
C764 C765 1.373 1_655 S
C764 C766 1.389 . S
C765 H744 0.950 . S
C765 C764 1.373 1_455 S
C765 C781 1.377 1_455 S
C766 C764 1.389 . S
C766 C767 1.524 . S
C766 C780 1.377 . S
C767 C766 1.524 . S
C767 C768 1.393 1_655 S
C767 C772 1.363 . S
C768 H745 0.954 . S
C768 C767 1.393 1_455 S
C768 C769 1.334 1_455 S
C769 H746 0.950 1_655 S
C769 C768 1.334 1_655 S
C769 C770 1.287 . S
C770 C769 1.287 . S
C770 C771 1.524 . S
C770 H789 0.913 . S
C771 H747 0.950 . S
C771 C770 1.524 . S
C771 C772 1.415 . S
C772 H748 0.950 . S
C772 C767 1.363 . S
C772 C771 1.415 . S
C773 H749 0.951 . S
C773 C774 1.366 1_455 S
C773 C775 1.388 . S
C774 C773 1.366 1_655 S
C774 C778 1.385 . S
C775 H750 0.951 . S
C775 C773 1.388 . S
C775 C776 1.366 1_455 S
C776 C775 1.366 1_655 S
C776 C777 1.414 . S
C776 C779 1.499 . S
C777 H751 0.950 . S
C777 C776 1.414 . S
C777 C778 1.374 . S
C778 H752 0.950 . S
C778 C774 1.385 . S
C778 C777 1.374 . S
C779 C776 1.499 . S
C779 C780 1.373 . S
C779 C781 1.389 . S
C780 H753 0.950 . S
C780 C766 1.377 . S
C780 C779 1.373 . S
C781 C765 1.377 1_655 S
C781 C779 1.389 . S
C781 C782 1.524 1_655 S
C782 C781 1.524 1_455 S
C782 C783 1.397 1_455 S
C782 C787 1.363 . S
C783 H754 0.950 . S
C783 C782 1.397 1_655 S
C783 C784 1.334 . S
C784 H755 0.950 . S
C784 C783 1.334 . S
C784 C785 1.287 1_655 S
C785 C784 1.287 1_455 S
C785 C786 1.524 . S
C785 H788 0.999 . S
C786 H756 0.950 . S
C786 C785 1.524 . S
C786 C787 1.415 . S
C787 H757 0.950 . S
C787 C782 1.363 . S
C787 C786 1.415 . S
H788 C785 0.999 . S
H789 C770 0.913 . S
H790 C808 0.951 . S
H791 C810 0.951 . S
H792 C812 0.950 . S
H793 C813 0.950 . S
H794 C815 0.950 . S
H795 C818 0.950 . S
H796 C819 0.950 . S
H797 C821 0.950 . S
H798 C822 0.950 . S
H799 C823 0.951 . S
H800 C825 0.951 . S
H801 C827 0.950 . S
H802 C828 0.950 . S
H803 C830 0.950 . S
H804 C833 0.950 . S
H805 C834 0.950 . S
H806 C836 0.950 . S
H807 C837 0.950 . S
C808 H790 0.951 . S
C808 C809 1.366 . S
C808 C810 1.388 . S
C809 C808 1.366 . S
C809 C813 1.385 . S
C810 H791 0.951 . S
C810 C808 1.388 . S
C810 C811 1.366 . S
C811 C810 1.366 . S
C811 C812 1.414 . S
C811 C814 1.499 . S
C812 H792 0.950 . S
C812 C811 1.414 . S
C812 C813 1.374 . S
C813 H793 0.950 . S
C813 C809 1.385 . S
C813 C812 1.374 . S
C814 C811 1.499 . S
C814 C815 1.373 . S
C814 C816 1.389 . S
C815 H794 0.950 . S
C815 C814 1.373 . S
C815 C831 1.377 . S
C816 C814 1.389 . S
C816 C817 1.524 . S
C816 C830 1.377 . S
C817 C816 1.524 . S
C817 C818 1.397 . S
C817 C822 1.363 . S
C818 H795 0.950 . S
C818 C817 1.397 . S
C818 C819 1.334 . S
C819 H796 0.950 . S
C819 C818 1.334 . S
C819 C820 1.287 . S
C820 C819 1.287 . S
C820 C821 1.524 . S
C820 H839 0.913 . S
C821 H797 0.950 . S
C821 C820 1.524 . S
C821 C822 1.415 . S
C822 H798 0.950 . S
C822 C817 1.363 . S
C822 C821 1.415 . S
C823 H799 0.951 . S
C823 C824 1.366 . S
C823 C825 1.388 . S
C824 C823 1.366 . S
C824 C828 1.385 . S
C825 H800 0.951 . S
C825 C823 1.388 . S
C825 C826 1.366 . S
C826 C825 1.366 . S
C826 C827 1.414 . S
C826 C829 1.499 . S
C827 H801 0.950 . S
C827 C826 1.414 . S
C827 C828 1.374 . S
C828 H802 0.950 . S
C828 C824 1.385 . S
C828 C827 1.374 . S
C829 C826 1.499 . S
C829 C830 1.373 . S
C829 C831 1.389 . S
C830 H803 0.950 . S
C830 C816 1.377 . S
C830 C829 1.373 . S
C831 C815 1.377 . S
C831 C829 1.389 . S
C831 C832 1.524 . S
C832 C831 1.524 . S
C832 C833 1.397 . S
C832 C837 1.363 . S
C833 H804 0.950 . S
C833 C832 1.397 . S
C833 C834 1.334 1_545 S
C834 H805 0.950 . S
C834 C833 1.334 1_565 S
C834 C835 1.287 1_565 S
C835 C834 1.287 1_545 S
C835 C836 1.524 . S
C835 H838 0.999 1_545 S
C836 H806 0.950 . S
C836 C835 1.524 . S
C836 C837 1.415 . S
C837 H807 0.950 . S
C837 C832 1.363 . S
C837 C836 1.415 . S
H838 C835 0.999 1_565 S
H839 C820 0.913 . S
H840 C858 0.951 . S
H841 C860 0.951 . S
H842 C862 0.950 . S
H843 C863 0.950 . S
H844 C865 0.950 . S
H845 C868 0.950 . S
H846 C869 0.950 . S
H847 C871 0.950 . S
H848 C872 0.950 . S
H849 C873 0.951 . S
H850 C875 0.951 . S
H851 C877 0.950 . S
H852 C878 0.950 . S
H853 C880 0.950 . S
H854 C883 0.950 . S
H855 C884 0.950 . S
H856 C886 0.950 . S
H857 C887 0.950 . S
C858 H840 0.951 . S
C858 C859 1.366 . S
C858 C860 1.388 . S
C859 C858 1.366 . S
C859 C863 1.385 . S
C860 H841 0.951 . S
C860 C858 1.388 . S
C860 C861 1.366 . S
C861 C860 1.366 . S
C861 C862 1.414 . S
C861 C864 1.499 . S
C862 H842 0.950 . S
C862 C861 1.414 . S
C862 C863 1.374 . S
C863 H843 0.950 . S
C863 C859 1.385 . S
C863 C862 1.374 . S
C864 C861 1.499 . S
C864 C865 1.373 . S
C864 C866 1.389 . S
C865 H844 0.950 . S
C865 C864 1.373 . S
C865 C881 1.377 . S
C866 C864 1.389 . S
C866 C867 1.524 . S
C866 C880 1.377 . S
C867 C866 1.524 . S
C867 C868 1.397 . S
C867 C872 1.363 . S
C868 H845 0.950 . S
C868 C867 1.397 . S
C868 C869 1.334 . S
C869 H846 0.950 . S
C869 C868 1.334 . S
C869 C870 1.287 . S
C870 C869 1.287 . S
C870 C871 1.524 . S
C870 H889 0.913 . S
C871 H847 0.950 . S
C871 C870 1.524 . S
C871 C872 1.415 . S
C872 H848 0.950 . S
C872 C867 1.363 . S
C872 C871 1.415 . S
C873 H849 0.951 . S
C873 C874 1.366 . S
C873 C875 1.388 . S
C874 C873 1.366 . S
C874 C878 1.385 . S
C875 H850 0.951 . S
C875 C873 1.388 . S
C875 C876 1.366 . S
C876 C875 1.366 . S
C876 C877 1.414 . S
C876 C879 1.499 . S
C877 H851 0.950 . S
C877 C876 1.414 . S
C877 C878 1.374 . S
C878 H852 0.950 . S
C878 C874 1.385 . S
C878 C877 1.374 . S
C879 C876 1.499 . S
C879 C880 1.373 . S
C879 C881 1.389 . S
C880 H853 0.950 . S
C880 C866 1.377 . S
C880 C879 1.373 . S
C881 C865 1.377 . S
C881 C879 1.389 . S
C881 C882 1.524 . S
C882 C881 1.524 . S
C882 C883 1.397 . S
C882 C887 1.363 . S
C883 H854 0.950 . S
C883 C882 1.397 . S
C883 C884 1.334 . S
C884 H855 0.950 . S
C884 C883 1.334 . S
C884 C885 1.287 . S
C885 C884 1.287 . S
C885 C886 1.524 . S
C885 H888 0.999 . S
C886 H856 0.950 . S
C886 C885 1.524 . S
C886 C887 1.415 . S
C887 H857 0.950 . S
C887 C882 1.363 . S
C887 C886 1.415 . S
H888 C885 0.999 . S
H889 C870 0.913 . S
H890 C908 0.951 . S
H891 C910 0.951 . S
H892 C912 0.950 . S
H893 C913 0.950 . S
H894 C915 0.950 . S
H895 C918 0.950 . S
H896 C919 0.950 . S
H897 C921 0.950 . S
H898 C922 0.950 . S
H899 C923 0.951 . S
H900 C925 0.951 . S
H901 C927 0.950 . S
H902 C928 0.950 . S
H903 C930 0.950 . S
H904 C933 0.950 . S
H905 C934 0.950 . S
H906 C936 0.950 . S
H907 C937 0.950 . S
C908 H890 0.951 . S
C908 C909 1.366 . S
C908 C910 1.388 . S
C909 C908 1.366 . S
C909 C913 1.385 . S
C910 H891 0.951 . S
C910 C908 1.388 . S
C910 C911 1.366 . S
C911 C910 1.366 . S
C911 C912 1.414 . S
C911 C914 1.499 . S
C912 H892 0.950 . S
C912 C911 1.414 . S
C912 C913 1.374 . S
C913 H893 0.950 . S
C913 C909 1.385 . S
C913 C912 1.374 . S
C914 C911 1.499 . S
C914 C915 1.373 . S
C914 C916 1.389 . S
C915 H894 0.950 . S
C915 C914 1.373 . S
C915 C931 1.377 . S
C916 C914 1.389 . S
C916 C917 1.524 . S
C916 C930 1.377 . S
C917 C916 1.524 . S
C917 C918 1.397 . S
C917 C922 1.363 . S
C918 H895 0.950 . S
C918 C917 1.397 . S
C918 C919 1.334 . S
C919 H896 0.950 . S
C919 C918 1.334 . S
C919 C920 1.287 . S
C920 C919 1.287 . S
C920 C921 1.524 . S
C920 H939 0.913 . S
C921 H897 0.950 . S
C921 C920 1.524 . S
C921 C922 1.415 . S
C922 H898 0.950 . S
C922 C917 1.363 . S
C922 C921 1.415 . S
C923 H899 0.951 . S
C923 C924 1.366 . S
C923 C925 1.388 . S
C924 C923 1.366 . S
C924 C928 1.385 . S
C925 H900 0.951 . S
C925 C923 1.388 . S
C925 C926 1.366 . S
C926 C925 1.366 . S
C926 C927 1.414 . S
C926 C929 1.499 . S
C927 H901 0.950 . S
C927 C926 1.414 . S
C927 C928 1.374 . S
C928 H902 0.950 . S
C928 C924 1.385 . S
C928 C927 1.374 . S
C929 C926 1.499 . S
C929 C930 1.373 . S
C929 C931 1.389 . S
C930 H903 0.950 . S
C930 C916 1.377 . S
C930 C929 1.373 . S
C931 C915 1.377 . S
C931 C929 1.389 . S
C931 C932 1.524 . S
C932 C931 1.524 . S
C932 C933 1.397 . S
C932 C937 1.363 . S
C933 H904 0.950 . S
C933 C932 1.397 . S
C933 C934 1.334 . S
C934 H905 0.950 . S
C934 C933 1.334 . S
C934 C935 1.287 . S
C935 C934 1.287 . S
C935 C936 1.524 . S
C935 H938 0.999 . S
C936 H906 0.950 . S
C936 C935 1.524 . S
C936 C937 1.415 . S
C937 H907 0.950 . S
C937 C932 1.363 . S
C937 C936 1.415 . S
H938 C935 0.999 . S
H939 C920 0.913 . S
H940 C958 0.951 . S
H941 C960 0.951 . S
H942 C962 0.950 1_554 S
H943 C963 0.950 . S
H944 C965 0.950 . S
H945 C968 0.950 . S
H946 C969 0.950 1_554 S
H947 C971 0.950 . S
H948 C972 0.950 . S
H949 C973 0.945 1_655 S
H950 C975 0.951 . S
H951 C977 0.950 . S
H952 C978 0.950 . S
H953 C980 0.950 . S
H954 C983 0.950 . S
H955 C984 0.950 . S
H956 C986 0.950 . S
H957 C987 0.950 . S
C958 H940 0.951 . S
C958 C959 1.338 1_455 S
C958 C960 1.388 . S
C959 C958 1.338 1_655 S
C959 C963 1.408 1_556 S
C960 H941 0.951 . S
C960 C958 1.388 . S
C960 C961 1.366 . S
C961 C960 1.366 . S
C961 C962 1.414 1_455 S
C961 C964 1.499 . S
C962 H942 0.950 1_556 S
C962 C961 1.414 1_655 S
C962 C963 1.374 1_556 S
C963 H943 0.950 . S
C963 C959 1.408 1_554 S
C963 C962 1.374 1_554 S
C964 C961 1.499 . S
C964 C965 1.373 1_455 S
C964 C966 1.389 . S
C965 H944 0.950 . S
C965 C964 1.373 1_655 S
C965 C981 1.377 . S
C966 C964 1.389 . S
C966 C967 1.524 . S
C966 C980 1.377 . S
C967 C966 1.524 . S
C967 C968 1.397 . S
C967 C972 1.363 . S
C968 H945 0.950 . S
C968 C967 1.397 . S
C968 C969 1.334 . S
C969 H946 0.950 1_556 S
C969 C968 1.334 . S
C969 C970 1.287 . S
C970 C969 1.287 . S
C970 C971 1.524 . S
C970 H989 0.913 . S
C971 H947 0.950 . S
C971 C970 1.524 . S
C971 C972 1.415 . S
C972 H948 0.950 . S
C972 C967 1.363 . S
C972 C971 1.415 . S
C973 H949 0.945 1_455 S
C973 C974 1.374 . S
C973 C975 1.386 1_455 S
C974 C973 1.374 . S
C974 C978 1.385 . S
C975 H950 0.951 . S
C975 C973 1.386 1_655 S
C975 C976 1.366 1_655 S
C976 C975 1.366 1_455 S
C976 C977 1.414 . S
C976 C979 1.499 . S
C977 H951 0.950 . S
C977 C976 1.414 . S
C977 C978 1.374 . S
C978 H952 0.950 . S
C978 C974 1.385 . S
C978 C977 1.374 . S
C979 C976 1.499 . S
C979 C980 1.373 . S
C979 C981 1.389 1_455 S
C980 H953 0.950 . S
C980 C966 1.377 . S
C980 C979 1.373 . S
C981 C965 1.377 . S
C981 C979 1.389 1_655 S
C981 C982 1.524 . S
C982 C981 1.524 . S
C982 C983 1.397 . S
C982 C987 1.363 . S
C983 H954 0.950 . S
C983 C982 1.397 . S
C983 C984 1.334 . S
C984 H955 0.950 . S
C984 C983 1.334 . S
C984 C985 1.287 . S
C985 C984 1.287 . S
C985 C986 1.524 . S
C985 H988 0.999 . S
C986 H956 0.950 . S
C986 C985 1.524 . S
C986 C987 1.415 . S
C987 H957 0.950 . S
C987 C982 1.363 . S
C987 C986 1.415 . S
H988 C985 0.999 . S
H989 C970 0.913 . S
H990 C1008 0.951 . S
H991 C1010 0.951 . S
H992 C1012 0.950 1_554 S
H993 C1013 0.950 . S
H994 C1015 0.950 . S
H995 C1018 0.950 . S
H996 C1019 0.950 . S
H997 C1021 0.950 1_545 S
H998 C1022 0.950 . S
H999 C1023 0.951 . S
H1000 C1025 0.951 . S
H1001 C1027 0.950 . S
H1002 C1028 0.966 . S
H1003 C1030 0.950 . S
H1004 C1033 0.950 . S
H1005 C1034 0.950 . S
H1006 C1036 0.950 . S
H1007 C1037 0.950 . S
C1008 H990 0.951 . S
C1008 C1009 1.366 . S
C1008 C1010 1.388 . S
C1009 C1008 1.366 . S
C1009 C1013 1.385 1_556 S
C1010 H991 0.951 . S
C1010 C1008 1.388 . S
C1010 C1011 1.366 . S
C1011 C1010 1.366 . S
C1011 C1012 1.414 . S
C1011 C1014 1.499 . S
C1012 H992 0.950 1_556 S
C1012 C1011 1.414 . S
C1012 C1013 1.374 1_556 S
C1013 H993 0.950 . S
C1013 C1009 1.385 1_554 S
C1013 C1012 1.374 1_554 S
C1014 C1011 1.499 . S
C1014 C1015 1.373 . S
C1014 C1016 1.389 . S
C1015 H994 0.950 . S
C1015 C1014 1.373 . S
C1015 C1031 1.377 . S
C1016 C1014 1.389 . S
C1016 C1017 1.524 . S
C1016 C1030 1.377 . S
C1017 C1016 1.524 . S
C1017 C1018 1.397 . S
C1017 C1022 1.363 . S
C1018 H995 0.950 . S
C1018 C1017 1.397 . S
C1018 C1019 1.334 . S
C1019 H996 0.950 . S
C1019 C1018 1.334 . S
C1019 C1020 1.287 . S
C1020 C1019 1.287 . S
C1020 C1021 1.524 . S
C1020 H1039 0.913 1_565 S
C1021 H997 0.950 1_565 S
C1021 C1020 1.524 . S
C1021 C1022 1.415 . S
C1022 H998 0.950 . S
C1022 C1017 1.363 . S
C1022 C1021 1.415 . S
C1023 H999 0.951 . S
C1023 C1024 1.366 1_565 S
C1023 C1025 1.388 . S
C1024 C1023 1.366 1_545 S
C1024 C1028 1.388 . S
C1025 H1000 0.951 . S
C1025 C1023 1.388 . S
C1025 C1026 1.366 . S
C1026 C1025 1.366 . S
C1026 C1027 1.414 . S
C1026 C1029 1.499 . S
C1027 H1001 0.950 . S
C1027 C1026 1.414 . S
C1027 C1028 1.355 1_565 S
C1028 H1002 0.966 . S
C1028 C1024 1.388 . S
C1028 C1027 1.355 1_545 S
C1029 C1026 1.499 . S
C1029 C1030 1.373 . S
C1029 C1031 1.389 . S
C1030 H1003 0.950 . S
C1030 C1016 1.377 . S
C1030 C1029 1.373 . S
C1031 C1015 1.377 . S
C1031 C1029 1.389 . S
C1031 C1032 1.524 . S
C1032 C1031 1.524 . S
C1032 C1033 1.397 . S
C1032 C1037 1.363 . S
C1033 H1004 0.950 . S
C1033 C1032 1.397 . S
C1033 C1034 1.334 . S
C1034 H1005 0.950 . S
C1034 C1033 1.334 . S
C1034 C1035 1.287 . S
C1035 C1034 1.287 . S
C1035 C1036 1.524 . S
C1035 H1038 0.999 . S
C1036 H1006 0.950 . S
C1036 C1035 1.524 . S
C1036 C1037 1.415 . S
C1037 H1007 0.950 . S
C1037 C1032 1.363 . S
C1037 C1036 1.415 . S
H1038 C1035 0.999 . S
H1039 C1020 0.913 1_545 S
H1040 C1058 0.951 1_554 S
H1041 C1060 0.951 . S
H1042 C1062 0.950 . S
H1043 C1063 0.950 . S
H1044 C1065 0.950 . S
H1045 C1068 0.950 . S
H1046 C1069 0.950 . S
H1047 C1071 0.950 . S
H1048 C1072 0.950 1_556 S
H1049 C1073 0.951 . S
H1050 C1075 0.951 . S
H1051 C1077 0.950 . S
H1052 C1078 0.950 . S
H1053 C1080 0.950 . S
H1054 C1083 0.950 . S
H1055 C1084 0.950 . S
H1056 C1086 0.950 . S
H1057 C1087 0.950 . S
C1058 H1040 0.951 1_556 S
C1058 C1059 1.366 . S
C1058 C1060 1.388 . S
C1059 C1058 1.366 . S
C1059 C1063 1.385 . S
C1060 H1041 0.951 . S
C1060 C1058 1.388 . S
C1060 C1061 1.366 . S
C1061 C1060 1.366 . S
C1061 C1062 1.414 . S
C1061 C1064 1.499 . S
C1062 H1042 0.950 . S
C1062 C1061 1.414 . S
C1062 C1063 1.374 . S
C1063 H1043 0.950 . S
C1063 C1059 1.385 . S
C1063 C1062 1.374 . S
C1064 C1061 1.499 . S
C1064 C1065 1.373 . S
C1064 C1066 1.389 . S
C1065 H1044 0.950 . S
C1065 C1064 1.373 . S
C1065 C1081 1.377 . S
C1066 C1064 1.389 . S
C1066 C1067 1.524 . S
C1066 C1080 1.377 . S
C1067 C1066 1.524 . S
C1067 C1068 1.397 1_556 S
C1067 C1072 1.363 1_556 S
C1068 H1045 0.950 . S
C1068 C1067 1.397 1_554 S
C1068 C1069 1.334 . S
C1069 H1046 0.950 . S
C1069 C1068 1.334 . S
C1069 C1070 1.287 . S
C1070 C1069 1.287 . S
C1070 C1071 1.524 . S
C1070 H1089 0.913 . S
C1071 H1047 0.950 . S
C1071 C1070 1.524 . S
C1071 C1072 1.415 . S
C1072 H1048 0.950 1_554 S
C1072 C1067 1.363 1_554 S
C1072 C1071 1.415 . S
C1073 H1049 0.951 . S
C1073 C1074 1.366 . S
C1073 C1075 1.388 . S
C1074 C1073 1.366 . S
C1074 C1078 1.385 . S
C1075 H1050 0.951 . S
C1075 C1073 1.388 . S
C1075 C1076 1.366 . S
C1076 C1075 1.366 . S
C1076 C1077 1.414 . S
C1076 C1079 1.499 . S
C1077 H1051 0.950 . S
C1077 C1076 1.414 . S
C1077 C1078 1.374 . S
C1078 H1052 0.950 . S
C1078 C1074 1.385 . S
C1078 C1077 1.374 . S
C1079 C1076 1.499 . S
C1079 C1080 1.373 . S
C1079 C1081 1.389 . S
C1080 H1053 0.950 . S
C1080 C1066 1.377 . S
C1080 C1079 1.373 . S
C1081 C1065 1.377 . S
C1081 C1079 1.389 . S
C1081 C1082 1.524 . S
C1082 C1081 1.524 . S
C1082 C1083 1.397 . S
C1082 C1087 1.363 . S
C1083 H1054 0.950 . S
C1083 C1082 1.397 . S
C1083 C1084 1.334 . S
C1084 H1055 0.950 . S
C1084 C1083 1.334 . S
C1084 C1085 1.287 . S
C1085 C1084 1.287 . S
C1085 C1086 1.524 . S
C1085 H1088 0.999 . S
C1086 H1056 0.950 . S
C1086 C1085 1.524 . S
C1086 C1087 1.415 . S
C1087 H1057 0.950 . S
C1087 C1082 1.363 . S
C1087 C1086 1.415 . S
H1088 C1085 0.999 . S
H1089 C1070 0.913 . S
H1090 C1108 0.951 . S
H1091 C1110 0.951 . S
H1092 C1112 0.950 . S
H1093 C1113 0.950 . S
H1094 C1115 0.950 . S
H1095 C1118 0.950 . S
H1096 C1119 0.950 . S
H1097 C1121 0.950 . S
H1098 C1122 0.950 . S
H1099 C1123 0.951 . S
H1100 C1125 0.951 . S
H1101 C1127 0.950 . S
H1102 C1128 0.950 . S
H1103 C1130 0.950 . S
H1104 C1133 0.950 . S
H1105 C1134 0.950 . S
H1106 C1136 0.950 . S
H1107 C1137 0.950 . S
C1108 H1090 0.951 . S
C1108 C1109 1.366 . S
C1108 C1110 1.388 . S
C1109 C1108 1.366 . S
C1109 C1113 1.385 . S
C1110 H1091 0.951 . S
C1110 C1108 1.388 . S
C1110 C1111 1.366 . S
C1111 C1110 1.366 . S
C1111 C1112 1.414 . S
C1111 C1114 1.499 . S
C1112 H1092 0.950 . S
C1112 C1111 1.414 . S
C1112 C1113 1.374 . S
C1113 H1093 0.950 . S
C1113 C1109 1.385 . S
C1113 C1112 1.374 . S
C1114 C1111 1.499 . S
C1114 C1115 1.373 . S
C1114 C1116 1.389 . S
C1115 H1094 0.950 . S
C1115 C1114 1.373 . S
C1115 C1131 1.377 . S
C1116 C1114 1.389 . S
C1116 C1117 1.524 . S
C1116 C1130 1.377 . S
C1117 C1116 1.524 . S
C1117 C1118 1.397 1_556 S
C1117 C1122 1.363 . S
C1118 H1095 0.950 . S
C1118 C1117 1.397 1_554 S
C1118 C1119 1.334 . S
C1119 H1096 0.950 . S
C1119 C1118 1.334 . S
C1119 C1120 1.287 . S
C1120 C1119 1.287 . S
C1120 C1121 1.524 . S
C1120 H1139 0.913 . S
C1121 H1097 0.950 . S
C1121 C1120 1.524 . S
C1121 C1122 1.415 1_554 S
C1122 H1098 0.950 . S
C1122 C1117 1.363 . S
C1122 C1121 1.415 1_556 S
C1123 H1099 0.951 . S
C1123 C1124 1.366 . S
C1123 C1125 1.388 . S
C1124 C1123 1.366 . S
C1124 C1128 1.385 . S
C1125 H1100 0.951 . S
C1125 C1123 1.388 . S
C1125 C1126 1.366 . S
C1126 C1125 1.366 . S
C1126 C1127 1.414 . S
C1126 C1129 1.499 . S
C1127 H1101 0.950 . S
C1127 C1126 1.414 . S
C1127 C1128 1.374 . S
C1128 H1102 0.950 . S
C1128 C1124 1.385 . S
C1128 C1127 1.374 . S
C1129 C1126 1.499 . S
C1129 C1130 1.373 . S
C1129 C1131 1.389 . S
C1130 H1103 0.950 . S
C1130 C1116 1.377 . S
C1130 C1129 1.373 . S
C1131 C1115 1.377 . S
C1131 C1129 1.389 . S
C1131 C1132 1.524 . S
C1132 C1131 1.524 . S
C1132 C1133 1.397 . S
C1132 C1137 1.363 . S
C1133 H1104 0.950 . S
C1133 C1132 1.397 . S
C1133 C1134 1.334 . S
C1134 H1105 0.950 . S
C1134 C1133 1.334 . S
C1134 C1135 1.287 . S
C1135 C1134 1.287 . S
C1135 C1136 1.524 . S
C1135 H1138 0.999 . S
C1136 H1106 0.950 . S
C1136 C1135 1.524 . S
C1136 C1137 1.415 . S
C1137 H1107 0.950 . S
C1137 C1132 1.363 . S
C1137 C1136 1.415 . S
H1138 C1135 0.999 . S
H1139 C1120 0.913 . S
H1140 C1158 0.951 . S
H1141 C1160 0.951 . S
H1142 C1162 0.950 . S
H1143 C1163 0.950 . S
H1144 C1165 0.950 1_554 S
H1145 C1168 0.950 . S
H1146 C1169 0.950 . S
H1147 C1171 0.950 . S
H1148 C1172 0.950 . S
H1149 C1173 0.951 . S
H1150 C1175 0.951 . S
H1151 C1177 0.950 . S
H1152 C1178 0.950 . S
H1153 C1180 0.950 . S
H1154 C1183 0.950 . S
H1155 C1184 0.950 . S
H1156 C1186 0.950 . S
H1157 C1187 0.950 . S
C1158 H1140 0.951 . S
C1158 C1159 1.390 . S
C1158 C1160 1.388 . S
C1159 C1158 1.390 . S
C1159 C1163 1.362 1_455 S
C1160 H1141 0.951 . S
C1160 C1158 1.388 . S
C1160 C1161 1.366 . S
C1161 C1160 1.366 . S
C1161 C1162 1.414 1_455 S
C1161 C1164 1.499 . S
C1162 H1142 0.950 . S
C1162 C1161 1.414 1_655 S
C1162 C1163 1.374 . S
C1163 H1143 0.950 . S
C1163 C1159 1.362 1_655 S
C1163 C1162 1.374 . S
C1164 C1161 1.499 . S
C1164 C1165 1.373 1_454 S
C1164 C1166 1.389 1_554 S
C1165 H1144 0.950 1_556 S
C1165 C1164 1.373 1_656 S
C1165 C1181 1.377 . S
C1166 C1164 1.389 1_556 S
C1166 C1167 1.524 . S
C1166 C1180 1.377 . S
C1167 C1166 1.524 . S
C1167 C1168 1.397 . S
C1167 C1172 1.363 1_556 S
C1168 H1145 0.950 . S
C1168 C1167 1.397 . S
C1168 C1169 1.334 . S
C1169 H1146 0.950 . S
C1169 C1168 1.334 . S
C1169 C1170 1.287 . S
C1170 C1169 1.287 . S
C1170 C1171 1.524 1_556 S
C1170 H1189 0.913 . S
C1171 H1147 0.950 . S
C1171 C1170 1.524 1_554 S
C1171 C1172 1.415 . S
C1172 H1148 0.950 . S
C1172 C1167 1.363 1_554 S
C1172 C1171 1.415 . S
C1173 H1149 0.951 . S
C1173 C1174 1.366 1_655 S
C1173 C1175 1.388 . S
C1174 C1173 1.366 1_455 S
C1174 C1178 1.385 . S
C1175 H1150 0.951 . S
C1175 C1173 1.388 . S
C1175 C1176 1.366 1_655 S
C1176 C1175 1.366 1_455 S
C1176 C1177 1.414 . S
C1176 C1179 1.499 . S
C1177 H1151 0.950 . S
C1177 C1176 1.414 . S
C1177 C1178 1.374 . S
C1178 H1152 0.950 . S
C1178 C1174 1.385 . S
C1178 C1177 1.374 . S
C1179 C1176 1.499 . S
C1179 C1180 1.373 . S
C1179 C1181 1.389 1_455 S
C1180 H1153 0.950 . S
C1180 C1166 1.377 . S
C1180 C1179 1.373 . S
C1181 C1165 1.377 . S
C1181 C1179 1.389 1_655 S
C1181 C1182 1.524 . S
C1182 C1181 1.524 . S
C1182 C1183 1.397 . S
C1182 C1187 1.363 . S
C1183 H1154 0.950 . S
C1183 C1182 1.397 . S
C1183 C1184 1.334 . S
C1184 H1155 0.950 . S
C1184 C1183 1.334 . S
C1184 C1185 1.287 . S
C1185 C1184 1.287 . S
C1185 C1186 1.524 . S
C1185 H1188 0.999 . S
C1186 H1156 0.950 . S
C1186 C1185 1.524 . S
C1186 C1187 1.415 . S
C1187 H1157 0.950 . S
C1187 C1182 1.363 . S
C1187 C1186 1.415 . S
H1188 C1185 0.999 . S
H1189 C1170 0.913 . S
H1190 C1208 0.951 . S
H1191 C1210 0.951 . S
H1192 C1212 0.950 . S
H1193 C1213 0.950 . S
H1194 C1215 0.950 . S
H1195 C1218 0.950 . S
H1196 C1219 0.950 . S
H1197 C1221 0.950 . S
H1198 C1222 0.950 . S
H1199 C1223 0.951 . S
H1200 C1225 0.951 . S
H1201 C1227 0.950 . S
H1202 C1228 0.950 . S
H1203 C1230 0.950 . S
H1204 C1233 0.950 . S
H1205 C1234 0.950 . S
H1206 C1236 0.950 . S
H1207 C1237 0.950 . S
C1208 H1190 0.951 . S
C1208 C1209 1.366 . S
C1208 C1210 1.388 . S
C1209 C1208 1.366 . S
C1209 C1213 1.385 . S
C1210 H1191 0.951 . S
C1210 C1208 1.388 . S
C1210 C1211 1.366 . S
C1211 C1210 1.366 . S
C1211 C1212 1.414 . S
C1211 C1214 1.499 . S
C1212 H1192 0.950 . S
C1212 C1211 1.414 . S
C1212 C1213 1.374 . S
C1213 H1193 0.950 . S
C1213 C1209 1.385 . S
C1213 C1212 1.374 . S
C1214 C1211 1.499 . S
C1214 C1215 1.373 . S
C1214 C1216 1.389 1_554 S
C1215 H1194 0.950 . S
C1215 C1214 1.373 . S
C1215 C1231 1.377 . S
C1216 C1214 1.389 1_556 S
C1216 C1217 1.524 . S
C1216 C1230 1.377 . S
C1217 C1216 1.524 . S
C1217 C1218 1.397 . S
C1217 C1222 1.363 . S
C1218 H1195 0.950 . S
C1218 C1217 1.397 . S
C1218 C1219 1.334 . S
C1219 H1196 0.950 . S
C1219 C1218 1.334 . S
C1219 C1220 1.287 . S
C1220 C1219 1.287 . S
C1220 C1221 1.524 . S
C1220 H1239 0.913 . S
C1221 H1197 0.950 . S
C1221 C1220 1.524 . S
C1221 C1222 1.415 . S
C1222 H1198 0.950 . S
C1222 C1217 1.363 . S
C1222 C1221 1.415 . S
C1223 H1199 0.951 . S
C1223 C1224 1.366 . S
C1223 C1225 1.388 . S
C1224 C1223 1.366 . S
C1224 C1228 1.385 . S
C1225 H1200 0.951 . S
C1225 C1223 1.388 . S
C1225 C1226 1.366 . S
C1226 C1225 1.366 . S
C1226 C1227 1.414 . S
C1226 C1229 1.499 . S
C1227 H1201 0.950 . S
C1227 C1226 1.414 . S
C1227 C1228 1.374 . S
C1228 H1202 0.950 . S
C1228 C1224 1.385 . S
C1228 C1227 1.374 . S
C1229 C1226 1.499 . S
C1229 C1230 1.373 . S
C1229 C1231 1.389 1_556 S
C1230 H1203 0.950 . S
C1230 C1216 1.377 . S
C1230 C1229 1.373 . S
C1231 C1215 1.377 . S
C1231 C1229 1.389 1_554 S
C1231 C1232 1.524 . S
C1232 C1231 1.524 . S
C1232 C1233 1.397 . S
C1232 C1237 1.363 . S
C1233 H1204 0.950 . S
C1233 C1232 1.397 . S
C1233 C1234 1.334 . S
C1234 H1205 0.950 . S
C1234 C1233 1.334 . S
C1234 C1235 1.287 . S
C1235 C1234 1.287 . S
C1235 C1236 1.524 . S
C1235 H1238 0.999 . S
C1236 H1206 0.950 . S
C1236 C1235 1.524 . S
C1236 C1237 1.415 . S
C1237 H1207 0.950 . S
C1237 C1232 1.363 . S
C1237 C1236 1.415 . S
H1238 C1235 0.999 . S
H1239 C1220 0.913 . S
H1240 C1258 0.951 . S
H1241 C1260 0.951 . S
H1242 C1262 0.950 . S
H1243 C1263 0.950 . S
H1244 C1265 0.950 . S
H1245 C1268 0.950 . S
H1246 C1269 0.950 . S
H1247 C1271 0.950 . S
H1248 C1272 0.950 . S
H1249 C1273 0.951 . S
H1250 C1275 0.951 . S
H1251 C1277 0.950 . S
H1252 C1278 0.950 . S
H1253 C1280 0.950 . S
H1254 C1283 0.950 . S
H1255 C1284 0.950 . S
H1256 C1286 0.950 . S
H1257 C1287 0.950 1_556 S
C1258 H1240 0.951 . S
C1258 C1259 1.366 . S
C1258 C1260 1.388 . S
C1259 C1258 1.366 . S
C1259 C1263 1.385 . S
C1260 H1241 0.951 . S
C1260 C1258 1.388 . S
C1260 C1261 1.366 . S
C1261 C1260 1.366 . S
C1261 C1262 1.414 . S
C1261 C1264 1.499 . S
C1262 H1242 0.950 . S
C1262 C1261 1.414 . S
C1262 C1263 1.374 . S
C1263 H1243 0.950 . S
C1263 C1259 1.385 . S
C1263 C1262 1.374 . S
C1264 C1261 1.499 . S
C1264 C1265 1.373 . S
C1264 C1266 1.389 1_554 S
C1265 H1244 0.950 . S
C1265 C1264 1.373 . S
C1265 C1281 1.377 1_554 S
C1266 C1264 1.389 1_556 S
C1266 C1267 1.524 . S
C1266 C1280 1.377 . S
C1267 C1266 1.524 . S
C1267 C1268 1.397 . S
C1267 C1272 1.363 . S
C1268 H1245 0.950 . S
C1268 C1267 1.397 . S
C1268 C1269 1.334 . S
C1269 H1246 0.950 . S
C1269 C1268 1.334 . S
C1269 C1270 1.287 . S
C1270 C1269 1.287 . S
C1270 C1271 1.524 . S
C1270 H1289 0.913 . S
C1271 H1247 0.950 . S
C1271 C1270 1.524 . S
C1271 C1272 1.415 . S
C1272 H1248 0.950 . S
C1272 C1267 1.363 . S
C1272 C1271 1.415 . S
C1273 H1249 0.951 . S
C1273 C1274 1.366 . S
C1273 C1275 1.388 . S
C1274 C1273 1.366 . S
C1274 C1278 1.385 . S
C1275 H1250 0.951 . S
C1275 C1273 1.388 . S
C1275 C1276 1.366 . S
C1276 C1275 1.366 . S
C1276 C1277 1.414 . S
C1276 C1279 1.499 . S
C1277 H1251 0.950 . S
C1277 C1276 1.414 . S
C1277 C1278 1.374 . S
C1278 H1252 0.950 . S
C1278 C1274 1.385 . S
C1278 C1277 1.374 . S
C1279 C1276 1.499 . S
C1279 C1280 1.373 . S
C1279 C1281 1.389 . S
C1280 H1253 0.950 . S
C1280 C1266 1.377 . S
C1280 C1279 1.373 . S
C1281 C1265 1.377 1_556 S
C1281 C1279 1.389 . S
C1281 C1282 1.524 1_556 S
C1282 C1281 1.524 1_554 S
C1282 C1283 1.397 . S
C1282 C1287 1.363 . S
C1283 H1254 0.950 . S
C1283 C1282 1.397 . S
C1283 C1284 1.334 . S
C1284 H1255 0.950 . S
C1284 C1283 1.334 . S
C1284 C1285 1.287 . S
C1285 C1284 1.287 . S
C1285 C1286 1.524 . S
C1285 H1288 0.999 . S
C1286 H1256 0.950 . S
C1286 C1285 1.524 . S
C1286 C1287 1.415 . S
C1287 H1257 0.950 1_554 S
C1287 C1282 1.363 . S
C1287 C1286 1.415 . S
H1288 C1285 0.999 . S
H1289 C1270 0.913 . S
H1290 C1308 0.951 . S
H1291 C1310 0.951 . S
H1292 C1312 0.950 . S
H1293 C1313 0.950 . S
H1294 C1315 0.950 . S
H1295 C1318 0.950 . S
H1296 C1319 0.950 . S
H1297 C1321 0.950 . S
H1298 C1322 0.950 . S
H1299 C1323 0.951 . S
H1300 C1325 0.951 . S
H1301 C1327 0.950 . S
H1302 C1328 0.950 . S
H1303 C1330 0.950 . S
H1304 C1333 0.950 1_556 S
H1305 C1334 0.950 . S
H1306 C1336 0.950 . S
H1307 C1337 0.950 . S
C1308 H1290 0.951 . S
C1308 C1309 1.366 . S
C1308 C1310 1.388 . S
C1309 C1308 1.366 . S
C1309 C1313 1.385 . S
C1310 H1291 0.951 . S
C1310 C1308 1.388 . S
C1310 C1311 1.366 . S
C1311 C1310 1.366 . S
C1311 C1312 1.414 . S
C1311 C1314 1.499 . S
C1312 H1292 0.950 . S
C1312 C1311 1.414 . S
C1312 C1313 1.374 . S
C1313 H1293 0.950 . S
C1313 C1309 1.385 . S
C1313 C1312 1.374 . S
C1314 C1311 1.499 . S
C1314 C1315 1.373 . S
C1314 C1316 1.389 1_554 S
C1315 H1294 0.950 . S
C1315 C1314 1.373 . S
C1315 C1331 1.377 . S
C1316 C1314 1.389 1_556 S
C1316 C1317 1.524 . S
C1316 C1330 1.377 . S
C1317 C1316 1.524 . S
C1317 C1318 1.397 . S
C1317 C1322 1.363 . S
C1318 H1295 0.950 . S
C1318 C1317 1.397 . S
C1318 C1319 1.334 . S
C1319 H1296 0.950 . S
C1319 C1318 1.334 . S
C1319 C1320 1.287 . S
C1320 C1319 1.287 . S
C1320 C1321 1.524 . S
C1320 H1339 0.913 . S
C1321 H1297 0.950 . S
C1321 C1320 1.524 . S
C1321 C1322 1.415 . S
C1322 H1298 0.950 . S
C1322 C1317 1.363 . S
C1322 C1321 1.415 . S
C1323 H1299 0.951 . S
C1323 C1324 1.366 . S
C1323 C1325 1.388 . S
C1324 C1323 1.366 . S
C1324 C1328 1.385 . S
C1325 H1300 0.951 . S
C1325 C1323 1.388 . S
C1325 C1326 1.366 . S
C1326 C1325 1.366 . S
C1326 C1327 1.414 . S
C1326 C1329 1.499 . S
C1327 H1301 0.950 . S
C1327 C1326 1.414 . S
C1327 C1328 1.374 . S
C1328 H1302 0.950 . S
C1328 C1324 1.385 . S
C1328 C1327 1.374 . S
C1329 C1326 1.499 . S
C1329 C1330 1.373 . S
C1329 C1331 1.389 1_556 S
C1330 H1303 0.950 . S
C1330 C1316 1.377 . S
C1330 C1329 1.373 . S
C1331 C1315 1.377 . S
C1331 C1329 1.389 1_554 S
C1331 C1332 1.524 . S
C1332 C1331 1.524 . S
C1332 C1333 1.397 . S
C1332 C1337 1.363 . S
C1333 H1304 0.950 1_554 S
C1333 C1332 1.397 . S
C1333 C1334 1.334 . S
C1334 H1305 0.950 . S
C1334 C1333 1.334 . S
C1334 C1335 1.287 . S
C1335 C1334 1.287 . S
C1335 C1336 1.524 . S
C1335 H1338 0.999 . S
C1336 H1306 0.950 . S
C1336 C1335 1.524 . S
C1336 C1337 1.415 . S
C1337 H1307 0.950 . S
C1337 C1332 1.363 . S
C1337 C1336 1.415 . S
H1338 C1335 0.999 . S
H1339 C1320 0.913 . S
H1340 C1358 0.951 . S
H1341 C1360 0.951 . S
H1342 C1362 0.950 . S
H1343 C1363 0.950 . S
H1344 C1365 0.950 . S
H1345 C1368 0.950 . S
H1346 C1369 0.950 1_655 S
H1347 C1371 0.950 . S
H1348 C1372 0.950 . S
H1349 C1373 0.951 . S
H1350 C1375 0.951 . S
H1351 C1377 0.950 . S
H1352 C1378 0.950 . S
H1353 C1380 0.950 . S
H1354 C1383 0.950 1_455 S
H1355 C1384 0.950 . S
H1356 C1386 0.950 . S
H1357 C1387 0.950 . S
C1358 H1340 0.951 . S
C1358 C1359 1.336 1_455 S
C1358 C1360 1.388 . S
C1359 C1358 1.336 1_655 S
C1359 C1363 1.416 . S
C1360 H1341 0.951 . S
C1360 C1358 1.388 . S
C1360 C1361 1.366 1_455 S
C1361 C1360 1.366 1_655 S
C1361 C1362 1.414 . S
C1361 C1364 1.499 . S
C1362 H1342 0.950 . S
C1362 C1361 1.414 . S
C1362 C1363 1.374 . S
C1363 H1343 0.950 . S
C1363 C1359 1.416 . S
C1363 C1362 1.374 . S
C1364 C1361 1.499 . S
C1364 C1365 1.373 . S
C1364 C1366 1.389 1_655 S
C1365 H1344 0.950 . S
C1365 C1364 1.373 . S
C1365 C1381 1.377 . S
C1366 C1364 1.389 1_455 S
C1366 C1367 1.524 . S
C1366 C1380 1.377 . S
C1367 C1366 1.524 . S
C1367 C1368 1.397 1_455 S
C1367 C1372 1.363 . S
C1368 H1345 0.950 . S
C1368 C1367 1.397 1_655 S
C1368 C1369 1.334 1_655 S
C1369 H1346 0.950 1_455 S
C1369 C1368 1.334 1_455 S
C1369 C1370 1.287 . S
C1370 C1369 1.287 . S
C1370 C1371 1.524 . S
C1370 H1389 0.913 . S
C1371 H1347 0.950 . S
C1371 C1370 1.524 . S
C1371 C1372 1.415 . S
C1372 H1348 0.950 . S
C1372 C1367 1.363 . S
C1372 C1371 1.415 . S
C1373 H1349 0.951 . S
C1373 C1374 1.366 . S
C1373 C1375 1.388 . S
C1374 C1373 1.366 . S
C1374 C1378 1.385 1_655 S
C1375 H1350 0.951 . S
C1375 C1373 1.388 . S
C1375 C1376 1.366 . S
C1376 C1375 1.366 . S
C1376 C1377 1.414 1_655 S
C1376 C1379 1.499 . S
C1377 H1351 0.950 . S
C1377 C1376 1.414 1_455 S
C1377 C1378 1.374 . S
C1378 H1352 0.950 . S
C1378 C1374 1.385 1_455 S
C1378 C1377 1.374 . S
C1379 C1376 1.499 . S
C1379 C1380 1.373 1_655 S
C1379 C1381 1.389 . S
C1380 H1353 0.950 . S
C1380 C1366 1.377 . S
C1380 C1379 1.373 1_455 S
C1381 C1365 1.377 . S
C1381 C1379 1.389 . S
C1381 C1382 1.524 . S
C1382 C1381 1.524 . S
C1382 C1383 1.397 . S
C1382 C1387 1.363 . S
C1383 H1354 0.950 1_655 S
C1383 C1382 1.397 . S
C1383 C1384 1.334 . S
C1384 H1355 0.950 . S
C1384 C1383 1.334 . S
C1384 C1385 1.287 . S
C1385 C1384 1.287 . S
C1385 C1386 1.524 . S
C1385 H1388 0.999 . S
C1386 H1356 0.950 . S
C1386 C1385 1.524 . S
C1386 C1387 1.415 . S
C1387 H1357 0.950 . S
C1387 C1382 1.363 . S
C1387 C1386 1.415 . S
H1388 C1385 0.999 . S
H1389 C1370 0.913 . S
H1390 C1408 0.951 . S
H1391 C1410 0.951 . S
H1392 C1412 0.950 . S
H1393 C1413 0.950 . S
H1394 C1415 0.950 . S
H1395 C1418 0.950 . S
H1396 C1419 0.950 . S
H1397 C1421 0.950 . S
H1398 C1422 0.950 . S
H1399 C1423 0.951 . S
H1400 C1425 0.951 . S
H1401 C1427 0.950 . S
H1402 C1428 0.950 . S
H1403 C1430 0.950 . S
H1404 C1433 0.950 . S
H1405 C1434 0.950 . S
H1406 C1436 0.950 . S
H1407 C1437 0.950 . S
C1408 H1390 0.951 . S
C1408 C1409 1.366 . S
C1408 C1410 1.388 . S
C1409 C1408 1.366 . S
C1409 C1413 1.385 . S
C1410 H1391 0.951 . S
C1410 C1408 1.388 . S
C1410 C1411 1.366 . S
C1411 C1410 1.366 . S
C1411 C1412 1.414 . S
C1411 C1414 1.499 . S
C1412 H1392 0.950 . S
C1412 C1411 1.414 . S
C1412 C1413 1.374 . S
C1413 H1393 0.950 . S
C1413 C1409 1.385 . S
C1413 C1412 1.374 . S
C1414 C1411 1.499 . S
C1414 C1415 1.373 . S
C1414 C1416 1.389 . S
C1415 H1394 0.950 . S
C1415 C1414 1.373 . S
C1415 C1431 1.377 . S
C1416 C1414 1.389 . S
C1416 C1417 1.524 . S
C1416 C1430 1.377 . S
C1417 C1416 1.524 . S
C1417 C1418 1.397 . S
C1417 C1422 1.363 . S
C1418 H1395 0.950 . S
C1418 C1417 1.397 . S
C1418 C1419 1.334 . S
C1419 H1396 0.950 . S
C1419 C1418 1.334 . S
C1419 C1420 1.287 . S
C1420 C1419 1.287 . S
C1420 C1421 1.524 . S
C1420 H1439 0.913 . S
C1421 H1397 0.950 . S
C1421 C1420 1.524 . S
C1421 C1422 1.415 . S
C1422 H1398 0.950 . S
C1422 C1417 1.363 . S
C1422 C1421 1.415 . S
C1423 H1399 0.951 . S
C1423 C1424 1.366 . S
C1423 C1425 1.388 . S
C1424 C1423 1.366 . S
C1424 C1428 1.385 . S
C1425 H1400 0.951 . S
C1425 C1423 1.388 . S
C1425 C1426 1.366 . S
C1426 C1425 1.366 . S
C1426 C1427 1.414 . S
C1426 C1429 1.499 . S
C1427 H1401 0.950 . S
C1427 C1426 1.414 . S
C1427 C1428 1.374 . S
C1428 H1402 0.950 . S
C1428 C1424 1.385 . S
C1428 C1427 1.374 . S
C1429 C1426 1.499 . S
C1429 C1430 1.373 . S
C1429 C1431 1.389 . S
C1430 H1403 0.950 . S
C1430 C1416 1.377 . S
C1430 C1429 1.373 . S
C1431 C1415 1.377 . S
C1431 C1429 1.389 . S
C1431 C1432 1.524 . S
C1432 C1431 1.524 . S
C1432 C1433 1.397 . S
C1432 C1437 1.363 . S
C1433 H1404 0.950 . S
C1433 C1432 1.397 . S
C1433 C1434 1.334 . S
C1434 H1405 0.950 . S
C1434 C1433 1.334 . S
C1434 C1435 1.287 . S
C1435 C1434 1.287 . S
C1435 C1436 1.524 . S
C1435 H1438 0.999 . S
C1436 H1406 0.950 . S
C1436 C1435 1.524 . S
C1436 C1437 1.415 . S
C1437 H1407 0.950 . S
C1437 C1432 1.363 . S
C1437 C1436 1.415 . S
H1438 C1435 0.999 . S
H1439 C1420 0.913 . S
H1440 C1458 0.951 . S
H1441 C1460 0.951 . S
H1442 C1462 0.950 . S
H1443 C1463 0.950 . S
H1444 C1465 0.950 . S
H1445 C1468 0.950 . S
H1446 C1469 0.950 . S
H1447 C1471 0.950 . S
H1448 C1472 0.950 . S
H1449 C1473 0.951 . S
H1450 C1475 0.951 . S
H1451 C1477 0.950 . S
H1452 C1478 0.950 . S
H1453 C1480 0.950 . S
H1454 C1483 0.950 . S
H1455 C1484 0.950 . S
H1456 C1486 0.950 . S
H1457 C1487 0.950 . S
C1458 H1440 0.951 . S
C1458 C1459 1.366 . S
C1458 C1460 1.388 . S
C1459 C1458 1.366 . S
C1459 C1463 1.385 . S
C1460 H1441 0.951 . S
C1460 C1458 1.388 . S
C1460 C1461 1.366 . S
C1461 C1460 1.366 . S
C1461 C1462 1.414 . S
C1461 C1464 1.499 . S
C1462 H1442 0.950 . S
C1462 C1461 1.414 . S
C1462 C1463 1.374 . S
C1463 H1443 0.950 . S
C1463 C1459 1.385 . S
C1463 C1462 1.374 . S
C1464 C1461 1.499 . S
C1464 C1465 1.373 . S
C1464 C1466 1.389 . S
C1465 H1444 0.950 . S
C1465 C1464 1.373 . S
C1465 C1481 1.377 . S
C1466 C1464 1.389 . S
C1466 C1467 1.524 . S
C1466 C1480 1.377 . S
C1467 C1466 1.524 . S
C1467 C1468 1.397 . S
C1467 C1472 1.363 . S
C1468 H1445 0.950 . S
C1468 C1467 1.397 . S
C1468 C1469 1.334 . S
C1469 H1446 0.950 . S
C1469 C1468 1.334 . S
C1469 C1470 1.287 . S
C1470 C1469 1.287 . S
C1470 C1471 1.524 . S
C1470 H1489 0.913 . S
C1471 H1447 0.950 . S
C1471 C1470 1.524 . S
C1471 C1472 1.415 . S
C1472 H1448 0.950 . S
C1472 C1467 1.363 . S
C1472 C1471 1.415 . S
C1473 H1449 0.951 . S
C1473 C1474 1.366 . S
C1473 C1475 1.388 . S
C1474 C1473 1.366 . S
C1474 C1478 1.385 . S
C1475 H1450 0.951 . S
C1475 C1473 1.388 . S
C1475 C1476 1.366 . S
C1476 C1475 1.366 . S
C1476 C1477 1.414 . S
C1476 C1479 1.499 . S
C1477 H1451 0.950 . S
C1477 C1476 1.414 . S
C1477 C1478 1.374 . S
C1478 H1452 0.950 . S
C1478 C1474 1.385 . S
C1478 C1477 1.374 . S
C1479 C1476 1.499 . S
C1479 C1480 1.373 . S
C1479 C1481 1.389 . S
C1480 H1453 0.950 . S
C1480 C1466 1.377 . S
C1480 C1479 1.373 . S
C1481 C1465 1.377 . S
C1481 C1479 1.389 . S
C1481 C1482 1.524 . S
C1482 C1481 1.524 . S
C1482 C1483 1.397 . S
C1482 C1487 1.363 . S
C1483 H1454 0.950 . S
C1483 C1482 1.397 . S
C1483 C1484 1.334 . S
C1484 H1455 0.950 . S
C1484 C1483 1.334 . S
C1484 C1485 1.287 . S
C1485 C1484 1.287 . S
C1485 C1486 1.524 . S
C1485 H1488 0.999 . S
C1486 H1456 0.950 . S
C1486 C1485 1.524 . S
C1486 C1487 1.415 . S
C1487 H1457 0.950 . S
C1487 C1482 1.363 . S
C1487 C1486 1.415 . S
H1488 C1485 0.999 . S
H1489 C1470 0.913 . S
H1490 C1508 0.951 . S
H1491 C1510 0.951 . S
H1492 C1512 0.950 . S
H1493 C1513 0.950 . S
H1494 C1515 0.950 . S
H1495 C1518 0.950 . S
H1496 C1519 0.950 . S
H1497 C1521 0.950 . S
H1498 C1522 0.950 . S
H1499 C1523 0.951 . S
H1500 C1525 0.951 . S
H1501 C1527 0.950 . S
H1502 C1528 0.950 . S
H1503 C1530 0.950 . S
H1504 C1533 0.950 . S
H1505 C1534 0.950 . S
H1506 C1536 0.950 . S
H1507 C1537 0.950 . S
C1508 H1490 0.951 . S
C1508 C1509 1.366 . S
C1508 C1510 1.388 . S
C1509 C1508 1.366 . S
C1509 C1513 1.385 . S
C1510 H1491 0.951 . S
C1510 C1508 1.388 . S
C1510 C1511 1.366 . S
C1511 C1510 1.366 . S
C1511 C1512 1.414 . S
C1511 C1514 1.499 . S
C1512 H1492 0.950 . S
C1512 C1511 1.414 . S
C1512 C1513 1.374 . S
C1513 H1493 0.950 . S
C1513 C1509 1.385 . S
C1513 C1512 1.374 . S
C1514 C1511 1.499 . S
C1514 C1515 1.373 . S
C1514 C1516 1.389 . S
C1515 H1494 0.950 . S
C1515 C1514 1.373 . S
C1515 C1531 1.377 . S
C1516 C1514 1.389 . S
C1516 C1517 1.524 . S
C1516 C1530 1.377 . S
C1517 C1516 1.524 . S
C1517 C1518 1.397 . S
C1517 C1522 1.363 . S
C1518 H1495 0.950 . S
C1518 C1517 1.397 . S
C1518 C1519 1.334 . S
C1519 H1496 0.950 . S
C1519 C1518 1.334 . S
C1519 C1520 1.287 . S
C1520 C1519 1.287 . S
C1520 C1521 1.524 . S
C1520 H1539 0.913 . S
C1521 H1497 0.950 . S
C1521 C1520 1.524 . S
C1521 C1522 1.415 . S
C1522 H1498 0.950 . S
C1522 C1517 1.363 . S
C1522 C1521 1.415 . S
C1523 H1499 0.951 . S
C1523 C1524 1.366 . S
C1523 C1525 1.388 . S
C1524 C1523 1.366 . S
C1524 C1528 1.385 . S
C1525 H1500 0.951 . S
C1525 C1523 1.388 . S
C1525 C1526 1.366 . S
C1526 C1525 1.366 . S
C1526 C1527 1.414 . S
C1526 C1529 1.499 . S
C1527 H1501 0.950 . S
C1527 C1526 1.414 . S
C1527 C1528 1.374 . S
C1528 H1502 0.950 . S
C1528 C1524 1.385 . S
C1528 C1527 1.374 . S
C1529 C1526 1.499 . S
C1529 C1530 1.373 . S
C1529 C1531 1.389 . S
C1530 H1503 0.950 . S
C1530 C1516 1.377 . S
C1530 C1529 1.373 . S
C1531 C1515 1.377 . S
C1531 C1529 1.389 . S
C1531 C1532 1.524 . S
C1532 C1531 1.524 . S
C1532 C1533 1.397 . S
C1532 C1537 1.363 . S
C1533 H1504 0.950 . S
C1533 C1532 1.397 . S
C1533 C1534 1.334 . S
C1534 H1505 0.950 . S
C1534 C1533 1.334 . S
C1534 C1535 1.287 . S
C1535 C1534 1.287 . S
C1535 C1536 1.524 . S
C1535 H1538 0.999 . S
C1536 H1506 0.950 . S
C1536 C1535 1.524 . S
C1536 C1537 1.415 . S
C1537 H1507 0.950 . S
C1537 C1532 1.363 . S
C1537 C1536 1.415 . S
H1538 C1535 0.999 . S
H1539 C1520 0.913 . S
C359 C215 1.849 . S
C374 C272 1.682 . S
C424 C290 1.286 . S
C409 C247 1.443 . S
C474 C311 1.670 . S
C459 C151 1.838 . S
C524 C335 1.303 . S
C509 C183 1.457 1_655 S
C574 C269 1.591 1_565 S
C559 C87 1.618 . S
C609 C119 1.343 . S
C624 C293 1.196 . S
C659 C23 1.605 . S
C674 C314 1.575 . S
C709 C55 1.347 . S
C724 C332 1.214 . S
C774 C274 0.408 . S
C759 C189 0.350 . S
C824 C292 0.387 . S
C809 C221 0.265 . S
C874 C313 0.405 . S
C859 C253 0.366 . S
C909 C157 0.264 . S
C924 C337 0.389 . S
C959 C61 0.341 1_656 S
C974 C273 0.278 . S
C1024 C291 0.362 . S
C1009 C93 0.637 . S
C1074 C312 0.285 . S
C1059 C125 0.362 1_556 S
C1109 C29 0.642 . S
C1124 C336 0.351 . S
C1159 C177 1.680 . S
C1174 C270 1.664 . S
C1209 C209 1.972 . S
C1224 C294 1.921 . S
C1274 C315 1.643 . S
C1259 C241 1.650 . S
C1324 C333 1.939 . S
C1309 C145 1.988 . S
C1359 C49 1.536 1_655 S
C1374 C271 1.520 . S
C1424 C295 1.766 . S
C1409 C81 1.714 . S
C1474 C316 1.495 . S
C1459 C113 1.528 . S
C1509 C17 1.729 . S
C1524 C334 1.784 . S
