# Generated by pormake.
# Topology zzz, (3,6)-cn, num edge types: 1
# Building blocks:
#     Node 0, Type 0, BuildingBlock: BETDIP_clean_linker_0, # of connection points: 3
#     Node 1, Type 0, BuildingBlock: BETDIP_clean_linker_0, # of connection points: 3
#     Node 2, Type 0, BuildingBlock: BETDIP_clean_linker_0, # of connection points: 3
#     Node 3, Type 0, BuildingBlock: BETDIP_clean_linker_0, # of connection points: 3
#     Node 4, Type 0, BuildingBlock: BETDIP_clean_linker_0, # of connection points: 3
#     Node 5, Type 0, BuildingBlock: BETDIP_clean_linker_0, # of connection points: 3
#     Node 6, Type 0, BuildingBlock: BETDIP_clean_linker_0, # of connection points: 3
#     Node 7, Type 0, BuildingBlock: BETDIP_clean_linker_0, # of connection points: 3
#     Node 8, Type 1, BuildingBlock: BETDEL_clean_sbu_0, # of connection points: 6
#     Node 9, Type 1, BuildingBlock: BETDEL_clean_sbu_0, # of connection points: 6
#     Node 10, Type 1, BuildingBlock: BETDEL_clean_sbu_0, # of connection points: 6
#     Node 11, Type 1, BuildingBlock: BETDEL_clean_sbu_0, # of connection points: 6
#     Edge 12, Type (0, 1), BuildingBlock: TEMPAE_clean_linker_10, # of connection points: 2
#     Edge 13, Type (0, 1), BuildingBlock: TEMPAE_clean_linker_10, # of connection points: 2
#     Edge 14, Type (0, 1), BuildingBlock: TEMPAE_clean_linker_10, # of connection points: 2
#     Edge 15, Type (0, 1), BuildingBlock: TEMPAE_clean_linker_10, # of connection points: 2
#     Edge 16, Type (0, 1), BuildingBlock: TEMPAE_clean_linker_10, # of connection points: 2
#     Edge 17, Type (0, 1), BuildingBlock: TEMPAE_clean_linker_10, # of connection points: 2
#     Edge 18, Type (0, 1), BuildingBlock: TEMPAE_clean_linker_10, # of connection points: 2
#     Edge 19, Type (0, 1), BuildingBlock: TEMPAE_clean_linker_10, # of connection points: 2
#     Edge 20, Type (0, 1), BuildingBlock: TEMPAE_clean_linker_10, # of connection points: 2
#     Edge 21, Type (0, 1), BuildingBlock: TEMPAE_clean_linker_10, # of connection points: 2
#     Edge 22, Type (0, 1), BuildingBlock: TEMPAE_clean_linker_10, # of connection points: 2
#     Edge 23, Type (0, 1), BuildingBlock: TEMPAE_clean_linker_10, # of connection points: 2
#     Edge 24, Type (0, 1), BuildingBlock: TEMPAE_clean_linker_10, # of connection points: 2
#     Edge 25, Type (0, 1), BuildingBlock: TEMPAE_clean_linker_10, # of connection points: 2
#     Edge 26, Type (0, 1), BuildingBlock: TEMPAE_clean_linker_10, # of connection points: 2
#     Edge 27, Type (0, 1), BuildingBlock: TEMPAE_clean_linker_10, # of connection points: 2
#     Edge 28, Type (0, 1), BuildingBlock: TEMPAE_clean_linker_10, # of connection points: 2
#     Edge 29, Type (0, 1), BuildingBlock: TEMPAE_clean_linker_10, # of connection points: 2
#     Edge 30, Type (0, 1), BuildingBlock: TEMPAE_clean_linker_10, # of connection points: 2
#     Edge 31, Type (0, 1), BuildingBlock: TEMPAE_clean_linker_10, # of connection points: 2
#     Edge 32, Type (0, 1), BuildingBlock: TEMPAE_clean_linker_10, # of connection points: 2
#     Edge 33, Type (0, 1), BuildingBlock: TEMPAE_clean_linker_10, # of connection points: 2
#     Edge 34, Type (0, 1), BuildingBlock: TEMPAE_clean_linker_10, # of connection points: 2
#     Edge 35, Type (0, 1), BuildingBlock: TEMPAE_clean_linker_10, # of connection points: 2
# Relax obj value: 0.156
# Max RMSD: 0.178
# Mean RMSD: 0.115
data_MOF--net-zzz--node1-BETDEL_clean_sbu_0--node2-BETDIP_clean_linker_0--edge1-TEMPAE_clean_linker_10
_symmetry_space_group_name_H-M    P1
_symmetry_Int_Tables_number       1
_symmetry_cell_setting            triclinic
loop_
_symmetry_equiv_pos_as_xyz
'x, y, z'
_cell_length_a     50.362753
_cell_length_b     51.484668
_cell_length_c     14.881304
_cell_angle_alpha  91.62823
_cell_angle_beta   88.131636
_cell_angle_gamma 95.087977
loop_
_atom_site_label
_atom_site_type_symbol
_atom_site_fract_x
_atom_site_fract_y
_atom_site_fract_z
_atom_type_partial_charge
H0 H 0.7538 0.52767 0.24453 0.0
H1 H 0.75112 0.49588 0.97254 0.0
H2 H 0.82074 0.49119 0.12779 0.0
H3 H 0.72997 0.54896 0.00081 0.0
C4 C 0.71513 0.5347 0.02964 0.0
C5 C 0.76302 0.51755 0.1886 0.0
C6 C 0.78906 0.50989 0.19545 0.0
C7 C 0.74915 0.51243 0.10787 0.0
C8 C 0.76153 0.49973 0.03476 0.0
C9 C 0.78701 0.49136 0.04331 0.0
C10 C 0.80049 0.49665 0.12309 0.0
N11 N 0.72253 0.51917 0.10076 0.0
H12 H 0.98262 0.74941 0.24889 0.0
H13 H 0.01292 0.75683 0.97464 0.0
H14 H 0.0123 0.82436 0.15049 0.0
H15 H 0.96221 0.72312 0.99513 0.0
C16 C 0.97682 0.71163 0.02363 0.0
C17 C 0.99147 0.76133 0.19503 0.0
C18 C 0.99687 0.78836 0.20894 0.0
C19 C 0.99708 0.74986 0.10999 0.0
C20 C 0.0084 0.76555 0.03986 0.0
C21 C 0.01474 0.79233 0.05565 0.0
C22 C 0.0085 0.80341 0.13946 0.0
N23 N 0.99223 0.72247 0.09604 0.0
H24 H 0.74872 0.98484 0.24845 0.0
H25 H 0.7712 0.01577 0.9874 0.0
H26 H 0.69168 0.02059 0.09338 0.0
H27 H 0.78854 0.95818 0.04815 0.0
C28 C 0.80105 0.97545 0.069 0.0
C29 C 0.7437 0.99493 0.18926 0.0
C30 C 0.71728 1.0013 0.17833 0.0
C31 C 0.7633 1.00034 0.12025 0.0
C32 C 0.75647 0.01226 0.04143 0.0
C33 C 0.73077 0.0199 0.03307 0.0
C34 C 0.71167 0.01488 0.10188 0.0
N35 N 0.78993 0.99388 0.12894 0.0
H36 H 0.534 0.7567 0.22065 0.0
H37 H 0.49269 0.75075 0.96959 0.0
H38 H 0.48636 0.68637 0.14725 0.0
H39 H 0.53728 0.77521 0.93548 0.0
C40 C 0.53205 0.7904 0.98342 0.0
C41 C 0.52062 0.74589 0.17469 0.0
C42 C 0.51028 0.72024 0.19449 0.0
C43 C 0.51415 0.75721 0.09352 0.0
C44 C 0.49748 0.74255 0.03269 0.0
C45 C 0.48695 0.71725 0.05316 0.0
C46 C 0.4933 0.70652 0.13396 0.0
N47 N 0.52437 0.78318 0.07301 0.0
H48 H 0.26753 0.49302 0.90763 0.0
H49 H 0.26839 0.53809 0.15772 0.0
H50 H 0.20008 0.53419 0.99271 0.0
H51 H 0.31313 0.54781 0.09652 0.0
C52 C 0.31714 0.5274 0.09186 0.0
C53 C 0.25808 0.50577 0.95558 0.0
C54 C 0.23224 0.51304 0.94042 0.0
C55 C 0.27188 0.51571 0.03248 0.0
C56 C 0.25885 0.53155 0.09588 0.0
C57 C 0.2332 0.53855 0.0806 0.0
C58 C 0.22035 0.52946 0.00284 0.0
N59 N 0.29844 0.5094 0.04719 0.0
H60 H 0.03336 0.26662 0.91049 0.0
H61 H 0.99113 0.25455 0.16602 0.0
H62 H 1.00243 0.18965 0.98685 0.0
H63 H 0.97568 0.29465 0.11866 0.0
C64 C 0.99547 0.30461 0.10858 0.0
C65 C 0.02263 0.25381 0.95839 0.0
C66 C 0.01877 0.22684 0.93925 0.0
C67 C 0.0119 0.2642 0.03922 0.0
C68 C 0.99847 0.24713 0.10195 0.0
C69 C 0.99473 0.22032 0.08221 0.0
C70 C 1.00482 0.21054 0.00115 0.0
N71 N 0.015 0.29162 0.05753 0.0
H72 H 0.25901 0.01885 0.90055 0.0
H73 H 0.24344 0.98883 0.16705 0.0
H74 H 0.32084 0.98574 0.04133 0.0
H75 H 0.20254 0.9703 0.03901 0.0
C76 C 0.19947 0.99068 0.05306 0.0
C77 C 0.26568 0.00948 0.95897 0.0
C78 C 0.29207 1.00218 0.96075 0.0
C79 C 0.24768 1.00369 0.03228 0.0
C80 C 0.25671 0.99218 0.10894 0.0
C81 C 0.28304 0.98578 0.11168 0.0
C82 C 0.30029 0.99036 0.03747 0.0
N83 N 0.22068 0.00982 0.03072 0.0
H84 H 0.48643 0.25363 0.9269 0.0
H85 H 0.53538 0.25823 0.16106 0.0
H86 H 0.53453 0.32432 0.99267 0.0
H87 H 0.54178 0.21276 0.07115 0.0
C88 C 0.52082 0.20833 0.08954 0.0
C89 C 0.50079 0.26441 0.96958 0.0
C90 C 0.51019 0.29028 0.94932 0.0
C91 C 0.51075 0.25232 0.04424 0.0
C92 C 0.52876 0.26685 0.10102 0.0
C93 C 0.53751 0.29274 0.08198 0.0
C94 C 0.52845 0.30396 0.00572 0.0
N95 N 0.50224 0.22589 0.06386 0.0
Dy96 Dy 0.01974 0.99619 0.67031 0.0
C97 C 0.97677 0.05371 0.38943 0.0
C98 C 0.02587 0.96478 0.81089 0.0
Dy99 Dy 0.99296 0.01952 0.5081 0.0
O100 O 0.0444 0.98118 0.77701 0.0
O101 O 1.00358 0.96709 0.77163 0.0
O102 O 0.06097 0.99326 0.60762 0.0
O103 O 0.03138 0.00705 0.53454 0.0
C104 C 0.05532 1.00182 0.53003 0.0
C105 C 0.95966 1.00249 0.64303 0.0
O106 O 0.99396 0.97858 0.45402 0.0
O107 O 1.00032 0.96169 0.59447 0.0
O108 O 0.96646 0.0495 0.46905 0.0
O109 O 0.99562 0.03831 0.37232 0.0
O110 O 0.95392 1.00069 0.55846 0.0
O111 O 0.98262 0.01433 0.65195 0.0
O112 O 0.02364 0.0381 0.71549 0.0
O113 O 0.01674 0.05365 0.5733 0.0
C114 C 0.99465 0.95859 0.50827 0.0
C115 C 0.02396 0.05742 0.658 0.0
Dy116 Dy 0.48624 0.99057 0.52764 0.0
C117 C 0.57403 0.04218 0.71721 0.0
C118 C 0.43969 0.97148 0.45298 0.0
Dy119 Dy 0.52625 0.02394 0.64911 0.0
O120 O 0.46165 0.97832 0.40777 0.0
O121 O 0.44345 0.97454 0.53853 0.0
O122 O 0.51987 0.9681 0.47102 0.0
O123 O 0.52708 0.00725 0.51385 0.0
C124 C 0.538 0.98728 0.48657 0.0
C125 C 0.47464 0.02776 0.69085 0.0
O126 O 0.51939 0.0543 0.55041 0.0
O127 O 0.48381 0.03149 0.47759 0.0
O128 O 0.55265 0.03531 0.76552 0.0
O129 O 0.56897 0.03967 0.63241 0.0
O130 O 0.49321 0.0458 0.71397 0.0
O131 O 0.48523 0.00784 0.66134 0.0
O132 O 0.49227 0.96078 0.6293 0.0
O133 O 0.52935 0.98275 0.69558 0.0
C134 C 0.5001 0.05297 0.49137 0.0
C135 C 0.51239 0.96161 0.68493 0.0
Dy136 Dy 0.49517 0.51578 0.63919 0.0
C137 C 0.5482 0.46069 0.3724 0.0
C138 C 0.47322 0.54872 0.76214 0.0
Dy139 Dy 0.5266 0.49346 0.49683 0.0
O140 O 0.46234 0.53964 0.68895 0.0
O141 O 0.49584 0.53884 0.77049 0.0
O142 O 0.45853 0.49368 0.58626 0.0
O143 O 0.48782 0.50921 0.49463 0.0
C144 C 0.46528 0.49631 0.50187 0.0
C145 C 0.55688 0.51358 0.63128 0.0
O146 O 0.52677 0.53299 0.43737 0.0
O147 O 0.5163 0.55135 0.57531 0.0
O148 O 0.5597 0.4704 0.44371 0.0
O149 O 0.5251 0.46981 0.36669 0.0
O150 O 0.56337 0.51549 0.54649 0.0
O151 O 0.53439 0.5006 0.64115 0.0
O152 O 0.49468 0.47655 0.69982 0.0
O153 O 0.50584 0.4579 0.56291 0.0
C154 C 0.52424 0.55382 0.49017 0.0
C155 C 0.49753 0.45565 0.64788 0.0
Dy156 Dy 0.99719 0.49501 0.63934 0.0
C157 C 0.06291 0.54649 0.3795 0.0
C158 C 0.95788 0.47414 0.75321 0.0
Dy159 Dy 0.02507 0.52496 0.49722 0.0
O160 O 0.96479 0.46429 0.67601 0.0
O161 O 0.97366 0.4949 0.7712 0.0
O162 O 0.01642 0.45951 0.59223 0.0
O163 O 1.00539 0.48548 0.49639 0.0
C164 C 0.01635 0.46463 0.50733 0.0
C165 C 1.00547 0.55554 0.62691 0.0
O166 O 0.98493 0.52225 0.4351 0.0
O167 O 0.96429 0.51328 0.57238 0.0
O168 O 0.05609 0.55655 0.45644 0.0
O169 O 0.04819 0.52484 0.36459 0.0
O170 O 1.00602 0.56055 0.5419 0.0
O171 O 0.0164 0.53475 0.63993 0.0
O172 O 0.03714 0.49744 0.70218 0.0
O173 O 0.05812 0.50704 0.56557 0.0
C174 C 0.96308 0.51961 0.48726 0.0
C175 C 0.05907 0.50032 0.65054 0.0
C176 C 0.17239 0.02123 0.14702 0.0
C177 C 0.1752 0.99658 0.107 0.0
C178 C 0.1509 0.02521 0.20774 0.0
C179 C 0.13187 1.00408 0.22891 0.0
C180 C 0.1339 0.97962 0.18432 0.0
C181 C 0.15551 0.9762 0.12432 0.0
C182 C 0.14943 0.05165 0.25309 0.0
C183 C 0.11419 0.9565 0.20428 0.0
C184 C 0.10102 0.99903 0.46487 0.0
C185 C 0.07464 1.00462 0.45261 0.0
C186 C 0.11988 0.99971 0.39334 0.0
C187 C 0.11234 0.00617 0.30645 0.0
C188 C 0.08588 0.01262 0.2939 0.0
C189 C 0.06728 0.01173 0.36725 0.0
C190 C 0.14773 0.99263 0.41045 0.0
C191 C 0.07704 0.01973 0.20262 0.0
H192 H 0.18749 0.03711 0.13391 0.0
H193 H 0.15753 0.95714 0.09321 0.0
H194 H 0.12878 0.05757 0.25269 0.0
H195 H 0.15495 0.05066 0.3244 0.0
H196 H 0.1631 0.06688 0.22013 0.0
H197 H 0.11671 0.93978 0.15684 0.0
H198 H 0.11691 0.95002 0.27361 0.0
H199 H 0.09345 0.96199 0.20084 0.0
H200 H 0.10691 0.99362 0.53072 0.0
H201 H 0.04693 0.01607 0.35742 0.0
H202 H 0.16269 0.00835 0.38741 0.0
H203 H 0.15165 0.9746 0.37151 0.0
H204 H 0.15078 0.98934 0.4827 0.0
H205 H 0.09151 0.03479 0.17255 0.0
H206 H 0.05695 0.02713 0.20588 0.0
H207 H 0.07642 1.0023 0.1569 0.0
C208 C 0.53147 0.16555 0.14544 0.0
C209 C 0.51318 0.18444 0.14161 0.0
C210 C 0.52645 0.14372 0.19994 0.0
C211 C 0.50271 0.14086 0.25386 0.0
C212 C 0.48382 0.15962 0.24884 0.0
C213 C 0.48918 0.18112 0.19217 0.0
C214 C 0.54699 0.12408 0.20171 0.0
C215 C 0.45846 0.15753 0.30598 0.0
C216 C 0.4855 0.07336 0.35132 0.0
C217 C 0.49782 0.07606 0.43481 0.0
C218 C 0.48601 0.09451 0.29293 0.0
C219 C 0.49877 0.11909 0.31908 0.0
C220 C 0.51 0.12222 0.40522 0.0
C221 C 0.5096 0.10069 0.46151 0.0
C222 C 0.47407 0.09016 0.20144 0.0
C223 C 0.52342 0.14812 0.43672 0.0
H224 H 0.55004 0.16805 0.10639 0.0
H225 H 0.47507 0.19579 0.19011 0.0
H226 H 0.55576 0.12445 0.2692 0.0
H227 H 0.53746 0.10409 0.18911 0.0
H228 H 0.56338 0.12803 0.15084 0.0
H229 H 0.44495 0.17256 0.28977 0.0
H230 H 0.44766 0.13796 0.2968 0.0
H231 H 0.46341 0.15988 0.37804 0.0
H232 H 0.47642 0.05443 0.32979 0.0
H233 H 0.51894 0.1031 0.52618 0.0
H234 H 0.49023 0.09154 0.14884 0.0
H235 H 0.46063 0.10549 0.18843 0.0
H236 H 0.46266 0.07076 0.19447 0.0
H237 H 0.54191 0.15284 0.39565 0.0
H238 H 0.52875 0.14807 0.50857 0.0
H239 H 0.5102 0.16392 0.42755 0.0
C240 C 0.34866 0.4943 0.13515 0.0
C241 C 0.34029 0.51958 0.14119 0.0
C242 C 0.37026 0.48757 0.18544 0.0
C243 C 0.38339 0.50641 0.24416 0.0
C244 C 0.37506 0.53199 0.24929 0.0
C245 C 0.35387 0.53825 0.19734 0.0
C246 C 0.37887 0.46026 0.17657 0.0
C247 C 0.38808 0.55267 0.31165 0.0
C248 C 0.41807 0.4881 0.4537 0.0
C249 C 0.445 0.49493 0.43099 0.0
C250 C 0.39793 0.49044 0.39193 0.0
C251 C 0.40482 0.49943 0.30438 0.0
C252 C 0.43215 0.50469 0.27912 0.0
C253 C 0.4519 0.50257 0.34292 0.0
C254 C 0.36915 0.48493 0.42254 0.0
C255 C 0.44047 0.51383 0.18612 0.0
H256 H 0.33836 0.47981 0.09146 0.0
H257 H 0.34747 0.55782 0.20224 0.0
H258 H 0.4006 0.46094 0.16077 0.0
H259 H 0.3752 0.45024 0.24137 0.0
H260 H 0.36805 0.44849 0.12333 0.0
H261 H 0.37943 0.57169 0.30708 0.0
H262 H 0.38568 0.54621 0.3822 0.0
H263 H 0.40978 0.55563 0.29564 0.0
H264 H 0.41254 0.48205 0.52144 0.0
H265 H 0.47268 0.50771 0.32464 0.0
H266 H 0.35821 0.47175 0.37345 0.0
H267 H 0.35937 0.50343 0.4263 0.0
H268 H 0.36716 0.47593 0.48966 0.0
H269 H 0.42951 0.50164 0.13432 0.0
H270 H 0.46224 0.51321 0.1726 0.0
H271 H 0.43544 0.5342 0.17895 0.0
C272 C 0.98125 0.34046 0.20869 0.0
C273 C 1.00123 0.33054 0.15344 0.0
C274 C 0.98598 0.36399 0.25776 0.0
C275 C 0.01133 0.37821 0.25106 0.0
C276 C 0.03137 0.36877 0.1928 0.0
C277 C 0.02614 0.34491 0.14491 0.0
C278 C 0.96405 0.37313 0.31937 0.0
C279 C 0.05852 0.38351 0.18292 0.0
C280 C 0.01145 0.44751 0.34821 0.0
C281 C 0.01906 0.44408 0.4366 0.0
C282 C 0.01046 0.42663 0.28477 0.0
C283 C 0.01709 0.40175 0.31069 0.0
C284 C 0.02629 0.39871 0.39836 0.0
C285 C 0.02727 0.4199 0.45995 0.0
C286 C 1.00094 0.43083 0.19164 0.0
C287 C 0.0335 0.3726 0.4292 0.0
H288 H 0.96196 0.32941 0.21528 0.0
H289 H 0.04163 0.3374 0.10196 0.0
H290 H 0.97039 0.37341 0.39015 0.0
H291 H 0.96012 0.39332 0.30341 0.0
H292 H 0.94514 0.3604 0.31407 0.0
H293 H 0.07096 0.37503 0.12851 0.0
H294 H 0.05649 0.40425 0.16839 0.0
H295 H 0.06912 0.38319 0.247 0.0
H296 H 1.00527 0.46622 0.32956 0.0
H297 H 0.03344 0.41718 0.52792 0.0
H298 H 0.98055 0.42107 0.18454 0.0
H299 H 0.01403 0.42201 0.14002 0.0
H300 H 1.0004 0.45187 0.1778 0.0
H301 H 0.01529 0.35882 0.43307 0.0
H302 H 0.04263 0.37402 0.49633 0.0
H303 H 0.04763 0.36416 0.38019 0.0
C304 C 0.84077 0.9589 0.98982 0.0
C305 C 0.8281 0.98012 0.02631 0.0
C306 C 0.8647 0.96262 0.93856 0.0
C307 C 0.87583 0.98827 0.92062 0.0
C308 C 0.86362 0.00979 0.96034 0.0
C309 C 0.84005 0.00545 0.01363 0.0
C310 C 0.87728 0.93907 0.89968 0.0
C311 C 0.87439 0.03746 0.94155 0.0
C312 C 0.94525 0.99888 0.80683 0.0
C313 C 0.93884 0.9988 0.71579 0.0
C314 C 0.92507 0.99533 0.87468 0.0
C315 C 0.89786 0.99245 0.85095 0.0
C316 C 0.89143 0.99286 0.75909 0.0
C317 C 0.91192 0.99563 0.69297 0.0
C318 C 0.93283 0.99432 0.97148 0.0
C319 C 0.86279 0.99038 0.73029 0.0
H320 H 0.83159 0.93929 -0.00029 0.0
H321 H 0.83019 0.02194 0.04091 0.0
H322 H 0.87421 0.93752 0.82618 0.0
H323 H 0.89911 0.94107 0.90977 0.0
H324 H 0.86858 0.92069 0.93041 0.0
H325 H 0.86448 0.05191 0.9848 0.0
H326 H 0.89617 0.04012 0.95203 0.0
H327 H 0.87121 0.04164 0.87013 0.0
H328 H 0.96601 1.00141 0.82491 0.0
H329 H 0.90673 0.99573 0.62286 0.0
H330 H 0.92473 0.97549 0.00027 0.0
H331 H 0.92404 0.01005 0.01175 0.0
H332 H 0.9548 0.99644 0.97881 0.0
H333 H 0.85301 0.97103 0.74871 0.0
H334 H 0.86112 0.99258 0.65669 0.0
H335 H 0.85158 1.0054 0.76586 0.0
C336 C 0.52025 0.83709 0.00137 0.0
C337 C 0.53168 0.81738 0.95042 0.0
C338 C 0.51796 0.86178 0.96487 0.0
C339 C 0.52743 0.86687 0.87564 0.0
C340 C 0.53979 0.84724 0.82543 0.0
C341 C 0.54163 0.82279 0.86324 0.0
C342 C 0.50457 0.8821 0.0206 0.0
C343 C 0.55036 0.85175 0.73048 0.0
C344 C 0.4966 0.91649 0.73512 0.0
C345 C 0.51598 0.93787 0.73702 0.0
C346 C 0.49976 0.89369 0.78203 0.0
C347 C 0.52296 0.89195 0.83207 0.0
C348 C 0.54243 0.91358 0.83559 0.0
C349 C 0.53869 0.93626 0.7883 0.0
C350 C 0.47842 0.87121 0.77652 0.0
C351 C 0.56752 0.91254 0.88765 0.0
H352 H 0.51242 0.83303 0.06868 0.0
H353 H 0.5505 0.80761 0.82364 0.0
H354 H 0.51746 0.90073 0.02249 0.0
H355 H 0.48569 0.88604 0.98932 0.0
H356 H 0.49999 0.87586 0.09068 0.0
H357 H 0.561 0.83516 0.70268 0.0
H358 H 0.53361 0.85463 0.68621 0.0
H359 H 0.56422 0.86973 0.72828 0.0
H360 H 0.47886 0.91746 0.69647 0.0
H361 H 0.55382 0.95259 0.7905 0.0
H362 H 0.47154 0.86525 0.84508 0.0
H363 H 0.48675 0.85413 0.74254 0.0
H364 H 0.46091 0.87612 0.73893 0.0
H365 H 0.56242 0.90711 0.95814 0.0
H366 H 0.58 0.93144 0.88811 0.0
H367 H 0.57953 0.89727 0.85753 0.0
C368 C 0.67854 0.55316 0.95042 0.0
C369 C 0.68804 0.53187 0.99186 0.0
C370 C 0.6546 0.55049 0.90367 0.0
C371 C 0.64025 0.52564 0.89495 0.0
C372 C 0.64929 0.50421 0.93959 0.0
C373 C 0.67291 0.50767 0.98862 0.0
C374 C 0.64542 0.57405 0.85963 0.0
C375 C 0.63511 0.47724 0.93032 0.0
C376 C 0.57103 0.52009 0.79215 0.0
C377 C 0.57756 0.51625 0.7007 0.0
C378 C 0.59111 0.52317 0.85671 0.0
C379 C 0.61821 0.52153 0.82933 0.0
C380 C 0.62465 0.5169 0.73723 0.0
C381 C 0.60439 0.51476 0.67425 0.0
C382 C 0.58345 0.5288 0.95367 0.0
C383 C 0.65307 0.51435 0.70478 0.0
H384 H 0.69019 0.57191 0.95308 0.0
H385 H 0.68035 0.49108 0.01973 0.0
H386 H 0.64876 0.5723 0.78573 0.0
H387 H 0.62373 0.57524 0.87268 0.0
H388 H 0.6563 0.5925 0.88395 0.0
H389 H 0.64273 0.46336 0.97698 0.0
H390 H 0.61336 0.4778 0.94322 0.0
H391 H 0.63798 0.46971 0.86036 0.0
H392 H 0.55032 0.52129 0.81281 0.0
H393 H 0.6096 0.5115 0.60383 0.0
H394 H 0.59319 0.54803 0.97544 0.0
H395 H 0.59063 0.51397 -0.0026 0.0
H396 H 0.56154 0.52902 0.96449 0.0
H397 H 0.66526 0.53313 0.71578 0.0
H398 H 0.65449 0.50884 0.63218 0.0
H399 H 0.66198 0.49942 0.74372 0.0
C400 C 1.00449 0.67418 0.9884 0.0
C401 C 0.98005 0.68515 0.98555 0.0
C402 C 0.00867 0.65085 0.94041 0.0
C403 C 0.98767 0.63792 0.89044 0.0
C404 C 0.9624 0.64806 0.89301 0.0
C405 C 0.95905 0.67178 0.93916 0.0
C406 C 0.03609 0.64113 0.93787 0.0
C407 C 0.93925 0.63461 0.84283 0.0
C408 C 1.00392 0.60224 0.67171 0.0
C409 C 1.00144 0.57606 0.69653 0.0
C410 C 1.00025 0.62241 0.73485 0.0
C411 C 0.99309 0.61631 0.8251 0.0
C412 C 0.99041 0.58985 0.85081 0.0
C413 C 0.99502 0.56999 0.7863 0.0
C414 C 1.00389 0.6503 0.70452 0.0
C415 C 0.9821 0.58251 0.9457 0.0
H416 H 0.02084 0.68458 0.0237 0.0
H417 H 0.9401 0.68021 0.9374 0.0
H418 H 0.0348 0.6199 0.95005 0.0
H419 H 0.04548 0.64419 0.87004 0.0
H420 H 0.04927 0.65144 0.98835 0.0
H421 H 0.92007 0.64256 0.86297 0.0
H422 H 0.94273 0.63724 0.76952 0.0
H423 H 0.93745 0.61334 0.85478 0.0
H424 H 0.0091 0.60709 0.60253 0.0
H425 H 0.99298 0.54974 0.80549 0.0
H426 H 0.0183 0.66196 0.74773 0.0
H427 H 0.98466 0.65923 0.71131 0.0
H428 H 0.0112 0.65179 0.63344 0.0
H429 H 0.9962 0.59246 0.99396 0.0
H430 H 0.98128 0.56113 0.95531 0.0
H431 H 0.96213 0.58917 0.96251 0.0
C432 C 0.96181 0.18308 0.11681 0.0
C433 C 0.98226 0.20127 0.14638 0.0
C434 C 0.95621 0.15929 0.15969 0.0
C435 C 0.97135 0.15377 0.23407 0.0
C436 C 0.98997 0.17327 0.27011 0.0
C437 C 0.99525 0.19692 0.22549 0.0
C438 C 0.93606 0.13913 0.11963 0.0
C439 C 1.00613 0.16826 0.35055 0.0
C440 C 0.95366 0.09381 0.37302 0.0
C441 C 0.97227 0.07703 0.33898 0.0
C442 C 0.9525 0.11863 0.33783 0.0
C443 C 0.9703 0.12671 0.26667 0.0
C444 C 0.98807 0.10924 0.22855 0.0
C445 C 0.98889 0.08454 0.26544 0.0
C446 C 0.93322 0.13663 0.37986 0.0
C447 C 1.00713 0.11709 0.15163 0.0
H448 H 0.95187 0.18653 0.05522 0.0
H449 H 0.01122 0.21091 0.24766 0.0
H450 H 0.94671 0.12404 0.08217 0.0
H451 H 0.92344 0.12919 0.17304 0.0
H452 H 0.92295 0.14787 0.07236 0.0
H453 H 0.01696 0.18642 0.37741 0.0
H454 H 0.99312 0.15934 0.40504 0.0
H455 H 0.02097 0.15427 0.33087 0.0
H456 H 0.94077 0.08803 0.43009 0.0
H457 H 1.00335 0.07163 0.23937 0.0
H458 H 0.92201 0.14542 0.32726 0.0
H459 H 0.94447 0.15285 0.41679 0.0
H460 H 0.91875 0.1264 0.42768 0.0
H461 H 0.99624 0.12507 0.0965 0.0
H462 H 0.01783 0.1005 0.12424 0.0
H463 H 0.02208 0.13275 0.175 0.0
C464 C 0.3026 0.95201 0.19734 0.0
C465 C 0.2945 0.97726 0.19427 0.0
C466 C 0.32249 0.94638 0.25581 0.0
C467 C 0.33494 0.96678 0.30958 0.0
C468 C 0.32463 0.99153 0.31373 0.0
C469 C 0.30428 0.99641 0.25615 0.0
C470 C 0.33224 0.91949 0.25209 0.0
C471 C 0.33737 0.01385 0.36989 0.0
C472 C 0.39086 0.95909 0.46903 0.0
C473 C 0.41328 0.96615 0.41381 0.0
C474 C 0.36507 0.95776 0.43514 0.0
C475 C 0.36181 0.96421 0.34464 0.0
C476 C 0.38454 0.97034 0.28783 0.0
C477 C 0.41004 0.97096 0.32305 0.0
C478 C 0.3414 0.95052 0.49705 0.0
C479 C 0.38196 0.97766 0.19098 0.0
H480 H 0.29508 0.93732 0.14865 0.0
H481 H 0.29814 0.01601 0.25248 0.0
H482 H 0.35034 0.91954 0.20755 0.0
H483 H 0.33768 0.91363 0.3198 0.0
H484 H 0.31694 0.90471 0.22494 0.0
H485 H 0.32489 0.03061 0.37499 0.0
H486 H 0.34093 0.00749 0.43864 0.0
H487 H 0.35702 0.02064 0.33889 0.0
H488 H 0.3934 0.95537 0.53946 0.0
H489 H 0.42738 0.97652 0.28052 0.0
H490 H 0.34741 0.94204 0.56034 0.0
H491 H 0.32689 0.93632 0.46314 0.0
H492 H 0.33099 0.96814 0.51484 0.0
H493 H 0.3703 0.96179 0.15375 0.0
H494 H 0.40164 0.98154 0.15573 0.0
H495 H 0.37104 0.9954 0.18816 0.0
C496 C 0.54053 0.3158 0.22975 0.0
C497 C 0.55258 0.31027 0.14617 0.0
C498 C 0.54663 0.33993 0.27377 0.0
C499 C 0.56506 0.35868 0.23245 0.0
C500 C 0.58019 0.3515 0.15549 0.0
C501 C 0.57388 0.32715 0.11345 0.0
C502 C 0.53076 0.34656 0.35786 0.0
C503 C 0.60045 0.37066 0.11053 0.0
C504 C 0.54113 0.42622 0.2531 0.0
C505 C 0.5563 0.43725 0.32376 0.0
C506 C 0.54495 0.40109 0.21933 0.0
C507 C 0.56419 0.38665 0.25818 0.0
C508 C 0.58077 0.39842 0.32545 0.0
C509 C 0.57669 0.4237 0.35724 0.0
C510 C 0.52731 0.38946 0.14558 0.0
C511 C 0.60151 0.38377 0.36841 0.0
H512 H 0.52412 0.30271 0.25526 0.0
H513 H 0.58336 0.32267 0.04905 0.0
H514 H 0.54371 0.3575 0.40745 0.0
H515 H 0.51504 0.3592 0.34042 0.0
H516 H 0.52098 0.32881 0.38986 0.0
H517 H 0.61441 0.36061 0.06503 0.0
H518 H 0.58991 0.38404 0.06984 0.0
H519 H 0.61212 0.3827 0.16094 0.0
H520 H 0.52544 0.43674 0.22709 0.0
H521 H 0.58845 0.4322 0.41218 0.0
H522 H 0.51409 0.3728 0.17187 0.0
H523 H 0.53962 0.38183 0.08927 0.0
H524 H 0.51463 0.40386 0.11873 0.0
H525 H 0.59155 0.37029 0.41846 0.0
H526 H 0.61647 0.39721 0.40372 0.0
H527 H 0.61204 0.37184 0.31782 0.0
C528 C 0.20986 0.53993 0.22908 0.0
C529 C 0.2174 0.55237 0.14871 0.0
C530 C 0.18616 0.54527 0.27529 0.0
C531 C 0.16994 0.56332 0.23935 0.0
C532 C 0.1796 0.57864 0.16596 0.0
C533 C 0.20346 0.57307 0.12166 0.0
C534 C 0.1769 0.52918 0.35548 0.0
C535 C 0.1632 0.59844 0.12676 0.0
C536 C 0.0967 0.53984 0.25737 0.0
C537 C 0.08828 0.55438 0.33199 0.0
C538 C 0.12304 0.5436 0.22372 0.0
C539 C 0.14128 0.56221 0.26648 0.0
C540 C 0.13236 0.57812 0.33815 0.0
C541 C 0.10585 0.57407 0.36992 0.0
C542 C 0.1317 0.52663 0.14553 0.0
C543 C 0.15112 0.59817 0.38533 0.0
H544 H 0.22069 0.52395 0.24998 0.0
H545 H 0.20952 0.58278 0.0596 0.0
H546 H 0.16798 0.54144 0.40884 0.0
H547 H 0.1613 0.51381 0.33457 0.0
H548 H 0.1935 0.51955 0.38414 0.0
H549 H 0.1476 0.58816 0.0845 0.0
H550 H 0.15299 0.60955 0.18051 0.0
H551 H 0.17564 0.61238 0.08393 0.0
H552 H 0.08309 0.52467 0.22802 0.0
H553 H 0.09936 0.58536 0.42787 0.0
H554 H 0.14659 0.51374 0.16791 0.0
H555 H 0.1414 0.53891 0.09158 0.0
H556 H 0.11472 0.51423 0.11675 0.0
H557 H 0.16359 0.58814 0.43113 0.0
H558 H 0.14013 0.61241 0.42599 0.0
H559 H 0.16475 0.60895 0.33651 0.0
C560 C 0.01168 0.81604 0.9138 0.0
C561 C 0.02672 0.81028 0.98689 0.0
C562 C 0.01633 0.8403 0.87243 0.0
C563 C 0.03586 0.85912 0.90727 0.0
C564 C 0.05325 0.85196 0.97317 0.0
C565 C 0.04881 0.8273 0.01075 0.0
C566 C 0.99844 0.84674 0.79832 0.0
C567 C 0.07415 0.87141 0.01299 0.0
C568 C 0.05028 0.92531 0.80142 0.0
C569 C 0.03154 0.93978 0.84728 0.0
C570 C 0.05191 0.89892 0.81949 0.0
C571 C 0.03498 0.88712 0.88717 0.0
C572 C 0.01688 0.9021 0.93661 0.0
C573 C 0.01492 0.92816 0.91442 0.0
C574 C 0.07048 0.88338 0.76236 0.0
C575 C 0.999 0.89041 0.01117 0.0
H576 H 0.99463 0.80285 0.89517 0.0
H577 H 0.06048 0.82266 0.06722 0.0
H578 H 0.98259 0.85849 0.82669 0.0
H579 H 0.00987 0.85849 0.74633 0.0
H580 H 0.98873 0.82883 0.76576 0.0
H581 H 0.08856 0.86176 0.05288 0.0
H582 H 0.08533 0.88283 0.95977 0.0
H583 H 0.06418 0.88537 0.05807 0.0
H584 H 0.06245 0.93415 0.74704 0.0
H585 H 1.00005 0.93929 0.94815 0.0
H586 H 0.05853 0.8699 0.71665 0.0
H587 H 0.08198 0.87126 0.80458 0.0
H588 H 0.08469 0.8961 0.72082 0.0
H589 H 0.98408 0.87557 0.98254 0.0
H590 H 0.98818 0.90535 0.04899 0.0
H591 H 0.01088 0.88041 0.05895 0.0
C592 C 0.71453 0.05592 0.95011 0.0
C593 C 0.72157 0.03022 0.94956 0.0
C594 C 0.69459 0.06292 0.89415 0.0
C595 C 0.68117 0.0435 0.83886 0.0
C596 C 0.69091 0.01855 0.82926 0.0
C597 C 0.71125 0.01225 0.88467 0.0
C598 C 0.68555 0.09004 0.90359 0.0
C599 C 0.67728 0.99722 0.77097 0.0
C600 C 0.60584 0.04066 0.84042 0.0
C601 C 0.60114 0.04673 0.75172 0.0
C602 C 0.63191 0.04037 0.87013 0.0
C603 C 0.65378 0.04689 0.80993 0.0
C604 C 0.6491 0.05456 0.72174 0.0
C605 C 0.62274 0.05415 0.6933 0.0
C606 C 0.63599 0.0317 0.96461 0.0
C607 C 0.67188 0.06244 0.6569 0.0
H608 H 0.72248 0.06972 0.00096 0.0
H609 H 0.71659 0.9923 0.88529 0.0
H610 H 0.67899 0.09677 0.8384 0.0
H611 H 0.66834 0.08994 0.95214 0.0
H612 H 0.70167 0.1042 0.92913 0.0
H613 H 0.65862 0.98926 0.8059 0.0
H614 H 0.67175 1.00484 0.70587 0.0
H615 H 0.69009 0.98097 0.75749 0.0
H616 H 0.58914 0.03481 0.88538 0.0
H617 H 0.61906 0.05891 0.62454 0.0
H618 H 0.64836 0.047 0.00208 0.0
H619 H 0.6468 0.01381 0.96216 0.0
H620 H 0.61685 0.02751 0.00291 0.0
H621 H 0.68461 0.07903 0.68615 0.0
H622 H 0.66482 0.06819 0.59098 0.0
H623 H 0.68465 0.04612 0.64534 0.0
C624 C 0.45026 0.68369 0.01591 0.0
C625 C 0.47275 0.69966 0.98699 0.0
C626 C 0.44361 0.65949 0.97338 0.0
C627 C 0.45962 0.65155 0.89963 0.0
C628 C 0.47958 0.66945 0.86162 0.0
C629 C 0.48601 0.69344 0.90621 0.0
C630 C 0.42178 0.64122 0.01476 0.0
C631 C 0.49644 0.66202 0.78076 0.0
C632 C 0.47998 0.58262 0.88335 0.0
C633 C 0.46553 0.57243 0.80989 0.0
C634 C 0.47698 0.60797 0.91656 0.0
C635 C 0.45936 0.62347 0.87417 0.0
C636 C 0.44339 0.61261 0.80388 0.0
C637 C 0.44656 0.58707 0.77283 0.0
C638 C 0.49387 0.61866 0.99358 0.0
C639 C 0.4244 0.62842 0.75699 0.0
H640 H 0.43981 0.68875 0.07799 0.0
H641 H 0.50334 0.70583 0.88357 0.0
H642 H 0.4104 0.62976 0.96224 0.0
H643 H 0.43085 0.62723 0.05736 0.0
H644 H 0.40773 0.65195 0.05771 0.0
H645 H 0.5077 0.67933 0.75055 0.0
H646 H 0.51098 0.6485 0.80141 0.0
H647 H 0.48389 0.65174 0.72864 0.0
H648 H 0.49457 0.57125 0.91208 0.0
H649 H 0.43538 0.57922 0.71567 0.0
H650 H 0.48117 0.62694 0.04752 0.0
H651 H 0.50837 0.63466 0.96967 0.0
H652 H 0.50513 0.6035 0.0229 0.0
H653 H 0.40942 0.61576 0.71894 0.0
H654 H 0.43587 0.64145 0.70872 0.0
H655 H 0.4138 0.64092 0.80555 0.0
C656 C 0.81171 0.49404 0.89713 0.0
C657 C 0.80171 0.47888 0.96918 0.0
C658 C 0.83511 0.48808 0.85016 0.0
C659 C 0.84864 0.46675 0.87733 0.0
C660 C 0.83645 0.44939 0.94139 0.0
C661 C 0.81286 0.45556 0.9861 0.0
C662 C 0.847 0.50643 0.77933 0.0
C663 C 0.84999 0.42624 0.97135 0.0
C664 C 0.91198 0.45235 0.74791 0.0
C665 C 0.93123 0.46823 0.79506 0.0
C666 C 0.88498 0.45102 0.77494 0.0
C667 C 0.87724 0.46557 0.8518 0.0
C668 C 0.89688 0.48023 0.9031 0.0
C669 C 0.92368 0.48156 0.87356 0.0
C670 C 0.86471 0.43548 0.71777 0.0
C671 C 0.88944 0.4955 0.98701 0.0
H672 H 0.80308 0.51208 0.88427 0.0
H673 H 0.80497 0.44387 0.04201 0.0
H674 H 0.85549 0.49544 0.72168 0.0
H675 H 0.832 0.51881 0.75414 0.0
H676 H 0.86348 0.51941 0.80847 0.0
H677 H 0.83586 0.41215 0.00795 0.0
H678 H 0.85907 0.41596 0.91317 0.0
H679 H 0.86625 0.43313 0.01712 0.0
H680 H 0.91773 0.44216 0.68656 0.0
H681 H 0.93855 0.49387 0.90979 0.0
H682 H 0.85452 0.44903 0.67669 0.0
H683 H 0.8492 0.42459 0.76004 0.0
H684 H 0.87415 0.42145 0.67142 0.0
H685 H 0.8767 0.51102 0.96945 0.0
H686 H 0.90723 0.50479 0.02145 0.0
H687 H 0.87772 0.48251 0.03485 0.0
C688 C 0.05331 0.20309 0.85967 0.0
C689 C 0.02873 0.21379 0.8569 0.0
C690 C 0.05756 0.17967 0.81259 0.0
C691 C 0.03653 0.1666 0.76338 0.0
C692 C 0.0131 0.17923 0.75084 0.0
C693 C 0.00965 0.2029 0.79702 0.0
C694 C 0.08337 0.16751 0.82391 0.0
C695 C 0.99018 0.16619 0.69858 0.0
C696 C 0.04115 0.10345 0.62672 0.0
C697 C 0.03094 0.08474 0.68867 0.0
C698 C 0.04461 0.13008 0.65119 0.0
C699 C 0.03688 0.1383 0.73896 0.0
C700 C 0.02738 0.11936 0.80265 0.0
C701 C 0.02489 0.09278 0.77703 0.0
C702 C 0.05547 0.14937 0.58174 0.0
C703 C 0.01849 0.12723 0.89671 0.0
H704 H 0.06798 0.2113 0.90674 0.0
H705 H 0.9905 0.21099 0.79593 0.0
H706 H 0.08032 0.15213 0.87486 0.0
H707 H 0.09 0.1582 0.75985 0.0
H708 H 0.09943 0.18216 0.84683 0.0
H709 H 0.97489 0.17982 0.6859 0.0
H710 H 0.99738 0.15822 0.63315 0.0
H711 H 0.98054 0.14959 0.73725 0.0
H712 H 0.04602 0.09733 0.55829 0.0
H713 H 0.0168 0.07843 0.82484 0.0
H714 H 0.06878 0.16529 0.6125 0.0
H715 H 0.03871 0.15833 0.55171 0.0
H716 H 0.0667 0.13977 0.52655 0.0
H717 H 0.03497 0.13885 0.93099 0.0
H718 H 0.01191 0.11011 0.93817 0.0
H719 H 1.00168 0.13973 0.8936 0.0
C720 C 0.32716 0.98674 0.85566 0.0
C721 C 0.31249 0.00729 0.88717 0.0
C722 C 0.352 0.99152 0.81078 0.0
C723 C 0.36237 0.01755 0.79547 0.0
C724 C 0.34635 0.03823 0.81858 0.0
C725 C 0.32163 0.03287 0.8649 0.0
C726 C 0.36818 0.96878 0.78762 0.0
C727 C 0.35619 0.06618 0.80071 0.0
C728 C 0.43802 0.02957 0.80715 0.0
C729 C 0.44602 0.02777 0.7165 0.0
C730 C 0.41083 0.02688 0.83337 0.0
C731 C 0.39111 0.02299 0.76701 0.0
C732 C 0.39921 0.02232 0.67486 0.0
C733 C 0.42661 0.02446 0.65081 0.0
C734 C 0.40327 0.02704 0.93244 0.0
C735 C 0.37899 0.01899 0.60183 0.0
H736 H 0.32014 0.96692 0.87282 0.0
H737 H 0.31052 0.04884 0.88962 0.0
H738 H 0.3563 0.94971 0.79576 0.0
H739 H 0.37617 0.96988 0.71739 0.0
H740 H 0.38548 0.9695 0.83227 0.0
H741 H 0.33978 0.07925 0.8066 0.0
H742 H 0.37147 0.07301 0.85011 0.0
H743 H 0.36572 0.06789 0.73259 0.0
H744 H 0.4531 0.03202 0.85782 0.0
H745 H 0.43288 0.02355 0.58052 0.0
H746 H 0.39269 0.00796 0.95029 0.0
H747 H 0.38941 0.04223 0.94828 0.0
H748 H 0.4209 0.03076 0.97541 0.0
H749 H 0.36634 1.0004 0.60977 0.0
H750 H 0.38851 0.01903 0.53341 0.0
H751 H 0.36556 0.03495 0.6076 0.0
C752 C 0.52048 0.31623 0.81322 0.0
C753 C 0.50105 0.30506 0.87364 0.0
C754 C 0.51645 0.33897 0.76753 0.0
C755 C 0.49204 0.35046 0.78051 0.0
C756 C 0.47114 0.3374 0.83271 0.0
C757 C 0.476 0.31497 0.87972 0.0
C758 C 0.53945 0.35217 0.71347 0.0
C759 C 0.44442 0.34832 0.84512 0.0
C760 C 0.49818 0.42474 0.77474 0.0
C761 C 0.49281 0.4291 0.6849 0.0
C762 C 0.49726 0.39925 0.80726 0.0
C763 C 0.48993 0.37758 0.74932 0.0
C764 C 0.48296 0.38203 0.65995 0.0
C765 C 0.48496 0.40767 0.6284 0.0
C766 C 0.50552 0.39548 0.90239 0.0
C767 C 0.47429 0.35971 0.59652 0.0
H768 H 0.53997 0.30877 0.80942 0.0
H769 H 0.46106 0.30665 0.92724 0.0
H770 H 0.53286 0.35757 0.6467 0.0
H771 H 0.54699 0.37046 0.74908 0.0
H772 H 0.55619 0.33961 0.70336 0.0
H773 H 0.42894 0.33357 0.87184 0.0
H774 H 0.44612 0.36518 0.8933 0.0
H775 H 0.43778 0.3554 0.7805 0.0
H776 H 0.50448 0.4412 0.81843 0.0
H777 H 0.48062 0.41093 0.55893 0.0
H778 H 0.52336 0.38425 0.90142 0.0
H779 H 0.48938 0.38403 0.94027 0.0
H780 H 0.5103 0.41431 0.93921 0.0
H781 H 0.49195 0.34977 0.57252 0.0
H782 H 0.46444 0.36652 0.53686 0.0
H783 H 0.46036 0.34508 0.63125 0.0
C784 C 0.20039 0.47963 0.8688 0.0
C785 C 0.21559 0.50373 0.86357 0.0
C786 C 0.17605 0.47514 0.82431 0.0
C787 C 0.16648 0.49546 0.77535 0.0
C788 C 0.18308 0.51885 0.76289 0.0
C789 C 0.20756 0.52253 0.8062 0.0
C790 C 0.15954 0.4495 0.83629 0.0
C791 C 0.17379 0.54119 0.71208 0.0
C792 C 0.10566 0.48757 0.62767 0.0
C793 C 0.08556 0.49615 0.68604 0.0
C794 C 0.13172 0.48584 0.65694 0.0
C795 C 0.13816 0.4937 0.74611 0.0
C796 C 0.11776 0.50181 0.806 0.0
C797 C 0.09162 0.50255 0.7756 0.0
C798 C 0.1525 0.4764 0.59143 0.0
C799 C 0.12379 0.51088 0.90114 0.0
H800 H 0.20622 0.46524 0.9144 0.0
H801 H 0.21901 0.54137 0.80358 0.0
H802 H 0.1431 0.45214 0.88624 0.0
H803 H 0.15041 0.44257 0.77208 0.0
H804 H 0.17163 0.43424 0.86059 0.0
H805 H 0.18996 0.55702 0.70137 0.0
H806 H 0.16618 0.53431 0.64572 0.0
H807 H 0.15711 0.54944 0.75056 0.0
H808 H 0.10107 0.48239 0.55842 0.0
H809 H 0.07624 0.50936 0.82074 0.0
H810 H 0.14343 0.46692 0.5304 0.0
H811 H 0.16443 0.46234 0.62372 0.0
H812 H 0.16643 0.49314 0.57003 0.0
H813 H 0.13247 0.49528 0.93745 0.0
H814 H 0.10575 0.51641 0.9394 0.0
H815 H 0.13883 0.52801 0.90023 0.0
C816 C 0.96552 0.8136 0.29809 0.0
C817 C 0.9901 0.80279 0.29239 0.0
C818 C 0.96279 0.83731 0.34529 0.0
C819 C 0.98525 0.85043 0.38693 0.0
C820 C 0.00916 0.83795 0.39019 0.0
C821 C 0.01123 0.81416 0.34317 0.0
C822 C 0.93673 0.84957 0.34215 0.0
C823 C 0.03359 0.85111 0.43418 0.0
C824 C 0.99439 0.92465 0.38364 0.0
C825 C 0.98936 0.93136 0.474 0.0
C826 C 0.99256 0.89835 0.35415 0.0
C827 C 0.98505 0.87837 0.41624 0.0
C828 C 0.97882 0.88515 0.50667 0.0
C829 C 0.98121 0.9115 0.53453 0.0
C830 C 0.99965 0.89191 0.25719 0.0
C831 C 0.97032 0.86454 0.57454 0.0
H832 H 0.94935 0.80511 0.25734 0.0
H833 H 0.0304 0.80607 0.33714 0.0
H834 H 0.93169 0.85879 0.40808 0.0
H835 H 0.93856 0.86508 0.2915 0.0
H836 H 0.92006 0.83505 0.32325 0.0
H837 H 0.04926 0.83749 0.44141 0.0
H838 H 0.04201 0.86759 0.39255 0.0
H839 H 0.02839 0.85926 0.50159 0.0
H840 H 1.00085 0.93985 0.33681 0.0
H841 H 0.97703 0.91654 0.60449 0.0
H842 H 0.98263 0.88041 0.22537 0.0
H843 H 0.01678 0.87972 0.25364 0.0
H844 H 1.005 0.90967 0.2175 0.0
H845 H 0.96499 0.87311 0.64137 0.0
H846 H 0.98666 0.8518 0.58293 0.0
H847 H 0.95289 0.85193 0.5501 0.0
C848 C 0.67021 0.98286 0.20227 0.0
C849 C 0.69432 0.99287 0.24022 0.0
C850 C 0.64631 0.98035 0.25323 0.0
C851 C 0.64645 0.98671 0.34634 0.0
C852 C 0.67112 0.9944 0.38729 0.0
C853 C 0.69481 0.9977 0.33347 0.0
C854 C 0.62061 0.97266 0.20558 0.0
C855 C 0.67227 1.00013 0.48715 0.0
C856 C 0.581 0.01068 0.43431 0.0
C857 C 0.56665 0.9874 0.46037 0.0
C858 C 0.60749 0.01097 0.40135 0.0
C859 C 0.62036 0.98753 0.39719 0.0
C860 C 0.6065 0.9643 0.4296 0.0
C861 C 0.5796 0.96439 0.459 0.0
C862 C 0.62106 0.03607 0.36544 0.0
C863 C 0.61972 0.93914 0.43018 0.0
H864 H 0.66976 0.97838 0.13064 0.0
H865 H 0.71335 1.00522 0.36353 0.0
H866 H 0.60988 0.95529 0.23675 0.0
H867 H 0.60737 0.98877 0.21228 0.0
H868 H 0.62401 0.96819 0.13284 0.0
H869 H 0.6931 1.00307 0.51027 0.0
H870 H 0.66219 0.01798 0.50449 0.0
H871 H 0.66149 0.9839 0.52472 0.0
H872 H 0.57104 0.02852 0.43549 0.0
H873 H 0.56868 0.94644 0.48062 0.0
H874 H 0.62496 0.03376 0.29191 0.0
H875 H 0.64059 0.04075 0.39707 0.0
H876 H 0.60883 0.05283 0.37754 0.0
H877 H 0.62077 0.9307 0.36091 0.0
H878 H 0.60852 0.92454 0.47386 0.0
H879 H 0.64044 0.9427 0.45377 0.0
C880 C 0.49825 0.6929 0.32668 0.0
C881 C 0.51838 0.70525 0.27139 0.0
C882 C 0.50228 0.67 0.37146 0.0
C883 C 0.52732 0.65948 0.36262 0.0
C884 C 0.54866 0.67365 0.31586 0.0
C885 C 0.54388 0.6963 0.27001 0.0
C886 C 0.47885 0.65563 0.41999 0.0
C887 C 0.57593 0.6637 0.30758 0.0
C888 C 0.53486 0.60198 0.51286 0.0
C889 C 0.52857 0.58057 0.45432 0.0
C890 C 0.53598 0.62775 0.483 0.0
C891 C 0.52997 0.63235 0.39286 0.0
C892 C 0.52433 0.61077 0.3328 0.0
C893 C 0.52403 0.58516 0.36398 0.0
C894 C 0.54266 0.65003 0.54888 0.0
C895 C 0.51725 0.6147 0.23655 0.0
H896 H 0.47843 0.69961 0.32691 0.0
H897 H 0.55939 0.70552 0.2264 0.0
H898 H 0.4724 0.63759 0.38106 0.0
H899 H 0.48453 0.64969 0.48724 0.0
H900 H 0.46161 0.66762 0.42853 0.0
H901 H 0.59133 0.67905 0.28436 0.0
H902 H 0.58182 0.65647 0.37296 0.0
H903 H 0.57552 0.64711 0.25827 0.0
H904 H 0.53852 0.59859 0.58278 0.0
H905 H 0.51891 0.56875 0.31866 0.0
H906 H 0.52448 0.66002 0.56624 0.0
H907 H 0.55755 0.66466 0.51844 0.0
H908 H 0.55063 0.64328 0.61208 0.0
H909 H 0.49878 0.62495 0.23521 0.0
H910 H 0.51401 0.59597 0.19789 0.0
H911 H 0.53332 0.62717 0.20209 0.0
C912 C 0.81577 0.49549 0.31843 0.0
C913 C 0.8064 0.51622 0.27307 0.0
C914 C 0.8402 0.49848 0.36217 0.0
C915 C 0.85554 0.52292 0.36146 0.0
C916 C 0.8448 0.54459 0.32386 0.0
C917 C 0.8204 0.54093 0.2795 0.0
C918 C 0.85071 0.47481 0.40134 0.0
C919 C 0.86012 0.57113 0.32365 0.0
C920 C 0.91545 0.5289 0.51282 0.0
C921 C 0.93638 0.52337 0.45238 0.0
C922 C 0.8893 0.52998 0.48373 0.0
C923 C 0.8837 0.52494 0.39203 0.0
C924 C 0.90488 0.52006 0.33016 0.0
C925 C 0.931 0.51959 0.36094 0.0
C926 C 0.86754 0.53576 0.55167 0.0
C927 C 0.89975 0.51422 0.23192 0.0
H928 H 0.80525 0.47625 0.31183 0.0
H929 H 0.81355 0.55684 0.24281 0.0
H930 H 0.85795 0.47932 0.47009 0.0
H931 H 0.83535 0.45796 0.40437 0.0
H932 H 0.86791 0.46899 0.35927 0.0
H933 H 0.84735 0.58665 0.30607 0.0
H934 H 0.86873 0.57602 0.39035 0.0
H935 H 0.87691 0.57102 0.27355 0.0
H936 H 0.91943 0.53209 0.58363 0.0
H937 H 0.94699 0.51515 0.31402 0.0
H938 H 0.85627 0.5517 0.52804 0.0
H939 H 0.87553 0.54147 0.61879 0.0
H940 H 0.85319 0.51828 0.55919 0.0
H941 H 0.88614 0.49616 0.22482 0.0
H942 H 0.9184 0.5116 0.1921 0.0
H943 H 0.88975 0.53026 0.20285 0.0
loop_
_geom_bond_atom_site_label_1
_geom_bond_atom_site_label_2
_geom_bond_distance
_geom_bond_site_symmetry_2
_ccdc_geom_bond_type
H0 C5 0.930 . S
H1 C8 0.930 1_556 S
H2 C10 0.930 . S
H3 C4 1.016 1_556 S
C4 H3 1.016 1_554 S
C4 N11 1.286 . S
C5 H0 0.930 . S
C5 C6 1.397 . S
C5 C7 1.361 . S
C6 C5 1.397 . S
C6 C10 1.390 . S
C7 C5 1.361 . S
C7 C8 1.393 . S
C7 N11 1.413 . S
C8 H1 0.930 1_554 S
C8 C7 1.393 . S
C8 C9 1.399 . S
C9 C8 1.399 . S
C9 C10 1.381 . S
C10 H2 0.930 . S
C10 C6 1.390 . S
C10 C9 1.381 . S
N11 C4 1.286 . S
N11 C7 1.413 . S
H12 C17 0.930 . S
H13 C20 0.930 . S
H14 C22 0.930 . S
H15 C16 1.032 . S
C16 H15 1.032 . S
C16 N23 1.269 1_656 S
C17 H12 0.930 . S
C17 C18 1.397 . S
C17 C19 1.361 . S
C18 C17 1.397 . S
C18 C22 1.390 1_455 S
C19 C17 1.361 . S
C19 C20 1.393 1_554 S
C19 N23 1.413 . S
C20 H13 0.930 . S
C20 C19 1.393 1_556 S
C20 C21 1.404 . S
C21 C20 1.404 . S
C21 C22 1.379 1_456 S
C22 H14 0.930 . S
C22 C18 1.390 1_655 S
C22 C21 1.379 1_654 S
N23 C16 1.269 1_454 S
N23 C19 1.413 . S
H24 C29 0.930 . S
H25 C32 0.930 . S
H26 C34 0.930 . S
H27 C28 1.016 . S
C28 H27 1.016 . S
C28 N35 1.286 1_556 S
C29 H24 0.930 . S
C29 C30 1.397 . S
C29 C31 1.361 . S
C30 C29 1.397 . S
C30 C34 1.390 . S
C31 C29 1.361 . S
C31 C32 1.393 1_554 S
C31 N35 1.413 . S
C32 H25 0.930 . S
C32 C31 1.393 1_556 S
C32 C33 1.399 . S
C33 C32 1.399 . S
C33 C34 1.381 1_556 S
C34 H26 0.930 . S
C34 C30 1.390 . S
C34 C33 1.381 1_554 S
N35 C28 1.286 1_554 S
N35 C31 1.413 . S
H36 C41 0.930 . S
H37 C44 0.930 1_556 S
H38 C46 0.930 . S
H39 C40 1.016 1_556 S
C40 H39 1.016 1_554 S
C40 N47 1.286 . S
C41 H36 0.930 . S
C41 C42 1.397 . S
C41 C43 1.361 . S
C42 C41 1.397 . S
C42 C46 1.390 . S
C43 C41 1.361 . S
C43 C44 1.393 . S
C43 N47 1.413 . S
C44 H37 0.930 1_554 S
C44 C43 1.393 . S
C44 C45 1.399 . S
C45 C44 1.399 . S
C45 C46 1.381 . S
C46 H38 0.930 . S
C46 C42 1.390 . S
C46 C45 1.381 . S
N47 C40 1.286 . S
N47 C43 1.413 . S
H48 C53 0.930 . S
H49 C56 0.930 . S
H50 C58 0.930 . S
H51 C52 1.016 . S
C52 H51 1.016 . S
C52 N59 1.286 . S
C53 H48 0.930 . S
C53 C54 1.397 . S
C53 C55 1.361 1_556 S
C54 C53 1.397 . S
C54 C58 1.390 1_556 S
C55 C53 1.361 1_554 S
C55 C56 1.393 . S
C55 N59 1.413 . S
C56 H49 0.930 . S
C56 C55 1.393 . S
C56 C57 1.399 . S
C57 C56 1.399 . S
C57 C58 1.381 . S
C58 H50 0.930 . S
C58 C54 1.390 1_554 S
C58 C57 1.381 . S
N59 C52 1.286 . S
N59 C55 1.413 . S
H60 C65 0.930 1_556 S
H61 C68 0.930 . S
H62 C70 0.930 . S
H63 C64 1.024 . S
C64 H63 1.024 . S
C64 N71 1.272 1_655 S
C65 H60 0.930 1_554 S
C65 C66 1.397 1_554 S
C65 C67 1.361 . S
C66 C65 1.397 1_556 S
C66 C70 1.390 1_456 S
C67 C65 1.361 . S
C67 C68 1.393 . S
C67 N71 1.413 . S
C68 H61 0.930 . S
C68 C67 1.393 . S
C68 C69 1.401 . S
C69 C68 1.401 . S
C69 C70 1.378 1_455 S
C70 H62 0.930 . S
C70 C66 1.390 1_654 S
C70 C69 1.378 1_655 S
N71 C64 1.272 1_455 S
N71 C67 1.413 . S
H72 C77 0.930 1_556 S
H73 C80 0.930 . S
H74 C82 0.930 . S
H75 C76 1.016 . S
C76 H75 1.016 . S
C76 N83 1.286 . S
C77 H72 0.930 1_554 S
C77 C78 1.397 . S
C77 C79 1.361 . S
C78 C77 1.397 . S
C78 C82 1.390 . S
C79 C77 1.361 . S
C79 C80 1.393 . S
C79 N83 1.413 . S
C80 H73 0.930 . S
C80 C79 1.393 . S
C80 C81 1.399 . S
C81 C80 1.399 . S
C81 C82 1.381 . S
C82 H74 0.930 . S
C82 C78 1.390 . S
C82 C81 1.381 . S
N83 C76 1.286 . S
N83 C79 1.413 . S
H84 C89 0.930 . S
H85 C92 0.930 . S
H86 C94 0.932 . S
H87 C88 1.016 . S
C88 H87 1.016 . S
C88 N95 1.286 . S
C89 H84 0.930 . S
C89 C90 1.397 . S
C89 C91 1.361 1_556 S
C90 C89 1.397 . S
C90 C94 1.390 1_556 S
C91 C89 1.361 1_554 S
C91 C92 1.393 . S
C91 N95 1.413 . S
C92 H85 0.930 . S
C92 C91 1.393 . S
C92 C93 1.399 . S
C93 C92 1.399 . S
C93 C94 1.381 . S
C94 H86 0.932 . S
C94 C90 1.390 1_554 S
C94 C93 1.381 . S
N95 C88 1.286 . S
N95 C91 1.413 . S
Dy96 O100 2.398 . S
Dy96 O101 2.491 1_455 S
Dy96 O102 2.403 . S
Dy96 O103 2.664 1_565 S
Dy96 O107 2.326 . S
Dy96 O111 2.310 1_455 S
Dy96 O112 2.351 1_565 S
C97 O108 1.185 . S
C97 O109 1.355 1_655 S
C98 O100 1.185 . S
C98 O101 1.355 1_455 S
Dy99 O103 2.310 1_655 S
Dy99 O106 2.351 1_545 S
Dy99 O108 2.398 . S
Dy99 O109 2.491 1_655 S
Dy99 O110 2.403 . S
Dy99 O111 2.664 1_545 S
Dy99 O113 2.326 . S
O100 Dy96 2.398 . S
O100 C98 1.185 . S
O101 Dy96 2.491 1_655 S
O101 C98 1.355 1_655 S
O102 Dy96 2.403 . S
O102 C104 1.254 1_565 S
O103 Dy96 2.664 1_545 S
O103 Dy99 2.310 1_455 S
O103 C104 1.268 . S
C104 O102 1.254 1_545 S
C104 O103 1.268 . S
C105 O110 1.254 1_565 S
C105 O111 1.268 . S
O106 Dy99 2.351 1_565 S
O106 C114 1.249 . S
O107 Dy96 2.326 . S
O107 C114 1.267 1_455 S
O108 C97 1.185 . S
O108 Dy99 2.398 . S
O109 C97 1.355 1_455 S
O109 Dy99 2.491 1_455 S
O110 Dy99 2.403 . S
O110 C105 1.254 1_545 S
O111 Dy96 2.310 1_655 S
O111 Dy99 2.664 1_565 S
O111 C105 1.268 . S
O112 Dy96 2.351 1_545 S
O112 C115 1.249 . S
O113 Dy99 2.326 . S
O113 C115 1.267 1_655 S
C114 O106 1.249 . S
C114 O107 1.267 1_655 S
C115 O112 1.249 . S
C115 O113 1.267 1_455 S
Dy116 O120 2.398 . S
Dy116 O121 2.491 1_565 S
Dy116 O122 2.403 . S
Dy116 O123 2.664 . S
Dy116 O127 2.326 1_565 S
Dy116 O131 2.310 1_565 S
Dy116 O132 2.351 . S
C117 O128 1.207 . S
C117 O129 1.348 1_545 S
C118 O120 1.185 1_545 S
C118 O121 1.355 . S
Dy119 O123 2.310 1_545 S
Dy119 O126 2.351 . S
Dy119 O128 2.398 . S
Dy119 O129 2.491 1_545 S
Dy119 O130 2.403 . S
Dy119 O131 2.664 . S
Dy119 O133 2.326 1_545 S
O120 Dy116 2.398 . S
O120 C118 1.185 1_565 S
O121 Dy116 2.491 1_545 S
O121 C118 1.355 . S
O122 Dy116 2.403 . S
O122 C124 1.254 . S
O123 Dy116 2.664 . S
O123 Dy119 2.310 1_565 S
O123 C124 1.268 . S
C124 O122 1.254 . S
C124 O123 1.268 . S
C125 O130 1.254 . S
C125 O131 1.268 . S
O126 Dy119 2.351 . S
O126 C134 1.249 . S
O127 Dy116 2.326 1_545 S
O127 C134 1.267 . S
O128 C117 1.207 . S
O128 Dy119 2.398 . S
O129 C117 1.348 1_565 S
O129 Dy119 2.491 1_565 S
O130 Dy119 2.403 . S
O130 C125 1.254 . S
O131 Dy116 2.310 1_545 S
O131 Dy119 2.664 . S
O131 C125 1.268 . S
O132 Dy116 2.351 . S
O132 C135 1.249 . S
O133 Dy119 2.326 1_565 S
O133 C135 1.267 . S
C134 O126 1.249 . S
C134 O127 1.267 . S
C135 O132 1.249 . S
C135 O133 1.267 . S
Dy136 O140 2.398 . S
Dy136 O141 2.491 . S
Dy136 O142 2.403 . S
Dy136 O143 2.664 . S
Dy136 O147 2.326 . S
Dy136 O151 2.310 . S
Dy136 O152 2.351 . S
C137 O148 1.185 . S
C137 O149 1.355 . S
C138 O140 1.185 . S
C138 O141 1.355 . S
Dy139 O143 2.310 . S
Dy139 O146 2.351 . S
Dy139 O148 2.398 . S
Dy139 O149 2.491 . S
Dy139 O150 2.403 . S
Dy139 O151 2.664 . S
Dy139 O153 2.326 . S
O140 Dy136 2.398 . S
O140 C138 1.185 . S
O141 Dy136 2.491 . S
O141 C138 1.355 . S
O142 Dy136 2.403 . S
O142 C144 1.254 . S
O143 Dy136 2.664 . S
O143 Dy139 2.310 . S
O143 C144 1.268 . S
C144 O142 1.254 . S
C144 O143 1.268 . S
C145 O150 1.254 . S
C145 O151 1.268 . S
O146 Dy139 2.351 . S
O146 C154 1.249 . S
O147 Dy136 2.326 . S
O147 C154 1.267 . S
O148 C137 1.185 . S
O148 Dy139 2.398 . S
O149 C137 1.355 . S
O149 Dy139 2.491 . S
O150 Dy139 2.403 . S
O150 C145 1.254 . S
O151 Dy136 2.310 . S
O151 Dy139 2.664 . S
O151 C145 1.268 . S
O152 Dy136 2.351 . S
O152 C155 1.249 . S
O153 Dy139 2.326 . S
O153 C155 1.267 . S
C154 O146 1.249 . S
C154 O147 1.267 . S
C155 O152 1.249 . S
C155 O153 1.267 . S
Dy156 O160 2.398 . S
Dy156 O161 2.491 . S
Dy156 O162 2.403 . S
Dy156 O163 2.664 1_655 S
Dy156 O167 2.326 . S
Dy156 O171 2.310 . S
Dy156 O172 2.351 1_655 S
C157 O168 1.185 . S
C157 O169 1.355 . S
C158 O160 1.185 . S
C158 O161 1.355 . S
Dy159 O163 2.310 . S
Dy159 O166 2.351 1_455 S
Dy159 O168 2.398 . S
Dy159 O169 2.491 . S
Dy159 O170 2.403 . S
Dy159 O171 2.664 1_455 S
Dy159 O173 2.326 . S
O160 Dy156 2.398 . S
O160 C158 1.185 . S
O161 Dy156 2.491 . S
O161 C158 1.355 . S
O162 Dy156 2.403 . S
O162 C164 1.254 . S
O163 Dy156 2.664 1_455 S
O163 Dy159 2.310 . S
O163 C164 1.268 1_455 S
C164 O162 1.254 . S
C164 O163 1.268 1_655 S
C165 O170 1.254 . S
C165 O171 1.268 1_455 S
O166 Dy159 2.351 1_655 S
O166 C174 1.249 . S
O167 Dy156 2.326 . S
O167 C174 1.267 . S
O168 C157 1.185 . S
O168 Dy159 2.398 . S
O169 C157 1.355 . S
O169 Dy159 2.491 . S
O170 Dy159 2.403 . S
O170 C165 1.254 . S
O171 Dy156 2.310 . S
O171 Dy159 2.664 1_655 S
O171 C165 1.268 1_655 S
O172 Dy156 2.351 1_455 S
O172 C175 1.249 . S
O173 Dy159 2.326 . S
O173 C175 1.267 . S
C174 O166 1.249 . S
C174 O167 1.267 . S
C175 O172 1.249 . S
C175 O173 1.267 . S
C176 C177 1.391 . S
C176 C178 1.394 . S
C176 H192 0.931 . S
C177 C176 1.391 . S
C177 C181 1.376 . S
C178 C176 1.394 . S
C178 C179 1.369 . S
C178 C182 1.531 . S
C179 C178 1.369 . S
C179 C180 1.410 . S
C179 C187 1.503 . S
C180 C179 1.410 . S
C180 C181 1.392 . S
C180 C183 1.511 . S
C181 C177 1.376 . S
C181 C180 1.392 . S
C181 H193 0.929 . S
C182 C178 1.531 . S
C182 H194 0.960 . S
C182 H195 0.962 . S
C182 H196 0.960 . S
C183 C180 1.511 . S
C183 H197 0.961 . S
C183 H198 0.961 . S
C183 H199 0.961 . S
C184 C185 1.363 1_565 S
C184 C186 1.361 1_565 S
C184 H200 0.941 . S
C185 C184 1.363 1_545 S
C185 C189 1.408 . S
C186 C184 1.361 1_545 S
C186 C187 1.370 . S
C186 C190 1.524 1_545 S
C187 C179 1.503 . S
C187 C186 1.370 . S
C187 C188 1.403 . S
C188 C187 1.403 . S
C188 C189 1.404 . S
C188 C191 1.539 . S
C189 C185 1.408 . S
C189 C188 1.404 . S
C189 H201 0.930 . S
C190 C186 1.524 1_565 S
C190 H202 0.956 . S
C190 H203 0.961 . S
C190 H204 0.961 . S
C191 C188 1.539 . S
C191 H205 0.958 . S
C191 H206 0.961 . S
C191 H207 0.960 . S
H192 C176 0.931 . S
H193 C181 0.929 . S
H194 C182 0.960 . S
H195 C182 0.962 . S
H196 C182 0.960 . S
H197 C183 0.961 . S
H198 C183 0.961 . S
H199 C183 0.961 . S
H200 C184 0.941 . S
H201 C189 0.930 . S
H202 C190 0.956 . S
H203 C190 0.961 . S
H204 C190 0.961 . S
H205 C191 0.958 . S
H206 C191 0.961 . S
H207 C191 0.960 . S
C208 C209 1.391 . S
C208 C210 1.394 . S
C208 H224 0.931 . S
C209 C208 1.391 . S
C209 C213 1.376 . S
C210 C208 1.394 . S
C210 C211 1.369 . S
C210 C214 1.531 . S
C211 C210 1.369 . S
C211 C212 1.410 . S
C211 C219 1.503 . S
C212 C211 1.410 . S
C212 C213 1.392 . S
C212 C215 1.511 . S
C213 C209 1.376 . S
C213 C212 1.392 . S
C213 H225 0.929 . S
C214 C210 1.531 . S
C214 H226 0.960 . S
C214 H227 0.962 . S
C214 H228 0.960 . S
C215 C212 1.511 . S
C215 H229 0.961 . S
C215 H230 0.961 . S
C215 H231 0.961 . S
C216 C217 1.370 . S
C216 C218 1.363 . S
C216 H232 0.931 . S
C217 C216 1.370 . S
C217 C221 1.408 . S
C218 C216 1.363 . S
C218 C219 1.370 . S
C218 C222 1.524 . S
C219 C211 1.503 . S
C219 C218 1.370 . S
C219 C220 1.403 . S
C220 C219 1.403 . S
C220 C221 1.404 . S
C220 C223 1.539 . S
C221 C217 1.408 . S
C221 C220 1.404 . S
C221 H233 0.930 . S
C222 C218 1.524 . S
C222 H234 0.956 . S
C222 H235 0.961 . S
C222 H236 0.961 . S
C223 C220 1.539 . S
C223 H237 0.958 . S
C223 H238 0.961 . S
C223 H239 0.960 . S
H224 C208 0.931 . S
H225 C213 0.929 . S
H226 C214 0.960 . S
H227 C214 0.962 . S
H228 C214 0.960 . S
H229 C215 0.961 . S
H230 C215 0.961 . S
H231 C215 0.961 . S
H232 C216 0.931 . S
H233 C221 0.930 . S
H234 C222 0.956 . S
H235 C222 0.961 . S
H236 C222 0.961 . S
H237 C223 0.958 . S
H238 C223 0.961 . S
H239 C223 0.960 . S
C240 C241 1.391 . S
C240 C242 1.394 . S
C240 H256 0.931 . S
C241 C240 1.391 . S
C241 C245 1.376 . S
C242 C240 1.394 . S
C242 C243 1.369 . S
C242 C246 1.531 . S
C243 C242 1.369 . S
C243 C244 1.410 . S
C243 C251 1.503 . S
C244 C243 1.410 . S
C244 C245 1.392 . S
C244 C247 1.511 . S
C245 C241 1.376 . S
C245 C244 1.392 . S
C245 H257 0.929 . S
C246 C242 1.531 . S
C246 H258 0.960 . S
C246 H259 0.962 . S
C246 H260 0.960 . S
C247 C244 1.511 . S
C247 H261 0.961 . S
C247 H262 0.961 . S
C247 H263 0.961 . S
C248 C249 1.370 . S
C248 C250 1.363 . S
C248 H264 0.931 . S
C249 C248 1.370 . S
C249 C253 1.408 . S
C250 C248 1.363 . S
C250 C251 1.370 . S
C250 C254 1.524 . S
C251 C243 1.503 . S
C251 C250 1.370 . S
C251 C252 1.403 . S
C252 C251 1.403 . S
C252 C253 1.404 . S
C252 C255 1.539 . S
C253 C249 1.408 . S
C253 C252 1.404 . S
C253 H265 0.930 . S
C254 C250 1.524 . S
C254 H266 0.956 . S
C254 H267 0.961 . S
C254 H268 0.961 . S
C255 C252 1.539 . S
C255 H269 0.958 . S
C255 H270 0.961 . S
C255 H271 0.960 . S
H256 C240 0.931 . S
H257 C245 0.929 . S
H258 C246 0.960 . S
H259 C246 0.962 . S
H260 C246 0.960 . S
H261 C247 0.961 . S
H262 C247 0.961 . S
H263 C247 0.961 . S
H264 C248 0.931 . S
H265 C253 0.930 . S
H266 C254 0.956 . S
H267 C254 0.961 . S
H268 C254 0.961 . S
H269 C255 0.958 . S
H270 C255 0.961 . S
H271 C255 0.960 . S
C272 C273 1.391 1_655 S
C272 C274 1.394 . S
C272 H288 0.931 . S
C273 C272 1.391 1_455 S
C273 C277 1.376 . S
C274 C272 1.394 . S
C274 C275 1.369 1_655 S
C274 C278 1.531 . S
C275 C274 1.369 1_455 S
C275 C276 1.410 . S
C275 C283 1.503 . S
C276 C275 1.410 . S
C276 C277 1.392 . S
C276 C279 1.511 . S
C277 C273 1.376 . S
C277 C276 1.392 . S
C277 H289 0.929 . S
C278 C274 1.531 . S
C278 H290 0.960 . S
C278 H291 0.962 . S
C278 H292 0.960 . S
C279 C276 1.511 . S
C279 H293 0.961 . S
C279 H294 0.961 . S
C279 H295 0.961 . S
C280 C281 1.378 . S
C280 C282 1.363 . S
C280 H296 0.931 . S
C281 C280 1.378 . S
C281 C285 1.399 1_655 S
C282 C280 1.363 . S
C282 C283 1.370 1_655 S
C282 C286 1.524 . S
C283 C275 1.503 . S
C283 C282 1.370 1_455 S
C283 C284 1.403 . S
C284 C283 1.403 . S
C284 C285 1.404 . S
C284 C287 1.539 . S
C285 C281 1.399 1_455 S
C285 C284 1.404 . S
C285 H297 0.930 . S
C286 C282 1.524 . S
C286 H298 0.956 . S
C286 H299 0.961 . S
C286 H300 0.961 . S
C287 C284 1.539 . S
C287 H301 0.958 . S
C287 H302 0.961 . S
C287 H303 0.960 . S
H288 C272 0.931 . S
H289 C277 0.929 . S
H290 C278 0.960 . S
H291 C278 0.962 . S
H292 C278 0.960 . S
H293 C279 0.961 . S
H294 C279 0.961 . S
H295 C279 0.961 . S
H296 C280 0.931 . S
H297 C285 0.930 . S
H298 C286 0.956 . S
H299 C286 0.961 . S
H300 C286 0.961 . S
H301 C287 0.958 . S
H302 C287 0.961 . S
H303 C287 0.960 . S
C304 C305 1.391 . S
C304 C306 1.394 . S
C304 H320 0.931 . S
C305 C304 1.391 . S
C305 C309 1.376 . S
C306 C304 1.394 . S
C306 C307 1.369 . S
C306 C310 1.531 . S
C307 C306 1.369 . S
C307 C308 1.410 . S
C307 C315 1.503 . S
C308 C307 1.410 . S
C308 C309 1.392 . S
C308 C311 1.511 1_565 S
C309 C305 1.376 . S
C309 C308 1.392 . S
C309 H321 0.929 . S
C310 C306 1.531 . S
C310 H322 0.960 . S
C310 H323 0.962 . S
C310 H324 0.960 . S
C311 C308 1.511 1_545 S
C311 H325 0.961 . S
C311 H326 0.961 . S
C311 H327 0.961 . S
C312 C313 1.370 . S
C312 C314 1.363 . S
C312 H328 0.931 . S
C313 C312 1.370 . S
C313 C317 1.408 . S
C314 C312 1.363 . S
C314 C315 1.370 . S
C314 C318 1.524 . S
C315 C307 1.503 . S
C315 C314 1.370 . S
C315 C316 1.403 . S
C316 C315 1.403 . S
C316 C317 1.404 . S
C316 C319 1.539 1_565 S
C317 C313 1.408 . S
C317 C316 1.404 . S
C317 H329 0.930 1_565 S
C318 C314 1.524 . S
C318 H330 0.956 . S
C318 H331 0.961 . S
C318 H332 0.961 . S
C319 C316 1.539 1_545 S
C319 H333 0.958 1_545 S
C319 H334 0.961 . S
C319 H335 0.960 . S
H320 C304 0.931 . S
H321 C309 0.929 . S
H322 C310 0.960 . S
H323 C310 0.962 . S
H324 C310 0.960 . S
H325 C311 0.961 . S
H326 C311 0.961 . S
H327 C311 0.961 . S
H328 C312 0.931 . S
H329 C317 0.930 1_545 S
H330 C318 0.956 . S
H331 C318 0.961 . S
H332 C318 0.961 . S
H333 C319 0.958 1_565 S
H334 C319 0.961 . S
H335 C319 0.960 . S
C336 C337 1.391 . S
C336 C338 1.394 1_554 S
C336 H352 0.931 . S
C337 C336 1.391 . S
C337 C341 1.376 1_554 S
C338 C336 1.394 1_556 S
C338 C339 1.369 . S
C338 C342 1.531 1_556 S
C339 C338 1.369 . S
C339 C340 1.410 . S
C339 C347 1.503 . S
C340 C339 1.410 . S
C340 C341 1.392 . S
C340 C343 1.511 . S
C341 C337 1.376 1_556 S
C341 C340 1.392 . S
C341 H353 0.929 . S
C342 C338 1.531 1_554 S
C342 H354 0.960 1_554 S
C342 H355 0.962 . S
C342 H356 0.960 . S
C343 C340 1.511 . S
C343 H357 0.961 . S
C343 H358 0.961 . S
C343 H359 0.961 . S
C344 C345 1.370 . S
C344 C346 1.363 . S
C344 H360 0.931 . S
C345 C344 1.370 . S
C345 C349 1.408 . S
C346 C344 1.363 . S
C346 C347 1.370 . S
C346 C350 1.524 . S
C347 C339 1.503 . S
C347 C346 1.370 . S
C347 C348 1.403 . S
C348 C347 1.403 . S
C348 C349 1.404 . S
C348 C351 1.539 . S
C349 C345 1.408 . S
C349 C348 1.404 . S
C349 H361 0.930 . S
C350 C346 1.524 . S
C350 H362 0.956 . S
C350 H363 0.961 . S
C350 H364 0.961 . S
C351 C348 1.539 . S
C351 H365 0.958 . S
C351 H366 0.961 . S
C351 H367 0.960 . S
H352 C336 0.931 . S
H353 C341 0.929 . S
H354 C342 0.960 1_556 S
H355 C342 0.962 . S
H356 C342 0.960 . S
H357 C343 0.961 . S
H358 C343 0.961 . S
H359 C343 0.961 . S
H360 C344 0.931 . S
H361 C349 0.930 . S
H362 C350 0.956 . S
H363 C350 0.961 . S
H364 C350 0.961 . S
H365 C351 0.958 . S
H366 C351 0.961 . S
H367 C351 0.960 . S
C368 C369 1.391 1_554 S
C368 C370 1.394 1_554 S
C368 H384 0.931 . S
C369 C368 1.391 1_556 S
C369 C373 1.376 . S
C370 C368 1.394 1_556 S
C370 C371 1.369 . S
C370 C374 1.531 . S
C371 C370 1.369 . S
C371 C372 1.410 . S
C371 C379 1.503 . S
C372 C371 1.410 . S
C372 C373 1.392 . S
C372 C375 1.511 . S
C373 C369 1.376 . S
C373 C372 1.392 . S
C373 H385 0.929 . S
C374 C370 1.531 . S
C374 H386 0.960 . S
C374 H387 0.962 . S
C374 H388 0.960 1_556 S
C375 C372 1.511 . S
C375 H389 0.961 . S
C375 H390 0.961 . S
C375 H391 0.961 . S
C376 C377 1.370 . S
C376 C378 1.363 . S
C376 H392 0.931 . S
C377 C376 1.370 . S
C377 C381 1.408 . S
C378 C376 1.363 . S
C378 C379 1.370 . S
C378 C382 1.524 . S
C379 C371 1.503 . S
C379 C378 1.370 . S
C379 C380 1.403 . S
C380 C379 1.403 . S
C380 C381 1.404 . S
C380 C383 1.539 . S
C381 C377 1.408 . S
C381 C380 1.404 . S
C381 H393 0.930 . S
C382 C378 1.524 . S
C382 H394 0.956 . S
C382 H395 0.961 . S
C382 H396 0.961 . S
C383 C380 1.539 . S
C383 H397 0.958 . S
C383 H398 0.961 . S
C383 H399 0.960 . S
H384 C368 0.931 . S
H385 C373 0.929 . S
H386 C374 0.960 . S
H387 C374 0.962 . S
H388 C374 0.960 1_554 S
H389 C375 0.961 . S
H390 C375 0.961 . S
H391 C375 0.961 . S
H392 C376 0.931 . S
H393 C381 0.930 . S
H394 C382 0.956 . S
H395 C382 0.961 . S
H396 C382 0.961 . S
H397 C383 0.958 . S
H398 C383 0.961 . S
H399 C383 0.960 . S
C400 C401 1.391 . S
C400 C402 1.394 . S
C400 H416 0.931 . S
C401 C400 1.391 . S
C401 C405 1.376 1_455 S
C402 C400 1.394 . S
C402 C403 1.369 . S
C402 C406 1.531 . S
C403 C402 1.369 . S
C403 C404 1.410 1_455 S
C403 C411 1.503 . S
C404 C403 1.410 1_655 S
C404 C405 1.392 . S
C404 C407 1.511 . S
C405 C401 1.376 1_655 S
C405 C404 1.392 . S
C405 H417 0.929 1_556 S
C406 C402 1.531 . S
C406 H418 0.960 . S
C406 H419 0.962 . S
C406 H420 0.960 . S
C407 C404 1.511 . S
C407 H421 0.961 . S
C407 H422 0.961 . S
C407 H423 0.961 . S
C408 C409 1.370 1_655 S
C408 C410 1.363 . S
C408 H424 0.931 . S
C409 C408 1.370 1_455 S
C409 C413 1.408 . S
C410 C408 1.363 . S
C410 C411 1.370 1_655 S
C410 C414 1.524 . S
C411 C403 1.503 . S
C411 C410 1.370 1_455 S
C411 C412 1.403 . S
C412 C411 1.403 . S
C412 C413 1.404 . S
C412 C415 1.539 . S
C413 C409 1.408 . S
C413 C412 1.404 . S
C413 H425 0.930 . S
C414 C410 1.524 . S
C414 H426 0.956 . S
C414 H427 0.961 . S
C414 H428 0.961 . S
C415 C412 1.539 . S
C415 H429 0.958 . S
C415 H430 0.961 . S
C415 H431 0.960 . S
H416 C400 0.931 . S
H417 C405 0.929 1_554 S
H418 C406 0.960 . S
H419 C406 0.962 . S
H420 C406 0.960 . S
H421 C407 0.961 . S
H422 C407 0.961 . S
H423 C407 0.961 . S
H424 C408 0.931 . S
H425 C413 0.930 . S
H426 C414 0.956 . S
H427 C414 0.961 . S
H428 C414 0.961 . S
H429 C415 0.958 . S
H430 C415 0.961 . S
H431 C415 0.960 . S
C432 C433 1.391 1_655 S
C432 C434 1.394 . S
C432 H448 0.931 . S
C433 C432 1.391 1_455 S
C433 C437 1.376 . S
C434 C432 1.394 . S
C434 C435 1.369 . S
C434 C438 1.531 . S
C435 C434 1.369 . S
C435 C436 1.410 1_655 S
C435 C443 1.503 . S
C436 C435 1.410 1_455 S
C436 C437 1.392 . S
C436 C439 1.511 . S
C437 C433 1.376 . S
C437 C436 1.392 . S
C437 H449 0.929 . S
C438 C434 1.531 . S
C438 H450 0.960 . S
C438 H451 0.962 . S
C438 H452 0.960 . S
C439 C436 1.511 . S
C439 H453 0.961 . S
C439 H454 0.961 . S
C439 H455 0.961 . S
C440 C441 1.370 . S
C440 C442 1.363 . S
C440 H456 0.931 . S
C441 C440 1.370 . S
C441 C445 1.408 1_655 S
C442 C440 1.363 . S
C442 C443 1.370 . S
C442 C446 1.524 . S
C443 C435 1.503 . S
C443 C442 1.370 . S
C443 C444 1.403 1_655 S
C444 C443 1.403 1_455 S
C444 C445 1.404 . S
C444 C447 1.539 . S
C445 C441 1.408 1_455 S
C445 C444 1.404 . S
C445 H457 0.930 . S
C446 C442 1.524 . S
C446 H458 0.956 . S
C446 H459 0.961 . S
C446 H460 0.961 . S
C447 C444 1.539 . S
C447 H461 0.958 . S
C447 H462 0.961 . S
C447 H463 0.960 . S
H448 C432 0.931 . S
H449 C437 0.929 . S
H450 C438 0.960 . S
H451 C438 0.962 . S
H452 C438 0.960 . S
H453 C439 0.961 . S
H454 C439 0.961 . S
H455 C439 0.961 . S
H456 C440 0.931 . S
H457 C445 0.930 . S
H458 C446 0.956 . S
H459 C446 0.961 . S
H460 C446 0.961 . S
H461 C447 0.958 . S
H462 C447 0.961 . S
H463 C447 0.960 . S
C464 C465 1.391 . S
C464 C466 1.394 . S
C464 H480 0.931 . S
C465 C464 1.391 . S
C465 C469 1.376 . S
C466 C464 1.394 . S
C466 C467 1.369 . S
C466 C470 1.531 1_545 S
C467 C466 1.369 . S
C467 C468 1.410 . S
C467 C475 1.503 . S
C468 C467 1.410 . S
C468 C469 1.392 . S
C468 C471 1.511 . S
C469 C465 1.376 . S
C469 C468 1.392 . S
C469 H481 0.929 . S
C470 C466 1.531 1_565 S
C470 H482 0.960 . S
C470 H483 0.962 . S
C470 H484 0.960 . S
C471 C468 1.511 . S
C471 H485 0.961 . S
C471 H486 0.961 . S
C471 H487 0.961 . S
C472 C473 1.370 . S
C472 C474 1.363 . S
C472 H488 0.931 . S
C473 C472 1.370 . S
C473 C477 1.408 1_545 S
C474 C472 1.363 . S
C474 C475 1.370 . S
C474 C478 1.524 . S
C475 C467 1.503 . S
C475 C474 1.370 . S
C475 C476 1.403 . S
C476 C475 1.403 . S
C476 C477 1.404 1_545 S
C476 C479 1.539 1_545 S
C477 C473 1.408 1_565 S
C477 C476 1.404 1_565 S
C477 H489 0.930 . S
C478 C474 1.524 . S
C478 H490 0.956 . S
C478 H491 0.961 . S
C478 H492 0.961 . S
C479 C476 1.539 1_565 S
C479 H493 0.958 . S
C479 H494 0.961 . S
C479 H495 0.960 1_565 S
H480 C464 0.931 . S
H481 C469 0.929 . S
H482 C470 0.960 . S
H483 C470 0.962 . S
H484 C470 0.960 . S
H485 C471 0.961 . S
H486 C471 0.961 . S
H487 C471 0.961 . S
H488 C472 0.931 . S
H489 C477 0.930 . S
H490 C478 0.956 . S
H491 C478 0.961 . S
H492 C478 0.961 . S
H493 C479 0.958 . S
H494 C479 0.961 . S
H495 C479 0.960 1_545 S
C496 C497 1.391 . S
C496 C498 1.394 . S
C496 H512 0.931 . S
C497 C496 1.391 . S
C497 C501 1.376 . S
C498 C496 1.394 . S
C498 C499 1.369 . S
C498 C502 1.531 . S
C499 C498 1.369 . S
C499 C500 1.410 . S
C499 C507 1.503 . S
C500 C499 1.410 . S
C500 C501 1.392 . S
C500 C503 1.511 . S
C501 C497 1.376 . S
C501 C500 1.392 . S
C501 H513 0.929 . S
C502 C498 1.531 . S
C502 H514 0.960 . S
C502 H515 0.962 . S
C502 H516 0.960 . S
C503 C500 1.511 . S
C503 H517 0.961 . S
C503 H518 0.961 . S
C503 H519 0.961 . S
C504 C505 1.370 . S
C504 C506 1.363 . S
C504 H520 0.931 . S
C505 C504 1.370 . S
C505 C509 1.408 . S
C506 C504 1.363 . S
C506 C507 1.370 . S
C506 C510 1.524 . S
C507 C499 1.503 . S
C507 C506 1.370 . S
C507 C508 1.403 . S
C508 C507 1.403 . S
C508 C509 1.404 . S
C508 C511 1.539 . S
C509 C505 1.408 . S
C509 C508 1.404 . S
C509 H521 0.930 . S
C510 C506 1.524 . S
C510 H522 0.956 . S
C510 H523 0.961 . S
C510 H524 0.961 . S
C511 C508 1.539 . S
C511 H525 0.958 . S
C511 H526 0.961 . S
C511 H527 0.960 . S
H512 C496 0.931 . S
H513 C501 0.929 . S
H514 C502 0.960 . S
H515 C502 0.962 . S
H516 C502 0.960 . S
H517 C503 0.961 . S
H518 C503 0.961 . S
H519 C503 0.961 . S
H520 C504 0.931 . S
H521 C509 0.930 . S
H522 C510 0.956 . S
H523 C510 0.961 . S
H524 C510 0.961 . S
H525 C511 0.958 . S
H526 C511 0.961 . S
H527 C511 0.960 . S
C528 C529 1.391 . S
C528 C530 1.394 . S
C528 H544 0.931 . S
C529 C528 1.391 . S
C529 C533 1.376 . S
C530 C528 1.394 . S
C530 C531 1.369 . S
C530 C534 1.531 . S
C531 C530 1.369 . S
C531 C532 1.410 . S
C531 C539 1.503 . S
C532 C531 1.410 . S
C532 C533 1.392 . S
C532 C535 1.511 . S
C533 C529 1.376 . S
C533 C532 1.392 . S
C533 H545 0.929 . S
C534 C530 1.531 . S
C534 H546 0.960 . S
C534 H547 0.962 . S
C534 H548 0.960 . S
C535 C532 1.511 . S
C535 H549 0.961 . S
C535 H550 0.961 . S
C535 H551 0.961 . S
C536 C537 1.370 . S
C536 C538 1.363 . S
C536 H552 0.931 . S
C537 C536 1.370 . S
C537 C541 1.408 . S
C538 C536 1.363 . S
C538 C539 1.370 . S
C538 C542 1.524 . S
C539 C531 1.503 . S
C539 C538 1.370 . S
C539 C540 1.403 . S
C540 C539 1.403 . S
C540 C541 1.404 . S
C540 C543 1.539 . S
C541 C537 1.408 . S
C541 C540 1.404 . S
C541 H553 0.930 . S
C542 C538 1.524 . S
C542 H554 0.956 . S
C542 H555 0.961 . S
C542 H556 0.961 . S
C543 C540 1.539 . S
C543 H557 0.958 . S
C543 H558 0.961 . S
C543 H559 0.960 . S
H544 C528 0.931 . S
H545 C533 0.929 . S
H546 C534 0.960 . S
H547 C534 0.962 . S
H548 C534 0.960 . S
H549 C535 0.961 . S
H550 C535 0.961 . S
H551 C535 0.961 . S
H552 C536 0.931 . S
H553 C541 0.930 . S
H554 C542 0.956 . S
H555 C542 0.961 . S
H556 C542 0.961 . S
H557 C543 0.958 . S
H558 C543 0.961 . S
H559 C543 0.960 . S
C560 C561 1.427 . S
C560 C562 1.394 . S
C560 H576 0.931 . S
C561 C560 1.427 . S
C561 C565 1.343 1_655 S
C562 C560 1.394 . S
C562 C563 1.369 1_655 S
C562 C566 1.531 . S
C563 C562 1.369 1_455 S
C563 C564 1.410 . S
C563 C571 1.503 . S
C564 C563 1.410 . S
C564 C565 1.392 . S
C564 C567 1.511 . S
C565 C561 1.343 1_455 S
C565 C564 1.392 . S
C565 H577 0.929 1_556 S
C566 C562 1.531 . S
C566 H578 0.960 . S
C566 H579 0.962 . S
C566 H580 0.960 . S
C567 C564 1.511 . S
C567 H581 0.961 . S
C567 H582 0.961 . S
C567 H583 0.961 1_556 S
C568 C569 1.370 . S
C568 C570 1.363 . S
C568 H584 0.931 . S
C569 C568 1.370 . S
C569 C573 1.409 . S
C570 C568 1.363 . S
C570 C571 1.370 . S
C570 C574 1.524 . S
C571 C563 1.503 . S
C571 C570 1.370 . S
C571 C572 1.403 1_455 S
C572 C571 1.403 1_655 S
C572 C573 1.404 1_655 S
C572 C575 1.539 . S
C573 C569 1.409 . S
C573 C572 1.404 1_455 S
C573 H585 0.929 1_455 S
C574 C570 1.524 . S
C574 H586 0.956 . S
C574 H587 0.961 . S
C574 H588 0.961 . S
C575 C572 1.539 . S
C575 H589 0.958 . S
C575 H590 0.961 . S
C575 H591 0.960 1_556 S
H576 C560 0.931 . S
H577 C565 0.929 1_554 S
H578 C566 0.960 . S
H579 C566 0.962 . S
H580 C566 0.960 . S
H581 C567 0.961 . S
H582 C567 0.961 . S
H583 C567 0.961 1_554 S
H584 C568 0.931 . S
H585 C573 0.929 1_655 S
H586 C574 0.956 . S
H587 C574 0.961 . S
H588 C574 0.961 . S
H589 C575 0.958 . S
H590 C575 0.961 . S
H591 C575 0.960 1_554 S
C592 C593 1.391 . S
C592 C594 1.394 . S
C592 H608 0.931 . S
C593 C592 1.391 . S
C593 C597 1.376 . S
C594 C592 1.394 . S
C594 C595 1.369 . S
C594 C598 1.531 1_565 S
C595 C594 1.369 . S
C595 C596 1.410 . S
C595 C603 1.503 . S
C596 C595 1.410 . S
C596 C597 1.392 . S
C596 C599 1.511 . S
C597 C593 1.376 . S
C597 C596 1.392 . S
C597 H609 0.929 . S
C598 C594 1.531 1_545 S
C598 H610 0.960 . S
C598 H611 0.962 . S
C598 H612 0.960 . S
C599 C596 1.511 . S
C599 H613 0.961 . S
C599 H614 0.961 . S
C599 H615 0.961 . S
C600 C601 1.370 . S
C600 C602 1.363 . S
C600 H616 0.931 . S
C601 C600 1.370 . S
C601 C605 1.408 . S
C602 C600 1.363 . S
C602 C603 1.370 . S
C602 C606 1.524 . S
C603 C595 1.503 . S
C603 C602 1.370 . S
C603 C604 1.403 . S
C604 C603 1.403 . S
C604 C605 1.404 . S
C604 C607 1.539 . S
C605 C601 1.408 . S
C605 C604 1.404 . S
C605 H617 0.930 1_565 S
C606 C602 1.524 . S
C606 H618 0.956 1_556 S
C606 H619 0.961 . S
C606 H620 0.961 1_556 S
C607 C604 1.539 . S
C607 H621 0.958 1_565 S
C607 H622 0.961 . S
C607 H623 0.960 . S
H608 C592 0.931 . S
H609 C597 0.929 . S
H610 C598 0.960 . S
H611 C598 0.962 . S
H612 C598 0.960 . S
H613 C599 0.961 . S
H614 C599 0.961 . S
H615 C599 0.961 . S
H616 C600 0.931 . S
H617 C605 0.930 1_545 S
H618 C606 0.956 1_554 S
H619 C606 0.961 . S
H620 C606 0.961 1_554 S
H621 C607 0.958 1_545 S
H622 C607 0.961 . S
H623 C607 0.960 . S
C624 C625 1.390 1_556 S
C624 C626 1.394 . S
C624 H640 0.931 . S
C625 C624 1.390 1_554 S
C625 C629 1.375 1_554 S
C626 C624 1.394 . S
C626 C627 1.369 . S
C626 C630 1.531 . S
C627 C626 1.369 . S
C627 C628 1.410 . S
C627 C635 1.503 . S
C628 C627 1.410 . S
C628 C629 1.392 . S
C628 C631 1.511 . S
C629 C625 1.375 1_556 S
C629 C628 1.392 . S
C629 H641 0.929 . S
C630 C626 1.531 . S
C630 H642 0.960 . S
C630 H643 0.962 . S
C630 H644 0.960 . S
C631 C628 1.511 . S
C631 H645 0.961 . S
C631 H646 0.961 . S
C631 H647 0.961 . S
C632 C633 1.370 . S
C632 C634 1.363 . S
C632 H648 0.931 . S
C633 C632 1.370 . S
C633 C637 1.408 . S
C634 C632 1.363 . S
C634 C635 1.370 . S
C634 C638 1.531 . S
C635 C627 1.503 . S
C635 C634 1.370 . S
C635 C636 1.403 . S
C636 C635 1.403 . S
C636 C637 1.404 . S
C636 C639 1.539 . S
C637 C633 1.408 . S
C637 C636 1.404 . S
C637 H649 0.930 . S
C638 C634 1.531 . S
C638 H650 0.954 1_556 S
C638 H651 0.958 1_556 S
C638 H652 0.958 1_556 S
C639 C636 1.539 . S
C639 H653 0.958 . S
C639 H654 0.961 . S
C639 H655 0.960 . S
H640 C624 0.931 . S
H641 C629 0.929 . S
H642 C630 0.960 . S
H643 C630 0.962 . S
H644 C630 0.960 . S
H645 C631 0.961 . S
H646 C631 0.961 . S
H647 C631 0.961 . S
H648 C632 0.931 . S
H649 C637 0.930 . S
H650 C638 0.954 1_554 S
H651 C638 0.958 1_554 S
H652 C638 0.958 1_554 S
H653 C639 0.958 . S
H654 C639 0.961 . S
H655 C639 0.960 . S
C656 C657 1.391 . S
C656 C658 1.394 . S
C656 H672 0.931 . S
C657 C656 1.391 . S
C657 C661 1.376 1_556 S
C658 C656 1.394 . S
C658 C659 1.369 . S
C658 C662 1.531 . S
C659 C658 1.369 . S
C659 C660 1.410 . S
C659 C667 1.503 . S
C660 C659 1.410 . S
C660 C661 1.392 1_556 S
C660 C663 1.511 1_556 S
C661 C657 1.376 1_554 S
C661 C660 1.392 1_554 S
C661 H673 0.929 . S
C662 C658 1.531 . S
C662 H674 0.960 . S
C662 H675 0.962 . S
C662 H676 0.960 . S
C663 C660 1.511 1_554 S
C663 H677 0.961 . S
C663 H678 0.961 . S
C663 H679 0.961 . S
C664 C665 1.370 . S
C664 C666 1.363 . S
C664 H680 0.931 . S
C665 C664 1.370 . S
C665 C669 1.408 . S
C666 C664 1.363 . S
C666 C667 1.370 . S
C666 C670 1.524 . S
C667 C659 1.503 . S
C667 C666 1.370 . S
C667 C668 1.403 . S
C668 C667 1.403 . S
C668 C669 1.404 . S
C668 C671 1.539 . S
C669 C665 1.408 . S
C669 C668 1.404 . S
C669 H681 0.930 . S
C670 C666 1.524 . S
C670 H682 0.956 . S
C670 H683 0.961 . S
C670 H684 0.961 . S
C671 C668 1.539 . S
C671 H685 0.958 . S
C671 H686 0.961 . S
C671 H687 0.960 . S
H672 C656 0.931 . S
H673 C661 0.929 . S
H674 C662 0.960 . S
H675 C662 0.962 . S
H676 C662 0.960 . S
H677 C663 0.961 . S
H678 C663 0.961 . S
H679 C663 0.961 . S
H680 C664 0.931 . S
H681 C669 0.930 . S
H682 C670 0.956 . S
H683 C670 0.961 . S
H684 C670 0.961 . S
H685 C671 0.958 . S
H686 C671 0.961 . S
H687 C671 0.960 . S
C688 C689 1.378 1_455 S
C688 C690 1.394 . S
C688 H704 0.931 . S
C689 C688 1.378 1_655 S
C689 C693 1.388 . S
C690 C688 1.394 . S
C690 C691 1.378 . S
C690 C694 1.531 . S
C691 C690 1.378 . S
C691 C692 1.399 1_455 S
C691 C699 1.505 . S
C692 C691 1.399 1_655 S
C692 C693 1.392 . S
C692 C695 1.511 . S
C693 C689 1.388 . S
C693 C692 1.392 . S
C693 H705 0.929 . S
C694 C690 1.531 . S
C694 H706 0.960 . S
C694 H707 0.962 . S
C694 H708 0.960 1_556 S
C695 C692 1.511 . S
C695 H709 0.961 . S
C695 H710 0.961 . S
C695 H711 0.961 . S
C696 C697 1.370 . S
C696 C698 1.363 . S
C696 H712 0.931 . S
C697 C696 1.370 . S
C697 C701 1.408 1_455 S
C698 C696 1.363 . S
C698 C699 1.370 . S
C698 C702 1.524 . S
C699 C691 1.505 . S
C699 C698 1.370 . S
C699 C700 1.403 1_455 S
C700 C699 1.403 1_655 S
C700 C701 1.404 . S
C700 C703 1.539 . S
C701 C697 1.408 1_655 S
C701 C700 1.404 . S
C701 H713 0.930 . S
C702 C698 1.524 . S
C702 H714 0.956 . S
C702 H715 0.961 . S
C702 H716 0.961 . S
C703 C700 1.539 . S
C703 H717 0.958 . S
C703 H718 0.961 . S
C703 H719 0.960 . S
H704 C688 0.931 . S
H705 C693 0.929 . S
H706 C694 0.960 . S
H707 C694 0.962 . S
H708 C694 0.960 1_554 S
H709 C695 0.961 . S
H710 C695 0.961 . S
H711 C695 0.961 . S
H712 C696 0.931 . S
H713 C701 0.930 . S
H714 C702 0.956 . S
H715 C702 0.961 . S
H716 C702 0.961 . S
H717 C703 0.958 . S
H718 C703 0.961 . S
H719 C703 0.960 . S
C720 C721 1.391 . S
C720 C722 1.394 . S
C720 H736 0.931 . S
C721 C720 1.391 . S
C721 C725 1.376 . S
C722 C720 1.394 . S
C722 C723 1.369 . S
C722 C726 1.531 . S
C723 C722 1.369 . S
C723 C724 1.410 . S
C723 C731 1.503 . S
C724 C723 1.410 . S
C724 C725 1.392 . S
C724 C727 1.511 1_556 S
C725 C721 1.376 . S
C725 C724 1.392 . S
C725 H737 0.929 1_556 S
C726 C722 1.531 . S
C726 H738 0.960 . S
C726 H739 0.962 . S
C726 H740 0.960 . S
C727 C724 1.511 1_554 S
C727 H741 0.961 . S
C727 H742 0.961 1_554 S
C727 H743 0.961 . S
C728 C729 1.400 . S
C728 C730 1.378 . S
C728 H744 0.887 1_545 S
C729 C728 1.400 . S
C729 C733 1.408 . S
C730 C728 1.378 . S
C730 C731 1.370 . S
C730 C734 1.524 1_545 S
C731 C723 1.503 . S
C731 C730 1.370 . S
C731 C732 1.403 . S
C732 C731 1.403 . S
C732 C733 1.404 . S
C732 C735 1.539 . S
C733 C729 1.408 . S
C733 C732 1.404 . S
C733 H745 0.930 . S
C734 C730 1.524 1_565 S
C734 H746 0.956 . S
C734 H747 0.961 . S
C734 H748 0.961 . S
C735 C732 1.539 . S
C735 H749 0.958 . S
C735 H750 0.961 . S
C735 H751 0.960 . S
H736 C720 0.931 . S
H737 C725 0.929 1_554 S
H738 C726 0.960 . S
H739 C726 0.962 . S
H740 C726 0.960 . S
H741 C727 0.961 . S
H742 C727 0.961 1_556 S
H743 C727 0.961 . S
H744 C728 0.887 1_565 S
H745 C733 0.930 . S
H746 C734 0.956 . S
H747 C734 0.961 . S
H748 C734 0.961 . S
H749 C735 0.958 . S
H750 C735 0.961 . S
H751 C735 0.960 . S
C752 C753 1.391 . S
C752 C754 1.394 . S
C752 H768 0.931 . S
C753 C752 1.391 . S
C753 C757 1.376 . S
C754 C752 1.394 . S
C754 C755 1.369 . S
C754 C758 1.531 . S
C755 C754 1.369 . S
C755 C756 1.410 . S
C755 C763 1.503 . S
C756 C755 1.410 . S
C756 C757 1.392 . S
C756 C759 1.511 . S
C757 C753 1.376 . S
C757 C756 1.392 . S
C757 H769 0.929 . S
C758 C754 1.531 . S
C758 H770 0.960 . S
C758 H771 0.962 . S
C758 H772 0.960 . S
C759 C756 1.511 . S
C759 H773 0.961 . S
C759 H774 0.961 . S
C759 H775 0.961 . S
C760 C761 1.370 . S
C760 C762 1.363 . S
C760 H776 0.931 . S
C761 C760 1.370 . S
C761 C765 1.408 . S
C762 C760 1.363 . S
C762 C763 1.370 . S
C762 C766 1.524 . S
C763 C755 1.503 . S
C763 C762 1.370 . S
C763 C764 1.403 . S
C764 C763 1.403 . S
C764 C765 1.404 . S
C764 C767 1.539 . S
C765 C761 1.408 . S
C765 C764 1.404 . S
C765 H777 0.930 . S
C766 C762 1.524 . S
C766 H778 0.956 . S
C766 H779 0.961 . S
C766 H780 0.961 . S
C767 C764 1.539 . S
C767 H781 0.958 . S
C767 H782 0.961 . S
C767 H783 0.960 . S
H768 C752 0.931 . S
H769 C757 0.929 . S
H770 C758 0.960 . S
H771 C758 0.962 . S
H772 C758 0.960 . S
H773 C759 0.961 . S
H774 C759 0.961 . S
H775 C759 0.961 . S
H776 C760 0.931 . S
H777 C765 0.930 . S
H778 C766 0.956 . S
H779 C766 0.961 . S
H780 C766 0.961 . S
H781 C767 0.958 . S
H782 C767 0.961 . S
H783 C767 0.960 . S
C784 C785 1.391 . S
C784 C786 1.394 . S
C784 H800 0.931 . S
C785 C784 1.391 . S
C785 C789 1.376 . S
C786 C784 1.394 . S
C786 C787 1.369 . S
C786 C790 1.531 . S
C787 C786 1.369 . S
C787 C788 1.410 . S
C787 C795 1.503 . S
C788 C787 1.410 . S
C788 C789 1.392 . S
C788 C791 1.511 . S
C789 C785 1.376 . S
C789 C788 1.392 . S
C789 H801 0.929 1_556 S
C790 C786 1.531 . S
C790 H802 0.960 . S
C790 H803 0.962 . S
C790 H804 0.960 . S
C791 C788 1.511 . S
C791 H805 0.961 1_556 S
C791 H806 0.961 . S
C791 H807 0.961 1_556 S
C792 C793 1.370 . S
C792 C794 1.363 . S
C792 H808 0.931 . S
C793 C792 1.370 . S
C793 C797 1.408 . S
C794 C792 1.363 . S
C794 C795 1.370 . S
C794 C798 1.524 . S
C795 C787 1.503 . S
C795 C794 1.370 . S
C795 C796 1.403 . S
C796 C795 1.403 . S
C796 C797 1.404 . S
C796 C799 1.539 . S
C797 C793 1.408 . S
C797 C796 1.404 . S
C797 H809 0.930 . S
C798 C794 1.524 . S
C798 H810 0.956 . S
C798 H811 0.961 . S
C798 H812 0.961 . S
C799 C796 1.539 . S
C799 H813 0.958 . S
C799 H814 0.961 . S
C799 H815 0.960 . S
H800 C784 0.931 . S
H801 C789 0.929 1_554 S
H802 C790 0.960 . S
H803 C790 0.962 . S
H804 C790 0.960 . S
H805 C791 0.961 1_554 S
H806 C791 0.961 . S
H807 C791 0.961 1_554 S
H808 C792 0.931 . S
H809 C797 0.930 . S
H810 C798 0.956 . S
H811 C798 0.961 . S
H812 C798 0.961 . S
H813 C799 0.958 . S
H814 C799 0.961 . S
H815 C799 0.960 . S
C816 C817 1.376 1_655 S
C816 C818 1.394 . S
C816 H832 0.931 . S
C817 C816 1.376 1_455 S
C817 C821 1.390 . S
C818 C816 1.394 . S
C818 C819 1.367 . S
C818 C822 1.531 . S
C819 C818 1.367 . S
C819 C820 1.412 1_655 S
C819 C827 1.503 . S
C820 C819 1.412 1_455 S
C820 C821 1.392 . S
C820 C823 1.511 . S
C821 C817 1.390 . S
C821 C820 1.392 . S
C821 H833 0.929 . S
C822 C818 1.531 . S
C822 H834 0.960 . S
C822 H835 0.962 . S
C822 H836 0.960 . S
C823 C820 1.511 . S
C823 H837 0.961 . S
C823 H838 0.961 . S
C823 H839 0.961 . S
C824 C825 1.370 . S
C824 C826 1.363 . S
C824 H840 0.931 . S
C825 C824 1.370 . S
C825 C829 1.408 1_655 S
C826 C824 1.363 . S
C826 C827 1.370 . S
C826 C830 1.524 . S
C827 C819 1.503 . S
C827 C826 1.370 . S
C827 C828 1.403 1_655 S
C828 C827 1.403 1_455 S
C828 C829 1.404 . S
C828 C831 1.539 . S
C829 C825 1.408 1_455 S
C829 C828 1.404 . S
C829 H841 0.930 . S
C830 C826 1.524 . S
C830 H842 0.956 . S
C830 H843 0.961 . S
C830 H844 0.961 . S
C831 C828 1.539 . S
C831 H845 0.958 . S
C831 H846 0.961 . S
C831 H847 0.960 . S
H832 C816 0.931 . S
H833 C821 0.929 . S
H834 C822 0.960 . S
H835 C822 0.962 . S
H836 C822 0.960 . S
H837 C823 0.961 . S
H838 C823 0.961 . S
H839 C823 0.961 . S
H840 C824 0.931 . S
H841 C829 0.930 . S
H842 C830 0.956 . S
H843 C830 0.961 . S
H844 C830 0.961 . S
H845 C831 0.958 . S
H846 C831 0.961 . S
H847 C831 0.960 . S
C848 C849 1.391 . S
C848 C850 1.394 . S
C848 H864 0.931 . S
C849 C848 1.391 . S
C849 C853 1.376 . S
C850 C848 1.394 . S
C850 C851 1.369 . S
C850 C854 1.531 . S
C851 C850 1.369 . S
C851 C852 1.410 . S
C851 C859 1.503 . S
C852 C851 1.410 . S
C852 C853 1.392 . S
C852 C855 1.511 . S
C853 C849 1.376 . S
C853 C852 1.392 . S
C853 H865 0.929 . S
C854 C850 1.531 . S
C854 H866 0.960 . S
C854 H867 0.962 . S
C854 H868 0.960 . S
C855 C852 1.511 . S
C855 H869 0.961 . S
C855 H870 0.961 . S
C855 H871 0.961 . S
C856 C857 1.371 . S
C856 C858 1.363 . S
C856 H872 0.930 1_565 S
C857 C856 1.371 . S
C857 C861 1.408 . S
C858 C856 1.363 . S
C858 C859 1.370 . S
C858 C862 1.524 1_565 S
C859 C851 1.503 . S
C859 C858 1.370 . S
C859 C860 1.403 . S
C860 C859 1.403 . S
C860 C861 1.404 . S
C860 C863 1.539 . S
C861 C857 1.408 . S
C861 C860 1.404 . S
C861 H873 0.930 . S
C862 C858 1.524 1_545 S
C862 H874 0.956 . S
C862 H875 0.961 . S
C862 H876 0.961 . S
C863 C860 1.539 . S
C863 H877 0.958 . S
C863 H878 0.961 . S
C863 H879 0.960 . S
H864 C848 0.931 . S
H865 C853 0.929 . S
H866 C854 0.960 . S
H867 C854 0.962 . S
H868 C854 0.960 . S
H869 C855 0.961 . S
H870 C855 0.961 . S
H871 C855 0.961 . S
H872 C856 0.930 1_545 S
H873 C861 0.930 . S
H874 C862 0.956 . S
H875 C862 0.961 . S
H876 C862 0.961 . S
H877 C863 0.958 . S
H878 C863 0.961 . S
H879 C863 0.960 . S
C880 C881 1.391 . S
C880 C882 1.394 . S
C880 H896 0.931 . S
C881 C880 1.391 . S
C881 C885 1.376 . S
C882 C880 1.394 . S
C882 C883 1.369 . S
C882 C886 1.531 . S
C883 C882 1.369 . S
C883 C884 1.410 . S
C883 C891 1.503 . S
C884 C883 1.410 . S
C884 C885 1.392 . S
C884 C887 1.511 . S
C885 C881 1.376 . S
C885 C884 1.392 . S
C885 H897 0.929 . S
C886 C882 1.531 . S
C886 H898 0.960 . S
C886 H899 0.962 . S
C886 H900 0.960 . S
C887 C884 1.511 . S
C887 H901 0.961 . S
C887 H902 0.961 . S
C887 H903 0.961 . S
C888 C889 1.370 . S
C888 C890 1.363 . S
C888 H904 0.931 . S
C889 C888 1.370 . S
C889 C893 1.408 . S
C890 C888 1.363 . S
C890 C891 1.370 . S
C890 C894 1.524 . S
C891 C883 1.503 . S
C891 C890 1.370 . S
C891 C892 1.403 . S
C892 C891 1.403 . S
C892 C893 1.404 . S
C892 C895 1.539 . S
C893 C889 1.408 . S
C893 C892 1.404 . S
C893 H905 0.930 . S
C894 C890 1.524 . S
C894 H906 0.956 . S
C894 H907 0.961 . S
C894 H908 0.961 . S
C895 C892 1.539 . S
C895 H909 0.958 . S
C895 H910 0.961 . S
C895 H911 0.960 . S
H896 C880 0.931 . S
H897 C885 0.929 . S
H898 C886 0.960 . S
H899 C886 0.962 . S
H900 C886 0.960 . S
H901 C887 0.961 . S
H902 C887 0.961 . S
H903 C887 0.961 . S
H904 C888 0.931 . S
H905 C893 0.930 . S
H906 C894 0.956 . S
H907 C894 0.961 . S
H908 C894 0.961 . S
H909 C895 0.958 . S
H910 C895 0.961 . S
H911 C895 0.960 . S
C912 C913 1.391 . S
C912 C914 1.394 . S
C912 H928 0.931 . S
C913 C912 1.391 . S
C913 C917 1.376 . S
C914 C912 1.394 . S
C914 C915 1.369 . S
C914 C918 1.531 . S
C915 C914 1.369 . S
C915 C916 1.410 . S
C915 C923 1.503 . S
C916 C915 1.410 . S
C916 C917 1.392 . S
C916 C919 1.511 . S
C917 C913 1.376 . S
C917 C916 1.392 . S
C917 H929 0.929 . S
C918 C914 1.531 . S
C918 H930 0.960 . S
C918 H931 0.962 . S
C918 H932 0.960 . S
C919 C916 1.511 . S
C919 H933 0.961 . S
C919 H934 0.961 . S
C919 H935 0.961 . S
C920 C921 1.370 . S
C920 C922 1.363 . S
C920 H936 0.931 . S
C921 C920 1.370 . S
C921 C925 1.408 . S
C922 C920 1.363 . S
C922 C923 1.370 . S
C922 C926 1.524 . S
C923 C915 1.503 . S
C923 C922 1.370 . S
C923 C924 1.403 . S
C924 C923 1.403 . S
C924 C925 1.404 . S
C924 C927 1.539 . S
C925 C921 1.408 . S
C925 C924 1.404 . S
C925 H937 0.930 . S
C926 C922 1.524 . S
C926 H938 0.956 . S
C926 H939 0.961 . S
C926 H940 0.961 . S
C927 C924 1.539 . S
C927 H941 0.958 . S
C927 H942 0.961 . S
C927 H943 0.960 . S
H928 C912 0.931 . S
H929 C917 0.929 . S
H930 C918 0.960 . S
H931 C918 0.962 . S
H932 C918 0.960 . S
H933 C919 0.961 . S
H934 C919 0.961 . S
H935 C919 0.961 . S
H936 C920 0.931 . S
H937 C925 0.930 . S
H938 C926 0.956 . S
H939 C926 0.961 . S
H940 C926 0.961 . S
H941 C927 0.958 . S
H942 C927 0.961 . S
H943 C927 0.960 . S
C177 C76 1.666 . S
C185 C104 1.712 . S
C217 C134 1.815 . S
C209 C88 1.712 . S
C249 C144 1.538 . S
C241 C52 1.482 . S
C281 C164 1.403 . S
C273 C64 1.313 1_455 S
C313 C105 1.706 . S
C305 C28 1.631 . S
C337 C40 1.760 . S
C345 C135 1.808 . S
C369 C4 1.439 1_556 S
C377 C145 1.537 . S
C401 C16 1.371 1_455 S
C409 C165 1.402 . S
C441 C97 0.831 . S
C433 C69 0.805 . S
C473 C118 0.577 . S
C465 C81 0.505 . S
C505 C137 1.008 . S
C497 C93 0.989 . S
C529 C57 0.735 . S
C537 C157 0.736 . S
C561 C21 0.792 1_655 S
C569 C98 0.830 . S
C601 C117 0.520 1_565 S
C593 C33 0.673 . S
C633 C138 1.007 . S
C625 C45 1.025 . S
C657 C9 0.753 1_556 S
C665 C158 0.732 . S
C689 C66 1.484 1_655 S
C697 C115 1.590 . S
C721 C78 1.407 1_556 S
C729 C125 1.486 . S
C761 C155 1.804 . S
C753 C90 1.725 . S
C793 C175 1.800 . S
C785 C54 1.670 . S
C817 C18 1.544 . S
C825 C114 1.592 . S
C857 C124 1.487 . S
C849 C30 1.412 . S
C889 C154 1.799 . S
C881 C42 1.644 . S
C913 C6 1.689 . S
C921 C174 1.806 . S
