# Generated by pormake.
# Topology zzz, (3,6)-cn, num edge types: 1
# Building blocks:
#     Node 0, Type 0, BuildingBlock: QEWDON_clean_linker_0, # of connection points: 3
#     Node 1, Type 0, BuildingBlock: QEWDON_clean_linker_0, # of connection points: 3
#     Node 2, Type 0, BuildingBlock: QEWDON_clean_linker_0, # of connection points: 3
#     Node 3, Type 0, BuildingBlock: QEWDON_clean_linker_0, # of connection points: 3
#     Node 4, Type 0, BuildingBlock: QEWDON_clean_linker_0, # of connection points: 3
#     Node 5, Type 0, BuildingBlock: QEWDON_clean_linker_0, # of connection points: 3
#     Node 6, Type 0, BuildingBlock: QEWDON_clean_linker_0, # of connection points: 3
#     Node 7, Type 0, BuildingBlock: QEWDON_clean_linker_0, # of connection points: 3
#     Node 8, Type 1, BuildingBlock: KUMBUR_clean_sbu_0, # of connection points: 6
#     Node 9, Type 1, BuildingBlock: KUMBUR_clean_sbu_0, # of connection points: 6
#     Node 10, Type 1, BuildingBlock: KUMBUR_clean_sbu_0, # of connection points: 6
#     Node 11, Type 1, BuildingBlock: KUMBUR_clean_sbu_0, # of connection points: 6
#     Edge 12, Type (0, 1), BuildingBlock: OJICUG_clean_linker_0, # of connection points: 2
#     Edge 13, Type (0, 1), BuildingBlock: OJICUG_clean_linker_0, # of connection points: 2
#     Edge 14, Type (0, 1), BuildingBlock: OJICUG_clean_linker_0, # of connection points: 2
#     Edge 15, Type (0, 1), BuildingBlock: OJICUG_clean_linker_0, # of connection points: 2
#     Edge 16, Type (0, 1), BuildingBlock: OJICUG_clean_linker_0, # of connection points: 2
#     Edge 17, Type (0, 1), BuildingBlock: OJICUG_clean_linker_0, # of connection points: 2
#     Edge 18, Type (0, 1), BuildingBlock: OJICUG_clean_linker_0, # of connection points: 2
#     Edge 19, Type (0, 1), BuildingBlock: OJICUG_clean_linker_0, # of connection points: 2
#     Edge 20, Type (0, 1), BuildingBlock: OJICUG_clean_linker_0, # of connection points: 2
#     Edge 21, Type (0, 1), BuildingBlock: OJICUG_clean_linker_0, # of connection points: 2
#     Edge 22, Type (0, 1), BuildingBlock: OJICUG_clean_linker_0, # of connection points: 2
#     Edge 23, Type (0, 1), BuildingBlock: OJICUG_clean_linker_0, # of connection points: 2
#     Edge 24, Type (0, 1), BuildingBlock: OJICUG_clean_linker_0, # of connection points: 2
#     Edge 25, Type (0, 1), BuildingBlock: OJICUG_clean_linker_0, # of connection points: 2
#     Edge 26, Type (0, 1), BuildingBlock: OJICUG_clean_linker_0, # of connection points: 2
#     Edge 27, Type (0, 1), BuildingBlock: OJICUG_clean_linker_0, # of connection points: 2
#     Edge 28, Type (0, 1), BuildingBlock: OJICUG_clean_linker_0, # of connection points: 2
#     Edge 29, Type (0, 1), BuildingBlock: OJICUG_clean_linker_0, # of connection points: 2
#     Edge 30, Type (0, 1), BuildingBlock: OJICUG_clean_linker_0, # of connection points: 2
#     Edge 31, Type (0, 1), BuildingBlock: OJICUG_clean_linker_0, # of connection points: 2
#     Edge 32, Type (0, 1), BuildingBlock: OJICUG_clean_linker_0, # of connection points: 2
#     Edge 33, Type (0, 1), BuildingBlock: OJICUG_clean_linker_0, # of connection points: 2
#     Edge 34, Type (0, 1), BuildingBlock: OJICUG_clean_linker_0, # of connection points: 2
#     Edge 35, Type (0, 1), BuildingBlock: OJICUG_clean_linker_0, # of connection points: 2
# Relax obj value: 0.156
# Max RMSD: 0.166
# Mean RMSD: 0.078
data_MOF--net-zzz--node1-KUMBUR_clean_sbu_0--node2-QEWDON_clean_linker_0--edge1-OJICUG_clean_linker_0
_symmetry_space_group_name_H-M    P1
_symmetry_Int_Tables_number       1
_symmetry_cell_setting            triclinic
loop_
_symmetry_equiv_pos_as_xyz
'x, y, z'
_cell_length_a     39.794134
_cell_length_b     39.730903
_cell_length_c     10.79462
_cell_angle_alpha  92.18193
_cell_angle_beta   90.217034
_cell_angle_gamma 90.213581
loop_
_atom_site_label
_atom_site_type_symbol
_atom_site_fract_x
_atom_site_fract_y
_atom_site_fract_z
_atom_type_partial_charge
H0 H 0.75926 0.48666 0.1765 0.0
C1 C 0.77816 0.49692 0.23951 0.0
C2 C 0.80733 0.47795 0.2561 0.0
C3 C 0.77351 0.52826 0.30293 0.0
H4 H 0.85532 0.47505 0.34667 0.0
C5 C 0.8324 0.48955 0.3388 0.0
C6 C 0.83019 0.52036 0.40454 0.0
C7 C 0.80065 0.54019 0.38455 0.0
C8 C 0.74003 0.5471 0.28572 0.0
H9 H 0.79909 0.56447 0.43266 0.0
C10 C 0.71662 0.54054 0.18379 0.0
C11 C 0.68512 0.55797 0.1758 0.0
C12 C 0.73012 0.57109 0.37762 0.0
H13 H 0.74539 0.57639 0.45903 0.0
C14 C 0.69971 0.58823 0.36949 0.0
H15 H 0.72267 0.5226 0.1096 0.0
C16 C 0.67768 0.58191 0.27062 0.0
H17 H 0.65411 0.5955 0.26988 0.0
H18 H 0.69287 0.60645 0.4421 0.0
H19 H 0.06823 0.77552 0.16618 0.0
C20 C 0.06242 0.79387 0.23951 0.0
C21 C 0.08445 0.82108 0.25812 0.0
C22 C 0.03211 0.79182 0.30575 0.0
H23 H 0.0947 0.86741 0.35892 0.0
C24 C 0.07701 0.84674 0.34618 0.0
C25 C 0.04584 0.84911 0.40517 0.0
C26 C 1.02359 0.82056 0.3881 0.0
C27 C 1.00852 0.76182 0.27276 0.0
H28 H 0.99977 0.82139 0.43575 0.0
C29 C 1.01955 0.73001 0.21527 0.0
C30 C 0.99611 0.70456 0.17041 0.0
C31 C 0.97375 0.766 0.28871 0.0
H32 H 0.96353 0.78909 0.32864 0.0
C33 C 0.95099 0.74113 0.24845 0.0
H34 H 0.04605 0.72516 0.20278 0.0
C35 C 0.96181 0.71133 0.18928 0.0
H36 H 0.94283 0.69317 0.15944 0.0
H37 H 0.92434 0.74528 0.26145 0.0
H38 H 0.77948 0.0853 0.17735 0.0
C39 C 0.7602 0.07775 0.24081 0.0
C40 C 0.72767 0.08789 0.21611 0.0
C41 C 0.76773 0.05898 0.34497 0.0
H42 H 0.67644 0.08833 0.2691 0.0
C43 C 0.70147 0.08108 0.29693 0.0
C44 C 0.70687 0.06586 0.41059 0.0
C45 C 0.74048 0.05361 0.43223 0.0
C46 C 0.80429 0.04711 0.3599 0.0
H47 H 0.74516 0.04034 0.51599 0.0
C48 C 0.82833 0.04602 0.25914 0.0
C49 C 0.86261 0.03656 0.27629 0.0
C50 C 0.81617 0.0379 0.47664 0.0
H51 H 0.80002 0.0388 0.55691 0.0
C52 C 0.84952 0.02796 0.49345 0.0
H53 H 0.8208 0.05161 0.16602 0.0
C54 C 0.87232 0.02722 0.39527 0.0
H55 H 0.89799 1.01977 0.4133 0.0
H56 H 0.85795 1.02107 0.58452 0.0
H57 H 0.60239 0.80657 0.08937 0.0
C58 C 0.59265 0.78423 0.1311 0.0
C59 C 0.60342 0.75267 0.08526 0.0
C60 C 0.56769 0.78745 0.2218 0.0
H61 H 0.60255 0.69915 0.1168 0.0
C62 C 0.59437 0.72382 0.15007 0.0
C63 C 0.57228 0.72559 0.25146 0.0
C64 C 0.55765 0.75761 0.28344 0.0
C65 C 0.55358 0.82248 0.24928 0.0
H66 H 0.53878 0.75924 0.35516 0.0
C67 C 0.55159 0.84749 0.15639 0.0
C68 C 0.54322 0.88162 0.18728 0.0
C69 C 0.5449 0.83231 0.37122 0.0
H70 H 0.54629 0.8146 0.44483 0.0
C71 C 0.53586 0.86558 0.40146 0.0
H72 H 0.5574 0.8408 0.06073 0.0
C73 C 0.53546 0.88999 0.31146 0.0
H74 H 0.52884 0.91562 0.33909 0.0
H75 H 0.52981 0.87269 0.49651 0.0
H76 H 0.29754 0.50639 0.30633 0.0
C77 C 0.27963 0.50987 0.23243 0.0
C78 C 0.24703 0.51769 0.2669 0.0
C79 C 0.28917 0.50688 0.10812 0.0
H80 H 0.19646 0.52765 0.20864 0.0
C81 C 0.22162 0.52104 0.17801 0.0
C82 C 0.22821 0.51704 0.05077 0.0
C83 C 0.26265 0.50999 0.01549 0.0
C84 C 0.32654 0.49926 0.08319 0.0
H85 H 0.26857 0.50763 0.91789 0.0
C86 C 0.35304 0.50573 0.17441 0.0
C87 C 0.38698 0.49478 0.15531 0.0
C88 C 0.33591 0.48306 0.97098 0.0
H89 H 0.31748 0.47722 0.89943 0.0
C90 C 0.36906 0.47287 0.95034 0.0
H91 H 0.34788 0.51984 0.25964 0.0
C92 C 0.39397 0.47815 0.04085 0.0
H93 H 0.41889 0.46867 0.02061 0.0
H94 H 0.37547 0.46007 0.86334 0.0
H95 H 0.99432 0.28901 0.31838 0.0
C96 C 0.99819 0.27213 0.23862 0.0
C97 C 0.98125 0.24134 0.2349 0.0
C98 C 1.02146 0.28018 0.14681 0.0
H99 H 0.97504 0.19313 0.1458 0.0
C100 C 0.98702 0.21749 0.13876 0.0
C101 C 1.00922 0.22326 0.04067 0.0
C102 C 0.02696 0.25513 0.04662 0.0
C103 C 0.04227 0.31261 0.16915 0.0
H104 H 0.04476 0.2603 0.97427 0.0
C105 C 0.03089 0.34186 0.24248 0.0
C106 C 0.05342 0.36883 0.28052 0.0
C107 C 0.0759 0.3126 0.13057 0.0
H108 H 0.08617 0.29142 0.07757 0.0
C109 C 0.09769 0.33886 0.16574 0.0
H110 H 1.00505 0.34334 0.27285 0.0
C111 C 0.08685 0.36615 0.24014 0.0
H112 H 0.10497 0.38562 0.26541 0.0
H113 H 0.12366 0.33781 0.13637 0.0
H114 H 0.26881 1.00989 0.27802 0.0
C115 C 0.28633 1.01373 0.20355 0.0
C116 C 0.31651 0.99652 0.20721 0.0
C117 C 0.27984 0.03701 0.11226 0.0
H118 H 0.36578 0.99099 0.13931 0.0
C119 C 0.34189 1.00264 0.12182 0.0
C120 C 0.3378 1.02459 0.02353 0.0
C121 C 0.30596 0.04212 0.0203 0.0
C122 C 0.24731 0.05755 0.126 0.0
H123 H 0.30163 0.05961 0.94777 0.0
C124 C 0.21836 0.04664 0.19563 0.0
C125 C 0.19035 0.06831 0.22239 0.0
C126 C 0.24648 0.09031 0.08206 0.0
H127 H 0.26752 0.1004 0.03214 0.0
C128 C 0.2194 0.11161 0.10802 0.0
H129 H 0.21727 1.02141 0.2293 0.0
C130 C 0.19203 0.10099 0.17742 0.0
H131 H 0.17238 0.11905 0.1986 0.0
H132 H 0.22001 0.1371 0.07616 0.0
H133 H 0.56848 0.28872 0.20012 0.0
C134 C 0.55534 0.30867 0.15458 0.0
C135 C 0.5721 0.33925 0.13712 0.0
C136 C 0.52274 0.3031 0.10627 0.0
H137 H 0.56871 0.38933 0.06914 0.0
C138 C 0.55573 0.36547 0.07853 0.0
C139 C 0.52349 0.36176 0.0295 0.0
C140 C 0.50699 0.33008 0.0417 0.0
C141 C 0.50779 0.26781 0.10903 0.0
H142 H 0.48224 0.32651 1.0013 0.0
C143 C 0.51188 0.24556 0.21058 0.0
C144 C 0.4997 0.21144 0.20268 0.0
C145 C 0.49172 0.25496 1.00128 0.0
H146 H 0.48883 0.27027 0.92108 0.0
C147 C 0.48077 0.22168 0.99158 0.0
H148 H 0.52401 0.25485 0.29511 0.0
C149 C 0.48493 0.20022 0.08946 0.0
H150 H 0.47682 0.17434 0.07473 0.0
H151 H 0.46935 0.21226 0.90599 0.0
Tb152 Tb 0.0547 0.03164 0.84992 0.0
C153 C 0.97074 0.97134 0.50449 0.0
C154 C 0.98968 0.96825 0.29221 0.0
C155 C 0.95936 0.92106 0.37429 0.0
C156 C 0.98634 0.98607 0.40703 0.0
C157 C 0.95664 0.93871 0.48894 0.0
C158 C 0.97622 0.93568 0.27632 0.0
C159 C 0.93985 0.94251 0.70269 0.0
N160 N 0.97058 0.98841 0.61578 0.0
C161 C 0.95472 0.97442 0.71399 0.0
C162 C 0.94091 0.92448 0.58978 0.0
Tb163 Tb 0.99408 0.04198 0.6209 0.0
N164 N 0.99867 1.01775 0.42479 0.0
C165 C 1.00992 0.03466 0.32485 0.0
C166 C 1.00676 0.9837 0.19723 0.0
C167 C 1.01615 1.01736 0.21339 0.0
H168 H 0.95314 0.98722 0.8021 0.0
H169 H 0.02819 0.03029 0.14104 0.0
H170 H 0.97862 0.92168 0.18868 0.0
H171 H 0.92767 0.93181 0.78166 0.0
H172 H 1.01638 0.06113 0.33373 0.0
H173 H 1.01449 0.13027 0.18023 0.0
H174 H 1.01113 0.97044 0.10932 0.0
H175 H 0.13362 1.00936 0.78416 0.0
H176 H 1.00785 0.07861 0.05479 0.0
H177 H 0.18937 0.03701 0.77686 0.0
H178 H 0.94903 0.8959 0.36115 0.0
H179 H 0.06636 0.16416 0.1668 0.0
H180 H 0.12313 0.17196 0.07229 0.0
H181 H 0.92977 0.89956 0.58173 0.0
H182 H 0.1698 0.14811 0.94968 0.0
N183 N 0.05597 0.08135 0.96793 0.0
C184 C 0.03096 0.0922 0.0466 0.0
C185 C 0.06385 0.14095 0.11143 0.0
C186 C 0.08959 0.12978 0.0326 0.0
C187 C 0.03456 0.1219 0.11921 0.0
C188 C 0.08518 0.09921 0.96307 0.0
H189 H 0.19547 0.09691 0.84438 0.0
N190 N 0.10806 0.05405 0.84432 0.0
C191 C 0.16765 0.05119 0.80835 0.0
C192 C 0.11179 0.08547 0.8965 0.0
C193 C 0.1361 0.03568 0.81219 0.0
C194 C 0.17096 0.085 0.84638 0.0
C195 C 0.14316 0.10214 0.89611 0.0
O196 O 0.07972 0.02714 0.02078 0.0
O197 O 1.0219 1.00412 0.71755 0.0
O198 O 0.96677 0.0497 0.79728 0.0
O199 O 1.0036 1.02689 0.9378 0.0
O200 O 0.07159 0.98992 0.72533 0.0
O201 O 0.05632 0.98427 0.93352 0.0
O202 O 0.94155 0.04697 0.63512 0.0
O203 O 1.01967 0.06785 0.77663 0.0
O204 O 0.08346 0.0445 0.68186 0.0
O205 O 0.04368 0.0455 0.52448 0.0
O206 O 1.01564 0.09334 0.6187 0.0
O207 O 0.96913 0.07314 0.49805 0.0
C208 C 0.04325 0.9829 0.67177 0.0
C209 C 0.10909 0.97563 0.03008 0.0
C210 C 0.13841 0.92156 0.03026 0.0
C211 C 0.10846 0.94033 0.02312 0.0
C212 C 0.16925 0.93875 0.04009 0.0
C213 C 0.14018 0.9922 0.04733 0.0
C214 C 0.17003 0.97386 0.04845 0.0
C215 C 0.97322 0.03861 0.90871 0.0
C216 C 0.07731 0.99469 0.01869 0.0
C217 C 0.14629 0.13437 0.95289 0.0
C218 C 0.11973 0.14794 0.02283 0.0
C219 C 0.02631 0.09652 0.7316 0.0
C220 C 0.92283 0.10159 0.59065 0.0
C221 C 0.93353 0.13231 0.54456 0.0
C222 C 0.91655 0.16225 0.57521 0.0
C223 C 0.88855 0.16172 0.65319 0.0
C224 C 0.89484 0.10127 0.66978 0.0
C225 C 0.87795 0.13124 0.70125 0.0
C226 C 0.07543 0.0467 0.56322 0.0
C227 C 0.9404 0.07011 0.55352 0.0
H228 H 0.08434 0.92756 0.01759 0.0
H229 H 0.19265 0.92502 0.04516 0.0
H230 H 0.1416 1.01937 0.05776 0.0
H231 H 0.19388 0.98687 0.05748 0.0
H232 H 0.95468 0.13304 0.4816 0.0
H233 H 0.87488 0.18465 0.67584 0.0
H234 H 0.88591 0.07789 0.70659 0.0
H235 H 0.85633 0.13075 0.76173 0.0
Tb236 Tb 0.52726 0.07639 0.839 0.0
C237 C 0.58533 1.00183 0.46142 0.0
C238 C 0.59695 0.03919 0.29483 0.0
C239 C 0.63649 0.99507 0.33855 0.0
C240 C 0.57547 0.02799 0.38946 0.0
C241 C 0.61584 0.98473 0.43508 0.0
C242 C 0.62732 1.0226 0.26983 0.0
C243 C 0.60442 0.94879 0.60362 0.0
N244 N 0.56555 0.99352 0.55829 0.0
C245 C 0.57468 0.96641 0.62678 0.0
C246 C 0.62523 0.9581 0.50792 0.0
Tb247 Tb 0.51514 1.02341 0.58109 0.0
N248 N 0.5451 0.04257 0.41163 0.0
C249 C 0.53405 0.066 0.33068 0.0
C250 C 0.58758 0.06721 0.22926 0.0
C251 C 0.55589 0.08085 0.24846 0.0
H252 H 0.55826 0.95587 0.69335 0.0
H253 H 0.54733 0.10191 0.19674 0.0
H254 H 0.64384 0.03083 0.19727 0.0
H255 H 0.61086 0.92746 0.65834 0.0
H256 H 0.5082 0.07376 0.32639 0.0
H257 H 0.49078 1.00072 0.22742 0.0
H258 H 0.60415 0.07771 0.16126 0.0
H259 H 0.48606 0.14405 0.71912 0.0
H260 H 0.53079 1.0265 0.09453 0.0
H261 H 0.43327 0.17271 0.74409 0.0
H262 H 0.66002 0.98241 0.3182 0.0
H263 H 0.4348 1.02667 0.25865 0.0
H264 H 0.396 0.07365 0.21361 0.0
H265 H 0.64834 0.9444 0.49042 0.0
H266 H 0.38146 0.1215 0.08703 0.0
N267 N 0.49536 0.05828 1.00562 0.0
C268 C 0.50525 0.03465 0.08764 0.0
C269 C 0.45165 0.03603 0.18911 0.0
C270 C 0.44319 0.06369 0.11997 0.0
C271 C 0.48288 1.02127 0.17172 0.0
C272 C 0.46535 0.07378 0.02549 0.0
H273 H 0.3945 0.15759 0.91051 0.0
N274 N 0.47701 0.10692 0.85476 0.0
C275 C 0.43904 0.15171 0.80149 0.0
C276 C 0.45648 0.09965 0.95075 0.0
C277 C 0.46886 0.13382 0.7837 0.0
C278 C 0.41751 0.14348 0.89643 0.0
C279 C 0.42614 0.11745 0.97323 0.0
O280 O 0.53097 0.12819 0.88131 0.0
O281 O 0.55091 0.05887 0.66628 0.0
O282 O 0.51561 0.99312 0.75113 0.0
O283 O 0.5449 1.02628 0.89503 0.0
O284 O 0.58023 0.06077 0.82267 0.0
O285 O 0.56129 0.0935 0.97695 0.0
O286 O 0.51368 0.97239 0.52579 0.0
O287 O 0.49206 0.04012 0.75572 0.0
O288 O 0.52937 0.10622 0.66749 0.0
O289 O 0.49778 0.07382 0.52926 0.0
O290 O 0.46189 0.03789 0.60222 0.0
O291 O 0.4778 1.00616 0.45408 0.0
C292 C 0.5809 0.05367 0.70506 0.0
C293 C 0.58569 0.14593 0.92315 0.0
C294 C 0.64625 0.15286 0.90435 0.0
C295 C 0.61822 0.13342 0.93536 0.0
C296 C 0.64159 0.18513 0.85919 0.0
C297 C 0.58127 0.17835 0.87754 0.0
C298 C 0.60909 0.19766 0.8448 0.0
C299 C 0.53319 0.99641 0.85596 0.0
C300 C 0.55637 0.12505 0.95419 0.0
C301 C 0.40483 0.10827 0.06956 0.0
C302 C 0.41309 0.08108 0.14155 0.0
C303 C 0.4617 0.04475 0.72 0.0
C304 C 0.45898 0.9515 0.50815 0.0
C305 C 0.42533 0.95837 0.48328 0.0
C306 C 0.3998 0.93673 0.5217 0.0
C307 C 0.40788 0.90778 0.58519 0.0
C308 C 0.46692 0.92246 0.57336 0.0
C309 C 0.44148 0.90088 0.61196 0.0
C310 C 0.51133 0.10319 0.56389 0.0
C311 C 0.48555 0.97472 0.46775 0.0
H312 H 0.62191 0.1089 0.97388 0.0
H313 H 0.663 0.20077 0.83783 0.0
H314 H 0.55631 0.18872 0.86703 0.0
H315 H 0.60547 0.22261 0.81023 0.0
H316 H 0.41889 0.98022 0.43076 0.0
H317 H 0.38837 0.8905 0.61241 0.0
H318 H 0.49275 0.9164 0.59469 0.0
H319 H 0.44788 0.87858 0.66139 0.0
Tb320 Tb 0.56908 0.51993 0.56097 0.0
C321 C 0.43953 0.56073 0.85925 0.0
C322 C 0.39693 0.56205 0.69896 0.0
C323 C 0.38025 0.56054 0.91446 0.0
C324 C 0.4311 0.56101 0.73509 0.0
C325 C 0.41413 0.56297 0.95027 0.0
C326 C 0.37165 0.55963 0.78863 0.0
C327 C 0.457 0.57723 0.10199 0.0
N328 N 0.47246 0.56419 0.89042 0.0
C329 C 0.48134 0.5735 0.00954 0.0
C330 C 0.42332 0.57099 0.073 0.0
Tb331 Tb 0.51007 0.56638 0.73127 0.0
N332 N 0.45619 0.56574 0.65232 0.0
C333 C 0.4483 0.57598 0.53588 0.0
C334 C 0.38912 0.56886 0.57616 0.0
C335 C 0.41489 0.57699 0.49549 0.0
H336 H 0.50699 0.58003 0.03311 0.0
H337 H 0.4091 0.58376 0.40159 0.0
H338 H 0.34535 0.5598 0.76233 0.0
H339 H 0.46426 0.58489 0.19569 0.0
H340 H 0.46746 0.58205 0.47018 0.0
H341 H 0.59895 0.38963 0.6388 0.0
H342 H 0.36325 0.56996 0.54487 0.0
H343 H 0.61426 0.59041 0.61118 0.0
H344 H 0.56643 0.43636 0.55409 0.0
H345 H 0.67055 0.60598 0.68556 0.0
H346 H 0.36047 0.56158 0.98315 0.0
H347 H 0.6527 0.40145 0.74836 0.0
H348 H 0.69719 0.44372 0.8132 0.0
H349 H 0.40452 0.57385 0.14497 0.0
H350 H 0.71748 0.50238 0.81944 0.0
N351 N 0.59844 0.47467 0.63248 0.0
C352 C 0.58904 0.44188 0.60692 0.0
C353 C 0.63789 0.4221 0.71508 0.0
C354 C 0.64943 0.45534 0.72783 0.0
C355 C 0.60763 0.41533 0.65326 0.0
C356 C 0.62887 0.48132 0.68472 0.0
H357 H 0.70819 0.56279 0.76824 0.0
N358 N 0.61948 0.5381 0.6456 0.0
C359 C 0.66237 0.57999 0.68682 0.0
C360 C 0.64014 0.5141 0.68869 0.0
C361 C 0.63032 0.57085 0.64349 0.0
C362 C 0.68351 0.55557 0.73357 0.0
C363 C 0.67248 0.52216 0.7354 0.0
O364 O 0.57373 0.48803 0.40164 0.0
O365 O 0.51749 0.53924 0.5537 0.0
O366 O 0.49989 0.5135 0.78511 0.0
O367 O 0.54716 0.48596 0.69938 0.0
O368 O 0.52557 0.49143 0.48782 0.0
O369 O 0.6019 0.53388 0.41843 0.0
O370 O 0.54041 0.60646 0.79928 0.0
O371 O 0.56303 0.55207 0.72362 0.0
O372 O 0.56867 0.57168 0.48699 0.0
O373 O 0.51906 0.59423 0.56121 0.0
O374 O 0.53963 0.54799 0.88935 0.0
O375 O 0.4878 0.61363 0.77054 0.0
C376 C 0.5021 0.51306 0.50789 0.0
C377 C 0.63098 0.48487 0.34691 0.0
C378 C 0.65725 0.43009 0.30852 0.0
C379 C 0.62901 0.45111 0.30548 0.0
C380 C 0.68827 0.44318 0.34852 0.0
C381 C 0.66232 0.4978 0.38738 0.0
C382 C 0.69075 0.47709 0.38737 0.0
C383 C 0.5192 0.48613 0.76742 0.0
C384 C 0.59953 0.50453 0.36204 0.0
C385 C 0.69274 0.49663 0.78185 0.0
C386 C 0.68115 0.46327 0.77871 0.0
C387 C 0.56818 0.54365 0.83557 0.0
C388 C 0.52411 0.65921 0.72814 0.0
C389 C 0.55638 0.67314 0.73907 0.0
C390 C 0.56494 0.70326 0.68148 0.0
C391 C 0.54043 0.71832 0.60738 0.0
C392 C 0.49973 0.67551 0.65802 0.0
C393 C 0.508 0.70483 0.59766 0.0
C394 C 0.54645 0.59651 0.49325 0.0
C395 C 0.5164 0.62828 0.79429 0.0
H396 H 0.60497 0.44061 0.27542 0.0
H397 H 0.71022 0.42719 0.35138 0.0
H398 H 0.66474 0.52355 0.42255 0.0
H399 H 0.71458 0.48717 0.4204 0.0
H400 H 0.57401 0.66126 0.80008 0.0
H401 H 0.54577 0.74127 0.56059 0.0
H402 H 0.47444 0.66553 0.64885 0.0
H403 H 0.48922 0.71716 0.54272 0.0
Tb404 Tb 0.03918 0.56522 0.63262 0.0
C405 C 0.06152 0.43967 0.89814 0.0
C406 C 0.0405 0.39421 0.76386 0.0
C407 C 0.08859 0.38497 0.89752 0.0
C408 C 0.03978 0.42825 0.80586 0.0
C409 C 0.08582 0.41807 0.94681 0.0
C410 C 0.06567 0.37291 0.80732 0.0
C411 C 0.10005 0.46219 0.09846 0.0
N412 N 0.0576 0.47163 0.94464 0.0
C413 C 0.0753 0.48255 0.048 0.0
C414 C 0.10589 0.43011 0.04569 0.0
Tb415 Tb 1.01863 0.5039 0.84597 0.0
N416 N 1.01606 0.44974 0.76523 0.0
C417 C 0.9899 0.4376 0.69381 0.0
C418 C 1.01515 0.38233 0.68328 0.0
C419 C 0.98934 0.40396 0.65036 0.0
H420 H 0.07135 0.50754 0.08803 0.0
H421 H 0.96907 0.3948 0.5909 0.0
H422 H 0.06709 0.34686 0.77421 0.0
H423 H 0.11481 0.47137 0.1772 0.0
H424 H 0.96965 0.45372 0.66713 0.0
H425 H 0.07607 0.67707 0.9007 0.0
H426 H 1.01472 0.35634 0.6491 0.0
H427 H 1.00263 0.56167 0.34851 0.0
H428 H 0.0796 0.61763 0.8315 0.0
H429 H 0.96447 0.59668 0.23085 0.0
H430 H 0.10762 0.36819 0.93132 0.0
H431 H 0.03208 0.71356 0.81603 0.0
H432 H 0.98569 0.72094 0.66149 0.0
H433 H 0.12534 0.41455 0.08398 0.0
H434 H 0.95463 0.69856 0.47895 0.0
N435 N 0.03681 0.61936 0.71226 0.0
C436 C 0.06001 0.6329 0.79389 0.0
C437 C 0.03335 0.68731 0.78536 0.0
C438 C 1.01157 0.67413 0.6936 0.0
C439 C 0.05826 0.66682 0.83316 0.0
C440 C 1.01449 0.63982 0.65627 0.0
H441 H 0.94649 0.65205 0.31756 0.0
N442 N 1.00503 0.59582 0.50682 0.0
C443 C 0.97334 0.60547 0.32138 0.0
C444 C 0.99781 0.62755 0.55066 0.0
C445 C 0.99494 0.58552 0.38956 0.0
C446 C 0.96336 0.63681 0.37038 0.0
C447 C 0.9767 0.64884 0.48372 0.0
O448 O 0.08357 0.55005 0.54096 0.0
O449 O 0.03738 0.5113 0.66195 0.0
O450 O 0.074 0.50366 0.81645 0.0
O451 O 0.08096 0.55936 0.77272 0.0
O452 O 0.02728 0.5256 0.48794 0.0
O453 O 0.06651 0.60089 0.53395 0.0
O454 O 0.96737 0.49505 0.87545 0.0
O455 O 1.01874 0.55804 0.8166 0.0
O456 O 0.98368 0.56108 0.61656 0.0
O457 O 0.97394 0.51197 0.7221 0.0
O458 O 0.0285 0.54424 0.99055 0.0
O459 O 1.00325 0.48936 0.02311 0.0
C460 C 0.0292 0.49942 0.55439 0.0
C461 C 0.12414 0.59294 0.57161 0.0
C462 C 0.1814 0.57947 0.63259 0.0
C463 C 0.1509 0.57056 0.57376 0.0
C464 C 0.18439 0.61117 0.69387 0.0
C465 C 0.1281 0.62529 0.62755 0.0
C466 C 0.15779 0.63398 0.69088 0.0
C467 C 0.09371 0.53057 0.81204 0.0
C468 C 0.09183 0.58092 0.51858 0.0
C469 C 0.97111 0.682 0.52826 0.0
C470 C 0.98872 0.69471 0.63251 0.0
C471 C 1.02539 0.57031 0.92489 0.0
C472 C 0.95724 0.45077 0.00708 0.0
C473 C 0.92221 0.44838 0.00817 0.0
C474 C 0.90594 0.41737 0.02466 0.0
C475 C 0.92545 0.3883 0.03725 0.0
C476 C 0.97642 0.42157 0.02133 0.0
C477 C 0.96054 0.39044 0.0347 0.0
C478 C 0.9633 0.53655 0.65033 0.0
C479 C 0.9725 0.48391 0.98555 0.0
H480 H 0.14816 0.54651 0.52379 0.0
H481 H 0.20772 0.61879 0.73887 0.0
H482 H 0.10828 0.64376 0.62353 0.0
H483 H 0.16044 0.65872 0.73541 0.0
H484 H 0.90764 0.47126 1.00132 0.0
H485 H 0.91359 0.36421 0.05219 0.0
H486 H 1.00352 0.42273 0.02366 0.0
H487 H 0.97551 0.36806 0.04591 0.0
C488 C 0.12747 0.07171 0.27764 0.0
C489 C 0.16 0.05887 0.30175 0.0
H490 H 0.07618 0.07845 0.33748 0.0
C491 C 0.16326 0.03969 0.4084 0.0
H492 H 0.12316 0.08585 0.19561 0.0
C493 C 0.13585 0.03518 0.48999 0.0
C494 C 0.10394 0.04971 0.46961 0.0
H495 H 0.18735 0.02899 0.43151 0.0
H496 H 0.13979 1.01994 0.56919 0.0
C497 C 0.10012 0.06722 0.3593 0.0
C498 C 0.52938 0.18492 0.38945 0.0
C499 C 0.50179 0.1864 0.30694 0.0
H500 H 0.55412 0.15809 0.53455 0.0
C501 C 0.47656 0.16141 0.31822 0.0
H502 H 0.54948 0.20326 0.38496 0.0
C503 C 0.47958 0.13522 0.40177 0.0
C504 C 0.50762 0.13295 0.4806 0.0
H505 H 0.45421 0.16167 0.2608 0.0
H506 H 0.45984 0.11639 0.40378 0.0
C507 C 0.53213 0.15875 0.47526 0.0
C508 C 0.41139 0.49818 0.37964 0.0
C509 C 0.4157 0.50059 0.2501 0.0
H510 H 0.43482 0.49852 0.56141 0.0
C511 C 0.44896 0.50663 0.20999 0.0
H512 H 0.38686 0.49222 0.41605 0.0
C513 C 0.47585 0.51265 0.29386 0.0
C514 C 0.47146 0.51127 0.42281 0.0
H515 H 0.45442 0.50744 0.11214 0.0
H516 H 0.50058 0.51765 0.25694 0.0
C517 C 0.43902 0.50208 0.46373 0.0
C518 C 1.0159 0.4201 0.33863 0.0
C519 C 0.04417 0.39997 0.36239 0.0
H520 H 0.98951 0.46676 0.37747 0.0
C521 C 0.06648 0.41247 0.45662 0.0
H522 H 0.9982 0.41205 0.2673 0.0
C523 C 0.06127 0.44375 0.52156 0.0
C524 C 0.03343 0.46412 0.4957 0.0
H525 H 0.08862 0.39816 0.47933 0.0
H526 H 0.07959 0.45236 0.59024 0.0
C527 C 1.011 0.45174 0.40216 0.0
C528 C 0.89418 0.06414 0.09825 0.0
C529 C 0.88902 0.03634 0.17384 0.0
H530 H 0.92464 0.08701 0.95872 0.0
C531 C 0.91143 1.00899 0.15749 0.0
H532 H 0.8778 0.08578 0.10738 0.0
C533 C 0.93802 1.00959 0.07105 0.0
C534 C 0.94439 0.038 1.00073 0.0
H535 H 0.90822 0.98674 0.21128 0.0
H536 H 0.95306 0.98725 0.0565 0.0
C537 C 0.92136 0.06495 0.0134 0.0
C538 C 0.52251 0.90777 0.9879 0.0
C539 C 0.54319 0.90931 0.09423 0.0
H540 H 0.50255 0.93366 0.83225 0.0
C541 C 0.56181 0.93922 0.11769 0.0
H542 H 0.50755 0.88543 0.96698 0.0
C543 C 0.5596 0.96667 0.0388 0.0
C544 C 0.53765 0.96593 0.93567 0.0
H545 H 0.5781 0.94149 0.19827 0.0
H546 H 0.57481 0.98879 0.06027 0.0
C547 C 0.51957 0.93566 0.91066 0.0
C548 C 0.64332 0.52095 0.04698 0.0
C549 C 0.65882 0.55251 0.07304 0.0
H550 H 0.60263 0.49344 0.95516 0.0
C551 C 0.64474 0.58055 0.01479 0.0
H552 H 0.6526 0.49881 0.09118 0.0
C553 C 0.61639 0.57741 0.93559 0.0
C554 C 0.60073 0.54604 0.91021 0.0
H555 H 0.65524 0.60543 0.03328 0.0
H556 H 0.60627 0.59986 0.89584 0.0
C557 C 0.61442 0.51791 0.96907 0.0
C558 C 0.03253 0.65076 0.14025 0.0
C559 C 1.00551 0.67103 0.10272 0.0
H560 H 0.05936 0.60373 0.11645 0.0
C561 C 0.9851 0.65728 1.00465 0.0
H562 H 0.04851 0.65943 0.21642 0.0
C563 C 0.99131 0.6252 0.94715 0.0
C564 C 1.01847 0.60522 0.98383 0.0
H565 H 0.96409 0.67154 0.97077 0.0
H566 H 0.97476 0.61604 0.87335 0.0
C567 C 0.03856 0.61843 0.0832 0.0
C568 C 0.92708 0.22047 0.31765 0.0
C569 C 0.96022 0.23143 0.33963 0.0
H570 H 0.8863 0.19038 0.38113 0.0
C571 C 0.97536 0.22609 0.4548 0.0
H572 H 0.91515 0.22421 0.22886 0.0
C573 C 0.95901 0.20657 0.54116 0.0
C574 C 0.92722 0.19278 0.51365 0.0
H575 H 1.00106 0.23403 0.47272 0.0
H576 H 0.97245 0.19957 0.62379 0.0
C577 C 0.91055 0.20139 0.40477 0.0
C578 C 0.33444 0.94168 0.28581 0.0
C579 C 0.32424 0.97497 0.31098 0.0
H580 H 0.36634 0.90185 0.34206 0.0
C581 C 0.33012 0.99012 0.4285 0.0
H582 H 0.32997 0.92972 0.19531 0.0
C583 C 0.35093 0.97425 0.51219 0.0
C584 C 0.36569 0.94325 0.4781 0.0
H585 H 0.32244 1.01587 0.44904 0.0
H586 H 0.35927 0.98822 0.59498 0.0
C587 C 0.35493 0.92566 0.37007 0.0
C588 C 0.61147 0.3505 0.31151 0.0
C589 C 0.60647 0.34613 0.18339 0.0
H590 H 0.63516 0.38092 0.45453 0.0
C591 C 0.62964 0.36049 0.10226 0.0
H592 H 0.59412 0.33951 0.37585 0.0
C593 C 0.6522 0.38503 0.1472 0.0
C594 C 0.65232 0.39432 0.27357 0.0
H595 H 0.62639 0.3571 1.00281 0.0
H596 H 0.66557 0.40009 0.08162 0.0
C597 C 0.63475 0.37441 0.35651 0.0
C598 C 0.22016 0.5089 0.47099 0.0
C599 C 0.24089 0.52796 0.39617 0.0
H600 H 0.1873 0.51034 0.62677 0.0
C601 C 0.25235 0.5597 0.43893 0.0
H602 H 0.21215 0.4838 0.44089 0.0
C603 C 0.23767 0.5751 0.54292 0.0
C604 C 0.21114 0.55878 0.60171 0.0
H605 H 0.26941 0.57418 0.38358 0.0
H606 H 0.24286 0.60158 0.56187 0.0
C607 C 0.20652 0.52393 0.57811 0.0
C608 C 0.09777 0.8375 0.04734 0.0
C609 C 0.10996 0.82911 0.16444 0.0
H610 H 0.09802 0.87462 0.90899 0.0
C611 C 0.14075 0.84296 0.2056 0.0
H612 H 0.07451 0.8266 0.0116 0.0
C613 C 0.15368 0.8712 0.1489 0.0
C614 C 0.13639 0.88479 0.04861 0.0
H615 H 0.15104 0.83629 0.29442 0.0
H616 H 0.17395 0.88498 0.19516 0.0
C617 C 0.11088 0.86548 0.98968 0.0
C618 C 0.70803 0.09001 0.99939 0.0
C619 C 0.72014 0.10707 0.10637 0.0
H620 H 0.67535 0.09266 0.84239 0.0
C621 C 0.71643 0.14205 0.12051 0.0
H622 H 0.71071 0.06294 0.98782 0.0
C623 C 0.69629 0.15904 0.03777 0.0
C624 C 0.67951 0.14088 0.94212 0.0
H625 H 0.72567 0.15541 0.20323 0.0
H626 H 0.69004 0.18512 0.05947 0.0
C627 C 0.68799 0.10702 0.9163 0.0
C628 C 0.62998 0.71889 0.9093 0.0
C629 C 0.61555 0.74921 0.95435 0.0
H630 H 0.62731 0.68007 0.76695 0.0
C631 C 0.6017 0.7706 0.86613 0.0
H632 H 0.64393 0.70299 0.97028 0.0
C633 C 0.59178 0.75719 0.75079 0.0
C634 C 0.59538 0.72246 0.72553 0.0
H635 H 0.59255 0.7955 0.89134 0.0
H636 H 0.57557 0.77253 0.69566 0.0
C637 C 0.62049 0.7058 0.79213 0.0
C638 C 0.83106 0.42071 0.2241 0.0
C639 C 0.81575 0.44885 0.17274 0.0
H640 H 0.87342 0.38793 0.21444 0.0
C641 C 0.82158 0.45522 0.04771 0.0
H642 H 0.82628 0.41485 0.31969 0.0
C643 C 0.84841 0.43946 0.98633 0.0
C644 C 0.8694 0.41761 0.05063 0.0
H645 H 0.80957 0.47629 1.00484 0.0
H646 H 0.85587 0.44842 0.8969 0.0
C647 C 0.85822 0.40531 0.1636 0.0
C648 C 0.04384 0.18632 0.88012 0.0
C649 C 1.01333 0.1941 0.94197 0.0
H650 H 0.0719 0.15033 0.76516 0.0
C651 C 0.98656 0.17078 0.91865 0.0
H652 H 0.06515 0.20315 0.8916 0.0
C653 C 0.99104 0.13977 0.85225 0.0
C654 C 1.02219 0.13065 0.80053 0.0
H655 H 0.9617 0.17591 0.95474 0.0
H656 H 0.96989 0.12263 0.84221 0.0
C657 C 0.0479 0.15549 0.80865 0.0
C658 C 0.37136 0.05597 0.85307 0.0
C659 C 0.3681 0.02896 0.93424 0.0
H660 H 0.40228 0.08155 0.72075 0.0
C661 C 0.39575 1.00603 0.93299 0.0
H662 H 0.35133 0.07412 0.84584 0.0
C663 C 0.42587 1.01181 0.8682 0.0
C664 C 0.42963 0.03967 0.79386 0.0
H665 H 0.39485 0.98285 0.98158 0.0
H666 H 0.44618 0.99387 0.87467 0.0
C667 C 0.40108 0.06057 0.78172 0.0
C668 C 0.514 0.39179 0.83 0.0
C669 C 0.51052 0.39146 0.95967 0.0
H670 H 0.51854 0.42147 0.66831 0.0
C671 C 0.50526 0.42286 0.02312 0.0
H672 H 0.51917 0.36855 0.77796 0.0
C673 C 0.50529 0.4535 0.96006 0.0
C674 C 0.51122 0.45386 0.8316 0.0
H675 H 0.50366 0.42393 0.12335 0.0
H676 H 0.50332 0.47704 0.0134 0.0
C677 C 0.51435 0.42239 0.76731 0.0
C678 C 0.17965 0.49317 0.91479 0.0
C679 C 0.19788 0.52131 0.96355 0.0
H680 H 0.13393 0.4738 0.82977 0.0
C681 C 0.18171 0.55294 0.95555 0.0
H682 H 0.19008 0.4682 0.92235 0.0
C683 C 0.14898 0.55624 0.90297 0.0
C684 C 0.13036 0.52797 0.85772 0.0
H685 H 0.19392 0.57527 0.99522 0.0
H686 H 0.13772 0.581 0.90238 0.0
C687 C 0.14684 0.49643 0.86309 0.0
C688 C 0.04934 0.91349 0.41495 0.0
C689 C 0.03825 0.88356 0.47067 0.0
H690 H 0.06067 0.96651 0.43335 0.0
C691 C 1.02557 0.88773 0.59263 0.0
H692 H 0.05886 0.91236 0.321 0.0
C693 C 1.0254 0.92004 0.65628 0.0
C694 C 0.03775 0.9494 0.60038 0.0
H695 H 1.01727 0.86587 0.64115 0.0
H696 H 1.01667 0.92183 0.75117 0.0
C697 C 0.05016 0.94511 0.47927 0.0
C698 C 0.67194 0.03844 0.58564 0.0
C699 C 0.67637 0.06386 0.49887 0.0
H700 H 0.63914 1.01561 0.71877 0.0
C701 C 0.64941 0.08727 0.49065 0.0
H702 H 0.69154 1.02009 0.59861 0.0
C703 C 0.6187 0.08344 0.55385 0.0
C704 C 0.61363 0.05693 0.63383 0.0
H705 H 0.65155 0.10896 0.4337 0.0
H706 H 0.59887 0.10157 0.54056 0.0
C707 C 0.64146 0.03558 0.6538 0.0
C708 C 0.59136 0.672 0.35257 0.0
C709 C 0.56473 0.69299 0.31621 0.0
H710 H 0.60681 0.62577 0.43288 0.0
C711 C 0.5318 0.68058 0.33116 0.0
H712 H 0.61713 0.68011 0.34084 0.0
C713 C 0.52583 0.64902 0.38485 0.0
C714 C 0.55256 0.62853 0.42406 0.0
H715 H 0.51059 0.69529 0.30153 0.0
H716 H 0.50011 0.64081 0.3969 0.0
C717 C 0.58543 0.64046 0.40479 0.0
C718 C 0.87301 0.50547 0.57011 0.0
C719 C 0.86042 0.52954 0.48823 0.0
H720 H 0.91379 0.48835 0.68273 0.0
C721 C 0.88131 0.55765 0.46879 0.0
H722 H 0.85822 0.48321 0.58758 0.0
C723 C 0.91382 0.56061 0.52437 0.0
C724 C 0.92711 0.53539 0.60015 0.0
H725 H 0.87331 0.57655 0.40541 0.0
H726 H 0.92888 0.58244 0.50519 0.0
C727 C 0.90541 0.50827 0.62439 0.0
loop_
_geom_bond_atom_site_label_1
_geom_bond_atom_site_label_2
_geom_bond_distance
_geom_bond_site_symmetry_2
_ccdc_geom_bond_type
H0 C1 0.949 . S
C1 H0 0.949 . S
C1 C2 1.395 . S
C1 C3 1.391 . S
C2 C1 1.395 . S
C2 C5 1.390 . S
C3 C1 1.391 . S
C3 C7 1.387 . S
C3 C8 1.491 . S
H4 C5 0.950 . S
C5 C2 1.390 . S
C5 H4 0.950 . S
C5 C6 1.378 . S
C6 C5 1.378 . S
C6 C7 1.409 . S
C7 C3 1.387 . S
C7 C6 1.409 . S
C7 H9 0.951 . S
C8 C3 1.491 . S
C8 C10 1.382 . S
C8 C12 1.404 . S
H9 C7 0.951 . S
C10 C8 1.382 . S
C10 C11 1.390 . S
C10 H15 0.949 . S
C11 C10 1.390 . S
C11 C16 1.399 . S
C12 C8 1.404 . S
C12 H13 0.950 . S
C12 C14 1.375 . S
H13 C12 0.950 . S
C14 C12 1.375 . S
C14 C16 1.382 . S
C14 H18 0.950 . S
H15 C10 0.949 . S
C16 C11 1.399 . S
C16 C14 1.382 . S
C16 H17 0.952 . S
H17 C16 0.952 . S
H18 C14 0.950 . S
H19 C20 0.949 . S
C20 H19 0.949 . S
C20 C21 1.395 . S
C20 C22 1.391 . S
C21 C20 1.395 . S
C21 C24 1.390 . S
C22 C20 1.391 . S
C22 C26 1.387 . S
C22 C27 1.491 . S
H23 C24 0.950 . S
C24 C21 1.390 . S
C24 H23 0.950 . S
C24 C25 1.378 . S
C25 C24 1.378 . S
C25 C26 1.409 . S
C26 C22 1.387 . S
C26 C25 1.409 . S
C26 H28 0.951 . S
C27 C22 1.491 . S
C27 C29 1.382 . S
C27 C31 1.404 . S
H28 C26 0.951 . S
C29 C27 1.382 . S
C29 C30 1.390 . S
C29 H34 0.949 . S
C30 C29 1.390 . S
C30 C35 1.399 . S
C31 C27 1.404 . S
C31 H32 0.950 . S
C31 C33 1.375 . S
H32 C31 0.950 . S
C33 C31 1.375 . S
C33 C35 1.382 . S
C33 H37 0.950 . S
H34 C29 0.949 . S
C35 C30 1.399 . S
C35 C33 1.382 . S
C35 H36 0.952 . S
H36 C35 0.952 . S
H37 C33 0.950 . S
H38 C39 0.949 . S
C39 H38 0.949 . S
C39 C40 1.395 . S
C39 C41 1.391 . S
C40 C39 1.395 . S
C40 C43 1.390 . S
C41 C39 1.391 . S
C41 C45 1.387 . S
C41 C46 1.491 . S
H42 C43 0.950 . S
C43 C40 1.390 . S
C43 H42 0.950 . S
C43 C44 1.378 . S
C44 C43 1.378 . S
C44 C45 1.409 . S
C45 C41 1.387 . S
C45 C44 1.409 . S
C45 H47 0.951 . S
C46 C41 1.491 . S
C46 C48 1.382 . S
C46 C50 1.404 . S
H47 C45 0.951 . S
C48 C46 1.382 . S
C48 C49 1.390 . S
C48 H53 0.949 . S
C49 C48 1.390 . S
C49 C54 1.399 . S
C50 C46 1.404 . S
C50 H51 0.950 . S
C50 C52 1.375 . S
H51 C50 0.950 . S
C52 C50 1.375 . S
C52 C54 1.382 . S
C52 H56 0.950 . S
H53 C48 0.949 . S
C54 C49 1.399 . S
C54 C52 1.382 . S
C54 H55 0.952 . S
H55 C54 0.952 . S
H56 C52 0.950 . S
H57 C58 0.949 . S
C58 H57 0.949 . S
C58 C59 1.395 . S
C58 C60 1.391 . S
C59 C58 1.395 . S
C59 C62 1.390 . S
C60 C58 1.391 . S
C60 C64 1.387 . S
C60 C65 1.491 . S
H61 C62 0.950 . S
C62 C59 1.390 . S
C62 H61 0.950 . S
C62 C63 1.378 . S
C63 C62 1.378 . S
C63 C64 1.409 . S
C64 C60 1.387 . S
C64 C63 1.409 . S
C64 H66 0.951 . S
C65 C60 1.491 . S
C65 C67 1.382 . S
C65 C69 1.404 . S
H66 C64 0.951 . S
C67 C65 1.382 . S
C67 C68 1.390 . S
C67 H72 0.949 . S
C68 C67 1.390 . S
C68 C73 1.399 . S
C69 C65 1.404 . S
C69 H70 0.950 . S
C69 C71 1.375 . S
H70 C69 0.950 . S
C71 C69 1.375 . S
C71 C73 1.382 . S
C71 H75 0.950 . S
H72 C67 0.949 . S
C73 C68 1.399 . S
C73 C71 1.382 . S
C73 H74 0.952 . S
H74 C73 0.952 . S
H75 C71 0.950 . S
H76 C77 0.949 . S
C77 H76 0.949 . S
C77 C78 1.395 . S
C77 C79 1.391 1_554 S
C78 C77 1.395 . S
C78 C81 1.390 1_554 S
C79 C77 1.391 1_556 S
C79 C83 1.387 . S
C79 C84 1.491 . S
H80 C81 0.950 . S
C81 C78 1.390 1_556 S
C81 H80 0.950 . S
C81 C82 1.378 . S
C82 C81 1.378 . S
C82 C83 1.409 . S
C83 C79 1.387 . S
C83 C82 1.409 . S
C83 H85 0.951 . S
C84 C79 1.491 . S
C84 C86 1.382 1_556 S
C84 C88 1.404 . S
H85 C83 0.951 . S
C86 C84 1.382 1_554 S
C86 C87 1.390 . S
C86 H91 0.949 . S
C87 C86 1.390 . S
C87 C92 1.399 1_554 S
C88 C84 1.404 . S
C88 H89 0.950 . S
C88 C90 1.375 . S
H89 C88 0.950 . S
C90 C88 1.375 . S
C90 C92 1.382 . S
C90 H94 0.950 . S
H91 C86 0.949 . S
C92 C87 1.399 1_556 S
C92 C90 1.382 . S
C92 H93 0.952 . S
H93 C92 0.952 . S
H94 C90 0.950 . S
H95 C96 0.949 . S
C96 H95 0.949 . S
C96 C97 1.395 . S
C96 C98 1.391 1_554 S
C97 C96 1.395 . S
C97 C100 1.390 1_554 S
C98 C96 1.391 1_556 S
C98 C102 1.387 . S
C98 C103 1.491 . S
H99 C100 0.950 . S
C100 C97 1.390 1_556 S
C100 H99 0.950 . S
C100 C101 1.378 . S
C101 C100 1.378 . S
C101 C102 1.409 . S
C102 C98 1.387 . S
C102 C101 1.409 . S
C102 H104 0.951 . S
C103 C98 1.491 . S
C103 C105 1.382 1_556 S
C103 C107 1.404 . S
H104 C102 0.951 . S
C105 C103 1.382 1_554 S
C105 C106 1.390 . S
C105 H110 0.949 . S
C106 C105 1.390 . S
C106 C111 1.399 1_554 S
C107 C103 1.404 . S
C107 H108 0.950 . S
C107 C109 1.375 . S
H108 C107 0.950 . S
C109 C107 1.375 . S
C109 C111 1.382 . S
C109 H113 0.950 1_455 S
H110 C105 0.949 . S
C111 C106 1.399 1_556 S
C111 C109 1.382 . S
C111 H112 0.952 . S
H112 C111 0.952 . S
H113 C109 0.950 1_655 S
H114 C115 0.949 . S
C115 H114 0.949 . S
C115 C116 1.395 . S
C115 C117 1.391 1_554 S
C116 C115 1.395 . S
C116 C119 1.390 1_554 S
C117 C115 1.391 1_556 S
C117 C121 1.387 . S
C117 C122 1.491 . S
H118 C119 0.950 . S
C119 C116 1.390 1_556 S
C119 H118 0.950 . S
C119 C120 1.378 . S
C120 C119 1.378 . S
C120 C121 1.409 . S
C121 C117 1.387 . S
C121 C120 1.409 . S
C121 H123 0.951 . S
C122 C117 1.491 . S
C122 C124 1.382 1_556 S
C122 C126 1.404 . S
H123 C121 0.951 . S
C124 C122 1.382 1_554 S
C124 C125 1.390 . S
C124 H129 0.949 . S
C125 C124 1.390 . S
C125 C130 1.399 1_554 S
C126 C122 1.404 . S
C126 H127 0.950 . S
C126 C128 1.375 . S
H127 C126 0.950 . S
C128 C126 1.375 . S
C128 C130 1.382 . S
C128 H132 0.950 1_545 S
H129 C124 0.949 . S
C130 C125 1.399 1_556 S
C130 C128 1.382 . S
C130 H131 0.952 . S
H131 C130 0.952 . S
H132 C128 0.950 1_565 S
H133 C134 0.949 . S
C134 H133 0.949 . S
C134 C135 1.395 . S
C134 C136 1.391 1_554 S
C135 C134 1.395 . S
C135 C138 1.390 1_554 S
C136 C134 1.391 1_556 S
C136 C140 1.387 . S
C136 C141 1.491 . S
H137 C138 0.950 . S
C138 C135 1.390 1_556 S
C138 H137 0.950 . S
C138 C139 1.378 . S
C139 C138 1.378 . S
C139 C140 1.409 . S
C140 C136 1.387 . S
C140 C139 1.409 . S
C140 H142 0.951 . S
C141 C136 1.491 . S
C141 C143 1.382 1_556 S
C141 C145 1.404 . S
H142 C140 0.951 . S
C143 C141 1.382 1_554 S
C143 C144 1.390 . S
C143 H148 0.949 . S
C144 C143 1.390 . S
C144 C149 1.399 1_554 S
C145 C141 1.404 . S
C145 H146 0.950 . S
C145 C147 1.375 . S
H146 C145 0.950 . S
C147 C145 1.375 . S
C147 C149 1.382 . S
C147 H151 0.950 . S
H148 C143 0.949 . S
C149 C144 1.399 1_556 S
C149 C147 1.382 . S
C149 H150 0.952 . S
H150 C149 0.952 . S
H151 C147 0.950 . S
Tb152 N183 2.660 1_566 S
Tb152 N190 2.600 1_565 S
Tb152 O196 2.546 . S
Tb152 O197 2.610 1_455 S
Tb152 O199 2.320 1_455 S
Tb152 O200 2.552 . S
Tb152 O201 2.413 1_556 S
Tb152 O203 2.362 1_565 S
Tb152 O204 2.421 . S
Tb152 C216 2.833 . S
C153 C156 1.431 1_545 S
C153 C157 1.414 1_545 S
C153 N160 1.359 . S
C154 C156 1.417 . S
C154 C158 1.432 . S
C154 C166 1.410 . S
C155 C157 1.444 . S
C155 C158 1.317 . S
C155 H178 0.929 . S
C156 C153 1.431 1_565 S
C156 C154 1.417 . S
C156 N164 1.360 . S
C157 C153 1.414 1_565 S
C157 C155 1.444 . S
C157 C162 1.385 1_565 S
C158 C154 1.432 . S
C158 C155 1.317 . S
C158 H170 0.930 . S
C159 C161 1.392 . S
C159 C162 1.370 . S
C159 H171 0.931 . S
N160 C153 1.359 . S
N160 C161 1.327 . S
N160 Tb163 2.600 . S
C161 C159 1.392 . S
C161 N160 1.327 . S
C161 H168 0.930 . S
C162 C157 1.385 1_545 S
C162 C159 1.370 . S
C162 H181 0.930 . S
Tb163 N160 2.600 . S
Tb163 N164 2.660 1_545 S
Tb163 O197 2.362 1_545 S
Tb163 O198 2.421 . S
Tb163 O202 2.546 . S
Tb163 O203 2.610 1_655 S
Tb163 O205 2.320 1_655 S
Tb163 O206 2.552 1_655 S
Tb163 O207 2.413 . S
Tb163 C227 2.833 . S
N164 C156 1.360 . S
N164 Tb163 2.660 1_565 S
N164 C165 1.305 1_655 S
C165 N164 1.305 1_455 S
C165 C167 1.407 . S
C165 H172 0.930 . S
C166 C154 1.410 . S
C166 C167 1.345 1_655 S
C166 H174 0.930 . S
C167 C165 1.407 . S
C167 C166 1.345 1_455 S
C167 H169 0.930 . S
H168 C161 0.930 . S
H169 C167 0.930 . S
H170 C158 0.930 . S
H171 C159 0.931 . S
H172 C165 0.930 . S
H173 C187 0.930 1_655 S
H174 C166 0.930 . S
H175 C193 0.930 . S
H176 C184 0.930 1_655 S
H177 C191 0.931 . S
H178 C155 0.929 . S
H179 C185 0.930 . S
H180 C218 0.930 . S
H181 C162 0.930 . S
H182 C217 0.929 . S
N183 Tb152 2.660 1_544 S
N183 C184 1.305 . S
N183 C188 1.360 . S
C184 H176 0.930 1_455 S
C184 N183 1.305 . S
C184 C187 1.407 . S
C185 H179 0.930 . S
C185 C186 1.410 . S
C185 C187 1.345 . S
C186 C185 1.410 . S
C186 C188 1.417 . S
C186 C218 1.432 . S
C187 H173 0.930 1_455 S
C187 C184 1.407 . S
C187 C185 1.345 . S
C188 N183 1.360 . S
C188 C186 1.417 . S
C188 C192 1.432 . S
H189 C194 0.930 . S
N190 Tb152 2.600 1_545 S
N190 C192 1.359 1_556 S
N190 C193 1.327 1_545 S
C191 H177 0.931 . S
C191 C193 1.392 . S
C191 C194 1.370 1_566 S
C192 C188 1.432 . S
C192 N190 1.359 1_554 S
C192 C195 1.414 . S
C193 H175 0.930 . S
C193 N190 1.327 1_565 S
C193 C191 1.392 . S
C194 H189 0.930 . S
C194 C191 1.370 1_544 S
C194 C195 1.385 . S
C195 C192 1.414 . S
C195 C194 1.385 . S
C195 C217 1.444 . S
O196 Tb152 2.546 . S
O196 C216 1.251 . S
O197 Tb152 2.610 1_655 S
O197 Tb163 2.362 1_565 S
O197 C208 1.283 . S
O198 Tb163 2.421 . S
O198 C215 1.262 . S
O199 Tb152 2.320 1_655 S
O199 C215 1.260 1_565 S
O200 Tb152 2.552 . S
O200 C208 1.243 1_455 S
O201 Tb152 2.413 1_554 S
O201 C216 1.256 1_554 S
O202 Tb163 2.546 . S
O202 C227 1.251 . S
O203 Tb152 2.362 1_545 S
O203 Tb163 2.610 1_455 S
O203 C219 1.283 . S
O204 Tb152 2.421 . S
O204 C226 1.262 1_565 S
O205 Tb163 2.320 1_455 S
O205 C226 1.260 . S
O206 Tb163 2.552 1_455 S
O206 C219 1.243 . S
O207 Tb163 2.413 . S
O207 C227 1.256 . S
C208 O197 1.283 . S
C208 O200 1.243 1_655 S
C209 C211 1.382 . S
C209 C213 1.393 . S
C209 C216 1.500 1_554 S
C210 C211 1.400 . S
C210 C212 1.384 . S
C211 C209 1.382 . S
C211 C210 1.400 . S
C211 H228 0.930 . S
C212 C210 1.384 . S
C212 C214 1.392 . S
C212 H229 0.931 . S
C213 C209 1.393 . S
C213 C214 1.401 . S
C213 H230 0.930 . S
C214 C212 1.392 . S
C214 C213 1.401 . S
C214 H231 0.930 . S
C215 O198 1.262 . S
C215 O199 1.260 1_545 S
C216 Tb152 2.833 . S
C216 O196 1.251 . S
C216 O201 1.256 1_556 S
C216 C209 1.500 1_556 S
C217 H182 0.929 . S
C217 C195 1.444 . S
C217 C218 1.317 . S
C218 H180 0.930 . S
C218 C186 1.432 . S
C218 C217 1.317 . S
C219 O203 1.283 . S
C219 O206 1.243 . S
C220 C221 1.382 . S
C220 C224 1.393 . S
C220 C227 1.500 . S
C221 C220 1.382 . S
C221 C222 1.400 . S
C221 H232 0.930 1_655 S
C222 C221 1.400 . S
C222 C223 1.384 . S
C223 C222 1.384 . S
C223 C225 1.392 . S
C223 H233 0.931 . S
C224 C220 1.393 . S
C224 C225 1.401 . S
C224 H234 0.930 . S
C225 C223 1.392 . S
C225 C224 1.401 . S
C225 H235 0.930 . S
C226 O204 1.262 1_545 S
C226 O205 1.260 . S
C227 Tb163 2.833 . S
C227 O202 1.251 . S
C227 O207 1.256 . S
C227 C220 1.500 . S
H228 C211 0.930 . S
H229 C212 0.931 . S
H230 C213 0.930 . S
H231 C214 0.930 . S
H232 C221 0.930 1_455 S
H233 C223 0.931 . S
H234 C224 0.930 . S
H235 C225 0.930 . S
Tb236 N267 2.660 1_556 S
Tb236 N274 2.600 . S
Tb236 O280 2.546 . S
Tb236 O281 2.610 1_545 S
Tb236 O283 2.320 1_545 S
Tb236 O284 2.552 . S
Tb236 O285 2.413 1_556 S
Tb236 O287 2.362 . S
Tb236 O288 2.421 . S
Tb236 C300 2.833 . S
C237 C240 1.432 . S
C237 C241 1.414 . S
C237 N244 1.359 . S
C238 C240 1.417 . S
C238 C242 1.432 . S
C238 C250 1.410 . S
C239 C241 1.444 . S
C239 C242 1.317 . S
C239 H262 0.929 . S
C240 C237 1.432 . S
C240 C238 1.417 . S
C240 N248 1.360 . S
C241 C237 1.414 . S
C241 C239 1.444 . S
C241 C246 1.385 . S
C242 C238 1.432 . S
C242 C239 1.317 . S
C242 H254 0.930 . S
C243 C245 1.392 . S
C243 C246 1.370 . S
C243 H255 0.931 . S
N244 C237 1.359 . S
N244 C245 1.327 . S
N244 Tb247 2.600 . S
C245 C243 1.392 . S
C245 N244 1.327 . S
C245 H252 0.930 . S
C246 C241 1.385 . S
C246 C243 1.370 . S
C246 H265 0.930 . S
Tb247 N244 2.600 . S
Tb247 N248 2.660 . S
Tb247 O281 2.362 . S
Tb247 O282 2.421 . S
Tb247 O286 2.546 . S
Tb247 O287 2.610 1_565 S
Tb247 O289 2.320 1_565 S
Tb247 O290 2.552 1_565 S
Tb247 O291 2.413 . S
Tb247 C311 2.833 . S
N248 C240 1.360 . S
N248 Tb247 2.660 . S
N248 C249 1.305 1_565 S
C249 N248 1.305 1_545 S
C249 C251 1.407 . S
C249 H256 0.930 . S
C250 C238 1.410 . S
C250 C251 1.345 1_565 S
C250 H258 0.930 . S
C251 C249 1.407 . S
C251 C250 1.345 1_545 S
C251 H253 0.930 . S
H252 C245 0.930 . S
H253 C251 0.930 . S
H254 C242 0.930 . S
H255 C243 0.931 . S
H256 C249 0.930 . S
H257 C271 0.930 1_565 S
H258 C250 0.930 . S
H259 C277 0.930 . S
H260 C268 0.930 1_565 S
H261 C275 0.931 . S
H262 C239 0.929 . S
H263 C269 0.930 . S
H264 C302 0.930 . S
H265 C246 0.930 . S
H266 C301 0.929 . S
N267 Tb236 2.660 1_554 S
N267 C268 1.305 . S
N267 C272 1.360 . S
C268 H260 0.930 1_545 S
C268 N267 1.305 . S
C268 C271 1.407 . S
C269 H263 0.930 . S
C269 C270 1.410 . S
C269 C271 1.345 . S
C270 C269 1.410 . S
C270 C272 1.417 . S
C270 C302 1.432 . S
C271 H257 0.930 1_545 S
C271 C268 1.407 . S
C271 C269 1.345 . S
C272 N267 1.360 . S
C272 C270 1.417 . S
C272 C276 1.432 . S
H273 C278 0.930 . S
N274 Tb236 2.600 . S
N274 C276 1.359 1_556 S
N274 C277 1.327 . S
C275 H261 0.931 . S
C275 C277 1.392 . S
C275 C278 1.370 1_556 S
C276 C272 1.432 . S
C276 N274 1.359 1_554 S
C276 C279 1.414 . S
C277 H259 0.930 . S
C277 N274 1.327 . S
C277 C275 1.392 . S
C278 H273 0.930 . S
C278 C275 1.370 1_554 S
C278 C279 1.385 . S
C279 C276 1.414 . S
C279 C278 1.385 . S
C279 C301 1.444 . S
O280 Tb236 2.546 . S
O280 C300 1.251 . S
O281 Tb236 2.610 1_565 S
O281 Tb247 2.362 . S
O281 C292 1.283 . S
O282 Tb247 2.421 . S
O282 C299 1.262 . S
O283 Tb236 2.320 1_565 S
O283 C299 1.260 . S
O284 Tb236 2.552 . S
O284 C292 1.244 1_545 S
O285 Tb236 2.413 1_554 S
O285 C300 1.256 1_554 S
O286 Tb247 2.546 . S
O286 C311 1.251 . S
O287 Tb236 2.362 . S
O287 Tb247 2.610 1_545 S
O287 C303 1.283 . S
O288 Tb236 2.421 . S
O288 C310 1.262 . S
O289 Tb247 2.320 1_545 S
O289 C310 1.260 . S
O290 Tb247 2.552 1_545 S
O290 C303 1.243 . S
O291 Tb247 2.413 . S
O291 C311 1.256 . S
C292 O281 1.283 . S
C292 O284 1.244 1_565 S
C293 C295 1.382 . S
C293 C297 1.393 . S
C293 C300 1.500 1_554 S
C294 C295 1.400 . S
C294 C296 1.384 . S
C295 C293 1.382 . S
C295 C294 1.400 . S
C295 H312 0.930 . S
C296 C294 1.384 . S
C296 C298 1.392 . S
C296 H313 0.931 . S
C297 C293 1.393 . S
C297 C298 1.401 . S
C297 H314 0.930 . S
C298 C296 1.392 . S
C298 C297 1.401 . S
C298 H315 0.930 . S
C299 O282 1.262 . S
C299 O283 1.260 . S
C300 Tb236 2.833 . S
C300 O280 1.251 . S
C300 O285 1.256 1_556 S
C300 C293 1.500 1_556 S
C301 H266 0.929 . S
C301 C279 1.444 . S
C301 C302 1.317 . S
C302 H264 0.930 . S
C302 C270 1.432 . S
C302 C301 1.317 . S
C303 O287 1.283 . S
C303 O290 1.243 . S
C304 C305 1.382 . S
C304 C308 1.393 . S
C304 C311 1.500 . S
C305 C304 1.382 . S
C305 C306 1.400 . S
C305 H316 0.930 1_565 S
C306 C305 1.400 . S
C306 C307 1.384 . S
C307 C306 1.384 . S
C307 C309 1.392 . S
C307 H317 0.931 . S
C308 C304 1.393 . S
C308 C309 1.401 . S
C308 H318 0.930 . S
C309 C307 1.392 . S
C309 C308 1.401 . S
C309 H319 0.930 . S
C310 O288 1.262 . S
C310 O289 1.260 . S
C311 Tb247 2.833 . S
C311 O286 1.251 . S
C311 O291 1.256 . S
C311 C304 1.500 . S
H312 C295 0.930 . S
H313 C296 0.931 . S
H314 C297 0.930 . S
H315 C298 0.930 . S
H316 C305 0.930 1_545 S
H317 C307 0.931 . S
H318 C308 0.930 . S
H319 C309 0.930 . S
Tb320 N351 2.660 . S
Tb320 N358 2.600 . S
Tb320 O364 2.546 . S
Tb320 O365 2.610 . S
Tb320 O367 2.320 . S
Tb320 O368 2.552 . S
Tb320 O369 2.413 . S
Tb320 O371 2.362 . S
Tb320 O372 2.421 . S
Tb320 C384 2.833 . S
C321 C324 1.432 . S
C321 C325 1.414 . S
C321 N328 1.359 . S
C322 C324 1.417 . S
C322 C326 1.432 . S
C322 C334 1.410 . S
C323 C325 1.444 . S
C323 C326 1.317 . S
C323 H346 0.929 . S
C324 C321 1.432 . S
C324 C322 1.417 . S
C324 N332 1.360 . S
C325 C321 1.414 . S
C325 C323 1.444 . S
C325 C330 1.385 1_556 S
C326 C322 1.432 . S
C326 C323 1.317 . S
C326 H338 0.930 . S
C327 C329 1.392 . S
C327 C330 1.370 . S
C327 H339 0.931 . S
N328 C321 1.359 . S
N328 C329 1.327 1_556 S
N328 Tb331 2.600 . S
C329 C327 1.392 . S
C329 N328 1.327 1_554 S
C329 H336 0.930 . S
C330 C325 1.385 1_554 S
C330 C327 1.370 . S
C330 H349 0.930 . S
Tb331 N328 2.600 . S
Tb331 N332 2.660 . S
Tb331 O365 2.362 . S
Tb331 O366 2.421 . S
Tb331 O370 2.546 1_556 S
Tb331 O371 2.610 . S
Tb331 O373 2.320 . S
Tb331 O374 2.552 . S
Tb331 O375 2.413 . S
Tb331 C395 2.833 1_556 S
N332 C324 1.360 . S
N332 Tb331 2.660 . S
N332 C333 1.305 . S
C333 N332 1.305 . S
C333 C335 1.407 . S
C333 H340 0.930 . S
C334 C322 1.410 . S
C334 C335 1.345 . S
C334 H342 0.930 . S
C335 C333 1.407 . S
C335 C334 1.345 . S
C335 H337 0.930 . S
H336 C329 0.930 . S
H337 C335 0.930 . S
H338 C326 0.930 . S
H339 C327 0.931 . S
H340 C333 0.930 . S
H341 C355 0.930 . S
H342 C334 0.930 . S
H343 C361 0.930 . S
H344 C352 0.930 . S
H345 C359 0.931 . S
H346 C323 0.929 . S
H347 C353 0.930 . S
H348 C386 0.930 . S
H349 C330 0.930 . S
H350 C385 0.929 . S
N351 Tb320 2.660 . S
N351 C352 1.305 . S
N351 C356 1.360 . S
C352 H344 0.930 . S
C352 N351 1.305 . S
C352 C355 1.407 . S
C353 H347 0.930 . S
C353 C354 1.410 . S
C353 C355 1.345 . S
C354 C353 1.410 . S
C354 C356 1.417 . S
C354 C386 1.432 . S
C355 H341 0.930 . S
C355 C352 1.407 . S
C355 C353 1.345 . S
C356 N351 1.360 . S
C356 C354 1.417 . S
C356 C360 1.432 . S
H357 C362 0.930 . S
N358 Tb320 2.600 . S
N358 C360 1.359 . S
N358 C361 1.327 . S
C359 H345 0.931 . S
C359 C361 1.392 . S
C359 C362 1.370 . S
C360 C356 1.432 . S
C360 N358 1.359 . S
C360 C363 1.414 . S
C361 H343 0.930 . S
C361 N358 1.327 . S
C361 C359 1.392 . S
C362 H357 0.930 . S
C362 C359 1.370 . S
C362 C363 1.385 . S
C363 C360 1.414 . S
C363 C362 1.385 . S
C363 C385 1.444 . S
O364 Tb320 2.546 . S
O364 C384 1.251 . S
O365 Tb320 2.610 . S
O365 Tb331 2.362 . S
O365 C376 1.283 . S
O366 Tb331 2.421 . S
O366 C383 1.262 . S
O367 Tb320 2.320 . S
O367 C383 1.260 . S
O368 Tb320 2.552 . S
O368 C376 1.243 . S
O369 Tb320 2.413 . S
O369 C384 1.256 . S
O370 Tb331 2.546 1_554 S
O370 C395 1.251 . S
O371 Tb320 2.362 . S
O371 Tb331 2.610 . S
O371 C387 1.283 . S
O372 Tb320 2.421 . S
O372 C394 1.262 . S
O373 Tb331 2.320 . S
O373 C394 1.260 . S
O374 Tb331 2.552 . S
O374 C387 1.243 . S
O375 Tb331 2.413 . S
O375 C395 1.256 1_556 S
C376 O365 1.283 . S
C376 O368 1.243 . S
C377 C379 1.382 . S
C377 C381 1.393 . S
C377 C384 1.500 . S
C378 C379 1.400 . S
C378 C380 1.384 . S
C379 C377 1.382 . S
C379 C378 1.400 . S
C379 H396 0.930 . S
C380 C378 1.384 . S
C380 C382 1.392 . S
C380 H397 0.931 . S
C381 C377 1.393 . S
C381 C382 1.401 . S
C381 H398 0.930 . S
C382 C380 1.392 . S
C382 C381 1.401 . S
C382 H399 0.930 1_554 S
C383 O366 1.262 . S
C383 O367 1.260 . S
C384 Tb320 2.833 . S
C384 O364 1.251 . S
C384 O369 1.256 . S
C384 C377 1.500 . S
C385 H350 0.929 . S
C385 C363 1.444 . S
C385 C386 1.317 . S
C386 H348 0.930 . S
C386 C354 1.432 . S
C386 C385 1.317 . S
C387 O371 1.283 . S
C387 O374 1.243 . S
C388 C389 1.382 . S
C388 C392 1.393 . S
C388 C395 1.500 . S
C389 C388 1.382 . S
C389 C390 1.400 . S
C389 H400 0.930 . S
C390 C389 1.400 . S
C390 C391 1.384 . S
C391 C390 1.384 . S
C391 C393 1.392 . S
C391 H401 0.931 . S
C392 C388 1.393 . S
C392 C393 1.401 . S
C392 H402 0.930 . S
C393 C391 1.392 . S
C393 C392 1.401 . S
C393 H403 0.930 . S
C394 O372 1.262 . S
C394 O373 1.260 . S
C395 Tb331 2.833 1_554 S
C395 O370 1.251 . S
C395 O375 1.256 1_554 S
C395 C388 1.500 . S
H396 C379 0.930 . S
H397 C380 0.931 . S
H398 C381 0.930 . S
H399 C382 0.930 1_556 S
H400 C389 0.930 . S
H401 C391 0.931 . S
H402 C392 0.930 . S
H403 C393 0.930 . S
Tb404 N435 2.660 . S
Tb404 N442 2.600 . S
Tb404 O448 2.546 . S
Tb404 O449 2.610 . S
Tb404 O451 2.320 . S
Tb404 O452 2.552 . S
Tb404 O453 2.413 . S
Tb404 O455 2.362 . S
Tb404 O456 2.421 1_455 S
Tb404 C468 2.833 . S
C405 C408 1.432 . S
C405 C409 1.414 . S
C405 N412 1.354 1_655 S
C406 C408 1.417 . S
C406 C410 1.432 . S
C406 C418 1.410 . S
C407 C409 1.444 . S
C407 C410 1.317 . S
C407 H430 0.929 . S
C408 C405 1.432 . S
C408 C406 1.417 . S
C408 N416 1.360 . S
C409 C405 1.414 . S
C409 C407 1.444 . S
C409 C414 1.385 1_656 S
C410 C406 1.432 . S
C410 C407 1.317 . S
C410 H422 0.930 . S
C411 C413 1.392 . S
C411 C414 1.370 . S
C411 H423 0.931 . S
N412 C405 1.354 1_455 S
N412 C413 1.334 1_556 S
N412 Tb415 2.598 1_455 S
C413 C411 1.392 . S
C413 N412 1.334 1_554 S
C413 H420 0.930 . S
C414 C409 1.385 1_454 S
C414 C411 1.370 . S
C414 H433 0.930 . S
Tb415 N412 2.598 1_655 S
Tb415 N416 2.660 . S
Tb415 O449 2.362 1_655 S
Tb415 O450 2.421 1_655 S
Tb415 O454 2.546 1_556 S
Tb415 O455 2.610 1_655 S
Tb415 O457 2.320 . S
Tb415 O458 2.552 . S
Tb415 O459 2.413 . S
Tb415 C479 2.833 1_556 S
N416 C408 1.360 . S
N416 Tb415 2.660 . S
N416 C417 1.305 . S
C417 N416 1.305 . S
C417 C419 1.407 . S
C417 H424 0.930 . S
C418 C406 1.410 . S
C418 C419 1.345 . S
C418 H426 0.930 . S
C419 C417 1.407 . S
C419 C418 1.345 . S
C419 H421 0.930 . S
H420 C413 0.930 . S
H421 C419 0.930 . S
H422 C410 0.930 . S
H423 C411 0.931 . S
H424 C417 0.930 . S
H425 C439 0.930 . S
H426 C418 0.930 . S
H427 C445 0.930 . S
H428 C436 0.930 . S
H429 C443 0.931 . S
H430 C407 0.929 . S
H431 C437 0.930 . S
H432 C470 0.930 . S
H433 C414 0.930 . S
H434 C469 0.929 . S
N435 Tb404 2.660 . S
N435 C436 1.305 . S
N435 C440 1.360 . S
C436 H428 0.930 . S
C436 N435 1.305 . S
C436 C439 1.407 . S
C437 H431 0.930 . S
C437 C438 1.410 . S
C437 C439 1.345 . S
C438 C437 1.410 . S
C438 C440 1.417 . S
C438 C470 1.432 . S
C439 H425 0.930 . S
C439 C436 1.407 . S
C439 C437 1.345 . S
C440 N435 1.360 . S
C440 C438 1.417 . S
C440 C444 1.432 . S
H441 C446 0.936 . S
N442 Tb404 2.600 . S
N442 C444 1.359 . S
N442 C445 1.327 1_455 S
C443 H429 0.931 . S
C443 C445 1.392 . S
C443 C446 1.370 1_655 S
C444 C440 1.432 . S
C444 N442 1.359 . S
C444 C447 1.414 . S
C445 H427 0.930 . S
C445 N442 1.327 1_655 S
C445 C443 1.392 . S
C446 H441 0.936 . S
C446 C443 1.370 1_455 S
C446 C447 1.385 . S
C447 C444 1.414 . S
C447 C446 1.385 . S
C447 C469 1.444 . S
O448 Tb404 2.546 . S
O448 C468 1.251 . S
O449 Tb404 2.610 . S
O449 Tb415 2.362 1_455 S
O449 C460 1.283 . S
O450 Tb415 2.421 1_455 S
O450 C467 1.262 . S
O451 Tb404 2.320 . S
O451 C467 1.260 . S
O452 Tb404 2.552 . S
O452 C460 1.243 . S
O453 Tb404 2.413 . S
O453 C468 1.256 . S
O454 Tb415 2.546 1_554 S
O454 C479 1.251 . S
O455 Tb404 2.362 . S
O455 Tb415 2.610 1_455 S
O455 C471 1.283 1_455 S
O456 Tb404 2.421 1_655 S
O456 C478 1.262 . S
O457 Tb415 2.320 . S
O457 C478 1.260 . S
O458 Tb415 2.552 . S
O458 C471 1.243 . S
O459 Tb415 2.413 . S
O459 C479 1.256 1_556 S
C460 O449 1.283 . S
C460 O452 1.243 . S
C461 C463 1.382 . S
C461 C465 1.393 . S
C461 C468 1.500 . S
C462 C463 1.400 . S
C462 C464 1.384 . S
C463 C461 1.382 . S
C463 C462 1.400 . S
C463 H480 0.930 . S
C464 C462 1.384 . S
C464 C466 1.392 . S
C464 H481 0.931 . S
C465 C461 1.393 . S
C465 C466 1.401 . S
C465 H482 0.930 . S
C466 C464 1.392 . S
C466 C465 1.401 . S
C466 H483 0.930 1_554 S
C467 O450 1.262 . S
C467 O451 1.260 . S
C468 Tb404 2.833 . S
C468 O448 1.251 . S
C468 O453 1.256 . S
C468 C461 1.500 . S
C469 H434 0.929 . S
C469 C447 1.444 . S
C469 C470 1.317 . S
C470 H432 0.930 . S
C470 C438 1.432 . S
C470 C469 1.317 . S
C471 O455 1.283 1_655 S
C471 O458 1.243 . S
C472 C473 1.382 . S
C472 C476 1.393 . S
C472 C479 1.500 . S
C473 C472 1.382 . S
C473 C474 1.400 . S
C473 H484 0.930 . S
C474 C473 1.400 . S
C474 C475 1.384 . S
C475 C474 1.384 . S
C475 C477 1.392 . S
C475 H485 0.931 . S
C476 C472 1.393 . S
C476 C477 1.401 . S
C476 H486 0.930 . S
C477 C475 1.392 . S
C477 C476 1.401 . S
C477 H487 0.930 . S
C478 O456 1.262 . S
C478 O457 1.260 . S
C479 Tb415 2.833 1_554 S
C479 O454 1.251 . S
C479 O459 1.256 1_554 S
C479 C472 1.500 . S
H480 C463 0.930 . S
H481 C464 0.931 . S
H482 C465 0.930 . S
H483 C466 0.930 1_556 S
H484 C473 0.930 . S
H485 C475 0.931 . S
H486 C476 0.930 . S
H487 C477 0.930 . S
C488 C489 1.387 . S
C488 H492 0.950 . S
C488 C497 1.390 . S
C489 C488 1.387 . S
C489 C491 1.387 . S
H490 C497 0.950 . S
C491 C489 1.387 . S
C491 C493 1.390 . S
C491 H495 0.950 1_545 S
H492 C488 0.950 . S
C493 C491 1.390 . S
C493 C494 1.387 . S
C493 H496 0.950 1_545 S
C494 C493 1.387 . S
C494 C497 1.387 . S
H495 C491 0.950 1_565 S
H496 C493 0.950 1_565 S
C497 C488 1.390 . S
C497 H490 0.950 . S
C497 C494 1.387 . S
C498 C499 1.387 . S
C498 H502 0.950 . S
C498 C507 1.390 . S
C499 C498 1.387 . S
C499 C501 1.387 . S
H500 C507 0.950 . S
C501 C499 1.387 . S
C501 C503 1.390 . S
C501 H505 0.950 . S
H502 C498 0.950 . S
C503 C501 1.390 . S
C503 C504 1.387 . S
C503 H506 0.950 . S
C504 C503 1.387 . S
C504 C507 1.387 . S
H505 C501 0.950 . S
H506 C503 0.950 . S
C507 C498 1.390 . S
C507 H500 0.950 . S
C507 C504 1.387 . S
C508 C509 1.387 . S
C508 H512 0.950 . S
C508 C517 1.390 . S
C509 C508 1.387 . S
C509 C511 1.387 . S
H510 C517 0.950 . S
C511 C509 1.387 . S
C511 C513 1.390 . S
C511 H515 0.950 . S
H512 C508 0.950 . S
C513 C511 1.390 . S
C513 C514 1.387 . S
C513 H516 0.950 . S
C514 C513 1.387 . S
C514 C517 1.387 . S
H515 C511 0.950 . S
H516 C513 0.950 . S
C517 C508 1.390 . S
C517 H510 0.950 . S
C517 C514 1.387 . S
C518 C519 1.387 . S
C518 H522 0.950 . S
C518 C527 1.390 . S
C519 C518 1.387 . S
C519 C521 1.387 . S
H520 C527 0.950 1_655 S
C521 C519 1.387 . S
C521 C523 1.390 . S
C521 H525 0.950 . S
H522 C518 0.950 . S
C523 C521 1.390 . S
C523 C524 1.387 . S
C523 H526 0.950 . S
C524 C523 1.387 . S
C524 C527 1.387 . S
H525 C521 0.950 . S
H526 C523 0.950 . S
C527 C518 1.390 . S
C527 H520 0.950 1_455 S
C527 C524 1.387 . S
C528 C529 1.387 1_545 S
C528 H532 0.950 . S
C528 C537 1.390 . S
C529 C528 1.387 1_565 S
C529 C531 1.387 . S
H530 C537 0.950 . S
C531 C529 1.387 . S
C531 C533 1.390 . S
C531 H535 0.950 . S
H532 C528 0.950 . S
C533 C531 1.390 . S
C533 C534 1.387 1_554 S
C533 H536 0.950 1_554 S
C534 C533 1.387 1_556 S
C534 C537 1.387 1_566 S
H535 C531 0.950 . S
H536 C533 0.950 1_556 S
C537 C528 1.390 . S
C537 H530 0.950 . S
C537 C534 1.387 1_544 S
C538 C539 1.387 . S
C538 H542 0.950 . S
C538 C547 1.390 . S
C539 C538 1.387 . S
C539 C541 1.387 . S
H540 C547 0.950 . S
C541 C539 1.387 . S
C541 C543 1.390 1_554 S
C541 H545 0.950 . S
H542 C538 0.950 . S
C543 C541 1.390 1_556 S
C543 C544 1.387 . S
C543 H546 0.950 . S
C544 C543 1.387 . S
C544 C547 1.387 1_556 S
H545 C541 0.950 . S
H546 C543 0.950 . S
C547 C538 1.390 . S
C547 H540 0.950 . S
C547 C544 1.387 1_554 S
C548 C549 1.387 . S
C548 H552 0.950 . S
C548 C557 1.390 . S
C549 C548 1.387 . S
C549 C551 1.387 . S
H550 C557 0.950 . S
C551 C549 1.387 . S
C551 C553 1.390 1_554 S
C551 H555 0.950 . S
H552 C548 0.950 . S
C553 C551 1.390 1_556 S
C553 C554 1.387 . S
C553 H556 0.950 . S
C554 C553 1.387 . S
C554 C557 1.387 1_556 S
H555 C551 0.950 . S
H556 C553 0.950 . S
C557 C548 1.390 . S
C557 H550 0.950 . S
C557 C554 1.387 1_554 S
C558 C559 1.387 . S
C558 H562 0.950 1_655 S
C558 C567 1.390 1_655 S
C559 C558 1.387 . S
C559 C561 1.387 . S
H560 C567 0.950 1_556 S
C561 C559 1.387 . S
C561 C563 1.390 . S
C561 H565 0.950 . S
H562 C558 0.950 1_455 S
C563 C561 1.390 . S
C563 C564 1.387 1_554 S
C563 H566 0.950 . S
C564 C563 1.387 1_556 S
C564 C567 1.387 1_656 S
H565 C561 0.950 . S
H566 C563 0.950 . S
C567 C558 1.390 1_455 S
C567 H560 0.950 1_554 S
C567 C564 1.387 1_454 S
C568 C569 1.387 . S
C568 H572 0.950 1_554 S
C568 C577 1.390 . S
C569 C568 1.387 . S
C569 C571 1.387 . S
H570 C577 0.950 . S
C571 C569 1.387 . S
C571 C573 1.390 . S
C571 H575 0.950 . S
H572 C568 0.950 1_556 S
C573 C571 1.390 . S
C573 C574 1.387 . S
C573 H576 0.950 . S
C574 C573 1.387 . S
C574 C577 1.387 . S
H575 C571 0.950 . S
H576 C573 0.950 . S
C577 C568 1.390 . S
C577 H570 0.950 . S
C577 C574 1.387 . S
C578 C579 1.387 . S
C578 H582 0.950 1_554 S
C578 C587 1.390 . S
C579 C578 1.387 . S
C579 C581 1.387 . S
H580 C587 0.950 1_565 S
C581 C579 1.387 . S
C581 C583 1.390 . S
C581 H585 0.950 . S
H582 C578 0.950 1_556 S
C583 C581 1.390 . S
C583 C584 1.387 . S
C583 H586 0.950 . S
C584 C583 1.387 . S
C584 C587 1.387 . S
H585 C581 0.950 . S
H586 C583 0.950 . S
C587 C578 1.390 . S
C587 H580 0.950 1_545 S
C587 C584 1.387 . S
C588 C589 1.387 . S
C588 H592 0.950 . S
C588 C597 1.390 . S
C589 C588 1.387 . S
C589 C591 1.387 . S
H590 C597 0.950 . S
C591 C589 1.387 . S
C591 C593 1.390 . S
C591 H595 0.950 1_554 S
H592 C588 0.950 . S
C593 C591 1.390 . S
C593 C594 1.387 . S
C593 H596 0.950 1_554 S
C594 C593 1.387 . S
C594 C597 1.387 . S
H595 C591 0.950 1_556 S
H596 C593 0.950 1_556 S
C597 C588 1.390 . S
C597 H590 0.950 . S
C597 C594 1.387 . S
C598 C599 1.387 . S
C598 H602 0.950 . S
C598 C607 1.390 . S
C599 C598 1.387 . S
C599 C601 1.387 . S
H600 C607 0.950 . S
C601 C599 1.387 . S
C601 C603 1.390 . S
C601 H605 0.950 1_554 S
H602 C598 0.950 . S
C603 C601 1.390 . S
C603 C604 1.387 . S
C603 H606 0.950 . S
C604 C603 1.387 . S
C604 C607 1.387 . S
H605 C601 0.950 1_556 S
H606 C603 0.950 . S
C607 C598 1.390 . S
C607 H600 0.950 . S
C607 C604 1.387 . S
C608 C609 1.387 . S
C608 H612 0.950 . S
C608 C617 1.390 . S
C609 C608 1.387 . S
C609 C611 1.387 . S
H610 C617 0.950 . S
C611 C609 1.387 . S
C611 C613 1.390 1_655 S
C611 H615 0.950 . S
H612 C608 0.950 . S
C613 C611 1.390 1_455 S
C613 C614 1.387 . S
C613 H616 0.950 . S
C614 C613 1.387 . S
C614 C617 1.387 1_455 S
H615 C611 0.950 . S
H616 C613 0.950 . S
C617 C608 1.390 . S
C617 H610 0.950 . S
C617 C614 1.387 1_655 S
C618 C619 1.387 . S
C618 H622 0.950 . S
C618 C627 1.390 . S
C619 C618 1.387 . S
C619 C621 1.387 1_565 S
H620 C627 0.950 . S
C621 C619 1.387 1_545 S
C621 C623 1.390 . S
C621 H625 0.950 . S
H622 C618 0.950 . S
C623 C621 1.390 . S
C623 C624 1.387 . S
C623 H626 0.950 . S
C624 C623 1.387 . S
C624 C627 1.387 1_545 S
H625 C621 0.950 . S
H626 C623 0.950 . S
C627 C618 1.390 . S
C627 H620 0.950 . S
C627 C624 1.387 1_565 S
C628 C629 1.387 . S
C628 H632 0.950 . S
C628 C637 1.390 . S
C629 C628 1.387 . S
C629 C631 1.387 . S
H630 C637 0.950 . S
C631 C629 1.387 . S
C631 C633 1.390 . S
C631 H635 0.950 . S
H632 C628 0.950 . S
C633 C631 1.390 . S
C633 C634 1.387 . S
C633 H636 0.950 . S
C634 C633 1.387 . S
C634 C637 1.387 . S
H635 C631 0.950 . S
H636 C633 0.950 . S
C637 C628 1.390 . S
C637 H630 0.950 . S
C637 C634 1.387 . S
C638 C639 1.387 . S
C638 H642 0.950 . S
C638 C647 1.390 . S
C639 C638 1.387 . S
C639 C641 1.387 . S
H640 C647 0.950 . S
C641 C639 1.387 . S
C641 C643 1.390 . S
C641 H645 0.950 . S
H642 C638 0.950 . S
C643 C641 1.390 . S
C643 C644 1.387 . S
C643 H646 0.950 . S
C644 C643 1.387 . S
C644 C647 1.387 . S
H645 C641 0.950 . S
H646 C643 0.950 . S
C647 C638 1.390 . S
C647 H640 0.950 . S
C647 C644 1.387 . S
C648 C649 1.387 . S
C648 H652 0.950 . S
C648 C657 1.390 . S
C649 C648 1.387 . S
C649 C651 1.387 . S
H650 C657 0.950 . S
C651 C649 1.387 . S
C651 C653 1.390 . S
C651 H655 0.950 . S
H652 C648 0.950 . S
C653 C651 1.390 . S
C653 C654 1.387 . S
C653 H656 0.950 . S
C654 C653 1.387 . S
C654 C657 1.387 . S
H655 C651 0.950 . S
H656 C653 0.950 . S
C657 C648 1.390 . S
C657 H650 0.950 . S
C657 C654 1.387 . S
C658 C659 1.387 . S
C658 H662 0.950 . S
C658 C667 1.390 . S
C659 C658 1.387 . S
C659 C661 1.387 . S
H660 C667 0.950 . S
C661 C659 1.387 . S
C661 C663 1.390 . S
C661 H665 0.950 . S
H662 C658 0.950 . S
C663 C661 1.390 . S
C663 C664 1.387 . S
C663 H666 0.950 . S
C664 C663 1.387 . S
C664 C667 1.387 . S
H665 C661 0.950 . S
H666 C663 0.950 . S
C667 C658 1.390 . S
C667 H660 0.950 . S
C667 C664 1.387 . S
C668 C669 1.387 . S
C668 H672 0.950 . S
C668 C677 1.390 . S
C669 C668 1.387 . S
C669 C671 1.387 . S
H670 C677 0.950 . S
C671 C669 1.387 . S
C671 C673 1.390 . S
C671 H675 0.950 . S
H672 C668 0.950 . S
C673 C671 1.390 . S
C673 C674 1.387 . S
C673 H676 0.950 . S
C674 C673 1.387 . S
C674 C677 1.387 . S
H675 C671 0.950 . S
H676 C673 0.950 . S
C677 C668 1.390 . S
C677 H670 0.950 . S
C677 C674 1.387 . S
C678 C679 1.387 . S
C678 H682 0.950 . S
C678 C687 1.390 . S
C679 C678 1.387 . S
C679 C681 1.387 . S
H680 C687 0.950 . S
C681 C679 1.387 . S
C681 C683 1.390 . S
C681 H685 0.950 . S
H682 C678 0.950 . S
C683 C681 1.390 . S
C683 C684 1.387 . S
C683 H686 0.950 . S
C684 C683 1.387 . S
C684 C687 1.387 . S
H685 C681 0.950 . S
H686 C683 0.950 . S
C687 C678 1.390 . S
C687 H680 0.950 . S
C687 C684 1.387 . S
C688 C689 1.387 . S
C688 H692 0.950 . S
C688 C697 1.390 . S
C689 C688 1.387 . S
C689 C691 1.387 . S
H690 C697 0.950 . S
C691 C689 1.387 . S
C691 C693 1.390 . S
C691 H695 0.950 . S
H692 C688 0.950 . S
C693 C691 1.390 . S
C693 C694 1.387 . S
C693 H696 0.950 . S
C694 C693 1.387 . S
C694 C697 1.387 . S
H695 C691 0.950 . S
H696 C693 0.950 . S
C697 C688 1.390 . S
C697 H690 0.950 . S
C697 C694 1.387 . S
C698 C699 1.387 . S
C698 H702 0.950 . S
C698 C707 1.390 . S
C699 C698 1.387 . S
C699 C701 1.387 . S
H700 C707 0.950 . S
C701 C699 1.387 . S
C701 C703 1.390 . S
C701 H705 0.950 . S
H702 C698 0.950 . S
C703 C701 1.390 . S
C703 C704 1.387 . S
C703 H706 0.950 . S
C704 C703 1.387 . S
C704 C707 1.387 . S
H705 C701 0.950 . S
H706 C703 0.950 . S
C707 C698 1.390 . S
C707 H700 0.950 . S
C707 C704 1.387 . S
C708 C709 1.387 . S
C708 H712 0.950 . S
C708 C717 1.390 . S
C709 C708 1.387 . S
C709 C711 1.387 . S
H710 C717 0.950 . S
C711 C709 1.387 . S
C711 C713 1.390 . S
C711 H715 0.950 . S
H712 C708 0.950 . S
C713 C711 1.390 . S
C713 C714 1.387 . S
C713 H716 0.950 . S
C714 C713 1.387 . S
C714 C717 1.387 . S
H715 C711 0.950 . S
H716 C713 0.950 . S
C717 C708 1.390 . S
C717 H710 0.950 . S
C717 C714 1.387 . S
C718 C719 1.387 . S
C718 H722 0.950 . S
C718 C727 1.390 . S
C719 C718 1.387 . S
C719 C721 1.387 . S
H720 C727 0.950 . S
C721 C719 1.387 . S
C721 C723 1.390 . S
C721 H725 0.950 . S
H722 C718 0.950 . S
C723 C721 1.390 . S
C723 C724 1.387 . S
C723 H726 0.950 . S
C724 C723 1.387 . S
C724 C727 1.387 . S
H725 C721 0.950 . S
H726 C723 0.950 . S
C727 C718 1.390 . S
C727 H720 0.950 . S
C727 C724 1.387 . S
C489 C125 2.079 . S
C494 C226 2.068 . S
C504 C310 2.082 . S
C499 C144 2.076 . S
C514 C376 1.986 . S
C509 C87 2.137 . S
C524 C460 1.980 . S
C519 C106 2.140 . S
C534 C215 2.068 1_565 S
C529 C49 2.167 . S
C539 C68 2.180 . S
C544 C299 2.082 . S
C549 C11 2.250 . S
C554 C387 1.985 . S
C559 C30 2.240 . S
C564 C471 1.977 . S
C574 C222 0.953 1_455 S
C569 C97 0.891 . S
C584 C306 0.916 1_545 S
C579 C116 0.867 . S
C594 C378 0.908 . S
C589 C135 0.855 . S
C599 C78 0.877 . S
C604 C462 0.944 . S
C609 C21 0.898 . S
C614 C210 0.950 . S
C624 C294 0.916 . S
C619 C40 0.870 . S
C634 C390 0.906 . S
C629 C59 0.855 . S
C639 C2 0.876 . S
C644 C474 0.944 . S
C649 C101 2.115 . S
C654 C219 2.193 . S
C659 C120 2.090 . S
C664 C303 2.170 . S
C674 C383 2.287 . S
C669 C139 2.017 . S
C684 C467 2.309 . S
C679 C82 2.042 . S
C689 C25 2.118 . S
C694 C208 2.192 . S
C704 C292 2.169 . S
C699 C44 2.094 . S
C714 C394 2.287 . S
C709 C63 2.022 . S
C719 C6 2.046 . S
C724 C478 2.308 . S
