# Generated by pormake.
# Topology tsx, (6,3)-cn, num edge types: 1
# Building blocks:
#     Node 0, Type 0, BuildingBlock: VOLQOD_clean_sbu_1, # of connection points: 6
#     Node 1, Type 0, BuildingBlock: VOLQOD_clean_sbu_1, # of connection points: 6
#     Node 2, Type 1, BuildingBlock: PAMTOO_clean_linker_0, # of connection points: 3
#     Node 3, Type 1, BuildingBlock: PAMTOO_clean_linker_0, # of connection points: 3
#     Node 4, Type 1, BuildingBlock: PAMTOO_clean_linker_0, # of connection points: 3
#     Node 5, Type 1, BuildingBlock: PAMTOO_clean_linker_0, # of connection points: 3
#     Edge 6, Type (0, 1), BuildingBlock: FUNLAD_clean_linker_1, # of connection points: 2
#     Edge 7, Type (0, 1), BuildingBlock: FUNLAD_clean_linker_1, # of connection points: 2
#     Edge 8, Type (0, 1), BuildingBlock: FUNLAD_clean_linker_1, # of connection points: 2
#     Edge 9, Type (0, 1), BuildingBlock: FUNLAD_clean_linker_1, # of connection points: 2
#     Edge 10, Type (0, 1), BuildingBlock: FUNLAD_clean_linker_1, # of connection points: 2
#     Edge 11, Type (0, 1), BuildingBlock: FUNLAD_clean_linker_1, # of connection points: 2
#     Edge 12, Type (0, 1), BuildingBlock: FUNLAD_clean_linker_1, # of connection points: 2
#     Edge 13, Type (0, 1), BuildingBlock: FUNLAD_clean_linker_1, # of connection points: 2
#     Edge 14, Type (0, 1), BuildingBlock: FUNLAD_clean_linker_1, # of connection points: 2
#     Edge 15, Type (0, 1), BuildingBlock: FUNLAD_clean_linker_1, # of connection points: 2
#     Edge 16, Type (0, 1), BuildingBlock: FUNLAD_clean_linker_1, # of connection points: 2
#     Edge 17, Type (0, 1), BuildingBlock: FUNLAD_clean_linker_1, # of connection points: 2
# Relax obj value: 0.054
# Max RMSD: 0.113
# Mean RMSD: 0.101
data_MOF--net-tsx--node1-VOLQOD_clean_sbu_1--node2-PAMTOO_clean_linker_0--edge1-FUNLAD_clean_linker_1
_symmetry_space_group_name_H-M    P1
_symmetry_Int_Tables_number       1
_symmetry_cell_setting            triclinic
loop_
_symmetry_equiv_pos_as_xyz
'x, y, z'
_cell_length_a     21.939314
_cell_length_b     22.656321
_cell_length_c     38.940379
_cell_angle_alpha  81.874234
_cell_angle_beta   89.689059
_cell_angle_gamma 89.996586
loop_
_atom_site_label
_atom_site_type_symbol
_atom_site_fract_x
_atom_site_fract_y
_atom_site_fract_z
_atom_type_partial_charge
O0 O 0.03759 0.97629 0.0956 0.0
Zn1 Zn 0.07051 0.98664 0.04626 0.0
O2 O 0.00362 1.00084 0.0127 0.0
Zn3 Zn 1.00077 0.93652 0.98412 0.0
Zn4 Zn 0.92569 0.00263 0.03707 0.0
Zn5 Zn 0.01655 0.07742 0.98322 0.0
O6 O 0.00679 0.96937 0.93306 0.0
O7 O 0.03048 0.06487 0.93335 0.0
O8 O 0.12318 0.91629 0.03724 0.0
O9 O 0.07313 0.88291 0.99431 0.0
O10 O 0.92562 0.88451 0.99409 0.0
O11 O 0.87376 0.93146 0.0312 0.0
O12 O 0.87774 0.07675 0.01989 0.0
O13 O 0.12534 0.05857 0.04291 0.0
O14 O 0.94243 0.12998 0.98384 0.0
O15 O 0.08754 0.1228 0.99989 0.0
C16 C 0.9852 0.98662 0.10788 0.0
C17 C 0.02205 0.02044 0.91719 0.0
C18 C 0.8794 0.88854 0.01355 0.0
C19 C 0.11762 0.87986 0.01528 0.0
C20 C 0.89097 0.1237 0.99924 0.0
C21 C 0.12636 0.10909 0.02393 0.0
O22 O 0.9395 0.99976 0.08829 0.0
O23 O 0.60815 0.50741 0.58679 0.0
Zn24 Zn 0.62023 0.51312 0.53484 0.0
O25 O 0.54162 0.5184 0.51087 0.0
Zn26 Zn 0.53115 0.44993 0.48556 0.0
Zn27 Zn 0.47591 0.51887 0.54487 0.0
Zn28 Zn 0.53829 0.59268 0.4786 0.0
O29 O 0.51921 0.47734 0.434 0.0
O30 O 0.53431 0.57532 0.42941 0.0
O31 O 0.66937 0.44237 0.52367 0.0
O32 O 0.60672 0.39862 0.49025 0.0
O33 O 0.46069 0.39711 0.50517 0.0
O34 O 0.42714 0.44378 0.54813 0.0
O35 O 0.41734 0.5867 0.53178 0.0
O36 O 0.66966 0.58802 0.52115 0.0
O37 O 0.463 0.64016 0.48669 0.0
O38 O 0.61137 0.64468 0.48334 0.0
C39 C 0.56188 0.51525 0.60552 0.0
C40 C 0.52449 0.52847 0.41569 0.0
C41 C 0.4249 0.40041 0.53075 0.0
C42 C 0.65747 0.40086 0.5058 0.0
C43 C 0.41907 0.63189 0.50836 0.0
C44 C 0.65996 0.6365 0.50104 0.0
O45 O 0.50881 0.52325 0.59258 0.0
H46 H 0.11307 0.92322 0.37901 0.0
H47 H 0.96329 0.04661 0.37674 0.0
H48 H 0.04889 0.98081 0.47342 0.0
H49 H 0.91342 0.99225 0.47839 0.0
C50 C 0.90646 0.0278 0.45604 0.0
O51 O 0.9624 0.0493 0.44355 0.0
H52 H 0.88116 0.00883 0.43546 0.0
C53 C 0.08109 0.94851 0.39244 0.0
C54 C 0.0853 0.94656 0.42855 0.0
C55 C 0.03731 0.98399 0.37327 0.0
C56 C 0.99691 0.01787 0.39081 0.0
C57 C 1.00084 0.01617 0.42691 0.0
C58 C 0.04553 0.98121 0.44564 0.0
H59 H 0.1409 0.07141 0.65116 0.0
H60 H 0.00695 0.93522 0.64238 0.0
H61 H 0.11586 0.0041 0.55421 0.0
H62 H 0.99487 0.97508 0.53226 0.0
C63 C 0.97943 0.94821 0.55685 0.0
O64 O 0.02935 0.92981 0.57693 0.0
H65 H 0.94873 0.97587 0.57099 0.0
C66 C 0.1178 0.04195 0.63599 0.0
C67 C 0.13339 0.04327 0.60069 0.0
C68 C 0.07266 0.00243 0.65161 0.0
C69 C 0.04238 0.96541 0.63115 0.0
C70 C 0.05815 0.96616 0.59622 0.0
C71 C 0.10409 0.00418 0.58129 0.0
H72 H 0.61909 0.4618 0.87293 0.0
H73 H 0.49598 0.60768 0.8801 0.0
H74 H 0.60123 0.53472 0.96864 0.0
H75 H 0.47757 0.56759 0.98841 0.0
C76 C 0.46573 0.59784 0.96441 0.0
O77 O 0.51809 0.61329 0.94547 0.0
H78 H 0.43347 0.57445 0.9489 0.0
C79 C 0.59869 0.49378 0.88768 0.0
C80 C 0.61481 0.49276 0.92266 0.0
C81 C 0.55676 0.53587 0.87173 0.0
C82 C 0.52938 0.57572 0.89164 0.0
C83 C 0.54532 0.57513 0.92649 0.0
C84 C 0.58892 0.53459 0.94172 0.0
H85 H 0.56546 0.59146 0.14704 0.0
H86 H 0.42906 0.45629 0.14081 0.0
H87 H 0.49028 0.5666 0.04849 0.0
H88 H 0.35688 0.5354 0.04854 0.0
C89 C 0.35887 0.49364 0.06719 0.0
O90 O 0.41894 0.47778 0.07342 0.0
H91 H 0.33553 0.50096 0.09169 0.0
C92 C 0.53438 0.56822 0.13211 0.0
C93 C 0.53259 0.58414 0.09588 0.0
C94 C 0.49615 0.52291 0.14884 0.0
C95 C 0.458 0.4921 0.1286 0.0
C96 C 0.45573 0.50799 0.09255 0.0
C97 C 0.49237 0.55444 0.07634 0.0
H98 H 0.20382 0.13959 0.0527 0.0
C99 C 0.17118 0.15353 0.03223 0.0
H100 H 0.13775 0.22618 0.99729 0.0
H101 H 0.25779 0.36354 0.12014 0.0
H102 H 0.17491 0.31857 0.15602 0.0
H103 H 0.10599 0.24594 0.13472 0.0
H104 H 0.11968 0.21774 0.07751 0.0
C105 C 0.16952 0.21111 0.01799 0.0
C106 C 0.21012 0.25612 0.03062 0.0
C107 C 0.20085 0.27285 0.06406 0.0
C108 C 0.24009 0.31539 0.07616 0.0
C109 C 0.22967 0.33127 0.10963 0.0
C110 C 0.18207 0.30595 0.13051 0.0
C111 C 0.14332 0.26502 0.11854 0.0
C112 C 0.15208 0.24884 0.08567 0.0
H113 H 0.29727 0.45826 0.02944 0.0
C114 C 0.32576 0.44545 0.05202 0.0
H115 H 0.35276 0.37624 0.09082 0.0
H116 H 0.23962 0.23463 0.96523 0.0
H117 H 0.3236 0.27845 0.92955 0.0
H118 H 0.39325 0.3503 0.95106 0.0
H119 H 0.37913 0.37918 0.00817 0.0
C120 C 0.32687 0.38836 0.06714 0.0
C121 C 0.28778 0.34208 0.05459 0.0
C122 C 0.29737 0.32495 0.02128 0.0
C123 C 0.25799 0.28251 0.00915 0.0
C124 C 0.26827 0.26654 0.97573 0.0
C125 C 0.31636 0.29124 0.95502 0.0
C126 C 0.35551 0.33178 0.9671 0.0
C127 C 0.34655 0.34837 0.99986 0.0
H128 H 0.15312 0.79965 0.99644 0.0
C129 C 0.1645 0.83432 0.01202 0.0
H130 H 0.23459 0.8716 0.03926 0.0
H131 H 0.39463 0.63482 0.05411 0.0
H132 H 0.37388 0.64407 0.11442 0.0
H133 H 0.30438 0.72213 0.12978 0.0
H134 H 0.25587 0.79158 0.08493 0.0
C135 C 0.2218 0.8374 0.02371 0.0
C136 C 0.26908 0.79453 0.01478 0.0
C137 C 0.29677 0.7543 0.04132 0.0
C138 C 0.33576 0.70846 0.0325 0.0
C139 C 0.36348 0.66934 0.05947 0.0
C140 C 0.3522 0.67444 0.09416 0.0
C141 C 0.31317 0.71844 0.10278 0.0
C142 C 0.28559 0.75801 0.07679 0.0
H143 H 0.45799 0.6956 0.96843 0.0
C144 C 0.43511 0.65269 0.97385 0.0
H145 H 0.35757 0.60581 0.99477 0.0
H146 H 0.23729 0.87387 0.95787 0.0
H147 H 0.25763 0.86416 0.89767 0.0
H148 H 0.31639 0.77881 0.88217 0.0
H149 H 0.35663 0.70378 0.92676 0.0
C150 C 0.37943 0.64904 0.98844 0.0
C151 C 0.34618 0.70226 0.99723 0.0
C152 C 0.32106 0.74439 0.97065 0.0
C153 C 0.28414 0.79169 0.9795 0.0
C154 C 0.26281 0.83529 0.95256 0.0
C155 C 0.27463 0.83056 0.91789 0.0
C156 C 0.30793 0.78267 0.90918 0.0
C157 C 0.331 0.73997 0.93512 0.0
H158 H 0.84695 0.79733 0.00964 0.0
C159 C 0.83441 0.83937 0.01816 0.0
H160 H 0.7691 0.88572 0.04383 0.0
H161 H 0.63188 0.62904 0.01968 0.0
H162 H 0.64526 0.66019 0.95801 0.0
H163 H 0.70029 0.75302 0.93627 0.0
H164 H 0.74378 0.81436 0.97616 0.0
C165 C 0.78113 0.84387 0.03491 0.0
C166 C 0.74241 0.79075 0.04715 0.0
C167 C 0.71436 0.75718 0.02341 0.0
C168 C 0.6792 0.70561 0.03594 0.0
C169 C 0.65596 0.67036 0.01169 0.0
C170 C 0.66379 0.68743 0.97616 0.0
C171 C 0.69503 0.73955 0.96392 0.0
C172 C 0.72014 0.77416 0.98713 0.0
H173 H 0.55085 0.66556 0.05859 0.0
C174 C 0.57134 0.63298 0.07835 0.0
H175 H 0.65106 0.60378 0.10534 0.0
H176 H 0.79202 0.84307 0.10003 0.0
H177 H 0.77372 0.81532 0.16149 0.0
H178 H 0.70571 0.73136 0.18293 0.0
H179 H 0.65647 0.6741 0.14307 0.0
C180 C 0.63073 0.63726 0.08604 0.0
C181 C 0.66873 0.69001 0.07213 0.0
C182 C 0.69578 0.72435 0.09579 0.0
C183 C 0.73333 0.77407 0.08335 0.0
C184 C 0.76166 0.80592 0.1078 0.0
C185 C 0.75178 0.79034 0.14327 0.0
C186 C 0.71366 0.743 0.15534 0.0
C187 C 0.68585 0.7103 0.13206 0.0
H188 H 0.79779 0.16002 1.00062 0.0
C189 C 0.84436 0.17074 0.99228 0.0
H190 H 0.90379 0.23622 0.96689 0.0
H191 H 0.70847 0.382 0.87335 0.0
H192 H 0.7725 0.34334 0.8309 0.0
H193 H 0.85311 0.26987 0.84916 0.0
H194 H 0.8706 0.23524 0.90999 0.0
C195 C 0.85749 0.2254 0.97567 0.0
C196 C 0.80875 0.27006 0.9652 0.0
C197 C 0.79858 0.28923 0.92943 0.0
C198 C 0.75107 0.3304 0.91887 0.0
C199 C 0.74294 0.34979 0.88293 0.0
C200 C 0.77956 0.32812 0.85821 0.0
C201 C 0.825 0.28687 0.86849 0.0
C202 C 0.83461 0.26748 0.90359 0.0
H203 H 0.69268 0.46405 0.95708 0.0
C204 C 0.66017 0.44932 0.93909 0.0
H205 H 0.62884 0.3776 0.91481 0.0
H206 H 0.82193 0.25024 0.03588 0.0
H207 H 0.75476 0.28504 0.07842 0.0
H208 H 0.66571 0.34794 0.06004 0.0
H209 H 0.6443 0.37768 0.99908 0.0
C210 C 0.6621 0.39281 0.9322 0.0
C211 C 0.71295 0.35151 0.94406 0.0
C212 C 0.72284 0.33208 0.97986 0.0
C213 C 0.77202 0.29281 0.99045 0.0
C214 C 0.78347 0.27749 0.02637 0.0
C215 C 0.74553 0.29755 0.05108 0.0
C216 C 0.69557 0.33318 0.04073 0.0
C217 C 0.68407 0.35032 0.0056 0.0
H218 H 0.69273 0.72797 0.48342 0.0
C219 C 0.70338 0.68652 0.49997 0.0
H220 H 0.76156 0.64407 0.5389 0.0
H221 H 0.92623 0.883 0.47853 0.0
H222 H 0.94061 0.83589 0.42688 0.0
H223 H 0.88549 0.74341 0.4198 0.0
H224 H 0.81538 0.69775 0.46429 0.0
C225 C 0.75189 0.68424 0.52101 0.0
C226 C 0.78671 0.73909 0.5251 0.0
C227 C 0.82799 0.76469 0.49901 0.0
C228 C 0.86057 0.81742 0.50336 0.0
C229 C 0.9009 0.84261 0.47675 0.0
C230 C 0.9095 0.81605 0.44694 0.0
C231 C 0.8784 0.76404 0.44294 0.0
C232 C 0.83814 0.7384 0.4686 0.0
H233 H 0.96945 0.8523 0.54985 0.0
C234 C 0.94548 0.89458 0.54861 0.0
H235 H 0.86234 0.94012 0.53826 0.0
H236 H 0.71067 0.70164 0.57998 0.0
H237 H 0.69714 0.74844 0.63171 0.0
H238 H 0.75425 0.83936 0.63945 0.0
H239 H 0.82522 0.88416 0.59534 0.0
C240 C 0.8868 0.8982 0.53916 0.0
C241 C 0.85209 0.84398 0.5339 0.0
C242 C 0.81072 0.8185 0.55989 0.0
C243 C 0.77818 0.76585 0.55556 0.0
C244 C 0.73704 0.74136 0.58198 0.0
C245 C 0.72872 0.76781 0.61184 0.0
C246 C 0.76083 0.81903 0.61617 0.0
C247 C 0.8014 0.84429 0.59061 0.0
H248 H 0.75052 0.36312 0.51113 0.0
C249 C 0.70469 0.35551 0.50222 0.0
H250 H 0.64728 0.29893 0.47829 0.0
H251 H 0.84076 0.17431 0.39543 0.0
H252 H 0.7853 0.23394 0.3494 0.0
H253 H 0.71032 0.30874 0.36257 0.0
H254 H 0.68986 0.32403 0.42178 0.0
C255 C 0.69278 0.30619 0.48779 0.0
C256 C 0.74158 0.26373 0.48044 0.0
C257 C 0.75413 0.25628 0.44553 0.0
C258 C 0.79852 0.21413 0.4379 0.0
C259 C 0.80854 0.20646 0.4028 0.0
C260 C 0.77686 0.24031 0.37605 0.0
C261 C 0.73457 0.28234 0.38345 0.0
C262 C 0.72314 0.29047 0.41766 0.0
H263 H 0.82884 0.06192 0.48445 0.0
C264 C 0.86781 0.07609 0.46796 0.0
H265 H 0.91264 0.14905 0.43868 0.0
H266 H 0.72482 0.26184 0.55048 0.0
H267 H 0.78476 0.20679 0.59635 0.0
H268 H 0.86894 0.14157 0.58273 0.0
H269 H 0.89257 0.12988 0.5232 0.0
C270 C 0.87592 0.13452 0.45673 0.0
C271 C 0.83122 0.18012 0.46516 0.0
C272 C 0.82036 0.18916 0.50003 0.0
C273 C 0.7742 0.2296 0.50776 0.0
C274 C 0.76124 0.23414 0.54296 0.0
C275 C 0.79504 0.2024 0.5696 0.0
C276 C 0.84224 0.16548 0.56195 0.0
C277 C 0.855 0.15879 0.52764 0.0
H278 H 0.35215 0.35774 0.56441 0.0
C279 C 0.38076 0.35257 0.54212 0.0
H280 H 0.40283 0.29623 0.50484 0.0
H281 H 0.27705 0.12069 0.63875 0.0
H282 H 0.37368 0.13263 0.66702 0.0
H283 H 0.45316 0.19944 0.63823 0.0
H284 H 0.43635 0.25494 0.58106 0.0
C285 C 0.37598 0.30251 0.52756 0.0
C286 C 0.33247 0.25515 0.54238 0.0
C287 C 0.34356 0.22206 0.57547 0.0
C288 C 0.29813 0.18294 0.59185 0.0
C289 C 0.31001 0.15109 0.62513 0.0
C290 C 0.36533 0.1574 0.64162 0.0
C291 C 0.41005 0.19507 0.62543 0.0
C292 C 0.39963 0.22698 0.59272 0.0
H293 H 0.20352 0.07124 0.56058 0.0
C294 C 0.18068 0.08402 0.58328 0.0
H295 H 0.17149 0.15232 0.61493 0.0
H296 H 0.2996 0.30758 0.47759 0.0
H297 H 0.20378 0.29424 0.44866 0.0
H298 H 0.12416 0.22747 0.47733 0.0
H299 H 0.13981 0.17351 0.53494 0.0
C300 C 0.19408 0.13712 0.59293 0.0
C301 C 0.24224 0.17605 0.5748 0.0
C302 C 0.23211 0.20727 0.54108 0.0
C303 C 0.27764 0.24646 0.52473 0.0
C304 C 0.26638 0.27747 0.49119 0.0
C305 C 0.21163 0.27022 0.47432 0.0
C306 C 0.16683 0.23256 0.49044 0.0
C307 C 0.17656 0.20156 0.52348 0.0
H308 H 0.32309 0.65608 0.51604 0.0
C309 C 0.36623 0.67249 0.50457 0.0
H310 H 0.4122 0.74305 0.47412 0.0
H311 H 0.19314 0.84556 0.38299 0.0
H312 H 0.26166 0.81245 0.34085 0.0
H313 H 0.35355 0.75415 0.35944 0.0
H314 H 0.37793 0.72974 0.42023 0.0
C315 C 0.36909 0.72687 0.48571 0.0
C316 C 0.31292 0.76176 0.47525 0.0
C317 C 0.29855 0.77449 0.43949 0.0
C318 C 0.24441 0.80624 0.42884 0.0
C319 C 0.23255 0.82014 0.39281 0.0
C320 C 0.27172 0.80159 0.3682 0.0
C321 C 0.3235 0.76894 0.37865 0.0
C322 C 0.33701 0.75542 0.41377 0.0
H323 H 0.16167 0.93207 0.46573 0.0
C324 C 0.13394 0.91105 0.44784 0.0
H325 H 0.11744 0.83462 0.42436 0.0
H326 H 0.33115 0.75325 0.54535 0.0
H327 H 0.25962 0.78116 0.58798 0.0
H328 H 0.15996 0.82532 0.57002 0.0
H329 H 0.13198 0.84324 0.50935 0.0
C330 C 0.14624 0.85517 0.44199 0.0
C331 C 0.20354 0.82362 0.454 0.0
C332 C 0.21744 0.81013 0.48981 0.0
C333 C 0.27323 0.78107 0.50036 0.0
C334 C 0.2881 0.77232 0.53605 0.0
C335 C 0.24764 0.78855 0.56078 0.0
C336 C 0.19166 0.81366 0.55066 0.0
C337 C 0.17641 0.82425 0.51566 0.0
H338 H 0.93088 0.99406 0.15487 0.0
C339 C 0.97651 0.98587 0.14556 0.0
H340 H 0.06902 0.97298 0.15929 0.0
H341 H 0.04913 0.09866 0.29354 0.0
H342 H 0.10877 0.17091 0.25537 0.0
H343 H 0.1249 0.15913 0.19396 0.0
H344 H 0.08165 0.07504 0.17035 0.0
C345 C 0.02266 0.97847 0.16828 0.0
C346 C 0.01289 0.98484 0.20549 0.0
C347 C 0.03896 0.03405 0.21895 0.0
C348 C 0.02986 0.04079 0.25438 0.0
C349 C 0.0555 0.09089 0.26697 0.0
C350 C 0.08954 0.13287 0.2453 0.0
C351 C 0.0986 0.12625 0.21072 0.0
C352 C 0.07361 0.07763 0.19753 0.0
H353 H 0.07939 0.97151 0.32315 0.0
C354 C 0.03795 0.9861 0.33495 0.0
H355 H 0.94645 0.01281 0.32474 0.0
H356 H 0.9598 0.88305 0.18886 0.0
H357 H 0.89868 0.81217 0.22685 0.0
H358 H 0.88044 0.82573 0.28781 0.0
H359 H 0.92355 0.91023 0.31118 0.0
C360 C 0.99022 0.00184 0.31419 0.0
C361 C 0.99505 0.99812 0.27639 0.0
C362 C 0.96799 0.94959 0.26282 0.0
C363 C 0.97755 0.94244 0.22746 0.0
C364 C 0.95249 0.89181 0.21514 0.0
C365 C 0.91766 0.85046 0.23677 0.0
C366 C 0.90747 0.85804 0.27111 0.0
C367 C 0.93245 0.90677 0.28418 0.0
H368 H 0.04769 0.07222 0.86683 0.0
C369 C 0.03205 0.0288 0.87924 0.0
H370 H 0.01032 0.94058 0.87206 0.0
H371 H 0.00378 0.09501 0.7121 0.0
H372 H 0.91796 0.14808 0.73251 0.0
H373 H 0.88518 0.12903 0.79377 0.0
H374 H 0.93871 0.05758 0.83511 0.0
C375 C 0.02404 0.98475 0.85988 0.0
C376 C 0.03982 0.99292 0.82218 0.0
C377 C 0.00636 0.03307 0.79803 0.0
C378 C 0.02356 0.04209 0.76235 0.0
C379 C 0.99139 0.08477 0.7392 0.0
C380 C 0.94219 0.11583 0.75061 0.0
C381 C 0.92387 0.10526 0.78513 0.0
C382 C 0.95531 0.06437 0.80865 0.0
H383 H 0.01189 0.97784 0.69706 0.0
C384 C 0.05513 0.99895 0.68889 0.0
H385 H 0.13624 0.03477 0.70688 0.0
H386 H 0.11342 0.91233 0.86142 0.0
H387 H 0.19653 0.85628 0.84054 0.0
H388 H 0.2236 0.86895 0.77839 0.0
H389 H 0.16784 0.93792 0.7367 0.0
C390 C 0.09079 0.01769 0.71326 0.0
C391 C 0.07255 0.00909 0.7506 0.0
C392 C 0.1052 0.96815 0.77464 0.0
C393 C 0.08896 0.96017 0.81043 0.0
C394 C 0.12312 0.91962 0.83387 0.0
C395 C 0.17111 0.88722 0.82227 0.0
C396 C 0.18639 0.89439 0.78728 0.0
C397 C 0.15403 0.93427 0.76363 0.0
H398 H 0.61683 0.51001 0.65319 0.0
C399 C 0.57088 0.51618 0.64298 0.0
H400 H 0.47825 0.52984 0.65506 0.0
H401 H 0.51149 0.42619 0.81405 0.0
H402 H 0.45194 0.34761 0.79399 0.0
H403 H 0.42975 0.3498 0.73178 0.0
H404 H 0.46703 0.43052 0.68921 0.0
C405 C 0.52476 0.52527 0.66452 0.0
C406 C 0.53533 0.52602 0.70218 0.0
C407 C 0.51236 0.47899 0.72673 0.0
C408 C 0.52503 0.47777 0.76262 0.0
C409 C 0.50281 0.42954 0.78652 0.0
C410 C 0.46866 0.38409 0.77535 0.0
C411 C 0.45617 0.38532 0.74032 0.0
C412 C 0.47777 0.43199 0.71616 0.0
H413 H 0.496 0.55704 0.82625 0.0
C414 C 0.53997 0.53821 0.83462 0.0
H415 H 0.62375 0.50539 0.81762 0.0
H416 H 0.57843 0.62728 0.66258 0.0
H417 H 0.63637 0.70655 0.68293 0.0
H418 H 0.66112 0.70265 0.7449 0.0
H419 H 0.62702 0.61985 0.78709 0.0
C420 C 0.57781 0.52025 0.81084 0.0
C421 C 0.56027 0.52379 0.77383 0.0
C422 C 0.58164 0.57173 0.74944 0.0
C423 C 0.56856 0.57327 0.7136 0.0
C424 C 0.58857 0.6229 0.68997 0.0
C425 C 0.62161 0.6689 0.70132 0.0
C426 C 0.63541 0.66678 0.73624 0.0
C427 C 0.61568 0.61894 0.76016 0.0
H428 H 0.52829 0.57899 0.36314 0.0
C429 C 0.51979 0.535 0.37754 0.0
H430 H 0.49805 0.44528 0.3738 0.0
H431 H 0.42153 0.60732 0.22187 0.0
H432 H 0.34539 0.65309 0.25497 0.0
H433 H 0.3388 0.62725 0.31858 0.0
H434 H 0.40858 0.55587 0.34947 0.0
C435 C 0.5053 0.48991 0.36006 0.0
C436 C 0.5032 0.49936 0.32135 0.0
C437 C 0.46074 0.53985 0.30355 0.0
C438 C 0.46367 0.55378 0.26679 0.0
C439 C 0.42144 0.59516 0.24976 0.0
C440 C 0.37731 0.62161 0.26843 0.0
C441 C 0.37365 0.60713 0.30424 0.0
C442 C 0.41446 0.5665 0.32169 0.0
H443 H 0.4779 0.46232 0.19772 0.0
C444 C 0.4954 0.50611 0.1872 0.0
H445 H 0.52536 0.58902 0.20012 0.0
H446 H 0.5878 0.41586 0.34701 0.0
H447 H 0.66201 0.36819 0.31363 0.0
H448 H 0.66752 0.39283 0.25002 0.0
H449 H 0.59869 0.4651 0.21923 0.0
C450 C 0.51244 0.54332 0.20946 0.0
C451 C 0.5078 0.52595 0.24774 0.0
C452 C 0.54853 0.48353 0.26536 0.0
C453 C 0.54587 0.46987 0.30218 0.0
C454 C 0.5876 0.42789 0.31912 0.0
C455 C 0.63057 0.40023 0.30031 0.0
C456 C 0.63363 0.41406 0.26446 0.0
C457 C 0.59349 0.45542 0.24707 0.0
loop_
_geom_bond_atom_site_label_1
_geom_bond_atom_site_label_2
_geom_bond_distance
_geom_bond_site_symmetry_2
_ccdc_geom_bond_type
O0 Zn1 1.953 . S
O0 C16 1.223 1_565 S
Zn1 O0 1.953 . S
Zn1 O2 1.949 1_565 S
Zn1 O8 1.919 . S
Zn1 O13 1.924 1_565 S
O2 Zn1 1.949 1_545 S
O2 Zn3 1.923 1_544 S
O2 Zn4 1.950 1_455 S
O2 Zn5 1.945 1_554 S
Zn3 O2 1.923 1_566 S
Zn3 O6 1.933 . S
Zn3 O9 1.941 . S
Zn3 O10 1.965 1_455 S
Zn4 O2 1.950 1_655 S
Zn4 O11 1.938 1_545 S
Zn4 O12 1.906 . S
Zn4 O22 1.953 . S
Zn5 O2 1.945 1_556 S
Zn5 O7 1.932 . S
Zn5 O14 1.977 1_455 S
Zn5 O15 1.910 . S
O6 Zn3 1.933 . S
O6 C17 1.226 1_565 S
O7 Zn5 1.932 . S
O7 C17 1.307 . S
O8 Zn1 1.919 . S
O8 C19 1.253 . S
O9 Zn3 1.941 . S
O9 C19 1.283 1_556 S
O10 Zn3 1.965 1_655 S
O10 C18 1.303 1_556 S
O11 Zn4 1.938 1_565 S
O11 C18 1.247 . S
O12 Zn4 1.906 . S
O12 C20 1.304 1_554 S
O13 Zn1 1.924 1_545 S
O13 C21 1.311 . S
O14 Zn5 1.977 1_655 S
O14 C20 1.272 . S
O15 Zn5 1.910 . S
O15 C21 1.231 1_556 S
C16 O0 1.223 1_545 S
C16 O22 1.300 1_455 S
C17 O6 1.226 1_545 S
C17 O7 1.307 . S
C18 O10 1.303 1_554 S
C18 O11 1.247 . S
C19 O8 1.253 . S
C19 O9 1.283 1_554 S
C20 O12 1.304 1_556 S
C20 O14 1.272 . S
C21 O13 1.311 . S
C21 O15 1.231 1_554 S
O22 Zn4 1.953 . S
O22 C16 1.300 1_655 S
O23 Zn24 1.953 . S
O23 C39 1.225 . S
Zn24 O23 1.953 . S
Zn24 O25 1.949 . S
Zn24 O31 1.919 . S
Zn24 O36 1.924 . S
O25 Zn24 1.949 . S
O25 Zn26 1.923 . S
O25 Zn27 1.950 . S
O25 Zn28 1.945 . S
Zn26 O25 1.923 . S
Zn26 O29 1.933 . S
Zn26 O32 1.941 . S
Zn26 O33 1.965 . S
Zn27 O25 1.950 . S
Zn27 O34 1.938 . S
Zn27 O35 1.906 . S
Zn27 O45 1.953 . S
Zn28 O25 1.945 . S
Zn28 O30 1.932 . S
Zn28 O37 1.977 . S
Zn28 O38 1.910 . S
O29 Zn26 1.933 . S
O29 C40 1.226 . S
O30 Zn28 1.932 . S
O30 C40 1.307 . S
O31 Zn24 1.919 . S
O31 C42 1.253 . S
O32 Zn26 1.941 . S
O32 C42 1.283 . S
O33 Zn26 1.965 . S
O33 C41 1.303 . S
O34 Zn27 1.938 . S
O34 C41 1.247 . S
O35 Zn27 1.906 . S
O35 C43 1.304 . S
O36 Zn24 1.924 . S
O36 C44 1.311 . S
O37 Zn28 1.977 . S
O37 C43 1.272 . S
O38 Zn28 1.910 . S
O38 C44 1.231 . S
C39 O23 1.225 . S
C39 O45 1.298 . S
C40 O29 1.226 . S
C40 O30 1.307 . S
C41 O33 1.303 . S
C41 O34 1.247 . S
C42 O31 1.253 . S
C42 O32 1.283 . S
C43 O35 1.304 . S
C43 O37 1.272 . S
C44 O36 1.311 . S
C44 O38 1.231 . S
O45 Zn27 1.953 . S
O45 C39 1.298 . S
H46 C53 0.929 . S
H47 C56 0.930 . S
H48 C58 0.929 . S
H49 C50 0.969 . S
C50 H49 0.969 . S
C50 O51 1.550 . S
C50 H52 0.973 . S
O51 C50 1.550 . S
O51 C57 1.412 . S
H52 C50 0.973 . S
C53 H46 0.929 . S
C53 C54 1.400 . S
C53 C55 1.364 . S
C54 C53 1.400 . S
C54 C58 1.377 . S
C55 C53 1.364 . S
C55 C56 1.374 1_465 S
C56 H47 0.930 . S
C56 C55 1.374 1_645 S
C56 C57 1.383 . S
C57 O51 1.412 . S
C57 C56 1.383 . S
C57 C58 1.394 1_645 S
C58 H48 0.929 . S
C58 C54 1.377 . S
C58 C57 1.394 1_465 S
H59 C66 0.929 . S
H60 C69 0.930 1_655 S
H61 C71 0.929 . S
H62 C63 0.969 . S
C63 H62 0.969 . S
C63 O64 1.550 . S
C63 H65 0.973 . S
O64 C63 1.550 . S
O64 C70 1.412 1_665 S
H65 C63 0.973 . S
C66 H59 0.929 . S
C66 C67 1.400 . S
C66 C68 1.364 . S
C67 C66 1.400 . S
C67 C71 1.377 . S
C68 C66 1.364 . S
C68 C69 1.374 1_545 S
C69 H60 0.930 1_455 S
C69 C68 1.374 1_565 S
C69 C70 1.383 1_565 S
C70 O64 1.412 1_445 S
C70 C69 1.383 1_545 S
C70 C71 1.394 . S
C71 H61 0.929 . S
C71 C67 1.377 . S
C71 C70 1.394 . S
H72 C79 0.929 . S
H73 C82 0.930 . S
H74 C84 0.929 . S
H75 C76 0.969 . S
C76 H75 0.969 . S
C76 O77 1.550 . S
C76 H78 0.973 . S
O77 C76 1.550 . S
O77 C83 1.412 . S
H78 C76 0.973 . S
C79 H72 0.929 . S
C79 C80 1.400 . S
C79 C81 1.364 . S
C80 C79 1.400 . S
C80 C84 1.377 . S
C81 C79 1.364 . S
C81 C82 1.374 . S
C82 H73 0.930 . S
C82 C81 1.374 . S
C82 C83 1.383 . S
C83 O77 1.412 . S
C83 C82 1.383 . S
C83 C84 1.394 . S
C84 H74 0.929 . S
C84 C80 1.377 . S
C84 C83 1.394 . S
H85 C92 0.929 . S
H86 C95 0.930 . S
H87 C97 0.929 . S
H88 C89 0.969 . S
C89 H88 0.969 . S
C89 O90 1.550 . S
C89 H91 0.973 . S
O90 C89 1.550 . S
O90 C96 1.412 . S
H91 C89 0.973 . S
C92 H85 0.929 . S
C92 C93 1.400 . S
C92 C94 1.364 . S
C93 C92 1.400 . S
C93 C97 1.377 . S
C94 C92 1.364 . S
C94 C95 1.374 . S
C95 H86 0.930 . S
C95 C94 1.374 . S
C95 C96 1.383 . S
C96 O90 1.412 . S
C96 C95 1.383 . S
C96 C97 1.394 . S
C97 H87 0.929 . S
C97 C93 1.377 . S
C97 C96 1.394 . S
H98 C99 0.951 . S
C99 H98 0.951 . S
C99 C105 1.265 . S
H100 C105 0.950 . S
H101 C109 0.949 . S
H102 C110 0.950 . S
H103 C111 0.951 . S
H104 C112 0.951 . S
C105 C99 1.265 . S
C105 H100 0.950 . S
C105 C106 1.478 . S
C106 C105 1.478 . S
C106 C107 1.397 . S
C106 C123 1.394 . S
C107 C106 1.397 . S
C107 C108 1.438 . S
C107 C112 1.429 . S
C108 C107 1.438 . S
C108 C109 1.428 . S
C108 C121 1.394 . S
C109 H101 0.949 . S
C109 C108 1.428 . S
C109 C110 1.345 . S
C110 H102 0.950 . S
C110 C109 1.345 . S
C110 C111 1.424 . S
C111 H103 0.951 . S
C111 C110 1.424 . S
C111 C112 1.347 . S
C112 H104 0.951 . S
C112 C107 1.429 . S
C112 C111 1.347 . S
H113 C114 0.951 . S
C114 H113 0.951 . S
C114 C120 1.265 . S
H115 C120 0.950 . S
H116 C124 0.949 . S
H117 C125 0.950 . S
H118 C126 0.951 . S
H119 C127 0.951 . S
C120 C114 1.265 . S
C120 H115 0.950 . S
C120 C121 1.478 . S
C121 C108 1.394 . S
C121 C120 1.478 . S
C121 C122 1.397 . S
C122 C121 1.397 . S
C122 C123 1.438 . S
C122 C127 1.429 1_554 S
C123 C106 1.394 . S
C123 C122 1.438 . S
C123 C124 1.428 1_554 S
C124 H116 0.949 . S
C124 C123 1.428 1_556 S
C124 C125 1.345 . S
C125 H117 0.950 . S
C125 C124 1.345 . S
C125 C126 1.424 . S
C126 H118 0.951 . S
C126 C125 1.424 . S
C126 C127 1.347 . S
C127 H119 0.951 . S
C127 C122 1.429 1_556 S
C127 C126 1.347 . S
H128 C129 0.951 . S
C129 H128 0.951 . S
C129 C135 1.265 . S
H130 C135 0.950 . S
H131 C139 0.949 . S
H132 C140 0.950 . S
H133 C141 0.951 . S
H134 C142 0.951 . S
C135 C129 1.265 . S
C135 H130 0.950 . S
C135 C136 1.478 . S
C136 C135 1.478 . S
C136 C137 1.397 1_556 S
C136 C153 1.394 . S
C137 C136 1.397 1_554 S
C137 C138 1.438 1_554 S
C137 C142 1.429 . S
C138 C137 1.438 1_556 S
C138 C139 1.428 1_556 S
C138 C151 1.394 . S
C139 H131 0.949 . S
C139 C138 1.428 1_554 S
C139 C140 1.345 . S
C140 H132 0.950 . S
C140 C139 1.345 . S
C140 C141 1.424 . S
C141 H133 0.951 . S
C141 C140 1.424 . S
C141 C142 1.347 . S
C142 H134 0.951 . S
C142 C137 1.429 . S
C142 C141 1.347 . S
H143 C144 0.951 . S
C144 H143 0.951 . S
C144 C150 1.265 . S
H145 C150 0.950 . S
H146 C154 0.949 . S
H147 C155 0.950 . S
H148 C156 0.951 . S
H149 C157 0.951 . S
C150 C144 1.265 . S
C150 H145 0.950 . S
C150 C151 1.478 . S
C151 C138 1.394 . S
C151 C150 1.478 . S
C151 C152 1.397 . S
C152 C151 1.397 . S
C152 C153 1.438 . S
C152 C157 1.429 . S
C153 C136 1.394 . S
C153 C152 1.438 . S
C153 C154 1.428 . S
C154 H146 0.949 . S
C154 C153 1.428 . S
C154 C155 1.345 . S
C155 H147 0.950 . S
C155 C154 1.345 . S
C155 C156 1.424 . S
C156 H148 0.951 . S
C156 C155 1.424 . S
C156 C157 1.347 . S
C157 H149 0.951 . S
C157 C152 1.429 . S
C157 C156 1.347 . S
H158 C159 0.951 . S
C159 H158 0.951 . S
C159 C165 1.265 . S
H160 C165 0.950 . S
H161 C169 0.949 . S
H162 C170 0.950 . S
H163 C171 0.951 . S
H164 C172 0.951 . S
C165 C159 1.265 . S
C165 H160 0.950 . S
C165 C166 1.478 . S
C166 C165 1.478 . S
C166 C167 1.397 . S
C166 C183 1.394 . S
C167 C166 1.397 . S
C167 C168 1.438 . S
C167 C172 1.429 1_554 S
C168 C167 1.438 . S
C168 C169 1.428 . S
C168 C181 1.394 . S
C169 H161 0.949 . S
C169 C168 1.428 . S
C169 C170 1.345 1_554 S
C170 H162 0.950 . S
C170 C169 1.345 1_556 S
C170 C171 1.424 . S
C171 H163 0.951 . S
C171 C170 1.424 . S
C171 C172 1.347 . S
C172 H164 0.951 . S
C172 C167 1.429 1_556 S
C172 C171 1.347 . S
H173 C174 0.951 . S
C174 H173 0.951 . S
C174 C180 1.265 . S
H175 C180 0.950 . S
H176 C184 0.949 . S
H177 C185 0.950 . S
H178 C186 0.951 . S
H179 C187 0.951 . S
C180 C174 1.265 . S
C180 H175 0.950 . S
C180 C181 1.478 . S
C181 C168 1.394 . S
C181 C180 1.478 . S
C181 C182 1.397 . S
C182 C181 1.397 . S
C182 C183 1.438 . S
C182 C187 1.429 . S
C183 C166 1.394 . S
C183 C182 1.438 . S
C183 C184 1.428 . S
C184 H176 0.949 . S
C184 C183 1.428 . S
C184 C185 1.345 . S
C185 H177 0.950 . S
C185 C184 1.345 . S
C185 C186 1.424 . S
C186 H178 0.951 . S
C186 C185 1.424 . S
C186 C187 1.347 . S
C187 H179 0.951 . S
C187 C182 1.429 . S
C187 C186 1.347 . S
H188 C189 0.951 . S
C189 H188 0.951 . S
C189 C195 1.265 . S
H190 C195 0.950 . S
H191 C199 0.949 . S
H192 C200 0.950 . S
H193 C201 0.951 . S
H194 C202 0.951 . S
C195 C189 1.265 . S
C195 H190 0.950 . S
C195 C196 1.478 . S
C196 C195 1.478 . S
C196 C197 1.397 . S
C196 C213 1.394 . S
C197 C196 1.397 . S
C197 C198 1.438 . S
C197 C202 1.429 . S
C198 C197 1.438 . S
C198 C199 1.428 . S
C198 C211 1.394 . S
C199 H191 0.949 . S
C199 C198 1.428 . S
C199 C200 1.345 . S
C200 H192 0.950 . S
C200 C199 1.345 . S
C200 C201 1.424 . S
C201 H193 0.951 . S
C201 C200 1.424 . S
C201 C202 1.347 . S
C202 H194 0.951 . S
C202 C197 1.429 . S
C202 C201 1.347 . S
H203 C204 0.951 . S
C204 H203 0.951 . S
C204 C210 1.265 . S
H205 C210 0.950 . S
H206 C214 0.949 . S
H207 C215 0.950 . S
H208 C216 0.951 . S
H209 C217 0.951 . S
C210 C204 1.265 . S
C210 H205 0.950 . S
C210 C211 1.478 . S
C211 C198 1.394 . S
C211 C210 1.478 . S
C211 C212 1.397 . S
C212 C211 1.397 . S
C212 C213 1.438 . S
C212 C217 1.429 1_556 S
C213 C196 1.394 . S
C213 C212 1.438 . S
C213 C214 1.428 1_556 S
C214 H206 0.949 . S
C214 C213 1.428 1_554 S
C214 C215 1.345 . S
C215 H207 0.950 . S
C215 C214 1.345 . S
C215 C216 1.424 . S
C216 H208 0.951 . S
C216 C215 1.424 . S
C216 C217 1.347 . S
C217 H209 0.951 . S
C217 C212 1.429 1_554 S
C217 C216 1.347 . S
H218 C219 0.951 . S
C219 H218 0.951 . S
C219 C225 1.265 . S
H220 C225 0.950 . S
H221 C229 0.949 . S
H222 C230 0.950 . S
H223 C231 0.951 . S
H224 C232 0.951 . S
C225 C219 1.265 . S
C225 H220 0.950 . S
C225 C226 1.478 . S
C226 C225 1.478 . S
C226 C227 1.397 . S
C226 C243 1.394 . S
C227 C226 1.397 . S
C227 C228 1.438 . S
C227 C232 1.429 . S
C228 C227 1.438 . S
C228 C229 1.428 . S
C228 C241 1.394 . S
C229 H221 0.949 . S
C229 C228 1.428 . S
C229 C230 1.345 . S
C230 H222 0.950 . S
C230 C229 1.345 . S
C230 C231 1.424 . S
C231 H223 0.951 . S
C231 C230 1.424 . S
C231 C232 1.347 . S
C232 H224 0.951 . S
C232 C227 1.429 . S
C232 C231 1.347 . S
H233 C234 0.951 . S
C234 H233 0.951 . S
C234 C240 1.265 . S
H235 C240 0.950 . S
H236 C244 0.949 . S
H237 C245 0.950 . S
H238 C246 0.951 . S
H239 C247 0.951 . S
C240 C234 1.265 . S
C240 H235 0.950 . S
C240 C241 1.478 . S
C241 C228 1.394 . S
C241 C240 1.478 . S
C241 C242 1.397 . S
C242 C241 1.397 . S
C242 C243 1.438 . S
C242 C247 1.429 . S
C243 C226 1.394 . S
C243 C242 1.438 . S
C243 C244 1.428 . S
C244 H236 0.949 . S
C244 C243 1.428 . S
C244 C245 1.345 . S
C245 H237 0.950 . S
C245 C244 1.345 . S
C245 C246 1.424 . S
C246 H238 0.951 . S
C246 C245 1.424 . S
C246 C247 1.347 . S
C247 H239 0.951 . S
C247 C242 1.429 . S
C247 C246 1.347 . S
H248 C249 0.951 . S
C249 H248 0.951 . S
C249 C255 1.265 . S
H250 C255 0.950 . S
H251 C259 0.949 . S
H252 C260 0.950 . S
H253 C261 0.951 . S
H254 C262 0.951 . S
C255 C249 1.265 . S
C255 H250 0.950 . S
C255 C256 1.478 . S
C256 C255 1.478 . S
C256 C257 1.397 . S
C256 C273 1.394 . S
C257 C256 1.397 . S
C257 C258 1.438 . S
C257 C262 1.429 . S
C258 C257 1.438 . S
C258 C259 1.428 . S
C258 C271 1.394 . S
C259 H251 0.949 . S
C259 C258 1.428 . S
C259 C260 1.345 . S
C260 H252 0.950 . S
C260 C259 1.345 . S
C260 C261 1.424 . S
C261 H253 0.951 . S
C261 C260 1.424 . S
C261 C262 1.347 . S
C262 H254 0.951 . S
C262 C257 1.429 . S
C262 C261 1.347 . S
H263 C264 0.951 . S
C264 H263 0.951 . S
C264 C270 1.265 . S
H265 C270 0.950 . S
H266 C274 0.949 . S
H267 C275 0.950 . S
H268 C276 0.951 . S
H269 C277 0.951 . S
C270 C264 1.265 . S
C270 H265 0.950 . S
C270 C271 1.478 . S
C271 C258 1.394 . S
C271 C270 1.478 . S
C271 C272 1.397 . S
C272 C271 1.397 . S
C272 C273 1.438 . S
C272 C277 1.429 . S
C273 C256 1.394 . S
C273 C272 1.438 . S
C273 C274 1.428 . S
C274 H266 0.949 . S
C274 C273 1.428 . S
C274 C275 1.345 . S
C275 H267 0.950 . S
C275 C274 1.345 . S
C275 C276 1.424 . S
C276 H268 0.951 . S
C276 C275 1.424 . S
C276 C277 1.347 . S
C277 H269 0.951 . S
C277 C272 1.429 . S
C277 C276 1.347 . S
H278 C279 0.951 . S
C279 H278 0.951 . S
C279 C285 1.265 . S
H280 C285 0.950 . S
H281 C289 0.949 . S
H282 C290 0.950 . S
H283 C291 0.951 . S
H284 C292 0.951 . S
C285 C279 1.265 . S
C285 H280 0.950 . S
C285 C286 1.478 . S
C286 C285 1.478 . S
C286 C287 1.397 . S
C286 C303 1.394 . S
C287 C286 1.397 . S
C287 C288 1.438 . S
C287 C292 1.429 . S
C288 C287 1.438 . S
C288 C289 1.428 . S
C288 C301 1.394 . S
C289 H281 0.949 . S
C289 C288 1.428 . S
C289 C290 1.345 . S
C290 H282 0.950 . S
C290 C289 1.345 . S
C290 C291 1.424 . S
C291 H283 0.951 . S
C291 C290 1.424 . S
C291 C292 1.347 . S
C292 H284 0.951 . S
C292 C287 1.429 . S
C292 C291 1.347 . S
H293 C294 0.951 . S
C294 H293 0.951 . S
C294 C300 1.265 . S
H295 C300 0.950 . S
H296 C304 0.949 . S
H297 C305 0.950 . S
H298 C306 0.951 . S
H299 C307 0.951 . S
C300 C294 1.265 . S
C300 H295 0.950 . S
C300 C301 1.478 . S
C301 C288 1.394 . S
C301 C300 1.478 . S
C301 C302 1.397 . S
C302 C301 1.397 . S
C302 C303 1.438 . S
C302 C307 1.429 . S
C303 C286 1.394 . S
C303 C302 1.438 . S
C303 C304 1.428 . S
C304 H296 0.949 . S
C304 C303 1.428 . S
C304 C305 1.345 . S
C305 H297 0.950 . S
C305 C304 1.345 . S
C305 C306 1.424 . S
C306 H298 0.951 . S
C306 C305 1.424 . S
C306 C307 1.347 . S
C307 H299 0.951 . S
C307 C302 1.429 . S
C307 C306 1.347 . S
H308 C309 0.951 . S
C309 H308 0.951 . S
C309 C315 1.265 . S
H310 C315 0.950 . S
H311 C319 0.949 . S
H312 C320 0.950 . S
H313 C321 0.951 . S
H314 C322 0.951 . S
C315 C309 1.265 . S
C315 H310 0.950 . S
C315 C316 1.478 . S
C316 C315 1.478 . S
C316 C317 1.397 . S
C316 C333 1.394 . S
C317 C316 1.397 . S
C317 C318 1.438 . S
C317 C322 1.429 . S
C318 C317 1.438 . S
C318 C319 1.428 . S
C318 C331 1.394 . S
C319 H311 0.949 . S
C319 C318 1.428 . S
C319 C320 1.345 . S
C320 H312 0.950 . S
C320 C319 1.345 . S
C320 C321 1.424 . S
C321 H313 0.951 . S
C321 C320 1.424 . S
C321 C322 1.347 . S
C322 H314 0.951 . S
C322 C317 1.429 . S
C322 C321 1.347 . S
H323 C324 0.951 . S
C324 H323 0.951 . S
C324 C330 1.265 . S
H325 C330 0.950 . S
H326 C334 0.949 . S
H327 C335 0.950 . S
H328 C336 0.951 . S
H329 C337 0.951 . S
C330 C324 1.265 . S
C330 H325 0.950 . S
C330 C331 1.478 . S
C331 C318 1.394 . S
C331 C330 1.478 . S
C331 C332 1.397 . S
C332 C331 1.397 . S
C332 C333 1.438 . S
C332 C337 1.429 . S
C333 C316 1.394 . S
C333 C332 1.438 . S
C333 C334 1.428 . S
C334 H326 0.949 . S
C334 C333 1.428 . S
C334 C335 1.345 . S
C335 H327 0.950 . S
C335 C334 1.345 . S
C335 C336 1.424 . S
C336 H328 0.951 . S
C336 C335 1.424 . S
C336 C337 1.347 . S
C337 H329 0.951 . S
C337 C332 1.429 . S
C337 C336 1.347 . S
H338 C339 0.951 1_655 S
C339 H338 0.951 1_455 S
C339 C345 1.265 1_565 S
H340 C345 0.950 . S
H341 C349 0.949 . S
H342 C350 0.950 . S
H343 C351 0.951 . S
H344 C352 0.951 . S
C345 C339 1.265 1_545 S
C345 H340 0.950 . S
C345 C346 1.478 1_545 S
C346 C345 1.478 1_565 S
C346 C347 1.397 1_565 S
C346 C363 1.394 . S
C347 C346 1.397 1_545 S
C347 C348 1.438 . S
C347 C352 1.429 . S
C348 C347 1.438 . S
C348 C349 1.428 . S
C348 C361 1.394 1_545 S
C349 H341 0.949 . S
C349 C348 1.428 . S
C349 C350 1.345 . S
C350 H342 0.950 . S
C350 C349 1.345 . S
C350 C351 1.424 . S
C351 H343 0.951 . S
C351 C350 1.424 . S
C351 C352 1.347 . S
C352 H344 0.951 . S
C352 C347 1.429 . S
C352 C351 1.347 . S
H353 C354 0.951 1_545 S
C354 H353 0.951 1_565 S
C354 C360 1.265 1_455 S
H355 C360 0.950 . S
H356 C364 0.949 . S
H357 C365 0.950 . S
H358 C366 0.951 . S
H359 C367 0.951 . S
C360 C354 1.265 1_655 S
C360 H355 0.950 . S
C360 C361 1.478 1_655 S
C361 C348 1.394 1_565 S
C361 C360 1.478 1_455 S
C361 C362 1.398 . S
C362 C361 1.398 . S
C362 C363 1.439 . S
C362 C367 1.427 1_455 S
C363 C346 1.394 . S
C363 C362 1.439 . S
C363 C364 1.428 . S
C364 H356 0.949 . S
C364 C363 1.428 . S
C364 C365 1.345 1_455 S
C365 H357 0.950 . S
C365 C364 1.345 1_655 S
C365 C366 1.424 . S
C366 H358 0.951 . S
C366 C365 1.424 . S
C366 C367 1.347 . S
C367 H359 0.951 . S
C367 C362 1.427 1_655 S
C367 C366 1.347 . S
H368 C369 0.951 . S
C369 H368 0.951 . S
C369 C375 1.265 . S
H370 C375 0.950 1_655 S
H371 C379 0.949 . S
H372 C380 0.950 . S
H373 C381 0.951 . S
H374 C382 0.951 . S
C375 C369 1.265 . S
C375 H370 0.950 1_455 S
C375 C376 1.478 . S
C376 C375 1.478 . S
C376 C377 1.397 . S
C376 C393 1.394 1_545 S
C377 C376 1.397 . S
C377 C378 1.438 . S
C377 C382 1.429 1_455 S
C378 C377 1.438 . S
C378 C379 1.428 . S
C378 C391 1.394 . S
C379 H371 0.949 . S
C379 C378 1.428 . S
C379 C380 1.345 1_455 S
C380 H372 0.950 . S
C380 C379 1.345 1_655 S
C380 C381 1.424 . S
C381 H373 0.951 . S
C381 C380 1.424 . S
C381 C382 1.347 . S
C382 H374 0.951 . S
C382 C377 1.429 1_655 S
C382 C381 1.347 . S
H383 C384 0.951 1_655 S
C384 H383 0.951 1_455 S
C384 C390 1.265 . S
H385 C390 0.950 . S
H386 C394 0.949 . S
H387 C395 0.950 . S
H388 C396 0.951 . S
H389 C397 0.951 . S
C390 C384 1.265 . S
C390 H385 0.950 . S
C390 C391 1.478 . S
C391 C378 1.394 . S
C391 C390 1.478 . S
C391 C392 1.397 1_545 S
C392 C391 1.397 1_565 S
C392 C393 1.438 . S
C392 C397 1.429 . S
C393 C376 1.394 1_565 S
C393 C392 1.438 . S
C393 C394 1.428 . S
C394 H386 0.949 . S
C394 C393 1.428 . S
C394 C395 1.345 . S
C395 H387 0.950 . S
C395 C394 1.345 . S
C395 C396 1.424 . S
C396 H388 0.951 . S
C396 C395 1.424 . S
C396 C397 1.347 . S
C397 H389 0.951 . S
C397 C392 1.429 . S
C397 C396 1.347 . S
H398 C399 0.951 . S
C399 H398 0.951 . S
C399 C405 1.265 . S
H400 C405 0.950 . S
H401 C409 0.949 . S
H402 C410 0.950 . S
H403 C411 0.951 . S
H404 C412 0.951 . S
C405 C399 1.265 . S
C405 H400 0.950 . S
C405 C406 1.478 . S
C406 C405 1.478 . S
C406 C407 1.397 . S
C406 C423 1.394 . S
C407 C406 1.397 . S
C407 C408 1.438 . S
C407 C412 1.429 . S
C408 C407 1.438 . S
C408 C409 1.428 . S
C408 C421 1.394 . S
C409 H401 0.949 . S
C409 C408 1.428 . S
C409 C410 1.345 . S
C410 H402 0.950 . S
C410 C409 1.345 . S
C410 C411 1.424 . S
C411 H403 0.951 . S
C411 C410 1.424 . S
C411 C412 1.347 . S
C412 H404 0.951 . S
C412 C407 1.429 . S
C412 C411 1.347 . S
H413 C414 0.951 . S
C414 H413 0.951 . S
C414 C420 1.265 . S
H415 C420 0.950 . S
H416 C424 0.949 . S
H417 C425 0.950 . S
H418 C426 0.951 . S
H419 C427 0.951 . S
C420 C414 1.265 . S
C420 H415 0.950 . S
C420 C421 1.478 . S
C421 C408 1.394 . S
C421 C420 1.478 . S
C421 C422 1.397 . S
C422 C421 1.397 . S
C422 C423 1.438 . S
C422 C427 1.429 . S
C423 C406 1.394 . S
C423 C422 1.438 . S
C423 C424 1.428 . S
C424 H416 0.949 . S
C424 C423 1.428 . S
C424 C425 1.345 . S
C425 H417 0.950 . S
C425 C424 1.345 . S
C425 C426 1.424 . S
C426 H418 0.951 . S
C426 C425 1.424 . S
C426 C427 1.347 . S
C427 H419 0.951 . S
C427 C422 1.429 . S
C427 C426 1.347 . S
H428 C429 0.951 . S
C429 H428 0.951 . S
C429 C435 1.265 . S
H430 C435 0.950 . S
H431 C439 0.949 . S
H432 C440 0.950 . S
H433 C441 0.951 . S
H434 C442 0.951 . S
C435 C429 1.265 . S
C435 H430 0.950 . S
C435 C436 1.478 . S
C436 C435 1.478 . S
C436 C437 1.397 . S
C436 C453 1.394 . S
C437 C436 1.397 . S
C437 C438 1.438 . S
C437 C442 1.429 . S
C438 C437 1.438 . S
C438 C439 1.428 . S
C438 C451 1.394 . S
C439 H431 0.949 . S
C439 C438 1.428 . S
C439 C440 1.345 . S
C440 H432 0.950 . S
C440 C439 1.345 . S
C440 C441 1.424 . S
C441 H433 0.951 . S
C441 C440 1.424 . S
C441 C442 1.347 . S
C442 H434 0.951 . S
C442 C437 1.429 . S
C442 C441 1.347 . S
H443 C444 0.951 . S
C444 H443 0.951 . S
C444 C450 1.265 . S
H445 C450 0.950 . S
H446 C454 0.949 . S
H447 C455 0.950 . S
H448 C456 0.951 . S
H449 C457 0.951 . S
C450 C444 1.265 . S
C450 H445 0.950 . S
C450 C451 1.478 . S
C451 C438 1.394 . S
C451 C450 1.478 . S
C451 C452 1.397 . S
C452 C451 1.397 . S
C452 C453 1.438 . S
C452 C457 1.429 . S
C453 C436 1.394 . S
C453 C452 1.438 . S
C453 C454 1.428 . S
C454 H446 0.949 . S
C454 C453 1.428 . S
C454 C455 1.345 . S
C455 H447 0.950 . S
C455 C454 1.345 . S
C455 C456 1.424 . S
C456 H448 0.951 . S
C456 C455 1.424 . S
C456 C457 1.347 . S
C457 H449 0.951 . S
C457 C452 1.429 . S
C457 C456 1.347 . S
C114 C89 1.276 . S
C99 C21 1.389 . S
C129 C19 1.375 1_556 S
C144 C76 1.345 . S
C159 C18 1.502 . S
C174 C93 1.490 . S
C189 C20 1.513 . S
C204 C80 1.500 . S
C219 C44 1.414 . S
C234 C63 1.360 . S
C249 C42 1.414 . S
C264 C50 1.291 . S
C294 C67 1.497 . S
C279 C41 1.447 . S
C324 C54 1.502 . S
C309 C43 1.515 . S
C339 C16 1.520 1_565 S
C354 C55 1.503 . S
C369 C17 1.491 . S
C384 C68 1.490 . S
C414 C81 1.524 . S
C399 C39 1.516 . S
C429 C40 1.491 . S
C444 C94 1.490 . S
