# Generated by pormake.
# Topology pth, (4,4)-cn, num edge types: 1
# Building blocks:
#     Node 0, Type 0, BuildingBlock: KUFVIS_clean_sbu_0, # of connection points: 4
#     Node 1, Type 0, BuildingBlock: KUFVIS_clean_sbu_0, # of connection points: 4
#     Node 2, Type 0, BuildingBlock: KUFVIS_clean_sbu_0, # of connection points: 4
#     Node 3, Type 1, BuildingBlock: MUDLON_clean_linker_0, # of connection points: 4
#     Node 4, Type 1, BuildingBlock: MUDLON_clean_linker_0, # of connection points: 4
#     Node 5, Type 1, BuildingBlock: MUDLON_clean_linker_0, # of connection points: 4
#     Edge 6, Type (0, 1), BuildingBlock: MIFKUJ_clean_linker_0, # of connection points: 2
#     Edge 7, Type (0, 1), BuildingBlock: MIFKUJ_clean_linker_0, # of connection points: 2
#     Edge 8, Type (0, 1), BuildingBlock: MIFKUJ_clean_linker_0, # of connection points: 2
#     Edge 9, Type (0, 1), BuildingBlock: MIFKUJ_clean_linker_0, # of connection points: 2
#     Edge 10, Type (0, 1), BuildingBlock: MIFKUJ_clean_linker_0, # of connection points: 2
#     Edge 11, Type (0, 1), BuildingBlock: MIFKUJ_clean_linker_0, # of connection points: 2
#     Edge 12, Type (0, 1), BuildingBlock: MIFKUJ_clean_linker_0, # of connection points: 2
#     Edge 13, Type (0, 1), BuildingBlock: MIFKUJ_clean_linker_0, # of connection points: 2
#     Edge 14, Type (0, 1), BuildingBlock: MIFKUJ_clean_linker_0, # of connection points: 2
#     Edge 15, Type (0, 1), BuildingBlock: MIFKUJ_clean_linker_0, # of connection points: 2
#     Edge 16, Type (0, 1), BuildingBlock: MIFKUJ_clean_linker_0, # of connection points: 2
#     Edge 17, Type (0, 1), BuildingBlock: MIFKUJ_clean_linker_0, # of connection points: 2
# Relax obj value: 0.036
# Max RMSD: 0.104
# Mean RMSD: 0.093
data_MOF--net-pth--node1-KUFVIS_clean_sbu_0--node2-MUDLON_clean_linker_0--edge1-MIFKUJ_clean_linker_0
_symmetry_space_group_name_H-M    P1
_symmetry_Int_Tables_number       1
_symmetry_cell_setting            triclinic
loop_
_symmetry_equiv_pos_as_xyz
'x, y, z'
_cell_length_a     40.806272
_cell_length_b     40.900423
_cell_length_c     84.201828
_cell_angle_alpha  90.413073
_cell_angle_beta   91.644707
_cell_angle_gamma 120.22965
loop_
_atom_site_label
_atom_site_type_symbol
_atom_site_fract_x
_atom_site_fract_y
_atom_site_fract_z
_atom_type_partial_charge
Mn0 Mn 0.03831 0.02477 0.04336 0.0
Mn1 Mn 0.98796 0.05203 0.02018 0.0
C2 C 1.00049 0.98615 0.02237 0.0
C3 C 0.0428 0.99427 0.06589 0.0
C4 C 0.07307 0.08459 0.01805 0.0
O5 O 0.0396 0.06764 0.0564 0.0
O6 O 1.00007 0.07893 0.04119 0.0
C7 C 0.91756 0.01933 0.03823 0.0
N8 N 0.93521 0.02233 0.02439 0.0
C9 C 0.87585 0.97953 0.01075 0.0
C10 C 0.85699 0.97621 0.02483 0.0
C11 C 0.87796 0.99611 0.03864 0.0
C12 C 0.91534 0.00312 0.01106 0.0
H13 H 0.93361 0.03444 0.04888 0.0
C14 C 0.02091 0.08454 0.05377 0.0
O15 O 0.07298 0.01959 0.05903 0.0
O16 O 0.01032 0.98781 0.06 0.0
N17 N 0.97407 0.02808 0.99952 0.0
C18 C 0.99675 0.033 0.98712 0.0
C19 C 0.98025 0.01478 0.97244 0.0
C20 C 0.94065 0.99185 0.97063 0.0
C21 C 0.91789 0.98718 0.98356 0.0
C22 C 0.9359 0.00646 0.99784 0.0
H23 H 0.02719 0.05068 0.98841 0.0
O24 O 0.02779 0.98209 0.02839 0.0
O25 O 0.99585 0.01229 0.02896 0.0
O26 O 0.07627 0.06334 0.02825 0.0
O27 O 0.04173 0.0834 0.01465 0.0
C28 C 0.87809 0.96381 0.98288 0.0
C29 C 0.8571 0.95986 0.99649 0.0
H30 H 0.82647 0.95823 0.02521 0.0
H31 H 0.86363 0.99351 0.04958 0.0
H32 H 0.99802 0.01843 0.96253 0.0
H33 H 0.92806 0.97795 0.95927 0.0
H34 H 0.86339 0.94836 0.97202 0.0
H35 H 0.82657 0.9414 0.99589 0.0
Mn36 Mn 0.02006 0.02742 0.37686 0.0
Mn37 Mn 0.07069 0.11357 0.39486 0.0
C38 C 0.05918 0.03534 0.39879 0.0
C39 C 0.01377 0.98429 0.35707 0.0
C40 C 0.98636 0.06081 0.39928 0.0
O41 O 0.01667 0.06241 0.36069 0.0
O42 O 0.0555 0.11886 0.3728 0.0
C43 C 0.13846 0.14488 0.37516 0.0
N44 N 0.12285 0.13651 0.38971 0.0
C45 C 0.1844 0.16406 0.40291 0.0
C46 C 0.2012 0.17333 0.38808 0.0
C47 C 0.17811 0.16352 0.37414 0.0
C48 C 0.14476 0.14543 0.40317 0.0
H49 H 0.12078 0.13732 0.36444 0.0
C50 C 0.03423 0.09849 0.36104 0.0
O51 O 0.9843 0.98197 0.36366 0.0
O52 O 0.04675 0.01214 0.36173 0.0
N53 N 0.08785 0.11365 0.41622 0.0
C54 C 0.06708 0.10081 0.42948 0.0
C55 C 0.08584 0.10834 0.44444 0.0
C56 C 0.12568 0.12905 0.4456 0.0
C57 C 0.14644 0.14136 0.43178 0.0
C58 C 0.12621 0.13367 0.41723 0.0
H59 H 0.03645 0.08544 0.42867 0.0
O60 O 0.0318 0.00202 0.39433 0.0
O61 O 0.06366 0.06329 0.38997 0.0
O62 O 0.98298 0.03328 0.39077 0.0
O63 O 0.01756 0.09219 0.40123 0.0
C64 C 0.18641 0.16092 0.43186 0.0
C65 C 0.20538 0.17203 0.41742 0.0
H66 H 0.23177 0.18765 0.38725 0.0
H67 H 0.19084 0.17035 0.36265 0.0
H68 H 0.0696 0.09863 0.45507 0.0
H69 H 0.14011 0.13561 0.45716 0.0
H70 H 0.20282 0.16715 0.44295 0.0
H71 H 0.2361 0.18651 0.41761 0.0
Mn72 Mn 0.03048 0.03976 0.71018 0.0
Mn73 Mn 0.98731 0.08319 0.72617 0.0
C74 C 0.05774 0.07951 0.73236 0.0
C75 C 0.07112 0.03852 0.69158 0.0
C76 C 0.96063 0.99983 0.73016 0.0
O77 O 0.99152 0.03375 0.69287 0.0
O78 O 0.97047 0.07022 0.70354 0.0
C79 C 0.02182 0.15382 0.70804 0.0
N80 N 0.0149 0.13608 0.7222 0.0
C81 C 0.04404 0.19544 0.73673 0.0
C82 C 0.05132 0.21442 0.72232 0.0
C83 C 0.04045 0.19351 0.7079 0.0
C84 C 0.0261 0.15593 0.73612 0.0
H85 H 0.01301 0.13777 0.69695 0.0
C86 C 0.97171 0.04996 0.69216 0.0
O87 O 0.04482 0.00759 0.69765 0.0
O88 O 0.07326 0.06997 0.69606 0.0
N89 N 0.00133 0.09745 0.74807 0.0
C90 C 0.99264 0.07486 0.76093 0.0
C91 C 0.00279 0.09145 0.77625 0.0
C92 C 0.021 0.13099 0.77821 0.0
C93 C 0.02902 0.15356 0.7648 0.0
C94 C 0.01882 0.13549 0.74982 0.0
H95 H 0.97805 0.04443 0.75952 0.0
O96 O 0.0674 0.05467 0.72876 0.0
O97 O 0.03313 0.0808 0.72267 0.0
O98 O 0.98808 0.99971 0.72336 0.0
O99 O 0.95696 0.02898 0.73118 0.0
C100 C 0.04604 0.19322 0.76572 0.0
C101 C 0.05339 0.21411 0.75169 0.0
H102 H 0.06528 0.24502 0.72218 0.0
H103 H 0.04604 0.20794 0.69672 0.0
H104 H 0.99625 0.0738 0.78654 0.0
H105 H 0.02846 0.14368 0.79006 0.0
H106 H 0.05318 0.20783 0.77716 0.0
H107 H 0.06575 0.24448 0.75248 0.0
H108 H 0.91942 0.6402 0.21994 0.0
N109 N 0.97159 0.62669 0.20879 0.0
H110 H 0.92651 0.68212 0.24222 0.0
H111 H 0.03205 0.65985 0.22998 0.0
H112 H 0.03955 0.70186 0.25253 0.0
H113 H 0.04272 0.68483 0.20296 0.0
H114 H 0.05869 0.73172 0.18239 0.0
H115 H 0.92784 0.62187 0.18386 0.0
H116 H 0.94381 0.66785 0.16277 0.0
H117 H 0.92653 0.56288 0.22326 0.0
H118 H 0.02866 0.61733 0.1967 0.0
H119 H 0.92988 0.50511 0.22382 0.0
H120 H 0.03082 0.55888 0.19621 0.0
H121 H 0.92497 0.31091 0.20972 0.0
H122 H 0.93033 0.27362 0.23105 0.0
H123 H 0.02884 0.3743 0.25073 0.0
H124 H 0.02428 0.4107 0.22887 0.0
H125 H 0.03946 0.38241 0.20148 0.0
H126 H 0.05663 0.35617 0.17937 0.0
H127 H 0.96068 0.34533 0.15151 0.0
H128 H 0.94191 0.36832 0.17434 0.0
H129 H 0.9153 0.39524 0.20436 0.0
H130 H 0.91759 0.4558 0.20643 0.0
H131 H 0.04032 0.51349 0.20949 0.0
N132 N 0.97284 0.38283 0.20361 0.0
H133 H 0.03731 0.45229 0.20642 0.0
C134 C 0.9751 0.64703 0.22335 0.0
C135 C 0.94538 0.65302 0.22723 0.0
C136 C 0.94952 0.67692 0.23999 0.0
C137 C 0.98367 0.69547 0.24915 0.0
C138 C 0.01307 0.68834 0.24559 0.0
C139 C 0.00879 0.66422 0.2328 0.0
C140 C 0.98388 0.65 0.19499 0.0
C141 C 0.02117 0.68059 0.19408 0.0
C142 C 0.03031 0.70732 0.18223 0.0
C143 C 0.00237 0.70389 0.17105 0.0
C144 C 0.9658 0.67181 0.17139 0.0
C145 C 0.95669 0.64525 0.18329 0.0
C146 C 0.97686 0.59438 0.20981 0.0
C147 C 0.9497 0.56233 0.21754 0.0
C148 C 0.95147 0.52914 0.21767 0.0
C149 C 0.98014 0.52679 0.20973 0.0
C150 C 0.00837 0.55949 0.2025 0.0
C151 C 0.00696 0.59306 0.20265 0.0
C152 C 0.97386 0.36355 0.21773 0.0
C153 C 0.9473 0.32494 0.21882 0.0
C154 C 0.95041 0.30373 0.23107 0.0
C155 C 0.98014 0.32082 0.24266 0.0
C156 C 0.00597 0.35997 0.24188 0.0
C157 C 0.00308 0.38107 0.22948 0.0
C158 C 0.98865 0.37621 0.18969 0.0
C159 C 0.02227 0.37461 0.19058 0.0
C160 C 0.03228 0.35984 0.17778 0.0
C161 C 0.00952 0.34749 0.16366 0.0
C162 C 0.97811 0.35298 0.16234 0.0
C163 C 0.96758 0.36671 0.17529 0.0
C164 C 0.97596 0.41931 0.20544 0.0
C165 C 0.94262 0.42103 0.20554 0.0
C166 C 0.94411 0.45576 0.20687 0.0
C167 C 0.97918 0.48984 0.20838 0.0
C168 C 0.01279 0.48801 0.20826 0.0
C169 C 0.01119 0.45305 0.20668 0.0
H170 H 0.67611 0.04124 0.54338 0.0
N171 N 0.60917 0.9766 0.53511 0.0
H172 H 0.72154 0.0481 0.56435 0.0
H173 H 0.60076 0.92611 0.55674 0.0
H174 H 0.64624 0.93293 0.57805 0.0
H175 H 0.61943 0.92771 0.51829 0.0
H176 H 0.6598 0.94092 0.4956 0.0
H177 H 0.64094 0.04223 0.51825 0.0
H178 H 0.6805 0.05548 0.49528 0.0
H179 H 0.62079 0.04508 0.54662 0.0
H180 H 0.53552 0.93549 0.52782 0.0
H181 H 0.57254 0.0624 0.55024 0.0
H182 H 0.48694 0.95317 0.53081 0.0
H183 H 0.42191 0.10546 0.56687 0.0
H184 H 0.38116 0.10125 0.58831 0.0
H185 H 0.3134 0.98017 0.57983 0.0
H186 H 0.35224 0.98542 0.55766 0.0
H187 H 0.36537 0.98483 0.52977 0.0
H188 H 0.32267 0.97638 0.50713 0.0
H189 H 0.36331 0.09653 0.50846 0.0
H190 H 0.40625 0.10463 0.53093 0.0
H191 H 0.48254 0.09523 0.53872 0.0
H192 H 0.53154 0.07813 0.53584 0.0
H193 H 0.45254 0.96457 0.55035 0.0
N194 N 0.41113 0.05106 0.54644 0.0
H195 H 0.40369 0.98151 0.55258 0.0
C196 C 0.63472 0.98304 0.54853 0.0
C197 C 0.66892 0.01759 0.55102 0.0
C198 C 0.69499 0.02152 0.56306 0.0
C199 C 0.68758 0.99102 0.57284 0.0
C200 C 0.65298 0.9568 0.57059 0.0
C201 C 0.62684 0.95295 0.55855 0.0
C202 C 0.62709 0.98377 0.52 0.0
C203 C 0.63196 0.95537 0.51305 0.0
C204 C 0.65499 0.963 0.50005 0.0
C205 C 0.67367 0.99939 0.49365 0.0
C206 C 0.66702 0.02732 0.50006 0.0
C207 C 0.64404 0.01966 0.51314 0.0
C208 C 0.58172 0.9886 0.53707 0.0
C209 C 0.59173 0.02466 0.54322 0.0
C210 C 0.56399 0.03472 0.54517 0.0
C211 C 0.52569 0.00917 0.54088 0.0
C212 C 0.51595 0.97334 0.53454 0.0
C213 C 0.54368 0.96325 0.53269 0.0
C214 C 0.39084 0.04586 0.56081 0.0
C215 C 0.39869 0.07796 0.5699 0.0
C216 C 0.37529 0.07538 0.58222 0.0
C217 C 0.34358 0.04033 0.58588 0.0
C218 C 0.33697 0.00781 0.57723 0.0
C219 C 0.3599 0.01061 0.56469 0.0
C220 C 0.38899 0.0455 0.53201 0.0
C221 C 0.36548 0.00938 0.52504 0.0
C222 C 0.34093 0.00458 0.51215 0.0
C223 C 0.33947 0.03576 0.50601 0.0
C224 C 0.36405 0.07198 0.51271 0.0
C225 C 0.3885 0.0767 0.52558 0.0
C226 C 0.43953 0.04 0.54599 0.0
C227 C 0.476 0.06674 0.54138 0.0
C228 C 0.50398 0.05691 0.53981 0.0
C229 C 0.4961 0.01992 0.54288 0.0
C230 C 0.45953 0.99318 0.54767 0.0
C231 C 0.43149 0.00302 0.54913 0.0
H232 H 0.63199 0.69506 0.89632 0.0
N233 N 0.64087 0.65743 0.87262 0.0
H234 H 0.67742 0.73092 0.91811 0.0
H235 H 0.70724 0.6582 0.8796 0.0
H236 H 0.75191 0.69229 0.90166 0.0
H237 H 0.67745 0.6341 0.85263 0.0
H238 H 0.71242 0.6674 0.82931 0.0
H239 H 0.64367 0.71728 0.85951 0.0
H240 H 0.67927 0.7514 0.83656 0.0
H241 H 0.56674 0.62642 0.86733 0.0
H242 H 0.65335 0.59821 0.87799 0.0
H243 H 0.5181 0.55947 0.86809 0.0
H244 H 0.60508 0.53164 0.87945 0.0
H245 H 0.38166 0.3891 0.88699 0.0
H246 H 0.34147 0.35739 0.90898 0.0
H247 H 0.41113 0.30869 0.92135 0.0
H248 H 0.45286 0.34269 0.89967 0.0
H249 H 0.42691 0.31913 0.86242 0.0
H250 H 0.38008 0.28618 0.84064 0.0
H251 H 0.35758 0.37863 0.83869 0.0
H252 H 0.40419 0.41119 0.86046 0.0
H253 H 0.43815 0.44492 0.88801 0.0
H254 H 0.48728 0.51068 0.88662 0.0
H255 H 0.56015 0.47722 0.86414 0.0
N256 N 0.44214 0.38273 0.8775 0.0
H257 H 0.51089 0.41071 0.86617 0.0
C258 C 0.66597 0.6738 0.88641 0.0
C259 C 0.65789 0.69395 0.89762 0.0
C260 C 0.68386 0.71427 0.91009 0.0
C261 C 0.71851 0.71468 0.91163 0.0
C262 C 0.72583 0.69314 0.90071 0.0
C263 C 0.69999 0.67313 0.88816 0.0
C264 C 0.65775 0.67323 0.85774 0.0
C265 C 0.67712 0.65924 0.849 0.0
C266 C 0.69739 0.67853 0.83573 0.0
C267 C 0.6988 0.71219 0.83104 0.0
C268 C 0.67836 0.72528 0.8396 0.0
C269 C 0.65807 0.70594 0.85276 0.0
C270 C 0.61356 0.6175 0.87273 0.0
C271 C 0.57519 0.60574 0.86989 0.0
C272 C 0.54746 0.5675 0.87047 0.0
C273 C 0.55754 0.54006 0.87401 0.0
C274 C 0.59623 0.55187 0.87657 0.0
C275 C 0.62399 0.59016 0.87586 0.0
C276 C 0.42087 0.36877 0.89175 0.0
C277 C 0.38923 0.37271 0.89468 0.0
C278 C 0.36572 0.35391 0.90718 0.0
C279 C 0.3726 0.32992 0.91684 0.0
C280 C 0.40509 0.32718 0.91428 0.0
C281 C 0.42897 0.34652 0.90188 0.0
C282 C 0.41904 0.36745 0.8631 0.0
C283 C 0.41244 0.33258 0.85702 0.0
C284 C 0.38575 0.31387 0.84459 0.0
C285 C 0.36494 0.3297 0.83804 0.0
C286 C 0.37282 0.36552 0.84365 0.0
C287 C 0.39967 0.38428 0.85603 0.0
C288 C 0.47083 0.42238 0.87733 0.0
C289 C 0.4646 0.45126 0.88292 0.0
C290 C 0.49282 0.48926 0.88195 0.0
C291 C 0.52777 0.49945 0.87521 0.0
C292 C 0.53387 0.47052 0.86962 0.0
C293 C 0.50571 0.43249 0.8707 0.0
H294 H 0.96898 0.1063 0.05878 0.0
H295 H 0.9744 0.15521 0.07711 0.0
H296 H 0.08503 0.17713 0.09347 0.0
H297 H 0.07895 0.12671 0.07553 0.0
H298 H 0.04971 0.1814 0.11759 0.0
H299 H 0.07321 0.23693 0.06699 0.0
H300 H 0.06278 0.24213 0.03836 0.0
H301 H 0.95762 0.23762 0.04751 0.0
H302 H 0.96713 0.23183 0.07619 0.0
H303 H 0.07776 0.35559 0.15436 0.0
H304 H 0.08704 0.31531 0.13553 0.0
H305 H 0.96662 0.25135 0.12496 0.0
H306 H 0.95652 0.28931 0.14436 0.0
H307 H 0.01816 0.27635 0.09738 0.0
H308 H 0.99524 0.21337 0.14846 0.0
H309 H 0.01018 0.21151 0.17691 0.0
H310 H 0.12238 0.23616 0.16594 0.0
H311 H 0.10825 0.23873 0.13743 0.0
C312 C 0.99444 0.12141 0.06631 0.0
C313 C 0.02368 0.11283 0.06561 0.0
C314 C 0.99765 0.14962 0.07673 0.0
C315 C 0.03061 0.17072 0.08638 0.0
C316 C 0.05945 0.16149 0.08606 0.0
C317 C 0.05594 0.13266 0.07581 0.0
C318 C 0.0345 0.20212 0.0968 0.0
C319 C 0.04355 0.20257 0.11306 0.0
C320 C 0.02659 0.23 0.09099 0.0
C321 C 0.02079 0.2337 0.07374 0.0
C322 C 0.04774 0.23681 0.06289 0.0
C323 C 0.042 0.23988 0.04665 0.0
C324 C 0.00953 0.24014 0.04112 0.0
C325 C 0.98276 0.2374 0.05182 0.0
C326 C 0.98834 0.23427 0.06807 0.0
C327 C 0.05313 0.33283 0.14815 0.0
C328 C 0.01632 0.32596 0.15101 0.0
C329 C 0.05861 0.31005 0.1373 0.0
C330 C 0.02749 0.28046 0.1289 0.0
C331 C 0.99101 0.27429 0.13126 0.0
C332 C 0.98539 0.29642 0.1423 0.0
C333 C 0.03229 0.25471 0.11804 0.0
C334 C 0.02493 0.25546 0.10174 0.0
C335 C 0.04252 0.22854 0.12375 0.0
C336 C 0.05087 0.22674 0.14085 0.0
C337 C 0.02322 0.21878 0.15213 0.0
C338 C 0.03151 0.21751 0.16827 0.0
C339 C 0.06725 0.22385 0.17324 0.0
C340 C 0.09474 0.23134 0.16208 0.0
C341 C 0.0866 0.2327 0.14594 0.0
H342 H 0.07362 0.22284 0.18573 0.0
H343 H 0.00513 0.24252 0.02854 0.0
H344 H 0.91333 0.00074 0.39705 0.0
H345 H 0.8586 0.99249 0.41144 0.0
H346 H 0.92808 0.10158 0.43469 0.0
H347 H 0.98304 0.11001 0.42053 0.0
H348 H 0.88616 0.04808 0.45556 0.0
H349 H 0.86417 0.0893 0.40514 0.0
H350 H 0.85606 0.08747 0.37596 0.0
H351 H 0.75949 0.97525 0.37751 0.0
H352 H 0.76736 0.97619 0.4067 0.0
H353 H 0.74257 0.06423 0.4918 0.0
H354 H 0.79323 0.07681 0.47385 0.0
H355 H 0.72241 0.96806 0.45051 0.0
H356 H 0.6708 0.95584 0.46803 0.0
H357 H 0.76442 0.02131 0.42929 0.0
H358 H 0.78689 0.97879 0.47919 0.0
H359 H 0.79469 0.97923 0.50835 0.0
H360 H 0.89032 0.09219 0.50768 0.0
H361 H 0.88274 0.09263 0.47852 0.0
C362 C 0.91701 0.02309 0.40517 0.0
C363 C 0.95269 0.05607 0.4076 0.0
C364 C 0.8856 0.01838 0.41333 0.0
C365 C 0.88918 0.04657 0.42403 0.0
C366 C 0.92467 0.0795 0.42646 0.0
C367 C 0.95606 0.08429 0.4183 0.0
C368 C 0.85631 0.04122 0.43315 0.0
C369 C 0.85975 0.04282 0.4498 0.0
C370 C 0.82148 0.03325 0.42564 0.0
C371 C 0.81659 0.03268 0.4081 0.0
C372 C 0.84139 0.06411 0.39925 0.0
C373 C 0.83681 0.06326 0.38271 0.0
C374 C 0.80734 0.03123 0.37488 0.0
C375 C 0.78234 1.00002 0.38358 0.0
C376 C 0.78683 0.00072 0.40013 0.0
C377 C 0.73728 0.04334 0.48259 0.0
C378 C 0.70262 0.00887 0.48145 0.0
C379 C 0.76649 0.05043 0.47244 0.0
C380 C 0.76188 0.02304 0.46106 0.0
C381 C 0.72669 0.98947 0.45929 0.0
C382 C 0.69733 0.98241 0.4694 0.0
C383 C 0.79446 0.02854 0.45167 0.0
C384 C 0.79091 0.02677 0.43501 0.0
C385 C 0.82921 0.03616 0.45916 0.0
C386 C 0.83401 0.03588 0.47669 0.0
C387 C 0.80941 0.00383 0.48527 0.0
C388 C 0.81381 0.00391 0.5018 0.0
C389 C 0.84292 0.03576 0.50987 0.0
C390 C 0.86775 0.06756 0.50142 0.0
C391 C 0.86343 0.06765 0.48489 0.0
H392 H 0.84629 0.03576 0.52267 0.0
H393 H 0.80383 0.03062 0.36207 0.0
H394 H 0.88699 0.97823 0.73524 0.0
H395 H 0.84124 0.92402 0.74999 0.0
H396 H 0.92422 0.88939 0.75784 0.0
H397 H 0.96976 0.94293 0.74244 0.0
H398 H 0.85639 0.82892 0.75346 0.0
H399 H 0.90836 0.94068 0.78619 0.0
H400 H 0.92696 0.00669 0.79296 0.0
H401 H 0.81024 0.97796 0.78925 0.0
H402 H 0.79099 0.9119 0.78215 0.0
H403 H 0.76974 0.72544 0.82406 0.0
H404 H 0.81248 0.7687 0.80452 0.0
H405 H 0.72703 0.79544 0.78939 0.0
H406 H 0.68363 0.7514 0.80852 0.0
H407 H 0.79758 0.85896 0.79781 0.0
H408 H 0.74743 0.74479 0.76537 0.0
H409 H 0.73212 0.67935 0.75946 0.0
H410 H 0.85012 0.71342 0.76479 0.0
H411 H 0.86608 0.779 0.77095 0.0
C412 C 0.89539 0.95887 0.73997 0.0
C413 C 0.9321 0.96506 0.73784 0.0
C414 C 0.86925 0.92794 0.74845 0.0
C415 C 0.87958 0.90315 0.75539 0.0
C416 C 0.91566 0.90825 0.75267 0.0
C417 C 0.94167 0.93887 0.7439 0.0
C418 C 0.85337 0.87326 0.76612 0.0
C419 C 0.84388 0.83556 0.76327 0.0
C420 C 0.83689 0.88183 0.77892 0.0
C421 C 0.84827 0.92139 0.7835 0.0
C422 C 0.88668 0.94848 0.78673 0.0
C423 C 0.89734 0.98591 0.79062 0.0
C424 C 0.8698 0.99652 0.79151 0.0
C425 C 0.83154 0.9697 0.78854 0.0
C426 C 0.82073 0.93225 0.78459 0.0
C427 C 0.7596 0.73972 0.81631 0.0
C428 C 0.72325 0.73507 0.81797 0.0
C429 C 0.78418 0.7646 0.80519 0.0
C430 C 0.77292 0.78532 0.79555 0.0
C431 C 0.73631 0.77985 0.7968 0.0
C432 C 0.71162 0.75479 0.80779 0.0
C433 C 0.80012 0.81464 0.78496 0.0
C434 C 0.81002 0.85235 0.78796 0.0
C435 C 0.81747 0.80611 0.77254 0.0
C436 C 0.8079 0.76673 0.76877 0.0
C437 C 0.77008 0.73827 0.76542 0.0
C438 C 0.76129 0.70116 0.76199 0.0
C439 C 0.79011 0.69221 0.76179 0.0
C440 C 0.82781 0.72038 0.76497 0.0
C441 C 0.83675 0.75753 0.76841 0.0
H442 H 0.78325 0.66347 0.75914 0.0
H443 H 0.87811 0.02552 0.79452 0.0
H444 H 0.10348 0.98732 0.07577 0.0
H445 H 0.1035 0.94256 0.095 0.0
H446 H 0.98639 0.90405 0.10441 0.0
H447 H 0.98608 0.94841 0.08521 0.0
H448 H 0.03015 0.91236 0.13187 0.0
H449 H 0.00566 0.85497 0.07916 0.0
H450 H 0.02016 0.85202 0.05113 0.0
H451 H 0.12453 0.85747 0.06575 0.0
H452 H 0.11086 0.86097 0.09389 0.0
H453 H 0.95587 0.73154 0.16279 0.0
H454 H 0.96956 0.78475 0.14594 0.0
H455 H 0.08117 0.80208 0.13814 0.0
H456 H 0.0671 0.74761 0.15459 0.0
H457 H 0.04899 0.80942 0.11098 0.0
H458 H 0.0701 0.8596 0.16392 0.0
H459 H 0.05536 0.86215 0.19193 0.0
H460 H 0.95852 0.87099 0.17725 0.0
H461 H 0.97235 0.86791 0.14913 0.0
C462 C 0.07795 0.96974 0.08213 0.0
C463 C 0.04472 0.97122 0.07893 0.0
C464 C 0.07796 0.94409 0.09305 0.0
C465 C 0.04483 0.91975 0.10099 0.0
C466 C 0.01223 0.92255 0.09839 0.0
C467 C 0.01209 0.94785 0.08738 0.0
C468 C 0.04317 0.88987 0.11137 0.0
C469 C 0.03409 0.88974 0.12731 0.0
C470 C 0.0493 0.86094 0.10549 0.0
C471 C 0.05747 0.85871 0.0886 0.0
C472 C 0.03186 0.85588 0.07639 0.0
C473 C 0.0399 0.85404 0.06049 0.0
C474 C 0.07331 0.85469 0.05666 0.0
C475 C 0.0987 0.85706 0.06874 0.0
C476 C 0.09082 0.85895 0.08466 0.0
C477 C 0.98312 0.74613 0.15728 0.0
C478 C 0.01036 0.73516 0.16003 0.0
C479 C 0.9911 0.77695 0.14782 0.0
C480 C 0.02665 0.79786 0.14102 0.0
C481 C 0.05365 0.78652 0.14338 0.0
C482 C 0.04564 0.75553 0.15285 0.0
C483 C 0.03527 0.83147 0.13146 0.0
C484 C 0.04563 0.83231 0.11565 0.0
C485 C 0.03043 0.86114 0.13749 0.0
C486 C 0.02212 0.86325 0.1544 0.0
C487 C 0.0455 0.86182 0.16665 0.0
C488 C 0.03733 0.8634 0.18256 0.0
C489 C 0.00598 0.86666 0.18637 0.0
C490 C 0.98279 0.86844 0.17428 0.0
C491 C 0.99081 0.86683 0.15835 0.0
H492 H 0.9997 0.86788 0.19868 0.0
H493 H 0.07948 0.85325 0.04434 0.0
H494 H 0.04455 0.99618 0.42596 0.0
H495 H 0.08988 0.99148 0.44383 0.0
H496 H 0.18219 0.07668 0.41733 0.0
H497 H 0.13621 0.07617 0.39803 0.0
H498 H 0.19951 0.0299 0.42275 0.0
H499 H 0.15649 0.08856 0.46318 0.0
H500 H 0.10813 0.09259 0.47892 0.0
H501 H 0.06176 0.97672 0.49196 0.0
H502 H 0.11007 0.97237 0.47653 0.0
H503 H 0.34871 0.08037 0.48044 0.0
H504 H 0.29951 0.07595 0.46184 0.0
H505 H 0.21619 0.97469 0.48436 0.0
H506 H 0.26497 0.97971 0.50338 0.0
H507 H 0.19193 0.02324 0.48137 0.0
H508 H 0.24546 0.97131 0.44682 0.0
H509 H 0.29625 0.96831 0.43289 0.0
H510 H 0.32406 0.07115 0.4091 0.0
H511 H 0.27377 0.07507 0.42306 0.0
C512 C 0.07461 0.01435 0.42417 0.0
C513 C 0.08702 0.03827 0.41112 0.0
C514 C 0.10071 0.01212 0.43458 0.0
C515 C 0.13999 0.03477 0.43249 0.0
C516 C 0.15224 0.05906 0.41947 0.0
C517 C 0.12601 0.05977 0.40864 0.0
C518 C 0.16822 0.03089 0.44285 0.0
C519 C 0.19811 0.02931 0.4356 0.0
C520 C 0.16577 0.02779 0.45961 0.0
C521 C 0.13619 0.03003 0.46847 0.0
C522 C 0.13554 0.06394 0.46924 0.0
C523 C 0.10836 0.06631 0.47816 0.0
C524 C 0.08164 0.03483 0.48625 0.0
C525 C 0.08231 0.00103 0.48561 0.0
C526 C 0.10968 0.99866 0.47686 0.0
C527 C 0.31995 0.05704 0.48138 0.0
C528 C 0.31076 0.03049 0.49345 0.0
C529 C 0.29191 0.05432 0.47063 0.0
C530 C 0.25418 0.02483 0.47163 0.0
C531 C 0.24514 0.99763 0.48334 0.0
C532 C 0.27314 1.00036 0.49412 0.0
C533 C 0.22375 0.0241 0.46127 0.0
C534 C 0.19333 0.02425 0.46852 0.0
C535 C 0.22581 0.02596 0.44455 0.0
C536 C 0.25602 0.02363 0.43609 0.0
C537 C 0.26259 0.99345 0.43871 0.0
C538 C 0.29126 0.99155 0.43079 0.0
C539 C 0.31342 0.01956 0.42014 0.0
C540 C 0.30689 0.04949 0.41736 0.0
C541 C 0.27828 0.05153 0.42526 0.0
H542 H 0.3356 0.01804 0.41403 0.0
H543 H 0.06059 0.03671 0.4931 0.0
H544 H 0.06753 0.0721 0.76388 0.0
H545 H 0.11489 0.12034 0.78231 0.0
H546 H 0.15227 0.20136 0.74473 0.0
H547 H 0.10219 0.15421 0.72698 0.0
H548 H 0.18311 0.14596 0.78077 0.0
H549 H 0.20062 0.27047 0.75065 0.0
H550 H 0.17551 0.31171 0.74238 0.0
H551 H 0.10596 0.27958 0.78315 0.0
H552 H 0.12934 0.23672 0.79117 0.0
H553 H 0.36379 0.28817 0.81207 0.0
H554 H 0.30981 0.24884 0.79382 0.0
H555 H 0.24032 0.28128 0.81963 0.0
H556 H 0.29411 0.32082 0.83772 0.0
H557 H 0.22751 0.28221 0.78913 0.0
H558 H 0.23499 0.19452 0.82464 0.0
H559 H 0.2661 0.16364 0.8383 0.0
H560 H 0.28494 0.12693 0.79332 0.0
H561 H 0.25437 0.15806 0.77937 0.0
C562 C 0.08489 0.10076 0.75985 0.0
C563 C 0.08095 0.10977 0.74418 0.0
C564 C 0.11218 0.12835 0.77032 0.0
C565 C 0.1375 0.16505 0.76509 0.0
C566 C 0.1326 0.17418 0.74946 0.0
C567 C 0.10419 0.14695 0.73918 0.0
C568 C 0.17188 0.19101 0.7752 0.0
C569 C 0.19243 0.1757 0.78261 0.0
C570 C 0.18516 0.23013 0.77761 0.0
C571 C 0.16554 0.24937 0.77113 0.0
C572 C 0.17896 0.27125 0.75751 0.0
C573 C 0.16522 0.29505 0.75292 0.0
C574 C 0.13907 0.29819 0.76221 0.0
C575 C 0.12606 0.27696 0.77592 0.0
C576 C 0.13897 0.25235 0.78031 0.0
C577 C 0.33699 0.28692 0.81381 0.0
C578 C 0.33321 0.30764 0.82631 0.0
C579 C 0.30616 0.26438 0.80341 0.0
C580 C 0.27086 0.26172 0.80547 0.0
C581 C 0.26729 0.28295 0.81777 0.0
C582 C 0.29811 0.30567 0.82807 0.0
C583 C 0.23739 0.23671 0.79495 0.0
C584 C 0.21765 0.2523 0.78734 0.0
C585 C 0.22446 0.19777 0.79262 0.0
C586 C 0.24276 0.17895 0.80097 0.0
C587 C 0.24602 0.1801 0.81766 0.0
C588 C 0.26352 0.16252 0.82545 0.0
C589 C 0.27758 0.14343 0.81668 0.0
C590 C 0.27409 0.14179 0.80009 0.0
C591 C 0.25666 0.15938 0.79224 0.0
H592 H 0.29111 0.12982 0.82274 0.0
H593 H 0.12886 0.31705 0.75879 0.0
H594 H 0.94171 0.99072 0.67039 0.0
H595 H 0.89442 0.97801 0.64899 0.0
H596 H 0.89985 0.08378 0.66025 0.0
H597 H 0.94599 0.09605 0.68178 0.0
H598 H 0.8293 0.02928 0.65854 0.0
H599 H 0.93779 0.06876 0.62602 0.0
H600 H 0.99274 0.06659 0.61581 0.0
H601 H 0.91947 0.95177 0.59938 0.0
H602 H 0.86413 0.95309 0.60968 0.0
H603 H 0.73116 0.05106 0.59314 0.0
H604 H 0.78036 0.05808 0.61239 0.0
H605 H 0.75838 0.94637 0.5995 0.0
H606 H 0.70973 0.93953 0.57985 0.0
H607 H 0.8346 0.99779 0.60203 0.0
H608 H 0.72585 0.95989 0.63356 0.0
H609 H 0.67115 0.96273 0.64361 0.0
H610 H 0.7457 0.07563 0.66192 0.0
H611 H 0.80083 0.07367 0.65178 0.0
C612 C 0.93323 0.0115 0.6681 0.0
C613 C 0.94736 0.04424 0.67784 0.0
C614 C 0.90624 0.00424 0.65586 0.0
C615 C 0.8935 0.02993 0.65301 0.0
C616 C 0.90893 0.06337 0.6623 0.0
C617 C 0.93542 0.07039 0.67459 0.0
C618 C 0.86248 0.02134 0.64109 0.0
C619 C 0.83076 0.02286 0.64614 0.0
C620 C 0.86366 0.01166 0.62502 0.0
C621 C 0.89689 0.01089 0.61878 0.0
C622 C 0.93344 0.04295 0.62034 0.0
C623 C 0.96465 0.0419 0.61452 0.0
C624 C 0.95961 0.00903 0.60699 0.0
C625 C 0.92334 0.97719 0.60523 0.0
C626 C 0.89204 0.97808 0.61105 0.0
C627 C 0.7369 0.02804 0.59434 0.0
C628 C 0.71643 0.99468 0.585 0.0
C629 C 0.76485 0.03199 0.60542 0.0
C630 C 0.77278 0.0026 0.60748 0.0
C631 C 0.75262 0.96934 0.59812 0.0
C632 C 0.72458 0.96534 0.58703 0.0
C633 C 0.80209 0.00675 0.61946 0.0
C634 C 0.83324 0.00413 0.61445 0.0
C635 C 0.80053 0.01556 0.63559 0.0
C636 C 0.76744 0.01673 0.64179 0.0
C637 C 0.73056 0.98542 0.63963 0.0
C638 C 0.69948 0.98686 0.64536 0.0
C639 C 0.70494 0.01936 0.65337 0.0
C640 C 0.74151 0.05047 0.6557 0.0
C641 C 0.77269 0.0492 0.64998 0.0
H642 H 0.68084 0.02042 0.65779 0.0
H643 H 0.98381 0.00827 0.60249 0.0
H644 H 0.92507 0.94298 0.02644 0.0
H645 H 0.8774 0.89396 0.00824 0.0
H646 H 0.96521 0.91317 0.97588 0.0
H647 H 0.01285 0.9626 0.99409 0.0
H648 H 0.90447 0.91081 0.9607 0.0
H649 H 0.92544 0.83505 0.99836 0.0
H650 H 0.93008 0.81324 0.02511 0.0
H651 H 0.81335 0.77853 0.03229 0.0
H652 H 0.80817 0.80065 0.00566 0.0
H653 H 0.79551 0.75639 0.90865 0.0
H654 H 0.8433 0.79936 0.92821 0.0
H655 H 0.75605 0.77409 0.9617 0.0
H656 H 0.70805 0.72932 0.94244 0.0
H657 H 0.81654 0.77908 0.97653 0.0
H658 H 0.79442 0.8555 0.9401 0.0
H659 H 0.78846 0.87936 0.91401 0.0
H660 H 0.90495 0.91563 0.90538 0.0
H661 H 0.91146 0.89148 0.93134 0.0
C662 C 0.93398 0.93681 0.01536 0.0
C663 C 0.97217 0.95715 0.01131 0.0
C664 C 0.90691 0.90857 0.00509 0.0
C665 C 0.91778 0.89983 0.99073 0.0
C666 C 0.95621 0.91959 0.98688 0.0
C667 C 0.98333 0.94771 0.99722 0.0
C668 C 0.88889 0.87092 0.97951 0.0
C669 C 0.88555 0.88192 0.9641 0.0
C670 C 0.86355 0.83345 0.9841 0.0
C671 C 0.86651 0.8198 6e-05 0.0
C672 C 0.90083 0.82301 0.00568 0.0
C673 C 0.90355 0.81056 0.02082 0.0
C674 C 0.87205 0.79459 0.03041 0.0
C675 C 0.83774 0.79094 0.02486 0.0
C676 C 0.83488 0.8034 0.00973 0.0
C677 C 0.78642 0.75928 0.92027 0.0
C678 C 0.7478 0.73936 0.92392 0.0
C679 C 0.81382 0.78431 0.93139 0.0
C680 C 0.80321 0.79054 0.94632 0.0
C681 C 0.76487 0.76994 0.95021 0.0
C682 C 0.73742 0.74461 0.93912 0.0
C683 C 0.83208 0.8191 0.95771 0.0
C684 C 0.8354 0.80805 0.97315 0.0
C685 C 0.85712 0.85679 0.95324 0.0
C686 C 0.85329 0.87127 0.93759 0.0
C687 C 0.81867 0.86825 0.93258 0.0
C688 C 0.81521 0.88189 0.91783 0.0
C689 C 0.84627 0.89889 0.90802 0.0
C690 C 0.88089 0.90239 0.91298 0.0
C691 C 0.88449 0.88875 0.92771 0.0
H692 H 0.84353 0.90945 0.8966 0.0
H693 H 0.87421 0.78497 0.04212 0.0
H694 H 0.06899 0.98699 0.33864 0.0
H695 H 0.06406 0.93781 0.32036 0.0
H696 H 0.94607 0.86708 0.33092 0.0
H697 H 0.95069 0.91627 0.34917 0.0
H698 H 0.98738 0.82932 0.33254 0.0
H699 H 0.96672 0.90833 0.29665 0.0
H700 H 0.98162 0.96862 0.28438 0.0
H701 H 0.08629 0.9818 0.26812 0.0
H702 H 0.07231 0.92186 0.28053 0.0
H703 H 0.93265 0.69052 0.27083 0.0
H704 H 0.93913 0.73975 0.28939 0.0
H705 H 0.05333 0.81361 0.27457 0.0
H706 H 0.04654 0.76491 0.25554 0.0
H707 H 0.01489 0.85036 0.27531 0.0
H708 H 0.0362 0.77184 0.3109 0.0
H709 H 0.0227 0.71242 0.32362 0.0
H710 H 0.91862 0.69896 0.34077 0.0
H711 H 0.93124 0.75807 0.32796 0.0
C712 C 0.04191 0.96109 0.33699 0.0
C713 C 0.0102 0.95551 0.34533 0.0
C714 C 0.03914 0.93305 0.32652 0.0
C715 C 0.00468 0.89887 0.32427 0.0
C716 C 0.97292 0.89327 0.33252 0.0
C717 C 0.97557 0.92146 0.34287 0.0
C718 C 0.00205 0.86869 0.31353 0.0
C719 C 0.99286 0.83367 0.31997 0.0
C720 C 0.01029 0.87487 0.29726 0.0
C721 C 0.01864 0.91078 0.28967 0.0
C722 C 0.99307 0.92424 0.29058 0.0
C723 C 0.00132 0.95832 0.28358 0.0
C724 C 0.03493 0.97907 0.27551 0.0
C725 C 0.0603 0.96572 0.27439 0.0
C726 C 0.05221 0.93168 0.2814 0.0
C727 C 0.95919 0.7172 0.27153 0.0
C728 C 0.98906 0.72377 0.26167 0.0
C729 C 0.96297 0.74523 0.28225 0.0
C730 C 0.99682 0.78033 0.28346 0.0
C731 C 0.02696 0.78674 0.27385 0.0
C732 C 0.02318 0.75871 0.2631 0.0
C733 C 1.00014 0.81079 0.29429 0.0
C734 C 0.00945 0.84593 0.28787 0.0
C735 C 0.99218 0.80477 0.31061 0.0
C736 C 0.9845 0.76921 0.31834 0.0
C737 C 0.01028 0.75605 0.31727 0.0
C738 C 0.00282 0.72246 0.32452 0.0
C739 C 0.96978 0.70188 0.33296 0.0
C740 C 0.94418 0.71491 0.33421 0.0
C741 C 0.95149 0.74847 0.32697 0.0
H742 H 0.96406 0.67588 0.33856 0.0
H743 H 0.04127 0.00546 0.2701 0.0
H744 H 0.14137 0.09683 0.68538 0.0
H745 H 0.18782 0.09612 0.668 0.0
H746 H 0.10863 0.97934 0.65492 0.0
H747 H 0.06285 0.97943 0.67308 0.0
H748 H 0.17334 0.98597 0.65845 0.0
H749 H 0.1299 0.05773 0.62973 0.0
H750 H 0.11416 0.10784 0.6252 0.0
H751 H 0.23072 0.19291 0.63464 0.0
H752 H 0.24708 0.14329 0.63943 0.0
H753 H 0.26608 0.99286 0.58546 0.0
H754 H 0.22112 0.99123 0.60433 0.0
H755 H 0.31253 0.08285 0.63162 0.0
H756 H 0.35839 0.08327 0.61344 0.0
H757 H 0.24235 0.08864 0.62043 0.0
H758 H 0.28268 0.01106 0.64871 0.0
H759 H 0.29444 0.95771 0.65082 0.0
H760 H 0.17712 0.87938 0.6388 0.0
H761 H 0.16479 0.93238 0.63638 0.0
C762 C 0.13381 0.07106 0.67874 0.0
C763 C 0.09842 0.03824 0.6805 0.0
C764 C 0.16034 0.07072 0.66871 0.0
C765 C 0.15161 0.0379 0.65983 0.0
C766 C 0.11615 0.00506 0.6616 0.0
C767 C 0.08992 0.00514 0.67193 0.0
C768 C 0.17973 0.03768 0.64897 0.0
C769 C 0.18797 0.00824 0.65002 0.0
C770 C 0.19933 0.06683 0.63799 0.0
C771 C 0.18964 0.09678 0.63509 0.0
C772 C 0.15213 0.08713 0.63095 0.0
C773 C 0.1431 0.11544 0.62832 0.0
C774 C 0.1714 0.15354 0.62967 0.0
C775 C 0.20882 0.16339 0.63361 0.0
C776 C 0.21799 0.13518 0.63627 0.0
C777 C 0.27704 0.01207 0.59567 0.0
C778 C 0.31621 0.03816 0.59785 0.0
C779 C 0.2511 0.01129 0.60636 0.0
C780 C 0.26358 0.03696 0.61929 0.0
C781 C 0.30243 0.06294 0.62162 0.0
C782 C 0.32855 0.06325 0.61113 0.0
C783 C 0.23578 0.03726 0.6301 0.0
C784 C 0.22759 0.06658 0.62894 0.0
C785 C 0.21557 0.00757 0.64066 0.0
C786 C 0.22292 0.97571 0.6422 0.0
C787 C 0.25948 0.9825 0.64636 0.0
C788 C 0.26623 0.95231 0.64765 0.0
C789 C 0.23657 0.91518 0.6449 0.0
C790 C 0.20008 0.90816 0.6409 0.0
C791 C 0.19319 0.93826 0.63959 0.0
H792 H 0.24185 0.89185 0.6459 0.0
H793 H 0.16436 0.17542 0.62763 0.0
H794 H 0.07525 0.12445 0.9918 0.0
H795 H 0.13015 0.16578 0.97643 0.0
H796 H 0.20267 0.14703 0.0087 0.0
H797 H 0.14763 0.10511 0.02423 0.0
H798 H 0.23193 0.22538 -0.00032 0.0
H799 H 0.18114 0.10122 0.97599 0.0
H800 H 0.12989 0.0403 0.96477 0.0
H801 H 0.10676 0.09847 0.9278 0.0
H802 H 0.15749 0.15981 0.93896 0.0
H803 H 0.38594 0.30988 0.94651 0.0
H804 H 0.33889 0.26771 0.96511 0.0
H805 H 0.24877 0.25443 0.93279 0.0
H806 H 0.29522 0.29449 0.91385 0.0
H807 H 0.23221 0.18892 0.94337 0.0
H808 H 0.27702 0.31209 0.96742 0.0
H809 H 0.32479 0.3745 0.97881 0.0
H810 H 0.35637 0.32059 0.01481 0.0
H811 H 0.30908 0.25783 0.0035 0.0
C812 C 0.10282 0.12915 0.99574 0.0
C813 C 0.10692 0.11119 0.00923 0.0
C814 C 0.13417 0.15278 0.98691 0.0
C815 C 0.17033 0.15917 0.99138 0.0
C816 C 0.17491 0.14234 0.00507 0.0
C817 C 0.14341 0.11829 0.01387 0.0
C818 C 0.20289 0.18252 0.98133 0.0
C819 C 0.23249 0.21722 0.98745 0.0
C820 C 0.203 0.17205 0.96531 0.0
C821 C 0.17295 0.13514 0.95838 0.0
C822 C 0.16496 0.10104 0.96553 0.0
C823 C 0.13602 0.06643 0.95917 0.0
C824 C 0.11503 0.06552 0.9456 0.0
C825 C 0.12303 0.09922 0.93832 0.0
C826 C 0.15191 0.13392 0.94465 0.0
C827 C 0.3561 0.29779 0.94332 0.0
C828 C 0.34449 0.3059 0.92869 0.0
C829 C 0.32922 0.27398 0.95405 0.0
C830 C 0.29023 0.25817 0.95044 0.0
C831 C 0.27865 0.26631 0.93588 0.0
C832 C 0.30538 0.28972 0.92512 0.0
C833 C 0.26115 0.23248 0.96156 0.0
C834 C 0.2321 0.19712 0.95565 0.0
C835 C 0.26137 0.24262 0.97771 0.0
C836 C 0.28985 0.2803 0.9845 0.0
C837 C 0.29438 0.31356 0.97768 0.0
C838 C 0.32132 0.34899 0.98414 0.0
C839 C 0.34369 0.35151 0.9975 0.0
C840 C 0.33908 0.3186 0.00445 0.0
C841 C 0.3122 0.28309 0.99802 0.0
H842 H 0.36452 0.37897 0.00248 0.0
H843 H 0.09261 0.03869 0.94071 0.0
H844 H 0.97077 0.07544 0.34195 0.0
H845 H 0.96088 0.11159 0.32125 0.0
H846 H 0.07712 0.20181 0.3284 0.0
H847 H 0.08621 0.16676 0.34974 0.0
H848 H 0.03699 0.23183 0.32657 0.0
H849 H 0.04086 0.13709 0.29436 0.0
H850 H 0.02306 0.0724 0.28555 0.0
H851 H 0.90857 0.04662 0.27566 0.0
H852 H 0.92556 0.11101 0.28461 0.0
H853 H 0.04679 0.32864 0.25505 0.0
H854 H 0.05491 0.28955 0.27474 0.0
H855 H 0.9335 0.2197 0.27731 0.0
H856 H 0.92489 0.2596 0.25813 0.0
H857 H 0.97493 0.17908 0.27369 0.0
H858 H 0.97563 0.27771 0.30616 0.0
H859 H 0.99795 0.34408 0.31397 0.0
H860 H 0.11111 0.36411 0.3218 0.0
H861 H 0.08955 0.29797 0.31382 0.0
C862 C 0.99427 0.10281 0.33894 0.0
C863 C 0.02925 0.11831 0.34742 0.0
C864 C 0.98868 0.12343 0.32705 0.0
C865 C 0.01838 0.15939 0.32306 0.0
C866 C 0.05365 0.17429 0.33127 0.0
C867 C 0.05891 0.15416 0.34342 0.0
C868 C 0.01236 0.18244 0.31096 0.0
C869 C 0.02394 0.22028 0.31493 0.0
C870 C 0.99466 0.16745 0.29582 0.0
C871 C 0.98441 0.12878 0.2903 0.0
C872 C 0.01183 0.11755 0.29041 0.0
C873 C 0.00189 0.08095 0.28537 0.0
C874 C 0.96469 0.05539 0.28009 0.0
C875 C 0.93737 0.06643 0.27978 0.0
C876 C 0.94714 0.10299 0.28481 0.0
C877 C 0.02171 0.30545 0.25998 0.0
C878 C 0.98513 0.29751 0.25499 0.0
C879 C 0.02647 0.2829 0.27113 0.0
C880 C 0.9948 0.25176 0.27744 0.0
C881 C 0.95828 0.24349 0.27248 0.0
C882 C 0.95347 0.26631 0.26147 0.0
C883 C 0.99993 0.22812 0.28937 0.0
C884 C 0.98807 0.19032 0.28535 0.0
C885 C 0.01815 0.24331 0.30432 0.0
C886 C 0.03104 0.28299 0.30925 0.0
C887 C 0.00533 0.29635 0.30943 0.0
C888 C 0.01783 0.33391 0.31391 0.0
C889 C 0.05594 0.35833 0.31834 0.0
C890 C 0.08161 0.34519 0.31835 0.0
C891 C 0.06926 0.30766 0.31386 0.0
H892 H 0.06557 0.3874 0.3218 0.0
H893 H 0.95705 0.02705 0.27621 0.0
loop_
_geom_bond_atom_site_label_1
_geom_bond_atom_site_label_2
_geom_bond_distance
_geom_bond_site_symmetry_2
_ccdc_geom_bond_type
Mn0 O5 2.095 . S
Mn0 O15 2.162 1_545 S
Mn0 O16 2.297 1_545 S
Mn0 O24 2.385 1_545 S
Mn0 O25 2.209 1_455 S
Mn0 O26 2.094 . S
Mn1 O6 2.121 . S
Mn1 N8 2.257 1_455 S
Mn1 N17 2.282 1_454 S
Mn1 O25 2.215 1_455 S
Mn1 O27 2.117 . S
C2 O24 1.234 1_655 S
C2 O25 1.283 1_565 S
C3 O15 1.281 . S
C3 O16 1.236 . S
C4 O26 1.240 . S
C4 O27 1.264 . S
O5 Mn0 2.095 . S
O5 C14 1.250 . S
O6 Mn1 2.121 . S
O6 C14 1.258 . S
C7 N8 1.326 . S
C7 C11 1.460 . S
C7 H13 0.929 . S
N8 Mn1 2.257 1_655 S
N8 C7 1.326 . S
N8 C12 1.362 . S
C9 C10 1.258 . S
C9 C12 1.431 . S
C9 C29 1.449 1_554 S
C10 C9 1.258 . S
C10 C11 1.477 . S
C10 H30 0.931 . S
C11 C7 1.460 . S
C11 C10 1.477 . S
C11 H31 0.930 . S
C12 N8 1.362 . S
C12 C9 1.431 . S
C12 C22 1.476 1_554 S
H13 C7 0.929 . S
C14 O5 1.250 . S
C14 O6 1.258 . S
O15 Mn0 2.162 1_565 S
O15 C3 1.281 . S
O16 Mn0 2.297 1_565 S
O16 C3 1.236 . S
N17 Mn1 2.282 1_656 S
N17 C18 1.328 1_655 S
N17 C22 1.318 . S
C18 N17 1.328 1_455 S
C18 C19 1.457 1_455 S
C18 H23 0.929 . S
C19 C18 1.457 1_655 S
C19 C20 1.291 . S
C19 H32 0.923 1_655 S
C20 C19 1.291 . S
C20 C21 1.373 . S
C20 H33 0.921 1_545 S
C21 C20 1.373 . S
C21 C22 1.396 . S
C21 C28 1.403 . S
C22 C12 1.476 1_556 S
C22 N17 1.318 . S
C22 C21 1.396 . S
H23 C18 0.929 . S
O24 Mn0 2.385 1_565 S
O24 C2 1.234 1_455 S
O25 Mn0 2.209 1_655 S
O25 Mn1 2.215 1_655 S
O25 C2 1.283 1_545 S
O26 Mn0 2.094 . S
O26 C4 1.240 . S
O27 Mn1 2.117 . S
O27 C4 1.264 . S
C28 C21 1.403 . S
C28 C29 1.399 . S
C28 H34 0.929 1_545 S
C29 C9 1.449 1_556 S
C29 C28 1.399 . S
C29 H35 0.930 . S
H30 C10 0.931 . S
H31 C11 0.930 . S
H32 C19 0.923 1_455 S
H33 C20 0.921 1_565 S
H34 C28 0.929 1_565 S
H35 C29 0.930 . S
Mn36 O41 2.095 . S
Mn36 O51 2.162 1_545 S
Mn36 O52 2.297 1_645 S
Mn36 O60 2.385 1_645 S
Mn36 O61 2.209 1_655 S
Mn36 O62 2.094 1_545 S
Mn37 O42 2.121 . S
Mn37 N44 2.257 . S
Mn37 N53 2.282 . S
Mn37 O61 2.215 . S
Mn37 O63 2.117 1_455 S
C38 O60 1.234 1_545 S
C38 O61 1.283 . S
C39 O51 1.281 1_455 S
C39 O52 1.236 . S
C40 O62 1.240 1_545 S
C40 O63 1.264 . S
O41 Mn36 2.095 . S
O41 C50 1.250 1_655 S
O42 Mn37 2.121 . S
O42 C50 1.258 . S
C43 N44 1.326 . S
C43 C47 1.460 . S
C43 H49 0.929 . S
N44 Mn37 2.257 . S
N44 C43 1.326 . S
N44 C48 1.362 . S
C45 C46 1.258 . S
C45 C48 1.431 . S
C45 C65 1.449 . S
C46 C45 1.258 . S
C46 C47 1.477 . S
C46 H66 0.931 . S
C47 C43 1.460 . S
C47 C46 1.477 . S
C47 H67 0.930 . S
C48 N44 1.362 . S
C48 C45 1.431 . S
C48 C58 1.476 . S
H49 C43 0.929 . S
C50 O41 1.250 1_455 S
C50 O42 1.258 . S
O51 Mn36 2.162 1_565 S
O51 C39 1.281 1_655 S
O52 Mn36 2.297 1_465 S
O52 C39 1.236 . S
N53 Mn37 2.282 . S
N53 C54 1.328 . S
N53 C58 1.318 . S
C54 N53 1.328 . S
C54 C55 1.457 . S
C54 H59 0.929 . S
C55 C54 1.457 . S
C55 C56 1.291 . S
C55 H68 0.931 . S
C56 C55 1.291 . S
C56 C57 1.373 . S
C56 H69 0.929 . S
C57 C56 1.373 . S
C57 C58 1.396 . S
C57 C64 1.403 . S
C58 C48 1.476 . S
C58 N53 1.318 . S
C58 C57 1.396 . S
H59 C54 0.929 . S
O60 Mn36 2.385 1_465 S
O60 C38 1.234 1_565 S
O61 Mn36 2.209 1_455 S
O61 Mn37 2.215 . S
O61 C38 1.283 . S
O62 Mn36 2.094 1_565 S
O62 C40 1.240 1_565 S
O63 Mn37 2.117 1_655 S
O63 C40 1.264 . S
C64 C57 1.403 . S
C64 C65 1.399 . S
C64 H70 0.929 . S
C65 C45 1.449 . S
C65 C64 1.399 . S
C65 H71 0.930 . S
H66 C46 0.931 . S
H67 C47 0.930 . S
H68 C55 0.931 . S
H69 C56 0.929 . S
H70 C64 0.929 . S
H71 C65 0.930 . S
Mn72 O77 2.095 1_455 S
Mn72 O87 2.162 1_545 S
Mn72 O88 2.297 . S
Mn72 O96 2.385 . S
Mn72 O97 2.209 . S
Mn72 O98 2.094 1_445 S
Mn73 O78 2.121 . S
Mn73 N80 2.257 . S
Mn73 N89 2.282 1_655 S
Mn73 O97 2.215 1_655 S
Mn73 O99 2.117 1_545 S
C74 O96 1.234 . S
C74 O97 1.283 . S
C75 O87 1.281 1_545 S
C75 O88 1.236 . S
C76 O98 1.240 . S
C76 O99 1.264 . S
O77 Mn72 2.095 1_655 S
O77 C86 1.250 . S
O78 Mn73 2.121 . S
O78 C86 1.258 . S
C79 N80 1.326 . S
C79 C83 1.460 1_655 S
C79 H85 0.929 . S
N80 Mn73 2.257 . S
N80 C79 1.326 . S
N80 C84 1.362 1_655 S
C81 C82 1.258 . S
C81 C84 1.431 . S
C81 C101 1.449 . S
C82 C81 1.258 . S
C82 C83 1.477 . S
C82 H102 0.931 . S
C83 C79 1.460 1_455 S
C83 C82 1.477 . S
C83 H103 0.928 1_455 S
C84 N80 1.362 1_455 S
C84 C81 1.431 . S
C84 C94 1.476 . S
H85 C79 0.929 . S
C86 O77 1.250 . S
C86 O78 1.258 . S
O87 Mn72 2.162 1_565 S
O87 C75 1.281 1_565 S
O88 Mn72 2.297 . S
O88 C75 1.236 . S
N89 Mn73 2.282 1_455 S
N89 C90 1.328 . S
N89 C94 1.318 . S
C90 N89 1.328 . S
C90 C91 1.457 . S
C90 H95 0.931 1_455 S
C91 C90 1.457 . S
C91 C92 1.291 . S
C91 H104 0.931 . S
C92 C91 1.291 . S
C92 C93 1.373 . S
C92 H105 0.929 . S
C93 C92 1.373 . S
C93 C94 1.396 . S
C93 C100 1.403 . S
C94 C84 1.476 . S
C94 N89 1.318 . S
C94 C93 1.396 . S
H95 C90 0.931 1_655 S
O96 Mn72 2.385 . S
O96 C74 1.234 . S
O97 Mn72 2.209 . S
O97 Mn73 2.215 1_455 S
O97 C74 1.283 . S
O98 Mn72 2.094 1_665 S
O98 C76 1.240 . S
O99 Mn73 2.117 1_565 S
O99 C76 1.264 . S
C100 C93 1.403 . S
C100 C101 1.399 . S
C100 H106 0.929 . S
C101 C81 1.449 . S
C101 C100 1.399 . S
C101 H107 0.930 . S
H102 C82 0.931 . S
H103 C83 0.928 1_655 S
H104 C91 0.931 . S
H105 C92 0.929 . S
H106 C100 0.929 . S
H107 C101 0.930 . S
H108 C135 0.929 . S
N109 C134 1.433 . S
N109 C140 1.435 . S
N109 C146 1.423 1_455 S
H110 C136 0.930 . S
H111 C139 0.931 . S
H112 C138 0.929 . S
H113 C141 0.930 . S
H114 C142 0.932 . S
H115 C145 0.929 . S
H116 C144 0.931 . S
H117 C147 0.929 . S
H118 C151 0.932 . S
H119 C148 0.931 . S
H120 C150 0.929 . S
H121 C153 0.929 . S
H122 C154 0.930 . S
H123 C156 0.929 . S
H124 C157 0.931 . S
H125 C159 0.930 . S
H126 C160 0.932 . S
H127 C162 0.931 . S
H128 C163 0.929 . S
H129 C165 0.929 . S
H130 C166 0.931 . S
H131 C168 0.929 . S
N132 C152 1.433 . S
N132 C158 1.435 . S
N132 C164 1.423 1_455 S
H133 C169 0.932 . S
C134 N109 1.433 . S
C134 C135 1.363 1_455 S
C134 C139 1.370 . S
C135 H108 0.929 . S
C135 C134 1.363 1_655 S
C135 C136 1.385 . S
C136 H110 0.930 . S
C136 C135 1.385 . S
C136 C137 1.357 1_655 S
C137 C136 1.357 1_455 S
C137 C138 1.406 . S
C138 H112 0.929 . S
C138 C137 1.406 . S
C138 C139 1.391 . S
C139 H111 0.931 . S
C139 C134 1.370 . S
C139 C138 1.391 . S
C140 N109 1.435 . S
C140 C141 1.358 . S
C140 C145 1.371 1_455 S
C141 H113 0.930 . S
C141 C140 1.358 . S
C141 C142 1.405 . S
C142 H114 0.932 . S
C142 C141 1.405 . S
C142 C143 1.383 . S
C143 C142 1.383 . S
C143 C144 1.393 1_455 S
C144 H116 0.931 . S
C144 C143 1.393 1_655 S
C144 C145 1.382 . S
C145 H115 0.929 . S
C145 C140 1.371 1_655 S
C145 C144 1.382 . S
C146 N109 1.423 1_655 S
C146 C147 1.362 . S
C146 C151 1.388 1_655 S
C147 H117 0.929 . S
C147 C146 1.362 . S
C147 C148 1.376 . S
C148 H119 0.931 . S
C148 C147 1.376 . S
C148 C149 1.396 . S
C149 C148 1.396 . S
C149 C150 1.348 1_655 S
C149 C167 1.472 . S
C150 H120 0.929 . S
C150 C149 1.348 1_455 S
C150 C151 1.443 . S
C151 H118 0.932 . S
C151 C146 1.388 1_455 S
C151 C150 1.443 . S
C152 N132 1.433 . S
C152 C153 1.363 1_455 S
C152 C157 1.370 . S
C153 H121 0.929 . S
C153 C152 1.363 1_655 S
C153 C154 1.385 . S
C154 H122 0.930 . S
C154 C153 1.385 . S
C154 C155 1.357 1_655 S
C155 C154 1.357 1_455 S
C155 C156 1.406 . S
C156 H123 0.929 . S
C156 C155 1.406 . S
C156 C157 1.391 . S
C157 H124 0.931 . S
C157 C152 1.370 . S
C157 C156 1.391 . S
C158 N132 1.435 . S
C158 C159 1.358 . S
C158 C163 1.371 1_455 S
C159 H125 0.930 . S
C159 C158 1.358 . S
C159 C160 1.405 . S
C160 H126 0.932 . S
C160 C159 1.405 . S
C160 C161 1.383 . S
C161 C160 1.383 . S
C161 C162 1.393 1_455 S
C162 H127 0.931 . S
C162 C161 1.393 1_655 S
C162 C163 1.382 . S
C163 H128 0.929 . S
C163 C158 1.371 1_655 S
C163 C162 1.382 . S
C164 N132 1.423 1_655 S
C164 C165 1.362 . S
C164 C169 1.388 1_655 S
C165 H129 0.929 . S
C165 C164 1.362 . S
C165 C166 1.376 . S
C166 H130 0.931 . S
C166 C165 1.376 . S
C166 C167 1.396 . S
C167 C149 1.472 . S
C167 C166 1.396 . S
C167 C168 1.348 1_655 S
C168 H131 0.929 . S
C168 C167 1.348 1_455 S
C168 C169 1.443 . S
C169 H133 0.932 . S
C169 C164 1.388 1_455 S
C169 C168 1.443 . S
H170 C197 0.929 . S
N171 C196 1.433 . S
N171 C202 1.435 . S
N171 C208 1.423 . S
H172 C198 0.930 . S
H173 C201 0.931 . S
H174 C200 0.929 . S
H175 C203 0.930 . S
H176 C204 0.932 . S
H177 C207 0.929 . S
H178 C206 0.931 . S
H179 C209 0.929 . S
H180 C213 0.932 . S
H181 C210 0.931 . S
H182 C212 0.929 . S
H183 C215 0.929 . S
H184 C216 0.930 . S
H185 C218 0.929 . S
H186 C219 0.931 . S
H187 C221 0.930 . S
H188 C222 0.932 . S
H189 C224 0.931 . S
H190 C225 0.929 . S
H191 C227 0.929 . S
H192 C228 0.931 . S
H193 C230 0.929 . S
N194 C214 1.433 . S
N194 C220 1.435 . S
N194 C226 1.423 . S
H195 C231 0.932 . S
C196 N171 1.433 . S
C196 C197 1.363 . S
C196 C201 1.370 . S
C197 H170 0.929 . S
C197 C196 1.363 . S
C197 C198 1.385 . S
C198 H172 0.930 . S
C198 C197 1.385 . S
C198 C199 1.357 . S
C199 C198 1.357 . S
C199 C200 1.406 . S
C200 H174 0.929 . S
C200 C199 1.406 . S
C200 C201 1.391 . S
C201 H173 0.931 . S
C201 C196 1.370 . S
C201 C200 1.391 . S
C202 N171 1.435 . S
C202 C203 1.358 . S
C202 C207 1.371 . S
C203 H175 0.930 . S
C203 C202 1.358 . S
C203 C204 1.405 . S
C204 H176 0.932 . S
C204 C203 1.405 . S
C204 C205 1.383 . S
C205 C204 1.383 . S
C205 C206 1.393 . S
C206 H178 0.931 . S
C206 C205 1.393 . S
C206 C207 1.382 . S
C207 H177 0.929 . S
C207 C202 1.371 . S
C207 C206 1.382 . S
C208 N171 1.423 . S
C208 C209 1.362 . S
C208 C213 1.388 . S
C209 H179 0.929 . S
C209 C208 1.362 . S
C209 C210 1.376 . S
C210 H181 0.931 . S
C210 C209 1.376 . S
C210 C211 1.396 . S
C211 C210 1.396 . S
C211 C212 1.348 . S
C211 C229 1.472 . S
C212 H182 0.929 . S
C212 C211 1.348 . S
C212 C213 1.443 . S
C213 H180 0.932 . S
C213 C208 1.388 . S
C213 C212 1.443 . S
C214 N194 1.433 . S
C214 C215 1.363 . S
C214 C219 1.370 . S
C215 H183 0.929 . S
C215 C214 1.363 . S
C215 C216 1.385 . S
C216 H184 0.930 . S
C216 C215 1.385 . S
C216 C217 1.357 . S
C217 C216 1.357 . S
C217 C218 1.406 . S
C218 H185 0.929 . S
C218 C217 1.406 . S
C218 C219 1.391 . S
C219 H186 0.931 . S
C219 C214 1.370 . S
C219 C218 1.391 . S
C220 N194 1.435 . S
C220 C221 1.358 . S
C220 C225 1.371 . S
C221 H187 0.930 . S
C221 C220 1.358 . S
C221 C222 1.405 . S
C222 H188 0.932 . S
C222 C221 1.405 . S
C222 C223 1.383 . S
C223 C222 1.383 . S
C223 C224 1.393 . S
C224 H189 0.931 . S
C224 C223 1.393 . S
C224 C225 1.382 . S
C225 H190 0.929 . S
C225 C220 1.371 . S
C225 C224 1.382 . S
C226 N194 1.423 . S
C226 C227 1.362 . S
C226 C231 1.388 . S
C227 H191 0.929 . S
C227 C226 1.362 . S
C227 C228 1.376 . S
C228 H192 0.931 . S
C228 C227 1.376 . S
C228 C229 1.396 . S
C229 C211 1.472 . S
C229 C228 1.396 . S
C229 C230 1.348 . S
C230 H193 0.929 . S
C230 C229 1.348 . S
C230 C231 1.443 . S
C231 H195 0.932 . S
C231 C226 1.388 . S
C231 C230 1.443 . S
H232 C259 0.929 . S
N233 C258 1.433 . S
N233 C264 1.435 . S
N233 C270 1.423 . S
H234 C260 0.930 . S
H235 C263 0.931 . S
H236 C262 0.929 . S
H237 C265 0.930 . S
H238 C266 0.932 . S
H239 C269 0.929 . S
H240 C268 0.931 . S
H241 C271 0.929 . S
H242 C275 0.932 . S
H243 C272 0.931 . S
H244 C274 0.929 . S
H245 C277 0.929 . S
H246 C278 0.930 . S
H247 C280 0.929 . S
H248 C281 0.931 . S
H249 C283 0.930 . S
H250 C284 0.932 . S
H251 C286 0.931 . S
H252 C287 0.929 . S
H253 C289 0.929 . S
H254 C290 0.931 . S
H255 C292 0.929 . S
N256 C276 1.433 . S
N256 C282 1.435 . S
N256 C288 1.423 . S
H257 C293 0.932 . S
C258 N233 1.433 . S
C258 C259 1.363 . S
C258 C263 1.370 . S
C259 H232 0.929 . S
C259 C258 1.363 . S
C259 C260 1.385 . S
C260 H234 0.930 . S
C260 C259 1.385 . S
C260 C261 1.357 . S
C261 C260 1.357 . S
C261 C262 1.406 . S
C262 H236 0.929 . S
C262 C261 1.406 . S
C262 C263 1.391 . S
C263 H235 0.931 . S
C263 C258 1.370 . S
C263 C262 1.391 . S
C264 N233 1.435 . S
C264 C265 1.358 . S
C264 C269 1.371 . S
C265 H237 0.930 . S
C265 C264 1.358 . S
C265 C266 1.405 . S
C266 H238 0.932 . S
C266 C265 1.405 . S
C266 C267 1.383 . S
C267 C266 1.383 . S
C267 C268 1.393 . S
C268 H240 0.931 . S
C268 C267 1.393 . S
C268 C269 1.382 . S
C269 H239 0.929 . S
C269 C264 1.371 . S
C269 C268 1.382 . S
C270 N233 1.423 . S
C270 C271 1.362 . S
C270 C275 1.388 . S
C271 H241 0.929 . S
C271 C270 1.362 . S
C271 C272 1.376 . S
C272 H243 0.931 . S
C272 C271 1.376 . S
C272 C273 1.396 . S
C273 C272 1.396 . S
C273 C274 1.348 . S
C273 C291 1.472 . S
C274 H244 0.929 . S
C274 C273 1.348 . S
C274 C275 1.443 . S
C275 H242 0.932 . S
C275 C270 1.388 . S
C275 C274 1.443 . S
C276 N256 1.433 . S
C276 C277 1.363 . S
C276 C281 1.370 . S
C277 H245 0.929 . S
C277 C276 1.363 . S
C277 C278 1.385 . S
C278 H246 0.930 . S
C278 C277 1.385 . S
C278 C279 1.357 . S
C279 C278 1.357 . S
C279 C280 1.406 . S
C280 H247 0.929 . S
C280 C279 1.406 . S
C280 C281 1.391 . S
C281 H248 0.931 . S
C281 C276 1.370 . S
C281 C280 1.391 . S
C282 N256 1.435 . S
C282 C283 1.358 . S
C282 C287 1.371 . S
C283 H249 0.930 . S
C283 C282 1.358 . S
C283 C284 1.405 . S
C284 H250 0.932 . S
C284 C283 1.405 . S
C284 C285 1.383 . S
C285 C284 1.383 . S
C285 C286 1.393 . S
C286 H251 0.931 . S
C286 C285 1.393 . S
C286 C287 1.382 . S
C287 H252 0.929 . S
C287 C282 1.371 . S
C287 C286 1.382 . S
C288 N256 1.423 . S
C288 C289 1.362 . S
C288 C293 1.388 . S
C289 H253 0.929 . S
C289 C288 1.362 . S
C289 C290 1.376 . S
C290 H254 0.931 . S
C290 C289 1.376 . S
C290 C291 1.396 . S
C291 C273 1.472 . S
C291 C290 1.396 . S
C291 C292 1.348 . S
C292 H255 0.929 . S
C292 C291 1.348 . S
C292 C293 1.443 . S
C293 H257 0.932 . S
C293 C288 1.388 . S
C293 C292 1.443 . S
H294 C312 0.951 . S
H295 C314 0.951 . S
H296 C316 0.950 . S
H297 C317 0.950 . S
H298 C319 0.950 . S
H299 C322 0.950 . S
H300 C323 0.950 . S
H301 C325 0.950 . S
H302 C326 0.950 . S
H303 C327 0.951 . S
H304 C329 0.951 . S
H305 C331 0.950 . S
H306 C332 0.950 . S
H307 C334 0.950 1_655 S
H308 C337 0.950 . S
H309 C338 0.950 . S
H310 C340 0.950 . S
H311 C341 0.950 . S
C312 H294 0.951 . S
C312 C313 1.366 1_655 S
C312 C314 1.388 . S
C313 C312 1.366 1_455 S
C313 C317 1.385 . S
C314 H295 0.951 . S
C314 C312 1.388 . S
C314 C315 1.366 1_655 S
C315 C314 1.366 1_455 S
C315 C316 1.414 . S
C315 C318 1.499 . S
C316 H296 0.950 . S
C316 C315 1.414 . S
C316 C317 1.374 . S
C317 H297 0.950 . S
C317 C313 1.385 . S
C317 C316 1.374 . S
C318 C315 1.499 . S
C318 C319 1.373 . S
C318 C320 1.389 . S
C319 H298 0.950 . S
C319 C318 1.373 . S
C319 C335 1.377 . S
C320 C318 1.389 . S
C320 C321 1.524 1_455 S
C320 C334 1.377 . S
C321 C320 1.524 1_655 S
C321 C322 1.397 1_655 S
C321 C326 1.363 . S
C322 H299 0.950 . S
C322 C321 1.397 1_455 S
C322 C323 1.334 . S
C323 H300 0.950 . S
C323 C322 1.334 . S
C323 C324 1.287 1_455 S
C324 C323 1.287 1_655 S
C324 C325 1.524 . S
C324 H343 0.913 . S
C325 H301 0.950 . S
C325 C324 1.524 . S
C325 C326 1.415 . S
C326 H302 0.950 . S
C326 C321 1.363 . S
C326 C325 1.415 . S
C327 H303 0.951 . S
C327 C328 1.366 . S
C327 C329 1.388 . S
C328 C327 1.366 . S
C328 C332 1.385 1_455 S
C329 H304 0.951 . S
C329 C327 1.388 . S
C329 C330 1.366 . S
C330 C329 1.366 . S
C330 C331 1.414 1_455 S
C330 C333 1.499 . S
C331 H305 0.950 . S
C331 C330 1.414 1_655 S
C331 C332 1.374 . S
C332 H306 0.950 . S
C332 C328 1.385 1_655 S
C332 C331 1.374 . S
C333 C330 1.499 . S
C333 C334 1.373 . S
C333 C335 1.389 . S
C334 H307 0.950 1_455 S
C334 C320 1.377 . S
C334 C333 1.373 . S
C335 C319 1.377 . S
C335 C333 1.389 . S
C335 C336 1.524 . S
C336 C335 1.524 . S
C336 C337 1.397 . S
C336 C341 1.363 . S
C337 H308 0.950 . S
C337 C336 1.397 . S
C337 C338 1.334 . S
C338 H309 0.950 . S
C338 C337 1.334 . S
C338 C339 1.287 . S
C339 C338 1.287 . S
C339 C340 1.524 . S
C339 H342 0.999 . S
C340 H310 0.950 . S
C340 C339 1.524 . S
C340 C341 1.415 . S
C341 H311 0.950 . S
C341 C336 1.363 . S
C341 C340 1.415 . S
H342 C339 0.999 . S
H343 C324 0.913 . S
H344 C362 0.951 . S
H345 C364 0.952 . S
H346 C366 0.950 . S
H347 C367 0.950 . S
H348 C369 0.950 . S
H349 C372 0.950 . S
H350 C373 0.950 . S
H351 C375 0.950 . S
H352 C376 0.950 . S
H353 C377 0.951 . S
H354 C379 0.951 . S
H355 C381 0.950 1_565 S
H356 C382 0.950 . S
H357 C384 0.950 . S
H358 C387 0.950 . S
H359 C388 0.950 . S
H360 C390 0.950 . S
H361 C391 0.950 . S
C362 H344 0.951 . S
C362 C363 1.366 1_565 S
C362 C364 1.400 . S
C363 C362 1.366 1_545 S
C363 C367 1.385 . S
C364 H345 0.952 . S
C364 C362 1.400 . S
C364 C365 1.353 1_565 S
C365 C364 1.353 1_545 S
C365 C366 1.414 . S
C365 C368 1.499 . S
C366 H346 0.950 . S
C366 C365 1.414 . S
C366 C367 1.374 . S
C367 H347 0.950 . S
C367 C363 1.385 . S
C367 C366 1.374 . S
C368 C365 1.499 . S
C368 C369 1.373 . S
C368 C370 1.389 . S
C369 H348 0.950 . S
C369 C368 1.373 . S
C369 C385 1.377 . S
C370 C368 1.389 . S
C370 C371 1.524 . S
C370 C384 1.377 . S
C371 C370 1.524 . S
C371 C372 1.397 . S
C371 C376 1.363 . S
C372 H349 0.950 . S
C372 C371 1.397 . S
C372 C373 1.334 . S
C373 H350 0.950 . S
C373 C372 1.334 . S
C373 C374 1.287 . S
C374 C373 1.287 . S
C374 C375 1.524 . S
C374 H393 0.913 . S
C375 H351 0.950 . S
C375 C374 1.524 . S
C375 C376 1.415 . S
C376 H352 0.950 . S
C376 C371 1.363 . S
C376 C375 1.415 . S
C377 H353 0.951 . S
C377 C378 1.366 . S
C377 C379 1.388 . S
C378 C377 1.366 . S
C378 C382 1.385 . S
C379 H354 0.951 . S
C379 C377 1.388 . S
C379 C380 1.366 . S
C380 C379 1.366 . S
C380 C381 1.414 . S
C380 C383 1.499 . S
C381 H355 0.950 1_545 S
C381 C380 1.414 . S
C381 C382 1.374 . S
C382 H356 0.950 . S
C382 C378 1.385 . S
C382 C381 1.374 . S
C383 C380 1.499 . S
C383 C384 1.373 . S
C383 C385 1.389 . S
C384 H357 0.950 . S
C384 C370 1.377 . S
C384 C383 1.373 . S
C385 C369 1.377 . S
C385 C383 1.389 . S
C385 C386 1.524 . S
C386 C385 1.524 . S
C386 C387 1.397 1_545 S
C386 C391 1.363 . S
C387 H358 0.950 . S
C387 C386 1.397 1_565 S
C387 C388 1.334 . S
C388 H359 0.950 . S
C388 C387 1.334 . S
C388 C389 1.287 . S
C389 C388 1.287 . S
C389 C390 1.524 1_565 S
C389 H392 0.999 . S
C390 H360 0.950 . S
C390 C389 1.524 1_545 S
C390 C391 1.415 . S
C391 H361 0.950 . S
C391 C386 1.363 . S
C391 C390 1.415 . S
H392 C389 0.999 . S
H393 C374 0.913 . S
H394 C412 0.951 . S
H395 C414 0.951 . S
H396 C416 0.950 . S
H397 C417 0.950 . S
H398 C419 0.950 . S
H399 C422 0.950 . S
H400 C423 0.950 . S
H401 C425 0.950 . S
H402 C426 0.950 . S
H403 C427 0.951 . S
H404 C429 0.951 . S
H405 C431 0.950 . S
H406 C432 0.950 . S
H407 C434 0.950 . S
H408 C437 0.950 . S
H409 C438 0.950 . S
H410 C440 0.950 . S
H411 C441 0.950 . S
C412 H394 0.951 . S
C412 C413 1.366 . S
C412 C414 1.388 . S
C413 C412 1.366 . S
C413 C417 1.385 . S
C414 H395 0.951 . S
C414 C412 1.388 . S
C414 C415 1.366 . S
C415 C414 1.366 . S
C415 C416 1.414 . S
C415 C418 1.499 . S
C416 H396 0.950 . S
C416 C415 1.414 . S
C416 C417 1.374 . S
C417 H397 0.950 . S
C417 C413 1.385 . S
C417 C416 1.374 . S
C418 C415 1.499 . S
C418 C419 1.373 . S
C418 C420 1.389 . S
C419 H398 0.950 . S
C419 C418 1.373 . S
C419 C435 1.377 . S
C420 C418 1.389 . S
C420 C421 1.524 . S
C420 C434 1.377 . S
C421 C420 1.524 . S
C421 C422 1.397 . S
C421 C426 1.363 . S
C422 H399 0.950 . S
C422 C421 1.397 . S
C422 C423 1.334 . S
C423 H400 0.950 . S
C423 C422 1.334 . S
C423 C424 1.287 . S
C424 C423 1.287 . S
C424 C425 1.524 . S
C424 H443 0.913 . S
C425 H401 0.950 . S
C425 C424 1.524 . S
C425 C426 1.415 . S
C426 H402 0.950 . S
C426 C421 1.363 . S
C426 C425 1.415 . S
C427 H403 0.951 . S
C427 C428 1.366 . S
C427 C429 1.388 . S
C428 C427 1.366 . S
C428 C432 1.385 . S
C429 H404 0.951 . S
C429 C427 1.388 . S
C429 C430 1.366 . S
C430 C429 1.366 . S
C430 C431 1.414 . S
C430 C433 1.499 . S
C431 H405 0.950 . S
C431 C430 1.414 . S
C431 C432 1.374 . S
C432 H406 0.950 . S
C432 C428 1.385 . S
C432 C431 1.374 . S
C433 C430 1.499 . S
C433 C434 1.373 . S
C433 C435 1.389 . S
C434 H407 0.950 . S
C434 C420 1.377 . S
C434 C433 1.373 . S
C435 C419 1.377 . S
C435 C433 1.389 . S
C435 C436 1.524 . S
C436 C435 1.524 . S
C436 C437 1.397 . S
C436 C441 1.363 . S
C437 H408 0.950 . S
C437 C436 1.397 . S
C437 C438 1.334 . S
C438 H409 0.950 . S
C438 C437 1.334 . S
C438 C439 1.287 . S
C439 C438 1.287 . S
C439 C440 1.524 . S
C439 H442 0.999 . S
C440 H410 0.950 . S
C440 C439 1.524 . S
C440 C441 1.415 . S
C441 H411 0.950 . S
C441 C436 1.363 . S
C441 C440 1.415 . S
H442 C439 0.999 . S
H443 C424 0.913 . S
H444 C462 0.951 . S
H445 C464 0.951 . S
H446 C466 0.950 1_655 S
H447 C467 0.950 1_655 S
H448 C469 0.950 . S
H449 C472 0.950 . S
H450 C473 0.950 . S
H451 C475 0.950 . S
H452 C476 0.950 . S
H453 C477 0.951 . S
H454 C479 0.951 . S
H455 C481 0.950 . S
H456 C482 0.950 . S
H457 C484 0.950 . S
H458 C487 0.950 . S
H459 C488 0.950 . S
H460 C490 0.950 . S
H461 C491 0.950 . S
C462 H444 0.951 . S
C462 C463 1.366 . S
C462 C464 1.388 . S
C463 C462 1.366 . S
C463 C467 1.385 . S
C464 H445 0.951 . S
C464 C462 1.388 . S
C464 C465 1.366 . S
C465 C464 1.366 . S
C465 C466 1.414 . S
C465 C468 1.499 . S
C466 H446 0.950 1_455 S
C466 C465 1.414 . S
C466 C467 1.374 . S
C467 H447 0.950 1_455 S
C467 C463 1.385 . S
C467 C466 1.374 . S
C468 C465 1.499 . S
C468 C469 1.373 . S
C468 C470 1.389 . S
C469 H448 0.950 . S
C469 C468 1.373 . S
C469 C485 1.377 . S
C470 C468 1.389 . S
C470 C471 1.524 . S
C470 C484 1.377 . S
C471 C470 1.524 . S
C471 C472 1.397 . S
C471 C476 1.363 . S
C472 H449 0.950 . S
C472 C471 1.397 . S
C472 C473 1.334 . S
C473 H450 0.950 . S
C473 C472 1.334 . S
C473 C474 1.287 . S
C474 C473 1.287 . S
C474 C475 1.524 . S
C474 H493 0.913 . S
C475 H451 0.950 . S
C475 C474 1.524 . S
C475 C476 1.415 . S
C476 H452 0.950 . S
C476 C471 1.363 . S
C476 C475 1.415 . S
C477 H453 0.951 . S
C477 C478 1.366 1_655 S
C477 C479 1.388 . S
C478 C477 1.366 1_455 S
C478 C482 1.385 . S
C479 H454 0.951 . S
C479 C477 1.388 . S
C479 C480 1.366 1_655 S
C480 C479 1.366 1_455 S
C480 C481 1.414 . S
C480 C483 1.499 . S
C481 H455 0.950 . S
C481 C480 1.414 . S
C481 C482 1.374 . S
C482 H456 0.950 . S
C482 C478 1.385 . S
C482 C481 1.374 . S
C483 C480 1.499 . S
C483 C484 1.373 . S
C483 C485 1.389 . S
C484 H457 0.950 . S
C484 C470 1.377 . S
C484 C483 1.373 . S
C485 C469 1.377 . S
C485 C483 1.389 . S
C485 C486 1.524 . S
C486 C485 1.524 . S
C486 C487 1.397 . S
C486 C491 1.363 1_455 S
C487 H458 0.950 . S
C487 C486 1.397 . S
C487 C488 1.334 . S
C488 H459 0.950 . S
C488 C487 1.334 . S
C488 C489 1.287 1_455 S
C489 C488 1.287 1_655 S
C489 C490 1.524 . S
C489 H492 0.999 . S
C490 H460 0.950 . S
C490 C489 1.524 . S
C490 C491 1.415 . S
C491 H461 0.950 . S
C491 C486 1.363 1_655 S
C491 C490 1.415 . S
H492 C489 0.999 . S
H493 C474 0.913 . S
H494 C512 0.951 . S
H495 C514 0.951 . S
H496 C516 0.950 . S
H497 C517 0.950 . S
H498 C519 0.950 . S
H499 C522 0.950 . S
H500 C523 0.950 . S
H501 C525 0.950 . S
H502 C526 0.950 . S
H503 C527 0.951 . S
H504 C529 0.951 . S
H505 C531 0.950 . S
H506 C532 0.950 . S
H507 C534 0.950 . S
H508 C537 0.950 . S
H509 C538 0.950 . S
H510 C540 0.950 . S
H511 C541 0.950 . S
C512 H494 0.951 . S
C512 C513 1.366 . S
C512 C514 1.388 . S
C513 C512 1.366 . S
C513 C517 1.385 . S
C514 H495 0.951 . S
C514 C512 1.388 . S
C514 C515 1.366 . S
C515 C514 1.366 . S
C515 C516 1.414 . S
C515 C518 1.499 . S
C516 H496 0.950 . S
C516 C515 1.414 . S
C516 C517 1.374 . S
C517 H497 0.950 . S
C517 C513 1.385 . S
C517 C516 1.374 . S
C518 C515 1.499 . S
C518 C519 1.373 . S
C518 C520 1.389 . S
C519 H498 0.950 . S
C519 C518 1.373 . S
C519 C535 1.377 . S
C520 C518 1.389 . S
C520 C521 1.524 . S
C520 C534 1.377 . S
C521 C520 1.524 . S
C521 C522 1.397 . S
C521 C526 1.363 . S
C522 H499 0.950 . S
C522 C521 1.397 . S
C522 C523 1.334 . S
C523 H500 0.950 . S
C523 C522 1.334 . S
C523 C524 1.287 . S
C524 C523 1.287 . S
C524 C525 1.524 . S
C524 H543 0.913 . S
C525 H501 0.950 . S
C525 C524 1.524 . S
C525 C526 1.415 . S
C526 H502 0.950 . S
C526 C521 1.363 . S
C526 C525 1.415 . S
C527 H503 0.951 . S
C527 C528 1.366 . S
C527 C529 1.388 . S
C528 C527 1.366 . S
C528 C532 1.385 . S
C529 H504 0.951 . S
C529 C527 1.388 . S
C529 C530 1.366 . S
C530 C529 1.366 . S
C530 C531 1.414 . S
C530 C533 1.499 . S
C531 H505 0.950 . S
C531 C530 1.414 . S
C531 C532 1.374 . S
C532 H506 0.950 . S
C532 C528 1.385 . S
C532 C531 1.374 . S
C533 C530 1.499 . S
C533 C534 1.373 . S
C533 C535 1.389 . S
C534 H507 0.950 . S
C534 C520 1.377 . S
C534 C533 1.373 . S
C535 C519 1.377 . S
C535 C533 1.389 . S
C535 C536 1.524 . S
C536 C535 1.524 . S
C536 C537 1.397 1_545 S
C536 C541 1.363 . S
C537 H508 0.950 . S
C537 C536 1.397 1_565 S
C537 C538 1.334 . S
C538 H509 0.950 . S
C538 C537 1.334 . S
C538 C539 1.287 . S
C539 C538 1.287 . S
C539 C540 1.524 1_565 S
C539 H542 0.999 . S
C540 H510 0.950 . S
C540 C539 1.524 1_545 S
C540 C541 1.415 . S
C541 H511 0.950 . S
C541 C536 1.363 . S
C541 C540 1.415 . S
H542 C539 0.999 . S
H543 C524 0.913 . S
H544 C562 0.951 . S
H545 C564 0.951 . S
H546 C566 0.950 . S
H547 C567 0.950 . S
H548 C569 0.950 . S
H549 C572 0.950 . S
H550 C573 0.950 . S
H551 C575 0.950 . S
H552 C576 0.950 . S
H553 C577 0.951 . S
H554 C579 0.951 . S
H555 C581 0.950 . S
H556 C582 0.950 . S
H557 C584 0.950 . S
H558 C587 0.950 . S
H559 C588 0.950 . S
H560 C590 0.950 . S
H561 C591 0.950 . S
C562 H544 0.951 . S
C562 C563 1.366 . S
C562 C564 1.388 . S
C563 C562 1.366 . S
C563 C567 1.385 . S
C564 H545 0.951 . S
C564 C562 1.388 . S
C564 C565 1.366 . S
C565 C564 1.366 . S
C565 C566 1.414 . S
C565 C568 1.499 . S
C566 H546 0.950 . S
C566 C565 1.414 . S
C566 C567 1.374 . S
C567 H547 0.950 . S
C567 C563 1.385 . S
C567 C566 1.374 . S
C568 C565 1.499 . S
C568 C569 1.373 . S
C568 C570 1.389 . S
C569 H548 0.950 . S
C569 C568 1.373 . S
C569 C585 1.377 . S
C570 C568 1.389 . S
C570 C571 1.524 . S
C570 C584 1.377 . S
C571 C570 1.524 . S
C571 C572 1.397 . S
C571 C576 1.363 . S
C572 H549 0.950 . S
C572 C571 1.397 . S
C572 C573 1.334 . S
C573 H550 0.950 . S
C573 C572 1.334 . S
C573 C574 1.287 . S
C574 C573 1.287 . S
C574 C575 1.524 . S
C574 H593 0.913 . S
C575 H551 0.950 . S
C575 C574 1.524 . S
C575 C576 1.415 . S
C576 H552 0.950 . S
C576 C571 1.363 . S
C576 C575 1.415 . S
C577 H553 0.951 . S
C577 C578 1.366 . S
C577 C579 1.388 . S
C578 C577 1.366 . S
C578 C582 1.385 . S
C579 H554 0.951 . S
C579 C577 1.388 . S
C579 C580 1.366 . S
C580 C579 1.366 . S
C580 C581 1.414 . S
C580 C583 1.499 . S
C581 H555 0.950 . S
C581 C580 1.414 . S
C581 C582 1.374 . S
C582 H556 0.950 . S
C582 C578 1.385 . S
C582 C581 1.374 . S
C583 C580 1.499 . S
C583 C584 1.373 . S
C583 C585 1.389 . S
C584 H557 0.950 . S
C584 C570 1.377 . S
C584 C583 1.373 . S
C585 C569 1.377 . S
C585 C583 1.389 . S
C585 C586 1.524 . S
C586 C585 1.524 . S
C586 C587 1.397 . S
C586 C591 1.363 . S
C587 H558 0.950 . S
C587 C586 1.397 . S
C587 C588 1.334 . S
C588 H559 0.950 . S
C588 C587 1.334 . S
C588 C589 1.287 . S
C589 C588 1.287 . S
C589 C590 1.524 . S
C589 H592 0.999 . S
C590 H560 0.950 . S
C590 C589 1.524 . S
C590 C591 1.415 . S
C591 H561 0.950 . S
C591 C586 1.363 . S
C591 C590 1.415 . S
H592 C589 0.999 . S
H593 C574 0.913 . S
H594 C612 0.951 1_565 S
H595 C614 0.951 1_565 S
H596 C616 0.950 . S
H597 C617 0.950 . S
H598 C619 0.950 . S
H599 C622 0.950 . S
H600 C623 0.950 . S
H601 C625 0.950 . S
H602 C626 0.950 . S
H603 C627 0.951 . S
H604 C629 0.951 . S
H605 C631 0.950 1_565 S
H606 C632 0.950 1_565 S
H607 C634 0.950 1_565 S
H608 C637 0.950 . S
H609 C638 0.950 . S
H610 C640 0.950 . S
H611 C641 0.950 . S
C612 H594 0.951 1_545 S
C612 C613 1.366 . S
C612 C614 1.388 . S
C613 C612 1.366 . S
C613 C617 1.385 . S
C614 H595 0.951 1_545 S
C614 C612 1.388 . S
C614 C615 1.366 . S
C615 C614 1.366 . S
C615 C616 1.414 . S
C615 C618 1.499 . S
C616 H596 0.950 . S
C616 C615 1.414 . S
C616 C617 1.374 . S
C617 H597 0.950 . S
C617 C613 1.385 . S
C617 C616 1.374 . S
C618 C615 1.499 . S
C618 C619 1.373 . S
C618 C620 1.389 . S
C619 H598 0.950 . S
C619 C618 1.373 . S
C619 C635 1.377 . S
C620 C618 1.389 . S
C620 C621 1.524 1_545 S
C620 C634 1.377 . S
C621 C620 1.524 1_565 S
C621 C622 1.397 . S
C621 C626 1.363 . S
C622 H599 0.950 . S
C622 C621 1.397 . S
C622 C623 1.334 . S
C623 H600 0.950 . S
C623 C622 1.334 . S
C623 C624 1.287 . S
C624 C623 1.287 . S
C624 C625 1.524 . S
C624 H643 0.913 . S
C625 H601 0.950 . S
C625 C624 1.524 . S
C625 C626 1.415 . S
C626 H602 0.950 . S
C626 C621 1.363 . S
C626 C625 1.415 . S
C627 H603 0.951 . S
C627 C628 1.366 . S
C627 C629 1.388 . S
C628 C627 1.366 . S
C628 C632 1.385 . S
C629 H604 0.951 . S
C629 C627 1.388 . S
C629 C630 1.366 . S
C630 C629 1.366 . S
C630 C631 1.414 . S
C630 C633 1.499 . S
C631 H605 0.950 1_545 S
C631 C630 1.414 . S
C631 C632 1.374 . S
C632 H606 0.950 1_545 S
C632 C628 1.385 . S
C632 C631 1.374 . S
C633 C630 1.499 . S
C633 C634 1.373 . S
C633 C635 1.389 . S
C634 H607 0.950 1_545 S
C634 C620 1.377 . S
C634 C633 1.373 . S
C635 C619 1.377 . S
C635 C633 1.389 . S
C635 C636 1.524 . S
C636 C635 1.524 . S
C636 C637 1.397 . S
C636 C641 1.363 . S
C637 H608 0.950 . S
C637 C636 1.397 . S
C637 C638 1.334 . S
C638 H609 0.950 . S
C638 C637 1.334 . S
C638 C639 1.287 . S
C639 C638 1.287 . S
C639 C640 1.524 . S
C639 H642 0.999 . S
C640 H610 0.950 . S
C640 C639 1.524 . S
C640 C641 1.415 . S
C641 H611 0.950 . S
C641 C636 1.363 . S
C641 C640 1.415 . S
H642 C639 0.999 . S
H643 C624 0.913 . S
H644 C662 0.951 . S
H645 C664 0.951 . S
H646 C666 0.950 . S
H647 C667 0.950 . S
H648 C669 0.950 . S
H649 C672 0.950 . S
H650 C673 0.950 . S
H651 C675 0.950 . S
H652 C676 0.950 1_556 S
H653 C677 0.951 . S
H654 C679 0.951 . S
H655 C681 0.950 . S
H656 C682 0.950 . S
H657 C684 0.950 . S
H658 C687 0.950 . S
H659 C688 0.950 . S
H660 C690 0.950 . S
H661 C691 0.950 . S
C662 H644 0.951 . S
C662 C663 1.366 . S
C662 C664 1.388 1_554 S
C663 C662 1.366 . S
C663 C667 1.385 . S
C664 H645 0.951 . S
C664 C662 1.388 1_556 S
C664 C665 1.366 . S
C665 C664 1.366 . S
C665 C666 1.414 . S
C665 C668 1.499 . S
C666 H646 0.950 . S
C666 C665 1.414 . S
C666 C667 1.374 1_556 S
C667 H647 0.950 . S
C667 C663 1.385 . S
C667 C666 1.374 1_554 S
C668 C665 1.499 . S
C668 C669 1.373 . S
C668 C670 1.389 . S
C669 H648 0.950 . S
C669 C668 1.373 . S
C669 C685 1.377 . S
C670 C668 1.389 . S
C670 C671 1.524 1_556 S
C670 C684 1.377 . S
C671 C670 1.524 1_554 S
C671 C672 1.397 . S
C671 C676 1.363 . S
C672 H649 0.950 . S
C672 C671 1.397 . S
C672 C673 1.334 . S
C673 H650 0.950 . S
C673 C672 1.334 . S
C673 C674 1.287 . S
C674 C673 1.287 . S
C674 C675 1.524 . S
C674 H693 0.913 . S
C675 H651 0.950 . S
C675 C674 1.524 . S
C675 C676 1.415 . S
C676 H652 0.950 1_554 S
C676 C671 1.363 . S
C676 C675 1.415 . S
C677 H653 0.951 . S
C677 C678 1.366 . S
C677 C679 1.388 . S
C678 C677 1.366 . S
C678 C682 1.385 . S
C679 H654 0.951 . S
C679 C677 1.388 . S
C679 C680 1.366 . S
C680 C679 1.366 . S
C680 C681 1.414 . S
C680 C683 1.499 . S
C681 H655 0.950 . S
C681 C680 1.414 . S
C681 C682 1.374 . S
C682 H656 0.950 . S
C682 C678 1.385 . S
C682 C681 1.374 . S
C683 C680 1.499 . S
C683 C684 1.373 . S
C683 C685 1.389 . S
C684 H657 0.950 . S
C684 C670 1.377 . S
C684 C683 1.373 . S
C685 C669 1.377 . S
C685 C683 1.389 . S
C685 C686 1.524 . S
C686 C685 1.524 . S
C686 C687 1.397 . S
C686 C691 1.363 . S
C687 H658 0.950 . S
C687 C686 1.397 . S
C687 C688 1.334 . S
C688 H659 0.950 . S
C688 C687 1.334 . S
C688 C689 1.287 . S
C689 C688 1.287 . S
C689 C690 1.524 . S
C689 H692 0.999 . S
C690 H660 0.950 . S
C690 C689 1.524 . S
C690 C691 1.415 . S
C691 H661 0.950 . S
C691 C686 1.363 . S
C691 C690 1.415 . S
H692 C689 0.999 . S
H693 C674 0.913 . S
H694 C712 0.951 . S
H695 C714 0.951 . S
H696 C716 0.950 . S
H697 C717 0.950 . S
H698 C719 0.950 . S
H699 C722 0.950 . S
H700 C723 0.950 . S
H701 C725 0.950 . S
H702 C726 0.923 1_455 S
H703 C727 0.951 1_655 S
H704 C729 0.951 1_655 S
H705 C731 0.950 . S
H706 C732 0.950 . S
H707 C734 0.950 . S
H708 C737 0.950 . S
H709 C738 0.950 . S
H710 C740 0.950 . S
H711 C741 0.950 . S
C712 H694 0.951 . S
C712 C713 1.366 . S
C712 C714 1.388 . S
C713 C712 1.366 . S
C713 C717 1.385 1_455 S
C714 H695 0.951 . S
C714 C712 1.388 . S
C714 C715 1.366 . S
C715 C714 1.366 . S
C715 C716 1.414 1_455 S
C715 C718 1.499 . S
C716 H696 0.950 . S
C716 C715 1.414 1_655 S
C716 C717 1.374 . S
C717 H697 0.950 . S
C717 C713 1.385 1_655 S
C717 C716 1.374 . S
C718 C715 1.499 . S
C718 C719 1.373 . S
C718 C720 1.389 1_455 S
C719 H698 0.950 . S
C719 C718 1.373 . S
C719 C735 1.377 . S
C720 C718 1.389 1_655 S
C720 C721 1.524 . S
C720 C734 1.377 . S
C721 C720 1.524 . S
C721 C722 1.397 . S
C721 C726 1.363 . S
C722 H699 0.950 . S
C722 C721 1.397 . S
C722 C723 1.334 . S
C723 H700 0.950 . S
C723 C722 1.334 . S
C723 C724 1.287 . S
C724 C723 1.287 . S
C724 C725 1.524 . S
C724 H743 0.913 . S
C725 H701 0.950 . S
C725 C724 1.524 . S
C725 C726 1.415 . S
C726 H702 0.923 1_655 S
C726 C721 1.363 . S
C726 C725 1.415 . S
C727 H703 0.951 1_455 S
C727 C728 1.366 . S
C727 C729 1.388 . S
C728 C727 1.366 . S
C728 C732 1.385 . S
C729 H704 0.951 1_455 S
C729 C727 1.388 . S
C729 C730 1.366 . S
C730 C729 1.366 . S
C730 C731 1.414 . S
C730 C733 1.499 . S
C731 H705 0.950 . S
C731 C730 1.414 . S
C731 C732 1.374 . S
C732 H706 0.950 . S
C732 C728 1.385 . S
C732 C731 1.374 . S
C733 C730 1.499 . S
C733 C734 1.373 1_455 S
C733 C735 1.389 . S
C734 H707 0.950 . S
C734 C720 1.377 . S
C734 C733 1.373 1_655 S
C735 C719 1.377 . S
C735 C733 1.389 . S
C735 C736 1.524 . S
C736 C735 1.524 . S
C736 C737 1.397 . S
C736 C741 1.363 . S
C737 H708 0.950 . S
C737 C736 1.397 . S
C737 C738 1.334 . S
C738 H709 0.950 . S
C738 C737 1.334 . S
C738 C739 1.287 . S
C739 C738 1.287 . S
C739 C740 1.524 . S
C739 H742 0.999 . S
C740 H710 0.950 . S
C740 C739 1.524 . S
C740 C741 1.415 . S
C741 H711 0.950 . S
C741 C736 1.363 . S
C741 C740 1.415 . S
H742 C739 0.999 . S
H743 C724 0.913 . S
H744 C762 0.951 . S
H745 C764 0.951 . S
H746 C766 0.950 1_565 S
H747 C767 0.950 1_565 S
H748 C769 0.950 . S
H749 C772 0.950 . S
H750 C773 0.950 . S
H751 C775 0.950 . S
H752 C776 0.950 . S
H753 C777 0.951 . S
H754 C779 0.951 . S
H755 C781 0.950 . S
H756 C782 0.950 . S
H757 C784 0.950 . S
H758 C787 0.950 . S
H759 C788 0.950 . S
H760 C790 0.950 . S
H761 C791 0.950 . S
C762 H744 0.951 . S
C762 C763 1.366 . S
C762 C764 1.388 . S
C763 C762 1.366 . S
C763 C767 1.385 . S
C764 H745 0.951 . S
C764 C762 1.388 . S
C764 C765 1.366 . S
C765 C764 1.366 . S
C765 C766 1.414 . S
C765 C768 1.499 . S
C766 H746 0.950 1_545 S
C766 C765 1.414 . S
C766 C767 1.374 . S
C767 H747 0.950 1_545 S
C767 C763 1.385 . S
C767 C766 1.374 . S
C768 C765 1.499 . S
C768 C769 1.373 1_545 S
C768 C770 1.389 . S
C769 H748 0.950 . S
C769 C768 1.373 1_565 S
C769 C785 1.377 . S
C770 C768 1.389 . S
C770 C771 1.524 . S
C770 C784 1.377 . S
C771 C770 1.524 . S
C771 C772 1.397 . S
C771 C776 1.363 . S
C772 H749 0.950 . S
C772 C771 1.397 . S
C772 C773 1.334 . S
C773 H750 0.950 . S
C773 C772 1.334 . S
C773 C774 1.287 . S
C774 C773 1.287 . S
C774 C775 1.524 . S
C774 H793 0.913 . S
C775 H751 0.950 . S
C775 C774 1.524 . S
C775 C776 1.415 . S
C776 H752 0.950 . S
C776 C771 1.363 . S
C776 C775 1.415 . S
C777 H753 0.951 . S
C777 C778 1.366 . S
C777 C779 1.388 . S
C778 C777 1.366 . S
C778 C782 1.385 . S
C779 H754 0.951 . S
C779 C777 1.388 . S
C779 C780 1.366 . S
C780 C779 1.366 . S
C780 C781 1.414 . S
C780 C783 1.499 . S
C781 H755 0.950 . S
C781 C780 1.414 . S
C781 C782 1.374 . S
C782 H756 0.950 . S
C782 C778 1.385 . S
C782 C781 1.374 . S
C783 C780 1.499 . S
C783 C784 1.373 . S
C783 C785 1.389 1_545 S
C784 H757 0.950 . S
C784 C770 1.377 . S
C784 C783 1.373 . S
C785 C769 1.377 . S
C785 C783 1.389 1_565 S
C785 C786 1.524 . S
C786 C785 1.524 . S
C786 C787 1.397 . S
C786 C791 1.363 . S
C787 H758 0.950 . S
C787 C786 1.397 . S
C787 C788 1.334 . S
C788 H759 0.950 . S
C788 C787 1.334 . S
C788 C789 1.287 . S
C789 C788 1.287 . S
C789 C790 1.524 . S
C789 H792 0.999 . S
C790 H760 0.950 . S
C790 C789 1.524 . S
C790 C791 1.415 . S
C791 H761 0.950 . S
C791 C786 1.363 . S
C791 C790 1.415 . S
H792 C789 0.999 . S
H793 C774 0.913 . S
H794 C812 0.951 . S
H795 C814 0.951 . S
H796 C816 0.950 . S
H797 C817 0.950 . S
H798 C819 0.950 . S
H799 C822 0.950 . S
H800 C823 0.950 . S
H801 C825 0.950 . S
H802 C826 0.950 . S
H803 C827 0.951 . S
H804 C829 0.951 . S
H805 C831 0.950 . S
H806 C832 0.950 . S
H807 C834 0.950 . S
H808 C837 0.950 . S
H809 C838 0.950 . S
H810 C840 0.950 1_554 S
H811 C841 0.950 1_554 S
C812 H794 0.951 . S
C812 C813 1.366 1_556 S
C812 C814 1.388 . S
C813 C812 1.366 1_554 S
C813 C817 1.385 . S
C814 H795 0.951 . S
C814 C812 1.388 . S
C814 C815 1.366 . S
C815 C814 1.366 . S
C815 C816 1.414 1_556 S
C815 C818 1.499 . S
C816 H796 0.950 . S
C816 C815 1.414 1_554 S
C816 C817 1.374 . S
C817 H797 0.950 . S
C817 C813 1.385 . S
C817 C816 1.374 . S
C818 C815 1.499 . S
C818 C819 1.373 . S
C818 C820 1.389 . S
C819 H798 0.950 . S
C819 C818 1.373 . S
C819 C835 1.377 . S
C820 C818 1.389 . S
C820 C821 1.524 . S
C820 C834 1.377 . S
C821 C820 1.524 . S
C821 C822 1.397 . S
C821 C826 1.363 . S
C822 H799 0.950 . S
C822 C821 1.397 . S
C822 C823 1.334 . S
C823 H800 0.950 . S
C823 C822 1.334 . S
C823 C824 1.287 . S
C824 C823 1.287 . S
C824 C825 1.524 . S
C824 H843 0.913 . S
C825 H801 0.950 . S
C825 C824 1.524 . S
C825 C826 1.415 . S
C826 H802 0.950 . S
C826 C821 1.363 . S
C826 C825 1.415 . S
C827 H803 0.951 . S
C827 C828 1.366 . S
C827 C829 1.388 . S
C828 C827 1.366 . S
C828 C832 1.385 . S
C829 H804 0.951 . S
C829 C827 1.388 . S
C829 C830 1.366 . S
C830 C829 1.366 . S
C830 C831 1.414 . S
C830 C833 1.499 . S
C831 H805 0.950 . S
C831 C830 1.414 . S
C831 C832 1.374 . S
C832 H806 0.950 . S
C832 C828 1.385 . S
C832 C831 1.374 . S
C833 C830 1.499 . S
C833 C834 1.373 . S
C833 C835 1.389 . S
C834 H807 0.950 . S
C834 C820 1.377 . S
C834 C833 1.373 . S
C835 C819 1.377 . S
C835 C833 1.389 . S
C835 C836 1.524 . S
C836 C835 1.524 . S
C836 C837 1.397 . S
C836 C841 1.363 . S
C837 H808 0.950 . S
C837 C836 1.397 . S
C837 C838 1.334 . S
C838 H809 0.950 . S
C838 C837 1.334 . S
C838 C839 1.287 . S
C839 C838 1.287 . S
C839 C840 1.524 . S
C839 H842 0.999 . S
C840 H810 0.950 1_556 S
C840 C839 1.524 . S
C840 C841 1.415 . S
C841 H811 0.950 1_556 S
C841 C836 1.363 . S
C841 C840 1.415 . S
H842 C839 0.999 . S
H843 C824 0.913 . S
H844 C862 0.951 . S
H845 C864 0.951 . S
H846 C866 0.950 . S
H847 C867 0.950 . S
H848 C869 0.950 . S
H849 C872 0.950 . S
H850 C873 0.950 . S
H851 C875 0.950 . S
H852 C876 0.950 . S
H853 C877 0.951 . S
H854 C879 0.951 . S
H855 C881 0.950 . S
H856 C882 0.950 . S
H857 C884 0.950 . S
H858 C887 0.950 . S
H859 C888 0.950 . S
H860 C890 0.950 . S
H861 C891 0.950 . S
C862 H844 0.951 . S
C862 C863 1.366 1_655 S
C862 C864 1.388 . S
C863 C862 1.366 1_455 S
C863 C867 1.385 . S
C864 H845 0.951 . S
C864 C862 1.388 . S
C864 C865 1.366 1_655 S
C865 C864 1.366 1_455 S
C865 C866 1.414 . S
C865 C868 1.499 . S
C866 H846 0.950 . S
C866 C865 1.414 . S
C866 C867 1.374 . S
C867 H847 0.950 . S
C867 C863 1.385 . S
C867 C866 1.374 . S
C868 C865 1.499 . S
C868 C869 1.373 . S
C868 C870 1.389 1_455 S
C869 H848 0.950 . S
C869 C868 1.373 . S
C869 C885 1.377 . S
C870 C868 1.389 1_655 S
C870 C871 1.524 . S
C870 C884 1.377 . S
C871 C870 1.524 . S
C871 C872 1.397 . S
C871 C876 1.363 . S
C872 H849 0.950 . S
C872 C871 1.397 . S
C872 C873 1.334 . S
C873 H850 0.950 . S
C873 C872 1.334 . S
C873 C874 1.287 . S
C874 C873 1.287 . S
C874 C875 1.524 . S
C874 H893 0.913 . S
C875 H851 0.950 . S
C875 C874 1.524 . S
C875 C876 1.415 . S
C876 H852 0.950 . S
C876 C871 1.363 . S
C876 C875 1.415 . S
C877 H853 0.951 . S
C877 C878 1.366 . S
C877 C879 1.388 . S
C878 C877 1.366 . S
C878 C882 1.385 1_455 S
C879 H854 0.951 . S
C879 C877 1.388 . S
C879 C880 1.366 . S
C880 C879 1.366 . S
C880 C881 1.414 1_455 S
C880 C883 1.499 . S
C881 H855 0.950 . S
C881 C880 1.414 1_655 S
C881 C882 1.374 . S
C882 H856 0.950 . S
C882 C878 1.385 1_655 S
C882 C881 1.374 . S
C883 C880 1.499 . S
C883 C884 1.373 1_455 S
C883 C885 1.389 . S
C884 H857 0.950 . S
C884 C870 1.377 . S
C884 C883 1.373 1_655 S
C885 C869 1.377 . S
C885 C883 1.389 . S
C885 C886 1.524 . S
C886 C885 1.524 . S
C886 C887 1.397 . S
C886 C891 1.363 . S
C887 H858 0.950 . S
C887 C886 1.397 . S
C887 C888 1.334 . S
C888 H859 0.950 . S
C888 C887 1.334 . S
C888 C889 1.287 . S
C889 C888 1.287 . S
C889 C890 1.524 . S
C889 H892 0.999 . S
C890 H860 0.950 . S
C890 C889 1.524 . S
C890 C891 1.415 . S
C891 H861 0.950 . S
C891 C886 1.363 . S
C891 C890 1.415 . S
H892 C889 0.999 . S
H893 C874 0.913 . S
C328 C161 1.341 . S
C313 C14 1.314 . S
C363 C40 1.382 . S
C378 C205 1.385 . S
C413 C76 1.364 . S
C428 C267 1.366 . S
C463 C3 1.353 . S
C478 C143 1.341 . S
C528 C223 1.378 . S
C513 C38 1.376 . S
C563 C74 1.345 . S
C578 C285 1.348 . S
C628 C199 1.590 . S
C613 C86 1.616 . S
C663 C2 1.694 . S
C678 C261 1.611 . S
C728 C137 1.602 . S
C713 C39 1.709 . S
C778 C217 1.601 . S
C763 C75 1.697 . S
C828 C279 1.624 . S
C813 C4 1.709 . S
C863 C50 1.629 . S
C878 C155 1.603 . S
