# Generated by pormake.
# Topology pyr, (3,6)-cn, num edge types: 1
# Building blocks:
#     Node 0, Type 0, BuildingBlock: VETTIZ_charged_linker_0, # of connection points: 3
#     Node 1, Type 0, BuildingBlock: VETTIZ_charged_linker_0, # of connection points: 3
#     Node 2, Type 0, BuildingBlock: VETTIZ_charged_linker_0, # of connection points: 3
#     Node 3, Type 0, BuildingBlock: VETTIZ_charged_linker_0, # of connection points: 3
#     Node 4, Type 0, BuildingBlock: VETTIZ_charged_linker_0, # of connection points: 3
#     Node 5, Type 0, BuildingBlock: VETTIZ_charged_linker_0, # of connection points: 3
#     Node 6, Type 0, BuildingBlock: VETTIZ_charged_linker_0, # of connection points: 3
#     Node 7, Type 0, BuildingBlock: VETTIZ_charged_linker_0, # of connection points: 3
#     Node 8, Type 1, BuildingBlock: VOLQOD_clean_sbu_1, # of connection points: 6
#     Node 9, Type 1, BuildingBlock: VOLQOD_clean_sbu_1, # of connection points: 6
#     Node 10, Type 1, BuildingBlock: VOLQOD_clean_sbu_1, # of connection points: 6
#     Node 11, Type 1, BuildingBlock: VOLQOD_clean_sbu_1, # of connection points: 6
#     Edge 12, Type (0, 1), BuildingBlock: CIFDUS_clean_linker_0, # of connection points: 2
#     Edge 13, Type (0, 1), BuildingBlock: CIFDUS_clean_linker_0, # of connection points: 2
#     Edge 14, Type (0, 1), BuildingBlock: CIFDUS_clean_linker_0, # of connection points: 2
#     Edge 15, Type (0, 1), BuildingBlock: CIFDUS_clean_linker_0, # of connection points: 2
#     Edge 16, Type (0, 1), BuildingBlock: CIFDUS_clean_linker_0, # of connection points: 2
#     Edge 17, Type (0, 1), BuildingBlock: CIFDUS_clean_linker_0, # of connection points: 2
#     Edge 18, Type (0, 1), BuildingBlock: CIFDUS_clean_linker_0, # of connection points: 2
#     Edge 19, Type (0, 1), BuildingBlock: CIFDUS_clean_linker_0, # of connection points: 2
#     Edge 20, Type (0, 1), BuildingBlock: CIFDUS_clean_linker_0, # of connection points: 2
#     Edge 21, Type (0, 1), BuildingBlock: CIFDUS_clean_linker_0, # of connection points: 2
#     Edge 22, Type (0, 1), BuildingBlock: CIFDUS_clean_linker_0, # of connection points: 2
#     Edge 23, Type (0, 1), BuildingBlock: CIFDUS_clean_linker_0, # of connection points: 2
#     Edge 24, Type (0, 1), BuildingBlock: CIFDUS_clean_linker_0, # of connection points: 2
#     Edge 25, Type (0, 1), BuildingBlock: CIFDUS_clean_linker_0, # of connection points: 2
#     Edge 26, Type (0, 1), BuildingBlock: CIFDUS_clean_linker_0, # of connection points: 2
#     Edge 27, Type (0, 1), BuildingBlock: CIFDUS_clean_linker_0, # of connection points: 2
#     Edge 28, Type (0, 1), BuildingBlock: CIFDUS_clean_linker_0, # of connection points: 2
#     Edge 29, Type (0, 1), BuildingBlock: CIFDUS_clean_linker_0, # of connection points: 2
#     Edge 30, Type (0, 1), BuildingBlock: CIFDUS_clean_linker_0, # of connection points: 2
#     Edge 31, Type (0, 1), BuildingBlock: CIFDUS_clean_linker_0, # of connection points: 2
#     Edge 32, Type (0, 1), BuildingBlock: CIFDUS_clean_linker_0, # of connection points: 2
#     Edge 33, Type (0, 1), BuildingBlock: CIFDUS_clean_linker_0, # of connection points: 2
#     Edge 34, Type (0, 1), BuildingBlock: CIFDUS_clean_linker_0, # of connection points: 2
#     Edge 35, Type (0, 1), BuildingBlock: CIFDUS_clean_linker_0, # of connection points: 2
# Relax obj value: 0.035
# Max RMSD: 0.119
# Mean RMSD: 0.042
data_MOF--net-pry--node1-VOLQOD_clean_sbu_1--node2-VETTIZ_charged_linker_0--edge1-CIFDUS_clean_linker_0
_symmetry_space_group_name_H-M    P1
_symmetry_Int_Tables_number       1
_symmetry_cell_setting            triclinic
loop_
_symmetry_equiv_pos_as_xyz
'x, y, z'
_cell_length_a     40.817017
_cell_length_b     40.779746
_cell_length_c     41.043491
_cell_angle_alpha  90.144116
_cell_angle_beta   89.919392
_cell_angle_gamma 90.111367
loop_
_atom_site_label
_atom_site_type_symbol
_atom_site_fract_x
_atom_site_fract_y
_atom_site_fract_z
_atom_type_partial_charge
C0 C 0.09478 0.07418 0.21621 0.0
C1 C 0.06698 0.08823 0.23093 0.0
C2 C 0.05334 0.11675 0.21715 0.0
C3 C 0.09602 0.11765 0.17592 0.0
C4 C 0.1088 0.08921 0.18891 0.0
C5 C 0.13909 0.07802 0.17122 0.0
H6 H 0.24997 0.10095 0.0508 0.0
C7 C 0.11704 0.1275 0.14822 0.0
C8 C 0.14212 0.10419 0.14515 0.0
H9 H 0.25003 0.02739 0.12683 0.0
H10 H 0.19922 0.04829 0.14738 0.0
H11 H 0.23008 0.16007 0.10071 0.0
H12 H 0.17347 0.10015 0.03483 0.0
H13 H 0.15744 0.14007 0.03316 0.0
H14 H 0.19922 0.13282 0.0205 0.0
H15 H 0.23408 0.16243 0.0572 0.0
H16 H 0.20349 0.18563 0.07872 0.0
C17 C 0.16822 0.07893 0.19549 0.0
C18 C 0.13205 0.04379 0.15635 0.0
C19 C 0.09571 0.23502 0.08974 0.0
C20 C 0.11016 0.25031 0.06249 0.0
C21 C 0.13509 0.23336 0.04547 0.0
C22 C 0.14622 0.20269 0.05609 0.0
C23 C 0.13227 0.18843 0.08396 0.0
C24 C 0.10679 0.20414 0.0997 0.0
C25 C 0.09337 0.18429 0.12756 0.0
C26 C 0.11597 0.15477 0.1268 0.0
C27 C 0.13904 0.15754 0.10151 0.0
C28 C 0.09749 0.20451 0.15929 0.0
C29 C 0.05743 0.17484 0.11956 0.0
C30 C 0.23931 0.08938 0.07203 0.0
C31 C 0.25438 0.06211 0.08685 0.0
C32 C 0.23894 0.04781 0.11419 0.0
C33 C 0.20945 0.06028 0.12648 0.0
C34 C 0.19519 0.08781 0.11179 0.0
C35 C 0.21016 0.10201 0.08512 0.0
C36 C 0.1924 0.13229 0.07388 0.0
C37 C 0.16429 0.13378 0.09818 0.0
C38 C 0.16596 0.10747 0.12012 0.0
C39 C 0.21609 0.1618 0.07753 0.0
C40 C 0.18009 0.12636 0.03868 0.0
H41 H 0.05655 0.15351 0.18082 0.0
H42 H 0.10571 0.05212 0.22598 0.0
H43 H 0.10695 0.04288 0.14582 0.0
H44 H 0.14863 0.03749 0.13603 0.0
H45 H 0.13367 0.02436 0.17519 0.0
H46 H 0.1643 0.09753 0.21498 0.0
H47 H 0.17159 0.05482 0.20756 0.0
H48 H 0.19151 0.08636 0.18383 0.0
H49 H 0.07659 0.24698 0.10362 0.0
H50 H 0.14606 0.24373 0.02379 0.0
H51 H 0.1654 0.19129 0.04223 0.0
H52 H 0.12203 0.21641 0.15999 0.0
H53 H 0.07872 0.22413 0.16093 0.0
H54 H 0.09608 0.18943 0.18151 0.0
H55 H 0.05325 0.17363 0.09279 0.0
H56 H 0.05084 0.15011 0.12845 0.0
H57 H 0.03996 0.19303 0.12975 0.0
H58 H 0.03216 0.12828 0.22819 0.0
C59 C 0.06769 0.13151 0.18976 0.0
C60 C 0.27119 0.91354 0.59185 0.0
C61 C 0.25352 0.93892 0.60675 0.0
C62 C 0.26612 0.95436 0.63473 0.0
C63 C 0.31264 0.91758 0.63398 0.0
C64 C 0.30041 0.90297 0.60611 0.0
C65 C 0.32037 0.87386 0.5956 0.0
H66 H 0.43632 0.76191 0.6306 0.0
C67 C 0.34171 0.89886 0.6443 0.0
C68 C 0.34629 0.87312 0.62209 0.0
H69 H 0.37374 0.76736 0.54573 0.0
H70 H 0.35218 0.81878 0.56442 0.0
H71 H 0.4568 0.8411 0.62747 0.0
H72 H 0.38482 0.78763 0.68342 0.0
H73 H 0.40502 0.81552 0.70934 0.0
H74 H 0.42806 0.78321 0.6901 0.0
H75 H 0.46812 0.8139 0.65988 0.0
H76 H 0.45725 0.85606 0.66768 0.0
C77 C 0.33533 0.88132 0.56165 0.0
C78 C 0.29781 0.84322 0.59662 0.0
C79 C 0.40091 0.9324 0.74739 0.0
C80 C 0.42631 0.91834 0.76569 0.0
C81 C 0.44101 0.88918 0.75413 0.0
C82 C 0.43039 0.87432 0.72507 0.0
C83 C 0.40459 0.88852 0.70745 0.0
C84 C 0.39031 0.91704 0.71883 0.0
C85 C 0.36207 0.92791 0.6982 0.0
C86 C 0.36246 0.90193 0.67177 0.0
C87 C 0.38735 0.87882 0.6772 0.0
C88 C 0.3701 0.96233 0.68442 0.0
C89 C 0.33042 0.92638 0.71926 0.0
C90 C 0.41818 0.77434 0.61593 0.0
C91 C 0.40614 0.76002 0.58701 0.0
C92 C 0.3827 0.77724 0.56857 0.0
C93 C 0.37029 0.80725 0.57938 0.0
C94 C 0.38126 0.82038 0.60904 0.0
C95 C 0.40551 0.80458 0.62637 0.0
C96 C 0.41504 0.82334 0.65664 0.0
C97 C 0.39171 0.85233 0.655 0.0
C98 C 0.37172 0.85006 0.62725 0.0
C99 C 0.45125 0.8341 0.65308 0.0
C100 C 0.40816 0.8014 0.68661 0.0
H101 H 0.30411 0.95662 0.66967 0.0
H102 H 0.26157 0.90106 0.57056 0.0
H103 H 0.28149 0.84403 0.61835 0.0
H104 H 0.31127 0.81993 0.59883 0.0
H105 H 0.28199 0.84194 0.57466 0.0
H106 H 0.33891 0.90813 0.55804 0.0
H107 H 0.31919 0.87236 0.54175 0.0
H108 H 0.36007 0.87069 0.55855 0.0
H109 H 0.3892 0.95491 0.75514 0.0
H110 H 0.46026 0.87738 0.76788 0.0
H111 H 0.44232 0.85206 0.71774 0.0
H112 H 0.39609 0.96359 0.67628 0.0
H113 H 0.36642 0.98161 0.70324 0.0
H114 H 0.3554 0.96859 0.66276 0.0
H115 H 0.33305 0.90919 0.74011 0.0
H116 H 0.30911 0.91678 0.70556 0.0
H117 H 0.3242 0.95082 0.72951 0.0
H118 H 0.25264 0.97401 0.64641 0.0
C119 C 0.29583 0.94406 0.64823 0.0
C120 C 0.59141 0.29202 0.95454 0.0
C121 C 0.5664 0.2733 0.93978 0.0
C122 C 0.55155 0.28523 0.91117 0.0
C123 C 0.58694 0.33287 0.91188 0.0
C124 C 0.60135 0.32158 0.94012 0.0
C125 C 0.62849 0.3439 0.95162 0.0
H126 H 0.72911 0.47171 0.91864 0.0
C127 C 0.60354 0.36351 0.90235 0.0
C128 C 0.62789 0.37033 0.92552 0.0
H129 H 0.73073 0.40831 0.00312 0.0
H130 H 0.68184 0.38109 0.98417 0.0
H131 H 0.65326 0.48623 0.92391 0.0
H132 H 0.70785 0.41822 0.86481 0.0
H133 H 0.67979 0.43948 0.83996 0.0
H134 H 0.71082 0.46205 0.86139 0.0
H135 H 0.67237 0.49879 0.88661 0.0
H136 H 0.63132 0.48208 0.88737 0.0
C137 C 0.61908 0.35767 0.98555 0.0
C138 C 0.66081 0.3241 0.95111 0.0
C139 C 0.57106 0.41883 0.79681 0.0
C140 C 0.58155 0.44758 0.78102 0.0
C141 C 0.60581 0.46713 0.79611 0.0
C142 C 0.61987 0.45774 0.82582 0.0
C143 C 0.60949 0.42858 0.84083 0.0
C144 C 0.58498 0.41011 0.82662 0.0
C145 C 0.57604 0.38059 0.84653 0.0
C146 C 0.59938 0.38427 0.87502 0.0
C147 C 0.6193 0.41205 0.87129 0.0
C148 C 0.53972 0.38406 0.85723 0.0
C149 C 0.58359 0.34957 0.82589 0.0
C150 C 0.71886 0.45233 0.93349 0.0
C151 C 0.73451 0.44192 0.96222 0.0
C152 C 0.71998 0.41634 0.98041 0.0
C153 C 0.69143 0.40059 0.96945 0.0
C154 C 0.677 0.4105 0.94003 0.0
C155 C 0.69021 0.43662 0.92312 0.0
C156 C 0.67073 0.445 0.89323 0.0
C157 C 0.64442 0.41871 0.89425 0.0
C158 C 0.64842 0.39827 0.9215 0.0
C159 C 0.65625 0.47987 0.89769 0.0
C160 C 0.69333 0.44122 0.86312 0.0
H161 H 0.54941 0.32223 0.87539 0.0
H162 H 0.60317 0.28379 0.97668 0.0
H163 H 0.66242 0.30888 0.92863 0.0
H164 H 0.6829 0.33967 0.95085 0.0
H165 H 0.66222 0.30735 0.97236 0.0
H166 H 0.59212 0.36123 0.98754 0.0
H167 H 0.6266 0.34068 0.00527 0.0
H168 H 0.6297 0.38217 0.99025 0.0
H169 H 0.55283 0.40288 0.78599 0.0
H170 H 0.61395 0.4898 0.78503 0.0
H171 H 0.63845 0.47341 0.83583 0.0
H172 H 0.53287 0.41028 0.86041 0.0
H173 H 0.5229 0.37332 0.83881 0.0
H174 H 0.53471 0.37281 0.88121 0.0
H175 H 0.60576 0.35335 0.81052 0.0
H176 H 0.58937 0.32785 0.8408 0.0
H177 H 0.56291 0.34353 0.80936 0.0
H178 H 0.53275 0.27117 0.89882 0.0
C179 C 0.56152 0.31486 0.89732 0.0
C180 C 0.94819 0.72034 0.42256 0.0
C181 C 0.93507 0.73652 0.44987 0.0
C182 C 0.90978 0.72134 0.46775 0.0
C183 C 0.90942 0.67569 0.42981 0.0
C184 C 0.93525 0.6899 0.41317 0.0
C185 C 0.9465 0.66923 0.38489 0.0
H186 H 0.9189 0.54023 0.28476 0.0
C187 C 0.90038 0.64508 0.41267 0.0
C188 C 0.92233 0.64092 0.38656 0.0
H189 H 0.99856 0.61021 0.28034 0.0
H190 H 0.97923 0.63592 0.32981 0.0
H191 H 0.92431 0.52801 0.36381 0.0
H192 H 0.86539 0.58809 0.30143 0.0
H193 H 0.83952 0.57678 0.33358 0.0
H194 H 0.85662 0.54545 0.30752 0.0
H195 H 0.89245 0.51197 0.3382 0.0
H196 H 0.8841 0.52618 0.37904 0.0
C197 C 0.9821 0.65794 0.39155 0.0
C198 C 0.94237 0.68954 0.35334 0.0
C199 C 0.797 0.58301 0.44502 0.0
C200 C 0.78026 0.55632 0.43077 0.0
C201 C 0.79448 0.54047 0.40363 0.0
C202 C 0.82435 0.5511 0.39074 0.0
C203 C 0.8402 0.5783 0.40464 0.0
C204 C 0.82663 0.59374 0.43139 0.0
C205 C 0.84636 0.62317 0.44193 0.0
C206 C 0.87395 0.62274 0.41699 0.0
C207 C 0.87012 0.59635 0.39535 0.0
C208 C 0.85911 0.61707 0.47691 0.0
C209 C 0.82434 0.65387 0.43847 0.0
C210 C 0.9327 0.56061 0.29474 0.0
C211 C 0.9602 0.57326 0.2784 0.0
C212 C 0.97697 0.60027 0.29211 0.0
C213 C 0.96577 0.61513 0.3209 0.0
C214 C 0.93746 0.60293 0.33619 0.0
C215 C 0.92191 0.57567 0.32342 0.0
C216 C 0.89224 0.56594 0.34276 0.0
C217 C 0.89252 0.59182 0.36932 0.0
C218 C 0.91878 0.61368 0.3652 0.0
C219 C 0.89823 0.53113 0.35661 0.0
C220 C 0.86176 0.56891 0.32034 0.0
H221 H 0.87734 0.68093 0.47219 0.0
H222 H 0.96809 0.73119 0.40878 0.0
H223 H 0.91843 0.70256 0.35344 0.0
H224 H 0.94233 0.67442 0.33105 0.0
H225 H 0.96203 0.70828 0.35115 0.0
H226 H 0.98687 0.65575 0.41814 0.0
H227 H 0.00017 0.67564 0.38149 0.0
H228 H 0.98722 0.63323 0.38163 0.0
H229 H 0.78715 0.59562 0.4661 0.0
H230 H 0.78206 0.52035 0.39158 0.0
H231 H 0.83352 0.53812 0.36991 0.0
H232 H 0.86419 0.59058 0.48091 0.0
H233 H 0.84084 0.62489 0.49543 0.0
H234 H 0.88268 0.62952 0.48177 0.0
H235 H 0.80958 0.65247 0.41573 0.0
H236 H 0.83828 0.67695 0.43649 0.0
H237 H 0.80703 0.65592 0.45928 0.0
H238 H 0.89936 0.73338 0.48891 0.0
C239 C 0.89689 0.69102 0.45787 0.0
C240 C 0.92327 0.79194 0.92711 0.0
C241 C 0.94071 0.77114 0.90597 0.0
C242 C 0.95071 0.78306 0.87534 0.0
C243 C 0.92515 0.83545 0.88684 0.0
C244 C 0.91557 0.82379 0.91698 0.0
C245 C 0.895 0.84821 0.93539 0.0
H246 H 0.80572 0.98704 0.9319 0.0
C247 C 0.91213 0.86904 0.88324 0.0
C248 C 0.89449 0.87674 0.91165 0.0
H249 H 0.80831 0.91319 0.00704 0.0
H250 H 0.85398 0.88671 0.98018 0.0
H251 H 0.81296 0.94014 0.87142 0.0
H252 H 0.8853 0.99438 0.92554 0.0
H253 H 0.90018 0.99174 0.88544 0.0
H254 H 0.86224 0.01313 0.89348 0.0
H255 H 0.81517 0.98414 0.87299 0.0
H256 H 0.83876 0.96129 0.84402 0.0
C257 C 0.86054 0.83289 0.94038 0.0
C258 C 0.91301 0.85726 0.96735 0.0
C259 C 0.93019 0.93091 0.77739 0.0
C260 C 0.92183 0.96269 0.76685 0.0
C261 C 0.90533 0.98368 0.78883 0.0
C262 C 0.8966 0.97296 0.82011 0.0
C263 C 0.90445 0.94092 0.82979 0.0
C264 C 0.92174 0.92082 0.80887 0.0
C265 C 0.92965 0.88821 0.82397 0.0
C266 C 0.91393 0.89196 0.85731 0.0
C267 C 0.8986 0.9226 0.86031 0.0
C268 C 0.9128 0.86107 0.80341 0.0
C269 C 0.96742 0.88513 0.82624 0.0
C270 C 0.8166 0.96546 0.94274 0.0
C271 C 0.80323 0.9518 0.97123 0.0
C272 C 0.81823 0.92409 0.98508 0.0
C273 C 0.8444 0.90851 0.96919 0.0
C274 C 0.85547 0.9207 0.93907 0.0
C275 C 0.84261 0.94957 0.92708 0.0
C276 C 0.85759 0.95912 0.89494 0.0
C277 C 0.87993 0.93005 0.88858 0.0
C278 C 0.87837 0.90749 0.91438 0.0
C279 C 0.82982 0.9615 0.86935 0.0
C280 C 0.87721 0.99135 0.89982 0.0
H281 H 0.95138 0.82266 0.84207 0.0
H282 H 0.91484 0.78323 0.95059 0.0
H283 H 0.93994 0.85865 0.96328 0.0
H284 H 0.9061 0.88169 0.97678 0.0
H285 H 0.90848 0.83862 0.98653 0.0
H286 H 0.85353 0.81732 0.91919 0.0
H287 H 0.85989 0.81717 0.96243 0.0
H288 H 0.84083 0.85127 0.94212 0.0
H289 H 0.94257 0.91381 0.76138 0.0
H290 H 0.89926 0.00854 0.78196 0.0
H291 H 0.8838 0.98996 0.8355 0.0
H292 H 0.88859 0.86952 0.79427 0.0
H293 H 0.92796 0.85435 0.78192 0.0
H294 H 0.9073 0.83871 0.8175 0.0
H295 H 0.97896 0.90941 0.831 0.0
H296 H 0.97544 0.86956 0.84671 0.0
H297 H 0.97793 0.87542 0.80319 0.0
H298 H 0.96439 0.7675 0.85879 0.0
C299 C 0.94322 0.81513 0.86575 0.0
C300 C 0.71323 0.07979 0.44999 0.0
C301 C 0.72821 0.05262 0.43479 0.0
C302 C 0.70951 0.03342 0.41298 0.0
C303 C 0.66463 0.07182 0.41701 0.0
C304 C 0.68134 0.08867 0.441 0.0
C305 C 0.66189 0.11723 0.45399 0.0
H306 H 0.53966 0.22566 0.43094 0.0
C307 C 0.63434 0.08996 0.40967 0.0
C308 C 0.63208 0.11616 0.4318 0.0
H309 H 0.6085 0.22212 0.51077 0.0
H310 H 0.62959 0.17043 0.49068 0.0
H311 H 0.52096 0.14569 0.43251 0.0
H312 H 0.58706 0.20641 0.37759 0.0
H313 H 0.57392 0.17572 0.35069 0.0
H314 H 0.54435 0.20378 0.36777 0.0
H315 H 0.50775 0.17532 0.40305 0.0
H316 H 0.51817 0.134 0.39126 0.0
C317 C 0.65278 0.11018 0.49 0.0
C318 C 0.68228 0.1489 0.44909 0.0
C319 C 0.57631 0.06693 0.30287 0.0
C320 C 0.55287 0.08461 0.28522 0.0
C321 C 0.53704 0.11142 0.30006 0.0
C322 C 0.54534 0.1212 0.33178 0.0
C323 C 0.57029 0.10447 0.34846 0.0
C324 C 0.58498 0.07753 0.33415 0.0
C325 C 0.61272 0.06429 0.35422 0.0
C326 C 0.61228 0.08777 0.38303 0.0
C327 C 0.58742 0.11124 0.37948 0.0
C328 C 0.60421 0.02872 0.36449 0.0
C329 C 0.64447 0.06748 0.33363 0.0
C330 C 0.55911 0.21357 0.44423 0.0
C331 C 0.57271 0.22803 0.47224 0.0
C332 C 0.59763 0.21138 0.48917 0.0
C333 C 0.60997 0.18154 0.47736 0.0
C334 C 0.59731 0.16832 0.44832 0.0
C335 C 0.57159 0.18375 0.43286 0.0
C336 C 0.56094 0.16593 0.40255 0.0
C337 C 0.58437 0.13708 0.40252 0.0
C338 C 0.60608 0.13903 0.42898 0.0
C339 C 0.52499 0.15472 0.40726 0.0
C340 C 0.56654 0.189 0.373 0.0
H341 H 0.66523 0.02781 0.38668 0.0
H342 H 0.72646 0.09481 0.46731 0.0
H343 H 0.69228 0.1499 0.42389 0.0
H344 H 0.66787 0.17148 0.45241 0.0
H345 H 0.70323 0.14982 0.46631 0.0
H346 H 0.65362 0.0835 0.49557 0.0
H347 H 0.66987 0.12271 0.50703 0.0
H348 H 0.62733 0.1176 0.49583 0.0
H349 H 0.58915 0.04655 0.29174 0.0
H350 H 0.51881 0.12526 0.28679 0.0
H351 H 0.53284 0.14213 0.34159 0.0
H352 H 0.57724 0.02474 0.36547 0.0
H353 H 0.61451 0.01058 0.34707 0.0
H354 H 0.61288 0.02297 0.38938 0.0
H355 H 0.64561 0.09189 0.32162 0.0
H356 H 0.66714 0.06569 0.34791 0.0
H357 H 0.64531 0.04845 0.31424 0.0
H358 H 0.71968 0.0115 0.40203 0.0
C359 C 0.67782 0.04283 0.40412 0.0
C360 C 0.4405 0.59884 0.23237 0.0
C361 C 0.42704 0.57276 0.25019 0.0
C362 C 0.40344 0.55231 0.23558 0.0
C363 C 0.40465 0.58595 0.18699 0.0
C364 C 0.42929 0.60469 0.20071 0.0
C365 C 0.4411 0.63123 0.17817 0.0
H366 H 0.41157 0.72615 0.04794 0.0
C367 C 0.39691 0.59988 0.15477 0.0
C368 C 0.41875 0.6259 0.14904 0.0
H369 H 0.49058 0.73454 0.11733 0.0
H370 H 0.47531 0.68246 0.14109 0.0
H371 H 0.35638 0.69966 0.0977 0.0
H372 H 0.42272 0.65064 0.03237 0.0
H373 H 0.38815 0.62505 0.03523 0.0
H374 H 0.384 0.66581 0.0185 0.0
H375 H 0.35568 0.7035 0.05409 0.0
H376 H 0.33446 0.67084 0.07412 0.0
C377 C 0.43487 0.66464 0.1951 0.0
C378 C 0.47754 0.62464 0.16965 0.0
C379 C 0.29132 0.56693 0.09822 0.0
C380 C 0.27605 0.57798 0.06964 0.0
C381 C 0.29314 0.59924 0.04865 0.0
C382 C 0.3242 0.61115 0.05716 0.0
C383 C 0.33812 0.60183 0.08704 0.0
C384 C 0.32243 0.57892 0.10629 0.0
C385 C 0.34179 0.57062 0.13631 0.0
C386 C 0.37096 0.59356 0.1326 0.0
C387 C 0.36821 0.61227 0.10406 0.0
C388 C 0.3206 0.5793 0.16644 0.0
C389 C 0.35203 0.53406 0.13436 0.0
C390 C 0.42563 0.71651 0.06812 0.0
C391 C 0.45184 0.73448 0.08127 0.0
C392 C 0.4702 0.72104 0.10697 0.0
C393 C 0.4611 0.69103 0.12089 0.0
C394 C 0.43331 0.67448 0.10906 0.0
C395 C 0.41696 0.68651 0.08219 0.0
C396 C 0.38879 0.66495 0.07216 0.0
C397 C 0.39023 0.6386 0.09824 0.0
C398 C 0.41586 0.64482 0.1202 0.0
C399 C 0.35704 0.68562 0.07442 0.0
C400 C 0.39599 0.65095 0.03773 0.0
H401 H 0.37365 0.54284 0.19431 0.0
H402 H 0.45923 0.61439 0.24298 0.0
H403 H 0.48391 0.59829 0.17251 0.0
H404 H 0.48324 0.63021 0.14386 0.0
H405 H 0.49422 0.63897 0.18566 0.0
H406 H 0.4097 0.66544 0.20551 0.0
H407 H 0.45248 0.66864 0.21534 0.0
H408 H 0.43657 0.68573 0.1785 0.0
H409 H 0.27887 0.54999 0.11435 0.0
H410 H 0.2818 0.60787 0.02642 0.0
H411 H 0.33565 0.62809 0.04076 0.0
H412 H 0.30969 0.60412 0.1637 0.0
H413 H 0.30022 0.56145 0.16942 0.0
H414 H 0.33453 0.57996 0.18938 0.0
H415 H 0.3524 0.52499 0.10877 0.0
H416 H 0.37728 0.53004 0.14334 0.0
H417 H 0.33484 0.51821 0.14824 0.0
H418 H 0.39306 0.53193 0.24899 0.0
C419 C 0.39216 0.55878 0.20401 0.0
C420 C 0.06178 0.29729 0.5961 0.0
C421 C 0.0759 0.27588 0.57311 0.0
C422 C 0.10518 0.28559 0.55738 0.0
C423 C 0.10607 0.33635 0.58819 0.0
C424 C 0.07739 0.32698 0.6035 0.0
C425 C 0.06715 0.35081 0.62956 0.0
H426 H 0.10649 0.47962 0.72492 0.0
C427 C 0.11667 0.36796 0.60245 0.0
C428 C 0.09399 0.37645 0.6268 0.0
H429 H 0.02592 0.41162 0.73581 0.0
H430 H 0.03889 0.38712 0.68378 0.0
H431 H 0.09529 0.49378 0.64917 0.0
H432 H 0.15933 0.42802 0.70005 0.0
H433 H 0.18203 0.44966 0.67041 0.0
H434 H 0.16164 0.472 0.70204 0.0
H435 H 0.1348 0.50691 0.66309 0.0
H436 H 0.12929 0.48841 0.62339 0.0
C437 C 0.03333 0.36506 0.6202 0.0
C438 C 0.06774 0.33269 0.66283 0.0
C439 C 0.22263 0.42231 0.56495 0.0
C440 C 0.23775 0.45216 0.57337 0.0
C441 C 0.22201 0.47342 0.59546 0.0
C442 C 0.19222 0.46459 0.60993 0.0
C443 C 0.17798 0.43416 0.60228 0.0
C444 C 0.19255 0.41405 0.57934 0.0
C445 C 0.17258 0.38364 0.57285 0.0
C446 C 0.14402 0.38863 0.59616 0.0
C447 C 0.14784 0.4179 0.61384 0.0
C448 C 0.16147 0.38427 0.5368 0.0
C449 C 0.19353 0.35344 0.58216 0.0
C450 C 0.09156 0.45958 0.7159 0.0
C451 C 0.06556 0.44713 0.73465 0.0
C452 C 0.04611 0.42161 0.72182 0.0
C453 C 0.05392 0.40717 0.6918 0.0
C454 C 0.08158 0.41821 0.67455 0.0
C455 C 0.0992 0.44475 0.68607 0.0
C456 C 0.12783 0.45311 0.6645 0.0
C457 C 0.12565 0.42586 0.63929 0.0
C458 C 0.09862 0.40546 0.64541 0.0
C459 C 0.12178 0.48737 0.64932 0.0
C460 C 0.1595 0.45078 0.68515 0.0
H461 H 0.14249 0.32141 0.55206 0.0
H462 H 0.03926 0.291 0.60857 0.0
H463 H 0.0846 0.31128 0.66235 0.0
H464 H 0.07716 0.34819 0.68288 0.0
H465 H 0.04304 0.32339 0.6695 0.0
H466 H 0.03237 0.37054 0.59368 0.0
H467 H 0.01336 0.34736 0.62572 0.0
H468 H 0.02801 0.38854 0.63257 0.0
H469 H 0.23399 0.40578 0.54761 0.0
H470 H 0.23328 0.49651 0.60227 0.0
H471 H 0.18174 0.4815 0.62702 0.0
H472 H 0.15558 0.40971 0.52904 0.0
H473 H 0.18105 0.3749 0.52044 0.0
H474 H 0.13878 0.37015 0.53246 0.0
H475 H 0.20877 0.35875 0.60401 0.0
H476 H 0.17865 0.3319 0.58897 0.0
H477 H 0.21036 0.3465 0.562 0.0
H478 H 0.11719 0.26952 0.54009 0.0
C479 C 0.12013 0.31571 0.56461 0.0
O480 O 0.99715 0.0845 0.52847 0.0
Zn481 Zn 0.97729 0.0388 0.52617 0.0
O482 O 0.00296 0.01015 0.49723 0.0
Zn483 Zn 0.97793 0.99814 0.45817 0.0
Zn484 Zn 0.04233 0.03279 0.48299 0.0
Zn485 Zn 0.01541 0.97096 0.52135 0.0
O486 O 0.97468 0.94875 0.4545 0.0
O487 O 0.9989 0.92998 0.4992 0.0
O488 O 0.93109 0.04217 0.50942 0.0
O489 O 0.93183 0.01542 0.46212 0.0
O490 O 0.99886 0.01497 0.41612 0.0
O491 O 0.0467 0.03273 0.43475 0.0
O492 O 0.08311 0.01253 0.50107 0.0
O493 O 0.97404 0.02052 0.57198 0.0
O494 O 0.06416 0.96833 0.52644 0.0
O495 O 0.9983 0.97208 0.56713 0.0
C496 C 0.02224 0.09693 0.51463 0.0
C497 C 0.98353 0.92501 0.47263 0.0
C498 C 0.02748 0.02656 0.41119 0.0
C499 C 0.91664 0.03186 0.48386 0.0
C500 C 0.0878 0.98669 0.51766 0.0
C501 C 0.9832 0.99334 0.58416 0.0
O502 O 0.04099 0.07987 0.49655 0.0
O503 O 0.52108 0.07462 0.98376 0.0
Zn504 Zn 0.49948 0.03028 0.98798 0.0
O505 O 0.52525 0.00195 0.01659 0.0
Zn506 Zn 0.54376 0.96598 0.99167 0.0
Zn507 Zn 0.56162 0.02641 0.03636 0.0
Zn508 Zn 0.49626 0.98401 0.04995 0.0
O509 O 0.53291 0.92208 0.01141 0.0
O510 O 0.49451 0.93488 0.04769 0.0
O511 O 0.49384 0.00932 0.94334 0.0
O512 O 0.52636 0.96574 0.9463 0.0
O513 O 0.59215 0.97009 0.988 0.0
O514 O 0.60641 0.00741 0.02483 0.0
O515 O 0.55567 0.02891 0.0851 0.0
O516 O 0.45441 0.03836 0.00646 0.0
O517 O 0.51253 0.99673 0.09451 0.0
O518 O 0.45022 0.0019 0.04635 0.0
C519 C 0.54542 0.08793 0.9981 0.0
C520 C 0.51149 0.91368 0.03237 0.0
C521 C 0.61398 0.98633 0.00313 0.0
C522 C 0.50671 0.98388 0.93053 0.0
C523 C 0.53551 0.0153 0.10461 0.0
C524 C 0.43786 0.02443 0.02882 0.0
O525 O 0.56241 0.07242 0.01897 0.0
O526 O 0.55009 0.51721 0.58042 0.0
Zn527 Zn 0.5391 0.5356 0.53648 0.0
O528 O 0.5114 0.50497 0.51224 0.0
Zn529 Zn 0.53551 0.48942 0.47425 0.0
Zn530 Zn 0.4998 0.46734 0.53965 0.0
Zn531 Zn 0.47173 0.52783 0.49835 0.0
O532 O 0.51258 0.50192 0.4329 0.0
O533 O 0.46984 0.53143 0.44927 0.0
O534 O 0.58156 0.54437 0.51341 0.0
O535 O 0.58121 0.50821 0.47282 0.0
O536 O 0.53933 0.44062 0.47413 0.0
O537 O 0.51668 0.42462 0.52062 0.0
O538 O 0.45074 0.46272 0.54335 0.0
O539 O 0.51673 0.57889 0.54388 0.0
O540 O 0.43133 0.50371 0.51356 0.0
O541 O 0.46955 0.57326 0.51766 0.0
C542 C 0.53947 0.49285 0.59668 0.0
C543 C 0.48734 0.51903 0.42665 0.0
C544 C 0.53131 0.41806 0.49396 0.0
C545 C 0.59544 0.53061 0.48924 0.0
C546 C 0.42675 0.47859 0.53141 0.0
C547 C 0.4891 0.5902 0.53509 0.0
O548 O 0.51901 0.47253 0.58467 0.0
O549 O 0.98714 0.50613 0.08248 0.0
Zn550 Zn 0.9862 0.48397 0.0379 0.0
O551 O 0.00761 0.51127 0.00469 0.0
Zn552 Zn 0.97579 0.52442 0.97144 0.0
Zn553 Zn 0.02545 0.55058 0.02495 0.0
Zn554 Zn 0.04361 0.48689 0.98457 0.0
O555 O 0.98914 0.50742 0.92715 0.0
O556 O 0.03742 0.48405 0.93617 0.0
O557 O 0.93897 0.47576 0.0258 0.0
O558 O 0.9309 0.50633 0.98172 0.0
O559 O 0.97292 0.57377 0.96748 0.0
O560 O 0.00926 0.59172 0.00355 0.0
O561 O 0.0746 0.55056 0.02436 0.0
O562 O 0.00771 0.43949 0.04091 0.0
O563 O 0.08745 0.50796 0.99313 0.0
O564 O 0.04641 0.44105 0.00279 0.0
C565 C 0.9978 0.5342 0.09136 0.0
C566 C 0.01462 0.49266 0.91686 0.0
C567 C 0.98806 0.5972 0.98153 0.0
C568 C 0.92032 0.48674 0.00348 0.0
C569 C 0.09582 0.53261 0.01028 0.0
C570 C 0.03096 0.42588 0.02517 0.0
O571 O 0.01207 0.55324 0.07139 0.0
H572 H 0.10147 0.0672 0.28302 0.0
H573 H 0.00257 0.07895 0.24821 0.0
H574 H 0.98121 0.05883 0.3003 0.0
H575 H 0.99096 0.03998 0.35684 0.0
H576 H 0.0905 0.03 0.39084 0.0
H577 H 0.1112 0.04664 0.33779 0.0
C578 C 0.07523 0.06484 0.28657 0.0
C579 C 0.05367 0.07446 0.26173 0.0
C580 C 0.06321 0.05354 0.31651 0.0
C581 C 0.01971 0.07194 0.26706 0.0
C582 C 0.00749 0.06032 0.29679 0.0
C583 C 0.01714 0.04108 0.35244 0.0
C584 C 0.03912 0.03388 0.37782 0.0
C585 C 0.02904 0.05133 0.32186 0.0
C586 C 0.07301 0.03567 0.37184 0.0
C587 C 0.08493 0.04519 0.34149 0.0
H588 H 0.48811 0.92238 0.79102 0.0
H589 H 0.38765 0.9488 0.81126 0.0
H590 H 0.40431 0.97477 0.86202 0.0
H591 H 0.44694 0.98774 0.90231 0.0
H592 H 0.54619 0.95622 0.88494 0.0
H593 H 0.53048 0.93433 0.83167 0.0
C594 C 0.46975 0.93348 0.80663 0.0
C595 C 0.43669 0.93372 0.79699 0.0
C596 C 0.47931 0.94757 0.8364 0.0
C597 C 0.41341 0.94877 0.8175 0.0
C598 C 0.42285 0.96348 0.84677 0.0
C599 C 0.46514 0.9765 0.88658 0.0
C600 C 0.49766 0.97378 0.89726 0.0
C601 C 0.45569 0.9629 0.85655 0.0
C602 C 0.52098 0.95859 0.87707 0.0
C603 C 0.51201 0.94601 0.8467 0.0
H604 H 0.61351 0.47619 0.72993 0.0
H605 H 0.51869 0.43883 0.75879 0.0
H606 H 0.49777 0.44845 0.70413 0.0
H607 H 0.50657 0.46649 0.64768 0.0
H608 H 0.59968 0.50844 0.62035 0.0
H609 H 0.62085 0.49866 0.67515 0.0
C610 C 0.58807 0.47074 0.72461 0.0
C611 C 0.56795 0.45636 0.74854 0.0
C612 C 0.57586 0.47712 0.69333 0.0
C613 C 0.53512 0.4491 0.74076 0.0
C614 C 0.52299 0.45481 0.70951 0.0
C615 C 0.53149 0.47346 0.65381 0.0
C616 C 0.55167 0.48785 0.63006 0.0
C617 C 0.54324 0.46845 0.68551 0.0
C618 C 0.58371 0.49732 0.63832 0.0
C619 C 0.59584 0.49168 0.66959 0.0
H620 H 0.97965 0.60753 0.22526 0.0
H621 H 0.96108 0.5089 0.25849 0.0
H622 H 0.9707 0.48789 0.20348 0.0
H623 H 0.98268 0.49791 0.14536 0.0
H624 H 0.00285 0.59681 0.1135 0.0
H625 H 0.99475 0.61712 0.16864 0.0
C626 C 0.97838 0.58135 0.22072 0.0
C627 C 0.96956 0.55989 0.24599 0.0
C628 C 0.98403 0.56944 0.18916 0.0
C629 C 0.96741 0.52607 0.23938 0.0
C630 C 0.97298 0.514 0.20795 0.0
C631 C 0.98529 0.52388 0.15052 0.0
C632 C 0.99319 0.54576 0.12525 0.0
C633 C 0.98086 0.53553 0.18251 0.0
C634 C 0.99682 0.57934 0.13243 0.0
C635 C 0.99217 0.59106 0.16399 0.0
H636 H 0.30515 0.09671 0.05959 0.0
H637 H 0.27658 0.9984 0.08687 0.0
H638 H 0.33071 0.97834 0.07208 0.0
H639 H 0.38687 0.98875 0.05261 0.0
H640 H 0.41343 0.08581 0.02033 0.0
H641 H 0.35902 0.10602 0.03499 0.0
C642 C 0.31028 0.07075 0.0617 0.0
C643 C 0.28659 0.04936 0.07492 0.0
C644 C 0.34122 0.05905 0.05218 0.0
C645 C 0.29438 0.01583 0.07776 0.0
C646 C 0.32534 0.00417 0.06901 0.0
C647 C 0.38064 0.01429 0.04868 0.0
C648 C 0.40417 0.03582 0.03567 0.0
C649 C 0.34909 0.02561 0.05656 0.0
C650 C 0.39569 0.06874 0.03026 0.0
C651 C 0.36463 0.08033 0.03874 0.0
H652 H 0.23749 0.9636 0.54776 0.0
H653 H 0.19645 0.93213 0.63929 0.0
H654 H 0.14107 0.94262 0.61907 0.0
H655 H 0.10457 0.96057 0.57535 0.0
H656 H 0.14532 0.99647 0.48524 0.0
H657 H 0.20075 0.9844 0.5047 0.0
C658 C 0.2163 0.95926 0.56315 0.0
C659 C 0.22065 0.94721 0.59482 0.0
C660 C 0.1847 0.96595 0.55157 0.0
C661 C 0.19336 0.94167 0.61487 0.0
C662 C 0.16182 0.94749 0.60329 0.0
C663 C 0.12562 0.9655 0.55993 0.0
C664 C 0.12108 0.97893 0.52884 0.0
C665 C 0.15723 0.95952 0.57166 0.0
C666 C 0.14842 0.98598 0.50927 0.0
C667 C 0.18001 0.97912 0.52037 0.0
H668 H 0.78617 0.41159 0.99197 0.0
H669 H 0.75541 0.50569 0.95481 0.0
H670 H 0.81001 0.52778 0.96433 0.0
H671 H 0.86745 0.51968 0.98059 0.0
H672 H 0.89671 0.42725 0.02216 0.0
H673 H 0.8414 0.40556 0.01438 0.0
C674 C 0.79097 0.43716 0.98664 0.0
C675 C 0.76657 0.45661 0.97204 0.0
C676 C 0.82226 0.45007 0.99293 0.0
C677 C 0.77379 0.48967 0.96508 0.0
C678 C 0.80502 0.50249 0.97075 0.0
C679 C 0.86159 0.49487 0.98813 0.0
C680 C 0.88613 0.47497 0.00159 0.0
C681 C 0.82962 0.48274 0.98408 0.0
C682 C 0.87818 0.44305 0.01175 0.0
C683 C 0.84661 0.43059 0.00718 0.0
H684 H 0.73133 0.59504 0.45498 0.0
H685 H 0.755 0.49396 0.43375 0.0
H686 H 0.69956 0.47749 0.4484 0.0
H687 H 0.64396 0.49176 0.46649 0.0
H688 H 0.62193 0.59172 0.49287 0.0
H689 H 0.67741 0.60858 0.47753 0.0
C690 C 0.72473 0.56929 0.45417 0.0
C691 C 0.74742 0.54592 0.44281 0.0
C692 C 0.69302 0.55978 0.46346 0.0
C693 C 0.73795 0.51271 0.44156 0.0
C694 C 0.70625 0.50317 0.45015 0.0
C695 C 0.65138 0.51723 0.46877 0.0
C696 C 0.62896 0.54058 0.48037 0.0
C697 C 0.68349 0.52653 0.46077 0.0
C698 C 0.63888 0.57338 0.48389 0.0
C699 C 0.67053 0.583 0.47512 0.0
H700 H 0.04906 0.27814 0.06662 0.0
H701 H 0.14823 0.29896 0.03571 0.0
H702 H 0.13199 0.35395 0.01975 0.0
H703 H 0.09025 0.3971 0.01625 0.0
H704 H 0.99267 0.37823 0.05221 0.0
H705 H 0.00802 0.32188 0.06536 0.0
C706 C 0.06737 0.2947 0.05685 0.0
C707 C 0.09989 0.28394 0.05233 0.0
C708 C 0.05821 0.32688 0.04881 0.0
C709 C 0.12285 0.30594 0.03887 0.0
C710 C 0.11368 0.33767 0.03001 0.0
C711 C 0.07232 0.3806 0.02685 0.0
C712 C 0.04035 0.39179 0.03313 0.0
C713 C 0.08149 0.34846 0.03501 0.0
C714 C 0.01749 0.37025 0.04725 0.0
C715 C 0.02622 0.338 0.05469 0.0
H716 H 0.60596 0.2264 0.96591 0.0
H717 H 0.50481 0.24673 0.94293 0.0
H718 H 0.48957 0.19108 0.95834 0.0
H719 H 0.50517 0.13598 0.97649 0.0
H720 H 0.60558 0.1166 0.00275 0.0
H721 H 0.62078 0.17274 0.98839 0.0
C722 C 0.58047 0.21895 0.96487 0.0
C723 C 0.55669 0.2407 0.95283 0.0
C724 C 0.57174 0.187 0.97419 0.0
C725 C 0.5238 0.23033 0.95137 0.0
C726 C 0.515 0.19853 0.96033 0.0
C727 C 0.53037 0.14408 0.97904 0.0
C728 C 0.55428 0.12214 0.99031 0.0
C729 C 0.53883 0.1765 0.97127 0.0
C730 C 0.58674 0.13307 0.99406 0.0
C731 C 0.59546 0.16514 0.98583 0.0
H732 H 0.94149 0.78936 0.41057 0.0
H733 H 0.95426 0.75788 0.50992 0.0
H734 H 0.97164 0.81323 0.52555 0.0
H735 H 0.98182 0.87081 0.51113 0.0
H736 H 0.96631 0.90284 0.41218 0.0
H737 H 0.95151 0.84703 0.39619 0.0
C738 C 0.94842 0.79463 0.43556 0.0
C739 C 0.9468 0.76967 0.45907 0.0
C740 C 0.95776 0.82658 0.44443 0.0
C741 C 0.95526 0.77681 0.49147 0.0
C742 C 0.96522 0.80839 0.50037 0.0
C743 C 0.9754 0.86556 0.48602 0.0
C744 C 0.97526 0.89099 0.46288 0.0
C745 C 0.96635 0.83352 0.47709 0.0
C746 C 0.96652 0.88378 0.43051 0.0
C747 C 0.9581 0.85186 0.42132 0.0
H748 H 0.4679 0.73412 0.58871 0.0
H749 H 0.36828 0.71121 0.5615 0.0
H750 H 0.38536 0.65745 0.54209 0.0
H751 H 0.42823 0.61673 0.53303 0.0
H752 H 0.52761 0.63808 0.56213 0.0
H753 H 0.51085 0.69244 0.58091 0.0
C754 C 0.44989 0.71725 0.57882 0.0
C755 C 0.41692 0.72691 0.57628 0.0
C756 C 0.45979 0.68606 0.56801 0.0
C757 C 0.39395 0.70477 0.56313 0.0
C758 C 0.40363 0.67388 0.55219 0.0
C759 C 0.4463 0.63329 0.54334 0.0
C760 C 0.47914 0.62336 0.54602 0.0
C761 C 0.43648 0.66432 0.55439 0.0
C762 C 0.50213 0.64507 0.55978 0.0
C763 C 0.49259 0.67618 0.57053 0.0
H764 H 0.9754 0.9466 0.73007 0.0
H765 H 0.88621 0.0034 0.72701 0.0
H766 H 0.89851 0.01984 0.67129 0.0
H767 H 0.93325 0.01596 0.62217 0.0
H768 H 0.0192 0.95457 0.62403 0.0
H769 H 0.00898 0.94143 0.68111 0.0
C770 C 0.95829 0.9622 0.71723 0.0
C771 C 0.92984 0.97359 0.73305 0.0
C772 C 0.96482 0.97059 0.68472 0.0
C773 C 0.90861 0.99459 0.71593 0.0
C774 C 0.91544 0.0038 0.68383 0.0
C775 C 0.94979 0.99985 0.63518 0.0
C776 C 0.97692 0.98625 0.61892 0.0
C777 C 0.94332 0.99172 0.66786 0.0
C778 C 0.99801 0.96517 0.63595 0.0
C779 C 0.99224 0.95771 0.66861 0.0
H780 H 0.53734 0.02586 0.258 0.0
H781 H 0.55809 0.12678 0.23459 0.0
H782 H 0.55586 0.11396 0.1764 0.0
H783 H 0.54956 0.07369 0.13224 0.0
H784 H 0.52488 0.97356 0.1552 0.0
H785 H 0.52735 0.98619 0.21356 0.0
C786 C 0.54107 0.04499 0.24004 0.0
C787 C 0.54781 0.07717 0.25035 0.0
C788 C 0.53943 0.03748 0.20668 0.0
C789 C 0.55249 0.10191 0.22707 0.0
C790 C 0.5515 0.09454 0.19387 0.0
C791 C 0.54494 0.05466 0.1501 0.0
C792 C 0.53757 0.02268 0.13967 0.0
C793 C 0.54534 0.06236 0.18342 0.0
C794 C 0.53081 0.99831 0.16285 0.0
C795 C 0.53217 0.00554 0.19612 0.0
H796 H 0.45635 0.51937 0.27598 0.0
H797 H 0.41909 0.61507 0.30046 0.0
H798 H 0.43342 0.60662 0.35778 0.0
H799 H 0.45656 0.5718 0.40084 0.0
H800 H 0.49767 0.47774 0.37556 0.0
H801 H 0.48194 0.48561 0.31867 0.0
C802 C 0.45146 0.53825 0.294 0.0
C803 C 0.43664 0.56767 0.28439 0.0
C804 C 0.46044 0.53349 0.32665 0.0
C805 C 0.43059 0.59227 0.30759 0.0
C806 C 0.43869 0.58741 0.34026 0.0
C807 C 0.46195 0.55304 0.38284 0.0
C808 C 0.47802 0.52418 0.39232 0.0
C809 C 0.45358 0.55809 0.35007 0.0
C810 C 0.48536 0.50022 0.36876 0.0
C811 C 0.47633 0.50466 0.33627 0.0
H812 H 0.00847 0.46267 0.76579 0.0
H813 H 0.1129 0.45523 0.78025 0.0
H814 H 0.10629 0.46892 0.8377 0.0
H815 H 0.07095 0.48096 0.88419 0.0
H816 H 0.96654 0.4897 0.87046 0.0
H817 H 0.973 0.47736 0.81242 0.0
C818 C 0.02972 0.46418 0.78157 0.0
C819 C 0.06111 0.45805 0.76881 0.0
C820 C 0.02575 0.47203 0.8147 0.0
C821 C 0.08851 0.46032 0.7894 0.0
C822 C 0.08475 0.46787 0.82231 0.0
C823 C 0.04957 0.48009 0.86854 0.0
C824 C 0.0183 0.48589 0.88166 0.0
C825 C 0.05349 0.47343 0.83527 0.0
C826 C 0.9909 0.48524 0.86094 0.0
C827 C 0.99456 0.47817 0.82777 0.0
H828 H 0.74905 0.95829 0.93531 0.0
H829 H 0.78455 0.96834 0.03361 0.0
H830 H 0.72903 0.98222 0.05243 0.0
H831 H 0.66955 0.98894 0.04068 0.0
H832 H 0.63529 0.97403 0.94229 0.0
H833 H 0.69113 0.9649 0.92366 0.0
C834 C 0.74473 0.9641 0.96078 0.0
C835 C 0.77077 0.96284 0.98299 0.0
C836 C 0.71288 0.97096 0.97138 0.0
C837 C 0.76477 0.96943 0.01608 0.0
C838 C 0.73309 0.97728 0.02679 0.0
C839 C 0.6745 0.9839 0.01519 0.0
C840 C 0.64839 0.98204 0.9929 0.0
C841 C 0.70681 0.97774 0.00467 0.0
C842 C 0.65497 0.97525 0.95996 0.0
C843 C 0.68688 0.97012 0.94923 0.0
H844 H 0.76467 0.05982 0.49047 0.0
H845 H 0.77213 0.03064 0.38943 0.0
H846 H 0.83047 0.02109 0.39594 0.0
H847 H 0.8798 0.02233 0.42957 0.0
H848 H 0.87349 0.05477 0.52961 0.0
H849 H 0.81452 0.06267 0.5238 0.0
C850 C 0.77902 0.05165 0.46976 0.0
C851 C 0.76368 0.04569 0.4396 0.0
C852 C 0.81294 0.04712 0.47332 0.0
C853 C 0.78286 0.03464 0.41322 0.0
C854 C 0.81642 0.02953 0.41676 0.0
C855 C 0.86558 0.03116 0.45013 0.0
C856 C 0.88111 0.03792 0.47995 0.0
C857 C 0.83174 0.03583 0.44662 0.0
C858 C 0.86224 0.04951 0.50628 0.0
C859 C 0.82847 0.05392 0.50304 0.0
H860 H 0.24942 0.55194 0.01454 0.0
H861 H 0.22514 0.5868 0.11084 0.0
H862 H 0.16702 0.57702 0.10044 0.0
H863 H 0.12318 0.55907 0.06396 0.0
H864 H 0.14695 0.52056 0.9689 0.0
H865 H 0.20523 0.53135 0.97863 0.0
C866 C 0.23129 0.55724 0.03316 0.0
C867 C 0.24133 0.56999 0.06338 0.0
C868 C 0.19795 0.5511 0.02717 0.0
C869 C 0.21785 0.57665 0.08752 0.0
C870 C 0.18467 0.57126 0.08153 0.0
C871 C 0.14112 0.55325 0.0453 0.0
C872 C 0.13088 0.53944 0.01564 0.0
C873 C 0.17446 0.55864 0.05142 0.0
C874 C 0.15436 0.53133 0.9919 0.0
C875 C 0.18761 0.53748 0.99746 0.0
H876 H 0.29243 0.41483 0.57481 0.0
H877 H 0.25641 0.50907 0.54404 0.0
H878 H 0.31163 0.52508 0.52687 0.0
H879 H 0.37043 0.51315 0.52303 0.0
H880 H 0.40689 0.41983 0.55653 0.0
H881 H 0.35125 0.40256 0.57016 0.0
C882 C 0.2967 0.43867 0.5639 0.0
C883 C 0.27054 0.46072 0.56051 0.0
C884 C 0.32858 0.44795 0.55485 0.0
C885 C 0.27631 0.49177 0.5469 0.0
C886 C 0.30782 0.50091 0.53713 0.0
C887 C 0.36621 0.48895 0.53311 0.0
C888 C 0.39284 0.46786 0.53878 0.0
C889 C 0.33421 0.47935 0.54139 0.0
C890 C 0.3869 0.43665 0.55208 0.0
C891 C 0.35506 0.42671 0.55983 0.0
H892 H 0.96737 0.74951 0.9625 0.0
H893 H 0.92943 0.71594 0.87027 0.0
H894 H 0.94005 0.65904 0.88568 0.0
H895 H 0.96015 0.61886 0.92541 0.0
H896 H 0.0003 0.65267 0.01678 0.0
H897 H 0.9887 0.70935 0.00176 0.0
C898 C 0.96135 0.72966 0.94589 0.0
C899 C 0.94762 0.7368 0.91536 0.0
C900 C 0.9679 0.69708 0.95476 0.0
C901 C 0.94026 0.71098 0.89382 0.0
C902 C 0.9462 0.67848 0.90267 0.0
C903 C 0.96625 0.63863 0.94208 0.0
C904 C 0.98094 0.63151 0.97221 0.0
C905 C 0.96001 0.67124 0.93307 0.0
C906 C 0.98905 0.65745 0.99338 0.0
C907 C 0.98239 0.68989 0.98485 0.0
H908 H 0.5092 0.76149 0.06051 0.0
H909 H 0.40755 0.78352 0.07888 0.0
H910 H 0.41707 0.84107 0.06546 0.0
H911 H 0.45455 0.88534 0.05024 0.0
H912 H 0.55561 0.86354 0.02861 0.0
H913 H 0.54619 0.80564 0.0415 0.0
C914 C 0.48922 0.77899 0.06135 0.0
C915 C 0.45778 0.76852 0.07064 0.0
C916 C 0.4948 0.81197 0.05319 0.0
C917 C 0.4319 0.79114 0.07149 0.0
C918 C 0.43735 0.82401 0.06401 0.0
C919 C 0.4745 0.86789 0.04839 0.0
C920 C 0.50577 0.87861 0.0389 0.0
C921 C 0.46874 0.83473 0.05514 0.0
C922 C 0.53131 0.85575 0.03595 0.0
C923 C 0.52596 0.82272 0.04336 0.0
H924 H 0.07415 0.24223 0.51546 0.0
H925 H 0.04434 0.23511 0.61626 0.0
H926 H 0.0219 0.18071 0.60615 0.0
H927 H 0.01398 0.13329 0.56962 0.0
H928 H 0.04949 0.13837 0.47075 0.0
H929 H 0.06693 0.19505 0.47935 0.0
C930 C 0.06309 0.22876 0.53539 0.0
C931 C 0.06107 0.24306 0.56658 0.0
C932 C 0.05135 0.19688 0.5298 0.0
C933 C 0.04582 0.22524 0.5918 0.0
C934 C 0.03321 0.19387 0.58616 0.0
C935 C 0.02521 0.14701 0.54993 0.0
C936 C 0.03042 0.13182 0.51962 0.0
C937 C 0.03619 0.17926 0.55536 0.0
C938 C 0.04538 0.1496 0.49436 0.0
C939 C 0.05534 0.18198 0.49925 0.0
H940 H 0.56798 0.28086 0.43336 0.0
H941 H 0.55627 0.25034 0.53317 0.0
H942 H 0.54153 0.3065 0.54888 0.0
H943 H 0.53274 0.36453 0.53397 0.0
H944 H 0.54676 0.39432 0.43398 0.0
H945 H 0.5596 0.33815 0.41861 0.0
C946 C 0.56182 0.28645 0.4585 0.0
C947 C 0.56287 0.26156 0.48204 0.0
C948 C 0.55389 0.31867 0.46731 0.0
C949 C 0.55561 0.2692 0.51465 0.0
C950 C 0.54715 0.30124 0.52359 0.0
C951 C 0.53849 0.35867 0.50882 0.0
C952 C 0.53879 0.38365 0.4852 0.0
C953 C 0.54633 0.32623 0.50011 0.0
C954 C 0.54653 0.37568 0.45273 0.0
C955 C 0.55381 0.34352 0.44385 0.0
loop_
_geom_bond_atom_site_label_1
_geom_bond_atom_site_label_2
_geom_bond_distance
_geom_bond_site_symmetry_2
_ccdc_geom_bond_type
C0 C1 1.391 . S
C0 C4 1.391 . S
C0 H42 0.948 . S
C1 C0 1.391 . S
C1 C2 1.391 . S
C2 C1 1.391 . S
C2 H58 0.947 . S
C2 C59 1.392 . S
C3 C4 1.391 . S
C3 C7 1.397 . S
C3 C59 1.419 . S
C4 C0 1.391 . S
C4 C3 1.391 . S
C4 C5 1.399 . S
C5 C4 1.399 . S
C5 C8 1.396 . S
C5 C17 1.453 . S
C5 C18 1.684 . S
H6 C30 0.948 . S
C7 C3 1.397 . S
C7 C8 1.394 . S
C7 C26 1.723 . S
C8 C5 1.396 . S
C8 C7 1.394 . S
C8 C38 1.723 . S
H9 C32 0.947 . S
H10 C33 0.948 . S
H11 C39 0.982 . S
H12 C40 0.979 . S
H13 C40 0.980 . S
H14 C40 0.983 . S
H15 C39 0.979 . S
H16 C39 0.977 . S
C17 C5 1.453 . S
C17 H46 0.982 . S
C17 H47 0.979 . S
C17 H48 0.977 . S
C18 C5 1.684 . S
C18 H43 0.979 . S
C18 H44 0.980 . S
C18 H45 0.983 . S
C19 C20 1.391 . S
C19 C24 1.391 . S
C19 H49 0.948 . S
C20 C19 1.391 . S
C20 C21 1.391 . S
C21 C20 1.391 . S
C21 C22 1.392 . S
C21 H50 0.947 . S
C22 C21 1.392 . S
C22 C23 1.419 . S
C22 H51 0.948 . S
C23 C22 1.419 . S
C23 C24 1.391 . S
C23 C27 1.397 . S
C24 C19 1.391 . S
C24 C23 1.391 . S
C24 C25 1.399 . S
C25 C24 1.399 . S
C25 C26 1.396 . S
C25 C28 1.453 . S
C25 C29 1.684 . S
C26 C7 1.723 . S
C26 C25 1.396 . S
C26 C27 1.394 . S
C27 C23 1.397 . S
C27 C26 1.394 . S
C27 C37 1.723 . S
C28 C25 1.453 . S
C28 H52 0.982 . S
C28 H53 0.979 . S
C28 H54 0.977 . S
C29 C25 1.684 . S
C29 H55 0.979 . S
C29 H56 0.980 . S
C29 H57 0.983 . S
C30 H6 0.948 . S
C30 C31 1.391 . S
C30 C35 1.391 . S
C31 C30 1.391 . S
C31 C32 1.391 . S
C32 H9 0.947 . S
C32 C31 1.391 . S
C32 C33 1.392 . S
C33 H10 0.948 . S
C33 C32 1.392 . S
C33 C34 1.419 . S
C34 C33 1.419 . S
C34 C35 1.391 . S
C34 C38 1.397 . S
C35 C30 1.391 . S
C35 C34 1.391 . S
C35 C36 1.399 . S
C36 C35 1.399 . S
C36 C37 1.396 . S
C36 C39 1.453 . S
C36 C40 1.684 . S
C37 C27 1.723 . S
C37 C36 1.396 . S
C37 C38 1.394 . S
C38 C8 1.723 . S
C38 C34 1.397 . S
C38 C37 1.394 . S
C39 H11 0.982 . S
C39 H15 0.979 . S
C39 H16 0.977 . S
C39 C36 1.453 . S
C40 H12 0.979 . S
C40 H13 0.980 . S
C40 H14 0.983 . S
C40 C36 1.684 . S
H41 C59 0.948 . S
H42 C0 0.948 . S
H43 C18 0.979 . S
H44 C18 0.980 . S
H45 C18 0.983 . S
H46 C17 0.982 . S
H47 C17 0.979 . S
H48 C17 0.977 . S
H49 C19 0.948 . S
H50 C21 0.947 . S
H51 C22 0.948 . S
H52 C28 0.982 . S
H53 C28 0.979 . S
H54 C28 0.977 . S
H55 C29 0.979 . S
H56 C29 0.980 . S
H57 C29 0.983 . S
H58 C2 0.947 . S
C59 C2 1.392 . S
C59 C3 1.419 . S
C59 H41 0.948 . S
C60 C61 1.391 . S
C60 C64 1.391 . S
C60 H102 0.948 . S
C61 C60 1.391 . S
C61 C62 1.391 . S
C62 C61 1.391 . S
C62 H118 0.947 . S
C62 C119 1.392 . S
C63 C64 1.391 . S
C63 C67 1.397 . S
C63 C119 1.419 . S
C64 C60 1.391 . S
C64 C63 1.391 . S
C64 C65 1.399 . S
C65 C64 1.399 . S
C65 C68 1.396 . S
C65 C77 1.453 . S
C65 C78 1.684 . S
H66 C90 0.948 . S
C67 C63 1.397 . S
C67 C68 1.394 . S
C67 C86 1.723 . S
C68 C65 1.396 . S
C68 C67 1.394 . S
C68 C98 1.723 . S
H69 C92 0.947 . S
H70 C93 0.948 . S
H71 C99 0.982 . S
H72 C100 0.979 . S
H73 C100 0.980 . S
H74 C100 0.983 . S
H75 C99 0.979 . S
H76 C99 0.977 . S
C77 C65 1.453 . S
C77 H106 0.982 . S
C77 H107 0.979 . S
C77 H108 0.977 . S
C78 C65 1.684 . S
C78 H103 0.979 . S
C78 H104 0.980 . S
C78 H105 0.983 . S
C79 C80 1.391 . S
C79 C84 1.391 . S
C79 H109 0.948 . S
C80 C79 1.391 . S
C80 C81 1.391 . S
C81 C80 1.391 . S
C81 C82 1.392 . S
C81 H110 0.947 . S
C82 C81 1.392 . S
C82 C83 1.419 . S
C82 H111 0.948 . S
C83 C82 1.419 . S
C83 C84 1.391 . S
C83 C87 1.397 . S
C84 C79 1.391 . S
C84 C83 1.391 . S
C84 C85 1.399 . S
C85 C84 1.399 . S
C85 C86 1.396 . S
C85 C88 1.453 . S
C85 C89 1.684 . S
C86 C67 1.723 . S
C86 C85 1.396 . S
C86 C87 1.394 . S
C87 C83 1.397 . S
C87 C86 1.394 . S
C87 C97 1.723 . S
C88 C85 1.453 . S
C88 H112 0.982 . S
C88 H113 0.979 . S
C88 H114 0.977 . S
C89 C85 1.684 . S
C89 H115 0.979 . S
C89 H116 0.980 . S
C89 H117 0.983 . S
C90 H66 0.948 . S
C90 C91 1.391 . S
C90 C95 1.391 . S
C91 C90 1.391 . S
C91 C92 1.391 . S
C92 H69 0.947 . S
C92 C91 1.391 . S
C92 C93 1.392 . S
C93 H70 0.948 . S
C93 C92 1.392 . S
C93 C94 1.419 . S
C94 C93 1.419 . S
C94 C95 1.391 . S
C94 C98 1.397 . S
C95 C90 1.391 . S
C95 C94 1.391 . S
C95 C96 1.399 . S
C96 C95 1.399 . S
C96 C97 1.396 . S
C96 C99 1.453 . S
C96 C100 1.684 . S
C97 C87 1.723 . S
C97 C96 1.396 . S
C97 C98 1.394 . S
C98 C68 1.723 . S
C98 C94 1.397 . S
C98 C97 1.394 . S
C99 H71 0.982 . S
C99 H75 0.979 . S
C99 H76 0.977 . S
C99 C96 1.453 . S
C100 H72 0.979 . S
C100 H73 0.980 . S
C100 H74 0.983 . S
C100 C96 1.684 . S
H101 C119 0.948 . S
H102 C60 0.948 . S
H103 C78 0.979 . S
H104 C78 0.980 . S
H105 C78 0.983 . S
H106 C77 0.982 . S
H107 C77 0.979 . S
H108 C77 0.977 . S
H109 C79 0.948 . S
H110 C81 0.947 . S
H111 C82 0.948 . S
H112 C88 0.982 . S
H113 C88 0.979 . S
H114 C88 0.977 . S
H115 C89 0.979 . S
H116 C89 0.980 . S
H117 C89 0.983 . S
H118 C62 0.947 . S
C119 C62 1.392 . S
C119 C63 1.419 . S
C119 H101 0.948 . S
C120 C121 1.391 . S
C120 C124 1.391 . S
C120 H162 0.948 . S
C121 C120 1.391 . S
C121 C122 1.391 . S
C122 C121 1.391 . S
C122 H178 0.947 . S
C122 C179 1.392 . S
C123 C124 1.391 . S
C123 C127 1.397 . S
C123 C179 1.419 . S
C124 C120 1.391 . S
C124 C123 1.391 . S
C124 C125 1.399 . S
C125 C124 1.399 . S
C125 C128 1.396 . S
C125 C137 1.453 . S
C125 C138 1.684 . S
H126 C150 0.948 . S
C127 C123 1.397 . S
C127 C128 1.394 . S
C127 C146 1.723 . S
C128 C125 1.396 . S
C128 C127 1.394 . S
C128 C158 1.723 . S
H129 C152 0.947 . S
H130 C153 0.948 . S
H131 C159 0.982 . S
H132 C160 0.979 . S
H133 C160 0.980 . S
H134 C160 0.983 . S
H135 C159 0.979 . S
H136 C159 0.977 . S
C137 C125 1.453 . S
C137 H166 0.982 . S
C137 H167 0.979 . S
C137 H168 0.977 . S
C138 C125 1.684 . S
C138 H163 0.979 . S
C138 H164 0.980 . S
C138 H165 0.983 . S
C139 C140 1.391 . S
C139 C144 1.391 . S
C139 H169 0.948 . S
C140 C139 1.391 . S
C140 C141 1.391 . S
C141 C140 1.391 . S
C141 C142 1.392 . S
C141 H170 0.947 . S
C142 C141 1.392 . S
C142 C143 1.419 . S
C142 H171 0.948 . S
C143 C142 1.419 . S
C143 C144 1.391 . S
C143 C147 1.397 . S
C144 C139 1.391 . S
C144 C143 1.391 . S
C144 C145 1.399 . S
C145 C144 1.399 . S
C145 C146 1.396 . S
C145 C148 1.453 . S
C145 C149 1.684 . S
C146 C127 1.723 . S
C146 C145 1.396 . S
C146 C147 1.394 . S
C147 C143 1.397 . S
C147 C146 1.394 . S
C147 C157 1.723 . S
C148 C145 1.453 . S
C148 H172 0.982 . S
C148 H173 0.979 . S
C148 H174 0.977 . S
C149 C145 1.684 . S
C149 H175 0.979 . S
C149 H176 0.980 . S
C149 H177 0.983 . S
C150 H126 0.948 . S
C150 C151 1.391 . S
C150 C155 1.391 . S
C151 C150 1.391 . S
C151 C152 1.391 . S
C152 H129 0.947 . S
C152 C151 1.391 . S
C152 C153 1.392 . S
C153 H130 0.948 . S
C153 C152 1.392 . S
C153 C154 1.419 . S
C154 C153 1.419 . S
C154 C155 1.391 . S
C154 C158 1.397 . S
C155 C150 1.391 . S
C155 C154 1.391 . S
C155 C156 1.399 . S
C156 C155 1.399 . S
C156 C157 1.396 . S
C156 C159 1.453 . S
C156 C160 1.684 . S
C157 C147 1.723 . S
C157 C156 1.396 . S
C157 C158 1.394 . S
C158 C128 1.723 . S
C158 C154 1.397 . S
C158 C157 1.394 . S
C159 H131 0.982 . S
C159 H135 0.979 . S
C159 H136 0.977 . S
C159 C156 1.453 . S
C160 H132 0.979 . S
C160 H133 0.980 . S
C160 H134 0.983 . S
C160 C156 1.684 . S
H161 C179 0.948 . S
H162 C120 0.948 . S
H163 C138 0.979 . S
H164 C138 0.980 . S
H165 C138 0.983 . S
H166 C137 0.982 . S
H167 C137 0.979 . S
H168 C137 0.977 . S
H169 C139 0.948 . S
H170 C141 0.947 . S
H171 C142 0.948 . S
H172 C148 0.982 . S
H173 C148 0.979 . S
H174 C148 0.977 . S
H175 C149 0.979 . S
H176 C149 0.980 . S
H177 C149 0.983 . S
H178 C122 0.947 . S
C179 C122 1.392 . S
C179 C123 1.419 . S
C179 H161 0.948 . S
C180 C181 1.391 . S
C180 C184 1.391 . S
C180 H222 0.948 . S
C181 C180 1.391 . S
C181 C182 1.391 . S
C182 C181 1.391 . S
C182 H238 0.947 . S
C182 C239 1.392 . S
C183 C184 1.391 . S
C183 C187 1.397 . S
C183 C239 1.419 . S
C184 C180 1.391 . S
C184 C183 1.391 . S
C184 C185 1.399 . S
C185 C184 1.399 . S
C185 C188 1.396 . S
C185 C197 1.453 . S
C185 C198 1.684 . S
H186 C210 0.948 . S
C187 C183 1.397 . S
C187 C188 1.394 . S
C187 C206 1.723 . S
C188 C185 1.396 . S
C188 C187 1.394 . S
C188 C218 1.723 . S
H189 C212 0.947 . S
H190 C213 0.948 . S
H191 C219 0.982 . S
H192 C220 0.979 . S
H193 C220 0.980 . S
H194 C220 0.983 . S
H195 C219 0.979 . S
H196 C219 0.977 . S
C197 C185 1.453 . S
C197 H226 0.982 . S
C197 H227 0.979 . S
C197 H228 0.977 . S
C198 C185 1.684 . S
C198 H223 0.979 . S
C198 H224 0.980 . S
C198 H225 0.983 . S
C199 C200 1.391 . S
C199 C204 1.391 . S
C199 H229 0.948 . S
C200 C199 1.391 . S
C200 C201 1.391 . S
C201 C200 1.391 . S
C201 C202 1.392 . S
C201 H230 0.947 . S
C202 C201 1.392 . S
C202 C203 1.419 . S
C202 H231 0.948 . S
C203 C202 1.419 . S
C203 C204 1.391 . S
C203 C207 1.397 . S
C204 C199 1.391 . S
C204 C203 1.391 . S
C204 C205 1.399 . S
C205 C204 1.399 . S
C205 C206 1.396 . S
C205 C208 1.453 . S
C205 C209 1.684 . S
C206 C187 1.723 . S
C206 C205 1.396 . S
C206 C207 1.394 . S
C207 C203 1.397 . S
C207 C206 1.394 . S
C207 C217 1.723 . S
C208 C205 1.453 . S
C208 H232 0.982 . S
C208 H233 0.979 . S
C208 H234 0.977 . S
C209 C205 1.684 . S
C209 H235 0.979 . S
C209 H236 0.980 . S
C209 H237 0.983 . S
C210 H186 0.948 . S
C210 C211 1.391 . S
C210 C215 1.391 . S
C211 C210 1.391 . S
C211 C212 1.391 . S
C212 H189 0.947 . S
C212 C211 1.391 . S
C212 C213 1.392 . S
C213 H190 0.948 . S
C213 C212 1.392 . S
C213 C214 1.419 . S
C214 C213 1.419 . S
C214 C215 1.391 . S
C214 C218 1.397 . S
C215 C210 1.391 . S
C215 C214 1.391 . S
C215 C216 1.399 . S
C216 C215 1.399 . S
C216 C217 1.396 . S
C216 C219 1.453 . S
C216 C220 1.684 . S
C217 C207 1.723 . S
C217 C216 1.396 . S
C217 C218 1.394 . S
C218 C188 1.723 . S
C218 C214 1.397 . S
C218 C217 1.394 . S
C219 H191 0.982 . S
C219 H195 0.979 . S
C219 H196 0.977 . S
C219 C216 1.453 . S
C220 H192 0.979 . S
C220 H193 0.980 . S
C220 H194 0.983 . S
C220 C216 1.684 . S
H221 C239 0.948 . S
H222 C180 0.948 . S
H223 C198 0.979 . S
H224 C198 0.980 . S
H225 C198 0.983 . S
H226 C197 0.982 . S
H227 C197 0.979 . S
H228 C197 0.977 . S
H229 C199 0.948 . S
H230 C201 0.947 . S
H231 C202 0.948 . S
H232 C208 0.982 . S
H233 C208 0.979 . S
H234 C208 0.977 . S
H235 C209 0.979 . S
H236 C209 0.980 . S
H237 C209 0.983 . S
H238 C182 0.947 . S
C239 C182 1.392 . S
C239 C183 1.419 . S
C239 H221 0.948 . S
C240 C241 1.391 . S
C240 C244 1.391 . S
C240 H282 0.948 . S
C241 C240 1.391 . S
C241 C242 1.391 . S
C242 C241 1.391 . S
C242 H298 0.947 . S
C242 C299 1.392 . S
C243 C244 1.391 . S
C243 C247 1.397 . S
C243 C299 1.419 . S
C244 C240 1.391 . S
C244 C243 1.391 . S
C244 C245 1.399 . S
C245 C244 1.399 . S
C245 C248 1.396 . S
C245 C257 1.453 . S
C245 C258 1.684 1_556 S
H246 C270 0.948 1_545 S
C247 C243 1.397 . S
C247 C248 1.394 . S
C247 C266 1.723 . S
C248 C245 1.396 . S
C248 C247 1.394 . S
C248 C278 1.723 . S
H249 C272 0.947 1_554 S
H250 C273 0.948 . S
H251 C279 0.982 . S
H252 C280 0.979 . S
H253 C280 0.980 . S
H254 C280 0.983 . S
H255 C279 0.979 1_545 S
H256 C279 0.977 . S
C257 C245 1.453 . S
C257 H286 0.982 . S
C257 H287 0.979 . S
C257 H288 0.977 . S
C258 C245 1.684 1_554 S
C258 H283 0.979 . S
C258 H284 0.980 . S
C258 H285 0.983 . S
C259 C260 1.391 . S
C259 C264 1.391 . S
C259 H289 0.948 . S
C260 C259 1.391 . S
C260 C261 1.391 1_565 S
C261 C260 1.391 1_545 S
C261 C262 1.392 1_545 S
C261 H290 0.947 . S
C262 C261 1.392 1_565 S
C262 C263 1.419 . S
C262 H291 0.948 1_565 S
C263 C262 1.419 . S
C263 C264 1.391 . S
C263 C267 1.397 . S
C264 C259 1.391 . S
C264 C263 1.391 . S
C264 C265 1.399 . S
C265 C264 1.399 . S
C265 C266 1.396 . S
C265 C268 1.453 . S
C265 C269 1.684 . S
C266 C247 1.723 . S
C266 C265 1.396 . S
C266 C267 1.394 . S
C267 C263 1.397 . S
C267 C266 1.394 . S
C267 C277 1.723 . S
C268 C265 1.453 . S
C268 H292 0.982 . S
C268 H293 0.979 . S
C268 H294 0.977 . S
C269 C265 1.684 . S
C269 H295 0.979 1_655 S
C269 H296 0.981 . S
C269 H297 0.983 1_655 S
C270 H246 0.948 1_565 S
C270 C271 1.391 . S
C270 C275 1.391 . S
C271 C270 1.391 . S
C271 C272 1.391 . S
C272 H249 0.947 1_556 S
C272 C271 1.391 . S
C272 C273 1.392 . S
C273 H250 0.948 . S
C273 C272 1.392 . S
C273 C274 1.419 . S
C274 C273 1.419 . S
C274 C275 1.391 . S
C274 C278 1.397 . S
C275 C270 1.391 . S
C275 C274 1.391 . S
C275 C276 1.399 . S
C276 C275 1.399 . S
C276 C277 1.396 . S
C276 C279 1.453 . S
C276 C280 1.684 1_565 S
C277 C267 1.723 . S
C277 C276 1.396 . S
C277 C278 1.394 . S
C278 C248 1.723 . S
C278 C274 1.397 . S
C278 C277 1.394 . S
C279 H251 0.982 . S
C279 H255 0.979 1_565 S
C279 H256 0.977 . S
C279 C276 1.453 . S
C280 H252 0.979 . S
C280 H253 0.980 . S
C280 H254 0.983 . S
C280 C276 1.684 1_545 S
H281 C299 0.948 . S
H282 C240 0.948 . S
H283 C258 0.979 . S
H284 C258 0.980 . S
H285 C258 0.983 . S
H286 C257 0.982 . S
H287 C257 0.979 . S
H288 C257 0.977 . S
H289 C259 0.948 . S
H290 C261 0.947 . S
H291 C262 0.948 1_545 S
H292 C268 0.982 . S
H293 C268 0.979 . S
H294 C268 0.977 . S
H295 C269 0.979 1_455 S
H296 C269 0.981 . S
H297 C269 0.983 1_455 S
H298 C242 0.947 . S
C299 C242 1.392 . S
C299 C243 1.419 . S
C299 H281 0.948 . S
C300 C301 1.391 . S
C300 C304 1.391 . S
C300 H342 0.948 . S
C301 C300 1.391 . S
C301 C302 1.391 . S
C302 C301 1.391 . S
C302 H358 0.947 1_545 S
C302 C359 1.392 . S
C303 C304 1.391 . S
C303 C307 1.397 . S
C303 C359 1.419 . S
C304 C300 1.391 . S
C304 C303 1.391 . S
C304 C305 1.399 . S
C305 C304 1.399 . S
C305 C308 1.396 . S
C305 C317 1.453 . S
C305 C318 1.684 . S
H306 C330 0.948 . S
C307 C303 1.397 . S
C307 C308 1.394 . S
C307 C326 1.723 . S
C308 C305 1.396 . S
C308 C307 1.394 . S
C308 C338 1.723 . S
H309 C332 0.947 . S
H310 C333 0.948 . S
H311 C339 0.982 . S
H312 C340 0.979 . S
H313 C340 0.980 . S
H314 C340 0.983 . S
H315 C339 0.979 . S
H316 C339 0.977 . S
C317 C305 1.453 . S
C317 H346 0.982 . S
C317 H347 0.979 . S
C317 H348 0.977 . S
C318 C305 1.684 . S
C318 H343 0.979 . S
C318 H344 0.980 . S
C318 H345 0.983 . S
C319 C320 1.391 . S
C319 C324 1.391 . S
C319 H349 0.948 . S
C320 C319 1.391 . S
C320 C321 1.391 . S
C321 C320 1.391 . S
C321 C322 1.392 . S
C321 H350 0.947 . S
C322 C321 1.392 . S
C322 C323 1.419 . S
C322 H351 0.948 . S
C323 C322 1.419 . S
C323 C324 1.391 . S
C323 C327 1.397 . S
C324 C319 1.391 . S
C324 C323 1.391 . S
C324 C325 1.399 . S
C325 C324 1.399 . S
C325 C326 1.396 . S
C325 C328 1.453 . S
C325 C329 1.684 . S
C326 C307 1.723 . S
C326 C325 1.396 . S
C326 C327 1.394 . S
C327 C323 1.397 . S
C327 C326 1.394 . S
C327 C337 1.723 . S
C328 C325 1.453 . S
C328 H352 0.983 . S
C328 H353 0.979 1_545 S
C328 H354 0.977 . S
C329 C325 1.684 . S
C329 H355 0.979 . S
C329 H356 0.980 . S
C329 H357 0.983 . S
C330 H306 0.948 . S
C330 C331 1.391 . S
C330 C335 1.391 . S
C331 C330 1.391 . S
C331 C332 1.391 . S
C332 H309 0.947 . S
C332 C331 1.391 . S
C332 C333 1.392 . S
C333 H310 0.948 . S
C333 C332 1.392 . S
C333 C334 1.419 . S
C334 C333 1.419 . S
C334 C335 1.391 . S
C334 C338 1.397 . S
C335 C330 1.391 . S
C335 C334 1.391 . S
C335 C336 1.399 . S
C336 C335 1.399 . S
C336 C337 1.396 . S
C336 C339 1.453 . S
C336 C340 1.684 . S
C337 C327 1.723 . S
C337 C336 1.396 . S
C337 C338 1.394 . S
C338 C308 1.723 . S
C338 C334 1.397 . S
C338 C337 1.394 . S
C339 H311 0.982 . S
C339 H315 0.979 . S
C339 H316 0.977 . S
C339 C336 1.453 . S
C340 H312 0.979 . S
C340 H313 0.980 . S
C340 H314 0.983 . S
C340 C336 1.684 . S
H341 C359 0.948 . S
H342 C300 0.948 . S
H343 C318 0.979 . S
H344 C318 0.980 . S
H345 C318 0.983 . S
H346 C317 0.982 . S
H347 C317 0.979 . S
H348 C317 0.977 . S
H349 C319 0.948 . S
H350 C321 0.947 . S
H351 C322 0.948 . S
H352 C328 0.983 . S
H353 C328 0.979 1_565 S
H354 C328 0.977 . S
H355 C329 0.979 . S
H356 C329 0.980 . S
H357 C329 0.983 . S
H358 C302 0.947 1_565 S
C359 C302 1.392 . S
C359 C303 1.419 . S
C359 H341 0.948 . S
C360 C361 1.391 . S
C360 C364 1.391 . S
C360 H402 0.948 . S
C361 C360 1.391 . S
C361 C362 1.391 . S
C362 C361 1.391 . S
C362 H418 0.947 . S
C362 C419 1.392 . S
C363 C364 1.391 . S
C363 C367 1.397 . S
C363 C419 1.419 . S
C364 C360 1.391 . S
C364 C363 1.391 . S
C364 C365 1.399 . S
C365 C364 1.399 . S
C365 C368 1.396 . S
C365 C377 1.453 . S
C365 C378 1.684 . S
H366 C390 0.948 . S
C367 C363 1.397 . S
C367 C368 1.394 . S
C367 C386 1.723 . S
C368 C365 1.396 . S
C368 C367 1.394 . S
C368 C398 1.723 . S
H369 C392 0.947 . S
H370 C393 0.948 . S
H371 C399 0.982 . S
H372 C400 0.979 . S
H373 C400 0.980 . S
H374 C400 0.998 . S
H375 C399 0.979 . S
H376 C399 0.977 . S
C377 C365 1.453 . S
C377 H406 0.982 . S
C377 H407 0.979 . S
C377 H408 0.977 . S
C378 C365 1.684 . S
C378 H403 0.979 . S
C378 H404 0.980 . S
C378 H405 0.983 . S
C379 C380 1.391 . S
C379 C384 1.391 . S
C379 H409 0.948 . S
C380 C379 1.391 . S
C380 C381 1.391 . S
C381 C380 1.391 . S
C381 C382 1.392 . S
C381 H410 0.947 . S
C382 C381 1.392 . S
C382 C383 1.419 . S
C382 H411 0.948 . S
C383 C382 1.419 . S
C383 C384 1.391 . S
C383 C387 1.397 . S
C384 C379 1.391 . S
C384 C383 1.391 . S
C384 C385 1.399 . S
C385 C384 1.399 . S
C385 C386 1.396 . S
C385 C388 1.453 . S
C385 C389 1.684 . S
C386 C367 1.723 . S
C386 C385 1.396 . S
C386 C387 1.394 . S
C387 C383 1.397 . S
C387 C386 1.394 . S
C387 C397 1.723 . S
C388 C385 1.453 . S
C388 H412 0.982 . S
C388 H413 0.979 . S
C388 H414 0.977 . S
C389 C385 1.684 . S
C389 H415 0.979 . S
C389 H416 0.980 . S
C389 H417 0.983 . S
C390 H366 0.948 . S
C390 C391 1.391 . S
C390 C395 1.391 . S
C391 C390 1.391 . S
C391 C392 1.391 . S
C392 H369 0.947 . S
C392 C391 1.391 . S
C392 C393 1.392 . S
C393 H370 0.948 . S
C393 C392 1.392 . S
C393 C394 1.419 . S
C394 C393 1.419 . S
C394 C395 1.391 . S
C394 C398 1.397 . S
C395 C390 1.391 . S
C395 C394 1.391 . S
C395 C396 1.399 . S
C396 C395 1.399 . S
C396 C397 1.396 . S
C396 C399 1.453 . S
C396 C400 1.684 . S
C397 C387 1.723 . S
C397 C396 1.396 . S
C397 C398 1.394 . S
C398 C368 1.723 . S
C398 C394 1.397 . S
C398 C397 1.394 . S
C399 H371 0.982 . S
C399 H375 0.979 . S
C399 H376 0.977 . S
C399 C396 1.453 . S
C400 H372 0.979 . S
C400 H373 0.980 . S
C400 H374 0.998 . S
C400 C396 1.684 . S
H401 C419 0.948 . S
H402 C360 0.948 . S
H403 C378 0.979 . S
H404 C378 0.980 . S
H405 C378 0.983 . S
H406 C377 0.982 . S
H407 C377 0.979 . S
H408 C377 0.977 . S
H409 C379 0.948 . S
H410 C381 0.947 . S
H411 C382 0.948 . S
H412 C388 0.982 . S
H413 C388 0.979 . S
H414 C388 0.977 . S
H415 C389 0.979 . S
H416 C389 0.980 . S
H417 C389 0.983 . S
H418 C362 0.947 . S
C419 C362 1.392 . S
C419 C363 1.419 . S
C419 H401 0.948 . S
C420 C421 1.391 . S
C420 C424 1.391 . S
C420 H462 0.948 . S
C421 C420 1.391 . S
C421 C422 1.391 . S
C422 C421 1.391 . S
C422 H478 0.947 . S
C422 C479 1.392 . S
C423 C424 1.391 . S
C423 C427 1.397 . S
C423 C479 1.419 . S
C424 C420 1.391 . S
C424 C423 1.391 . S
C424 C425 1.399 . S
C425 C424 1.399 . S
C425 C428 1.396 . S
C425 C437 1.453 . S
C425 C438 1.684 . S
H426 C450 0.948 . S
C427 C423 1.397 . S
C427 C428 1.394 . S
C427 C446 1.723 . S
C428 C425 1.396 . S
C428 C427 1.394 . S
C428 C458 1.723 . S
H429 C452 0.947 . S
H430 C453 0.948 . S
H431 C459 0.982 . S
H432 C460 0.979 . S
H433 C460 0.980 . S
H434 C460 0.983 . S
H435 C459 0.979 . S
H436 C459 0.977 . S
C437 C425 1.453 . S
C437 H466 0.982 . S
C437 H467 0.979 . S
C437 H468 0.977 . S
C438 C425 1.684 . S
C438 H463 0.979 . S
C438 H464 0.980 . S
C438 H465 0.983 . S
C439 C440 1.391 . S
C439 C444 1.391 . S
C439 H469 0.948 . S
C440 C439 1.391 . S
C440 C441 1.391 . S
C441 C440 1.391 . S
C441 C442 1.392 . S
C441 H470 0.947 . S
C442 C441 1.392 . S
C442 C443 1.419 . S
C442 H471 0.948 . S
C443 C442 1.419 . S
C443 C444 1.391 . S
C443 C447 1.397 . S
C444 C439 1.391 . S
C444 C443 1.391 . S
C444 C445 1.399 . S
C445 C444 1.399 . S
C445 C446 1.396 . S
C445 C448 1.453 . S
C445 C449 1.684 . S
C446 C427 1.723 . S
C446 C445 1.396 . S
C446 C447 1.394 . S
C447 C443 1.397 . S
C447 C446 1.394 . S
C447 C457 1.723 . S
C448 C445 1.453 . S
C448 H472 0.982 . S
C448 H473 0.979 . S
C448 H474 0.977 . S
C449 C445 1.684 . S
C449 H475 0.979 . S
C449 H476 0.980 . S
C449 H477 0.983 . S
C450 H426 0.948 . S
C450 C451 1.391 . S
C450 C455 1.391 . S
C451 C450 1.391 . S
C451 C452 1.391 . S
C452 H429 0.947 . S
C452 C451 1.391 . S
C452 C453 1.392 . S
C453 H430 0.948 . S
C453 C452 1.392 . S
C453 C454 1.419 . S
C454 C453 1.419 . S
C454 C455 1.391 . S
C454 C458 1.397 . S
C455 C450 1.391 . S
C455 C454 1.391 . S
C455 C456 1.399 . S
C456 C455 1.399 . S
C456 C457 1.396 . S
C456 C459 1.453 . S
C456 C460 1.684 . S
C457 C447 1.723 . S
C457 C456 1.396 . S
C457 C458 1.394 . S
C458 C428 1.723 . S
C458 C454 1.397 . S
C458 C457 1.394 . S
C459 H431 0.982 . S
C459 H435 0.979 . S
C459 H436 0.977 . S
C459 C456 1.453 . S
C460 H432 0.979 . S
C460 H433 0.980 . S
C460 H434 0.983 . S
C460 C456 1.684 . S
H461 C479 0.948 . S
H462 C420 0.948 . S
H463 C438 0.979 . S
H464 C438 0.980 . S
H465 C438 0.983 . S
H466 C437 0.982 . S
H467 C437 0.979 . S
H468 C437 0.977 . S
H469 C439 0.948 . S
H470 C441 0.947 . S
H471 C442 0.948 . S
H472 C448 0.982 . S
H473 C448 0.979 . S
H474 C448 0.977 . S
H475 C449 0.979 . S
H476 C449 0.980 . S
H477 C449 0.983 . S
H478 C422 0.947 . S
C479 C422 1.392 . S
C479 C423 1.419 . S
C479 H461 0.948 . S
O480 Zn481 1.953 . S
O480 C496 1.225 1_655 S
Zn481 O480 1.953 . S
Zn481 O482 1.949 1_655 S
Zn481 O488 1.919 . S
Zn481 O493 1.924 . S
O482 Zn481 1.949 1_455 S
O482 Zn483 1.923 1_445 S
O482 Zn484 1.950 . S
O482 Zn485 1.945 1_545 S
Zn483 O482 1.923 1_665 S
Zn483 O486 1.933 . S
Zn483 O489 1.941 1_565 S
Zn483 O490 1.965 1_665 S
Zn484 O482 1.950 . S
Zn484 O491 1.938 . S
Zn484 O492 1.906 1_545 S
Zn484 O502 1.953 . S
Zn485 O482 1.945 1_565 S
Zn485 O487 1.932 1_455 S
Zn485 O494 1.977 . S
Zn485 O495 1.910 1_455 S
O486 Zn483 1.933 . S
O486 C497 1.226 . S
O487 Zn485 1.932 1_655 S
O487 C497 1.307 . S
O488 Zn481 1.919 . S
O488 C499 1.253 . S
O489 Zn483 1.941 1_545 S
O489 C499 1.283 . S
O490 Zn483 1.965 1_445 S
O490 C498 1.303 . S
O491 Zn484 1.938 . S
O491 C498 1.247 . S
O492 Zn484 1.906 1_565 S
O492 C500 1.304 . S
O493 Zn481 1.924 . S
O493 C501 1.311 1_545 S
O494 Zn485 1.977 . S
O494 C500 1.272 . S
O495 Zn485 1.910 1_655 S
O495 C501 1.231 . S
C496 O480 1.225 1_455 S
C496 O502 1.298 . S
C497 O486 1.226 . S
C497 O487 1.307 . S
C498 O490 1.303 . S
C498 O491 1.247 . S
C499 O488 1.253 . S
C499 O489 1.283 . S
C500 O492 1.304 . S
C500 O494 1.272 . S
C501 O493 1.311 1_565 S
C501 O495 1.231 . S
O502 Zn484 1.953 . S
O502 C496 1.298 . S
O503 Zn504 1.953 . S
O503 C519 1.225 . S
Zn504 O503 1.953 . S
Zn504 O505 1.949 1_556 S
Zn504 O511 1.919 . S
Zn504 O516 1.924 1_556 S
O505 Zn504 1.949 1_554 S
O505 Zn506 1.922 1_544 S
O505 Zn507 1.950 . S
O505 Zn508 1.945 1_545 S
Zn506 O505 1.922 1_566 S
Zn506 O509 1.933 1_556 S
Zn506 O512 1.943 . S
Zn506 O513 1.966 . S
Zn507 O505 1.950 . S
Zn507 O514 1.938 . S
Zn507 O515 1.906 . S
Zn507 O525 1.953 . S
Zn508 O505 1.945 1_565 S
Zn508 O510 1.932 . S
Zn508 O517 1.977 1_565 S
Zn508 O518 1.910 1_565 S
O509 Zn506 1.933 1_554 S
O509 C520 1.226 . S
O510 Zn508 1.932 . S
O510 C520 1.307 . S
O511 Zn504 1.919 . S
O511 C522 1.253 1_545 S
O512 Zn506 1.943 . S
O512 C522 1.283 . S
O513 Zn506 1.966 . S
O513 C521 1.303 . S
O514 Zn507 1.938 . S
O514 C521 1.247 1_544 S
O515 Zn507 1.906 . S
O515 C523 1.304 . S
O516 Zn504 1.924 1_554 S
O516 C524 1.311 . S
O517 Zn508 1.977 1_545 S
O517 C523 1.272 . S
O518 Zn508 1.910 1_545 S
O518 C524 1.231 . S
C519 O503 1.225 . S
C519 O525 1.298 1_556 S
C520 O509 1.226 . S
C520 O510 1.307 . S
C521 O513 1.303 . S
C521 O514 1.247 1_566 S
C522 O511 1.253 1_565 S
C522 O512 1.283 . S
C523 O515 1.304 . S
C523 O517 1.272 . S
C524 O516 1.311 . S
C524 O518 1.231 . S
O525 Zn507 1.953 . S
O525 C519 1.298 1_554 S
O526 Zn527 1.953 . S
O526 C542 1.225 . S
Zn527 O526 1.953 . S
Zn527 O528 1.949 . S
Zn527 O534 1.919 . S
Zn527 O539 1.924 . S
O528 Zn527 1.949 . S
O528 Zn529 1.923 . S
O528 Zn530 1.950 . S
O528 Zn531 1.945 . S
Zn529 O528 1.923 . S
Zn529 O532 1.933 . S
Zn529 O535 1.941 . S
Zn529 O536 1.965 . S
Zn530 O528 1.950 . S
Zn530 O537 1.938 . S
Zn530 O538 1.906 . S
Zn530 O548 1.953 . S
Zn531 O528 1.945 . S
Zn531 O533 1.932 . S
Zn531 O540 1.977 . S
Zn531 O541 1.910 . S
O532 Zn529 1.933 . S
O532 C543 1.226 . S
O533 Zn531 1.932 . S
O533 C543 1.307 . S
O534 Zn527 1.919 . S
O534 C545 1.253 . S
O535 Zn529 1.941 . S
O535 C545 1.283 . S
O536 Zn529 1.965 . S
O536 C544 1.303 . S
O537 Zn530 1.938 . S
O537 C544 1.247 . S
O538 Zn530 1.906 . S
O538 C546 1.304 . S
O539 Zn527 1.924 . S
O539 C547 1.311 . S
O540 Zn531 1.977 . S
O540 C546 1.272 . S
O541 Zn531 1.910 . S
O541 C547 1.231 . S
C542 O526 1.225 . S
C542 O548 1.298 . S
C543 O532 1.226 . S
C543 O533 1.307 . S
C544 O536 1.303 . S
C544 O537 1.247 . S
C545 O534 1.253 . S
C545 O535 1.283 . S
C546 O538 1.304 . S
C546 O540 1.272 . S
C547 O539 1.311 . S
C547 O541 1.231 . S
O548 Zn530 1.953 . S
O548 C542 1.298 . S
O549 Zn550 1.953 . S
O549 C565 1.225 . S
Zn550 O549 1.953 . S
Zn550 O551 1.949 1_655 S
Zn550 O557 1.919 . S
Zn550 O562 1.924 . S
O551 Zn550 1.949 1_455 S
O551 Zn552 1.923 1_454 S
O551 Zn553 1.950 . S
O551 Zn554 1.945 1_554 S
Zn552 O551 1.923 1_656 S
Zn552 O555 1.933 1_655 S
Zn552 O558 1.941 . S
Zn552 O559 1.965 . S
Zn553 O551 1.950 . S
Zn553 O560 1.938 . S
Zn553 O561 1.906 . S
Zn553 O571 1.953 . S
Zn554 O551 1.945 1_556 S
Zn554 O556 1.932 . S
Zn554 O563 1.977 1_556 S
Zn554 O564 1.910 1_556 S
O555 Zn552 1.933 1_455 S
O555 C566 1.226 . S
O556 Zn554 1.932 . S
O556 C566 1.307 . S
O557 Zn550 1.919 . S
O557 C568 1.253 1_554 S
O558 Zn552 1.941 . S
O558 C568 1.283 . S
O559 Zn552 1.965 . S
O559 C567 1.303 . S
O560 Zn553 1.938 . S
O560 C567 1.247 1_454 S
O561 Zn553 1.906 . S
O561 C569 1.304 . S
O562 Zn550 1.924 . S
O562 C570 1.311 1_655 S
O563 Zn554 1.977 1_554 S
O563 C569 1.272 . S
O564 Zn554 1.910 1_554 S
O564 C570 1.231 . S
C565 O549 1.225 . S
C565 O571 1.298 1_655 S
C566 O555 1.226 . S
C566 O556 1.307 . S
C567 O559 1.303 . S
C567 O560 1.247 1_656 S
C568 O557 1.253 1_556 S
C568 O558 1.283 . S
C569 O561 1.304 . S
C569 O563 1.272 . S
C570 O562 1.311 1_455 S
C570 O564 1.231 . S
O571 Zn553 1.953 . S
O571 C565 1.298 1_455 S
H572 C578 0.930 . S
H573 C581 0.930 . S
H574 C582 0.930 1_655 S
H575 C583 0.930 . S
H576 C586 0.930 . S
H577 C587 0.930 . S
C578 H572 0.930 . S
C578 C579 1.355 . S
C578 C580 1.415 . S
C579 C578 1.355 . S
C579 C581 1.419 . S
C580 C578 1.415 . S
C580 C585 1.425 . S
C580 C587 1.409 . S
C581 H573 0.930 . S
C581 C579 1.419 . S
C581 C582 1.362 . S
C582 H574 0.930 1_455 S
C582 C581 1.362 . S
C582 C585 1.409 . S
C583 H575 0.930 . S
C583 C584 1.355 . S
C583 C585 1.415 . S
C584 C583 1.355 . S
C584 C586 1.419 . S
C585 C580 1.425 . S
C585 C582 1.409 . S
C585 C583 1.415 . S
C586 H576 0.930 . S
C586 C584 1.419 . S
C586 C587 1.362 . S
C587 H577 0.930 . S
C587 C580 1.409 . S
C587 C586 1.362 . S
H588 C594 0.930 . S
H589 C597 0.930 . S
H590 C598 0.930 . S
H591 C599 0.930 . S
H592 C602 0.930 . S
H593 C603 0.930 . S
C594 H588 0.930 . S
C594 C595 1.355 . S
C594 C596 1.415 . S
C595 C594 1.355 . S
C595 C597 1.419 . S
C596 C594 1.415 . S
C596 C601 1.425 . S
C596 C603 1.409 . S
C597 H589 0.930 . S
C597 C595 1.419 . S
C597 C598 1.362 . S
C598 H590 0.930 . S
C598 C597 1.362 . S
C598 C601 1.409 . S
C599 H591 0.930 . S
C599 C600 1.355 . S
C599 C601 1.415 . S
C600 C599 1.355 . S
C600 C602 1.419 . S
C601 C596 1.425 . S
C601 C598 1.409 . S
C601 C599 1.415 . S
C602 H592 0.930 . S
C602 C600 1.419 . S
C602 C603 1.362 . S
C603 H593 0.930 . S
C603 C596 1.409 . S
C603 C602 1.362 . S
H604 C610 0.930 . S
H605 C613 0.930 . S
H606 C614 0.930 . S
H607 C615 0.930 . S
H608 C618 0.930 . S
H609 C619 0.930 . S
C610 H604 0.930 . S
C610 C611 1.355 . S
C610 C612 1.415 . S
C611 C610 1.355 . S
C611 C613 1.419 . S
C612 C610 1.415 . S
C612 C617 1.425 . S
C612 C619 1.409 . S
C613 H605 0.930 . S
C613 C611 1.419 . S
C613 C614 1.362 . S
C614 H606 0.930 . S
C614 C613 1.362 . S
C614 C617 1.409 . S
C615 H607 0.930 . S
C615 C616 1.355 . S
C615 C617 1.415 . S
C616 C615 1.355 . S
C616 C618 1.419 . S
C617 C612 1.425 . S
C617 C614 1.409 . S
C617 C615 1.415 . S
C618 H608 0.930 . S
C618 C616 1.419 . S
C618 C619 1.362 . S
C619 H609 0.930 . S
C619 C612 1.409 . S
C619 C618 1.362 . S
H620 C626 0.930 . S
H621 C629 0.930 . S
H622 C630 0.930 . S
H623 C631 0.930 . S
H624 C634 0.930 . S
H625 C635 0.930 . S
C626 H620 0.930 . S
C626 C627 1.355 . S
C626 C628 1.415 . S
C627 C626 1.355 . S
C627 C629 1.419 . S
C628 C626 1.415 . S
C628 C633 1.425 . S
C628 C635 1.409 . S
C629 H621 0.930 . S
C629 C627 1.419 . S
C629 C630 1.362 . S
C630 H622 0.930 . S
C630 C629 1.362 . S
C630 C633 1.409 . S
C631 H623 0.930 . S
C631 C632 1.355 . S
C631 C633 1.415 . S
C632 C631 1.355 . S
C632 C634 1.419 . S
C633 C628 1.425 . S
C633 C630 1.409 . S
C633 C631 1.415 . S
C634 H624 0.930 . S
C634 C632 1.419 . S
C634 C635 1.362 . S
C635 H625 0.930 . S
C635 C628 1.409 . S
C635 C634 1.362 . S
H636 C642 0.930 . S
H637 C645 0.930 . S
H638 C646 0.930 . S
H639 C647 0.930 . S
H640 C650 0.930 . S
H641 C651 0.930 . S
C642 H636 0.930 . S
C642 C643 1.355 . S
C642 C644 1.415 . S
C643 C642 1.355 . S
C643 C645 1.419 . S
C644 C642 1.415 . S
C644 C649 1.425 . S
C644 C651 1.409 . S
C645 H637 0.930 . S
C645 C643 1.419 . S
C645 C646 1.362 . S
C646 H638 0.930 . S
C646 C645 1.362 . S
C646 C649 1.409 . S
C647 H639 0.930 . S
C647 C648 1.355 . S
C647 C649 1.415 . S
C648 C647 1.355 . S
C648 C650 1.419 . S
C649 C644 1.425 . S
C649 C646 1.409 . S
C649 C647 1.415 . S
C650 H640 0.930 . S
C650 C648 1.419 . S
C650 C651 1.362 . S
C651 H641 0.930 . S
C651 C644 1.409 . S
C651 C650 1.362 . S
H652 C658 0.930 . S
H653 C661 0.930 . S
H654 C662 0.930 . S
H655 C663 0.930 . S
H656 C666 0.930 . S
H657 C667 0.930 . S
C658 H652 0.930 . S
C658 C659 1.355 . S
C658 C660 1.415 . S
C659 C658 1.355 . S
C659 C661 1.419 . S
C660 C658 1.415 . S
C660 C665 1.425 . S
C660 C667 1.409 . S
C661 H653 0.930 . S
C661 C659 1.419 . S
C661 C662 1.362 . S
C662 H654 0.930 . S
C662 C661 1.362 . S
C662 C665 1.409 . S
C663 H655 0.930 . S
C663 C664 1.355 . S
C663 C665 1.415 . S
C664 C663 1.355 . S
C664 C666 1.419 . S
C665 C660 1.425 . S
C665 C662 1.409 . S
C665 C663 1.415 . S
C666 H656 0.930 . S
C666 C664 1.419 . S
C666 C667 1.362 . S
C667 H657 0.930 . S
C667 C660 1.409 . S
C667 C666 1.362 . S
H668 C674 0.930 . S
H669 C677 0.930 . S
H670 C678 0.930 . S
H671 C679 0.930 . S
H672 C682 0.930 . S
H673 C683 0.930 . S
C674 H668 0.930 . S
C674 C675 1.355 . S
C674 C676 1.415 . S
C675 C674 1.355 . S
C675 C677 1.419 . S
C676 C674 1.415 . S
C676 C681 1.425 . S
C676 C683 1.409 . S
C677 H669 0.930 . S
C677 C675 1.419 . S
C677 C678 1.362 . S
C678 H670 0.930 . S
C678 C677 1.362 . S
C678 C681 1.409 . S
C679 H671 0.930 . S
C679 C680 1.355 . S
C679 C681 1.415 . S
C680 C679 1.355 . S
C680 C682 1.419 . S
C681 C676 1.425 . S
C681 C678 1.409 . S
C681 C679 1.415 . S
C682 H672 0.930 . S
C682 C680 1.419 . S
C682 C683 1.362 . S
C683 H673 0.930 . S
C683 C676 1.409 . S
C683 C682 1.362 . S
H684 C690 0.930 . S
H685 C693 0.930 . S
H686 C694 0.930 . S
H687 C695 0.930 . S
H688 C698 0.930 . S
H689 C699 0.930 . S
C690 H684 0.930 . S
C690 C691 1.355 . S
C690 C692 1.415 . S
C691 C690 1.355 . S
C691 C693 1.419 . S
C692 C690 1.415 . S
C692 C697 1.425 . S
C692 C699 1.409 . S
C693 H685 0.930 . S
C693 C691 1.419 . S
C693 C694 1.362 . S
C694 H686 0.930 . S
C694 C693 1.362 . S
C694 C697 1.409 . S
C695 H687 0.930 . S
C695 C696 1.355 . S
C695 C697 1.415 . S
C696 C695 1.355 . S
C696 C698 1.419 . S
C697 C692 1.425 . S
C697 C694 1.409 . S
C697 C695 1.415 . S
C698 H688 0.930 . S
C698 C696 1.419 . S
C698 C699 1.362 . S
C699 H689 0.930 . S
C699 C692 1.409 . S
C699 C698 1.362 . S
H700 C706 0.930 . S
H701 C709 0.930 . S
H702 C710 0.930 . S
H703 C711 0.930 . S
H704 C714 0.930 1_655 S
H705 C715 0.930 1_655 S
C706 H700 0.930 . S
C706 C707 1.355 . S
C706 C708 1.415 . S
C707 C706 1.355 . S
C707 C709 1.419 . S
C708 C706 1.415 . S
C708 C713 1.425 . S
C708 C715 1.409 . S
C709 H701 0.930 . S
C709 C707 1.419 . S
C709 C710 1.362 . S
C710 H702 0.930 . S
C710 C709 1.362 . S
C710 C713 1.409 . S
C711 H703 0.930 . S
C711 C712 1.355 . S
C711 C713 1.415 . S
C712 C711 1.355 . S
C712 C714 1.419 . S
C713 C708 1.425 . S
C713 C710 1.409 . S
C713 C711 1.415 . S
C714 H704 0.930 1_455 S
C714 C712 1.419 . S
C714 C715 1.362 . S
C715 H705 0.930 1_455 S
C715 C708 1.409 . S
C715 C714 1.362 . S
H716 C722 0.930 . S
H717 C725 0.930 . S
H718 C726 0.930 . S
H719 C727 0.930 . S
H720 C730 0.930 . S
H721 C731 0.930 . S
C722 H716 0.930 . S
C722 C723 1.355 . S
C722 C724 1.415 . S
C723 C722 1.355 . S
C723 C725 1.419 . S
C724 C722 1.415 . S
C724 C729 1.425 . S
C724 C731 1.409 . S
C725 H717 0.930 . S
C725 C723 1.419 . S
C725 C726 1.362 . S
C726 H718 0.930 . S
C726 C725 1.362 . S
C726 C729 1.409 . S
C727 H719 0.930 . S
C727 C728 1.355 . S
C727 C729 1.415 . S
C728 C727 1.355 . S
C728 C730 1.419 . S
C729 C724 1.425 . S
C729 C726 1.409 . S
C729 C727 1.415 . S
C730 H720 0.930 . S
C730 C728 1.419 . S
C730 C731 1.362 . S
C731 H721 0.930 . S
C731 C724 1.409 . S
C731 C730 1.362 . S
H732 C738 0.930 . S
H733 C741 0.930 . S
H734 C742 0.930 1_455 S
H735 C743 0.930 1_455 S
H736 C746 0.930 . S
H737 C747 0.930 . S
C738 H732 0.930 . S
C738 C739 1.355 . S
C738 C740 1.415 . S
C739 C738 1.355 . S
C739 C741 1.419 . S
C740 C738 1.415 . S
C740 C745 1.425 . S
C740 C747 1.409 . S
C741 H733 0.930 . S
C741 C739 1.419 . S
C741 C742 1.362 . S
C742 H734 0.930 1_655 S
C742 C741 1.362 . S
C742 C745 1.409 . S
C743 H735 0.930 1_655 S
C743 C744 1.355 . S
C743 C745 1.415 . S
C744 C743 1.355 . S
C744 C746 1.419 . S
C745 C740 1.425 . S
C745 C742 1.409 . S
C745 C743 1.415 . S
C746 H736 0.930 . S
C746 C744 1.419 . S
C746 C747 1.362 . S
C747 H737 0.930 . S
C747 C740 1.409 . S
C747 C746 1.362 . S
H748 C754 0.930 . S
H749 C757 0.930 . S
H750 C758 0.930 . S
H751 C759 0.930 . S
H752 C762 0.930 . S
H753 C763 0.930 . S
C754 H748 0.930 . S
C754 C755 1.355 . S
C754 C756 1.415 . S
C755 C754 1.355 . S
C755 C757 1.419 . S
C756 C754 1.415 . S
C756 C761 1.425 . S
C756 C763 1.409 . S
C757 H749 0.930 . S
C757 C755 1.419 . S
C757 C758 1.362 . S
C758 H750 0.930 . S
C758 C757 1.362 . S
C758 C761 1.409 . S
C759 H751 0.930 . S
C759 C760 1.355 . S
C759 C761 1.415 . S
C760 C759 1.355 . S
C760 C762 1.419 . S
C761 C756 1.425 . S
C761 C758 1.409 . S
C761 C759 1.415 . S
C762 H752 0.930 . S
C762 C760 1.419 . S
C762 C763 1.362 . S
C763 H753 0.930 . S
C763 C756 1.409 . S
C763 C762 1.362 . S
H764 C770 0.924 1_445 S
H765 C773 0.930 . S
H766 C774 0.930 . S
H767 C775 0.930 . S
H768 C778 0.930 . S
H769 C779 0.930 . S
C770 H764 0.924 1_665 S
C770 C771 1.360 . S
C770 C772 1.415 . S
C771 C770 1.360 . S
C771 C773 1.419 . S
C772 C770 1.415 . S
C772 C777 1.425 . S
C772 C779 1.409 1_665 S
C773 H765 0.930 . S
C773 C771 1.419 . S
C773 C774 1.362 . S
C774 H766 0.930 . S
C774 C773 1.362 . S
C774 C777 1.409 . S
C775 H767 0.930 . S
C775 C776 1.355 . S
C775 C777 1.415 . S
C776 C775 1.355 . S
C776 C778 1.419 1_665 S
C777 C772 1.425 . S
C777 C774 1.409 . S
C777 C775 1.415 . S
C778 H768 0.930 . S
C778 C776 1.419 1_445 S
C778 C779 1.362 . S
C779 H769 0.930 . S
C779 C772 1.409 1_445 S
C779 C778 1.362 . S
H780 C786 0.930 1_565 S
H781 C789 0.930 . S
H782 C790 0.930 . S
H783 C791 0.930 . S
H784 C794 0.930 . S
H785 C795 0.930 . S
C786 H780 0.930 1_545 S
C786 C787 1.355 . S
C786 C788 1.415 . S
C787 C786 1.355 . S
C787 C789 1.419 . S
C788 C786 1.415 . S
C788 C793 1.425 . S
C788 C795 1.409 1_545 S
C789 H781 0.930 . S
C789 C787 1.419 . S
C789 C790 1.362 . S
C790 H782 0.930 . S
C790 C789 1.362 . S
C790 C793 1.409 . S
C791 H783 0.930 . S
C791 C792 1.355 . S
C791 C793 1.415 . S
C792 C791 1.355 . S
C792 C794 1.419 1_545 S
C793 C788 1.425 . S
C793 C790 1.409 . S
C793 C791 1.415 . S
C794 H784 0.930 . S
C794 C792 1.419 1_565 S
C794 C795 1.362 . S
C795 H785 0.930 . S
C795 C788 1.409 1_565 S
C795 C794 1.362 . S
H796 C802 0.930 . S
H797 C805 0.930 . S
H798 C806 0.930 . S
H799 C807 0.930 . S
H800 C810 0.930 . S
H801 C811 0.930 . S
C802 H796 0.930 . S
C802 C803 1.355 . S
C802 C804 1.415 . S
C803 C802 1.355 . S
C803 C805 1.419 . S
C804 C802 1.415 . S
C804 C809 1.425 . S
C804 C811 1.409 . S
C805 H797 0.930 . S
C805 C803 1.419 . S
C805 C806 1.362 . S
C806 H798 0.930 . S
C806 C805 1.362 . S
C806 C809 1.409 . S
C807 H799 0.930 . S
C807 C808 1.355 . S
C807 C809 1.415 . S
C808 C807 1.355 . S
C808 C810 1.419 . S
C809 C804 1.425 . S
C809 C806 1.409 . S
C809 C807 1.415 . S
C810 H800 0.930 . S
C810 C808 1.419 . S
C810 C811 1.362 . S
C811 H801 0.930 . S
C811 C804 1.409 . S
C811 C810 1.362 . S
H812 C818 0.930 . S
H813 C821 0.930 . S
H814 C822 0.930 . S
H815 C823 0.930 . S
H816 C826 0.930 1_655 S
H817 C827 0.930 1_655 S
C818 H812 0.930 . S
C818 C819 1.355 . S
C818 C820 1.415 . S
C819 C818 1.355 . S
C819 C821 1.419 . S
C820 C818 1.415 . S
C820 C825 1.425 . S
C820 C827 1.409 . S
C821 H813 0.930 . S
C821 C819 1.419 . S
C821 C822 1.362 . S
C822 H814 0.930 . S
C822 C821 1.362 . S
C822 C825 1.409 . S
C823 H815 0.930 . S
C823 C824 1.355 . S
C823 C825 1.415 . S
C824 C823 1.355 . S
C824 C826 1.419 . S
C825 C820 1.425 . S
C825 C822 1.409 . S
C825 C823 1.415 . S
C826 H816 0.930 1_455 S
C826 C824 1.419 . S
C826 C827 1.362 . S
C827 H817 0.930 1_455 S
C827 C820 1.409 . S
C827 C826 1.362 . S
H828 C834 0.930 . S
H829 C837 0.930 . S
H830 C838 0.930 . S
H831 C839 0.930 1_545 S
H832 C842 0.930 . S
H833 C843 0.930 . S
C834 H828 0.930 . S
C834 C835 1.355 . S
C834 C836 1.415 . S
C835 C834 1.355 . S
C835 C837 1.419 1_566 S
C836 C834 1.415 . S
C836 C841 1.425 . S
C836 C843 1.409 . S
C837 H829 0.930 . S
C837 C835 1.419 1_544 S
C837 C838 1.362 . S
C838 H830 0.930 . S
C838 C837 1.362 . S
C838 C841 1.409 1_544 S
C839 H831 0.930 1_565 S
C839 C840 1.355 1_554 S
C839 C841 1.415 1_554 S
C840 C839 1.355 1_556 S
C840 C842 1.419 . S
C841 C836 1.425 . S
C841 C838 1.409 1_566 S
C841 C839 1.415 1_556 S
C842 H832 0.930 . S
C842 C840 1.419 . S
C842 C843 1.362 . S
C843 H833 0.930 . S
C843 C836 1.409 . S
C843 C842 1.362 . S
H844 C850 0.930 . S
H845 C853 0.937 . S
H846 C854 0.930 1_565 S
H847 C855 0.930 1_565 S
H848 C858 0.930 . S
H849 C859 0.930 . S
C850 H844 0.930 . S
C850 C851 1.355 . S
C850 C852 1.415 . S
C851 C850 1.355 . S
C851 C853 1.419 . S
C852 C850 1.415 . S
C852 C857 1.425 . S
C852 C859 1.409 . S
C853 H845 0.937 . S
C853 C851 1.419 . S
C853 C854 1.362 . S
C854 H846 0.930 1_545 S
C854 C853 1.362 . S
C854 C857 1.409 . S
C855 H847 0.930 1_545 S
C855 C856 1.355 . S
C855 C857 1.415 . S
C856 C855 1.355 . S
C856 C858 1.419 . S
C857 C852 1.425 . S
C857 C854 1.409 . S
C857 C855 1.415 . S
C858 H848 0.930 . S
C858 C856 1.419 . S
C858 C859 1.362 . S
C859 H849 0.930 . S
C859 C852 1.409 . S
C859 C858 1.362 . S
H860 C866 0.930 1_556 S
H861 C869 0.930 . S
H862 C870 0.930 . S
H863 C871 0.930 . S
H864 C874 0.930 . S
H865 C875 0.930 . S
C866 H860 0.930 1_554 S
C866 C867 1.355 . S
C866 C868 1.415 . S
C867 C866 1.355 . S
C867 C869 1.419 . S
C868 C866 1.415 . S
C868 C873 1.425 . S
C868 C875 1.409 1_554 S
C869 H861 0.930 . S
C869 C867 1.419 . S
C869 C870 1.362 . S
C870 H862 0.930 . S
C870 C869 1.362 . S
C870 C873 1.409 . S
C871 H863 0.930 . S
C871 C872 1.355 . S
C871 C873 1.415 . S
C872 C871 1.355 . S
C872 C874 1.419 1_554 S
C873 C868 1.425 . S
C873 C870 1.409 . S
C873 C871 1.415 . S
C874 H864 0.930 . S
C874 C872 1.419 1_556 S
C874 C875 1.362 . S
C875 H865 0.930 . S
C875 C868 1.409 1_556 S
C875 C874 1.362 . S
H876 C882 0.930 . S
H877 C885 0.930 . S
H878 C886 0.930 . S
H879 C887 0.930 . S
H880 C890 0.930 . S
H881 C891 0.930 . S
C882 H876 0.930 . S
C882 C883 1.355 . S
C882 C884 1.415 . S
C883 C882 1.355 . S
C883 C885 1.419 . S
C884 C882 1.415 . S
C884 C889 1.425 . S
C884 C891 1.409 . S
C885 H877 0.930 . S
C885 C883 1.419 . S
C885 C886 1.362 . S
C886 H878 0.930 . S
C886 C885 1.362 . S
C886 C889 1.409 . S
C887 H879 0.930 . S
C887 C888 1.355 . S
C887 C889 1.415 . S
C888 C887 1.355 . S
C888 C890 1.419 . S
C889 C884 1.425 . S
C889 C886 1.409 . S
C889 C887 1.415 . S
C890 H880 0.930 . S
C890 C888 1.419 . S
C890 C891 1.362 . S
C891 H881 0.930 . S
C891 C884 1.409 . S
C891 C890 1.362 . S
H892 C898 0.911 1_554 S
H893 C901 0.930 . S
H894 C902 0.930 . S
H895 C903 0.930 . S
H896 C906 0.930 . S
H897 C907 0.930 . S
C898 H892 0.911 1_556 S
C898 C899 1.371 . S
C898 C900 1.417 . S
C899 C898 1.371 . S
C899 C901 1.419 . S
C900 C898 1.417 . S
C900 C905 1.425 . S
C900 C907 1.409 1_556 S
C901 H893 0.930 . S
C901 C899 1.419 . S
C901 C902 1.362 . S
C902 H894 0.930 . S
C902 C901 1.362 . S
C902 C905 1.409 . S
C903 H895 0.930 . S
C903 C904 1.355 . S
C903 C905 1.415 . S
C904 C903 1.355 . S
C904 C906 1.419 1_556 S
C905 C900 1.425 . S
C905 C902 1.409 . S
C905 C903 1.415 . S
C906 H896 0.930 . S
C906 C904 1.419 1_554 S
C906 C907 1.362 . S
C907 H897 0.930 . S
C907 C900 1.409 1_554 S
C907 C906 1.362 . S
H908 C914 0.930 . S
H909 C917 0.930 . S
H910 C918 0.930 . S
H911 C919 0.930 . S
H912 C922 0.930 . S
H913 C923 0.930 . S
C914 H908 0.930 . S
C914 C915 1.355 . S
C914 C916 1.415 . S
C915 C914 1.355 . S
C915 C917 1.419 . S
C916 C914 1.415 . S
C916 C921 1.425 . S
C916 C923 1.409 . S
C917 H909 0.930 . S
C917 C915 1.419 . S
C917 C918 1.362 . S
C918 H910 0.930 . S
C918 C917 1.362 . S
C918 C921 1.409 . S
C919 H911 0.930 . S
C919 C920 1.355 . S
C919 C921 1.415 . S
C920 C919 1.355 . S
C920 C922 1.419 . S
C921 C916 1.425 . S
C921 C918 1.409 . S
C921 C919 1.415 . S
C922 H912 0.930 . S
C922 C920 1.419 . S
C922 C923 1.362 . S
C923 H913 0.930 . S
C923 C916 1.409 . S
C923 C922 1.362 . S
H924 C930 0.930 . S
H925 C933 0.930 . S
H926 C934 0.930 . S
H927 C935 0.930 . S
H928 C938 0.930 . S
H929 C939 0.930 . S
C930 H924 0.930 . S
C930 C931 1.355 . S
C930 C932 1.415 . S
C931 C930 1.355 . S
C931 C933 1.419 . S
C932 C930 1.415 . S
C932 C937 1.425 . S
C932 C939 1.409 . S
C933 H925 0.930 . S
C933 C931 1.419 . S
C933 C934 1.362 . S
C934 H926 0.930 . S
C934 C933 1.362 . S
C934 C937 1.409 . S
C935 H927 0.930 . S
C935 C936 1.355 . S
C935 C937 1.415 . S
C936 C935 1.355 . S
C936 C938 1.419 . S
C937 C932 1.425 . S
C937 C934 1.409 . S
C937 C935 1.415 . S
C938 H928 0.930 . S
C938 C936 1.419 . S
C938 C939 1.362 . S
C939 H929 0.930 . S
C939 C932 1.409 . S
C939 C938 1.362 . S
H940 C946 0.930 . S
H941 C949 0.930 . S
H942 C950 0.930 . S
H943 C951 0.930 . S
H944 C954 0.930 . S
H945 C955 0.930 . S
C946 H940 0.930 . S
C946 C947 1.355 . S
C946 C948 1.415 . S
C947 C946 1.355 . S
C947 C949 1.419 . S
C948 C946 1.415 . S
C948 C953 1.425 . S
C948 C955 1.409 . S
C949 H941 0.930 . S
C949 C947 1.419 . S
C949 C950 1.362 . S
C950 H942 0.930 . S
C950 C949 1.362 . S
C950 C953 1.409 . S
C951 H943 0.930 . S
C951 C952 1.355 . S
C951 C953 1.415 . S
C952 C951 1.355 . S
C952 C954 1.419 . S
C953 C948 1.425 . S
C953 C950 1.409 . S
C953 C951 1.415 . S
C954 H944 0.930 . S
C954 C952 1.419 . S
C954 C955 1.362 . S
C955 H945 0.930 . S
C955 C948 1.409 . S
C955 C954 1.362 . S
C579 C1 1.593 . S
C584 C498 1.579 . S
C595 C80 1.561 . S
C600 C522 1.544 . S
C616 C542 1.466 . S
C611 C140 1.435 . S
C627 C211 1.446 . S
C632 C565 1.485 . S
C648 C524 1.657 . S
C643 C31 1.687 . S
C664 C500 1.668 . S
C659 C61 1.628 . S
C680 C568 1.600 . S
C675 C151 1.614 . S
C696 C545 1.611 . S
C691 C200 1.595 . S
C707 C20 1.392 . S
C712 C570 1.402 . S
C728 C519 1.651 . S
C723 C121 1.578 . S
C739 C181 1.590 . S
C744 C497 1.642 . S
C755 C91 1.337 . S
C760 C547 1.358 . S
C776 C501 1.726 . S
C771 C260 1.675 . S
C787 C320 1.548 . S
C792 C523 1.673 . S
C803 C361 1.770 . S
C808 C543 1.803 . S
C819 C451 1.724 . S
C824 C566 1.812 . S
C835 C271 1.660 . S
C840 C521 1.644 . S
C856 C499 1.659 . S
C851 C301 1.514 . S
C872 C569 1.543 . S
C867 C380 1.534 . S
C888 C546 1.539 . S
C883 C440 1.571 . S
C899 C241 1.904 . S
C904 C567 1.907 . S
C920 C520 1.627 . S
C915 C391 1.622 . S
C936 C496 1.640 . S
C931 C421 1.576 . S
C947 C331 1.790 . S
C952 C544 1.841 . S
