# Generated by pormake.
# Topology ptr, (4,4)-cn, num edge types: 1
# Building blocks:
#     Node 0, Type 0, BuildingBlock: AZAVOO_clean_sbu_0, # of connection points: 4
#     Node 1, Type 0, BuildingBlock: AZAVOO_clean_sbu_0, # of connection points: 4
#     Node 2, Type 0, BuildingBlock: AZAVOO_clean_sbu_0, # of connection points: 4
#     Node 3, Type 0, BuildingBlock: AZAVOO_clean_sbu_0, # of connection points: 4
#     Node 4, Type 0, BuildingBlock: AZAVOO_clean_sbu_0, # of connection points: 4
#     Node 5, Type 0, BuildingBlock: AZAVOO_clean_sbu_0, # of connection points: 4
#     Node 6, Type 0, BuildingBlock: AZAVOO_clean_sbu_0, # of connection points: 4
#     Node 7, Type 0, BuildingBlock: AZAVOO_clean_sbu_0, # of connection points: 4
#     Node 8, Type 0, BuildingBlock: AZAVOO_clean_sbu_0, # of connection points: 4
#     Node 9, Type 0, BuildingBlock: AZAVOO_clean_sbu_0, # of connection points: 4
#     Node 10, Type 0, BuildingBlock: AZAVOO_clean_sbu_0, # of connection points: 4
#     Node 11, Type 0, BuildingBlock: AZAVOO_clean_sbu_0, # of connection points: 4
#     Node 12, Type 0, BuildingBlock: AZAVOO_clean_sbu_0, # of connection points: 4
#     Node 13, Type 0, BuildingBlock: AZAVOO_clean_sbu_0, # of connection points: 4
#     Node 14, Type 0, BuildingBlock: AZAVOO_clean_sbu_0, # of connection points: 4
#     Node 15, Type 0, BuildingBlock: AZAVOO_clean_sbu_0, # of connection points: 4
#     Node 16, Type 0, BuildingBlock: AZAVOO_clean_sbu_0, # of connection points: 4
#     Node 17, Type 0, BuildingBlock: AZAVOO_clean_sbu_0, # of connection points: 4
#     Node 18, Type 1, BuildingBlock: AZAVOO_clean_linker_0, # of connection points: 4
#     Node 19, Type 1, BuildingBlock: AZAVOO_clean_linker_0, # of connection points: 4
#     Node 20, Type 1, BuildingBlock: AZAVOO_clean_linker_0, # of connection points: 4
#     Node 21, Type 1, BuildingBlock: AZAVOO_clean_linker_0, # of connection points: 4
#     Node 22, Type 1, BuildingBlock: AZAVOO_clean_linker_0, # of connection points: 4
#     Node 23, Type 1, BuildingBlock: AZAVOO_clean_linker_0, # of connection points: 4
#     Node 24, Type 1, BuildingBlock: AZAVOO_clean_linker_0, # of connection points: 4
#     Node 25, Type 1, BuildingBlock: AZAVOO_clean_linker_0, # of connection points: 4
#     Node 26, Type 1, BuildingBlock: AZAVOO_clean_linker_0, # of connection points: 4
#     Node 27, Type 1, BuildingBlock: AZAVOO_clean_linker_0, # of connection points: 4
#     Node 28, Type 1, BuildingBlock: AZAVOO_clean_linker_0, # of connection points: 4
#     Node 29, Type 1, BuildingBlock: AZAVOO_clean_linker_0, # of connection points: 4
#     Node 30, Type 1, BuildingBlock: AZAVOO_clean_linker_0, # of connection points: 4
#     Node 31, Type 1, BuildingBlock: AZAVOO_clean_linker_0, # of connection points: 4
#     Node 32, Type 1, BuildingBlock: AZAVOO_clean_linker_0, # of connection points: 4
#     Node 33, Type 1, BuildingBlock: AZAVOO_clean_linker_0, # of connection points: 4
#     Node 34, Type 1, BuildingBlock: AZAVOO_clean_linker_0, # of connection points: 4
#     Node 35, Type 1, BuildingBlock: AZAVOO_clean_linker_0, # of connection points: 4
#     Edge 36, Type (0, 1), BuildingBlock: AJUNOK_clean_linker_0, # of connection points: 2
#     Edge 37, Type (0, 1), BuildingBlock: AJUNOK_clean_linker_0, # of connection points: 2
#     Edge 38, Type (0, 1), BuildingBlock: AJUNOK_clean_linker_0, # of connection points: 2
#     Edge 39, Type (0, 1), BuildingBlock: AJUNOK_clean_linker_0, # of connection points: 2
#     Edge 40, Type (0, 1), BuildingBlock: AJUNOK_clean_linker_0, # of connection points: 2
#     Edge 41, Type (0, 1), BuildingBlock: AJUNOK_clean_linker_0, # of connection points: 2
#     Edge 42, Type (0, 1), BuildingBlock: AJUNOK_clean_linker_0, # of connection points: 2
#     Edge 43, Type (0, 1), BuildingBlock: AJUNOK_clean_linker_0, # of connection points: 2
#     Edge 44, Type (0, 1), BuildingBlock: AJUNOK_clean_linker_0, # of connection points: 2
#     Edge 45, Type (0, 1), BuildingBlock: AJUNOK_clean_linker_0, # of connection points: 2
#     Edge 46, Type (0, 1), BuildingBlock: AJUNOK_clean_linker_0, # of connection points: 2
#     Edge 47, Type (0, 1), BuildingBlock: AJUNOK_clean_linker_0, # of connection points: 2
#     Edge 48, Type (0, 1), BuildingBlock: AJUNOK_clean_linker_0, # of connection points: 2
#     Edge 49, Type (0, 1), BuildingBlock: AJUNOK_clean_linker_0, # of connection points: 2
#     Edge 50, Type (0, 1), BuildingBlock: AJUNOK_clean_linker_0, # of connection points: 2
#     Edge 51, Type (0, 1), BuildingBlock: AJUNOK_clean_linker_0, # of connection points: 2
#     Edge 52, Type (0, 1), BuildingBlock: AJUNOK_clean_linker_0, # of connection points: 2
#     Edge 53, Type (0, 1), BuildingBlock: AJUNOK_clean_linker_0, # of connection points: 2
#     Edge 54, Type (0, 1), BuildingBlock: AJUNOK_clean_linker_0, # of connection points: 2
#     Edge 55, Type (0, 1), BuildingBlock: AJUNOK_clean_linker_0, # of connection points: 2
#     Edge 56, Type (0, 1), BuildingBlock: AJUNOK_clean_linker_0, # of connection points: 2
#     Edge 57, Type (0, 1), BuildingBlock: AJUNOK_clean_linker_0, # of connection points: 2
#     Edge 58, Type (0, 1), BuildingBlock: AJUNOK_clean_linker_0, # of connection points: 2
#     Edge 59, Type (0, 1), BuildingBlock: AJUNOK_clean_linker_0, # of connection points: 2
#     Edge 60, Type (0, 1), BuildingBlock: AJUNOK_clean_linker_0, # of connection points: 2
#     Edge 61, Type (0, 1), BuildingBlock: AJUNOK_clean_linker_0, # of connection points: 2
#     Edge 62, Type (0, 1), BuildingBlock: AJUNOK_clean_linker_0, # of connection points: 2
#     Edge 63, Type (0, 1), BuildingBlock: AJUNOK_clean_linker_0, # of connection points: 2
#     Edge 64, Type (0, 1), BuildingBlock: AJUNOK_clean_linker_0, # of connection points: 2
#     Edge 65, Type (0, 1), BuildingBlock: AJUNOK_clean_linker_0, # of connection points: 2
#     Edge 66, Type (0, 1), BuildingBlock: AJUNOK_clean_linker_0, # of connection points: 2
#     Edge 67, Type (0, 1), BuildingBlock: AJUNOK_clean_linker_0, # of connection points: 2
#     Edge 68, Type (0, 1), BuildingBlock: AJUNOK_clean_linker_0, # of connection points: 2
#     Edge 69, Type (0, 1), BuildingBlock: AJUNOK_clean_linker_0, # of connection points: 2
#     Edge 70, Type (0, 1), BuildingBlock: AJUNOK_clean_linker_0, # of connection points: 2
#     Edge 71, Type (0, 1), BuildingBlock: AJUNOK_clean_linker_0, # of connection points: 2
#     Edge 72, Type (0, 1), BuildingBlock: AJUNOK_clean_linker_0, # of connection points: 2
#     Edge 73, Type (0, 1), BuildingBlock: AJUNOK_clean_linker_0, # of connection points: 2
#     Edge 74, Type (0, 1), BuildingBlock: AJUNOK_clean_linker_0, # of connection points: 2
#     Edge 75, Type (0, 1), BuildingBlock: AJUNOK_clean_linker_0, # of connection points: 2
#     Edge 76, Type (0, 1), BuildingBlock: AJUNOK_clean_linker_0, # of connection points: 2
#     Edge 77, Type (0, 1), BuildingBlock: AJUNOK_clean_linker_0, # of connection points: 2
#     Edge 78, Type (0, 1), BuildingBlock: AJUNOK_clean_linker_0, # of connection points: 2
#     Edge 79, Type (0, 1), BuildingBlock: AJUNOK_clean_linker_0, # of connection points: 2
#     Edge 80, Type (0, 1), BuildingBlock: AJUNOK_clean_linker_0, # of connection points: 2
#     Edge 81, Type (0, 1), BuildingBlock: AJUNOK_clean_linker_0, # of connection points: 2
#     Edge 82, Type (0, 1), BuildingBlock: AJUNOK_clean_linker_0, # of connection points: 2
#     Edge 83, Type (0, 1), BuildingBlock: AJUNOK_clean_linker_0, # of connection points: 2
#     Edge 84, Type (0, 1), BuildingBlock: AJUNOK_clean_linker_0, # of connection points: 2
#     Edge 85, Type (0, 1), BuildingBlock: AJUNOK_clean_linker_0, # of connection points: 2
#     Edge 86, Type (0, 1), BuildingBlock: AJUNOK_clean_linker_0, # of connection points: 2
#     Edge 87, Type (0, 1), BuildingBlock: AJUNOK_clean_linker_0, # of connection points: 2
#     Edge 88, Type (0, 1), BuildingBlock: AJUNOK_clean_linker_0, # of connection points: 2
#     Edge 89, Type (0, 1), BuildingBlock: AJUNOK_clean_linker_0, # of connection points: 2
#     Edge 90, Type (0, 1), BuildingBlock: AJUNOK_clean_linker_0, # of connection points: 2
#     Edge 91, Type (0, 1), BuildingBlock: AJUNOK_clean_linker_0, # of connection points: 2
#     Edge 92, Type (0, 1), BuildingBlock: AJUNOK_clean_linker_0, # of connection points: 2
#     Edge 93, Type (0, 1), BuildingBlock: AJUNOK_clean_linker_0, # of connection points: 2
#     Edge 94, Type (0, 1), BuildingBlock: AJUNOK_clean_linker_0, # of connection points: 2
#     Edge 95, Type (0, 1), BuildingBlock: AJUNOK_clean_linker_0, # of connection points: 2
#     Edge 96, Type (0, 1), BuildingBlock: AJUNOK_clean_linker_0, # of connection points: 2
#     Edge 97, Type (0, 1), BuildingBlock: AJUNOK_clean_linker_0, # of connection points: 2
#     Edge 98, Type (0, 1), BuildingBlock: AJUNOK_clean_linker_0, # of connection points: 2
#     Edge 99, Type (0, 1), BuildingBlock: AJUNOK_clean_linker_0, # of connection points: 2
#     Edge 100, Type (0, 1), BuildingBlock: AJUNOK_clean_linker_0, # of connection points: 2
#     Edge 101, Type (0, 1), BuildingBlock: AJUNOK_clean_linker_0, # of connection points: 2
#     Edge 102, Type (0, 1), BuildingBlock: AJUNOK_clean_linker_0, # of connection points: 2
#     Edge 103, Type (0, 1), BuildingBlock: AJUNOK_clean_linker_0, # of connection points: 2
#     Edge 104, Type (0, 1), BuildingBlock: AJUNOK_clean_linker_0, # of connection points: 2
#     Edge 105, Type (0, 1), BuildingBlock: AJUNOK_clean_linker_0, # of connection points: 2
#     Edge 106, Type (0, 1), BuildingBlock: AJUNOK_clean_linker_0, # of connection points: 2
#     Edge 107, Type (0, 1), BuildingBlock: AJUNOK_clean_linker_0, # of connection points: 2
# Relax obj value: 0.128
# Max RMSD: 0.326
# Mean RMSD: 0.192
data_MOF--net-ptr--node1-AZAVOO_clean_sbu_0--node2-AZAVOO_clean_linker_0--edge1-AJUNOK_clean_linker_0
_symmetry_space_group_name_H-M    P1
_symmetry_Int_Tables_number       1
_symmetry_cell_setting            triclinic
loop_
_symmetry_equiv_pos_as_xyz
'x, y, z'
_cell_length_a     64.838674
_cell_length_b     62.941101
_cell_length_c     52.074384
_cell_angle_alpha  94.164244
_cell_angle_beta   94.114103
_cell_angle_gamma 119.97417
loop_
_atom_site_label
_atom_site_type_symbol
_atom_site_fract_x
_atom_site_fract_y
_atom_site_fract_z
_atom_type_partial_charge
Mg0 Mg 0.02322 0.36135 0.99851 0.0
O1 O 0.00516 0.37331 0.02804 0.0
O2 O 0.97868 0.38045 0.00655 0.0
Mg3 Mg 0.97914 0.37245 0.96299 0.0
C4 C 0.98946 0.37991 0.02778 0.0
C5 C 0.04252 0.33128 0.02637 0.0
O6 O 0.03574 0.31931 0.00279 0.0
O7 O 0.9899 0.32241 0.98873 0.0
O8 O 0.96587 0.33159 0.96522 0.0
O9 O 0.05003 0.40168 0.99647 0.0
O10 O 0.01587 0.37969 0.97088 0.0
C11 C 0.97038 0.31582 0.97422 0.0
C12 C 0.03492 0.40069 0.97808 0.0
O13 O 0.03939 0.3495 0.03113 0.0
Mg14 Mg 0.65223 0.63445 0.10603 0.0
O15 O 0.62525 0.62359 0.06991 0.0
O16 O 0.59104 0.61978 0.08068 0.0
Mg17 Mg 0.59664 0.62902 0.12498 0.0
C18 C 0.60391 0.61894 0.06365 0.0
C19 C 0.70102 0.66403 0.08334 0.0
O20 O 0.70572 0.67928 0.10441 0.0
O21 O 0.65942 0.67377 0.1097 0.0
O22 O 0.62534 0.66934 0.12232 0.0
O23 O 0.63671 0.59447 0.11161 0.0
O24 O 0.62474 0.61892 0.12885 0.0
C25 C 0.64661 0.68278 0.11664 0.0
C26 C 0.62235 0.59735 0.12562 0.0
O27 O 0.68105 0.64381 0.07929 0.0
Mg28 Mg 0.36808 0.98016 0.00531 0.0
O29 O 0.39477 0.99636 0.042 0.0
O30 O 0.42899 0.02905 0.03481 0.0
Mg31 Mg 0.42403 0.03308 0.99159 0.0
C32 C 0.41594 0.01409 0.04992 0.0
C33 C 0.31889 0.95768 0.02786 0.0
O34 O 0.31334 0.96605 0.0077 0.0
O35 O 0.36128 0.01223 0.00864 0.0
O36 O 0.39477 0.04301 0.99702 0.0
O37 O 0.38217 0.95549 0.99272 0.0
O38 O 0.39603 0.99351 0.9828 0.0
C39 C 0.37354 0.03429 0.00321 0.0
C40 C 0.39741 0.9738 0.98164 0.0
O41 O 0.3393 0.95943 0.0309 0.0
Mg42 Mg 0.99064 0.65171 0.0758 0.0
O43 O 0.00909 0.64113 0.04539 0.0
O44 O 0.0386 0.63797 0.06601 0.0
Mg45 Mg 0.03978 0.64722 0.10946 0.0
C46 C 0.02616 0.63652 0.04512 0.0
C47 C 0.96431 0.67598 0.04994 0.0
O48 O 0.96936 0.68619 0.07418 0.0
O49 O 0.02177 0.69189 0.08333 0.0
O50 O 0.05002 0.68708 0.10476 0.0
O51 O 0.9667 0.61136 0.07952 0.0
O52 O 0.00147 0.6357 0.10345 0.0
C53 C 0.04277 0.7008 0.09552 0.0
C54 C 0.98309 0.61392 0.09729 0.0
O55 O 0.97106 0.66069 0.04376 0.0
Mg56 Mg 0.35308 0.37669 0.97493 0.0
O57 O 0.3804 0.38601 0.01001 0.0
O58 O 0.41541 0.39321 0.99838 0.0
Mg59 Mg 0.40954 0.38741 0.95364 0.0
C60 C 0.40213 0.39181 0.01589 0.0
C61 C 0.30271 0.34708 0.99529 0.0
O62 O 0.29509 0.33922 0.97051 0.0
O63 O 0.34746 0.33826 0.96631 0.0
O64 O 0.382 0.34582 0.95225 0.0
O65 O 0.36695 0.41713 0.9748 0.0
O66 O 0.38022 0.39596 0.95253 0.0
C67 C 0.36078 0.33081 0.95711 0.0
C68 C 0.38174 0.41674 0.95958 0.0
O69 O 0.3247 0.3629 0.00235 0.0
Mg70 Mg 0.63414 0.02013 0.07175 0.0
O71 O 0.60616 0.00374 0.0359 0.0
O72 O 0.57453 0.96834 0.04318 0.0
Mg73 Mg 0.58273 0.96212 0.08466 0.0
C74 C 0.58554 0.98483 0.02849 0.0
C75 C 0.68279 0.05072 0.0516 0.0
O76 O 0.68937 0.04517 0.07337 0.0
O77 O 0.64506 0.99156 0.06324 0.0
O78 O 0.61428 0.95742 0.0743 0.0
O79 O 0.61638 0.03954 0.09015 0.0
O80 O 0.60835 0.002 0.09579 0.0
C81 C 0.63513 0.96889 0.0669 0.0
C82 C 0.60451 0.0198 0.10122 0.0
O83 O 0.66104 0.04493 0.04643 0.0
Mg84 Mg 0.68435 0.6952 0.33604 0.0
O85 O 0.66718 0.7075 0.3665 0.0
O86 O 0.63973 0.71392 0.34605 0.0
Mg87 Mg 0.63843 0.70468 0.30246 0.0
C88 C 0.65132 0.71387 0.36689 0.0
C89 C 0.70521 0.6661 0.36399 0.0
O90 O 0.69778 0.65316 0.34087 0.0
O91 O 0.65124 0.6563 0.32815 0.0
O92 O 0.62481 0.66386 0.30689 0.0
O93 O 0.71077 0.73504 0.33307 0.0
O94 O 0.67586 0.71316 0.30865 0.0
C95 C 0.6305 0.64892 0.31604 0.0
C96 C 0.69519 0.73416 0.31537 0.0
O97 O 0.70194 0.68429 0.36818 0.0
Mg98 Mg 0.31222 0.966 0.43987 0.0
O99 O 0.2837 0.95548 0.40537 0.0
O100 O 0.25166 0.95557 0.41843 0.0
Mg101 Mg 0.25973 0.96495 0.46281 0.0
C102 C 0.26284 0.95261 0.40063 0.0
C103 C 0.35338 0.96478 0.41227 0.0
O104 O 0.353 0.9518 0.43107 0.0
O105 O 0.32216 0.00642 0.444 0.0
O106 O 0.28974 0.00433 0.45897 0.0
O107 O 0.2952 0.92603 0.44536 0.0
O108 O 0.286 0.95218 0.46456 0.0
C109 C 0.3107 0.01665 0.45212 0.0
C110 C 0.28222 0.93005 0.46057 0.0
O111 O 0.33906 0.97301 0.4111 0.0
Mg112 Mg 0.04031 0.32265 0.33779 0.0
O113 O 0.07011 0.33701 0.37169 0.0
O114 O 0.10318 0.36914 0.36112 0.0
Mg115 Mg 0.09561 0.37182 0.31805 0.0
C116 C 0.09175 0.35461 0.37737 0.0
C117 C 0.99319 0.30362 0.36208 0.0
O118 O 0.98904 0.31291 0.34189 0.0
O119 O 0.03734 0.35723 0.34427 0.0
O120 O 0.06975 0.38498 0.32802 0.0
O121 O 0.05054 0.29561 0.32066 0.0
O122 O 0.06476 0.33378 0.3115 0.0
C123 C 0.05015 0.37872 0.33754 0.0
C124 C 0.06407 0.3131 0.30753 0.0
O125 O 0.01287 0.30377 0.36545 0.0
Mg126 Mg 0.6549 0.98037 0.41724 0.0
O127 O 0.67271 0.96821 0.38754 0.0
O128 O 0.70091 0.96329 0.40862 0.0
Mg129 Mg 0.70189 0.97311 0.45198 0.0
C130 C 0.68909 0.96256 0.38756 0.0
C131 C 0.61876 0.97349 0.36938 0.0
O132 O 0.61078 0.95028 0.3727 0.0
O133 O 0.68746 0.0197 0.42433 0.0
O134 O 0.71457 0.01343 0.44617 0.0
O135 O 0.62931 0.94047 0.42146 0.0
O136 O 0.66418 0.96371 0.44555 0.0
C137 C 0.70837 0.02775 0.4364 0.0
C138 C 0.64512 0.9424 0.43958 0.0
O139 O 0.63688 0.99032 0.3844 0.0
Mg140 Mg 0.02225 0.71501 0.30813 0.0
O141 O 0.04875 0.72442 0.34423 0.0
O142 O 0.08423 0.73291 0.3327 0.0
Mg143 Mg 0.08059 0.73017 0.28806 0.0
C144 C 0.07057 0.73045 0.35013 0.0
C145 C 0.97723 0.67761 0.33552 0.0
O146 O 0.97898 0.66012 0.32235 0.0
O147 O 0.01956 0.6777 0.29912 0.0
O148 O 0.05422 0.68815 0.28345 0.0
O149 O 0.03364 0.75494 0.30874 0.0
O150 O 0.05013 0.73653 0.28762 0.0
C151 C 0.03355 0.67192 0.28859 0.0
C152 C 0.04989 0.75637 0.29474 0.0
O153 O 0.99178 0.70012 0.33329 0.0
Mg154 Mg 0.29675 0.3526 0.40399 0.0
O155 O 0.26858 0.33498 0.36829 0.0
O156 O 0.23771 0.29975 0.37671 0.0
Mg157 Mg 0.24533 0.29601 0.41929 0.0
C158 C 0.24819 0.31559 0.36122 0.0
C159 C 0.34565 0.38194 0.38384 0.0
O160 O 0.3517 0.3763 0.40583 0.0
O161 O 0.30749 0.32353 0.39798 0.0
O162 O 0.27684 0.29057 0.41096 0.0
O163 O 0.27959 0.37339 0.41985 0.0
O164 O 0.27076 0.33627 0.42854 0.0
C165 C 0.2976 0.30133 0.40329 0.0
C166 C 0.26723 0.35455 0.43199 0.0
O167 O 0.32394 0.3761 0.37802 0.0
Mg168 Mg 0.35002 0.02299 0.65805 0.0
O169 O 0.33283 0.03735 0.68623 0.0
O170 O 0.30833 0.04641 0.66362 0.0
Mg171 Mg 0.30909 0.03698 0.62046 0.0
C172 C 0.31816 0.04529 0.68523 0.0
C173 C 0.38737 0.0197 0.69455 0.0
O174 O 0.39988 0.03386 0.6776 0.0
O175 O 0.31503 0.98523 0.6493 0.0
O176 O 0.29267 0.99604 0.62528 0.0
O177 O 0.37874 0.06237 0.65562 0.0
O178 O 0.34484 0.04184 0.6293 0.0
C179 C 0.29549 0.97964 0.63538 0.0
C180 C 0.36464 0.06215 0.63658 0.0
O181 O 0.36483 0.0111 0.692 0.0
Mg182 Mg 0.98043 0.29316 0.76838 0.0
O183 O 0.95255 0.28588 0.7345 0.0
O184 O 0.91857 0.27937 0.74892 0.0
Mg185 Mg 0.92451 0.28093 0.79336 0.0
C186 C 0.931 0.28125 0.73037 0.0
C187 C 0.02814 0.32817 0.74384 0.0
O188 O 0.03404 0.34269 0.76581 0.0
O189 O 0.98609 0.33155 0.77998 0.0
O190 O 0.95288 0.32226 0.79832 0.0
O191 O 0.96707 0.2524 0.76659 0.0
O192 O 0.95313 0.2721 0.78993 0.0
C193 C 0.97354 0.33797 0.79271 0.0
C194 C 0.95179 0.25167 0.7817 0.0
O195 O 0.00857 0.30755 0.74043 0.0
Mg196 Mg 0.70693 0.65143 0.67277 0.0
O197 O 0.73644 0.666 0.7069 0.0
O198 O 0.76916 0.69943 0.69781 0.0
Mg199 Mg 0.76147 0.70329 0.6551 0.0
C200 C 0.75785 0.68387 0.71327 0.0
C201 C 0.65976 0.62918 0.69819 0.0
O202 O 0.65419 0.6387 0.67912 0.0
O203 O 0.70172 0.68454 0.6802 0.0
O204 O 0.73391 0.71408 0.66527 0.0
O205 O 0.71921 0.62641 0.65543 0.0
O206 O 0.73184 0.66453 0.64689 0.0
C207 C 0.71387 0.70645 0.67425 0.0
C208 C 0.73257 0.64458 0.64295 0.0
O209 O 0.68 0.63048 0.70011 0.0
Mg210 Mg 0.31577 0.31266 0.74072 0.0
O211 O 0.33882 0.30293 0.7164 0.0
O212 O 0.36077 0.29373 0.74347 0.0
Mg213 Mg 0.35383 0.30004 0.78516 0.0
C214 C 0.35401 0.2959 0.72065 0.0
C215 C 0.28091 0.31521 0.70027 0.0
O216 O 0.26731 0.29743 0.71359 0.0
O217 O 0.34813 0.35134 0.75481 0.0
O218 O 0.3686 0.34137 0.78314 0.0
O219 O 0.2887 0.27192 0.73791 0.0
O220 O 0.31838 0.29266 0.76975 0.0
C221 C 0.36579 0.35742 0.77216 0.0
C222 C 0.30065 0.27194 0.75891 0.0
O223 O 0.30356 0.32606 0.70608 0.0
Mg224 Mg 0.6932 0.04613 0.64724 0.0
O225 O 0.72018 0.05497 0.68282 0.0
O226 O 0.75301 0.05603 0.67128 0.0
Mg227 Mg 0.74658 0.0474 0.6269 0.0
C228 C 0.74098 0.05801 0.68869 0.0
C229 C 0.64314 0.02774 0.66753 0.0
O230 O 0.63533 0.01981 0.64279 0.0
O231 O 0.68276 0.00562 0.64263 0.0
O232 O 0.71582 0.00797 0.62929 0.0
O233 O 0.7108 0.08628 0.64248 0.0
O234 O 0.7206 0.06046 0.62391 0.0
C235 C 0.69445 0.99547 0.63506 0.0
C236 C 0.72436 0.08259 0.62789 0.0
O237 O 0.66556 0.03917 0.67481 0.0
Mg238 Mg 0.96023 0.67792 0.73733 0.0
O239 O 0.93248 0.66402 0.70166 0.0
O240 O 0.89923 0.6299 0.70796 0.0
Mg241 Mg 0.90533 0.6233 0.74989 0.0
C242 C 0.9114 0.6462 0.69355 0.0
C243 C 0.0097 0.70464 0.71723 0.0
O244 O 0.01538 0.69786 0.73863 0.0
O245 O 0.96687 0.64631 0.72855 0.0
O246 O 0.93413 0.61406 0.73955 0.0
O247 O 0.94626 0.7011 0.75503 0.0
O248 O 0.93371 0.66248 0.7613 0.0
C249 C 0.95487 0.62357 0.73185 0.0
C250 C 0.9324 0.68203 0.76615 0.0
O251 O 0.98847 0.7005 0.71204 0.0
H252 H 0.14884 0.33759 0.99158 0.0
H253 H 0.29947 0.28104 0.18232 0.0
H254 H 0.15476 0.34602 0.13615 0.0
H255 H 0.12439 0.3512 0.11136 0.0
H256 H 0.0756 0.27232 0.10317 0.0
H257 H 0.1063 0.26726 0.12783 0.0
H258 H 0.18869 0.34426 0.09825 0.0
H259 H 0.17749 0.34864 0.05388 0.0
H260 H 0.12183 0.27152 0.04241 0.0
H261 H 0.13339 0.26738 0.08673 0.0
H262 H 0.23304 0.3428 0.1303 0.0
H263 H 0.26046 0.35106 0.09755 0.0
H264 H 0.21025 0.28018 0.05379 0.0
H265 H 0.18293 0.27171 0.08708 0.0
H266 H 0.23557 0.33748 0.18634 0.0
H267 H 0.27262 0.33747 0.19907 0.0
H268 H 0.24219 0.26478 0.15603 0.0
H269 H 0.20509 0.2649 0.14372 0.0
H270 H 0.1971 0.3391 0.21332 0.0
H271 H 0.21178 0.34137 0.25864 0.0
H272 H 0.19589 0.26591 0.24458 0.0
H273 H 0.18062 0.26357 0.19927 0.0
H274 H 0.1584 0.3412 0.18956 0.0
H275 H 0.13548 0.34292 0.22409 0.0
H276 H 0.1035 0.26415 0.22529 0.0
H277 H 0.12741 0.2628 0.19126 0.0
O278 O 0.15317 0.33538 0.00893 0.0
O279 O 0.12538 0.29543 0.00372 0.0
O280 O 0.29956 0.31859 0.20001 0.0
O281 O 0.28499 0.2815 0.17762 0.0
C282 C 0.15321 0.30289 0.14172 0.0
C283 C 0.16798 0.30318 0.12292 0.0
C284 C 0.18908 0.30268 0.13034 0.0
C285 C 0.19511 0.30117 0.15652 0.0
C286 C 0.18015 0.30054 0.17529 0.0
C287 C 0.15917 0.30134 0.16783 0.0
C288 C 0.1327 0.30628 0.13377 0.0
C289 C 0.1372 0.32996 0.12983 0.0
C290 C 0.11988 0.33287 0.11559 0.0
C291 C 0.09783 0.31211 0.10496 0.0
C292 C 0.09263 0.28858 0.11079 0.0
C293 C 0.10998 0.28569 0.12512 0.0
C294 C 0.1619 0.3055 0.0956 0.0
C295 C 0.17423 0.32831 0.08602 0.0
C296 C 0.16772 0.33077 0.06072 0.0
C297 C 0.14873 0.31044 0.0446 0.0
C298 C 0.13654 0.28754 0.05429 0.0
C299 C 0.1431 0.28511 0.07957 0.0
C300 C 0.20615 0.30655 0.11121 0.0
C301 C 0.22816 0.32882 0.11394 0.0
C302 C 0.24373 0.33354 0.09524 0.0
C303 C 0.23746 0.31614 0.07335 0.0
C304 C 0.21542 0.29382 0.07057 0.0
C305 C 0.19992 0.28896 0.08951 0.0
C306 C 0.21756 0.30107 0.16434 0.0
C307 C 0.23685 0.32147 0.17989 0.0
C308 C 0.25804 0.32147 0.18703 0.0
C309 C 0.26035 0.30109 0.1786 0.0
C310 C 0.241 0.28075 0.16289 0.0
C311 C 0.21979 0.28075 0.15582 0.0
C312 C 0.18755 0.30109 0.20311 0.0
C313 C 0.19634 0.3229 0.22015 0.0
C314 C 0.20489 0.32424 0.24592 0.0
C315 C 0.20483 0.30378 0.25513 0.0
C316 C 0.19574 0.28181 0.2381 0.0
C317 C 0.18716 0.28048 0.21225 0.0
C318 C 0.14419 0.30183 0.18769 0.0
C319 C 0.14628 0.3243 0.19712 0.0
C320 C 0.13316 0.32521 0.21678 0.0
C321 C 0.11733 0.30355 0.22699 0.0
C322 C 0.11551 0.28107 0.21772 0.0
C323 C 0.12893 0.28024 0.1982 0.0
C324 C 0.14166 0.31319 0.01786 0.0
C325 C 0.28285 0.30102 0.1861 0.0
H326 H 0.66302 0.80568 0.03003 0.0
H327 H 0.73472 0.03516 0.22738 0.0
H328 H 0.66615 0.81746 0.19083 0.0
H329 H 0.65337 0.77543 0.1724 0.0
H330 H 0.72127 0.80176 0.14226 0.0
H331 H 0.73464 0.84382 0.16247 0.0
H332 H 0.66335 0.83924 0.1379 0.0
H333 H 0.65595 0.8209 0.09269 0.0
H334 H 0.7318 0.86502 0.08652 0.0
H335 H 0.73892 0.88304 0.13184 0.0
H336 H 0.66331 0.89059 0.1619 0.0
H337 H 0.64926 0.90651 0.12789 0.0
H338 H 0.71842 0.93805 0.09957 0.0
H339 H 0.73281 0.92292 0.13494 0.0
H340 H 0.67284 0.91178 0.2117 0.0
H341 H 0.67454 0.95107 0.22307 0.0
H342 H 0.74879 0.99043 0.20897 0.0
H343 H 0.74691 0.95094 0.19802 0.0
H344 H 0.66966 0.87682 0.24109 0.0
H345 H 0.66585 0.89481 0.2824 0.0
H346 H 0.74271 0.94346 0.29575 0.0
H347 H 0.74644 0.92497 0.25428 0.0
H348 H 0.67206 0.83975 0.23845 0.0
H349 H 0.67022 0.81005 0.26727 0.0
H350 H 0.7435 0.83143 0.25812 0.0
H351 H 0.74542 0.8617 0.22975 0.0
O352 O 0.66634 0.81322 0.04785 0.0
O353 O 0.70545 0.83647 0.0456 0.0
O354 O 0.69545 0.99823 0.23033 0.0
O355 O 0.73356 0.01936 0.22299 0.0
C356 C 0.70699 0.85935 0.18555 0.0
C357 C 0.70609 0.87304 0.16562 0.0
C358 C 0.70666 0.89548 0.17185 0.0
C359 C 0.70905 0.90477 0.19804 0.0
C360 C 0.70974 0.89103 0.21806 0.0
C361 C 0.70891 0.86836 0.21184 0.0
C362 C 0.70142 0.83364 0.17826 0.0
C363 C 0.67861 0.81407 0.18106 0.0
C364 C 0.67112 0.79018 0.16994 0.0
C365 C 0.68604 0.7855 0.15514 0.0
C366 C 0.70935 0.80491 0.15338 0.0
C367 C 0.71702 0.82885 0.16496 0.0
C368 C 0.70165 0.86243 0.13802 0.0
C369 C 0.67831 0.84491 0.12669 0.0
C370 C 0.67415 0.83448 0.10089 0.0
C371 C 0.69329 0.8415 0.08598 0.0
C372 C 0.71667 0.85921 0.09745 0.0
C373 C 0.72079 0.86957 0.12328 0.0
C374 C 0.69916 0.90602 0.15113 0.0
C375 C 0.67552 0.90116 0.14853 0.0
C376 C 0.66742 0.90991 0.12879 0.0
C377 C 0.68269 0.92345 0.11093 0.0
C378 C 0.70633 0.92791 0.11321 0.0
C379 C 0.71456 0.9193 0.13331 0.0
C380 C 0.70985 0.92857 0.20438 0.0
C381 C 0.6895 0.92891 0.21128 0.0
C382 C 0.69049 0.95137 0.21766 0.0
C383 C 0.71184 0.97391 0.21701 0.0
C384 C 0.7321 0.97343 0.20974 0.0
C385 C 0.73109 0.95093 0.20346 0.0
C386 C 0.70836 0.89923 0.24497 0.0
C387 C 0.68575 0.8908 0.25329 0.0
C388 C 0.68357 0.90139 0.27662 0.0
C389 C 0.70396 0.92076 0.29198 0.0
C390 C 0.72673 0.92856 0.28418 0.0
C391 C 0.7289 0.91796 0.26068 0.0
C392 C 0.70905 0.8533 0.23244 0.0
C393 C 0.68803 0.83879 0.24348 0.0
C394 C 0.68691 0.8216 0.25966 0.0
C395 C 0.70676 0.81855 0.26504 0.0
C396 C 0.72809 0.83373 0.25472 0.0
C397 C 0.72919 0.85095 0.23848 0.0
C398 C 0.68883 0.83032 0.0586 0.0
C399 C 0.71302 0.99783 0.22385 0.0
H400 H 0.14705 0.85083 0.01237 0.0
H401 H 0.34125 0.01365 0.23538 0.0
H402 H 0.12794 0.86325 0.14219 0.0
H403 H 0.09603 0.82294 0.12009 0.0
H404 H 0.12458 0.78676 0.16586 0.0
H405 H 0.15697 0.82687 0.18664 0.0
H406 H 0.17363 0.90421 0.11714 0.0
H407 H 0.16214 0.88777 0.07108 0.0
H408 H 0.1666 0.82378 0.08784 0.0
H409 H 0.1784 0.8406 0.13376 0.0
H410 H 0.22495 0.94769 0.14414 0.0
H411 H 0.25301 0.96097 0.11134 0.0
H412 H 0.2546 0.89314 0.11108 0.0
H413 H 0.22752 0.88057 0.14435 0.0
H414 H 0.22212 0.95931 0.21095 0.0
H415 H 0.26103 0.99613 0.22664 0.0
H416 H 0.29637 0.95516 0.208 0.0
H417 H 0.25738 0.91848 0.19248 0.0
H418 H 0.17953 0.91987 0.24716 0.0
H419 H 0.19321 0.93049 0.29396 0.0
H420 H 0.24928 0.91388 0.28256 0.0
H421 H 0.23424 0.90125 0.23667 0.0
H422 H 0.13205 0.87908 0.20814 0.0
H423 H 0.10233 0.85356 0.2358 0.0
H424 H 0.14927 0.8278 0.26398 0.0
H425 H 0.17907 0.85385 0.23688 0.0
O426 O 0.15176 0.85706 0.03065 0.0
O427 O 0.15422 0.82449 0.04031 0.0
O428 O 0.30679 0.02022 0.23626 0.0
O429 O 0.32568 -0.00052 0.22889 0.0
C430 C 0.16728 0.87202 0.17492 0.0
C431 C 0.1834 0.88355 0.15677 0.0
C432 C 0.20643 0.90412 0.16522 0.0
C433 C 0.21314 0.91389 0.19172 0.0
C434 C 0.19726 0.90214 0.21011 0.0
C435 C 0.17423 0.88135 0.2016 0.0
C436 C 0.14478 0.84804 0.16613 0.0
C437 C 0.12692 0.84655 0.14784 0.0
C438 C 0.10871 0.82354 0.13526 0.0
C439 C 0.10795 0.80171 0.14109 0.0
C440 C 0.12491 0.80328 0.16069 0.0
C441 C 0.14321 0.82619 0.17294 0.0
C442 C 0.17661 0.87349 0.12878 0.0
C443 C 0.17215 0.88667 0.11079 0.0
C444 C 0.16556 0.87722 0.08451 0.0
C445 C 0.16336 0.85441 0.07579 0.0
C446 C 0.16805 0.84135 0.09391 0.0
C447 C 0.17472 0.85087 0.12015 0.0
C448 C 0.22432 0.91324 0.14658 0.0
C449 C 0.23169 0.93595 0.1372 0.0
C450 C 0.24751 0.94338 0.11842 0.0
C451 C 0.25612 0.92817 0.10889 0.0
C452 C 0.2487 0.90548 0.11848 0.0
C453 C 0.23311 0.8982 0.1373 0.0
C454 C 0.23694 0.93631 0.20037 0.0
C455 C 0.23831 0.95838 0.21016 0.0
C456 C 0.26055 0.97937 0.21911 0.0
C457 C 0.28183 0.9786 0.21853 0.0
C458 C 0.28036 0.95642 0.20864 0.0
C459 C 0.25811 0.93547 0.19963 0.0
C460 C 0.20589 0.90981 0.23839 0.0
C461 C 0.19459 0.91828 0.25489 0.0
C462 C 0.20253 0.92449 0.28157 0.0
C463 C 0.22206 0.92258 0.29215 0.0
C464 C 0.23367 0.91475 0.27535 0.0
C465 C 0.2254 0.90799 0.24893 0.0
C466 C 0.15767 0.86831 0.22059 0.0
C467 C 0.13609 0.86835 0.22077 0.0
C468 C 0.11918 0.85378 0.23651 0.0
C469 C 0.12356 0.83885 0.2522 0.0
C470 C 0.14563 0.83959 0.25266 0.0
C471 C 0.16259 0.8543 0.23705 0.0
C472 C 0.15619 0.84434 0.04789 0.0
C473 C 0.30546 0.00074 0.2284 0.0
H474 H 0.32295 0.18856 0.0473 0.0
H475 H 0.32726 0.00645 0.82898 0.0
H476 H 0.28206 0.16868 0.91529 0.0
H477 H 0.29321 0.21035 0.93412 0.0
H478 H 0.3553 0.24086 0.89264 0.0
H479 H 0.34503 0.19914 0.87558 0.0
H480 H 0.28297 0.13243 0.94401 0.0
H481 H 0.29297 0.15154 0.98919 0.0
H482 H 0.36648 0.19899 0.97557 0.0
H483 H 0.35622 0.17955 0.93047 0.0
H484 H 0.28624 0.09315 0.93602 0.0
H485 H 0.2993 0.07532 0.96945 0.0
H486 H 0.3685 0.10606 0.94128 0.0
H487 H 0.35586 0.12514 0.90944 0.0
H488 H 0.27176 0.06459 0.87248 0.0
H489 H 0.27092 0.02597 0.85929 0.0
H490 H 0.34518 0.06793 0.84576 0.0
H491 H 0.34582 0.10631 0.8593 0.0
H492 H 0.26648 0.09023 0.81977 0.0
H493 H 0.26739 0.0699 0.77788 0.0
H494 H 0.34443 0.11669 0.78625 0.0
H495 H 0.34343 0.13694 0.82768 0.0
H496 H 0.26613 0.15135 0.85214 0.0
H497 H 0.26095 0.17814 0.82364 0.0
H498 H 0.32826 0.19709 0.79535 0.0
H499 H 0.33379 0.17101 0.82448 0.0
O500 O 0.31943 0.18112 0.02942 0.0
O501 O 0.35698 0.2051 0.02142 0.0
O502 O 0.28932 0.0006 0.84298 0.0
O503 O 0.32718 0.02138 0.83472 0.0
C504 C 0.30895 0.15578 0.88692 0.0
C505 C 0.31269 0.14328 0.90659 0.0
C506 C 0.31261 0.12116 0.89994 0.0
C507 C 0.30882 0.11147 0.87364 0.0
C508 C 0.30539 0.12406 0.85387 0.0
C509 C 0.30491 0.14597 0.86048 0.0
C510 C 0.31275 0.18087 0.89411 0.0
C511 C 0.29791 0.18442 0.91007 0.0
C512 C 0.30422 0.20824 0.92065 0.0
C513 C 0.32517 0.22892 0.91488 0.0
C514 C 0.33924 0.22529 0.89773 0.0
C515 C 0.33319 0.20149 0.88763 0.0
C516 C 0.31891 0.15456 0.9341 0.0
C517 C 0.30125 0.14683 0.95091 0.0
C518 C 0.307 0.15784 0.97666 0.0
C519 C 0.33053 0.1768 0.986 0.0
C520 C 0.3482 0.18443 0.96902 0.0
C521 C 0.34241 0.17337 0.94329 0.0
C522 C 0.32006 0.11016 0.9202 0.0
C523 C 0.30429 0.09621 0.93738 0.0
C524 C 0.31173 0.08593 0.95629 0.0
C525 C 0.33486 0.08903 0.95784 0.0
C526 C 0.35067 0.10352 0.94085 0.0
C527 C 0.34339 0.11414 0.92238 0.0
C528 C 0.30879 0.08817 0.8667 0.0
C529 C 0.28784 0.06534 0.8668 0.0
C530 C 0.28741 0.04335 0.85921 0.0
C531 C 0.30797 0.04387 0.85136 0.0
C532 C 0.32903 0.06685 0.85161 0.0
C533 C 0.32944 0.0888 0.85931 0.0
C534 C 0.30486 0.11527 0.82652 0.0
C535 C 0.28342 0.09655 0.81211 0.0
C536 C 0.28397 0.0849 0.78839 0.0
C537 C 0.30601 0.09163 0.77918 0.0
C538 C 0.32727 0.11109 0.79313 0.0
C539 C 0.32668 0.12282 0.81657 0.0
C540 C 0.30015 0.15886 0.84012 0.0
C541 C 0.27948 0.16081 0.83934 0.0
C542 C 0.27653 0.17607 0.8231 0.0
C543 C 0.29407 0.18936 0.80713 0.0
C544 C 0.31423 0.18655 0.80705 0.0
C545 C 0.31735 0.17157 0.82359 0.0
C546 C 0.33654 0.18858 0.01332 0.0
C547 C 0.30751 0.0206 0.84282 0.0
H548 H 0.84428 0.1719 0.07325 0.0
H549 H 0.68184 0.97681 0.8499 0.0
H550 H 0.83842 0.17947 0.93067 0.0
H551 H 0.87137 0.22113 0.94667 0.0
H552 H 0.92243 0.19728 0.93614 0.0
H553 H 0.88902 0.15506 0.92017 0.0
H554 H 0.80798 0.14889 0.96273 0.0
H555 H 0.81871 0.16131 0.00957 0.0
H556 H 0.86699 0.13262 0.00976 0.0
H557 H 0.85586 0.12003 0.96292 0.0
H558 H 0.76665 0.11567 0.92462 0.0
H559 H 0.73792 0.1036 0.95614 0.0
H560 H 0.76547 0.05963 0.98749 0.0
H561 H 0.79518 0.07299 0.95651 0.0
H562 H 0.75906 0.09847 0.86738 0.0
H563 H 0.71956 0.0634 0.84989 0.0
H564 H 0.73974 0.01355 0.88095 0.0
H565 H 0.77931 0.04881 0.89806 0.0
H566 H 0.80055 0.13497 0.84433 0.0
H567 H 0.78389 0.12186 0.79848 0.0
H568 H 0.79142 0.0576 0.80021 0.0
H569 H 0.80815 0.07083 0.84631 0.0
H570 H 0.84336 0.1761 0.87437 0.0
H571 H 0.87046 0.2014 0.84465 0.0
H572 H 0.89033 0.14616 0.82852 0.0
H573 H 0.86339 0.12104 0.85893 0.0
O574 O 0.84022 0.16675 0.05474 0.0
O575 O 0.86487 0.15181 0.05377 0.0
O576 O 0.68754 0.01749 0.84171 0.0
O577 O 0.69726 0.99104 0.85672 0.0
C578 C 0.84077 0.13945 0.91406 0.0
C579 C 0.82445 0.12562 0.93108 0.0
C580 C 0.80182 0.10519 0.92102 0.0
C581 C 0.79615 0.09738 0.89409 0.0
C582 C 0.8129 0.11053 0.87704 0.0
C583 C 0.83513 0.13174 0.88703 0.0
C584 C 0.86136 0.16429 0.92428 0.0
C585 C 0.85668 0.1831 0.93207 0.0
C586 C 0.87545 0.20682 0.94118 0.0
C587 C 0.8993 0.21225 0.94258 0.0
C588 C 0.9041 0.19335 0.93536 0.0
C589 C 0.88516 0.16943 0.92611 0.0
C590 C 0.83089 0.13324 0.95953 0.0
C591 C 0.82067 0.14507 0.97297 0.0
C592 C 0.82693 0.15226 0.99971 0.0
C593 C 0.84365 0.14788 0.01344 0.0
C594 C 0.854 0.1362 0.9998 0.0
C595 C 0.84768 0.12899 0.97307 0.0
C596 C 0.78274 0.09495 0.93817 0.0
C597 C 0.76619 0.1031 0.93803 0.0
C598 C 0.74974 0.0961 0.95598 0.0
C599 C 0.74917 0.08035 0.97405 0.0
C600 C 0.76555 0.07184 0.97382 0.0
C601 C 0.78232 0.0792 0.95606 0.0
C602 C 0.7721 0.07611 0.8837 0.0
C603 C 0.75496 0.07994 0.87021 0.0
C604 C 0.73239 0.05989 0.86034 0.0
C605 C 0.72651 0.03564 0.86397 0.0
C606 C 0.7437 0.03195 0.87775 0.0
C607 C 0.76629 0.05204 0.88756 0.0
C608 C 0.80567 0.10392 0.84858 0.0
C609 C 0.79905 0.11832 0.83471 0.0
C610 C 0.78936 0.11073 0.80866 0.0
C611 C 0.7862 0.08864 0.79603 0.0
C612 C 0.79373 0.07471 0.8096 0.0
C613 C 0.80326 0.08223 0.83581 0.0
C614 C 0.85162 0.1469 0.86895 0.0
C615 C 0.85362 0.1695 0.86451 0.0
C616 C 0.86884 0.18373 0.84728 0.0
C617 C 0.88215 0.17549 0.83396 0.0
C618 C 0.88016 0.15283 0.83846 0.0
C619 C 0.86487 0.13855 0.85576 0.0
C620 C 0.85028 0.15556 0.04185 0.0
C621 C 0.70258 0.01426 0.85345 0.0
H622 H 0.87773 0.72033 0.09677 0.0
H623 H 0.6902 0.69661 0.88514 0.0
H624 H 0.89255 0.7373 0.95771 0.0
H625 H 0.92377 0.73345 0.98259 0.0
H626 H 0.88476 0.65481 0.95794 0.0
H627 H 0.85401 0.65899 0.93236 0.0
H628 H 0.8534 0.73786 0.99311 0.0
H629 H 0.86561 0.73774 0.03867 0.0
H630 H 0.84421 0.66062 0.02243 0.0
H631 H 0.83179 0.66094 0.97702 0.0
H632 H 0.80388 0.73365 0.97136 0.0
H633 H 0.77645 0.72616 0.00438 0.0
H634 H 0.75893 0.65 0.99904 0.0
H635 H 0.78583 0.65747 0.96588 0.0
H636 H 0.80845 0.74222 0.90491 0.0
H637 H 0.77449 0.74758 0.89192 0.0
H638 H 0.72557 0.67335 0.90779 0.0
H639 H 0.7597 0.66816 0.92055 0.0
H640 H 0.84442 0.73256 0.86648 0.0
H641 H 0.83116 0.7282 0.82012 0.0
H642 H 0.76498 0.66183 0.82861 0.0
H643 H 0.77932 0.66502 0.874 0.0
H644 H 0.88684 0.73257 0.89813 0.0
H645 H 0.90761 0.72802 0.86231 0.0
H646 H 0.84706 0.65488 0.83704 0.0
H647 H 0.82679 0.65925 0.87319 0.0
O648 O 0.87264 0.71993 0.07873 0.0
O649 O 0.8614 0.68031 0.06934 0.0
O650 O 0.72993 0.73351 0.88394 0.0
O651 O 0.70394 0.69505 0.8905 0.0
C652 C 0.84925 0.69965 0.93505 0.0
C653 C 0.83485 0.69982 0.9541 0.0
C654 C 0.81363 0.70014 0.94694 0.0
C655 C 0.80739 0.70174 0.92093 0.0
C656 C 0.82127 0.70071 0.9016 0.0
C657 C 0.84207 0.69932 0.9087 0.0
C658 C 0.87101 0.69843 0.94328 0.0
C659 C 0.89124 0.71941 0.95687 0.0
C660 C 0.90884 0.7171 0.97139 0.0
C661 C 0.90631 0.6937 0.97284 0.0
C662 C 0.88714 0.67305 0.95728 0.0
C663 C 0.86963 0.67542 0.94255 0.0
C664 C 0.8419 0.69948 0.98179 0.0
C665 C 0.85132 0.72096 0.99948 0.0
C666 C 0.85831 0.72084 0.02546 0.0
C667 C 0.85592 0.69918 0.03419 0.0
C668 C 0.84632 0.67762 0.01635 0.0
C669 C 0.83929 0.67777 0.99041 0.0
C670 C 0.79681 0.6961 0.96636 0.0
C671 C 0.79401 0.71537 0.97731 0.0
C672 C 0.77854 0.71112 0.99623 0.0
C673 C 0.76577 0.68754 0.00437 0.0
C674 C 0.76849 0.6683 0.99305 0.0
C675 C 0.78387 0.67255 0.97424 0.0
C676 C 0.78655 0.70489 0.91386 0.0
C677 C 0.79038 0.72717 0.90566 0.0
C678 C 0.77096 0.73018 0.89825 0.0
C679 C 0.7473 0.71089 0.89884 0.0
C680 C 0.74354 0.68859 0.90716 0.0
C681 C 0.76301 0.68561 0.91459 0.0
C682 C 0.81289 0.69909 0.87371 0.0
C683 C 0.82721 0.71691 0.85819 0.0
C684 C 0.81952 0.71449 0.83176 0.0
C685 C 0.79719 0.69439 0.82046 0.0
C686 C 0.78264 0.67704 0.83633 0.0
C687 C 0.7906 0.67912 0.86249 0.0
C688 C 0.85543 0.69616 0.88831 0.0
C689 C 0.87827 0.71547 0.88504 0.0
C690 C 0.88993 0.71297 0.86448 0.0
C691 C 0.87893 0.69107 0.84704 0.0
C692 C 0.85607 0.6718 0.85043 0.0
C693 C 0.84449 0.67426 0.871 0.0
C694 C 0.86343 0.69913 0.06177 0.0
C695 C 0.72661 0.71393 0.89066 0.0
H696 H 0.82956 0.67785 0.32322 0.0
H697 H 0.96382 0.61251 0.52051 0.0
H698 H 0.82241 0.68115 0.46786 0.0
H699 H 0.79169 0.68701 0.44489 0.0
H700 H 0.74306 0.60803 0.43409 0.0
H701 H 0.77408 0.60233 0.45705 0.0
H702 H 0.8601 0.68069 0.43249 0.0
H703 H 0.8527 0.68672 0.3876 0.0
H704 H 0.79497 0.61058 0.37219 0.0
H705 H 0.80281 0.60473 0.41706 0.0
H706 H 0.90168 0.67758 0.46644 0.0
H707 H 0.93084 0.68633 0.43568 0.0
H708 H 0.88147 0.61676 0.38897 0.0
H709 H 0.8527 0.60755 0.42065 0.0
H710 H 0.90184 0.67108 0.52092 0.0
H711 H 0.93806 0.6701 0.53531 0.0
H712 H 0.90733 0.59731 0.49242 0.0
H713 H 0.87101 0.59837 0.4785 0.0
H714 H 0.86437 0.67367 0.54516 0.0
H715 H 0.87866 0.67591 0.59063 0.0
H716 H 0.85733 0.59871 0.57849 0.0
H717 H 0.84271 0.59648 0.53284 0.0
H718 H 0.82641 0.6757 0.52327 0.0
H719 H 0.8049 0.67714 0.55938 0.0
H720 H 0.76765 0.59736 0.554 0.0
H721 H 0.79045 0.59633 0.51879 0.0
O722 O 0.83223 0.67503 0.34085 0.0
O723 O 0.80254 0.63585 0.33403 0.0
O724 O 0.96439 0.65053 0.53736 0.0
O725 O 0.94956 0.61323 0.51536 0.0
C726 C 0.82065 0.63783 0.47306 0.0
C727 C 0.83644 0.63876 0.45526 0.0
C728 C 0.85709 0.63775 0.46375 0.0
C729 C 0.86178 0.6354 0.48998 0.0
C730 C 0.84603 0.63454 0.50778 0.0
C731 C 0.82542 0.63563 0.49928 0.0
C732 C 0.80038 0.64134 0.46426 0.0
C733 C 0.80485 0.66519 0.46126 0.0
C734 C 0.78729 0.66849 0.44816 0.0
C735 C 0.76493 0.64797 0.4378 0.0
C736 C 0.76013 0.62415 0.44189 0.0
C737 C 0.7777 0.62087 0.45515 0.0
C738 C 0.83202 0.64227 0.42794 0.0
C739 C 0.84595 0.66532 0.41933 0.0
C740 C 0.84164 0.66872 0.39371 0.0
C741 C 0.82323 0.64913 0.3763 0.0
C742 C 0.80928 0.62605 0.38508 0.0
C743 C 0.81369 0.62266 0.41069 0.0
C744 C 0.87513 0.64192 0.44578 0.0
C745 C 0.89732 0.66403 0.44981 0.0
C746 C 0.91379 0.66914 0.43206 0.0
C747 C 0.90817 0.65244 0.4097 0.0
C748 C 0.88619 0.62996 0.40604 0.0
C749 C 0.86977 0.62472 0.424 0.0
C750 C 0.88369 0.63467 0.49892 0.0
C751 C 0.90285 0.65482 0.51491 0.0
C752 C 0.92357 0.65427 0.52298 0.0
C753 C 0.9256 0.6336 0.51503 0.0
C754 C 0.90636 0.61348 0.49893 0.0
C755 C 0.8856 0.61403 0.49094 0.0
C756 C 0.85242 0.63489 0.5358 0.0
C757 C 0.86235 0.65711 0.55243 0.0
C758 C 0.87067 0.65842 0.57826 0.0
C759 C 0.86929 0.63754 0.58786 0.0
C760 C 0.85853 0.61502 0.57147 0.0
C761 C 0.85025 0.61374 0.54551 0.0
C762 C 0.80982 0.63593 0.51843 0.0
C763 C 0.81344 0.65856 0.52978 0.0
C764 C 0.80119 0.65931 0.55043 0.0
C765 C 0.7848 0.63737 0.55983 0.0
C766 C 0.78065 0.61462 0.54775 0.0
C767 C 0.79328 0.61394 0.52736 0.0
C768 C 0.81864 0.65283 0.34912 0.0
C769 C 0.9477 0.63306 0.52332 0.0
H770 H 0.32587 0.1454 0.36445 0.0
H771 H 0.39739 0.36801 0.5651 0.0
H772 H 0.33081 0.15289 0.52124 0.0
H773 H 0.31774 0.11077 0.50285 0.0
H774 H 0.38841 0.13512 0.48071 0.0
H775 H 0.40186 0.17732 0.50083 0.0
H776 H 0.32865 0.17939 0.47294 0.0
H777 H 0.32019 0.16181 0.4273 0.0
H778 H 0.39641 0.19598 0.42291 0.0
H779 H 0.40456 0.21341 0.46859 0.0
H780 H 0.33057 0.22845 0.50343 0.0
H781 H 0.31514 0.24385 0.47008 0.0
H782 H 0.38065 0.26986 0.43487 0.0
H783 H 0.39651 0.25518 0.46939 0.0
H784 H 0.34244 0.24509 0.55791 0.0
H785 H 0.34315 0.28365 0.5706 0.0
H786 H 0.4113 0.32458 0.54106 0.0
H787 H 0.41053 0.28588 0.52882 0.0
H788 H 0.34316 0.20546 0.58584 0.0
H789 H 0.34146 0.22338 0.62828 0.0
H790 H 0.41264 0.28524 0.6271 0.0
H791 H 0.41494 0.26642 0.58507 0.0
H792 H 0.3394 0.16796 0.56865 0.0
H793 H 0.33887 0.13601 0.59303 0.0
H794 H 0.41533 0.16898 0.59294 0.0
H795 H 0.41584 0.20128 0.56849 0.0
O796 O 0.32962 0.15259 0.38244 0.0
O797 O 0.36898 0.17063 0.38117 0.0
O798 O 0.36126 0.3305 0.57445 0.0
O799 O 0.39668 0.35249 0.56032 0.0
C800 C 0.37372 0.19389 0.52091 0.0
C801 C 0.37222 0.2079 0.50171 0.0
C802 C 0.37288 0.23025 0.50894 0.0
C803 C 0.3764 0.23935 0.53547 0.0
C804 C 0.37844 0.2256 0.55489 0.0
C805 C 0.37697 0.20275 0.54751 0.0
C806 C 0.36737 0.16804 0.51278 0.0
C807 C 0.34369 0.14903 0.51314 0.0
C808 C 0.33612 0.12509 0.50208 0.0
C809 C 0.35186 0.11983 0.48963 0.0
C810 C 0.37587 0.13873 0.49003 0.0
C811 C 0.38358 0.16273 0.50155 0.0
C812 C 0.36719 0.19767 0.47392 0.0
C813 C 0.34346 0.18308 0.46202 0.0
C814 C 0.3387 0.17306 0.43598 0.0
C815 C 0.35763 0.1775 0.42145 0.0
C816 C 0.38142 0.19221 0.43354 0.0
C817 C 0.38614 0.2022 0.45958 0.0
C818 C 0.36479 0.2411 0.48907 0.0
C819 C 0.34176 0.2378 0.48876 0.0
C820 C 0.33283 0.24623 0.46943 0.0
C821 C 0.34663 0.2579 0.44974 0.0
C822 C 0.36972 0.26111 0.44992 0.0
C823 C 0.37878 0.25277 0.46955 0.0
C824 C 0.3766 0.26274 0.54277 0.0
C825 C 0.3576 0.26242 0.5544 0.0
C826 C 0.358 0.28446 0.56151 0.0
C827 C 0.37733 0.30722 0.55691 0.0
C828 C 0.39619 0.3074 0.54496 0.0
C829 C 0.39579 0.28533 0.53791 0.0
C830 C 0.37947 0.23415 0.58261 0.0
C831 C 0.35895 0.22211 0.59528 0.0
C832 C 0.35782 0.23256 0.61932 0.0
C833 C 0.37694 0.25556 0.63079 0.0
C834 C 0.39778 0.26738 0.61858 0.0
C835 C 0.39913 0.2566 0.59475 0.0
C836 C 0.37772 0.18717 0.56714 0.0
C837 C 0.35621 0.16896 0.57477 0.0
C838 C 0.35588 0.1506 0.58845 0.0
C839 C 0.37704 0.1501 0.59465 0.0
C840 C 0.39885 0.16918 0.58847 0.0
C841 C 0.39916 0.18757 0.57462 0.0
C842 C 0.35252 0.16676 0.39382 0.0
C843 C 0.37785 0.3307 0.56446 0.0
H844 H 0.8219 0.18719 0.34103 0.0
H845 H 0.0087 0.3387 0.58183 0.0
H846 H 0.79905 0.19113 0.47127 0.0
H847 H 0.76644 0.15011 0.45176 0.0
H848 H 0.7981 0.11629 0.49693 0.0
H849 H 0.83131 0.15708 0.51472 0.0
H850 H 0.84408 0.23589 0.44755 0.0
H851 H 0.834 0.22125 0.40105 0.0
H852 H 0.84193 0.15864 0.41499 0.0
H853 H 0.85228 0.17367 0.4614 0.0
H854 H 0.89329 0.28104 0.47709 0.0
H855 H 0.92177 0.29858 0.44525 0.0
H856 H 0.92917 0.23394 0.43991 0.0
H857 H 0.90136 0.21696 0.47214 0.0
H858 H 0.89243 0.2906 0.54159 0.0
H859 H 0.93088 0.32595 0.56158 0.0
H860 H 0.96583 0.28429 0.54438 0.0
H861 H 0.92731 0.24913 0.52446 0.0
H862 H 0.85055 0.2527 0.57431 0.0
H863 H 0.86467 0.2663 0.62092 0.0
H864 H 0.91608 0.2422 0.61467 0.0
H865 H 0.90202 0.22882 0.56839 0.0
H866 H 0.80128 0.20322 0.53818 0.0
H867 H 0.77304 0.17423 0.56513 0.0
H868 H 0.82594 0.15555 0.59152 0.0
H869 H 0.85401 0.18439 0.56464 0.0
O870 O 0.82599 0.19268 0.35949 0.0
O871 O 0.83016 0.16075 0.36771 0.0
O872 O 0.97625 0.34837 0.57575 0.0
O873 O 0.99369 0.3257 0.57242 0.0
C874 C 0.83911 0.20176 0.50386 0.0
C875 C 0.85496 0.2149 0.48603 0.0
C876 C 0.87731 0.23632 0.49506 0.0
C877 C 0.88348 0.24524 0.52176 0.0
C878 C 0.86761 0.23228 0.53964 0.0
C879 C 0.84545 0.21059 0.53069 0.0
C880 C 0.81749 0.17715 0.49465 0.0
C881 C 0.79876 0.17481 0.4771 0.0
C882 C 0.78007 0.15138 0.4661 0.0
C883 C 0.77966 0.12992 0.47281 0.0
C884 C 0.79803 0.13243 0.4911 0.0
C885 C 0.81684 0.15575 0.50165 0.0
C886 C 0.84869 0.20573 0.45784 0.0
C887 C 0.84362 0.21902 0.4405 0.0
C888 C 0.83786 0.2106 0.41396 0.0
C889 C 0.83708 0.18873 0.4043 0.0
C890 C 0.8423 0.17552 0.42178 0.0
C891 C 0.84813 0.184 0.4483 0.0
C892 C 0.8952 0.2477 0.47672 0.0
C893 C 0.90121 0.27082 0.46911 0.0
C894 C 0.91725 0.28065 0.45081 0.0
C895 C 0.9274 0.26743 0.43989 0.0
C896 C 0.92165 0.24452 0.44803 0.0
C897 C 0.90572 0.23478 0.4663 0.0
C898 C 0.90715 0.26741 0.53145 0.0
C899 C 0.90848 0.2893 0.54186 0.0
C900 C 0.93044 0.30941 0.55331 0.0
C901 C 0.95141 0.30788 0.55469 0.0
C902 C 0.95003 0.28605 0.54372 0.0
C903 C 0.92809 0.26601 0.53215 0.0
C904 C 0.87543 0.24001 0.56796 0.0
C905 C 0.86479 0.25032 0.5831 0.0
C906 C 0.87279 0.25795 0.60966 0.0
C907 C 0.89148 0.25531 0.62137 0.0
C908 C 0.90184 0.24472 0.60611 0.0
C909 C 0.89383 0.23707 0.57971 0.0
C910 C 0.82965 0.19589 0.54953 0.0
C911 C 0.80691 0.19326 0.55023 0.0
C912 C 0.79091 0.17686 0.56563 0.0
C913 C 0.79747 0.1628 0.58023 0.0
C914 C 0.82061 0.16629 0.58039 0.0
C915 C 0.83661 0.18277 0.56518 0.0
C916 C 0.83088 0.1798 0.3761 0.0
C917 C 0.9745 0.32863 0.56813 0.0
H918 H 0.95768 0.52039 0.3779 0.0
H919 H 0.02415 0.35986 0.20486 0.0
H920 H 0.94944 0.51114 0.24135 0.0
H921 H 0.96106 0.55413 0.25571 0.0
H922 H 0.03237 0.57848 0.23544 0.0
H923 H 0.02034 0.53592 0.22028 0.0
H924 H 0.94488 0.46419 0.27759 0.0
H925 H 0.94362 0.48194 0.32046 0.0
H926 H 0.01502 0.54378 0.31865 0.0
H927 H 0.01623 0.52562 0.2761 0.0
H928 H 0.95819 0.41546 0.25861 0.0
H929 H 0.97355 0.39834 0.29021 0.0
H930 H 0.03567 0.47098 0.31367 0.0
H931 H 0.02178 0.4871 0.27983 0.0
H932 H 0.94978 0.40428 0.19708 0.0
H933 H 0.95686 0.36976 0.1892 0.0
H934 H 0.03072 0.41707 0.22321 0.0
H935 H 0.02349 0.4515 0.23059 0.0
H936 H 0.94174 0.4351 0.15797 0.0
H937 H 0.94256 0.41357 0.117 0.0
H938 H 0.01901 0.44511 0.13559 0.0
H939 H 0.01803 0.46636 0.17636 0.0
H940 H 0.93946 0.48779 0.18139 0.0
H941 H 0.93995 0.51681 0.15204 0.0
H942 H 0.01283 0.53859 0.1406 0.0
H943 H 0.01226 0.50951 0.16986 0.0
O944 O 0.95866 0.51354 0.36109 0.0
O945 O 0.99519 0.54518 0.35891 0.0
O946 O 0.98279 0.3497 0.19015 0.0
O947 O 0.02081 0.37314 0.20786 0.0
C948 C 0.97913 0.49477 0.22538 0.0
C949 C 0.98062 0.48319 0.24711 0.0
C950 C 0.98266 0.46189 0.2437 0.0
C951 C 0.98201 0.45153 0.21832 0.0
C952 C 0.979 0.46232 0.19646 0.0
C953 C 0.97746 0.48389 0.20002 0.0
C954 C 0.98403 0.5205 0.22969 0.0
C955 C 0.96735 0.52591 0.23947 0.0
C956 C 0.97416 0.55038 0.24806 0.0
C957 C 0.99782 0.56966 0.2473 0.0
C958 C 0.01401 0.56413 0.23626 0.0
C959 C 0.00714 0.53983 0.22745 0.0
C960 C 0.9805 0.49373 0.27359 0.0
C961 C 0.96026 0.4815 0.28655 0.0
C962 C 0.95958 0.49172 0.31101 0.0
C963 C 0.97917 0.51436 0.32293 0.0
C964 C -0.00042 0.52639 0.30999 0.0
C965 C 0.00027 0.5161 0.28562 0.0
C966 C 0.98887 0.45253 0.26672 0.0
C967 C 0.97494 0.42772 0.27085 0.0
C968 C 0.98358 0.41806 0.28932 0.0
C969 C 0.0059 0.43331 0.30459 0.0
C970 C 0.01856 0.45866 0.30206 0.0
C971 C 0.01044 0.46802 0.28293 0.0
C972 C 0.98608 0.43033 0.21452 0.0
C973 C 0.96745 0.40711 0.20284 0.0
C974 C 0.97155 0.38745 0.19837 0.0
C975 C 0.99437 0.39066 0.20558 0.0
C976 C 0.01294 0.41395 0.21743 0.0
C977 C 0.00884 0.43362 0.22177 0.0
C978 C 0.9798 0.45215 0.17015 0.0
C979 C 0.95868 0.4376 0.15295 0.0
C980 C 0.95916 0.42527 0.1297 0.0
C981 C 0.98076 0.42725 0.12346 0.0
C982 C 0.00202 0.44274 0.14023 0.0
C983 C 0.00154 0.45508 0.16335 0.0
C984 C 0.97579 0.4965 0.17765 0.0
C985 C 0.95521 0.49817 0.17179 0.0
C986 C 0.9555 0.51469 0.15507 0.0
C987 C 0.97646 0.52992 0.14429 0.0
C988 C 0.99648 0.52698 0.14875 0.0
C989 C 0.99612 0.51032 0.16529 0.0
C990 C 0.97826 0.52536 0.34871 0.0
C991 C 0.99887 0.36988 0.2007 0.0
H992 H 0.50383 0.5236 0.39632 0.0
H993 H 0.34255 0.31437 0.17126 0.0
H994 H 0.5081 0.52244 0.23244 0.0
H995 H 0.54137 0.56264 0.25176 0.0
H996 H 0.57104 0.5266 0.29615 0.0
H997 H 0.53842 0.48622 0.27509 0.0
H998 H 0.48225 0.50345 0.28319 0.0
H999 H 0.49039 0.5178 0.32975 0.0
H1000 H 0.50264 0.45801 0.34453 0.0
H1001 H 0.49472 0.44405 0.29789 0.0
H1002 H 0.43001 0.45849 0.26252 0.0
H1003 H 0.40235 0.44395 0.29536 0.0
H1004 H 0.42164 0.38877 0.30852 0.0
H1005 H 0.44952 0.40364 0.27571 0.0
H1006 H 0.41432 0.43577 0.20606 0.0
H1007 H 0.37495 0.40072 0.18794 0.0
H1008 H 0.40201 0.35104 0.19789 0.0
H1009 H 0.44134 0.38634 0.21581 0.0
H1010 H 0.44839 0.46414 0.17407 0.0
H1011 H 0.43325 0.45076 0.12804 0.0
H1012 H 0.46044 0.40054 0.12696 0.0
H1013 H 0.47655 0.41494 0.17314 0.0
H1014 H 0.48989 0.49962 0.1835 0.0
H1015 H 0.52049 0.52819 0.15873 0.0
H1016 H 0.56675 0.50042 0.18259 0.0
H1017 H 0.53575 0.47139 0.2072 0.0
O1018 O 0.50082 0.5177 0.37799 0.0
O1019 O 0.50679 0.48655 0.38454 0.0
O1020 O 0.34522 0.355 0.17264 0.0
O1021 O 0.35787 0.32852 0.17849 0.0
C1022 C 0.49927 0.4771 0.24188 0.0
C1023 C 0.48271 0.46389 0.25904 0.0
C1024 C 0.46025 0.44303 0.24924 0.0
C1025 C 0.45453 0.43484 0.22242 0.0
C1026 C 0.47111 0.44776 0.20519 0.0
C1027 C 0.49351 0.46883 0.21491 0.0
C1028 C 0.52101 0.50134 0.25192 0.0
C1029 C 0.5222 0.52317 0.24562 0.0
C1030 C 0.54102 0.54615 0.25707 0.0
C1031 C 0.55884 0.54786 0.2756 0.0
C1032 C 0.55786 0.52596 0.28164 0.0
C1033 C 0.53918 0.50289 0.26974 0.0
C1034 C 0.48804 0.47282 0.28724 0.0
C1035 C 0.48685 0.4936 0.29653 0.0
C1036 C 0.49144 0.5017 0.32312 0.0
C1037 C 0.49718 0.48906 0.34087 0.0
C1038 C 0.4983 0.46818 0.3314 0.0
C1039 C 0.49378 0.46016 0.3048 0.0
C1040 C 0.44165 0.43205 0.26683 0.0
C1041 C 0.428 0.44305 0.27229 0.0
C1042 C 0.4123 0.43479 0.29101 0.0
C1043 C 0.41015 0.4155 0.30468 0.0
C1044 C 0.42334 0.40399 0.29858 0.0
C1045 C 0.43901 0.41224 0.27973 0.0
C1046 C 0.43057 0.4135 0.21217 0.0
C1047 C 0.41165 0.41728 0.20433 0.0
C1048 C 0.38922 0.39724 0.19398 0.0
C1049 C 0.38534 0.37306 0.19143 0.0
C1050 C 0.40438 0.3694 0.19956 0.0
C1051 C 0.42684 0.38949 0.20982 0.0
C1052 C 0.46373 0.44067 0.17683 0.0
C1053 C 0.45148 0.45059 0.1638 0.0
C1054 C 0.4426 0.4427 0.13761 0.0
C1055 C 0.44527 0.42425 0.12406 0.0
C1056 C 0.45814 0.41477 0.13696 0.0
C1057 C 0.46729 0.42292 0.16324 0.0
C1058 C 0.5105 0.48325 0.19688 0.0
C1059 C 0.50621 0.499 0.18262 0.0
C1060 C 0.52373 0.51542 0.16869 0.0
C1061 C 0.54584 0.51639 0.1689 0.0
C1062 C 0.5497 0.49975 0.18204 0.0
C1063 C 0.53212 0.48331 0.19609 0.0
C1064 C 0.5019 0.49761 0.36912 0.0
C1065 C 0.36158 0.35173 0.1803 0.0
H1066 H 0.51141 0.99537 0.42478 0.0
H1067 H 0.33679 0.97007 0.19039 0.0
H1068 H 0.54098 0.03747 0.2998 0.0
H1069 H 0.57178 0.03143 0.322 0.0
H1070 H 0.54657 0.96394 0.27059 0.0
H1071 H 0.51498 0.96953 0.2493 0.0
H1072 H 0.49642 0.02967 0.32755 0.0
H1073 H 0.50373 0.02187 0.37169 0.0
H1074 H 0.49487 0.95166 0.34108 0.0
H1075 H 0.48718 0.95951 0.2971 0.0
H1076 H 0.45251 0.03038 0.29827 0.0
H1077 H 0.42545 0.02188 0.33171 0.0
H1078 H 0.4102 0.94646 0.32573 0.0
H1079 H 0.43741 0.95516 0.29257 0.0
H1080 H 0.45292 0.04003 0.23605 0.0
H1081 H 0.4158 0.03657 0.21628 0.0
H1082 H 0.37793 0.9582 0.22241 0.0
H1083 H 0.41522 0.96188 0.24189 0.0
H1084 H 0.49601 0.04784 0.20594 0.0
H1085 H 0.48248 0.05175 0.16206 0.0
H1086 H 0.42904 0.97403 0.15152 0.0
H1087 H 0.44265 0.97021 0.1951 0.0
H1088 H 0.5412 0.04745 0.23307 0.0
H1089 H 0.56658 0.0513 0.19862 0.0
H1090 H 0.51537 0.97624 0.16548 0.0
H1091 H 0.49039 0.97242 0.19993 0.0
O1092 O 0.50851 0.9981 0.40717 0.0
O1093 O 0.50423 0.96239 0.3904 0.0
O1094 O 0.37162 0.01261 0.19709 0.0
O1095 O 0.35139 0.97217 0.19944 0.0
C1096 C 0.50337 0.0042 0.26451 0.0
C1097 C 0.4866 -0.00015 0.28239 0.0
C1098 C 0.46485 0.99904 0.27464 0.0
C1099 C 0.45985 0.00277 0.24911 0.0
C1100 C 0.47637 0.00674 0.23111 0.0
C1101 C 0.49805 0.00735 0.23875 0.0
C1102 C 0.5257 0.00396 0.27291 0.0
C1103 C 0.54257 0.02177 0.29281 0.0
C1104 C 0.56026 0.01833 0.30542 0.0
C1105 C 0.56169 0.99719 0.29806 0.0
C1106 C 0.54584 0.98032 0.27683 0.0
C1107 C 0.52797 0.98365 0.26441 0.0
C1108 C 0.49138 0.99521 0.30915 0.0
C1109 C 0.49603 0.01261 0.33045 0.0
C1110 C 0.50023 0.00811 0.35563 0.0
C1111 C 0.49991 0.98615 0.35992 0.0
C1112 C 0.49527 0.96877 0.33847 0.0
C1113 C 0.49096 0.97324 0.31332 0.0
C1114 C 0.447 0.99343 0.2932 0.0
C1115 C 0.44315 0.012 0.30408 0.0
C1116 C 0.42777 0.00713 0.32312 0.0
C1117 C 0.41609 0.98364 0.33158 0.0
C1118 C 0.41943 0.96488 0.32002 0.0
C1119 C 0.43478 0.96975 0.30099 0.0
C1120 C 0.43673 0.00124 0.2405 0.0
C1121 C 0.43651 0.02221 0.23344 0.0
C1122 C 0.41531 0.02016 0.22206 0.0
C1123 C 0.39392 0.99706 0.2176 0.0
C1124 C 0.39408 0.97624 0.2255 0.0
C1125 C 0.41531 0.97832 0.23683 0.0
C1126 C 0.47011 0.0088 0.20375 0.0
C1127 C 0.48159 0.03164 0.19398 0.0
C1128 C 0.47386 0.03385 0.16904 0.0
C1129 C 0.45444 0.01329 0.15372 0.0
C1130 C 0.4437 0.99026 0.1632 0.0
C1131 C 0.4515 0.98803 0.18797 0.0
C1132 C 0.51416 0.00958 0.21907 0.0
C1133 C 0.53564 0.03183 0.21845 0.0
C1134 C 0.54991 0.03409 0.1987 0.0
C1135 C 0.54287 0.01403 0.17954 0.0
C1136 C 0.52125 0.99187 0.18019 0.0
C1137 C 0.50705 0.98965 0.19981 0.0
C1138 C 0.50434 0.98141 0.38669 0.0
C1139 C 0.37168 0.99454 0.20418 0.0
H1140 H 0.49556 0.04525 0.67484 0.0
H1141 H 0.64394 0.9771 0.86197 0.0
H1142 H 0.49388 0.03451 0.81545 0.0
H1143 H 0.46484 0.04083 0.7896 0.0
H1144 H 0.41898 0.96186 0.77051 0.0
H1145 H 0.44818 0.95565 0.79664 0.0
H1146 H 0.53116 0.03976 0.77913 0.0
H1147 H 0.52164 0.04933 0.73672 0.0
H1148 H 0.46851 0.97212 0.7145 0.0
H1149 H 0.47839 0.96281 0.75693 0.0
H1150 H 0.57474 0.03598 0.80306 0.0
H1151 H 0.60151 0.04396 0.76945 0.0
H1152 H 0.55253 0.97089 0.72929 0.0
H1153 H 0.52571 0.96323 0.76273 0.0
H1154 H 0.57413 0.02693 0.86384 0.0
H1155 H 0.61157 0.02859 0.87898 0.0
H1156 H 0.58862 0.96061 0.82926 0.0
H1157 H 0.55109 0.95899 0.81455 0.0
H1158 H 0.52858 0.0174 0.89266 0.0
H1159 H 0.5417 0.01389 0.93674 0.0
H1160 H 0.53994 0.94685 0.90832 0.0
H1161 H 0.52566 0.94966 0.86439 0.0
H1162 H 0.48829 0.01998 0.86415 0.0
H1163 H 0.46453 0.01438 0.90017 0.0
H1164 H 0.44841 0.93883 0.89803 0.0
H1165 H 0.47167 0.94435 0.86137 0.0
O1166 O 0.49941 0.04097 0.69127 0.0
O1167 O 0.4724 0.00105 0.68075 0.0
O1168 O 0.64068 0.01235 0.88067 0.0
O1169 O 0.62948 0.97713 0.85593 0.0
C1170 C 0.49397 0.9917 0.81566 0.0
C1171 C 0.51019 0.99522 0.79741 0.0
C1172 C 0.53139 0.99485 0.80453 0.0
C1173 C 0.53668 0.99129 0.83007 0.0
C1174 C 0.52017 0.98705 0.84821 0.0
C1175 C 0.49864 0.98697 0.84087 0.0
C1176 C 0.47309 0.99462 0.80803 0.0
C1177 C 0.47706 0.01854 0.80671 0.0
C1178 C 0.46059 0.02212 0.79172 0.0
C1179 C 0.43979 0.00184 0.7779 0.0
C1180 C 0.43476 0.9778 0.78118 0.0
C1181 C 0.45134 0.97421 0.79618 0.0
C1182 C 0.50545 0.00061 0.77103 0.0
C1183 C 0.51766 0.02493 0.76495 0.0
C1184 C 0.5121 0.03034 0.74077 0.0
C1185 C 0.49425 0.01151 0.72225 0.0
C1186 C 0.48233 0.98707 0.72833 0.0
C1187 C 0.48794 0.98168 0.7525 0.0
C1188 C 0.54835 0.99905 0.78525 0.0
C1189 C 0.56992 0.02168 0.78707 0.0
C1190 C 0.58512 0.02619 0.76791 0.0
C1191 C 0.5789 0.00816 0.74661 0.0
C1192 C 0.55749 0.98531 0.74518 0.0
C1193 C 0.5423 0.98083 0.76432 0.0
C1194 C 0.55989 0.99283 0.83814 0.0
C1195 C 0.57725 0.01244 0.85621 0.0
C1196 C 0.59862 0.01335 0.86482 0.0
C1197 C 0.60307 0.9947 0.85537 0.0
C1198 C 0.58575 0.97525 0.83696 0.0
C1199 C 0.56435 0.97433 0.82843 0.0
C1200 C 0.52609 0.98375 0.87527 0.0
C1201 C 0.53037 0.00158 0.89602 0.0
C1202 C 0.53792 -0.00036 0.9211 0.0
C1203 C 0.54176 0.98013 0.92568 0.0
C1204 C 0.53702 0.96201 0.9051 0.0
C1205 C 0.52897 0.96366 0.88011 0.0
C1206 C 0.48153 0.98253 0.86003 0.0
C1207 C 0.47916 0.00206 0.87103 0.0
C1208 C 0.466 0.99896 0.8919 0.0
C1209 C 0.45516 0.97634 0.90224 0.0
C1210 C 0.45673 0.95648 0.89051 0.0
C1211 C 0.46987 0.95958 0.86957 0.0
C1212 C 0.48798 0.01742 0.69681 0.0
C1213 C 0.62558 0.99537 0.86478 0.0
H1214 H 0.97567 0.45413 0.69655 0.0
H1215 H 0.05212 0.69133 0.87531 0.0
H1216 H 0.98795 0.4774 0.84813 0.0
H1217 H 0.97542 0.43412 0.83572 0.0
H1218 H 0.04861 0.45521 0.82619 0.0
H1219 H 0.06101 0.49892 0.83834 0.0
H1220 H 0.98393 0.50089 0.80098 0.0
H1221 H 0.97329 0.47872 0.75712 0.0
H1222 H 0.04827 0.50435 0.75211 0.0
H1223 H 0.05863 0.52658 0.79597 0.0
H1224 H 0.9852 0.54618 0.82625 0.0
H1225 H 0.96849 0.55965 0.79209 0.0
H1226 H 0.03407 0.58732 0.75677 0.0
H1227 H 0.05102 0.57404 0.79181 0.0
H1228 H 0.99889 0.56944 0.87773 0.0
H1229 H 0.99884 0.60812 0.88644 0.0
H1230 H 0.06739 0.64744 0.85727 0.0
H1231 H 0.06739 0.60863 0.8491 0.0
H1232 H 0.00176 0.5364 0.91009 0.0
H1233 H 0.00091 0.55854 0.9502 0.0
H1234 H 0.0746 0.61501 0.9483 0.0
H1235 H 0.07543 0.59257 0.90799 0.0
H1236 H 0.00066 0.49701 0.9003 0.0
H1237 H 0.00242 0.46907 0.92949 0.0
H1238 H 0.07848 0.50223 0.92559 0.0
H1239 H 0.07664 0.53053 0.89658 0.0
O1240 O 0.98029 0.46313 0.71381 0.0
O1241 O 0.01905 0.47672 0.71224 0.0
O1242 O 0.01666 0.65473 0.88729 0.0
O1243 O 0.0517 0.67577 0.87209 0.0
C1244 C 0.03172 0.51727 0.84925 0.0
C1245 C 0.0284 0.52857 0.82822 0.0
C1246 C 0.0288 0.55109 0.83285 0.0
C1247 C 0.03361 0.56292 0.85846 0.0
C1248 C 0.03731 0.55179 0.8796 0.0
C1249 C 0.03639 0.52894 0.87494 0.0
C1250 C 0.02539 0.49113 0.84445 0.0
C1251 C 0.00134 0.47263 0.84382 0.0
C1252 C 0.99425 0.44796 0.83678 0.0
C1253 C 0.01112 0.44133 0.83035 0.0
C1254 C 0.03531 0.4599 0.83115 0.0
C1255 C 0.04242 0.48472 0.83823 0.0
C1256 C 0.02205 0.51545 0.80147 0.0
C1257 C 0.99802 0.5018 0.79028 0.0
C1258 C 0.992 0.48911 0.76527 0.0
C1259 C 0.00994 0.48978 0.75108 0.0
C1260 C 0.03403 0.50347 0.76248 0.0
C1261 C 0.04001 0.51619 0.78749 0.0
C1262 C 0.01939 0.55952 0.81164 0.0
C1263 C 0.99596 0.55512 0.81112 0.0
C1264 C 0.98629 0.56237 0.7913 0.0
C1265 C -0.00022 0.57398 0.7714 0.0
C1266 C 0.02324 0.57813 0.77174 0.0
C1267 C 0.03296 0.57078 0.79172 0.0
C1268 C 0.03332 0.58633 0.86315 0.0
C1269 C 0.01398 0.58646 0.87346 0.0
C1270 C 0.01394 0.60856 0.87829 0.0
C1271 C 0.03317 0.63091 0.87263 0.0
C1272 C 0.05235 0.63059 0.86194 0.0
C1273 C 0.0524 0.60847 0.85722 0.0
C1274 C 0.03879 0.56263 0.90639 0.0
C1275 C 0.018 0.55306 0.91878 0.0
C1276 C 0.01739 0.56594 0.94138 0.0
C1277 C 0.03758 0.5886 0.95199 0.0
C1278 C 0.05882 0.59757 0.94038 0.0
C1279 C 0.05937 0.58473 0.91757 0.0
C1280 C 0.03858 0.516 0.89667 0.0
C1281 C 0.01787 0.49893 0.90657 0.0
C1282 C 0.01887 0.48288 0.92303 0.0
C1283 C 0.04059 0.48357 0.92978 0.0
C1284 C 0.06161 0.50161 0.92101 0.0
C1285 C 0.06058 0.51771 0.90446 0.0
C1286 C 0.00347 0.47619 0.72455 0.0
C1287 C 0.03325 0.65445 0.87781 0.0
H1288 H 0.48177 0.51006 0.67771 0.0
H1289 H 0.67975 0.65144 0.91277 0.0
H1290 H 0.46369 0.5196 0.81031 0.0
H1291 H 0.42787 0.47953 0.79356 0.0
H1292 H 0.45967 0.44224 0.83192 0.0
H1293 H 0.49479 0.48207 0.84902 0.0
H1294 H 0.51044 0.56106 0.78372 0.0
H1295 H 0.49811 0.54573 0.73745 0.0
H1296 H 0.50233 0.4809 0.7508 0.0
H1297 H 0.51492 0.4966 0.79696 0.0
H1298 H 0.56156 0.60459 0.81367 0.0
H1299 H 0.59031 0.62173 0.78201 0.0
H1300 H 0.59345 0.55466 0.77366 0.0
H1301 H 0.56517 0.53791 0.80557 0.0
H1302 H 0.56467 0.61492 0.87829 0.0
H1303 H 0.60488 0.64715 0.89799 0.0
H1304 H 0.63212 0.59873 0.87769 0.0
H1305 H 0.59182 0.56662 0.85829 0.0
H1306 H 0.52144 0.58237 0.9089 0.0
H1307 H 0.53803 0.59849 0.95469 0.0
H1308 H 0.58173 0.56469 0.95027 0.0
H1309 H 0.56527 0.54887 0.90475 0.0
H1310 H 0.46849 0.53475 0.86952 0.0
H1311 H 0.43713 0.50982 0.89594 0.0
H1312 H 0.48296 0.48576 0.93126 0.0
H1313 H 0.51406 0.51026 0.90444 0.0
O1314 O 0.48684 0.51586 0.69604 0.0
O1315 O 0.48915 0.48282 0.70397 0.0
O1316 O 0.64953 0.66445 0.91233 0.0
O1317 O 0.66397 0.63956 0.90395 0.0
C1318 C 0.50431 0.52747 0.83978 0.0
C1319 C 0.52052 0.53915 0.82178 0.0
C1320 C 0.54371 0.55936 0.83054 0.0
C1321 C 0.5506 0.56813 0.85726 0.0
C1322 C 0.53422 0.55673 0.87529 0.0
C1323 C 0.51095 0.53663 0.86651 0.0
C1324 C 0.48172 0.50369 0.83102 0.0
C1325 C 0.4627 0.50272 0.81524 0.0
C1326 C 0.44243 0.47986 0.80548 0.0
C1327 C 0.44104 0.45771 0.81123 0.0
C1328 C 0.46007 0.45894 0.82733 0.0
C1329 C 0.48014 0.48167 0.83715 0.0
C1330 C 0.51339 0.52986 0.79367 0.0
C1331 C 0.50874 0.54359 0.77657 0.0
C1332 C 0.50167 0.53476 0.75017 0.0
C1333 C 0.49914 0.51204 0.74043 0.0
C1334 C 0.50402 0.49843 0.75766 0.0
C1335 C 0.51116 0.50731 0.78403 0.0
C1336 C 0.56134 0.57005 0.81184 0.0
C1337 C 0.56861 0.59373 0.80508 0.0
C1338 C 0.58488 0.6034 0.78699 0.0
C1339 C 0.59419 0.58956 0.77561 0.0
C1340 C 0.58685 0.56586 0.78248 0.0
C1341 C 0.57061 0.55622 0.8005 0.0
C1342 C 0.57538 0.58851 0.86676 0.0
C1343 C 0.57942 0.61144 0.87787 0.0
C1344 C 0.60237 0.62978 0.88917 0.0
C1345 C 0.6217 0.62547 0.88953 0.0
C1346 C 0.61765 0.60264 0.8778 0.0
C1347 C 0.59468 0.58433 0.86653 0.0
C1348 C 0.54236 0.56469 0.9035 0.0
C1349 C 0.53444 0.57832 0.91795 0.0
C1350 C 0.54392 0.5875 0.94399 0.0
C1351 C 0.5615 0.58324 0.9558 0.0
C1352 C 0.56866 0.56879 0.94146 0.0
C1353 C 0.55919 0.55962 0.91557 0.0
C1354 C 0.49358 0.52441 0.88515 0.0
C1355 C 0.47193 0.52448 0.88333 0.0
C1356 C 0.45411 0.51033 0.8984 0.0
C1357 C 0.45781 0.49614 0.91575 0.0
C1358 C 0.47991 0.49697 0.91841 0.0
C1359 C 0.49764 0.51091 0.90311 0.0
C1360 C 0.49143 0.50262 0.71241 0.0
C1361 C 0.64588 0.64442 0.90255 0.0
H1362 H 0.61614 0.8363 0.72476 0.0
H1363 H 0.68155 0.68653 0.53781 0.0
H1364 H 0.60518 0.83369 0.59055 0.0
H1365 H 0.61753 0.87602 0.60918 0.0
H1366 H 0.68441 0.90337 0.57672 0.0
H1367 H 0.67281 0.86136 0.55976 0.0
H1368 H 0.60164 0.78522 0.62084 0.0
H1369 H 0.60125 0.80065 0.66522 0.0
H1370 H 0.67076 0.86521 0.66269 0.0
H1371 H 0.67111 0.8494 0.61855 0.0
H1372 H 0.61617 0.73904 0.5987 0.0
H1373 H 0.63331 0.72225 0.62876 0.0
H1374 H 0.69423 0.79566 0.65228 0.0
H1375 H 0.67861 0.81154 0.61987 0.0
H1376 H 0.60614 0.72974 0.53675 0.0
H1377 H 0.61352 0.69571 0.52655 0.0
H1378 H 0.68771 0.74293 0.55948 0.0
H1379 H 0.68016 0.77687 0.56924 0.0
H1380 H 0.59898 0.76104 0.49827 0.0
H1381 H 0.60169 0.74177 0.45678 0.0
H1382 H 0.67835 0.77646 0.47693 0.0
H1383 H 0.67546 0.79531 0.51827 0.0
H1384 H 0.59605 0.81556 0.52503 0.0
H1385 H 0.59758 0.8455 0.49629 0.0
H1386 H 0.66967 0.86485 0.48397 0.0
H1387 H 0.66812 0.83497 0.51254 0.0
O1388 O 0.61672 0.83049 0.70725 0.0
O1389 O 0.6524 0.86339 0.70489 0.0
O1390 O 0.63979 0.6761 0.52507 0.0
O1391 O 0.67809 0.6996 0.54183 0.0
C1392 C 0.63409 0.81901 0.56825 0.0
C1393 C 0.63608 0.8068 0.58926 0.0
C1394 C 0.63885 0.78601 0.5847 0.0
C1395 C 0.63827 0.77664 0.55893 0.0
C1396 C 0.63523 0.78819 0.53783 0.0
C1397 C 0.63308 0.80935 0.54244 0.0
C1398 C 0.63812 0.8444 0.57383 0.0
C1399 C 0.62227 0.84893 0.58706 0.0
C1400 C 0.62934 0.87302 0.59772 0.0
C1401 C 0.65222 0.89274 0.59505 0.0
C1402 C 0.667 0.88835 0.57977 0.0
C1403 C 0.66016 0.86441 0.56958 0.0
C1404 C 0.63623 0.81631 0.61634 0.0
C1405 C 0.61677 0.80267 0.62993 0.0
C1406 C 0.61659 0.81154 0.65526 0.0
C1407 C 0.63593 0.83421 0.66747 0.0
C1408 C 0.65554 0.84773 0.65384 0.0
C1409 C 0.65573 0.83879 0.62857 0.0
C1410 C 0.64612 0.77654 0.60692 0.0
C1411 C 0.63305 0.75152 0.61063 0.0
C1412 C 0.64271 0.74203 0.62821 0.0
C1413 C 0.66521 0.75762 0.64304 0.0
C1414 C 0.67703 0.78307 0.64098 0.0
C1415 C 0.6679 0.79229 0.62268 0.0
C1416 C 0.64257 0.75569 0.55388 0.0
C1417 C 0.62394 0.73265 0.54181 0.0
C1418 C 0.62822 0.71327 0.536 0.0
C1419 C 0.65122 0.71661 0.54221 0.0
C1420 C 0.6698 0.73972 0.55446 0.0
C1421 C 0.66552 0.75911 0.56016 0.0
C1422 C 0.63701 0.77947 0.51125 0.0
C1423 C 0.61636 0.76472 0.49349 0.0
C1424 C 0.61793 0.75368 0.46993 0.0
C1425 C 0.64016 0.7572 0.46395 0.0
C1426 C 0.66091 0.77289 0.48134 0.0
C1427 C 0.65933 0.78388 0.50478 0.0
C1428 C 0.63192 0.82297 0.52076 0.0
C1429 C 0.61185 0.82565 0.51541 0.0
C1430 C 0.61272 0.84268 0.49905 0.0
C1431 C 0.63376 0.85739 0.48811 0.0
C1432 C 0.65325 0.85359 0.49218 0.0
C1433 C 0.65231 0.83643 0.50831 0.0
C1434 C 0.63561 0.84365 0.69431 0.0
C1435 C 0.65592 0.69616 0.53583 0.0
H1436 H 0.15468 0.81436 0.73981 0.0
H1437 H 0.01053 0.63588 0.50865 0.0
H1438 H 0.15932 0.84018 0.60463 0.0
H1439 H 0.19169 0.88178 0.62149 0.0
H1440 H 0.2435 0.86389 0.59517 0.0
H1441 H 0.2109 0.82144 0.57972 0.0
H1442 H 0.12488 0.80304 0.62864 0.0
H1443 H 0.13262 0.8102 0.67601 0.0
H1444 H 0.18846 0.79184 0.67305 0.0
H1445 H 0.18021 0.78428 0.62563 0.0
H1446 H 0.08411 0.76781 0.58617 0.0
H1447 H 0.05619 0.75225 0.61842 0.0
H1448 H 0.0946 0.71866 0.65071 0.0
H1449 H 0.12294 0.73491 0.6186 0.0
H1450 H 0.08139 0.75859 0.52923 0.0
H1451 H 0.04336 0.72211 0.51041 0.0
H1452 H 0.06816 0.67508 0.53952 0.0
H1453 H 0.10629 0.71176 0.5579 0.0
H1454 H 0.12087 0.79897 0.50945 0.0
H1455 H 0.10586 0.78761 0.46306 0.0
H1456 H 0.12185 0.72872 0.46081 0.0
H1457 H 0.13676 0.74007 0.50747 0.0
H1458 H 0.16001 0.83992 0.54089 0.0
H1459 H 0.18914 0.87127 0.51694 0.0
H1460 H 0.22069 0.82588 0.50235 0.0
H1461 H 0.19083 0.79414 0.52566 0.0
O1462 O 0.15212 0.81172 0.72102 0.0
O1463 O 0.18137 0.80319 0.71843 0.0
O1464 O 0.01381 0.6756 0.50067 0.0
O1465 O 0.02553 0.6506 0.51558 0.0
C1466 C 0.16241 0.80313 0.5791 0.0
C1467 C 0.14623 0.7871 0.595 0.0
C1468 C 0.12454 0.76596 0.58359 0.0
C1469 C 0.11967 0.75996 0.55635 0.0
C1470 C 0.1362 0.77557 0.54039 0.0
C1471 C 0.15737 0.79729 0.55177 0.0
C1472 C 0.1827 0.82772 0.59093 0.0
C1473 C 0.17768 0.84498 0.60303 0.0
C1474 C 0.19616 0.86884 0.61236 0.0
C1475 C 0.22005 0.87619 0.60915 0.0
C1476 C 0.22523 0.85868 0.59787 0.0
C1477 C 0.20666 0.83455 0.58888 0.0
C1478 C 0.15178 0.79284 0.62372 0.0
C1479 C 0.1387 0.80046 0.63826 0.0
C1480 C 0.14321 0.80461 0.66532 0.0
C1481 C 0.16108 0.80147 0.67833 0.0
C1482 C 0.17451 0.79434 0.66364 0.0
C1483 C 0.16989 0.79007 0.63657 0.0
C1484 C 0.10549 0.75245 0.60008 0.0
C1485 C 0.08618 0.75662 0.59984 0.0
C1486 C 0.07033 0.74783 0.61834 0.0
C1487 C 0.07351 0.73466 0.63737 0.0
C1488 C 0.09212 0.72932 0.63668 0.0
C1489 C 0.10808 0.73825 0.61819 0.0
C1490 C 0.0967 0.73779 0.54463 0.0
C1491 C 0.07869 0.74039 0.53124 0.0
C1492 C 0.05693 0.71952 0.52064 0.0
C1493 C 0.05272 0.69565 0.52344 0.0
C1494 C 0.07082 0.69317 0.53697 0.0
C1495 C 0.09261 0.71407 0.54748 0.0
C1496 C 0.12998 0.7704 0.51176 0.0
C1497 C 0.12156 0.78391 0.49886 0.0
C1498 C 0.11286 0.77732 0.4725 0.0
C1499 C 0.11259 0.75721 0.45857 0.0
C1500 C 0.12195 0.74431 0.47122 0.0
C1501 C 0.13043 0.75076 0.49774 0.0
C1502 C 0.17351 0.81494 0.53512 0.0
C1503 C 0.17303 0.83665 0.53222 0.0
C1504 C 0.18978 0.85457 0.51877 0.0
C1505 C 0.2075 0.85122 0.50831 0.0
C1506 C 0.20726 0.82894 0.51027 0.0
C1507 C 0.19031 0.81087 0.52356 0.0
C1508 C 0.16556 0.80551 0.70712 0.0
C1509 C 0.02951 0.67343 0.5125 0.0
H1510 H 0.19821 0.36761 0.75995 0.0
H1511 H 0.02656 0.37331 0.54646 0.0
H1512 H 0.22052 0.39481 0.62976 0.0
H1513 H 0.24855 0.38383 0.65014 0.0
H1514 H 0.20955 0.31194 0.60457 0.0
H1515 H 0.18117 0.3228 0.58483 0.0
H1516 H 0.18048 0.3975 0.66084 0.0
H1517 H 0.18981 0.39198 0.70537 0.0
H1518 H 0.169 0.31631 0.67947 0.0
H1519 H 0.15939 0.32198 0.63512 0.0
H1520 H 0.13686 0.40077 0.63813 0.0
H1521 H 0.10807 0.39299 0.66974 0.0
H1522 H 0.08459 0.3152 0.65808 0.0
H1523 H 0.11307 0.32302 0.62663 0.0
H1524 H 0.14325 0.41286 0.57249 0.0
H1525 H 0.11121 0.42112 0.55934 0.0
H1526 H 0.05832 0.34641 0.56989 0.0
H1527 H 0.09057 0.33833 0.58283 0.0
H1528 H 0.1773 0.40185 0.53224 0.0
H1529 H 0.16514 0.39909 0.48596 0.0
H1530 H 0.09738 0.33353 0.492 0.0
H1531 H 0.11069 0.33505 0.53737 0.0
H1532 H 0.21764 0.39958 0.56377 0.0
H1533 H 0.23917 0.39659 0.52794 0.0
H1534 H 0.17885 0.32423 0.49928 0.0
H1535 H 0.15753 0.32724 0.53512 0.0
O1536 O 0.19427 0.36934 0.74224 0.0
O1537 O 0.18357 0.33064 0.72789 0.0
O1538 O 0.06741 0.40972 0.55016 0.0
O1539 O 0.03955 0.37066 0.55211 0.0
C1540 C 0.17859 0.36385 0.5986 0.0
C1541 C 0.16411 0.36381 0.61771 0.0
C1542 C 0.1441 0.36649 0.61104 0.0
C1543 C 0.13895 0.37007 0.58545 0.0
C1544 C 0.1527 0.36901 0.56602 0.0
C1545 C 0.17251 0.36586 0.57264 0.0
C1546 C 0.19878 0.35962 0.6058 0.0
C1547 C 0.21849 0.37699 0.62357 0.0
C1548 C 0.23455 0.37071 0.63512 0.0
C1549 C 0.23125 0.34701 0.62894 0.0
C1550 C 0.21248 0.33031 0.60975 0.0
C1551 C 0.1964 0.33656 0.59828 0.0
C1552 C 0.16943 0.36021 0.64476 0.0
C1553 C 0.17788 0.37973 0.66487 0.0
C1554 C 0.18323 0.37653 0.69026 0.0
C1555 C 0.18022 0.35372 0.69598 0.0
C1556 C 0.17158 0.33413 0.67574 0.0
C1557 C 0.16614 0.33734 0.65039 0.0
C1558 C 0.12695 0.36243 0.63011 0.0
C1559 C 0.12541 0.38209 0.64241 0.0
C1560 C 0.10909 0.37765 0.66042 0.0
C1561 C 0.09397 0.35346 0.66603 0.0
C1562 C 0.09573 0.33393 0.65373 0.0
C1563 C 0.11205 0.33838 0.63594 0.0
C1564 C 0.11924 0.37509 0.57882 0.0
C1565 C 0.12473 0.39836 0.57211 0.0
C1566 C 0.1064 0.40301 0.56459 0.0
C1567 C 0.08219 0.38441 0.56353 0.0
C1568 C 0.07676 0.36114 0.57048 0.0
C1569 C 0.09514 0.35652 0.57806 0.0
C1570 C 0.14485 0.36873 0.53831 0.0
C1571 C 0.15989 0.38684 0.52349 0.0
C1572 C 0.15274 0.38542 0.4971 0.0
C1573 C 0.13011 0.36625 0.48523 0.0
C1574 C 0.11501 0.34842 0.50035 0.0
C1575 C 0.12243 0.34946 0.52644 0.0
C1576 C 0.18614 0.36357 0.55204 0.0
C1577 C 0.20921 0.38304 0.54984 0.0
C1578 C 0.22131 0.38143 0.52931 0.0
C1579 C 0.21058 0.3602 0.51096 0.0
C1580 C 0.18751 0.34071 0.51331 0.0
C1581 C 0.17539 0.34238 0.53372 0.0
C1582 C 0.18609 0.35044 0.72295 0.0
C1583 C 0.06268 0.38913 0.55492 0.0
C1584 C 0.97318 0.40293 0.05238 0.0
C1585 C 0.98525 0.38949 0.05268 0.0
C1586 C 0.97121 0.41452 0.07537 0.0
C1587 C 0.98127 0.41318 0.09958 0.0
H1588 H 0.96581 0.40526 0.03418 0.0
H1589 H 0.96246 0.4253 0.0741 0.0
S1590 S 0.01183 0.3777 0.11172 0.0
N1591 N 0.00548 0.37374 0.07985 0.0
N1592 N 0.00159 0.39542 0.12291 0.0
C1593 C 0.99238 0.3989 0.10038 0.0
C1594 C 0.9944 0.38707 0.077 0.0
C1595 C 0.59534 0.55193 0.12762 0.0
C1596 C 0.60326 0.57667 0.13708 0.0
C1597 C 0.57684 0.53228 0.1381 0.0
C1598 C 0.56573 0.53685 0.15825 0.0
H1599 H 0.60322 0.54772 0.11182 0.0
H1600 H 0.57094 0.51346 0.13017 0.0
S1601 S 0.58168 0.5979 0.19204 0.0
N1602 N 0.59979 0.60437 0.16941 0.0
N1603 N 0.56505 0.56747 0.18871 0.0
C1604 C 0.57394 0.56137 0.16838 0.0
C1605 C 0.5927 0.58129 0.15788 0.0
C1606 C 0.45066 0.02596 0.08379 0.0
C1607 C 0.42588 0.01632 0.07716 0.0
C1608 C 0.45998 0.02563 0.10886 0.0
C1609 C 0.44484 0.0157 0.1281 0.0
H1610 H 0.46282 0.03294 0.06927 0.0
H1611 H 0.47902 0.03239 0.11295 0.0
S1612 S 0.37941 0.99204 0.12199 0.0
N1613 N 0.38685 0.99911 0.09282 0.0
N1614 N 0.40448 0.99877 0.13986 0.0
C1615 C 0.4203 0.0073 0.12215 0.0
C1616 C 0.4108 0.00753 0.0967 0.0
C1617 C 0.40457 0.9527 0.94423 0.0
C1618 C 0.41392 0.97153 0.96529 0.0
C1619 C 0.41842 0.95371 0.92436 0.0
C1620 C 0.44204 0.97356 0.92507 0.0
H1621 H 0.38594 0.93805 0.94217 0.0
H1622 H 0.41016 0.93964 0.90767 0.0
S1623 S 0.47615 0.02451 0.97892 0.0
N1624 N 0.44904 0.00845 0.98769 0.0
N1625 N 0.47528 0.01028 0.95058 0.0
C1626 C 0.45214 0.99132 0.94717 0.0
C1627 C 0.43801 0.99033 0.96725 0.0
C1628 C 0.023 0.41895 0.94338 0.0
C1629 C 0.03797 0.42267 0.96628 0.0
C1630 C 0.02414 0.4388 0.93193 0.0
C1631 C 0.04037 0.4633 0.94274 0.0
H1632 H 0.01021 0.40047 0.93405 0.0
H1633 H 0.01226 0.43491 0.91427 0.0
S1634 S 0.08398 0.48345 0.00205 0.0
N1635 N 0.06994 0.45293 0.99912 0.0
N1636 N 0.07213 0.49047 0.97726 0.0
C1637 C 0.05587 0.46749 0.96526 0.0
C1638 C 0.05465 0.44713 0.97711 0.0
C1639 C 0.56848 0.59903 0.02894 0.0
C1640 C 0.59355 0.6115 0.03586 0.0
C1641 C 0.55823 0.59041 0.00296 0.0
C1642 C 0.57264 0.59395 0.98294 0.0
H1643 H 0.55661 0.59531 0.04375 0.0
H1644 H 0.53885 0.58032 0.9986 0.0
S1645 S 0.63918 0.62806 0.99005 0.0
N1646 N 0.63255 0.62868 0.02001 0.0
N1647 N 0.61319 0.61263 0.97134 0.0
C1648 C 0.59769 0.6072 0.9894 0.0
C1649 C 0.60816 0.61593 0.01579 0.0
C1650 C 0.04885 0.62125 0.02001 0.0
C1651 C 0.03042 0.62702 0.02021 0.0
C1652 C 0.05162 0.60959 0.99763 0.0
C1653 C 0.03599 0.6031 0.97465 0.0
H1654 H 0.06091 0.62513 0.03747 0.0
H1655 H 0.06555 0.60483 0.99857 0.0
S1656 S 0.98677 0.61652 0.96346 0.0
N1657 N 0.99763 0.62712 0.99426 0.0
N1658 N 0.00295 0.60514 0.95239 0.0
C1659 C 0.01826 0.60972 0.97407 0.0
C1660 C 0.01547 0.62173 0.99677 0.0
C1661 C 0.39799 0.44081 0.92332 0.0
C1662 C 0.39985 0.43909 0.95 0.0
C1663 C 0.41645 0.4601 0.91267 0.0
C1664 C 0.4376 0.47801 0.92832 0.0
H1665 H 0.3824 0.42675 0.91048 0.0
H1666 H 0.41461 0.46038 0.89187 0.0
S1667 S 0.4509 0.48169 0.99948 0.0
N1668 N 0.42391 0.45692 0.99202 0.0
N1669 N 0.45907 0.49316 0.97195 0.0
C1670 C 0.43947 0.47672 0.95517 0.0
C1671 C 0.42043 0.45724 0.96605 0.0
C1672 C 0.55017 0.97666 0.99782 0.0
C1673 C 0.57412 0.98219 0.002 0.0
C1674 C 0.53963 0.97585 0.97296 0.0
C1675 C 0.55252 0.97983 0.95151 0.0
H1676 H 0.53979 0.9737 0.01397 0.0
H1677 H 0.52136 0.97218 0.97049 0.0
S1678 S 0.61504 0.99327 0.95189 0.0
N1679 N 0.61009 0.99095 0.98253 0.0
N1680 N 0.58995 0.98855 0.93572 0.0
C1681 C 0.57617 0.98462 0.95531 0.0
C1682 C 0.58707 0.98604 0.98062 0.0
C1683 C 0.58079 0.03537 0.12402 0.0
C1684 C 0.58817 0.01788 0.12062 0.0
C1685 C 0.56622 0.03424 0.14325 0.0
C1686 C 0.55854 0.01554 0.15961 0.0
H1687 H 0.58631 0.05004 0.11181 0.0
H1688 H 0.56075 0.0479 0.14519 0.0
S1689 S 0.57448 0.96667 0.16047 0.0
N1690 N 0.58772 0.98217 0.13664 0.0
N1691 N 0.56036 0.98015 0.17231 0.0
C1692 C 0.56604 0.99822 0.15669 0.0
C1693 C 0.58083 -0.00065 0.13731 0.0
C1694 C 0.96458 0.56811 0.09847 0.0
C1695 C 0.98156 0.59254 0.10928 0.0
C1696 C 0.96304 0.54776 0.10964 0.0
C1697 C 0.97864 0.55119 0.13177 0.0
H1698 H 0.9524 0.56466 0.08126 0.0
H1699 H 0.94966 0.52925 0.1009 0.0
S1700 S 0.02472 0.61099 0.16896 0.0
N1701 N 0.01303 0.61867 0.14471 0.0
N1702 N 0.01054 0.58051 0.16497 0.0
C1703 C 0.99543 0.57538 0.14293 0.0
C1704 C 0.9968 0.59603 0.13187 0.0
C1705 C 0.43644 0.40506 0.05118 0.0
C1706 C 0.4124 0.3984 0.04381 0.0
C1707 C 0.44687 0.41282 0.07722 0.0
C1708 C 0.43371 0.41438 0.09686 0.0
H1709 H 0.44748 0.40469 0.0367 0.0
H1710 H 0.46554 0.41829 0.08192 0.0
S1711 S 0.36987 0.39762 0.08863 0.0
N1712 N 0.3755 0.39294 0.05901 0.0
N1713 N 0.39511 0.40717 0.10765 0.0
C1714 C 0.40953 0.40708 0.08998 0.0
C1715 C 0.39889 0.39919 0.06358 0.0
C1716 C 0.63415 0.73542 0.39239 0.0
C1717 C 0.64727 0.72305 0.39212 0.0
C1718 C 0.63149 0.74593 0.41568 0.0
C1719 C 0.64185 0.74454 0.43967 0.0
H1720 H 0.62632 0.73759 0.37441 0.0
H1721 H 0.62182 0.75582 0.41485 0.0
S1722 S 0.67555 0.71191 0.45027 0.0
N1723 N 0.66919 0.7085 0.41844 0.0
N1724 N 0.66394 0.72809 0.46212 0.0
C1725 C 0.65422 0.73148 0.43988 0.0
C1726 C 0.65698 0.72077 0.41616 0.0
C1727 C 0.25114 0.88551 0.46072 0.0
C1728 C 0.2634 0.91005 0.47288 0.0
C1729 C 0.23303 0.8665 0.47224 0.0
C1730 C 0.22678 0.8714 0.49639 0.0
H1731 H 0.25529 0.88104 0.44201 0.0
H1732 H 0.22367 0.84791 0.46204 0.0
S1733 S 0.25576 0.93204 0.53761 0.0
N1734 N 0.26926 0.93793 0.51116 0.0
N1735 N 0.23583 0.90218 0.5331 0.0
C1736 C 0.23948 0.89575 0.50907 0.0
C1737 C 0.25764 0.91508 0.49723 0.0
C1738 C 0.1003 0.33802 0.41615 0.0
C1739 C 0.10351 0.35849 0.40402 0.0
C1740 C 0.10967 0.34089 0.44207 0.0
C1741 C 0.12211 0.36427 0.45713 0.0
H1742 H 0.0904 0.31961 0.40552 0.0
H1743 H 0.10692 0.32454 0.45043 0.0
S1744 S 0.13433 0.42363 0.43442 0.0
N1745 N 0.11994 0.40288 0.40864 0.0
N1746 N 0.13656 0.40826 0.45782 0.0
C1747 C 0.12554 0.38495 0.44507 0.0
C1748 C 0.11645 0.38205 0.41843 0.0
C1749 C 0.08815 0.29562 0.28933 0.0
C1750 C 0.07663 0.30937 0.28674 0.0
C1751 C 0.10106 0.2934 0.26973 0.0
C1752 C 0.1025 0.30459 0.2469 0.0
H1753 H 0.08777 0.28718 0.30682 0.0
H1754 H 0.11043 0.28339 0.27272 0.0
S1755 S 0.07203 0.33905 0.22926 0.0
N1756 N 0.06549 0.33222 0.2587 0.0
N1757 N 0.08891 0.32733 0.22173 0.0
C1758 C 0.08996 0.31725 0.24367 0.0
C1759 C 0.07723 0.31981 0.26364 0.0
C1760 C 0.68217 0.75358 0.28267 0.0
C1761 C 0.69868 0.75638 0.30364 0.0
C1762 C 0.68485 0.77384 0.27069 0.0
C1763 C 0.70422 0.79779 0.27901 0.0
H1764 H 0.66715 0.73552 0.27507 0.0
H1765 H 0.67185 0.77061 0.25438 0.0
S1766 S 0.75224 0.81556 0.33333 0.0
N1767 N 0.73501 0.78532 0.33247 0.0
N1768 N 0.74 0.82345 0.30973 0.0
C1769 C 0.72089 0.80102 0.29993 0.0
C1770 C 0.71812 0.78033 0.3123 0.0
C1771 C 0.24293 0.95776 0.3605 0.0
C1772 C 0.25084 0.94399 0.37376 0.0
C1773 C 0.23316 0.95049 0.33422 0.0
C1774 C 0.23065 0.92898 0.32051 0.0
H1775 H 0.24505 0.97467 0.37023 0.0
H1776 H 0.22821 0.96218 0.32441 0.0
S1777 S 0.2454 0.88471 0.34821 0.0
N1778 N 0.25383 0.90704 0.37229 0.0
N1779 N 0.23437 0.89256 0.32349 0.0
C1780 C 0.23736 0.91442 0.3342 0.0
C1781 C 0.24774 0.92213 0.36067 0.0
C1782 C 0.71013 0.94502 0.36268 0.0
C1783 C 0.6938 0.95367 0.36258 0.0
C1784 C 0.7138 0.93499 0.33971 0.0
C1785 C 0.70121 0.93308 0.31577 0.0
H1786 H 0.71988 0.94551 0.3807 0.0
H1787 H 0.72608 0.92803 0.34081 0.0
S1788 S 0.65838 0.95517 0.30403 0.0
N1789 N 0.66622 0.96115 0.33575 0.0
N1790 N 0.67327 0.94231 0.29275 0.0
C1791 C 0.6855 0.94239 0.31512 0.0
C1792 C 0.68177 0.95268 0.33845 0.0
C1793 C 0.06333 0.78472 0.26141 0.0
C1794 C 0.06747 0.77971 0.28642 0.0
C1795 C 0.08128 0.80471 0.25104 0.0
C1796 C 0.10406 0.82023 0.26531 0.0
H1797 H 0.0464 0.77252 0.2494 0.0
H1798 H 0.07766 0.80725 0.23121 0.0
S1799 S 0.12302 0.81545 0.33257 0.0
N1800 N 0.09517 0.79202 0.32579 0.0
N1801 N 0.12911 0.83001 0.30651 0.0
C1802 C 0.10804 0.81586 0.29083 0.0
C1803 C 0.08967 0.79546 0.30135 0.0
C1804 C 0.24863 0.32887 0.31694 0.0
C1805 C 0.23654 0.31168 0.3342 0.0
C1806 C 0.23823 0.32608 0.29151 0.0
C1807 C 0.21534 0.30595 0.28214 0.0
H1808 H 0.26634 0.34474 0.32304 0.0
H1809 H 0.24832 0.33975 0.27898 0.0
S1810 S 0.17565 0.25592 0.31913 0.0
N1811 N 0.20001 0.27375 0.33984 0.0
N1812 N 0.18057 0.26874 0.29197 0.0
C1813 C 0.20298 0.28855 0.29898 0.0
C1814 C 0.21353 0.29137 0.325 0.0
C1815 C 0.24657 0.37433 0.45369 0.0
C1816 C 0.25107 0.35464 0.45076 0.0
C1817 C 0.23326 0.37598 0.47307 0.0
C1818 C 0.22384 0.35789 0.49001 0.0
H1819 H 0.25372 0.38883 0.44126 0.0
H1820 H 0.23038 0.39153 0.47487 0.0
S1821 S 0.23105 0.3032 0.49147 0.0
N1822 N 0.24536 0.31701 0.4673 0.0
N1823 N 0.22016 0.32011 0.50319 0.0
C1824 C 0.22794 0.33805 0.48721 0.0
C1825 C 0.24159 0.33641 0.4677 0.0
C1826 C 0.62501 0.89652 0.44103 0.0
C1827 C 0.64217 0.92079 0.45217 0.0
C1828 C 0.62223 0.87591 0.45265 0.0
C1829 C 0.63667 0.87893 0.47564 0.0
H1830 H 0.61374 0.8934 0.42313 0.0
H1831 H 0.60891 0.85753 0.44351 0.0
S1832 S 0.68228 0.93816 0.51418 0.0
N1833 N 0.67239 0.94635 0.48884 0.0
N1834 N 0.6674 0.90765 0.51012 0.0
C1835 C 0.65348 0.90295 0.48724 0.0
C1836 C 0.65618 0.92388 0.47565 0.0
C1837 C 0.10463 0.74243 0.38523 0.0
C1838 C 0.08055 0.73579 0.37807 0.0
C1839 C 0.1148 0.7488 0.41135 0.0
C1840 C 0.10137 0.74905 0.43124 0.0
H1841 H 0.11587 0.74301 0.37056 0.0
H1842 H 0.13345 0.75414 0.41599 0.0
S1843 S 0.03737 0.73154 0.42371 0.0
N1844 N 0.04327 0.7286 0.39378 0.0
N1845 N 0.06266 0.74084 0.44258 0.0
C1846 C 0.07725 0.74192 0.42459 0.0
C1847 C 0.06677 0.73522 0.39811 0.0
C1848 C 0.29925 0.06611 0.70887 0.0
C1849 C 0.31345 0.05492 0.70978 0.0
C1850 C 0.29617 0.07724 0.73149 0.0
C1851 C 0.3073 0.07772 0.75581 0.0
H1852 H 0.29085 0.06687 0.69049 0.0
H1853 H 0.28567 0.08623 0.72985 0.0
S1854 S 0.34397 0.04887 0.76974 0.0
N1855 N 0.33708 0.04339 0.73788 0.0
N1856 N 0.33131 0.0645 0.78011 0.0
C1857 C 0.32069 0.06581 0.75728 0.0
C1858 C 0.32375 0.05435 0.73436 0.0
C1859 C 0.94021 0.21622 0.80693 0.0
C1860 C 0.93338 0.22849 0.78982 0.0
C1861 C 0.92321 0.19787 0.8201 0.0
C1862 C 0.89892 0.19132 0.81648 0.0
H1863 H 0.95898 0.22198 0.81147 0.0
H1864 H 0.92935 0.18988 0.83435 0.0
S1865 S 0.8716 0.21495 0.76998 0.0
N1866 N 0.90058 0.23073 0.76734 0.0
N1867 N 0.86851 0.19609 0.79178 0.0
C1868 C 0.8917 0.20214 0.79782 0.0
C1869 C 0.909 0.22082 0.78457 0.0
C1870 C 0.7824 0.70991 0.75471 0.0
C1871 C 0.76956 0.68663 0.73967 0.0
C1872 C 0.79169 0.71237 0.78067 0.0
C1873 C 0.78879 0.69168 0.79236 0.0
H1874 H 0.78449 0.72618 0.74668 0.0
H1875 H 0.80055 0.73051 0.79186 0.0
S1876 S 0.75973 0.62724 0.75962 0.0
N1877 N 0.75612 0.6429 0.73737 0.0
N1878 N 0.77457 0.64758 0.7856 0.0
C1879 C 0.77708 0.66851 0.77692 0.0
C1880 C 0.76722 0.66597 0.75073 0.0
C1881 C 0.75018 0.65642 0.60206 0.0
C1882 C 0.7465 0.64233 0.62282 0.0
C1883 C 0.7623 0.6544 0.5818 0.0
C1884 C 0.77166 0.63851 0.58162 0.0
H1885 H 0.74316 0.66881 0.60108 0.0
H1886 H 0.7641 0.66524 0.56598 0.0
S1887 S 0.76836 0.59886 0.63248 0.0
N1888 N 0.75362 0.61238 0.64249 0.0
N1889 N 0.77749 0.60929 0.6048 0.0
C1890 C 0.76846 0.62454 0.60251 0.0
C1891 C 0.75565 0.6263 0.62302 0.0
C1892 C 0.38441 0.10838 0.63909 0.0
C1893 C 0.36959 0.08477 0.62497 0.0
C1894 C 0.38736 0.12974 0.62901 0.0
C1895 C 0.37556 0.12805 0.60458 0.0
H1896 H 0.39316 0.11031 0.65834 0.0
H1897 H 0.39834 0.14755 0.64066 0.0
S1898 S 0.33781 0.07126 0.55833 0.0
N1899 N 0.34513 0.06147 0.5841 0.0
N1900 N 0.35066 0.10151 0.56544 0.0
C1901 C 0.36169 0.10477 0.58982 0.0
C1902 C 0.35871 0.08314 0.59995 0.0
C1903 C 0.93501 0.28456 0.68324 0.0
C1904 C 0.92003 0.2766 0.70299 0.0
C1905 C 0.92552 0.27826 0.657 0.0
C1906 C 0.90065 0.26371 0.64936 0.0
H1907 H 0.95434 0.29539 0.688 0.0
H1908 H 0.93782 0.28452 0.64253 0.0
S1909 S 0.85349 0.23833 0.69315 0.0
N1910 N 0.87887 0.25375 0.71294 0.0
N1911 N 0.86112 0.24176 0.6635 0.0
C1912 C 0.88536 0.25621 0.6688 0.0
C1913 C 0.89502 0.26269 0.69563 0.0
C1914 C 0.36694 0.26821 0.69965 0.0
C1915 C 0.36236 0.28778 0.69822 0.0
C1916 C 0.37237 0.25827 0.67792 0.0
C1917 C 0.37397 0.26796 0.65422 0.0
H1918 H 0.36535 0.25979 0.71738 0.0
H1919 H 0.37486 0.24261 0.6795 0.0
S1920 S 0.36492 0.31984 0.64044 0.0
N1921 N 0.36057 0.3169 0.67117 0.0
N1922 N 0.37135 0.29852 0.63057 0.0
C1923 C 0.37028 0.28801 0.6527 0.0
C1924 C 0.36432 0.29785 0.67464 0.0
C1925 C 0.75041 0.12773 0.62411 0.0
C1926 C 0.74357 0.10297 0.61615 0.0
C1927 C 0.76797 0.14718 0.61253 0.0
C1928 C 0.77938 0.14248 0.59282 0.0
H1929 H 0.74209 0.13214 0.63931 0.0
H1930 H 0.77274 0.16599 0.61907 0.0
S1931 S 0.76692 0.08124 0.56338 0.0
N1932 N 0.74884 0.07502 0.58603 0.0
N1933 N 0.78204 0.11164 0.56485 0.0
C1934 C 0.77265 0.11795 0.58453 0.0
C1935 C 0.75471 0.09817 0.59606 0.0
C1936 C 0.87684 0.62632 0.65772 0.0
C1937 C 0.90101 0.64423 0.66644 0.0
C1938 C 0.86668 0.62407 0.63222 0.0
C1939 C 0.88026 0.63971 0.61456 0.0
H1940 H 0.86558 0.61398 0.67069 0.0
H1941 H 0.848 0.61021 0.62638 0.0
S1942 S 0.94457 0.68834 0.62653 0.0
N1943 N 0.93848 0.67712 0.65446 0.0
N1944 N 0.91923 0.67271 0.60676 0.0
C1945 C 0.90444 0.65739 0.62274 0.0
C1946 C 0.91485 0.65969 0.64861 0.0
C1947 C 0.91402 0.70371 0.78904 0.0
C1948 C 0.91709 0.68312 0.78543 0.0
C1949 C 0.90148 0.70613 0.80887 0.0
C1950 C 0.89154 0.68802 0.82573 0.0
H1951 H 0.92163 0.71825 0.77671 0.0
H1952 H 0.89959 0.72229 0.81106 0.0
S1953 S 0.89532 0.63116 0.82551 0.0
N1954 N 0.90949 0.64455 0.80109 0.0
N1955 N 0.88609 0.64927 0.83815 0.0
C1956 C 0.89434 0.66732 0.8223 0.0
C1957 C 0.90706 0.66482 0.8022 0.0
C1958 C 0.29397 0.24799 0.79617 0.0
C1959 C 0.29576 0.2491 0.76954 0.0
C1960 C 0.2923 0.22794 0.80784 0.0
C1961 C 0.29298 0.20861 0.79338 0.0
H1962 H 0.29434 0.26301 0.80819 0.0
H1963 H 0.29148 0.22808 0.82856 0.0
S1964 S 0.29772 0.20298 0.72298 0.0
N1965 N 0.2978 0.22919 0.72886 0.0
N1966 N 0.29535 0.19164 0.75098 0.0
C1967 C 0.2945 0.20935 0.76663 0.0
C1968 C 0.29568 0.22956 0.75463 0.0
C1969 C 0.77473 0.06817 0.72343 0.0
C1970 C 0.75171 0.06469 0.71644 0.0
C1971 C 0.78564 0.07542 0.74928 0.0
C1972 C 0.77405 0.07971 0.76906 0.0
H1973 H 0.78459 0.06552 0.70882 0.0
H1974 H 0.80347 0.07822 0.75375 0.0
S1975 S 0.71313 0.07151 0.76202 0.0
N1976 N 0.71725 0.06486 0.73226 0.0
N1977 N 0.73798 0.07862 0.78058 0.0
C1978 C 0.75092 0.07578 0.76262 0.0
C1979 C 0.73969 0.06824 0.7364 0.0
C1980 C 0.06207 0.33766 0.07193 0.0
C1981 C 0.05493 0.32464 0.0467 0.0
C1982 C 0.07526 0.33299 0.09096 0.0
C1983 C 0.08166 0.31497 0.08561 0.0
H1984 H 0.05784 0.35193 0.07696 0.0
H1985 H 0.08077 0.34379 0.10991 0.0
S1986 S 0.06764 0.27572 0.02287 0.0
N1987 N 0.05524 0.29267 0.01766 0.0
N1988 N 0.08013 0.28418 0.05336 0.0
C1989 C 0.07431 0.3015 0.06071 0.0
C1990 C 0.06093 0.30625 0.04129 0.0
C1991 C 0.68149 0.7242 0.13401 0.0
C1992 C 0.65771 0.70983 0.12185 0.0
C1993 C 0.69096 0.74905 0.14386 0.0
C1994 C 0.67702 0.76036 0.14161 0.0
H1995 H 0.69238 0.71583 0.13734 0.0
H1996 H 0.70887 0.75908 0.1544 0.0
S1997 S 0.61548 0.73198 0.10674 0.0
N1998 N 0.62153 0.70939 0.10519 0.0
N1999 N 0.63961 0.75637 0.12274 0.0
C2000 C 0.65391 0.74669 0.1276 0.0
C2001 C 0.64418 0.72134 0.11796 0.0
C2002 C 0.28148 0.95003 0.04624 0.0
C2003 C 0.30272 0.94897 0.04829 0.0
C2004 C 0.26664 0.9435 0.06602 0.0
C2005 C 0.27242 0.93558 0.08855 0.0
H2006 H 0.27631 0.95619 0.02935 0.0
H2007 H 0.25039 0.94444 0.06352 0.0
S2008 S 0.32593 0.92963 0.10383 0.0
N2009 N 0.32865 0.93921 0.07492 0.0
N2010 N 0.30088 0.92736 0.11213 0.0
C2011 C 0.29351 0.93435 0.0909 0.0
C2012 C 0.30862 0.94093 0.07078 0.0
C2013 C 0.37529 0.07444 0.99958 0.0
C2014 C 0.36144 0.04861 0.99866 0.0
C2015 C 0.36582 0.08779 0.98832 0.0
C2016 C 0.34227 0.07575 0.97535 0.0
H2017 H 0.39402 0.08426 0.00767 0.0
H2018 H 0.37751 0.10751 0.98839 0.0
S2019 S 0.29773 0.00867 0.97014 0.0
N2020 N 0.32211 0.01184 0.98635 0.0
N2021 N 0.30462 0.03676 0.9644 0.0
C2022 C 0.32761 0.05022 0.97621 0.0
C2023 C 0.33714 0.03668 0.98806 0.0
C2024 C 0.95222 0.27069 0.97994 0.0
C2025 C 0.95301 0.2892 0.96562 0.0
C2026 C 0.93531 0.24555 0.97204 0.0
C2027 C 0.91881 0.23821 0.94955 0.0
H2028 H 0.96436 0.27568 0.99763 0.0
H2029 H 0.93468 0.23186 0.98393 0.0
S2030 S 0.91537 0.27865 0.9033 0.0
N2031 N 0.93704 0.29779 0.92635 0.0
N2032 N 0.90557 0.25079 0.9119 0.0
C2033 C 0.92009 0.25631 0.93453 0.0
C2034 C 0.9371 0.28174 0.94247 0.0
C2035 C 0.71069 0.6562 0.03929 0.0
C2036 C 0.71802 0.67073 0.06367 0.0
C2037 C 0.72612 0.66204 0.02015 0.0
C2038 C 0.74949 0.68266 0.02456 0.0
H2039 H 0.69282 0.64017 0.03482 0.0
H2040 H 0.71967 0.65032 0.00169 0.0
S2041 S 0.77787 0.72641 0.08508 0.0
N2042 N 0.75051 0.70665 0.09115 0.0
N2043 N 0.77953 0.71739 0.05511 0.0
C2044 C 0.75711 0.69743 0.04872 0.0
C2045 C 0.74139 0.69151 0.06829 0.0
C2046 C 0.94618 0.6717 0.0041 0.0
C2047 C 0.95029 0.68156 0.03039 0.0
C2048 C 0.93231 0.676 0.98549 0.0
C2049 C 0.9221 0.69042 0.99239 0.0
H2050 H 0.95358 0.6604 0.9978 0.0
H2051 H 0.92953 0.66793 0.96556 0.0
S2052 S 0.92653 0.71975 0.0586 0.0
N2053 N 0.94255 0.7062 0.06226 0.0
N2054 N 0.91631 0.71384 0.02745 0.0
C2055 C 0.92605 0.70039 0.01855 0.0
C2056 C 0.94017 0.69608 0.03748 0.0
C2057 C 0.36609 0.29449 0.94794 0.0
C2058 C 0.35065 0.30407 0.94922 0.0
C2059 C 0.3575 0.27001 0.93747 0.0
C2060 C 0.3332 0.25421 0.9275 0.0
H2061 H 0.38506 0.30612 0.95473 0.0
H2062 H 0.37011 0.2635 0.93691 0.0
S2063 S 0.28536 0.27029 0.92617 0.0
N2064 N 0.30974 0.29571 0.94012 0.0
N2065 N 0.29378 0.24988 0.91969 0.0
C2066 C 0.31744 0.26336 0.92918 0.0
C2067 C 0.32613 0.28824 0.9402 0.0
C2068 C 0.72397 0.06786 0.03848 0.0
C2069 C 0.69957 0.06001 0.03182 0.0
C2070 C 0.73986 0.07448 0.01974 0.0
C2071 C 0.73197 0.07338 0.99354 0.0
H2072 H 0.73087 0.06867 0.05832 0.0
H2073 H 0.7585 0.08056 0.02585 0.0
S2074 S 0.66988 0.05377 0.9657 0.0
N2075 N 0.66834 0.05171 0.99699 0.0
N2076 N 0.69811 0.06349 0.96175 0.0
C2077 C 0.70768 0.06574 0.98659 0.0
C2078 C 0.69152 0.05923 0.00571 0.0
C2079 C 0.63845 0.93124 0.06786 0.0
C2080 C 0.64994 0.95708 0.06875 0.0
C2081 C 0.65028 0.92002 0.07896 0.0
C2082 C 0.67389 0.93427 0.09166 0.0
H2083 H 0.61958 0.91976 0.06055 0.0
H2084 H 0.64017 0.90024 0.0796 0.0
S2085 S 0.7136 0.00208 0.09407 0.0
N2086 N 0.68775 0.99614 0.07877 0.0
N2087 N 0.70964 0.9751 0.10054 0.0
C2088 C 0.68654 0.95975 0.08972 0.0
C2089 C 0.67461 0.97116 0.078 0.0
C2090 C 0.08372 0.73769 0.10532 0.0
C2091 C 0.05875 0.72785 0.10204 0.0
C2092 C 0.09942 0.76196 0.11682 0.0
C2093 C 0.09083 0.77735 0.12582 0.0
H2094 H 0.09116 0.72621 0.09986 0.0
H2095 H 0.11848 0.76848 0.11943 0.0
S2096 S 0.02712 0.76111 0.1202 0.0
N2097 N 0.02618 0.7359 0.10705 0.0
N2098 N 0.05579 0.78155 0.12921 0.0
C2099 C 0.06601 0.76828 0.12134 0.0
C2100 C 0.04994 0.74351 0.10932 0.0
C2101 C 0.26144 0.32915 0.00847 0.0
C2102 C 0.28598 0.33761 0.01498 0.0
C2103 C 0.24559 0.32146 0.02731 0.0
C2104 C 0.25377 0.32187 0.05319 0.0
H2105 H 0.25455 0.32914 0.98889 0.0
H2106 H 0.22698 0.31589 0.02178 0.0
S2107 S 0.31532 0.33845 0.07927 0.0
N2108 N 0.31709 0.34336 0.04856 0.0
N2109 N 0.28719 0.32875 0.08377 0.0
C2110 C 0.27795 0.32912 0.05965 0.0
C2111 C 0.2941 0.33703 0.04059 0.0
C2112 C 0.72475 0.64232 0.37782 0.0
C2113 C 0.71873 0.66054 0.38413 0.0
C2114 C 0.73896 0.63782 0.39563 0.0
C2115 C 0.74777 0.65134 0.42052 0.0
H2116 H 0.71896 0.63179 0.35871 0.0
H2117 H 0.74378 0.62422 0.38952 0.0
S2118 S 0.73534 0.69927 0.4479 0.0
N2119 N 0.72141 0.69098 0.41796 0.0
N2120 N 0.74807 0.68238 0.45135 0.0
C2121 C 0.74123 0.66896 0.4275 0.0
C2122 C 0.72671 0.67356 0.40937 0.0
C2123 C 0.3458 0.05724 0.47144 0.0
C2124 C 0.32289 0.0438 0.45701 0.0
C2125 C 0.35564 0.08224 0.48107 0.0
C2126 C 0.34294 0.09459 0.47632 0.0
H2127 H 0.35552 0.04801 0.47669 0.0
H2128 H 0.37269 0.09156 0.49338 0.0
S2129 S 0.28431 0.0686 0.43543 0.0
N2130 N 0.28904 0.04516 0.43595 0.0
N2131 N 0.30789 0.09238 0.45298 0.0
C2132 C 0.32086 0.08176 0.46017 0.0
C2133 C 0.31073 0.05629 0.45079 0.0
C2134 C 0.98149 0.28594 0.40372 0.0
C2135 C 0.9759 0.29437 0.38141 0.0
C2136 C 0.96582 0.27753 0.4226 0.0
C2137 C 0.94396 0.27726 0.42 0.0
H2138 H 0.99816 0.28587 0.40676 0.0
H2139 H 0.97094 0.2713 0.43947 0.0
S2140 S 0.92032 0.29662 0.3651 0.0
N2141 N 0.94659 0.30158 0.35776 0.0
N2142 N 0.91712 0.28549 0.39321 0.0
C2143 C 0.93805 0.28556 0.39786 0.0
C2144 C 0.954 0.29414 0.37856 0.0
C2145 C 0.05309 0.41733 0.32464 0.0
C2146 C 0.04027 0.39546 0.33601 0.0
C2147 C 0.04219 0.43027 0.31614 0.0
C2148 C 0.01807 0.42227 0.31907 0.0
H2149 H 0.07126 0.42367 0.32046 0.0
H2150 H 0.05238 0.44567 0.30552 0.0
S2151 S 0.97839 0.36985 0.35354 0.0
N2152 N 0.00334 0.36878 0.35382 0.0
N2153 N 0.98303 0.39377 0.33844 0.0
C2154 C 0.0058 0.40203 0.33294 0.0
C2155 C 0.01688 0.38857 0.3414 0.0
C2156 C 0.58823 0.61407 0.30778 0.0
C2157 C 0.61285 0.62215 0.30999 0.0
C2158 C 0.57097 0.58974 0.29774 0.0
C2159 C 0.57761 0.57255 0.28906 0.0
H2160 H 0.58224 0.62686 0.31321 0.0
H2161 H 0.55223 0.58454 0.29616 0.0
S2162 S 0.63982 0.58426 0.29137 0.0
N2163 N 0.64309 0.61082 0.30381 0.0
N2164 N 0.61062 0.56517 0.28416 0.0
C2165 C 0.60216 0.58009 0.29212 0.0
C2166 C 0.61978 0.60488 0.30275 0.0
C2167 C 0.36762 0.98066 0.37049 0.0
C2168 C 0.36984 0.96948 0.3922 0.0
C2169 C 0.38267 0.98523 0.35107 0.0
C2170 C 0.40051 0.97876 0.35251 0.0
H2171 H 0.35403 0.98583 0.36831 0.0
H2172 H 0.38012 0.99363 0.33461 0.0
S2173 S 0.41492 0.95045 0.4058 0.0
N2174 N 0.39203 0.95283 0.41428 0.0
N2175 N 0.42042 0.96168 0.3778 0.0
C2176 C 0.40319 0.96785 0.37416 0.0
C2177 C 0.38785 0.96316 0.39399 0.0
C2178 C 0.5819 0.96185 0.33918 0.0
C2179 C 0.60551 0.97979 0.34974 0.0
C2180 C 0.56823 0.9675 0.32195 0.0
C2181 C 0.57762 0.9913 0.31432 0.0
H2182 H 0.57356 0.94339 0.34482 0.0
H2183 H 0.54984 0.95327 0.31525 0.0
S2184 S 0.6394 0.04422 0.33396 0.0
N2185 N 0.63828 0.02196 0.34983 0.0
N2186 N 0.6127 0.03241 0.31702 0.0
C2187 C 0.60151 0.00918 0.32392 0.0
C2188 C 0.61542 0.00347 0.34167 0.0
C2189 C 0.03 0.63972 0.25511 0.0
C2190 C 0.02456 0.64573 0.27924 0.0
C2191 C 0.02084 0.61512 0.24481 0.0
C2192 C 0.00612 0.59549 0.25834 0.0
H2193 H 0.04105 0.65416 0.24378 0.0
H2194 H 0.02532 0.61146 0.22603 0.0
S2195 S 0.98834 0.60155 0.32348 0.0
N2196 N 0.00437 0.6303 0.31699 0.0
N2197 N 0.98777 0.58388 0.29806 0.0
C2198 C 0.00086 0.60126 0.28277 0.0
C2199 C 0.00995 0.62641 0.29311 0.0
C2200 C 0.3551 0.39454 0.33971 0.0
C2201 C 0.36298 0.39207 0.36466 0.0
C2202 C 0.3705 0.40222 0.3205 0.0
C2203 C 0.39433 0.40766 0.32543 0.0
H2204 H 0.33676 0.39009 0.33474 0.0
H2205 H 0.36355 0.40349 0.30148 0.0
S2206 S 0.4246 0.40621 0.3879 0.0
N2207 N 0.39681 0.39704 0.39352 0.0
N2208 N 0.42567 0.41164 0.35734 0.0
C2209 C 0.40269 0.40589 0.35038 0.0
C2210 C 0.38705 0.3981 0.37001 0.0
C2211 C 0.30056 0.2638 0.40763 0.0
C2212 C 0.31222 0.28939 0.40627 0.0
C2213 C 0.31267 0.25315 0.41935 0.0
C2214 C 0.33682 0.26771 0.43032 0.0
H2215 H 0.28146 0.25224 0.40153 0.0
H2216 H 0.30254 0.23369 0.42167 0.0
S2217 S 0.37686 0.33458 0.42678 0.0
N2218 N 0.35047 0.32819 0.41258 0.0
N2219 N 0.37299 0.30821 0.43535 0.0
C2220 C 0.34945 0.29269 0.42627 0.0
C2221 C 0.33718 0.30353 0.414 0.0
C2222 C 0.75042 0.06302 0.44294 0.0
C2223 C 0.72575 0.05464 0.44139 0.0
C2224 C 0.7676 0.08763 0.45199 0.0
C2225 C 0.76086 0.10483 0.4603 0.0
H2226 H 0.75652 0.05027 0.43777 0.0
H2227 H 0.78639 0.09308 0.45311 0.0
S2228 S 0.69847 0.09236 0.45939 0.0
N2229 N 0.69532 0.06563 0.44775 0.0
N2230 N 0.72768 0.11186 0.46556 0.0
C2231 C 0.73623 0.09695 0.45787 0.0
C2232 C 0.71867 0.07186 0.44825 0.0
C2233 C 0.94823 0.6479 0.36254 0.0
C2234 C 0.95896 0.67123 0.3536 0.0
C2235 C 0.9316 0.6418 0.38047 0.0
C2236 C 0.92506 0.65879 0.39002 0.0
H2237 H 0.95304 0.63438 0.35605 0.0
H2238 H 0.92417 0.62386 0.3873 0.0
S2239 S 0.94594 0.72129 0.37073 0.0
N2240 N 0.96063 0.7108 0.35445 0.0
N2241 N 0.92907 0.6991 0.38774 0.0
C2242 C 0.93507 0.68187 0.38065 0.0
C2243 C 0.9521 0.68815 0.36255 0.0
C2244 C 0.42488 0.02498 0.71821 0.0
C2245 C 0.39979 0.01448 0.71624 0.0
C2246 C 0.43747 0.02089 0.73832 0.0
C2247 C 0.42558 0.00604 0.75736 0.0
H2248 H 0.43504 0.03653 0.70407 0.0
H2249 H 0.45673 0.02919 0.73877 0.0
S2250 S 0.36025 0.9744 0.76167 0.0
N2251 N 0.36353 0.98864 0.73553 0.0
N2252 N 0.38742 0.98089 0.77331 0.0
C2253 C 0.40055 0.99529 0.75574 0.0
C2254 C 0.38763 -0.00043 0.73525 0.0
C2255 C -0.00042 0.38316 0.78924 0.0
C2256 C 0.98377 0.36428 0.8029 0.0
C2257 C 0.00896 0.40816 0.79856 0.0
C2258 C 0.00304 0.41506 0.82199 0.0
H2259 H 0.00427 0.37859 0.77093 0.0
H2260 H 0.02037 0.42215 0.78702 0.0
S2261 S 0.96543 0.37286 0.86701 0.0
N2262 N 0.96448 0.35431 0.84227 0.0
N2263 N 0.98252 0.4012 0.85993 0.0
C2264 C 0.98818 0.39639 0.83639 0.0
C2265 C 0.97844 0.37103 0.82682 0.0
C2266 C 0.6213 0.61818 0.71604 0.0
C2267 C 0.64325 0.61851 0.71801 0.0
C2268 C 0.60564 0.60897 0.73485 0.0
C2269 C 0.61127 0.59964 0.75628 0.0
H2270 H 0.61613 0.62517 0.6999 0.0
H2271 H 0.58887 0.60891 0.73245 0.0
S2272 S 0.66673 0.59716 0.77136 0.0
N2273 N 0.66995 0.60911 0.74372 0.0
N2274 N 0.64048 0.59198 0.77903 0.0
C2275 C 0.63313 0.59995 0.75865 0.0
C2276 C 0.64913 0.60934 0.73954 0.0
C2277 C 0.71451 0.74405 0.66136 0.0
C2278 C 0.70274 0.7221 0.67285 0.0
C2279 C 0.70253 0.7561 0.65324 0.0
C2280 C 0.67835 0.74709 0.65668 0.0
H2281 H 0.7327 0.75122 0.65685 0.0
H2282 H 0.71201 0.77168 0.6426 0.0
S2283 S 0.64098 0.69375 0.69132 0.0
N2284 N 0.66658 0.69405 0.69105 0.0
N2285 N 0.64425 0.71734 0.67641 0.0
C2286 C 0.66703 0.72663 0.6705 0.0
C2287 C 0.67921 0.71408 0.67857 0.0
C2288 C 0.27866 0.93413 0.63803 0.0
C2289 C 0.27578 0.95333 0.6294 0.0
C2290 C 0.26069 0.90919 0.63136 0.0
C2291 C 0.23912 0.90252 0.61597 0.0
H2292 H 0.295 0.93833 0.64983 0.0
H2293 H 0.26361 0.89503 0.63847 0.0
S2294 S 0.22262 0.94516 0.58754 0.0
N2295 N 0.24932 0.96345 0.60415 0.0
N2296 N 0.21614 0.91681 0.59146 0.0
C2297 C 0.23601 0.92139 0.6071 0.0
C2298 C 0.25415 0.9467 0.61386 0.0
C2299 C 0.06841 0.35453 0.72916 0.0
C2300 C 0.04426 0.33549 0.72327 0.0
C2301 C 0.08427 0.36084 0.71032 0.0
C2302 C 0.07653 0.34835 0.68495 0.0
H2303 H 0.0753 0.36425 0.74863 0.0
H2304 H 0.10288 0.37506 0.71586 0.0
S2305 S 0.01456 0.29947 0.65851 0.0
N2306 N 0.01298 0.30578 0.68939 0.0
N2307 N 0.04283 0.31777 0.65417 0.0
C2308 C 0.05227 0.33005 0.67849 0.0
C2309 C 0.03613 0.32359 0.69759 0.0
C2310 C 0.24444 0.30893 0.67325 0.0
C2311 C 0.26949 0.32305 0.68017 0.0
C2312 C 0.2325 0.31647 0.65602 0.0
C2313 C 0.24504 0.33852 0.64494 0.0
H2314 H 0.23374 0.29204 0.68158 0.0
H2315 H 0.21313 0.30532 0.65208 0.0
S2316 S 0.3109 0.38147 0.65496 0.0
N2317 N 0.30662 0.35966 0.67337 0.0
N2318 N 0.28404 0.37379 0.64088 0.0
C2319 C 0.27015 0.35252 0.65099 0.0
C2320 C 0.28241 0.34477 0.66854 0.0
C2321 C 0.65853 0.95481 0.61697 0.0
C2322 C 0.68221 0.9683 0.62963 0.0
C2323 C 0.64835 0.92989 0.60674 0.0
C2324 C 0.66151 0.91775 0.60905 0.0
H2325 H 0.64837 0.96395 0.61353 0.0
H2326 H 0.6306 0.92049 0.59584 0.0
S2327 S 0.72227 0.94358 0.64501 0.0
N2328 N 0.71726 0.96689 0.64682 0.0
N2329 N 0.69791 0.91994 0.62838 0.0
C2330 C 0.68441 0.93052 0.62355 0.0
C2331 C 0.69482 0.95585 0.63364 0.0
C2332 C 0.01748 0.70959 0.67122 0.0
C2333 C 0.02654 0.71352 0.69758 0.0
C2334 C 0.03276 0.71622 0.65191 0.0
C2335 C 0.05772 0.72722 0.65821 0.0
H2336 H 0.99834 0.7008 0.66533 0.0
H2337 H 0.02493 0.71245 0.63184 0.0
S2338 S 0.09071 0.74368 0.7245 0.0
N2339 N 0.06216 0.73022 0.72911 0.0
N2340 N 0.091 0.74338 0.6928 0.0
C2341 C 0.0671 0.73181 0.68453 0.0
C2342 C 0.05149 0.72481 0.70421 0.0
C2343 C 0.99233 0.62207 0.74037 0.0
C2344 C 0.96738 0.60937 0.73264 0.0
C2345 C 0.00351 0.60979 0.75042 0.0
C2346 C 0.99014 0.58443 0.7527 0.0
H2347 H 0.00289 0.642 0.74127 0.0
H2348 H 0.02216 0.62071 0.75876 0.0
S2349 S 0.9261 0.54164 0.72762 0.0
N2350 N 0.93085 0.56927 0.72259 0.0
N2351 N 0.95208 0.54608 0.74088 0.0
C2352 C 0.96603 0.57099 0.7415 0.0
C2353 C 0.95457 0.5835 0.73157 0.0
C2354 C 0.39231 0.39056 0.80786 0.0
C2355 C 0.38312 0.38375 0.78141 0.0
C2356 C 0.41021 0.41474 0.81738 0.0
C2357 C 0.41999 0.43312 0.80079 0.0
H2358 H 0.38577 0.37697 0.82138 0.0
H2359 H 0.41678 0.41896 0.8379 0.0
S2360 S 0.40189 0.4249 0.72984 0.0
N2361 N 0.38444 0.39739 0.7388 0.0
N2362 N 0.41883 0.44291 0.75652 0.0
C2363 C 0.4105 0.42678 0.77435 0.0
C2364 C 0.39191 0.40208 0.7647 0.0
C2365 C 0.6349 0.02746 0.71372 0.0
C2366 C 0.62625 0.02282 0.6871 0.0
C2367 C 0.6195 0.02274 0.73277 0.0
C2368 C 0.59482 0.01319 0.72601 0.0
H2369 H 0.65375 0.03461 0.71999 0.0
H2370 H 0.62693 0.02629 0.75297 0.0
S2371 S 0.56318 -0.00066 0.65938 0.0
N2372 N 0.59136 0.00897 0.65511 0.0
N2373 N 0.5625 0.00041 0.69106 0.0
C2374 C 0.58591 0.00878 0.69957 0.0
C2375 C 0.60159 0.01353 0.6801 0.0
loop_
_geom_bond_atom_site_label_1
_geom_bond_atom_site_label_2
_geom_bond_distance
_geom_bond_site_symmetry_2
_ccdc_geom_bond_type
Mg0 O1 2.028 . S
Mg0 O7 1.986 1_455 S
Mg0 O9 2.114 . S
Mg0 O10 2.251 1_554 S
Mg0 O13 2.010 . S
O1 Mg0 2.028 . S
O1 C4 1.250 1_455 S
O2 Mg3 2.028 . S
O2 C4 1.248 . S
Mg3 O2 2.028 . S
Mg3 O8 2.032 1_554 S
Mg3 O10 2.080 1_654 S
C4 O1 1.250 1_655 S
C4 O2 1.248 . S
C5 O6 1.264 . S
C5 O13 1.249 . S
O6 C5 1.264 . S
O7 Mg0 1.986 1_655 S
O7 C11 1.246 . S
O8 Mg3 2.032 1_556 S
O8 C11 1.260 1_556 S
O9 Mg0 2.114 . S
O9 C12 1.252 1_554 S
O10 Mg0 2.251 1_556 S
O10 Mg3 2.080 1_456 S
O10 C12 1.272 . S
C11 O7 1.246 . S
C11 O8 1.260 1_554 S
C12 O9 1.252 1_556 S
C12 O10 1.272 . S
O13 Mg0 2.010 . S
O13 C5 1.249 . S
Mg14 O15 2.028 . S
Mg14 O21 1.986 . S
Mg14 O23 2.114 . S
Mg14 O24 2.251 . S
Mg14 O27 2.010 . S
O15 Mg14 2.028 . S
O15 C18 1.250 . S
O16 Mg17 2.028 . S
O16 C18 1.248 . S
Mg17 O16 2.028 . S
Mg17 O22 2.032 . S
Mg17 O24 2.079 . S
C18 O15 1.250 . S
C18 O16 1.248 . S
C19 O20 1.264 . S
C19 O27 1.249 . S
O20 C19 1.264 . S
O21 Mg14 1.986 . S
O21 C25 1.246 . S
O22 Mg17 2.032 . S
O22 C25 1.259 . S
O23 Mg14 2.114 . S
O23 C26 1.252 . S
O24 Mg14 2.251 . S
O24 Mg17 2.079 . S
O24 C26 1.273 . S
C25 O21 1.246 . S
C25 O22 1.259 . S
C26 O23 1.252 . S
C26 O24 1.273 . S
O27 Mg14 2.010 . S
O27 C19 1.249 . S
Mg28 O29 2.028 1_565 S
Mg28 O35 1.986 1_565 S
Mg28 O37 2.114 . S
Mg28 O38 2.251 1_564 S
Mg28 O41 2.010 . S
O29 Mg28 2.028 1_545 S
O29 C32 1.250 . S
O30 Mg31 2.028 . S
O30 C32 1.248 . S
Mg31 O30 2.028 . S
Mg31 O36 2.032 . S
Mg31 O38 2.079 1_554 S
C32 O29 1.250 . S
C32 O30 1.248 . S
C33 O34 1.264 . S
C33 O41 1.249 . S
O34 C33 1.264 . S
O35 Mg28 1.986 1_545 S
O35 C39 1.246 . S
O36 Mg31 2.032 . S
O36 C39 1.259 . S
O37 Mg28 2.114 . S
O37 C40 1.252 1_554 S
O38 Mg28 2.251 1_546 S
O38 Mg31 2.079 1_556 S
O38 C40 1.273 1_545 S
C39 O35 1.246 . S
C39 O36 1.259 . S
C40 O37 1.252 1_556 S
C40 O38 1.273 1_565 S
O41 Mg28 2.010 . S
O41 C33 1.249 . S
Mg42 O43 2.014 1_655 S
Mg42 O49 1.986 1_655 S
Mg42 O51 2.114 . S
Mg42 O52 2.251 1_655 S
Mg42 O55 2.010 . S
O43 Mg42 2.014 1_455 S
O43 C46 1.281 . S
O44 Mg45 2.028 . S
O44 C46 1.248 . S
Mg45 O44 2.028 . S
Mg45 O50 2.032 . S
Mg45 O52 2.079 . S
C46 O43 1.281 . S
C46 O44 1.248 . S
C47 O48 1.264 . S
C47 O55 1.249 . S
O48 C47 1.264 . S
O49 Mg42 1.986 1_455 S
O49 C53 1.246 . S
O50 Mg45 2.032 . S
O50 C53 1.259 . S
O51 Mg42 2.114 . S
O51 C54 1.252 . S
O52 Mg42 2.251 1_455 S
O52 Mg45 2.079 . S
O52 C54 1.273 1_455 S
C53 O49 1.246 . S
C53 O50 1.259 . S
C54 O51 1.252 . S
C54 O52 1.273 1_655 S
O55 Mg42 2.010 . S
O55 C47 1.249 . S
Mg56 O57 2.028 1_556 S
Mg56 O63 1.986 . S
Mg56 O65 2.114 . S
Mg56 O66 2.251 . S
Mg56 O69 2.010 1_556 S
O57 Mg56 2.028 1_554 S
O57 C60 1.250 . S
O58 Mg59 2.028 1_554 S
O58 C60 1.248 . S
Mg59 O58 2.028 1_556 S
Mg59 O64 2.032 . S
Mg59 O66 2.079 . S
C60 O57 1.250 . S
C60 O58 1.248 . S
C61 O62 1.264 . S
C61 O69 1.249 . S
O62 C61 1.264 . S
O63 Mg56 1.986 . S
O63 C67 1.246 . S
O64 Mg59 2.032 . S
O64 C67 1.259 . S
O65 Mg56 2.114 . S
O65 C68 1.252 . S
O66 Mg56 2.251 . S
O66 Mg59 2.079 . S
O66 C68 1.273 . S
C67 O63 1.246 . S
C67 O64 1.259 . S
C68 O65 1.252 . S
C68 O66 1.273 . S
O69 Mg56 2.010 1_554 S
O69 C61 1.249 . S
Mg70 O71 2.028 . S
Mg70 O77 1.986 1_545 S
Mg70 O79 2.114 . S
Mg70 O80 2.251 . S
Mg70 O83 2.010 . S
O71 Mg70 2.028 . S
O71 C74 1.250 1_545 S
O72 Mg73 2.028 . S
O72 C74 1.248 . S
Mg73 O72 2.028 . S
Mg73 O78 2.032 . S
Mg73 O80 2.079 1_565 S
C74 O71 1.250 1_565 S
C74 O72 1.248 . S
C75 O76 1.264 . S
C75 O83 1.249 . S
O76 C75 1.264 . S
O77 Mg70 1.986 1_565 S
O77 C81 1.246 . S
O78 Mg73 2.032 . S
O78 C81 1.259 . S
O79 Mg70 2.114 . S
O79 C82 1.252 . S
O80 Mg70 2.251 . S
O80 Mg73 2.079 1_545 S
O80 C82 1.273 . S
C81 O77 1.246 . S
C81 O78 1.259 . S
C82 O79 1.252 . S
C82 O80 1.273 . S
O83 Mg70 2.010 . S
O83 C75 1.249 . S
Mg84 O85 2.028 . S
Mg84 O91 1.986 . S
Mg84 O93 2.114 . S
Mg84 O94 2.251 . S
Mg84 O97 2.010 . S
O85 Mg84 2.028 . S
O85 C88 1.250 . S
O86 Mg87 2.028 . S
O86 C88 1.248 . S
Mg87 O86 2.028 . S
Mg87 O92 2.032 . S
Mg87 O94 2.079 . S
C88 O85 1.250 . S
C88 O86 1.248 . S
C89 O90 1.264 . S
C89 O97 1.249 . S
O90 C89 1.264 . S
O91 Mg84 1.986 . S
O91 C95 1.246 . S
O92 Mg87 2.032 . S
O92 C95 1.259 . S
O93 Mg84 2.114 . S
O93 C96 1.252 . S
O94 Mg84 2.251 . S
O94 Mg87 2.079 . S
O94 C96 1.273 . S
C95 O91 1.246 . S
C95 O92 1.259 . S
C96 O93 1.252 . S
C96 O94 1.273 . S
O97 Mg84 2.010 . S
O97 C89 1.249 . S
Mg98 O99 2.028 . S
Mg98 O105 1.980 1_565 S
Mg98 O107 2.114 . S
Mg98 O108 2.251 . S
Mg98 O111 2.010 . S
O99 Mg98 2.028 . S
O99 C102 1.250 . S
O100 Mg101 2.028 . S
O100 C102 1.248 . S
Mg101 O100 2.028 . S
Mg101 O106 2.032 . S
Mg101 O108 2.079 . S
C102 O99 1.250 . S
C102 O100 1.248 . S
C103 O104 1.264 . S
C103 O111 1.249 . S
O104 C103 1.264 . S
O105 Mg98 1.980 1_545 S
O105 C109 1.250 . S
O106 Mg101 2.032 . S
O106 C109 1.259 1_565 S
O107 Mg98 2.114 . S
O107 C110 1.252 . S
O108 Mg98 2.251 . S
O108 Mg101 2.079 . S
O108 C110 1.273 . S
C109 O105 1.250 . S
C109 O106 1.259 1_545 S
C110 O107 1.252 . S
C110 O108 1.273 . S
O111 Mg98 2.010 . S
O111 C103 1.249 . S
Mg112 O113 2.028 . S
Mg112 O119 1.986 . S
Mg112 O121 2.114 . S
Mg112 O122 2.251 . S
Mg112 O125 2.010 . S
O113 Mg112 2.028 . S
O113 C116 1.250 . S
O114 Mg115 2.028 . S
O114 C116 1.248 . S
Mg115 O114 2.028 . S
Mg115 O120 2.032 . S
Mg115 O122 2.079 . S
C116 O113 1.250 . S
C116 O114 1.248 . S
C117 O118 1.264 . S
C117 O125 1.249 1_655 S
O118 C117 1.264 . S
O119 Mg112 1.986 . S
O119 C123 1.246 . S
O120 Mg115 2.032 . S
O120 C123 1.259 . S
O121 Mg112 2.114 . S
O121 C124 1.252 . S
O122 Mg112 2.251 . S
O122 Mg115 2.079 . S
O122 C124 1.273 . S
C123 O119 1.246 . S
C123 O120 1.259 . S
C124 O121 1.252 . S
C124 O122 1.273 . S
O125 Mg112 2.010 . S
O125 C117 1.249 1_455 S
Mg126 O127 2.028 . S
Mg126 O133 2.002 . S
Mg126 O135 2.114 . S
Mg126 O136 2.251 . S
Mg126 O139 2.010 . S
O127 Mg126 2.028 . S
O127 C130 1.250 . S
O128 Mg129 2.028 . S
O128 C130 1.248 . S
Mg129 O128 2.028 . S
Mg129 O134 2.032 . S
Mg129 O136 2.079 . S
C130 O127 1.250 . S
C130 O128 1.248 . S
C131 O132 1.264 . S
C131 O139 1.249 . S
O132 C131 1.264 . S
O133 Mg126 2.002 . S
O133 C137 1.249 1_565 S
O134 Mg129 2.032 . S
O134 C137 1.259 1_565 S
O135 Mg126 2.114 . S
O135 C138 1.252 . S
O136 Mg126 2.251 . S
O136 Mg129 2.079 . S
O136 C138 1.273 . S
C137 O133 1.249 1_545 S
C137 O134 1.259 1_545 S
C138 O135 1.252 . S
C138 O136 1.273 . S
O139 Mg126 2.010 . S
O139 C131 1.249 . S
Mg140 O141 2.028 . S
Mg140 O147 1.986 . S
Mg140 O149 2.114 . S
Mg140 O150 2.251 . S
Mg140 O153 2.010 . S
O141 Mg140 2.028 . S
O141 C144 1.250 . S
O142 Mg143 2.028 . S
O142 C144 1.248 . S
Mg143 O142 2.028 . S
Mg143 O148 2.032 . S
Mg143 O150 2.079 . S
C144 O141 1.250 . S
C144 O142 1.248 . S
C145 O146 1.264 . S
C145 O153 1.249 1_655 S
O146 C145 1.264 . S
O147 Mg140 1.986 . S
O147 C151 1.246 . S
O148 Mg143 2.032 . S
O148 C151 1.259 . S
O149 Mg140 2.114 . S
O149 C152 1.252 . S
O150 Mg140 2.251 . S
O150 Mg143 2.079 . S
O150 C152 1.273 . S
C151 O147 1.246 . S
C151 O148 1.259 . S
C152 O149 1.252 . S
C152 O150 1.273 . S
O153 Mg140 2.010 . S
O153 C145 1.249 1_455 S
Mg154 O155 2.028 . S
Mg154 O161 1.986 . S
Mg154 O163 2.114 . S
Mg154 O164 2.251 . S
Mg154 O167 2.010 . S
O155 Mg154 2.028 . S
O155 C158 1.250 . S
O156 Mg157 2.028 . S
O156 C158 1.248 . S
Mg157 O156 2.028 . S
Mg157 O162 2.032 . S
Mg157 O164 2.079 . S
C158 O155 1.250 . S
C158 O156 1.248 . S
C159 O160 1.264 . S
C159 O167 1.249 . S
O160 C159 1.264 . S
O161 Mg154 1.986 . S
O161 C165 1.246 . S
O162 Mg157 2.032 . S
O162 C165 1.259 . S
O163 Mg154 2.114 . S
O163 C166 1.252 . S
O164 Mg154 2.251 . S
O164 Mg157 2.079 . S
O164 C166 1.273 . S
C165 O161 1.246 . S
C165 O162 1.259 . S
C166 O163 1.252 . S
C166 O164 1.273 . S
O167 Mg154 2.010 . S
O167 C159 1.249 . S
Mg168 O169 2.028 . S
Mg168 O175 1.986 . S
Mg168 O177 2.114 . S
Mg168 O178 2.251 . S
Mg168 O181 2.010 . S
O169 Mg168 2.028 . S
O169 C172 1.250 . S
O170 Mg171 2.028 . S
O170 C172 1.248 . S
Mg171 O170 2.028 . S
Mg171 O176 2.032 . S
Mg171 O178 2.079 . S
C172 O169 1.250 . S
C172 O170 1.248 . S
C173 O174 1.264 . S
C173 O181 1.249 . S
O174 C173 1.264 . S
O175 Mg168 1.986 . S
O175 C179 1.250 1_545 S
O176 Mg171 2.032 . S
O176 C179 1.236 1_545 S
O177 Mg168 2.114 . S
O177 C180 1.252 . S
O178 Mg168 2.251 . S
O178 Mg171 2.079 . S
O178 C180 1.273 . S
C179 O175 1.250 1_565 S
C179 O176 1.236 1_565 S
C180 O177 1.252 . S
C180 O178 1.273 . S
O181 Mg168 2.010 . S
O181 C173 1.249 . S
Mg182 O183 2.028 . S
Mg182 O189 1.986 . S
Mg182 O191 2.114 . S
Mg182 O192 2.251 . S
Mg182 O195 2.010 1_655 S
O183 Mg182 2.028 . S
O183 C186 1.250 . S
O184 Mg185 2.028 . S
O184 C186 1.248 . S
Mg185 O184 2.028 . S
Mg185 O190 2.032 . S
Mg185 O192 2.079 . S
C186 O183 1.250 . S
C186 O184 1.248 . S
C187 O188 1.264 . S
C187 O195 1.249 . S
O188 C187 1.264 . S
O189 Mg182 1.986 . S
O189 C193 1.246 . S
O190 Mg185 2.032 . S
O190 C193 1.259 . S
O191 Mg182 2.114 . S
O191 C194 1.252 . S
O192 Mg182 2.251 . S
O192 Mg185 2.079 . S
O192 C194 1.273 . S
C193 O189 1.246 . S
C193 O190 1.259 . S
C194 O191 1.252 . S
C194 O192 1.273 . S
O195 Mg182 2.010 1_455 S
O195 C187 1.249 . S
Mg196 O197 2.028 . S
Mg196 O203 1.986 . S
Mg196 O205 2.114 . S
Mg196 O206 2.251 . S
Mg196 O209 2.010 . S
O197 Mg196 2.028 . S
O197 C200 1.250 . S
O198 Mg199 2.028 . S
O198 C200 1.248 . S
Mg199 O198 2.028 . S
Mg199 O204 2.032 . S
Mg199 O206 2.079 . S
C200 O197 1.250 . S
C200 O198 1.248 . S
C201 O202 1.264 . S
C201 O209 1.249 . S
O202 C201 1.264 . S
O203 Mg196 1.986 . S
O203 C207 1.246 . S
O204 Mg199 2.032 . S
O204 C207 1.259 . S
O205 Mg196 2.114 . S
O205 C208 1.252 . S
O206 Mg196 2.251 . S
O206 Mg199 2.079 . S
O206 C208 1.273 . S
C207 O203 1.246 . S
C207 O204 1.259 . S
C208 O205 1.252 . S
C208 O206 1.273 . S
O209 Mg196 2.010 . S
O209 C201 1.249 . S
Mg210 O211 2.028 . S
Mg210 O217 1.986 . S
Mg210 O219 2.114 . S
Mg210 O220 2.251 . S
Mg210 O223 2.010 . S
O211 Mg210 2.028 . S
O211 C214 1.250 . S
O212 Mg213 2.028 . S
O212 C214 1.248 . S
Mg213 O212 2.028 . S
Mg213 O218 2.032 . S
Mg213 O220 2.079 . S
C214 O211 1.250 . S
C214 O212 1.248 . S
C215 O216 1.264 . S
C215 O223 1.249 . S
O216 C215 1.264 . S
O217 Mg210 1.986 . S
O217 C221 1.246 . S
O218 Mg213 2.032 . S
O218 C221 1.259 . S
O219 Mg210 2.114 . S
O219 C222 1.252 . S
O220 Mg210 2.251 . S
O220 Mg213 2.079 . S
O220 C222 1.273 . S
C221 O217 1.246 . S
C221 O218 1.259 . S
C222 O219 1.252 . S
C222 O220 1.273 . S
O223 Mg210 2.010 . S
O223 C215 1.249 . S
Mg224 O225 2.028 . S
Mg224 O231 1.986 . S
Mg224 O233 2.114 . S
Mg224 O234 2.251 . S
Mg224 O237 2.010 . S
O225 Mg224 2.028 . S
O225 C228 1.250 . S
O226 Mg227 2.028 . S
O226 C228 1.248 . S
Mg227 O226 2.028 . S
Mg227 O232 2.032 . S
Mg227 O234 2.079 . S
C228 O225 1.250 . S
C228 O226 1.248 . S
C229 O230 1.264 . S
C229 O237 1.249 . S
O230 C229 1.264 . S
O231 Mg224 1.986 . S
O231 C235 1.246 1_545 S
O232 Mg227 2.032 . S
O232 C235 1.259 1_545 S
O233 Mg224 2.114 . S
O233 C236 1.252 . S
O234 Mg224 2.251 . S
O234 Mg227 2.079 . S
O234 C236 1.273 . S
C235 O231 1.246 1_565 S
C235 O232 1.259 1_565 S
C236 O233 1.252 . S
C236 O234 1.273 . S
O237 Mg224 2.010 . S
O237 C229 1.249 . S
Mg238 O239 2.028 . S
Mg238 O245 1.986 . S
Mg238 O247 2.114 . S
Mg238 O248 2.251 . S
Mg238 O251 2.014 . S
O239 Mg238 2.028 . S
O239 C242 1.250 . S
O240 Mg241 2.028 . S
O240 C242 1.248 . S
Mg241 O240 2.028 . S
Mg241 O246 2.032 . S
Mg241 O248 2.079 . S
C242 O239 1.250 . S
C242 O240 1.248 . S
C243 O244 1.264 . S
C243 O251 1.247 1_455 S
O244 C243 1.264 . S
O245 Mg238 1.986 . S
O245 C249 1.246 . S
O246 Mg241 2.032 . S
O246 C249 1.259 . S
O247 Mg238 2.114 . S
O247 C250 1.252 . S
O248 Mg238 2.251 . S
O248 Mg241 2.079 . S
O248 C250 1.273 . S
C249 O245 1.246 . S
C249 O246 1.259 . S
C250 O247 1.252 . S
C250 O248 1.273 . S
O251 Mg238 2.014 . S
O251 C243 1.247 1_655 S
H252 O278 0.856 1_556 S
H253 O281 0.854 . S
H254 C289 0.930 . S
H255 C290 0.930 . S
H256 C292 0.930 . S
H257 C293 0.930 . S
H258 C295 0.931 . S
H259 C296 0.930 . S
H260 C298 0.930 . S
H261 C299 0.929 . S
H262 C301 0.930 . S
H263 C302 0.931 . S
H264 C304 0.930 . S
H265 C305 0.929 . S
H266 C307 0.931 . S
H267 C308 0.930 . S
H268 C310 0.930 . S
H269 C311 0.932 . S
H270 C313 0.930 . S
H271 C314 0.929 . S
H272 C316 0.931 . S
H273 C317 0.930 . S
H274 C319 0.929 . S
H275 C320 0.931 . S
H276 C322 0.930 . S
H277 C323 0.929 . S
O278 H252 0.856 1_554 S
O278 C324 1.300 . S
O279 C324 1.209 . S
O280 C325 1.199 . S
O281 H253 0.854 . S
O281 C325 1.297 . S
C282 C283 1.404 . S
C282 C287 1.397 . S
C282 C288 1.492 . S
C283 C282 1.404 . S
C283 C284 1.396 . S
C283 C294 1.492 . S
C284 C283 1.396 . S
C284 C285 1.397 . S
C284 C300 1.509 . S
C285 C284 1.397 . S
C285 C286 1.412 . S
C285 C306 1.485 . S
C286 C285 1.412 . S
C286 C287 1.388 . S
C286 C312 1.490 . S
C287 C282 1.397 . S
C287 C286 1.388 . S
C287 C318 1.519 . S
C288 C282 1.492 . S
C288 C289 1.363 . S
C288 C293 1.390 . S
C289 H254 0.930 . S
C289 C288 1.363 . S
C289 C290 1.372 . S
C290 H255 0.930 . S
C290 C289 1.372 . S
C290 C291 1.383 . S
C291 C290 1.383 . S
C291 C292 1.395 . S
C292 H256 0.930 . S
C292 C291 1.395 . S
C292 C293 1.362 . S
C293 H257 0.930 . S
C293 C288 1.390 . S
C293 C292 1.362 . S
C294 C283 1.492 . S
C294 C295 1.377 . S
C294 C299 1.397 . S
C295 H258 0.931 . S
C295 C294 1.377 . S
C295 C296 1.376 . S
C296 H259 0.930 . S
C296 C295 1.376 . S
C296 C297 1.376 . S
C297 C296 1.376 . S
C297 C298 1.378 . S
C297 C324 1.486 . S
C298 H260 0.930 . S
C298 C297 1.378 . S
C298 C299 1.376 . S
C299 H261 0.929 . S
C299 C294 1.397 . S
C299 C298 1.376 . S
C300 C284 1.509 . S
C300 C301 1.391 . S
C300 C305 1.386 . S
C301 H262 0.930 . S
C301 C300 1.391 . S
C301 C302 1.375 . S
C302 H263 0.931 . S
C302 C301 1.375 . S
C302 C303 1.375 . S
C303 C302 1.375 . S
C303 C304 1.361 . S
C304 H264 0.930 . S
C304 C303 1.361 . S
C304 C305 1.399 . S
C305 H265 0.929 . S
C305 C300 1.386 . S
C305 C304 1.399 . S
C306 C285 1.485 . S
C306 C307 1.394 . S
C306 C311 1.360 . S
C307 H266 0.931 . S
C307 C306 1.394 . S
C307 C308 1.372 . S
C308 H267 0.930 . S
C308 C307 1.372 . S
C308 C309 1.397 . S
C309 C308 1.397 . S
C309 C310 1.390 . S
C309 C325 1.476 . S
C310 H268 0.930 . S
C310 C309 1.390 . S
C310 C311 1.366 . S
C311 H269 0.932 . S
C311 C306 1.360 . S
C311 C310 1.366 . S
C312 C286 1.490 . S
C312 C313 1.380 . S
C312 C317 1.386 . S
C313 H270 0.930 . S
C313 C312 1.380 . S
C313 C314 1.381 . S
C314 H271 0.929 . S
C314 C313 1.381 . S
C314 C315 1.371 . S
C315 C314 1.371 . S
C315 C316 1.380 . S
C316 H272 0.931 . S
C316 C315 1.380 . S
C316 C317 1.387 . S
C317 H273 0.930 . S
C317 C312 1.386 . S
C317 C316 1.387 . S
C318 C287 1.519 . S
C318 C319 1.377 . S
C318 C323 1.361 . S
C319 H274 0.929 . S
C319 C318 1.377 . S
C319 C320 1.386 . S
C320 H275 0.931 . S
C320 C319 1.386 . S
C320 C321 1.363 . S
C321 C320 1.363 . S
C321 C322 1.385 . S
C322 H276 0.930 . S
C322 C321 1.385 . S
C322 C323 1.396 . S
C323 H277 0.929 . S
C323 C318 1.361 . S
C323 C322 1.396 . S
C324 O278 1.300 . S
C324 O279 1.209 . S
C324 C297 1.486 . S
C325 O280 1.199 . S
C325 O281 1.297 . S
C325 C309 1.476 . S
H326 O352 0.856 . S
H327 O355 0.854 . S
H328 C363 0.930 . S
H329 C364 0.930 . S
H330 C366 0.930 . S
H331 C367 0.930 . S
H332 C369 0.931 . S
H333 C370 0.930 . S
H334 C372 0.930 . S
H335 C373 0.929 . S
H336 C375 0.930 . S
H337 C376 0.931 . S
H338 C378 0.930 . S
H339 C379 0.929 . S
H340 C381 0.931 . S
H341 C382 0.930 . S
H342 C384 0.930 . S
H343 C385 0.932 . S
H344 C387 0.930 . S
H345 C388 0.929 . S
H346 C390 0.931 . S
H347 C391 0.930 . S
H348 C393 0.929 . S
H349 C394 0.931 . S
H350 C396 0.930 . S
H351 C397 0.929 . S
O352 H326 0.856 . S
O352 C398 1.300 . S
O353 C398 1.209 . S
O354 C399 1.199 . S
O355 H327 0.854 . S
O355 C399 1.297 1_545 S
C356 C357 1.404 . S
C356 C361 1.397 . S
C356 C362 1.492 . S
C357 C356 1.404 . S
C357 C358 1.396 . S
C357 C368 1.492 . S
C358 C357 1.396 . S
C358 C359 1.397 . S
C358 C374 1.509 . S
C359 C358 1.397 . S
C359 C360 1.412 . S
C359 C380 1.485 . S
C360 C359 1.412 . S
C360 C361 1.388 . S
C360 C386 1.490 . S
C361 C356 1.397 . S
C361 C360 1.388 . S
C361 C392 1.519 . S
C362 C356 1.492 . S
C362 C363 1.363 . S
C362 C367 1.390 . S
C363 H328 0.930 . S
C363 C362 1.363 . S
C363 C364 1.372 . S
C364 H329 0.930 . S
C364 C363 1.372 . S
C364 C365 1.383 . S
C365 C364 1.383 . S
C365 C366 1.395 . S
C366 H330 0.930 . S
C366 C365 1.395 . S
C366 C367 1.362 . S
C367 H331 0.930 . S
C367 C362 1.390 . S
C367 C366 1.362 . S
C368 C357 1.492 . S
C368 C369 1.377 . S
C368 C373 1.397 . S
C369 H332 0.931 . S
C369 C368 1.377 . S
C369 C370 1.376 . S
C370 H333 0.930 . S
C370 C369 1.376 . S
C370 C371 1.376 . S
C371 C370 1.376 . S
C371 C372 1.378 . S
C371 C398 1.486 . S
C372 H334 0.930 . S
C372 C371 1.378 . S
C372 C373 1.376 . S
C373 H335 0.929 . S
C373 C368 1.397 . S
C373 C372 1.376 . S
C374 C358 1.509 . S
C374 C375 1.391 . S
C374 C379 1.386 . S
C375 H336 0.930 . S
C375 C374 1.391 . S
C375 C376 1.375 . S
C376 H337 0.931 . S
C376 C375 1.375 . S
C376 C377 1.375 . S
C377 C376 1.375 . S
C377 C378 1.361 . S
C378 H338 0.930 . S
C378 C377 1.361 . S
C378 C379 1.399 . S
C379 H339 0.929 . S
C379 C374 1.386 . S
C379 C378 1.399 . S
C380 C359 1.485 . S
C380 C381 1.394 . S
C380 C385 1.360 . S
C381 H340 0.931 . S
C381 C380 1.394 . S
C381 C382 1.372 . S
C382 H341 0.930 . S
C382 C381 1.372 . S
C382 C383 1.397 . S
C383 C382 1.397 . S
C383 C384 1.390 . S
C383 C399 1.476 . S
C384 H342 0.930 . S
C384 C383 1.390 . S
C384 C385 1.366 . S
C385 H343 0.932 . S
C385 C380 1.360 . S
C385 C384 1.366 . S
C386 C360 1.490 . S
C386 C387 1.380 . S
C386 C391 1.386 . S
C387 H344 0.930 . S
C387 C386 1.380 . S
C387 C388 1.381 . S
C388 H345 0.929 . S
C388 C387 1.381 . S
C388 C389 1.371 . S
C389 C388 1.371 . S
C389 C390 1.380 . S
C390 H346 0.931 . S
C390 C389 1.380 . S
C390 C391 1.387 . S
C391 H347 0.930 . S
C391 C386 1.386 . S
C391 C390 1.387 . S
C392 C361 1.519 . S
C392 C393 1.377 . S
C392 C397 1.361 . S
C393 H348 0.929 . S
C393 C392 1.377 . S
C393 C394 1.386 . S
C394 H349 0.931 . S
C394 C393 1.386 . S
C394 C395 1.363 . S
C395 C394 1.363 . S
C395 C396 1.385 . S
C396 H350 0.930 . S
C396 C395 1.385 . S
C396 C397 1.396 . S
C397 H351 0.929 . S
C397 C392 1.361 . S
C397 C396 1.396 . S
C398 O352 1.300 . S
C398 O353 1.209 . S
C398 C371 1.486 . S
C399 O354 1.199 . S
C399 O355 1.297 1_565 S
C399 C383 1.476 . S
H400 O426 0.856 . S
H401 O429 0.825 1_545 S
H402 C437 0.930 . S
H403 C438 0.930 . S
H404 C440 0.930 . S
H405 C441 0.930 . S
H406 C443 0.931 . S
H407 C444 0.930 . S
H408 C446 0.930 . S
H409 C447 0.929 . S
H410 C449 0.930 . S
H411 C450 0.931 . S
H412 C452 0.930 . S
H413 C453 0.929 . S
H414 C455 0.931 . S
H415 C456 0.930 . S
H416 C458 0.930 . S
H417 C459 0.932 . S
H418 C461 0.930 . S
H419 C462 0.929 . S
H420 C464 0.931 . S
H421 C465 0.930 . S
H422 C467 0.929 . S
H423 C468 0.931 . S
H424 C470 0.930 . S
H425 C471 0.929 . S
O426 H400 0.856 . S
O426 C472 1.300 . S
O427 C472 1.209 . S
O428 C473 1.199 1_545 S
O429 H401 0.825 1_565 S
O429 C473 1.297 . S
C430 C431 1.404 . S
C430 C435 1.397 . S
C430 C436 1.492 . S
C431 C430 1.404 . S
C431 C432 1.396 . S
C431 C442 1.492 . S
C432 C431 1.396 . S
C432 C433 1.397 . S
C432 C448 1.509 . S
C433 C432 1.397 . S
C433 C434 1.412 . S
C433 C454 1.485 . S
C434 C433 1.412 . S
C434 C435 1.388 . S
C434 C460 1.490 . S
C435 C430 1.397 . S
C435 C434 1.388 . S
C435 C466 1.519 . S
C436 C430 1.492 . S
C436 C437 1.363 . S
C436 C441 1.390 . S
C437 H402 0.930 . S
C437 C436 1.363 . S
C437 C438 1.372 . S
C438 H403 0.930 . S
C438 C437 1.372 . S
C438 C439 1.383 . S
C439 C438 1.383 . S
C439 C440 1.395 . S
C440 H404 0.930 . S
C440 C439 1.395 . S
C440 C441 1.362 . S
C441 H405 0.930 . S
C441 C436 1.390 . S
C441 C440 1.362 . S
C442 C431 1.492 . S
C442 C443 1.377 . S
C442 C447 1.397 . S
C443 H406 0.931 . S
C443 C442 1.377 . S
C443 C444 1.376 . S
C444 H407 0.930 . S
C444 C443 1.376 . S
C444 C445 1.376 . S
C445 C444 1.376 . S
C445 C446 1.378 . S
C445 C472 1.486 . S
C446 H408 0.930 . S
C446 C445 1.378 . S
C446 C447 1.376 . S
C447 H409 0.929 . S
C447 C442 1.397 . S
C447 C446 1.376 . S
C448 C432 1.509 . S
C448 C449 1.391 . S
C448 C453 1.386 . S
C449 H410 0.930 . S
C449 C448 1.391 . S
C449 C450 1.375 . S
C450 H411 0.931 . S
C450 C449 1.375 . S
C450 C451 1.375 . S
C451 C450 1.375 . S
C451 C452 1.361 . S
C452 H412 0.930 . S
C452 C451 1.361 . S
C452 C453 1.399 . S
C453 H413 0.929 . S
C453 C448 1.386 . S
C453 C452 1.399 . S
C454 C433 1.485 . S
C454 C455 1.394 . S
C454 C459 1.360 . S
C455 H414 0.931 . S
C455 C454 1.394 . S
C455 C456 1.372 . S
C456 H415 0.930 . S
C456 C455 1.372 . S
C456 C457 1.397 . S
C457 C456 1.397 . S
C457 C458 1.390 . S
C457 C473 1.476 . S
C458 H416 0.930 . S
C458 C457 1.390 . S
C458 C459 1.366 . S
C459 H417 0.932 . S
C459 C454 1.360 . S
C459 C458 1.366 . S
C460 C434 1.490 . S
C460 C461 1.380 . S
C460 C465 1.386 . S
C461 H418 0.930 . S
C461 C460 1.380 . S
C461 C462 1.381 . S
C462 H419 0.929 . S
C462 C461 1.381 . S
C462 C463 1.371 . S
C463 C462 1.371 . S
C463 C464 1.380 . S
C464 H420 0.931 . S
C464 C463 1.380 . S
C464 C465 1.387 . S
C465 H421 0.930 . S
C465 C460 1.386 . S
C465 C464 1.387 . S
C466 C435 1.519 . S
C466 C467 1.377 . S
C466 C471 1.361 . S
C467 H422 0.929 . S
C467 C466 1.377 . S
C467 C468 1.386 . S
C468 H423 0.931 . S
C468 C467 1.386 . S
C468 C469 1.363 . S
C469 C468 1.363 . S
C469 C470 1.385 . S
C470 H424 0.930 . S
C470 C469 1.385 . S
C470 C471 1.396 . S
C471 H425 0.929 . S
C471 C466 1.361 . S
C471 C470 1.396 . S
C472 O426 1.300 . S
C472 O427 1.209 . S
C472 C445 1.486 . S
C473 O428 1.199 1_565 S
C473 O429 1.297 . S
C473 C457 1.476 . S
H474 O500 0.856 . S
H475 O503 0.854 . S
H476 C511 0.930 . S
H477 C512 0.930 . S
H478 C514 0.930 . S
H479 C515 0.930 . S
H480 C517 0.931 . S
H481 C518 0.930 1_554 S
H482 C520 0.930 . S
H483 C521 0.929 . S
H484 C523 0.930 . S
H485 C524 0.931 . S
H486 C526 0.930 . S
H487 C527 0.929 . S
H488 C529 0.931 . S
H489 C530 0.930 . S
H490 C532 0.930 . S
H491 C533 0.932 . S
H492 C535 0.930 . S
H493 C536 0.929 . S
H494 C538 0.931 . S
H495 C539 0.930 . S
H496 C541 0.929 . S
H497 C542 0.931 . S
H498 C544 0.930 . S
H499 C545 0.929 . S
O500 H474 0.856 . S
O500 C546 1.300 . S
O501 C546 1.209 . S
O502 C547 1.199 . S
O503 H475 0.854 . S
O503 C547 1.297 . S
C504 C505 1.404 . S
C504 C509 1.397 . S
C504 C510 1.492 . S
C505 C504 1.404 . S
C505 C506 1.396 . S
C505 C516 1.492 . S
C506 C505 1.396 . S
C506 C507 1.397 . S
C506 C522 1.509 . S
C507 C506 1.397 . S
C507 C508 1.412 . S
C507 C528 1.485 . S
C508 C507 1.412 . S
C508 C509 1.388 . S
C508 C534 1.490 . S
C509 C504 1.397 . S
C509 C508 1.388 . S
C509 C540 1.519 . S
C510 C504 1.492 . S
C510 C511 1.363 . S
C510 C515 1.390 . S
C511 H476 0.930 . S
C511 C510 1.363 . S
C511 C512 1.372 . S
C512 H477 0.930 . S
C512 C511 1.372 . S
C512 C513 1.383 . S
C513 C512 1.383 . S
C513 C514 1.395 . S
C514 H478 0.930 . S
C514 C513 1.395 . S
C514 C515 1.362 . S
C515 H479 0.930 . S
C515 C510 1.390 . S
C515 C514 1.362 . S
C516 C505 1.492 . S
C516 C517 1.377 . S
C516 C521 1.397 . S
C517 H480 0.931 . S
C517 C516 1.377 . S
C517 C518 1.376 . S
C518 H481 0.930 1_556 S
C518 C517 1.376 . S
C518 C519 1.376 1_556 S
C519 C518 1.376 1_554 S
C519 C520 1.378 1_554 S
C519 C546 1.486 . S
C520 H482 0.930 . S
C520 C519 1.378 1_556 S
C520 C521 1.376 . S
C521 H483 0.929 . S
C521 C516 1.397 . S
C521 C520 1.376 . S
C522 C506 1.509 . S
C522 C523 1.391 . S
C522 C527 1.386 . S
C523 H484 0.930 . S
C523 C522 1.391 . S
C523 C524 1.375 . S
C524 H485 0.931 . S
C524 C523 1.375 . S
C524 C525 1.375 . S
C525 C524 1.375 . S
C525 C526 1.361 . S
C526 H486 0.930 . S
C526 C525 1.361 . S
C526 C527 1.399 . S
C527 H487 0.929 . S
C527 C522 1.386 . S
C527 C526 1.399 . S
C528 C507 1.485 . S
C528 C529 1.394 . S
C528 C533 1.360 . S
C529 H488 0.931 . S
C529 C528 1.394 . S
C529 C530 1.372 . S
C530 H489 0.930 . S
C530 C529 1.372 . S
C530 C531 1.397 . S
C531 C530 1.397 . S
C531 C532 1.390 . S
C531 C547 1.476 . S
C532 H490 0.930 . S
C532 C531 1.390 . S
C532 C533 1.366 . S
C533 H491 0.932 . S
C533 C528 1.360 . S
C533 C532 1.366 . S
C534 C508 1.490 . S
C534 C535 1.380 . S
C534 C539 1.386 . S
C535 H492 0.930 . S
C535 C534 1.380 . S
C535 C536 1.381 . S
C536 H493 0.929 . S
C536 C535 1.381 . S
C536 C537 1.371 . S
C537 C536 1.371 . S
C537 C538 1.380 . S
C538 H494 0.931 . S
C538 C537 1.380 . S
C538 C539 1.387 . S
C539 H495 0.930 . S
C539 C534 1.386 . S
C539 C538 1.387 . S
C540 C509 1.519 . S
C540 C541 1.377 . S
C540 C545 1.361 . S
C541 H496 0.929 . S
C541 C540 1.377 . S
C541 C542 1.386 . S
C542 H497 0.931 . S
C542 C541 1.386 . S
C542 C543 1.363 . S
C543 C542 1.363 . S
C543 C544 1.385 . S
C544 H498 0.930 . S
C544 C543 1.385 . S
C544 C545 1.396 . S
C545 H499 0.929 . S
C545 C540 1.361 . S
C545 C544 1.396 . S
C546 O500 1.300 . S
C546 O501 1.209 . S
C546 C519 1.486 . S
C547 O502 1.199 . S
C547 O503 1.297 . S
C547 C531 1.476 . S
H548 O574 0.856 . S
H549 O577 0.855 1_565 S
H550 C585 0.930 . S
H551 C586 0.930 . S
H552 C588 0.930 . S
H553 C589 0.930 . S
H554 C591 0.931 . S
H555 C592 0.930 . S
H556 C594 0.930 . S
H557 C595 0.929 . S
H558 C597 0.930 . S
H559 C598 0.931 . S
H560 C600 0.930 . S
H561 C601 0.929 . S
H562 C603 0.931 . S
H563 C604 0.930 . S
H564 C606 0.930 . S
H565 C607 0.932 . S
H566 C609 0.930 . S
H567 C610 0.929 . S
H568 C612 0.931 . S
H569 C613 0.930 . S
H570 C615 0.929 . S
H571 C616 0.931 . S
H572 C618 0.930 . S
H573 C619 0.929 . S
O574 H548 0.856 . S
O574 C620 1.300 . S
O575 C620 1.209 . S
O576 C621 1.199 . S
O577 H549 0.855 1_545 S
O577 C621 1.294 . S
C578 C579 1.404 . S
C578 C583 1.397 . S
C578 C584 1.492 . S
C579 C578 1.404 . S
C579 C580 1.396 . S
C579 C590 1.492 . S
C580 C579 1.396 . S
C580 C581 1.397 . S
C580 C596 1.509 . S
C581 C580 1.397 . S
C581 C582 1.412 . S
C581 C602 1.485 . S
C582 C581 1.412 . S
C582 C583 1.388 . S
C582 C608 1.490 . S
C583 C578 1.397 . S
C583 C582 1.388 . S
C583 C614 1.519 . S
C584 C578 1.492 . S
C584 C585 1.363 . S
C584 C589 1.390 . S
C585 H550 0.930 . S
C585 C584 1.363 . S
C585 C586 1.372 . S
C586 H551 0.930 . S
C586 C585 1.372 . S
C586 C587 1.383 . S
C587 C586 1.383 . S
C587 C588 1.395 . S
C588 H552 0.930 . S
C588 C587 1.395 . S
C588 C589 1.362 . S
C589 H553 0.930 . S
C589 C584 1.390 . S
C589 C588 1.362 . S
C590 C579 1.492 . S
C590 C591 1.377 . S
C590 C595 1.397 . S
C591 H554 0.931 . S
C591 C590 1.377 . S
C591 C592 1.376 1_556 S
C592 H555 0.930 . S
C592 C591 1.376 1_554 S
C592 C593 1.376 . S
C593 C592 1.376 . S
C593 C594 1.378 . S
C593 C620 1.486 . S
C594 H556 0.930 . S
C594 C593 1.378 . S
C594 C595 1.376 1_554 S
C595 H557 0.929 . S
C595 C590 1.397 . S
C595 C594 1.376 1_556 S
C596 C580 1.509 . S
C596 C597 1.391 . S
C596 C601 1.386 . S
C597 H558 0.930 . S
C597 C596 1.391 . S
C597 C598 1.375 . S
C598 H559 0.931 . S
C598 C597 1.375 . S
C598 C599 1.375 . S
C599 C598 1.375 . S
C599 C600 1.361 . S
C600 H560 0.930 . S
C600 C599 1.361 . S
C600 C601 1.399 . S
C601 H561 0.929 . S
C601 C596 1.386 . S
C601 C600 1.399 . S
C602 C581 1.485 . S
C602 C603 1.394 . S
C602 C607 1.360 . S
C603 H562 0.931 . S
C603 C602 1.394 . S
C603 C604 1.372 . S
C604 H563 0.930 . S
C604 C603 1.372 . S
C604 C605 1.397 . S
C605 C604 1.397 . S
C605 C606 1.390 . S
C605 C621 1.476 . S
C606 H564 0.930 . S
C606 C605 1.390 . S
C606 C607 1.366 . S
C607 H565 0.932 . S
C607 C602 1.360 . S
C607 C606 1.366 . S
C608 C582 1.490 . S
C608 C609 1.380 . S
C608 C613 1.386 . S
C609 H566 0.930 . S
C609 C608 1.380 . S
C609 C610 1.381 . S
C610 H567 0.929 . S
C610 C609 1.381 . S
C610 C611 1.371 . S
C611 C610 1.371 . S
C611 C612 1.380 . S
C612 H568 0.931 . S
C612 C611 1.380 . S
C612 C613 1.387 . S
C613 H569 0.930 . S
C613 C608 1.386 . S
C613 C612 1.387 . S
C614 C583 1.519 . S
C614 C615 1.377 . S
C614 C619 1.361 . S
C615 H570 0.929 . S
C615 C614 1.377 . S
C615 C616 1.386 . S
C616 H571 0.931 . S
C616 C615 1.386 . S
C616 C617 1.363 . S
C617 C616 1.363 . S
C617 C618 1.385 . S
C618 H572 0.930 . S
C618 C617 1.385 . S
C618 C619 1.396 . S
C619 H573 0.929 . S
C619 C614 1.361 . S
C619 C618 1.396 . S
C620 O574 1.300 . S
C620 O575 1.209 . S
C620 C593 1.486 . S
C621 O576 1.199 . S
C621 O577 1.294 . S
C621 C605 1.476 . S
H622 O648 0.856 . S
H623 O651 0.854 . S
H624 C659 0.930 . S
H625 C660 0.930 . S
H626 C662 0.930 . S
H627 C663 0.930 . S
H628 C665 0.931 . S
H629 C666 0.930 . S
H630 C668 0.930 . S
H631 C669 0.929 . S
H632 C671 0.930 . S
H633 C672 0.931 . S
H634 C674 0.930 . S
H635 C675 0.929 . S
H636 C677 0.931 . S
H637 C678 0.930 . S
H638 C680 0.930 . S
H639 C681 0.932 . S
H640 C683 0.930 . S
H641 C684 0.929 . S
H642 C686 0.931 . S
H643 C687 0.930 . S
H644 C689 0.929 . S
H645 C690 0.931 . S
H646 C692 0.930 . S
H647 C693 0.929 . S
O648 H622 0.856 . S
O648 C694 1.300 . S
O649 C694 1.209 . S
O650 C695 1.199 . S
O651 H623 0.854 . S
O651 C695 1.297 . S
C652 C653 1.404 . S
C652 C657 1.397 . S
C652 C658 1.492 . S
C653 C652 1.404 . S
C653 C654 1.396 . S
C653 C664 1.492 . S
C654 C653 1.396 . S
C654 C655 1.397 . S
C654 C670 1.509 . S
C655 C654 1.397 . S
C655 C656 1.412 . S
C655 C676 1.485 . S
C656 C655 1.412 . S
C656 C657 1.388 . S
C656 C682 1.490 . S
C657 C652 1.397 . S
C657 C656 1.388 . S
C657 C688 1.519 . S
C658 C652 1.492 . S
C658 C659 1.363 . S
C658 C663 1.390 . S
C659 H624 0.930 . S
C659 C658 1.363 . S
C659 C660 1.372 . S
C660 H625 0.930 . S
C660 C659 1.372 . S
C660 C661 1.383 . S
C661 C660 1.383 . S
C661 C662 1.395 . S
C662 H626 0.930 . S
C662 C661 1.395 . S
C662 C663 1.362 . S
C663 H627 0.930 . S
C663 C658 1.390 . S
C663 C662 1.362 . S
C664 C653 1.492 . S
C664 C665 1.377 . S
C664 C669 1.397 . S
C665 H628 0.931 . S
C665 C664 1.377 . S
C665 C666 1.376 1_556 S
C666 H629 0.930 . S
C666 C665 1.376 1_554 S
C666 C667 1.376 . S
C667 C666 1.376 . S
C667 C668 1.378 . S
C667 C694 1.486 . S
C668 H630 0.930 . S
C668 C667 1.378 . S
C668 C669 1.376 1_554 S
C669 H631 0.929 . S
C669 C664 1.397 . S
C669 C668 1.376 1_556 S
C670 C654 1.509 . S
C670 C671 1.391 . S
C670 C675 1.386 . S
C671 H632 0.930 . S
C671 C670 1.391 . S
C671 C672 1.375 . S
C672 H633 0.931 . S
C672 C671 1.375 . S
C672 C673 1.375 . S
C673 C672 1.375 . S
C673 C674 1.361 . S
C674 H634 0.930 . S
C674 C673 1.361 . S
C674 C675 1.399 . S
C675 H635 0.929 . S
C675 C670 1.386 . S
C675 C674 1.399 . S
C676 C655 1.485 . S
C676 C677 1.394 . S
C676 C681 1.360 . S
C677 H636 0.931 . S
C677 C676 1.394 . S
C677 C678 1.372 . S
C678 H637 0.930 . S
C678 C677 1.372 . S
C678 C679 1.397 . S
C679 C678 1.397 . S
C679 C680 1.390 . S
C679 C695 1.476 . S
C680 H638 0.930 . S
C680 C679 1.390 . S
C680 C681 1.366 . S
C681 H639 0.932 . S
C681 C676 1.360 . S
C681 C680 1.366 . S
C682 C656 1.490 . S
C682 C683 1.380 . S
C682 C687 1.386 . S
C683 H640 0.930 . S
C683 C682 1.380 . S
C683 C684 1.381 . S
C684 H641 0.929 . S
C684 C683 1.381 . S
C684 C685 1.371 . S
C685 C684 1.371 . S
C685 C686 1.380 . S
C686 H642 0.931 . S
C686 C685 1.380 . S
C686 C687 1.387 . S
C687 H643 0.930 . S
C687 C682 1.386 . S
C687 C686 1.387 . S
C688 C657 1.519 . S
C688 C689 1.377 . S
C688 C693 1.361 . S
C689 H644 0.929 . S
C689 C688 1.377 . S
C689 C690 1.386 . S
C690 H645 0.931 . S
C690 C689 1.386 . S
C690 C691 1.363 . S
C691 C690 1.363 . S
C691 C692 1.385 . S
C692 H646 0.930 . S
C692 C691 1.385 . S
C692 C693 1.396 . S
C693 H647 0.929 . S
C693 C688 1.361 . S
C693 C692 1.396 . S
C694 O648 1.300 . S
C694 O649 1.209 . S
C694 C667 1.486 . S
C695 O650 1.199 . S
C695 O651 1.297 . S
C695 C679 1.476 . S
H696 O722 0.856 . S
H697 O725 0.854 . S
H698 C733 0.930 . S
H699 C734 0.930 . S
H700 C736 0.930 . S
H701 C737 0.930 . S
H702 C739 0.931 . S
H703 C740 0.930 . S
H704 C742 0.930 . S
H705 C743 0.929 . S
H706 C745 0.930 . S
H707 C746 0.931 . S
H708 C748 0.930 . S
H709 C749 0.929 . S
H710 C751 0.931 . S
H711 C752 0.930 . S
H712 C754 0.930 . S
H713 C755 0.932 . S
H714 C757 0.930 . S
H715 C758 0.929 . S
H716 C760 0.931 . S
H717 C761 0.930 . S
H718 C763 0.929 . S
H719 C764 0.931 . S
H720 C766 0.930 . S
H721 C767 0.929 . S
O722 H696 0.856 . S
O722 C768 1.300 . S
O723 C768 1.209 . S
O724 C769 1.199 . S
O725 H697 0.854 . S
O725 C769 1.297 . S
C726 C727 1.404 . S
C726 C731 1.397 . S
C726 C732 1.492 . S
C727 C726 1.404 . S
C727 C728 1.396 . S
C727 C738 1.492 . S
C728 C727 1.396 . S
C728 C729 1.397 . S
C728 C744 1.509 . S
C729 C728 1.397 . S
C729 C730 1.412 . S
C729 C750 1.485 . S
C730 C729 1.412 . S
C730 C731 1.388 . S
C730 C756 1.490 . S
C731 C726 1.397 . S
C731 C730 1.388 . S
C731 C762 1.519 . S
C732 C726 1.492 . S
C732 C733 1.363 . S
C732 C737 1.390 . S
C733 H698 0.930 . S
C733 C732 1.363 . S
C733 C734 1.372 . S
C734 H699 0.930 . S
C734 C733 1.372 . S
C734 C735 1.383 . S
C735 C734 1.383 . S
C735 C736 1.395 . S
C736 H700 0.930 . S
C736 C735 1.395 . S
C736 C737 1.362 . S
C737 H701 0.930 . S
C737 C732 1.390 . S
C737 C736 1.362 . S
C738 C727 1.492 . S
C738 C739 1.377 . S
C738 C743 1.397 . S
C739 H702 0.931 . S
C739 C738 1.377 . S
C739 C740 1.376 . S
C740 H703 0.930 . S
C740 C739 1.376 . S
C740 C741 1.376 . S
C741 C740 1.376 . S
C741 C742 1.378 . S
C741 C768 1.486 . S
C742 H704 0.930 . S
C742 C741 1.378 . S
C742 C743 1.376 . S
C743 H705 0.929 . S
C743 C738 1.397 . S
C743 C742 1.376 . S
C744 C728 1.509 . S
C744 C745 1.391 . S
C744 C749 1.386 . S
C745 H706 0.930 . S
C745 C744 1.391 . S
C745 C746 1.375 . S
C746 H707 0.931 . S
C746 C745 1.375 . S
C746 C747 1.375 . S
C747 C746 1.375 . S
C747 C748 1.361 . S
C748 H708 0.930 . S
C748 C747 1.361 . S
C748 C749 1.399 . S
C749 H709 0.929 . S
C749 C744 1.386 . S
C749 C748 1.399 . S
C750 C729 1.485 . S
C750 C751 1.394 . S
C750 C755 1.360 . S
C751 H710 0.931 . S
C751 C750 1.394 . S
C751 C752 1.372 . S
C752 H711 0.930 . S
C752 C751 1.372 . S
C752 C753 1.397 . S
C753 C752 1.397 . S
C753 C754 1.390 . S
C753 C769 1.476 . S
C754 H712 0.930 . S
C754 C753 1.390 . S
C754 C755 1.366 . S
C755 H713 0.932 . S
C755 C750 1.360 . S
C755 C754 1.366 . S
C756 C730 1.490 . S
C756 C757 1.380 . S
C756 C761 1.386 . S
C757 H714 0.930 . S
C757 C756 1.380 . S
C757 C758 1.381 . S
C758 H715 0.929 . S
C758 C757 1.381 . S
C758 C759 1.371 . S
C759 C758 1.371 . S
C759 C760 1.380 . S
C760 H716 0.931 . S
C760 C759 1.380 . S
C760 C761 1.387 . S
C761 H717 0.930 . S
C761 C756 1.386 . S
C761 C760 1.387 . S
C762 C731 1.519 . S
C762 C763 1.377 . S
C762 C767 1.361 . S
C763 H718 0.929 . S
C763 C762 1.377 . S
C763 C764 1.386 . S
C764 H719 0.931 . S
C764 C763 1.386 . S
C764 C765 1.363 . S
C765 C764 1.363 . S
C765 C766 1.385 . S
C766 H720 0.930 . S
C766 C765 1.385 . S
C766 C767 1.396 . S
C767 H721 0.929 . S
C767 C762 1.361 . S
C767 C766 1.396 . S
C768 O722 1.300 . S
C768 O723 1.209 . S
C768 C741 1.486 . S
C769 O724 1.199 . S
C769 O725 1.297 . S
C769 C753 1.476 . S
H770 O796 0.856 . S
H771 O799 0.854 . S
H772 C807 0.930 . S
H773 C808 0.930 . S
H774 C810 0.930 . S
H775 C811 0.930 . S
H776 C813 0.931 . S
H777 C814 0.930 . S
H778 C816 0.930 . S
H779 C817 0.929 . S
H780 C819 0.930 . S
H781 C820 0.931 . S
H782 C822 0.930 . S
H783 C823 0.929 . S
H784 C825 0.931 . S
H785 C826 0.930 . S
H786 C828 0.930 . S
H787 C829 0.932 . S
H788 C831 0.930 . S
H789 C832 0.929 . S
H790 C834 0.931 . S
H791 C835 0.930 . S
H792 C837 0.929 . S
H793 C838 0.931 . S
H794 C840 0.930 . S
H795 C841 0.929 . S
O796 H770 0.856 . S
O796 C842 1.300 . S
O797 C842 1.209 . S
O798 C843 1.199 . S
O799 H771 0.854 . S
O799 C843 1.297 . S
C800 C801 1.404 . S
C800 C805 1.397 . S
C800 C806 1.492 . S
C801 C800 1.404 . S
C801 C802 1.396 . S
C801 C812 1.492 . S
C802 C801 1.396 . S
C802 C803 1.397 . S
C802 C818 1.509 . S
C803 C802 1.397 . S
C803 C804 1.412 . S
C803 C824 1.485 . S
C804 C803 1.412 . S
C804 C805 1.388 . S
C804 C830 1.490 . S
C805 C800 1.397 . S
C805 C804 1.388 . S
C805 C836 1.519 . S
C806 C800 1.492 . S
C806 C807 1.363 . S
C806 C811 1.390 . S
C807 H772 0.930 . S
C807 C806 1.363 . S
C807 C808 1.372 . S
C808 H773 0.930 . S
C808 C807 1.372 . S
C808 C809 1.383 . S
C809 C808 1.383 . S
C809 C810 1.395 . S
C810 H774 0.930 . S
C810 C809 1.395 . S
C810 C811 1.362 . S
C811 H775 0.930 . S
C811 C806 1.390 . S
C811 C810 1.362 . S
C812 C801 1.492 . S
C812 C813 1.377 . S
C812 C817 1.397 . S
C813 H776 0.931 . S
C813 C812 1.377 . S
C813 C814 1.376 . S
C814 H777 0.930 . S
C814 C813 1.376 . S
C814 C815 1.376 . S
C815 C814 1.376 . S
C815 C816 1.378 . S
C815 C842 1.486 . S
C816 H778 0.930 . S
C816 C815 1.378 . S
C816 C817 1.376 . S
C817 H779 0.929 . S
C817 C812 1.397 . S
C817 C816 1.376 . S
C818 C802 1.509 . S
C818 C819 1.391 . S
C818 C823 1.386 . S
C819 H780 0.930 . S
C819 C818 1.391 . S
C819 C820 1.375 . S
C820 H781 0.931 . S
C820 C819 1.375 . S
C820 C821 1.375 . S
C821 C820 1.375 . S
C821 C822 1.361 . S
C822 H782 0.930 . S
C822 C821 1.361 . S
C822 C823 1.399 . S
C823 H783 0.929 . S
C823 C818 1.386 . S
C823 C822 1.399 . S
C824 C803 1.485 . S
C824 C825 1.394 . S
C824 C829 1.360 . S
C825 H784 0.931 . S
C825 C824 1.394 . S
C825 C826 1.372 . S
C826 H785 0.930 . S
C826 C825 1.372 . S
C826 C827 1.397 . S
C827 C826 1.397 . S
C827 C828 1.390 . S
C827 C843 1.476 . S
C828 H786 0.930 . S
C828 C827 1.390 . S
C828 C829 1.366 . S
C829 H787 0.932 . S
C829 C824 1.360 . S
C829 C828 1.366 . S
C830 C804 1.490 . S
C830 C831 1.380 . S
C830 C835 1.386 . S
C831 H788 0.930 . S
C831 C830 1.380 . S
C831 C832 1.381 . S
C832 H789 0.929 . S
C832 C831 1.381 . S
C832 C833 1.371 . S
C833 C832 1.371 . S
C833 C834 1.380 . S
C834 H790 0.931 . S
C834 C833 1.380 . S
C834 C835 1.387 . S
C835 H791 0.930 . S
C835 C830 1.386 . S
C835 C834 1.387 . S
C836 C805 1.519 . S
C836 C837 1.377 . S
C836 C841 1.361 . S
C837 H792 0.929 . S
C837 C836 1.377 . S
C837 C838 1.386 . S
C838 H793 0.931 . S
C838 C837 1.386 . S
C838 C839 1.363 . S
C839 C838 1.363 . S
C839 C840 1.385 . S
C840 H794 0.930 . S
C840 C839 1.385 . S
C840 C841 1.396 . S
C841 H795 0.929 . S
C841 C836 1.361 . S
C841 C840 1.396 . S
C842 O796 1.300 . S
C842 O797 1.209 . S
C842 C815 1.486 . S
C843 O798 1.199 . S
C843 O799 1.297 . S
C843 C827 1.476 . S
H844 O870 0.856 . S
H845 O873 0.854 . S
H846 C881 0.930 . S
H847 C882 0.930 . S
H848 C884 0.930 . S
H849 C885 0.930 . S
H850 C887 0.931 . S
H851 C888 0.930 . S
H852 C890 0.930 . S
H853 C891 0.929 . S
H854 C893 0.930 . S
H855 C894 0.931 . S
H856 C896 0.930 . S
H857 C897 0.929 . S
H858 C899 0.931 . S
H859 C900 0.930 . S
H860 C902 0.930 . S
H861 C903 0.932 . S
H862 C905 0.930 . S
H863 C906 0.929 . S
H864 C908 0.931 . S
H865 C909 0.930 . S
H866 C911 0.929 . S
H867 C912 0.931 . S
H868 C914 0.930 . S
H869 C915 0.929 . S
O870 H844 0.856 . S
O870 C916 1.300 . S
O871 C916 1.209 . S
O872 C917 1.199 . S
O873 H845 0.854 . S
O873 C917 1.297 . S
C874 C875 1.404 . S
C874 C879 1.397 . S
C874 C880 1.492 . S
C875 C874 1.404 . S
C875 C876 1.396 . S
C875 C886 1.492 . S
C876 C875 1.396 . S
C876 C877 1.397 . S
C876 C892 1.509 . S
C877 C876 1.397 . S
C877 C878 1.412 . S
C877 C898 1.485 . S
C878 C877 1.412 . S
C878 C879 1.388 . S
C878 C904 1.490 . S
C879 C874 1.397 . S
C879 C878 1.388 . S
C879 C910 1.519 . S
C880 C874 1.492 . S
C880 C881 1.363 . S
C880 C885 1.390 . S
C881 H846 0.930 . S
C881 C880 1.363 . S
C881 C882 1.372 . S
C882 H847 0.930 . S
C882 C881 1.372 . S
C882 C883 1.383 . S
C883 C882 1.383 . S
C883 C884 1.395 . S
C884 H848 0.930 . S
C884 C883 1.395 . S
C884 C885 1.362 . S
C885 H849 0.930 . S
C885 C880 1.390 . S
C885 C884 1.362 . S
C886 C875 1.492 . S
C886 C887 1.377 . S
C886 C891 1.397 . S
C887 H850 0.931 . S
C887 C886 1.377 . S
C887 C888 1.376 . S
C888 H851 0.930 . S
C888 C887 1.376 . S
C888 C889 1.376 . S
C889 C888 1.376 . S
C889 C890 1.378 . S
C889 C916 1.486 . S
C890 H852 0.930 . S
C890 C889 1.378 . S
C890 C891 1.376 . S
C891 H853 0.929 . S
C891 C886 1.397 . S
C891 C890 1.376 . S
C892 C876 1.509 . S
C892 C893 1.391 . S
C892 C897 1.386 . S
C893 H854 0.930 . S
C893 C892 1.391 . S
C893 C894 1.375 . S
C894 H855 0.931 . S
C894 C893 1.375 . S
C894 C895 1.375 . S
C895 C894 1.375 . S
C895 C896 1.361 . S
C896 H856 0.930 . S
C896 C895 1.361 . S
C896 C897 1.399 . S
C897 H857 0.929 . S
C897 C892 1.386 . S
C897 C896 1.399 . S
C898 C877 1.485 . S
C898 C899 1.394 . S
C898 C903 1.360 . S
C899 H858 0.931 . S
C899 C898 1.394 . S
C899 C900 1.372 . S
C900 H859 0.930 . S
C900 C899 1.372 . S
C900 C901 1.397 . S
C901 C900 1.397 . S
C901 C902 1.390 . S
C901 C917 1.476 . S
C902 H860 0.930 . S
C902 C901 1.390 . S
C902 C903 1.366 . S
C903 H861 0.932 . S
C903 C898 1.360 . S
C903 C902 1.366 . S
C904 C878 1.490 . S
C904 C905 1.380 . S
C904 C909 1.386 . S
C905 H862 0.930 . S
C905 C904 1.380 . S
C905 C906 1.381 . S
C906 H863 0.929 . S
C906 C905 1.381 . S
C906 C907 1.371 . S
C907 C906 1.371 . S
C907 C908 1.380 . S
C908 H864 0.931 . S
C908 C907 1.380 . S
C908 C909 1.387 . S
C909 H865 0.930 . S
C909 C904 1.386 . S
C909 C908 1.387 . S
C910 C879 1.519 . S
C910 C911 1.377 . S
C910 C915 1.361 . S
C911 H866 0.929 . S
C911 C910 1.377 . S
C911 C912 1.386 . S
C912 H867 0.931 . S
C912 C911 1.386 . S
C912 C913 1.363 . S
C913 C912 1.363 . S
C913 C914 1.385 . S
C914 H868 0.930 . S
C914 C913 1.385 . S
C914 C915 1.396 . S
C915 H869 0.929 . S
C915 C910 1.361 . S
C915 C914 1.396 . S
C916 O870 1.300 . S
C916 O871 1.209 . S
C916 C889 1.486 . S
C917 O872 1.199 . S
C917 O873 1.297 . S
C917 C901 1.476 . S
H918 O944 0.856 . S
H919 O947 0.854 . S
H920 C955 0.930 . S
H921 C956 0.930 . S
H922 C958 0.930 . S
H923 C959 0.930 . S
H924 C961 0.931 . S
H925 C962 0.930 1_655 S
H926 C964 0.930 . S
H927 C965 0.929 . S
H928 C967 0.930 . S
H929 C968 0.924 1_655 S
H930 C970 0.930 . S
H931 C971 0.929 . S
H932 C973 0.931 . S
H933 C974 0.930 . S
H934 C976 0.930 . S
H935 C977 0.932 . S
H936 C979 0.930 . S
H937 C980 0.929 . S
H938 C982 0.931 . S
H939 C983 0.930 . S
H940 C985 0.929 . S
H941 C986 0.931 . S
H942 C988 0.930 . S
H943 C989 0.929 . S
O944 H918 0.856 . S
O944 C990 1.300 . S
O945 C990 1.209 . S
O946 C991 1.199 1_655 S
O947 H919 0.854 . S
O947 C991 1.297 . S
C948 C949 1.404 . S
C948 C953 1.393 . S
C948 C954 1.492 . S
C949 C948 1.404 . S
C949 C950 1.396 . S
C949 C960 1.492 . S
C950 C949 1.396 . S
C950 C951 1.397 . S
C950 C966 1.509 . S
C951 C950 1.397 . S
C951 C952 1.423 . S
C951 C972 1.485 . S
C952 C951 1.423 . S
C952 C953 1.404 . S
C952 C978 1.491 1_455 S
C953 C948 1.393 . S
C953 C952 1.404 . S
C953 C984 1.492 1_455 S
C954 C948 1.492 . S
C954 C955 1.363 1_455 S
C954 C959 1.390 . S
C955 H920 0.930 . S
C955 C954 1.363 1_655 S
C955 C956 1.372 . S
C956 H921 0.930 . S
C956 C955 1.372 . S
C956 C957 1.383 . S
C957 C956 1.383 . S
C957 C958 1.395 1_655 S
C958 H922 0.930 . S
C958 C957 1.395 1_455 S
C958 C959 1.362 . S
C959 H923 0.930 . S
C959 C954 1.390 . S
C959 C958 1.362 . S
C960 C949 1.492 . S
C960 C961 1.377 1_455 S
C960 C965 1.397 . S
C961 H924 0.931 . S
C961 C960 1.377 1_655 S
C961 C962 1.376 1_655 S
C962 H925 0.930 1_455 S
C962 C961 1.376 1_455 S
C962 C963 1.376 . S
C963 C962 1.376 . S
C963 C964 1.378 . S
C963 C990 1.486 . S
C964 H926 0.930 . S
C964 C963 1.378 . S
C964 C965 1.376 . S
C965 H927 0.929 . S
C965 C960 1.397 . S
C965 C964 1.376 . S
C966 C950 1.509 . S
C966 C967 1.391 1_455 S
C966 C971 1.386 . S
C967 H928 0.930 . S
C967 C966 1.391 1_655 S
C967 C968 1.366 1_655 S
C968 H929 0.924 1_455 S
C968 C967 1.366 1_455 S
C968 C969 1.391 . S
C969 C968 1.391 . S
C969 C970 1.361 . S
C970 H930 0.930 . S
C970 C969 1.361 . S
C970 C971 1.399 . S
C971 H931 0.929 . S
C971 C966 1.386 . S
C971 C970 1.399 . S
C972 C951 1.485 . S
C972 C973 1.394 1_455 S
C972 C977 1.360 . S
C973 H932 0.931 . S
C973 C972 1.394 1_655 S
C973 C974 1.372 . S
C974 H933 0.930 . S
C974 C973 1.372 . S
C974 C975 1.397 1_655 S
C975 C974 1.397 1_455 S
C975 C976 1.390 . S
C975 C991 1.476 . S
C976 H934 0.930 . S
C976 C975 1.390 . S
C976 C977 1.366 . S
C977 H935 0.932 . S
C977 C972 1.360 . S
C977 C976 1.366 . S
C978 C952 1.491 1_655 S
C978 C979 1.380 . S
C978 C983 1.386 1_655 S
C979 H936 0.930 . S
C979 C978 1.380 . S
C979 C980 1.381 . S
C980 H937 0.929 . S
C980 C979 1.381 . S
C980 C981 1.371 . S
C981 C980 1.371 . S
C981 C982 1.380 1_655 S
C982 H938 0.931 . S
C982 C981 1.380 1_455 S
C982 C983 1.387 . S
C983 H939 0.930 . S
C983 C978 1.386 1_455 S
C983 C982 1.387 . S
C984 C953 1.492 1_655 S
C984 C985 1.405 . S
C984 C989 1.342 1_655 S
C985 H940 0.929 . S
C985 C984 1.405 . S
C985 C986 1.386 . S
C986 H941 0.931 . S
C986 C985 1.386 . S
C986 C987 1.368 . S
C987 C986 1.368 . S
C987 C988 1.378 1_655 S
C988 H942 0.930 . S
C988 C987 1.378 1_455 S
C988 C989 1.396 . S
C989 H943 0.929 . S
C989 C984 1.342 1_455 S
C989 C988 1.396 . S
C990 O944 1.300 . S
C990 O945 1.209 . S
C990 C963 1.486 . S
C991 O946 1.199 1_455 S
C991 O947 1.297 . S
C991 C975 1.476 . S
H992 O1018 0.856 . S
H993 O1021 0.854 . S
H994 C1029 0.930 . S
H995 C1030 0.930 . S
H996 C1032 0.930 . S
H997 C1033 0.930 . S
H998 C1035 0.931 . S
H999 C1036 0.930 . S
H1000 C1038 0.930 . S
H1001 C1039 0.929 . S
H1002 C1041 0.930 . S
H1003 C1042 0.931 . S
H1004 C1044 0.930 . S
H1005 C1045 0.929 . S
H1006 C1047 0.931 . S
H1007 C1048 0.930 . S
H1008 C1050 0.930 . S
H1009 C1051 0.932 . S
H1010 C1053 0.930 . S
H1011 C1054 0.929 . S
H1012 C1056 0.931 . S
H1013 C1057 0.930 . S
H1014 C1059 0.929 . S
H1015 C1060 0.931 . S
H1016 C1062 0.930 . S
H1017 C1063 0.929 . S
O1018 H992 0.856 . S
O1018 C1064 1.300 . S
O1019 C1064 1.209 . S
O1020 C1065 1.199 . S
O1021 H993 0.854 . S
O1021 C1065 1.297 . S
C1022 C1023 1.404 . S
C1022 C1027 1.397 . S
C1022 C1028 1.492 . S
C1023 C1022 1.404 . S
C1023 C1024 1.396 . S
C1023 C1034 1.492 . S
C1024 C1023 1.396 . S
C1024 C1025 1.397 . S
C1024 C1040 1.509 . S
C1025 C1024 1.397 . S
C1025 C1026 1.412 . S
C1025 C1046 1.485 . S
C1026 C1025 1.412 . S
C1026 C1027 1.388 . S
C1026 C1052 1.490 . S
C1027 C1022 1.397 . S
C1027 C1026 1.388 . S
C1027 C1058 1.519 . S
C1028 C1022 1.492 . S
C1028 C1029 1.363 . S
C1028 C1033 1.390 . S
C1029 H994 0.930 . S
C1029 C1028 1.363 . S
C1029 C1030 1.372 . S
C1030 H995 0.930 . S
C1030 C1029 1.372 . S
C1030 C1031 1.383 . S
C1031 C1030 1.383 . S
C1031 C1032 1.395 . S
C1032 H996 0.930 . S
C1032 C1031 1.395 . S
C1032 C1033 1.362 . S
C1033 H997 0.930 . S
C1033 C1028 1.390 . S
C1033 C1032 1.362 . S
C1034 C1023 1.492 . S
C1034 C1035 1.377 . S
C1034 C1039 1.397 . S
C1035 H998 0.931 . S
C1035 C1034 1.377 . S
C1035 C1036 1.376 . S
C1036 H999 0.930 . S
C1036 C1035 1.376 . S
C1036 C1037 1.376 . S
C1037 C1036 1.376 . S
C1037 C1038 1.378 . S
C1037 C1064 1.486 . S
C1038 H1000 0.930 . S
C1038 C1037 1.378 . S
C1038 C1039 1.376 . S
C1039 H1001 0.929 . S
C1039 C1034 1.397 . S
C1039 C1038 1.376 . S
C1040 C1024 1.509 . S
C1040 C1041 1.391 . S
C1040 C1045 1.386 . S
C1041 H1002 0.930 . S
C1041 C1040 1.391 . S
C1041 C1042 1.375 . S
C1042 H1003 0.931 . S
C1042 C1041 1.375 . S
C1042 C1043 1.375 . S
C1043 C1042 1.375 . S
C1043 C1044 1.361 . S
C1044 H1004 0.930 . S
C1044 C1043 1.361 . S
C1044 C1045 1.399 . S
C1045 H1005 0.929 . S
C1045 C1040 1.386 . S
C1045 C1044 1.399 . S
C1046 C1025 1.485 . S
C1046 C1047 1.394 . S
C1046 C1051 1.360 . S
C1047 H1006 0.931 . S
C1047 C1046 1.394 . S
C1047 C1048 1.372 . S
C1048 H1007 0.930 . S
C1048 C1047 1.372 . S
C1048 C1049 1.397 . S
C1049 C1048 1.397 . S
C1049 C1050 1.390 . S
C1049 C1065 1.476 . S
C1050 H1008 0.930 . S
C1050 C1049 1.390 . S
C1050 C1051 1.366 . S
C1051 H1009 0.932 . S
C1051 C1046 1.360 . S
C1051 C1050 1.366 . S
C1052 C1026 1.490 . S
C1052 C1053 1.380 . S
C1052 C1057 1.386 . S
C1053 H1010 0.930 . S
C1053 C1052 1.380 . S
C1053 C1054 1.381 . S
C1054 H1011 0.929 . S
C1054 C1053 1.381 . S
C1054 C1055 1.371 . S
C1055 C1054 1.371 . S
C1055 C1056 1.380 . S
C1056 H1012 0.931 . S
C1056 C1055 1.380 . S
C1056 C1057 1.387 . S
C1057 H1013 0.930 . S
C1057 C1052 1.386 . S
C1057 C1056 1.387 . S
C1058 C1027 1.519 . S
C1058 C1059 1.377 . S
C1058 C1063 1.361 . S
C1059 H1014 0.929 . S
C1059 C1058 1.377 . S
C1059 C1060 1.386 . S
C1060 H1015 0.931 . S
C1060 C1059 1.386 . S
C1060 C1061 1.363 . S
C1061 C1060 1.363 . S
C1061 C1062 1.385 . S
C1062 H1016 0.930 . S
C1062 C1061 1.385 . S
C1062 C1063 1.396 . S
C1063 H1017 0.929 . S
C1063 C1058 1.361 . S
C1063 C1062 1.396 . S
C1064 O1018 1.300 . S
C1064 O1019 1.209 . S
C1064 C1037 1.486 . S
C1065 O1020 1.199 . S
C1065 O1021 1.297 . S
C1065 C1049 1.476 . S
H1066 O1092 0.856 . S
H1067 O1095 0.854 . S
H1068 C1103 0.930 . S
H1069 C1104 0.930 . S
H1070 C1106 0.930 . S
H1071 C1107 0.930 . S
H1072 C1109 0.931 . S
H1073 C1110 0.905 1_545 S
H1074 C1112 0.930 . S
H1075 C1113 0.929 . S
H1076 C1115 0.930 . S
H1077 C1116 0.925 1_545 S
H1078 C1118 0.930 . S
H1079 C1119 0.929 . S
H1080 C1121 0.931 . S
H1081 C1122 0.930 . S
H1082 C1124 0.930 . S
H1083 C1125 0.932 . S
H1084 C1127 0.930 . S
H1085 C1128 0.929 . S
H1086 C1130 0.931 . S
H1087 C1131 0.930 . S
H1088 C1133 0.929 . S
H1089 C1134 0.931 . S
H1090 C1136 0.930 . S
H1091 C1137 0.929 . S
O1092 H1066 0.856 . S
O1092 C1138 1.300 . S
O1093 C1138 1.209 . S
O1094 C1139 1.199 1_545 S
O1095 H1067 0.854 . S
O1095 C1139 1.297 . S
C1096 C1097 1.404 . S
C1096 C1101 1.416 . S
C1096 C1102 1.492 . S
C1097 C1096 1.404 . S
C1097 C1098 1.396 . S
C1097 C1108 1.492 . S
C1098 C1097 1.396 . S
C1098 C1099 1.397 . S
C1098 C1114 1.509 . S
C1099 C1098 1.397 . S
C1099 C1100 1.409 . S
C1099 C1120 1.485 . S
C1100 C1099 1.409 . S
C1100 C1101 1.374 . S
C1100 C1126 1.481 1_565 S
C1101 C1096 1.416 . S
C1101 C1100 1.374 . S
C1101 C1132 1.541 1_565 S
C1102 C1096 1.492 . S
C1102 C1103 1.363 1_565 S
C1102 C1107 1.390 . S
C1103 H1068 0.930 . S
C1103 C1102 1.363 1_545 S
C1103 C1104 1.372 . S
C1104 H1069 0.930 . S
C1104 C1103 1.372 . S
C1104 C1105 1.383 . S
C1105 C1104 1.383 . S
C1105 C1106 1.395 1_545 S
C1106 H1070 0.930 . S
C1106 C1105 1.395 1_565 S
C1106 C1107 1.362 . S
C1107 H1071 0.930 . S
C1107 C1102 1.390 . S
C1107 C1106 1.362 . S
C1108 C1097 1.492 . S
C1108 C1109 1.377 1_565 S
C1108 C1113 1.397 . S
C1109 H1072 0.931 . S
C1109 C1108 1.377 1_545 S
C1109 C1110 1.362 1_545 S
C1110 H1073 0.905 1_565 S
C1110 C1109 1.362 1_565 S
C1110 C1111 1.416 . S
C1111 C1110 1.416 . S
C1111 C1112 1.378 . S
C1111 C1138 1.486 . S
C1112 H1074 0.930 . S
C1112 C1111 1.378 . S
C1112 C1113 1.376 . S
C1113 H1075 0.929 . S
C1113 C1108 1.397 . S
C1113 C1112 1.376 . S
C1114 C1098 1.509 . S
C1114 C1115 1.391 1_565 S
C1114 C1119 1.386 . S
C1115 H1076 0.930 . S
C1115 C1114 1.391 1_545 S
C1115 C1116 1.375 1_545 S
C1116 H1077 0.925 1_565 S
C1116 C1115 1.375 1_565 S
C1116 C1117 1.380 . S
C1117 C1116 1.380 . S
C1117 C1118 1.361 . S
C1118 H1078 0.930 . S
C1118 C1117 1.361 . S
C1118 C1119 1.399 . S
C1119 H1079 0.929 . S
C1119 C1114 1.386 . S
C1119 C1118 1.399 . S
C1120 C1099 1.485 . S
C1120 C1121 1.394 1_565 S
C1120 C1125 1.360 . S
C1121 H1080 0.931 . S
C1121 C1120 1.394 1_545 S
C1121 C1122 1.372 . S
C1122 H1081 0.930 . S
C1122 C1121 1.372 . S
C1122 C1123 1.397 1_545 S
C1123 C1122 1.397 1_565 S
C1123 C1124 1.390 . S
C1123 C1139 1.476 . S
C1124 H1082 0.930 . S
C1124 C1123 1.390 . S
C1124 C1125 1.366 . S
C1125 H1083 0.932 . S
C1125 C1120 1.360 . S
C1125 C1124 1.366 . S
C1126 C1100 1.481 1_545 S
C1126 C1127 1.380 . S
C1126 C1131 1.386 1_545 S
C1127 H1084 0.930 . S
C1127 C1126 1.380 . S
C1127 C1128 1.381 . S
C1128 H1085 0.929 . S
C1128 C1127 1.381 . S
C1128 C1129 1.371 . S
C1129 C1128 1.371 . S
C1129 C1130 1.380 1_545 S
C1130 H1086 0.931 . S
C1130 C1129 1.380 1_565 S
C1130 C1131 1.387 . S
C1131 H1087 0.930 . S
C1131 C1126 1.386 1_565 S
C1131 C1130 1.387 . S
C1132 C1101 1.541 1_545 S
C1132 C1133 1.387 . S
C1132 C1137 1.344 1_545 S
C1133 H1088 0.929 . S
C1133 C1132 1.387 . S
C1133 C1134 1.386 . S
C1134 H1089 0.931 . S
C1134 C1133 1.386 . S
C1134 C1135 1.363 . S
C1135 C1134 1.363 . S
C1135 C1136 1.385 1_545 S
C1136 H1090 0.930 . S
C1136 C1135 1.385 1_565 S
C1136 C1137 1.396 . S
C1137 H1091 0.929 . S
C1137 C1132 1.344 1_565 S
C1137 C1136 1.396 . S
C1138 O1092 1.300 . S
C1138 O1093 1.209 . S
C1138 C1111 1.486 . S
C1139 O1094 1.199 1_565 S
C1139 O1095 1.297 . S
C1139 C1123 1.476 . S
H1140 O1166 0.856 . S
H1141 O1169 0.854 . S
H1142 C1177 0.930 . S
H1143 C1178 0.930 . S
H1144 C1180 0.930 . S
H1145 C1181 0.930 . S
H1146 C1183 0.931 . S
H1147 C1184 0.930 . S
H1148 C1186 0.930 . S
H1149 C1187 0.929 . S
H1150 C1189 0.930 . S
H1151 C1190 0.931 . S
H1152 C1192 0.930 . S
H1153 C1193 0.929 . S
H1154 C1195 0.931 . S
H1155 C1196 0.930 . S
H1156 C1198 0.930 . S
H1157 C1199 0.932 . S
H1158 C1201 0.930 . S
H1159 C1202 0.929 . S
H1160 C1204 0.931 . S
H1161 C1205 0.930 . S
H1162 C1207 0.929 . S
H1163 C1208 0.931 . S
H1164 C1210 0.930 . S
H1165 C1211 0.929 . S
O1166 H1140 0.856 . S
O1166 C1212 1.300 . S
O1167 C1212 1.209 1_565 S
O1168 C1213 1.199 1_545 S
O1169 H1141 0.854 . S
O1169 C1213 1.297 . S
C1170 C1171 1.404 . S
C1170 C1175 1.397 1_545 S
C1170 C1176 1.492 . S
C1171 C1170 1.404 . S
C1171 C1172 1.396 . S
C1171 C1182 1.492 . S
C1172 C1171 1.396 . S
C1172 C1173 1.397 1_545 S
C1172 C1188 1.509 . S
C1173 C1172 1.397 1_565 S
C1173 C1174 1.418 . S
C1173 C1194 1.485 . S
C1174 C1173 1.418 . S
C1174 C1175 1.379 . S
C1174 C1200 1.492 . S
C1175 C1170 1.397 1_565 S
C1175 C1174 1.379 . S
C1175 C1206 1.518 . S
C1176 C1170 1.492 . S
C1176 C1177 1.363 . S
C1176 C1181 1.390 1_545 S
C1177 H1142 0.930 . S
C1177 C1176 1.363 . S
C1177 C1178 1.372 . S
C1178 H1143 0.930 . S
C1178 C1177 1.372 . S
C1178 C1179 1.383 . S
C1179 C1178 1.383 . S
C1179 C1180 1.395 1_545 S
C1180 H1144 0.930 . S
C1180 C1179 1.395 1_565 S
C1180 C1181 1.362 . S
C1181 H1145 0.930 . S
C1181 C1176 1.390 1_565 S
C1181 C1180 1.362 . S
C1182 C1171 1.492 . S
C1182 C1183 1.377 . S
C1182 C1187 1.397 1_545 S
C1183 H1146 0.931 . S
C1183 C1182 1.377 . S
C1183 C1184 1.376 . S
C1184 H1147 0.930 . S
C1184 C1183 1.376 . S
C1184 C1185 1.376 . S
C1185 C1184 1.376 . S
C1185 C1186 1.378 1_545 S
C1185 C1212 1.486 . S
C1186 H1148 0.930 . S
C1186 C1185 1.378 1_565 S
C1186 C1187 1.376 . S
C1187 H1149 0.929 . S
C1187 C1182 1.397 1_565 S
C1187 C1186 1.376 . S
C1188 C1172 1.509 . S
C1188 C1189 1.391 . S
C1188 C1193 1.386 1_545 S
C1189 H1150 0.930 . S
C1189 C1188 1.391 . S
C1189 C1190 1.375 . S
C1190 H1151 0.931 . S
C1190 C1189 1.375 . S
C1190 C1191 1.402 . S
C1191 C1190 1.402 . S
C1191 C1192 1.346 1_545 S
C1192 H1152 0.930 . S
C1192 C1191 1.346 1_565 S
C1192 C1193 1.399 . S
C1193 H1153 0.929 . S
C1193 C1188 1.386 1_565 S
C1193 C1192 1.399 . S
C1194 C1173 1.485 . S
C1194 C1195 1.394 1_565 S
C1194 C1199 1.360 . S
C1195 H1154 0.931 . S
C1195 C1194 1.394 1_545 S
C1195 C1196 1.372 . S
C1196 H1155 0.930 . S
C1196 C1195 1.372 . S
C1196 C1197 1.397 1_545 S
C1197 C1196 1.397 1_565 S
C1197 C1198 1.390 . S
C1197 C1213 1.476 . S
C1198 H1156 0.930 . S
C1198 C1197 1.390 . S
C1198 C1199 1.366 . S
C1199 H1157 0.932 . S
C1199 C1194 1.360 . S
C1199 C1198 1.366 . S
C1200 C1174 1.492 . S
C1200 C1201 1.372 1_565 S
C1200 C1205 1.396 . S
C1201 H1158 0.930 . S
C1201 C1200 1.372 1_545 S
C1201 C1202 1.381 . S
C1202 H1159 0.929 . S
C1202 C1201 1.381 . S
C1202 C1203 1.371 . S
C1203 C1202 1.371 . S
C1203 C1204 1.380 1_545 S
C1204 H1160 0.931 . S
C1204 C1203 1.380 1_565 S
C1204 C1205 1.387 . S
C1205 H1161 0.930 . S
C1205 C1200 1.396 . S
C1205 C1204 1.387 . S
C1206 C1175 1.518 . S
C1206 C1207 1.377 1_565 S
C1206 C1211 1.361 . S
C1207 H1162 0.929 . S
C1207 C1206 1.377 1_545 S
C1207 C1208 1.386 . S
C1208 H1163 0.931 . S
C1208 C1207 1.386 . S
C1208 C1209 1.363 1_545 S
C1209 C1208 1.363 1_565 S
C1209 C1210 1.385 . S
C1210 H1164 0.930 . S
C1210 C1209 1.385 . S
C1210 C1211 1.396 . S
C1211 H1165 0.929 . S
C1211 C1206 1.361 . S
C1211 C1210 1.396 . S
C1212 O1166 1.300 . S
C1212 O1167 1.209 1_545 S
C1212 C1185 1.486 . S
C1213 O1168 1.199 1_565 S
C1213 O1169 1.297 . S
C1213 C1197 1.476 . S
H1214 O1240 0.856 . S
H1215 O1243 0.854 . S
H1216 C1251 0.930 . S
H1217 C1252 0.930 . S
H1218 C1254 0.930 . S
H1219 C1255 0.930 . S
H1220 C1257 0.931 . S
H1221 C1258 0.930 . S
H1222 C1260 0.930 . S
H1223 C1261 0.929 . S
H1224 C1263 0.930 . S
H1225 C1264 0.931 . S
H1226 C1266 0.930 . S
H1227 C1267 0.929 . S
H1228 C1269 0.931 . S
H1229 C1270 0.930 . S
H1230 C1272 0.930 . S
H1231 C1273 0.932 . S
H1232 C1275 0.930 . S
H1233 C1276 0.929 . S
H1234 C1278 0.931 . S
H1235 C1279 0.930 . S
H1236 C1281 0.929 . S
H1237 C1282 0.931 . S
H1238 C1284 0.930 . S
H1239 C1285 0.929 . S
O1240 H1214 0.856 . S
O1240 C1286 1.300 . S
O1241 C1286 1.209 1_455 S
O1242 C1287 1.199 1_655 S
O1243 H1215 0.854 . S
O1243 C1287 1.297 . S
C1244 C1245 1.404 . S
C1244 C1249 1.396 1_655 S
C1244 C1250 1.492 . S
C1245 C1244 1.404 . S
C1245 C1246 1.396 . S
C1245 C1256 1.492 . S
C1246 C1245 1.396 . S
C1246 C1247 1.396 . S
C1246 C1262 1.509 . S
C1247 C1246 1.396 . S
C1247 C1248 1.393 1_655 S
C1247 C1268 1.490 1_655 S
C1248 C1247 1.393 1_455 S
C1248 C1249 1.415 . S
C1248 C1274 1.484 . S
C1249 C1244 1.396 1_455 S
C1249 C1248 1.415 . S
C1249 C1280 1.516 . S
C1250 C1244 1.492 . S
C1250 C1251 1.363 . S
C1250 C1255 1.390 1_655 S
C1251 H1216 0.930 . S
C1251 C1250 1.363 . S
C1251 C1252 1.372 . S
C1252 H1217 0.930 . S
C1252 C1251 1.372 . S
C1252 C1253 1.383 . S
C1253 C1252 1.383 . S
C1253 C1254 1.395 1_655 S
C1254 H1218 0.930 . S
C1254 C1253 1.395 1_455 S
C1254 C1255 1.362 . S
C1255 H1219 0.930 . S
C1255 C1250 1.390 1_455 S
C1255 C1254 1.362 . S
C1256 C1245 1.492 . S
C1256 C1257 1.377 . S
C1256 C1261 1.397 1_655 S
C1257 H1220 0.931 . S
C1257 C1256 1.377 . S
C1257 C1258 1.376 . S
C1258 H1221 0.930 . S
C1258 C1257 1.376 . S
C1258 C1259 1.376 . S
C1259 C1258 1.376 . S
C1259 C1260 1.378 1_655 S
C1259 C1286 1.486 . S
C1260 H1222 0.930 . S
C1260 C1259 1.378 1_455 S
C1260 C1261 1.376 . S
C1261 H1223 0.929 . S
C1261 C1256 1.397 1_455 S
C1261 C1260 1.376 . S
C1262 C1246 1.509 . S
C1262 C1263 1.391 . S
C1262 C1267 1.386 1_655 S
C1263 H1224 0.930 . S
C1263 C1262 1.391 . S
C1263 C1264 1.375 . S
C1264 H1225 0.931 . S
C1264 C1263 1.375 . S
C1264 C1265 1.375 . S
C1265 C1264 1.375 . S
C1265 C1266 1.361 1_655 S
C1266 H1226 0.930 . S
C1266 C1265 1.361 1_455 S
C1266 C1267 1.399 . S
C1267 H1227 0.929 . S
C1267 C1262 1.386 1_455 S
C1267 C1266 1.399 . S
C1268 C1247 1.490 1_455 S
C1268 C1269 1.394 1_455 S
C1268 C1273 1.360 . S
C1269 H1228 0.931 . S
C1269 C1268 1.394 1_655 S
C1269 C1270 1.372 . S
C1270 H1229 0.930 . S
C1270 C1269 1.372 . S
C1270 C1271 1.397 1_655 S
C1271 C1270 1.397 1_455 S
C1271 C1272 1.390 . S
C1271 C1287 1.476 . S
C1272 H1230 0.930 . S
C1272 C1271 1.390 . S
C1272 C1273 1.366 . S
C1273 H1231 0.932 . S
C1273 C1268 1.360 . S
C1273 C1272 1.366 . S
C1274 C1248 1.484 . S
C1274 C1275 1.380 1_455 S
C1274 C1279 1.386 . S
C1275 H1232 0.930 . S
C1275 C1274 1.380 1_655 S
C1275 C1276 1.381 . S
C1276 H1233 0.929 . S
C1276 C1275 1.381 . S
C1276 C1277 1.371 1_655 S
C1277 C1276 1.371 1_455 S
C1277 C1278 1.380 . S
C1278 H1234 0.931 . S
C1278 C1277 1.380 . S
C1278 C1279 1.387 . S
C1279 H1235 0.930 . S
C1279 C1274 1.386 . S
C1279 C1278 1.387 . S
C1280 C1249 1.516 . S
C1280 C1281 1.377 1_455 S
C1280 C1285 1.361 . S
C1281 H1236 0.929 . S
C1281 C1280 1.377 1_655 S
C1281 C1282 1.386 . S
C1282 H1237 0.931 . S
C1282 C1281 1.386 . S
C1282 C1283 1.363 1_655 S
C1283 C1282 1.363 1_455 S
C1283 C1284 1.385 . S
C1284 H1238 0.930 . S
C1284 C1283 1.385 . S
C1284 C1285 1.396 . S
C1285 H1239 0.929 . S
C1285 C1280 1.361 . S
C1285 C1284 1.396 . S
C1286 O1240 1.300 . S
C1286 O1241 1.209 1_655 S
C1286 C1259 1.486 . S
C1287 O1242 1.199 1_455 S
C1287 O1243 1.297 . S
C1287 C1271 1.476 . S
H1288 O1314 0.856 . S
H1289 O1317 0.854 . S
H1290 C1325 0.930 . S
H1291 C1326 0.930 . S
H1292 C1328 0.930 . S
H1293 C1329 0.930 . S
H1294 C1331 0.931 . S
H1295 C1332 0.930 . S
H1296 C1334 0.930 . S
H1297 C1335 0.929 . S
H1298 C1337 0.930 . S
H1299 C1338 0.931 . S
H1300 C1340 0.930 . S
H1301 C1341 0.929 . S
H1302 C1343 0.931 . S
H1303 C1344 0.930 . S
H1304 C1346 0.930 . S
H1305 C1347 0.932 . S
H1306 C1349 0.930 . S
H1307 C1350 0.929 . S
H1308 C1352 0.931 . S
H1309 C1353 0.930 . S
H1310 C1355 0.929 . S
H1311 C1356 0.931 . S
H1312 C1358 0.930 . S
H1313 C1359 0.929 . S
O1314 H1288 0.856 . S
O1314 C1360 1.300 . S
O1315 C1360 1.209 . S
O1316 C1361 1.199 . S
O1317 H1289 0.854 . S
O1317 C1361 1.297 . S
C1318 C1319 1.404 . S
C1318 C1323 1.397 . S
C1318 C1324 1.492 . S
C1319 C1318 1.404 . S
C1319 C1320 1.396 . S
C1319 C1330 1.492 . S
C1320 C1319 1.396 . S
C1320 C1321 1.397 . S
C1320 C1336 1.509 . S
C1321 C1320 1.397 . S
C1321 C1322 1.412 . S
C1321 C1342 1.485 . S
C1322 C1321 1.412 . S
C1322 C1323 1.388 . S
C1322 C1348 1.490 . S
C1323 C1318 1.397 . S
C1323 C1322 1.388 . S
C1323 C1354 1.519 . S
C1324 C1318 1.492 . S
C1324 C1325 1.363 . S
C1324 C1329 1.390 . S
C1325 H1290 0.930 . S
C1325 C1324 1.363 . S
C1325 C1326 1.372 . S
C1326 H1291 0.930 . S
C1326 C1325 1.372 . S
C1326 C1327 1.383 . S
C1327 C1326 1.383 . S
C1327 C1328 1.395 . S
C1328 H1292 0.930 . S
C1328 C1327 1.395 . S
C1328 C1329 1.362 . S
C1329 H1293 0.930 . S
C1329 C1324 1.390 . S
C1329 C1328 1.362 . S
C1330 C1319 1.492 . S
C1330 C1331 1.377 . S
C1330 C1335 1.397 . S
C1331 H1294 0.931 . S
C1331 C1330 1.377 . S
C1331 C1332 1.376 . S
C1332 H1295 0.930 . S
C1332 C1331 1.376 . S
C1332 C1333 1.376 . S
C1333 C1332 1.376 . S
C1333 C1334 1.378 . S
C1333 C1360 1.486 . S
C1334 H1296 0.930 . S
C1334 C1333 1.378 . S
C1334 C1335 1.376 . S
C1335 H1297 0.929 . S
C1335 C1330 1.397 . S
C1335 C1334 1.376 . S
C1336 C1320 1.509 . S
C1336 C1337 1.391 . S
C1336 C1341 1.386 . S
C1337 H1298 0.930 . S
C1337 C1336 1.391 . S
C1337 C1338 1.375 . S
C1338 H1299 0.931 . S
C1338 C1337 1.375 . S
C1338 C1339 1.375 . S
C1339 C1338 1.375 . S
C1339 C1340 1.361 . S
C1340 H1300 0.930 . S
C1340 C1339 1.361 . S
C1340 C1341 1.399 . S
C1341 H1301 0.929 . S
C1341 C1336 1.386 . S
C1341 C1340 1.399 . S
C1342 C1321 1.485 . S
C1342 C1343 1.394 . S
C1342 C1347 1.360 . S
C1343 H1302 0.931 . S
C1343 C1342 1.394 . S
C1343 C1344 1.372 . S
C1344 H1303 0.930 . S
C1344 C1343 1.372 . S
C1344 C1345 1.397 . S
C1345 C1344 1.397 . S
C1345 C1346 1.390 . S
C1345 C1361 1.476 . S
C1346 H1304 0.930 . S
C1346 C1345 1.390 . S
C1346 C1347 1.366 . S
C1347 H1305 0.932 . S
C1347 C1342 1.360 . S
C1347 C1346 1.366 . S
C1348 C1322 1.490 . S
C1348 C1349 1.380 . S
C1348 C1353 1.386 . S
C1349 H1306 0.930 . S
C1349 C1348 1.380 . S
C1349 C1350 1.381 . S
C1350 H1307 0.929 . S
C1350 C1349 1.381 . S
C1350 C1351 1.371 . S
C1351 C1350 1.371 . S
C1351 C1352 1.380 . S
C1352 H1308 0.931 . S
C1352 C1351 1.380 . S
C1352 C1353 1.387 . S
C1353 H1309 0.930 . S
C1353 C1348 1.386 . S
C1353 C1352 1.387 . S
C1354 C1323 1.519 . S
C1354 C1355 1.377 . S
C1354 C1359 1.361 . S
C1355 H1310 0.929 . S
C1355 C1354 1.377 . S
C1355 C1356 1.386 . S
C1356 H1311 0.931 . S
C1356 C1355 1.386 . S
C1356 C1357 1.363 . S
C1357 C1356 1.363 . S
C1357 C1358 1.385 . S
C1358 H1312 0.930 . S
C1358 C1357 1.385 . S
C1358 C1359 1.396 . S
C1359 H1313 0.929 . S
C1359 C1354 1.361 . S
C1359 C1358 1.396 . S
C1360 O1314 1.300 . S
C1360 O1315 1.209 . S
C1360 C1333 1.486 . S
C1361 O1316 1.199 . S
C1361 O1317 1.297 . S
C1361 C1345 1.476 . S
H1362 O1388 0.856 . S
H1363 O1391 0.854 . S
H1364 C1399 0.930 . S
H1365 C1400 0.930 . S
H1366 C1402 0.930 . S
H1367 C1403 0.930 . S
H1368 C1405 0.931 . S
H1369 C1406 0.930 . S
H1370 C1408 0.930 . S
H1371 C1409 0.929 . S
H1372 C1411 0.930 . S
H1373 C1412 0.931 . S
H1374 C1414 0.930 . S
H1375 C1415 0.929 . S
H1376 C1417 0.931 . S
H1377 C1418 0.930 . S
H1378 C1420 0.930 . S
H1379 C1421 0.932 . S
H1380 C1423 0.930 . S
H1381 C1424 0.929 . S
H1382 C1426 0.931 . S
H1383 C1427 0.930 . S
H1384 C1429 0.929 . S
H1385 C1430 0.931 . S
H1386 C1432 0.930 . S
H1387 C1433 0.929 . S
O1388 H1362 0.856 . S
O1388 C1434 1.300 . S
O1389 C1434 1.209 . S
O1390 C1435 1.199 . S
O1391 H1363 0.854 . S
O1391 C1435 1.297 . S
C1392 C1393 1.404 . S
C1392 C1397 1.397 . S
C1392 C1398 1.492 . S
C1393 C1392 1.404 . S
C1393 C1394 1.396 . S
C1393 C1404 1.492 . S
C1394 C1393 1.396 . S
C1394 C1395 1.397 . S
C1394 C1410 1.509 . S
C1395 C1394 1.397 . S
C1395 C1396 1.412 . S
C1395 C1416 1.485 . S
C1396 C1395 1.412 . S
C1396 C1397 1.388 . S
C1396 C1422 1.490 . S
C1397 C1392 1.397 . S
C1397 C1396 1.388 . S
C1397 C1428 1.519 . S
C1398 C1392 1.492 . S
C1398 C1399 1.363 . S
C1398 C1403 1.390 . S
C1399 H1364 0.930 . S
C1399 C1398 1.363 . S
C1399 C1400 1.372 . S
C1400 H1365 0.930 . S
C1400 C1399 1.372 . S
C1400 C1401 1.383 . S
C1401 C1400 1.383 . S
C1401 C1402 1.395 . S
C1402 H1366 0.930 . S
C1402 C1401 1.395 . S
C1402 C1403 1.362 . S
C1403 H1367 0.930 . S
C1403 C1398 1.390 . S
C1403 C1402 1.362 . S
C1404 C1393 1.492 . S
C1404 C1405 1.377 . S
C1404 C1409 1.397 . S
C1405 H1368 0.931 . S
C1405 C1404 1.377 . S
C1405 C1406 1.376 . S
C1406 H1369 0.930 . S
C1406 C1405 1.376 . S
C1406 C1407 1.376 . S
C1407 C1406 1.376 . S
C1407 C1408 1.378 . S
C1407 C1434 1.486 . S
C1408 H1370 0.930 . S
C1408 C1407 1.378 . S
C1408 C1409 1.376 . S
C1409 H1371 0.929 . S
C1409 C1404 1.397 . S
C1409 C1408 1.376 . S
C1410 C1394 1.509 . S
C1410 C1411 1.391 . S
C1410 C1415 1.386 . S
C1411 H1372 0.930 . S
C1411 C1410 1.391 . S
C1411 C1412 1.375 . S
C1412 H1373 0.931 . S
C1412 C1411 1.375 . S
C1412 C1413 1.375 . S
C1413 C1412 1.375 . S
C1413 C1414 1.361 . S
C1414 H1374 0.930 . S
C1414 C1413 1.361 . S
C1414 C1415 1.399 . S
C1415 H1375 0.929 . S
C1415 C1410 1.386 . S
C1415 C1414 1.399 . S
C1416 C1395 1.485 . S
C1416 C1417 1.394 . S
C1416 C1421 1.360 . S
C1417 H1376 0.931 . S
C1417 C1416 1.394 . S
C1417 C1418 1.372 . S
C1418 H1377 0.930 . S
C1418 C1417 1.372 . S
C1418 C1419 1.397 . S
C1419 C1418 1.397 . S
C1419 C1420 1.390 . S
C1419 C1435 1.476 . S
C1420 H1378 0.930 . S
C1420 C1419 1.390 . S
C1420 C1421 1.366 . S
C1421 H1379 0.932 . S
C1421 C1416 1.360 . S
C1421 C1420 1.366 . S
C1422 C1396 1.490 . S
C1422 C1423 1.380 . S
C1422 C1427 1.386 . S
C1423 H1380 0.930 . S
C1423 C1422 1.380 . S
C1423 C1424 1.381 . S
C1424 H1381 0.929 . S
C1424 C1423 1.381 . S
C1424 C1425 1.371 . S
C1425 C1424 1.371 . S
C1425 C1426 1.380 . S
C1426 H1382 0.931 . S
C1426 C1425 1.380 . S
C1426 C1427 1.387 . S
C1427 H1383 0.930 . S
C1427 C1422 1.386 . S
C1427 C1426 1.387 . S
C1428 C1397 1.519 . S
C1428 C1429 1.377 . S
C1428 C1433 1.361 . S
C1429 H1384 0.929 . S
C1429 C1428 1.377 . S
C1429 C1430 1.386 . S
C1430 H1385 0.931 . S
C1430 C1429 1.386 . S
C1430 C1431 1.363 . S
C1431 C1430 1.363 . S
C1431 C1432 1.385 . S
C1432 H1386 0.930 . S
C1432 C1431 1.385 . S
C1432 C1433 1.396 . S
C1433 H1387 0.929 . S
C1433 C1428 1.361 . S
C1433 C1432 1.396 . S
C1434 O1388 1.300 . S
C1434 O1389 1.209 . S
C1434 C1407 1.486 . S
C1435 O1390 1.199 . S
C1435 O1391 1.297 . S
C1435 C1419 1.476 . S
H1436 O1462 0.856 . S
H1437 O1465 0.854 . S
H1438 C1473 0.930 . S
H1439 C1474 0.930 . S
H1440 C1476 0.930 . S
H1441 C1477 0.930 . S
H1442 C1479 0.931 . S
H1443 C1480 0.930 . S
H1444 C1482 0.930 . S
H1445 C1483 0.929 . S
H1446 C1485 0.930 . S
H1447 C1486 0.931 . S
H1448 C1488 0.930 . S
H1449 C1489 0.929 . S
H1450 C1491 0.931 . S
H1451 C1492 0.930 . S
H1452 C1494 0.930 . S
H1453 C1495 0.932 . S
H1454 C1497 0.930 . S
H1455 C1498 0.929 . S
H1456 C1500 0.931 . S
H1457 C1501 0.930 . S
H1458 C1503 0.929 . S
H1459 C1504 0.931 . S
H1460 C1506 0.930 . S
H1461 C1507 0.929 . S
O1462 H1436 0.856 . S
O1462 C1508 1.300 . S
O1463 C1508 1.209 . S
O1464 C1509 1.199 . S
O1465 H1437 0.854 . S
O1465 C1509 1.297 . S
C1466 C1467 1.404 . S
C1466 C1471 1.397 . S
C1466 C1472 1.492 . S
C1467 C1466 1.404 . S
C1467 C1468 1.396 . S
C1467 C1478 1.492 . S
C1468 C1467 1.396 . S
C1468 C1469 1.397 . S
C1468 C1484 1.509 . S
C1469 C1468 1.397 . S
C1469 C1470 1.412 . S
C1469 C1490 1.485 . S
C1470 C1469 1.412 . S
C1470 C1471 1.388 . S
C1470 C1496 1.490 . S
C1471 C1466 1.397 . S
C1471 C1470 1.388 . S
C1471 C1502 1.519 . S
C1472 C1466 1.492 . S
C1472 C1473 1.363 . S
C1472 C1477 1.390 . S
C1473 H1438 0.930 . S
C1473 C1472 1.363 . S
C1473 C1474 1.372 . S
C1474 H1439 0.930 . S
C1474 C1473 1.372 . S
C1474 C1475 1.383 . S
C1475 C1474 1.383 . S
C1475 C1476 1.395 . S
C1476 H1440 0.930 . S
C1476 C1475 1.395 . S
C1476 C1477 1.362 . S
C1477 H1441 0.930 . S
C1477 C1472 1.390 . S
C1477 C1476 1.362 . S
C1478 C1467 1.492 . S
C1478 C1479 1.377 . S
C1478 C1483 1.397 . S
C1479 H1442 0.931 . S
C1479 C1478 1.377 . S
C1479 C1480 1.376 . S
C1480 H1443 0.930 . S
C1480 C1479 1.376 . S
C1480 C1481 1.376 . S
C1481 C1480 1.376 . S
C1481 C1482 1.378 . S
C1481 C1508 1.486 . S
C1482 H1444 0.930 . S
C1482 C1481 1.378 . S
C1482 C1483 1.376 . S
C1483 H1445 0.929 . S
C1483 C1478 1.397 . S
C1483 C1482 1.376 . S
C1484 C1468 1.509 . S
C1484 C1485 1.391 . S
C1484 C1489 1.386 . S
C1485 H1446 0.930 . S
C1485 C1484 1.391 . S
C1485 C1486 1.375 . S
C1486 H1447 0.931 . S
C1486 C1485 1.375 . S
C1486 C1487 1.375 . S
C1487 C1486 1.375 . S
C1487 C1488 1.361 . S
C1488 H1448 0.930 . S
C1488 C1487 1.361 . S
C1488 C1489 1.399 . S
C1489 H1449 0.929 . S
C1489 C1484 1.386 . S
C1489 C1488 1.399 . S
C1490 C1469 1.485 . S
C1490 C1491 1.394 . S
C1490 C1495 1.360 . S
C1491 H1450 0.931 . S
C1491 C1490 1.394 . S
C1491 C1492 1.372 . S
C1492 H1451 0.930 . S
C1492 C1491 1.372 . S
C1492 C1493 1.397 . S
C1493 C1492 1.397 . S
C1493 C1494 1.390 . S
C1493 C1509 1.476 . S
C1494 H1452 0.930 . S
C1494 C1493 1.390 . S
C1494 C1495 1.366 . S
C1495 H1453 0.932 . S
C1495 C1490 1.360 . S
C1495 C1494 1.366 . S
C1496 C1470 1.490 . S
C1496 C1497 1.380 . S
C1496 C1501 1.386 . S
C1497 H1454 0.930 . S
C1497 C1496 1.380 . S
C1497 C1498 1.381 . S
C1498 H1455 0.929 . S
C1498 C1497 1.381 . S
C1498 C1499 1.371 . S
C1499 C1498 1.371 . S
C1499 C1500 1.380 . S
C1500 H1456 0.931 . S
C1500 C1499 1.380 . S
C1500 C1501 1.387 . S
C1501 H1457 0.930 . S
C1501 C1496 1.386 . S
C1501 C1500 1.387 . S
C1502 C1471 1.519 . S
C1502 C1503 1.377 . S
C1502 C1507 1.361 . S
C1503 H1458 0.929 . S
C1503 C1502 1.377 . S
C1503 C1504 1.386 . S
C1504 H1459 0.931 . S
C1504 C1503 1.386 . S
C1504 C1505 1.363 . S
C1505 C1504 1.363 . S
C1505 C1506 1.385 . S
C1506 H1460 0.930 . S
C1506 C1505 1.385 . S
C1506 C1507 1.396 . S
C1507 H1461 0.929 . S
C1507 C1502 1.361 . S
C1507 C1506 1.396 . S
C1508 O1462 1.300 . S
C1508 O1463 1.209 . S
C1508 C1481 1.486 . S
C1509 O1464 1.199 . S
C1509 O1465 1.297 . S
C1509 C1493 1.476 . S
H1510 O1536 0.856 . S
H1511 O1539 0.854 . S
H1512 C1547 0.930 . S
H1513 C1548 0.930 . S
H1514 C1550 0.930 . S
H1515 C1551 0.930 . S
H1516 C1553 0.931 . S
H1517 C1554 0.930 . S
H1518 C1556 0.930 . S
H1519 C1557 0.929 . S
H1520 C1559 0.930 . S
H1521 C1560 0.931 . S
H1522 C1562 0.930 . S
H1523 C1563 0.929 . S
H1524 C1565 0.931 . S
H1525 C1566 0.930 . S
H1526 C1568 0.930 . S
H1527 C1569 0.932 . S
H1528 C1571 0.930 . S
H1529 C1572 0.929 . S
H1530 C1574 0.931 . S
H1531 C1575 0.930 . S
H1532 C1577 0.929 . S
H1533 C1578 0.931 . S
H1534 C1580 0.930 . S
H1535 C1581 0.929 . S
O1536 H1510 0.856 . S
O1536 C1582 1.300 . S
O1537 C1582 1.209 . S
O1538 C1583 1.199 . S
O1539 H1511 0.854 . S
O1539 C1583 1.297 . S
C1540 C1541 1.404 . S
C1540 C1545 1.397 . S
C1540 C1546 1.492 . S
C1541 C1540 1.404 . S
C1541 C1542 1.396 . S
C1541 C1552 1.492 . S
C1542 C1541 1.396 . S
C1542 C1543 1.397 . S
C1542 C1558 1.509 . S
C1543 C1542 1.397 . S
C1543 C1544 1.412 . S
C1543 C1564 1.485 . S
C1544 C1543 1.412 . S
C1544 C1545 1.388 . S
C1544 C1570 1.490 . S
C1545 C1540 1.397 . S
C1545 C1544 1.388 . S
C1545 C1576 1.519 . S
C1546 C1540 1.492 . S
C1546 C1547 1.363 . S
C1546 C1551 1.390 . S
C1547 H1512 0.930 . S
C1547 C1546 1.363 . S
C1547 C1548 1.372 . S
C1548 H1513 0.930 . S
C1548 C1547 1.372 . S
C1548 C1549 1.383 . S
C1549 C1548 1.383 . S
C1549 C1550 1.395 . S
C1550 H1514 0.930 . S
C1550 C1549 1.395 . S
C1550 C1551 1.362 . S
C1551 H1515 0.930 . S
C1551 C1546 1.390 . S
C1551 C1550 1.362 . S
C1552 C1541 1.492 . S
C1552 C1553 1.377 . S
C1552 C1557 1.397 . S
C1553 H1516 0.931 . S
C1553 C1552 1.377 . S
C1553 C1554 1.376 . S
C1554 H1517 0.930 . S
C1554 C1553 1.376 . S
C1554 C1555 1.376 . S
C1555 C1554 1.376 . S
C1555 C1556 1.378 . S
C1555 C1582 1.486 . S
C1556 H1518 0.930 . S
C1556 C1555 1.378 . S
C1556 C1557 1.376 . S
C1557 H1519 0.929 . S
C1557 C1552 1.397 . S
C1557 C1556 1.376 . S
C1558 C1542 1.509 . S
C1558 C1559 1.391 . S
C1558 C1563 1.386 . S
C1559 H1520 0.930 . S
C1559 C1558 1.391 . S
C1559 C1560 1.375 . S
C1560 H1521 0.931 . S
C1560 C1559 1.375 . S
C1560 C1561 1.375 . S
C1561 C1560 1.375 . S
C1561 C1562 1.361 . S
C1562 H1522 0.930 . S
C1562 C1561 1.361 . S
C1562 C1563 1.399 . S
C1563 H1523 0.929 . S
C1563 C1558 1.386 . S
C1563 C1562 1.399 . S
C1564 C1543 1.485 . S
C1564 C1565 1.394 . S
C1564 C1569 1.360 . S
C1565 H1524 0.931 . S
C1565 C1564 1.394 . S
C1565 C1566 1.372 . S
C1566 H1525 0.930 . S
C1566 C1565 1.372 . S
C1566 C1567 1.397 . S
C1567 C1566 1.397 . S
C1567 C1568 1.390 . S
C1567 C1583 1.476 . S
C1568 H1526 0.930 . S
C1568 C1567 1.390 . S
C1568 C1569 1.366 . S
C1569 H1527 0.932 . S
C1569 C1564 1.360 . S
C1569 C1568 1.366 . S
C1570 C1544 1.490 . S
C1570 C1571 1.380 . S
C1570 C1575 1.386 . S
C1571 H1528 0.930 . S
C1571 C1570 1.380 . S
C1571 C1572 1.381 . S
C1572 H1529 0.929 . S
C1572 C1571 1.381 . S
C1572 C1573 1.371 . S
C1573 C1572 1.371 . S
C1573 C1574 1.380 . S
C1574 H1530 0.931 . S
C1574 C1573 1.380 . S
C1574 C1575 1.387 . S
C1575 H1531 0.930 . S
C1575 C1570 1.386 . S
C1575 C1574 1.387 . S
C1576 C1545 1.519 . S
C1576 C1577 1.377 . S
C1576 C1581 1.361 . S
C1577 H1532 0.929 . S
C1577 C1576 1.377 . S
C1577 C1578 1.386 . S
C1578 H1533 0.931 . S
C1578 C1577 1.386 . S
C1578 C1579 1.363 . S
C1579 C1578 1.363 . S
C1579 C1580 1.385 . S
C1580 H1534 0.930 . S
C1580 C1579 1.385 . S
C1580 C1581 1.396 . S
C1581 H1535 0.929 . S
C1581 C1576 1.361 . S
C1581 C1580 1.396 . S
C1582 O1536 1.300 . S
C1582 O1537 1.209 . S
C1582 C1555 1.486 . S
C1583 O1538 1.199 . S
C1583 O1539 1.297 . S
C1583 C1567 1.476 . S
C1584 C1585 1.369 . S
C1584 C1586 1.419 . S
C1584 H1588 0.930 . S
C1585 C1584 1.369 . S
C1585 C1594 1.429 1_655 S
C1586 C1584 1.419 . S
C1586 C1587 1.363 . S
C1586 H1589 0.929 . S
C1587 C1586 1.363 . S
C1587 C1593 1.428 1_655 S
H1588 C1584 0.930 . S
H1589 C1586 0.929 . S
S1590 N1591 1.613 . S
S1590 N1592 1.610 . S
N1591 S1590 1.613 . S
N1591 C1594 1.350 . S
N1592 S1590 1.610 . S
N1592 C1593 1.351 . S
C1593 C1587 1.428 1_455 S
C1593 N1592 1.351 . S
C1593 C1594 1.434 . S
C1594 C1585 1.429 1_455 S
C1594 N1591 1.350 . S
C1594 C1593 1.434 . S
C1595 C1596 1.369 . S
C1595 C1597 1.419 . S
C1595 H1599 0.930 . S
C1596 C1595 1.369 . S
C1596 C1605 1.429 . S
C1597 C1595 1.419 . S
C1597 C1598 1.363 . S
C1597 H1600 0.929 . S
C1598 C1597 1.363 . S
C1598 C1604 1.428 . S
H1599 C1595 0.930 . S
H1600 C1597 0.929 . S
S1601 N1602 1.613 . S
S1601 N1603 1.610 . S
N1602 S1601 1.613 . S
N1602 C1605 1.350 . S
N1603 S1601 1.610 . S
N1603 C1604 1.351 . S
C1604 C1598 1.428 . S
C1604 N1603 1.351 . S
C1604 C1605 1.434 . S
C1605 C1596 1.429 . S
C1605 N1602 1.350 . S
C1605 C1604 1.434 . S
C1606 C1607 1.369 . S
C1606 C1608 1.419 . S
C1606 H1610 0.930 . S
C1607 C1606 1.369 . S
C1607 C1616 1.429 . S
C1608 C1606 1.419 . S
C1608 C1609 1.363 . S
C1608 H1611 0.929 . S
C1609 C1608 1.363 . S
C1609 C1615 1.428 . S
H1610 C1606 0.930 . S
H1611 C1608 0.929 . S
S1612 N1613 1.613 . S
S1612 N1614 1.610 . S
N1613 S1612 1.613 . S
N1613 C1616 1.350 1_565 S
N1614 S1612 1.610 . S
N1614 C1615 1.351 1_565 S
C1615 C1609 1.428 . S
C1615 N1614 1.351 1_545 S
C1615 C1616 1.434 . S
C1616 C1607 1.429 . S
C1616 N1613 1.350 1_545 S
C1616 C1615 1.434 . S
C1617 C1618 1.369 . S
C1617 C1619 1.419 . S
C1617 H1621 0.930 . S
C1618 C1617 1.369 . S
C1618 C1627 1.429 1_565 S
C1619 C1617 1.419 . S
C1619 C1620 1.363 . S
C1619 H1622 0.929 . S
C1620 C1619 1.363 . S
C1620 C1626 1.428 1_565 S
H1621 C1617 0.930 . S
H1622 C1619 0.929 . S
S1623 N1624 1.613 . S
S1623 N1625 1.610 . S
N1624 S1623 1.613 . S
N1624 C1627 1.350 . S
N1625 S1623 1.610 . S
N1625 C1626 1.351 . S
C1626 C1620 1.428 1_545 S
C1626 N1625 1.351 . S
C1626 C1627 1.434 . S
C1627 C1618 1.429 1_545 S
C1627 N1624 1.350 . S
C1627 C1626 1.434 . S
C1628 C1629 1.369 . S
C1628 C1630 1.434 . S
C1628 H1632 0.930 1_455 S
C1629 C1628 1.369 . S
C1629 C1638 1.429 . S
C1630 C1628 1.434 . S
C1630 C1631 1.379 . S
C1630 H1633 0.898 1_455 S
C1631 C1630 1.379 . S
C1631 C1637 1.428 . S
H1632 C1628 0.930 1_655 S
H1633 C1630 0.898 1_655 S
S1634 N1635 1.613 . S
S1634 N1636 1.610 . S
N1635 S1634 1.613 . S
N1635 C1638 1.350 . S
N1636 S1634 1.610 . S
N1636 C1637 1.351 . S
C1637 C1631 1.428 . S
C1637 N1636 1.351 . S
C1637 C1638 1.434 . S
C1638 C1629 1.429 . S
C1638 N1635 1.350 . S
C1638 C1637 1.434 . S
C1639 C1640 1.369 . S
C1639 C1641 1.419 1_554 S
C1639 H1643 0.930 . S
C1640 C1639 1.369 . S
C1640 C1649 1.429 1_554 S
C1641 C1639 1.419 1_556 S
C1641 C1642 1.363 . S
C1641 H1644 0.931 1_556 S
C1642 C1641 1.363 . S
C1642 C1648 1.428 . S
H1643 C1639 0.930 . S
H1644 C1641 0.931 1_554 S
S1645 N1646 1.613 . S
S1645 N1647 1.610 . S
N1646 S1645 1.613 . S
N1646 C1649 1.350 . S
N1647 S1645 1.610 . S
N1647 C1648 1.351 . S
C1648 C1642 1.428 . S
C1648 N1647 1.351 . S
C1648 C1649 1.434 . S
C1649 C1640 1.429 1_556 S
C1649 N1646 1.350 . S
C1649 C1648 1.434 . S
C1650 C1651 1.376 . S
C1650 C1652 1.402 1_554 S
C1650 H1654 0.930 . S
C1651 C1650 1.376 . S
C1651 C1660 1.415 1_554 S
C1652 C1650 1.402 1_556 S
C1652 C1653 1.377 . S
C1652 H1655 0.934 1_456 S
C1653 C1652 1.377 . S
C1653 C1659 1.428 . S
H1654 C1650 0.930 . S
H1655 C1652 0.934 1_654 S
S1656 N1657 1.613 . S
S1656 N1658 1.610 . S
N1657 S1656 1.613 . S
N1657 C1660 1.350 . S
N1658 S1656 1.610 . S
N1658 C1659 1.351 . S
C1659 C1653 1.428 . S
C1659 N1658 1.351 . S
C1659 C1660 1.434 . S
C1660 C1651 1.415 1_556 S
C1660 N1657 1.350 . S
C1660 C1659 1.434 . S
C1661 C1662 1.369 . S
C1661 C1663 1.419 . S
C1661 H1665 0.930 . S
C1662 C1661 1.369 . S
C1662 C1671 1.429 . S
C1663 C1661 1.419 . S
C1663 C1664 1.363 . S
C1663 H1666 0.929 . S
C1664 C1663 1.363 . S
C1664 C1670 1.428 . S
H1665 C1661 0.930 . S
H1666 C1663 0.929 . S
S1667 N1668 1.613 . S
S1667 N1669 1.610 . S
N1668 S1667 1.613 . S
N1668 C1671 1.350 . S
N1669 S1667 1.610 . S
N1669 C1670 1.351 . S
C1670 C1664 1.428 . S
C1670 N1669 1.351 . S
C1670 C1671 1.434 . S
C1671 C1662 1.429 . S
C1671 N1668 1.350 . S
C1671 C1670 1.434 . S
C1672 C1673 1.358 . S
C1672 C1674 1.417 1_554 S
C1672 H1676 0.930 . S
C1673 C1672 1.358 . S
C1673 C1682 1.386 1_564 S
C1674 C1672 1.417 1_556 S
C1674 C1675 1.363 1_565 S
C1674 H1677 0.940 . S
C1675 C1674 1.363 1_545 S
C1675 C1681 1.428 . S
H1676 C1672 0.930 . S
H1677 C1674 0.940 . S
S1678 N1679 1.613 . S
S1678 N1680 1.610 . S
N1679 S1678 1.613 . S
N1679 C1682 1.350 . S
N1680 S1678 1.610 . S
N1680 C1681 1.351 . S
C1681 C1675 1.428 . S
C1681 N1680 1.351 . S
C1681 C1682 1.434 . S
C1682 C1673 1.386 1_546 S
C1682 N1679 1.350 . S
C1682 C1681 1.434 . S
C1683 C1684 1.369 . S
C1683 C1685 1.419 . S
C1683 H1687 0.930 . S
C1684 C1683 1.369 . S
C1684 C1693 1.429 . S
C1685 C1683 1.419 . S
C1685 C1686 1.363 . S
C1685 H1688 0.929 . S
C1686 C1685 1.363 . S
C1686 C1692 1.428 . S
H1687 C1683 0.930 . S
H1688 C1685 0.929 . S
S1689 N1690 1.640 . S
S1689 N1691 1.628 1_545 S
N1690 S1689 1.640 . S
N1690 C1693 1.350 . S
N1691 S1689 1.628 1_565 S
N1691 C1692 1.351 1_565 S
C1692 C1686 1.428 . S
C1692 N1691 1.351 1_545 S
C1692 C1693 1.434 . S
C1693 C1684 1.429 . S
C1693 N1690 1.350 . S
C1693 C1692 1.434 . S
C1694 C1695 1.369 . S
C1694 C1696 1.419 . S
C1694 H1698 0.930 . S
C1695 C1694 1.369 . S
C1695 C1704 1.429 1_655 S
C1696 C1694 1.419 . S
C1696 C1697 1.363 . S
C1696 H1699 0.929 . S
C1697 C1696 1.363 . S
C1697 C1703 1.428 1_655 S
H1698 C1694 0.930 . S
H1699 C1696 0.929 . S
S1700 N1701 1.613 . S
S1700 N1702 1.610 . S
N1701 S1700 1.613 . S
N1701 C1704 1.350 . S
N1702 S1700 1.610 . S
N1702 C1703 1.351 . S
C1703 C1697 1.428 1_455 S
C1703 N1702 1.351 . S
C1703 C1704 1.434 . S
C1704 C1695 1.429 1_455 S
C1704 N1701 1.350 . S
C1704 C1703 1.434 . S
C1705 C1706 1.369 . S
C1705 C1707 1.419 . S
C1705 H1709 0.930 . S
C1706 C1705 1.369 . S
C1706 C1715 1.429 . S
C1707 C1705 1.419 . S
C1707 C1708 1.363 . S
C1707 H1710 0.929 . S
C1708 C1707 1.363 . S
C1708 C1714 1.428 . S
H1709 C1705 0.930 . S
H1710 C1707 0.929 . S
S1711 N1712 1.613 . S
S1711 N1713 1.610 . S
N1712 S1711 1.613 . S
N1712 C1715 1.350 . S
N1713 S1711 1.610 . S
N1713 C1714 1.351 . S
C1714 C1708 1.428 . S
C1714 N1713 1.351 . S
C1714 C1715 1.434 . S
C1715 C1706 1.429 . S
C1715 N1712 1.350 . S
C1715 C1714 1.434 . S
C1716 C1717 1.369 . S
C1716 C1718 1.419 . S
C1716 H1720 0.930 . S
C1717 C1716 1.369 . S
C1717 C1726 1.429 . S
C1718 C1716 1.419 . S
C1718 C1719 1.363 . S
C1718 H1721 0.929 . S
C1719 C1718 1.363 . S
C1719 C1725 1.428 . S
H1720 C1716 0.930 . S
H1721 C1718 0.929 . S
S1722 N1723 1.613 . S
S1722 N1724 1.610 . S
N1723 S1722 1.613 . S
N1723 C1726 1.350 . S
N1724 S1722 1.610 . S
N1724 C1725 1.351 . S
C1725 C1719 1.428 . S
C1725 N1724 1.351 . S
C1725 C1726 1.434 . S
C1726 C1717 1.429 . S
C1726 N1723 1.350 . S
C1726 C1725 1.434 . S
C1727 C1728 1.369 . S
C1727 C1729 1.419 . S
C1727 H1731 0.930 . S
C1728 C1727 1.369 . S
C1728 C1737 1.429 . S
C1729 C1727 1.419 . S
C1729 C1730 1.363 . S
C1729 H1732 0.929 . S
C1730 C1729 1.363 . S
C1730 C1736 1.428 . S
H1731 C1727 0.930 . S
H1732 C1729 0.929 . S
S1733 N1734 1.613 . S
S1733 N1735 1.610 . S
N1734 S1733 1.613 . S
N1734 C1737 1.350 . S
N1735 S1733 1.610 . S
N1735 C1736 1.351 . S
C1736 C1730 1.428 . S
C1736 N1735 1.351 . S
C1736 C1737 1.434 . S
C1737 C1728 1.429 . S
C1737 N1734 1.350 . S
C1737 C1736 1.434 . S
C1738 C1739 1.369 . S
C1738 C1740 1.419 . S
C1738 H1742 0.930 . S
C1739 C1738 1.369 . S
C1739 C1748 1.429 . S
C1740 C1738 1.419 . S
C1740 C1741 1.363 . S
C1740 H1743 0.929 . S
C1741 C1740 1.363 . S
C1741 C1747 1.428 . S
H1742 C1738 0.930 . S
H1743 C1740 0.929 . S
S1744 N1745 1.613 . S
S1744 N1746 1.610 . S
N1745 S1744 1.613 . S
N1745 C1748 1.350 . S
N1746 S1744 1.610 . S
N1746 C1747 1.351 . S
C1747 C1741 1.428 . S
C1747 N1746 1.351 . S
C1747 C1748 1.434 . S
C1748 C1739 1.429 . S
C1748 N1745 1.350 . S
C1748 C1747 1.434 . S
C1749 C1750 1.369 . S
C1749 C1751 1.419 . S
C1749 H1753 0.930 . S
C1750 C1749 1.369 . S
C1750 C1759 1.429 . S
C1751 C1749 1.419 . S
C1751 C1752 1.363 . S
C1751 H1754 0.929 . S
C1752 C1751 1.363 . S
C1752 C1758 1.428 . S
H1753 C1749 0.930 . S
H1754 C1751 0.929 . S
S1755 N1756 1.613 . S
S1755 N1757 1.610 . S
N1756 S1755 1.613 . S
N1756 C1759 1.350 . S
N1757 S1755 1.610 . S
N1757 C1758 1.351 . S
C1758 C1752 1.428 . S
C1758 N1757 1.351 . S
C1758 C1759 1.434 . S
C1759 C1750 1.429 . S
C1759 N1756 1.350 . S
C1759 C1758 1.434 . S
C1760 C1761 1.369 . S
C1760 C1762 1.419 . S
C1760 H1764 0.930 . S
C1761 C1760 1.369 . S
C1761 C1770 1.429 . S
C1762 C1760 1.419 . S
C1762 C1763 1.363 . S
C1762 H1765 0.929 . S
C1763 C1762 1.363 . S
C1763 C1769 1.428 . S
H1764 C1760 0.930 . S
H1765 C1762 0.929 . S
S1766 N1767 1.613 . S
S1766 N1768 1.610 . S
N1767 S1766 1.613 . S
N1767 C1770 1.350 . S
N1768 S1766 1.610 . S
N1768 C1769 1.351 . S
C1769 C1763 1.428 . S
C1769 N1768 1.351 . S
C1769 C1770 1.434 . S
C1770 C1761 1.429 . S
C1770 N1767 1.350 . S
C1770 C1769 1.434 . S
C1771 C1772 1.369 . S
C1771 C1773 1.419 . S
C1771 H1775 0.930 . S
C1772 C1771 1.369 . S
C1772 C1781 1.429 . S
C1773 C1771 1.419 . S
C1773 C1774 1.363 . S
C1773 H1776 0.929 . S
C1774 C1773 1.363 . S
C1774 C1780 1.428 . S
H1775 C1771 0.930 . S
H1776 C1773 0.929 . S
S1777 N1778 1.613 . S
S1777 N1779 1.610 . S
N1778 S1777 1.613 . S
N1778 C1781 1.350 . S
N1779 S1777 1.610 . S
N1779 C1780 1.351 . S
C1780 C1774 1.428 . S
C1780 N1779 1.351 . S
C1780 C1781 1.434 . S
C1781 C1772 1.429 . S
C1781 N1778 1.350 . S
C1781 C1780 1.434 . S
C1782 C1783 1.369 . S
C1782 C1784 1.419 . S
C1782 H1786 0.930 . S
C1783 C1782 1.369 . S
C1783 C1792 1.429 . S
C1784 C1782 1.419 . S
C1784 C1785 1.363 . S
C1784 H1787 0.929 . S
C1785 C1784 1.363 . S
C1785 C1791 1.428 . S
H1786 C1782 0.930 . S
H1787 C1784 0.929 . S
S1788 N1789 1.613 . S
S1788 N1790 1.610 . S
N1789 S1788 1.613 . S
N1789 C1792 1.350 . S
N1790 S1788 1.610 . S
N1790 C1791 1.351 . S
C1791 C1785 1.428 . S
C1791 N1790 1.351 . S
C1791 C1792 1.434 . S
C1792 C1783 1.429 . S
C1792 N1789 1.350 . S
C1792 C1791 1.434 . S
C1793 C1794 1.369 . S
C1793 C1795 1.419 . S
C1793 H1797 0.930 . S
C1794 C1793 1.369 . S
C1794 C1803 1.429 . S
C1795 C1793 1.419 . S
C1795 C1796 1.363 . S
C1795 H1798 0.929 . S
C1796 C1795 1.363 . S
C1796 C1802 1.428 . S
H1797 C1793 0.930 . S
H1798 C1795 0.929 . S
S1799 N1800 1.613 . S
S1799 N1801 1.610 . S
N1800 S1799 1.613 . S
N1800 C1803 1.350 . S
N1801 S1799 1.610 . S
N1801 C1802 1.351 . S
C1802 C1796 1.428 . S
C1802 N1801 1.351 . S
C1802 C1803 1.434 . S
C1803 C1794 1.429 . S
C1803 N1800 1.350 . S
C1803 C1802 1.434 . S
C1804 C1805 1.369 . S
C1804 C1806 1.419 . S
C1804 H1808 0.930 . S
C1805 C1804 1.369 . S
C1805 C1814 1.429 . S
C1806 C1804 1.419 . S
C1806 C1807 1.363 . S
C1806 H1809 0.929 . S
C1807 C1806 1.363 . S
C1807 C1813 1.428 . S
H1808 C1804 0.930 . S
H1809 C1806 0.929 . S
S1810 N1811 1.613 . S
S1810 N1812 1.610 . S
N1811 S1810 1.613 . S
N1811 C1814 1.350 . S
N1812 S1810 1.610 . S
N1812 C1813 1.351 . S
C1813 C1807 1.428 . S
C1813 N1812 1.351 . S
C1813 C1814 1.434 . S
C1814 C1805 1.429 . S
C1814 N1811 1.350 . S
C1814 C1813 1.434 . S
C1815 C1816 1.369 . S
C1815 C1817 1.419 . S
C1815 H1819 0.930 . S
C1816 C1815 1.369 . S
C1816 C1825 1.429 . S
C1817 C1815 1.419 . S
C1817 C1818 1.363 . S
C1817 H1820 0.929 . S
C1818 C1817 1.363 . S
C1818 C1824 1.428 . S
H1819 C1815 0.930 . S
H1820 C1817 0.929 . S
S1821 N1822 1.613 . S
S1821 N1823 1.610 . S
N1822 S1821 1.613 . S
N1822 C1825 1.350 . S
N1823 S1821 1.610 . S
N1823 C1824 1.351 . S
C1824 C1818 1.428 . S
C1824 N1823 1.351 . S
C1824 C1825 1.434 . S
C1825 C1816 1.429 . S
C1825 N1822 1.350 . S
C1825 C1824 1.434 . S
C1826 C1827 1.369 . S
C1826 C1828 1.419 . S
C1826 H1830 0.930 . S
C1827 C1826 1.369 . S
C1827 C1836 1.429 . S
C1828 C1826 1.419 . S
C1828 C1829 1.363 . S
C1828 H1831 0.929 . S
C1829 C1828 1.363 . S
C1829 C1835 1.428 . S
H1830 C1826 0.930 . S
H1831 C1828 0.929 . S
S1832 N1833 1.613 . S
S1832 N1834 1.610 . S
N1833 S1832 1.613 . S
N1833 C1836 1.350 . S
N1834 S1832 1.610 . S
N1834 C1835 1.351 . S
C1835 C1829 1.428 . S
C1835 N1834 1.351 . S
C1835 C1836 1.434 . S
C1836 C1827 1.429 . S
C1836 N1833 1.350 . S
C1836 C1835 1.434 . S
C1837 C1838 1.369 . S
C1837 C1839 1.419 . S
C1837 H1841 0.930 . S
C1838 C1837 1.369 . S
C1838 C1847 1.429 . S
C1839 C1837 1.419 . S
C1839 C1840 1.363 . S
C1839 H1842 0.929 . S
C1840 C1839 1.363 . S
C1840 C1846 1.428 . S
H1841 C1837 0.930 . S
H1842 C1839 0.929 . S
S1843 N1844 1.613 . S
S1843 N1845 1.610 . S
N1844 S1843 1.613 . S
N1844 C1847 1.350 . S
N1845 S1843 1.610 . S
N1845 C1846 1.351 . S
C1846 C1840 1.428 . S
C1846 N1845 1.351 . S
C1846 C1847 1.434 . S
C1847 C1838 1.429 . S
C1847 N1844 1.350 . S
C1847 C1846 1.434 . S
C1848 C1849 1.369 . S
C1848 C1850 1.419 . S
C1848 H1852 0.930 . S
C1849 C1848 1.369 . S
C1849 C1858 1.429 . S
C1850 C1848 1.419 . S
C1850 C1851 1.363 . S
C1850 H1853 0.929 . S
C1851 C1850 1.363 . S
C1851 C1857 1.428 . S
H1852 C1848 0.930 . S
H1853 C1850 0.929 . S
S1854 N1855 1.613 . S
S1854 N1856 1.610 . S
N1855 S1854 1.613 . S
N1855 C1858 1.350 . S
N1856 S1854 1.610 . S
N1856 C1857 1.351 . S
C1857 C1851 1.428 . S
C1857 N1856 1.351 . S
C1857 C1858 1.434 . S
C1858 C1849 1.429 . S
C1858 N1855 1.350 . S
C1858 C1857 1.434 . S
C1859 C1860 1.369 . S
C1859 C1861 1.419 . S
C1859 H1863 0.930 . S
C1860 C1859 1.369 . S
C1860 C1869 1.429 . S
C1861 C1859 1.419 . S
C1861 C1862 1.363 . S
C1861 H1864 0.929 . S
C1862 C1861 1.363 . S
C1862 C1868 1.428 . S
H1863 C1859 0.930 . S
H1864 C1861 0.929 . S
S1865 N1866 1.613 . S
S1865 N1867 1.610 . S
N1866 S1865 1.613 . S
N1866 C1869 1.350 . S
N1867 S1865 1.610 . S
N1867 C1868 1.351 . S
C1868 C1862 1.428 . S
C1868 N1867 1.351 . S
C1868 C1869 1.434 . S
C1869 C1860 1.429 . S
C1869 N1866 1.350 . S
C1869 C1868 1.434 . S
C1870 C1871 1.369 . S
C1870 C1872 1.419 . S
C1870 H1874 0.930 . S
C1871 C1870 1.369 . S
C1871 C1880 1.429 . S
C1872 C1870 1.419 . S
C1872 C1873 1.363 . S
C1872 H1875 0.929 . S
C1873 C1872 1.363 . S
C1873 C1879 1.428 . S
H1874 C1870 0.930 . S
H1875 C1872 0.929 . S
S1876 N1877 1.613 . S
S1876 N1878 1.610 . S
N1877 S1876 1.613 . S
N1877 C1880 1.350 . S
N1878 S1876 1.610 . S
N1878 C1879 1.351 . S
C1879 C1873 1.428 . S
C1879 N1878 1.351 . S
C1879 C1880 1.434 . S
C1880 C1871 1.429 . S
C1880 N1877 1.350 . S
C1880 C1879 1.434 . S
C1881 C1882 1.369 . S
C1881 C1883 1.419 . S
C1881 H1885 0.930 . S
C1882 C1881 1.369 . S
C1882 C1891 1.429 . S
C1883 C1881 1.419 . S
C1883 C1884 1.363 . S
C1883 H1886 0.929 . S
C1884 C1883 1.363 . S
C1884 C1890 1.428 . S
H1885 C1881 0.930 . S
H1886 C1883 0.929 . S
S1887 N1888 1.613 . S
S1887 N1889 1.610 . S
N1888 S1887 1.613 . S
N1888 C1891 1.350 . S
N1889 S1887 1.610 . S
N1889 C1890 1.351 . S
C1890 C1884 1.428 . S
C1890 N1889 1.351 . S
C1890 C1891 1.434 . S
C1891 C1882 1.429 . S
C1891 N1888 1.350 . S
C1891 C1890 1.434 . S
C1892 C1893 1.369 . S
C1892 C1894 1.419 . S
C1892 H1896 0.930 . S
C1893 C1892 1.369 . S
C1893 C1902 1.429 . S
C1894 C1892 1.419 . S
C1894 C1895 1.363 . S
C1894 H1897 0.929 . S
C1895 C1894 1.363 . S
C1895 C1901 1.428 . S
H1896 C1892 0.930 . S
H1897 C1894 0.929 . S
S1898 N1899 1.613 . S
S1898 N1900 1.610 . S
N1899 S1898 1.613 . S
N1899 C1902 1.350 . S
N1900 S1898 1.610 . S
N1900 C1901 1.351 . S
C1901 C1895 1.428 . S
C1901 N1900 1.351 . S
C1901 C1902 1.434 . S
C1902 C1893 1.429 . S
C1902 N1899 1.350 . S
C1902 C1901 1.434 . S
C1903 C1904 1.369 . S
C1903 C1905 1.419 . S
C1903 H1907 0.930 . S
C1904 C1903 1.369 . S
C1904 C1913 1.429 . S
C1905 C1903 1.419 . S
C1905 C1906 1.363 . S
C1905 H1908 0.929 . S
C1906 C1905 1.363 . S
C1906 C1912 1.428 . S
H1907 C1903 0.930 . S
H1908 C1905 0.929 . S
S1909 N1910 1.613 . S
S1909 N1911 1.610 . S
N1910 S1909 1.613 . S
N1910 C1913 1.350 . S
N1911 S1909 1.610 . S
N1911 C1912 1.351 . S
C1912 C1906 1.428 . S
C1912 N1911 1.351 . S
C1912 C1913 1.434 . S
C1913 C1904 1.429 . S
C1913 N1910 1.350 . S
C1913 C1912 1.434 . S
C1914 C1915 1.369 . S
C1914 C1916 1.419 . S
C1914 H1918 0.930 . S
C1915 C1914 1.369 . S
C1915 C1924 1.429 . S
C1916 C1914 1.419 . S
C1916 C1917 1.363 . S
C1916 H1919 0.929 . S
C1917 C1916 1.363 . S
C1917 C1923 1.428 . S
H1918 C1914 0.930 . S
H1919 C1916 0.929 . S
S1920 N1921 1.613 . S
S1920 N1922 1.610 . S
N1921 S1920 1.613 . S
N1921 C1924 1.350 . S
N1922 S1920 1.610 . S
N1922 C1923 1.351 . S
C1923 C1917 1.428 . S
C1923 N1922 1.351 . S
C1923 C1924 1.434 . S
C1924 C1915 1.429 . S
C1924 N1921 1.350 . S
C1924 C1923 1.434 . S
C1925 C1926 1.369 . S
C1925 C1927 1.419 . S
C1925 H1929 0.930 . S
C1926 C1925 1.369 . S
C1926 C1935 1.429 . S
C1927 C1925 1.419 . S
C1927 C1928 1.363 . S
C1927 H1930 0.929 . S
C1928 C1927 1.363 . S
C1928 C1934 1.428 . S
H1929 C1925 0.930 . S
H1930 C1927 0.929 . S
S1931 N1932 1.613 . S
S1931 N1933 1.610 . S
N1932 S1931 1.613 . S
N1932 C1935 1.350 . S
N1933 S1931 1.610 . S
N1933 C1934 1.351 . S
C1934 C1928 1.428 . S
C1934 N1933 1.351 . S
C1934 C1935 1.434 . S
C1935 C1926 1.429 . S
C1935 N1932 1.350 . S
C1935 C1934 1.434 . S
C1936 C1937 1.369 . S
C1936 C1938 1.419 . S
C1936 H1940 0.930 . S
C1937 C1936 1.369 . S
C1937 C1946 1.429 . S
C1938 C1936 1.419 . S
C1938 C1939 1.363 . S
C1938 H1941 0.929 . S
C1939 C1938 1.363 . S
C1939 C1945 1.428 . S
H1940 C1936 0.930 . S
H1941 C1938 0.929 . S
S1942 N1943 1.613 . S
S1942 N1944 1.610 . S
N1943 S1942 1.613 . S
N1943 C1946 1.350 . S
N1944 S1942 1.610 . S
N1944 C1945 1.351 . S
C1945 C1939 1.428 . S
C1945 N1944 1.351 . S
C1945 C1946 1.434 . S
C1946 C1937 1.429 . S
C1946 N1943 1.350 . S
C1946 C1945 1.434 . S
C1947 C1948 1.369 . S
C1947 C1949 1.419 . S
C1947 H1951 0.930 . S
C1948 C1947 1.369 . S
C1948 C1957 1.429 . S
C1949 C1947 1.419 . S
C1949 C1950 1.363 . S
C1949 H1952 0.929 . S
C1950 C1949 1.363 . S
C1950 C1956 1.428 . S
H1951 C1947 0.930 . S
H1952 C1949 0.929 . S
S1953 N1954 1.613 . S
S1953 N1955 1.610 . S
N1954 S1953 1.613 . S
N1954 C1957 1.350 . S
N1955 S1953 1.610 . S
N1955 C1956 1.351 . S
C1956 C1950 1.428 . S
C1956 N1955 1.351 . S
C1956 C1957 1.434 . S
C1957 C1948 1.429 . S
C1957 N1954 1.350 . S
C1957 C1956 1.434 . S
C1958 C1959 1.369 . S
C1958 C1960 1.419 . S
C1958 H1962 0.930 . S
C1959 C1958 1.369 . S
C1959 C1968 1.429 . S
C1960 C1958 1.419 . S
C1960 C1961 1.363 . S
C1960 H1963 0.929 . S
C1961 C1960 1.363 . S
C1961 C1967 1.428 . S
H1962 C1958 0.930 . S
H1963 C1960 0.929 . S
S1964 N1965 1.613 . S
S1964 N1966 1.610 . S
N1965 S1964 1.613 . S
N1965 C1968 1.350 . S
N1966 S1964 1.610 . S
N1966 C1967 1.351 . S
C1967 C1961 1.428 . S
C1967 N1966 1.351 . S
C1967 C1968 1.434 . S
C1968 C1959 1.429 . S
C1968 N1965 1.350 . S
C1968 C1967 1.434 . S
C1969 C1970 1.369 . S
C1969 C1971 1.419 . S
C1969 H1973 0.930 . S
C1970 C1969 1.369 . S
C1970 C1979 1.429 . S
C1971 C1969 1.419 . S
C1971 C1972 1.363 . S
C1971 H1974 0.929 . S
C1972 C1971 1.363 . S
C1972 C1978 1.428 . S
H1973 C1969 0.930 . S
H1974 C1971 0.929 . S
S1975 N1976 1.613 . S
S1975 N1977 1.610 . S
N1976 S1975 1.613 . S
N1976 C1979 1.350 . S
N1977 S1975 1.610 . S
N1977 C1978 1.351 . S
C1978 C1972 1.428 . S
C1978 N1977 1.351 . S
C1978 C1979 1.434 . S
C1979 C1970 1.429 . S
C1979 N1976 1.350 . S
C1979 C1978 1.434 . S
C1980 C1981 1.369 . S
C1980 C1982 1.419 . S
C1980 H1984 0.930 . S
C1981 C1980 1.369 . S
C1981 C1990 1.429 . S
C1982 C1980 1.419 . S
C1982 C1983 1.363 . S
C1982 H1985 0.929 . S
C1983 C1982 1.363 . S
C1983 C1989 1.428 . S
H1984 C1980 0.930 . S
H1985 C1982 0.929 . S
S1986 N1987 1.613 . S
S1986 N1988 1.610 . S
N1987 S1986 1.613 . S
N1987 C1990 1.350 . S
N1988 S1986 1.610 . S
N1988 C1989 1.351 . S
C1989 C1983 1.428 . S
C1989 N1988 1.351 . S
C1989 C1990 1.434 . S
C1990 C1981 1.429 . S
C1990 N1987 1.350 . S
C1990 C1989 1.434 . S
C1991 C1992 1.369 . S
C1991 C1993 1.419 . S
C1991 H1995 0.930 . S
C1992 C1991 1.369 . S
C1992 C2001 1.429 . S
C1993 C1991 1.419 . S
C1993 C1994 1.363 . S
C1993 H1996 0.929 . S
C1994 C1993 1.363 . S
C1994 C2000 1.428 . S
H1995 C1991 0.930 . S
H1996 C1993 0.929 . S
S1997 N1998 1.613 . S
S1997 N1999 1.610 . S
N1998 S1997 1.613 . S
N1998 C2001 1.350 . S
N1999 S1997 1.610 . S
N1999 C2000 1.351 . S
C2000 C1994 1.428 . S
C2000 N1999 1.351 . S
C2000 C2001 1.434 . S
C2001 C1992 1.429 . S
C2001 N1998 1.350 . S
C2001 C2000 1.434 . S
C2002 C2003 1.369 . S
C2002 C2004 1.419 . S
C2002 H2006 0.930 . S
C2003 C2002 1.369 . S
C2003 C2012 1.429 . S
C2004 C2002 1.419 . S
C2004 C2005 1.363 . S
C2004 H2007 0.929 . S
C2005 C2004 1.363 . S
C2005 C2011 1.428 . S
H2006 C2002 0.930 . S
H2007 C2004 0.929 . S
S2008 N2009 1.613 . S
S2008 N2010 1.610 . S
N2009 S2008 1.613 . S
N2009 C2012 1.350 . S
N2010 S2008 1.610 . S
N2010 C2011 1.351 . S
C2011 C2005 1.428 . S
C2011 N2010 1.351 . S
C2011 C2012 1.434 . S
C2012 C2003 1.429 . S
C2012 N2009 1.350 . S
C2012 C2011 1.434 . S
C2013 C2014 1.369 . S
C2013 C2015 1.419 . S
C2013 H2017 0.930 . S
C2014 C2013 1.369 . S
C2014 C2023 1.429 1_554 S
C2015 C2013 1.419 . S
C2015 C2016 1.363 1_554 S
C2015 H2018 0.929 . S
C2016 C2015 1.363 1_556 S
C2016 C2022 1.428 . S
H2017 C2013 0.930 . S
H2018 C2015 0.929 . S
S2019 N2020 1.613 . S
S2019 N2021 1.610 . S
N2020 S2019 1.613 . S
N2020 C2023 1.350 . S
N2021 S2019 1.610 . S
N2021 C2022 1.351 . S
C2022 C2016 1.428 . S
C2022 N2021 1.351 . S
C2022 C2023 1.434 . S
C2023 C2014 1.429 1_556 S
C2023 N2020 1.350 . S
C2023 C2022 1.434 . S
C2024 C2025 1.369 . S
C2024 C2026 1.419 . S
C2024 H2028 0.930 1_556 S
C2025 C2024 1.369 . S
C2025 C2034 1.429 . S
C2026 C2024 1.419 . S
C2026 C2027 1.363 . S
C2026 H2029 0.929 . S
C2027 C2026 1.363 . S
C2027 C2033 1.428 . S
H2028 C2024 0.930 1_554 S
H2029 C2026 0.929 . S
S2030 N2031 1.613 . S
S2030 N2032 1.610 . S
N2031 S2030 1.613 . S
N2031 C2034 1.350 . S
N2032 S2030 1.610 . S
N2032 C2033 1.351 . S
C2033 C2027 1.428 . S
C2033 N2032 1.351 . S
C2033 C2034 1.434 . S
C2034 C2025 1.429 . S
C2034 N2031 1.350 . S
C2034 C2033 1.434 . S
C2035 C2036 1.369 . S
C2035 C2037 1.419 1_554 S
C2035 H2039 0.930 1_554 S
C2036 C2035 1.369 . S
C2036 C2045 1.429 . S
C2037 C2035 1.419 1_556 S
C2037 C2038 1.363 1_556 S
C2037 H2040 0.929 . S
C2038 C2037 1.363 1_554 S
C2038 C2044 1.428 . S
H2039 C2035 0.930 1_556 S
H2040 C2037 0.929 . S
S2041 N2042 1.613 . S
S2041 N2043 1.610 . S
N2042 S2041 1.613 . S
N2042 C2045 1.350 . S
N2043 S2041 1.610 . S
N2043 C2044 1.351 . S
C2044 C2038 1.428 . S
C2044 N2043 1.351 . S
C2044 C2045 1.434 . S
C2045 C2036 1.429 . S
C2045 N2042 1.350 . S
C2045 C2044 1.434 . S
C2046 C2047 1.369 1_556 S
C2046 C2048 1.419 . S
C2046 H2050 0.930 . S
C2047 C2046 1.369 1_554 S
C2047 C2056 1.429 . S
C2048 C2046 1.419 . S
C2048 C2049 1.363 . S
C2048 H2051 0.929 . S
C2049 C2048 1.363 . S
C2049 C2055 1.428 1_556 S
H2050 C2046 0.930 . S
H2051 C2048 0.929 . S
S2052 N2053 1.613 . S
S2052 N2054 1.610 . S
N2053 S2052 1.613 . S
N2053 C2056 1.350 . S
N2054 S2052 1.610 . S
N2054 C2055 1.351 . S
C2055 C2049 1.428 1_554 S
C2055 N2054 1.351 . S
C2055 C2056 1.434 . S
C2056 C2047 1.429 . S
C2056 N2053 1.350 . S
C2056 C2055 1.434 . S
C2057 C2058 1.369 . S
C2057 C2059 1.419 . S
C2057 H2061 0.930 . S
C2058 C2057 1.369 . S
C2058 C2067 1.429 . S
C2059 C2057 1.419 . S
C2059 C2060 1.363 . S
C2059 H2062 0.929 . S
C2060 C2059 1.363 . S
C2060 C2066 1.428 . S
H2061 C2057 0.930 . S
H2062 C2059 0.929 . S
S2063 N2064 1.613 . S
S2063 N2065 1.610 . S
N2064 S2063 1.613 . S
N2064 C2067 1.350 . S
N2065 S2063 1.610 . S
N2065 C2066 1.351 . S
C2066 C2060 1.428 . S
C2066 N2065 1.351 . S
C2066 C2067 1.434 . S
C2067 C2058 1.429 . S
C2067 N2064 1.350 . S
C2067 C2066 1.434 . S
C2068 C2069 1.369 . S
C2068 C2070 1.419 . S
C2068 H2072 0.930 . S
C2069 C2068 1.369 . S
C2069 C2078 1.429 1_554 S
C2070 C2068 1.419 . S
C2070 C2071 1.371 . S
C2070 H2073 0.929 . S
C2071 C2070 1.371 . S
C2071 C2077 1.424 1_554 S
H2072 C2068 0.930 . S
H2073 C2070 0.929 . S
S2074 N2075 1.613 . S
S2074 N2076 1.610 . S
N2075 S2074 1.613 . S
N2075 C2078 1.350 . S
N2076 S2074 1.610 . S
N2076 C2077 1.351 . S
C2077 C2071 1.424 1_556 S
C2077 N2076 1.351 . S
C2077 C2078 1.434 . S
C2078 C2069 1.429 1_556 S
C2078 N2075 1.350 . S
C2078 C2077 1.434 . S
C2079 C2080 1.369 . S
C2079 C2081 1.419 . S
C2079 H2083 0.930 . S
C2080 C2079 1.369 . S
C2080 C2089 1.429 . S
C2081 C2079 1.419 . S
C2081 C2082 1.363 . S
C2081 H2084 0.929 . S
C2082 C2081 1.363 . S
C2082 C2088 1.428 . S
H2083 C2079 0.930 . S
H2084 C2081 0.929 . S
S2085 N2086 1.612 . S
S2085 N2087 1.610 1_545 S
N2086 S2085 1.612 . S
N2086 C2089 1.345 1_545 S
N2087 S2085 1.610 1_565 S
N2087 C2088 1.351 . S
C2088 C2082 1.428 . S
C2088 N2087 1.351 . S
C2088 C2089 1.434 . S
C2089 C2080 1.429 . S
C2089 N2086 1.345 1_565 S
C2089 C2088 1.434 . S
C2090 C2091 1.369 . S
C2090 C2092 1.419 . S
C2090 H2094 0.930 . S
C2091 C2090 1.369 . S
C2091 C2100 1.429 . S
C2092 C2090 1.419 . S
C2092 C2093 1.363 . S
C2092 H2095 0.929 . S
C2093 C2092 1.363 . S
C2093 C2099 1.428 . S
H2094 C2090 0.930 . S
H2095 C2092 0.929 . S
S2096 N2097 1.613 . S
S2096 N2098 1.610 . S
N2097 S2096 1.613 . S
N2097 C2100 1.350 . S
N2098 S2096 1.610 . S
N2098 C2099 1.351 . S
C2099 C2093 1.428 . S
C2099 N2098 1.351 . S
C2099 C2100 1.434 . S
C2100 C2091 1.429 . S
C2100 N2097 1.350 . S
C2100 C2099 1.434 . S
C2101 C2102 1.369 . S
C2101 C2103 1.419 . S
C2101 H2105 0.930 . S
C2102 C2101 1.369 . S
C2102 C2111 1.429 . S
C2103 C2101 1.419 . S
C2103 C2104 1.363 . S
C2103 H2106 0.929 . S
C2104 C2103 1.363 . S
C2104 C2110 1.428 . S
H2105 C2101 0.930 . S
H2106 C2103 0.929 . S
S2107 N2108 1.613 . S
S2107 N2109 1.610 . S
N2108 S2107 1.613 . S
N2108 C2111 1.350 . S
N2109 S2107 1.610 . S
N2109 C2110 1.351 . S
C2110 C2104 1.428 . S
C2110 N2109 1.351 . S
C2110 C2111 1.434 . S
C2111 C2102 1.429 . S
C2111 N2108 1.350 . S
C2111 C2110 1.434 . S
C2112 C2113 1.369 . S
C2112 C2114 1.419 . S
C2112 H2116 0.930 . S
C2113 C2112 1.369 . S
C2113 C2122 1.429 . S
C2114 C2112 1.419 . S
C2114 C2115 1.363 . S
C2114 H2117 0.929 . S
C2115 C2114 1.363 . S
C2115 C2121 1.428 . S
H2116 C2112 0.930 . S
H2117 C2114 0.929 . S
S2118 N2119 1.613 . S
S2118 N2120 1.610 . S
N2119 S2118 1.613 . S
N2119 C2122 1.350 . S
N2120 S2118 1.610 . S
N2120 C2121 1.351 . S
C2121 C2115 1.428 . S
C2121 N2120 1.351 . S
C2121 C2122 1.434 . S
C2122 C2113 1.429 . S
C2122 N2119 1.350 . S
C2122 C2121 1.434 . S
C2123 C2124 1.369 . S
C2123 C2125 1.419 . S
C2123 H2127 0.930 . S
C2124 C2123 1.369 . S
C2124 C2133 1.429 . S
C2125 C2123 1.419 . S
C2125 C2126 1.363 . S
C2125 H2128 0.929 . S
C2126 C2125 1.363 . S
C2126 C2132 1.428 . S
H2127 C2123 0.930 . S
H2128 C2125 0.929 . S
S2129 N2130 1.613 . S
S2129 N2131 1.610 . S
N2130 S2129 1.613 . S
N2130 C2133 1.350 . S
N2131 S2129 1.610 . S
N2131 C2132 1.351 . S
C2132 C2126 1.428 . S
C2132 N2131 1.351 . S
C2132 C2133 1.434 . S
C2133 C2124 1.429 . S
C2133 N2130 1.350 . S
C2133 C2132 1.434 . S
C2134 C2135 1.369 . S
C2134 C2136 1.419 . S
C2134 H2138 0.930 . S
C2135 C2134 1.369 . S
C2135 C2144 1.429 . S
C2136 C2134 1.419 . S
C2136 C2137 1.363 . S
C2136 H2139 0.929 . S
C2137 C2136 1.363 . S
C2137 C2143 1.428 . S
H2138 C2134 0.930 . S
H2139 C2136 0.929 . S
S2140 N2141 1.613 . S
S2140 N2142 1.610 . S
N2141 S2140 1.613 . S
N2141 C2144 1.350 . S
N2142 S2140 1.610 . S
N2142 C2143 1.351 . S
C2143 C2137 1.428 . S
C2143 N2142 1.351 . S
C2143 C2144 1.434 . S
C2144 C2135 1.429 . S
C2144 N2141 1.350 . S
C2144 C2143 1.434 . S
C2145 C2146 1.369 . S
C2145 C2147 1.419 . S
C2145 H2149 0.930 . S
C2146 C2145 1.369 . S
C2146 C2155 1.429 . S
C2147 C2145 1.419 . S
C2147 C2148 1.363 . S
C2147 H2150 0.929 . S
C2148 C2147 1.363 . S
C2148 C2154 1.428 . S
H2149 C2145 0.930 . S
H2150 C2147 0.929 . S
S2151 N2152 1.613 . S
S2151 N2153 1.610 . S
N2152 S2151 1.613 . S
N2152 C2155 1.350 1_655 S
N2153 S2151 1.610 . S
N2153 C2154 1.351 1_655 S
C2154 C2148 1.428 . S
C2154 N2153 1.351 1_455 S
C2154 C2155 1.434 . S
C2155 C2146 1.429 . S
C2155 N2152 1.350 1_455 S
C2155 C2154 1.434 . S
C2156 C2157 1.369 . S
C2156 C2158 1.419 . S
C2156 H2160 0.930 . S
C2157 C2156 1.369 . S
C2157 C2166 1.429 . S
C2158 C2156 1.419 . S
C2158 C2159 1.363 . S
C2158 H2161 0.929 . S
C2159 C2158 1.363 . S
C2159 C2165 1.428 . S
H2160 C2156 0.930 . S
H2161 C2158 0.929 . S
S2162 N2163 1.613 . S
S2162 N2164 1.610 . S
N2163 S2162 1.613 . S
N2163 C2166 1.350 . S
N2164 S2162 1.610 . S
N2164 C2165 1.351 . S
C2165 C2159 1.428 . S
C2165 N2164 1.351 . S
C2165 C2166 1.434 . S
C2166 C2157 1.429 . S
C2166 N2163 1.350 . S
C2166 C2165 1.434 . S
C2167 C2168 1.369 . S
C2167 C2169 1.419 . S
C2167 H2171 0.930 . S
C2168 C2167 1.369 . S
C2168 C2177 1.429 . S
C2169 C2167 1.419 . S
C2169 C2170 1.363 . S
C2169 H2172 0.929 . S
C2170 C2169 1.363 . S
C2170 C2176 1.428 . S
H2171 C2167 0.930 . S
H2172 C2169 0.929 . S
S2173 N2174 1.613 . S
S2173 N2175 1.610 . S
N2174 S2173 1.613 . S
N2174 C2177 1.350 . S
N2175 S2173 1.610 . S
N2175 C2176 1.351 . S
C2176 C2170 1.428 . S
C2176 N2175 1.351 . S
C2176 C2177 1.434 . S
C2177 C2168 1.429 . S
C2177 N2174 1.350 . S
C2177 C2176 1.434 . S
C2178 C2179 1.369 . S
C2178 C2180 1.419 . S
C2178 H2182 0.930 . S
C2179 C2178 1.369 . S
C2179 C2188 1.409 1_565 S
C2180 C2178 1.419 . S
C2180 C2181 1.363 . S
C2180 H2183 0.929 . S
C2181 C2180 1.363 . S
C2181 C2187 1.428 1_565 S
H2182 C2178 0.930 . S
H2183 C2180 0.929 . S
S2184 N2185 1.613 . S
S2184 N2186 1.610 . S
N2185 S2184 1.613 . S
N2185 C2188 1.357 . S
N2186 S2184 1.610 . S
N2186 C2187 1.351 . S
C2187 C2181 1.428 1_545 S
C2187 N2186 1.351 . S
C2187 C2188 1.449 . S
C2188 C2179 1.409 1_545 S
C2188 N2185 1.357 . S
C2188 C2187 1.449 . S
C2189 C2190 1.369 . S
C2189 C2191 1.419 . S
C2189 H2193 0.930 . S
C2190 C2189 1.369 . S
C2190 C2199 1.429 . S
C2191 C2189 1.419 . S
C2191 C2192 1.363 . S
C2191 H2194 0.929 . S
C2192 C2191 1.363 . S
C2192 C2198 1.428 1_455 S
H2193 C2189 0.930 . S
H2194 C2191 0.929 . S
S2195 N2196 1.639 . S
S2195 N2197 1.610 . S
N2196 S2195 1.639 . S
N2196 C2199 1.320 1_655 S
N2197 S2195 1.610 . S
N2197 C2198 1.351 . S
C2198 C2192 1.428 1_655 S
C2198 N2197 1.351 . S
C2198 C2199 1.434 1_655 S
C2199 C2190 1.429 . S
C2199 N2196 1.320 1_455 S
C2199 C2198 1.434 1_455 S
C2200 C2201 1.369 . S
C2200 C2202 1.419 . S
C2200 H2204 0.930 . S
C2201 C2200 1.369 . S
C2201 C2210 1.429 . S
C2202 C2200 1.419 . S
C2202 C2203 1.363 . S
C2202 H2205 0.929 . S
C2203 C2202 1.363 . S
C2203 C2209 1.428 . S
H2204 C2200 0.930 . S
H2205 C2202 0.929 . S
S2206 N2207 1.613 . S
S2206 N2208 1.610 . S
N2207 S2206 1.613 . S
N2207 C2210 1.350 . S
N2208 S2206 1.610 . S
N2208 C2209 1.351 . S
C2209 C2203 1.428 . S
C2209 N2208 1.351 . S
C2209 C2210 1.434 . S
C2210 C2201 1.429 . S
C2210 N2207 1.350 . S
C2210 C2209 1.434 . S
C2211 C2212 1.369 . S
C2211 C2213 1.419 . S
C2211 H2215 0.930 . S
C2212 C2211 1.369 . S
C2212 C2221 1.429 . S
C2213 C2211 1.419 . S
C2213 C2214 1.363 . S
C2213 H2216 0.929 . S
C2214 C2213 1.363 . S
C2214 C2220 1.428 . S
H2215 C2211 0.930 . S
H2216 C2213 0.929 . S
S2217 N2218 1.613 . S
S2217 N2219 1.610 . S
N2218 S2217 1.613 . S
N2218 C2221 1.350 . S
N2219 S2217 1.610 . S
N2219 C2220 1.351 . S
C2220 C2214 1.428 . S
C2220 N2219 1.351 . S
C2220 C2221 1.434 . S
C2221 C2212 1.429 . S
C2221 N2218 1.350 . S
C2221 C2220 1.434 . S
C2222 C2223 1.369 . S
C2222 C2224 1.419 . S
C2222 H2226 0.930 . S
C2223 C2222 1.369 . S
C2223 C2232 1.429 . S
C2224 C2222 1.419 . S
C2224 C2225 1.363 . S
C2224 H2227 0.929 . S
C2225 C2224 1.363 . S
C2225 C2231 1.428 . S
H2226 C2222 0.930 . S
H2227 C2224 0.929 . S
S2228 N2229 1.613 . S
S2228 N2230 1.610 . S
N2229 S2228 1.613 . S
N2229 C2232 1.350 . S
N2230 S2228 1.610 . S
N2230 C2231 1.351 . S
C2231 C2225 1.428 . S
C2231 N2230 1.351 . S
C2231 C2232 1.434 . S
C2232 C2223 1.429 . S
C2232 N2229 1.350 . S
C2232 C2231 1.434 . S
C2233 C2234 1.369 . S
C2233 C2235 1.419 . S
C2233 H2237 0.930 . S
C2234 C2233 1.369 . S
C2234 C2243 1.429 . S
C2235 C2233 1.419 . S
C2235 C2236 1.363 . S
C2235 H2238 0.929 . S
C2236 C2235 1.363 . S
C2236 C2242 1.428 . S
H2237 C2233 0.930 . S
H2238 C2235 0.929 . S
S2239 N2240 1.613 . S
S2239 N2241 1.610 . S
N2240 S2239 1.613 . S
N2240 C2243 1.350 . S
N2241 S2239 1.610 . S
N2241 C2242 1.351 . S
C2242 C2236 1.428 . S
C2242 N2241 1.351 . S
C2242 C2243 1.434 . S
C2243 C2234 1.429 . S
C2243 N2240 1.350 . S
C2243 C2242 1.434 . S
C2244 C2245 1.369 . S
C2244 C2246 1.419 . S
C2244 H2248 0.930 . S
C2245 C2244 1.369 . S
C2245 C2254 1.429 . S
C2246 C2244 1.419 . S
C2246 C2247 1.363 . S
C2246 H2249 0.929 . S
C2247 C2246 1.363 . S
C2247 C2253 1.428 . S
H2248 C2244 0.930 . S
H2249 C2246 0.929 . S
S2250 N2251 1.613 1_565 S
S2250 N2252 1.610 . S
N2251 S2250 1.613 1_545 S
N2251 C2254 1.350 . S
N2252 S2250 1.610 . S
N2252 C2253 1.351 1_565 S
C2253 C2247 1.428 . S
C2253 N2252 1.351 1_545 S
C2253 C2254 1.434 . S
C2254 C2245 1.429 . S
C2254 N2251 1.350 . S
C2254 C2253 1.434 . S
C2255 C2256 1.369 . S
C2255 C2257 1.419 . S
C2255 H2259 0.930 . S
C2256 C2255 1.369 . S
C2256 C2265 1.429 . S
C2257 C2255 1.419 . S
C2257 C2258 1.363 . S
C2257 H2260 0.929 1_655 S
C2258 C2257 1.363 . S
C2258 C2264 1.428 . S
H2259 C2255 0.930 . S
H2260 C2257 0.929 1_455 S
S2261 N2262 1.613 . S
S2261 N2263 1.610 . S
N2262 S2261 1.613 . S
N2262 C2265 1.350 . S
N2263 S2261 1.610 . S
N2263 C2264 1.351 . S
C2264 C2258 1.428 . S
C2264 N2263 1.351 . S
C2264 C2265 1.434 . S
C2265 C2256 1.429 . S
C2265 N2262 1.350 . S
C2265 C2264 1.434 . S
C2266 C2267 1.369 . S
C2266 C2268 1.419 . S
C2266 H2270 0.930 . S
C2267 C2266 1.369 . S
C2267 C2276 1.429 . S
C2268 C2266 1.419 . S
C2268 C2269 1.363 . S
C2268 H2271 0.929 . S
C2269 C2268 1.363 . S
C2269 C2275 1.428 . S
H2270 C2266 0.930 . S
H2271 C2268 0.929 . S
S2272 N2273 1.613 . S
S2272 N2274 1.610 . S
N2273 S2272 1.613 . S
N2273 C2276 1.350 . S
N2274 S2272 1.610 . S
N2274 C2275 1.351 . S
C2275 C2269 1.428 . S
C2275 N2274 1.351 . S
C2275 C2276 1.434 . S
C2276 C2267 1.429 . S
C2276 N2273 1.350 . S
C2276 C2275 1.434 . S
C2277 C2278 1.369 . S
C2277 C2279 1.419 . S
C2277 H2281 0.930 . S
C2278 C2277 1.369 . S
C2278 C2287 1.429 . S
C2279 C2277 1.419 . S
C2279 C2280 1.363 . S
C2279 H2282 0.929 . S
C2280 C2279 1.363 . S
C2280 C2286 1.428 . S
H2281 C2277 0.930 . S
H2282 C2279 0.929 . S
S2283 N2284 1.613 . S
S2283 N2285 1.610 . S
N2284 S2283 1.613 . S
N2284 C2287 1.350 . S
N2285 S2283 1.610 . S
N2285 C2286 1.351 . S
C2286 C2280 1.428 . S
C2286 N2285 1.351 . S
C2286 C2287 1.434 . S
C2287 C2278 1.429 . S
C2287 N2284 1.350 . S
C2287 C2286 1.434 . S
C2288 C2289 1.369 . S
C2288 C2290 1.419 . S
C2288 H2292 0.930 . S
C2289 C2288 1.369 . S
C2289 C2298 1.429 . S
C2290 C2288 1.419 . S
C2290 C2291 1.363 . S
C2290 H2293 0.929 . S
C2291 C2290 1.363 . S
C2291 C2297 1.428 . S
H2292 C2288 0.930 . S
H2293 C2290 0.929 . S
S2294 N2295 1.613 . S
S2294 N2296 1.610 . S
N2295 S2294 1.613 . S
N2295 C2298 1.350 . S
N2296 S2294 1.610 . S
N2296 C2297 1.351 . S
C2297 C2291 1.428 . S
C2297 N2296 1.351 . S
C2297 C2298 1.434 . S
C2298 C2289 1.429 . S
C2298 N2295 1.350 . S
C2298 C2297 1.434 . S
C2299 C2300 1.369 . S
C2299 C2301 1.419 . S
C2299 H2303 0.930 . S
C2300 C2299 1.369 . S
C2300 C2309 1.429 . S
C2301 C2299 1.419 . S
C2301 C2302 1.363 . S
C2301 H2304 0.929 . S
C2302 C2301 1.363 . S
C2302 C2308 1.428 . S
H2303 C2299 0.930 . S
H2304 C2301 0.929 . S
S2305 N2306 1.613 . S
S2305 N2307 1.610 . S
N2306 S2305 1.613 . S
N2306 C2309 1.350 . S
N2307 S2305 1.610 . S
N2307 C2308 1.351 . S
C2308 C2302 1.428 . S
C2308 N2307 1.351 . S
C2308 C2309 1.434 . S
C2309 C2300 1.429 . S
C2309 N2306 1.350 . S
C2309 C2308 1.434 . S
C2310 C2311 1.369 . S
C2310 C2312 1.419 . S
C2310 H2314 0.930 . S
C2311 C2310 1.369 . S
C2311 C2320 1.429 . S
C2312 C2310 1.419 . S
C2312 C2313 1.363 . S
C2312 H2315 0.929 . S
C2313 C2312 1.363 . S
C2313 C2319 1.428 . S
H2314 C2310 0.930 . S
H2315 C2312 0.929 . S
S2316 N2317 1.613 . S
S2316 N2318 1.610 . S
N2317 S2316 1.613 . S
N2317 C2320 1.350 . S
N2318 S2316 1.610 . S
N2318 C2319 1.351 . S
C2319 C2313 1.428 . S
C2319 N2318 1.351 . S
C2319 C2320 1.434 . S
C2320 C2311 1.429 . S
C2320 N2317 1.350 . S
C2320 C2319 1.434 . S
C2321 C2322 1.369 . S
C2321 C2323 1.419 . S
C2321 H2325 0.930 . S
C2322 C2321 1.369 . S
C2322 C2331 1.429 . S
C2323 C2321 1.419 . S
C2323 C2324 1.363 . S
C2323 H2326 0.929 . S
C2324 C2323 1.363 . S
C2324 C2330 1.428 . S
H2325 C2321 0.930 . S
H2326 C2323 0.929 . S
S2327 N2328 1.613 . S
S2327 N2329 1.610 . S
N2328 S2327 1.613 . S
N2328 C2331 1.350 . S
N2329 S2327 1.610 . S
N2329 C2330 1.351 . S
C2330 C2324 1.428 . S
C2330 N2329 1.351 . S
C2330 C2331 1.434 . S
C2331 C2322 1.429 . S
C2331 N2328 1.350 . S
C2331 C2330 1.434 . S
C2332 C2333 1.369 . S
C2332 C2334 1.419 . S
C2332 H2336 0.930 . S
C2333 C2332 1.369 . S
C2333 C2342 1.429 . S
C2334 C2332 1.419 . S
C2334 C2335 1.363 . S
C2334 H2337 0.929 . S
C2335 C2334 1.363 . S
C2335 C2341 1.428 . S
H2336 C2332 0.930 . S
H2337 C2334 0.929 . S
S2338 N2339 1.613 . S
S2338 N2340 1.610 . S
N2339 S2338 1.613 . S
N2339 C2342 1.350 . S
N2340 S2338 1.610 . S
N2340 C2341 1.351 . S
C2341 C2335 1.428 . S
C2341 N2340 1.351 . S
C2341 C2342 1.434 . S
C2342 C2333 1.429 . S
C2342 N2339 1.350 . S
C2342 C2341 1.434 . S
C2343 C2344 1.369 . S
C2343 C2345 1.376 1_655 S
C2343 H2347 0.930 . S
C2344 C2343 1.369 . S
C2344 C2353 1.429 . S
C2345 C2343 1.376 1_455 S
C2345 C2346 1.368 1_455 S
C2345 H2348 0.971 . S
C2346 C2345 1.368 1_655 S
C2346 C2352 1.428 . S
H2347 C2343 0.930 . S
H2348 C2345 0.971 . S
S2349 N2350 1.613 . S
S2349 N2351 1.610 . S
N2350 S2349 1.613 . S
N2350 C2353 1.350 . S
N2351 S2349 1.610 . S
N2351 C2352 1.351 . S
C2352 C2346 1.428 . S
C2352 N2351 1.351 . S
C2352 C2353 1.434 . S
C2353 C2344 1.429 . S
C2353 N2350 1.350 . S
C2353 C2352 1.434 . S
C2354 C2355 1.369 . S
C2354 C2356 1.419 . S
C2354 H2358 0.930 . S
C2355 C2354 1.369 . S
C2355 C2364 1.429 . S
C2356 C2354 1.419 . S
C2356 C2357 1.363 . S
C2356 H2359 0.929 . S
C2357 C2356 1.363 . S
C2357 C2363 1.428 . S
H2358 C2354 0.930 . S
H2359 C2356 0.929 . S
S2360 N2361 1.613 . S
S2360 N2362 1.610 . S
N2361 S2360 1.613 . S
N2361 C2364 1.350 . S
N2362 S2360 1.610 . S
N2362 C2363 1.351 . S
C2363 C2357 1.428 . S
C2363 N2362 1.351 . S
C2363 C2364 1.434 . S
C2364 C2355 1.429 . S
C2364 N2361 1.350 . S
C2364 C2363 1.434 . S
C2365 C2366 1.369 . S
C2365 C2367 1.419 . S
C2365 H2369 0.930 . S
C2366 C2365 1.369 . S
C2366 C2375 1.429 . S
C2367 C2365 1.419 . S
C2367 C2368 1.363 . S
C2367 H2370 0.929 . S
C2368 C2367 1.363 . S
C2368 C2374 1.428 . S
H2369 C2365 0.930 . S
H2370 C2367 0.929 . S
S2371 N2372 1.613 . S
S2371 N2373 1.610 . S
N2372 S2371 1.613 . S
N2372 C2375 1.350 . S
N2373 S2371 1.610 . S
N2373 C2374 1.351 . S
C2374 C2368 1.428 . S
C2374 N2373 1.351 . S
C2374 C2375 1.434 . S
C2375 C2366 1.429 . S
C2375 N2372 1.350 . S
C2375 C2374 1.434 . S
C1585 C4 1.323 . S
C1587 C981 1.271 . S
C1596 C26 1.633 . S
C1598 C1061 1.575 . S
C1609 C1129 1.301 . S
C1607 C32 1.335 . S
C1618 C40 1.618 . S
C1620 C1209 1.637 . S
C1629 C12 1.486 . S
C1631 C1283 1.503 . S
C1640 C18 1.579 . S
C1642 C1351 1.507 . S
C1651 C46 1.263 . S
C1653 C1277 1.220 . S
C1664 C1357 1.476 . S
C1662 C68 1.462 . S
C1675 C1203 1.335 . S
C1673 C74 1.407 . S
C1684 C82 1.637 . S
C1686 C1135 1.705 . S
C1697 C987 1.524 . S
C1695 C54 1.489 . S
C1706 C60 1.411 . S
C1708 C1055 1.408 . S
C1717 C88 1.500 . S
C1719 C1425 1.423 . S
C1728 C110 1.679 . S
C1730 C1505 1.597 . S
C1741 C1573 1.580 . S
C1739 C116 1.671 . S
C1750 C124 1.755 . S
C1752 C321 1.711 . S
C1761 C96 1.648 . S
C1763 C395 1.594 . S
C1772 C102 1.608 . S
C1774 C463 1.520 . S
C1783 C130 1.223 . S
C1785 C389 1.208 . S
C1794 C152 1.531 . S
C1796 C469 1.534 . S
C1807 C315 1.431 . S
C1805 C158 1.437 . S
C1818 C1579 1.699 . S
C1816 C166 1.682 . S
C1829 C1431 1.464 . S
C1827 C138 1.459 . S
C1840 C1499 1.445 . S
C1838 C144 1.448 . S
C1849 C172 1.446 . S
C1851 C537 1.363 . S
C1860 C194 1.713 . S
C1862 C617 1.629 . S
C1871 C200 1.674 . S
C1873 C685 1.568 . S
C1882 C208 1.808 . S
C1884 C765 1.755 . S
C1895 C839 1.585 . S
C1893 C180 1.639 . S
C1906 C907 1.575 . S
C1904 C186 1.643 . S
C1917 C833 1.310 . S
C1915 C214 1.321 . S
C1928 C913 1.501 . S
C1926 C236 1.503 . S
C1937 C242 1.405 . S
C1939 C759 1.392 . S
C1950 C691 1.625 . S
C1948 C250 1.603 . S
C1959 C222 1.504 . S
C1961 C543 1.515 . S
C1972 C611 1.415 . S
C1970 C228 1.424 . S
C1983 C291 1.959 . S
C1981 C5 1.848 . S
C1992 C25 1.494 . S
C1994 C365 1.454 . S
C2005 C451 1.605 . S
C2003 C33 1.391 . S
C2016 C525 1.263 . S
C2014 C39 1.306 . S
C2027 C587 1.561 . S
C2025 C11 1.597 1_556 S
C2038 C673 1.563 1_554 S
C2036 C19 1.327 . S
C2047 C47 2.035 . S
C2049 C661 2.103 . S
C2058 C67 1.781 . S
C2060 C513 1.622 . S
C2069 C75 1.686 . S
C2071 C599 1.869 1_554 S
C2080 C81 1.691 . S
C2082 C377 1.542 . S
C2093 C439 1.750 . S
C2091 C53 1.906 . S
C2102 C61 1.565 . S
C2104 C303 1.780 . S
C2115 C735 1.884 . S
C2113 C89 1.749 . S
C2124 C109 1.561 . S
C2126 C809 1.525 . S
C2135 C117 1.331 . S
C2137 C895 1.581 . S
C2148 C969 1.126 . S
C2146 C123 1.156 . S
C2157 C95 1.482 . S
C2159 C1031 1.460 . S
C2168 C103 1.240 . S
C2170 C1117 1.394 . S
C2179 C131 1.665 . S
C2181 C1105 1.739 1_565 S
C2190 C151 1.490 . S
C2192 C957 1.401 1_455 S
C2203 C1043 1.728 . S
C2201 C159 1.495 . S
C2212 C165 1.693 . S
C2214 C821 1.526 . S
C2223 C137 1.873 . S
C2225 C883 1.724 . S
C2236 C747 1.801 . S
C2234 C145 1.587 . S
C2247 C1179 1.723 . S
C2245 C173 1.635 . S
C2256 C193 1.242 . S
C2258 C1253 1.243 . S
C2267 C201 1.274 . S
C2269 C1339 1.486 . S
C2280 C1413 1.261 . S
C2278 C207 1.321 . S
C2291 C1475 1.571 . S
C2289 C179 1.625 . S
C2300 C187 1.374 . S
C2302 C1561 1.592 . S
C2311 C215 1.967 . S
C2313 C1549 2.058 . S
C2322 C235 1.840 . S
C2324 C1401 1.677 . S
C2335 C1487 1.795 . S
C2333 C243 1.550 . S
C2346 C1265 1.216 . S
C2344 C249 1.298 . S
C2357 C1327 1.628 . S
C2355 C221 1.771 . S
C2366 C229 1.326 . S
C2368 C1191 1.522 . S
