# Generated by pormake.
# Topology nom, (4,4)-cn, num edge types: 1
# Building blocks:
#     Node 0, Type 0, BuildingBlock: NAHDIM_clean_linker_0, # of connection points: 4
#     Node 1, Type 0, BuildingBlock: NAHDIM_clean_linker_0, # of connection points: 4
#     Node 2, Type 0, BuildingBlock: NAHDIM_clean_linker_0, # of connection points: 4
#     Node 3, Type 0, BuildingBlock: NAHDIM_clean_linker_0, # of connection points: 4
#     Node 4, Type 0, BuildingBlock: NAHDIM_clean_linker_0, # of connection points: 4
#     Node 5, Type 0, BuildingBlock: NAHDIM_clean_linker_0, # of connection points: 4
#     Node 6, Type 1, BuildingBlock: TATPOV_clean_sbu_0, # of connection points: 4
#     Node 7, Type 1, BuildingBlock: TATPOV_clean_sbu_0, # of connection points: 4
#     Node 8, Type 1, BuildingBlock: TATPOV_clean_sbu_0, # of connection points: 4
#     Node 9, Type 1, BuildingBlock: TATPOV_clean_sbu_0, # of connection points: 4
#     Node 10, Type 1, BuildingBlock: TATPOV_clean_sbu_0, # of connection points: 4
#     Node 11, Type 1, BuildingBlock: TATPOV_clean_sbu_0, # of connection points: 4
#     Edge 12, Type (0, 1), BuildingBlock: ZUJKAS_clean_linker_0, # of connection points: 2
#     Edge 13, Type (0, 1), BuildingBlock: ZUJKAS_clean_linker_0, # of connection points: 2
#     Edge 14, Type (0, 1), BuildingBlock: ZUJKAS_clean_linker_0, # of connection points: 2
#     Edge 15, Type (0, 1), BuildingBlock: ZUJKAS_clean_linker_0, # of connection points: 2
#     Edge 16, Type (0, 1), BuildingBlock: ZUJKAS_clean_linker_0, # of connection points: 2
#     Edge 17, Type (0, 1), BuildingBlock: ZUJKAS_clean_linker_0, # of connection points: 2
#     Edge 18, Type (0, 1), BuildingBlock: ZUJKAS_clean_linker_0, # of connection points: 2
#     Edge 19, Type (0, 1), BuildingBlock: ZUJKAS_clean_linker_0, # of connection points: 2
#     Edge 20, Type (0, 1), BuildingBlock: ZUJKAS_clean_linker_0, # of connection points: 2
#     Edge 21, Type (0, 1), BuildingBlock: ZUJKAS_clean_linker_0, # of connection points: 2
#     Edge 22, Type (0, 1), BuildingBlock: ZUJKAS_clean_linker_0, # of connection points: 2
#     Edge 23, Type (0, 1), BuildingBlock: ZUJKAS_clean_linker_0, # of connection points: 2
#     Edge 24, Type (0, 1), BuildingBlock: ZUJKAS_clean_linker_0, # of connection points: 2
#     Edge 25, Type (0, 1), BuildingBlock: ZUJKAS_clean_linker_0, # of connection points: 2
#     Edge 26, Type (0, 1), BuildingBlock: ZUJKAS_clean_linker_0, # of connection points: 2
#     Edge 27, Type (0, 1), BuildingBlock: ZUJKAS_clean_linker_0, # of connection points: 2
#     Edge 28, Type (0, 1), BuildingBlock: ZUJKAS_clean_linker_0, # of connection points: 2
#     Edge 29, Type (0, 1), BuildingBlock: ZUJKAS_clean_linker_0, # of connection points: 2
#     Edge 30, Type (0, 1), BuildingBlock: ZUJKAS_clean_linker_0, # of connection points: 2
#     Edge 31, Type (0, 1), BuildingBlock: ZUJKAS_clean_linker_0, # of connection points: 2
#     Edge 32, Type (0, 1), BuildingBlock: ZUJKAS_clean_linker_0, # of connection points: 2
#     Edge 33, Type (0, 1), BuildingBlock: ZUJKAS_clean_linker_0, # of connection points: 2
#     Edge 34, Type (0, 1), BuildingBlock: ZUJKAS_clean_linker_0, # of connection points: 2
#     Edge 35, Type (0, 1), BuildingBlock: ZUJKAS_clean_linker_0, # of connection points: 2
# Relax obj value: 0.065
# Max RMSD: 0.133
# Mean RMSD: 0.124
data_MOF--net-nom--node1-TATPOV_clean_sbu_0--node2-NAHDIM_clean_linker_0--edge1-ZUJKAS_clean_linker_0
_symmetry_space_group_name_H-M    P1
_symmetry_Int_Tables_number       1
_symmetry_cell_setting            triclinic
loop_
_symmetry_equiv_pos_as_xyz
'x, y, z'
_cell_length_a     69.331264
_cell_length_b     70.355051
_cell_length_c     84.57265
_cell_angle_alpha  90.620011
_cell_angle_beta   90.581783
_cell_angle_gamma 120.01656
loop_
_atom_site_label
_atom_site_type_symbol
_atom_site_fract_x
_atom_site_fract_y
_atom_site_fract_z
_atom_type_partial_charge
C0 C 0.14194 0.56914 0.26278 0.0
C1 C 0.14692 0.585 0.27685 0.0
C2 C 0.10879 0.57555 0.28403 0.0
C3 C 0.10265 0.55506 0.29064 0.0
C4 C 0.08062 0.54085 0.29514 0.0
C5 C 0.06442 0.54728 0.29309 0.0
C6 C 0.07067 0.56814 0.28692 0.0
C7 C 0.09283 0.58203 0.28252 0.0
C8 C 0.07452 0.51878 0.30185 0.0
C9 C 0.05385 0.57557 0.28475 0.0
C10 C 0.98742 0.44803 0.2109 0.0
C11 C 0.97248 0.45604 0.21801 0.0
C12 C 0.97377 0.45994 0.24662 0.0
C13 C 0.9741 0.47996 0.2483 0.0
C14 C 0.98334 0.49315 0.26194 0.0
C15 C 0.99248 0.48616 0.27406 0.0
C16 C 0.99123 0.46549 0.27267 0.0
C17 C 0.98152 0.45247 0.25902 0.0
C18 C 0.98391 0.51483 0.26322 0.0
C19 C 0.00094 0.45757 0.28529 0.0
C20 C 0.90307 0.44308 0.35715 0.0
C21 C 0.90694 0.46338 0.35151 0.0
C22 C 0.92875 0.48064 0.34921 0.0
C23 C 0.94697 0.47743 0.35251 0.0
C24 C 0.9431 0.45731 0.35885 0.0
C25 C 0.92115 0.44047 0.36126 0.0
C26 C 0.93233 0.50216 0.34296 0.0
C27 C 0.96214 0.45341 0.36268 0.0
C28 C 0.10445 0.61723 0.40035 0.0
C29 C 0.09006 0.59232 0.40169 0.0
C30 C 0.05149 0.57037 0.39253 0.0
C31 C 0.03461 0.57355 0.3863 0.0
C32 C 0.01875 0.55833 0.3755 0.0
C33 C 0.01959 0.53926 0.37123 0.0
C34 C 0.0355 0.53507 0.37859 0.0
C35 C 0.05144 0.55079 0.38908 0.0
C36 C 0.0018 0.56313 0.36809 0.0
C37 C 0.03627 0.51445 0.37485 0.0
C38 C 0.04078 0.53172 0.29674 0.0
C39 C 0.02734 0.5172 0.28473 0.0
C40 C 0.0052 0.50133 0.28742 0.0
C41 C 0.99606 0.49981 0.30254 0.0
C42 C 0.9739 0.48399 0.3057 0.0
C43 C 0.96529 0.48226 0.32076 0.0
C44 C 0.97845 0.49645 0.3332 0.0
C45 C 0.96996 0.49465 0.34861 0.0
C46 C 0.9836 0.50888 0.36073 0.0
C47 C 0.0056 0.52502 0.35787 0.0
C48 C 0.01429 0.52722 0.3425 0.0
C49 C 0.03629 0.54347 0.33919 0.0
C50 C 0.04497 0.54504 0.3242 0.0
C51 C 0.03194 0.53057 0.3119 0.0
C52 C 0.00954 0.51445 0.31484 0.0
C53 C 0.00072 0.51276 0.33018 0.0
C54 C 0.85171 0.3969 0.34445 0.0
C55 C 0.86375 0.42115 0.34945 0.0
O56 O 0.12966 0.58939 0.27876 0.0
O57 O 0.06781 0.58666 0.40154 0.0
O58 O 0.88221 0.42567 0.35872 0.0
O59 O 0.96641 0.44772 0.23307 0.0
H60 H 0.14911 0.57763 0.28781 0.0
H61 H 0.12683 0.55308 0.26489 0.0
H62 H 0.13918 0.57601 0.25178 0.0
H63 H 0.15608 0.56615 0.26104 0.0
H64 H 0.11481 0.54986 0.29218 0.0
H65 H 0.09772 0.59792 0.27756 0.0
H66 H 0.06202 0.50552 0.29396 0.0
H67 H 0.08918 0.51649 0.30321 0.0
H68 H 0.0668 0.51697 0.31358 0.0
H69 H 0.0615 0.59256 0.28027 0.0
H70 H 0.04057 0.5643 0.27628 0.0
H71 H 0.04579 0.57481 0.29619 0.0
H72 H 0.9826 0.47431 0.21844 0.0
H73 H 0.99227 0.45434 0.19874 0.0
H74 H 0.00283 0.45419 0.21827 0.0
H75 H 0.97879 0.42981 0.21046 0.0
H76 H 0.96733 0.48534 0.23889 0.0
H77 H 0.98087 0.43682 0.25764 0.0
H78 H 0.97782 0.51654 0.27495 0.0
H79 H 0.00137 0.52843 0.26223 0.0
H80 H 0.97366 0.51662 0.25382 0.0
H81 H 0.99918 0.44139 0.28219 0.0
H82 H 0.01889 0.4697 0.28717 0.0
H83 H 0.99248 0.45612 0.29665 0.0
H84 H 0.86899 0.4306 0.3383 0.0
H85 H 0.89299 0.46577 0.34889 0.0
H86 H 0.91797 0.42486 0.36585 0.0
H87 H 0.9391 0.50453 0.33085 0.0
H88 H 0.91666 0.50282 0.3425 0.0
H89 H 0.94476 0.51599 0.35051 0.0
H90 H 0.9563 0.43664 0.36716 0.0
H91 H 0.97215 0.45579 0.35195 0.0
H92 H 0.97329 0.46557 0.37177 0.0
H93 H 0.09374 0.58506 0.39116 0.0
H94 H 0.1224 0.62221 0.40029 0.0
H95 H 0.10033 0.6226 0.38914 0.0
H96 H 0.10145 0.62571 0.41038 0.0
H97 H 0.03458 0.58854 0.38931 0.0
H98 H 0.064 0.54792 0.39441 0.0
H99 H 0.00393 0.56436 0.35508 0.0
H100 H 0.98474 0.54943 0.37034 0.0
H101 H 0.00327 0.57864 0.37276 0.0
H102 H 0.04691 0.51185 0.38346 0.0
H103 H 0.01922 0.4999 0.37483 0.0
H104 H 0.04311 0.51562 0.36286 0.0
H105 H 0.03433 0.51807 0.27315 0.0
H106 H 0.96302 0.47266 0.29658 0.0
H107 H 0.94819 0.46958 0.32252 0.0
H108 H 0.97709 0.50723 0.37256 0.0
H109 H 0.04715 0.55511 0.34816 0.0
H110 H 0.06207 0.55772 0.32239 0.0
H111 H 0.83682 0.39287 0.33698 0.0
H112 H 0.86305 0.39335 0.33745 0.0
H113 H 0.84638 0.3862 0.35496 0.0
C114 C 0.45283 0.88136 0.5554 0.0
C115 C 0.43836 0.87439 0.54026 0.0
C116 C 0.4467 0.91064 0.53058 0.0
C117 C 0.46834 0.91742 0.52531 0.0
C118 C 0.48221 0.93897 0.52023 0.0
C119 C 0.47433 0.95403 0.52045 0.0
C120 C 0.4524 0.94712 0.52541 0.0
C121 C 0.43883 0.92544 0.53029 0.0
C122 C 0.50541 0.94577 0.51481 0.0
C123 C 0.44347 0.96276 0.52581 0.0
C124 C 0.57173 0.03508 0.60133 0.0
C125 C 0.56173 0.04829 0.59435 0.0
C126 C 0.5584 0.0476 0.56574 0.0
C127 C 0.53717 0.04523 0.56391 0.0
C128 C 0.52427 0.03534 0.55019 0.0
C129 C 0.53279 0.02761 0.53815 0.0
C130 C 0.55469 0.03108 0.53964 0.0
C131 C 0.56736 0.04138 0.55338 0.0
C132 C 0.50123 0.03245 0.5488 0.0
C133 C 0.56429 0.023 0.52707 0.0
C134 C 0.55791 0.11514 0.4548 0.0
C135 C 0.53629 0.10651 0.46062 0.0
C136 C 0.523 0.08395 0.46333 0.0
C137 C 0.53151 0.06978 0.46009 0.0
C138 C 0.55295 0.07833 0.4536 0.0
C139 C 0.56581 0.10095 0.45089 0.0
C140 C 0.49992 0.07526 0.4698 0.0
C141 C 0.56239 0.06363 0.44982 0.0
C142 C 0.40144 0.90762 0.41405 0.0
C143 C 0.42609 0.92364 0.41115 0.0
C144 C 0.44559 0.9616 0.42088 0.0
C145 C 0.44054 0.97671 0.42769 0.0
C146 C 0.45552 0.99306 0.43828 0.0
C147 C 0.47625 0.99456 0.44175 0.0
C148 C 0.48218 0.98042 0.43384 0.0
C149 C 0.46668 0.96394 0.42355 0.0
C150 C 0.44879 0.00809 0.44628 0.0
C151 C 0.50452 0.98218 0.43673 0.0
C152 C 0.48934 0.97726 0.51617 0.0
C153 C 0.50359 0.99161 0.52794 0.0
C154 C 0.51799 0.0138 0.52494 0.0
C155 C 0.51814 0.02209 0.50976 0.0
C156 C 0.53202 0.04441 0.5064 0.0
C157 C 0.53207 0.05234 0.49137 0.0
C158 C 0.51827 0.03823 0.47912 0.0
C159 C 0.51811 0.04611 0.46381 0.0
C160 C 0.50451 0.03154 0.45183 0.0
C161 C 0.49064 0.00924 0.4548 0.0
C162 C 0.49015 0.00115 0.47012 0.0
C163 C 0.47588 0.9789 0.47362 0.0
C164 C 0.47562 0.97104 0.48866 0.0
C165 C 0.48952 0.98511 0.50083 0.0
C166 C 0.50396 0.00762 0.49763 0.0
C167 C 0.50417 0.01567 0.48227 0.0
C168 C 0.59612 0.16034 0.47302 0.0
C169 C 0.57464 0.15333 0.46349 0.0
O170 O 0.43294 0.89023 0.5362 0.0
O171 O 0.42966 0.94486 0.41195 0.0
O172 O 0.57137 0.137 0.45265 0.0
O173 O 0.57031 0.05536 0.57945 0.0
H174 H 0.44752 0.87199 0.53043 0.0
H175 H 0.46881 0.89674 0.55358 0.0
H176 H 0.44404 0.88417 0.56528 0.0
H177 H 0.45676 0.86844 0.55882 0.0
H178 H 0.47462 0.90612 0.52521 0.0
H179 H 0.42208 0.92004 0.53427 0.0
H180 H 0.51782 0.95845 0.52309 0.0
H181 H 0.50852 0.93175 0.51422 0.0
H182 H 0.50812 0.95321 0.50294 0.0
H183 H 0.42619 0.95494 0.53027 0.0
H184 H 0.45437 0.97721 0.53348 0.0
H185 H 0.44363 0.96887 0.51373 0.0
H186 H 0.54338 0.03687 0.59364 0.0
H187 H 0.5653 0.02955 0.61339 0.0
H188 H 0.56697 0.02032 0.59377 0.0
H189 H 0.59021 0.04502 0.60196 0.0
H190 H 0.53059 0.05083 0.5733 0.0
H191 H 0.58392 0.04361 0.55486 0.0
H192 H 0.49871 0.03765 0.53697 0.0
H193 H 0.48864 0.01481 0.54999 0.0
H194 H 0.49825 0.04198 0.55804 0.0
H195 H 0.58154 0.02689 0.53007 0.0
H196 H 0.55364 0.00494 0.52547 0.0
H197 H 0.56444 0.03058 0.5156 0.0
H198 H 0.5609 0.14717 0.47214 0.0
H199 H 0.5297 0.11732 0.46294 0.0
H200 H 0.58238 0.10776 0.44612 0.0
H201 H 0.49904 0.06826 0.48165 0.0
H202 H 0.49528 0.08821 0.47088 0.0
H203 H 0.4875 0.06182 0.46198 0.0
H204 H 0.57943 0.07285 0.44496 0.0
H205 H 0.56296 0.05519 0.46069 0.0
H206 H 0.55135 0.05076 0.44108 0.0
H207 H 0.43569 0.92099 0.42066 0.0
H208 H 0.39808 0.89042 0.4138 0.0
H209 H 0.39685 0.91104 0.42586 0.0
H210 H 0.39081 0.90935 0.40491 0.0
H211 H 0.42437 0.975 0.42525 0.0
H212 H 0.47096 0.95279 0.41773 0.0
H213 H 0.44916 0.00649 0.45932 0.0
H214 H 0.46089 0.0254 0.44346 0.0
H215 H 0.43186 0.00446 0.44254 0.0
H216 H 0.50803 0.97264 0.42781 0.0
H217 H 0.51803 0.99962 0.43653 0.0
H218 H 0.50483 0.97579 0.44862 0.0
H219 H 0.50347 0.9854 0.53966 0.0
H220 H 0.54296 0.05599 0.51538 0.0
H221 H 0.54313 0.06967 0.48946 0.0
H222 H 0.50454 0.03768 0.44011 0.0
H223 H 0.46469 0.96726 0.46477 0.0
H224 H 0.46437 0.95376 0.49063 0.0
H225 H 0.61063 0.16629 0.4651 0.0
H226 H 0.59915 0.1736 0.48167 0.0
H227 H 0.59462 0.14613 0.47966 0.0
C228 C 0.59124 0.47089 0.71851 0.0
C229 C 0.58255 0.45451 0.7045 0.0
C230 C 0.55232 0.46043 0.69485 0.0
C231 C 0.56588 0.48069 0.68764 0.0
C232 C 0.55684 0.49339 0.68214 0.0
C233 C 0.53386 0.48574 0.68397 0.0
C234 C 0.52007 0.46509 0.69081 0.0
C235 C 0.52949 0.45261 0.69601 0.0
C236 C 0.57193 0.51521 0.67468 0.0
C237 C 0.49551 0.45649 0.69299 0.0
C238 C 0.56943 0.59849 0.76066 0.0
C239 C 0.54574 0.58351 0.75425 0.0
C240 C 0.53601 0.57636 0.72635 0.0
C241 C 0.51713 0.5554 0.72716 0.0
C242 C 0.51051 0.54072 0.71421 0.0
C243 C 0.52329 0.54705 0.7003 0.0
C244 C 0.54177 0.56858 0.69924 0.0
C245 C 0.54759 0.58314 0.71223 0.0
C246 C 0.49039 0.51812 0.71565 0.0
C247 C 0.5561 0.57584 0.68476 0.0
C248 C 0.45458 0.57037 0.61945 0.0
C249 C 0.4404 0.54982 0.626 0.0
C250 C 0.44773 0.53474 0.62851 0.0
C251 C 0.46964 0.54035 0.62434 0.0
C252 C 0.48356 0.56062 0.61702 0.0
C253 C 0.47573 0.5753 0.61452 0.0
C254 C 0.43224 0.51299 0.63591 0.0
C255 C 0.50692 0.567 0.61226 0.0
C256 C 0.47969 0.39668 0.5847 0.0
C257 C 0.49341 0.42135 0.58181 0.0
C258 C 0.48018 0.44659 0.58752 0.0
C259 C 0.46091 0.44415 0.59446 0.0
C260 C 0.46185 0.46045 0.6047 0.0
C261 C 0.4825 0.4799 0.60755 0.0
C262 C 0.50166 0.4832 0.59938 0.0
C263 C 0.50036 0.4663 0.58965 0.0
C264 C 0.44101 0.45645 0.613 0.0
C265 C 0.52372 0.50417 0.60141 0.0
C266 C 0.52462 0.50007 0.67976 0.0
C267 C 0.52701 0.51589 0.69091 0.0
C268 C 0.51918 0.53033 0.68785 0.0
C269 C 0.50851 0.52898 0.67319 0.0
C270 C 0.50012 0.54301 0.66975 0.0
C271 C 0.49022 0.54191 0.65511 0.0
C272 C 0.48817 0.52662 0.64338 0.0
C273 C 0.47838 0.52555 0.62838 0.0
C274 C 0.47684 0.51031 0.61694 0.0
C275 C 0.48454 0.49575 0.62013 0.0
C276 C 0.49406 0.49636 0.63516 0.0
C277 C 0.50156 0.48166 0.63891 0.0
C278 C 0.51161 0.48285 0.65349 0.0
C279 C 0.5142 0.49854 0.66499 0.0
C280 C 0.50623 0.51315 0.66166 0.0
C281 C 0.49612 0.51203 0.64673 0.0
C282 C 0.45042 0.61364 0.63489 0.0
C283 C 0.43606 0.59022 0.62836 0.0
O284 O 0.56049 0.44805 0.70105 0.0
O285 O 0.47909 0.42945 0.57926 0.0
O286 O 0.44839 0.58575 0.61768 0.0
O287 O 0.54385 0.59004 0.73917 0.0
H288 H 0.59289 0.46223 0.69397 0.0
H289 H 0.59092 0.48605 0.71555 0.0
H290 H 0.58081 0.46354 0.72906 0.0
H291 H 0.60875 0.47563 0.7215 0.0
H292 H 0.58352 0.48685 0.68638 0.0
H293 H 0.51914 0.43689 0.70147 0.0
H294 H 0.57333 0.52866 0.68247 0.0
H295 H 0.58892 0.51787 0.67271 0.0
H296 H 0.56471 0.51628 0.66317 0.0
H297 H 0.48709 0.44015 0.69861 0.0
H298 H 0.49313 0.46821 0.70045 0.0
H299 H 0.48734 0.45512 0.68134 0.0
H300 H 0.54335 0.56661 0.75383 0.0
H301 H 0.57125 0.59361 0.77279 0.0
H302 H 0.58152 0.59704 0.75294 0.0
H303 H 0.57358 0.61592 0.76095 0.0
H304 H 0.50781 0.55042 0.73801 0.0
H305 H 0.56201 0.59947 0.71173 0.0
H306 H 0.49596 0.50597 0.71731 0.0
H307 H 0.47998 0.51714 0.72585 0.0
H308 H 0.47998 0.51344 0.70466 0.0
H309 H 0.57072 0.59263 0.68625 0.0
H310 H 0.56217 0.56425 0.68209 0.0
H311 H 0.54608 0.57568 0.6744 0.0
H312 H 0.43151 0.57928 0.63874 0.0
H313 H 0.42362 0.54554 0.62917 0.0
H314 H 0.48638 0.59105 0.60921 0.0
H315 H 0.43905 0.51216 0.64765 0.0
H316 H 0.41522 0.51045 0.63747 0.0
H317 H 0.4311 0.49936 0.62844 0.0
H318 H 0.51557 0.58325 0.60652 0.0
H319 H 0.51678 0.56756 0.62286 0.0
H320 H 0.50644 0.55443 0.60395 0.0
H321 H 0.50367 0.4289 0.59278 0.0
H322 H 0.49086 0.38983 0.58676 0.0
H323 H 0.46936 0.39369 0.59534 0.0
H324 H 0.46844 0.38793 0.57444 0.0
H325 H 0.44535 0.42893 0.5925 0.0
H326 H 0.51513 0.46832 0.58386 0.0
H327 H 0.44393 0.45796 0.626 0.0
H328 H 0.43674 0.46908 0.60949 0.0
H329 H 0.42656 0.43997 0.61012 0.0
H330 H 0.53536 0.50614 0.59181 0.0
H331 H 0.52132 0.51864 0.60162 0.0
H332 H 0.53158 0.50394 0.61285 0.0
H333 H 0.53531 0.5171 0.70215 0.0
H334 H 0.50126 0.55508 0.67833 0.0
H335 H 0.48427 0.55329 0.65308 0.0
H336 H 0.46953 0.50976 0.60542 0.0
H337 H 0.4999 0.4691 0.6306 0.0
H338 H 0.51732 0.47131 0.65563 0.0
H339 H 0.44082 0.61766 0.64341 0.0
H340 H 0.46528 0.61516 0.64119 0.0
H341 H 0.4562 0.62571 0.6252 0.0
C342 C 0.13909 0.59587 0.88317 0.0
C343 C 0.14364 0.58302 0.8704 0.0
C344 C 0.10597 0.55276 0.86333 0.0
C345 C 0.09871 0.56557 0.85536 0.0
C346 C 0.07671 0.55619 0.84962 0.0
C347 C 0.06174 0.53358 0.85179 0.0
C348 C 0.06919 0.52051 0.85932 0.0
C349 C 0.09124 0.53032 0.86499 0.0
C350 C 0.06924 0.57055 0.84161 0.0
C351 C 0.05368 0.49631 0.86172 0.0
C352 C 0.98227 0.53395 0.93813 0.0
C353 C 0.96937 0.5142 0.9269 0.0
C354 C 0.96982 0.51818 0.89837 0.0
C355 C 0.96985 0.49891 0.89396 0.0
C356 C 0.97856 0.49734 0.87943 0.0
C357 C 0.9873 0.51539 0.86914 0.0
C358 C 0.98566 0.53413 0.87303 0.0
C359 C 0.97668 0.53518 0.88759 0.0
C360 C 0.97952 0.47688 0.87546 0.0
C361 C 0.99454 0.5535 0.8622 0.0
C362 C 0.89816 0.46426 0.78491 0.0
C363 C 0.90381 0.44926 0.79118 0.0
C364 C 0.92621 0.45514 0.79349 0.0
C365 C 0.94321 0.4765 0.78957 0.0
C366 C 0.93753 0.4912 0.78245 0.0
C367 C 0.915 0.48474 0.78004 0.0
C368 C 0.93171 0.4388 0.80057 0.0
C369 C 0.95523 0.51399 0.77796 0.0
C370 C 0.10028 0.48767 0.753 0.0
C371 C 0.08761 0.4995 0.74856 0.0
C372 C 0.04873 0.48549 0.75475 0.0
C373 C 0.03182 0.46658 0.76157 0.0
C374 C 0.01605 0.46759 0.77128 0.0
C375 C 0.01694 0.48795 0.77376 0.0
C376 C 0.03283 0.50674 0.76567 0.0
C377 C 0.04877 0.50537 0.75638 0.0
C378 C 0.99915 0.44714 0.7795 0.0
C379 C 0.03361 0.52848 0.76741 0.0
C380 C 0.03789 0.52406 0.84737 0.0
C381 C 0.02373 0.52406 0.85895 0.0
C382 C 0.00114 0.51595 0.85572 0.0
C383 C 0.99238 0.50811 0.84036 0.0
C384 C 0.96994 0.50066 0.83653 0.0
C385 C 0.96155 0.49303 0.82132 0.0
C386 C 0.9752 0.49212 0.80945 0.0
C387 C 0.96675 0.48405 0.79402 0.0
C388 C 0.98072 0.48313 0.78258 0.0
C389 C 0.00305 0.49009 0.78613 0.0
C390 C 0.01186 0.49844 0.80145 0.0
C391 C 0.03429 0.50566 0.80543 0.0
C392 C 0.04291 0.51424 0.8204 0.0
C393 C 0.02933 0.51544 0.83211 0.0
C394 C 0.00653 0.5077 0.82853 0.0
C395 C 0.99786 0.49945 0.81312 0.0
C396 C 0.84999 0.46179 0.7997 0.0
C397 C 0.86017 0.4479 0.79441 0.0
O398 O 0.12674 0.56126 0.86984 0.0
O399 O 0.0651 0.48422 0.74702 0.0
O400 O 0.87669 0.45958 0.78358 0.0
O401 O 0.96405 0.52114 0.91308 0.0
H402 H 0.14485 0.59064 0.85872 0.0
H403 H 0.12361 0.59619 0.88031 0.0
H404 H 0.13714 0.58822 0.8949 0.0
H405 H 0.15305 0.61312 0.88391 0.0
H406 H 0.10989 0.58293 0.85379 0.0
H407 H 0.09701 0.52053 0.87105 0.0
H408 H 0.05581 0.57073 0.84854 0.0
H409 H 0.08306 0.58772 0.84039 0.0
H410 H 0.06224 0.56371 0.82967 0.0
H411 H 0.06248 0.48807 0.86661 0.0
H412 H 0.04039 0.49405 0.86999 0.0
H413 H 0.04547 0.48816 0.85031 0.0
H414 H 0.98083 0.50773 0.9245 0.0
H415 H 0.98635 0.52867 0.94941 0.0
H416 H 0.99811 0.54608 0.93261 0.0
H417 H 0.97248 0.54216 0.94072 0.0
H418 H 0.96361 0.48534 0.90204 0.0
H419 H 0.97615 0.5498 0.891 0.0
H420 H 0.97289 0.471 0.86328 0.0
H421 H 0.99713 0.48074 0.87581 0.0
H422 H 0.9699 0.46345 0.88385 0.0
H423 H 0.99003 0.56587 0.86615 0.0
H424 H 0.01297 0.5615 0.86184 0.0
H425 H 0.98798 0.5479 0.84998 0.0
H426 H 0.86735 0.44485 0.80529 0.0
H427 H 0.89075 0.43304 0.79437 0.0
H428 H 0.91041 0.49603 0.77495 0.0
H429 H 0.93863 0.44433 0.81273 0.0
H430 H 0.91684 0.42212 0.80119 0.0
H431 H 0.94464 0.43786 0.79351 0.0
H432 H 0.94806 0.52344 0.77249 0.0
H433 H 0.96515 0.52313 0.78863 0.0
H434 H 0.96681 0.51296 0.76949 0.0
H435 H 0.09059 0.51131 0.75847 0.0
H436 H 0.1184 0.49962 0.75429 0.0
H437 H 0.09425 0.47933 0.76447 0.0
H438 H 0.0977 0.4751 0.74387 0.0
H439 H 0.03175 0.45124 0.75996 0.0
H440 H 0.06145 0.51985 0.7506 0.0
H441 H 0.00097 0.44994 0.79252 0.0
H442 H 0.98208 0.44334 0.77606 0.0
H443 H 0.00094 0.43268 0.77655 0.0
H444 H 0.04386 0.54016 0.75815 0.0
H445 H 0.01653 0.52611 0.76678 0.0
H446 H 0.04096 0.53594 0.77915 0.0
H447 H 0.03039 0.53035 0.87074 0.0
H448 H 0.95867 0.50084 0.84523 0.0
H449 H 0.94418 0.48771 0.81903 0.0
H450 H 0.97409 0.4768 0.7708 0.0
H451 H 0.04554 0.50493 0.79699 0.0
H452 H 0.06033 0.51976 0.82274 0.0
H453 H 0.83663 0.45272 0.80837 0.0
H454 H 0.86304 0.47724 0.80547 0.0
H455 H 0.84288 0.46609 0.78943 0.0
C456 C 0.43785 0.87768 0.9257 0.0
C457 C 0.44525 0.87053 0.94058 0.0
C458 C 0.47296 0.90693 0.95121 0.0
C459 C 0.45772 0.91274 0.95721 0.0
C460 C 0.46482 0.93436 0.9622 0.0
C461 C 0.48757 0.95053 0.96112 0.0
C462 C 0.50308 0.94459 0.95564 0.0
C463 C 0.49556 0.92277 0.9509 0.0
C464 C 0.4479 0.9401 0.9682 0.0
C465 C 0.52745 0.96145 0.95435 0.0
C466 C 0.47274 0.02034 0.87128 0.0
C467 C 0.4923 0.03469 0.88251 0.0
C468 C 0.48876 0.03336 0.91115 0.0
C469 C 0.50968 0.03602 0.91514 0.0
C470 C 0.51327 0.02887 0.92972 0.0
C471 C 0.49559 0.019 0.9405 0.0
C472 C 0.47498 0.01771 0.93695 0.0
C473 C 0.47192 0.02516 0.92233 0.0
C474 C 0.53563 0.03101 0.93332 0.0
C475 C 0.45588 0.0075 0.94828 0.0
C476 C 0.54081 0.11409 0.02188 0.0
C477 C 0.5573 0.11003 0.01599 0.0
C478 C 0.55327 0.08847 0.01426 0.0
C479 C 0.53228 0.07066 0.01837 0.0
C480 C 0.516 0.07479 0.02493 0.0
C481 C 0.52062 0.09652 0.02676 0.0
C482 C 0.57126 0.08468 0.00771 0.0
C483 C 0.49352 0.05621 0.02955 0.0
C484 C 0.54989 0.93647 0.06607 0.0
C485 C 0.53152 0.94235 0.06744 0.0
C486 C 0.5372 0.97785 0.05989 0.0
C487 C 0.5551 0.99577 0.0529 0.0
C488 C 0.55151 0.00833 0.04174 0.0
C489 C 0.52944 0.00322 0.03801 0.0
C490 C 0.51136 0.98614 0.04609 0.0
C491 C 0.51543 0.97333 0.05675 0.0
C492 C 0.57125 0.02653 0.03353 0.0
C493 C 0.4877 0.98095 0.04312 0.0
C494 C 0.49467 0.97389 0.96445 0.0
C495 C 0.49259 0.98583 0.95215 0.0
C496 C 0.49779 0.00758 0.95444 0.0
C497 C 0.50502 0.01777 0.96951 0.0
C498 C 0.5098 0.03942 0.97234 0.0
C499 C 0.51677 0.04921 0.98727 0.0
C500 C 0.51957 0.03784 -0.00013 0.0
C501 C 0.52694 0.04775 0.01504 0.0
C502 C 0.52957 0.03598 0.02728 0.0
C503 C 0.52524 0.0145 0.02478 0.0
C504 C 0.51783 0.0043 0.00968 0.0
C505 C 0.51343 0.98275 0.00669 0.0
C506 C 0.50561 0.97266 0.99195 0.0
C507 C 0.50254 0.98395 0.97948 0.0
C508 C 0.5075 0.00591 0.98206 0.0
C509 C 0.51492 0.01601 0.99723 0.0
C510 C 0.5437 0.16337 0.00843 0.0
C511 C 0.55664 0.15184 0.013 0.0
O512 O 0.46658 0.88651 0.9453 0.0
O513 O 0.54129 0.96491 0.06945 0.0
O514 O 0.54372 0.13464 0.02291 0.0
O515 O 0.48413 0.038 0.89654 0.0
H516 H 0.43345 0.86769 0.95028 0.0
H517 H 0.43706 0.89279 0.92816 0.0
H518 H 0.44974 0.88103 0.91598 0.0
H519 H 0.42098 0.86464 0.92172 0.0
H520 H 0.44023 0.90065 0.95785 0.0
H521 H 0.50723 0.91813 0.9464 0.0
H522 H 0.44623 0.95116 0.95973 0.0
H523 H 0.43123 0.92534 0.96969 0.0
H524 H 0.45361 0.94904 0.97973 0.0
H525 H 0.53749 0.9541 0.95025 0.0
H526 H 0.52946 0.9743 0.94593 0.0
H527 H 0.53413 0.96966 0.96602 0.0
H528 H 0.50108 0.02528 0.88454 0.0
H529 H 0.47894 0.01784 0.85983 0.0
H530 H 0.46212 0.00403 0.8766 0.0
H531 H 0.46227 0.02794 0.86906 0.0
H532 H 0.52309 0.04328 0.90676 0.0
H533 H 0.45597 0.02358 0.91923 0.0
H534 H 0.53387 0.01443 0.93344 0.0
H535 H 0.5483 0.04104 0.92448 0.0
H536 H 0.54171 0.0386 0.94524 0.0
H537 H 0.44146 0.0091 0.94426 0.0
H538 H 0.45032 0.98979 0.94947 0.0
H539 H 0.46145 0.01533 0.96017 0.0
H540 H 0.55966 0.14545 0.00173 0.0
H541 H 0.57329 0.12364 0.01272 0.0
H542 H 0.50814 0.09988 0.03151 0.0
H543 H 0.56604 0.07676 0.99582 0.0
H544 H 0.58739 0.10021 0.00666 0.0
H545 H 0.57376 0.07337 0.01542 0.0
H546 H 0.48257 0.06216 0.0343 0.0
H547 H 0.48511 0.04534 0.01911 0.0
H548 H 0.49569 0.04615 0.03866 0.0
H549 H 0.52154 0.93687 0.05618 0.0
H550 H 0.54255 0.91851 0.06408 0.0
H551 H 0.56061 0.94508 0.0559 0.0
H552 H 0.56044 0.9415 0.07701 0.0
H553 H 0.57187 0.99923 0.05566 0.0
H554 H 0.50168 0.95972 0.06257 0.0
H555 H 0.56886 0.02424 0.0205 0.0
H556 H 0.57265 0.04253 0.03667 0.0
H557 H 0.58714 0.02725 0.03688 0.0
H558 H 0.47648 0.97089 0.05268 0.0
H559 H 0.48692 0.99628 0.04212 0.0
H560 H 0.48139 0.97158 0.03181 0.0
H561 H 0.48671 0.97802 0.9406 0.0
H562 H 0.50805 0.04896 0.96306 0.0
H563 H 0.52003 0.06587 0.98878 0.0
H564 H 0.5353 0.04373 0.03886 0.0
H565 H 0.5158 0.9733 0.01572 0.0
H566 H 0.5022 0.95596 0.99039 0.0
H567 H 0.55371 0.17722 0.00044 0.0
H568 H 0.52798 0.15159 0.00212 0.0
H569 H 0.53944 0.16977 0.01911 0.0
C570 C 0.54914 0.43109 0.09096 0.0
C571 C 0.56232 0.43346 0.10628 0.0
C572 C 0.56116 0.46466 0.11894 0.0
C573 C 0.53844 0.45332 0.12267 0.0
C574 C 0.52796 0.46471 0.12823 0.0
C575 C 0.54053 0.48778 0.13034 0.0
C576 C 0.56361 0.49907 0.12729 0.0
C577 C 0.57361 0.48732 0.12163 0.0
C578 C 0.50333 0.45217 0.13149 0.0
C579 C 0.57757 0.52363 0.12965 0.0
C580 C 0.4885 0.58071 0.05459 0.0
C581 C 0.50053 0.577 0.06774 0.0
C582 C 0.49549 0.54765 0.08546 0.0
C583 C 0.51443 0.56088 0.09497 0.0
C584 C 0.51976 0.55212 0.10801 0.0
C585 C 0.50566 0.52981 0.11178 0.0
C586 C 0.4865 0.51651 0.10231 0.0
C587 C 0.48175 0.52562 0.08921 0.0
C588 C 0.54055 0.56667 0.1177 0.0
C589 C 0.47108 0.49269 0.10604 0.0
C590 C 0.4579 0.56744 0.1972 0.0
C591 C 0.4808 0.57929 0.19431 0.0
C592 C 0.49294 0.56842 0.19217 0.0
C593 C 0.48179 0.5452 0.19269 0.0
C594 C 0.45884 0.53331 0.19625 0.0
C595 C 0.44724 0.54468 0.19869 0.0
C596 C 0.51756 0.58171 0.18902 0.0
C597 C 0.44645 0.50859 0.19704 0.0
C598 C 0.56104 0.46228 0.23294 0.0
C599 C 0.54397 0.46092 0.24491 0.0
C600 C 0.53578 0.48866 0.23497 0.0
C601 C 0.54787 0.51092 0.23136 0.0
C602 C 0.54034 0.51967 0.21957 0.0
C603 C 0.51991 0.50584 0.21156 0.0
C604 C 0.50693 0.48358 0.21585 0.0
C605 C 0.51507 0.47518 0.22746 0.0
C606 C 0.55451 0.54351 0.21535 0.0
C607 C 0.48468 0.46859 0.20793 0.0
C608 C 0.52925 0.50025 0.13467 0.0
C609 C 0.52242 0.50874 0.12237 0.0
C610 C 0.51131 0.52031 0.12541 0.0
C611 C 0.50643 0.52322 0.14113 0.0
C612 C 0.49445 0.53397 0.14455 0.0
C613 C 0.49008 0.53709 0.16009 0.0
C614 C 0.49773 0.52977 0.17283 0.0
C615 C 0.49383 0.53332 0.1887 0.0
C616 C 0.50136 0.5255 0.20105 0.0
C617 C 0.51279 0.5142 0.19799 0.0
C618 C 0.51709 0.51073 0.18222 0.0
C619 C 0.52878 0.49966 0.17875 0.0
C620 C 0.53272 0.49612 0.1632 0.0
C621 C 0.52531 0.5037 0.15052 0.0
C622 C 0.51373 0.51513 0.15375 0.0
C623 C 0.50951 0.51855 0.16961 0.0
C624 C 0.42433 0.5789 0.1769 0.0
C625 C 0.44522 0.5916 0.18735 0.0
O626 O 0.57173 0.45463 0.11249 0.0
O627 O 0.54449 0.48087 0.24585 0.0
O628 O 0.44579 0.57764 0.19857 0.0
O629 O 0.48992 0.5554 0.0726 0.0
H630 H 0.55106 0.42157 0.1151 0.0
H631 H 0.53483 0.43356 0.09329 0.0
H632 H 0.55997 0.44337 0.0822 0.0
H633 H 0.54244 0.41435 0.08573 0.0
H634 H 0.52868 0.4357 0.12105 0.0
H635 H 0.59119 0.49588 0.11891 0.0
H636 H 0.49454 0.45829 0.12386 0.0
H637 H 0.49588 0.43423 0.12932 0.0
H638 H 0.50046 0.45498 0.14398 0.0
H639 H 0.5956 0.5297 0.12807 0.0
H640 H 0.57215 0.53188 0.12102 0.0
H641 H 0.57507 0.5284 0.14169 0.0
H642 H 0.51876 0.58405 0.06597 0.0
H643 H 0.50016 0.58565 0.04432 0.0
H644 H 0.47635 0.56407 0.04935 0.0
H645 H 0.47841 0.60163 0.06468 0.0
H646 H 0.52521 0.57799 0.09223 0.0
H647 H 0.46717 0.51556 0.08181 0.0
H648 H 0.53588 0.56882 0.12983 0.0
H649 H 0.55098 0.55883 0.11876 0.0
H650 H 0.55069 0.58314 0.11248 0.0
H651 H 0.45592 0.48506 0.09832 0.0
H652 H 0.48001 0.48339 0.10447 0.0
H653 H 0.46596 0.49114 0.11858 0.0
H654 H 0.45987 0.59773 0.17949 0.0
H655 H 0.48914 0.59702 0.19372 0.0
H656 H 0.4296 0.53577 0.20118 0.0
H657 H 0.52056 0.57934 0.17648 0.0
H658 H 0.52432 0.59953 0.19131 0.0
H659 H 0.52688 0.57603 0.19651 0.0
H660 H 0.42839 0.50172 0.19913 0.0
H661 H 0.44847 0.50145 0.18582 0.0
H662 H 0.4536 0.5034 0.20674 0.0
H663 H 0.52721 0.44762 0.24102 0.0
H664 H 0.56099 0.44648 0.23228 0.0
H665 H 0.55677 0.46568 0.221 0.0
H666 H 0.57804 0.47565 0.23634 0.0
H667 H 0.56366 0.52126 0.23743 0.0
H668 H 0.50506 0.45817 0.2307 0.0
H669 H 0.55894 0.54478 0.20267 0.0
H670 H 0.5449 0.55209 0.21707 0.0
H671 H 0.57009 0.55205 0.22261 0.0
H672 H 0.47549 0.45249 0.21382 0.0
H673 H 0.47423 0.47646 0.20794 0.0
H674 H 0.48726 0.46564 0.19541 0.0
H675 H 0.52591 0.50641 0.11024 0.0
H676 H 0.48827 0.54007 0.13524 0.0
H677 H 0.48071 0.54541 0.16197 0.0
H678 H 0.49822 0.52816 0.21319 0.0
H679 H 0.53502 0.49356 0.18802 0.0
H680 H 0.54176 0.48746 0.16123 0.0
H681 H 0.40906 0.57214 0.18411 0.0
H682 H 0.42359 0.58979 0.16778 0.0
H683 H 0.42472 0.56505 0.17077 0.0
Zn684 Zn 0.6537 0.45327 0.42114 0.0
Zn685 Zn 0.63169 0.40869 0.42082 0.0
O686 O 0.66454 0.41785 0.41815 0.0
O687 O 0.68318 0.45396 0.41872 0.0
O688 O 0.61734 0.37591 0.42279 0.0
O689 O 0.64122 0.4536 0.44269 0.0
O690 O 0.62257 0.41751 0.44142 0.0
C691 C 0.68292 0.43588 0.41741 0.0
C692 C 0.62131 0.43186 0.39499 0.0
O693 O 0.61794 0.41397 0.40105 0.0
O694 O 0.63524 0.45015 0.40137 0.0
C695 C 0.61596 0.36307 0.4116 0.0
O696 O 0.62322 0.37113 0.39756 0.0
C697 C 0.62741 0.43539 0.44861 0.0
Zn698 Zn 0.1945 0.6407 0.57851 0.0
Zn699 Zn 0.2178 0.61923 0.577 0.0
O700 O 0.24136 0.65184 0.57526 0.0
O701 O 0.22312 0.6699 0.5768 0.0
O702 O 0.23672 0.60493 0.57823 0.0
O703 O 0.1825 0.62772 0.59984 0.0
O704 O 0.20061 0.60958 0.5978 0.0
C705 C 0.24128 0.66991 0.57529 0.0
C706 C 0.18309 0.61023 0.55148 0.0
O707 O 0.19818 0.60673 0.55701 0.0
O708 O 0.17856 0.62348 0.55854 0.0
C709 C 0.25341 0.61054 0.56943 0.0
O710 O 0.25756 0.62496 0.55834 0.0
C711 C 0.18761 0.61414 0.60539 0.0
Zn712 Zn 0.56691 0.21169 0.74328 0.0
Zn713 Zn 0.61178 0.23165 0.74571 0.0
O714 O 0.60472 0.25656 0.7428 0.0
O715 O 0.56824 0.24077 0.74074 0.0
O716 O 0.64514 0.2487 0.74863 0.0
O717 O 0.56475 0.19952 0.76511 0.0
O718 O 0.60123 0.21425 0.76629 0.0
C719 C 0.58722 0.25796 0.74095 0.0
C720 C 0.58766 0.19857 0.71889 0.0
O721 O 0.60582 0.21225 0.72593 0.0
O722 O 0.56918 0.19542 0.72404 0.0
C723 C 0.65707 0.2637 0.73903 0.0
O724 O 0.64748 0.26679 0.72662 0.0
C725 C 0.58217 0.20266 0.77241 0.0
Zn726 Zn 0.37929 0.56864 0.90534 0.0
Zn727 Zn 0.40056 0.61365 0.90514 0.0
O728 O 0.36757 0.60377 0.90247 0.0
O729 O 0.34964 0.56765 0.90216 0.0
O730 O 0.41489 0.64658 0.90627 0.0
O731 O 0.3917 0.57072 0.92764 0.0
O732 O 0.40938 0.60679 0.92648 0.0
C733 C 0.34942 0.58552 0.90139 0.0
C734 C 0.41148 0.58913 0.88009 0.0
O735 O 0.41415 0.60701 0.88605 0.0
O736 O 0.39798 0.57091 0.8862 0.0
C737 C 0.40792 0.65665 0.89765 0.0
O738 O 0.39201 0.64545 0.88711 0.0
C739 C 0.40458 0.58938 0.93393 0.0
Zn740 Zn 0.79991 0.43313 0.06941 0.0
Zn741 Zn 0.77977 0.38904 0.06815 0.0
O742 O 0.75458 0.39625 0.07103 0.0
O743 O 0.77077 0.43225 0.07239 0.0
O744 O 0.76218 0.35608 0.06568 0.0
O745 O 0.81123 0.43439 0.0474 0.0
O746 O 0.79675 0.39849 0.04719 0.0
C747 C 0.75328 0.41361 0.0726 0.0
C748 C 0.8143 0.4141 0.09415 0.0
O749 O 0.80011 0.39577 0.08776 0.0
O750 O 0.81727 0.43193 0.08841 0.0
C751 C 0.74604 0.34464 0.07473 0.0
O752 O 0.74224 0.35439 0.08665 0.0
C753 C 0.80797 0.41694 0.04051 0.0
Zn754 Zn 0.38117 0.82449 0.2315 0.0
Zn755 Zn 0.40264 0.80144 0.23331 0.0
O756 O 0.36965 0.77855 0.23613 0.0
O757 O 0.35157 0.79677 0.23478 0.0
O758 O 0.41701 0.7826 0.2325 0.0
O759 O 0.3929 0.83478 0.20972 0.0
O760 O 0.41135 0.81697 0.21183 0.0
C761 C 0.35147 0.77888 0.23663 0.0
C762 C 0.41341 0.83756 0.25766 0.0
O763 O 0.41626 0.82194 0.25278 0.0
O764 O 0.39997 0.84187 0.25046 0.0
C765 C 0.41096 0.76617 0.24138 0.0
O766 O 0.39604 0.76223 0.25223 0.0
C767 C 0.40631 0.82935 0.20404 0.0
H768 H 0.15332 0.6197 0.25842 0.0
H769 H 0.18861 0.65271 0.25223 0.0
H770 H 0.22419 0.63042 0.28168 0.0
H771 H 0.18895 0.59736 0.28796 0.0
H772 H 0.22997 0.68218 0.28232 0.0
H773 H 0.24392 0.64502 0.22817 0.0
H774 H 0.21607 0.63849 0.23331 0.0
H775 H 0.2306 0.62866 0.24526 0.0
C776 C 0.16863 0.62202 0.26377 0.0
C777 C 0.16836 0.60619 0.27394 0.0
C778 C 0.18871 0.64078 0.26018 0.0
C779 C 0.20884 0.6439 0.26657 0.0
C780 C 0.20872 0.62826 0.27675 0.0
H781 H 0.34545 0.73815 0.24286 0.0
H782 H 0.31102 0.7054 0.25051 0.0
C783 C 0.18864 0.60949 0.28035 0.0
C784 C 0.2301 0.66326 0.26223 0.0
H785 H 0.27021 0.68194 0.23417 0.0
C786 C 0.23884 0.68221 0.27182 0.0
C787 C 0.24157 0.663 0.24862 0.0
C788 C 0.23272 0.64275 0.23816 0.0
C789 C 0.25885 0.70115 0.26804 0.0
C790 C 0.2701 0.70111 0.25416 0.0
C791 C 0.26148 0.68196 0.24473 0.0
C792 C 0.2908 0.72084 0.2492 0.0
C793 C 0.26794 0.7209 0.27903 0.0
C794 C 0.2907 0.7402 0.24559 0.0
C795 C 0.31031 0.75894 0.24121 0.0
C796 C 0.3304 0.75862 0.24026 0.0
C797 C 0.3303 0.73898 0.24349 0.0
C798 C 0.31065 0.72025 0.24788 0.0
H799 H 0.26072 0.7164 0.291 0.0
H800 H 0.28637 0.72904 0.28017 0.0
H801 H 0.26365 0.73293 0.27418 0.0
H802 H 0.27543 0.74084 0.2462 0.0
H803 H 0.30976 0.77373 0.23873 0.0
H804 H 0.59949 0.17467 0.43755 0.0
H805 H 0.60439 0.20847 0.42567 0.0
H806 H 0.5582 0.20985 0.45877 0.0
H807 H 0.55329 0.17617 0.47071 0.0
H808 H 0.55345 0.21984 0.42514 0.0
H809 H 0.63904 0.26844 0.45123 0.0
H810 H 0.63281 0.24409 0.44001 0.0
H811 H 0.619 0.24167 0.45832 0.0
C812 C 0.59017 0.18205 0.44213 0.0
C813 C 0.57597 0.17278 0.45502 0.0
C814 C 0.59302 0.20133 0.43537 0.0
C815 C 0.58173 0.21164 0.44142 0.0
C816 C 0.56699 0.20206 0.45392 0.0
H817 H 0.60494 0.34281 0.44012 0.0
H818 H 0.59542 0.30521 0.44594 0.0
C819 C 0.56422 0.18286 0.46073 0.0
C820 C 0.58631 0.23318 0.43546 0.0
H821 H 0.62583 0.28756 0.43609 0.0
C822 C 0.56932 0.23464 0.42738 0.0
C823 C 0.60697 0.25242 0.43858 0.0
C824 C 0.62552 0.25177 0.44759 0.0
C825 C 0.57248 0.25499 0.4224 0.0
C826 C 0.59307 0.2742 0.42564 0.0
C827 C 0.6101 0.2727 0.43358 0.0
C828 C 0.59701 0.29626 0.42166 0.0
C829 C 0.55368 0.25601 0.41409 0.0
C830 C 0.60086 0.30354 0.40603 0.0
C831 C 0.60646 0.32513 0.40264 0.0
C832 C 0.60824 0.33971 0.41484 0.0
C833 C 0.60372 0.33205 0.43043 0.0
C834 C 0.59829 0.31058 0.4338 0.0
H835 H 0.53803 0.23986 0.41376 0.0
H836 H 0.5505 0.26826 0.4201 0.0
H837 H 0.55848 0.26143 0.40176 0.0
H838 H 0.6001 0.29271 0.39654 0.0
H839 H 0.60982 0.3305 0.39052 0.0
H840 H 0.43212 0.6069 0.59998 0.0
H841 H 0.39896 0.60601 0.58865 0.0
H842 H 0.36 0.56678 0.62745 0.0
H843 H 0.39318 0.56804 0.63899 0.0
H844 H 0.35659 0.57166 0.57922 0.0
H845 H 0.35158 0.62018 0.62965 0.0
H846 H 0.37567 0.61728 0.62642 0.0
H847 H 0.35122 0.59547 0.63525 0.0
C848 C 0.41641 0.59791 0.60598 0.0
C849 C 0.41521 0.58759 0.62038 0.0
C850 C 0.39751 0.5974 0.59951 0.0
C851 C 0.37712 0.58663 0.60735 0.0
C852 C 0.37567 0.57553 0.62137 0.0
H853 H 0.25103 0.5827 0.59266 0.0
H854 H 0.27986 0.57432 0.60074 0.0
C855 C 0.39458 0.57614 0.62789 0.0
C856 C 0.35767 0.58787 0.60124 0.0
H857 H 0.32238 0.60676 0.61061 0.0
C858 C 0.34907 0.57931 0.58607 0.0
C859 C 0.34798 0.59795 0.61018 0.0
C860 C 0.35717 0.60843 0.62622 0.0
C861 C 0.33083 0.58036 0.57967 0.0
C862 C 0.32119 0.59046 0.58863 0.0
C863 C 0.32972 0.59888 0.60382 0.0
C864 C 0.30271 0.59324 0.58238 0.0
C865 C 0.32188 0.57044 0.56349 0.0
C866 C 0.30589 0.60644 0.56924 0.0
C867 C 0.28943 0.61129 0.56457 0.0
C868 C 0.26956 0.60315 0.57305 0.0
C869 C 0.26613 0.58927 0.58587 0.0
C870 C 0.28259 0.58446 0.59052 0.0
H871 H 0.32705 0.55838 0.56004 0.0
H872 H 0.3034 0.56215 0.56303 0.0
H873 H 0.32846 0.58367 0.55465 0.0
H874 H 0.32146 0.61373 0.56297 0.0
H875 H 0.29266 0.62207 0.55468 0.0
H876 H 0.83891 0.44052 0.76545 0.0
H877 H 0.80705 0.40632 0.75521 0.0
H878 H 0.80955 0.37271 0.79686 0.0
H879 H 0.84108 0.40694 0.80727 0.0
H880 H 0.80041 0.36374 0.74886 0.0
H881 H 0.74645 0.3638 0.79702 0.0
H882 H 0.77319 0.38738 0.79298 0.0
H883 H 0.77158 0.36467 0.80361 0.0
C884 C 0.8328 0.42575 0.7723 0.0
C885 C 0.84241 0.42635 0.78716 0.0
C886 C 0.81465 0.40625 0.76646 0.0
C887 C 0.80576 0.38709 0.7754 0.0
C888 C 0.81594 0.38742 0.78991 0.0
H889 H 0.6817 0.2628 0.76421 0.0
H890 H 0.7194 0.29101 0.77227 0.0
C891 C 0.834 0.40692 0.79579 0.0
C892 C 0.78513 0.36714 0.76993 0.0
H893 H 0.73065 0.33356 0.77927 0.0
C894 C 0.78515 0.35707 0.75551 0.0
C895 C 0.76526 0.35853 0.77863 0.0
C896 C 0.76395 0.36922 0.79385 0.0
C897 C 0.7658 0.33851 0.74959 0.0
C898 C 0.74589 0.33007 0.75822 0.0
C899 C 0.74598 0.33998 0.77273 0.0
C900 C 0.7244 0.31166 0.75218 0.0
C901 C 0.76688 0.32801 0.73423 0.0
C902 C 0.71481 0.31378 0.73809 0.0
C903 C 0.69327 0.29767 0.73344 0.0
C904 C 0.68083 0.27924 0.74287 0.0
C905 C 0.6908 0.2768 0.75668 0.0
C906 C 0.71235 0.2929 0.76131 0.0
H907 H 0.78421 0.33215 0.7316 0.0
H908 H 0.75619 0.30987 0.73449 0.0
H909 H 0.76086 0.33417 0.72443 0.0
H910 H 0.7236 0.32833 0.73103 0.0
H911 H 0.68608 0.30011 0.72276 0.0
H912 H 0.47801 0.86387 0.92769 0.0
H913 H 0.47552 0.82887 0.92053 0.0
H914 H 0.40798 0.79408 0.93707 0.0
H915 H 0.41065 0.82897 0.94472 0.0
H916 H 0.43164 0.77498 0.94663 0.0
H917 H 0.44206 0.79125 0.88228 0.0
H918 H 0.46459 0.81141 0.8944 0.0
H919 H 0.43729 0.80827 0.89596 0.0
C920 C 0.46277 0.84873 0.93003 0.0
C921 C 0.44466 0.8491 0.93708 0.0
C922 C 0.46127 0.82877 0.92575 0.0
C923 C 0.44146 0.80889 0.92808 0.0
C924 C 0.42344 0.80923 0.93519 0.0
H925 H 0.39122 0.68125 0.8852 0.0
H926 H 0.40143 0.71885 0.89252 0.0
C927 C 0.42499 0.82913 0.93959 0.0
C928 C 0.43927 0.78762 0.92306 0.0
H929 H 0.43994 0.75836 0.89079 0.0
C930 C 0.43354 0.77136 0.93443 0.0
C931 C 0.44149 0.78287 0.90709 0.0
C932 C 0.44649 0.79927 0.89418 0.0
C933 C 0.42973 0.75038 0.93028 0.0
C934 C 0.43229 0.74573 0.91436 0.0
C935 C 0.43822 0.76206 0.903 0.0
C936 C 0.42752 0.7236 0.90911 0.0
C937 C 0.42217 0.73317 0.94287 0.0
C938 C 0.43925 0.71402 0.91565 0.0
C939 C 0.43333 0.69244 0.91158 0.0
C940 C 0.41576 0.68017 0.90073 0.0
C941 C 0.40479 0.69021 0.89362 0.0
C942 C 0.41061 0.71172 0.89779 0.0
H943 H 0.41572 0.7377 0.95337 0.0
H944 H 0.40893 0.71698 0.93821 0.0
H945 H 0.43651 0.73144 0.94684 0.0
H946 H 0.45272 0.7231 0.92412 0.0
H947 H 0.44226 0.68526 0.91716 0.0
H948 H 0.60311 0.46072 0.09336 0.0
H949 H 0.63238 0.45247 0.08672 0.0
H950 H 0.59183 0.38648 0.10339 0.0
H951 H 0.56255 0.39485 0.11043 0.0
H952 H 0.63549 0.40595 0.11412 0.0
H953 H 0.63257 0.41579 0.04947 0.0
H954 H 0.63616 0.43941 0.06032 0.0
H955 H 0.61091 0.41346 0.06235 0.0
C956 C 0.60051 0.44451 0.09574 0.0
C957 C 0.58072 0.42853 0.10268 0.0
C958 C 0.61712 0.43973 0.09176 0.0
C959 C 0.61411 0.41875 0.09432 0.0
C960 C 0.59441 0.40274 0.10127 0.0
H961 H 0.71292 0.37681 0.07789 0.0
H962 H 0.67724 0.37509 0.08275 0.0
C963 C 0.57778 0.40755 0.10532 0.0
C964 C 0.63193 0.41393 0.09015 0.0
H965 H 0.66567 0.41718 0.05993 0.0
C966 C 0.64185 0.40801 0.10222 0.0
C967 C 0.64008 0.41647 0.07458 0.0
C968 C 0.62921 0.4214 0.06091 0.0
C969 C 0.66055 0.4058 0.09931 0.0
C970 C 0.66935 0.40948 0.08394 0.0
C971 C 0.65889 0.41449 0.07173 0.0
C972 C 0.69049 0.41005 0.08059 0.0
C973 C 0.67144 0.40059 0.11281 0.0
C974 C 0.70952 0.43021 0.07754 0.0
C975 C 0.72984 0.43128 0.07482 0.0
C976 C 0.73147 0.41215 0.07497 0.0
C977 C 0.71222 0.39185 0.07772 0.0
C978 C 0.69187 0.39083 0.08055 0.0
H979 H 0.66403 0.40065 0.12439 0.0
H980 H 0.66949 0.38411 0.11077 0.0
H981 H 0.68957 0.41268 0.11341 0.0
H982 H 0.70871 0.4452 0.07749 0.0
H983 H 0.74429 0.44716 0.07266 0.0
H984 H 0.43091 0.83284 0.53449 0.0
H985 H 0.39759 0.79765 0.54025 0.0
H986 H 0.36558 0.8321 0.55863 0.0
H987 H 0.39884 0.86727 0.55311 0.0
H988 H 0.37664 0.78499 0.57208 0.0
H989 H 0.32081 0.78575 0.52467 0.0
H990 H 0.35082 0.80164 0.52365 0.0
H991 H 0.3362 0.81058 0.53633 0.0
C992 C 0.41663 0.83286 0.53956 0.0
C993 C 0.41725 0.85278 0.54294 0.0
C994 C 0.39771 0.81281 0.5429 0.0
C995 C 0.37909 0.81236 0.54963 0.0
C996 C 0.37968 0.83216 0.55316 0.0
H997 H 0.24771 0.71156 0.57665 0.0
H998 H 0.28176 0.74587 0.57107 0.0
C999 C 0.39865 0.85221 0.54996 0.0
C1000 C 0.35925 0.79119 0.55346 0.0
H1001 H 0.30448 0.75761 0.54344 0.0
C1002 C 0.36086 0.77888 0.5658 0.0
C1003 C 0.33876 0.78345 0.54525 0.0
C1004 C 0.33642 0.7959 0.53165 0.0
C1005 C 0.34228 0.75915 0.57041 0.0
C1006 C 0.32173 0.75134 0.56219 0.0
C1007 C 0.32022 0.76364 0.54975 0.0
C1008 C 0.3015 0.73052 0.56631 0.0
C1009 C 0.34467 0.7472 0.58434 0.0
C1010 C 0.30129 0.71048 0.56549 0.0
C1011 C 0.28188 0.69083 0.56879 0.0
C1012 C 0.26223 0.69083 0.57278 0.0
C1013 C 0.26254 0.71096 0.57364 0.0
C1014 C 0.28198 0.73059 0.57043 0.0
H1015 H 0.35933 0.75822 0.59193 0.0
H1016 H 0.32954 0.74008 0.5917 0.0
H1017 H 0.34705 0.73361 0.57995 0.0
H1018 H 0.31601 0.70998 0.56198 0.0
H1019 H 0.28218 0.67561 0.56788 0.0
H1020 H 0.55226 0.41701 0.71982 0.0
H1021 H 0.55599 0.38543 0.72689 0.0
H1022 H 0.62157 0.41634 0.70687 0.0
H1023 H 0.61755 0.44772 0.6992 0.0
H1024 H 0.59748 0.37387 0.69793 0.0
H1025 H 0.5918 0.38091 0.76274 0.0
H1026 H 0.5682 0.37914 0.75245 0.0
H1027 H 0.59551 0.40242 0.74953 0.0
C1028 C 0.56737 0.41698 0.71676 0.0
C1029 C 0.58443 0.43461 0.70861 0.0
C1030 C 0.56962 0.39906 0.72102 0.0
C1031 C 0.58921 0.39869 0.71765 0.0
C1032 C 0.60633 0.41632 0.70962 0.0
H1033 H 0.62488 0.29741 0.73575 0.0
H1034 H 0.62721 0.33271 0.73051 0.0
C1035 C 0.604 0.43416 0.70521 0.0
C1036 C 0.59146 0.37952 0.722 0.0
H1037 H 0.58697 0.34666 0.75284 0.0
C1038 C 0.59549 0.3681 0.70997 0.0
C1039 C 0.58899 0.37208 0.73774 0.0
C1040 C 0.58612 0.38442 0.75137 0.0
C1041 C 0.59623 0.34894 0.71316 0.0
C1042 C 0.59289 0.3411 0.72876 0.0
C1043 C 0.5894 0.35275 0.74087 0.0
C1044 C 0.59182 0.32017 0.73255 0.0
C1045 C 0.59984 0.33676 0.69978 0.0
C1046 C 0.57119 0.30166 0.73565 0.0
C1047 C 0.56976 0.28151 0.73857 0.0
C1048 C 0.589 0.27958 0.73857 0.0
C1049 C 0.60976 0.29835 0.73583 0.0
C1050 C 0.61113 0.31849 0.73279 0.0
H1051 H 0.59971 0.34369 0.68807 0.0
H1052 H 0.61616 0.33764 0.70153 0.0
H1053 H 0.58673 0.31916 0.69974 0.0
H1054 H 0.55613 0.30274 0.73554 0.0
H1055 H 0.55353 0.26742 0.74071 0.0
H1056 H 0.15273 0.5616 0.89373 0.0
H1057 H 0.18803 0.56282 0.89957 0.0
H1058 H 0.21892 0.60769 0.86135 0.0
H1059 H 0.18364 0.60651 0.85542 0.0
H1060 H 0.22614 0.57092 0.8617 0.0
H1061 H 0.24522 0.61492 0.91976 0.0
H1062 H 0.21777 0.59133 0.91773 0.0
H1063 H 0.22539 0.61485 0.9057 0.0
C1064 C 0.16708 0.57174 0.8866 0.0
C1065 C 0.16543 0.58382 0.87403 0.0
C1066 C 0.18722 0.57252 0.89 0.0
C1067 C 0.20606 0.58549 0.88097 0.0
C1068 C 0.20452 0.59762 0.86845 0.0
H1069 H 0.34312 0.62082 0.89953 0.0
H1070 H 0.30819 0.62053 0.89458 0.0
C1071 C 0.1844 0.59691 0.86507 0.0
C1072 C 0.22723 0.58589 0.88427 0.0
H1073 H 0.26825 0.60041 0.91228 0.0
C1074 C 0.23541 0.5774 0.87273 0.0
C1075 C 0.23929 0.59454 0.89863 0.0
C1076 C 0.23164 0.60461 0.91114 0.0
C1077 C 0.25525 0.57705 0.87526 0.0
C1078 C 0.26702 0.58519 0.88978 0.0
C1079 C 0.25903 0.59399 0.90123 0.0
C1080 C 0.28796 0.58514 0.89316 0.0
C1081 C 0.26363 0.56828 0.8623 0.0
C1082 C 0.28803 0.56529 0.89423 0.0
C1083 C 0.30796 0.56536 0.89706 0.0
C1084 C 0.32815 0.58531 0.89891 0.0
C1085 C 0.3279 0.60516 0.89811 0.0
C1086 C 0.30796 0.60505 0.89531 0.0
H1087 H 0.25551 0.56737 0.8507 0.0
H1088 H 0.28195 0.57872 0.86112 0.0
H1089 H 0.25992 0.55148 0.86529 0.0
H1090 H 0.27266 0.54975 0.89287 0.0
H1091 H 0.30754 0.5498 0.89769 0.0
H1092 H 0.59848 0.17113 0.00062 0.0
H1093 H 0.63341 0.20018 0.01247 0.0
H1094 H 0.59868 0.19889 0.05484 0.0
H1095 H 0.56382 0.16951 0.04314 0.0
H1096 H 0.64057 0.24043 0.02114 0.0
H1097 H 0.65406 0.20093 0.07311 0.0
H1098 H 0.63479 0.18536 0.0572 0.0
H1099 H 0.62687 0.19812 0.07238 0.0
C1100 C 0.59844 0.17672 0.0126 0.0
C1101 C 0.57852 0.16793 0.02104 0.0
C1102 C 0.61836 0.19332 0.01934 0.0
C1103 C 0.61874 0.20148 0.03463 0.0
C1104 C 0.59893 0.19246 0.0432 0.0
H1105 H 0.70685 0.31716 0.08922 0.0
H1106 H 0.67746 0.28115 0.07969 0.0
C1107 C 0.57901 0.17578 0.03648 0.0
C1108 C 0.63929 0.22089 0.04094 0.0
H1109 H 0.67554 0.2402 0.07256 0.0
C1110 C 0.64839 0.2403 0.03228 0.0
C1111 C 0.64938 0.22071 0.05553 0.0
C1112 C 0.64091 0.2001 0.06503 0.0
C1113 C 0.66689 0.25972 0.038 0.0
C1114 C 0.67681 0.25964 0.05268 0.0
C1115 C 0.66792 0.24018 0.06128 0.0
C1116 C 0.69579 0.27996 0.05952 0.0
C1117 C 0.67517 0.28036 0.02854 0.0
C1118 C 0.71615 0.29082 0.05167 0.0
C1119 C 0.73297 0.31145 0.05704 0.0
C1120 C 0.72975 0.32152 0.07043 0.0
C1121 C 0.70985 0.30994 0.07883 0.0
C1122 C 0.69302 0.28934 0.07341 0.0
H1123 H 0.66281 0.27877 0.01938 0.0
H1124 H 0.67904 0.29465 0.03637 0.0
H1125 H 0.69068 0.28383 0.02246 0.0
H1126 H 0.71875 0.28365 0.04108 0.0
H1127 H 0.74817 0.31982 0.05037 0.0
H1128 H 0.46694 0.63441 0.17816 0.0
H1129 H 0.46444 0.66535 0.18934 0.0
H1130 H 0.41988 0.62314 0.22487 0.0
H1131 H 0.42242 0.59214 0.21377 0.0
H1132 H 0.42466 0.6664 0.1917 0.0
H1133 H 0.46547 0.67779 0.25065 0.0
H1134 H 0.46904 0.6627 0.23463 0.0
H1135 H 0.44397 0.65018 0.24589 0.0
C1136 C 0.45698 0.63186 0.18855 0.0
C1137 C 0.44525 0.61099 0.1953 0.0
C1138 C 0.45552 0.6495 0.19489 0.0
C1139 C 0.44229 0.64662 0.20809 0.0
C1140 C 0.43063 0.62584 0.21492 0.0
H1141 H 0.39739 0.7268 0.25564 0.0
H1142 H 0.40636 0.6985 0.24801 0.0
C1143 C 0.43205 0.60815 0.20856 0.0
C1144 C 0.43934 0.66495 0.21388 0.0
H1145 H 0.44684 0.6979 0.24604 0.0
C1146 C 0.42965 0.6734 0.20354 0.0
C1147 C 0.44573 0.67391 0.22936 0.0
C1148 C 0.4568 0.66585 0.24077 0.0
C1149 C 0.42583 0.69036 0.20834 0.0
C1150 C 0.43232 0.69943 0.22381 0.0
C1151 C 0.44199 0.69097 0.23417 0.0
C1152 C 0.42873 0.71744 0.22943 0.0
C1153 C 0.41432 0.698 0.19695 0.0
C1154 C 0.43893 0.73775 0.22186 0.0
C1155 C 0.4338 0.75393 0.22614 0.0
C1156 C 0.41847 0.75016 0.23816 0.0
C1157 C 0.40918 0.73022 0.24628 0.0
C1158 C 0.4143 0.71402 0.24196 0.0
H1159 H 0.40552 0.68581 0.18722 0.0
H1160 H 0.40207 0.70109 0.20313 0.0
H1161 H 0.42691 0.71357 0.19157 0.0
H1162 H 0.45048 0.74088 0.21238 0.0
H1163 H 0.44141 0.76916 0.21973 0.0
H1164 H 0.84286 0.4431 0.33899 0.0
H1165 H 0.81486 0.44851 0.35252 0.0
H1166 H 0.82052 0.41513 0.39326 0.0
H1167 H 0.84889 0.4101 0.37987 0.0
H1168 H 0.77474 0.41586 0.36211 0.0
H1169 H 0.82247 0.4688 0.41351 0.0
H1170 H 0.83579 0.46483 0.39657 0.0
H1171 H 0.82437 0.44435 0.41159 0.0
C1172 C 0.83845 0.43733 0.35096 0.0
C1173 C 0.84821 0.42641 0.35846 0.0
C1174 C 0.82243 0.44037 0.35865 0.0
C1175 C 0.81581 0.43249 0.37398 0.0
C1176 C 0.82575 0.42182 0.38159 0.0
H1177 H 0.68836 0.40014 0.41379 0.0
H1178 H 0.72125 0.39959 0.40429 0.0
C1179 C 0.84185 0.41886 0.37392 0.0
C1180 C 0.79726 0.43386 0.38143 0.0
H1181 H 0.78292 0.45258 0.41416 0.0
C1182 C 0.77656 0.42398 0.37346 0.0
C1183 C 0.79973 0.44462 0.39617 0.0
C1184 C 0.82184 0.45645 0.40491 0.0
C1185 C 0.75817 0.4243 0.3799 0.0
C1186 C 0.76041 0.43437 0.3949 0.0
C1187 C 0.78119 0.4446 0.40277 0.0
C1188 C 0.74139 0.43485 0.40233 0.0
C1189 C 0.7366 0.41414 0.37046 0.0
C1190 C 0.74219 0.45493 0.40508 0.0
C1191 C 0.72347 0.45534 0.41063 0.0
C1192 C 0.70362 0.43565 0.41356 0.0
C1193 C 0.70329 0.41561 0.41154 0.0
C1194 C 0.72204 0.41524 0.40603 0.0
H1195 H 0.73921 0.41214 0.35775 0.0
H1196 H 0.72503 0.39764 0.37513 0.0
H1197 H 0.72849 0.42429 0.37145 0.0
H1198 H 0.75703 0.47026 0.40238 0.0
H1199 H 0.72433 0.47106 0.4121 0.0
H1200 H 0.11774 0.57528 0.40516 0.0
H1201 H 0.1313 0.56755 0.4298 0.0
H1202 H 0.09064 0.58632 0.45658 0.0
H1203 H 0.07693 0.59382 0.43204 0.0
H1204 H 0.15488 0.59855 0.45239 0.0
H1205 H 0.07971 0.53115 0.47906 0.0
H1206 H 0.08081 0.53782 0.4584 0.0
H1207 H 0.07521 0.55304 0.47312 0.0
C1208 C 0.11128 0.57718 0.41631 0.0
C1209 C 0.09602 0.5848 0.41671 0.0
C1210 C 0.11904 0.57279 0.43035 0.0
C1211 C 0.11165 0.57594 0.44501 0.0
C1212 C 0.09606 0.58313 0.4454 0.0
H1213 H 0.14672 0.61007 0.5389 0.0
H1214 H 0.12971 0.59676 0.51284 0.0
C1215 C 0.08832 0.58752 0.43139 0.0
C1216 C 0.12215 0.57446 0.45994 0.0
H1217 H 0.10986 0.55454 0.49733 0.0
C1218 C 0.14517 0.58851 0.46211 0.0
C1219 C 0.10946 0.56124 0.47256 0.0
C1220 C 0.08496 0.54479 0.47062 0.0
C1221 C 0.15553 0.59106 0.47694 0.0
C1222 C 0.14251 0.57898 0.48985 0.0
C1223 C 0.11978 0.56383 0.48741 0.0
C1224 C 0.15144 0.58429 0.50626 0.0
C1225 C 0.17996 0.60779 0.47895 0.0
C1226 C 0.16897 0.58115 0.51137 0.0
C1227 C 0.17886 0.58884 0.52635 0.0
C1228 C 0.17135 0.5998 0.53638 0.0
C1229 C 0.15309 0.60192 0.53144 0.0
C1230 C 0.14324 0.59421 0.51656 0.0
H1231 H 0.18692 0.61778 0.46822 0.0
H1232 H 0.18265 0.61901 0.48913 0.0
H1233 H 0.18942 0.59924 0.48143 0.0
H1234 H 0.17534 0.57327 0.50364 0.0
H1235 H 0.19281 0.58685 0.52985 0.0
H1236 H 0.53239 0.05503 0.61166 0.0
H1237 H 0.54067 0.08491 0.63049 0.0
H1238 H 0.61056 0.11487 0.62018 0.0
H1239 H 0.60234 0.08504 0.60113 0.0
H1240 H 0.59879 0.10774 0.6535 0.0
H1241 H 0.56132 0.1508 0.6223 0.0
H1242 H 0.54373 0.1215 0.62305 0.0
H1243 H 0.56915 0.13298 0.61219 0.0
C1244 C 0.54948 0.06815 0.61324 0.0
C1245 C 0.56673 0.06772 0.60495 0.0
C1246 C 0.55417 0.08522 0.62394 0.0
C1247 C 0.57619 0.10215 0.62659 0.0
C1248 C 0.59345 0.10198 0.6182 0.0
H1249 H 0.62386 0.20192 0.70339 0.0
H1250 H 0.62357 0.18056 0.6802 0.0
C1251 C 0.58875 0.08499 0.60737 0.0
C1252 C 0.58116 0.11913 0.63892 0.0
H1253 H 0.5696 0.15915 0.64981 0.0
C1254 C 0.59275 0.11925 0.65264 0.0
C1255 C 0.57317 0.13401 0.6377 0.0
C1256 C 0.56131 0.13503 0.62297 0.0
C1257 C 0.5956 0.13316 0.66557 0.0
C1258 C 0.58702 0.14762 0.66455 0.0
C1259 C 0.57613 0.14803 0.65057 0.0
C1260 C 0.58761 0.16123 0.67824 0.0
C1261 C 0.60673 0.13145 0.68049 0.0
C1262 C 0.56754 0.15783 0.68456 0.0
C1263 C 0.56763 0.17006 0.69768 0.0
C1264 C 0.58785 0.18603 0.70477 0.0
C1265 C 0.608 0.18965 0.69828 0.0
C1266 C 0.60787 0.1774 0.68508 0.0
H1267 H 0.60808 0.11636 0.68049 0.0
H1268 H 0.62381 0.14583 0.68151 0.0
H1269 H 0.5974 0.13144 0.69109 0.0
H1270 H 0.55172 0.14545 0.67945 0.0
H1271 H 0.55179 0.16684 0.70232 0.0
H1272 H 0.51594 0.55101 0.7733 0.0
H1273 H 0.491 0.5531 0.79264 0.0
H1274 H 0.51311 0.61982 0.77936 0.0
H1275 H 0.53799 0.61774 0.75982 0.0
H1276 H 0.51573 0.61192 0.81312 0.0
H1277 H 0.43256 0.5561 0.78586 0.0
H1278 H 0.45147 0.54561 0.78644 0.0
H1279 H 0.4578 0.56894 0.77453 0.0
C1280 C 0.51521 0.566 0.77432 0.0
C1281 C 0.52886 0.58421 0.76506 0.0
C1282 C 0.50092 0.56714 0.78533 0.0
C1283 C 0.50011 0.58655 0.7873 0.0
C1284 C 0.51344 0.60467 0.77791 0.0
H1285 H 0.43853 0.62439 0.86195 0.0
H1286 H 0.45966 0.62482 0.83884 0.0
C1287 C 0.5276 0.60347 0.76679 0.0
C1288 C 0.48658 0.58835 0.79999 0.0
H1289 H 0.43324 0.56691 0.81267 0.0
C1290 C 0.49768 0.6023 0.81299 0.0
C1291 C 0.46309 0.57563 0.79975 0.0
C1292 C 0.45043 0.56082 0.78585 0.0
C1293 C 0.48591 0.60332 0.82606 0.0
C1294 C 0.46237 0.59043 0.82591 0.0
C1295 C 0.45127 0.57678 0.81275 0.0
C1296 C 0.44902 0.59021 0.83956 0.0
C1297 C 0.49884 0.61749 0.84017 0.0
C1298 C 0.43549 0.57049 0.84734 0.0
C1299 C 0.42321 0.57013 0.86043 0.0
C1300 C 0.42423 0.58952 0.86602 0.0
C1301 C 0.43754 0.60921 0.85805 0.0
C1302 C 0.44972 0.60951 0.84488 0.0
H1303 H 0.51659 0.62177 0.84004 0.0
H1304 H 0.49836 0.63301 0.83996 0.0
H1305 H 0.49146 0.6091 0.8514 0.0
H1306 H 0.43466 0.55538 0.84339 0.0
H1307 H 0.4131 0.55466 0.86625 0.0
H1308 H 0.9323 0.51635 0.93517 0.0
H1309 H 0.90055 0.48997 0.95045 0.0
H1310 H 0.92695 0.44594 0.95038 0.0
H1311 H 0.95927 0.47275 0.93566 0.0
H1312 H 0.86774 0.44722 0.94628 0.0
H1313 H 0.92333 0.45541 0.9971 0.0
H1314 H 0.93331 0.47325 0.98036 0.0
H1315 H 0.92858 0.44573 0.97883 0.0
C1316 C 0.93125 0.50099 0.93837 0.0
C1317 C 0.94842 0.49675 0.93452 0.0
C1318 C 0.91307 0.48589 0.94701 0.0
C1319 C 0.91162 0.46619 0.95184 0.0
C1320 C 0.92802 0.46128 0.94713 0.0
H1321 H 0.81993 0.38865 0.02729 0.0
H1322 H 0.84194 0.3946 0.00335 0.0
C1323 C 0.94639 0.47654 0.93865 0.0
C1324 C 0.89373 0.45178 0.96271 0.0
H1325 H 0.88497 0.43471 0.00094 0.0
C1326 C 0.87148 0.44417 0.95815 0.0
C1327 C 0.89862 0.44769 0.97819 0.0
C1328 C 0.92223 0.45605 0.98402 0.0
C1329 C 0.85413 0.43365 0.96891 0.0
C1330 C 0.85921 0.43075 0.98459 0.0
C1331 C 0.88119 0.43693 0.98885 0.0
C1332 C 0.84294 0.4249 0.99739 0.0
C1333 C 0.8306 0.42649 0.96364 0.0
C1334 C 0.83616 0.43989 0.00182 0.0
C1335 C 0.82401 0.43676 0.01553 0.0
C1336 C 0.81826 0.41847 0.02502 0.0
C1337 C 0.82406 0.40284 0.02015 0.0
C1338 C 0.83659 0.40619 0.00651 0.0
H1339 H 0.82844 0.4238 0.95062 0.0
H1340 H 0.81848 0.41115 0.96955 0.0
H1341 H 0.82668 0.4395 0.96686 0.0
H1342 H 0.84123 0.45462 0.9951 0.0
H1343 H 0.81968 0.44902 0.01895 0.0
H1344 H 0.5355 0.95572 0.09882 0.0
H1345 H 0.51256 0.93471 0.12095 0.0
H1346 H 0.47224 0.88022 0.08922 0.0
H1347 H 0.49463 0.90153 0.06694 0.0
H1348 H 0.44679 0.88647 0.10969 0.0
H1349 H 0.51604 0.88569 0.14225 0.0
H1350 H 0.52177 0.91305 0.13849 0.0
H1351 H 0.51865 0.895 0.12218 0.0
C1352 C 0.52153 0.9394 0.09653 0.0
C1353 C 0.51659 0.93037 0.08111 0.0
C1354 C 0.50862 0.92729 0.10921 0.0
C1355 C 0.49095 0.90573 0.10679 0.0
C1356 C 0.48582 0.8968 0.09137 0.0
H1357 H 0.43104 0.81714 0.18593 0.0
H1358 H 0.44998 0.83359 0.16127 0.0
C1359 C 0.49856 0.90898 0.07867 0.0
C1360 C 0.47777 0.89247 0.12029 0.0
H1361 H 0.48252 0.8741 0.15651 0.0
C1362 C 0.45458 0.88363 0.11988 0.0
C1363 C 0.48785 0.8883 0.13342 0.0
C1364 C 0.51241 0.8958 0.13406 0.0
C1365 C 0.44129 0.87133 0.13246 0.0
C1366 C 0.45156 0.86834 0.14601 0.0
C1367 C 0.47466 0.87659 0.1462 0.0
C1368 C 0.43886 0.85736 0.16034 0.0
C1369 C 0.41636 0.86147 0.13096 0.0
C1370 C 0.42635 0.86525 0.16803 0.0
C1371 C 0.41532 0.85573 0.18197 0.0
C1372 C 0.41692 0.83837 0.18873 0.0
C1373 C 0.42946 0.83047 0.18103 0.0
C1374 C 0.4403 0.83986 0.16695 0.0
H1375 H 0.41077 0.85877 0.11837 0.0
H1376 H 0.40739 0.84557 0.13713 0.0
H1377 H 0.41159 0.87297 0.13631 0.0
H1378 H 0.42552 0.87914 0.16345 0.0
H1379 H 0.40601 0.8624 0.18768 0.0
H1380 H 0.57358 0.48871 0.26783 0.0
H1381 H 0.58225 0.47907 0.29364 0.0
H1382 H 0.53595 0.41065 0.28366 0.0
H1383 H 0.52698 0.42019 0.25783 0.0
H1384 H 0.54744 0.45191 0.31845 0.0
H1385 H 0.59896 0.41704 0.29627 0.0
H1386 H 0.59495 0.4365 0.285 0.0
H1387 H 0.57256 0.40879 0.28663 0.0
C1388 C 0.56505 0.47164 0.27121 0.0
C1389 C 0.54917 0.45522 0.261 0.0
C1390 C 0.57008 0.46617 0.2859 0.0
C1391 C 0.55968 0.44419 0.29049 0.0
C1392 C 0.54411 0.42771 0.28027 0.0
H1393 H 0.59313 0.39633 0.37621 0.0
H1394 H 0.57487 0.39665 0.35129 0.0
C1395 C 0.53895 0.43318 0.2656 0.0
C1396 C 0.56518 0.43868 0.30605 0.0
H1397 H 0.59582 0.41892 0.32382 0.0
C1398 C 0.55785 0.44452 0.31966 0.0
C1399 C 0.57853 0.42881 0.3075 0.0
C1400 C 0.58686 0.42244 0.29312 0.0
C1401 C 0.56401 0.44125 0.33479 0.0
C1402 C 0.57831 0.43241 0.33626 0.0
C1403 C 0.58489 0.42573 0.32264 0.0
C1404 C 0.5882 0.4318 0.35171 0.0
C1405 C 0.55531 0.44745 0.34905 0.0
C1406 C 0.60184 0.45145 0.36008 0.0
C1407 C 0.61227 0.45135 0.37423 0.0
C1408 C 0.6094 0.43157 0.38028 0.0
C1409 C 0.59561 0.41183 0.3719 0.0
C1410 C 0.58519 0.41197 0.35767 0.0
H1411 H 0.53944 0.4471 0.34623 0.0
H1412 H 0.55251 0.43626 0.35902 0.0
H1413 H 0.56768 0.46441 0.35297 0.0
H1414 H 0.60479 0.46699 0.3555 0.0
H1415 H 0.62281 0.46687 0.38032 0.0
H1416 H 0.42464 0.94056 0.38209 0.0
H1417 H 0.43 0.92867 0.35607 0.0
H1418 H 0.44528 0.88257 0.37796 0.0
H1419 H 0.44064 0.89494 0.40415 0.0
H1420 H 0.47162 0.90326 0.35097 0.0
H1421 H 0.38115 0.8687 0.33928 0.0
H1422 H 0.3955 0.89745 0.34429 0.0
H1423 H 0.39363 0.87799 0.3587 0.0
C1424 C 0.42972 0.92832 0.3814 0.0
C1425 C 0.43245 0.91881 0.39517 0.0
C1426 C 0.43262 0.92142 0.36652 0.0
C1427 C 0.43772 0.90453 0.36511 0.0
C1428 C 0.44138 0.89565 0.37881 0.0
H1429 H 0.42931 0.82457 0.28272 0.0
H1430 H 0.43951 0.842 0.30915 0.0
C1431 C 0.43871 0.9027 0.39373 0.0
C1432 C 0.4372 0.89485 0.34938 0.0
H1433 H 0.40278 0.86923 0.31761 0.0
C1434 C 0.45658 0.89572 0.34367 0.0
C1435 C 0.41742 0.88469 0.34004 0.0
C1436 C 0.39568 0.88191 0.34593 0.0
C1437 C 0.45687 0.88742 0.3285 0.0
C1438 C 0.4373 0.87805 0.319 0.0
C1439 C 0.41784 0.87669 0.32491 0.0
C1440 C 0.43634 0.86999 0.30264 0.0
C1441 C 0.47811 0.88919 0.32254 0.0
C1442 C 0.43179 0.88027 0.29023 0.0
C1443 C 0.42577 0.87031 0.27529 0.0
C1444 C 0.4242 0.84986 0.27246 0.0
C1445 C 0.43044 0.84036 0.28457 0.0
C1446 C 0.43633 0.85032 0.29964 0.0
H1447 H 0.49258 0.89946 0.33052 0.0
H1448 H 0.47608 0.87253 0.32162 0.0
H1449 H 0.48172 0.89628 0.31054 0.0
H1450 H 0.43168 0.89543 0.29234 0.0
H1451 H 0.42131 0.87815 0.26614 0.0
H1452 H 0.48187 0.41305 0.55019 0.0
H1453 H 0.50602 0.41693 0.52799 0.0
H1454 H 0.56293 0.44379 0.55984 0.0
H1455 H 0.5388 0.43942 0.58208 0.0
H1456 H 0.54276 0.45259 0.51569 0.0
H1457 H 0.56516 0.3926 0.53901 0.0
H1458 H 0.5429 0.39577 0.54705 0.0
H1459 H 0.5714 0.41489 0.55251 0.0
C1460 C 0.49957 0.41992 0.55239 0.0
C1461 C 0.50847 0.42586 0.56784 0.0
C1462 C 0.51332 0.42212 0.53974 0.0
C1463 C 0.53619 0.43025 0.54233 0.0
C1464 C 0.54525 0.43701 0.55764 0.0
H1465 H 0.63438 0.47014 0.46763 0.0
H1466 H 0.61305 0.46942 0.4907 0.0
C1467 C 0.53149 0.43467 0.5703 0.0
C1468 C 0.55046 0.43128 0.52905 0.0
H1469 H 0.58454 0.41233 0.51644 0.0
C1470 C 0.55191 0.4438 0.51584 0.0
C1471 C 0.5621 0.41952 0.52918 0.0
C1472 C 0.56019 0.40476 0.54262 0.0
C1473 C 0.56484 0.44504 0.5028 0.0
C1474 C 0.577 0.4338 0.50314 0.0
C1475 C 0.57541 0.42114 0.51629 0.0
C1476 C 0.59079 0.43425 0.48969 0.0
C1477 C 0.56488 0.45789 0.48861 0.0
C1478 C 0.58596 0.41462 0.48188 0.0
C1479 C 0.59828 0.41493 0.46882 0.0
C1480 C 0.61571 0.43491 0.46331 0.0
C1481 C 0.62097 0.45449 0.47148 0.0
C1482 C 0.60869 0.45414 0.4846 0.0
H1483 H 0.55043 0.46064 0.48855 0.0
H1484 H 0.58031 0.47418 0.48891 0.0
H1485 H 0.56449 0.44929 0.47742 0.0
H1486 H 0.57231 0.39907 0.48569 0.0
H1487 H 0.59379 0.39954 0.46283 0.0
H1488 H 0.08143 0.48263 0.71823 0.0
H1489 H 0.09833 0.50241 0.69392 0.0
H1490 H 0.13025 0.56363 0.72037 0.0
H1491 H 0.11377 0.54389 0.74472 0.0
H1492 H 0.09544 0.5356 0.67882 0.0
H1493 H 0.18239 0.56373 0.69842 0.0
H1494 H 0.15856 0.54288 0.70862 0.0
H1495 H 0.16737 0.57142 0.71175 0.0
C1496 C 0.09194 0.50032 0.71879 0.0
C1497 C 0.09629 0.51175 0.73333 0.0
C1498 C 0.10159 0.51159 0.70494 0.0
C1499 C 0.11584 0.53443 0.70541 0.0
C1500 C 0.11968 0.54595 0.71982 0.0
H1501 H 0.16028 0.62086 0.62492 0.0
H1502 H 0.14295 0.60153 0.64915 0.0
C1503 C 0.11012 0.53469 0.73368 0.0
C1504 C 0.12681 0.54617 0.69082 0.0
H1505 H 0.17772 0.57867 0.6746 0.0
C1506 C 0.11342 0.54498 0.67787 0.0
C1507 C 0.15028 0.55812 0.68955 0.0
C1508 C 0.16552 0.55898 0.70276 0.0
C1509 C 0.12288 0.55574 0.66373 0.0
C1510 C 0.14635 0.56831 0.66266 0.0
C1511 C 0.15974 0.5692 0.67552 0.0
C1512 C 0.15735 0.58045 0.64821 0.0
C1513 C 0.10768 0.55321 0.64999 0.0
C1514 C 0.1718 0.57552 0.63995 0.0
C1515 C 0.18191 0.58667 0.62615 0.0
C1516 C 0.17779 0.60302 0.62041 0.0
C1517 C 0.16369 0.60825 0.62894 0.0
C1518 C 0.15364 0.59712 0.64274 0.0
H1519 H 0.09082 0.53864 0.65125 0.0
H1520 H 0.10581 0.56796 0.64947 0.0
H1521 H 0.11469 0.55165 0.63862 0.0
H1522 H 0.17499 0.56279 0.64405 0.0
H1523 H 0.19271 0.58227 0.6199 0.0
H1524 H 0.48405 0.06787 0.87491 0.0
H1525 H 0.50765 0.10104 0.86004 0.0
H1526 H 0.55964 0.08434 0.85937 0.0
H1527 H 0.53567 0.05062 0.87364 0.0
H1528 H 0.54871 0.13713 0.8646 0.0
H1529 H 0.5491 0.08778 0.81282 0.0
H1530 H 0.53122 0.07543 0.82942 0.0
H1531 H 0.56029 0.08372 0.83087 0.0
C1532 C 0.50054 0.07134 0.87161 0.0
C1533 C 0.50787 0.05649 0.87512 0.0
C1534 C 0.51406 0.09033 0.86321 0.0
C1535 C 0.53521 0.09491 0.85829 0.0
C1536 C 0.54314 0.08082 0.86268 0.0
H1537 H 0.61188 0.19299 0.7866 0.0
H1538 H 0.60543 0.17006 0.80984 0.0
C1539 C 0.5295 0.06165 0.8709 0.0
C1540 C 0.54815 0.11366 0.84774 0.0
H1541 H 0.56708 0.1259 0.81001 0.0
C1542 C 0.55299 0.13473 0.85273 0.0
C1543 C 0.55377 0.11051 0.83225 0.0
C1544 C 0.5482 0.08814 0.82592 0.0
C1545 C 0.56249 0.15254 0.84244 0.0
C1546 C 0.56718 0.14913 0.82679 0.0
C1547 C 0.56353 0.12841 0.82207 0.0
C1548 C 0.57288 0.16578 0.81448 0.0
C1549 C 0.56686 0.17472 0.8482 0.0
C1550 C 0.55678 0.17105 0.80954 0.0
C1551 C 0.56025 0.1838 0.79622 0.0
C1552 C 0.57996 0.19164 0.78762 0.0
C1553 C 0.59657 0.18725 0.79303 0.0
C1554 C 0.59293 0.17418 0.80628 0.0
H1555 H 0.56837 0.17622 0.8613 0.0
H1556 H 0.58231 0.18809 0.84303 0.0
H1557 H 0.55275 0.17698 0.84447 0.0
H1558 H 0.54104 0.1644 0.81555 0.0
H1559 H 0.54719 0.18697 0.79238 0.0
H1560 H 0.52833 0.62643 0.06704 0.0
H1561 H 0.50682 0.63009 0.03869 0.0
H1562 H 0.43431 0.56446 0.05336 0.0
H1563 H 0.45374 0.55946 0.08222 0.0
H1564 H 0.48788 0.60054 0.01519 0.0
H1565 H 0.41462 0.6041 0.03558 0.0
H1566 H 0.43536 0.60535 0.04924 0.0
H1567 H 0.4128 0.57921 0.04217 0.0
C1568 C 0.51061 0.61584 0.065 0.0
C1569 C 0.49415 0.59019 0.07623 0.0
C1570 C 0.49731 0.61736 0.04706 0.0
C1571 C 0.46852 0.59734 0.04263 0.0
C1572 C 0.45148 0.57613 0.05635 0.0
H1573 H 0.39404 0.55625 0.95482 0.0
H1574 H 0.40987 0.55922 0.98137 0.0
C1575 C 0.46322 0.57324 0.07462 0.0
C1576 C 0.45921 0.59779 0.02699 0.0
H1577 H 0.41334 0.59326 0.00802 0.0
C1578 C 0.47171 0.59923 0.01365 0.0
C1579 C 0.43813 0.59612 0.02501 0.0
C1580 C 0.42465 0.59635 0.03882 0.0
C1581 C 0.46333 0.59828 0.99832 0.0
C1582 C 0.44198 0.59587 0.99635 0.0
C1583 C 0.42963 0.59484 0.00966 0.0
C1584 C 0.43221 0.59428 0.98049 0.0
C1585 C 0.47706 0.59934 0.98428 0.0
C1586 C 0.43952 0.61308 0.97136 0.0
C1587 C 0.43048 0.6115 0.95625 0.0
C1588 C 0.41404 0.59104 0.94999 0.0
C1589 C 0.40673 0.57223 0.95925 0.0
C1590 C 0.41568 0.57388 0.97442 0.0
H1591 H 0.49233 0.59895 0.9878 0.0
H1592 H 0.46699 0.5854 0.97597 0.0
H1593 H 0.48209 0.61474 0.97783 0.0
H1594 H 0.45225 0.62896 0.97594 0.0
H1595 H 0.43649 0.6263 0.94944 0.0
H1596 H 0.96219 0.48171 0.19964 0.0
H1597 H 0.93069 0.47002 0.1812 0.0
H1598 H 0.90545 0.40264 0.1942 0.0
H1599 H 0.93699 0.41429 0.2128 0.0
H1600 H 0.90981 0.41081 0.16082 0.0
H1601 H 0.86391 0.44679 0.19005 0.0
H1602 H 0.89321 0.46567 0.18822 0.0
H1603 H 0.88395 0.44203 0.20046 0.0
C1604 C 0.94974 0.46445 0.19875 0.0
C1605 C 0.95196 0.44891 0.20769 0.0
C1606 C 0.93173 0.4578 0.18827 0.0
C1607 C 0.91563 0.43551 0.1865 0.0
C1608 C 0.91764 0.41994 0.1955 0.0
H1609 H 0.81185 0.37969 0.11097 0.0
H1610 H 0.83421 0.38192 0.13435 0.0
C1611 C 0.93559 0.4266 0.2061 0.0
C1612 C 0.89763 0.42852 0.17443 0.0
H1613 H 0.8552 0.43674 0.16268 0.0
C1614 C 0.89757 0.4161 0.16131 0.0
C1615 C 0.88175 0.43548 0.17517 0.0
C1616 C 0.8805 0.44806 0.1893 0.0
C1617 C 0.88285 0.41155 0.14844 0.0
C1618 C 0.86755 0.41929 0.1489 0.0
C1619 C 0.86698 0.43086 0.16235 0.0
C1620 C 0.85347 0.41743 0.135 0.0
C1621 C 0.88461 0.39958 0.13411 0.0
C1622 C 0.8566 0.43662 0.12785 0.0
C1623 C 0.84384 0.43542 0.11463 0.0
C1624 C 0.82759 0.41496 0.10826 0.0
C1625 C 0.82431 0.39569 0.11553 0.0
C1626 C 0.83712 0.39693 0.12884 0.0
H1627 H 0.9 0.39839 0.13447 0.0
H1628 H 0.87008 0.38267 0.13358 0.0
H1629 H 0.88446 0.40795 0.12309 0.0
H1630 H 0.86913 0.4526 0.13241 0.0
H1631 H 0.84684 0.45062 0.10938 0.0
loop_
_geom_bond_atom_site_label_1
_geom_bond_atom_site_label_2
_geom_bond_distance
_geom_bond_site_symmetry_2
_ccdc_geom_bond_type
C0 C1 1.560 . S
C0 H61 0.959 . S
C0 H62 0.959 . S
C0 H63 0.960 . S
C1 C0 1.560 . S
C1 O56 1.426 . S
C1 H60 0.980 . S
C2 C3 1.407 . S
C2 C7 1.418 . S
C2 O56 1.334 . S
C3 C2 1.407 . S
C3 C4 1.360 . S
C3 H64 0.929 . S
C4 C3 1.360 . S
C4 C5 1.401 . S
C4 C8 1.527 . S
C5 C4 1.401 . S
C5 C6 1.405 . S
C5 C38 1.587 . S
C6 C5 1.405 . S
C6 C7 1.332 . S
C6 C9 1.496 . S
C7 C2 1.418 . S
C7 C6 1.332 . S
C7 H65 0.929 . S
C8 C4 1.527 . S
C8 H66 0.959 . S
C8 H67 0.961 . S
C8 H68 0.961 . S
C9 C6 1.496 . S
C9 H69 0.960 . S
C9 H70 0.960 . S
C9 H71 0.961 . S
C10 C11 1.517 . S
C10 H73 0.961 . S
C10 H74 0.960 . S
C10 H75 0.959 . S
C11 C10 1.517 . S
C11 O59 1.468 . S
C11 H72 0.980 . S
C12 C13 1.349 . S
C12 C17 1.367 . S
C12 O59 1.408 . S
C13 C12 1.349 . S
C13 C14 1.407 . S
C13 H76 0.930 . S
C14 C13 1.407 . S
C14 C15 1.449 . S
C14 C18 1.535 . S
C15 C14 1.449 . S
C15 C16 1.384 . S
C15 C40 1.553 1_655 S
C16 C15 1.384 . S
C16 C17 1.364 . S
C16 C19 1.450 . S
C17 C12 1.367 . S
C17 C16 1.364 . S
C17 H77 0.931 . S
C18 C14 1.535 . S
C18 H78 0.959 1_655 S
C18 H79 0.960 1_655 S
C18 H80 0.959 . S
C19 C16 1.450 . S
C19 H81 0.960 . S
C19 H82 0.960 1_655 S
C19 H83 0.960 . S
C20 C21 1.309 . S
C20 C25 1.304 . S
C20 O58 1.435 . S
C21 C20 1.309 . S
C21 C22 1.476 . S
C21 H85 0.930 . S
C22 C21 1.476 . S
C22 C23 1.400 . S
C22 C26 1.567 . S
C23 C22 1.400 . S
C23 C24 1.373 . S
C23 C45 1.432 . S
C24 C23 1.373 . S
C24 C25 1.339 . S
C24 C27 1.530 . S
C25 C20 1.304 . S
C25 C24 1.339 . S
C25 H86 0.930 . S
C26 C22 1.567 . S
C26 H87 0.961 . S
C26 H88 0.960 . S
C26 H89 0.958 . S
C27 C24 1.530 . S
C27 H90 0.961 . S
C27 H91 0.960 . S
C27 H92 0.960 . S
C28 C29 1.530 . S
C28 H94 0.961 . S
C28 H95 0.961 . S
C28 H96 0.959 . S
C29 C28 1.530 . S
C29 O57 1.412 . S
C29 H93 0.980 . S
C30 C31 1.288 . S
C30 C35 1.377 . S
C30 O57 1.393 . S
C31 C30 1.288 . S
C31 C32 1.369 . S
C31 H97 0.932 . S
C32 C31 1.369 . S
C32 C33 1.398 . S
C32 C36 1.527 . S
C33 C32 1.398 . S
C33 C34 1.380 . S
C33 C47 1.497 . S
C34 C33 1.380 . S
C34 C35 1.383 . S
C34 C37 1.603 . S
C35 C30 1.377 . S
C35 C34 1.383 . S
C35 H98 0.929 . S
C36 C32 1.527 . S
C36 H99 0.961 . S
C36 H100 0.939 1_455 S
C36 H101 0.959 . S
C37 C34 1.603 . S
C37 H102 0.960 . S
C37 H103 0.962 . S
C37 H104 0.961 . S
C38 C5 1.587 . S
C38 C39 1.360 . S
C38 C51 1.412 . S
C39 C38 1.360 . S
C39 C40 1.365 . S
C39 H105 0.929 . S
C40 C15 1.553 1_455 S
C40 C39 1.365 . S
C40 C41 1.421 . S
C41 C40 1.421 . S
C41 C42 1.361 1_455 S
C41 C52 1.471 . S
C42 C41 1.361 1_655 S
C42 C43 1.322 . S
C42 H106 0.930 . S
C43 C42 1.322 . S
C43 C44 1.459 . S
C43 H107 0.929 . S
C44 C43 1.459 . S
C44 C45 1.445 . S
C44 C53 1.395 1_655 S
C45 C23 1.432 . S
C45 C44 1.445 . S
C45 C46 1.370 . S
C46 C45 1.370 . S
C46 C47 1.438 1_655 S
C46 H108 0.930 . S
C47 C33 1.497 . S
C47 C46 1.438 1_455 S
C47 C48 1.360 . S
C48 C47 1.360 . S
C48 C49 1.401 . S
C48 C53 1.446 . S
C49 C48 1.401 . S
C49 C50 1.347 . S
C49 H109 0.929 . S
C50 C49 1.347 . S
C50 C51 1.455 . S
C50 H110 0.930 . S
C51 C38 1.412 . S
C51 C50 1.455 . S
C51 C52 1.331 . S
C52 C41 1.471 . S
C52 C51 1.331 . S
C52 C53 1.497 . S
C53 C44 1.395 1_455 S
C53 C48 1.446 . S
C53 C52 1.497 . S
C54 C55 1.582 . S
C54 H111 0.962 . S
C54 H112 0.959 . S
C54 H113 0.958 . S
C55 C54 1.582 . S
C55 O58 1.458 . S
C55 H84 0.980 . S
O56 C1 1.426 . S
O56 C2 1.334 . S
O57 C29 1.412 . S
O57 C30 1.393 . S
O58 C20 1.435 . S
O58 C55 1.458 . S
O59 C11 1.468 . S
O59 C12 1.408 . S
H60 C1 0.980 . S
H61 C0 0.959 . S
H62 C0 0.959 . S
H63 C0 0.960 . S
H64 C3 0.929 . S
H65 C7 0.929 . S
H66 C8 0.959 . S
H67 C8 0.961 . S
H68 C8 0.961 . S
H69 C9 0.960 . S
H70 C9 0.960 . S
H71 C9 0.961 . S
H72 C11 0.980 . S
H73 C10 0.961 . S
H74 C10 0.960 . S
H75 C10 0.959 . S
H76 C13 0.930 . S
H77 C17 0.931 . S
H78 C18 0.959 1_455 S
H79 C18 0.960 1_455 S
H80 C18 0.959 . S
H81 C19 0.960 . S
H82 C19 0.960 1_455 S
H83 C19 0.960 . S
H84 C55 0.980 . S
H85 C21 0.930 . S
H86 C25 0.930 . S
H87 C26 0.961 . S
H88 C26 0.960 . S
H89 C26 0.958 . S
H90 C27 0.961 . S
H91 C27 0.960 . S
H92 C27 0.960 . S
H93 C29 0.980 . S
H94 C28 0.961 . S
H95 C28 0.961 . S
H96 C28 0.959 . S
H97 C31 0.932 . S
H98 C35 0.929 . S
H99 C36 0.961 . S
H100 C36 0.939 1_655 S
H101 C36 0.959 . S
H102 C37 0.960 . S
H103 C37 0.962 . S
H104 C37 0.961 . S
H105 C39 0.929 . S
H106 C42 0.930 . S
H107 C43 0.929 . S
H108 C46 0.930 . S
H109 C49 0.929 . S
H110 C50 0.930 . S
H111 C54 0.962 . S
H112 C54 0.959 . S
H113 C54 0.958 . S
C114 C115 1.560 . S
C114 H175 0.959 . S
C114 H176 0.959 . S
C114 H177 0.960 . S
C115 C114 1.560 . S
C115 O170 1.426 . S
C115 H174 0.980 . S
C116 C117 1.407 . S
C116 C121 1.418 . S
C116 O170 1.334 . S
C117 C116 1.407 . S
C117 C118 1.360 . S
C117 H178 0.929 . S
C118 C117 1.360 . S
C118 C119 1.401 . S
C118 C122 1.527 . S
C119 C118 1.401 . S
C119 C120 1.405 . S
C119 C152 1.587 . S
C120 C119 1.405 . S
C120 C121 1.332 . S
C120 C123 1.496 . S
C121 C116 1.418 . S
C121 C120 1.332 . S
C121 H179 0.929 . S
C122 C118 1.527 . S
C122 H180 0.959 . S
C122 H181 0.961 . S
C122 H182 0.961 . S
C123 C120 1.496 . S
C123 H183 0.960 . S
C123 H184 0.960 . S
C123 H185 0.961 . S
C124 C125 1.517 . S
C124 H187 0.961 . S
C124 H188 0.960 . S
C124 H189 0.959 . S
C125 C124 1.517 . S
C125 O173 1.468 . S
C125 H186 0.980 . S
C126 C127 1.349 . S
C126 C131 1.367 . S
C126 O173 1.408 . S
C127 C126 1.349 . S
C127 C128 1.407 . S
C127 H190 0.930 . S
C128 C127 1.407 . S
C128 C129 1.449 . S
C128 C132 1.535 . S
C129 C128 1.449 . S
C129 C130 1.384 . S
C129 C154 1.553 . S
C130 C129 1.384 . S
C130 C131 1.364 . S
C130 C133 1.450 . S
C131 C126 1.367 . S
C131 C130 1.364 . S
C131 H191 0.931 . S
C132 C128 1.535 . S
C132 H192 0.959 . S
C132 H193 0.961 . S
C132 H194 0.959 . S
C133 C130 1.450 . S
C133 H195 0.960 . S
C133 H196 0.960 . S
C133 H197 0.960 . S
C134 C135 1.309 . S
C134 C139 1.304 . S
C134 O172 1.435 . S
C135 C134 1.309 . S
C135 C136 1.476 . S
C135 H199 0.930 . S
C136 C135 1.476 . S
C136 C137 1.400 . S
C136 C140 1.567 . S
C137 C136 1.400 . S
C137 C138 1.373 . S
C137 C159 1.432 . S
C138 C137 1.373 . S
C138 C139 1.339 . S
C138 C141 1.530 . S
C139 C134 1.304 . S
C139 C138 1.339 . S
C139 H200 0.930 . S
C140 C136 1.567 . S
C140 H201 0.961 . S
C140 H202 0.960 . S
C140 H203 0.958 . S
C141 C138 1.530 . S
C141 H204 0.961 . S
C141 H205 0.960 . S
C141 H206 0.960 . S
C142 C143 1.530 . S
C142 H208 0.961 . S
C142 H209 0.961 . S
C142 H210 0.959 . S
C143 C142 1.530 . S
C143 O171 1.412 . S
C143 H207 0.980 . S
C144 C145 1.288 . S
C144 C149 1.377 . S
C144 O171 1.393 . S
C145 C144 1.288 . S
C145 C146 1.369 . S
C145 H211 0.932 . S
C146 C145 1.369 . S
C146 C147 1.398 . S
C146 C150 1.527 . S
C147 C146 1.398 . S
C147 C148 1.380 . S
C147 C161 1.497 1_565 S
C148 C147 1.380 . S
C148 C149 1.383 . S
C148 C151 1.603 . S
C149 C144 1.377 . S
C149 C148 1.383 . S
C149 H212 0.929 . S
C150 C146 1.527 . S
C150 H213 0.961 . S
C150 H214 0.959 1_565 S
C150 H215 0.959 . S
C151 C148 1.603 . S
C151 H216 0.960 . S
C151 H217 0.962 . S
C151 H218 0.961 . S
C152 C119 1.587 . S
C152 C153 1.360 . S
C152 C165 1.412 . S
C153 C152 1.360 . S
C153 C154 1.365 1_565 S
C153 H219 0.929 . S
C154 C129 1.553 . S
C154 C153 1.365 1_545 S
C154 C155 1.404 . S
C155 C154 1.404 . S
C155 C156 1.395 . S
C155 C166 1.451 1_545 S
C156 C155 1.395 . S
C156 C157 1.322 . S
C156 H220 0.930 . S
C157 C156 1.322 . S
C157 C158 1.459 . S
C157 H221 0.929 . S
C158 C157 1.459 . S
C158 C159 1.445 . S
C158 C167 1.395 . S
C159 C137 1.432 . S
C159 C158 1.445 . S
C159 C160 1.370 . S
C160 C159 1.370 . S
C160 C161 1.438 . S
C160 H222 0.930 . S
C161 C147 1.497 1_545 S
C161 C160 1.438 . S
C161 C162 1.360 1_545 S
C162 C161 1.360 1_565 S
C162 C163 1.401 . S
C162 C167 1.446 1_565 S
C163 C162 1.401 . S
C163 C164 1.347 . S
C163 H223 0.929 . S
C164 C163 1.347 . S
C164 C165 1.455 . S
C164 H224 0.930 . S
C165 C152 1.412 . S
C165 C164 1.455 . S
C165 C166 1.331 . S
C166 C155 1.451 1_565 S
C166 C165 1.331 . S
C166 C167 1.497 1_565 S
C167 C158 1.395 . S
C167 C162 1.446 1_545 S
C167 C166 1.497 1_545 S
C168 C169 1.582 . S
C168 H225 0.962 . S
C168 H226 0.959 . S
C168 H227 0.958 . S
C169 C168 1.582 . S
C169 O172 1.458 . S
C169 H198 0.980 . S
O170 C115 1.426 . S
O170 C116 1.334 . S
O171 C143 1.412 . S
O171 C144 1.393 . S
O172 C134 1.435 . S
O172 C169 1.458 . S
O173 C125 1.468 . S
O173 C126 1.408 . S
H174 C115 0.980 . S
H175 C114 0.959 . S
H176 C114 0.959 . S
H177 C114 0.960 . S
H178 C117 0.929 . S
H179 C121 0.929 . S
H180 C122 0.959 . S
H181 C122 0.961 . S
H182 C122 0.961 . S
H183 C123 0.960 . S
H184 C123 0.960 . S
H185 C123 0.961 . S
H186 C125 0.980 . S
H187 C124 0.961 . S
H188 C124 0.960 . S
H189 C124 0.959 . S
H190 C127 0.930 . S
H191 C131 0.931 . S
H192 C132 0.959 . S
H193 C132 0.961 . S
H194 C132 0.959 . S
H195 C133 0.960 . S
H196 C133 0.960 . S
H197 C133 0.960 . S
H198 C169 0.980 . S
H199 C135 0.930 . S
H200 C139 0.930 . S
H201 C140 0.961 . S
H202 C140 0.960 . S
H203 C140 0.958 . S
H204 C141 0.961 . S
H205 C141 0.960 . S
H206 C141 0.960 . S
H207 C143 0.980 . S
H208 C142 0.961 . S
H209 C142 0.961 . S
H210 C142 0.959 . S
H211 C145 0.932 . S
H212 C149 0.929 . S
H213 C150 0.961 . S
H214 C150 0.959 1_545 S
H215 C150 0.959 . S
H216 C151 0.960 . S
H217 C151 0.962 . S
H218 C151 0.961 . S
H219 C153 0.929 . S
H220 C156 0.930 . S
H221 C157 0.929 . S
H222 C160 0.930 . S
H223 C163 0.929 . S
H224 C164 0.930 . S
H225 C168 0.962 . S
H226 C168 0.959 . S
H227 C168 0.958 . S
C228 C229 1.560 . S
C228 H289 0.959 . S
C228 H290 0.959 . S
C228 H291 0.960 . S
C229 C228 1.560 . S
C229 O284 1.426 . S
C229 H288 0.980 . S
C230 C231 1.407 . S
C230 C235 1.418 . S
C230 O284 1.334 . S
C231 C230 1.407 . S
C231 C232 1.360 . S
C231 H292 0.929 . S
C232 C231 1.360 . S
C232 C233 1.401 . S
C232 C236 1.527 . S
C233 C232 1.401 . S
C233 C234 1.405 . S
C233 C266 1.587 . S
C234 C233 1.405 . S
C234 C235 1.332 . S
C234 C237 1.496 . S
C235 C230 1.418 . S
C235 C234 1.332 . S
C235 H293 0.929 . S
C236 C232 1.527 . S
C236 H294 0.959 . S
C236 H295 0.961 . S
C236 H296 0.961 . S
C237 C234 1.496 . S
C237 H297 0.960 . S
C237 H298 0.960 . S
C237 H299 0.961 . S
C238 C239 1.517 . S
C238 H301 0.961 . S
C238 H302 0.960 . S
C238 H303 0.959 . S
C239 C238 1.517 . S
C239 O287 1.468 . S
C239 H300 0.980 . S
C240 C241 1.349 . S
C240 C245 1.367 . S
C240 O287 1.408 . S
C241 C240 1.349 . S
C241 C242 1.407 . S
C241 H304 0.930 . S
C242 C241 1.407 . S
C242 C243 1.449 . S
C242 C246 1.535 . S
C243 C242 1.449 . S
C243 C244 1.384 . S
C243 C268 1.553 . S
C244 C243 1.384 . S
C244 C245 1.364 . S
C244 C247 1.450 . S
C245 C240 1.367 . S
C245 C244 1.364 . S
C245 H305 0.931 . S
C246 C242 1.535 . S
C246 H306 0.959 . S
C246 H307 0.961 . S
C246 H308 0.959 . S
C247 C244 1.450 . S
C247 H309 0.960 . S
C247 H310 0.960 . S
C247 H311 0.960 . S
C248 C249 1.309 . S
C248 C253 1.304 . S
C248 O286 1.435 . S
C249 C248 1.309 . S
C249 C250 1.476 . S
C249 H313 0.930 . S
C250 C249 1.476 . S
C250 C251 1.400 . S
C250 C254 1.567 . S
C251 C250 1.400 . S
C251 C252 1.373 . S
C251 C273 1.432 . S
C252 C251 1.373 . S
C252 C253 1.339 . S
C252 C255 1.530 . S
C253 C248 1.304 . S
C253 C252 1.339 . S
C253 H314 0.930 . S
C254 C250 1.567 . S
C254 H315 0.961 . S
C254 H316 0.960 . S
C254 H317 0.958 . S
C255 C252 1.530 . S
C255 H318 0.961 . S
C255 H319 0.960 . S
C255 H320 0.960 . S
C256 C257 1.530 . S
C256 H322 0.961 . S
C256 H323 0.961 . S
C256 H324 0.959 . S
C257 C256 1.530 . S
C257 O285 1.412 . S
C257 H321 0.980 . S
C258 C259 1.288 . S
C258 C263 1.377 . S
C258 O285 1.393 . S
C259 C258 1.288 . S
C259 C260 1.369 . S
C259 H325 0.932 . S
C260 C259 1.369 . S
C260 C261 1.398 . S
C260 C264 1.527 . S
C261 C260 1.398 . S
C261 C262 1.380 . S
C261 C275 1.497 . S
C262 C261 1.380 . S
C262 C263 1.383 . S
C262 C265 1.603 . S
C263 C258 1.377 . S
C263 C262 1.383 . S
C263 H326 0.929 . S
C264 C260 1.527 . S
C264 H327 0.961 . S
C264 H328 0.959 . S
C264 H329 0.959 . S
C265 C262 1.603 . S
C265 H330 0.960 . S
C265 H331 0.962 . S
C265 H332 0.961 . S
C266 C233 1.587 . S
C266 C267 1.360 . S
C266 C279 1.412 . S
C267 C266 1.360 . S
C267 C268 1.365 . S
C267 H333 0.929 . S
C268 C243 1.553 . S
C268 C267 1.365 . S
C268 C269 1.404 . S
C269 C268 1.404 . S
C269 C270 1.395 . S
C269 C280 1.451 . S
C270 C269 1.395 . S
C270 C271 1.322 . S
C270 H334 0.930 . S
C271 C270 1.322 . S
C271 C272 1.459 . S
C271 H335 0.929 . S
C272 C271 1.459 . S
C272 C273 1.445 . S
C272 C281 1.395 . S
C273 C251 1.432 . S
C273 C272 1.445 . S
C273 C274 1.370 . S
C274 C273 1.370 . S
C274 C275 1.438 . S
C274 H336 0.930 . S
C275 C261 1.497 . S
C275 C274 1.438 . S
C275 C276 1.360 . S
C276 C275 1.360 . S
C276 C277 1.401 . S
C276 C281 1.446 . S
C277 C276 1.401 . S
C277 C278 1.347 . S
C277 H337 0.929 . S
C278 C277 1.347 . S
C278 C279 1.455 . S
C278 H338 0.930 . S
C279 C266 1.412 . S
C279 C278 1.455 . S
C279 C280 1.331 . S
C280 C269 1.451 . S
C280 C279 1.331 . S
C280 C281 1.497 . S
C281 C272 1.395 . S
C281 C276 1.446 . S
C281 C280 1.497 . S
C282 C283 1.582 . S
C282 H339 0.962 . S
C282 H340 0.959 . S
C282 H341 0.958 . S
C283 C282 1.582 . S
C283 O286 1.458 . S
C283 H312 0.980 . S
O284 C229 1.426 . S
O284 C230 1.334 . S
O285 C257 1.412 . S
O285 C258 1.393 . S
O286 C248 1.435 . S
O286 C283 1.458 . S
O287 C239 1.468 . S
O287 C240 1.408 . S
H288 C229 0.980 . S
H289 C228 0.959 . S
H290 C228 0.959 . S
H291 C228 0.960 . S
H292 C231 0.929 . S
H293 C235 0.929 . S
H294 C236 0.959 . S
H295 C236 0.961 . S
H296 C236 0.961 . S
H297 C237 0.960 . S
H298 C237 0.960 . S
H299 C237 0.961 . S
H300 C239 0.980 . S
H301 C238 0.961 . S
H302 C238 0.960 . S
H303 C238 0.959 . S
H304 C241 0.930 . S
H305 C245 0.931 . S
H306 C246 0.959 . S
H307 C246 0.961 . S
H308 C246 0.959 . S
H309 C247 0.960 . S
H310 C247 0.960 . S
H311 C247 0.960 . S
H312 C283 0.980 . S
H313 C249 0.930 . S
H314 C253 0.930 . S
H315 C254 0.961 . S
H316 C254 0.960 . S
H317 C254 0.958 . S
H318 C255 0.961 . S
H319 C255 0.960 . S
H320 C255 0.960 . S
H321 C257 0.980 . S
H322 C256 0.961 . S
H323 C256 0.961 . S
H324 C256 0.959 . S
H325 C259 0.932 . S
H326 C263 0.929 . S
H327 C264 0.961 . S
H328 C264 0.959 . S
H329 C264 0.959 . S
H330 C265 0.960 . S
H331 C265 0.962 . S
H332 C265 0.961 . S
H333 C267 0.929 . S
H334 C270 0.930 . S
H335 C271 0.929 . S
H336 C274 0.930 . S
H337 C277 0.929 . S
H338 C278 0.930 . S
H339 C282 0.962 . S
H340 C282 0.959 . S
H341 C282 0.958 . S
C342 C343 1.560 . S
C342 H403 0.959 . S
C342 H404 0.959 . S
C342 H405 0.960 . S
C343 C342 1.560 . S
C343 O398 1.426 . S
C343 H402 0.980 . S
C344 C345 1.407 . S
C344 C349 1.418 . S
C344 O398 1.334 . S
C345 C344 1.407 . S
C345 C346 1.360 . S
C345 H406 0.929 . S
C346 C345 1.360 . S
C346 C347 1.401 . S
C346 C350 1.527 . S
C347 C346 1.401 . S
C347 C348 1.405 . S
C347 C380 1.587 . S
C348 C347 1.405 . S
C348 C349 1.332 . S
C348 C351 1.496 . S
C349 C344 1.418 . S
C349 C348 1.332 . S
C349 H407 0.929 . S
C350 C346 1.527 . S
C350 H408 0.959 . S
C350 H409 0.961 . S
C350 H410 0.961 . S
C351 C348 1.496 . S
C351 H411 0.960 . S
C351 H412 0.960 . S
C351 H413 0.961 . S
C352 C353 1.517 . S
C352 H415 0.961 . S
C352 H416 0.960 . S
C352 H417 0.959 . S
C353 C352 1.517 . S
C353 O401 1.468 . S
C353 H414 0.980 . S
C354 C355 1.349 . S
C354 C359 1.367 . S
C354 O401 1.408 . S
C355 C354 1.349 . S
C355 C356 1.407 . S
C355 H418 0.930 . S
C356 C355 1.407 . S
C356 C357 1.446 . S
C356 C360 1.492 1_655 S
C357 C356 1.446 . S
C357 C358 1.395 . S
C357 C382 1.545 1_655 S
C358 C357 1.395 . S
C358 C359 1.364 . S
C358 C361 1.445 . S
C359 C354 1.367 . S
C359 C358 1.364 . S
C359 H419 0.931 . S
C360 C356 1.492 1_455 S
C360 H420 0.998 . S
C360 H421 0.995 . S
C360 H422 0.935 1_455 S
C361 C358 1.445 . S
C361 H423 0.991 . S
C361 H424 0.916 1_655 S
C361 H425 0.981 . S
C362 C363 1.309 . S
C362 C367 1.304 . S
C362 O400 1.435 . S
C363 C362 1.309 . S
C363 C364 1.476 . S
C363 H427 0.930 . S
C364 C363 1.476 . S
C364 C365 1.400 . S
C364 C368 1.567 . S
C365 C364 1.400 . S
C365 C366 1.373 . S
C365 C387 1.432 . S
C366 C365 1.373 . S
C366 C367 1.339 . S
C366 C369 1.530 . S
C367 C362 1.304 . S
C367 C366 1.339 . S
C367 H428 0.930 . S
C368 C364 1.567 . S
C368 H429 0.961 . S
C368 H430 0.960 . S
C368 H431 0.958 . S
C369 C366 1.530 . S
C369 H432 0.961 . S
C369 H433 0.960 . S
C369 H434 0.960 . S
C370 C371 1.530 . S
C370 H436 0.961 . S
C370 H437 0.961 . S
C370 H438 0.959 . S
C371 C370 1.530 . S
C371 O399 1.412 . S
C371 H435 0.980 . S
C372 C373 1.288 . S
C372 C377 1.377 . S
C372 O399 1.393 . S
C373 C372 1.288 . S
C373 C374 1.369 . S
C373 H439 0.932 . S
C374 C373 1.369 . S
C374 C375 1.398 . S
C374 C378 1.527 . S
C375 C374 1.398 . S
C375 C376 1.380 . S
C375 C389 1.497 . S
C376 C375 1.380 . S
C376 C377 1.383 . S
C376 C379 1.603 . S
C377 C372 1.377 . S
C377 C376 1.383 . S
C377 H440 0.929 . S
C378 C374 1.527 . S
C378 H441 0.961 . S
C378 H442 0.959 . S
C378 H443 0.959 . S
C379 C376 1.603 . S
C379 H444 0.960 . S
C379 H445 0.962 . S
C379 H446 0.961 . S
C380 C347 1.587 . S
C380 C381 1.360 . S
C380 C393 1.412 . S
C381 C380 1.360 . S
C381 C382 1.365 . S
C381 H447 0.929 . S
C382 C357 1.545 1_455 S
C382 C381 1.365 . S
C382 C383 1.404 . S
C383 C382 1.404 . S
C383 C384 1.395 1_455 S
C383 C394 1.451 . S
C384 C383 1.395 1_655 S
C384 C385 1.322 . S
C384 H448 0.930 . S
C385 C384 1.322 . S
C385 C386 1.459 . S
C385 H449 0.929 . S
C386 C385 1.459 . S
C386 C387 1.445 . S
C386 C395 1.395 1_655 S
C387 C365 1.432 . S
C387 C386 1.445 . S
C387 C388 1.370 . S
C388 C387 1.370 . S
C388 C389 1.438 1_655 S
C388 H450 0.930 . S
C389 C375 1.497 . S
C389 C388 1.438 1_455 S
C389 C390 1.360 . S
C390 C389 1.360 . S
C390 C391 1.401 . S
C390 C395 1.446 . S
C391 C390 1.401 . S
C391 C392 1.347 . S
C391 H451 0.929 . S
C392 C391 1.347 . S
C392 C393 1.455 . S
C392 H452 0.930 . S
C393 C380 1.412 . S
C393 C392 1.455 . S
C393 C394 1.331 . S
C394 C383 1.451 . S
C394 C393 1.331 . S
C394 C395 1.497 . S
C395 C386 1.395 1_455 S
C395 C390 1.446 . S
C395 C394 1.497 . S
C396 C397 1.582 . S
C396 H453 0.962 . S
C396 H454 0.959 . S
C396 H455 0.958 . S
C397 C396 1.582 . S
C397 O400 1.458 . S
C397 H426 0.980 . S
O398 C343 1.426 . S
O398 C344 1.334 . S
O399 C371 1.412 . S
O399 C372 1.393 . S
O400 C362 1.435 . S
O400 C397 1.458 . S
O401 C353 1.468 . S
O401 C354 1.408 . S
H402 C343 0.980 . S
H403 C342 0.959 . S
H404 C342 0.959 . S
H405 C342 0.960 . S
H406 C345 0.929 . S
H407 C349 0.929 . S
H408 C350 0.959 . S
H409 C350 0.961 . S
H410 C350 0.961 . S
H411 C351 0.960 . S
H412 C351 0.960 . S
H413 C351 0.961 . S
H414 C353 0.980 . S
H415 C352 0.961 . S
H416 C352 0.960 . S
H417 C352 0.959 . S
H418 C355 0.930 . S
H419 C359 0.931 . S
H420 C360 0.998 . S
H421 C360 0.995 . S
H422 C360 0.935 1_655 S
H423 C361 0.991 . S
H424 C361 0.916 1_455 S
H425 C361 0.981 . S
H426 C397 0.980 . S
H427 C363 0.930 . S
H428 C367 0.930 . S
H429 C368 0.961 . S
H430 C368 0.960 . S
H431 C368 0.958 . S
H432 C369 0.961 . S
H433 C369 0.960 . S
H434 C369 0.960 . S
H435 C371 0.980 . S
H436 C370 0.961 . S
H437 C370 0.961 . S
H438 C370 0.959 . S
H439 C373 0.932 . S
H440 C377 0.929 . S
H441 C378 0.961 . S
H442 C378 0.959 . S
H443 C378 0.959 . S
H444 C379 0.960 . S
H445 C379 0.962 . S
H446 C379 0.961 . S
H447 C381 0.929 . S
H448 C384 0.930 . S
H449 C385 0.929 . S
H450 C388 0.930 . S
H451 C391 0.929 . S
H452 C392 0.930 . S
H453 C396 0.962 . S
H454 C396 0.959 . S
H455 C396 0.958 . S
C456 C457 1.560 . S
C456 H517 0.959 . S
C456 H518 0.959 . S
C456 H519 0.960 . S
C457 C456 1.560 . S
C457 O512 1.426 . S
C457 H516 0.980 . S
C458 C459 1.407 . S
C458 C463 1.418 . S
C458 O512 1.334 . S
C459 C458 1.407 . S
C459 C460 1.360 . S
C459 H520 0.929 . S
C460 C459 1.360 . S
C460 C461 1.401 . S
C460 C464 1.527 . S
C461 C460 1.401 . S
C461 C462 1.405 . S
C461 C494 1.587 . S
C462 C461 1.405 . S
C462 C463 1.332 . S
C462 C465 1.496 . S
C463 C458 1.418 . S
C463 C462 1.332 . S
C463 H521 0.929 . S
C464 C460 1.527 . S
C464 H522 0.959 . S
C464 H523 0.961 . S
C464 H524 0.961 . S
C465 C462 1.496 . S
C465 H525 0.960 . S
C465 H526 0.960 . S
C465 H527 0.961 . S
C466 C467 1.517 . S
C466 H529 0.961 . S
C466 H530 0.960 . S
C466 H531 0.959 . S
C467 C466 1.517 . S
C467 O515 1.468 . S
C467 H528 0.980 . S
C468 C469 1.349 . S
C468 C473 1.367 . S
C468 O515 1.408 . S
C469 C468 1.349 . S
C469 C470 1.407 . S
C469 H532 0.930 . S
C470 C469 1.407 . S
C470 C471 1.449 . S
C470 C474 1.535 . S
C471 C470 1.449 . S
C471 C472 1.384 . S
C471 C496 1.553 . S
C472 C471 1.384 . S
C472 C473 1.364 . S
C472 C475 1.450 . S
C473 C468 1.367 . S
C473 C472 1.364 . S
C473 H533 0.931 . S
C474 C470 1.535 . S
C474 H534 0.959 . S
C474 H535 0.961 . S
C474 H536 0.959 . S
C475 C472 1.450 . S
C475 H537 0.960 . S
C475 H538 0.960 . S
C475 H539 0.960 . S
C476 C477 1.309 . S
C476 C481 1.304 . S
C476 O514 1.435 . S
C477 C476 1.309 . S
C477 C478 1.476 . S
C477 H541 0.930 . S
C478 C477 1.476 . S
C478 C479 1.400 . S
C478 C482 1.567 . S
C479 C478 1.400 . S
C479 C480 1.373 . S
C479 C501 1.432 . S
C480 C479 1.373 . S
C480 C481 1.339 . S
C480 C483 1.530 . S
C481 C476 1.304 . S
C481 C480 1.339 . S
C481 H542 0.930 . S
C482 C478 1.567 . S
C482 H543 0.961 . S
C482 H544 0.960 . S
C482 H545 0.958 . S
C483 C480 1.530 . S
C483 H546 0.961 . S
C483 H547 0.960 . S
C483 H548 0.960 . S
C484 C485 1.530 . S
C484 H550 0.961 . S
C484 H551 0.961 . S
C484 H552 0.959 . S
C485 C484 1.530 . S
C485 O513 1.412 . S
C485 H549 0.980 . S
C486 C487 1.288 . S
C486 C491 1.377 . S
C486 O513 1.393 . S
C487 C486 1.288 . S
C487 C488 1.369 . S
C487 H553 0.932 . S
C488 C487 1.369 . S
C488 C489 1.398 . S
C488 C492 1.527 1_565 S
C489 C488 1.398 . S
C489 C490 1.380 . S
C489 C503 1.497 1_565 S
C490 C489 1.380 . S
C490 C491 1.383 . S
C490 C493 1.603 . S
C491 C486 1.377 . S
C491 C490 1.383 . S
C491 H554 0.929 . S
C492 C488 1.527 1_545 S
C492 H555 0.961 . S
C492 H556 0.959 . S
C492 H557 0.959 1_545 S
C493 C490 1.603 . S
C493 H558 0.960 . S
C493 H559 0.962 . S
C493 H560 0.961 . S
C494 C461 1.587 . S
C494 C495 1.360 . S
C494 C507 1.412 . S
C495 C494 1.360 . S
C495 C496 1.365 1_565 S
C495 H561 0.929 . S
C496 C471 1.553 . S
C496 C495 1.365 1_545 S
C496 C497 1.404 . S
C497 C496 1.404 . S
C497 C498 1.395 . S
C497 C508 1.451 . S
C498 C497 1.395 . S
C498 C499 1.322 . S
C498 H562 0.930 . S
C499 C498 1.322 . S
C499 C500 1.459 . S
C499 H563 0.929 . S
C500 C499 1.459 . S
C500 C501 1.445 1_556 S
C500 C509 1.395 . S
C501 C479 1.432 . S
C501 C500 1.445 1_554 S
C501 C502 1.370 . S
C502 C501 1.370 . S
C502 C503 1.438 . S
C502 H564 0.930 . S
C503 C489 1.497 1_545 S
C503 C502 1.438 . S
C503 C504 1.360 1_545 S
C504 C503 1.360 1_565 S
C504 C505 1.401 . S
C504 C509 1.446 1_564 S
C505 C504 1.401 . S
C505 C506 1.347 1_554 S
C505 H565 0.929 . S
C506 C505 1.347 1_556 S
C506 C507 1.455 . S
C506 H566 0.930 . S
C507 C494 1.412 . S
C507 C506 1.455 . S
C507 C508 1.331 1_565 S
C508 C497 1.451 . S
C508 C507 1.331 1_545 S
C508 C509 1.497 . S
C509 C500 1.395 . S
C509 C504 1.446 1_546 S
C509 C508 1.497 . S
C510 C511 1.582 . S
C510 H567 0.962 . S
C510 H568 0.959 . S
C510 H569 0.958 . S
C511 C510 1.582 . S
C511 O514 1.458 . S
C511 H540 0.980 . S
O512 C457 1.426 . S
O512 C458 1.334 . S
O513 C485 1.412 . S
O513 C486 1.393 . S
O514 C476 1.435 . S
O514 C511 1.458 . S
O515 C467 1.468 . S
O515 C468 1.408 . S
H516 C457 0.980 . S
H517 C456 0.959 . S
H518 C456 0.959 . S
H519 C456 0.960 . S
H520 C459 0.929 . S
H521 C463 0.929 . S
H522 C464 0.959 . S
H523 C464 0.961 . S
H524 C464 0.961 . S
H525 C465 0.960 . S
H526 C465 0.960 . S
H527 C465 0.961 . S
H528 C467 0.980 . S
H529 C466 0.961 . S
H530 C466 0.960 . S
H531 C466 0.959 . S
H532 C469 0.930 . S
H533 C473 0.931 . S
H534 C474 0.959 . S
H535 C474 0.961 . S
H536 C474 0.959 . S
H537 C475 0.960 . S
H538 C475 0.960 . S
H539 C475 0.960 . S
H540 C511 0.980 . S
H541 C477 0.930 . S
H542 C481 0.930 . S
H543 C482 0.961 . S
H544 C482 0.960 . S
H545 C482 0.958 . S
H546 C483 0.961 . S
H547 C483 0.960 . S
H548 C483 0.960 . S
H549 C485 0.980 . S
H550 C484 0.961 . S
H551 C484 0.961 . S
H552 C484 0.959 . S
H553 C487 0.932 . S
H554 C491 0.929 . S
H555 C492 0.961 . S
H556 C492 0.959 . S
H557 C492 0.959 1_565 S
H558 C493 0.960 . S
H559 C493 0.962 . S
H560 C493 0.961 . S
H561 C495 0.929 . S
H562 C498 0.930 . S
H563 C499 0.929 . S
H564 C502 0.930 . S
H565 C505 0.929 . S
H566 C506 0.930 . S
H567 C510 0.962 . S
H568 C510 0.959 . S
H569 C510 0.958 . S
C570 C571 1.560 . S
C570 H631 0.959 . S
C570 H632 0.959 . S
C570 H633 0.960 . S
C571 C570 1.560 . S
C571 O626 1.426 . S
C571 H630 0.980 . S
C572 C573 1.407 . S
C572 C577 1.418 . S
C572 O626 1.334 . S
C573 C572 1.407 . S
C573 C574 1.360 . S
C573 H634 0.929 . S
C574 C573 1.360 . S
C574 C575 1.401 . S
C574 C578 1.527 . S
C575 C574 1.401 . S
C575 C576 1.405 . S
C575 C608 1.587 . S
C576 C575 1.405 . S
C576 C577 1.332 . S
C576 C579 1.496 . S
C577 C572 1.418 . S
C577 C576 1.332 . S
C577 H635 0.929 . S
C578 C574 1.527 . S
C578 H636 0.959 . S
C578 H637 0.961 . S
C578 H638 0.961 . S
C579 C576 1.496 . S
C579 H639 0.960 . S
C579 H640 0.960 . S
C579 H641 0.961 . S
C580 C581 1.517 . S
C580 H643 0.961 . S
C580 H644 0.960 . S
C580 H645 0.959 . S
C581 C580 1.517 . S
C581 O629 1.468 . S
C581 H642 0.980 . S
C582 C583 1.349 . S
C582 C587 1.367 . S
C582 O629 1.408 . S
C583 C582 1.349 . S
C583 C584 1.407 . S
C583 H646 0.930 . S
C584 C583 1.407 . S
C584 C585 1.449 . S
C584 C588 1.535 . S
C585 C584 1.449 . S
C585 C586 1.384 . S
C585 C610 1.553 . S
C586 C585 1.384 . S
C586 C587 1.364 . S
C586 C589 1.450 . S
C587 C582 1.367 . S
C587 C586 1.364 . S
C587 H647 0.931 . S
C588 C584 1.535 . S
C588 H648 0.959 . S
C588 H649 0.961 . S
C588 H650 0.959 . S
C589 C586 1.450 . S
C589 H651 0.960 . S
C589 H652 0.960 . S
C589 H653 0.960 . S
C590 C591 1.309 . S
C590 C595 1.304 . S
C590 O628 1.435 . S
C591 C590 1.309 . S
C591 C592 1.476 . S
C591 H655 0.930 . S
C592 C591 1.476 . S
C592 C593 1.400 . S
C592 C596 1.567 . S
C593 C592 1.400 . S
C593 C594 1.373 . S
C593 C615 1.432 . S
C594 C593 1.373 . S
C594 C595 1.339 . S
C594 C597 1.530 . S
C595 C590 1.304 . S
C595 C594 1.339 . S
C595 H656 0.930 . S
C596 C592 1.567 . S
C596 H657 0.961 . S
C596 H658 0.960 . S
C596 H659 0.958 . S
C597 C594 1.530 . S
C597 H660 0.961 . S
C597 H661 0.960 . S
C597 H662 0.960 . S
C598 C599 1.530 . S
C598 H664 0.961 . S
C598 H665 0.961 . S
C598 H666 0.959 . S
C599 C598 1.530 . S
C599 O627 1.412 . S
C599 H663 0.980 . S
C600 C601 1.288 . S
C600 C605 1.377 . S
C600 O627 1.393 . S
C601 C600 1.288 . S
C601 C602 1.369 . S
C601 H667 0.932 . S
C602 C601 1.369 . S
C602 C603 1.398 . S
C602 C606 1.527 . S
C603 C602 1.398 . S
C603 C604 1.380 . S
C603 C617 1.497 . S
C604 C603 1.380 . S
C604 C605 1.383 . S
C604 C607 1.603 . S
C605 C600 1.377 . S
C605 C604 1.383 . S
C605 H668 0.929 . S
C606 C602 1.527 . S
C606 H669 0.961 . S
C606 H670 0.959 . S
C606 H671 0.959 . S
C607 C604 1.603 . S
C607 H672 0.960 . S
C607 H673 0.962 . S
C607 H674 0.961 . S
C608 C575 1.587 . S
C608 C609 1.360 . S
C608 C621 1.412 . S
C609 C608 1.360 . S
C609 C610 1.365 . S
C609 H675 0.929 . S
C610 C585 1.553 . S
C610 C609 1.365 . S
C610 C611 1.404 . S
C611 C610 1.404 . S
C611 C612 1.395 . S
C611 C622 1.451 . S
C612 C611 1.395 . S
C612 C613 1.322 . S
C612 H676 0.930 . S
C613 C612 1.322 . S
C613 C614 1.459 . S
C613 H677 0.929 . S
C614 C613 1.459 . S
C614 C615 1.445 . S
C614 C623 1.395 . S
C615 C593 1.432 . S
C615 C614 1.445 . S
C615 C616 1.370 . S
C616 C615 1.370 . S
C616 C617 1.438 . S
C616 H678 0.930 . S
C617 C603 1.497 . S
C617 C616 1.438 . S
C617 C618 1.360 . S
C618 C617 1.360 . S
C618 C619 1.401 . S
C618 C623 1.446 . S
C619 C618 1.401 . S
C619 C620 1.347 . S
C619 H679 0.929 . S
C620 C619 1.347 . S
C620 C621 1.455 . S
C620 H680 0.930 . S
C621 C608 1.412 . S
C621 C620 1.455 . S
C621 C622 1.331 . S
C622 C611 1.451 . S
C622 C621 1.331 . S
C622 C623 1.497 . S
C623 C614 1.395 . S
C623 C618 1.446 . S
C623 C622 1.497 . S
C624 C625 1.582 . S
C624 H681 0.962 . S
C624 H682 0.959 . S
C624 H683 0.958 . S
C625 C624 1.582 . S
C625 O628 1.458 . S
C625 H654 0.980 . S
O626 C571 1.426 . S
O626 C572 1.334 . S
O627 C599 1.412 . S
O627 C600 1.393 . S
O628 C590 1.435 . S
O628 C625 1.458 . S
O629 C581 1.468 . S
O629 C582 1.408 . S
H630 C571 0.980 . S
H631 C570 0.959 . S
H632 C570 0.959 . S
H633 C570 0.960 . S
H634 C573 0.929 . S
H635 C577 0.929 . S
H636 C578 0.959 . S
H637 C578 0.961 . S
H638 C578 0.961 . S
H639 C579 0.960 . S
H640 C579 0.960 . S
H641 C579 0.961 . S
H642 C581 0.980 . S
H643 C580 0.961 . S
H644 C580 0.960 . S
H645 C580 0.959 . S
H646 C583 0.930 . S
H647 C587 0.931 . S
H648 C588 0.959 . S
H649 C588 0.961 . S
H650 C588 0.959 . S
H651 C589 0.960 . S
H652 C589 0.960 . S
H653 C589 0.960 . S
H654 C625 0.980 . S
H655 C591 0.930 . S
H656 C595 0.930 . S
H657 C596 0.961 . S
H658 C596 0.960 . S
H659 C596 0.958 . S
H660 C597 0.961 . S
H661 C597 0.960 . S
H662 C597 0.960 . S
H663 C599 0.980 . S
H664 C598 0.961 . S
H665 C598 0.961 . S
H666 C598 0.959 . S
H667 C601 0.932 . S
H668 C605 0.929 . S
H669 C606 0.961 . S
H670 C606 0.959 . S
H671 C606 0.959 . S
H672 C607 0.960 . S
H673 C607 0.962 . S
H674 C607 0.961 . S
H675 C609 0.929 . S
H676 C612 0.930 . S
H677 C613 0.929 . S
H678 C616 0.930 . S
H679 C619 0.929 . S
H680 C620 0.930 . S
H681 C624 0.962 . S
H682 C624 0.959 . S
H683 C624 0.958 . S
Zn684 O687 2.031 . S
Zn684 O689 2.049 . S
Zn684 O694 2.067 . S
Zn685 O686 1.962 . S
Zn685 O688 1.986 . S
Zn685 O690 1.996 . S
Zn685 O693 1.943 . S
O686 Zn685 1.962 . S
O686 C691 1.254 . S
O687 Zn684 2.031 . S
O687 C691 1.269 . S
O688 Zn685 1.986 . S
O688 C695 1.262 . S
O689 Zn684 2.049 . S
O689 C697 1.260 . S
O690 Zn685 1.996 . S
O690 C697 1.257 . S
C691 O686 1.254 . S
C691 O687 1.269 . S
C692 O693 1.249 . S
C692 O694 1.270 . S
O693 Zn685 1.943 . S
O693 C692 1.249 . S
O694 Zn684 2.067 . S
O694 C692 1.270 . S
C695 O688 1.262 . S
C695 O696 1.232 . S
O696 C695 1.232 . S
C697 O689 1.260 . S
C697 O690 1.257 . S
Zn698 O701 2.031 . S
Zn698 O703 2.049 . S
Zn698 O708 2.067 . S
Zn699 O700 1.962 . S
Zn699 O702 1.986 . S
Zn699 O704 1.996 . S
Zn699 O707 1.943 . S
O700 Zn699 1.962 . S
O700 C705 1.254 . S
O701 Zn698 2.031 . S
O701 C705 1.269 . S
O702 Zn699 1.986 . S
O702 C709 1.262 . S
O703 Zn698 2.049 . S
O703 C711 1.260 . S
O704 Zn699 1.996 . S
O704 C711 1.257 . S
C705 O700 1.254 . S
C705 O701 1.269 . S
C706 O707 1.249 . S
C706 O708 1.270 . S
O707 Zn699 1.943 . S
O707 C706 1.249 . S
O708 Zn698 2.067 . S
O708 C706 1.270 . S
C709 O702 1.262 . S
C709 O710 1.232 . S
O710 C709 1.232 . S
C711 O703 1.260 . S
C711 O704 1.257 . S
Zn712 O715 2.031 . S
Zn712 O717 2.049 . S
Zn712 O722 2.067 . S
Zn713 O714 1.962 . S
Zn713 O716 1.986 . S
Zn713 O718 1.996 . S
Zn713 O721 1.943 . S
O714 Zn713 1.962 . S
O714 C719 1.254 . S
O715 Zn712 2.031 . S
O715 C719 1.269 . S
O716 Zn713 1.986 . S
O716 C723 1.262 . S
O717 Zn712 2.049 . S
O717 C725 1.260 . S
O718 Zn713 1.996 . S
O718 C725 1.257 . S
C719 O714 1.254 . S
C719 O715 1.269 . S
C720 O721 1.249 . S
C720 O722 1.270 . S
O721 Zn713 1.943 . S
O721 C720 1.249 . S
O722 Zn712 2.067 . S
O722 C720 1.270 . S
C723 O716 1.262 . S
C723 O724 1.232 . S
O724 C723 1.232 . S
C725 O717 1.260 . S
C725 O718 1.257 . S
Zn726 O729 2.031 . S
Zn726 O731 2.049 . S
Zn726 O736 2.067 . S
Zn727 O728 1.962 . S
Zn727 O730 1.986 . S
Zn727 O732 1.996 . S
Zn727 O735 1.943 . S
O728 Zn727 1.962 . S
O728 C733 1.254 . S
O729 Zn726 2.031 . S
O729 C733 1.269 . S
O730 Zn727 1.986 . S
O730 C737 1.262 . S
O731 Zn726 2.049 . S
O731 C739 1.260 . S
O732 Zn727 1.996 . S
O732 C739 1.257 . S
C733 O728 1.254 . S
C733 O729 1.269 . S
C734 O735 1.249 . S
C734 O736 1.270 . S
O735 Zn727 1.943 . S
O735 C734 1.249 . S
O736 Zn726 2.067 . S
O736 C734 1.270 . S
C737 O730 1.262 . S
C737 O738 1.232 . S
O738 C737 1.232 . S
C739 O731 1.260 . S
C739 O732 1.257 . S
Zn740 O743 2.031 . S
Zn740 O745 2.049 . S
Zn740 O750 2.067 . S
Zn741 O742 1.962 . S
Zn741 O744 1.986 . S
Zn741 O746 1.996 . S
Zn741 O749 1.943 . S
O742 Zn741 1.962 . S
O742 C747 1.254 . S
O743 Zn740 2.031 . S
O743 C747 1.269 . S
O744 Zn741 1.986 . S
O744 C751 1.262 . S
O745 Zn740 2.049 . S
O745 C753 1.260 . S
O746 Zn741 1.996 . S
O746 C753 1.257 . S
C747 O742 1.254 . S
C747 O743 1.269 . S
C748 O749 1.249 . S
C748 O750 1.270 . S
O749 Zn741 1.943 . S
O749 C748 1.249 . S
O750 Zn740 2.067 . S
O750 C748 1.270 . S
C751 O744 1.262 . S
C751 O752 1.232 . S
O752 C751 1.232 . S
C753 O745 1.260 . S
C753 O746 1.257 . S
Zn754 O757 2.031 . S
Zn754 O759 2.049 . S
Zn754 O764 2.067 . S
Zn755 O756 1.962 . S
Zn755 O758 1.986 . S
Zn755 O760 1.996 . S
Zn755 O763 1.943 . S
O756 Zn755 1.962 . S
O756 C761 1.254 . S
O757 Zn754 2.031 . S
O757 C761 1.269 . S
O758 Zn755 1.986 . S
O758 C765 1.262 . S
O759 Zn754 2.049 . S
O759 C767 1.260 . S
O760 Zn755 1.996 . S
O760 C767 1.257 . S
C761 O756 1.254 . S
C761 O757 1.269 . S
C762 O763 1.249 . S
C762 O764 1.270 . S
O763 Zn755 1.943 . S
O763 C762 1.249 . S
O764 Zn754 2.067 . S
O764 C762 1.270 . S
C765 O758 1.262 . S
C765 O766 1.232 . S
O766 C765 1.232 . S
C767 O759 1.260 . S
C767 O760 1.257 . S
H768 C776 0.929 . S
H769 C778 0.930 . S
H770 C780 0.930 . S
H771 C783 0.929 . S
H772 C786 0.930 . S
H773 C788 0.960 . S
H774 C788 0.960 . S
H775 C788 0.960 . S
C776 H768 0.929 . S
C776 C777 1.377 . S
C776 C778 1.384 . S
C777 C776 1.377 . S
C777 C783 1.390 . S
C778 H769 0.930 . S
C778 C776 1.384 . S
C778 C779 1.372 . S
C779 C778 1.372 . S
C779 C780 1.400 . S
C779 C784 1.490 . S
C780 H770 0.930 . S
C780 C779 1.400 . S
C780 C783 1.386 . S
H781 C797 0.930 . S
H782 C798 0.931 . S
C783 H771 0.929 . S
C783 C777 1.390 . S
C783 C780 1.386 . S
C784 C779 1.490 . S
C784 C786 1.395 . S
C784 C787 1.403 . S
H785 C791 0.930 . S
C786 H772 0.930 . S
C786 C784 1.395 . S
C786 C789 1.403 . S
C787 C784 1.403 . S
C787 C788 1.524 . S
C787 C791 1.400 . S
C788 H773 0.960 . S
C788 H774 0.960 . S
C788 H775 0.960 . S
C788 C787 1.524 . S
C789 C786 1.403 . S
C789 C790 1.392 . S
C789 C793 1.495 . S
C790 C789 1.392 . S
C790 C791 1.385 . S
C790 C792 1.478 . S
C791 H785 0.930 . S
C791 C787 1.400 . S
C791 C790 1.385 . S
C792 C790 1.478 . S
C792 C794 1.381 . S
C792 C798 1.383 . S
C793 C789 1.495 . S
C793 H799 0.959 . S
C793 H800 0.961 . S
C793 H801 0.960 . S
C794 C792 1.381 . S
C794 C795 1.394 . S
C794 H802 0.930 . S
C795 C794 1.394 . S
C795 C796 1.383 . S
C795 H803 0.929 . S
C796 C795 1.383 . S
C796 C797 1.377 . S
C797 H781 0.930 . S
C797 C796 1.377 . S
C797 C798 1.379 . S
C798 H782 0.931 . S
C798 C792 1.383 . S
C798 C797 1.379 . S
H799 C793 0.959 . S
H800 C793 0.961 . S
H801 C793 0.960 . S
H802 C794 0.930 . S
H803 C795 0.929 . S
H804 C812 0.929 . S
H805 C814 0.930 . S
H806 C816 0.930 . S
H807 C819 0.929 . S
H808 C822 0.930 . S
H809 C824 0.960 . S
H810 C824 0.960 . S
H811 C824 0.960 . S
C812 H804 0.929 . S
C812 C813 1.377 . S
C812 C814 1.384 . S
C813 C812 1.377 . S
C813 C819 1.390 . S
C814 H805 0.930 . S
C814 C812 1.384 . S
C814 C815 1.372 . S
C815 C814 1.372 . S
C815 C816 1.400 . S
C815 C820 1.490 . S
C816 H806 0.930 . S
C816 C815 1.400 . S
C816 C819 1.386 . S
H817 C833 0.930 . S
H818 C834 0.931 . S
C819 H807 0.929 . S
C819 C813 1.390 . S
C819 C816 1.386 . S
C820 C815 1.490 . S
C820 C822 1.395 . S
C820 C823 1.403 . S
H821 C827 0.930 . S
C822 H808 0.930 . S
C822 C820 1.395 . S
C822 C825 1.403 . S
C823 C820 1.403 . S
C823 C824 1.524 . S
C823 C827 1.400 . S
C824 H809 0.960 . S
C824 H810 0.960 . S
C824 H811 0.960 . S
C824 C823 1.524 . S
C825 C822 1.403 . S
C825 C826 1.392 . S
C825 C829 1.495 . S
C826 C825 1.392 . S
C826 C827 1.385 . S
C826 C828 1.478 . S
C827 H821 0.930 . S
C827 C823 1.400 . S
C827 C826 1.385 . S
C828 C826 1.478 . S
C828 C830 1.381 . S
C828 C834 1.383 . S
C829 C825 1.495 . S
C829 H835 0.959 . S
C829 H836 0.961 . S
C829 H837 0.960 . S
C830 C828 1.381 . S
C830 C831 1.394 . S
C830 H838 0.930 . S
C831 C830 1.394 . S
C831 C832 1.383 . S
C831 H839 0.929 . S
C832 C831 1.383 . S
C832 C833 1.377 . S
C833 H817 0.930 . S
C833 C832 1.377 . S
C833 C834 1.379 . S
C834 H818 0.931 . S
C834 C828 1.383 . S
C834 C833 1.379 . S
H835 C829 0.959 . S
H836 C829 0.961 . S
H837 C829 0.960 . S
H838 C830 0.930 . S
H839 C831 0.929 . S
H840 C848 0.929 . S
H841 C850 0.930 . S
H842 C852 0.930 . S
H843 C855 0.929 . S
H844 C858 0.930 . S
H845 C860 0.960 . S
H846 C860 0.960 . S
H847 C860 0.960 . S
C848 H840 0.929 . S
C848 C849 1.377 . S
C848 C850 1.384 . S
C849 C848 1.377 . S
C849 C855 1.390 . S
C850 H841 0.930 . S
C850 C848 1.384 . S
C850 C851 1.372 . S
C851 C850 1.372 . S
C851 C852 1.400 . S
C851 C856 1.490 . S
C852 H842 0.930 . S
C852 C851 1.400 . S
C852 C855 1.386 . S
H853 C869 0.930 . S
H854 C870 0.931 . S
C855 H843 0.929 . S
C855 C849 1.390 . S
C855 C852 1.386 . S
C856 C851 1.490 . S
C856 C858 1.395 . S
C856 C859 1.403 . S
H857 C863 0.930 . S
C858 H844 0.930 . S
C858 C856 1.395 . S
C858 C861 1.403 . S
C859 C856 1.403 . S
C859 C860 1.524 . S
C859 C863 1.400 . S
C860 H845 0.960 . S
C860 H846 0.960 . S
C860 H847 0.960 . S
C860 C859 1.524 . S
C861 C858 1.403 . S
C861 C862 1.392 . S
C861 C865 1.495 . S
C862 C861 1.392 . S
C862 C863 1.385 . S
C862 C864 1.478 . S
C863 H857 0.930 . S
C863 C859 1.400 . S
C863 C862 1.385 . S
C864 C862 1.478 . S
C864 C866 1.381 . S
C864 C870 1.383 . S
C865 C861 1.495 . S
C865 H871 0.959 . S
C865 H872 0.961 . S
C865 H873 0.960 . S
C866 C864 1.381 . S
C866 C867 1.394 . S
C866 H874 0.930 . S
C867 C866 1.394 . S
C867 C868 1.383 . S
C867 H875 0.929 . S
C868 C867 1.383 . S
C868 C869 1.377 . S
C869 H853 0.930 . S
C869 C868 1.377 . S
C869 C870 1.379 . S
C870 H854 0.931 . S
C870 C864 1.383 . S
C870 C869 1.379 . S
H871 C865 0.959 . S
H872 C865 0.961 . S
H873 C865 0.960 . S
H874 C866 0.930 . S
H875 C867 0.929 . S
H876 C884 0.929 . S
H877 C886 0.930 . S
H878 C888 0.930 . S
H879 C891 0.929 . S
H880 C894 0.930 . S
H881 C896 0.960 . S
H882 C896 0.960 . S
H883 C896 0.960 . S
C884 H876 0.929 . S
C884 C885 1.377 . S
C884 C886 1.384 . S
C885 C884 1.377 . S
C885 C891 1.390 . S
C886 H877 0.930 . S
C886 C884 1.384 . S
C886 C887 1.372 . S
C887 C886 1.372 . S
C887 C888 1.400 . S
C887 C892 1.490 . S
C888 H878 0.930 . S
C888 C887 1.400 . S
C888 C891 1.386 . S
H889 C905 0.930 . S
H890 C906 0.931 . S
C891 H879 0.929 . S
C891 C885 1.390 . S
C891 C888 1.386 . S
C892 C887 1.490 . S
C892 C894 1.395 . S
C892 C895 1.403 . S
H893 C899 0.930 . S
C894 H880 0.930 . S
C894 C892 1.395 . S
C894 C897 1.403 . S
C895 C892 1.403 . S
C895 C896 1.524 . S
C895 C899 1.400 . S
C896 H881 0.960 . S
C896 H882 0.960 . S
C896 H883 0.960 . S
C896 C895 1.524 . S
C897 C894 1.403 . S
C897 C898 1.392 . S
C897 C901 1.495 . S
C898 C897 1.392 . S
C898 C899 1.385 . S
C898 C900 1.478 . S
C899 H893 0.930 . S
C899 C895 1.400 . S
C899 C898 1.385 . S
C900 C898 1.478 . S
C900 C902 1.381 . S
C900 C906 1.383 . S
C901 C897 1.495 . S
C901 H907 0.959 . S
C901 H908 0.961 . S
C901 H909 0.960 . S
C902 C900 1.381 . S
C902 C903 1.394 . S
C902 H910 0.930 . S
C903 C902 1.394 . S
C903 C904 1.383 . S
C903 H911 0.929 . S
C904 C903 1.383 . S
C904 C905 1.377 . S
C905 H889 0.930 . S
C905 C904 1.377 . S
C905 C906 1.379 . S
C906 H890 0.931 . S
C906 C900 1.383 . S
C906 C905 1.379 . S
H907 C901 0.959 . S
H908 C901 0.961 . S
H909 C901 0.960 . S
H910 C902 0.930 . S
H911 C903 0.929 . S
H912 C920 0.929 . S
H913 C922 0.930 . S
H914 C924 0.930 . S
H915 C927 0.929 . S
H916 C930 0.930 . S
H917 C932 0.960 . S
H918 C932 0.960 . S
H919 C932 0.960 . S
C920 H912 0.929 . S
C920 C921 1.377 . S
C920 C922 1.384 . S
C921 C920 1.377 . S
C921 C927 1.390 . S
C922 H913 0.930 . S
C922 C920 1.384 . S
C922 C923 1.372 . S
C923 C922 1.372 . S
C923 C924 1.400 . S
C923 C928 1.490 . S
C924 H914 0.930 . S
C924 C923 1.400 . S
C924 C927 1.386 . S
H925 C941 0.930 . S
H926 C942 0.931 . S
C927 H915 0.929 . S
C927 C921 1.390 . S
C927 C924 1.386 . S
C928 C923 1.490 . S
C928 C930 1.395 . S
C928 C931 1.403 . S
H929 C935 0.930 . S
C930 H916 0.930 . S
C930 C928 1.395 . S
C930 C933 1.403 . S
C931 C928 1.403 . S
C931 C932 1.524 . S
C931 C935 1.400 . S
C932 H917 0.960 . S
C932 H918 0.960 . S
C932 H919 0.960 . S
C932 C931 1.524 . S
C933 C930 1.403 . S
C933 C934 1.392 . S
C933 C937 1.495 . S
C934 C933 1.392 . S
C934 C935 1.385 . S
C934 C936 1.478 . S
C935 H929 0.930 . S
C935 C931 1.400 . S
C935 C934 1.385 . S
C936 C934 1.478 . S
C936 C938 1.381 . S
C936 C942 1.383 . S
C937 C933 1.495 . S
C937 H943 0.959 . S
C937 H944 0.961 . S
C937 H945 0.960 . S
C938 C936 1.381 . S
C938 C939 1.394 . S
C938 H946 0.930 . S
C939 C938 1.394 . S
C939 C940 1.383 . S
C939 H947 0.929 . S
C940 C939 1.383 . S
C940 C941 1.377 . S
C941 H925 0.930 . S
C941 C940 1.377 . S
C941 C942 1.379 . S
C942 H926 0.931 . S
C942 C936 1.383 . S
C942 C941 1.379 . S
H943 C937 0.959 . S
H944 C937 0.961 . S
H945 C937 0.960 . S
H946 C938 0.930 . S
H947 C939 0.929 . S
H948 C956 0.929 . S
H949 C958 0.930 . S
H950 C960 0.930 . S
H951 C963 0.929 . S
H952 C966 0.930 . S
H953 C968 0.960 . S
H954 C968 0.960 . S
H955 C968 0.960 . S
C956 H948 0.929 . S
C956 C957 1.377 . S
C956 C958 1.384 . S
C957 C956 1.377 . S
C957 C963 1.390 . S
C958 H949 0.930 . S
C958 C956 1.384 . S
C958 C959 1.372 . S
C959 C958 1.372 . S
C959 C960 1.400 . S
C959 C964 1.490 . S
C960 H950 0.930 . S
C960 C959 1.400 . S
C960 C963 1.386 . S
H961 C977 0.930 . S
H962 C978 0.931 . S
C963 H951 0.929 . S
C963 C957 1.390 . S
C963 C960 1.386 . S
C964 C959 1.490 . S
C964 C966 1.395 . S
C964 C967 1.403 . S
H965 C971 0.930 . S
C966 H952 0.930 . S
C966 C964 1.395 . S
C966 C969 1.403 . S
C967 C964 1.403 . S
C967 C968 1.524 . S
C967 C971 1.400 . S
C968 H953 0.960 . S
C968 H954 0.960 . S
C968 H955 0.960 . S
C968 C967 1.524 . S
C969 C966 1.403 . S
C969 C970 1.392 . S
C969 C973 1.495 . S
C970 C969 1.392 . S
C970 C971 1.385 . S
C970 C972 1.478 . S
C971 H965 0.930 . S
C971 C967 1.400 . S
C971 C970 1.385 . S
C972 C970 1.478 . S
C972 C974 1.381 . S
C972 C978 1.383 . S
C973 C969 1.495 . S
C973 H979 0.959 . S
C973 H980 0.961 . S
C973 H981 0.960 . S
C974 C972 1.381 . S
C974 C975 1.394 . S
C974 H982 0.930 . S
C975 C974 1.394 . S
C975 C976 1.383 . S
C975 H983 0.929 . S
C976 C975 1.383 . S
C976 C977 1.377 . S
C977 H961 0.930 . S
C977 C976 1.377 . S
C977 C978 1.379 . S
C978 H962 0.931 . S
C978 C972 1.383 . S
C978 C977 1.379 . S
H979 C973 0.959 . S
H980 C973 0.961 . S
H981 C973 0.960 . S
H982 C974 0.930 . S
H983 C975 0.929 . S
H984 C992 0.929 . S
H985 C994 0.930 . S
H986 C996 0.930 . S
H987 C999 0.929 . S
H988 C1002 0.930 . S
H989 C1004 0.960 . S
H990 C1004 0.960 . S
H991 C1004 0.960 . S
C992 H984 0.929 . S
C992 C993 1.377 . S
C992 C994 1.384 . S
C993 C992 1.377 . S
C993 C999 1.390 . S
C994 H985 0.930 . S
C994 C992 1.384 . S
C994 C995 1.372 . S
C995 C994 1.372 . S
C995 C996 1.400 . S
C995 C1000 1.490 . S
C996 H986 0.930 . S
C996 C995 1.400 . S
C996 C999 1.386 . S
H997 C1013 0.930 . S
H998 C1014 0.931 . S
C999 H987 0.929 . S
C999 C993 1.390 . S
C999 C996 1.386 . S
C1000 C995 1.490 . S
C1000 C1002 1.395 . S
C1000 C1003 1.403 . S
H1001 C1007 0.930 . S
C1002 H988 0.930 . S
C1002 C1000 1.395 . S
C1002 C1005 1.403 . S
C1003 C1000 1.403 . S
C1003 C1004 1.524 . S
C1003 C1007 1.400 . S
C1004 H989 0.960 . S
C1004 H990 0.960 . S
C1004 H991 0.960 . S
C1004 C1003 1.524 . S
C1005 C1002 1.403 . S
C1005 C1006 1.392 . S
C1005 C1009 1.495 . S
C1006 C1005 1.392 . S
C1006 C1007 1.385 . S
C1006 C1008 1.478 . S
C1007 H1001 0.930 . S
C1007 C1003 1.400 . S
C1007 C1006 1.385 . S
C1008 C1006 1.478 . S
C1008 C1010 1.381 . S
C1008 C1014 1.383 . S
C1009 C1005 1.495 . S
C1009 H1015 0.959 . S
C1009 H1016 0.961 . S
C1009 H1017 0.960 . S
C1010 C1008 1.381 . S
C1010 C1011 1.394 . S
C1010 H1018 0.930 . S
C1011 C1010 1.394 . S
C1011 C1012 1.383 . S
C1011 H1019 0.929 . S
C1012 C1011 1.383 . S
C1012 C1013 1.377 . S
C1013 H997 0.930 . S
C1013 C1012 1.377 . S
C1013 C1014 1.379 . S
C1014 H998 0.931 . S
C1014 C1008 1.383 . S
C1014 C1013 1.379 . S
H1015 C1009 0.959 . S
H1016 C1009 0.961 . S
H1017 C1009 0.960 . S
H1018 C1010 0.930 . S
H1019 C1011 0.929 . S
H1020 C1028 0.929 . S
H1021 C1030 0.930 . S
H1022 C1032 0.930 . S
H1023 C1035 0.929 . S
H1024 C1038 0.930 . S
H1025 C1040 0.960 . S
H1026 C1040 0.960 . S
H1027 C1040 0.960 . S
C1028 H1020 0.929 . S
C1028 C1029 1.377 . S
C1028 C1030 1.384 . S
C1029 C1028 1.377 . S
C1029 C1035 1.390 . S
C1030 H1021 0.930 . S
C1030 C1028 1.384 . S
C1030 C1031 1.372 . S
C1031 C1030 1.372 . S
C1031 C1032 1.400 . S
C1031 C1036 1.490 . S
C1032 H1022 0.930 . S
C1032 C1031 1.400 . S
C1032 C1035 1.386 . S
H1033 C1049 0.930 . S
H1034 C1050 0.931 . S
C1035 H1023 0.929 . S
C1035 C1029 1.390 . S
C1035 C1032 1.386 . S
C1036 C1031 1.490 . S
C1036 C1038 1.395 . S
C1036 C1039 1.403 . S
H1037 C1043 0.930 . S
C1038 H1024 0.930 . S
C1038 C1036 1.395 . S
C1038 C1041 1.403 . S
C1039 C1036 1.403 . S
C1039 C1040 1.524 . S
C1039 C1043 1.400 . S
C1040 H1025 0.960 . S
C1040 H1026 0.960 . S
C1040 H1027 0.960 . S
C1040 C1039 1.524 . S
C1041 C1038 1.403 . S
C1041 C1042 1.392 . S
C1041 C1045 1.495 . S
C1042 C1041 1.392 . S
C1042 C1043 1.385 . S
C1042 C1044 1.478 . S
C1043 H1037 0.930 . S
C1043 C1039 1.400 . S
C1043 C1042 1.385 . S
C1044 C1042 1.478 . S
C1044 C1046 1.381 . S
C1044 C1050 1.383 . S
C1045 C1041 1.495 . S
C1045 H1051 0.959 . S
C1045 H1052 0.961 . S
C1045 H1053 0.960 . S
C1046 C1044 1.381 . S
C1046 C1047 1.394 . S
C1046 H1054 0.930 . S
C1047 C1046 1.394 . S
C1047 C1048 1.383 . S
C1047 H1055 0.929 . S
C1048 C1047 1.383 . S
C1048 C1049 1.377 . S
C1049 H1033 0.930 . S
C1049 C1048 1.377 . S
C1049 C1050 1.379 . S
C1050 H1034 0.931 . S
C1050 C1044 1.383 . S
C1050 C1049 1.379 . S
H1051 C1045 0.959 . S
H1052 C1045 0.961 . S
H1053 C1045 0.960 . S
H1054 C1046 0.930 . S
H1055 C1047 0.929 . S
H1056 C1064 0.929 . S
H1057 C1066 0.930 . S
H1058 C1068 0.930 . S
H1059 C1071 0.929 . S
H1060 C1074 0.930 . S
H1061 C1076 0.960 . S
H1062 C1076 0.960 . S
H1063 C1076 0.960 . S
C1064 H1056 0.929 . S
C1064 C1065 1.377 . S
C1064 C1066 1.384 . S
C1065 C1064 1.377 . S
C1065 C1071 1.390 . S
C1066 H1057 0.930 . S
C1066 C1064 1.384 . S
C1066 C1067 1.372 . S
C1067 C1066 1.372 . S
C1067 C1068 1.400 . S
C1067 C1072 1.490 . S
C1068 H1058 0.930 . S
C1068 C1067 1.400 . S
C1068 C1071 1.386 . S
H1069 C1085 0.930 . S
H1070 C1086 0.931 . S
C1071 H1059 0.929 . S
C1071 C1065 1.390 . S
C1071 C1068 1.386 . S
C1072 C1067 1.490 . S
C1072 C1074 1.395 . S
C1072 C1075 1.403 . S
H1073 C1079 0.930 . S
C1074 H1060 0.930 . S
C1074 C1072 1.395 . S
C1074 C1077 1.403 . S
C1075 C1072 1.403 . S
C1075 C1076 1.524 . S
C1075 C1079 1.400 . S
C1076 H1061 0.960 . S
C1076 H1062 0.960 . S
C1076 H1063 0.960 . S
C1076 C1075 1.524 . S
C1077 C1074 1.403 . S
C1077 C1078 1.392 . S
C1077 C1081 1.495 . S
C1078 C1077 1.392 . S
C1078 C1079 1.385 . S
C1078 C1080 1.478 . S
C1079 H1073 0.930 . S
C1079 C1075 1.400 . S
C1079 C1078 1.385 . S
C1080 C1078 1.478 . S
C1080 C1082 1.381 . S
C1080 C1086 1.383 . S
C1081 C1077 1.495 . S
C1081 H1087 0.959 . S
C1081 H1088 0.961 . S
C1081 H1089 0.960 . S
C1082 C1080 1.381 . S
C1082 C1083 1.394 . S
C1082 H1090 0.930 . S
C1083 C1082 1.394 . S
C1083 C1084 1.383 . S
C1083 H1091 0.929 . S
C1084 C1083 1.383 . S
C1084 C1085 1.377 . S
C1085 H1069 0.930 . S
C1085 C1084 1.377 . S
C1085 C1086 1.379 . S
C1086 H1070 0.931 . S
C1086 C1080 1.383 . S
C1086 C1085 1.379 . S
H1087 C1081 0.959 . S
H1088 C1081 0.961 . S
H1089 C1081 0.960 . S
H1090 C1082 0.930 . S
H1091 C1083 0.929 . S
H1092 C1100 0.929 . S
H1093 C1102 0.930 . S
H1094 C1104 0.930 . S
H1095 C1107 0.929 . S
H1096 C1110 0.930 . S
H1097 C1112 0.960 . S
H1098 C1112 0.960 . S
H1099 C1112 0.960 . S
C1100 H1092 0.929 . S
C1100 C1101 1.377 . S
C1100 C1102 1.384 . S
C1101 C1100 1.377 . S
C1101 C1107 1.390 . S
C1102 H1093 0.930 . S
C1102 C1100 1.384 . S
C1102 C1103 1.372 . S
C1103 C1102 1.372 . S
C1103 C1104 1.400 . S
C1103 C1108 1.490 . S
C1104 H1094 0.930 . S
C1104 C1103 1.400 . S
C1104 C1107 1.386 . S
H1105 C1121 0.930 . S
H1106 C1122 0.931 . S
C1107 H1095 0.929 . S
C1107 C1101 1.390 . S
C1107 C1104 1.386 . S
C1108 C1103 1.490 . S
C1108 C1110 1.395 . S
C1108 C1111 1.403 . S
H1109 C1115 0.930 . S
C1110 H1096 0.930 . S
C1110 C1108 1.395 . S
C1110 C1113 1.403 . S
C1111 C1108 1.403 . S
C1111 C1112 1.524 . S
C1111 C1115 1.400 . S
C1112 H1097 0.960 . S
C1112 H1098 0.960 . S
C1112 H1099 0.960 . S
C1112 C1111 1.524 . S
C1113 C1110 1.403 . S
C1113 C1114 1.392 . S
C1113 C1117 1.495 . S
C1114 C1113 1.392 . S
C1114 C1115 1.385 . S
C1114 C1116 1.478 . S
C1115 H1109 0.930 . S
C1115 C1111 1.400 . S
C1115 C1114 1.385 . S
C1116 C1114 1.478 . S
C1116 C1118 1.381 . S
C1116 C1122 1.383 . S
C1117 C1113 1.495 . S
C1117 H1123 0.959 . S
C1117 H1124 0.961 . S
C1117 H1125 0.960 . S
C1118 C1116 1.381 . S
C1118 C1119 1.394 . S
C1118 H1126 0.930 . S
C1119 C1118 1.394 . S
C1119 C1120 1.383 . S
C1119 H1127 0.929 . S
C1120 C1119 1.383 . S
C1120 C1121 1.377 . S
C1121 H1105 0.930 . S
C1121 C1120 1.377 . S
C1121 C1122 1.379 . S
C1122 H1106 0.931 . S
C1122 C1116 1.383 . S
C1122 C1121 1.379 . S
H1123 C1117 0.959 . S
H1124 C1117 0.961 . S
H1125 C1117 0.960 . S
H1126 C1118 0.930 . S
H1127 C1119 0.929 . S
H1128 C1136 0.929 . S
H1129 C1138 0.930 . S
H1130 C1140 0.930 . S
H1131 C1143 0.929 . S
H1132 C1146 0.930 . S
H1133 C1148 0.960 . S
H1134 C1148 0.960 . S
H1135 C1148 0.960 . S
C1136 H1128 0.929 . S
C1136 C1137 1.377 . S
C1136 C1138 1.384 . S
C1137 C1136 1.377 . S
C1137 C1143 1.390 . S
C1138 H1129 0.930 . S
C1138 C1136 1.384 . S
C1138 C1139 1.372 . S
C1139 C1138 1.372 . S
C1139 C1140 1.400 . S
C1139 C1144 1.490 . S
C1140 H1130 0.930 . S
C1140 C1139 1.400 . S
C1140 C1143 1.386 . S
H1141 C1157 0.930 . S
H1142 C1158 0.931 . S
C1143 H1131 0.929 . S
C1143 C1137 1.390 . S
C1143 C1140 1.386 . S
C1144 C1139 1.490 . S
C1144 C1146 1.395 . S
C1144 C1147 1.403 . S
H1145 C1151 0.930 . S
C1146 H1132 0.930 . S
C1146 C1144 1.395 . S
C1146 C1149 1.403 . S
C1147 C1144 1.403 . S
C1147 C1148 1.524 . S
C1147 C1151 1.400 . S
C1148 H1133 0.960 . S
C1148 H1134 0.960 . S
C1148 H1135 0.960 . S
C1148 C1147 1.524 . S
C1149 C1146 1.403 . S
C1149 C1150 1.392 . S
C1149 C1153 1.495 . S
C1150 C1149 1.392 . S
C1150 C1151 1.385 . S
C1150 C1152 1.478 . S
C1151 H1145 0.930 . S
C1151 C1147 1.400 . S
C1151 C1150 1.385 . S
C1152 C1150 1.478 . S
C1152 C1154 1.381 . S
C1152 C1158 1.383 . S
C1153 C1149 1.495 . S
C1153 H1159 0.959 . S
C1153 H1160 0.961 . S
C1153 H1161 0.960 . S
C1154 C1152 1.381 . S
C1154 C1155 1.394 . S
C1154 H1162 0.930 . S
C1155 C1154 1.394 . S
C1155 C1156 1.383 . S
C1155 H1163 0.929 . S
C1156 C1155 1.383 . S
C1156 C1157 1.377 . S
C1157 H1141 0.930 . S
C1157 C1156 1.377 . S
C1157 C1158 1.379 . S
C1158 H1142 0.931 . S
C1158 C1152 1.383 . S
C1158 C1157 1.379 . S
H1159 C1153 0.959 . S
H1160 C1153 0.961 . S
H1161 C1153 0.960 . S
H1162 C1154 0.930 . S
H1163 C1155 0.929 . S
H1164 C1172 0.929 . S
H1165 C1174 0.930 . S
H1166 C1176 0.930 . S
H1167 C1179 0.929 . S
H1168 C1182 0.930 . S
H1169 C1184 0.960 . S
H1170 C1184 0.960 . S
H1171 C1184 0.960 . S
C1172 H1164 0.929 . S
C1172 C1173 1.377 . S
C1172 C1174 1.384 . S
C1173 C1172 1.377 . S
C1173 C1179 1.390 . S
C1174 H1165 0.930 . S
C1174 C1172 1.384 . S
C1174 C1175 1.372 . S
C1175 C1174 1.372 . S
C1175 C1176 1.400 . S
C1175 C1180 1.490 . S
C1176 H1166 0.930 . S
C1176 C1175 1.400 . S
C1176 C1179 1.386 . S
H1177 C1193 0.930 . S
H1178 C1194 0.931 . S
C1179 H1167 0.929 . S
C1179 C1173 1.390 . S
C1179 C1176 1.386 . S
C1180 C1175 1.490 . S
C1180 C1182 1.395 . S
C1180 C1183 1.403 . S
H1181 C1187 0.930 . S
C1182 H1168 0.930 . S
C1182 C1180 1.395 . S
C1182 C1185 1.403 . S
C1183 C1180 1.403 . S
C1183 C1184 1.524 . S
C1183 C1187 1.400 . S
C1184 H1169 0.960 . S
C1184 H1170 0.960 . S
C1184 H1171 0.960 . S
C1184 C1183 1.524 . S
C1185 C1182 1.403 . S
C1185 C1186 1.392 . S
C1185 C1189 1.495 . S
C1186 C1185 1.392 . S
C1186 C1187 1.385 . S
C1186 C1188 1.478 . S
C1187 H1181 0.930 . S
C1187 C1183 1.400 . S
C1187 C1186 1.385 . S
C1188 C1186 1.478 . S
C1188 C1190 1.381 . S
C1188 C1194 1.383 . S
C1189 C1185 1.495 . S
C1189 H1195 0.959 . S
C1189 H1196 0.961 . S
C1189 H1197 0.960 . S
C1190 C1188 1.381 . S
C1190 C1191 1.394 . S
C1190 H1198 0.930 . S
C1191 C1190 1.394 . S
C1191 C1192 1.383 . S
C1191 H1199 0.929 . S
C1192 C1191 1.383 . S
C1192 C1193 1.377 . S
C1193 H1177 0.930 . S
C1193 C1192 1.377 . S
C1193 C1194 1.379 . S
C1194 H1178 0.931 . S
C1194 C1188 1.383 . S
C1194 C1193 1.379 . S
H1195 C1189 0.959 . S
H1196 C1189 0.961 . S
H1197 C1189 0.960 . S
H1198 C1190 0.930 . S
H1199 C1191 0.929 . S
H1200 C1208 0.929 . S
H1201 C1210 0.930 . S
H1202 C1212 0.930 . S
H1203 C1215 0.929 . S
H1204 C1218 0.930 . S
H1205 C1220 0.960 . S
H1206 C1220 0.960 . S
H1207 C1220 0.960 . S
C1208 H1200 0.929 . S
C1208 C1209 1.377 . S
C1208 C1210 1.384 . S
C1209 C1208 1.377 . S
C1209 C1215 1.390 . S
C1210 H1201 0.930 . S
C1210 C1208 1.384 . S
C1210 C1211 1.372 . S
C1211 C1210 1.372 . S
C1211 C1212 1.400 . S
C1211 C1216 1.490 . S
C1212 H1202 0.930 . S
C1212 C1211 1.400 . S
C1212 C1215 1.386 . S
H1213 C1229 0.930 . S
H1214 C1230 0.931 . S
C1215 H1203 0.929 . S
C1215 C1209 1.390 . S
C1215 C1212 1.386 . S
C1216 C1211 1.490 . S
C1216 C1218 1.395 . S
C1216 C1219 1.403 . S
H1217 C1223 0.930 . S
C1218 H1204 0.930 . S
C1218 C1216 1.395 . S
C1218 C1221 1.403 . S
C1219 C1216 1.403 . S
C1219 C1220 1.524 . S
C1219 C1223 1.400 . S
C1220 H1205 0.960 . S
C1220 H1206 0.960 . S
C1220 H1207 0.960 . S
C1220 C1219 1.524 . S
C1221 C1218 1.403 . S
C1221 C1222 1.392 . S
C1221 C1225 1.495 . S
C1222 C1221 1.392 . S
C1222 C1223 1.385 . S
C1222 C1224 1.478 . S
C1223 H1217 0.930 . S
C1223 C1219 1.400 . S
C1223 C1222 1.385 . S
C1224 C1222 1.478 . S
C1224 C1226 1.381 . S
C1224 C1230 1.383 . S
C1225 C1221 1.495 . S
C1225 H1231 0.959 . S
C1225 H1232 0.961 . S
C1225 H1233 0.960 . S
C1226 C1224 1.381 . S
C1226 C1227 1.394 . S
C1226 H1234 0.930 . S
C1227 C1226 1.394 . S
C1227 C1228 1.383 . S
C1227 H1235 0.929 . S
C1228 C1227 1.383 . S
C1228 C1229 1.377 . S
C1229 H1213 0.930 . S
C1229 C1228 1.377 . S
C1229 C1230 1.379 . S
C1230 H1214 0.931 . S
C1230 C1224 1.383 . S
C1230 C1229 1.379 . S
H1231 C1225 0.959 . S
H1232 C1225 0.961 . S
H1233 C1225 0.960 . S
H1234 C1226 0.930 . S
H1235 C1227 0.929 . S
H1236 C1244 0.929 . S
H1237 C1246 0.930 . S
H1238 C1248 0.930 . S
H1239 C1251 0.929 . S
H1240 C1254 0.930 . S
H1241 C1256 0.960 . S
H1242 C1256 0.960 . S
H1243 C1256 0.960 . S
C1244 H1236 0.929 . S
C1244 C1245 1.377 . S
C1244 C1246 1.384 . S
C1245 C1244 1.377 . S
C1245 C1251 1.390 . S
C1246 H1237 0.930 . S
C1246 C1244 1.384 . S
C1246 C1247 1.372 . S
C1247 C1246 1.372 . S
C1247 C1248 1.400 . S
C1247 C1252 1.490 . S
C1248 H1238 0.930 . S
C1248 C1247 1.400 . S
C1248 C1251 1.386 . S
H1249 C1265 0.930 . S
H1250 C1266 0.931 . S
C1251 H1239 0.929 . S
C1251 C1245 1.390 . S
C1251 C1248 1.386 . S
C1252 C1247 1.490 . S
C1252 C1254 1.395 . S
C1252 C1255 1.403 . S
H1253 C1259 0.930 . S
C1254 H1240 0.930 . S
C1254 C1252 1.395 . S
C1254 C1257 1.403 . S
C1255 C1252 1.403 . S
C1255 C1256 1.524 . S
C1255 C1259 1.400 . S
C1256 H1241 0.960 . S
C1256 H1242 0.960 . S
C1256 H1243 0.960 . S
C1256 C1255 1.524 . S
C1257 C1254 1.403 . S
C1257 C1258 1.392 . S
C1257 C1261 1.495 . S
C1258 C1257 1.392 . S
C1258 C1259 1.385 . S
C1258 C1260 1.478 . S
C1259 H1253 0.930 . S
C1259 C1255 1.400 . S
C1259 C1258 1.385 . S
C1260 C1258 1.478 . S
C1260 C1262 1.381 . S
C1260 C1266 1.383 . S
C1261 C1257 1.495 . S
C1261 H1267 0.959 . S
C1261 H1268 0.961 . S
C1261 H1269 0.960 . S
C1262 C1260 1.381 . S
C1262 C1263 1.394 . S
C1262 H1270 0.930 . S
C1263 C1262 1.394 . S
C1263 C1264 1.383 . S
C1263 H1271 0.929 . S
C1264 C1263 1.383 . S
C1264 C1265 1.377 . S
C1265 H1249 0.930 . S
C1265 C1264 1.377 . S
C1265 C1266 1.379 . S
C1266 H1250 0.931 . S
C1266 C1260 1.383 . S
C1266 C1265 1.379 . S
H1267 C1261 0.959 . S
H1268 C1261 0.961 . S
H1269 C1261 0.960 . S
H1270 C1262 0.930 . S
H1271 C1263 0.929 . S
H1272 C1280 0.929 . S
H1273 C1282 0.930 . S
H1274 C1284 0.930 . S
H1275 C1287 0.929 . S
H1276 C1290 0.930 . S
H1277 C1292 0.960 . S
H1278 C1292 0.960 . S
H1279 C1292 0.960 . S
C1280 H1272 0.929 . S
C1280 C1281 1.377 . S
C1280 C1282 1.384 . S
C1281 C1280 1.377 . S
C1281 C1287 1.390 . S
C1282 H1273 0.930 . S
C1282 C1280 1.384 . S
C1282 C1283 1.372 . S
C1283 C1282 1.372 . S
C1283 C1284 1.400 . S
C1283 C1288 1.490 . S
C1284 H1274 0.930 . S
C1284 C1283 1.400 . S
C1284 C1287 1.386 . S
H1285 C1301 0.930 . S
H1286 C1302 0.931 . S
C1287 H1275 0.929 . S
C1287 C1281 1.390 . S
C1287 C1284 1.386 . S
C1288 C1283 1.490 . S
C1288 C1290 1.395 . S
C1288 C1291 1.403 . S
H1289 C1295 0.930 . S
C1290 H1276 0.930 . S
C1290 C1288 1.395 . S
C1290 C1293 1.403 . S
C1291 C1288 1.403 . S
C1291 C1292 1.524 . S
C1291 C1295 1.400 . S
C1292 H1277 0.960 . S
C1292 H1278 0.960 . S
C1292 H1279 0.960 . S
C1292 C1291 1.524 . S
C1293 C1290 1.403 . S
C1293 C1294 1.392 . S
C1293 C1297 1.495 . S
C1294 C1293 1.392 . S
C1294 C1295 1.385 . S
C1294 C1296 1.478 . S
C1295 H1289 0.930 . S
C1295 C1291 1.400 . S
C1295 C1294 1.385 . S
C1296 C1294 1.478 . S
C1296 C1298 1.381 . S
C1296 C1302 1.383 . S
C1297 C1293 1.495 . S
C1297 H1303 0.959 . S
C1297 H1304 0.961 . S
C1297 H1305 0.960 . S
C1298 C1296 1.381 . S
C1298 C1299 1.394 . S
C1298 H1306 0.930 . S
C1299 C1298 1.394 . S
C1299 C1300 1.383 . S
C1299 H1307 0.929 . S
C1300 C1299 1.383 . S
C1300 C1301 1.377 . S
C1301 H1285 0.930 . S
C1301 C1300 1.377 . S
C1301 C1302 1.379 . S
C1302 H1286 0.931 . S
C1302 C1296 1.383 . S
C1302 C1301 1.379 . S
H1303 C1297 0.959 . S
H1304 C1297 0.961 . S
H1305 C1297 0.960 . S
H1306 C1298 0.930 . S
H1307 C1299 0.929 . S
H1308 C1316 0.929 . S
H1309 C1318 0.930 . S
H1310 C1320 0.930 . S
H1311 C1323 0.929 . S
H1312 C1326 0.930 . S
H1313 C1328 0.960 . S
H1314 C1328 0.960 . S
H1315 C1328 0.960 . S
C1316 H1308 0.929 . S
C1316 C1317 1.377 . S
C1316 C1318 1.384 . S
C1317 C1316 1.377 . S
C1317 C1323 1.390 . S
C1318 H1309 0.930 . S
C1318 C1316 1.384 . S
C1318 C1319 1.372 . S
C1319 C1318 1.372 . S
C1319 C1320 1.400 . S
C1319 C1324 1.490 . S
C1320 H1310 0.930 . S
C1320 C1319 1.400 . S
C1320 C1323 1.386 . S
H1321 C1337 0.930 . S
H1322 C1338 0.931 . S
C1323 H1311 0.929 . S
C1323 C1317 1.390 . S
C1323 C1320 1.386 . S
C1324 C1319 1.490 . S
C1324 C1326 1.395 . S
C1324 C1327 1.403 . S
H1325 C1331 0.871 1_554 S
C1326 H1312 0.930 . S
C1326 C1324 1.395 . S
C1326 C1329 1.403 . S
C1327 C1324 1.403 . S
C1327 C1328 1.524 . S
C1327 C1331 1.400 . S
C1328 H1313 0.960 . S
C1328 H1314 0.960 . S
C1328 H1315 0.960 . S
C1328 C1327 1.524 . S
C1329 C1326 1.403 . S
C1329 C1330 1.392 . S
C1329 C1333 1.495 . S
C1330 C1329 1.392 . S
C1330 C1331 1.385 . S
C1330 C1332 1.478 1_556 S
C1331 H1325 0.871 1_556 S
C1331 C1327 1.400 . S
C1331 C1330 1.385 . S
C1332 C1330 1.478 1_554 S
C1332 C1334 1.381 . S
C1332 C1338 1.383 . S
C1333 C1329 1.495 . S
C1333 H1339 0.959 . S
C1333 H1340 0.961 . S
C1333 H1341 0.960 . S
C1334 C1332 1.381 . S
C1334 C1335 1.394 . S
C1334 H1342 0.930 1_554 S
C1335 C1334 1.394 . S
C1335 C1336 1.383 . S
C1335 H1343 0.929 . S
C1336 C1335 1.383 . S
C1336 C1337 1.377 . S
C1337 H1321 0.930 . S
C1337 C1336 1.377 . S
C1337 C1338 1.379 . S
C1338 H1322 0.931 . S
C1338 C1332 1.383 . S
C1338 C1337 1.379 . S
H1339 C1333 0.959 . S
H1340 C1333 0.961 . S
H1341 C1333 0.960 . S
H1342 C1334 0.930 1_556 S
H1343 C1335 0.929 . S
H1344 C1352 0.929 . S
H1345 C1354 0.930 . S
H1346 C1356 0.930 . S
H1347 C1359 0.929 . S
H1348 C1362 0.930 . S
H1349 C1364 0.960 . S
H1350 C1364 0.960 . S
H1351 C1364 0.960 . S
C1352 H1344 0.929 . S
C1352 C1353 1.377 . S
C1352 C1354 1.384 . S
C1353 C1352 1.377 . S
C1353 C1359 1.390 . S
C1354 H1345 0.930 . S
C1354 C1352 1.384 . S
C1354 C1355 1.372 . S
C1355 C1354 1.372 . S
C1355 C1356 1.400 . S
C1355 C1360 1.490 . S
C1356 H1346 0.930 . S
C1356 C1355 1.400 . S
C1356 C1359 1.386 . S
H1357 C1373 0.930 . S
H1358 C1374 0.931 . S
C1359 H1347 0.929 . S
C1359 C1353 1.390 . S
C1359 C1356 1.386 . S
C1360 C1355 1.490 . S
C1360 C1362 1.395 . S
C1360 C1363 1.403 . S
H1361 C1367 0.930 . S
C1362 H1348 0.930 . S
C1362 C1360 1.395 . S
C1362 C1365 1.403 . S
C1363 C1360 1.403 . S
C1363 C1364 1.524 . S
C1363 C1367 1.400 . S
C1364 H1349 0.960 . S
C1364 H1350 0.960 . S
C1364 H1351 0.960 . S
C1364 C1363 1.524 . S
C1365 C1362 1.403 . S
C1365 C1366 1.392 . S
C1365 C1369 1.495 . S
C1366 C1365 1.392 . S
C1366 C1367 1.385 . S
C1366 C1368 1.478 . S
C1367 H1361 0.930 . S
C1367 C1363 1.400 . S
C1367 C1366 1.385 . S
C1368 C1366 1.478 . S
C1368 C1370 1.381 . S
C1368 C1374 1.383 . S
C1369 C1365 1.495 . S
C1369 H1375 0.959 . S
C1369 H1376 0.961 . S
C1369 H1377 0.960 . S
C1370 C1368 1.381 . S
C1370 C1371 1.394 . S
C1370 H1378 0.930 . S
C1371 C1370 1.394 . S
C1371 C1372 1.383 . S
C1371 H1379 0.929 . S
C1372 C1371 1.383 . S
C1372 C1373 1.377 . S
C1373 H1357 0.930 . S
C1373 C1372 1.377 . S
C1373 C1374 1.379 . S
C1374 H1358 0.931 . S
C1374 C1368 1.383 . S
C1374 C1373 1.379 . S
H1375 C1369 0.959 . S
H1376 C1369 0.961 . S
H1377 C1369 0.960 . S
H1378 C1370 0.930 . S
H1379 C1371 0.929 . S
H1380 C1388 0.929 . S
H1381 C1390 0.930 . S
H1382 C1392 0.930 . S
H1383 C1395 0.929 . S
H1384 C1398 0.930 . S
H1385 C1400 0.960 . S
H1386 C1400 0.960 . S
H1387 C1400 0.960 . S
C1388 H1380 0.929 . S
C1388 C1389 1.377 . S
C1388 C1390 1.384 . S
C1389 C1388 1.377 . S
C1389 C1395 1.390 . S
C1390 H1381 0.930 . S
C1390 C1388 1.384 . S
C1390 C1391 1.372 . S
C1391 C1390 1.372 . S
C1391 C1392 1.400 . S
C1391 C1396 1.490 . S
C1392 H1382 0.930 . S
C1392 C1391 1.400 . S
C1392 C1395 1.386 . S
H1393 C1409 0.930 . S
H1394 C1410 0.931 . S
C1395 H1383 0.929 . S
C1395 C1389 1.390 . S
C1395 C1392 1.386 . S
C1396 C1391 1.490 . S
C1396 C1398 1.395 . S
C1396 C1399 1.403 . S
H1397 C1403 0.930 . S
C1398 H1384 0.930 . S
C1398 C1396 1.395 . S
C1398 C1401 1.403 . S
C1399 C1396 1.403 . S
C1399 C1400 1.524 . S
C1399 C1403 1.400 . S
C1400 H1385 0.960 . S
C1400 H1386 0.960 . S
C1400 H1387 0.960 . S
C1400 C1399 1.524 . S
C1401 C1398 1.403 . S
C1401 C1402 1.392 . S
C1401 C1405 1.495 . S
C1402 C1401 1.392 . S
C1402 C1403 1.385 . S
C1402 C1404 1.478 . S
C1403 H1397 0.930 . S
C1403 C1399 1.400 . S
C1403 C1402 1.385 . S
C1404 C1402 1.478 . S
C1404 C1406 1.381 . S
C1404 C1410 1.383 . S
C1405 C1401 1.495 . S
C1405 H1411 0.959 . S
C1405 H1412 0.961 . S
C1405 H1413 0.960 . S
C1406 C1404 1.381 . S
C1406 C1407 1.394 . S
C1406 H1414 0.930 . S
C1407 C1406 1.394 . S
C1407 C1408 1.383 . S
C1407 H1415 0.929 . S
C1408 C1407 1.383 . S
C1408 C1409 1.377 . S
C1409 H1393 0.930 . S
C1409 C1408 1.377 . S
C1409 C1410 1.379 . S
C1410 H1394 0.931 . S
C1410 C1404 1.383 . S
C1410 C1409 1.379 . S
H1411 C1405 0.959 . S
H1412 C1405 0.961 . S
H1413 C1405 0.960 . S
H1414 C1406 0.930 . S
H1415 C1407 0.929 . S
H1416 C1424 0.929 . S
H1417 C1426 0.930 . S
H1418 C1428 0.930 . S
H1419 C1431 0.929 . S
H1420 C1434 0.930 . S
H1421 C1436 0.960 . S
H1422 C1436 0.960 . S
H1423 C1436 0.960 . S
C1424 H1416 0.929 . S
C1424 C1425 1.377 . S
C1424 C1426 1.384 . S
C1425 C1424 1.377 . S
C1425 C1431 1.390 . S
C1426 H1417 0.930 . S
C1426 C1424 1.384 . S
C1426 C1427 1.372 . S
C1427 C1426 1.372 . S
C1427 C1428 1.400 . S
C1427 C1432 1.490 . S
C1428 H1418 0.930 . S
C1428 C1427 1.400 . S
C1428 C1431 1.386 . S
H1429 C1445 0.930 . S
H1430 C1446 0.931 . S
C1431 H1419 0.929 . S
C1431 C1425 1.390 . S
C1431 C1428 1.386 . S
C1432 C1427 1.490 . S
C1432 C1434 1.395 . S
C1432 C1435 1.403 . S
H1433 C1439 0.930 . S
C1434 H1420 0.930 . S
C1434 C1432 1.395 . S
C1434 C1437 1.403 . S
C1435 C1432 1.403 . S
C1435 C1436 1.524 . S
C1435 C1439 1.400 . S
C1436 H1421 0.960 . S
C1436 H1422 0.960 . S
C1436 H1423 0.960 . S
C1436 C1435 1.524 . S
C1437 C1434 1.403 . S
C1437 C1438 1.392 . S
C1437 C1441 1.495 . S
C1438 C1437 1.392 . S
C1438 C1439 1.385 . S
C1438 C1440 1.478 . S
C1439 H1433 0.930 . S
C1439 C1435 1.400 . S
C1439 C1438 1.385 . S
C1440 C1438 1.478 . S
C1440 C1442 1.381 . S
C1440 C1446 1.383 . S
C1441 C1437 1.495 . S
C1441 H1447 0.959 . S
C1441 H1448 0.961 . S
C1441 H1449 0.960 . S
C1442 C1440 1.381 . S
C1442 C1443 1.394 . S
C1442 H1450 0.930 . S
C1443 C1442 1.394 . S
C1443 C1444 1.383 . S
C1443 H1451 0.929 . S
C1444 C1443 1.383 . S
C1444 C1445 1.377 . S
C1445 H1429 0.930 . S
C1445 C1444 1.377 . S
C1445 C1446 1.379 . S
C1446 H1430 0.931 . S
C1446 C1440 1.383 . S
C1446 C1445 1.379 . S
H1447 C1441 0.959 . S
H1448 C1441 0.961 . S
H1449 C1441 0.960 . S
H1450 C1442 0.930 . S
H1451 C1443 0.929 . S
H1452 C1460 0.929 . S
H1453 C1462 0.930 . S
H1454 C1464 0.930 . S
H1455 C1467 0.929 . S
H1456 C1470 0.930 . S
H1457 C1472 0.960 . S
H1458 C1472 0.960 . S
H1459 C1472 0.960 . S
C1460 H1452 0.929 . S
C1460 C1461 1.377 . S
C1460 C1462 1.384 . S
C1461 C1460 1.377 . S
C1461 C1467 1.390 . S
C1462 H1453 0.930 . S
C1462 C1460 1.384 . S
C1462 C1463 1.372 . S
C1463 C1462 1.372 . S
C1463 C1464 1.400 . S
C1463 C1468 1.490 . S
C1464 H1454 0.930 . S
C1464 C1463 1.400 . S
C1464 C1467 1.386 . S
H1465 C1481 0.930 . S
H1466 C1482 0.931 . S
C1467 H1455 0.929 . S
C1467 C1461 1.390 . S
C1467 C1464 1.386 . S
C1468 C1463 1.490 . S
C1468 C1470 1.395 . S
C1468 C1471 1.403 . S
H1469 C1475 0.930 . S
C1470 H1456 0.930 . S
C1470 C1468 1.395 . S
C1470 C1473 1.403 . S
C1471 C1468 1.403 . S
C1471 C1472 1.524 . S
C1471 C1475 1.400 . S
C1472 H1457 0.960 . S
C1472 H1458 0.960 . S
C1472 H1459 0.960 . S
C1472 C1471 1.524 . S
C1473 C1470 1.403 . S
C1473 C1474 1.392 . S
C1473 C1477 1.495 . S
C1474 C1473 1.392 . S
C1474 C1475 1.385 . S
C1474 C1476 1.478 . S
C1475 H1469 0.930 . S
C1475 C1471 1.400 . S
C1475 C1474 1.385 . S
C1476 C1474 1.478 . S
C1476 C1478 1.381 . S
C1476 C1482 1.383 . S
C1477 C1473 1.495 . S
C1477 H1483 0.959 . S
C1477 H1484 0.961 . S
C1477 H1485 0.960 . S
C1478 C1476 1.381 . S
C1478 C1479 1.394 . S
C1478 H1486 0.930 . S
C1479 C1478 1.394 . S
C1479 C1480 1.383 . S
C1479 H1487 0.929 . S
C1480 C1479 1.383 . S
C1480 C1481 1.377 . S
C1481 H1465 0.930 . S
C1481 C1480 1.377 . S
C1481 C1482 1.379 . S
C1482 H1466 0.931 . S
C1482 C1476 1.383 . S
C1482 C1481 1.379 . S
H1483 C1477 0.959 . S
H1484 C1477 0.961 . S
H1485 C1477 0.960 . S
H1486 C1478 0.930 . S
H1487 C1479 0.929 . S
H1488 C1496 0.929 . S
H1489 C1498 0.930 . S
H1490 C1500 0.930 . S
H1491 C1503 0.929 . S
H1492 C1506 0.930 . S
H1493 C1508 0.960 . S
H1494 C1508 0.960 . S
H1495 C1508 0.960 . S
C1496 H1488 0.929 . S
C1496 C1497 1.377 . S
C1496 C1498 1.384 . S
C1497 C1496 1.377 . S
C1497 C1503 1.390 . S
C1498 H1489 0.930 . S
C1498 C1496 1.384 . S
C1498 C1499 1.372 . S
C1499 C1498 1.372 . S
C1499 C1500 1.400 . S
C1499 C1504 1.490 . S
C1500 H1490 0.930 . S
C1500 C1499 1.400 . S
C1500 C1503 1.386 . S
H1501 C1517 0.930 . S
H1502 C1518 0.931 . S
C1503 H1491 0.929 . S
C1503 C1497 1.390 . S
C1503 C1500 1.386 . S
C1504 C1499 1.490 . S
C1504 C1506 1.395 . S
C1504 C1507 1.403 . S
H1505 C1511 0.930 . S
C1506 H1492 0.930 . S
C1506 C1504 1.395 . S
C1506 C1509 1.403 . S
C1507 C1504 1.403 . S
C1507 C1508 1.524 . S
C1507 C1511 1.400 . S
C1508 H1493 0.960 . S
C1508 H1494 0.960 . S
C1508 H1495 0.960 . S
C1508 C1507 1.524 . S
C1509 C1506 1.403 . S
C1509 C1510 1.392 . S
C1509 C1513 1.495 . S
C1510 C1509 1.392 . S
C1510 C1511 1.385 . S
C1510 C1512 1.478 . S
C1511 H1505 0.930 . S
C1511 C1507 1.400 . S
C1511 C1510 1.385 . S
C1512 C1510 1.478 . S
C1512 C1514 1.381 . S
C1512 C1518 1.383 . S
C1513 C1509 1.495 . S
C1513 H1519 0.959 . S
C1513 H1520 0.961 . S
C1513 H1521 0.960 . S
C1514 C1512 1.381 . S
C1514 C1515 1.394 . S
C1514 H1522 0.930 . S
C1515 C1514 1.394 . S
C1515 C1516 1.383 . S
C1515 H1523 0.929 . S
C1516 C1515 1.383 . S
C1516 C1517 1.377 . S
C1517 H1501 0.930 . S
C1517 C1516 1.377 . S
C1517 C1518 1.379 . S
C1518 H1502 0.931 . S
C1518 C1512 1.383 . S
C1518 C1517 1.379 . S
H1519 C1513 0.959 . S
H1520 C1513 0.961 . S
H1521 C1513 0.960 . S
H1522 C1514 0.930 . S
H1523 C1515 0.929 . S
H1524 C1532 0.929 . S
H1525 C1534 0.930 . S
H1526 C1536 0.930 . S
H1527 C1539 0.929 . S
H1528 C1542 0.930 . S
H1529 C1544 0.960 . S
H1530 C1544 0.960 . S
H1531 C1544 0.960 . S
C1532 H1524 0.929 . S
C1532 C1533 1.377 . S
C1532 C1534 1.384 . S
C1533 C1532 1.377 . S
C1533 C1539 1.390 . S
C1534 H1525 0.930 . S
C1534 C1532 1.384 . S
C1534 C1535 1.372 . S
C1535 C1534 1.372 . S
C1535 C1536 1.400 . S
C1535 C1540 1.490 . S
C1536 H1526 0.930 . S
C1536 C1535 1.400 . S
C1536 C1539 1.386 . S
H1537 C1553 0.930 . S
H1538 C1554 0.931 . S
C1539 H1527 0.929 . S
C1539 C1533 1.390 . S
C1539 C1536 1.386 . S
C1540 C1535 1.490 . S
C1540 C1542 1.395 . S
C1540 C1543 1.403 . S
H1541 C1547 0.930 . S
C1542 H1528 0.930 . S
C1542 C1540 1.395 . S
C1542 C1545 1.403 . S
C1543 C1540 1.403 . S
C1543 C1544 1.524 . S
C1543 C1547 1.400 . S
C1544 H1529 0.960 . S
C1544 H1530 0.960 . S
C1544 H1531 0.960 . S
C1544 C1543 1.524 . S
C1545 C1542 1.403 . S
C1545 C1546 1.392 . S
C1545 C1549 1.495 . S
C1546 C1545 1.392 . S
C1546 C1547 1.385 . S
C1546 C1548 1.478 . S
C1547 H1541 0.930 . S
C1547 C1543 1.400 . S
C1547 C1546 1.385 . S
C1548 C1546 1.478 . S
C1548 C1550 1.381 . S
C1548 C1554 1.383 . S
C1549 C1545 1.495 . S
C1549 H1555 0.959 . S
C1549 H1556 0.961 . S
C1549 H1557 0.960 . S
C1550 C1548 1.381 . S
C1550 C1551 1.394 . S
C1550 H1558 0.930 . S
C1551 C1550 1.394 . S
C1551 C1552 1.383 . S
C1551 H1559 0.929 . S
C1552 C1551 1.383 . S
C1552 C1553 1.377 . S
C1553 H1537 0.930 . S
C1553 C1552 1.377 . S
C1553 C1554 1.379 . S
C1554 H1538 0.931 . S
C1554 C1548 1.383 . S
C1554 C1553 1.379 . S
H1555 C1549 0.959 . S
H1556 C1549 0.961 . S
H1557 C1549 0.960 . S
H1558 C1550 0.930 . S
H1559 C1551 0.929 . S
H1560 C1568 0.929 . S
H1561 C1570 0.930 . S
H1562 C1572 0.930 . S
H1563 C1575 0.929 . S
H1564 C1578 0.930 . S
H1565 C1580 0.960 . S
H1566 C1580 0.960 . S
H1567 C1580 0.960 . S
C1568 H1560 0.929 . S
C1568 C1569 1.377 . S
C1568 C1570 1.384 . S
C1569 C1568 1.377 . S
C1569 C1575 1.390 . S
C1570 H1561 0.930 . S
C1570 C1568 1.384 . S
C1570 C1571 1.372 . S
C1571 C1570 1.372 . S
C1571 C1572 1.400 . S
C1571 C1576 1.490 . S
C1572 H1562 0.930 . S
C1572 C1571 1.400 . S
C1572 C1575 1.386 . S
H1573 C1589 0.930 . S
H1574 C1590 0.931 . S
C1575 H1563 0.929 . S
C1575 C1569 1.390 . S
C1575 C1572 1.386 . S
C1576 C1571 1.490 . S
C1576 C1578 1.395 . S
C1576 C1579 1.403 . S
H1577 C1583 0.937 . S
C1578 H1564 0.930 . S
C1578 C1576 1.395 . S
C1578 C1581 1.403 1_554 S
C1579 C1576 1.403 . S
C1579 C1580 1.524 . S
C1579 C1583 1.400 . S
C1580 H1565 0.960 . S
C1580 H1566 0.960 . S
C1580 H1567 0.960 . S
C1580 C1579 1.524 . S
C1581 C1578 1.403 1_556 S
C1581 C1582 1.392 . S
C1581 C1585 1.495 . S
C1582 C1581 1.392 . S
C1582 C1583 1.385 1_556 S
C1582 C1584 1.478 . S
C1583 H1577 0.937 . S
C1583 C1579 1.400 . S
C1583 C1582 1.385 1_554 S
C1584 C1582 1.478 . S
C1584 C1586 1.381 . S
C1584 C1590 1.383 . S
C1585 C1581 1.495 . S
C1585 H1591 0.959 . S
C1585 H1592 0.961 . S
C1585 H1593 0.960 . S
C1586 C1584 1.381 . S
C1586 C1587 1.394 . S
C1586 H1594 0.930 . S
C1587 C1586 1.394 . S
C1587 C1588 1.383 . S
C1587 H1595 0.929 . S
C1588 C1587 1.383 . S
C1588 C1589 1.377 . S
C1589 H1573 0.930 . S
C1589 C1588 1.377 . S
C1589 C1590 1.379 . S
C1590 H1574 0.931 . S
C1590 C1584 1.383 . S
C1590 C1589 1.379 . S
H1591 C1585 0.959 . S
H1592 C1585 0.961 . S
H1593 C1585 0.960 . S
H1594 C1586 0.930 . S
H1595 C1587 0.929 . S
H1596 C1604 0.929 . S
H1597 C1606 0.930 . S
H1598 C1608 0.930 . S
H1599 C1611 0.929 . S
H1600 C1614 0.930 . S
H1601 C1616 0.960 . S
H1602 C1616 0.960 . S
H1603 C1616 0.960 . S
C1604 H1596 0.929 . S
C1604 C1605 1.377 . S
C1604 C1606 1.384 . S
C1605 C1604 1.377 . S
C1605 C1611 1.390 . S
C1606 H1597 0.930 . S
C1606 C1604 1.384 . S
C1606 C1607 1.372 . S
C1607 C1606 1.372 . S
C1607 C1608 1.400 . S
C1607 C1612 1.490 . S
C1608 H1598 0.930 . S
C1608 C1607 1.400 . S
C1608 C1611 1.386 . S
H1609 C1625 0.930 . S
H1610 C1626 0.931 . S
C1611 H1599 0.929 . S
C1611 C1605 1.390 . S
C1611 C1608 1.386 . S
C1612 C1607 1.490 . S
C1612 C1614 1.395 . S
C1612 C1615 1.403 . S
H1613 C1619 0.930 . S
C1614 H1600 0.930 . S
C1614 C1612 1.395 . S
C1614 C1617 1.403 . S
C1615 C1612 1.403 . S
C1615 C1616 1.524 . S
C1615 C1619 1.400 . S
C1616 H1601 0.960 . S
C1616 H1602 0.960 . S
C1616 H1603 0.960 . S
C1616 C1615 1.524 . S
C1617 C1614 1.403 . S
C1617 C1618 1.392 . S
C1617 C1621 1.495 . S
C1618 C1617 1.392 . S
C1618 C1619 1.385 . S
C1618 C1620 1.478 . S
C1619 H1613 0.930 . S
C1619 C1615 1.400 . S
C1619 C1618 1.385 . S
C1620 C1618 1.478 . S
C1620 C1622 1.381 . S
C1620 C1626 1.383 . S
C1621 C1617 1.495 . S
C1621 H1627 0.959 . S
C1621 H1628 0.961 . S
C1621 H1629 0.960 . S
C1622 C1620 1.381 . S
C1622 C1623 1.394 . S
C1622 H1630 0.930 . S
C1623 C1622 1.394 . S
C1623 C1624 1.383 . S
C1623 H1631 0.929 . S
C1624 C1623 1.383 . S
C1624 C1625 1.377 . S
C1625 H1609 0.930 . S
C1625 C1624 1.377 . S
C1625 C1626 1.379 . S
C1626 H1610 0.931 . S
C1626 C1620 1.383 . S
C1626 C1625 1.379 . S
H1627 C1621 0.959 . S
H1628 C1621 0.961 . S
H1629 C1621 0.960 . S
H1630 C1622 0.930 . S
H1631 C1623 0.929 . S
C796 C761 1.571 . S
C777 C1 1.161 . S
C813 C169 1.311 . S
C832 C695 1.598 . S
C849 C283 1.234 . S
C868 C709 1.484 . S
C885 C397 1.176 . S
C904 C723 1.423 . S
C940 C737 1.365 . S
C921 C457 1.024 . S
C957 C571 1.002 . S
C976 C747 1.378 . S
C993 C115 1.181 . S
C1012 C705 1.578 . S
C1029 C229 1.159 . S
C1048 C719 1.565 . S
C1065 C343 1.040 . S
C1084 C733 1.433 . S
C1120 C751 1.493 . S
C1101 C511 1.293 . S
C1156 C765 1.600 . S
C1137 C625 1.348 . S
C1192 C691 1.699 . S
C1173 C55 1.382 . S
C1209 C29 1.145 . S
C1228 C706 1.345 . S
C1245 C125 1.015 . S
C1264 C720 1.562 . S
C1300 C734 1.490 . S
C1281 C239 0.973 . S
C1317 C353 0.878 . S
C1336 C753 1.371 . S
C1372 C767 1.208 . S
C1353 C485 1.031 . S
C1408 C692 1.276 . S
C1389 C599 1.074 . S
C1444 C762 1.351 . S
C1425 C143 1.126 . S
C1461 C257 0.988 . S
C1480 C697 1.184 . S
C1516 C711 1.119 . S
C1497 C371 0.936 . S
C1533 C467 0.887 . S
C1552 C725 1.357 . S
C1569 C581 0.904 . S
C1588 C739 1.383 . S
C1605 C11 0.923 . S
C1624 C748 1.465 . S
