# Generated by pormake.
# Topology pyr, (3,6)-cn, num edge types: 1
# Building blocks:
#     Node 0, Type 0, BuildingBlock: BETDAH_clean_linker_0, # of connection points: 3
#     Node 1, Type 0, BuildingBlock: BETDAH_clean_linker_0, # of connection points: 3
#     Node 2, Type 0, BuildingBlock: BETDAH_clean_linker_0, # of connection points: 3
#     Node 3, Type 0, BuildingBlock: BETDAH_clean_linker_0, # of connection points: 3
#     Node 4, Type 0, BuildingBlock: BETDAH_clean_linker_0, # of connection points: 3
#     Node 5, Type 0, BuildingBlock: BETDAH_clean_linker_0, # of connection points: 3
#     Node 6, Type 0, BuildingBlock: BETDAH_clean_linker_0, # of connection points: 3
#     Node 7, Type 0, BuildingBlock: BETDAH_clean_linker_0, # of connection points: 3
#     Node 8, Type 1, BuildingBlock: JUFBIX_clean_sbu_0, # of connection points: 6
#     Node 9, Type 1, BuildingBlock: JUFBIX_clean_sbu_0, # of connection points: 6
#     Node 10, Type 1, BuildingBlock: JUFBIX_clean_sbu_0, # of connection points: 6
#     Node 11, Type 1, BuildingBlock: JUFBIX_clean_sbu_0, # of connection points: 6
#     Edge 12, Type (0, 1), BuildingBlock: ZUJKAS_clean_linker_0, # of connection points: 2
#     Edge 13, Type (0, 1), BuildingBlock: ZUJKAS_clean_linker_0, # of connection points: 2
#     Edge 14, Type (0, 1), BuildingBlock: ZUJKAS_clean_linker_0, # of connection points: 2
#     Edge 15, Type (0, 1), BuildingBlock: ZUJKAS_clean_linker_0, # of connection points: 2
#     Edge 16, Type (0, 1), BuildingBlock: ZUJKAS_clean_linker_0, # of connection points: 2
#     Edge 17, Type (0, 1), BuildingBlock: ZUJKAS_clean_linker_0, # of connection points: 2
#     Edge 18, Type (0, 1), BuildingBlock: ZUJKAS_clean_linker_0, # of connection points: 2
#     Edge 19, Type (0, 1), BuildingBlock: ZUJKAS_clean_linker_0, # of connection points: 2
#     Edge 20, Type (0, 1), BuildingBlock: ZUJKAS_clean_linker_0, # of connection points: 2
#     Edge 21, Type (0, 1), BuildingBlock: ZUJKAS_clean_linker_0, # of connection points: 2
#     Edge 22, Type (0, 1), BuildingBlock: ZUJKAS_clean_linker_0, # of connection points: 2
#     Edge 23, Type (0, 1), BuildingBlock: ZUJKAS_clean_linker_0, # of connection points: 2
#     Edge 24, Type (0, 1), BuildingBlock: ZUJKAS_clean_linker_0, # of connection points: 2
#     Edge 25, Type (0, 1), BuildingBlock: ZUJKAS_clean_linker_0, # of connection points: 2
#     Edge 26, Type (0, 1), BuildingBlock: ZUJKAS_clean_linker_0, # of connection points: 2
#     Edge 27, Type (0, 1), BuildingBlock: ZUJKAS_clean_linker_0, # of connection points: 2
#     Edge 28, Type (0, 1), BuildingBlock: ZUJKAS_clean_linker_0, # of connection points: 2
#     Edge 29, Type (0, 1), BuildingBlock: ZUJKAS_clean_linker_0, # of connection points: 2
#     Edge 30, Type (0, 1), BuildingBlock: ZUJKAS_clean_linker_0, # of connection points: 2
#     Edge 31, Type (0, 1), BuildingBlock: ZUJKAS_clean_linker_0, # of connection points: 2
#     Edge 32, Type (0, 1), BuildingBlock: ZUJKAS_clean_linker_0, # of connection points: 2
#     Edge 33, Type (0, 1), BuildingBlock: ZUJKAS_clean_linker_0, # of connection points: 2
#     Edge 34, Type (0, 1), BuildingBlock: ZUJKAS_clean_linker_0, # of connection points: 2
#     Edge 35, Type (0, 1), BuildingBlock: ZUJKAS_clean_linker_0, # of connection points: 2
# Relax obj value: 0.105
# Max RMSD: 0.197
# Mean RMSD: 0.127
data_MOF--net-pry--node1-JUFBIX_clean_sbu_0--node2-BETDAH_clean_linker_0--edge1-ZUJKAS_clean_linker_0
_symmetry_space_group_name_H-M    P1
_symmetry_Int_Tables_number       1
_symmetry_cell_setting            triclinic
loop_
_symmetry_equiv_pos_as_xyz
'x, y, z'
_cell_length_a     47.258271
_cell_length_b     45.463176
_cell_length_c     49.281961
_cell_angle_alpha  85.825287
_cell_angle_beta   90.106456
_cell_angle_gamma 97.352033
loop_
_atom_site_label
_atom_site_type_symbol
_atom_site_fract_x
_atom_site_fract_y
_atom_site_fract_z
_atom_type_partial_charge
H0 H 0.22552 0.15508 0.23323 0.0
H1 H 0.23353 0.21408 0.16072 0.0
H2 H 0.16662 0.22004 0.21808 0.0
C3 C 0.2182 0.17309 0.22065 0.0
C4 C 0.19416 0.18613 0.22919 0.0
C5 C 0.23299 0.1831 0.19609 0.0
C6 C 0.22294 0.20634 0.17988 0.0
C7 C 0.19914 0.21975 0.18736 0.0
C8 C 0.18473 0.20957 0.21208 0.0
N9 N 0.19119 0.24309 0.1688 0.0
C10 C 0.16966 0.2616 0.17001 0.0
H11 H 0.46232 0.87366 0.71774 0.0
H12 H 0.43513 0.95487 0.68237 0.0
H13 H 0.45573 0.88852 0.63083 0.0
C14 C 0.45722 0.88756 0.70005 0.0
C15 C 0.45986 0.8776 0.67398 0.0
C16 C 0.44894 0.91574 0.7033 0.0
C17 C 0.44226 0.93342 0.68017 0.0
C18 C 0.44481 0.92353 0.65411 0.0
C19 C 0.45423 0.89608 0.65108 0.0
N20 N 0.43709 0.94051 0.63073 0.0
C21 C 0.41042 0.9501 0.62897 0.0
H22 H 0.68619 0.37527 0.94417 0.0
H23 H 0.67875 0.45785 0.89746 0.0
H24 H 0.60747 0.38924 0.90423 0.0
C25 C 0.67399 0.38894 0.93096 0.0
C26 C 0.64565 0.37823 0.92479 0.0
C27 C 0.68621 0.4177 0.92143 0.0
C28 C 0.66979 0.43563 0.90502 0.0
C29 C 0.64136 0.42527 0.89911 0.0
C30 C 0.62941 0.39689 0.90917 0.0
N31 N 0.62367 0.44371 0.88464 0.0
C32 C 0.63107 0.45847 0.85953 0.0
H33 H 0.93435 0.70048 0.48127 0.0
H34 H 1.00212 0.6935 0.42482 0.0
H35 H 0.92085 0.64071 0.41728 0.0
C36 C 0.94238 0.69038 0.46409 0.0
C37 C 0.92436 0.66893 0.45086 0.0
C38 C 0.97036 0.69969 0.45465 0.0
C39 C 0.98058 0.68658 0.43234 0.0
C40 C 0.9628 0.6656 0.41872 0.0
C41 C 0.93472 0.65675 0.42802 0.0
N42 N 0.97349 0.65447 0.39522 0.0
C43 C 0.95628 0.64595 0.37356 0.0
H44 H 0.90608 0.86297 0.84946 0.0
H45 H 0.83952 0.86793 0.90876 0.0
H46 H 0.85137 0.9313 0.83935 0.0
C47 C 0.88837 0.87336 0.85654 0.0
C48 C 0.88033 0.8982 0.84091 0.0
C49 C 0.8739 0.86174 0.88106 0.0
C50 C 0.85096 0.87622 0.89018 0.0
C51 C 0.84277 0.90138 0.87497 0.0
C52 C 0.85757 0.91181 0.85064 0.0
N53 N 0.82048 0.91788 0.88279 0.0
C54 C 0.80005 0.91279 0.90389 0.0
H55 H 0.68544 0.16695 0.38219 0.0
H56 H 0.73379 0.24551 0.41002 0.0
H57 H 0.65162 0.25078 0.37416 0.0
C58 C 0.68703 0.1903 0.38596 0.0
C59 C 0.66528 0.20703 0.37704 0.0
C60 C 0.71187 0.20394 0.39781 0.0
C61 C 0.71472 0.23457 0.40096 0.0
C62 C 0.69289 0.2513 0.39311 0.0
C63 C 0.66809 0.23756 0.38115 0.0
N64 N 0.69721 0.28222 0.39621 0.0
C65 C 0.67574 0.29799 0.40405 0.0
H66 H 0.33914 0.71389 0.15144 0.0
H67 H 0.29386 0.64515 0.20544 0.0
H68 H 0.37008 0.69615 0.23238 0.0
C69 C 0.33715 0.70103 0.17087 0.0
C70 C 0.35723 0.70786 0.19135 0.0
C71 C 0.31416 0.67838 0.17552 0.0
C72 C 0.31176 0.66222 0.20101 0.0
C73 C 0.33195 0.66807 0.22135 0.0
C74 C 0.35467 0.69107 0.21656 0.0
N75 N 0.32812 0.65077 0.24653 0.0
C76 C 0.34841 0.65025 0.26693 0.0
H77 H 0.13366 0.3966 0.59386 0.0
H78 H 0.12567 0.46735 0.64576 0.0
H79 H 0.05339 0.40282 0.63272 0.0
C80 C 0.12088 0.40784 0.607 0.0
C81 C 0.09219 0.3963 0.61204 0.0
C82 C 0.13319 0.43363 0.61885 0.0
C83 C 0.11635 0.44792 0.63588 0.0
C84 C 0.0875 0.43694 0.64055 0.0
C85 C 0.07542 0.41161 0.6282 0.0
N86 N 0.07054 0.45028 0.65856 0.0
C87 C 0.08125 0.46076 0.68278 0.0
Co88 Co 0.0178 0.04318 0.52761 0.0
C89 C 0.04479 0.99198 0.52432 0.0
Co90 Co 0.06065 0.04529 0.54557 0.0
C91 C 0.96712 0.05862 0.50026 0.0
C92 C 0.96279 0.01301 0.51568 0.0
N93 N 0.9814 0.03818 0.51356 0.0
N94 N 0.94029 0.04721 0.49406 0.0
C95 C 0.93754 0.01846 0.50365 0.0
H96 H 0.97618 0.08149 0.49545 0.0
H97 H 0.96707 0.99219 0.52591 0.0
C98 C 0.0333 0.0964 0.54906 0.0
N99 N 0.09739 0.05075 0.55936 0.0
C100 C 0.11422 0.03071 0.56944 0.0
C101 C 0.11429 0.0771 0.55825 0.0
N102 N 0.14095 0.04362 0.57434 0.0
C103 C 0.1409 0.07283 0.56751 0.0
C104 C 0.06016 0.06585 0.48937 0.0
O105 O 0.01301 0.08214 0.53669 0.0
O106 O 0.05541 0.0841 0.55479 0.0
O107 O 0.07585 0.06143 0.50999 0.0
O108 O 0.03323 0.05925 0.49229 0.0
O109 O 0.06531 0.00625 0.53645 0.0
H110 H 0.10811 0.09807 0.55013 0.0
H111 H 0.10749 0.00699 0.57179 0.0
O112 O 0.02274 1.00439 0.51854 0.0
O113 O 1.0026 0.02716 0.5631 0.0
O114 O 0.04523 0.02909 0.58091 0.0
C115 C 0.01824 0.02259 0.58373 0.0
H116 H 0.91833 1.00278 0.50296 0.0
H117 H 0.15905 0.08985 0.56846 0.0
Co118 Co 0.50379 0.02981 0.04443 0.0
C119 C 0.5013 0.9859 0.08775 0.0
Co120 Co 0.53108 0.04143 0.07932 0.0
C121 C 0.4853 0.01835 0.98979 0.0
C122 C 0.45204 0.00634 0.01946 0.0
N123 N 0.47955 0.01835 0.01659 0.0
N124 N 0.46246 0.00664 0.97577 0.0
C125 C 0.4415 0.99914 0.99448 0.0
H126 H 0.50598 0.02651 0.98089 0.0
H127 H 0.4406 1.00232 0.03864 0.0
C128 C 0.53378 0.08536 0.03621 0.0
N129 N 0.55544 0.0531 0.10723 0.0
C130 C 0.54912 0.05925 0.13278 0.0
C131 C 0.58397 0.06027 0.10491 0.0
N132 N 0.57256 0.07026 0.14632 0.0
C133 C 0.59452 0.07064 0.12884 0.0
C134 C 0.55872 0.01282 0.03926 0.0
O135 O 0.51545 0.06717 0.02506 0.0
O136 O 0.54311 0.07815 0.05962 0.0
O137 O 0.56157 0.02378 0.06235 0.0
O138 O 0.53472 0.01299 0.02743 0.0
O139 O 0.51903 1.00457 0.09901 0.0
H140 H 0.59632 0.05911 0.08666 0.0
H141 H 0.52762 0.05696 0.14086 0.0
O142 O 0.49235 0.99263 0.06405 0.0
O143 O 0.47304 0.04664 0.06145 0.0
O144 O 0.50014 0.0589 0.09583 0.0
C145 C 0.47598 0.05836 0.08415 0.0
H146 H 0.42033 0.98815 0.99068 0.0
H147 H 0.61665 0.07837 0.1328 0.0
Co148 Co 0.55029 0.57691 0.54195 0.0
C149 C 0.50371 0.5795 0.50729 0.0
Co150 Co 0.51089 0.54918 0.55678 0.0
C151 C 0.6096 0.59514 0.52827 0.0
C152 C 0.58357 0.62964 0.51859 0.0
N153 N 0.58244 0.60128 0.52908 0.0
N154 N 0.62769 0.61861 0.51779 0.0
C155 C 0.61132 0.64036 0.51167 0.0
H156 H 0.61599 0.57398 0.53564 0.0
H157 H 0.56534 0.64173 0.51615 0.0
C158 C 0.55737 0.54677 0.59158 0.0
N159 N 0.47879 0.52476 0.56975 0.0
C160 C 0.45145 0.53043 0.57012 0.0
C161 C 0.47811 0.49688 0.58134 0.0
N162 N 0.43375 0.5072 0.58163 0.0
C163 C 0.4505 0.48606 0.5887 0.0
C164 C 0.5454 0.52032 0.52462 0.0
O165 O 0.57047 0.56482 0.57351 0.0
O166 O 0.53129 0.53716 0.588 0.0
O167 O 0.52215 0.51736 0.53805 0.0
O168 O 0.56142 0.54504 0.5237 0.0
O169 O 0.49072 0.5615 0.52547 0.0
H170 H 0.49654 0.48516 0.5842 0.0
H171 H 0.44477 0.55133 0.56241 0.0
O172 O 0.52992 0.58888 0.51054 0.0
O173 O 0.53896 0.60857 0.56029 0.0
O174 O 0.49986 0.58115 0.57545 0.0
C175 C 0.51599 0.60584 0.57408 0.0
H176 H 0.61878 0.66233 0.5025 0.0
H177 H 0.44328 0.46412 0.59809 0.0
Co178 Co 0.01921 0.5528 1.01031 0.0
C179 C 0.96268 0.52651 0.02216 0.0
Co180 Co 1.00265 0.55938 0.05083 0.0
C181 C 0.05202 0.53911 0.96345 0.0
C182 C 1.0105 0.55096 0.95375 0.0
N183 N 0.02864 0.54784 0.97465 0.0
N184 N 0.04871 0.5364 0.9365 0.0
C185 C 0.0227 0.54378 0.93036 0.0
H186 H 0.07053 0.53386 0.97488 0.0
H187 H 0.98934 0.55735 0.95553 0.0
C188 C 0.05912 0.58571 0.03892 0.0
N189 N 0.9931 0.56379 0.08655 0.0
C190 C 0.96922 0.57097 0.09813 0.0
C191 C 1.01043 0.5582 0.10758 0.0
N192 N 0.97103 0.56948 0.12556 0.0
C193 C 0.99696 0.56158 0.13146 0.0
C194 C 0.03155 0.5078 0.04808 0.0
O195 O 0.05519 0.57543 0.01572 0.0
O196 O 0.03897 0.58121 0.05636 0.0
O197 O 0.0176 0.52274 0.06295 0.0
O198 O 0.03505 0.51672 0.02302 0.0
O199 O 0.96632 0.53765 0.04501 0.0
H200 H 0.03158 0.55181 0.10567 0.0
H201 H 0.95077 0.57656 0.08678 0.0
O202 O 0.98316 0.5301 1.00511 0.0
O203 O 1.00339 0.58897 0.99797 0.0
O204 O 0.98774 0.59593 0.03845 0.0
C205 C 0.9904 0.60444 0.01323 0.0
H206 H 0.01312 0.54354 0.91039 0.0
H207 H 1.00571 0.55886 0.15167 0.0
H208 H 0.21808 0.1688 0.2781 0.0
H209 H 0.19427 0.14911 0.32084 0.0
H210 H 0.11264 0.15942 0.28495 0.0
H211 H 0.13629 0.17849 0.24179 0.0
H212 H 0.15997 0.17354 0.35573 0.0
H213 H 0.09843 0.07364 0.31639 0.0
H214 H 0.12714 0.09575 0.29727 0.0
H215 H 0.09252 0.10807 0.29839 0.0
C216 C 0.19501 0.16662 0.27903 0.0
C217 C 0.17929 0.1751 0.25599 0.0
C218 C 0.18135 0.15546 0.30374 0.0
C219 C 0.15143 0.15208 0.30637 0.0
C220 C 0.13565 0.16104 0.2836 0.0
H221 H 0.03316 0.0812 0.44149 0.0
H222 H 0.05475 0.10259 0.39802 0.0
C223 C 0.14933 0.17237 0.25885 0.0
C224 C 0.13706 0.13966 0.33296 0.0
H225 H 0.08879 0.08316 0.36181 0.0
C226 C 0.14446 0.15372 0.35698 0.0
C227 C 0.11661 0.11381 0.335 0.0
C228 C 0.10832 0.09672 0.31048 0.0
C229 C 0.13192 0.14311 0.3825 0.0
C230 C 0.11174 0.11701 0.38464 0.0
C231 C 0.10417 0.10307 0.36056 0.0
C232 C 0.09846 0.10376 0.41152 0.0
C233 C 0.13997 0.16063 0.40683 0.0
C234 C 0.11548 0.09657 0.43396 0.0
C235 C 0.10312 0.08444 0.45899 0.0
C236 C 0.07324 0.07866 0.46244 0.0
C237 C 0.0562 0.08533 0.43984 0.0
C238 C 0.0686 0.09759 0.41481 0.0
H239 H 0.14798 0.1842 0.40061 0.0
H240 H 0.12155 0.16012 0.42088 0.0
H241 H 0.15732 0.15085 0.41805 0.0
H242 H 0.13851 0.1001 0.43211 0.0
H243 H 0.1171 0.07944 0.47566 0.0
H244 H 0.42557 0.88607 0.74981 0.0
H245 H 0.42622 0.90392 0.79554 0.0
H246 H 0.47165 0.98798 0.76449 0.0
H247 H 0.47065 0.97042 0.71872 0.0
H248 H 0.47191 0.92055 0.82601 0.0
H249 H 0.409 0.01492 0.80842 0.0
H250 H 0.41024 0.98715 0.78424 0.0
H251 H 0.43887 0.01717 0.78561 0.0
C252 C 0.43553 0.90842 0.75276 0.0
C253 C 0.44797 0.92692 0.73073 0.0
C254 C 0.43584 0.91861 0.77883 0.0
C255 C 0.44862 0.94743 0.78336 0.0
C256 C 0.46101 0.96596 0.76137 0.0
H257 H 0.50684 1.00175 0.94192 0.0
H258 H 0.50396 0.98915 0.89464 0.0
C259 C 0.46049 0.95588 0.73525 0.0
C260 C 0.45034 0.95747 0.81132 0.0
H261 H 0.4341 0.01213 0.85036 0.0
C262 C 0.46353 0.94051 0.83137 0.0
C263 C 0.43913 0.98334 0.81832 0.0
C264 C 0.42326 1.00154 0.79809 0.0
C265 C 0.46606 0.94882 0.8582 0.0
C266 C 0.45579 0.97528 0.86497 0.0
C267 C 0.44231 0.99208 0.84501 0.0
C268 C 0.45788 0.98525 0.89295 0.0
C269 C 0.47909 0.92878 0.87914 0.0
C270 C 0.43304 0.98865 0.90727 0.0
C271 C 0.43464 0.99646 0.93415 0.0
C272 C 0.46113 1.00095 0.94734 0.0
C273 C 0.48608 0.99857 0.93254 0.0
C274 C 0.48446 0.99097 0.90556 0.0
H275 H 0.47862 0.90588 0.87251 0.0
H276 H 0.50173 0.9378 0.88219 0.0
H277 H 0.46776 0.92752 0.89899 0.0
H278 H 0.41232 0.98466 0.89782 0.0
H279 H 0.41503 0.99873 0.94463 0.0
H280 H 0.59908 0.49839 0.83785 0.0
H281 H 0.5968 0.51563 0.78973 0.0
H282 H 0.66567 0.46616 0.77155 0.0
H283 H 0.66743 0.44831 0.81986 0.0
H284 H 0.63467 0.54635 0.75204 0.0
H285 H 0.60135 0.43059 0.72421 0.0
H286 H 0.60316 0.44029 0.75905 0.0
H287 H 0.63527 0.43686 0.74072 0.0
C288 C 0.61405 0.49171 0.82359 0.0
C289 C 0.63342 0.47218 0.83223 0.0
C290 C 0.61276 0.50152 0.79616 0.0
C291 C 0.63076 0.49181 0.77697 0.0
C292 C 0.65125 0.47349 0.78593 0.0
H293 H 0.61326 0.56182 0.60608 0.0
H294 H 0.63574 0.54832 0.64935 0.0
C295 C 0.65243 0.46353 0.81345 0.0
C296 C 0.62631 0.49931 0.74759 0.0
H297 H 0.60209 0.46858 0.68934 0.0
C298 C 0.62793 0.52938 0.73817 0.0
C299 C 0.61723 0.47707 0.72966 0.0
C300 C 0.61388 0.44439 0.73885 0.0
C301 C 0.6197 0.53786 0.71163 0.0
C302 C 0.61011 0.51561 0.69389 0.0
C303 C 0.60959 0.48556 0.70297 0.0
C304 C 0.59752 0.52284 0.667 0.0
C305 C 0.61982 0.5705 0.70332 0.0
C306 C 0.56888 0.51222 0.66225 0.0
C307 C 0.5561 0.51959 0.63758 0.0
C308 C 0.5717 0.53781 0.61705 0.0
C309 C 0.60062 0.54791 0.62156 0.0
C310 C 0.61345 0.54037 0.64632 0.0
H311 H 0.6225 0.58437 0.72103 0.0
H312 H 0.63778 0.57799 0.68896 0.0
H313 H 0.59969 0.57448 0.69284 0.0
H314 H 0.55619 0.49862 0.6779 0.0
H315 H 0.53382 0.51136 0.63481 0.0
H316 H 0.92961 0.68364 0.34113 0.0
H317 H 0.91 0.6744 0.29586 0.0
H318 H 0.92975 0.58415 0.306 0.0
H319 H 0.94893 0.59336 0.35122 0.0
H320 H 0.9439 0.66158 0.25622 0.0
H321 H 0.85376 0.57196 0.26779 0.0
H322 H 0.86643 0.59385 0.2956 0.0
H323 H 0.88343 0.56219 0.28764 0.0
C324 C 0.92886 0.66162 0.33387 0.0
C325 C 0.94056 0.6391 0.34932 0.0
C326 C 0.91765 0.65634 0.30813 0.0
C327 C 0.91795 0.62844 0.29768 0.0
C328 C 0.92848 0.60556 0.31389 0.0
H329 H 0.95921 0.53977 0.174 0.0
H330 H 0.93508 0.5574 0.21207 0.0
C331 C 0.93968 0.61086 0.33959 0.0
C332 C 0.91236 0.62457 0.26847 0.0
H333 H 0.88252 0.57337 0.22608 0.0
C334 C 0.92975 0.64291 0.24939 0.0
C335 C 0.8937 0.6004 0.25958 0.0
C336 C 0.87306 0.58121 0.27877 0.0
C337 C 0.93151 0.63571 0.22231 0.0
C338 C 0.91493 0.60973 0.21404 0.0
C339 C 0.89532 0.59318 0.23246 0.0
C340 C 0.9225 0.59601 0.18912 0.0
C341 C 0.95325 0.65427 0.20364 0.0
C342 C 0.92204 0.6109 0.16312 0.0
C343 C 0.93619 0.60088 0.14126 0.0
C344 C 0.95079 0.57588 0.14529 0.0
C345 C 0.94858 0.55943 0.17059 0.0
C346 C 0.93458 0.56937 0.19227 0.0
H347 H 0.96645 0.67184 0.21428 0.0
H348 H 0.96771 0.63999 0.19482 0.0
H349 H 0.94214 0.66527 0.18667 0.0
H350 H 0.91235 0.63121 0.16014 0.0
H351 H 0.93753 0.61382 0.12187 0.0
H352 H 0.28267 0.21167 0.17194 0.0
H353 H 0.32323 0.19029 0.15453 0.0
H354 H 0.28349 0.1025 0.1816 0.0
H355 H 0.24271 0.12389 0.19938 0.0
H356 H 0.33979 0.10702 0.19143 0.0
H357 H 0.3269 0.15056 0.08508 0.0
H358 H 0.3314 0.17962 0.10803 0.0
H359 H 0.30032 0.15213 0.11096 0.0
C360 C 0.28229 0.18775 0.17408 0.0
C361 C 0.25886 0.16965 0.18689 0.0
C362 C 0.30567 0.17545 0.16394 0.0
C363 C 0.30649 0.14451 0.16588 0.0
C364 C 0.28359 0.12639 0.17948 0.0
H365 H 0.42072 0.05703 0.06593 0.0
H366 H 0.38055 0.07672 0.08631 0.0
C367 C 0.26018 0.13873 0.1898 0.0
C368 C 0.33112 0.13126 0.15385 0.0
H369 H 0.37004 0.13036 0.09518 0.0
C370 C 0.34628 0.11212 0.17034 0.0
C371 C 0.33972 0.13723 0.12615 0.0
C372 C 0.32357 0.15574 0.10645 0.0
C373 C 0.36972 0.09945 0.16025 0.0
C374 C 0.37902 0.1064 0.13283 0.0
C375 C 0.36351 0.12511 0.11624 0.0
C376 C 0.4041 0.09397 0.12068 0.0
C377 C 0.38376 0.07805 0.17902 0.0
C378 C 0.43136 0.09708 0.13269 0.0
C379 C 0.45455 0.08556 0.12105 0.0
C380 C 0.45138 0.07085 0.09677 0.0
C381 C 0.42421 0.06813 0.08459 0.0
C382 C 0.40106 0.0795 0.0963 0.0
H383 H 0.36923 0.06816 0.19591 0.0
H384 H 0.39057 0.05976 0.16788 0.0
H385 H 0.40288 0.09018 0.18817 0.0
H386 H 0.43491 0.10878 0.15099 0.0
H387 H 0.47505 0.08838 0.13102 0.0
H388 H 0.36558 0.92692 0.66054 0.0
H389 H 0.31569 0.93608 0.65424 0.0
H390 H 0.34137 0.99826 0.58566 0.0
H391 H 0.39105 0.98877 0.59178 0.0
H392 H 0.2911 0.98902 0.65418 0.0
H393 H 0.27815 0.94038 0.55442 0.0
H394 H 0.30741 0.93435 0.5769 0.0
H395 H 0.30869 0.96816 0.55527 0.0
C396 C 0.3604 0.94263 0.64426 0.0
C397 C 0.38173 0.95722 0.62658 0.0
C398 C 0.33204 0.94779 0.64065 0.0
C399 C 0.32482 0.96739 0.61917 0.0
C400 C 0.34643 0.98255 0.60198 0.0
H401 H 0.19541 0.06136 0.55842 0.0
H402 H 0.23745 0.03814 0.57192 0.0
C403 C 0.37474 0.97737 0.60559 0.0
C404 C 0.29478 0.97236 0.6147 0.0
H405 H 0.24358 0.97208 0.56577 0.0
C406 C 0.28044 0.9848 0.63508 0.0
C407 C 0.28086 0.96647 0.58988 0.0
C408 C 0.29445 0.95131 0.56797 0.0
C409 C 0.2532 0.99333 0.63052 0.0
C410 C 0.24013 0.98914 0.60506 0.0
C411 C 0.25381 0.97529 0.58525 0.0
C412 C 0.21413 1.00241 0.59732 0.0
C413 C 0.23915 0.00827 0.65226 0.0
C414 C 0.18708 0.98975 0.60706 0.0
C415 C 0.16284 1.00306 0.59935 0.0
C416 C 0.1655 0.02928 0.58204 0.0
C417 C 0.19269 0.04156 0.57222 0.0
C418 C 0.21672 0.02821 0.57973 0.0
H419 H 0.25254 0.01068 0.67071 0.0
H420 H 0.23471 0.03065 0.64417 0.0
H421 H 0.21839 0.99507 0.65818 0.0
H422 H 0.18477 0.96969 0.62056 0.0
H423 H 0.14216 0.9932 0.60723 0.0
H424 H 0.70497 0.47297 0.9381 0.0
H425 H 0.75214 0.49073 0.95546 0.0
H426 H 0.78051 0.40636 0.94254 0.0
H427 H 0.73349 0.38849 0.92486 0.0
H428 H 0.7929 0.4265 0.99486 0.0
H429 H 0.82743 0.51371 0.91254 0.0
H430 H 0.7932 0.51621 0.92738 0.0
H431 H 0.7981 0.48477 0.90863 0.0
C432 C 0.7214 0.45838 0.93843 0.0
C433 C 0.71547 0.42932 0.93002 0.0
C434 C 0.74831 0.46854 0.94845 0.0
C435 C 0.76985 0.44992 0.95011 0.0
C436 C 0.76414 0.42105 0.94147 0.0
H437 H 0.94964 0.4991 0.97558 0.0
H438 H 0.90264 0.47911 0.95981 0.0
C439 C 0.73726 0.41088 0.93142 0.0
C440 C 0.7981 0.46021 0.96158 0.0
H441 H 0.85685 0.51192 0.95145 0.0
C442 C 0.80693 0.44515 0.98538 0.0
C443 C 0.8164 0.48439 0.94904 0.0
C444 C 0.80851 0.5006 0.92285 0.0
C445 C 0.83355 0.45381 0.99711 0.0
C446 C 0.85161 0.47833 0.98482 0.0
C447 C 0.84284 0.49325 0.96093 0.0
C448 C 0.88017 0.48838 0.99578 0.0
C449 C 0.84239 0.4363 0.02219 0.0
C450 C 0.88319 0.49992 0.02145 0.0
C451 C 0.91017 0.51136 0.03064 0.0
C452 C 0.9345 0.51157 0.0142 0.0
C453 C 0.93138 0.4993 0.98879 0.0
C454 C 0.90451 0.48791 0.97968 0.0
H455 H 0.82906 0.41435 0.02551 0.0
H456 H 0.86511 0.43268 0.02071 0.0
H457 H 0.83996 0.449 0.04025 0.0
H458 H 0.86461 0.5009 0.03402 0.0
H459 H 0.91183 0.52083 0.05021 0.0
H460 H 0.89431 0.61312 0.45617 0.0
H461 H 0.84433 0.59942 0.47012 0.0
H462 H 0.83673 0.69152 0.48023 0.0
H463 H 0.88648 0.70541 0.46615 0.0
H464 H 0.81373 0.65157 0.52391 0.0
H465 H 0.77483 0.61567 0.42335 0.0
H466 H 0.80422 0.5983 0.43743 0.0
H467 H 0.8091 0.63741 0.42744 0.0
C468 C 0.88192 0.63045 0.46121 0.0
C469 C 0.89433 0.66035 0.46003 0.0
C470 C 0.85341 0.62259 0.46917 0.0
C471 C 0.83681 0.64451 0.4759 0.0
C472 C 0.84923 0.67428 0.47512 0.0
H473 H 0.66647 0.66787 0.51766 0.0
H474 H 0.71768 0.67123 0.50924 0.0
C475 C 0.87769 0.68215 0.4672 0.0
C476 C 0.80641 0.63669 0.48371 0.0
H477 H 0.74097 0.61149 0.45889 0.0
C478 C 0.79782 0.64265 0.50977 0.0
C479 C 0.78578 0.62491 0.46522 0.0
C480 C 0.79378 0.61886 0.43671 0.0
C481 C 0.76903 0.63755 0.51774 0.0
C482 C 0.74831 0.62669 0.49896 0.0
C483 C 0.75697 0.61983 0.4732 0.0
C484 C 0.71739 0.62416 0.50498 0.0
C485 C 0.76103 0.64392 0.54615 0.0
C486 C 0.70016 0.59664 0.50486 0.0
C487 C 0.67076 0.59469 0.50944 0.0
C488 C 0.65808 0.6203 0.5139 0.0
C489 C 0.67549 0.64779 0.51402 0.0
C490 C 0.70483 0.6497 0.50955 0.0
H491 H 0.77941 0.64358 0.56021 0.0
H492 H 0.75413 0.66638 0.54564 0.0
H493 H 0.74314 0.62751 0.55441 0.0
H494 H 0.70947 0.57673 0.5011 0.0
H495 H 0.65789 0.57327 0.50887 0.0
H496 H 0.12225 0.25719 0.13847 0.0
H497 H 0.09775 0.2981 0.11849 0.0
H498 H 0.15295 0.36031 0.16289 0.0
H499 H 0.17768 0.31942 0.18248 0.0
H500 H 0.06769 0.33943 0.13745 0.0
H501 H 0.16541 0.39791 0.08647 0.0
H502 H 0.16378 0.3607 0.10236 0.0
H503 H 0.16909 0.39228 0.12265 0.0
C504 C 0.12873 0.27952 0.14442 0.0
C505 C 0.15165 0.28495 0.16241 0.0
C506 C 0.11482 0.30303 0.13281 0.0
C507 C 0.12369 0.33273 0.13855 0.0
C508 C 0.14593 0.33792 0.15743 0.0
H509 H 0.02793 0.4844 0.10116 0.0
H510 H 0.04949 0.4424 0.12219 0.0
C511 C 0.15983 0.31439 0.16902 0.0
C512 C 0.11006 0.35808 0.12447 0.0
H513 H 0.12477 0.42379 0.08505 0.0
C514 C 0.08027 0.35782 0.126 0.0
C515 C 0.12607 0.3821 0.10891 0.0
C516 C 0.15781 0.38323 0.1047 0.0
C517 C 0.06633 0.38084 0.11314 0.0
C518 C 0.08248 0.40541 0.09845 0.0
C519 C 0.11219 0.40535 0.09642 0.0
C520 C 0.06903 0.43135 0.08523 0.0
C521 C 0.03424 0.37816 0.11497 0.0
C522 C 0.07316 0.44023 0.05733 0.0
C523 C 0.06084 0.46463 0.04512 0.0
C524 C 0.04416 0.48108 0.06048 0.0
C525 C 0.0403 0.47227 0.08843 0.0
C526 C 0.05257 0.44795 0.10057 0.0
H527 H 0.02463 0.35469 0.11934 0.0
H528 H 0.02814 0.39105 0.13182 0.0
H529 H 0.025 0.38707 0.09583 0.0
H530 H 0.08586 0.42816 0.04487 0.0
H531 H 0.06456 0.4707 0.02364 0.0
H532 H 0.59144 0.36042 0.9446 0.0
H533 H 0.5705 0.31036 0.96084 0.0
H534 H 0.65007 0.27729 0.94545 0.0
H535 H 0.67082 0.32705 0.92788 0.0
H536 H 0.60389 0.24057 0.92835 0.0
H537 H 0.58686 0.26967 0.03401 0.0
H538 H 0.57005 0.29185 1.00872 0.0
H539 H 0.60833 0.29429 1.00955 0.0
C540 C 0.60444 0.34247 0.94435 0.0
C541 C 0.63289 0.34782 0.935 0.0
C542 C 0.59251 0.31392 0.95396 0.0
C543 C 0.60887 0.29021 0.95479 0.0
C544 C 0.63712 0.29533 0.94515 0.0
H545 H 0.57829 0.1245 0.05157 0.0
H546 H 0.5956 0.1734 0.03006 0.0
C547 C 0.64902 0.32385 0.93536 0.0
C548 C 0.59665 0.26008 0.96585 0.0
H549 H 0.56755 0.22135 0.02316 0.0
C550 C 0.59593 0.23631 0.94908 0.0
C551 C 0.58656 0.25458 0.99298 0.0
C552 C 0.5882 0.27887 0.01247 0.0
C553 C 0.58542 0.20713 0.95874 0.0
C554 C 0.57483 0.20175 0.98572 0.0
C555 C 0.57545 0.22556 1.00241 0.0
C556 C 0.56453 0.17142 0.99773 0.0
C557 C 0.58658 0.18225 0.94027 0.0
C558 C 0.54126 0.15395 0.98666 0.0
C559 C 0.53139 0.1257 0.99884 0.0
C560 C 0.54441 0.11471 0.02248 0.0
C561 C 0.56768 0.13231 0.03344 0.0
C562 C 0.57763 0.16031 0.02118 0.0
H563 H 0.60161 0.18896 0.92295 0.0
H564 H 0.59317 0.16228 0.95163 0.0
H565 H 0.56505 0.17604 0.93179 0.0
H566 H 0.53045 0.16233 0.96889 0.0
H567 H 0.51331 0.11273 0.99002 0.0
H568 H 0.99991 0.74781 0.42698 0.0
H569 H 0.02282 0.79306 0.44538 0.0
H570 H 1.00272 0.75504 0.52692 0.0
H571 H 0.97911 0.70966 0.50843 0.0
H572 H 0.985 0.80687 0.51949 0.0
H573 H 0.09592 0.82013 0.48191 0.0
H574 H 0.07189 0.81408 0.45414 0.0
H575 H 0.07274 0.78537 0.48128 0.0
C576 C 1.0011 0.74872 0.44887 0.0
C577 C 0.98775 0.72519 0.46628 0.0
C578 C 0.01439 0.77459 0.4594 0.0
C579 C 0.01502 0.77732 0.48759 0.0
C580 C 1.00269 0.75335 0.50511 0.0
H581 H 0.08222 0.95369 0.54311 0.0
H582 H 0.07836 0.90001 0.53754 0.0
C583 C 0.98912 0.72752 0.49455 0.0
C584 C 0.02478 0.80661 0.49819 0.0
H585 H 0.0767 0.86627 0.49018 0.0
C586 C 1.00537 0.81953 0.51361 0.0
C587 C 0.05152 0.82313 0.49096 0.0
C588 C 0.07429 0.80976 0.47642 0.0
C589 C 1.01104 0.84913 0.52022 0.0
C590 C 0.03649 0.86649 0.5106 0.0
C591 C 0.05692 0.85305 0.49702 0.0
C592 C 0.04075 0.89909 0.51237 0.0
C593 C 0.98925 0.86185 0.5367 0.0
C594 C 0.02154 0.91633 0.49922 0.0
C595 C 0.02362 0.94672 0.50237 0.0
C596 C 0.04516 0.96059 0.51854 0.0
C597 C 0.06537 0.94359 0.53056 0.0
C598 C 0.06318 0.91298 0.52746 0.0
H599 H 0.97602 0.84414 0.54948 0.0
H600 H 0.99965 0.87861 0.55009 0.0
H601 H 0.97476 0.87287 0.5227 0.0
H602 H 1.00449 0.90611 0.48696 0.0
H603 H 1.00789 0.9592 0.49258 0.0
H604 H 0.43641 0.82518 0.70003 0.0
H605 H 0.44543 0.77486 0.69071 0.0
H606 H 0.50855 0.81199 0.63039 0.0
H607 H 0.49965 0.86223 0.63958 0.0
H608 H 0.43924 0.75337 0.63539 0.0
H609 H 0.54703 0.74841 0.67909 0.0
H610 H 0.52325 0.77347 0.68998 0.0
H611 H 0.54295 0.782 0.65866 0.0
C612 C 0.4526 0.82255 0.68518 0.0
C613 C 0.46735 0.8475 0.67049 0.0
C614 C 0.45762 0.79389 0.67983 0.0
C615 C 0.4778 0.78986 0.66007 0.0
C616 C 0.49315 0.81474 0.64597 0.0
H617 H 0.54223 0.66282 0.5692 0.0
H618 H 0.53078 0.70491 0.59307 0.0
C619 C 0.48793 0.84335 0.65109 0.0
C620 C 0.48136 0.75978 0.65239 0.0
H621 H 0.53111 0.7123 0.64777 0.0
C622 C 0.45911 0.74402 0.63846 0.0
C623 C 0.50732 0.7479 0.65646 0.0
C624 C 0.53148 0.76365 0.67207 0.0
C625 C 0.46275 0.71737 0.62702 0.0
C626 C 0.48916 0.70598 0.63023 0.0
C627 C 0.51092 0.72113 0.64529 0.0
C628 C 0.49561 0.67993 0.61616 0.0
C629 C 0.43894 0.70259 0.61032 0.0
C630 C 0.47964 0.65184 0.62129 0.0
C631 C 0.48595 0.62767 0.60741 0.0
C632 C 0.50859 0.63121 0.58848 0.0
C633 C 0.52467 0.65933 0.58366 0.0
C634 C 0.51821 0.68341 0.59734 0.0
H635 H 0.42257 0.71752 0.60506 0.0
H636 H 0.4474 0.69546 0.59119 0.0
H637 H 0.42828 0.68253 0.62215 0.0
H638 H 0.46244 0.64857 0.63613 0.0
H639 H 0.47335 0.60621 0.61171 0.0
H640 H 0.85727 0.91979 0.79303 0.0
H641 H 0.88161 0.93994 0.75069 0.0
H642 H 0.9624 0.92464 0.78598 0.0
H643 H 0.93812 0.90418 0.82836 0.0
H644 H 0.9195 0.9869 0.73826 0.0
H645 H 0.97034 0.88826 0.71565 0.0
H646 H 0.94364 0.88682 0.74197 0.0
H647 H 0.98015 0.90127 0.74827 0.0
C648 C 0.88025 0.92068 0.79194 0.0
C649 C 0.89551 0.91009 0.81448 0.0
C650 C 0.89424 0.93221 0.76748 0.0
C651 C 0.92403 0.93354 0.76451 0.0
C652 C 0.93939 0.92321 0.78705 0.0
H653 H 0.04476 0.00578 0.63153 0.0
H654 H 0.02256 0.98492 0.67498 0.0
C655 C 0.92538 0.9115 0.81151 0.0
C656 C 0.93882 0.94652 0.73821 0.0
H657 H 0.98489 0.93274 0.68812 0.0
C658 C 0.93367 0.97487 0.72733 0.0
C659 C 0.95754 0.93121 0.72355 0.0
C660 C 0.96306 0.9001 0.73277 0.0
C661 C 0.94673 0.98826 0.70286 0.0
C662 C 0.96539 0.97295 0.68822 0.0
C663 C 0.97075 0.94472 0.69914 0.0
C664 C 0.97907 0.98563 0.66142 0.0
C665 C 0.94081 0.01911 0.69319 0.0
C666 C 0.96232 0.99277 0.63881 0.0
C667 C 0.975 1.00464 0.61385 0.0
C668 C 1.00492 0.0098 0.61056 0.0
C669 C 0.02171 1.00237 0.63314 0.0
C670 C 1.00897 0.99031 0.6581 0.0
H671 H 0.93283 0.03096 0.70997 0.0
H672 H 0.96028 0.0326 0.68429 0.0
H673 H 0.9242 0.01748 0.67724 0.0
H674 H 0.93927 0.98892 0.64035 0.0
H675 H 0.96121 0.0098 0.59706 0.0
H676 H 0.63243 0.1532 0.38728 0.0
H677 H 0.60293 0.12543 0.35434 0.0
H678 H 0.61702 0.20108 0.2957 0.0
H679 H 0.64614 0.22897 0.32851 0.0
H680 H 0.56215 0.16753 0.29203 0.0
H681 H 0.65075 0.09736 0.29409 0.0
H682 H 0.63249 0.09895 0.32579 0.0
H683 H 0.65341 0.13174 0.31053 0.0
C684 C 0.62856 0.16412 0.3676 0.0
C685 C 0.64189 0.19307 0.36029 0.0
C686 C 0.61176 0.14826 0.34883 0.0
C687 C 0.60837 0.16101 0.32242 0.0
C688 C 0.61943 0.19083 0.31598 0.0
H689 H 0.61218 0.11279 0.16405 0.0
H690 H 0.61559 0.13132 0.20916 0.0
C691 C 0.63604 0.20677 0.33478 0.0
C692 C 0.59728 0.14246 0.30031 0.0
H693 H 0.61626 0.08964 0.26053 0.0
C694 C 0.57355 0.15004 0.28544 0.0
C695 C 0.61248 0.11988 0.29163 0.0
C696 C 0.63882 0.11153 0.30614 0.0
C697 C 0.56533 0.13639 0.26145 0.0
C698 C 0.58125 0.11475 0.25231 0.0
C699 C 0.60406 0.10616 0.26785 0.0
C700 C 0.57754 0.10396 0.22484 0.0
C701 C 0.54084 0.14635 0.24508 0.0
C702 C 0.55489 0.08242 0.21878 0.0
C703 C 0.55301 0.07144 0.19291 0.0
C704 C 0.57383 0.0818 0.17285 0.0
C705 C 0.59615 0.10376 0.17908 0.0
C706 C 0.59801 0.11462 0.2048 0.0
H707 H 0.53082 0.16379 0.2548 0.0
H708 H 0.54847 0.15518 0.22442 0.0
H709 H 0.52436 0.12703 0.24265 0.0
H710 H 0.53904 0.0738 0.23416 0.0
H711 H 0.53566 0.05442 0.18881 0.0
H712 H 0.36466 0.59859 0.2863 0.0
H713 H 0.39338 0.58993 0.32692 0.0
H714 H 0.40324 0.68383 0.33872 0.0
H715 H 0.37404 0.69238 0.29814 0.0
H716 H 0.44875 0.61227 0.33981 0.0
H717 H 0.37025 0.64567 0.41172 0.0
H718 H 0.3616 0.63881 0.37687 0.0
H719 H 0.38206 0.67319 0.38474 0.0
C720 C 0.3732 0.61734 0.29752 0.0
C721 C 0.36733 0.64607 0.28941 0.0
C722 C 0.38954 0.61241 0.32065 0.0
C723 C 0.40009 0.63616 0.33606 0.0
C724 C 0.39487 0.66512 0.3274 0.0
H725 H 0.5248 0.61945 0.4658 0.0
H726 H 0.50034 0.63468 0.42436 0.0
C727 C 0.37843 0.67003 0.30422 0.0
C728 C 0.41609 0.63024 0.36136 0.0
H729 H 0.41343 0.63275 0.4304 0.0
C730 C 0.44113 0.61687 0.35962 0.0
C731 C 0.40584 0.63589 0.38719 0.0
C732 C 0.37834 0.64894 0.39042 0.0
C733 C 0.45619 0.60888 0.38303 0.0
C734 C 0.44616 0.6149 0.40884 0.0
C735 C 0.42116 0.62836 0.41057 0.0
C736 C 0.46077 0.60646 0.43434 0.0
C737 C 0.48219 0.59323 0.37999 0.0
C738 C 0.44636 0.58621 0.45409 0.0
C739 C 0.4602 0.5776 0.47792 0.0
C740 C 0.48872 0.58917 0.48245 0.0
C741 C 0.50291 0.60991 0.46284 0.0
C742 C 0.48902 0.61855 0.43907 0.0
H743 H 0.4829 0.58381 0.35986 0.0
H744 H 0.50167 0.60938 0.38182 0.0
H745 H 0.48271 0.57498 0.39616 0.0
H746 H 0.42449 0.57673 0.45089 0.0
H747 H 0.44862 0.56168 0.49264 0.0
H748 H 0.11981 0.50733 0.6948 0.0
H749 H 0.13369 0.52166 0.74074 0.0
H750 H 0.07696 0.44653 0.77572 0.0
H751 H 0.06361 0.43215 0.73012 0.0
H752 H 0.09852 0.53754 0.7781 0.0
H753 H 0.14625 0.44093 0.82247 0.0
H754 H 0.14145 0.44743 0.78624 0.0
H755 H 0.11263 0.4287 0.80747 0.0
C756 C 0.11075 0.49379 0.71245 0.0
C757 C 0.09073 0.46876 0.70932 0.0
C758 C 0.11872 0.50185 0.73856 0.0
C759 C 0.10688 0.48477 0.76169 0.0
C760 C 0.08711 0.4595 0.75826 0.0
H761 H 0.03678 0.48832 0.90866 0.0
H762 H 0.06224 0.47704 0.8683 0.0
C763 C 0.07921 0.45149 0.73227 0.0
C764 C 0.11211 0.49494 0.78939 0.0
H765 H 0.12147 0.46785 0.85476 0.0
C766 C 0.10452 0.52278 0.79482 0.0
C767 C 0.12025 0.4758 0.81114 0.0
C768 C 0.13091 0.4467 0.80644 0.0
C769 C 0.10182 0.5306 0.82162 0.0
C770 C 0.10711 0.51009 0.84345 0.0
C771 C 0.11729 0.48346 0.83797 0.0
C772 C 0.09643 0.51319 0.87115 0.0
C773 C 0.09079 0.55953 0.82643 0.0
C774 C 0.10799 0.53637 0.88682 0.0
C775 C 0.0935 0.54258 0.91011 0.0
C776 C 0.06734 0.52578 0.91767 0.0
C777 C 0.05703 0.50134 0.90312 0.0
C778 C 0.07155 0.49495 0.88016 0.0
H779 H 0.08603 0.57212 0.80714 0.0
H780 H 0.07105 0.55522 0.83906 0.0
H781 H 0.10695 0.57372 0.83768 0.0
H782 H 0.12724 0.55062 0.88018 0.0
H783 H 0.1015 0.56173 0.92101 0.0
H784 H 0.74408 0.90388 0.89065 0.0
H785 H 0.7036 0.91892 0.91503 0.0
H786 H 0.75982 0.94707 0.97981 0.0
H787 H 0.80042 0.93265 0.955 0.0
H788 H 0.67685 0.90418 0.96278 0.0
H789 H 0.72469 0.02179 0.96349 0.0
H790 H 0.74 0.99546 0.94419 0.0
H791 H 0.74642 0.99648 0.98016 0.0
C792 C 0.7477 0.91276 0.91036 0.0
C793 C 0.77547 0.91666 0.92102 0.0
C794 C 0.72449 0.92158 0.92428 0.0
C795 C 0.72833 0.93492 0.9492 0.0
C796 C 0.75602 0.93768 0.96038 0.0
H797 H 0.6136 0.01148 0.05816 0.0
H798 H 0.65356 0.99209 0.03691 0.0
C799 C 0.77928 0.92894 0.94637 0.0
C800 C 0.70355 0.94621 0.96304 0.0
H801 H 0.68176 0.00805 0.98864 0.0
C802 C 0.67802 0.92695 0.96831 0.0
C803 C 0.70453 0.976 0.9704 0.0
C804 C 0.73025 0.99873 0.96405 0.0
C805 C 0.65409 0.93628 0.98098 0.0
C806 C 0.65513 0.96602 0.98838 0.0
C807 C 0.68065 0.98526 0.98318 0.0
C808 C 0.63014 0.97763 1.00149 0.0
C809 C 0.62809 0.91382 0.98691 0.0
C810 C 0.60327 0.97654 0.98881 0.0
C811 C 0.58021 0.98773 1.001 0.0
C812 C 0.58322 1.0005 0.02627 0.0
C813 C 0.61019 1.00176 0.03882 0.0
C814 C 0.63323 0.99066 0.02658 0.0
H815 H 0.63335 0.89066 0.9873 0.0
H816 H 0.61821 0.91705 1.00672 0.0
H817 H 0.61212 0.91655 0.9707 0.0
H818 H 0.60015 0.96738 0.9692 0.0
H819 H 0.56 0.98649 0.99047 0.0
H820 H 0.76904 0.21912 0.38864 0.0
H821 H 0.80771 0.19076 0.40326 0.0
H822 H 0.74631 0.12075 0.4397 0.0
H823 H 0.70746 0.14928 0.42559 0.0
H824 H 0.79287 0.14023 0.47379 0.0
H825 H 0.82896 0.11412 0.37207 0.0
H826 H 0.82587 0.1527 0.37534 0.0
H827 H 0.79447 0.12581 0.37778 0.0
C828 C 0.76378 0.19773 0.39985 0.0
C829 C 0.73525 0.18642 0.40605 0.0
C830 C 0.78585 0.18144 0.40791 0.0
C831 C 0.77976 0.15355 0.42223 0.0
C832 C 0.75134 0.14217 0.42847 0.0
H833 H 0.89599 0.02438 0.46395 0.0
H834 H 0.85668 0.05014 0.4461 0.0
C835 C 0.72923 0.1584 0.42032 0.0
C836 C 0.80319 0.13687 0.43169 0.0
H837 H 0.8588 0.10363 0.40954 0.0
C838 C 0.80723 0.13209 0.45978 0.0
C839 C 0.82165 0.12612 0.41329 0.0
C840 C 0.81747 0.12967 0.38292 0.0
C841 C 0.82971 0.11733 0.47001 0.0
C842 C 0.84871 0.10743 0.45161 0.0
C843 C 0.84431 0.11159 0.42352 0.0
C844 C 0.87312 0.09238 0.46128 0.0
C845 C 0.83286 0.11223 0.50041 0.0
C846 C 0.89556 0.10786 0.47518 0.0
C847 C 0.91798 0.09323 0.48541 0.0
C848 C 0.91828 0.06285 0.48191 0.0
C849 C 0.89611 0.04766 0.4673 0.0
C850 C 0.87377 0.06235 0.45697 0.0
H851 H 0.81314 0.11535 0.5115 0.0
H852 H 0.83814 0.08946 0.50593 0.0
H853 H 0.85055 0.12833 0.50737 0.0
H854 H 0.89553 0.13118 0.47839 0.0
H855 H 0.9346 0.10549 0.49674 0.0
H856 H 0.28551 0.62444 0.16371 0.0
H857 H 0.24628 0.61501 0.13221 0.0
H858 H 0.25452 0.7084 0.10614 0.0
H859 H 0.29226 0.71842 0.13927 0.0
H860 H 0.20201 0.68996 0.11509 0.0
H861 H 0.24204 0.60825 0.05282 0.0
H862 H 0.24298 0.59529 0.08795 0.0
H863 H 0.26479 0.62924 0.07593 0.0
C864 C 0.27897 0.64306 0.1514 0.0
C865 C 0.29209 0.67224 0.15427 0.0
C866 C 0.25685 0.63752 0.1329 0.0
C867 C 0.24777 0.66087 0.11625 0.0
C868 C 0.26129 0.68993 0.11854 0.0
H869 H 0.10651 0.60361 1.00653 0.0
H870 H 0.15338 0.62697 0.0209 0.0
C871 C 0.28311 0.69559 0.13739 0.0
C872 C 0.22238 0.65525 0.0986 0.0
H873 H 0.1902 0.6061 0.05537 0.0
C874 C 0.19973 0.672 0.10159 0.0
C875 C 0.21943 0.63239 0.08035 0.0
C876 C 0.2438 0.61557 0.07385 0.0
C877 C 0.17365 0.66517 0.08841 0.0
C878 C 0.16969 0.64021 0.0726 0.0
C879 C 0.19296 0.62484 0.06796 0.0
C880 C 0.14103 0.62802 0.06307 0.0
C881 C 0.15049 0.68458 0.09196 0.0
C882 C 0.11865 0.62065 0.08198 0.0
C883 C 0.09197 0.60771 0.07383 0.0
C884 C 0.08712 0.60123 0.04662 0.0
C885 C 0.10955 0.60847 0.02761 0.0
C886 C 0.13631 0.62177 0.03579 0.0
H887 H 0.15977 0.70786 0.09483 0.0
H888 H 0.136 0.68466 0.0742 0.0
H889 H 0.13776 0.6762 0.11047 0.0
H890 H 0.12196 0.62425 0.1033 0.0
H891 H 0.07533 0.6021 0.08912 0.0
H892 H 0.17802 0.40121 0.6175 0.0
H893 H 0.22839 0.41961 0.6096 0.0
H894 H 0.20848 0.50977 0.60243 0.0
H895 H 0.15779 0.49154 0.60983 0.0
H896 H 0.25323 0.4566 0.56294 0.0
H897 H 0.27236 0.50853 0.66136 0.0
H898 H 0.24198 0.4812 0.65609 0.0
H899 H 0.2426 0.5186 0.64152 0.0
C900 C 0.18425 0.42495 0.61396 0.0
C901 C 0.16385 0.44491 0.61422 0.0
C902 C 0.21306 0.43541 0.6096 0.0
C903 C 0.2221 0.46601 0.60564 0.0
C904 C 0.20191 0.48607 0.60581 0.0
H905 H 0.39637 0.53491 0.55031 0.0
H906 H 0.34428 0.52866 0.55538 0.0
C907 C 0.173 0.47562 0.6101 0.0
C908 C 0.25273 0.47663 0.60115 0.0
H909 H 0.31149 0.5117 0.63127 0.0
C910 C 0.26598 0.46891 0.57771 0.0
C911 C 0.26918 0.49249 0.6206 0.0
C912 C 0.25599 0.50061 0.64644 0.0
C913 C 0.29546 0.47618 0.57341 0.0
C914 C 0.31197 0.49177 0.593 0.0
C915 C 0.29865 0.49995 0.61623 0.0
C916 C 0.34342 0.49752 0.59081 0.0
C917 C 0.30891 0.46613 0.54851 0.0
C918 C 0.3601 0.48271 0.60948 0.0
C919 C 0.38973 0.4863 0.60671 0.0
C920 C 0.4033 0.50493 0.58528 0.0
C921 C 0.38657 0.52052 0.56709 0.0
C922 C 0.35683 0.51681 0.56982 0.0
H923 H 0.29393 0.4501 0.53778 0.0
H924 H 0.31558 0.48573 0.53415 0.0
H925 H 0.32823 0.45556 0.55414 0.0
H926 H 0.35011 0.46784 0.62589 0.0
H927 H 0.40203 0.47441 0.62132 0.0
H928 H 0.89309 0.81266 0.86076 0.0
H929 H 0.9118 0.77088 0.88533 0.0
H930 H 0.89455 0.80599 0.96156 0.0
H931 H 0.87628 0.84853 0.93702 0.0
H932 H 0.95817 0.7717 0.92076 0.0
H933 H 0.85949 0.71867 0.97445 0.0
H934 H 0.85892 0.74614 0.94615 0.0
H935 H 0.86924 0.75744 0.9793 0.0
C936 C 0.89335 0.81185 0.88277 0.0
C937 C 0.88325 0.8346 0.89667 0.0
C938 C 0.90399 0.78761 0.89688 0.0
C939 C 0.90459 0.78482 0.92547 0.0
C940 C 0.89402 0.80709 0.93955 0.0
H941 H 0.9641 0.64566 0.03956 0.0
H942 H 0.94427 0.68961 0.01942 0.0
C943 C 0.88347 0.83155 0.92539 0.0
C944 C 0.91723 0.75921 0.94013 0.0
H945 H 0.9018 0.69763 0.98477 0.0
C946 C 0.94576 0.75553 0.93474 0.0
C947 C 0.90138 0.738 0.95867 0.0
C948 C 0.87049 0.73997 0.96492 0.0
C949 C 0.95878 0.73172 0.94725 0.0
C950 C 0.94274 0.71 0.96527 0.0
C951 C 0.9143 0.71394 0.971 0.0
C952 C 0.95489 0.68289 0.9778 0.0
C953 C 0.98994 0.73062 0.94143 0.0
C954 C 0.96723 0.66373 0.96142 0.0
C955 C 0.97882 0.63869 0.97294 0.0
C956 C 0.97815 0.63156 1.0013 0.0
C957 C 0.96526 0.65036 0.01771 0.0
C958 C 0.95379 0.67559 1.00613 0.0
H959 H 1.0012 0.75308 0.93523 0.0
H960 H 1.00087 0.72135 0.95946 0.0
H961 H 0.99189 0.71633 0.92439 0.0
H962 H 0.96771 0.66794 0.93951 0.0
H963 H 0.98813 0.62471 0.95946 0.0
H964 H 0.37322 0.7517 0.22553 0.0
H965 H 0.40411 0.79862 0.21465 0.0
H966 H 0.42146 0.77027 0.13543 0.0
H967 H 0.39117 0.72311 0.14635 0.0
H968 H 0.46995 0.80244 0.16127 0.0
H969 H 0.37248 0.85969 0.15943 0.0
H970 H 0.37884 0.83798 0.19028 0.0
H971 H 0.37075 0.8198 0.15955 0.0
C972 C 0.38422 0.75514 0.20608 0.0
C973 C 0.37951 0.73389 0.18665 0.0
C974 C 0.40168 0.78203 0.19983 0.0
C975 C 0.41464 0.78804 0.17408 0.0
C976 C 0.41151 0.76608 0.15536 0.0
H977 H 0.46102 0.94331 0.07013 0.0
H978 H 0.44236 0.8958 0.09377 0.0
C979 C 0.39407 0.73925 0.16156 0.0
C980 C 0.42919 0.81806 0.1655 0.0
H981 H 0.41584 0.88889 0.14746 0.0
C982 C 0.45829 0.82149 0.15858 0.0
C983 C 0.41372 0.8427 0.16172 0.0
C984 C 0.38218 0.84002 0.16791 0.0
C985 C 0.47223 0.84888 0.14749 0.0
C986 C 0.45661 0.87333 0.14335 0.0
C987 C 0.42772 0.87006 0.15084 0.0
C988 C 0.46908 0.9018 0.12913 0.0
C989 C 0.50319 0.85125 0.1392 0.0
C990 C 0.49028 0.92092 0.14126 0.0
C991 C 0.50101 0.94826 0.12781 0.0
C992 C 0.49066 0.95682 0.10201 0.0
C993 C 0.46953 0.93742 0.08994 0.0
C994 C 0.45879 0.91026 0.10341 0.0
H995 H 0.51119 0.82925 0.14045 0.0
H996 H 0.50628 0.86146 0.11807 0.0
H997 H 0.51628 0.86587 0.15279 0.0
H998 H 0.49823 0.91488 0.16126 0.0
H999 H 0.51724 0.96273 0.13767 0.0
H1000 H 0.11836 0.34627 0.61372 0.0
H1001 H 0.09871 0.29685 0.60124 0.0
H1002 H 0.01986 0.32955 0.57779 0.0
H1003 H 0.03959 0.37956 0.58993 0.0
H1004 H 0.04233 0.26482 0.62528 0.0
H1005 H 0.04767 0.28205 0.51206 0.0
H1006 H 0.07131 0.30483 0.53322 0.0
H1007 H 0.03421 0.30929 0.53171 0.0
C1008 C 0.09704 0.34318 0.60541 0.0
C1009 C 0.08059 0.36689 0.60263 0.0
C1010 C 0.08578 0.31488 0.5985 0.0
C1011 C 0.05794 0.3097 0.58856 0.0
C1012 C 0.04148 0.33327 0.58532 0.0
H1013 H 0.99274 0.13279 0.53455 0.0
H1014 H 0.99265 0.18484 0.54496 0.0
C1015 C 0.05272 0.3617 0.59236 0.0
C1016 C 0.04618 0.27917 0.5827 0.0
H1017 H 0.03613 0.23297 0.53103 0.0
C1018 C 0.04046 0.25788 0.60468 0.0
C1019 C 0.04351 0.27038 0.55582 0.0
C1020 C 0.0495 0.29268 0.5317 0.0
C1021 C 0.03346 0.22767 0.60049 0.0
C1022 C 0.03279 0.21855 0.57364 0.0
C1023 C 0.03676 0.24007 0.55159 0.0
C1024 C 0.03159 0.18682 0.56827 0.0
C1025 C 0.02766 0.20566 0.62487 0.0
C1026 C 0.05362 0.17093 0.57775 0.0
C1027 C 0.05379 0.14146 0.57183 0.0
C1028 C 0.03197 0.12723 0.55618 0.0
C1029 C 1.00976 0.14311 0.54679 0.0
C1030 C 1.00968 0.1728 0.55266 0.0
H1031 H 0.0198 0.21633 0.64248 0.0
H1032 H 0.01172 0.18662 0.62014 0.0
H1033 H 0.04779 0.19693 0.63102 0.0
H1034 H 0.07105 0.18154 0.58933 0.0
H1035 H 0.07128 0.12995 0.57931 0.0
H1036 H 0.62414 0.30924 0.38458 0.0
H1037 H 0.59347 0.34304 0.40319 0.0
H1038 H 0.65487 0.36182 0.46661 0.0
H1039 H 0.68503 0.32789 0.44834 0.0
H1040 H 0.59866 0.35212 0.48543 0.0
H1041 H 0.61233 0.43405 0.39527 0.0
H1042 H 0.59839 0.39653 0.38889 0.0
H1043 H 0.63435 0.40456 0.40063 0.0
C1044 C 0.63079 0.32055 0.40258 0.0
C1045 C 0.65674 0.31635 0.41514 0.0
C1046 C 0.61343 0.33985 0.41309 0.0
C1047 C 0.6221 0.35516 0.43608 0.0
C1048 C 0.6478 0.35023 0.44887 0.0
H1049 H 0.59579 0.5177 0.49857 0.0
H1050 H 0.61028 0.47589 0.47604 0.0
C1051 C 0.66501 0.33098 0.43844 0.0
C1052 C 0.60523 0.37714 0.44668 0.0
H1053 H 0.58651 0.44662 0.43243 0.0
C1054 C 0.59561 0.37264 0.47378 0.0
C1055 C 0.60158 0.40393 0.43141 0.0
C1056 C 0.61234 0.41032 0.4025 0.0
C1057 C 0.58341 0.39472 0.4864 0.0
C1058 C 0.58028 0.42177 0.47128 0.0
C1059 C 0.58889 0.4258 0.44388 0.0
C1060 C 0.57058 0.44716 0.48418 0.0
C1061 C 0.5754 0.38953 0.51616 0.0
C1062 C 0.54332 0.44496 0.49595 0.0
C1063 C 0.53505 0.46877 0.50908 0.0
C1064 C 0.55381 0.49527 0.51036 0.0
C1065 C 0.58085 0.49759 0.49799 0.0
C1066 C 0.58914 0.47375 0.48504 0.0
H1067 H 0.5846 0.37022 0.52611 0.0
H1068 H 0.58275 0.40951 0.52722 0.0
H1069 H 0.55184 0.385 0.51818 0.0
H1070 H 0.52849 0.42482 0.49506 0.0
H1071 H 0.51397 0.46639 0.51823 0.0
loop_
_geom_bond_atom_site_label_1
_geom_bond_atom_site_label_2
_geom_bond_distance
_geom_bond_site_symmetry_2
_ccdc_geom_bond_type
H0 C3 0.929 . S
H1 C6 0.929 . S
H2 C8 0.930 . S
C3 H0 0.929 . S
C3 C4 1.398 . S
C3 C5 1.396 . S
C4 C3 1.398 . S
C4 C8 1.407 . S
C5 C3 1.396 . S
C5 C6 1.394 . S
C6 H1 0.929 . S
C6 C5 1.394 . S
C6 C7 1.382 . S
C7 C6 1.382 . S
C7 C8 1.392 . S
C7 N9 1.420 . S
C8 H2 0.930 . S
C8 C4 1.407 . S
C8 C7 1.392 . S
N9 C7 1.420 . S
N9 C10 1.244 . S
C10 N9 1.244 . S
H11 C14 0.929 . S
H12 C17 0.929 . S
H13 C19 0.930 . S
C14 H11 0.929 . S
C14 C15 1.398 . S
C14 C16 1.396 . S
C15 C14 1.398 . S
C15 C19 1.407 . S
C16 C14 1.396 . S
C16 C17 1.394 . S
C17 H12 0.929 . S
C17 C16 1.394 . S
C17 C18 1.382 . S
C18 C17 1.382 . S
C18 C19 1.392 . S
C18 N20 1.420 . S
C19 H13 0.930 . S
C19 C15 1.407 . S
C19 C18 1.392 . S
N20 C18 1.420 . S
N20 C21 1.244 . S
C21 N20 1.244 . S
H22 C25 0.929 . S
H23 C28 0.929 . S
H24 C30 0.930 . S
C25 H22 0.929 . S
C25 C26 1.398 . S
C25 C27 1.396 . S
C26 C25 1.398 . S
C26 C30 1.407 . S
C27 C25 1.396 . S
C27 C28 1.394 . S
C28 H23 0.929 . S
C28 C27 1.394 . S
C28 C29 1.382 . S
C29 C28 1.382 . S
C29 C30 1.392 . S
C29 N31 1.420 . S
C30 H24 0.930 . S
C30 C26 1.407 . S
C30 C29 1.392 . S
N31 C29 1.420 . S
N31 C32 1.244 . S
C32 N31 1.244 . S
H33 C36 0.929 . S
H34 C39 0.929 . S
H35 C41 0.930 . S
C36 H33 0.929 . S
C36 C37 1.398 . S
C36 C38 1.396 . S
C37 C36 1.398 . S
C37 C41 1.407 . S
C38 C36 1.396 . S
C38 C39 1.394 . S
C39 H34 0.929 . S
C39 C38 1.394 . S
C39 C40 1.382 . S
C40 C39 1.382 . S
C40 C41 1.392 . S
C40 N42 1.420 . S
C41 H35 0.930 . S
C41 C37 1.407 . S
C41 C40 1.392 . S
N42 C40 1.420 . S
N42 C43 1.244 . S
C43 N42 1.244 . S
H44 C47 0.929 . S
H45 C50 0.929 . S
H46 C52 0.930 . S
C47 H44 0.929 . S
C47 C48 1.398 . S
C47 C49 1.396 . S
C48 C47 1.398 . S
C48 C52 1.407 . S
C49 C47 1.396 . S
C49 C50 1.394 . S
C50 H45 0.929 . S
C50 C49 1.394 . S
C50 C51 1.382 . S
C51 C50 1.382 . S
C51 C52 1.392 . S
C51 N53 1.420 . S
C52 H46 0.930 . S
C52 C48 1.407 . S
C52 C51 1.392 . S
N53 C51 1.420 . S
N53 C54 1.244 . S
C54 N53 1.244 . S
H55 C58 0.929 . S
H56 C61 0.929 . S
H57 C63 0.930 . S
C58 H55 0.929 . S
C58 C59 1.398 . S
C58 C60 1.396 . S
C59 C58 1.398 . S
C59 C63 1.407 . S
C60 C58 1.396 . S
C60 C61 1.394 . S
C61 H56 0.929 . S
C61 C60 1.394 . S
C61 C62 1.382 . S
C62 C61 1.382 . S
C62 C63 1.392 . S
C62 N64 1.420 . S
C63 H57 0.930 . S
C63 C59 1.407 . S
C63 C62 1.392 . S
N64 C62 1.420 . S
N64 C65 1.244 . S
C65 N64 1.244 . S
H66 C69 0.929 . S
H67 C72 0.929 . S
H68 C74 0.930 . S
C69 H66 0.929 . S
C69 C70 1.398 . S
C69 C71 1.396 . S
C70 C69 1.398 . S
C70 C74 1.407 . S
C71 C69 1.396 . S
C71 C72 1.394 . S
C72 H67 0.929 . S
C72 C71 1.394 . S
C72 C73 1.382 . S
C73 C72 1.382 . S
C73 C74 1.392 . S
C73 N75 1.420 . S
C74 H68 0.930 . S
C74 C70 1.407 . S
C74 C73 1.392 . S
N75 C73 1.420 . S
N75 C76 1.244 . S
C76 N75 1.244 . S
H77 C80 0.929 . S
H78 C83 0.929 . S
H79 C85 0.930 . S
C80 H77 0.929 . S
C80 C81 1.398 . S
C80 C82 1.396 . S
C81 C80 1.398 . S
C81 C85 1.407 . S
C82 C80 1.396 . S
C82 C83 1.394 . S
C83 H78 0.929 . S
C83 C82 1.394 . S
C83 C84 1.382 . S
C84 C83 1.382 . S
C84 C85 1.392 . S
C84 N86 1.420 . S
C85 H79 0.930 . S
C85 C81 1.407 . S
C85 C84 1.392 . S
N86 C84 1.420 . S
N86 C87 1.244 . S
C87 N86 1.244 . S
Co88 N93 2.057 . S
Co88 O105 2.021 . S
Co88 O108 2.063 1_655 S
Co88 O112 2.117 . S
Co88 O113 2.020 . S
C89 O109 1.259 1_655 S
C89 O112 1.258 1_565 S
Co90 N99 2.057 . S
Co90 O106 2.117 . S
Co90 O107 2.020 . S
Co90 O109 2.021 1_545 S
Co90 O114 2.062 . S
C91 N93 1.316 . S
C91 N94 1.347 . S
C91 H96 0.931 . S
C92 N93 1.375 . S
C92 C95 1.350 . S
C92 H97 0.930 . S
N93 Co88 2.057 . S
N93 C91 1.316 . S
N93 C92 1.375 . S
N94 C91 1.347 . S
N94 C95 1.373 . S
C95 C92 1.350 . S
C95 N94 1.373 . S
C95 H116 0.931 . S
H96 C91 0.931 . S
H97 C92 0.930 . S
C98 O105 1.259 1_455 S
C98 O106 1.258 . S
N99 Co90 2.057 . S
N99 C100 1.352 . S
N99 C101 1.375 . S
C100 N99 1.352 . S
C100 N102 1.350 . S
C100 H111 0.896 1_545 S
C101 N99 1.375 . S
C101 C103 1.350 . S
C101 H110 0.930 . S
N102 C100 1.350 . S
N102 C103 1.373 . S
C103 C101 1.350 . S
C103 N102 1.373 . S
C103 H117 0.931 . S
C104 O107 1.256 . S
C104 O108 1.251 . S
O105 Co88 2.021 . S
O105 C98 1.259 1_655 S
O106 Co90 2.117 . S
O106 C98 1.258 . S
O107 Co90 2.020 . S
O107 C104 1.256 . S
O108 Co88 2.063 1_455 S
O108 C104 1.251 . S
O109 C89 1.259 1_455 S
O109 Co90 2.021 1_565 S
H110 C101 0.930 . S
H111 C100 0.896 1_565 S
O112 Co88 2.117 . S
O112 C89 1.258 1_545 S
O113 Co88 2.020 . S
O113 C115 1.256 . S
O114 Co90 2.062 . S
O114 C115 1.255 1_455 S
C115 O113 1.256 . S
C115 O114 1.255 1_655 S
H116 C95 0.931 . S
H117 C103 0.931 . S
Co118 N123 2.057 1_554 S
Co118 O135 2.021 . S
Co118 O138 2.062 . S
Co118 O142 2.117 1_545 S
Co118 O143 2.020 . S
C119 O139 1.259 . S
C119 O142 1.258 . S
Co120 N129 2.057 . S
Co120 O136 2.117 . S
Co120 O137 2.020 . S
Co120 O139 2.021 1_545 S
Co120 O144 2.062 . S
C121 N123 1.316 . S
C121 N124 1.347 1_545 S
C121 H126 0.931 . S
C122 N123 1.375 1_565 S
C122 C125 1.350 . S
C122 H127 0.930 . S
N123 Co118 2.057 1_556 S
N123 C121 1.316 . S
N123 C122 1.375 1_545 S
N124 C121 1.347 1_565 S
N124 C125 1.373 . S
C125 C122 1.350 . S
C125 N124 1.373 . S
C125 H146 0.931 . S
H126 C121 0.931 . S
H127 C122 0.930 . S
C128 O135 1.259 . S
C128 O136 1.258 . S
N129 Co120 2.057 . S
N129 C130 1.316 . S
N129 C131 1.375 . S
C130 N129 1.316 . S
C130 N132 1.347 . S
C130 H141 0.931 . S
C131 N129 1.375 . S
C131 C133 1.350 . S
C131 H140 0.930 . S
N132 C130 1.347 . S
N132 C133 1.373 . S
C133 C131 1.350 . S
C133 N132 1.373 . S
C133 H147 0.931 . S
C134 O137 1.256 . S
C134 O138 1.255 . S
O135 Co118 2.021 . S
O135 C128 1.259 . S
O136 Co120 2.117 . S
O136 C128 1.258 . S
O137 Co120 2.020 . S
O137 C134 1.256 . S
O138 Co118 2.062 . S
O138 C134 1.255 . S
O139 C119 1.259 . S
O139 Co120 2.021 1_565 S
H140 C131 0.930 . S
H141 C130 0.931 . S
O142 Co118 2.117 1_565 S
O142 C119 1.258 . S
O143 Co118 2.020 . S
O143 C145 1.256 . S
O144 Co120 2.062 . S
O144 C145 1.255 . S
C145 O143 1.256 . S
C145 O144 1.255 . S
H146 C125 0.931 . S
H147 C133 0.931 . S
Co148 N153 2.057 . S
Co148 O165 2.021 . S
Co148 O168 2.062 . S
Co148 O172 2.117 . S
Co148 O173 2.020 . S
C149 O169 1.259 . S
C149 O172 1.258 . S
Co150 N159 2.057 . S
Co150 O166 2.117 . S
Co150 O167 2.020 . S
Co150 O169 2.021 . S
Co150 O174 2.062 . S
C151 N153 1.316 . S
C151 N154 1.347 . S
C151 H156 0.931 . S
C152 N153 1.375 . S
C152 C155 1.350 . S
C152 H157 0.930 . S
N153 Co148 2.057 . S
N153 C151 1.316 . S
N153 C152 1.375 . S
N154 C151 1.347 . S
N154 C155 1.373 . S
C155 C152 1.350 . S
C155 N154 1.373 . S
C155 H176 0.931 . S
H156 C151 0.931 . S
H157 C152 0.930 . S
C158 O165 1.259 . S
C158 O166 1.258 . S
N159 Co150 2.057 . S
N159 C160 1.316 . S
N159 C161 1.375 . S
C160 N159 1.316 . S
C160 N162 1.347 . S
C160 H171 0.931 . S
C161 N159 1.375 . S
C161 C163 1.350 . S
C161 H170 0.930 . S
N162 C160 1.347 . S
N162 C163 1.373 . S
C163 C161 1.350 . S
C163 N162 1.373 . S
C163 H177 0.931 . S
C164 O167 1.256 . S
C164 O168 1.255 . S
O165 Co148 2.021 . S
O165 C158 1.259 . S
O166 Co150 2.117 . S
O166 C158 1.258 . S
O167 Co150 2.020 . S
O167 C164 1.256 . S
O168 Co148 2.062 . S
O168 C164 1.255 . S
O169 C149 1.259 . S
O169 Co150 2.021 . S
H170 C161 0.930 . S
H171 C160 0.931 . S
O172 Co148 2.117 . S
O172 C149 1.258 . S
O173 Co148 2.020 . S
O173 C175 1.256 . S
O174 Co150 2.062 . S
O174 C175 1.255 . S
C175 O173 1.256 . S
C175 O174 1.255 . S
H176 C155 0.931 . S
H177 C163 0.931 . S
Co178 N183 2.057 . S
Co178 O195 2.021 1_556 S
Co178 O198 2.062 1_556 S
Co178 O202 2.117 1_455 S
Co178 O203 2.020 . S
C179 O199 1.259 . S
C179 O202 1.258 1_554 S
Co180 N189 2.057 . S
Co180 O196 2.117 . S
Co180 O197 2.020 . S
Co180 O199 2.021 1_455 S
Co180 O204 2.062 . S
C181 N183 1.316 . S
C181 N184 1.347 . S
C181 H186 0.931 . S
C182 N183 1.375 . S
C182 C185 1.350 . S
C182 H187 0.930 1_455 S
N183 Co178 2.057 . S
N183 C181 1.316 . S
N183 C182 1.375 . S
N184 C181 1.347 . S
N184 C185 1.373 . S
C185 C182 1.350 . S
C185 N184 1.373 . S
C185 H206 0.931 . S
H186 C181 0.931 . S
H187 C182 0.930 1_655 S
C188 O195 1.259 . S
C188 O196 1.258 . S
N189 Co180 2.057 . S
N189 C190 1.316 1_455 S
N189 C191 1.375 . S
C190 N189 1.316 1_655 S
C190 N192 1.347 . S
C190 H201 0.931 . S
C191 N189 1.375 . S
C191 C193 1.350 . S
C191 H200 0.930 . S
N192 C190 1.347 . S
N192 C193 1.373 1_655 S
C193 C191 1.350 . S
C193 N192 1.373 1_455 S
C193 H207 0.931 . S
C194 O197 1.256 . S
C194 O198 1.255 . S
O195 Co178 2.021 1_554 S
O195 C188 1.259 . S
O196 Co180 2.117 . S
O196 C188 1.258 . S
O197 Co180 2.020 . S
O197 C194 1.256 . S
O198 Co178 2.062 1_554 S
O198 C194 1.255 . S
O199 C179 1.259 . S
O199 Co180 2.021 1_655 S
H200 C191 0.930 . S
H201 C190 0.931 . S
O202 Co178 2.117 1_655 S
O202 C179 1.258 1_556 S
O203 Co178 2.020 . S
O203 C205 1.256 1_556 S
O204 Co180 2.062 . S
O204 C205 1.255 . S
C205 O203 1.256 1_554 S
C205 O204 1.255 . S
H206 C185 0.931 . S
H207 C193 0.931 . S
H208 C216 0.929 . S
H209 C218 0.930 . S
H210 C220 0.930 . S
H211 C223 0.929 . S
H212 C226 0.930 . S
H213 C228 0.960 . S
H214 C228 0.960 . S
H215 C228 0.960 . S
C216 H208 0.929 . S
C216 C217 1.377 . S
C216 C218 1.384 . S
C217 C216 1.377 . S
C217 C223 1.390 . S
C218 H209 0.930 . S
C218 C216 1.384 . S
C218 C219 1.372 . S
C219 C218 1.372 . S
C219 C220 1.400 . S
C219 C224 1.490 . S
C220 H210 0.930 . S
C220 C219 1.400 . S
C220 C223 1.386 . S
H221 C237 0.930 . S
H222 C238 0.931 . S
C223 H211 0.929 . S
C223 C217 1.390 . S
C223 C220 1.386 . S
C224 C219 1.490 . S
C224 C226 1.395 . S
C224 C227 1.403 . S
H225 C231 0.930 . S
C226 H212 0.930 . S
C226 C224 1.395 . S
C226 C229 1.403 . S
C227 C224 1.403 . S
C227 C228 1.524 . S
C227 C231 1.400 . S
C228 H213 0.960 . S
C228 H214 0.960 . S
C228 H215 0.960 . S
C228 C227 1.524 . S
C229 C226 1.403 . S
C229 C230 1.392 . S
C229 C233 1.495 . S
C230 C229 1.392 . S
C230 C231 1.385 . S
C230 C232 1.478 . S
C231 H225 0.930 . S
C231 C227 1.400 . S
C231 C230 1.385 . S
C232 C230 1.478 . S
C232 C234 1.381 . S
C232 C238 1.383 . S
C233 C229 1.495 . S
C233 H239 0.959 . S
C233 H240 0.961 . S
C233 H241 0.960 . S
C234 C232 1.381 . S
C234 C235 1.394 . S
C234 H242 0.930 . S
C235 C234 1.394 . S
C235 C236 1.383 . S
C235 H243 0.929 . S
C236 C235 1.383 . S
C236 C237 1.377 . S
C237 H221 0.930 . S
C237 C236 1.377 . S
C237 C238 1.379 . S
C238 H222 0.931 . S
C238 C232 1.383 . S
C238 C237 1.379 . S
H239 C233 0.959 . S
H240 C233 0.961 . S
H241 C233 0.960 . S
H242 C234 0.930 . S
H243 C235 0.929 . S
H244 C252 0.929 . S
H245 C254 0.930 . S
H246 C256 0.930 . S
H247 C259 0.929 . S
H248 C262 0.930 . S
H249 C264 0.960 . S
H250 C264 0.960 . S
H251 C264 0.960 . S
C252 H244 0.929 . S
C252 C253 1.377 . S
C252 C254 1.384 . S
C253 C252 1.377 . S
C253 C259 1.390 . S
C254 H245 0.930 . S
C254 C252 1.384 . S
C254 C255 1.372 . S
C255 C254 1.372 . S
C255 C256 1.400 . S
C255 C260 1.490 . S
C256 H246 0.930 . S
C256 C255 1.400 . S
C256 C259 1.386 . S
H257 C273 0.930 1_545 S
H258 C274 0.931 . S
C259 H247 0.929 . S
C259 C253 1.390 . S
C259 C256 1.386 . S
C260 C255 1.490 . S
C260 C262 1.395 . S
C260 C263 1.403 . S
H261 C267 0.930 1_545 S
C262 H248 0.930 . S
C262 C260 1.395 . S
C262 C265 1.403 . S
C263 C260 1.403 . S
C263 C264 1.524 1_565 S
C263 C267 1.400 . S
C264 H249 0.960 . S
C264 H250 0.960 . S
C264 H251 0.960 . S
C264 C263 1.524 1_545 S
C265 C262 1.403 . S
C265 C266 1.392 . S
C265 C269 1.495 . S
C266 C265 1.392 . S
C266 C267 1.385 . S
C266 C268 1.478 . S
C267 H261 0.930 1_565 S
C267 C263 1.400 . S
C267 C266 1.385 . S
C268 C266 1.478 . S
C268 C270 1.381 . S
C268 C274 1.383 . S
C269 C265 1.495 . S
C269 H275 0.959 . S
C269 H276 0.961 . S
C269 H277 0.960 . S
C270 C268 1.381 . S
C270 C271 1.394 . S
C270 H278 0.930 . S
C271 C270 1.394 . S
C271 C272 1.383 . S
C271 H279 0.929 . S
C272 C271 1.383 . S
C272 C273 1.377 . S
C273 H257 0.930 1_565 S
C273 C272 1.377 . S
C273 C274 1.379 . S
C274 H258 0.931 . S
C274 C268 1.383 . S
C274 C273 1.379 . S
H275 C269 0.959 . S
H276 C269 0.961 . S
H277 C269 0.960 . S
H278 C270 0.930 . S
H279 C271 0.929 . S
H280 C288 0.929 . S
H281 C290 0.930 . S
H282 C292 0.930 . S
H283 C295 0.929 . S
H284 C298 0.930 . S
H285 C300 0.960 . S
H286 C300 0.960 . S
H287 C300 0.960 . S
C288 H280 0.929 . S
C288 C289 1.377 . S
C288 C290 1.384 . S
C289 C288 1.377 . S
C289 C295 1.390 . S
C290 H281 0.930 . S
C290 C288 1.384 . S
C290 C291 1.372 . S
C291 C290 1.372 . S
C291 C292 1.400 . S
C291 C296 1.490 . S
C292 H282 0.930 . S
C292 C291 1.400 . S
C292 C295 1.386 . S
H293 C309 0.930 . S
H294 C310 0.931 . S
C295 H283 0.929 . S
C295 C289 1.390 . S
C295 C292 1.386 . S
C296 C291 1.490 . S
C296 C298 1.395 . S
C296 C299 1.403 . S
H297 C303 0.930 . S
C298 H284 0.930 . S
C298 C296 1.395 . S
C298 C301 1.403 . S
C299 C296 1.403 . S
C299 C300 1.524 . S
C299 C303 1.400 . S
C300 H285 0.960 . S
C300 H286 0.960 . S
C300 H287 0.960 . S
C300 C299 1.524 . S
C301 C298 1.403 . S
C301 C302 1.392 . S
C301 C305 1.495 . S
C302 C301 1.392 . S
C302 C303 1.385 . S
C302 C304 1.478 . S
C303 H297 0.930 . S
C303 C299 1.400 . S
C303 C302 1.385 . S
C304 C302 1.478 . S
C304 C306 1.381 . S
C304 C310 1.383 . S
C305 C301 1.495 . S
C305 H311 0.959 . S
C305 H312 0.961 . S
C305 H313 0.960 . S
C306 C304 1.381 . S
C306 C307 1.394 . S
C306 H314 0.930 . S
C307 C306 1.394 . S
C307 C308 1.383 . S
C307 H315 0.929 . S
C308 C307 1.383 . S
C308 C309 1.377 . S
C309 H293 0.930 . S
C309 C308 1.377 . S
C309 C310 1.379 . S
C310 H294 0.931 . S
C310 C304 1.383 . S
C310 C309 1.379 . S
H311 C305 0.959 . S
H312 C305 0.961 . S
H313 C305 0.960 . S
H314 C306 0.930 . S
H315 C307 0.929 . S
H316 C324 0.929 . S
H317 C326 0.930 . S
H318 C328 0.930 . S
H319 C331 0.929 . S
H320 C334 0.930 . S
H321 C336 0.960 . S
H322 C336 0.960 . S
H323 C336 0.960 . S
C324 H316 0.929 . S
C324 C325 1.377 . S
C324 C326 1.384 . S
C325 C324 1.377 . S
C325 C331 1.390 . S
C326 H317 0.930 . S
C326 C324 1.384 . S
C326 C327 1.372 . S
C327 C326 1.372 . S
C327 C328 1.400 . S
C327 C332 1.490 . S
C328 H318 0.930 . S
C328 C327 1.400 . S
C328 C331 1.386 . S
H329 C345 0.930 . S
H330 C346 0.931 . S
C331 H319 0.929 . S
C331 C325 1.390 . S
C331 C328 1.386 . S
C332 C327 1.490 . S
C332 C334 1.395 . S
C332 C335 1.403 . S
H333 C339 0.930 . S
C334 H320 0.930 . S
C334 C332 1.395 . S
C334 C337 1.403 . S
C335 C332 1.403 . S
C335 C336 1.524 . S
C335 C339 1.400 . S
C336 H321 0.960 . S
C336 H322 0.960 . S
C336 H323 0.960 . S
C336 C335 1.524 . S
C337 C334 1.403 . S
C337 C338 1.392 . S
C337 C341 1.495 1_655 S
C338 C337 1.392 . S
C338 C339 1.385 . S
C338 C340 1.478 . S
C339 H333 0.930 . S
C339 C335 1.400 . S
C339 C338 1.385 . S
C340 C338 1.478 . S
C340 C342 1.381 . S
C340 C346 1.383 . S
C341 C337 1.495 1_455 S
C341 H347 0.959 . S
C341 H348 0.961 . S
C341 H349 0.960 . S
C342 C340 1.381 . S
C342 C343 1.394 . S
C342 H350 0.930 . S
C343 C342 1.394 . S
C343 C344 1.383 . S
C343 H351 0.929 . S
C344 C343 1.383 . S
C344 C345 1.377 . S
C345 H329 0.930 . S
C345 C344 1.377 . S
C345 C346 1.379 . S
C346 H330 0.931 . S
C346 C340 1.383 . S
C346 C345 1.379 . S
H347 C341 0.959 . S
H348 C341 0.961 . S
H349 C341 0.960 . S
H350 C342 0.930 . S
H351 C343 0.929 . S
H352 C360 0.929 . S
H353 C362 0.930 . S
H354 C364 0.930 . S
H355 C367 0.929 . S
H356 C370 0.930 . S
H357 C372 0.960 . S
H358 C372 0.960 . S
H359 C372 0.960 . S
C360 H352 0.929 . S
C360 C361 1.377 . S
C360 C362 1.384 . S
C361 C360 1.377 . S
C361 C367 1.390 . S
C362 H353 0.930 . S
C362 C360 1.384 . S
C362 C363 1.372 . S
C363 C362 1.372 . S
C363 C364 1.400 . S
C363 C368 1.490 . S
C364 H354 0.930 . S
C364 C363 1.400 . S
C364 C367 1.386 . S
H365 C381 0.930 . S
H366 C382 0.931 . S
C367 H355 0.929 . S
C367 C361 1.390 . S
C367 C364 1.386 . S
C368 C363 1.490 . S
C368 C370 1.395 . S
C368 C371 1.403 . S
H369 C375 0.930 . S
C370 H356 0.930 . S
C370 C368 1.395 . S
C370 C373 1.403 . S
C371 C368 1.403 . S
C371 C372 1.524 . S
C371 C375 1.400 . S
C372 H357 0.960 . S
C372 H358 0.960 . S
C372 H359 0.960 . S
C372 C371 1.524 . S
C373 C370 1.403 . S
C373 C374 1.392 . S
C373 C377 1.495 . S
C374 C373 1.392 . S
C374 C375 1.385 . S
C374 C376 1.478 . S
C375 H369 0.930 . S
C375 C371 1.400 . S
C375 C374 1.385 . S
C376 C374 1.478 . S
C376 C378 1.381 . S
C376 C382 1.383 . S
C377 C373 1.495 . S
C377 H383 0.959 . S
C377 H384 0.961 . S
C377 H385 0.960 . S
C378 C376 1.381 . S
C378 C379 1.394 . S
C378 H386 0.930 . S
C379 C378 1.394 . S
C379 C380 1.383 . S
C379 H387 0.929 . S
C380 C379 1.383 . S
C380 C381 1.377 . S
C381 H365 0.930 . S
C381 C380 1.377 . S
C381 C382 1.379 . S
C382 H366 0.931 . S
C382 C376 1.383 . S
C382 C381 1.379 . S
H383 C377 0.959 . S
H384 C377 0.961 . S
H385 C377 0.960 . S
H386 C378 0.930 . S
H387 C379 0.929 . S
H388 C396 0.929 . S
H389 C398 0.930 . S
H390 C400 0.930 . S
H391 C403 0.929 . S
H392 C406 0.930 . S
H393 C408 0.960 . S
H394 C408 0.960 . S
H395 C408 0.960 . S
C396 H388 0.929 . S
C396 C397 1.377 . S
C396 C398 1.384 . S
C397 C396 1.377 . S
C397 C403 1.390 . S
C398 H389 0.930 . S
C398 C396 1.384 . S
C398 C399 1.372 . S
C399 C398 1.372 . S
C399 C400 1.400 . S
C399 C404 1.490 . S
C400 H390 0.930 . S
C400 C399 1.400 . S
C400 C403 1.386 . S
H401 C417 0.930 . S
H402 C418 0.931 . S
C403 H391 0.929 . S
C403 C397 1.390 . S
C403 C400 1.386 . S
C404 C399 1.490 . S
C404 C406 1.395 . S
C404 C407 1.403 . S
H405 C411 0.930 . S
C406 H392 0.930 . S
C406 C404 1.395 . S
C406 C409 1.403 . S
C407 C404 1.403 . S
C407 C408 1.524 . S
C407 C411 1.400 . S
C408 H393 0.960 . S
C408 H394 0.960 . S
C408 H395 0.960 . S
C408 C407 1.524 . S
C409 C406 1.403 . S
C409 C410 1.392 . S
C409 C413 1.495 . S
C410 C409 1.392 . S
C410 C411 1.385 . S
C410 C412 1.478 . S
C411 H405 0.930 . S
C411 C407 1.400 . S
C411 C410 1.385 . S
C412 C410 1.478 . S
C412 C414 1.381 . S
C412 C418 1.383 1_565 S
C413 C409 1.495 . S
C413 H419 0.959 . S
C413 H420 0.961 . S
C413 H421 0.960 . S
C414 C412 1.381 . S
C414 C415 1.394 . S
C414 H422 0.930 . S
C415 C414 1.394 . S
C415 C416 1.383 . S
C415 H423 0.929 . S
C416 C415 1.383 . S
C416 C417 1.377 1_565 S
C417 H401 0.930 . S
C417 C416 1.377 1_545 S
C417 C418 1.379 . S
C418 H402 0.931 . S
C418 C412 1.383 1_545 S
C418 C417 1.379 . S
H419 C413 0.959 . S
H420 C413 0.961 . S
H421 C413 0.960 . S
H422 C414 0.930 . S
H423 C415 0.929 . S
H424 C432 0.929 . S
H425 C434 0.930 . S
H426 C436 0.930 . S
H427 C439 0.929 . S
H428 C442 0.930 . S
H429 C444 0.960 . S
H430 C444 0.960 . S
H431 C444 0.960 . S
C432 H424 0.929 . S
C432 C433 1.377 . S
C432 C434 1.384 . S
C433 C432 1.377 . S
C433 C439 1.390 . S
C434 H425 0.930 . S
C434 C432 1.384 . S
C434 C435 1.372 . S
C435 C434 1.372 . S
C435 C436 1.400 . S
C435 C440 1.490 . S
C436 H426 0.930 . S
C436 C435 1.400 . S
C436 C439 1.386 . S
H437 C453 0.930 . S
H438 C454 0.931 . S
C439 H427 0.929 . S
C439 C433 1.390 . S
C439 C436 1.386 . S
C440 C435 1.490 . S
C440 C442 1.395 . S
C440 C443 1.403 . S
H441 C447 0.930 . S
C442 H428 0.930 . S
C442 C440 1.395 . S
C442 C445 1.403 . S
C443 C440 1.403 . S
C443 C444 1.524 . S
C443 C447 1.400 . S
C444 H429 0.960 . S
C444 H430 0.960 . S
C444 H431 0.960 . S
C444 C443 1.524 . S
C445 C442 1.403 . S
C445 C446 1.392 . S
C445 C449 1.495 1_556 S
C446 C445 1.392 . S
C446 C447 1.385 . S
C446 C448 1.478 . S
C447 H441 0.930 . S
C447 C443 1.400 . S
C447 C446 1.385 . S
C448 C446 1.478 . S
C448 C450 1.381 . S
C448 C454 1.383 . S
C449 C445 1.495 1_554 S
C449 H455 0.959 . S
C449 H456 0.961 . S
C449 H457 0.960 . S
C450 C448 1.381 . S
C450 C451 1.394 . S
C450 H458 0.930 . S
C451 C450 1.394 . S
C451 C452 1.383 . S
C451 H459 0.929 . S
C452 C451 1.383 . S
C452 C453 1.377 . S
C453 H437 0.930 . S
C453 C452 1.377 . S
C453 C454 1.379 . S
C454 H438 0.931 . S
C454 C448 1.383 . S
C454 C453 1.379 . S
H455 C449 0.959 . S
H456 C449 0.961 . S
H457 C449 0.960 . S
H458 C450 0.930 . S
H459 C451 0.929 . S
H460 C468 0.929 . S
H461 C470 0.930 . S
H462 C472 0.930 . S
H463 C475 0.929 . S
H464 C478 0.930 . S
H465 C480 0.960 . S
H466 C480 0.960 . S
H467 C480 0.960 . S
C468 H460 0.929 . S
C468 C469 1.377 . S
C468 C470 1.384 . S
C469 C468 1.377 . S
C469 C475 1.390 . S
C470 H461 0.930 . S
C470 C468 1.384 . S
C470 C471 1.372 . S
C471 C470 1.372 . S
C471 C472 1.400 . S
C471 C476 1.490 . S
C472 H462 0.930 . S
C472 C471 1.400 . S
C472 C475 1.386 . S
H473 C489 0.930 . S
H474 C490 0.931 . S
C475 H463 0.929 . S
C475 C469 1.390 . S
C475 C472 1.386 . S
C476 C471 1.490 . S
C476 C478 1.395 . S
C476 C479 1.403 . S
H477 C483 0.930 . S
C478 H464 0.930 . S
C478 C476 1.395 . S
C478 C481 1.403 . S
C479 C476 1.403 . S
C479 C480 1.524 . S
C479 C483 1.400 . S
C480 H465 0.960 . S
C480 H466 0.960 . S
C480 H467 0.960 . S
C480 C479 1.524 . S
C481 C478 1.403 . S
C481 C482 1.392 . S
C481 C485 1.495 . S
C482 C481 1.392 . S
C482 C483 1.385 . S
C482 C484 1.478 . S
C483 H477 0.930 . S
C483 C479 1.400 . S
C483 C482 1.385 . S
C484 C482 1.478 . S
C484 C486 1.381 . S
C484 C490 1.383 . S
C485 C481 1.495 . S
C485 H491 0.959 . S
C485 H492 0.961 . S
C485 H493 0.960 . S
C486 C484 1.381 . S
C486 C487 1.394 . S
C486 H494 0.930 . S
C487 C486 1.394 . S
C487 C488 1.383 . S
C487 H495 0.929 . S
C488 C487 1.383 . S
C488 C489 1.377 . S
C489 H473 0.930 . S
C489 C488 1.377 . S
C489 C490 1.379 . S
C490 H474 0.931 . S
C490 C484 1.383 . S
C490 C489 1.379 . S
H491 C485 0.959 . S
H492 C485 0.961 . S
H493 C485 0.960 . S
H494 C486 0.930 . S
H495 C487 0.929 . S
H496 C504 0.929 . S
H497 C506 0.930 . S
H498 C508 0.930 . S
H499 C511 0.929 . S
H500 C514 0.930 . S
H501 C516 0.960 . S
H502 C516 0.960 . S
H503 C516 0.960 . S
C504 H496 0.929 . S
C504 C505 1.377 . S
C504 C506 1.384 . S
C505 C504 1.377 . S
C505 C511 1.390 . S
C506 H497 0.930 . S
C506 C504 1.384 . S
C506 C507 1.372 . S
C507 C506 1.372 . S
C507 C508 1.400 . S
C507 C512 1.490 . S
C508 H498 0.930 . S
C508 C507 1.400 . S
C508 C511 1.386 . S
H509 C525 0.930 . S
H510 C526 0.931 . S
C511 H499 0.929 . S
C511 C505 1.390 . S
C511 C508 1.386 . S
C512 C507 1.490 . S
C512 C514 1.395 . S
C512 C515 1.403 . S
H513 C519 0.930 . S
C514 H500 0.930 . S
C514 C512 1.395 . S
C514 C517 1.403 . S
C515 C512 1.403 . S
C515 C516 1.524 . S
C515 C519 1.400 . S
C516 H501 0.960 . S
C516 H502 0.960 . S
C516 H503 0.960 . S
C516 C515 1.524 . S
C517 C514 1.403 . S
C517 C518 1.392 . S
C517 C521 1.495 . S
C518 C517 1.392 . S
C518 C519 1.385 . S
C518 C520 1.478 . S
C519 H513 0.930 . S
C519 C515 1.400 . S
C519 C518 1.385 . S
C520 C518 1.478 . S
C520 C522 1.381 . S
C520 C526 1.383 . S
C521 C517 1.495 . S
C521 H527 0.959 . S
C521 H528 0.961 . S
C521 H529 0.960 . S
C522 C520 1.381 . S
C522 C523 1.394 . S
C522 H530 0.930 . S
C523 C522 1.394 . S
C523 C524 1.383 . S
C523 H531 0.929 . S
C524 C523 1.383 . S
C524 C525 1.377 . S
C525 H509 0.930 . S
C525 C524 1.377 . S
C525 C526 1.379 . S
C526 H510 0.931 . S
C526 C520 1.383 . S
C526 C525 1.379 . S
H527 C521 0.959 . S
H528 C521 0.961 . S
H529 C521 0.960 . S
H530 C522 0.930 . S
H531 C523 0.929 . S
H532 C540 0.929 . S
H533 C542 0.930 . S
H534 C544 0.930 . S
H535 C547 0.929 . S
H536 C550 0.930 . S
H537 C552 0.960 . S
H538 C552 0.960 . S
H539 C552 0.960 . S
C540 H532 0.929 . S
C540 C541 1.377 . S
C540 C542 1.384 . S
C541 C540 1.377 . S
C541 C547 1.390 . S
C542 H533 0.930 . S
C542 C540 1.384 . S
C542 C543 1.372 . S
C543 C542 1.372 . S
C543 C544 1.400 . S
C543 C548 1.490 . S
C544 H534 0.930 . S
C544 C543 1.400 . S
C544 C547 1.386 . S
H545 C561 0.930 . S
H546 C562 0.931 . S
C547 H535 0.929 . S
C547 C541 1.390 . S
C547 C544 1.386 . S
C548 C543 1.490 . S
C548 C550 1.395 . S
C548 C551 1.403 . S
H549 C555 0.930 1_554 S
C550 H536 0.930 . S
C550 C548 1.395 . S
C550 C553 1.403 . S
C551 C548 1.403 . S
C551 C552 1.524 1_556 S
C551 C555 1.400 . S
C552 H537 0.960 . S
C552 H538 0.960 . S
C552 H539 0.960 . S
C552 C551 1.524 1_554 S
C553 C550 1.403 . S
C553 C554 1.392 . S
C553 C557 1.495 . S
C554 C553 1.392 . S
C554 C555 1.385 . S
C554 C556 1.478 . S
C555 H549 0.930 1_556 S
C555 C551 1.400 . S
C555 C554 1.385 . S
C556 C554 1.478 . S
C556 C558 1.381 . S
C556 C562 1.383 1_556 S
C557 C553 1.495 . S
C557 H563 0.959 . S
C557 H564 0.961 . S
C557 H565 0.960 . S
C558 C556 1.381 . S
C558 C559 1.394 . S
C558 H566 0.930 . S
C559 C558 1.394 . S
C559 C560 1.383 1_556 S
C559 H567 0.929 . S
C560 C559 1.383 1_554 S
C560 C561 1.377 . S
C561 H545 0.930 . S
C561 C560 1.377 . S
C561 C562 1.379 . S
C562 H546 0.931 . S
C562 C556 1.383 1_554 S
C562 C561 1.379 . S
H563 C557 0.959 . S
H564 C557 0.961 . S
H565 C557 0.960 . S
H566 C558 0.930 . S
H567 C559 0.929 . S
H568 C576 0.929 . S
H569 C578 0.930 . S
H570 C580 0.930 . S
H571 C583 0.929 . S
H572 C586 0.930 . S
H573 C588 0.960 . S
H574 C588 0.960 . S
H575 C588 0.960 . S
C576 H568 0.929 . S
C576 C577 1.377 . S
C576 C578 1.384 . S
C577 C576 1.377 . S
C577 C583 1.390 . S
C578 H569 0.930 . S
C578 C576 1.384 . S
C578 C579 1.372 . S
C579 C578 1.372 . S
C579 C580 1.400 . S
C579 C584 1.490 . S
C580 H570 0.930 . S
C580 C579 1.400 . S
C580 C583 1.386 . S
H581 C597 0.930 . S
H582 C598 0.931 . S
C583 H571 0.929 . S
C583 C577 1.390 . S
C583 C580 1.386 . S
C584 C579 1.490 . S
C584 C586 1.395 . S
C584 C587 1.403 . S
H585 C591 0.902 1_455 S
C586 H572 0.930 . S
C586 C584 1.395 . S
C586 C589 1.403 . S
C587 C584 1.403 . S
C587 C588 1.524 1_655 S
C587 C591 1.400 . S
C588 H573 0.960 . S
C588 H574 0.960 . S
C588 H575 0.960 . S
C588 C587 1.524 1_455 S
C589 C586 1.403 . S
C589 C590 1.392 . S
C589 C593 1.495 . S
C590 C589 1.392 . S
C590 C591 1.385 . S
C590 C592 1.478 . S
C591 H585 0.902 1_655 S
C591 C587 1.400 . S
C591 C590 1.385 . S
C592 C590 1.478 . S
C592 C594 1.381 . S
C592 C598 1.383 . S
C593 C589 1.495 . S
C593 H599 0.959 . S
C593 H600 0.961 . S
C593 H601 0.960 . S
C594 C592 1.381 . S
C594 C595 1.394 . S
C594 H602 0.930 . S
C595 C594 1.394 . S
C595 C596 1.383 . S
C595 H603 0.929 . S
C596 C595 1.383 . S
C596 C597 1.377 . S
C597 H581 0.930 . S
C597 C596 1.377 . S
C597 C598 1.379 . S
C598 H582 0.931 . S
C598 C592 1.383 . S
C598 C597 1.379 . S
H599 C593 0.959 . S
H600 C593 0.961 . S
H601 C593 0.960 . S
H602 C594 0.930 . S
H603 C595 0.929 . S
H604 C612 0.929 . S
H605 C614 0.930 . S
H606 C616 0.930 . S
H607 C619 0.929 . S
H608 C622 0.930 . S
H609 C624 0.960 . S
H610 C624 0.960 . S
H611 C624 0.960 . S
C612 H604 0.929 . S
C612 C613 1.377 . S
C612 C614 1.384 . S
C613 C612 1.377 . S
C613 C619 1.390 . S
C614 H605 0.930 . S
C614 C612 1.384 . S
C614 C615 1.372 . S
C615 C614 1.372 . S
C615 C616 1.400 . S
C615 C620 1.490 . S
C616 H606 0.930 . S
C616 C615 1.400 . S
C616 C619 1.386 . S
H617 C633 0.930 . S
H618 C634 0.931 . S
C619 H607 0.929 . S
C619 C613 1.390 . S
C619 C616 1.386 . S
C620 C615 1.490 . S
C620 C622 1.395 . S
C620 C623 1.403 . S
H621 C627 0.930 . S
C622 H608 0.930 . S
C622 C620 1.395 . S
C622 C625 1.403 . S
C623 C620 1.403 . S
C623 C624 1.524 . S
C623 C627 1.400 . S
C624 H609 0.960 . S
C624 H610 0.960 . S
C624 H611 0.960 . S
C624 C623 1.524 . S
C625 C622 1.403 . S
C625 C626 1.392 . S
C625 C629 1.495 . S
C626 C625 1.392 . S
C626 C627 1.385 . S
C626 C628 1.478 . S
C627 H621 0.930 . S
C627 C623 1.400 . S
C627 C626 1.385 . S
C628 C626 1.478 . S
C628 C630 1.381 . S
C628 C634 1.383 . S
C629 C625 1.495 . S
C629 H635 0.959 . S
C629 H636 0.961 . S
C629 H637 0.960 . S
C630 C628 1.381 . S
C630 C631 1.394 . S
C630 H638 0.930 . S
C631 C630 1.394 . S
C631 C632 1.383 . S
C631 H639 0.929 . S
C632 C631 1.383 . S
C632 C633 1.377 . S
C633 H617 0.930 . S
C633 C632 1.377 . S
C633 C634 1.379 . S
C634 H618 0.931 . S
C634 C628 1.383 . S
C634 C633 1.379 . S
H635 C629 0.959 . S
H636 C629 0.961 . S
H637 C629 0.960 . S
H638 C630 0.930 . S
H639 C631 0.929 . S
H640 C648 0.929 . S
H641 C650 0.930 . S
H642 C652 0.930 . S
H643 C655 0.929 . S
H644 C658 0.930 . S
H645 C660 0.960 . S
H646 C660 0.960 . S
H647 C660 0.960 . S
C648 H640 0.929 . S
C648 C649 1.377 . S
C648 C650 1.384 . S
C649 C648 1.377 . S
C649 C655 1.390 . S
C650 H641 0.930 . S
C650 C648 1.384 . S
C650 C651 1.372 . S
C651 C650 1.372 . S
C651 C652 1.400 . S
C651 C656 1.490 . S
C652 H642 0.930 . S
C652 C651 1.400 . S
C652 C655 1.386 . S
H653 C669 0.935 . S
H654 C670 0.931 1_455 S
C655 H643 0.929 . S
C655 C649 1.390 . S
C655 C652 1.386 . S
C656 C651 1.490 . S
C656 C658 1.395 1_565 S
C656 C659 1.403 . S
H657 C663 0.930 . S
C658 H644 0.930 . S
C658 C656 1.395 1_545 S
C658 C661 1.403 . S
C659 C656 1.403 . S
C659 C660 1.524 . S
C659 C663 1.400 . S
C660 H645 0.960 . S
C660 H646 0.960 . S
C660 H647 0.960 . S
C660 C659 1.524 . S
C661 C658 1.403 . S
C661 C662 1.392 1_545 S
C661 C665 1.495 . S
C662 C661 1.392 1_565 S
C662 C663 1.385 . S
C662 C664 1.478 . S
C663 H657 0.930 . S
C663 C659 1.400 . S
C663 C662 1.385 . S
C664 C662 1.478 . S
C664 C666 1.381 1_565 S
C664 C670 1.383 . S
C665 C661 1.495 . S
C665 H671 0.959 . S
C665 H672 0.961 . S
C665 H673 0.960 . S
C666 C664 1.381 1_545 S
C666 C667 1.394 . S
C666 H674 0.930 . S
C667 C666 1.394 . S
C667 C668 1.383 . S
C667 H675 0.929 . S
C668 C667 1.383 . S
C668 C669 1.370 1_645 S
C669 H653 0.935 . S
C669 C668 1.370 1_465 S
C669 C670 1.381 1_455 S
C670 H654 0.931 1_655 S
C670 C664 1.383 . S
C670 C669 1.381 1_655 S
H671 C665 0.959 . S
H672 C665 0.961 . S
H673 C665 0.960 . S
H674 C666 0.930 . S
H675 C667 0.929 . S
H676 C684 0.929 . S
H677 C686 0.930 . S
H678 C688 0.930 . S
H679 C691 0.929 . S
H680 C694 0.930 . S
H681 C696 0.960 . S
H682 C696 0.960 . S
H683 C696 0.960 . S
C684 H676 0.929 . S
C684 C685 1.377 . S
C684 C686 1.384 . S
C685 C684 1.377 . S
C685 C691 1.390 . S
C686 H677 0.930 . S
C686 C684 1.384 . S
C686 C687 1.372 . S
C687 C686 1.372 . S
C687 C688 1.400 . S
C687 C692 1.490 . S
C688 H678 0.930 . S
C688 C687 1.400 . S
C688 C691 1.386 . S
H689 C705 0.930 . S
H690 C706 0.931 . S
C691 H679 0.929 . S
C691 C685 1.390 . S
C691 C688 1.386 . S
C692 C687 1.490 . S
C692 C694 1.395 . S
C692 C695 1.403 . S
H693 C699 0.930 . S
C694 H680 0.930 . S
C694 C692 1.395 . S
C694 C697 1.403 . S
C695 C692 1.403 . S
C695 C696 1.524 . S
C695 C699 1.400 . S
C696 H681 0.960 . S
C696 H682 0.960 . S
C696 H683 0.960 . S
C696 C695 1.524 . S
C697 C694 1.403 . S
C697 C698 1.392 . S
C697 C701 1.495 . S
C698 C697 1.392 . S
C698 C699 1.385 . S
C698 C700 1.478 . S
C699 H693 0.930 . S
C699 C695 1.400 . S
C699 C698 1.385 . S
C700 C698 1.478 . S
C700 C702 1.381 . S
C700 C706 1.383 . S
C701 C697 1.495 . S
C701 H707 0.959 . S
C701 H708 0.961 . S
C701 H709 0.960 . S
C702 C700 1.381 . S
C702 C703 1.394 . S
C702 H710 0.930 . S
C703 C702 1.394 . S
C703 C704 1.383 . S
C703 H711 0.929 . S
C704 C703 1.383 . S
C704 C705 1.377 . S
C705 H689 0.930 . S
C705 C704 1.377 . S
C705 C706 1.379 . S
C706 H690 0.931 . S
C706 C700 1.383 . S
C706 C705 1.379 . S
H707 C701 0.959 . S
H708 C701 0.961 . S
H709 C701 0.960 . S
H710 C702 0.930 . S
H711 C703 0.929 . S
H712 C720 0.929 . S
H713 C722 0.930 . S
H714 C724 0.930 . S
H715 C727 0.929 . S
H716 C730 0.930 . S
H717 C732 0.960 . S
H718 C732 0.960 . S
H719 C732 0.960 . S
C720 H712 0.929 . S
C720 C721 1.377 . S
C720 C722 1.384 . S
C721 C720 1.377 . S
C721 C727 1.390 . S
C722 H713 0.930 . S
C722 C720 1.384 . S
C722 C723 1.372 . S
C723 C722 1.372 . S
C723 C724 1.400 . S
C723 C728 1.490 . S
C724 H714 0.930 . S
C724 C723 1.400 . S
C724 C727 1.386 . S
H725 C741 0.930 . S
H726 C742 0.931 . S
C727 H715 0.929 . S
C727 C721 1.390 . S
C727 C724 1.386 . S
C728 C723 1.490 . S
C728 C730 1.395 . S
C728 C731 1.403 . S
H729 C735 0.930 . S
C730 H716 0.930 . S
C730 C728 1.395 . S
C730 C733 1.403 . S
C731 C728 1.403 . S
C731 C732 1.524 . S
C731 C735 1.400 . S
C732 H717 0.960 . S
C732 H718 0.960 . S
C732 H719 0.960 . S
C732 C731 1.524 . S
C733 C730 1.403 . S
C733 C734 1.392 . S
C733 C737 1.495 . S
C734 C733 1.392 . S
C734 C735 1.385 . S
C734 C736 1.478 . S
C735 H729 0.930 . S
C735 C731 1.400 . S
C735 C734 1.385 . S
C736 C734 1.478 . S
C736 C738 1.381 . S
C736 C742 1.383 . S
C737 C733 1.495 . S
C737 H743 0.959 . S
C737 H744 0.961 . S
C737 H745 0.960 . S
C738 C736 1.381 . S
C738 C739 1.394 . S
C738 H746 0.930 . S
C739 C738 1.394 . S
C739 C740 1.383 . S
C739 H747 0.929 . S
C740 C739 1.383 . S
C740 C741 1.377 . S
C741 H725 0.930 . S
C741 C740 1.377 . S
C741 C742 1.379 . S
C742 H726 0.931 . S
C742 C736 1.383 . S
C742 C741 1.379 . S
H743 C737 0.959 . S
H744 C737 0.961 . S
H745 C737 0.960 . S
H746 C738 0.930 . S
H747 C739 0.929 . S
H748 C756 0.929 . S
H749 C758 0.930 . S
H750 C760 0.930 . S
H751 C763 0.929 . S
H752 C766 0.930 . S
H753 C768 0.960 . S
H754 C768 0.960 . S
H755 C768 0.960 . S
C756 H748 0.929 . S
C756 C757 1.377 . S
C756 C758 1.384 . S
C757 C756 1.377 . S
C757 C763 1.390 . S
C758 H749 0.930 . S
C758 C756 1.384 . S
C758 C759 1.372 . S
C759 C758 1.372 . S
C759 C760 1.400 . S
C759 C764 1.490 . S
C760 H750 0.930 . S
C760 C759 1.400 . S
C760 C763 1.386 . S
H761 C777 0.930 . S
H762 C778 0.931 . S
C763 H751 0.929 . S
C763 C757 1.390 . S
C763 C760 1.386 . S
C764 C759 1.490 . S
C764 C766 1.395 . S
C764 C767 1.403 . S
H765 C771 0.930 . S
C766 H752 0.930 . S
C766 C764 1.395 . S
C766 C769 1.403 . S
C767 C764 1.403 . S
C767 C768 1.524 . S
C767 C771 1.400 . S
C768 H753 0.960 . S
C768 H754 0.960 . S
C768 H755 0.960 . S
C768 C767 1.524 . S
C769 C766 1.403 . S
C769 C770 1.392 . S
C769 C773 1.495 . S
C770 C769 1.392 . S
C770 C771 1.385 . S
C770 C772 1.478 . S
C771 H765 0.930 . S
C771 C767 1.400 . S
C771 C770 1.385 . S
C772 C770 1.478 . S
C772 C774 1.381 . S
C772 C778 1.383 . S
C773 C769 1.495 . S
C773 H779 0.959 . S
C773 H780 0.961 . S
C773 H781 0.960 . S
C774 C772 1.381 . S
C774 C775 1.394 . S
C774 H782 0.930 . S
C775 C774 1.394 . S
C775 C776 1.383 . S
C775 H783 0.929 . S
C776 C775 1.383 . S
C776 C777 1.377 . S
C777 H761 0.930 . S
C777 C776 1.377 . S
C777 C778 1.379 . S
C778 H762 0.931 . S
C778 C772 1.383 . S
C778 C777 1.379 . S
H779 C773 0.959 . S
H780 C773 0.961 . S
H781 C773 0.960 . S
H782 C774 0.930 . S
H783 C775 0.929 . S
H784 C792 0.929 . S
H785 C794 0.930 . S
H786 C796 0.930 . S
H787 C799 0.929 . S
H788 C802 0.930 . S
H789 C804 0.960 . S
H790 C804 0.960 . S
H791 C804 0.960 . S
C792 H784 0.929 . S
C792 C793 1.377 . S
C792 C794 1.384 . S
C793 C792 1.377 . S
C793 C799 1.390 . S
C794 H785 0.930 . S
C794 C792 1.384 . S
C794 C795 1.372 . S
C795 C794 1.372 . S
C795 C796 1.400 . S
C795 C800 1.490 . S
C796 H786 0.930 . S
C796 C795 1.400 . S
C796 C799 1.386 . S
H797 C813 0.930 . S
H798 C814 0.931 . S
C799 H787 0.929 . S
C799 C793 1.390 . S
C799 C796 1.386 . S
C800 C795 1.490 . S
C800 C802 1.395 . S
C800 C803 1.403 1_565 S
H801 C807 0.930 . S
C802 H788 0.930 . S
C802 C800 1.395 . S
C802 C805 1.403 . S
C803 C800 1.403 1_545 S
C803 C804 1.524 . S
C803 C807 1.400 . S
C804 H789 0.960 . S
C804 H790 0.960 . S
C804 H791 0.960 . S
C804 C803 1.524 . S
C805 C802 1.403 . S
C805 C806 1.392 . S
C805 C809 1.485 1_556 S
C806 C805 1.392 . S
C806 C807 1.385 1_565 S
C806 C808 1.477 1_556 S
C807 H801 0.930 . S
C807 C803 1.400 . S
C807 C806 1.385 1_545 S
C808 C806 1.477 1_554 S
C808 C810 1.380 1_554 S
C808 C814 1.384 1_565 S
C809 C805 1.485 1_554 S
C809 H815 0.952 1_554 S
C809 H816 0.991 . S
C809 H817 0.945 1_554 S
C810 C808 1.380 1_556 S
C810 C811 1.394 . S
C810 H818 0.930 . S
C811 C810 1.394 . S
C811 C812 1.383 1_566 S
C811 H819 0.929 . S
C812 C811 1.383 1_544 S
C812 C813 1.377 . S
C813 H797 0.930 . S
C813 C812 1.377 . S
C813 C814 1.379 . S
C814 H798 0.931 . S
C814 C808 1.384 1_545 S
C814 C813 1.379 . S
H815 C809 0.952 1_556 S
H816 C809 0.991 . S
H817 C809 0.945 1_556 S
H818 C810 0.930 . S
H819 C811 0.929 . S
H820 C828 0.929 . S
H821 C830 0.930 . S
H822 C832 0.930 . S
H823 C835 0.929 . S
H824 C838 0.930 . S
H825 C840 0.960 . S
H826 C840 0.960 . S
H827 C840 0.960 . S
C828 H820 0.929 . S
C828 C829 1.377 . S
C828 C830 1.384 . S
C829 C828 1.377 . S
C829 C835 1.390 . S
C830 H821 0.930 . S
C830 C828 1.384 . S
C830 C831 1.372 . S
C831 C830 1.372 . S
C831 C832 1.400 . S
C831 C836 1.490 . S
C832 H822 0.930 . S
C832 C831 1.400 . S
C832 C835 1.386 . S
H833 C849 0.930 . S
H834 C850 0.931 . S
C835 H823 0.929 . S
C835 C829 1.390 . S
C835 C832 1.386 . S
C836 C831 1.490 . S
C836 C838 1.395 . S
C836 C839 1.403 . S
H837 C843 0.930 . S
C838 H824 0.930 . S
C838 C836 1.395 . S
C838 C841 1.403 . S
C839 C836 1.403 . S
C839 C840 1.524 . S
C839 C843 1.400 . S
C840 H825 0.960 . S
C840 H826 0.960 . S
C840 H827 0.960 . S
C840 C839 1.524 . S
C841 C838 1.403 . S
C841 C842 1.392 . S
C841 C845 1.495 . S
C842 C841 1.392 . S
C842 C843 1.385 . S
C842 C844 1.478 . S
C843 H837 0.930 . S
C843 C839 1.400 . S
C843 C842 1.385 . S
C844 C842 1.478 . S
C844 C846 1.381 . S
C844 C850 1.383 . S
C845 C841 1.495 . S
C845 H851 0.959 . S
C845 H852 0.961 . S
C845 H853 0.960 . S
C846 C844 1.381 . S
C846 C847 1.394 . S
C846 H854 0.930 . S
C847 C846 1.394 . S
C847 C848 1.383 . S
C847 H855 0.929 . S
C848 C847 1.383 . S
C848 C849 1.377 . S
C849 H833 0.930 . S
C849 C848 1.377 . S
C849 C850 1.379 . S
C850 H834 0.931 . S
C850 C844 1.383 . S
C850 C849 1.379 . S
H851 C845 0.959 . S
H852 C845 0.961 . S
H853 C845 0.960 . S
H854 C846 0.930 . S
H855 C847 0.929 . S
H856 C864 0.929 . S
H857 C866 0.930 . S
H858 C868 0.930 . S
H859 C871 0.929 . S
H860 C874 0.930 . S
H861 C876 0.960 . S
H862 C876 0.960 . S
H863 C876 0.960 . S
C864 H856 0.929 . S
C864 C865 1.377 . S
C864 C866 1.384 . S
C865 C864 1.377 . S
C865 C871 1.390 . S
C866 H857 0.930 . S
C866 C864 1.384 . S
C866 C867 1.372 . S
C867 C866 1.372 . S
C867 C868 1.400 . S
C867 C872 1.490 . S
C868 H858 0.930 . S
C868 C867 1.400 . S
C868 C871 1.386 . S
H869 C885 0.930 . S
H870 C886 0.931 . S
C871 H859 0.929 . S
C871 C865 1.390 . S
C871 C868 1.386 . S
C872 C867 1.490 . S
C872 C874 1.395 . S
C872 C875 1.403 . S
H873 C879 0.930 . S
C874 H860 0.930 . S
C874 C872 1.395 . S
C874 C877 1.403 . S
C875 C872 1.403 . S
C875 C876 1.524 . S
C875 C879 1.400 . S
C876 H861 0.960 . S
C876 H862 0.960 . S
C876 H863 0.960 . S
C876 C875 1.524 . S
C877 C874 1.403 . S
C877 C878 1.392 . S
C877 C881 1.495 . S
C878 C877 1.392 . S
C878 C879 1.385 . S
C878 C880 1.478 . S
C879 H873 0.930 . S
C879 C875 1.400 . S
C879 C878 1.385 . S
C880 C878 1.478 . S
C880 C882 1.381 . S
C880 C886 1.383 . S
C881 C877 1.495 . S
C881 H887 0.959 . S
C881 H888 0.961 . S
C881 H889 0.960 . S
C882 C880 1.381 . S
C882 C883 1.394 . S
C882 H890 0.930 . S
C883 C882 1.394 . S
C883 C884 1.383 . S
C883 H891 0.929 . S
C884 C883 1.383 . S
C884 C885 1.377 . S
C885 H869 0.930 . S
C885 C884 1.377 . S
C885 C886 1.379 . S
C886 H870 0.931 . S
C886 C880 1.383 . S
C886 C885 1.379 . S
H887 C881 0.959 . S
H888 C881 0.961 . S
H889 C881 0.960 . S
H890 C882 0.930 . S
H891 C883 0.929 . S
H892 C900 0.929 . S
H893 C902 0.930 . S
H894 C904 0.930 . S
H895 C907 0.929 . S
H896 C910 0.930 . S
H897 C912 0.960 . S
H898 C912 0.960 . S
H899 C912 0.960 . S
C900 H892 0.929 . S
C900 C901 1.377 . S
C900 C902 1.384 . S
C901 C900 1.377 . S
C901 C907 1.390 . S
C902 H893 0.930 . S
C902 C900 1.384 . S
C902 C903 1.372 . S
C903 C902 1.372 . S
C903 C904 1.400 . S
C903 C908 1.490 . S
C904 H894 0.930 . S
C904 C903 1.400 . S
C904 C907 1.386 . S
H905 C921 0.930 . S
H906 C922 0.931 . S
C907 H895 0.929 . S
C907 C901 1.390 . S
C907 C904 1.386 . S
C908 C903 1.490 . S
C908 C910 1.395 . S
C908 C911 1.403 . S
H909 C915 0.930 . S
C910 H896 0.930 . S
C910 C908 1.395 . S
C910 C913 1.403 . S
C911 C908 1.403 . S
C911 C912 1.524 . S
C911 C915 1.400 . S
C912 H897 0.960 . S
C912 H898 0.960 . S
C912 H899 0.960 . S
C912 C911 1.524 . S
C913 C910 1.403 . S
C913 C914 1.392 . S
C913 C917 1.495 . S
C914 C913 1.392 . S
C914 C915 1.385 . S
C914 C916 1.478 . S
C915 H909 0.930 . S
C915 C911 1.400 . S
C915 C914 1.385 . S
C916 C914 1.478 . S
C916 C918 1.381 . S
C916 C922 1.383 . S
C917 C913 1.495 . S
C917 H923 0.959 . S
C917 H924 0.961 . S
C917 H925 0.960 . S
C918 C916 1.381 . S
C918 C919 1.394 . S
C918 H926 0.930 . S
C919 C918 1.394 . S
C919 C920 1.383 . S
C919 H927 0.929 . S
C920 C919 1.383 . S
C920 C921 1.377 . S
C921 H905 0.930 . S
C921 C920 1.377 . S
C921 C922 1.379 . S
C922 H906 0.931 . S
C922 C916 1.383 . S
C922 C921 1.379 . S
H923 C917 0.959 . S
H924 C917 0.961 . S
H925 C917 0.960 . S
H926 C918 0.930 . S
H927 C919 0.929 . S
H928 C936 0.929 . S
H929 C938 0.930 . S
H930 C940 0.930 . S
H931 C943 0.929 . S
H932 C946 0.930 . S
H933 C948 0.960 . S
H934 C948 0.960 . S
H935 C948 0.960 . S
C936 H928 0.929 . S
C936 C937 1.377 . S
C936 C938 1.384 . S
C937 C936 1.377 . S
C937 C943 1.390 . S
C938 H929 0.930 . S
C938 C936 1.384 . S
C938 C939 1.372 . S
C939 C938 1.372 . S
C939 C940 1.400 . S
C939 C944 1.490 . S
C940 H930 0.930 . S
C940 C939 1.400 . S
C940 C943 1.386 . S
H941 C957 0.930 . S
H942 C958 0.931 1_554 S
C943 H931 0.929 . S
C943 C937 1.390 . S
C943 C940 1.386 . S
C944 C939 1.490 . S
C944 C946 1.395 . S
C944 C947 1.403 . S
H945 C951 0.930 . S
C946 H932 0.930 . S
C946 C944 1.395 . S
C946 C949 1.403 . S
C947 C944 1.403 . S
C947 C948 1.524 . S
C947 C951 1.400 . S
C948 H933 0.960 . S
C948 H934 0.960 . S
C948 H935 0.960 . S
C948 C947 1.524 . S
C949 C946 1.403 . S
C949 C950 1.392 . S
C949 C953 1.495 1_655 S
C950 C949 1.392 . S
C950 C951 1.385 . S
C950 C952 1.478 . S
C951 H945 0.930 . S
C951 C947 1.400 . S
C951 C950 1.385 . S
C952 C950 1.478 . S
C952 C954 1.381 1_655 S
C952 C958 1.383 . S
C953 C949 1.495 1_455 S
C953 H959 0.959 . S
C953 H960 0.961 . S
C953 H961 0.960 . S
C954 C952 1.381 1_455 S
C954 C955 1.394 . S
C954 H962 0.930 . S
C955 C954 1.394 . S
C955 C956 1.383 . S
C955 H963 0.929 . S
C956 C955 1.383 . S
C956 C957 1.377 1_456 S
C957 H941 0.930 . S
C957 C956 1.377 1_654 S
C957 C958 1.379 1_554 S
C958 H942 0.931 1_556 S
C958 C952 1.383 . S
C958 C957 1.379 1_556 S
H959 C953 0.959 . S
H960 C953 0.961 . S
H961 C953 0.960 . S
H962 C954 0.930 . S
H963 C955 0.929 . S
H964 C972 0.929 . S
H965 C974 0.930 . S
H966 C976 0.930 . S
H967 C979 0.929 . S
H968 C982 0.930 . S
H969 C984 0.960 . S
H970 C984 0.960 . S
H971 C984 0.960 . S
C972 H964 0.929 . S
C972 C973 1.377 . S
C972 C974 1.384 . S
C973 C972 1.377 . S
C973 C979 1.390 . S
C974 H965 0.930 . S
C974 C972 1.384 . S
C974 C975 1.372 . S
C975 C974 1.372 . S
C975 C976 1.400 . S
C975 C980 1.490 . S
C976 H966 0.930 . S
C976 C975 1.400 . S
C976 C979 1.386 . S
H977 C993 0.930 . S
H978 C994 0.931 . S
C979 H967 0.929 . S
C979 C973 1.390 . S
C979 C976 1.386 . S
C980 C975 1.490 . S
C980 C982 1.395 . S
C980 C983 1.403 . S
H981 C987 0.930 . S
C982 H968 0.930 . S
C982 C980 1.395 . S
C982 C985 1.403 . S
C983 C980 1.403 . S
C983 C984 1.524 . S
C983 C987 1.400 . S
C984 H969 0.960 . S
C984 H970 0.960 . S
C984 H971 0.960 . S
C984 C983 1.524 . S
C985 C982 1.403 . S
C985 C986 1.392 . S
C985 C989 1.495 . S
C986 C985 1.392 . S
C986 C987 1.385 . S
C986 C988 1.478 . S
C987 H981 0.930 . S
C987 C983 1.400 . S
C987 C986 1.385 . S
C988 C986 1.478 . S
C988 C990 1.381 . S
C988 C994 1.383 . S
C989 C985 1.495 . S
C989 H995 0.959 . S
C989 H996 0.961 . S
C989 H997 0.960 . S
C990 C988 1.381 . S
C990 C991 1.394 . S
C990 H998 0.930 . S
C991 C990 1.394 . S
C991 C992 1.383 . S
C991 H999 0.929 . S
C992 C991 1.383 . S
C992 C993 1.377 . S
C993 H977 0.930 . S
C993 C992 1.377 . S
C993 C994 1.379 . S
C994 H978 0.931 . S
C994 C988 1.383 . S
C994 C993 1.379 . S
H995 C989 0.959 . S
H996 C989 0.961 . S
H997 C989 0.960 . S
H998 C990 0.930 . S
H999 C991 0.929 . S
H1000 C1008 0.929 . S
H1001 C1010 0.930 . S
H1002 C1012 0.930 . S
H1003 C1015 0.929 . S
H1004 C1018 0.930 . S
H1005 C1020 0.960 . S
H1006 C1020 0.960 . S
H1007 C1020 0.960 . S
C1008 H1000 0.929 . S
C1008 C1009 1.377 . S
C1008 C1010 1.384 . S
C1009 C1008 1.377 . S
C1009 C1015 1.390 . S
C1010 H1001 0.930 . S
C1010 C1008 1.384 . S
C1010 C1011 1.372 . S
C1011 C1010 1.372 . S
C1011 C1012 1.400 . S
C1011 C1016 1.490 . S
C1012 H1002 0.930 . S
C1012 C1011 1.400 . S
C1012 C1015 1.386 . S
H1013 C1029 0.930 1_655 S
H1014 C1030 0.931 . S
C1015 H1003 0.929 . S
C1015 C1009 1.390 . S
C1015 C1012 1.386 . S
C1016 C1011 1.490 . S
C1016 C1018 1.395 . S
C1016 C1019 1.403 . S
H1017 C1023 0.930 . S
C1018 H1004 0.930 . S
C1018 C1016 1.395 . S
C1018 C1021 1.403 . S
C1019 C1016 1.403 . S
C1019 C1020 1.524 . S
C1019 C1023 1.400 . S
C1020 H1005 0.960 . S
C1020 H1006 0.960 . S
C1020 H1007 0.960 . S
C1020 C1019 1.524 . S
C1021 C1018 1.403 . S
C1021 C1022 1.392 . S
C1021 C1025 1.495 . S
C1022 C1021 1.392 . S
C1022 C1023 1.385 . S
C1022 C1024 1.478 . S
C1023 H1017 0.930 . S
C1023 C1019 1.400 . S
C1023 C1022 1.385 . S
C1024 C1022 1.478 . S
C1024 C1026 1.381 . S
C1024 C1030 1.383 . S
C1025 C1021 1.495 . S
C1025 H1031 0.959 . S
C1025 H1032 0.961 . S
C1025 H1033 0.960 . S
C1026 C1024 1.381 . S
C1026 C1027 1.394 . S
C1026 H1034 0.930 . S
C1027 C1026 1.394 . S
C1027 C1028 1.383 . S
C1027 H1035 0.929 . S
C1028 C1027 1.383 . S
C1028 C1029 1.377 . S
C1029 H1013 0.930 1_455 S
C1029 C1028 1.377 . S
C1029 C1030 1.379 . S
C1030 H1014 0.931 . S
C1030 C1024 1.383 . S
C1030 C1029 1.379 . S
H1031 C1025 0.959 . S
H1032 C1025 0.961 . S
H1033 C1025 0.960 . S
H1034 C1026 0.930 . S
H1035 C1027 0.929 . S
H1036 C1044 0.929 . S
H1037 C1046 0.930 . S
H1038 C1048 0.930 . S
H1039 C1051 0.929 . S
H1040 C1054 0.930 . S
H1041 C1056 0.960 . S
H1042 C1056 0.960 . S
H1043 C1056 0.960 . S
C1044 H1036 0.929 . S
C1044 C1045 1.377 . S
C1044 C1046 1.384 . S
C1045 C1044 1.377 . S
C1045 C1051 1.390 . S
C1046 H1037 0.930 . S
C1046 C1044 1.384 . S
C1046 C1047 1.372 . S
C1047 C1046 1.372 . S
C1047 C1048 1.400 . S
C1047 C1052 1.490 . S
C1048 H1038 0.930 . S
C1048 C1047 1.400 . S
C1048 C1051 1.386 . S
H1049 C1065 0.930 . S
H1050 C1066 0.931 . S
C1051 H1039 0.929 . S
C1051 C1045 1.390 . S
C1051 C1048 1.386 . S
C1052 C1047 1.490 . S
C1052 C1054 1.395 . S
C1052 C1055 1.403 . S
H1053 C1059 0.930 . S
C1054 H1040 0.930 . S
C1054 C1052 1.395 . S
C1054 C1057 1.403 . S
C1055 C1052 1.403 . S
C1055 C1056 1.524 . S
C1055 C1059 1.400 . S
C1056 H1041 0.960 . S
C1056 H1042 0.960 . S
C1056 H1043 0.960 . S
C1056 C1055 1.524 . S
C1057 C1054 1.403 . S
C1057 C1058 1.392 . S
C1057 C1061 1.495 . S
C1058 C1057 1.392 . S
C1058 C1059 1.385 . S
C1058 C1060 1.478 . S
C1059 H1053 0.930 . S
C1059 C1055 1.400 . S
C1059 C1058 1.385 . S
C1060 C1058 1.478 . S
C1060 C1062 1.381 . S
C1060 C1066 1.383 . S
C1061 C1057 1.495 . S
C1061 H1067 0.959 . S
C1061 H1068 0.961 . S
C1061 H1069 0.960 . S
C1062 C1060 1.381 . S
C1062 C1063 1.394 . S
C1062 H1070 0.930 . S
C1063 C1062 1.394 . S
C1063 C1064 1.383 . S
C1063 H1071 0.929 . S
C1064 C1063 1.383 . S
C1064 C1065 1.377 . S
C1065 H1049 0.930 . S
C1065 C1064 1.377 . S
C1065 C1066 1.379 . S
C1066 H1050 0.931 . S
C1066 C1060 1.383 . S
C1066 C1065 1.379 . S
H1067 C1061 0.959 . S
H1068 C1061 0.961 . S
H1069 C1061 0.960 . S
H1070 C1062 0.930 . S
H1071 C1063 0.929 . S
C217 C4 2.340 . S
C236 C104 2.346 . S
C253 C16 1.426 . S
C272 N124 1.391 . S
C308 C158 1.472 . S
C289 C32 1.474 . S
C325 C43 1.086 . S
C344 N192 1.030 . S
C380 C145 2.877 . S
C361 C5 2.867 . S
C416 N102 0.927 1_565 S
C397 C21 0.933 . S
C452 C179 1.716 1_556 S
C433 C27 1.712 . S
C488 N154 0.906 . S
C469 C37 0.880 . S
C505 C10 1.833 . S
C524 C194 1.844 . S
C560 C128 1.759 . S
C541 C26 1.749 . S
C577 C38 1.099 . S
C596 C89 1.119 . S
C613 C15 1.623 . S
C632 C175 1.626 . S
C668 C115 2.515 . S
C649 C48 2.517 . S
C685 C59 1.183 . S
C704 N132 1.192 . S
C721 C76 1.811 . S
C740 C149 1.816 . S
C757 C87 0.911 . S
C776 N184 0.859 . S
C793 C54 2.145 . S
C812 C134 2.160 . S
C848 N94 1.565 . S
C829 C60 1.594 . S
C884 C188 1.777 . S
C865 C71 1.764 . S
C920 N162 0.814 . S
C901 C82 0.835 . S
C937 C49 2.108 . S
C956 C205 2.119 1_556 S
C992 C119 1.319 . S
C973 C70 1.321 . S
C1028 C98 1.500 . S
C1009 C81 1.498 . S
C1045 C65 1.426 . S
C1064 C164 1.431 . S
