# Generated by pormake.
# Topology ssa, (4,4)-cn, num edge types: 1
# Building blocks:
#     Node 0, Type 0, BuildingBlock: NAWXER_clean_sbu_0, # of connection points: 4
#     Node 1, Type 0, BuildingBlock: NAWXER_clean_sbu_0, # of connection points: 4
#     Node 2, Type 0, BuildingBlock: NAWXER_clean_sbu_0, # of connection points: 4
#     Node 3, Type 0, BuildingBlock: NAWXER_clean_sbu_0, # of connection points: 4
#     Node 4, Type 0, BuildingBlock: NAWXER_clean_sbu_0, # of connection points: 4
#     Node 5, Type 0, BuildingBlock: NAWXER_clean_sbu_0, # of connection points: 4
#     Node 6, Type 1, BuildingBlock: NAWXER_clean_linker_0, # of connection points: 4
#     Node 7, Type 1, BuildingBlock: NAWXER_clean_linker_0, # of connection points: 4
#     Node 8, Type 1, BuildingBlock: NAWXER_clean_linker_0, # of connection points: 4
#     Node 9, Type 1, BuildingBlock: NAWXER_clean_linker_0, # of connection points: 4
#     Node 10, Type 1, BuildingBlock: NAWXER_clean_linker_0, # of connection points: 4
#     Node 11, Type 1, BuildingBlock: NAWXER_clean_linker_0, # of connection points: 4
#     Edge 12, Type (0, 1), None
#     Edge 13, Type (0, 1), None
#     Edge 14, Type (0, 1), None
#     Edge 15, Type (0, 1), None
#     Edge 16, Type (0, 1), None
#     Edge 17, Type (0, 1), None
#     Edge 18, Type (0, 1), None
#     Edge 19, Type (0, 1), None
#     Edge 20, Type (0, 1), None
#     Edge 21, Type (0, 1), None
#     Edge 22, Type (0, 1), None
#     Edge 23, Type (0, 1), None
#     Edge 24, Type (0, 1), None
#     Edge 25, Type (0, 1), None
#     Edge 26, Type (0, 1), None
#     Edge 27, Type (0, 1), None
#     Edge 28, Type (0, 1), None
#     Edge 29, Type (0, 1), None
#     Edge 30, Type (0, 1), None
#     Edge 31, Type (0, 1), None
#     Edge 32, Type (0, 1), None
#     Edge 33, Type (0, 1), None
#     Edge 34, Type (0, 1), None
#     Edge 35, Type (0, 1), None
# Relax obj value: 0.014
# Max RMSD: 0.030
# Mean RMSD: 0.028
data_MOF--net-ssa--node1-NAWXER_clean_sbu_0--node2-NAWXER_clean_linker_0--edge1-none
_symmetry_space_group_name_H-M    P1
_symmetry_Int_Tables_number       1
_symmetry_cell_setting            triclinic
loop_
_symmetry_equiv_pos_as_xyz
'x, y, z'
_cell_length_a     31.177136
_cell_length_b     31.176812
_cell_length_c     19.935773
_cell_angle_alpha  90.714944
_cell_angle_beta   90.714064
_cell_angle_gamma 119.45752
loop_
_atom_site_label
_atom_site_type_symbol
_atom_site_fract_x
_atom_site_fract_y
_atom_site_fract_z
_atom_type_partial_charge
C0 C 0.07777 0.52905 0.04268 0.0
C1 C 0.96529 0.36876 0.9309 0.0
O2 O 0.03996 0.50021 0.07587 0.0
Zn3 Zn 0.97726 0.42952 0.06856 0.0
O4 O 0.0852 0.51516 0.98564 0.0
Zn5 Zn 0.02735 0.44809 0.9856 0.0
O6 O 0.97099 0.4669 0.975 0.0
O7 O 0.92616 0.4483 0.06647 0.0
O8 O 0.00781 0.39979 0.9102 0.0
O9 O 0.952 0.37585 0.98871 0.0
O10 O 0.98835 0.39955 0.14638 0.0
O11 O 0.04459 0.41649 0.0693 0.0
C12 C 0.93542 0.4657 1.00764 0.0
C13 C 0.02759 0.40049 0.12744 0.0
C14 C 0.39973 0.02834 0.62743 0.0
C15 C 0.46495 0.93618 0.50764 0.0
O16 O 0.39879 0.98911 0.64638 0.0
Zn17 Zn 0.42876 0.97802 0.56856 0.0
O18 O 0.41574 0.04535 0.56929 0.0
Zn19 Zn 0.44734 0.02811 0.4856 0.0
O20 O 0.39904 0.00857 0.4102 0.0
O21 O 0.3751 0.95276 0.48871 0.0
O22 O 0.46615 0.97175 0.475 0.0
O23 O 0.44755 0.92692 0.56647 0.0
O24 O 0.49945 0.04072 0.57587 0.0
O25 O 0.51441 0.08596 0.48564 0.0
C26 C 0.36801 0.96605 0.4309 0.0
C27 C 0.5283 0.07853 0.54268 0.0
C28 C 0.46695 0.45661 0.95884 0.0
C29 C 0.5325 0.60288 0.10687 0.0
O30 O 0.4671 0.49615 0.94249 0.0
Zn31 Zn 0.50177 0.53247 1.02449 0.0
O32 O 0.48656 0.45407 1.01408 0.0
Zn33 Zn 0.52299 0.49626 0.1009 0.0
O34 O 0.4722 0.45406 0.16514 0.0
O35 O 0.44664 0.49028 0.09308 0.0
O36 O 0.53748 0.56771 0.13105 0.0
O37 O 0.51539 0.59875 0.04735 0.0
O38 O 0.57024 0.53683 1.00724 0.0
O39 O 0.58811 0.50115 0.08956 0.0
C40 C 0.43801 0.46157 0.14236 0.0
C41 C 0.59901 0.52332 1.03382 0.0
C42 C 0.03336 0.56379 0.42125 0.0
C43 C 0.9325 0.41121 0.53912 0.0
O44 O 0.05031 0.56234 0.47957 0.0
Zn45 Zn 0.0326 0.51413 0.56151 0.0
O46 O -0.00732 0.52775 0.4005 0.0
Zn47 Zn 0.98045 0.48597 0.47803 0.0
O48 O 0.96198 0.52034 0.5576 0.0
O49 O 0.02008 0.54794 0.63657 0.0
O50 O 0.92383 0.42039 0.47994 0.0
O51 O 0.97095 0.44248 0.57219 0.0
O52 O 0.0876 0.50026 0.56171 0.0
O53 O 0.03745 0.4674 0.47386 0.0
C54 C 0.97837 0.54103 0.61534 0.0
C55 C 0.0756 0.4744 0.50763 0.0
C56 C 0.54026 0.97912 0.11533 0.0
C57 C 0.47364 0.07635 1.00762 0.0
O58 O 0.54718 0.02084 0.13656 0.0
Zn59 Zn 0.51336 0.03336 0.06151 0.0
O60 O 0.51957 0.96274 0.05759 0.0
Zn61 Zn 0.48521 0.98121 0.97802 0.0
O62 O 0.52699 -0.00656 0.90049 0.0
O63 O 0.56158 0.05107 0.97956 0.0
O64 O 0.46664 0.03821 0.97385 0.0
O65 O 0.4995 0.08836 0.0617 0.0
O66 O 0.44171 0.97171 0.07218 0.0
O67 O 0.41963 0.92459 0.97993 0.0
C68 C 0.56302 0.03412 0.92124 0.0
C69 C 0.41044 0.93326 0.03911 0.0
C70 C 0.60212 0.53326 0.60687 0.0
C71 C 0.45585 0.46771 0.45884 0.0
O72 O 0.56695 0.53824 0.63105 0.0
Zn73 Zn 0.4955 0.52375 0.6009 0.0
O74 O 0.59799 0.51615 0.54735 0.0
Zn75 Zn 0.53171 0.50253 0.52449 0.0
O76 O 0.53607 0.571 0.50724 0.0
O77 O 0.5004 0.58888 0.58956 0.0
O78 O 0.49539 0.46786 0.44249 0.0
O79 O 0.45331 0.48733 0.51408 0.0
O80 O 0.45331 0.47296 0.66514 0.0
O81 O 0.48952 0.4474 0.59308 0.0
C82 C 0.52257 0.59978 0.53382 0.0
C83 C 0.46082 0.43877 0.64236 0.0
C84 C 0.356 0.45641 0.15133 0.0
C85 C 0.38779 0.4383 0.17019 0.0
C86 C 0.31007 0.43863 0.18027 0.0
C87 C 0.29468 0.40229 0.22881 0.0
C88 C 0.37045 0.39851 0.21394 0.0
C89 C 0.32372 0.37998 0.24212 0.0
C90 C 0.25628 0.3982 0.27577 0.0
C91 C 0.36983 0.40423 0.43872 0.0
C92 C 0.41157 0.44658 0.41646 0.0
C93 C 0.32277 0.393 0.41629 0.0
C94 C 0.31703 0.4244 0.37204 0.0
C95 C 0.40584 0.47728 0.3709 0.0
C96 C 0.35881 0.46663 0.34947 0.0
C97 C 0.26795 0.41086 0.34414 0.0
C98 C 0.08253 0.40923 0.44273 0.0
C99 C 0.10564 0.45373 0.48026 0.0
C100 C 0.11038 0.39316 0.40668 0.0
C101 C 0.16188 0.42232 0.40524 0.0
C102 C 0.15725 0.4805 0.48404 0.0
C103 C 0.18512 0.46502 0.4466 0.0
C104 C 0.19197 0.41052 0.359 0.0
C105 C 0.08515 0.43138 0.2251 0.0
C106 C 0.05983 0.39433 0.1761 0.0
C107 C 0.12373 0.43243 0.2629 0.0
C108 C 0.13624 0.39506 0.25465 0.0
C109 C 0.07257 0.35742 0.16674 0.0
C110 C 0.11007 0.35746 0.20626 0.0
C111 C 0.18003 0.39789 0.2897 0.0
H112 H 0.36754 0.48637 0.11661 0.0
H113 H 0.28856 0.45644 0.16898 0.0
H114 H 0.39342 0.38283 0.22795 0.0
H115 H 0.31214 0.35119 0.27873 0.0
H116 H 0.37351 0.3814 0.47637 0.0
H117 H 0.29092 0.36014 0.43375 0.0
H118 H 0.43743 0.51112 0.35534 0.0
H119 H 0.35495 0.49126 0.31517 0.0
H120 H 0.0427 0.3875 0.43971 0.0
H121 H 0.09151 0.35912 0.37749 0.0
H122 H 0.17597 0.51491 0.51248 0.0
H123 H 0.22485 0.48787 0.44734 0.0
H124 H 0.07717 0.46133 0.23118 0.0
H125 H 0.14484 0.46351 0.29669 0.0
H126 H 0.05445 0.32939 0.12774 0.0
H127 H 0.11968 0.32888 0.19758 0.0
N128 N 0.21292 0.3925 0.25102 0.0
N129 N 0.23563 0.41648 0.38322 0.0
C130 C 0.93696 0.32033 0.81993 0.0
C131 C 0.92736 0.32898 0.88619 0.0
C132 C 0.89826 0.28727 0.77657 0.0
C133 C 0.84898 0.26358 0.79793 0.0
C134 C 0.87861 0.30242 0.90838 0.0
C135 C 0.84028 0.27067 0.86509 0.0
C136 C 0.80526 0.23164 0.75315 0.0
C137 C 0.88586 0.37287 0.64067 0.0
C138 C 0.89696 0.36738 0.57418 0.0
C139 C 0.85436 0.33187 0.67711 0.0
C140 C 0.83525 0.28445 0.64871 0.0
C141 C 0.87605 0.32035 0.54428 0.0
C142 C 0.84547 0.27902 0.58157 0.0
C143 C 0.7993 0.24112 0.68523 0.0
C144 C 0.58029 0.12758 0.63983 0.0
C145 C 0.57729 0.11144 0.57296 0.0
C146 C 0.62512 0.14921 0.67554 0.0
C147 C 0.6676 0.15315 0.64609 0.0
C148 C 0.62025 0.11848 0.54169 0.0
C149 C 0.6651 0.13925 0.57801 0.0
C150 C 0.71552 0.17566 0.68374 0.0
C151 C 0.60832 0.04964 0.81188 0.0
C152 C 0.60492 0.06476 0.87754 0.0
C153 C 0.64649 0.0815 0.7702 0.0
C154 C 0.68115 0.12925 0.79321 0.0
C155 C 0.64092 0.11173 0.90086 0.0
C156 C 0.6783 0.14343 0.85934 0.0
C157 C 0.72146 0.16535 0.75118 0.0
H158 H 0.97406 0.33985 0.80116 0.0
H159 H 0.90687 0.28121 0.72613 0.0
H160 H 0.86933 0.30762 0.95888 0.0
H161 H 0.80318 0.25288 0.8841 0.0
H162 H 0.90109 0.40912 0.66419 0.0
H163 H 0.84469 0.33733 0.72726 0.0
H164 H 0.88426 0.31555 0.49299 0.0
H165 H 0.8297 0.24276 0.55802 0.0
H166 H 0.54749 0.12228 0.66508 0.0
H167 H 0.62627 0.16217 0.72651 0.0
H168 H 0.61864 0.10546 0.49058 0.0
H169 H 0.69761 0.14321 0.55342 0.0
H170 H 0.58127 0.01358 0.79251 0.0
H171 H 0.64861 0.06902 0.72006 0.0
H172 H 0.63973 0.1248 0.95103 0.0
H173 H 0.70455 0.17979 0.87884 0.0
N174 N 0.76595 0.19376 0.78237 0.0
N175 N 0.75505 0.21249 0.65359 0.0
C176 C 0.56879 0.65511 0.21184 0.0
C177 C 0.54122 0.64501 0.15134 0.0
C178 C 0.57277 0.69198 0.25688 0.0
C179 C 0.54792 0.71829 0.24312 0.0
C180 C 0.51819 0.67274 0.13662 0.0
C181 C 0.52124 0.70857 0.182 0.0
C182 C 0.55061 0.75809 0.28806 0.0
C183 C 0.50086 0.62861 0.43015 0.0
C184 C 0.52604 0.64022 0.49251 0.0
C185 C 0.50741 0.66574 0.38586 0.0
C186 C 0.54084 0.71527 0.40198 0.0
C187 C 0.55813 0.68963 0.50997 0.0
C188 C 0.56545 0.72681 0.46506 0.0
C189 C 0.54559 0.75596 0.35892 0.0
C190 C 0.46531 0.89014 0.40669 0.0
C191 C 0.48159 0.90549 0.47309 0.0
C192 C 0.48476 0.86617 0.36901 0.0
C193 C 0.52246 0.85896 0.39607 0.0
C194 C 0.51737 0.89622 0.50177 0.0
C195 C 0.53779 0.87313 0.46332 0.0
C196 C 0.5405 0.83027 0.35798 0.0
C197 C 0.56858 0.95879 0.22477 0.0
C198 C 0.54853 0.94534 0.15918 0.0
C199 C 0.5703 0.92375 0.26708 0.0
C200 C 0.55072 0.87428 0.24519 0.0
C201 C 0.53141 0.89654 0.13674 0.0
C202 C 0.53227 0.86171 0.17897 0.0
C203 C 0.54961 0.83474 0.28832 0.0
H204 H 0.58715 0.63439 0.22449 0.0
H205 H 0.59509 0.69973 0.30217 0.0
H206 H 0.49631 0.66567 0.09097 0.0
H207 H 0.50188 0.72836 0.16943 0.0
H208 H 0.47587 0.59059 0.41579 0.0
H209 H 0.48583 0.65563 0.33959 0.0
H210 H 0.57841 0.69937 0.55735 0.0
H211 H 0.5905 0.76482 0.47963 0.0
H212 H 0.43737 0.89673 0.3839 0.0
H213 H 0.46986 0.8529 0.31895 0.0
H214 H 0.53064 0.90826 0.55278 0.0
H215 H 0.56569 0.86647 0.48598 0.0
H216 H 0.58221 -0.00394 0.2437 0.0
H217 H 0.58647 0.93531 0.31693 0.0
H218 H 0.51558 0.8844 0.08678 0.0
H219 H 0.51721 0.82428 0.1598 0.0
N220 N 0.55364 0.79802 0.25692 0.0
N221 N 0.54051 0.79213 0.39022 0.0
C222 C 0.95803 0.56934 0.72478 0.0
C223 C 0.94458 0.54929 0.65918 0.0
C224 C 0.92299 0.57106 0.76709 0.0
C225 C 0.87351 0.55147 0.7452 0.0
C226 C 0.89578 0.53217 0.63674 0.0
C227 C 0.86095 0.53303 0.67897 0.0
C228 C 0.83398 0.55036 0.78833 0.0
C229 C 0.88939 0.46607 0.90669 0.0
C230 C 0.90473 0.48234 0.97309 0.0
C231 C 0.86541 0.48551 0.86901 0.0
C232 C 0.8582 0.5232 0.89607 0.0
C233 C 0.89546 0.51812 1.00177 0.0
C234 C 0.87236 0.53853 0.96333 0.0
C235 C 0.82951 0.54125 0.85798 0.0
C236 C 0.62785 0.50161 0.93015 0.0
C237 C 0.63946 0.5268 0.99251 0.0
C238 C 0.66497 0.50816 0.88586 0.0
C239 C 0.7145 0.5416 0.90198 0.0
C240 C 0.68887 0.55888 1.00997 0.0
C241 C 0.72604 0.5662 0.96506 0.0
C242 C 0.7552 0.54634 0.85892 0.0
C243 C 0.65435 0.56954 0.71184 0.0
C244 C 0.64425 0.54198 0.65134 0.0
C245 C 0.69122 0.57352 0.75688 0.0
C246 C 0.71753 0.54867 0.74312 0.0
C247 C 0.67198 0.51894 0.63662 0.0
C248 C 0.70781 0.52199 0.68199 0.0
C249 C 0.75733 0.55136 0.78806 0.0
H250 H -0.0047 0.58298 0.74371 0.0
H251 H 0.93454 0.58723 0.81693 0.0
H252 H 0.88364 0.51634 0.58678 0.0
H253 H 0.82352 0.51796 0.6598 0.0
H254 H 0.89598 0.43813 0.88389 0.0
H255 H 0.85214 0.47061 0.81894 0.0
H256 H 0.90749 0.53138 0.05279 0.0
H257 H 0.8657 0.56643 0.98599 0.0
H258 H 0.58982 0.47662 0.91579 0.0
H259 H 0.65487 0.48658 0.83958 0.0
H260 H 0.6986 0.57916 0.05735 0.0
H261 H 0.76405 0.59125 0.97963 0.0
H262 H 0.63363 0.5879 0.72449 0.0
H263 H 0.69897 0.59584 0.80217 0.0
H264 H 0.66492 0.49707 0.59096 0.0
H265 H 0.7276 0.50263 0.66942 0.0
N266 N 0.79726 0.55439 0.75692 0.0
N267 N 0.79137 0.54125 0.89022 0.0
C268 C 0.12683 0.58104 0.13983 0.0
C269 C 0.11068 0.57805 0.07296 0.0
C270 C 0.14845 0.62588 0.17554 0.0
C271 C 0.1524 0.66836 0.14609 0.0
C272 C 0.11772 0.62101 0.04169 0.0
C273 C 0.13849 0.66585 0.07801 0.0
C274 C 0.1749 0.71627 0.18374 0.0
C275 C 0.04889 0.60908 0.31188 0.0
C276 C 0.064 0.60568 0.37754 0.0
C277 C 0.08075 0.64725 0.2702 0.0
C278 C 0.12849 0.68191 0.29321 0.0
C279 C 0.11098 0.64167 0.40086 0.0
C280 C 0.14267 0.67905 0.35934 0.0
C281 C 0.16459 0.72222 0.25118 0.0
C282 C 0.31958 0.93772 0.31993 0.0
C283 C 0.32823 0.92812 0.38618 0.0
C284 C 0.28652 0.89902 0.27657 0.0
C285 C 0.26283 0.84974 0.29793 0.0
C286 C 0.30166 0.87937 0.40837 0.0
C287 C 0.26992 0.84103 0.36509 0.0
C288 C 0.23089 0.80602 0.25315 0.0
C289 C 0.37211 0.88661 0.14066 0.0
C290 C 0.36662 0.89771 0.07417 0.0
C291 C 0.33111 0.85511 0.1771 0.0
C292 C 0.28369 0.83601 0.14871 0.0
C293 C 0.31959 0.87681 0.04427 0.0
C294 C 0.27825 0.84623 0.08156 0.0
C295 C 0.24036 0.80006 0.18523 0.0
H296 H 0.12152 0.54825 0.16508 0.0
H297 H 0.16141 0.62703 0.22651 0.0
H298 H 0.1047 0.61939 0.99058 0.0
H299 H 0.14245 0.69836 0.05342 0.0
H300 H 0.01282 0.58203 0.29252 0.0
H301 H 0.06826 0.64937 0.22006 0.0
H302 H 0.12405 0.64049 0.45103 0.0
H303 H 0.17904 0.70531 0.37884 0.0
H304 H 0.3391 0.97482 0.30116 0.0
H305 H 0.28046 0.90762 0.22613 0.0
H306 H 0.30687 0.87009 0.45888 0.0
H307 H 0.25213 0.80394 0.3841 0.0
H308 H 0.40836 0.90185 0.16418 0.0
H309 H 0.33658 0.84545 0.22725 0.0
H310 H 0.31479 0.88502 0.99299 0.0
H311 H 0.242 0.83046 0.05802 0.0
N312 N 0.21173 0.7558 0.15359 0.0
N313 N 0.19301 0.76671 0.28237 0.0
C314 C 0.40847 0.08328 0.94272 0.0
C315 C 0.45297 0.1064 0.98025 0.0
C316 C 0.39239 0.11114 0.90668 0.0
C317 C 0.42156 0.16263 0.90524 0.0
C318 C 0.47974 0.15801 0.98404 0.0
C319 C 0.46426 0.18587 0.9466 0.0
C320 C 0.40975 0.19273 0.859 0.0
C321 C 0.43063 0.08591 0.7251 0.0
C322 C 0.39357 0.06059 0.67609 0.0
C323 C 0.43167 0.12449 0.76289 0.0
C324 C 0.3943 0.137 0.75464 0.0
C325 C 0.35666 0.07332 0.66674 0.0
C326 C 0.3567 0.11082 0.70625 0.0
C327 C 0.39713 0.18078 0.7897 0.0
C328 C 0.45565 0.35676 0.65133 0.0
C329 C 0.43754 0.38855 0.67019 0.0
C330 C 0.43786 0.31083 0.68026 0.0
C331 C 0.40153 0.29544 0.72881 0.0
C332 C 0.39775 0.37121 0.71394 0.0
C333 C 0.37922 0.32448 0.74212 0.0
C334 C 0.39743 0.25704 0.77577 0.0
C335 C 0.40347 0.37059 0.93871 0.0
C336 C 0.44581 0.41233 0.91645 0.0
C337 C 0.39223 0.32352 0.91628 0.0
C338 C 0.42363 0.31779 0.87204 0.0
C339 C 0.47652 0.40659 0.8709 0.0
C340 C 0.46587 0.35957 0.84947 0.0
C341 C 0.4101 0.26871 0.84414 0.0
H342 H 0.38674 0.04345 0.9397 0.0
H343 H 0.35836 0.09227 0.87749 0.0
H344 H 0.51414 0.17673 1.01248 0.0
H345 H 0.48711 0.22561 0.94734 0.0
H346 H 0.46057 0.07793 0.73118 0.0
H347 H 0.46275 0.1456 0.79669 0.0
H348 H 0.32864 0.05521 0.62774 0.0
H349 H 0.32812 0.12044 0.69758 0.0
H350 H 0.48562 0.3683 0.61661 0.0
H351 H 0.45568 0.28932 0.66898 0.0
H352 H 0.38208 0.39418 0.72795 0.0
H353 H 0.35043 0.31289 0.77873 0.0
H354 H 0.38063 0.37427 0.97637 0.0
H355 H 0.35937 0.29167 0.93374 0.0
H356 H 0.51036 0.43819 0.85534 0.0
H357 H 0.4905 0.35571 0.81517 0.0
N358 N 0.41572 0.23639 0.88322 0.0
N359 N 0.39174 0.21368 0.75101 0.0
loop_
_geom_bond_atom_site_label_1
_geom_bond_atom_site_label_2
_geom_bond_distance
_geom_bond_site_symmetry_2
_ccdc_geom_bond_type
C0 O2 1.247 . S
C0 O4 1.258 . S
C1 O8 1.247 . S
C1 O9 1.258 . S
O2 C0 1.247 . S
O2 Zn3 2.028 1_455 S
Zn3 O2 2.028 1_655 S
Zn3 O7 2.035 1_554 S
Zn3 O9 2.035 1_554 S
Zn3 O10 2.028 1_655 S
O4 C0 1.258 . S
O4 Zn5 2.035 1_554 S
Zn5 O4 2.035 1_556 S
Zn5 O6 2.028 1_455 S
Zn5 O8 2.028 1_455 S
Zn5 O11 2.035 1_556 S
O6 Zn5 2.028 1_655 S
O6 C12 1.247 . S
O7 Zn3 2.035 1_556 S
O7 C12 1.258 . S
O8 C1 1.247 . S
O8 Zn5 2.028 1_655 S
O9 C1 1.258 . S
O9 Zn3 2.035 1_556 S
O10 Zn3 2.028 1_455 S
O10 C13 1.247 . S
O11 Zn5 2.035 1_554 S
O11 C13 1.258 . S
C12 O6 1.247 . S
C12 O7 1.258 . S
C13 O10 1.247 . S
C13 O11 1.258 . S
C14 O16 1.247 . S
C14 O18 1.258 . S
C15 O22 1.247 . S
C15 O23 1.258 . S
O16 C14 1.247 . S
O16 Zn17 2.028 1_545 S
Zn17 O16 2.028 1_565 S
Zn17 O21 2.035 . S
Zn17 O23 2.035 . S
Zn17 O24 2.028 1_565 S
O18 C14 1.258 . S
O18 Zn19 2.035 . S
Zn19 O18 2.035 . S
Zn19 O20 2.028 1_545 S
Zn19 O22 2.028 1_545 S
Zn19 O25 2.035 . S
O20 Zn19 2.028 1_565 S
O20 C26 1.247 . S
O21 Zn17 2.035 . S
O21 C26 1.258 . S
O22 C15 1.247 . S
O22 Zn19 2.028 1_565 S
O23 C15 1.258 . S
O23 Zn17 2.035 . S
O24 Zn17 2.028 1_545 S
O24 C27 1.247 . S
O25 Zn19 2.035 . S
O25 C27 1.258 . S
C26 O20 1.247 . S
C26 O21 1.258 . S
C27 O24 1.247 . S
C27 O25 1.258 . S
C28 O30 1.247 . S
C28 O32 1.258 . S
C29 O36 1.247 . S
C29 O37 1.258 . S
O30 C28 1.247 . S
O30 Zn31 2.028 . S
Zn31 O30 2.028 . S
Zn31 O35 2.035 1_556 S
Zn31 O37 2.035 1_556 S
Zn31 O38 2.028 . S
O32 C28 1.258 . S
O32 Zn33 2.035 1_556 S
Zn33 O32 2.035 1_554 S
Zn33 O34 2.028 . S
Zn33 O36 2.028 . S
Zn33 O39 2.035 1_554 S
O34 Zn33 2.028 . S
O34 C40 1.247 . S
O35 Zn31 2.035 1_554 S
O35 C40 1.258 . S
O36 C29 1.247 . S
O36 Zn33 2.028 . S
O37 C29 1.258 . S
O37 Zn31 2.035 1_554 S
O38 Zn31 2.028 . S
O38 C41 1.247 . S
O39 Zn33 2.035 1_556 S
O39 C41 1.258 . S
C40 O34 1.247 . S
C40 O35 1.258 . S
C41 O38 1.247 . S
C41 O39 1.258 . S
C42 O44 1.247 . S
C42 O46 1.258 . S
C43 O50 1.247 . S
C43 O51 1.258 . S
O44 C42 1.247 . S
O44 Zn45 2.028 . S
Zn45 O44 2.028 . S
Zn45 O49 2.035 1_455 S
Zn45 O51 2.035 1_455 S
Zn45 O52 2.028 . S
O46 C42 1.258 . S
O46 Zn47 2.035 1_455 S
Zn47 O46 2.035 1_655 S
Zn47 O48 2.028 . S
Zn47 O50 2.028 . S
Zn47 O53 2.035 1_655 S
O48 Zn47 2.028 . S
O48 C54 1.247 . S
O49 Zn45 2.035 1_655 S
O49 C54 1.258 . S
O50 C43 1.247 . S
O50 Zn47 2.028 . S
O51 C43 1.258 . S
O51 Zn45 2.035 1_655 S
O52 Zn45 2.028 . S
O52 C55 1.247 . S
O53 Zn47 2.035 1_455 S
O53 C55 1.258 . S
C54 O48 1.247 . S
C54 O49 1.258 . S
C55 O52 1.247 . S
C55 O53 1.258 . S
C56 O58 1.247 . S
C56 O60 1.258 . S
C57 O64 1.247 . S
C57 O65 1.258 . S
O58 C56 1.247 . S
O58 Zn59 2.028 1_565 S
Zn59 O58 2.028 1_545 S
Zn59 O63 2.035 1_554 S
Zn59 O65 2.035 1_554 S
Zn59 O66 2.028 1_545 S
O60 C56 1.258 . S
O60 Zn61 2.035 1_554 S
Zn61 O60 2.035 1_556 S
Zn61 O62 2.028 1_565 S
Zn61 O64 2.028 1_565 S
Zn61 O67 2.035 1_556 S
O62 Zn61 2.028 1_545 S
O62 C68 1.247 . S
O63 Zn59 2.035 1_556 S
O63 C68 1.258 . S
O64 C57 1.247 . S
O64 Zn61 2.028 1_545 S
O65 C57 1.258 . S
O65 Zn59 2.035 1_556 S
O66 Zn59 2.028 1_565 S
O66 C69 1.247 . S
O67 Zn61 2.035 1_554 S
O67 C69 1.258 . S
C68 O62 1.247 . S
C68 O63 1.258 . S
C69 O66 1.247 . S
C69 O67 1.258 . S
C70 O72 1.247 . S
C70 O74 1.258 . S
C71 O78 1.247 . S
C71 O79 1.258 . S
O72 C70 1.247 . S
O72 Zn73 2.028 . S
Zn73 O72 2.028 . S
Zn73 O77 2.035 . S
Zn73 O79 2.035 . S
Zn73 O80 2.028 . S
O74 C70 1.258 . S
O74 Zn75 2.035 . S
Zn75 O74 2.035 . S
Zn75 O76 2.028 . S
Zn75 O78 2.028 . S
Zn75 O81 2.035 . S
O76 Zn75 2.028 . S
O76 C82 1.247 . S
O77 Zn73 2.035 . S
O77 C82 1.258 . S
O78 C71 1.247 . S
O78 Zn75 2.028 . S
O79 C71 1.258 . S
O79 Zn73 2.035 . S
O80 Zn73 2.028 . S
O80 C83 1.247 . S
O81 Zn75 2.035 . S
O81 C83 1.258 . S
C82 O76 1.247 . S
C82 O77 1.258 . S
C83 O80 1.247 . S
C83 O81 1.258 . S
C84 C85 1.384 . S
C84 C86 1.384 . S
C84 H112 0.931 . S
C85 C84 1.384 . S
C85 C88 1.382 . S
C86 C84 1.384 . S
C86 C87 1.381 . S
C86 H113 0.930 . S
C87 C86 1.381 . S
C87 C89 1.381 . S
C87 C90 1.487 . S
C88 C85 1.382 . S
C88 C89 1.387 . S
C88 H114 0.930 . S
C89 C87 1.381 . S
C89 C88 1.387 . S
C89 H115 0.931 . S
C90 C87 1.487 . S
C90 C97 1.399 . S
C90 N128 1.343 . S
C91 C92 1.384 . S
C91 C93 1.384 . S
C91 H116 0.931 . S
C92 C91 1.384 . S
C92 C95 1.382 . S
C93 C91 1.384 . S
C93 C94 1.381 . S
C93 H117 0.930 . S
C94 C93 1.381 . S
C94 C96 1.381 . S
C94 C97 1.487 . S
C95 C92 1.382 . S
C95 C96 1.387 . S
C95 H118 0.930 . S
C96 C94 1.381 . S
C96 C95 1.387 . S
C96 H119 0.931 . S
C97 C90 1.399 . S
C97 C94 1.487 . S
C97 N129 1.343 . S
C98 C99 1.384 . S
C98 C100 1.384 . S
C98 H120 0.931 . S
C99 C98 1.384 . S
C99 C102 1.382 . S
C100 C98 1.384 . S
C100 C101 1.381 . S
C100 H121 0.930 . S
C101 C100 1.381 . S
C101 C103 1.381 . S
C101 C104 1.487 . S
C102 C99 1.382 . S
C102 C103 1.387 . S
C102 H122 0.930 . S
C103 C101 1.381 . S
C103 C102 1.387 . S
C103 H123 0.931 . S
C104 C101 1.487 . S
C104 C111 1.399 . S
C104 N129 1.343 . S
C105 C106 1.384 . S
C105 C107 1.384 . S
C105 H124 0.931 . S
C106 C105 1.384 . S
C106 C109 1.382 . S
C107 C105 1.384 . S
C107 C108 1.381 . S
C107 H125 0.930 . S
C108 C107 1.381 . S
C108 C110 1.381 . S
C108 C111 1.487 . S
C109 C106 1.382 . S
C109 C110 1.387 . S
C109 H126 0.930 . S
C110 C108 1.381 . S
C110 C109 1.387 . S
C110 H127 0.931 . S
C111 C104 1.399 . S
C111 C108 1.487 . S
C111 N128 1.343 . S
H112 C84 0.931 . S
H113 C86 0.930 . S
H114 C88 0.930 . S
H115 C89 0.931 . S
H116 C91 0.931 . S
H117 C93 0.930 . S
H118 C95 0.930 . S
H119 C96 0.931 . S
H120 C98 0.931 . S
H121 C100 0.930 . S
H122 C102 0.930 . S
H123 C103 0.931 . S
H124 C105 0.931 . S
H125 C107 0.930 . S
H126 C109 0.930 . S
H127 C110 0.931 . S
N128 C90 1.343 . S
N128 C111 1.343 . S
N129 C97 1.343 . S
N129 C104 1.343 . S
C130 C131 1.384 . S
C130 C132 1.384 . S
C130 H158 0.931 . S
C131 C130 1.384 . S
C131 C134 1.382 . S
C132 C130 1.384 . S
C132 C133 1.381 . S
C132 H159 0.930 . S
C133 C132 1.381 . S
C133 C135 1.381 . S
C133 C136 1.487 . S
C134 C131 1.382 . S
C134 C135 1.387 . S
C134 H160 0.930 . S
C135 C133 1.381 . S
C135 C134 1.387 . S
C135 H161 0.931 . S
C136 C133 1.487 . S
C136 C143 1.399 . S
C136 N174 1.343 . S
C137 C138 1.384 . S
C137 C139 1.384 . S
C137 H162 0.931 . S
C138 C137 1.384 . S
C138 C141 1.382 . S
C139 C137 1.384 . S
C139 C140 1.381 . S
C139 H163 0.930 . S
C140 C139 1.381 . S
C140 C142 1.381 . S
C140 C143 1.487 . S
C141 C138 1.382 . S
C141 C142 1.387 . S
C141 H164 0.930 . S
C142 C140 1.381 . S
C142 C141 1.387 . S
C142 H165 0.931 . S
C143 C136 1.399 . S
C143 C140 1.487 . S
C143 N175 1.343 . S
C144 C145 1.384 . S
C144 C146 1.384 . S
C144 H166 0.931 . S
C145 C144 1.384 . S
C145 C148 1.382 . S
C146 C144 1.384 . S
C146 C147 1.381 . S
C146 H167 0.930 . S
C147 C146 1.381 . S
C147 C149 1.381 . S
C147 C150 1.487 . S
C148 C145 1.382 . S
C148 C149 1.387 . S
C148 H168 0.930 . S
C149 C147 1.381 . S
C149 C148 1.387 . S
C149 H169 0.931 . S
C150 C147 1.487 . S
C150 C157 1.399 . S
C150 N175 1.343 . S
C151 C152 1.384 . S
C151 C153 1.384 . S
C151 H170 0.931 . S
C152 C151 1.384 . S
C152 C155 1.382 . S
C153 C151 1.384 . S
C153 C154 1.381 . S
C153 H171 0.930 . S
C154 C153 1.381 . S
C154 C156 1.381 . S
C154 C157 1.487 . S
C155 C152 1.382 . S
C155 C156 1.387 . S
C155 H172 0.930 . S
C156 C154 1.381 . S
C156 C155 1.387 . S
C156 H173 0.931 . S
C157 C150 1.399 . S
C157 C154 1.487 . S
C157 N174 1.343 . S
H158 C130 0.931 . S
H159 C132 0.930 . S
H160 C134 0.930 . S
H161 C135 0.931 . S
H162 C137 0.931 . S
H163 C139 0.930 . S
H164 C141 0.930 . S
H165 C142 0.931 . S
H166 C144 0.931 . S
H167 C146 0.930 . S
H168 C148 0.930 . S
H169 C149 0.931 . S
H170 C151 0.931 . S
H171 C153 0.930 . S
H172 C155 0.930 . S
H173 C156 0.931 . S
N174 C136 1.343 . S
N174 C157 1.343 . S
N175 C143 1.343 . S
N175 C150 1.343 . S
C176 C177 1.384 . S
C176 C178 1.384 . S
C176 H204 0.931 . S
C177 C176 1.384 . S
C177 C180 1.382 . S
C178 C176 1.384 . S
C178 C179 1.381 . S
C178 H205 0.930 . S
C179 C178 1.381 . S
C179 C181 1.381 . S
C179 C182 1.487 . S
C180 C177 1.382 . S
C180 C181 1.387 . S
C180 H206 0.930 . S
C181 C179 1.381 . S
C181 C180 1.387 . S
C181 H207 0.931 . S
C182 C179 1.487 . S
C182 C189 1.399 . S
C182 N220 1.343 . S
C183 C184 1.384 . S
C183 C185 1.384 . S
C183 H208 0.931 . S
C184 C183 1.384 . S
C184 C187 1.382 . S
C185 C183 1.384 . S
C185 C186 1.381 . S
C185 H209 0.930 . S
C186 C185 1.381 . S
C186 C188 1.381 . S
C186 C189 1.487 . S
C187 C184 1.382 . S
C187 C188 1.387 . S
C187 H210 0.930 . S
C188 C186 1.381 . S
C188 C187 1.387 . S
C188 H211 0.931 . S
C189 C182 1.399 . S
C189 C186 1.487 . S
C189 N221 1.343 . S
C190 C191 1.384 . S
C190 C192 1.384 . S
C190 H212 0.931 . S
C191 C190 1.384 . S
C191 C194 1.382 . S
C192 C190 1.384 . S
C192 C193 1.381 . S
C192 H213 0.930 . S
C193 C192 1.381 . S
C193 C195 1.381 . S
C193 C196 1.487 . S
C194 C191 1.382 . S
C194 C195 1.387 . S
C194 H214 0.930 . S
C195 C193 1.381 . S
C195 C194 1.387 . S
C195 H215 0.931 . S
C196 C193 1.487 . S
C196 C203 1.399 . S
C196 N221 1.343 . S
C197 C198 1.384 . S
C197 C199 1.384 . S
C197 H216 0.931 . S
C198 C197 1.384 . S
C198 C201 1.382 . S
C199 C197 1.384 . S
C199 C200 1.381 . S
C199 H217 0.930 . S
C200 C199 1.381 . S
C200 C202 1.381 . S
C200 C203 1.487 . S
C201 C198 1.382 . S
C201 C202 1.387 . S
C201 H218 0.930 . S
C202 C200 1.381 . S
C202 C201 1.387 . S
C202 H219 0.931 . S
C203 C196 1.399 . S
C203 C200 1.487 . S
C203 N220 1.343 . S
H204 C176 0.931 . S
H205 C178 0.930 . S
H206 C180 0.930 . S
H207 C181 0.931 . S
H208 C183 0.931 . S
H209 C185 0.930 . S
H210 C187 0.930 . S
H211 C188 0.931 . S
H212 C190 0.931 . S
H213 C192 0.930 . S
H214 C194 0.930 . S
H215 C195 0.931 . S
H216 C197 0.931 . S
H217 C199 0.930 . S
H218 C201 0.930 . S
H219 C202 0.931 . S
N220 C182 1.343 . S
N220 C203 1.343 . S
N221 C189 1.343 . S
N221 C196 1.343 . S
C222 C223 1.384 . S
C222 C224 1.384 . S
C222 H250 0.931 . S
C223 C222 1.384 . S
C223 C226 1.382 . S
C224 C222 1.384 . S
C224 C225 1.381 . S
C224 H251 0.930 . S
C225 C224 1.381 . S
C225 C227 1.381 . S
C225 C228 1.487 . S
C226 C223 1.382 . S
C226 C227 1.387 . S
C226 H252 0.930 . S
C227 C225 1.381 . S
C227 C226 1.387 . S
C227 H253 0.931 . S
C228 C225 1.487 . S
C228 C235 1.399 . S
C228 N266 1.343 . S
C229 C230 1.384 . S
C229 C231 1.384 . S
C229 H254 0.931 . S
C230 C229 1.384 . S
C230 C233 1.382 . S
C231 C229 1.384 . S
C231 C232 1.381 . S
C231 H255 0.930 . S
C232 C231 1.381 . S
C232 C234 1.381 . S
C232 C235 1.487 . S
C233 C230 1.382 . S
C233 C234 1.387 . S
C233 H256 0.930 . S
C234 C232 1.381 . S
C234 C233 1.387 . S
C234 H257 0.931 . S
C235 C228 1.399 . S
C235 C232 1.487 . S
C235 N267 1.343 . S
C236 C237 1.384 . S
C236 C238 1.384 . S
C236 H258 0.931 . S
C237 C236 1.384 . S
C237 C240 1.382 . S
C238 C236 1.384 . S
C238 C239 1.381 . S
C238 H259 0.930 . S
C239 C238 1.381 . S
C239 C241 1.381 . S
C239 C242 1.487 . S
C240 C237 1.382 . S
C240 C241 1.387 . S
C240 H260 0.930 . S
C241 C239 1.381 . S
C241 C240 1.387 . S
C241 H261 0.931 . S
C242 C239 1.487 . S
C242 C249 1.399 . S
C242 N267 1.343 . S
C243 C244 1.384 . S
C243 C245 1.384 . S
C243 H262 0.931 . S
C244 C243 1.384 . S
C244 C247 1.382 . S
C245 C243 1.384 . S
C245 C246 1.381 . S
C245 H263 0.930 . S
C246 C245 1.381 . S
C246 C248 1.381 . S
C246 C249 1.487 . S
C247 C244 1.382 . S
C247 C248 1.387 . S
C247 H264 0.930 . S
C248 C246 1.381 . S
C248 C247 1.387 . S
C248 H265 0.931 . S
C249 C242 1.399 . S
C249 C246 1.487 . S
C249 N266 1.343 . S
H250 C222 0.931 . S
H251 C224 0.930 . S
H252 C226 0.930 . S
H253 C227 0.931 . S
H254 C229 0.931 . S
H255 C231 0.930 . S
H256 C233 0.930 . S
H257 C234 0.931 . S
H258 C236 0.931 . S
H259 C238 0.930 . S
H260 C240 0.930 . S
H261 C241 0.931 . S
H262 C243 0.931 . S
H263 C245 0.930 . S
H264 C247 0.930 . S
H265 C248 0.931 . S
N266 C228 1.343 . S
N266 C249 1.343 . S
N267 C235 1.343 . S
N267 C242 1.343 . S
C268 C269 1.384 . S
C268 C270 1.384 . S
C268 H296 0.931 . S
C269 C268 1.384 . S
C269 C272 1.382 . S
C270 C268 1.384 . S
C270 C271 1.381 . S
C270 H297 0.930 . S
C271 C270 1.381 . S
C271 C273 1.381 . S
C271 C274 1.487 . S
C272 C269 1.382 . S
C272 C273 1.387 . S
C272 H298 0.930 . S
C273 C271 1.381 . S
C273 C272 1.387 . S
C273 H299 0.931 . S
C274 C271 1.487 . S
C274 C281 1.399 . S
C274 N312 1.343 . S
C275 C276 1.384 . S
C275 C277 1.384 . S
C275 H300 0.931 . S
C276 C275 1.384 . S
C276 C279 1.382 . S
C277 C275 1.384 . S
C277 C278 1.381 . S
C277 H301 0.930 . S
C278 C277 1.381 . S
C278 C280 1.381 . S
C278 C281 1.487 . S
C279 C276 1.382 . S
C279 C280 1.387 . S
C279 H302 0.930 . S
C280 C278 1.381 . S
C280 C279 1.387 . S
C280 H303 0.931 . S
C281 C274 1.399 . S
C281 C278 1.487 . S
C281 N313 1.343 . S
C282 C283 1.384 . S
C282 C284 1.384 . S
C282 H304 0.931 . S
C283 C282 1.384 . S
C283 C286 1.382 . S
C284 C282 1.384 . S
C284 C285 1.381 . S
C284 H305 0.930 . S
C285 C284 1.381 . S
C285 C287 1.381 . S
C285 C288 1.487 . S
C286 C283 1.382 . S
C286 C287 1.387 . S
C286 H306 0.930 . S
C287 C285 1.381 . S
C287 C286 1.387 . S
C287 H307 0.931 . S
C288 C285 1.487 . S
C288 C295 1.399 . S
C288 N313 1.343 . S
C289 C290 1.384 . S
C289 C291 1.384 . S
C289 H308 0.931 . S
C290 C289 1.384 . S
C290 C293 1.382 . S
C291 C289 1.384 . S
C291 C292 1.381 . S
C291 H309 0.930 . S
C292 C291 1.381 . S
C292 C294 1.381 . S
C292 C295 1.487 . S
C293 C290 1.382 . S
C293 C294 1.387 . S
C293 H310 0.930 . S
C294 C292 1.381 . S
C294 C293 1.387 . S
C294 H311 0.931 . S
C295 C288 1.399 . S
C295 C292 1.487 . S
C295 N312 1.343 . S
H296 C268 0.931 . S
H297 C270 0.930 . S
H298 C272 0.930 . S
H299 C273 0.931 . S
H300 C275 0.931 . S
H301 C277 0.930 . S
H302 C279 0.930 . S
H303 C280 0.931 . S
H304 C282 0.931 . S
H305 C284 0.930 . S
H306 C286 0.930 . S
H307 C287 0.931 . S
H308 C289 0.931 . S
H309 C291 0.930 . S
H310 C293 0.930 . S
H311 C294 0.931 . S
N312 C274 1.343 . S
N312 C295 1.343 . S
N313 C281 1.343 . S
N313 C288 1.343 . S
C314 C315 1.384 . S
C314 C316 1.384 . S
C314 H342 0.931 . S
C315 C314 1.384 . S
C315 C318 1.382 . S
C316 C314 1.384 . S
C316 C317 1.381 . S
C316 H343 0.930 . S
C317 C316 1.381 . S
C317 C319 1.381 . S
C317 C320 1.487 . S
C318 C315 1.382 . S
C318 C319 1.387 . S
C318 H344 0.930 . S
C319 C317 1.381 . S
C319 C318 1.387 . S
C319 H345 0.931 . S
C320 C317 1.487 . S
C320 C327 1.399 . S
C320 N358 1.343 . S
C321 C322 1.384 . S
C321 C323 1.384 . S
C321 H346 0.931 . S
C322 C321 1.384 . S
C322 C325 1.382 . S
C323 C321 1.384 . S
C323 C324 1.381 . S
C323 H347 0.930 . S
C324 C323 1.381 . S
C324 C326 1.381 . S
C324 C327 1.487 . S
C325 C322 1.382 . S
C325 C326 1.387 . S
C325 H348 0.930 . S
C326 C324 1.381 . S
C326 C325 1.387 . S
C326 H349 0.931 . S
C327 C320 1.399 . S
C327 C324 1.487 . S
C327 N359 1.343 . S
C328 C329 1.384 . S
C328 C330 1.384 . S
C328 H350 0.931 . S
C329 C328 1.384 . S
C329 C332 1.382 . S
C330 C328 1.384 . S
C330 C331 1.381 . S
C330 H351 0.930 . S
C331 C330 1.381 . S
C331 C333 1.381 . S
C331 C334 1.487 . S
C332 C329 1.382 . S
C332 C333 1.387 . S
C332 H352 0.930 . S
C333 C331 1.381 . S
C333 C332 1.387 . S
C333 H353 0.931 . S
C334 C331 1.487 . S
C334 C341 1.399 . S
C334 N359 1.343 . S
C335 C336 1.384 . S
C335 C337 1.384 . S
C335 H354 0.931 . S
C336 C335 1.384 . S
C336 C339 1.382 . S
C337 C335 1.384 . S
C337 C338 1.381 . S
C337 H355 0.930 . S
C338 C337 1.381 . S
C338 C340 1.381 . S
C338 C341 1.487 . S
C339 C336 1.382 . S
C339 C340 1.387 . S
C339 H356 0.930 . S
C340 C338 1.381 . S
C340 C339 1.387 . S
C340 H357 0.931 . S
C341 C334 1.399 . S
C341 C338 1.487 . S
C341 N358 1.343 . S
H342 C314 0.931 . S
H343 C316 0.930 . S
H344 C318 0.930 . S
H345 C319 0.931 . S
H346 C321 0.931 . S
H347 C323 0.930 . S
H348 C325 0.930 . S
H349 C326 0.931 . S
H350 C328 0.931 . S
H351 C330 0.930 . S
H352 C332 0.930 . S
H353 C333 0.931 . S
H354 C335 0.931 . S
H355 C337 0.930 . S
H356 C339 0.930 . S
H357 C340 0.931 . S
N358 C320 1.343 . S
N358 C341 1.343 . S
N359 C327 1.343 . S
N359 C334 1.343 . S
C13 C106 2.314 . S
C27 C145 2.314 . S
C177 C29 2.256 . S
C223 C54 2.258 . S
C290 C69 2.314 . S
C329 C83 2.314 . S
C15 C191 2.314 . S
C41 C237 2.314 . S
C276 C42 2.258 . S
C315 C57 2.255 . S
C71 C92 2.256 . S
C131 C1 2.256 . S
C230 C12 2.314 . S
C26 C283 2.256 . S
C336 C28 2.256 . S
C55 C99 2.258 . S
C68 C152 2.256 . S
C82 C184 2.314 . S
C14 C322 2.314 . S
C85 C40 2.314 . S
C43 C138 2.316 . S
C56 C198 2.256 . S
C70 C244 2.256 . S
C0 C269 2.314 . S
