# Generated by pormake.
# Topology pyr, (3,6)-cn, num edge types: 1
# Building blocks:
#     Node 0, Type 0, BuildingBlock: BETDIP_clean_linker_0, # of connection points: 3
#     Node 1, Type 0, BuildingBlock: BETDIP_clean_linker_0, # of connection points: 3
#     Node 2, Type 0, BuildingBlock: BETDIP_clean_linker_0, # of connection points: 3
#     Node 3, Type 0, BuildingBlock: BETDIP_clean_linker_0, # of connection points: 3
#     Node 4, Type 0, BuildingBlock: BETDIP_clean_linker_0, # of connection points: 3
#     Node 5, Type 0, BuildingBlock: BETDIP_clean_linker_0, # of connection points: 3
#     Node 6, Type 0, BuildingBlock: BETDIP_clean_linker_0, # of connection points: 3
#     Node 7, Type 0, BuildingBlock: BETDIP_clean_linker_0, # of connection points: 3
#     Node 8, Type 1, BuildingBlock: BETDAH_clean_sbu_0, # of connection points: 6
#     Node 9, Type 1, BuildingBlock: BETDAH_clean_sbu_0, # of connection points: 6
#     Node 10, Type 1, BuildingBlock: BETDAH_clean_sbu_0, # of connection points: 6
#     Node 11, Type 1, BuildingBlock: BETDAH_clean_sbu_0, # of connection points: 6
#     Edge 12, Type (0, 1), BuildingBlock: AJUNOK_clean_linker_0, # of connection points: 2
#     Edge 13, Type (0, 1), BuildingBlock: AJUNOK_clean_linker_0, # of connection points: 2
#     Edge 14, Type (0, 1), BuildingBlock: AJUNOK_clean_linker_0, # of connection points: 2
#     Edge 15, Type (0, 1), BuildingBlock: AJUNOK_clean_linker_0, # of connection points: 2
#     Edge 16, Type (0, 1), BuildingBlock: AJUNOK_clean_linker_0, # of connection points: 2
#     Edge 17, Type (0, 1), BuildingBlock: AJUNOK_clean_linker_0, # of connection points: 2
#     Edge 18, Type (0, 1), BuildingBlock: AJUNOK_clean_linker_0, # of connection points: 2
#     Edge 19, Type (0, 1), BuildingBlock: AJUNOK_clean_linker_0, # of connection points: 2
#     Edge 20, Type (0, 1), BuildingBlock: AJUNOK_clean_linker_0, # of connection points: 2
#     Edge 21, Type (0, 1), BuildingBlock: AJUNOK_clean_linker_0, # of connection points: 2
#     Edge 22, Type (0, 1), BuildingBlock: AJUNOK_clean_linker_0, # of connection points: 2
#     Edge 23, Type (0, 1), BuildingBlock: AJUNOK_clean_linker_0, # of connection points: 2
#     Edge 24, Type (0, 1), BuildingBlock: AJUNOK_clean_linker_0, # of connection points: 2
#     Edge 25, Type (0, 1), BuildingBlock: AJUNOK_clean_linker_0, # of connection points: 2
#     Edge 26, Type (0, 1), BuildingBlock: AJUNOK_clean_linker_0, # of connection points: 2
#     Edge 27, Type (0, 1), BuildingBlock: AJUNOK_clean_linker_0, # of connection points: 2
#     Edge 28, Type (0, 1), BuildingBlock: AJUNOK_clean_linker_0, # of connection points: 2
#     Edge 29, Type (0, 1), BuildingBlock: AJUNOK_clean_linker_0, # of connection points: 2
#     Edge 30, Type (0, 1), BuildingBlock: AJUNOK_clean_linker_0, # of connection points: 2
#     Edge 31, Type (0, 1), BuildingBlock: AJUNOK_clean_linker_0, # of connection points: 2
#     Edge 32, Type (0, 1), BuildingBlock: AJUNOK_clean_linker_0, # of connection points: 2
#     Edge 33, Type (0, 1), BuildingBlock: AJUNOK_clean_linker_0, # of connection points: 2
#     Edge 34, Type (0, 1), BuildingBlock: AJUNOK_clean_linker_0, # of connection points: 2
#     Edge 35, Type (0, 1), BuildingBlock: AJUNOK_clean_linker_0, # of connection points: 2
# Relax obj value: 0.188
# Max RMSD: 0.179
# Mean RMSD: 0.139
data_MOF--net-pyr--node1-BETDAH_clean_sbu_0--node2-BETDIP_clean_linker_0--edge1-AJUNOK_clean_linker_0
_symmetry_space_group_name_H-M    P1
_symmetry_Int_Tables_number       1
_symmetry_cell_setting            triclinic
loop_
_symmetry_equiv_pos_as_xyz
'x, y, z'
_cell_length_a     27.89345
_cell_length_b     29.137571
_cell_length_c     27.111045
_cell_angle_alpha  91.347277
_cell_angle_beta   86.987427
_cell_angle_gamma 109.84536
loop_
_atom_site_label
_atom_site_type_symbol
_atom_site_fract_x
_atom_site_fract_y
_atom_site_fract_z
_atom_type_partial_charge
H0 H 0.36145 0.39118 0.24216 0.0
H1 H 0.47064 0.34486 0.15519 0.0
H2 H 0.36156 0.24493 0.25488 0.0
H3 H 0.45227 0.49656 0.18486 0.0
C4 C 0.42359 0.46078 0.18062 0.0
C5 C 0.37776 0.36348 0.23129 0.0
C6 C 0.35608 0.3166 0.25121 0.0
C7 C 0.41896 0.37372 0.19623 0.0
C8 C 0.43932 0.33701 0.18268 0.0
C9 C 0.41861 0.29009 0.2032 0.0
C10 C 0.37758 0.28069 0.23816 0.0
N11 N 0.44148 0.42056 0.17437 0.0
H12 H 0.15682 0.86518 0.74855 0.0
H13 H 0.185 0.80543 0.60794 0.0
H14 H 0.22744 0.75533 0.74043 0.0
H15 H 0.15101 0.85508 0.57564 0.0
C16 C 0.15144 0.88279 0.60319 0.0
C17 C 0.16745 0.83768 0.72759 0.0
C18 C 0.19122 0.80922 0.75092 0.0
C19 C 0.16384 0.83604 0.67614 0.0
C20 C 0.18358 0.80479 0.64783 0.0
C21 C 0.20638 0.77553 0.67107 0.0
C22 C 0.20727 0.77591 0.72268 0.0
N23 N 0.14806 0.87205 0.65434 0.0
H24 H 0.75429 0.48403 0.88395 0.0
H25 H 0.62175 0.35565 0.86693 0.0
H26 H 0.72876 0.35957 0.97719 0.0
H27 H 0.62814 0.38882 0.78711 0.0
C28 C 0.63936 0.428 0.79263 0.0
C29 C 0.7316 0.44727 0.89508 0.0
C30 C 0.74868 0.42433 0.93258 0.0
C31 C 0.68629 0.42309 0.87048 0.0
C32 C 0.65691 0.37462 0.88479 0.0
C33 C 0.67248 0.3507 0.92284 0.0
C34 C 0.71795 0.3765 0.94652 0.0
N35 N 0.67123 0.44926 0.83293 0.0
H36 H 0.82014 0.66005 0.39009 0.0
H37 H 0.95678 0.78643 0.37446 0.0
H38 H 0.84238 0.78269 0.48855 0.0
H39 H 0.96332 0.75337 0.29707 0.0
C40 C 0.94449 0.71414 0.29884 0.0
C41 C 0.84283 0.69647 0.4017 0.0
C42 C 0.82512 0.71862 0.44204 0.0
C43 C 0.88984 0.72031 0.37633 0.0
C44 C 0.91997 0.76761 0.39245 0.0
C45 C 0.9028 0.79016 0.43327 0.0
C46 C 0.85558 0.76531 0.45746 0.0
N47 N 0.90551 0.69429 0.33653 0.0
H48 H 0.60324 0.8172 0.9983 0.0
H49 H 0.71468 0.76714 0.91969 0.0
H50 H 0.71471 0.91186 0.89656 0.0
H51 H 0.62388 0.66456 0.98463 0.0
C52 C 0.65184 0.70104 0.98602 0.0
C53 C 0.63566 0.82383 0.97224 0.0
C54 C 0.65626 0.8692 0.94847 0.0
C55 C 0.65692 0.78692 0.96312 0.0
C56 C 0.69895 0.7955 0.92919 0.0
C57 C 0.72075 0.84099 0.90634 0.0
C58 C 0.69851 0.87711 0.91523 0.0
N59 N 0.63352 0.74118 0.98708 0.0
H60 H 0.88377 0.23477 0.43922 0.0
H61 H 0.85088 0.31294 0.56616 0.0
H62 H 0.75503 0.28376 0.44183 0.0
H63 H 0.88899 0.26101 0.60732 0.0
C64 C 0.90462 0.24389 0.57761 0.0
C65 C 0.86052 0.25368 0.45788 0.0
C66 C 0.81768 0.25653 0.43558 0.0
C67 C 0.87153 0.27224 0.50561 0.0
C68 C 0.84154 0.29698 0.52991 0.0
C69 C 0.79973 0.30148 0.50647 0.0
C70 C 0.78744 0.28031 0.45995 0.0
N71 N 0.91094 0.26238 0.52903 0.0
H72 H 0.32395 0.68675 0.24818 0.0
H73 H 0.45816 0.8146 0.26054 0.0
H74 H 0.34836 0.80945 0.15281 0.0
H75 H 0.46378 0.78085 0.33489 0.0
C76 C 0.44536 0.74157 0.33371 0.0
C77 C 0.34678 0.72319 0.23618 0.0
C78 C 0.32926 0.74556 0.19856 0.0
C79 C 0.39284 0.74736 0.25957 0.0
C80 C 0.42253 0.79538 0.24365 0.0
C81 C 0.40635 0.81857 0.20519 0.0
C82 C 0.3599 0.79288 0.18333 0.0
N83 N 0.40772 0.72139 0.2976 0.0
H84 H 0.13409 0.35371 0.77094 0.0
H85 H 0.25575 0.4919 0.74935 0.0
H86 H 0.24655 0.37171 0.65148 0.0
H87 H 0.23327 0.50966 0.82437 0.0
C88 C 0.19381 0.48843 0.83384 0.0
C89 C 0.16843 0.37613 0.75099 0.0
C90 C 0.18736 0.35668 0.70913 0.0
C91 C 0.19275 0.42481 0.76673 0.0
C92 C 0.23693 0.45415 0.73939 0.0
C93 C 0.25616 0.43536 0.69729 0.0
C94 C 0.23128 0.38666 0.6831 0.0
N95 N 0.17049 0.4432 0.80848 0.0
Ho96 Ho 0.04694 0.0942 0.5284 0.0
Ho97 Ho 0.04327 1.04396 0.62752 0.0
C98 C 0.09473 0.15977 0.62531 0.0
C99 C 0.04457 0.1503 0.45689 0.0
C100 C 0.08559 0.18887 0.43102 0.0
C101 C 0.07912 0.20206 0.38316 0.0
C102 C 0.12099 0.23192 0.35495 0.0
C103 C 0.16979 0.24883 0.37432 0.0
C104 C 0.17542 0.23778 0.42337 0.0
C105 C 0.13361 0.20795 0.4515 0.0
C106 C 0.12543 0.06072 0.54219 0.0
C107 C 0.99852 0.97997 0.52913 0.0
C108 C 0.04276 0.9874 0.69959 0.0
C109 C 1.00116 0.96371 0.73591 0.0
C110 C 0.98964 0.91437 0.74779 0.0
C111 C 0.9451 0.88978 0.77599 0.0
C112 C 0.91154 0.91431 0.79212 0.0
C113 C 0.92416 0.96402 0.78162 0.0
C114 C 0.9685 0.9885 0.75383 0.0
C115 C 0.96514 0.07754 0.61593 0.0
O116 O 0.07403 0.15758 0.58202 0.0
O117 O 0.09542 0.11967 0.64702 0.0
O118 O 0.04692 0.10657 0.45018 0.0
O119 O 0.03495 0.15921 0.50314 0.0
O120 O 0.10816 0.06417 0.49956 0.0
O121 O 0.10397 0.08052 0.57343 0.0
O122 O 1.02413 0.98307 0.5697 0.0
O123 O 0.99236 1.01941 0.51127 0.0
O124 O 0.06217 1.03494 0.70225 0.0
O125 O 0.03414 0.97188 0.6543 0.0
O126 O 0.98208 0.0725 0.65815 0.0
O127 O 0.98614 1.05845 0.58334 0.0
H128 H 0.04234 0.18733 0.36678 0.0
H129 H 0.11575 0.23991 0.31718 0.0
H130 H 0.2127 0.24937 0.43888 0.0
H131 H 0.13936 0.19757 0.48827 0.0
H132 H 1.01406 0.8945 0.73374 0.0
H133 H 0.93591 0.85134 0.78358 0.0
H134 H 0.89911 0.98377 0.79419 0.0
H135 H 0.97622 1.02645 0.745 0.0
Ho136 Ho 0.5827 0.09936 0.07665 0.0
Ho137 Ho 0.485 0.06538 1.03377 0.0
C138 C 0.49464 0.13926 0.12221 0.0
C139 C 0.6729 0.14673 0.10645 0.0
C140 C 0.69655 0.16161 0.15371 0.0
C141 C 0.66981 0.17479 0.19361 0.0
C142 C 0.69258 0.18773 0.23871 0.0
C143 C 0.74215 0.18721 0.2447 0.0
C144 C 0.76861 0.17353 0.20477 0.0
C145 C 0.74594 0.16096 0.15946 0.0
C146 C 0.52354 1.01059 0.11511 0.0
C147 C 0.56964 1.02245 0.99466 0.0
C148 C 0.39672 1.02576 0.99644 0.0
C149 C 0.3596 0.98219 0.97575 0.0
C150 C 0.3696 0.93847 0.96856 0.0
C151 C 0.33547 0.89985 0.94294 0.0
C152 C 0.29134 0.9048 0.92405 0.0
C153 C 0.28049 0.94787 0.934 0.0
C154 C 0.31427 0.98609 0.9598 0.0
C155 C 0.54746 0.15524 0.9997 0.0
O156 O 0.54413 0.14679 0.11813 0.0
O157 O 0.46249 0.10379 0.09755 0.0
O158 O 0.65646 0.09991 0.09794 0.0
O159 O 0.64086 0.16779 0.09383 0.0
O160 O 0.57243 1.02546 0.10744 0.0
O161 O 0.50777 1.04547 0.10559 0.0
O162 O 0.52074 1.00963 1.00774 0.0
O163 O 0.5996 0.06655 1.0059 0.0
O164 O 0.43872 1.04665 0.96995 0.0
O165 O 0.40409 1.02578 1.04355 0.0
O166 O 0.49944 0.14376 1.01154 0.0
O167 O 0.56026 0.1181 1.00567 0.0
H168 H 0.63139 0.175 0.18998 0.0
H169 H 0.67153 0.19845 0.26889 0.0
H170 H 0.80646 0.17197 0.20876 0.0
H171 H 0.76674 0.15028 0.12903 0.0
H172 H 0.40451 0.93499 0.98092 0.0
H173 H 0.34482 0.86707 0.9357 0.0
H174 H 0.24779 0.95356 0.91887 0.0
H175 H 0.30617 1.01977 0.96514 0.0
Ho176 Ho 0.53422 0.54344 0.52954 0.0
Ho177 Ho 0.53931 0.62206 0.6015 0.0
C178 C 0.57657 0.53869 0.64131 0.0
C179 C 0.56021 0.47989 0.47761 0.0
C180 C 0.59681 0.45594 0.48912 0.0
C181 C 0.63781 0.4799 0.51892 0.0
C182 C 0.67097 0.45636 0.53261 0.0
C183 C 0.66438 0.40878 0.51589 0.0
C184 C 0.62312 0.38479 0.48622 0.0
C185 C 0.58944 0.40815 0.47314 0.0
C186 C 0.44374 0.532 0.57872 0.0
C187 C 0.49944 0.62766 0.48839 0.0
C188 C 0.51193 0.68262 0.65691 0.0
C189 C 0.47012 0.70181 0.65157 0.0
C190 C 0.43372 0.69625 0.69061 0.0
C191 C 0.38869 0.70539 0.68339 0.0
C192 C 0.3793 0.7202 0.63696 0.0
C193 C 0.41643 0.72731 0.59829 0.0
C194 C 0.46155 0.71826 0.60561 0.0
C195 C 0.62977 0.63339 0.55279 0.0
O196 O 0.57248 0.52332 0.59468 0.0
O197 O 0.56353 0.57682 0.65498 0.0
O198 O 0.51888 0.46832 0.50643 0.0
O199 O 0.57995 0.52682 0.46971 0.0
O200 O 0.44851 0.52132 0.5323 0.0
O201 O 0.48728 0.54641 0.59678 0.0
O202 O 0.50229 0.64288 0.53527 0.0
O203 O 0.51223 0.58927 0.4751 0.0
O204 O 0.55032 0.69657 0.62436 0.0
O205 O 0.49657 0.63579 0.6653 0.0
O206 O 0.62512 0.64463 0.59908 0.0
O207 O 0.58632 0.6191 0.53463 0.0
H208 H 0.64412 0.51681 0.53196 0.0
H209 H 0.70171 0.47539 0.55628 0.0
H210 H 0.61744 0.34824 0.47234 0.0
H211 H 0.55777 0.38899 0.45052 0.0
H212 H 0.43931 0.68312 0.72618 0.0
H213 H 0.36096 0.70057 0.71408 0.0
H214 H 0.41008 0.73872 0.56218 0.0
H215 H 0.48889 0.7226 0.57491 0.0
Ho216 Ho 0.04413 0.5363 0.08561 0.0
Ho217 Ho 0.04211 0.63196 1.03347 0.0
C218 C 0.13682 0.64093 0.10039 0.0
C219 C 0.07363 0.46294 0.10141 0.0
C220 C 0.12384 0.46035 0.11264 0.0
C221 C 0.1688 0.49789 0.0975 0.0
C222 C 0.21637 0.49663 0.10962 0.0
C223 C 0.22003 0.45764 0.13685 0.0
C224 C 0.17515 0.41942 0.15098 0.0
C225 C 0.12733 0.42095 0.13923 0.0
C226 C 1.00279 0.58998 0.14889 0.0
C227 C 0.94362 0.52824 1.0278 0.0
C228 C 1.01313 0.70074 1.00159 0.0
C229 C 0.96259 0.70693 1.0008 0.0
C230 C 0.93323 0.70682 1.04471 0.0
C231 C 0.8841 0.70926 1.04305 0.0
C232 C 0.86322 0.71157 0.99754 0.0
C233 C 0.89279 0.71242 0.95376 0.0
C234 C 0.9421 0.71045 0.9554 0.0
C235 C 0.09659 0.58198 0.98428 0.0
O236 O 0.12217 0.5925 0.0989 0.0
O237 O 0.10935 0.66496 0.08138 0.0
O238 O 0.05158 0.48226 0.1357 0.0
O239 O 0.07069 0.4788 1.05736 0.0
O240 O 1.00487 0.54738 0.15942 0.0
O241 O 1.02006 0.59842 0.10491 0.0
O242 O 0.96226 0.57664 1.02317 0.0
O243 O 0.9689 0.50363 1.04957 0.0
O244 O 1.01961 0.66631 0.97294 0.0
O245 O 0.0321 0.70184 1.04489 0.0
O246 O 0.10882 0.62922 0.98388 0.0
O247 O 0.05477 0.56413 1.00899 0.0
H248 H 0.16722 0.52832 0.07632 0.0
H249 H 0.25041 0.52612 0.09753 0.0
H250 H 0.17706 0.38892 0.17191 0.0
H251 H 0.09311 0.39157 0.15114 0.0
H252 H 0.94765 0.7038 0.08038 0.0
H253 H 0.86183 0.70782 0.0773 0.0
H254 H 0.87756 0.71432 0.9182 0.0
H255 H 0.96389 0.71065 0.92106 0.0
C256 C 0.26663 0.26236 0.26815 0.0
C257 C 0.308 0.3031 0.28195 0.0
C258 C 0.22128 0.24664 0.29724 0.0
C259 C 0.2156 0.27094 0.3414 0.0
H260 H 0.26959 0.24203 0.23482 0.0
H261 H 0.19116 0.21401 0.28597 0.0
S262 S 0.31143 0.38145 0.39236 0.0
N263 N 0.33984 0.36891 0.34136 0.0
N264 N 0.25409 0.33933 0.39629 0.0
C265 C 0.25607 0.3127 0.35491 0.0
C266 C 0.30234 0.32891 0.32502 0.0
C267 C 0.26559 0.83506 0.80429 0.0
C268 C 0.21276 0.82409 0.80001 0.0
C269 C 0.28985 0.85752 0.84654 0.0
C270 C 0.2624 0.87022 0.8863 0.0
H271 H 0.28923 0.82926 0.77343 0.0
H272 H 0.33105 0.86823 0.84632 0.0
S273 S 0.12213 0.84215 0.89697 0.0
N274 N 0.13275 0.82233 0.84126 0.0
N275 N 0.17847 0.86452 0.92152 0.0
C276 C 0.20897 0.85628 0.88412 0.0
C277 C 0.18416 0.83338 0.84075 0.0
C278 C 0.62706 0.50604 0.76181 0.0
C279 C 0.62592 0.45763 0.7536 0.0
C280 C 0.61142 0.53199 0.72567 0.0
C281 C 0.59474 0.51123 0.67913 0.0
H282 H 0.63909 0.52375 0.79681 0.0
H283 H 0.61242 0.56875 0.7344 0.0
S284 S 0.58602 0.38585 0.63854 0.0
N285 N 0.60721 0.39047 0.6948 0.0
N286 N 0.57904 0.43864 0.62756 0.0
C287 C 0.59442 0.46311 0.6704 0.0
C288 C 0.60959 0.43663 0.7073 0.0
C289 C 0.93789 0.63117 0.26142 0.0
C290 C 0.95759 0.68257 0.25923 0.0
C291 C 0.95193 0.60181 0.22509 0.0
C292 C 0.98561 0.62234 0.18446 0.0
H293 H 0.91208 0.61332 0.29183 0.0
H294 H 0.93642 0.56253 0.22908 0.0
S295 S 0.04885 0.7549 0.16205 0.0
N296 N 1.01309 0.75251 0.21305 0.0
N297 N 0.03931 0.69765 0.14568 0.0
C298 C 1.00519 0.67358 0.18178 0.0
C299 C 0.99125 0.70348 0.21885 0.0
C300 C 0.49023 0.25763 0.18159 0.0
C301 C 0.43756 0.25003 0.18611 0.0
C302 C 0.50853 0.22071 0.16356 0.0
C303 C 0.47485 0.17477 0.14917 0.0
H304 H 0.51755 0.29259 0.1916 0.0
H305 H 0.54941 0.22891 0.15928 0.0
S306 S 0.33311 0.13597 0.15506 0.0
N307 N 0.35199 0.19295 0.17494 0.0
N308 N 0.38585 0.12329 0.14305 0.0
C309 C 0.42198 0.16628 0.15514 0.0
C310 C 0.40349 0.20393 0.17301 0.0
C311 C 0.13967 0.93632 0.53801 0.0
C312 C 0.15139 0.93086 0.58683 0.0
C313 C 0.13487 0.98 0.52238 0.0
C314 C 0.14196 1.01972 0.5551 0.0
H315 H 0.13196 0.9059 0.51232 0.0
H316 H 0.12277 0.98161 0.48534 0.0
S317 S 0.18285 1.02735 0.68378 0.0
N318 N 0.17688 0.97125 0.66575 0.0
N319 N 0.16789 1.05322 0.63616 0.0
C320 C 0.15747 1.01598 0.60279 0.0
C321 C 0.16212 0.97152 0.61879 0.0
C322 C 0.8127 0.50003 0.97077 0.0
C323 C 0.79845 0.45017 0.95738 0.0
C324 C 0.85891 0.52462 0.99393 0.0
C325 C 0.89326 0.50063 1.00534 0.0
H326 H 0.78771 0.52033 0.96368 0.0
H327 H 0.86765 0.5629 1.00306 0.0
S328 S 0.87684 0.3713 0.97452 0.0
N329 N 0.82506 0.3788 0.9547 0.0
N330 N 0.91032 0.4242 0.9989 0.0
C331 C 0.87969 0.45089 0.99186 0.0
C332 C 0.83293 0.426 0.96786 0.0
C333 C 0.77225 0.69034 0.52083 0.0
C334 C 0.77508 0.69326 0.4689 0.0
C335 C 0.72534 0.66965 0.54736 0.0
C336 C 0.67912 0.65119 0.52317 0.0
H337 H 0.80665 0.70455 0.54124 0.0
H338 H 0.72528 0.66887 0.58729 0.0
S339 S 0.66531 0.65049 0.38763 0.0
N340 N 0.7273 0.67591 0.39428 0.0
N341 N 0.63933 0.63708 0.44393 0.0
C342 C 0.68143 0.65309 0.47117 0.0
C343 C 0.72929 0.67408 0.44414 0.0
C344 C 0.33619 0.41847 0.14709 0.0
C345 C 0.37056 0.4584 0.17157 0.0
C346 C 0.28696 0.41777 0.1372 0.0
C347 C 0.2708 0.45736 0.1505 0.0
H348 H 0.34748 0.38793 0.1346 0.0
H349 H 0.2619 0.38669 0.11775 0.0
S350 S 0.34549 0.56979 0.21649 0.0
N351 N 0.38424 0.53775 0.20998 0.0
N352 N 0.29228 0.53671 0.19069 0.0
C353 C 0.3046 0.49721 0.17525 0.0
C354 C 0.35434 0.49769 0.18579 0.0
C355 C 0.58787 0.28622 0.94971 0.0
C356 C 0.64095 0.29942 0.93959 0.0
C357 C 0.55844 0.23983 0.96879 0.0
C358 C 0.58028 0.20385 0.97829 0.0
H359 H 0.56899 0.31246 0.94407 0.0
H360 H 0.51795 0.23224 0.97652 0.0
S361 S 0.71698 0.21815 0.95573 0.0
N362 N 0.7136 0.27105 0.9389 0.0
N363 N 0.65848 0.1846 0.97439 0.0
C364 C 0.63305 0.21609 0.96742 0.0
C365 C 0.66318 0.26347 0.94828 0.0
C366 C 0.92531 0.88156 0.43744 0.0
C367 C 0.9335 0.83917 0.45296 0.0
C368 C 0.94702 0.92685 0.46162 0.0
C369 C 0.9773 0.93162 0.5029 0.0
H370 H 0.90066 0.87939 0.40727 0.0
H371 H 0.93893 0.95812 0.44841 0.0
S372 S 1.01061 0.83092 0.55744 0.0
N373 N 0.97442 0.80468 0.51137 0.0
N374 N 1.01491 0.88885 0.55705 0.0
C375 C 0.98632 0.88929 0.51811 0.0
C376 C 0.96446 0.8434 0.49321 0.0
C377 C 0.24078 0.70833 0.65387 0.0
C378 C 0.24233 0.75588 0.64364 0.0
C379 C 0.28467 0.69546 0.64738 0.0
C380 C 0.3313 0.72971 0.63034 0.0
H381 H 0.20693 0.68263 0.67166 0.0
H382 H 0.28305 0.65969 0.65925 0.0
S383 S 0.35304 0.85627 0.59064 0.0
N384 N 0.29229 0.83512 0.60941 0.0
N385 N 0.37483 0.81079 0.59714 0.0
C386 C 0.33185 0.77544 0.61464 0.0
C387 C 0.28715 0.78853 0.62117 0.0
C388 C 0.77086 0.87426 0.82837 0.0
C389 C 0.76807 0.85225 0.8745 0.0
C390 C 0.81716 0.89216 0.80088 0.0
C391 C 0.86228 0.88858 0.81846 0.0
H392 H 0.73729 0.87904 0.81414 0.0
H393 H 0.818 0.91027 0.76622 0.0
S394 S 0.87523 0.8327 0.93602 0.0
N395 N 0.81413 0.82652 0.93585 0.0
N396 N 0.90125 0.85987 0.88361 0.0
C397 C 0.85969 0.86464 0.86331 0.0
C398 C 0.81251 0.84652 0.89149 0.0
C399 C 0.7553 0.19806 0.38268 0.0
C400 C 0.80319 0.23435 0.38702 0.0
C401 C 0.73687 0.18143 0.33634 0.0
C402 C 0.76556 0.20096 0.29285 0.0
H403 H 0.73133 0.18354 0.41537 0.0
H404 H 0.69929 0.15403 0.3345 0.0
S405 S 0.89406 0.29596 0.2851 0.0
N406 N 0.87989 0.28812 0.34494 0.0
N407 N 0.8449 0.25763 0.25719 0.0
C408 C 0.81445 0.23601 0.29684 0.0
C409 C 0.83336 0.2526 0.34419 0.0
C410 C 0.44119 0.65999 0.37247 0.0
C411 C 0.45758 0.71158 0.37341 0.0
C412 C 0.45466 0.63305 0.40933 0.0
C413 C 0.48427 0.65625 0.44952 0.0
H414 H 0.41831 0.64019 0.34273 0.0
H415 H 0.4414 0.59363 0.40649 0.0
S416 S 0.5389 0.79037 0.46826 0.0
N417 N 0.50663 0.78433 0.41777 0.0
N418 N 0.53131 0.7344 0.48586 0.0
C419 C 0.50087 0.70766 0.45058 0.0
C420 C 0.48775 0.73497 0.41301 0.0
C421 C 0.19261 0.55621 0.89196 0.0
C422 C 0.16702 0.50895 0.87372 0.0
C423 C 0.1698 0.57862 0.92819 0.0
C424 C 0.12034 0.55477 0.94864 0.0
H425 H 0.2307 0.57662 0.87752 0.0
H426 H 0.19118 0.61533 0.94003 0.0
S427 S 0.03651 0.43004 0.91513 0.0
N428 N 0.08899 0.43855 0.87994 0.0
N429 N 0.04636 0.4805 0.94818 0.0
C430 C 0.09438 0.50704 0.9316 0.0
C431 C 0.11756 0.48424 0.89415 0.0
C432 C 0.58182 0.8996 0.95848 0.0
C433 C 0.63474 0.90896 0.95891 0.0
C434 C 0.56113 0.93691 0.96798 0.0
C435 C 0.59259 0.98508 0.9781 0.0
H436 H 0.55618 0.86317 0.95068 0.0
H437 H 0.52009 0.92766 0.96819 0.0
S438 S 0.7338 1.02808 0.98552 0.0
N439 N 0.71797 0.96944 0.97219 0.0
N440 N 0.67981 1.03965 0.98832 0.0
C441 C 0.64574 0.9949 0.97808 0.0
C442 C 0.6666 0.95686 0.96901 0.0
C443 C 0.92973 0.19119 0.63446 0.0
C444 C 0.91638 0.19925 0.58711 0.0
C445 C 0.94357 0.15046 0.64403 0.0
C446 C 0.94392 0.1162 0.6066 0.0
H447 H 0.931 0.21731 0.66391 0.0
H448 H 0.9556 0.14669 0.68061 0.0
S449 S 0.90376 0.1163 0.47858 0.0
N450 N 0.89885 0.16674 0.50375 0.0
N451 N 0.92417 0.0899 0.52221 0.0
C452 C 0.92771 0.12228 0.55994 0.0
C453 C 0.91417 0.16398 0.55 0.0
C454 C 0.26592 0.6697 0.16072 0.0
C455 C 0.27946 0.71939 0.17427 0.0
C456 C 0.22033 0.64503 0.13682 0.0
C457 C 0.18585 0.66872 0.1249 0.0
H458 H 0.29114 0.64967 0.16798 0.0
H459 H 0.21234 0.60695 0.12736 0.0
S460 S 0.20098 0.79779 0.15546 0.0
N461 N 0.25236 0.79047 0.17647 0.0
N462 N 0.16819 0.74488 0.13066 0.0
C463 C 0.19869 0.7183 0.13866 0.0
C464 C 0.24488 0.74331 0.16342 0.0
C465 C 0.34895 0.48942 0.68956 0.0
C466 C 0.30231 0.46577 0.66731 0.0
C467 C 0.39422 0.51237 0.66087 0.0
C468 C 0.39462 0.51273 0.6088 0.0
H469 H 0.35094 0.48839 0.72929 0.0
H470 H 0.42945 0.52852 0.67964 0.0
S471 S 0.28125 0.46171 0.53293 0.0
N472 N 0.25857 0.44848 0.59029 0.0
N473 N 0.34301 0.49122 0.53673 0.0
C474 C 0.34767 0.49153 0.58639 0.0
C475 C 0.30178 0.46817 0.6155 0.0
C476 C 0.72454 0.67225 0.96404 0.0
C477 C 0.70618 0.70566 0.98996 0.0
C478 C 0.77552 0.67492 0.96621 0.0
C479 C 0.80971 0.7104 0.99543 0.0
H480 H 0.69939 0.64411 0.94134 0.0
H481 H 0.78809 0.64853 0.94542 0.0
S482 S 0.78003 0.80531 0.0721 0.0
N483 N 0.72571 0.77474 1.04668 0.0
N484 N 0.82144 0.77924 1.05155 0.0
C485 C 0.79157 0.74349 1.02238 0.0
C486 C 0.73982 0.74131 1.01943 0.0
C487 C 0.41434 0.90399 0.17639 0.0
C488 C 0.43766 0.86889 0.18563 0.0
C489 C 0.44177 0.94964 0.15417 0.0
C490 C 0.49392 0.96246 0.13974 0.0
H491 H 0.3742 0.89598 0.18622 0.0
H492 H 0.42179 0.97486 0.14792 0.0
S493 S 0.57275 0.8831 0.1527 0.0
N494 N 0.5161 0.85036 0.17658 0.0
N495 N 0.56728 0.93493 0.13529 0.0
C496 C 0.5176 0.92763 0.14865 0.0
C497 C 0.48976 0.88142 0.17145 0.0
C498 C 0.14975 0.29848 0.64006 0.0
C499 C 0.16112 0.30584 0.69027 0.0
C500 C 0.12847 0.25144 0.61988 0.0
C501 C 0.11801 0.20913 0.64869 0.0
H502 H 0.15754 0.32955 0.61593 0.0
H503 H 0.12073 0.24839 0.58098 0.0
S504 S 0.1403 0.20808 0.78253 0.0
N505 N 0.15985 0.26667 0.76861 0.0
N506 N 0.12018 0.17821 0.73083 0.0
C507 C 0.12892 0.2159 0.69914 0.0
C508 C 0.15018 0.26411 0.71986 0.0
C509 C 0.71834 0.30899 0.53952 0.0
C510 C 0.77036 0.33162 0.52656 0.0
C511 C 0.68463 0.33529 0.53986 0.0
C512 C 0.70183 0.38484 0.52655 0.0
H513 H 0.70302 0.26993 0.54542 0.0
H514 H 0.64435 0.31599 0.54756 0.0
S515 S 0.83575 0.46127 0.49415 0.0
N516 N 0.83853 0.40668 0.50468 0.0
N517 N 0.77527 0.45627 0.50404 0.0
C518 C 0.75457 0.40866 0.51745 0.0
C519 C 0.78886 0.38192 0.51775 0.0
loop_
_geom_bond_atom_site_label_1
_geom_bond_atom_site_label_2
_geom_bond_distance
_geom_bond_site_symmetry_2
_ccdc_geom_bond_type
H0 C5 0.930 . S
H1 C8 0.930 . S
H2 C10 0.930 . S
H3 C4 1.016 . S
C4 H3 1.016 . S
C4 N11 1.286 . S
C5 H0 0.930 . S
C5 C6 1.397 . S
C5 C7 1.361 . S
C6 C5 1.397 . S
C6 C10 1.390 . S
C7 C5 1.361 . S
C7 C8 1.393 . S
C7 N11 1.413 . S
C8 H1 0.930 . S
C8 C7 1.393 . S
C8 C9 1.399 . S
C9 C8 1.399 . S
C9 C10 1.381 . S
C10 H2 0.930 . S
C10 C6 1.390 . S
C10 C9 1.381 . S
N11 C4 1.286 . S
N11 C7 1.413 . S
H12 C17 0.930 . S
H13 C20 0.930 . S
H14 C22 0.930 . S
H15 C16 1.016 . S
C16 H15 1.016 . S
C16 N23 1.286 . S
C17 H12 0.930 . S
C17 C18 1.397 . S
C17 C19 1.361 . S
C18 C17 1.397 . S
C18 C22 1.390 . S
C19 C17 1.361 . S
C19 C20 1.393 . S
C19 N23 1.413 . S
C20 H13 0.930 . S
C20 C19 1.393 . S
C20 C21 1.399 . S
C21 C20 1.399 . S
C21 C22 1.381 . S
C22 H14 0.930 . S
C22 C18 1.390 . S
C22 C21 1.381 . S
N23 C16 1.286 . S
N23 C19 1.413 . S
H24 C29 0.930 . S
H25 C32 0.930 . S
H26 C34 0.930 . S
H27 C28 1.016 . S
C28 H27 1.016 . S
C28 N35 1.286 . S
C29 H24 0.930 . S
C29 C30 1.397 . S
C29 C31 1.361 . S
C30 C29 1.397 . S
C30 C34 1.390 . S
C31 C29 1.361 . S
C31 C32 1.393 . S
C31 N35 1.413 . S
C32 H25 0.930 . S
C32 C31 1.393 . S
C32 C33 1.399 . S
C33 C32 1.399 . S
C33 C34 1.381 . S
C34 H26 0.930 . S
C34 C30 1.390 . S
C34 C33 1.381 . S
N35 C28 1.286 . S
N35 C31 1.413 . S
H36 C41 0.930 . S
H37 C44 0.930 . S
H38 C46 0.930 . S
H39 C40 1.016 . S
C40 H39 1.016 . S
C40 N47 1.286 . S
C41 H36 0.930 . S
C41 C42 1.397 . S
C41 C43 1.361 . S
C42 C41 1.397 . S
C42 C46 1.390 . S
C43 C41 1.361 . S
C43 C44 1.393 . S
C43 N47 1.413 . S
C44 H37 0.930 . S
C44 C43 1.393 . S
C44 C45 1.399 . S
C45 C44 1.399 . S
C45 C46 1.381 . S
C46 H38 0.930 . S
C46 C42 1.390 . S
C46 C45 1.381 . S
N47 C40 1.286 . S
N47 C43 1.413 . S
H48 C53 0.930 . S
H49 C56 0.930 . S
H50 C58 0.930 . S
H51 C52 1.016 . S
C52 H51 1.016 . S
C52 N59 1.286 . S
C53 H48 0.930 . S
C53 C54 1.397 . S
C53 C55 1.361 . S
C54 C53 1.397 . S
C54 C58 1.390 . S
C55 C53 1.361 . S
C55 C56 1.393 . S
C55 N59 1.413 . S
C56 H49 0.930 . S
C56 C55 1.393 . S
C56 C57 1.399 . S
C57 C56 1.399 . S
C57 C58 1.381 . S
C58 H50 0.930 . S
C58 C54 1.390 . S
C58 C57 1.381 . S
N59 C52 1.286 . S
N59 C55 1.413 . S
H60 C65 0.930 . S
H61 C68 0.930 . S
H62 C70 0.930 . S
H63 C64 1.016 . S
C64 H63 1.016 . S
C64 N71 1.286 . S
C65 H60 0.930 . S
C65 C66 1.397 . S
C65 C67 1.361 . S
C66 C65 1.397 . S
C66 C70 1.390 . S
C67 C65 1.361 . S
C67 C68 1.393 . S
C67 N71 1.413 . S
C68 H61 0.930 . S
C68 C67 1.393 . S
C68 C69 1.399 . S
C69 C68 1.399 . S
C69 C70 1.381 . S
C70 H62 0.930 . S
C70 C66 1.390 . S
C70 C69 1.381 . S
N71 C64 1.286 . S
N71 C67 1.413 . S
H72 C77 0.930 . S
H73 C80 0.930 . S
H74 C82 0.930 . S
H75 C76 1.016 . S
C76 H75 1.016 . S
C76 N83 1.286 . S
C77 H72 0.930 . S
C77 C78 1.397 . S
C77 C79 1.361 . S
C78 C77 1.397 . S
C78 C82 1.390 . S
C79 C77 1.361 . S
C79 C80 1.393 . S
C79 N83 1.413 . S
C80 H73 0.930 . S
C80 C79 1.393 . S
C80 C81 1.399 . S
C81 C80 1.399 . S
C81 C82 1.381 . S
C82 H74 0.930 . S
C82 C78 1.390 . S
C82 C81 1.381 . S
N83 C76 1.286 . S
N83 C79 1.413 . S
H84 C89 0.930 . S
H85 C92 0.930 . S
H86 C94 0.930 . S
H87 C88 1.016 . S
C88 H87 1.016 . S
C88 N95 1.286 . S
C89 H84 0.930 . S
C89 C90 1.397 . S
C89 C91 1.361 . S
C90 C89 1.397 . S
C90 C94 1.390 . S
C91 C89 1.361 . S
C91 C92 1.393 . S
C91 N95 1.413 . S
C92 H85 0.930 . S
C92 C91 1.393 . S
C92 C93 1.399 . S
C93 C92 1.399 . S
C93 C94 1.381 . S
C94 H86 0.930 . S
C94 C90 1.390 . S
C94 C93 1.381 . S
N95 C88 1.286 . S
N95 C91 1.413 . S
Ho96 C99 2.811 . S
Ho96 O116 2.322 . S
Ho96 O118 2.378 . S
Ho96 O119 2.524 . S
Ho96 O120 2.381 1_545 S
Ho96 O121 2.669 1_545 S
Ho96 O123 2.346 1_445 S
Ho96 O127 2.305 1_455 S
Ho97 C108 2.811 1_545 S
Ho97 O117 2.346 1_655 S
Ho97 O121 2.305 1_645 S
Ho97 O122 2.322 1_545 S
Ho97 O124 2.378 1_545 S
Ho97 O125 2.524 1_545 S
Ho97 O126 2.381 . S
Ho97 O127 2.669 . S
C98 O116 1.259 . S
C98 O117 1.268 . S
C99 Ho96 2.811 . S
C99 C100 1.488 . S
C99 O118 1.215 . S
C99 O119 1.289 . S
C100 C99 1.488 . S
C100 C101 1.348 . S
C100 C105 1.413 . S
C101 C100 1.348 . S
C101 C102 1.442 . S
C101 H128 0.930 . S
C102 C101 1.442 . S
C102 C103 1.381 . S
C102 H129 0.931 . S
C103 C102 1.381 . S
C103 C104 1.321 . S
C104 C103 1.321 . S
C104 C105 1.403 . S
C104 H130 0.934 . S
C105 C100 1.413 . S
C105 C104 1.403 . S
C105 H131 0.930 . S
C106 O120 1.275 . S
C106 O121 1.256 . S
C107 O122 1.259 . S
C107 O123 1.268 . S
C108 Ho97 2.811 1_565 S
C108 C109 1.488 . S
C108 O124 1.215 . S
C108 O125 1.289 . S
C109 C108 1.488 . S
C109 C110 1.348 . S
C109 C114 1.413 . S
C110 C109 1.348 . S
C110 C111 1.442 . S
C110 H132 0.930 . S
C111 C110 1.442 . S
C111 C112 1.381 . S
C111 H133 0.931 . S
C112 C111 1.381 . S
C112 C113 1.321 . S
C113 C112 1.321 . S
C113 C114 1.403 . S
C113 H134 0.934 . S
C114 C109 1.413 . S
C114 C113 1.403 . S
C114 H135 0.930 . S
C115 O126 1.275 . S
C115 O127 1.256 . S
O116 Ho96 2.322 . S
O116 C98 1.259 . S
O117 Ho97 2.346 1_455 S
O117 C98 1.268 . S
O118 Ho96 2.378 . S
O118 C99 1.215 . S
O119 Ho96 2.524 . S
O119 C99 1.289 . S
O120 Ho96 2.381 1_565 S
O120 C106 1.275 . S
O121 Ho96 2.669 1_565 S
O121 Ho97 2.305 1_465 S
O121 C106 1.256 . S
O122 Ho97 2.322 1_565 S
O122 C107 1.259 . S
O123 Ho96 2.346 1_665 S
O123 C107 1.268 . S
O124 Ho97 2.378 1_565 S
O124 C108 1.215 . S
O125 Ho97 2.524 1_565 S
O125 C108 1.289 . S
O126 Ho97 2.381 . S
O126 C115 1.275 . S
O127 Ho96 2.305 1_655 S
O127 Ho97 2.669 . S
O127 C115 1.256 . S
H128 C101 0.930 . S
H129 C102 0.931 . S
H130 C104 0.934 . S
H131 C105 0.930 . S
H132 C110 0.930 . S
H133 C111 0.931 . S
H134 C113 0.934 . S
H135 C114 0.930 . S
Ho136 C139 2.811 . S
Ho136 O156 2.322 . S
Ho136 O158 2.378 . S
Ho136 O159 2.524 . S
Ho136 O160 2.381 1_545 S
Ho136 O161 2.669 1_545 S
Ho136 O163 2.346 1_544 S
Ho136 O167 2.292 1_554 S
Ho137 C148 2.811 1_545 S
Ho137 O157 2.346 1_556 S
Ho137 O161 2.305 1_546 S
Ho137 O162 2.322 1_545 S
Ho137 O164 2.378 1_545 S
Ho137 O165 2.524 1_545 S
Ho137 O166 2.381 . S
Ho137 O167 2.674 . S
C138 O156 1.259 . S
C138 O157 1.268 . S
C139 Ho136 2.811 . S
C139 C140 1.488 . S
C139 O158 1.215 . S
C139 O159 1.289 . S
C140 C139 1.488 . S
C140 C141 1.348 . S
C140 C145 1.413 . S
C141 C140 1.348 . S
C141 C142 1.442 . S
C141 H168 0.930 . S
C142 C141 1.442 . S
C142 C143 1.381 . S
C142 H169 0.931 . S
C143 C142 1.381 . S
C143 C144 1.321 . S
C144 C143 1.321 . S
C144 C145 1.403 . S
C144 H170 0.934 . S
C145 C140 1.413 . S
C145 C144 1.403 . S
C145 H171 0.930 . S
C146 O160 1.275 . S
C146 O161 1.256 . S
C147 O162 1.259 . S
C147 O163 1.268 . S
C148 Ho137 2.811 1_565 S
C148 C149 1.488 . S
C148 O164 1.215 . S
C148 O165 1.289 . S
C149 C148 1.488 . S
C149 C150 1.348 . S
C149 C154 1.413 . S
C150 C149 1.348 . S
C150 C151 1.442 . S
C150 H172 0.930 . S
C151 C150 1.442 . S
C151 C152 1.381 . S
C151 H173 0.931 . S
C152 C151 1.381 . S
C152 C153 1.321 . S
C153 C152 1.321 . S
C153 C154 1.403 . S
C153 H174 0.934 . S
C154 C149 1.413 . S
C154 C153 1.403 . S
C154 H175 0.930 . S
C155 O166 1.275 . S
C155 O167 1.271 . S
O156 Ho136 2.322 . S
O156 C138 1.259 . S
O157 Ho137 2.346 1_554 S
O157 C138 1.268 . S
O158 Ho136 2.378 . S
O158 C139 1.215 . S
O159 Ho136 2.524 . S
O159 C139 1.289 . S
O160 Ho136 2.381 1_565 S
O160 C146 1.275 . S
O161 Ho136 2.669 1_565 S
O161 Ho137 2.305 1_564 S
O161 C146 1.256 . S
O162 Ho137 2.322 1_565 S
O162 C147 1.259 . S
O163 Ho136 2.346 1_566 S
O163 C147 1.268 . S
O164 Ho137 2.378 1_565 S
O164 C148 1.215 . S
O165 Ho137 2.524 1_565 S
O165 C148 1.289 . S
O166 Ho137 2.381 . S
O166 C155 1.275 . S
O167 Ho136 2.292 1_556 S
O167 Ho137 2.674 . S
O167 C155 1.271 . S
H168 C141 0.930 . S
H169 C142 0.931 . S
H170 C144 0.934 . S
H171 C145 0.930 . S
H172 C150 0.930 . S
H173 C151 0.931 . S
H174 C153 0.934 . S
H175 C154 0.930 . S
Ho176 C179 2.811 . S
Ho176 O196 2.322 . S
Ho176 O198 2.378 . S
Ho176 O199 2.524 . S
Ho176 O200 2.381 . S
Ho176 O201 2.669 . S
Ho176 O203 2.346 . S
Ho176 O207 2.305 . S
Ho177 C188 2.811 . S
Ho177 O197 2.346 . S
Ho177 O201 2.305 . S
Ho177 O202 2.322 . S
Ho177 O204 2.378 . S
Ho177 O205 2.524 . S
Ho177 O206 2.381 . S
Ho177 O207 2.669 . S
C178 O196 1.259 . S
C178 O197 1.268 . S
C179 Ho176 2.811 . S
C179 C180 1.488 . S
C179 O198 1.215 . S
C179 O199 1.289 . S
C180 C179 1.488 . S
C180 C181 1.348 . S
C180 C185 1.413 . S
C181 C180 1.348 . S
C181 C182 1.442 . S
C181 H208 0.930 . S
C182 C181 1.442 . S
C182 C183 1.381 . S
C182 H209 0.931 . S
C183 C182 1.381 . S
C183 C184 1.321 . S
C184 C183 1.321 . S
C184 C185 1.403 . S
C184 H210 0.934 . S
C185 C180 1.413 . S
C185 C184 1.403 . S
C185 H211 0.930 . S
C186 O200 1.275 . S
C186 O201 1.256 . S
C187 O202 1.259 . S
C187 O203 1.268 . S
C188 Ho177 2.811 . S
C188 C189 1.488 . S
C188 O204 1.215 . S
C188 O205 1.289 . S
C189 C188 1.488 . S
C189 C190 1.348 . S
C189 C194 1.413 . S
C190 C189 1.348 . S
C190 C191 1.442 . S
C190 H212 0.930 . S
C191 C190 1.442 . S
C191 C192 1.381 . S
C191 H213 0.931 . S
C192 C191 1.381 . S
C192 C193 1.321 . S
C193 C192 1.321 . S
C193 C194 1.403 . S
C193 H214 0.934 . S
C194 C189 1.413 . S
C194 C193 1.403 . S
C194 H215 0.930 . S
C195 O206 1.275 . S
C195 O207 1.256 . S
O196 Ho176 2.322 . S
O196 C178 1.259 . S
O197 Ho177 2.346 . S
O197 C178 1.268 . S
O198 Ho176 2.378 . S
O198 C179 1.215 . S
O199 Ho176 2.524 . S
O199 C179 1.289 . S
O200 Ho176 2.381 . S
O200 C186 1.275 . S
O201 Ho176 2.669 . S
O201 Ho177 2.305 . S
O201 C186 1.256 . S
O202 Ho177 2.322 . S
O202 C187 1.259 . S
O203 Ho176 2.346 . S
O203 C187 1.268 . S
O204 Ho177 2.378 . S
O204 C188 1.215 . S
O205 Ho177 2.524 . S
O205 C188 1.289 . S
O206 Ho177 2.381 . S
O206 C195 1.275 . S
O207 Ho176 2.305 . S
O207 Ho177 2.669 . S
O207 C195 1.256 . S
H208 C181 0.930 . S
H209 C182 0.931 . S
H210 C184 0.934 . S
H211 C185 0.930 . S
H212 C190 0.930 . S
H213 C191 0.931 . S
H214 C193 0.934 . S
H215 C194 0.930 . S
Ho216 C219 2.811 . S
Ho216 O236 2.322 . S
Ho216 O238 2.378 . S
Ho216 O239 2.524 . S
Ho216 O240 2.381 1_455 S
Ho216 O241 2.669 1_455 S
Ho216 O243 2.346 1_454 S
Ho216 O247 2.305 1_554 S
Ho217 C228 2.811 1_455 S
Ho217 O237 2.346 1_556 S
Ho217 O241 2.305 1_456 S
Ho217 O242 2.322 1_455 S
Ho217 O244 2.378 1_455 S
Ho217 O245 2.524 1_455 S
Ho217 O246 2.381 . S
Ho217 O247 2.669 . S
C218 O236 1.259 . S
C218 O237 1.268 . S
C219 Ho216 2.811 . S
C219 C220 1.488 . S
C219 O238 1.215 . S
C219 O239 1.289 . S
C220 C219 1.488 . S
C220 C221 1.348 . S
C220 C225 1.413 . S
C221 C220 1.348 . S
C221 C222 1.442 . S
C221 H248 0.930 . S
C222 C221 1.442 . S
C222 C223 1.381 . S
C222 H249 0.931 . S
C223 C222 1.381 . S
C223 C224 1.321 . S
C224 C223 1.321 . S
C224 C225 1.403 . S
C224 H250 0.934 . S
C225 C220 1.413 . S
C225 C224 1.403 . S
C225 H251 0.930 . S
C226 O240 1.275 . S
C226 O241 1.256 . S
C227 O242 1.259 . S
C227 O243 1.268 . S
C228 Ho217 2.811 1_655 S
C228 C229 1.488 . S
C228 O244 1.215 . S
C228 O245 1.289 . S
C229 C228 1.488 . S
C229 C230 1.348 . S
C229 C234 1.413 . S
C230 C229 1.348 . S
C230 C231 1.442 . S
C230 H252 0.930 . S
C231 C230 1.442 . S
C231 C232 1.381 . S
C231 H253 0.931 . S
C232 C231 1.381 . S
C232 C233 1.321 . S
C233 C232 1.321 . S
C233 C234 1.403 . S
C233 H254 0.934 . S
C234 C229 1.413 . S
C234 C233 1.403 . S
C234 H255 0.930 . S
C235 O246 1.275 . S
C235 O247 1.256 . S
O236 Ho216 2.322 . S
O236 C218 1.259 . S
O237 Ho217 2.346 1_554 S
O237 C218 1.268 . S
O238 Ho216 2.378 . S
O238 C219 1.215 . S
O239 Ho216 2.524 . S
O239 C219 1.289 . S
O240 Ho216 2.381 1_655 S
O240 C226 1.275 . S
O241 Ho216 2.669 1_655 S
O241 Ho217 2.305 1_654 S
O241 C226 1.256 . S
O242 Ho217 2.322 1_655 S
O242 C227 1.259 . S
O243 Ho216 2.346 1_656 S
O243 C227 1.268 . S
O244 Ho217 2.378 1_655 S
O244 C228 1.215 . S
O245 Ho217 2.524 1_655 S
O245 C228 1.289 . S
O246 Ho217 2.381 . S
O246 C235 1.275 . S
O247 Ho216 2.305 1_556 S
O247 Ho217 2.669 . S
O247 C235 1.256 . S
H248 C221 0.930 . S
H249 C222 0.931 . S
H250 C224 0.934 . S
H251 C225 0.930 . S
H252 C230 0.930 . S
H253 C231 0.931 . S
H254 C233 0.934 . S
H255 C234 0.930 . S
C256 C257 1.369 . S
C256 C258 1.419 . S
C256 H260 0.930 . S
C257 C256 1.369 . S
C257 C266 1.429 . S
C258 C256 1.419 . S
C258 C259 1.363 . S
C258 H261 0.929 . S
C259 C258 1.363 . S
C259 C265 1.428 . S
H260 C256 0.930 . S
H261 C258 0.929 . S
S262 N263 1.613 . S
S262 N264 1.610 . S
N263 S262 1.613 . S
N263 C266 1.350 . S
N264 S262 1.610 . S
N264 C265 1.351 . S
C265 C259 1.428 . S
C265 N264 1.351 . S
C265 C266 1.434 . S
C266 C257 1.429 . S
C266 N263 1.350 . S
C266 C265 1.434 . S
C267 C268 1.369 . S
C267 C269 1.419 . S
C267 H271 0.930 . S
C268 C267 1.369 . S
C268 C277 1.429 . S
C269 C267 1.419 . S
C269 C270 1.363 . S
C269 H272 0.929 . S
C270 C269 1.363 . S
C270 C276 1.428 . S
H271 C267 0.930 . S
H272 C269 0.929 . S
S273 N274 1.613 . S
S273 N275 1.610 . S
N274 S273 1.613 . S
N274 C277 1.350 . S
N275 S273 1.610 . S
N275 C276 1.351 . S
C276 C270 1.428 . S
C276 N275 1.351 . S
C276 C277 1.434 . S
C277 C268 1.429 . S
C277 N274 1.350 . S
C277 C276 1.434 . S
C278 C279 1.369 . S
C278 C280 1.419 . S
C278 H282 0.930 . S
C279 C278 1.369 . S
C279 C288 1.429 . S
C280 C278 1.419 . S
C280 C281 1.363 . S
C280 H283 0.929 . S
C281 C280 1.363 . S
C281 C287 1.428 . S
H282 C278 0.930 . S
H283 C280 0.929 . S
S284 N285 1.613 . S
S284 N286 1.610 . S
N285 S284 1.613 . S
N285 C288 1.350 . S
N286 S284 1.610 . S
N286 C287 1.351 . S
C287 C281 1.428 . S
C287 N286 1.351 . S
C287 C288 1.434 . S
C288 C279 1.429 . S
C288 N285 1.350 . S
C288 C287 1.434 . S
C289 C290 1.369 . S
C289 C291 1.419 . S
C289 H293 0.930 . S
C290 C289 1.369 . S
C290 C299 1.429 . S
C291 C289 1.419 . S
C291 C292 1.363 . S
C291 H294 0.929 . S
C292 C291 1.363 . S
C292 C298 1.428 . S
H293 C289 0.930 . S
H294 C291 0.929 . S
S295 N296 1.613 . S
S295 N297 1.610 . S
N296 S295 1.613 . S
N296 C299 1.350 . S
N297 S295 1.610 . S
N297 C298 1.351 . S
C298 C292 1.428 . S
C298 N297 1.351 . S
C298 C299 1.434 . S
C299 C290 1.429 . S
C299 N296 1.350 . S
C299 C298 1.434 . S
C300 C301 1.369 . S
C300 C302 1.419 . S
C300 H304 0.930 . S
C301 C300 1.369 . S
C301 C310 1.429 . S
C302 C300 1.419 . S
C302 C303 1.363 . S
C302 H305 0.929 . S
C303 C302 1.363 . S
C303 C309 1.428 . S
H304 C300 0.930 . S
H305 C302 0.929 . S
S306 N307 1.613 . S
S306 N308 1.610 . S
N307 S306 1.613 . S
N307 C310 1.350 . S
N308 S306 1.610 . S
N308 C309 1.351 . S
C309 C303 1.428 . S
C309 N308 1.351 . S
C309 C310 1.434 . S
C310 C301 1.429 . S
C310 N307 1.350 . S
C310 C309 1.434 . S
C311 C312 1.369 . S
C311 C313 1.419 . S
C311 H315 0.930 . S
C312 C311 1.369 . S
C312 C321 1.429 . S
C313 C311 1.419 . S
C313 C314 1.363 . S
C313 H316 0.929 . S
C314 C313 1.363 . S
C314 C320 1.428 . S
H315 C311 0.930 . S
H316 C313 0.929 . S
S317 N318 1.613 . S
S317 N319 1.610 . S
N318 S317 1.613 . S
N318 C321 1.350 . S
N319 S317 1.610 . S
N319 C320 1.351 . S
C320 C314 1.428 . S
C320 N319 1.351 . S
C320 C321 1.434 . S
C321 C312 1.429 . S
C321 N318 1.350 . S
C321 C320 1.434 . S
C322 C323 1.369 . S
C322 C324 1.419 . S
C322 H326 0.930 . S
C323 C322 1.369 . S
C323 C332 1.429 . S
C324 C322 1.419 . S
C324 C325 1.363 . S
C324 H327 0.929 . S
C325 C324 1.363 . S
C325 C331 1.428 . S
H326 C322 0.930 . S
H327 C324 0.929 . S
S328 N329 1.613 . S
S328 N330 1.610 . S
N329 S328 1.613 . S
N329 C332 1.350 . S
N330 S328 1.610 . S
N330 C331 1.351 . S
C331 C325 1.428 . S
C331 N330 1.351 . S
C331 C332 1.434 . S
C332 C323 1.429 . S
C332 N329 1.350 . S
C332 C331 1.434 . S
C333 C334 1.369 . S
C333 C335 1.419 . S
C333 H337 0.930 . S
C334 C333 1.369 . S
C334 C343 1.429 . S
C335 C333 1.419 . S
C335 C336 1.363 . S
C335 H338 0.929 . S
C336 C335 1.363 . S
C336 C342 1.428 . S
H337 C333 0.930 . S
H338 C335 0.929 . S
S339 N340 1.613 . S
S339 N341 1.610 . S
N340 S339 1.613 . S
N340 C343 1.350 . S
N341 S339 1.610 . S
N341 C342 1.351 . S
C342 C336 1.428 . S
C342 N341 1.351 . S
C342 C343 1.434 . S
C343 C334 1.429 . S
C343 N340 1.350 . S
C343 C342 1.434 . S
C344 C345 1.369 . S
C344 C346 1.419 . S
C344 H348 0.930 . S
C345 C344 1.369 . S
C345 C354 1.429 . S
C346 C344 1.419 . S
C346 C347 1.363 . S
C346 H349 0.929 . S
C347 C346 1.363 . S
C347 C353 1.428 . S
H348 C344 0.930 . S
H349 C346 0.929 . S
S350 N351 1.613 . S
S350 N352 1.610 . S
N351 S350 1.613 . S
N351 C354 1.350 . S
N352 S350 1.610 . S
N352 C353 1.351 . S
C353 C347 1.428 . S
C353 N352 1.351 . S
C353 C354 1.434 . S
C354 C345 1.429 . S
C354 N351 1.350 . S
C354 C353 1.434 . S
C355 C356 1.369 . S
C355 C357 1.419 . S
C355 H359 0.930 . S
C356 C355 1.369 . S
C356 C365 1.429 . S
C357 C355 1.419 . S
C357 C358 1.363 . S
C357 H360 0.929 . S
C358 C357 1.363 . S
C358 C364 1.428 . S
H359 C355 0.930 . S
H360 C357 0.929 . S
S361 N362 1.613 . S
S361 N363 1.610 . S
N362 S361 1.613 . S
N362 C365 1.350 . S
N363 S361 1.610 . S
N363 C364 1.351 . S
C364 C358 1.428 . S
C364 N363 1.351 . S
C364 C365 1.434 . S
C365 C356 1.429 . S
C365 N362 1.350 . S
C365 C364 1.434 . S
C366 C367 1.369 . S
C366 C368 1.419 . S
C366 H370 0.930 . S
C367 C366 1.369 . S
C367 C376 1.429 . S
C368 C366 1.419 . S
C368 C369 1.363 . S
C368 H371 0.929 . S
C369 C368 1.363 . S
C369 C375 1.428 . S
H370 C366 0.930 . S
H371 C368 0.929 . S
S372 N373 1.613 1_455 S
S372 N374 1.610 1_455 S
N373 S372 1.613 1_655 S
N373 C376 1.350 . S
N374 S372 1.610 1_655 S
N374 C375 1.351 . S
C375 C369 1.428 . S
C375 N374 1.351 . S
C375 C376 1.434 . S
C376 C367 1.429 . S
C376 N373 1.350 . S
C376 C375 1.434 . S
C377 C378 1.369 . S
C377 C379 1.419 . S
C377 H381 0.930 . S
C378 C377 1.369 . S
C378 C387 1.429 . S
C379 C377 1.419 . S
C379 C380 1.363 . S
C379 H382 0.929 . S
C380 C379 1.363 . S
C380 C386 1.428 . S
H381 C377 0.930 . S
H382 C379 0.929 . S
S383 N384 1.613 . S
S383 N385 1.610 . S
N384 S383 1.613 . S
N384 C387 1.350 . S
N385 S383 1.610 . S
N385 C386 1.351 . S
C386 C380 1.428 . S
C386 N385 1.351 . S
C386 C387 1.434 . S
C387 C378 1.429 . S
C387 N384 1.350 . S
C387 C386 1.434 . S
C388 C389 1.369 . S
C388 C390 1.419 . S
C388 H392 0.930 . S
C389 C388 1.369 . S
C389 C398 1.429 . S
C390 C388 1.419 . S
C390 C391 1.363 . S
C390 H393 0.929 . S
C391 C390 1.363 . S
C391 C397 1.428 . S
H392 C388 0.930 . S
H393 C390 0.929 . S
S394 N395 1.613 . S
S394 N396 1.610 . S
N395 S394 1.613 . S
N395 C398 1.350 . S
N396 S394 1.610 . S
N396 C397 1.351 . S
C397 C391 1.428 . S
C397 N396 1.351 . S
C397 C398 1.434 . S
C398 C389 1.429 . S
C398 N395 1.350 . S
C398 C397 1.434 . S
C399 C400 1.369 . S
C399 C401 1.419 . S
C399 H403 0.930 . S
C400 C399 1.369 . S
C400 C409 1.429 . S
C401 C399 1.419 . S
C401 C402 1.363 . S
C401 H404 0.929 . S
C402 C401 1.363 . S
C402 C408 1.428 . S
H403 C399 0.930 . S
H404 C401 0.929 . S
S405 N406 1.613 . S
S405 N407 1.610 . S
N406 S405 1.613 . S
N406 C409 1.350 . S
N407 S405 1.610 . S
N407 C408 1.351 . S
C408 C402 1.428 . S
C408 N407 1.351 . S
C408 C409 1.434 . S
C409 C400 1.429 . S
C409 N406 1.350 . S
C409 C408 1.434 . S
C410 C411 1.369 . S
C410 C412 1.419 . S
C410 H414 0.930 . S
C411 C410 1.369 . S
C411 C420 1.429 . S
C412 C410 1.419 . S
C412 C413 1.363 . S
C412 H415 0.929 . S
C413 C412 1.363 . S
C413 C419 1.428 . S
H414 C410 0.930 . S
H415 C412 0.929 . S
S416 N417 1.613 . S
S416 N418 1.610 . S
N417 S416 1.613 . S
N417 C420 1.350 . S
N418 S416 1.610 . S
N418 C419 1.351 . S
C419 C413 1.428 . S
C419 N418 1.351 . S
C419 C420 1.434 . S
C420 C411 1.429 . S
C420 N417 1.350 . S
C420 C419 1.434 . S
C421 C422 1.369 . S
C421 C423 1.419 . S
C421 H425 0.930 . S
C422 C421 1.369 . S
C422 C431 1.429 . S
C423 C421 1.419 . S
C423 C424 1.363 . S
C423 H426 0.929 . S
C424 C423 1.363 . S
C424 C430 1.428 . S
H425 C421 0.930 . S
H426 C423 0.929 . S
S427 N428 1.613 . S
S427 N429 1.610 . S
N428 S427 1.613 . S
N428 C431 1.350 . S
N429 S427 1.610 . S
N429 C430 1.351 . S
C430 C424 1.428 . S
C430 N429 1.351 . S
C430 C431 1.434 . S
C431 C422 1.429 . S
C431 N428 1.350 . S
C431 C430 1.434 . S
C432 C433 1.369 . S
C432 C434 1.419 . S
C432 H436 0.930 . S
C433 C432 1.369 . S
C433 C442 1.429 . S
C434 C432 1.419 . S
C434 C435 1.363 . S
C434 H437 0.929 . S
C435 C434 1.363 . S
C435 C441 1.428 . S
H436 C432 0.930 . S
H437 C434 0.929 . S
S438 N439 1.613 . S
S438 N440 1.610 . S
N439 S438 1.613 . S
N439 C442 1.350 . S
N440 S438 1.610 . S
N440 C441 1.351 . S
C441 C435 1.428 . S
C441 N440 1.351 . S
C441 C442 1.434 . S
C442 C433 1.429 . S
C442 N439 1.350 . S
C442 C441 1.434 . S
C443 C444 1.369 . S
C443 C445 1.419 . S
C443 H447 0.930 . S
C444 C443 1.369 . S
C444 C453 1.429 . S
C445 C443 1.419 . S
C445 C446 1.363 . S
C445 H448 0.929 . S
C446 C445 1.363 . S
C446 C452 1.428 . S
H447 C443 0.930 . S
H448 C445 0.929 . S
S449 N450 1.613 . S
S449 N451 1.610 . S
N450 S449 1.613 . S
N450 C453 1.350 . S
N451 S449 1.610 . S
N451 C452 1.351 . S
C452 C446 1.428 . S
C452 N451 1.351 . S
C452 C453 1.434 . S
C453 C444 1.429 . S
C453 N450 1.350 . S
C453 C452 1.434 . S
C454 C455 1.369 . S
C454 C456 1.419 . S
C454 H458 0.930 . S
C455 C454 1.369 . S
C455 C464 1.429 . S
C456 C454 1.419 . S
C456 C457 1.363 . S
C456 H459 0.929 . S
C457 C456 1.363 . S
C457 C463 1.428 . S
H458 C454 0.930 . S
H459 C456 0.929 . S
S460 N461 1.613 . S
S460 N462 1.610 . S
N461 S460 1.613 . S
N461 C464 1.350 . S
N462 S460 1.610 . S
N462 C463 1.351 . S
C463 C457 1.428 . S
C463 N462 1.351 . S
C463 C464 1.434 . S
C464 C455 1.429 . S
C464 N461 1.350 . S
C464 C463 1.434 . S
C465 C466 1.369 . S
C465 C467 1.419 . S
C465 H469 0.930 . S
C466 C465 1.369 . S
C466 C475 1.429 . S
C467 C465 1.419 . S
C467 C468 1.363 . S
C467 H470 0.929 . S
C468 C467 1.363 . S
C468 C474 1.428 . S
H469 C465 0.930 . S
H470 C467 0.929 . S
S471 N472 1.613 . S
S471 N473 1.610 . S
N472 S471 1.613 . S
N472 C475 1.350 . S
N473 S471 1.610 . S
N473 C474 1.351 . S
C474 C468 1.428 . S
C474 N473 1.351 . S
C474 C475 1.434 . S
C475 C466 1.429 . S
C475 N472 1.350 . S
C475 C474 1.434 . S
C476 C477 1.369 . S
C476 C478 1.419 . S
C476 H480 0.930 . S
C477 C476 1.369 . S
C477 C486 1.429 . S
C478 C476 1.419 . S
C478 C479 1.363 . S
C478 H481 0.929 . S
C479 C478 1.363 . S
C479 C485 1.428 . S
H480 C476 0.930 . S
H481 C478 0.929 . S
S482 N483 1.613 . S
S482 N484 1.610 . S
N483 S482 1.613 . S
N483 C486 1.350 . S
N484 S482 1.610 . S
N484 C485 1.351 . S
C485 C479 1.428 . S
C485 N484 1.351 . S
C485 C486 1.434 . S
C486 C477 1.429 . S
C486 N483 1.350 . S
C486 C485 1.434 . S
C487 C488 1.369 . S
C487 C489 1.419 . S
C487 H491 0.930 . S
C488 C487 1.369 . S
C488 C497 1.429 . S
C489 C487 1.419 . S
C489 C490 1.363 . S
C489 H492 0.929 . S
C490 C489 1.363 . S
C490 C496 1.428 . S
H491 C487 0.930 . S
H492 C489 0.929 . S
S493 N494 1.613 . S
S493 N495 1.610 . S
N494 S493 1.613 . S
N494 C497 1.350 . S
N495 S493 1.610 . S
N495 C496 1.351 . S
C496 C490 1.428 . S
C496 N495 1.351 . S
C496 C497 1.434 . S
C497 C488 1.429 . S
C497 N494 1.350 . S
C497 C496 1.434 . S
C498 C499 1.369 . S
C498 C500 1.419 . S
C498 H502 0.930 . S
C499 C498 1.369 . S
C499 C508 1.429 . S
C500 C498 1.419 . S
C500 C501 1.363 . S
C500 H503 0.929 . S
C501 C500 1.363 . S
C501 C507 1.428 . S
H502 C498 0.930 . S
H503 C500 0.929 . S
S504 N505 1.613 . S
S504 N506 1.610 . S
N505 S504 1.613 . S
N505 C508 1.350 . S
N506 S504 1.610 . S
N506 C507 1.351 . S
C507 C501 1.428 . S
C507 N506 1.351 . S
C507 C508 1.434 . S
C508 C499 1.429 . S
C508 N505 1.350 . S
C508 C507 1.434 . S
C509 C510 1.369 . S
C509 C511 1.419 . S
C509 H513 0.930 . S
C510 C509 1.369 . S
C510 C519 1.429 . S
C511 C509 1.419 . S
C511 C512 1.363 . S
C511 H514 0.929 . S
C512 C511 1.363 . S
C512 C518 1.428 . S
H513 C509 0.930 . S
H514 C511 0.929 . S
S515 N516 1.613 . S
S515 N517 1.610 . S
N516 S515 1.613 . S
N516 C519 1.350 . S
N517 S515 1.610 . S
N517 C518 1.351 . S
C518 C512 1.428 . S
C518 N517 1.351 . S
C518 C519 1.434 . S
C519 C510 1.429 . S
C519 N516 1.350 . S
C519 C518 1.434 . S
C257 C6 1.060 . S
C259 C103 1.090 . S
C268 C18 1.271 . S
C270 C152 1.256 . S
C281 C178 2.589 . S
C279 C28 2.652 . S
C290 C40 1.966 . S
C292 C226 1.930 . S
C303 C138 2.242 . S
C301 C9 2.070 . S
C314 C106 0.919 . S
C312 C16 0.915 . S
C325 C227 1.941 . S
C323 C30 1.977 . S
C336 C195 1.466 . S
C334 C42 1.492 . S
C345 C4 1.507 . S
C347 C223 1.548 . S
C358 C155 2.527 . S
C356 C33 2.600 . S
C367 C45 2.117 . S
C369 C107 2.108 . S
C378 C21 1.195 . S
C380 C192 1.254 . S
C391 C112 1.096 . S
C389 C57 1.080 . S
C400 C66 1.311 . S
C402 C143 1.292 . S
C411 C76 2.701 . S
C413 C187 2.625 . S
C422 C88 1.907 . S
C424 C235 1.881 . S
C433 C54 2.064 . S
C435 C147 2.240 . S
C446 C115 1.031 . S
C444 C64 1.041 . S
C457 C218 1.863 . S
C455 C78 1.919 . S
C468 C186 1.512 . S
C466 C93 1.534 . S
C477 C52 1.456 . S
C479 C232 1.581 . S
C490 C146 2.511 . S
C488 C81 2.592 . S
C501 C98 2.094 . S
C499 C90 2.097 . S
C510 C69 1.183 . S
C512 C183 1.247 . S
