# Generated by pormake.
# Topology sqc, (4,8)-cn, num edge types: 1
# Building blocks:
#     Node 0, Type 0, BuildingBlock: MIFKUJ_clean_linker_1, # of connection points: 4
#     Node 1, Type 0, BuildingBlock: MIFKUJ_clean_linker_1, # of connection points: 4
#     Node 2, Type 0, BuildingBlock: MIFKUJ_clean_linker_1, # of connection points: 4
#     Node 3, Type 0, BuildingBlock: MIFKUJ_clean_linker_1, # of connection points: 4
#     Node 4, Type 0, BuildingBlock: MIFKUJ_clean_linker_1, # of connection points: 4
#     Node 5, Type 0, BuildingBlock: MIFKUJ_clean_linker_1, # of connection points: 4
#     Node 6, Type 0, BuildingBlock: MIFKUJ_clean_linker_1, # of connection points: 4
#     Node 7, Type 0, BuildingBlock: MIFKUJ_clean_linker_1, # of connection points: 4
#     Node 8, Type 1, BuildingBlock: TAGTUT_clean_sbu_3, # of connection points: 8
#     Node 9, Type 1, BuildingBlock: TAGTUT_clean_sbu_3, # of connection points: 8
#     Node 10, Type 1, BuildingBlock: TAGTUT_clean_sbu_3, # of connection points: 8
#     Node 11, Type 1, BuildingBlock: TAGTUT_clean_sbu_3, # of connection points: 8
#     Edge 12, Type (0, 1), BuildingBlock: XUDNAN_clean_linker_2, # of connection points: 2
#     Edge 13, Type (0, 1), BuildingBlock: XUDNAN_clean_linker_2, # of connection points: 2
#     Edge 14, Type (0, 1), BuildingBlock: XUDNAN_clean_linker_2, # of connection points: 2
#     Edge 15, Type (0, 1), BuildingBlock: XUDNAN_clean_linker_2, # of connection points: 2
#     Edge 16, Type (0, 1), BuildingBlock: XUDNAN_clean_linker_2, # of connection points: 2
#     Edge 17, Type (0, 1), BuildingBlock: XUDNAN_clean_linker_2, # of connection points: 2
#     Edge 18, Type (0, 1), BuildingBlock: XUDNAN_clean_linker_2, # of connection points: 2
#     Edge 19, Type (0, 1), BuildingBlock: XUDNAN_clean_linker_2, # of connection points: 2
#     Edge 20, Type (0, 1), BuildingBlock: XUDNAN_clean_linker_2, # of connection points: 2
#     Edge 21, Type (0, 1), BuildingBlock: XUDNAN_clean_linker_2, # of connection points: 2
#     Edge 22, Type (0, 1), BuildingBlock: XUDNAN_clean_linker_2, # of connection points: 2
#     Edge 23, Type (0, 1), BuildingBlock: XUDNAN_clean_linker_2, # of connection points: 2
#     Edge 24, Type (0, 1), BuildingBlock: XUDNAN_clean_linker_2, # of connection points: 2
#     Edge 25, Type (0, 1), BuildingBlock: XUDNAN_clean_linker_2, # of connection points: 2
#     Edge 26, Type (0, 1), BuildingBlock: XUDNAN_clean_linker_2, # of connection points: 2
#     Edge 27, Type (0, 1), BuildingBlock: XUDNAN_clean_linker_2, # of connection points: 2
#     Edge 28, Type (0, 1), BuildingBlock: XUDNAN_clean_linker_2, # of connection points: 2
#     Edge 29, Type (0, 1), BuildingBlock: XUDNAN_clean_linker_2, # of connection points: 2
#     Edge 30, Type (0, 1), BuildingBlock: XUDNAN_clean_linker_2, # of connection points: 2
#     Edge 31, Type (0, 1), BuildingBlock: XUDNAN_clean_linker_2, # of connection points: 2
#     Edge 32, Type (0, 1), BuildingBlock: XUDNAN_clean_linker_2, # of connection points: 2
#     Edge 33, Type (0, 1), BuildingBlock: XUDNAN_clean_linker_2, # of connection points: 2
#     Edge 34, Type (0, 1), BuildingBlock: XUDNAN_clean_linker_2, # of connection points: 2
#     Edge 35, Type (0, 1), BuildingBlock: XUDNAN_clean_linker_2, # of connection points: 2
#     Edge 36, Type (0, 1), BuildingBlock: XUDNAN_clean_linker_2, # of connection points: 2
#     Edge 37, Type (0, 1), BuildingBlock: XUDNAN_clean_linker_2, # of connection points: 2
#     Edge 38, Type (0, 1), BuildingBlock: XUDNAN_clean_linker_2, # of connection points: 2
#     Edge 39, Type (0, 1), BuildingBlock: XUDNAN_clean_linker_2, # of connection points: 2
#     Edge 40, Type (0, 1), BuildingBlock: XUDNAN_clean_linker_2, # of connection points: 2
#     Edge 41, Type (0, 1), BuildingBlock: XUDNAN_clean_linker_2, # of connection points: 2
#     Edge 42, Type (0, 1), BuildingBlock: XUDNAN_clean_linker_2, # of connection points: 2
#     Edge 43, Type (0, 1), BuildingBlock: XUDNAN_clean_linker_2, # of connection points: 2
# Relax obj value: 0.149
# Max RMSD: 0.261
# Mean RMSD: 0.181
data_MOF--net-sqc--node1-TAGTUT_clean_sbu_3--node2-MIFKUJ_clean_linker_1--edge1-XUDNAN_clean_linker_2
_symmetry_space_group_name_H-M    P1
_symmetry_Int_Tables_number       1
_symmetry_cell_setting            triclinic
loop_
_symmetry_equiv_pos_as_xyz
'x, y, z'
_cell_length_a     28.390907
_cell_length_b     28.376746
_cell_length_c     84.429601
_cell_angle_alpha  91.017804
_cell_angle_beta   90.084649
_cell_angle_gamma 89.977364
loop_
_atom_site_label
_atom_site_type_symbol
_atom_site_fract_x
_atom_site_fract_y
_atom_site_fract_z
_atom_type_partial_charge
H0 H 0.97526 0.90848 0.47573 0.0
H1 H 0.90602 0.89271 0.45923 0.0
H2 H 0.8648 0.03898 0.46397 0.0
H3 H 0.93516 0.05491 0.47974 0.0
H4 H 0.04998 0.95923 0.47264 0.0
H5 H 0.93003 0.9522 0.5091 0.0
H6 H 0.85333 0.9639 0.52143 0.0
H7 H 0.88702 0.11087 0.52986 0.0
H8 H 0.96217 0.09962 0.51643 0.0
H9 H 0.10749 0.11619 0.5034 0.0
H10 H 0.17406 0.15642 0.51587 0.0
H11 H 0.21836 0.02495 0.53641 0.0
H12 H 0.15263 0.98456 0.52308 0.0
H13 H 0.03651 0.05581 0.52197 0.0
H14 H 0.1647 0.04666 0.48203 0.0
H15 H 0.24024 0.01672 0.47212 0.0
H16 H 0.18977 0.87408 0.47656 0.0
H17 H 0.11495 0.90396 0.48694 0.0
C18 C 0.96021 0.98275 0.47911 0.0
C19 C 0.95145 0.93716 0.47312 0.0
C20 C 0.91151 0.92812 0.46385 0.0
C21 C 0.8796 0.96454 0.46038 0.0
C22 C 0.88875 0.01021 0.46631 0.0
C23 C 0.92877 0.01926 0.47547 0.0
C24 C 0.00214 0.99274 0.48914 0.0
C25 C 0.04694 0.97976 0.48355 0.0
C26 C 0.99818 0.0179 0.50371 0.0
C27 C 0.95181 0.02517 0.5116 0.0
C28 C 0.92055 0.98719 0.51333 0.0
C29 C 0.87681 0.9938 0.52058 0.0
C30 C 0.86363 0.03838 0.52661 0.0
C31 C 0.89531 0.07624 0.52505 0.0
C32 C 0.93877 0.06973 0.51758 0.0
C33 C 0.12519 0.0476 0.51241 0.0
C34 C 0.13177 0.09608 0.51053 0.0
C35 C 0.16976 0.11903 0.51775 0.0
C36 C 0.20145 0.09415 0.52733 0.0
C37 C 0.19508 0.0452 0.52898 0.0
C38 C 0.15732 0.02207 0.52151 0.0
C39 C 0.08394 0.02465 0.50492 0.0
C40 C 0.03921 0.03492 0.51113 0.0
C41 C 0.08805 0.99464 0.49145 0.0
C42 C 0.13429 0.97755 0.48548 0.0
C43 C 0.1702 0.00895 0.48122 0.0
C44 C 0.21331 0.99184 0.47552 0.0
C45 C 0.22083 0.94311 0.47364 0.0
C46 C 0.18481 0.91182 0.47783 0.0
C47 C 0.14207 0.92887 0.48373 0.0
H48 H 0.34191 0.7927 0.78839 0.0
H49 H 0.30801 0.86578 0.79872 0.0
H50 H 0.22958 0.88148 0.75516 0.0
H51 H 0.2608 0.80635 0.74546 0.0
H52 H 0.30442 0.71068 0.78032 0.0
H53 H 0.39359 0.83186 0.74834 0.0
H54 H 0.40356 0.89097 0.72772 0.0
H55 H 0.31539 0.80778 0.69618 0.0
H56 H 0.30659 0.74874 0.71662 0.0
H57 H 0.32646 0.58521 0.73703 0.0
H58 H 0.36532 0.5222 0.7217 0.0
H59 H 0.50068 0.58533 0.73214 0.0
H60 H 0.46144 0.64866 0.74698 0.0
H61 H 0.38902 0.70306 0.72906 0.0
H62 H 0.25755 0.63738 0.77447 0.0
H63 H 0.2383 0.56733 0.78902 0.0
H64 H 0.3844 0.524 0.7873 0.0
H65 H 0.40422 0.59717 0.77407 0.0
C66 C 0.30468 0.7943 0.76602 0.0
C67 C 0.31714 0.81171 0.7811 0.0
C68 C 0.29815 0.854 0.78691 0.0
C69 C 0.2665 0.88021 0.7777 0.0
C70 C 0.25362 0.86232 0.76265 0.0
C71 C 0.27207 0.81958 0.75696 0.0
C72 C 0.32599 0.74971 0.75992 0.0
C73 C 0.32312 0.70899 0.76913 0.0
C74 C 0.34889 0.74682 0.74511 0.0
C75 C 0.34972 0.78598 0.73388 0.0
C76 C 0.37585 0.82697 0.73707 0.0
C77 C 0.3813 0.86068 0.72532 0.0
C78 C 0.36071 0.85359 0.71028 0.0
C79 C 0.33239 0.81371 0.70754 0.0
C80 C 0.32719 0.7801 0.7192 0.0
C81 C 0.39118 0.62142 0.7431 0.0
C82 C 0.36455 0.58469 0.7363 0.0
C83 C 0.38686 0.54872 0.72757 0.0
C84 C 0.43609 0.54913 0.72552 0.0
C85 C 0.46268 0.58451 0.73322 0.0
C86 C 0.44039 0.62048 0.74181 0.0
C87 C 0.36805 0.66429 0.74951 0.0
C88 C 0.37066 0.70471 0.74033 0.0
C89 C 0.34252 0.66573 0.76387 0.0
C90 C 0.33227 0.62252 0.77292 0.0
C91 C 0.28567 0.61319 0.77737 0.0
C92 C 0.27454 0.57239 0.78547 0.0
C93 C 0.30955 0.53908 0.78904 0.0
C94 C 0.35644 0.54871 0.78476 0.0
C95 C 0.36776 0.59031 0.77696 0.0
H96 H 0.52963 0.05721 0.03285 0.0
H97 H 0.47185 0.02288 0.05097 0.0
H98 H 0.50801 0.88365 0.03337 0.0
H99 H 0.56555 0.91795 0.0155 0.0
H100 H 0.63979 0.96813 0.02979 0.0
H101 H 0.56117 0.12998 2e-05 0.0
H102 H 0.49983 0.15854 0.98227 0.0
H103 H 0.46248 0.01473 0.97014 0.0
H104 H 0.52333 0.98649 0.98817 0.0
H105 H 0.68071 0.02084 0.96697 0.0
H106 H 0.74721 0.03142 0.94945 0.0
H107 H 0.83407 0.07253 0.98951 0.0
H108 H 0.76573 0.06528 0.00695 0.0
H109 H 0.63122 0.07549 0.98428 0.0
H110 H 0.73605 0.94226 0.99539 0.0
H111 H 0.80603 0.90153 0.00532 0.0
H112 H 0.78881 0.97263 0.05068 0.0
H113 H 0.72035 0.01416 0.04052 0.0
C114 C 0.55188 0.99001 0.02295 0.0
C115 C 0.52401 0.01945 0.03261 0.0
C116 C 0.49123 -0.0002 0.04297 0.0
C117 C 0.4863 0.95056 0.04379 0.0
C118 C 0.51189 0.92162 0.03324 0.0
C119 C 0.54441 0.94117 0.02294 0.0
C120 C 0.59394 0.0084 0.01488 0.0
C121 C 0.63794 0.99196 0.01989 0.0
C122 C 0.59158 0.03988 0.0022 0.0
C123 C 0.54667 0.0562 0.9954 0.0
C124 C 0.53857 0.10468 0.99398 0.0
C125 C 0.50388 0.1209 0.98371 0.0
C126 C 0.47707 0.08886 0.97456 0.0
C127 C 0.48246 0.04028 0.97706 0.0
C128 C 0.51712 0.02406 0.98741 0.0
C129 C 0.71817 0.04185 0.98832 0.0
C130 C 0.71386 0.03274 0.97201 0.0
C131 C 0.75232 0.03801 0.96201 0.0
C132 C 0.79645 0.0518 0.96808 0.0
C133 C 0.80064 0.06183 0.98442 0.0
C134 C 0.7617 0.05727 0.99443 0.0
C135 C 0.67699 0.03351 -0.0013 0.0
C136 C 0.63323 0.05249 0.99439 0.0
C137 C 0.67932 0.00357 0.01186 0.0
C138 C 0.72353 0.98155 0.0172 0.0
C139 C 0.74809 0.94965 0.00736 0.0
C140 C 0.7877 0.92614 0.01309 0.0
C141 C 0.80302 0.93399 0.02876 0.0
C142 C 0.77853 0.96646 0.03846 0.0
C143 C 0.73919 0.98997 0.03273 0.0
H144 H 0.25155 0.22016 0.28901 0.0
H145 H 0.26085 0.15726 0.30815 0.0
H146 H 0.35718 0.08544 0.2763 0.0
H147 H 0.34676 0.1481 0.25704 0.0
H148 H 0.33136 0.27273 0.28031 0.0
H149 H 0.20557 0.18392 0.25527 0.0
H150 H 0.17105 0.11215 0.24369 0.0
H151 H 0.28105 0.10791 0.20839 0.0
H152 H 0.31562 0.17971 0.22012 0.0
H153 H 0.33986 0.33385 0.21449 0.0
H154 H 0.33114 0.40736 0.1999 0.0
H155 H 0.24915 0.46642 0.23852 0.0
H156 H 0.2582 0.39345 0.25294 0.0
H157 H 0.27327 0.27137 0.22484 0.0
H158 H 0.40283 0.35492 0.25061 0.0
H159 H 0.44418 0.41962 0.26408 0.0
H160 H 0.33003 0.43133 0.29787 0.0
H161 H 0.2907 0.36473 0.28485 0.0
C162 C 0.2987 0.18881 0.2717 0.0
C163 C 0.27379 0.19027 0.28602 0.0
C164 C 0.2793 0.15444 0.29695 0.0
C165 C 0.31031 0.11679 0.29383 0.0
C166 C 0.33278 0.1138 0.279 0.0
C167 C 0.327 0.14962 0.26801 0.0
C168 C 0.29958 0.23092 0.26165 0.0
C169 C 0.3181 0.27254 0.26824 0.0
C170 C 0.28423 0.23003 0.24574 0.0
C171 C 0.26315 0.18701 0.23855 0.0
C172 C 0.22234 0.16739 0.24508 0.0
C173 C 0.20262 0.12651 0.23844 0.0
C174 C 0.22351 0.10435 0.22519 0.0
C175 C 0.26459 0.1239 0.21873 0.0
C176 C 0.28406 0.1651 0.2253 0.0
C177 C 0.3001 0.3583 0.23486 0.0
C178 C 0.32028 0.36281 0.21981 0.0
C179 C 0.31529 0.40484 0.21152 0.0
C180 C 0.28976 0.44298 0.2181 0.0
C181 C 0.27001 0.43832 0.23325 0.0
C182 C 0.27498 0.39643 0.24149 0.0
C183 C 0.30403 0.31368 0.24368 0.0
C184 C 0.28675 0.27148 0.23686 0.0
C185 C 0.321 0.3136 0.25941 0.0
C186 C 0.34385 0.35526 0.26678 0.0
C187 C 0.38681 0.37171 0.26089 0.0
C188 C 0.41024 0.40887 0.26858 0.0
C189 C 0.39069 0.43073 0.28217 0.0
C190 C 0.34686 0.41472 0.28772 0.0
C191 C 0.32399 0.37697 0.28021 0.0
H192 H 0.78963 0.25813 0.20912 0.0
H193 H 0.80043 0.32722 0.19254 0.0
H194 H 0.85842 0.40437 0.23249 0.0
H195 H 0.85034 0.3345 0.24891 0.0
H196 H 0.85209 0.20682 0.22181 0.0
H197 H 0.71928 0.29444 0.24373 0.0
H198 H 0.68247 0.36572 0.25498 0.0
H199 H 0.78335 0.36599 0.29331 0.0
H200 H 0.81978 0.29447 0.28208 0.0
H201 H 0.84977 0.13246 0.28437 0.0
H202 H 0.83233 0.0582 0.2978 0.0
H203 H 0.73782 0.01837 0.25975 0.0
H204 H 0.75546 0.09212 0.24641 0.0
H205 H 0.77707 0.20353 0.27483 0.0
H206 H 0.91412 0.11982 0.24981 0.0
H207 H 0.95264 0.05407 0.23593 0.0
H208 H 0.83614 0.04676 0.20283 0.0
H209 H 0.79969 0.11434 0.21626 0.0
C210 C 0.81875 0.29118 0.23032 0.0
C211 C 0.80466 0.28987 0.21435 0.0
C212 C 0.81065 0.32919 0.20491 0.0
C213 C 0.82998 0.37066 0.21137 0.0
C214 C 0.84297 0.37264 0.22739 0.0
C215 C 0.83801 0.33292 0.23677 0.0
C216 C 0.81599 0.24783 0.23981 0.0
C217 C 0.83521 0.20628 0.23333 0.0
C218 C 0.79528 0.24706 0.25505 0.0
C219 C 0.77225 0.28932 0.26208 0.0
C220 C 0.73338 0.30987 0.25456 0.0
C221 C 0.71242 0.35047 0.26098 0.0
C222 C 0.73033 0.37149 0.27493 0.0
C223 C 0.76927 0.35083 0.28243 0.0
C224 C 0.78977 0.30981 0.27613 0.0
C225 C 0.80386 0.11757 0.26445 0.0
C226 C 0.82568 0.10743 0.27891 0.0
C227 C 0.81603 0.065 0.28646 0.0
C228 C 0.78384 0.0327 0.27975 0.0
C229 C 0.76271 0.04274 0.26515 0.0
C230 C 0.77278 0.08474 0.25754 0.0
C231 C 0.81218 0.16283 0.25656 0.0
C232 C 0.79418 0.20459 0.26336 0.0
C233 C 0.83333 0.16399 0.24149 0.0
C234 C 0.85426 0.12166 0.23399 0.0
C235 C 0.897 0.10374 0.23959 0.0
C236 C 0.91877 0.06599 0.23167 0.0
C237 C 0.89772 0.0451 0.21816 0.0
C238 C 0.85406 0.06258 0.21292 0.0
C239 C 0.83284 0.10086 0.22067 0.0
H240 H 0.77692 0.89788 0.7453 0.0
H241 H 0.76564 0.96756 0.72925 0.0
H242 H 0.84299 0.90094 0.69098 0.0
H243 H 0.85585 0.83151 0.70735 0.0
H244 H 0.80199 0.76904 0.71899 0.0
H245 H 0.8029 0.87313 0.77757 0.0
H246 H 0.84157 0.93729 0.79241 0.0
H247 H 0.95999 0.92939 0.76045 0.0
H248 H 0.92058 0.86587 0.74539 0.0
H249 H 0.90853 0.71249 0.77304 0.0
H250 H 0.91641 0.65214 0.79311 0.0
H251 H 0.77313 0.60794 0.78456 0.0
H252 H 0.76453 0.66985 0.76461 0.0
H253 H 0.85351 0.78459 0.77495 0.0
H254 H 0.86972 0.65037 0.742 0.0
H255 H 0.85061 0.57306 0.73167 0.0
H256 H 0.72787 0.63104 0.70839 0.0
H257 H 0.7432 0.70651 0.72114 0.0
C258 C 0.81802 0.85958 0.72768 0.0
C259 C 0.79259 0.89856 0.73362 0.0
C260 C 0.78604 0.93842 0.72442 0.0
C261 C 0.80388 0.93984 0.70894 0.0
C262 C 0.82895 0.90075 0.7029 0.0
C263 C 0.83613 0.86105 0.71222 0.0
C264 C 0.82441 0.81712 0.73755 0.0
C265 C 0.81321 0.7722 0.73124 0.0
C266 C 0.84 0.82099 0.75339 0.0
C267 C 0.85883 0.86519 0.76036 0.0
C268 C 0.83655 0.88623 0.7735 0.0
C269 C 0.85861 0.92275 0.78194 0.0
C270 C 0.90375 0.93793 0.77757 0.0
C271 C 0.92522 0.91809 0.76403 0.0
C272 C 0.90269 0.88217 0.7554 0.0
C273 C 0.83585 0.69592 0.7674 0.0
C274 C 0.87875 0.6898 0.77539 0.0
C275 C 0.88333 0.65531 0.78679 0.0
C276 C 0.8453 0.62589 0.79031 0.0
C277 C 0.80287 0.63036 0.78192 0.0
C278 C 0.79801 0.66554 0.77057 0.0
C279 C 0.83074 0.7362 0.75657 0.0
C280 C 0.84191 0.78095 0.76273 0.0
C281 C 0.81681 0.73133 0.74047 0.0
C282 C 0.80707 0.68438 0.73294 0.0
C283 C 0.83764 0.64615 0.73518 0.0
C284 C 0.82718 0.60169 0.72879 0.0
C285 C 0.78736 0.5946 0.71903 0.0
C286 C 0.75798 0.63372 0.7162 0.0
C287 C 0.76729 0.67768 0.72326 0.0
H288 H 0.43163 0.4448 0.99681 0.0
H289 H 0.35597 0.42791 0.98404 0.0
H290 H 0.38562 0.53317 0.94902 0.0
H291 H 0.46159 0.54915 0.96173 0.0
H292 H 0.53698 0.48126 0.96786 0.0
H293 H 0.48142 0.48477 0.03102 0.0
H294 H 0.40936 0.49063 0.04672 0.0
H295 H 0.35292 0.59065 0.01364 0.0
H296 H 0.42507 0.58415 0.99789 0.0
H297 H 0.62308 0.61323 0.00687 0.0
H298 H 0.69969 0.63415 0.01813 0.0
H299 H 0.72924 0.48648 0.02527 0.0
H300 H 0.65297 0.46595 0.01344 0.0
H301 H 0.54771 0.55275 0.0218 0.0
H302 H 0.6697 0.54599 0.97946 0.0
H303 H 0.74056 0.50662 0.96964 0.0
H304 H 0.66136 0.37724 0.96359 0.0
H305 H 0.59285 0.4152 0.97505 0.0
C306 C 0.45213 0.4982 0.98019 0.0
C307 C 0.42162 0.46436 0.98643 0.0
C308 C 0.3782 0.45508 0.97919 0.0
C309 C 0.3646 0.47932 0.96553 0.0
C310 C 0.39519 0.51353 0.95943 0.0
C311 C 0.43861 0.5227 0.96665 0.0
C312 C 0.49807 0.50847 0.98784 0.0
C313 C 0.53954 0.49729 0.97959 0.0
C314 C 0.50107 0.52728 0.00341 0.0
C315 C 0.45856 0.53406 0.01332 0.0
C316 C 0.45366 0.50828 0.02724 0.0
C317 C 0.41241 0.51153 0.03616 0.0
C318 C 0.37529 0.54087 0.03137 0.0
C319 C 0.38048 0.56704 0.01748 0.0
C320 C 0.42183 0.56375 0.00856 0.0
C321 C 0.63256 0.53812 0.0093 0.0
C322 C 0.64608 0.58545 0.01093 0.0
C323 C 0.68987 0.59731 0.01741 0.0
C324 C 0.72085 0.56204 0.02261 0.0
C325 C 0.70676 0.51454 0.02114 0.0
C326 C 0.663 0.5027 0.01454 0.0
C327 C 0.58699 0.5263 0.0017 0.0
C328 C 0.54545 0.53729 0.00997 0.0
C329 C 0.58413 0.50423 0.98654 0.0
C330 C 0.62608 0.48332 0.97851 0.0
C331 C 0.6679 0.5089 0.97631 0.0
C332 C 0.70837 0.4864 0.97043 0.0
C333 C 0.70738 0.43821 0.96612 0.0
C334 C 0.66444 0.41376 0.96736 0.0
C335 C 0.62464 0.43581 0.97365 0.0
H336 H 0.04099 0.51562 0.48235 0.0
H337 H 0.98431 0.5356 0.46182 0.0
H338 H 0.00368 0.68354 0.47292 0.0
H339 H 0.06011 0.66319 0.49369 0.0
H340 H 0.14185 0.616 0.48555 0.0
H341 H 0.0603 0.45829 0.50453 0.0
H342 H 0.99582 0.41486 0.51654 0.0
H343 H 0.96032 0.53795 0.54501 0.0
H344 H 0.02387 0.58184 0.53229 0.0
H345 H 0.20338 0.54959 0.54655 0.0
H346 H 0.26675 0.50541 0.55921 0.0
H347 H 0.30529 0.4447 0.51374 0.0
H348 H 0.24117 0.48806 0.50124 0.0
H349 H 0.12895 0.50636 0.53036 0.0
H350 H 0.2604 0.61013 0.51766 0.0
H351 H 0.3375 0.6247 0.50538 0.0
H352 H 0.27989 0.58674 0.45963 0.0
H353 H 0.2041 0.56962 0.47181 0.0
C354 C 0.05399 0.58786 0.48981 0.0
C355 C 0.03159 0.55224 0.48086 0.0
C356 C -0.0005 0.56374 0.46901 0.0
C357 C 0.98983 0.61113 0.46572 0.0
C358 C 0.01091 0.64672 0.4751 0.0
C359 C 0.04276 0.63516 0.48704 0.0
C360 C 0.09459 0.57613 0.49999 0.0
C361 C 0.13911 0.59255 0.49552 0.0
C362 C 0.09108 0.54501 0.51275 0.0
C363 C 0.04634 0.52322 0.51746 0.0
C364 C 0.0375 0.47633 0.51295 0.0
C365 C 0.00103 0.45146 0.51996 0.0
C366 C 0.97354 0.4727 0.53195 0.0
C367 C 0.98065 0.52069 0.53575 0.0
C368 C 0.01692 0.54581 0.52853 0.0
C369 C 0.21794 0.5224 0.52296 0.0
C370 C 0.22589 0.52716 0.53931 0.0
C371 C 0.26221 0.50211 0.5465 0.0
C372 C 0.2909 0.47152 0.53747 0.0
C373 C 0.28345 0.46764 0.52103 0.0
C374 C 0.24717 0.49273 0.51385 0.0
C375 C 0.17657 0.54517 0.51567 0.0
C376 C 0.13188 0.53106 0.52074 0.0
C377 C 0.18037 0.57622 0.50281 0.0
C378 C 0.22642 0.58844 0.49568 0.0
C379 C 0.26445 0.60455 0.50501 0.0
C380 C 0.30825 0.61307 0.49804 0.0
C381 C 0.31396 0.60681 0.48166 0.0
C382 C 0.27584 0.59196 0.4723 0.0
C383 C 0.23258 0.5825 0.47926 0.0
C384 C 0.12918 0.65608 0.14882 0.0
C385 C 0.95187 0.60943 0.14033 0.0
C386 C 0.97178 0.664 0.09369 0.0
Mg387 Mg 0.18554 0.74498 0.13498 0.0
Mg388 Mg 0.13374 0.83508 0.11782 0.0
O389 O 0.13952 0.76972 0.11913 0.0
Mg390 Mg 0.08407 0.73096 0.12497 0.0
O391 O 0.03149 0.68935 0.13094 0.0
Mg392 Mg 0.0537 0.62941 0.12076 0.0
Mg393 Mg 0.96963 0.70868 0.12671 0.0
C394 C 0.04484 0.80525 0.09779 0.0
O395 O 0.05043 0.78673 0.14133 0.0
O396 O 0.24164 0.79048 0.12203 0.0
O397 O 0.9719 0.7775 0.13847 0.0
O398 O 0.17241 0.80801 0.15319 0.0
O399 O 0.20375 0.84941 0.10989 0.0
O400 O 0.12592 0.86055 0.14135 0.0
O401 O 0.1149 0.67239 0.1093 0.0
O402 O 0.19031 0.68411 0.11671 0.0
C403 C 0.15883 0.66109 0.10874 0.0
C404 C 0.24157 0.82702 0.11321 0.0
O405 O 0.04426 0.76444 0.10414 0.0
O406 O 0.99115 0.59459 0.13444 0.0
O407 O 0.07388 0.83777 0.102 0.0
O408 O 0.00457 0.63728 0.09884 0.0
O409 O 0.93744 0.65186 0.13878 0.0
O410 O 0.95558 0.69819 0.10205 0.0
O411 O 0.12618 0.69989 0.14536 0.0
O412 O 0.10316 0.62493 0.14193 0.0
C413 C 0.14771 0.84599 0.1535 0.0
C414 C 0.00784 0.79923 0.14423 0.0
C415 C 0.65739 0.81596 0.39005 0.0
C416 C 0.74845 0.6594 0.385 0.0
C417 C 0.65152 0.63189 0.34499 0.0
Mg418 Mg 0.55296 0.84695 0.37919 0.0
Mg419 Mg 0.46497 0.77347 0.37041 0.0
O420 O 0.5291 0.78728 0.36927 0.0
Mg421 Mg 0.58267 0.74448 0.37436 0.0
O422 O 0.64055 0.70704 0.37902 0.0
Mg423 Mg 0.68473 0.73496 0.36323 0.0
Mg424 Mg 0.64142 0.64181 0.38085 0.0
C425 C 0.50454 0.67979 0.35407 0.0
O426 O 0.54721 0.70748 0.39588 0.0
O427 O 0.4919 0.8858 0.36693 0.0
O428 O 0.58471 0.6375 0.39762 0.0
O429 O 0.50355 0.83859 0.40089 0.0
O430 O 0.43788 0.83376 0.35797 0.0
O431 O 0.44743 0.78559 0.39486 0.0
O432 O 0.62195 0.77663 0.35358 0.0
O433 O 0.59883 0.85152 0.3571 0.0
C434 C 0.62278 0.82003 0.34961 0.0
C435 C 0.45377 0.87587 0.35941 0.0
O436 O 0.54723 0.68952 0.35798 0.0
O437 O 0.74471 0.69442 0.37566 0.0
O438 O 0.46881 0.70443 0.35857 0.0
O439 O 0.67344 0.67153 0.34506 0.0
O440 O 0.71297 0.63415 0.38877 0.0
O441 O 0.63271 0.61543 0.35741 0.0
O442 O 0.61411 0.80284 0.38985 0.0
O443 O 0.68925 0.7952 0.38169 0.0
C444 C 0.46631 0.81549 0.40445 0.0
C445 C 0.55335 0.66707 0.40237 0.0
C446 C 0.64405 0.15408 0.63882 0.0
C447 C 0.46974 0.10107 0.64017 0.0
C448 C 0.45475 0.1872 0.59898 0.0
Mg449 Mg 0.6936 0.24568 0.62442 0.0
Mg450 Mg 0.63794 0.34562 0.6162 0.0
O451 O 0.6391 0.27968 0.6147 0.0
Mg452 Mg 0.58726 0.23888 0.62244 0.0
O453 O 0.5394 0.19311 0.63006 0.0
Mg454 Mg 0.55334 0.13934 0.615 0.0
Mg455 Mg 0.47649 0.20772 0.63416 0.0
C456 C 0.5359 0.32428 0.60223 0.0
O457 O 0.56365 0.28998 0.64271 0.0
O458 O 0.74093 0.29331 0.6094 0.0
O459 O 0.48796 0.2716 0.64819 0.0
O460 O 0.69923 0.29975 0.64529 0.0
O461 O 0.70079 0.35802 0.6024 0.0
O462 O 0.65394 0.36244 0.64052 0.0
O463 O 0.60557 0.18748 0.60224 0.0
O464 O 0.68415 0.19426 0.60372 0.0
C465 C 0.64703 0.17599 0.59756 0.0
C466 C 0.73784 0.33217 0.60191 0.0
O467 O 0.53779 0.28113 0.60657 0.0
O468 O 0.50216 0.09474 0.62976 0.0
O469 O 0.56782 0.35488 0.6058 0.0
O470 O 0.49032 0.15926 0.59846 0.0
O471 O 0.45544 0.14213 0.64449 0.0
O472 O 0.44508 0.21206 0.6113 0.0
O473 O 0.64016 0.19903 0.63762 0.0
O474 O 0.61505 0.12571 0.63187 0.0
C475 C 0.6819 0.33976 0.64947 0.0
C476 C 0.52471 0.29742 0.65017 0.0
C477 C 0.15545 0.31647 0.89472 0.0
C478 C 0.24794 0.16042 0.89122 0.0
C479 C 0.17435 0.14116 0.84587 0.0
Mg480 Mg 0.05593 0.34893 0.87999 0.0
Mg481 Mg 0.97108 0.27603 0.86825 0.0
O482 O 0.03523 0.28986 0.86853 0.0
Mg483 Mg 0.08661 0.24576 0.87513 0.0
O484 O 0.14309 0.20749 0.88121 0.0
Mg485 Mg 0.19301 0.23945 0.86819 0.0
Mg486 Mg 0.14485 0.14182 0.88087 0.0
C487 C 0.01261 0.18147 0.8528 0.0
O488 O 0.04336 0.20442 0.8939 0.0
O489 O -0.00126 0.38894 0.86619 0.0
O490 O 0.07796 0.13231 0.89265 0.0
O491 O 0.00043 0.33933 0.89985 0.0
O492 O 0.94544 0.33784 0.85618 0.0
O493 O 0.94977 0.2824 0.89251 0.0
O494 O 0.13302 0.28065 0.85671 0.0
O495 O 0.10918 0.3555 0.85969 0.0
C496 C 0.13546 0.32416 0.85309 0.0
C497 C 0.96162 0.37974 0.85802 0.0
O498 O 0.05495 0.19059 0.85749 0.0
O499 O 0.24775 0.19687 0.88241 0.0
O500 O 0.9771 0.20773 0.85635 0.0
O501 O 0.19271 0.18185 0.84816 0.0
O502 O 0.21153 0.13423 0.89284 0.0
O503 O 0.1518 0.12001 0.85665 0.0
O504 O 0.11258 0.30335 0.89253 0.0
O505 O 0.18977 0.29619 0.88748 0.0
C506 C 0.96469 0.31312 0.90255 0.0
C507 C 0.04517 0.16036 0.89741 0.0
H508 H 0.22964 0.87884 0.4495 0.0
H509 H 0.3116 0.96717 0.4816 0.0
H510 H 0.38518 0.93748 0.46914 0.0
H511 H 0.3094 0.77818 0.44704 0.0
H512 H 0.29753 0.7691 0.42618 0.0
H513 H 0.25314 0.79448 0.4389 0.0
H514 H 0.24789 0.86588 0.42015 0.0
H515 H 0.29301 0.84049 0.40774 0.0
H516 H 0.3004 0.89908 0.41595 0.0
H517 H 0.44933 0.90155 0.45184 0.0
H518 H 0.49798 0.86605 0.43045 0.0
H519 H 0.37277 0.80142 0.41005 0.0
C520 C 0.26313 0.89122 0.45411 0.0
C521 C 0.26513 0.9248 0.46661 0.0
C522 C 0.30948 0.94134 0.47202 0.0
C523 C 0.35134 0.92446 0.4651 0.0
C524 C 0.3481 0.89126 0.45275 0.0
C525 C 0.30503 0.87513 0.44726 0.0
C526 C 0.31062 0.84253 0.43304 0.0
C527 C 0.2916 0.79311 0.43652 0.0
C528 C 0.28657 0.86325 0.41836 0.0
C529 C 0.36366 0.84252 0.43138 0.0
C530 C 0.38478 0.87072 0.44286 0.0
C531 C 0.43323 0.87887 0.44293 0.0
C532 C 0.4606 0.85856 0.43074 0.0
C533 C 0.43941 0.83031 0.4187 0.0
C534 C 0.39039 0.8217 0.41928 0.0
H535 H 0.36514 0.95056 0.71067 0.0
H536 H 0.38377 0.82725 0.68012 0.0
H537 H 0.40755 0.87818 0.65825 0.0
H538 H 0.32105 0.02945 0.67978 0.0
H539 H 0.35205 0.07992 0.6878 0.0
H540 H 0.33238 0.03417 0.70077 0.0
H541 H 0.41764 0.02407 0.7112 0.0
H542 H 0.43754 0.06969 0.69827 0.0
H543 H 0.46457 0.01222 0.69732 0.0
H544 H 0.4363 0.94053 0.64061 0.0
H545 H 0.4662 0.01188 0.62778 0.0
H546 H 0.42799 0.09564 0.66935 0.0
C547 C 0.3738 0.93442 0.69932 0.0
C548 C 0.37213 0.88503 0.69704 0.0
C549 C 0.38384 0.86509 0.68204 0.0
C550 C 0.3976 0.89368 0.66956 0.0
C551 C 0.39925 0.94214 0.67223 0.0
C552 C 0.38742 0.9625 0.68668 0.0
C553 C 0.39429 0.01542 0.68655 0.0
C554 C 0.34713 0.04126 0.68886 0.0
C555 C 0.43068 0.03126 0.69907 0.0
C556 C 0.41295 0.02131 0.6699 0.0
C557 C 0.41533 0.97856 0.66186 0.0
C558 C 0.43404 0.97437 0.64668 0.0
C559 C 0.45111 0.01502 0.63953 0.0
C560 C 0.44912 0.05922 0.64755 0.0
C561 C 0.42922 0.06241 0.66285 0.0
H562 H 0.38878 0.05902 0.96509 0.0
H563 H 0.50123 0.15599 0.95336 0.0
H564 H 0.45647 0.18169 0.93006 0.0
H565 H 0.3603 0.02416 0.92487 0.0
H566 H 0.29775 0.02135 0.92837 0.0
H567 H 0.33843 0.01028 0.94428 0.0
H568 H 0.29885 0.07576 0.96143 0.0
H569 H 0.25777 0.08666 0.94564 0.0
H570 H 0.29306 0.13423 0.95364 0.0
H571 H 0.40036 0.19684 0.90808 0.0
H572 H 0.33353 0.2045 0.88967 0.0
H573 H 0.25745 0.09716 0.91533 0.0
C574 C 0.40393 0.08562 0.9576 0.0
C575 C 0.4483 0.1058 0.96114 0.0
C576 C 0.46687 0.14071 0.95109 0.0
C577 C 0.44198 0.1552 0.93772 0.0
C578 C 0.39859 0.13438 0.93451 0.0
C579 C 0.37948 0.10061 0.94419 0.0
C580 C 0.33165 0.08471 0.93819 0.0
C581 C 0.33209 0.03199 0.93366 0.0
C582 C 0.29306 0.09604 0.95046 0.0
C583 C 0.32687 0.11503 0.92369 0.0
C584 C 0.36605 0.14314 0.92174 0.0
C585 C 0.36947 0.17496 0.90943 0.0
C586 C 0.33131 0.17897 0.89902 0.0
C587 C 0.29017 0.1514 0.90101 0.0
C588 C 0.28848 0.11844 0.91337 0.0
H589 H 0.26604 0.02216 0.21504 0.0
H590 H 0.13067 0.09276 0.21788 0.0
H591 H 0.09384 0.02653 0.20316 0.0
H592 H 0.25553 0.9808 0.17657 0.0
H593 H 0.28368 0.92469 0.17955 0.0
H594 H 0.29812 0.97416 0.19224 0.0
H595 H 0.27603 0.92559 0.21685 0.0
H596 H 0.26136 0.87588 0.20418 0.0
H597 H 0.21851 0.89899 0.21801 0.0
H598 H 0.07541 0.96243 0.18408 0.0
H599 H 0.07518 0.9011 0.16319 0.0
H600 H 0.21954 0.86525 0.17443 0.0
C601 C 0.2285 0.02316 0.21278 0.0
C602 C 0.20111 0.06245 0.21763 0.0
C603 C 0.15214 0.06271 0.21446 0.0
C604 C 0.13093 0.02527 0.20611 0.0
C605 C 0.15902 0.98743 0.20126 0.0
C606 C 0.20661 0.98566 0.20465 0.0
C607 C 0.22929 0.94239 0.19709 0.0
C608 C 0.26897 0.95637 0.18568 0.0
C609 C 0.24736 0.90872 0.20979 0.0
C610 C 0.1875 0.92146 0.18824 0.0
C611 C 0.14728 0.948 0.19093 0.0
C612 C 0.10601 0.94015 0.18239 0.0
C613 C 0.10605 0.90491 0.17062 0.0
C614 C 0.14646 0.87678 0.16777 0.0
C615 C 0.18744 0.8846 0.17694 0.0
H616 H 0.29188 0.06395 0.53408 0.0
H617 H 0.19619 0.18197 0.54123 0.0
H618 H 0.25665 0.22354 0.55688 0.0
H619 H 0.33464 0.06427 0.5728 0.0
H620 H 0.39426 0.04843 0.56767 0.0
H621 H 0.34646 0.03083 0.55489 0.0
H622 H 0.38702 0.07185 0.53135 0.0
H623 H 0.43492 0.08985 0.54414 0.0
H624 H 0.40277 0.13326 0.53315 0.0
H625 H 0.3222 0.24846 0.5743 0.0
H626 H 0.38778 0.25368 0.5933 0.0
H627 H 0.4422 0.11993 0.57548 0.0
C628 C 0.28375 0.09872 0.5388 0.0
C629 C 0.23929 0.11981 0.53616 0.0
C630 C 0.23026 0.1654 0.54263 0.0
C631 C 0.26439 0.18936 0.55162 0.0
C632 C 0.30754 0.16742 0.55409 0.0
C633 C 0.31741 0.12312 0.54791 0.0
C634 C 0.3649 0.10574 0.55363 0.0
C635 C 0.35973 0.05961 0.56279 0.0
C636 C 0.39945 0.09984 0.53973 0.0
C637 C 0.37923 0.14644 0.56447 0.0
C638 C 0.34589 0.18194 0.56433 0.0
C639 C 0.34897 0.2213 0.57433 0.0
C640 C 0.38639 0.22389 0.58511 0.0
C641 C 0.42053 0.18752 0.58575 0.0
C642 C 0.41741 0.14888 0.57499 0.0
H643 H 0.31029 0.9473 0.79654 0.0
H644 H 0.17694 0.91537 0.77345 0.0
H645 H 0.14282 0.98786 0.78511 0.0
H646 H 0.26081 0.98206 0.8325 0.0
H647 H 0.30353 0.02749 0.83683 0.0
H648 H 0.31953 0.97775 0.82451 0.0
H649 H 0.34481 0.03436 0.8023 0.0
H650 H 0.32839 0.08437 0.81455 0.0
H651 H 0.30335 0.07701 0.79503 0.0
H652 H 0.12058 0.05929 0.80145 0.0
H653 H 0.11108 0.12009 0.82262 0.0
H654 H 0.25666 0.10191 0.83635 0.0
C655 C 0.27398 0.95553 0.7938 0.0
C656 C 0.24654 0.92548 0.78393 0.0
C657 C 0.19921 0.93811 0.78065 0.0
C658 C 0.1794 0.97927 0.78726 0.0
C659 C 0.2073 0.00756 0.79714 0.0
C660 C 0.25353 0.99609 0.80045 0.0
C661 C 0.27449 0.02943 0.81276 0.0
C662 C 0.2905 0.00258 0.82752 0.0
C663 C 0.31517 0.05799 0.80573 0.0
C664 C 0.23234 0.06051 0.81627 0.0
C665 C 0.19418 0.04799 0.80689 0.0
C666 C 0.15036 0.06964 0.80873 0.0
C667 C 0.14508 0.10376 0.82082 0.0
C668 C 0.18305 0.11517 0.83099 0.0
C669 C 0.22749 0.09439 0.82841 0.0
H670 H 0.3964 0.97409 0.05301 0.0
H671 H 0.51138 0.87806 0.06277 0.0
H672 H 0.46314 0.83938 0.08304 0.0
H673 H 0.35382 0.98562 0.09396 0.0
H674 H 0.29283 0.98701 0.08803 0.0
H675 H 0.33761 0.00936 0.07505 0.0
H676 H 0.30867 0.95292 0.0526 0.0
H677 H 0.26386 0.93048 0.06549 0.0
H678 H 0.3052 0.89057 0.05617 0.0
H679 H 0.40127 0.80842 0.10118 0.0
H680 H 0.32904 0.78609 0.11545 0.0
H681 H 0.25462 0.90256 0.09393 0.0
C682 C 0.41155 0.94538 0.05959 0.0
C683 C 0.45744 0.92888 0.05629 0.0
C684 C 0.47598 0.8908 0.06498 0.0
C685 C 0.44905 0.86886 0.0766 0.0
C686 C 0.40371 0.88555 0.07944 0.0
C687 C 0.38506 0.92293 0.0712 0.0
C688 C 0.33453 0.93232 0.07597 0.0
C689 C 0.32942 0.9815 0.08372 0.0
C690 C 0.30111 0.92618 0.06171 0.0
C691 C 0.32751 0.89384 0.08792 0.0
C692 C 0.36795 0.86755 0.08988 0.0
C693 C 0.36944 0.82899 0.09987 0.0
C694 C 0.32823 0.81658 0.10792 0.0
C695 C 0.28609 0.84254 0.10585 0.0
C696 C 0.28621 0.88205 0.09587 0.0
H697 H 0.32433 0.02052 0.292 0.0
H698 H 0.32895 0.14064 0.32457 0.0
H699 H 0.35946 0.0898 0.34549 0.0
H700 H 0.29216 0.93156 0.3219 0.0
H701 H 0.32889 0.88679 0.31288 0.0
H702 H 0.30226 0.93137 0.30083 0.0
H703 H 0.38456 0.95397 0.29013 0.0
H704 H 0.41144 0.90971 0.30219 0.0
H705 H 0.43062 0.97013 0.30392 0.0
H706 H 0.3989 0.02998 0.36165 0.0
H707 H 0.44027 0.96186 0.37295 0.0
H708 H 0.40818 0.87853 0.33074 0.0
C709 C 0.33105 0.03586 0.30362 0.0
C710 C 0.32371 0.08446 0.30669 0.0
C711 C 0.33321 0.10335 0.32202 0.0
C712 C 0.35084 0.07481 0.33398 0.0
C713 C 0.35846 0.02735 0.33049 0.0
C714 C 0.34842 0.00773 0.31578 0.0
C715 C 0.36229 0.95612 0.315 0.0
C716 C 0.3188 0.9246 0.31251 0.0
C717 C 0.39944 0.94698 0.30204 0.0
C718 C 0.38298 0.95035 0.33141 0.0
C719 C 0.3803 0.99198 0.34012 0.0
C720 C 0.40041 0.99688 0.3551 0.0
C721 C 0.42402 0.95818 0.36137 0.0
C722 C 0.42685 0.91509 0.35274 0.0
C723 C 0.40555 0.9109 0.33767 0.0
H724 H 0.80563 0.11598 0.52637 0.0
H725 H 0.81896 0.97688 0.54649 0.0
H726 H 0.74821 0.99172 0.56263 0.0
H727 H 0.78381 0.17232 0.56129 0.0
H728 H 0.74339 0.21519 0.55354 0.0
H729 H 0.78703 0.18904 0.54081 0.0
H730 H 0.72112 0.16175 0.52139 0.0
H731 H 0.67712 0.18738 0.5343 0.0
H732 H 0.67338 0.12605 0.52851 0.0
H733 H 0.68644 0.02659 0.58027 0.0
H734 H 0.64456 0.08046 0.59886 0.0
H735 H 0.67264 0.19717 0.56806 0.0
C736 C 0.79329 0.08824 0.53396 0.0
C737 C 0.81795 0.04515 0.53503 0.0
C738 C 0.80031 0.00984 0.54513 0.0
C739 C 0.76001 0.01795 0.55438 0.0
C740 C 0.73742 0.06142 0.55339 0.0
C741 C 0.75352 0.09599 0.5434 0.0
C742 C 0.72787 0.14209 0.54624 0.0
C743 C 0.76258 0.18195 0.55075 0.0
C744 C 0.6981 0.15507 0.53174 0.0
C745 C 0.69688 0.12894 0.56004 0.0
C746 C 0.70169 0.08183 0.56369 0.0
C747 C 0.68115 0.0631 0.57723 0.0
C748 C 0.65709 0.09374 0.58767 0.0
C749 C 0.65424 0.14231 0.58448 0.0
C750 C 0.67273 0.15967 0.57027 0.0
H751 H 0.6944 0.00716 0.28658 0.0
H752 H 0.83969 0.96519 0.29328 0.0
H753 H 0.81317 0.89741 0.3092 0.0
H754 H 0.65923 0.98652 0.32508 0.0
H755 H 0.60089 0.96652 0.31987 0.0
H756 H 0.63134 0.00662 0.30723 0.0
H757 H 0.62066 0.94826 0.2835 0.0
H758 H 0.59033 0.90778 0.29614 0.0
H759 H 0.64131 0.88844 0.28511 0.0
H760 H 0.76989 0.83722 0.32592 0.0
H761 H 0.71537 0.79666 0.34413 0.0
H762 H 0.59997 0.88189 0.32708 0.0
C763 C 0.72054 0.98295 0.29106 0.0
C764 C 0.76894 0.99068 0.28854 0.0
C765 C 0.80236 0.95943 0.29504 0.0
C766 C 0.78759 0.92079 0.30397 0.0
C767 C 0.73938 0.91429 0.30632 0.0
C768 C 0.70647 0.94487 0.30013 0.0
C769 C 0.6573 0.9338 0.30574 0.0
C770 C 0.63598 0.97584 0.31503 0.0
C771 C 0.62554 0.91866 0.29179 0.0
C772 C 0.66763 0.89291 0.3164 0.0
C773 C 0.71492 0.88124 0.31634 0.0
C774 C 0.73274 0.84576 0.32592 0.0
C775 C 0.70158 0.8227 0.33615 0.0
C776 C 0.65365 0.83614 0.33685 0.0
C777 C 0.63649 0.87082 0.32661 0.0
H778 H 0.87269 0.96675 0.04845 0.0
H779 H 0.8224 0.83986 0.02445 0.0
H780 H 0.88348 0.79347 0.03804 0.0
H781 H 0.99813 0.93507 0.04943 0.0
H782 H 0.00622 0.96093 0.0689 0.0
H783 H 0.96272 0.98474 0.05569 0.0
H784 H 0.89847 0.97352 0.0771 0.0
H785 H 0.94161 0.94936 0.09031 0.0
H786 H 0.88954 0.91596 0.08529 0.0
H787 H 0.944 0.75968 0.05653 0.0
H788 H 0.00321 0.74249 0.07717 0.0
H789 H 0.01056 0.89118 0.08965 0.0
C790 C 0.87471 0.92925 0.04594 0.0
C791 C 0.84281 0.90692 0.0354 0.0
C792 C 0.8469 0.85784 0.03232 0.0
C793 C 0.88117 0.83112 0.04008 0.0
C794 C 0.91093 0.85405 0.05084 0.0
C795 C 0.90831 0.9021 0.05365 0.0
C796 C 0.94249 0.91798 0.06639 0.0
C797 C 0.97959 0.95166 0.05969 0.0
C798 C 0.91646 0.94052 0.08061 0.0
C799 C 0.96402 0.87118 0.0706 0.0
C800 C 0.94561 0.83471 0.06146 0.0
C801 C 0.95886 0.788 0.06369 0.0
C802 C 0.99191 0.77848 0.07557 0.0
C803 C 0.01078 0.81538 0.08513 0.0
C804 C 0.9969 0.86228 0.08246 0.0
H805 H 0.87451 0.02406 0.78879 0.0
H806 H 0.99112 0.9255 0.79012 0.0
H807 H 0.03176 0.97674 0.80984 0.0
H808 H 0.94683 0.13033 0.79225 0.0
H809 H 0.90393 0.16132 0.80422 0.0
H810 H 0.88503 0.11725 0.78997 0.0
H811 H 0.84125 0.07321 0.81221 0.0
H812 H 0.86052 0.1168 0.82656 0.0
H813 H 0.87338 0.05539 0.82954 0.0
H814 H 0.05567 0.03496 0.83122 0.0
H815 H 0.06702 0.10218 0.84983 0.0
H816 H 0.93763 0.16531 0.833 0.0
C817 C 0.90879 0.01363 0.79315 0.0
C818 C 0.92985 0.97105 0.78801 0.0
C819 C 0.97476 0.95834 0.79386 0.0
C820 C 0.99786 0.98697 0.80512 0.0
C821 C 0.97572 0.02835 0.8102 0.0
C822 C 0.93264 0.04214 0.80419 0.0
C823 C 0.91686 0.08866 0.81142 0.0
C824 C 0.91295 0.12664 0.79871 0.0
C825 C 0.87024 0.08315 0.82047 0.0
C826 C 0.95745 0.09854 0.82261 0.0
C827 C 0.99078 0.06311 0.82187 0.0
C828 C 0.03034 0.06346 0.83164 0.0
C829 C 0.03669 0.10188 0.8421 0.0
C830 C 0.00419 0.13966 0.8425 0.0
C831 C 0.96359 0.13733 0.83282 0.0
H832 H 0.82193 0.88692 0.46057 0.0
H833 H 0.84283 0.02024 0.43716 0.0
H834 H 0.77616 0.00217 0.41932 0.0
H835 H 0.80266 0.82117 0.42641 0.0
H836 H 0.75922 0.78266 0.43481 0.0
H837 H 0.80291 0.80988 0.44736 0.0
H838 H 0.73671 0.84542 0.46505 0.0
H839 H 0.69273 0.8186 0.45238 0.0
H840 H 0.69161 0.88127 0.45624 0.0
H841 H 0.71577 0.96477 0.40155 0.0
H842 H 0.66872 0.9094 0.38488 0.0
H843 H 0.68699 0.80103 0.41974 0.0
C844 C 0.81217 0.91261 0.45182 0.0
C845 C 0.8375 0.95513 0.45034 0.0
C846 C 0.82346 0.98781 0.43874 0.0
C847 C 0.7856 0.97785 0.42853 0.0
C848 C 0.76189 0.93525 0.43015 0.0
C849 C 0.77461 0.90317 0.44153 0.0
C850 C 0.74688 0.85787 0.43977 0.0
C851 C 0.77988 0.81543 0.43691 0.0
C852 C 0.71509 0.85037 0.45422 0.0
C853 C 0.71805 0.86865 0.42519 0.0
C854 C 0.72649 0.91381 0.41997 0.0
C855 C 0.70777 0.92987 0.40575 0.0
C856 C 0.68097 0.89846 0.3964 0.0
C857 C 0.67324 0.85194 0.40142 0.0
C858 C 0.69097 0.83723 0.4161 0.0
H859 H 0.8981 0.02732 0.18598 0.0
H860 H 0.95069 0.97316 0.23048 0.0
H861 H 0.98922 0.90775 0.21595 0.0
H862 H 0.86792 0.91602 0.1692 0.0
H863 H 0.88441 0.93114 0.14932 0.0
H864 H 0.86494 0.97643 0.163 0.0
H865 H 0.94242 0.02273 0.15848 0.0
H866 H 0.96207 0.9775 0.14476 0.0
H867 H 0.99821 0.99387 0.16155 0.0
H868 H 0.01997 0.84706 0.19682 0.0
H869 H 0.03769 0.79281 0.17434 0.0
H870 H 0.95915 0.88241 0.14272 0.0
C871 C 0.91738 0.00164 0.19275 0.0
C872 C 0.92137 0.00573 0.20943 0.0
C873 C 0.94777 0.97155 0.2177 0.0
C874 C 0.96961 0.93405 0.20956 0.0
C875 C 0.96443 0.93097 0.19318 0.0
C876 C 0.93878 0.96366 0.18486 0.0
C877 C 0.9366 0.95092 0.16738 0.0
C878 C 0.88543 0.94316 0.16191 0.0
C879 C 0.9613 0.9885 0.15746 0.0
C880 C 0.96413 0.9053 0.16722 0.0
C881 C 0.98059 0.89491 0.18219 0.0
C882 C 0.00724 0.85476 0.18506 0.0
C883 C 0.01723 0.82436 0.17226 0.0
C884 C -0.00013 0.83397 0.15695 0.0
C885 C 0.97288 0.87473 0.15437 0.0
H886 H 0.86738 0.11834 0.96899 0.0
H887 H 0.81809 0.99536 0.94243 0.0
H888 H 0.87772 0.00963 0.92201 0.0
H889 H 0.88843 0.19057 0.93876 0.0
H890 H 0.94304 0.21606 0.94603 0.0
H891 H 0.90082 0.19308 0.9597 0.0
H892 H 0.96406 0.13769 0.97109 0.0
H893 H 0.00674 0.16121 0.95756 0.0
H894 H 0.99614 0.09862 0.95794 0.0
H895 H 0.93632 0.04074 0.90337 0.0
H896 H 0.99614 0.08388 0.88822 0.0
H897 H 0.00881 0.18698 0.92654 0.0
C898 C 0.87 0.09353 0.95914 0.0
C899 C 0.83724 0.05632 0.95719 0.0
C900 C 0.84175 0.025 0.94399 0.0
C901 C 0.87588 0.03245 0.93239 0.0
C902 C 0.90616 0.07063 0.93434 0.0
C903 C 0.90458 0.0999 0.94756 0.0
C904 C 0.94045 0.13926 0.9464 0.0
C905 C 0.91674 0.18768 0.94779 0.0
C906 C 0.97915 0.13386 0.959 0.0
C907 C 0.95963 0.12972 0.92989 0.0
C908 C 0.94015 0.08909 0.92339 0.0
C909 C 0.95215 0.07237 0.90835 0.0
C910 C 0.98582 0.09721 0.89982 0.0
C911 C 0.00643 0.13877 0.9062 0.0
C912 C 0.99286 0.15565 0.92135 0.0
H913 H 0.76888 0.9381 0.67887 0.0
H914 H 0.81295 0.03369 0.71665 0.0
H915 H 0.78639 0.10155 0.70089 0.0
H916 H 0.79636 0.01643 0.645 0.0
H917 H 0.74465 0.99725 0.63428 0.0
H918 H 0.77433 0.9574 0.64736 0.0
H919 H 0.69621 0.94435 0.66254 0.0
H920 H 0.66642 0.98411 0.64957 0.0
H921 H 0.66508 0.99458 0.67069 0.0
H922 H 0.74709 0.15815 0.68209 0.0
H923 H 0.69484 0.19726 0.66281 0.0
H924 H 0.67572 0.06358 0.63788 0.0
C925 C 0.77438 0.97342 0.68359 0.0
C926 C 0.79344 0.9808 0.69886 0.0
C927 C 0.79853 0.02741 0.70491 0.0
C928 C 0.78383 0.06611 0.69602 0.0
C929 C 0.76413 0.05756 0.6811 0.0
C930 C 0.75948 0.01227 0.67494 0.0
C931 C 0.7325 0.01188 0.65949 0.0
C932 C 0.76384 0.99473 0.64572 0.0
C933 C 0.68739 0.98199 0.66066 0.0
C934 C 0.72126 0.06375 0.65817 0.0
C935 C 0.74055 0.08981 0.67054 0.0
C936 C 0.73233 0.13816 0.67225 0.0
C937 C 0.70269 0.16012 0.66123 0.0
C938 C 0.68111 0.13344 0.64889 0.0
C939 C 0.69168 0.08497 0.64719 0.0
H940 H 0.78191 0.47311 0.9486 0.0
H941 H 0.73163 0.34574 0.97095 0.0
H942 H 0.79727 0.30132 0.95916 0.0
H943 H 0.81913 0.42374 0.91327 0.0
H944 H 0.87202 0.45831 0.91141 0.0
H945 H 0.82289 0.48142 0.9225 0.0
H946 H 0.87657 0.49383 0.94707 0.0
H947 H 0.92603 0.47078 0.93602 0.0
H948 H 0.90979 0.44486 0.95457 0.0
H949 H 0.8574 0.26854 0.94096 0.0
H950 H 0.91846 0.25056 0.9207 0.0
H951 H 0.93885 0.3998 0.91373 0.0
C952 C 0.78523 0.43621 0.95142 0.0
C953 C 0.7505 0.41296 0.96044 0.0
C954 C 0.75642 0.36434 0.96361 0.0
C955 C 0.79408 0.33875 0.95714 0.0
C956 C 0.82668 0.36244 0.94795 0.0
C957 C 0.82348 0.41028 0.94542 0.0
C958 C 0.86286 0.42672 0.93473 0.0
C959 C 0.84302 0.44883 0.91959 0.0
C960 C 0.89577 0.46108 0.94363 0.0
C961 C 0.88733 0.38023 0.93114 0.0
C962 C 0.86558 0.34361 0.93883 0.0
C963 C 0.87676 0.29671 0.9355 0.0
C964 C 0.91128 0.28684 0.92406 0.0
C965 C 0.93487 0.32373 0.91639 0.0
C966 C 0.92318 0.37104 0.92013 0.0
H967 H 0.89036 0.37439 0.18655 0.0
H968 H 0.79003 0.45755 0.21373 0.0
H969 H 0.80598 0.52627 0.19682 0.0
H970 H 0.97463 0.46565 0.18288 0.0
H971 H 0.99282 0.44858 0.16315 0.0
H972 H 0.97011 0.40498 0.17635 0.0
H973 H 0.90677 0.38137 0.15554 0.0
H974 H 0.92925 0.42503 0.14228 0.0
H975 H 0.86799 0.42584 0.14786 0.0
H976 H 0.83388 0.58527 0.17757 0.0
H977 H 0.87682 0.63442 0.15882 0.0
H978 H 0.96306 0.51401 0.14492 0.0
C979 C 0.87141 0.40701 0.18872 0.0
C980 C 0.83861 0.41111 0.20119 0.0
C981 C 0.81504 0.4542 0.2041 0.0
C982 C 0.82374 0.49308 0.19455 0.0
C983 C 0.85643 0.48806 0.18232 0.0
C984 C 0.88029 0.44632 0.17948 0.0
C985 C 0.91629 0.45139 0.1664 0.0
C986 C 0.96642 0.44212 0.17257 0.0
C987 C 0.90434 0.41898 0.15217 0.0
C988 C 0.90931 0.50271 0.16244 0.0
C989 C 0.87406 0.52286 0.1716 0.0
C990 C 0.86149 0.56994 0.1703 0.0
C991 C 0.88615 0.59752 0.15956 0.0
C992 C 0.92349 0.57812 0.15037 0.0
C993 C 0.93473 0.52988 0.15174 0.0
H994 H 0.90562 0.57188 0.45657 0.0
H995 H 0.00837 0.67741 0.44349 0.0
H996 H 0.96104 0.69619 0.41986 0.0
H997 H 0.87771 0.53075 0.41655 0.0
H998 H 0.81598 0.52315 0.42077 0.0
H999 H 0.85899 0.51645 0.43629 0.0
H1000 H 0.81582 0.57962 0.45346 0.0
H1001 H 0.77249 0.58606 0.43808 0.0
H1002 H 0.8045 0.63688 0.44534 0.0
H1003 H 0.90164 0.70493 0.39814 0.0
H1004 H 0.83119 0.70777 0.38109 0.0
H1005 H 0.76753 0.596 0.40831 0.0
C1006 C 0.91832 0.59864 0.44865 0.0
C1007 C 0.96057 0.62325 0.45185 0.0
C1008 C 0.97576 0.65855 0.44135 0.0
C1009 C 0.94941 0.6691 0.42782 0.0
C1010 C 0.90806 0.64397 0.42496 0.0
C1011 C 0.8924 0.60971 0.43513 0.0
C1012 C 0.84552 0.58964 0.42979 0.0
C1013 C 0.84983 0.53687 0.4256 0.0
C1014 C 0.80734 0.59861 0.44241 0.0
C1015 C 0.83693 0.61846 0.41516 0.0
C1016 C 0.87367 0.64918 0.41247 0.0
C1017 C 0.87277 0.68082 0.40005 0.0
C1018 C 0.83259 0.68205 0.3904 0.0
C1019 C 0.79373 0.65206 0.39331 0.0
C1020 C 0.7967 0.61909 0.40563 0.0
H1021 H 0.70151 0.55815 0.70844 0.0
H1022 H 0.85048 0.52268 0.71172 0.0
H1023 H 0.83444 0.44639 0.69904 0.0
H1024 H 0.65163 0.43923 0.71097 0.0
H1025 H 0.60889 0.449 0.6956 0.0
H1026 H 0.62803 0.49747 0.70811 0.0
H1027 H 0.65312 0.54491 0.68372 0.0
H1028 H 0.63293 0.49776 0.67097 0.0
H1029 H 0.69265 0.51858 0.6694 0.0
H1030 H 0.80452 0.37612 0.68407 0.0
H1031 H 0.76624 0.32463 0.66406 0.0
H1032 H 0.64055 0.41119 0.66672 0.0
C1033 C 0.73113 0.53478 0.7066 0.0
C1034 C 0.77732 0.5472 0.71159 0.0
C1035 C 0.81433 0.5143 0.7088 0.0
C1036 C 0.80569 0.47051 0.70145 0.0
C1037 C 0.76003 0.46001 0.69658 0.0
C1038 C 0.72351 0.49158 0.69876 0.0
C1039 C 0.67943 0.47507 0.69016 0.0
C1040 C 0.63965 0.46459 0.70192 0.0
C1041 C 0.66365 0.5112 0.67783 0.0
C1042 C 0.69753 0.43014 0.68236 0.0
C1043 C 0.74353 0.42116 0.68673 0.0
C1044 C 0.76838 0.38258 0.68064 0.0
C1045 C 0.74625 0.3534 0.66932 0.0
C1046 C 0.70026 0.36383 0.66387 0.0
C1047 C 0.67536 0.40202 0.6708 0.0
H1048 H 0.74094 0.63711 0.04248 0.0
H1049 H 0.80571 0.51583 0.01922 0.0
H1050 H 0.88118 0.53503 0.03239 0.0
H1051 H 0.84581 0.71453 0.04043 0.0
H1052 H 0.83425 0.74142 0.05954 0.0
H1053 H 0.78605 0.72102 0.04729 0.0
H1054 H 0.75575 0.66837 0.06983 0.0
H1055 H 0.80288 0.68916 0.08234 0.0
H1056 H 0.79533 0.6268 0.07876 0.0
H1057 H 0.94723 0.56301 0.05022 0.0
H1058 H 0.99684 0.59554 0.07183 0.0
H1059 H 0.8897 0.70081 0.0822 0.0
C1060 C 0.77121 0.61521 0.03978 0.0
C1061 C 0.76719 0.57491 0.02978 0.0
C1062 C 0.80758 0.54654 0.02698 0.0
C1063 C 0.8508 0.55749 0.03427 0.0
C1064 C 0.85333 0.59729 0.04415 0.0
C1065 C 0.81461 0.62585 0.04683 0.0
C1066 C 0.82559 0.66475 0.05876 0.0
C1067 C 0.82275 0.71332 0.05105 0.0
C1068 C 0.79297 0.66206 0.07328 0.0
C1069 C 0.87591 0.65241 0.06292 0.0
C1070 C 0.8916 0.61386 0.0542 0.0
C1071 C 0.9356 0.5937 0.05693 0.0
C1072 C 0.96357 0.61246 0.06924 0.0
C1073 C 0.9473 0.65083 0.07872 0.0
C1074 C 0.90356 0.67189 0.07508 0.0
H1075 H 0.77262 0.45311 0.28545 0.0
H1076 H 0.63672 0.38459 0.28072 0.0
H1077 H 0.59911 0.45167 0.29484 0.0
H1078 H 0.75841 0.49558 0.32358 0.0
H1079 H 0.78784 0.5511 0.32081 0.0
H1080 H 0.80281 0.50106 0.30847 0.0
H1081 H 0.78429 0.54931 0.28343 0.0
H1082 H 0.76906 0.59959 0.29575 0.0
H1083 H 0.7274 0.57682 0.28142 0.0
H1084 H 0.57949 0.51699 0.31364 0.0
H1085 H 0.57832 0.57903 0.33441 0.0
H1086 H 0.72441 0.61147 0.32491 0.0
C1087 C 0.73482 0.45278 0.28715 0.0
C1088 C 0.70746 0.41382 0.282 0.0
C1089 C 0.65815 0.41437 0.28443 0.0
C1090 C 0.63653 0.4523 0.29242 0.0
C1091 C 0.6646 0.48983 0.29761 0.0
C1092 C 0.71257 0.49077 0.29487 0.0
C1093 C 0.7351 0.53384 0.3026 0.0
C1094 C 0.77326 0.51952 0.31457 0.0
C1095 C 0.75514 0.56685 0.29005 0.0
C1096 C 0.69274 0.55568 0.3108 0.0
C1097 C 0.65236 0.52978 0.30768 0.0
C1098 C 0.61032 0.53871 0.31567 0.0
C1099 C 0.60982 0.57429 0.32736 0.0
C1100 C 0.65053 0.60152 0.33065 0.0
C1101 C 0.6922 0.59276 0.32201 0.0
H1102 H 0.88527 0.49523 0.54356 0.0
H1103 H 0.99105 0.38452 0.54279 0.0
H1104 H 0.94142 0.33663 0.56006 0.0
H1105 H 0.85478 0.48411 0.58432 0.0
H1106 H 0.79282 0.49495 0.58143 0.0
H1107 H 0.83526 0.52006 0.56818 0.0
H1108 H 0.79278 0.48073 0.54419 0.0
H1109 H 0.75004 0.4557 0.55737 0.0
H1110 H 0.78288 0.41797 0.544 0.0
H1111 H 0.88316 0.30207 0.57816 0.0
H1112 H 0.81744 0.28114 0.59558 0.0
H1113 H 0.74883 0.41413 0.5852 0.0
C1114 C 0.89783 0.46083 0.54698 0.0
C1115 C 0.9418 0.44342 0.54163 0.0
C1116 C 0.95702 0.3982 0.54638 0.0
C1117 C 0.92928 0.37083 0.55631 0.0
C1118 C 0.88641 0.38913 0.56144 0.0
C1119 C 0.87053 0.43292 0.55693 0.0
C1120 C 0.82335 0.44437 0.56445 0.0
C1121 C 0.82679 0.48849 0.57524 0.0
C1122 C 0.785 0.45001 0.55174 0.0
C1123 C 0.8156 0.40032 0.57399 0.0
C1124 C 0.85248 0.36902 0.57205 0.0
C1125 C 0.85392 0.32616 0.57976 0.0
C1126 C 0.81641 0.31471 0.58969 0.0
C1127 C 0.77787 0.34599 0.59181 0.0
C1128 C 0.77768 0.38942 0.58384 0.0
H1129 H 0.84685 0.52932 0.78903 0.0
H1130 H 0.8574 0.64979 0.82107 0.0
H1131 H 0.87912 0.59729 0.84291 0.0
H1132 H 0.80342 0.44247 0.81926 0.0
H1133 H 0.83813 0.39535 0.81069 0.0
H1134 H 0.81521 0.44108 0.79828 0.0
H1135 H 0.89957 0.45811 0.78825 0.0
H1136 H 0.92282 0.41293 0.80073 0.0
H1137 H 0.94534 0.47219 0.80239 0.0
H1138 H 0.91183 0.53559 0.85972 0.0
H1139 H 0.94985 0.46623 0.87138 0.0
H1140 H 0.91719 0.38348 0.82909 0.0
C1141 C 0.85205 0.5441 0.80081 0.0
C1142 C 0.84993 0.59323 0.80357 0.0
C1143 C 0.85845 0.61204 0.81892 0.0
C1144 C 0.87071 0.58255 0.83135 0.0
C1145 C 0.87412 0.53434 0.82821 0.0
C1146 C 0.86456 0.51499 0.81339 0.0
C1147 C 0.87544 0.46261 0.81291 0.0
C1148 C 0.83036 0.43367 0.81012 0.0
C1149 C 0.91303 0.4508 0.80033 0.0
C1150 C 0.89435 0.45612 0.82954 0.0
C1151 C 0.89282 0.49798 0.83816 0.0
C1152 C 0.91227 0.50232 0.85325 0.0
C1153 C 0.93409 0.46289 0.85972 0.0
C1154 C 0.93602 0.41964 0.85116 0.0
C1155 C 0.91523 0.41598 0.83598 0.0
H1156 H 0.37059 0.54866 0.06358 0.0
H1157 H 0.28307 0.54596 0.02143 0.0
H1158 H 0.21285 0.56212 0.03797 0.0
H1159 H 0.28104 0.49724 0.09124 0.0
H1160 H 0.30041 0.5354 0.10725 0.0
H1161 H 0.34188 0.5151 0.09248 0.0
H1162 H 0.36462 0.60161 0.08665 0.0
H1163 H 0.32362 0.62199 0.1014 0.0
H1164 H 0.3191 0.64287 0.08142 0.0
H1165 H 0.15455 0.58984 0.05867 0.0
H1166 H 0.11575 0.63165 0.08108 0.0
H1167 H 0.24164 0.61376 0.1095 0.0
C1168 C 0.33645 0.54975 0.05786 0.0
C1169 C 0.33227 0.54578 0.04124 0.0
C1170 C 0.28712 0.54916 0.03416 0.0
C1171 C 0.24698 0.55777 0.04348 0.0
C1172 C 0.25252 0.5624 0.05985 0.0
C1173 C 0.29622 0.55826 0.06696 0.0
C1174 C 0.29407 0.57035 0.08445 0.0
C1175 C 0.30499 0.52692 0.09444 0.0
C1176 C 0.32727 0.61166 0.08871 0.0
C1177 C 0.2429 0.5844 0.08592 0.0
C1178 C 0.21905 0.57851 0.07174 0.0
C1179 C 0.17258 0.59369 0.06992 0.0
C1180 C 0.15073 0.61726 0.08273 0.0
C1181 C 0.1758 0.62595 0.09698 0.0
C1182 C 0.22156 0.60736 0.09875 0.0
H1183 H 0.2279 0.48785 0.78619 0.0
H1184 H 0.36128 0.4916 0.81144 0.0
H1185 H 0.3353 0.42471 0.82748 0.0
H1186 H 0.16096 0.477 0.81951 0.0
H1187 H 0.11635 0.44001 0.81053 0.0
H1188 H 0.1495 0.47969 0.79853 0.0
H1189 H 0.17499 0.40982 0.78026 0.0
H1190 H 0.14188 0.36978 0.79229 0.0
H1191 H 0.20363 0.35942 0.78872 0.0
H1192 H 0.29082 0.3647 0.84322 0.0
H1193 H 0.22991 0.32252 0.85847 0.0
H1194 H 0.12376 0.36499 0.82475 0.0
C1195 C 0.25204 0.4745 0.79497 0.0
C1196 C 0.29673 0.49528 0.79749 0.0
C1197 C 0.32722 0.47595 0.80901 0.0
C1198 C 0.31271 0.43791 0.81823 0.0
C1199 C 0.26764 0.41964 0.81582 0.0
C1200 C 0.23772 0.43752 0.80449 0.0
C1201 C 0.1888 0.41688 0.80571 0.0
C1202 C 0.15176 0.4557 0.80876 0.0
C1203 C 0.17663 0.3872 0.79086 0.0
C1204 C 0.19518 0.38613 0.81997 0.0
C1205 C 0.24127 0.38686 0.82534 0.0
C1206 C 0.25487 0.36323 0.83896 0.0
C1207 C 0.22022 0.3393 0.84751 0.0
C1208 C 0.1727 0.34029 0.84254 0.0
C1209 C 0.16021 0.36322 0.82852 0.0
H1210 H 0.35335 0.49785 0.56091 0.0
H1211 H 0.30879 0.37809 0.53189 0.0
H1212 H 0.36671 0.32778 0.54537 0.0
H1213 H 0.47697 0.46875 0.56192 0.0
H1214 H 0.48473 0.48803 0.58221 0.0
H1215 H 0.44024 0.51491 0.57011 0.0
H1216 H 0.37672 0.49423 0.59088 0.0
H1217 H 0.42099 0.46716 0.60303 0.0
H1218 H 0.36991 0.43391 0.59683 0.0
H1219 H 0.4286 0.2906 0.56189 0.0
H1220 H 0.49085 0.26816 0.58071 0.0
H1221 H 0.4954 0.41173 0.59922 0.0
C1222 C 0.35577 0.46103 0.55741 0.0
C1223 C 0.32679 0.44192 0.54529 0.0
C1224 C 0.3312 0.39365 0.54096 0.0
C1225 C 0.36376 0.36473 0.54861 0.0
C1226 C 0.39168 0.38468 0.56052 0.0
C1227 C 0.38817 0.43168 0.5649 0.0
C1228 C 0.4223 0.44413 0.57813 0.0
C1229 C 0.45819 0.48114 0.57277 0.0
C1230 C 0.39589 0.46084 0.5931 0.0
C1231 C 0.44546 0.39671 0.58052 0.0
C1232 C 0.42716 0.36296 0.57024 0.0
C1233 C 0.44288 0.31654 0.57012 0.0
C1234 C 0.47798 0.30409 0.58092 0.0
C1235 C 0.49732 0.33804 0.59156 0.0
C1236 C 0.48101 0.38502 0.59127 0.0
H1237 H 0.39307 0.44983 0.31426 0.0
H1238 H 0.44526 0.50052 0.26928 0.0
H1239 H 0.4858 0.56565 0.28332 0.0
H1240 H 0.3652 0.5621 0.33018 0.0
H1241 H 0.38167 0.54814 0.35018 0.0
H1242 H 0.3615 0.50221 0.33686 0.0
H1243 H 0.43842 0.45521 0.34173 0.0
H1244 H 0.4588 0.50108 0.35509 0.0
H1245 H 0.49455 0.48305 0.33843 0.0
H1246 H 0.51761 0.62725 0.302 0.0
H1247 H 0.53501 0.6835 0.32399 0.0
H1248 H 0.45621 0.59676 0.35631 0.0
C1249 C 0.41276 0.47462 0.30728 0.0
C1250 C 0.41597 0.46967 0.29061 0.0
C1251 C 0.44291 0.50275 0.28207 0.0
C1252 C 0.46594 0.54008 0.28993 0.0
C1253 C 0.46142 0.54411 0.30632 0.0
C1254 C 0.43531 0.51245 0.31489 0.0
C1255 C 0.43345 0.52642 0.33227 0.0
C1256 C 0.38243 0.53525 0.33768 0.0
C1257 C 0.45776 0.48922 0.34248 0.0
C1258 C 0.46157 0.57164 0.33207 0.0
C1259 C 0.47819 0.58067 0.31702 0.0
C1260 C 0.50487 0.62053 0.31382 0.0
C1261 C 0.51462 0.65211 0.32633 0.0
C1262 C 0.49701 0.6439 0.34169 0.0
C1263 C 0.47018 0.60332 0.34463 0.0
H1264 H 0.35211 0.46949 0.93361 0.0
H1265 H 0.27776 0.45813 0.9782 0.0
H1266 H 0.20773 0.4277 0.96385 0.0
H1267 H 0.24723 0.50109 0.90868 0.0
H1268 H 0.26935 0.46638 0.89222 0.0
H1269 H 0.30984 0.49513 0.90572 0.0
H1270 H 0.3504 0.41494 0.91095 0.0
H1271 H 0.31032 0.38619 0.89748 0.0
H1272 H 0.31533 0.36611 0.91754 0.0
H1273 H 0.1502 0.38763 0.94481 0.0
H1274 H 0.11436 0.33812 0.92346 0.0
H1275 H 0.22653 0.37839 0.89173 0.0
C1276 C 0.32056 0.46238 0.94034 0.0
C1277 C 0.32037 0.46655 0.95702 0.0
C1278 C 0.27882 0.45504 0.9654 0.0
C1279 C 0.2387 0.4382 0.95734 0.0
C1280 C 0.24049 0.43355 0.94087 0.0
C1281 C 0.28042 0.44564 0.93249 0.0
C1282 C 0.27597 0.43229 0.91516 0.0
C1283 C 0.27556 0.47636 0.90484 0.0
C1284 C 0.3153 0.39783 0.91 0.0
C1285 C 0.22832 0.40864 0.91519 0.0
C1286 C 0.20766 0.41054 0.93 0.0
C1287 C 0.16558 0.38681 0.93309 0.0
C1288 C 0.14528 0.35898 0.92091 0.0
C1289 C 0.16772 0.35472 0.90601 0.0
C1290 C 0.20849 0.38146 0.90301 0.0
H1291 H 0.41838 0.45422 0.72096 0.0
H1292 H 0.50511 0.56895 0.70412 0.0
H1293 H 0.54027 0.51568 0.68408 0.0
H1294 H 0.50593 0.36068 0.71471 0.0
H1295 H 0.46256 0.31803 0.70831 0.0
H1296 H 0.44655 0.36427 0.72218 0.0
H1297 H 0.37911 0.39004 0.70351 0.0
H1298 H 0.39497 0.34401 0.68956 0.0
H1299 H 0.39248 0.40434 0.68328 0.0
H1300 H 0.56016 0.45288 0.66426 0.0
H1301 H 0.56843 0.38205 0.6471 0.0
H1302 H 0.46999 0.30733 0.67676 0.0
C1303 C 0.44495 0.46804 0.71312 0.0
C1304 C 0.45919 0.51572 0.71422 0.0
C1305 C 0.49423 0.53238 0.70375 0.0
C1306 C 0.51419 0.5025 0.69222 0.0
C1307 C 0.49888 0.45596 0.69132 0.0
C1308 C 0.4654 0.43862 0.70155 0.0
C1309 C 0.45433 0.38743 0.69772 0.0
C1310 C 0.46818 0.35573 0.71155 0.0
C1311 C 0.40213 0.38111 0.69325 0.0
C1312 C 0.48613 0.3791 0.68355 0.0
C1313 C 0.51158 0.4191 0.6801 0.0
C1314 C 0.54154 0.42089 0.66709 0.0
C1315 C 0.54633 0.38042 0.65749 0.0
C1316 C 0.52109 0.33888 0.66089 0.0
C1317 C 0.49035 0.33842 0.67404 0.0
H1318 H 0.33685 0.6779 0.46215 0.0
H1319 H 0.39166 0.5513 0.48334 0.0
H1320 H 0.46301 0.55622 0.46652 0.0
H1321 H 0.372 0.6559 0.42337 0.0
H1322 H 0.38699 0.7163 0.4195 0.0
H1323 H 0.34384 0.7028 0.43436 0.0
H1324 H 0.3934 0.75406 0.45377 0.0
H1325 H 0.44182 0.76175 0.44027 0.0
H1326 H 0.45197 0.73532 0.45904 0.0
H1327 H 0.52138 0.56885 0.44478 0.0
H1328 H 0.56739 0.59172 0.42154 0.0
H1329 H 0.47588 0.71268 0.41511 0.0
C1330 C 0.36463 0.65208 0.46349 0.0
C1331 C 0.3596 0.61453 0.47402 0.0
C1332 C 0.39578 0.5807 0.47545 0.0
C1333 C 0.4361 0.58314 0.46592 0.0
C1334 C 0.43954 0.62001 0.45527 0.0
C1335 C 0.40519 0.6543 0.45422 0.0
C1336 C 0.41669 0.68937 0.44154 0.0
C1337 C 0.37757 0.69126 0.42895 0.0
C1338 C 0.42639 0.73803 0.4491 0.0
C1339 C 0.46123 0.66783 0.43483 0.0
C1340 C 0.4741 0.62813 0.44306 0.0
C1341 C 0.51215 0.60035 0.43844 0.0
C1342 C 0.5378 0.61354 0.42509 0.0
C1343 C 0.52529 0.65415 0.41642 0.0
C1344 C 0.48663 0.68175 0.4215 0.0
H1345 H 0.26689 0.44721 0.18675 0.0
H1346 H 0.28843 0.53559 0.22855 0.0
H1347 H 0.25998 0.60468 0.21387 0.0
H1348 H 0.2976 0.5391 0.15676 0.0
H1349 H 0.2527 0.51734 0.14341 0.0
H1350 H 0.28281 0.47732 0.15633 0.0
H1351 H 0.20248 0.4501 0.16753 0.0
H1352 H 0.17225 0.49001 0.15476 0.0
H1353 H 0.16264 0.49337 0.17585 0.0
H1354 H 0.21842 0.66186 0.19549 0.0
H1355 H 0.16642 0.69938 0.1756 0.0
H1356 H 0.17405 0.57257 0.14634 0.0
C1357 C 0.26748 0.48138 0.19266 0.0
C1358 C 0.2801 0.48594 0.20878 0.0
C1359 C 0.27867 0.53115 0.21621 0.0
C1360 C 0.26294 0.5707 0.20793 0.0
C1361 C 0.24928 0.56462 0.19216 0.0
C1362 C 0.25194 0.52103 0.18458 0.0
C1363 C 0.2305 0.52226 0.16821 0.0
C1364 C 0.26816 0.5135 0.15542 0.0
C1365 C 0.18955 0.48687 0.16651 0.0
C1366 C 0.2132 0.57259 0.16804 0.0
C1367 C 0.22514 0.59705 0.18176 0.0
C1368 C 0.20959 0.64324 0.18459 0.0
C1369 C 0.18017 0.66433 0.17327 0.0
C1370 C 0.1661 0.63869 0.15955 0.0
C1371 C 0.18412 0.59294 0.15678 0.0
loop_
_geom_bond_atom_site_label_1
_geom_bond_atom_site_label_2
_geom_bond_distance
_geom_bond_site_symmetry_2
_ccdc_geom_bond_type
H0 C19 0.949 . S
H1 C20 0.950 . S
H2 C22 0.950 1_545 S
H3 C23 0.973 . S
H4 C25 0.950 . S
H5 C28 0.950 1_565 S
H6 C29 0.950 . S
H7 C31 0.951 . S
H8 C32 0.949 . S
H9 C34 0.949 . S
H10 C35 0.950 . S
H11 C37 0.950 1_565 S
H12 C38 0.948 . S
H13 C40 0.950 . S
H14 C43 0.950 1_545 S
H15 C44 0.958 . S
H16 C46 0.951 . S
H17 C47 0.949 . S
C18 C19 1.376 . S
C18 C23 1.371 1_565 S
C18 C24 1.483 . S
C19 H0 0.949 . S
C19 C18 1.376 . S
C19 C20 1.397 . S
C20 H1 0.950 . S
C20 C19 1.397 . S
C20 C21 1.391 . S
C21 C20 1.391 . S
C21 C22 1.405 . S
C22 H2 0.950 1_565 S
C22 C21 1.405 . S
C22 C23 1.361 1_565 S
C23 H3 0.973 . S
C23 C18 1.371 1_545 S
C23 C22 1.361 1_545 S
C24 C18 1.483 . S
C24 C25 1.382 1_655 S
C24 C26 1.403 1_565 S
C25 H4 0.950 . S
C25 C24 1.382 1_455 S
C25 C41 1.411 . S
C26 C24 1.403 1_545 S
C26 C27 1.489 . S
C26 C40 1.411 1_655 S
C27 C26 1.489 . S
C27 C28 1.383 . S
C27 C32 1.382 . S
C28 H5 0.950 1_545 S
C28 C27 1.383 . S
C28 C29 1.395 . S
C29 H6 0.950 . S
C29 C28 1.395 . S
C29 C30 1.288 . S
C30 C29 1.288 . S
C30 C31 1.392 . S
C31 H7 0.951 . S
C31 C30 1.392 . S
C31 C32 1.392 . S
C32 H8 0.949 . S
C32 C27 1.382 . S
C32 C31 1.392 . S
C33 C34 1.376 . S
C33 C38 1.388 1_545 S
C33 C39 1.483 . S
C34 H9 0.949 . S
C34 C33 1.376 . S
C34 C35 1.397 . S
C35 H10 0.950 . S
C35 C34 1.397 . S
C35 C36 1.391 . S
C36 C35 1.391 . S
C36 C37 1.405 . S
C37 H11 0.950 1_545 S
C37 C36 1.405 . S
C37 C38 1.368 1_545 S
C38 H12 0.948 . S
C38 C33 1.388 1_565 S
C38 C37 1.368 1_565 S
C39 C33 1.483 . S
C39 C40 1.382 . S
C39 C41 1.403 1_545 S
C40 H13 0.950 . S
C40 C26 1.411 1_455 S
C40 C39 1.382 . S
C41 C25 1.411 . S
C41 C39 1.403 1_565 S
C41 C42 1.489 . S
C42 C41 1.489 . S
C42 C43 1.383 . S
C42 C47 1.382 . S
C43 H14 0.950 1_565 S
C43 C42 1.383 . S
C43 C44 1.395 . S
C44 H15 0.958 . S
C44 C43 1.395 . S
C44 C45 1.288 . S
C45 C44 1.288 . S
C45 C46 1.392 . S
C46 H16 0.951 . S
C46 C45 1.392 . S
C46 C47 1.392 . S
C47 H17 0.949 . S
C47 C42 1.382 . S
C47 C46 1.392 . S
H48 C67 0.949 . S
H49 C68 0.950 . S
H50 C70 0.950 . S
H51 C71 0.950 . S
H52 C73 0.950 . S
H53 C76 0.950 . S
H54 C77 0.950 . S
H55 C79 0.951 . S
H56 C80 0.949 . S
H57 C82 0.949 . S
H58 C83 0.950 . S
H59 C85 0.950 . S
H60 C86 0.950 . S
H61 C88 0.950 . S
H62 C91 0.950 . S
H63 C92 0.950 . S
H64 C94 0.951 . S
H65 C95 0.949 . S
C66 C67 1.376 . S
C66 C71 1.386 . S
C66 C72 1.483 . S
C67 H48 0.949 . S
C67 C66 1.376 . S
C67 C68 1.397 . S
C68 H49 0.950 . S
C68 C67 1.397 . S
C68 C69 1.391 . S
C69 C68 1.391 . S
C69 C70 1.405 . S
C70 H50 0.950 . S
C70 C69 1.405 . S
C70 C71 1.367 . S
C71 H51 0.950 . S
C71 C66 1.386 . S
C71 C70 1.367 . S
C72 C66 1.483 . S
C72 C73 1.382 . S
C72 C74 1.403 . S
C73 H52 0.950 . S
C73 C72 1.382 . S
C73 C89 1.411 . S
C74 C72 1.403 . S
C74 C75 1.489 . S
C74 C88 1.411 . S
C75 C74 1.489 . S
C75 C76 1.383 . S
C75 C80 1.382 . S
C76 H53 0.950 . S
C76 C75 1.383 . S
C76 C77 1.395 . S
C77 H54 0.950 . S
C77 C76 1.395 . S
C77 C78 1.288 . S
C78 C77 1.288 . S
C78 C79 1.392 . S
C79 H55 0.951 . S
C79 C78 1.392 . S
C79 C80 1.392 . S
C80 H56 0.949 . S
C80 C75 1.382 . S
C80 C79 1.392 . S
C81 C82 1.376 . S
C81 C86 1.386 . S
C81 C87 1.483 . S
C82 H57 0.949 . S
C82 C81 1.376 . S
C82 C83 1.397 . S
C83 H58 0.950 . S
C83 C82 1.397 . S
C83 C84 1.391 . S
C84 C83 1.391 . S
C84 C85 1.405 . S
C85 H59 0.950 . S
C85 C84 1.405 . S
C85 C86 1.367 . S
C86 H60 0.950 . S
C86 C81 1.386 . S
C86 C85 1.367 . S
C87 C81 1.483 . S
C87 C88 1.382 . S
C87 C89 1.403 . S
C88 H61 0.950 . S
C88 C74 1.411 . S
C88 C87 1.382 . S
C89 C73 1.411 . S
C89 C87 1.403 . S
C89 C90 1.489 . S
C90 C89 1.489 . S
C90 C91 1.383 . S
C90 C95 1.382 . S
C91 H62 0.950 . S
C91 C90 1.383 . S
C91 C92 1.395 . S
C92 H63 0.950 . S
C92 C91 1.395 . S
C92 C93 1.288 . S
C93 C92 1.288 . S
C93 C94 1.392 . S
C94 H64 0.951 . S
C94 C93 1.392 . S
C94 C95 1.392 . S
C95 H65 0.949 . S
C95 C90 1.382 . S
C95 C94 1.392 . S
H96 C115 0.949 1_545 S
H97 C116 0.950 . S
H98 C118 0.950 . S
H99 C119 0.950 1_556 S
H100 C121 0.950 . S
H101 C124 0.950 1_554 S
H102 C125 0.950 . S
H103 C127 0.951 . S
H104 C128 0.949 1_565 S
H105 C130 0.949 1_565 S
H106 C131 0.950 . S
H107 C133 0.950 . S
H108 C134 0.950 1_554 S
H109 C136 0.950 . S
H110 C139 0.950 1_556 S
H111 C140 0.950 . S
H112 C142 0.951 . S
H113 C143 0.949 1_545 S
C114 C115 1.376 . S
C114 C119 1.386 . S
C114 C120 1.483 . S
C115 H96 0.949 1_565 S
C115 C114 1.376 . S
C115 C116 1.397 . S
C116 H97 0.950 . S
C116 C115 1.397 . S
C116 C117 1.391 . S
C117 C116 1.391 . S
C117 C118 1.405 . S
C118 H98 0.950 . S
C118 C117 1.405 . S
C118 C119 1.367 . S
C119 H99 0.950 1_554 S
C119 C114 1.386 . S
C119 C118 1.367 . S
C120 C114 1.483 . S
C120 C121 1.382 . S
C120 C122 1.403 1_564 S
C121 H100 0.950 . S
C121 C120 1.382 . S
C121 C137 1.411 . S
C122 C120 1.403 1_546 S
C122 C123 1.489 . S
C122 C136 1.411 . S
C123 C122 1.489 . S
C123 C124 1.383 . S
C123 C128 1.382 . S
C124 H101 0.950 1_556 S
C124 C123 1.383 . S
C124 C125 1.395 . S
C125 H102 0.950 . S
C125 C124 1.395 . S
C125 C126 1.288 . S
C126 C125 1.288 . S
C126 C127 1.392 . S
C127 H103 0.951 . S
C127 C126 1.392 . S
C127 C128 1.392 . S
C128 H104 0.949 1_545 S
C128 C123 1.382 . S
C128 C127 1.392 . S
C129 C130 1.376 . S
C129 C134 1.386 . S
C129 C135 1.483 . S
C130 H105 0.949 1_545 S
C130 C129 1.376 . S
C130 C131 1.397 . S
C131 H106 0.950 . S
C131 C130 1.397 . S
C131 C132 1.391 . S
C132 C131 1.391 . S
C132 C133 1.405 . S
C133 H107 0.950 . S
C133 C132 1.405 . S
C133 C134 1.367 . S
C134 H108 0.950 1_556 S
C134 C129 1.386 . S
C134 C133 1.367 . S
C135 C129 1.483 . S
C135 C136 1.382 . S
C135 C137 1.403 1_546 S
C136 H109 0.950 . S
C136 C122 1.411 . S
C136 C135 1.382 . S
C137 C121 1.411 . S
C137 C135 1.403 1_564 S
C137 C138 1.489 . S
C138 C137 1.489 . S
C138 C139 1.383 . S
C138 C143 1.382 . S
C139 H110 0.950 1_554 S
C139 C138 1.383 . S
C139 C140 1.395 . S
C140 H111 0.950 . S
C140 C139 1.395 . S
C140 C141 1.288 . S
C141 C140 1.288 . S
C141 C142 1.392 . S
C142 H112 0.951 . S
C142 C141 1.392 . S
C142 C143 1.392 . S
C143 H113 0.949 1_565 S
C143 C138 1.382 . S
C143 C142 1.392 . S
H144 C163 0.949 . S
H145 C164 0.950 . S
H146 C166 0.950 . S
H147 C167 0.950 . S
H148 C169 0.950 . S
H149 C172 0.950 . S
H150 C173 0.950 . S
H151 C175 0.951 . S
H152 C176 0.949 . S
H153 C178 0.949 . S
H154 C179 0.950 . S
H155 C181 0.950 . S
H156 C182 0.950 . S
H157 C184 0.950 . S
H158 C187 0.950 . S
H159 C188 0.950 . S
H160 C190 0.951 . S
H161 C191 0.949 . S
C162 C163 1.376 . S
C162 C167 1.386 . S
C162 C168 1.483 . S
C163 H144 0.949 . S
C163 C162 1.376 . S
C163 C164 1.397 . S
C164 H145 0.950 . S
C164 C163 1.397 . S
C164 C165 1.391 . S
C165 C164 1.391 . S
C165 C166 1.405 . S
C166 H146 0.950 . S
C166 C165 1.405 . S
C166 C167 1.367 . S
C167 H147 0.950 . S
C167 C162 1.386 . S
C167 C166 1.367 . S
C168 C162 1.483 . S
C168 C169 1.382 . S
C168 C170 1.403 . S
C169 H148 0.950 . S
C169 C168 1.382 . S
C169 C185 1.411 . S
C170 C168 1.403 . S
C170 C171 1.489 . S
C170 C184 1.411 . S
C171 C170 1.489 . S
C171 C172 1.383 . S
C171 C176 1.382 . S
C172 H149 0.950 . S
C172 C171 1.383 . S
C172 C173 1.395 . S
C173 H150 0.950 . S
C173 C172 1.395 . S
C173 C174 1.288 . S
C174 C173 1.288 . S
C174 C175 1.392 . S
C175 H151 0.951 . S
C175 C174 1.392 . S
C175 C176 1.392 . S
C176 H152 0.949 . S
C176 C171 1.382 . S
C176 C175 1.392 . S
C177 C178 1.376 . S
C177 C182 1.386 . S
C177 C183 1.483 . S
C178 H153 0.949 . S
C178 C177 1.376 . S
C178 C179 1.397 . S
C179 H154 0.950 . S
C179 C178 1.397 . S
C179 C180 1.391 . S
C180 C179 1.391 . S
C180 C181 1.405 . S
C181 H155 0.950 . S
C181 C180 1.405 . S
C181 C182 1.367 . S
C182 H156 0.950 . S
C182 C177 1.386 . S
C182 C181 1.367 . S
C183 C177 1.483 . S
C183 C184 1.382 . S
C183 C185 1.403 . S
C184 H157 0.950 . S
C184 C170 1.411 . S
C184 C183 1.382 . S
C185 C169 1.411 . S
C185 C183 1.403 . S
C185 C186 1.489 . S
C186 C185 1.489 . S
C186 C187 1.383 . S
C186 C191 1.382 . S
C187 H158 0.950 . S
C187 C186 1.383 . S
C187 C188 1.395 . S
C188 H159 0.950 . S
C188 C187 1.395 . S
C188 C189 1.288 . S
C189 C188 1.288 . S
C189 C190 1.392 . S
C190 H160 0.951 . S
C190 C189 1.392 . S
C190 C191 1.392 . S
C191 H161 0.949 . S
C191 C186 1.382 . S
C191 C190 1.392 . S
H192 C211 0.949 . S
H193 C212 0.950 . S
H194 C214 0.950 . S
H195 C215 0.950 . S
H196 C217 0.950 . S
H197 C220 0.950 . S
H198 C221 0.950 . S
H199 C223 0.951 . S
H200 C224 0.949 . S
H201 C226 0.949 . S
H202 C227 0.950 . S
H203 C229 0.950 . S
H204 C230 0.950 . S
H205 C232 0.950 . S
H206 C235 0.950 . S
H207 C236 0.950 . S
H208 C238 0.951 . S
H209 C239 0.949 . S
C210 C211 1.376 . S
C210 C215 1.386 . S
C210 C216 1.483 . S
C211 H192 0.949 . S
C211 C210 1.376 . S
C211 C212 1.397 . S
C212 H193 0.950 . S
C212 C211 1.397 . S
C212 C213 1.391 . S
C213 C212 1.391 . S
C213 C214 1.405 . S
C214 H194 0.950 . S
C214 C213 1.405 . S
C214 C215 1.367 . S
C215 H195 0.950 . S
C215 C210 1.386 . S
C215 C214 1.367 . S
C216 C210 1.483 . S
C216 C217 1.382 . S
C216 C218 1.403 . S
C217 H196 0.950 . S
C217 C216 1.382 . S
C217 C233 1.411 . S
C218 C216 1.403 . S
C218 C219 1.489 . S
C218 C232 1.411 . S
C219 C218 1.489 . S
C219 C220 1.383 . S
C219 C224 1.382 . S
C220 H197 0.950 . S
C220 C219 1.383 . S
C220 C221 1.395 . S
C221 H198 0.950 . S
C221 C220 1.395 . S
C221 C222 1.288 . S
C222 C221 1.288 . S
C222 C223 1.392 . S
C223 H199 0.951 . S
C223 C222 1.392 . S
C223 C224 1.392 . S
C224 H200 0.949 . S
C224 C219 1.382 . S
C224 C223 1.392 . S
C225 C226 1.376 . S
C225 C230 1.386 . S
C225 C231 1.483 . S
C226 H201 0.949 . S
C226 C225 1.376 . S
C226 C227 1.397 . S
C227 H202 0.950 . S
C227 C226 1.397 . S
C227 C228 1.391 . S
C228 C227 1.391 . S
C228 C229 1.405 . S
C229 H203 0.950 . S
C229 C228 1.405 . S
C229 C230 1.367 . S
C230 H204 0.950 . S
C230 C225 1.386 . S
C230 C229 1.367 . S
C231 C225 1.483 . S
C231 C232 1.382 . S
C231 C233 1.403 . S
C232 H205 0.950 . S
C232 C218 1.411 . S
C232 C231 1.382 . S
C233 C217 1.411 . S
C233 C231 1.403 . S
C233 C234 1.489 . S
C234 C233 1.489 . S
C234 C235 1.383 . S
C234 C239 1.382 . S
C235 H206 0.950 . S
C235 C234 1.383 . S
C235 C236 1.395 . S
C236 H207 0.950 . S
C236 C235 1.395 . S
C236 C237 1.288 . S
C237 C236 1.288 . S
C237 C238 1.392 . S
C238 H208 0.951 . S
C238 C237 1.392 . S
C238 C239 1.392 . S
C239 H209 0.949 . S
C239 C234 1.382 . S
C239 C238 1.392 . S
H240 C259 0.949 . S
H241 C260 0.950 . S
H242 C262 0.950 . S
H243 C263 0.950 . S
H244 C265 0.950 . S
H245 C268 0.950 . S
H246 C269 0.950 . S
H247 C271 0.951 . S
H248 C272 0.949 . S
H249 C274 0.949 . S
H250 C275 0.950 . S
H251 C277 0.950 . S
H252 C278 0.950 . S
H253 C280 0.950 . S
H254 C283 0.950 . S
H255 C284 0.950 . S
H256 C286 0.951 . S
H257 C287 0.949 . S
C258 C259 1.376 . S
C258 C263 1.386 . S
C258 C264 1.483 . S
C259 H240 0.949 . S
C259 C258 1.376 . S
C259 C260 1.397 . S
C260 H241 0.950 . S
C260 C259 1.397 . S
C260 C261 1.391 . S
C261 C260 1.391 . S
C261 C262 1.405 . S
C262 H242 0.950 . S
C262 C261 1.405 . S
C262 C263 1.367 . S
C263 H243 0.950 . S
C263 C258 1.386 . S
C263 C262 1.367 . S
C264 C258 1.483 . S
C264 C265 1.382 . S
C264 C266 1.403 . S
C265 H244 0.950 . S
C265 C264 1.382 . S
C265 C281 1.411 . S
C266 C264 1.403 . S
C266 C267 1.489 . S
C266 C280 1.411 . S
C267 C266 1.489 . S
C267 C268 1.383 . S
C267 C272 1.382 . S
C268 H245 0.950 . S
C268 C267 1.383 . S
C268 C269 1.395 . S
C269 H246 0.950 . S
C269 C268 1.395 . S
C269 C270 1.288 . S
C270 C269 1.288 . S
C270 C271 1.392 . S
C271 H247 0.951 . S
C271 C270 1.392 . S
C271 C272 1.392 . S
C272 H248 0.949 . S
C272 C267 1.382 . S
C272 C271 1.392 . S
C273 C274 1.376 . S
C273 C278 1.386 . S
C273 C279 1.483 . S
C274 H249 0.949 . S
C274 C273 1.376 . S
C274 C275 1.397 . S
C275 H250 0.950 . S
C275 C274 1.397 . S
C275 C276 1.391 . S
C276 C275 1.391 . S
C276 C277 1.405 . S
C277 H251 0.950 . S
C277 C276 1.405 . S
C277 C278 1.367 . S
C278 H252 0.950 . S
C278 C273 1.386 . S
C278 C277 1.367 . S
C279 C273 1.483 . S
C279 C280 1.382 . S
C279 C281 1.403 . S
C280 H253 0.950 . S
C280 C266 1.411 . S
C280 C279 1.382 . S
C281 C265 1.411 . S
C281 C279 1.403 . S
C281 C282 1.489 . S
C282 C281 1.489 . S
C282 C283 1.383 . S
C282 C287 1.382 . S
C283 H254 0.950 . S
C283 C282 1.383 . S
C283 C284 1.395 . S
C284 H255 0.950 . S
C284 C283 1.395 . S
C284 C285 1.288 . S
C285 C284 1.288 . S
C285 C286 1.392 . S
C286 H256 0.951 . S
C286 C285 1.392 . S
C286 C287 1.392 . S
C287 H257 0.949 . S
C287 C282 1.382 . S
C287 C286 1.392 . S
H288 C307 0.949 . S
H289 C308 0.950 . S
H290 C310 0.950 . S
H291 C311 0.950 . S
H292 C313 0.950 . S
H293 C316 0.950 . S
H294 C317 0.950 . S
H295 C319 0.951 . S
H296 C320 0.949 . S
H297 C322 0.949 . S
H298 C323 0.950 . S
H299 C325 0.950 . S
H300 C326 0.950 . S
H301 C328 0.950 . S
H302 C331 0.950 . S
H303 C332 0.950 . S
H304 C334 0.951 . S
H305 C335 0.949 . S
C306 C307 1.376 . S
C306 C311 1.386 . S
C306 C312 1.483 . S
C307 H288 0.949 . S
C307 C306 1.376 . S
C307 C308 1.397 . S
C308 H289 0.950 . S
C308 C307 1.397 . S
C308 C309 1.391 . S
C309 C308 1.391 . S
C309 C310 1.405 . S
C310 H290 0.950 . S
C310 C309 1.405 . S
C310 C311 1.367 . S
C311 H291 0.950 . S
C311 C306 1.386 . S
C311 C310 1.367 . S
C312 C306 1.483 . S
C312 C313 1.382 . S
C312 C314 1.403 1_556 S
C313 H292 0.950 . S
C313 C312 1.382 . S
C313 C329 1.411 . S
C314 C312 1.403 1_554 S
C314 C315 1.489 . S
C314 C328 1.411 . S
C315 C314 1.489 . S
C315 C316 1.383 . S
C315 C320 1.382 . S
C316 H293 0.950 . S
C316 C315 1.383 . S
C316 C317 1.395 . S
C317 H294 0.950 . S
C317 C316 1.395 . S
C317 C318 1.288 . S
C318 C317 1.288 . S
C318 C319 1.392 . S
C319 H295 0.951 . S
C319 C318 1.392 . S
C319 C320 1.392 . S
C320 H296 0.949 . S
C320 C315 1.382 . S
C320 C319 1.392 . S
C321 C322 1.376 . S
C321 C326 1.386 . S
C321 C327 1.483 . S
C322 H297 0.949 . S
C322 C321 1.376 . S
C322 C323 1.397 . S
C323 H298 0.950 . S
C323 C322 1.397 . S
C323 C324 1.391 . S
C324 C323 1.391 . S
C324 C325 1.405 . S
C325 H299 0.950 . S
C325 C324 1.405 . S
C325 C326 1.367 . S
C326 H300 0.950 . S
C326 C321 1.386 . S
C326 C325 1.367 . S
C327 C321 1.483 . S
C327 C328 1.382 . S
C327 C329 1.403 1_554 S
C328 H301 0.950 . S
C328 C314 1.411 . S
C328 C327 1.382 . S
C329 C313 1.411 . S
C329 C327 1.403 1_556 S
C329 C330 1.489 . S
C330 C329 1.489 . S
C330 C331 1.383 . S
C330 C335 1.382 . S
C331 H302 0.950 . S
C331 C330 1.383 . S
C331 C332 1.395 . S
C332 H303 0.950 . S
C332 C331 1.395 . S
C332 C333 1.288 . S
C333 C332 1.288 . S
C333 C334 1.392 . S
C334 H304 0.951 . S
C334 C333 1.392 . S
C334 C335 1.392 . S
C335 H305 0.949 . S
C335 C330 1.382 . S
C335 C334 1.392 . S
H336 C355 0.949 . S
H337 C356 0.950 . S
H338 C358 0.950 . S
H339 C359 0.950 . S
H340 C361 0.950 . S
H341 C364 0.950 . S
H342 C365 0.950 . S
H343 C367 0.951 . S
H344 C368 0.949 . S
H345 C370 0.949 . S
H346 C371 0.950 . S
H347 C373 0.950 . S
H348 C374 0.950 . S
H349 C376 0.950 . S
H350 C379 0.950 . S
H351 C380 0.950 . S
H352 C382 0.951 . S
H353 C383 0.949 . S
C354 C355 1.376 . S
C354 C359 1.386 . S
C354 C360 1.483 . S
C355 H336 0.949 . S
C355 C354 1.376 . S
C355 C356 1.397 . S
C356 H337 0.950 . S
C356 C355 1.397 . S
C356 C357 1.391 1_455 S
C357 C356 1.391 1_655 S
C357 C358 1.405 . S
C358 H338 0.950 . S
C358 C357 1.405 . S
C358 C359 1.367 1_655 S
C359 H339 0.950 . S
C359 C354 1.386 . S
C359 C358 1.367 1_455 S
C360 C354 1.483 . S
C360 C361 1.382 . S
C360 C362 1.403 . S
C361 H340 0.950 . S
C361 C360 1.382 . S
C361 C377 1.411 . S
C362 C360 1.403 . S
C362 C363 1.489 . S
C362 C376 1.411 . S
C363 C362 1.489 . S
C363 C364 1.383 . S
C363 C368 1.382 . S
C364 H341 0.950 . S
C364 C363 1.383 . S
C364 C365 1.395 1_455 S
C365 H342 0.950 . S
C365 C364 1.395 1_655 S
C365 C366 1.288 . S
C366 C365 1.288 . S
C366 C367 1.392 1_655 S
C367 H343 0.951 . S
C367 C366 1.392 1_455 S
C367 C368 1.392 . S
C368 H344 0.949 . S
C368 C363 1.382 . S
C368 C367 1.392 . S
C369 C370 1.376 . S
C369 C374 1.386 . S
C369 C375 1.483 . S
C370 H345 0.949 . S
C370 C369 1.376 . S
C370 C371 1.397 . S
C371 H346 0.950 . S
C371 C370 1.397 . S
C371 C372 1.391 . S
C372 C371 1.391 . S
C372 C373 1.405 . S
C373 H347 0.950 . S
C373 C372 1.405 . S
C373 C374 1.367 . S
C374 H348 0.950 . S
C374 C369 1.386 . S
C374 C373 1.367 . S
C375 C369 1.483 . S
C375 C376 1.382 . S
C375 C377 1.403 . S
C376 H349 0.950 . S
C376 C362 1.411 . S
C376 C375 1.382 . S
C377 C361 1.411 . S
C377 C375 1.403 . S
C377 C378 1.489 . S
C378 C377 1.489 . S
C378 C379 1.383 . S
C378 C383 1.382 . S
C379 H350 0.950 . S
C379 C378 1.383 . S
C379 C380 1.395 . S
C380 H351 0.950 . S
C380 C379 1.395 . S
C380 C381 1.288 . S
C381 C380 1.288 . S
C381 C382 1.392 . S
C382 H352 0.951 . S
C382 C381 1.392 . S
C382 C383 1.392 . S
C383 H353 0.949 . S
C383 C378 1.382 . S
C383 C382 1.392 . S
C384 O411 1.312 . S
C384 O412 1.208 . S
C385 O406 1.331 1_655 S
C385 O409 1.244 . S
C386 O408 1.264 1_655 S
C386 O410 1.273 . S
Mg387 O389 1.936 . S
Mg387 O396 2.081 . S
Mg387 O398 2.023 . S
Mg387 O402 2.031 . S
Mg387 O411 2.291 . S
Mg388 O389 1.963 . S
Mg388 O399 1.942 . S
Mg388 O400 1.955 . S
Mg388 O407 1.986 . S
O389 Mg387 1.936 . S
O389 Mg388 1.963 . S
O389 Mg390 1.915 . S
Mg390 O389 1.915 . S
Mg390 O391 1.915 . S
Mg390 O395 2.013 . S
Mg390 O401 2.114 . S
Mg390 O405 2.013 . S
Mg390 O411 2.114 . S
O391 Mg390 1.915 . S
O391 Mg392 1.936 . S
O391 Mg393 1.963 1_455 S
Mg392 O391 1.936 . S
Mg392 O401 2.291 . S
Mg392 O406 2.081 . S
Mg392 O408 2.023 . S
Mg392 O412 2.031 . S
Mg393 O391 1.963 1_655 S
Mg393 O397 1.986 . S
Mg393 O409 1.942 . S
Mg393 O410 1.955 . S
C394 O405 1.191 . S
C394 O407 1.307 . S
O395 Mg390 2.013 . S
O395 C414 1.191 . S
O396 Mg387 2.081 . S
O396 C404 1.331 . S
O397 Mg393 1.986 . S
O397 C414 1.307 1_655 S
O398 Mg387 2.023 . S
O398 C413 1.264 . S
O399 Mg388 1.942 . S
O399 C404 1.244 . S
O400 Mg388 1.955 . S
O400 C413 1.273 . S
O401 Mg390 2.114 . S
O401 Mg392 2.291 . S
O401 C403 1.312 . S
O402 Mg387 2.031 . S
O402 C403 1.208 . S
C403 O401 1.312 . S
C403 O402 1.208 . S
C404 O396 1.331 . S
C404 O399 1.244 . S
O405 Mg390 2.013 . S
O405 C394 1.191 . S
O406 C385 1.331 1_455 S
O406 Mg392 2.081 . S
O407 Mg388 1.986 . S
O407 C394 1.307 . S
O408 C386 1.264 1_455 S
O408 Mg392 2.023 . S
O409 C385 1.244 . S
O409 Mg393 1.942 . S
O410 C386 1.273 . S
O410 Mg393 1.955 . S
O411 C384 1.312 . S
O411 Mg387 2.291 . S
O411 Mg390 2.114 . S
O412 C384 1.208 . S
O412 Mg392 2.031 . S
C413 O398 1.264 . S
C413 O400 1.273 . S
C414 O395 1.191 . S
C414 O397 1.307 1_455 S
C415 O442 1.312 . S
C415 O443 1.208 . S
C416 O437 1.331 . S
C416 O440 1.244 . S
C417 O439 1.264 . S
C417 O441 1.273 . S
Mg418 O420 1.936 . S
Mg418 O427 2.081 . S
Mg418 O429 2.023 . S
Mg418 O433 2.031 . S
Mg418 O442 2.291 . S
Mg419 O420 1.963 . S
Mg419 O430 1.942 . S
Mg419 O431 1.955 . S
Mg419 O438 1.986 . S
O420 Mg418 1.936 . S
O420 Mg419 1.963 . S
O420 Mg421 1.915 . S
Mg421 O420 1.915 . S
Mg421 O422 1.915 . S
Mg421 O426 2.013 . S
Mg421 O432 2.114 . S
Mg421 O436 2.013 . S
Mg421 O442 2.114 . S
O422 Mg421 1.915 . S
O422 Mg423 1.936 . S
O422 Mg424 1.963 . S
Mg423 O422 1.936 . S
Mg423 O432 2.291 . S
Mg423 O437 2.081 . S
Mg423 O439 2.023 . S
Mg423 O443 2.031 . S
Mg424 O422 1.963 . S
Mg424 O428 1.986 . S
Mg424 O440 1.942 . S
Mg424 O441 1.955 . S
C425 O436 1.191 . S
C425 O438 1.307 . S
O426 Mg421 2.013 . S
O426 C445 1.191 . S
O427 Mg418 2.081 . S
O427 C435 1.331 . S
O428 Mg424 1.986 . S
O428 C445 1.307 . S
O429 Mg418 2.023 . S
O429 C444 1.264 . S
O430 Mg419 1.942 . S
O430 C435 1.244 . S
O431 Mg419 1.955 . S
O431 C444 1.273 . S
O432 Mg421 2.114 . S
O432 Mg423 2.291 . S
O432 C434 1.312 . S
O433 Mg418 2.031 . S
O433 C434 1.208 . S
C434 O432 1.312 . S
C434 O433 1.208 . S
C435 O427 1.331 . S
C435 O430 1.244 . S
O436 Mg421 2.013 . S
O436 C425 1.191 . S
O437 C416 1.331 . S
O437 Mg423 2.081 . S
O438 Mg419 1.986 . S
O438 C425 1.307 . S
O439 C417 1.264 . S
O439 Mg423 2.023 . S
O440 C416 1.244 . S
O440 Mg424 1.942 . S
O441 C417 1.273 . S
O441 Mg424 1.955 . S
O442 C415 1.312 . S
O442 Mg418 2.291 . S
O442 Mg421 2.114 . S
O443 C415 1.208 . S
O443 Mg423 2.031 . S
C444 O429 1.264 . S
C444 O431 1.273 . S
C445 O426 1.191 . S
C445 O428 1.307 . S
C446 O473 1.312 . S
C446 O474 1.208 . S
C447 O468 1.331 . S
C447 O471 1.244 . S
C448 O470 1.264 . S
C448 O472 1.273 . S
Mg449 O451 1.936 . S
Mg449 O458 2.081 . S
Mg449 O460 2.023 . S
Mg449 O464 2.031 . S
Mg449 O473 2.291 . S
Mg450 O451 1.963 . S
Mg450 O461 1.942 . S
Mg450 O462 1.955 . S
Mg450 O469 1.986 . S
O451 Mg449 1.936 . S
O451 Mg450 1.963 . S
O451 Mg452 1.915 . S
Mg452 O451 1.915 . S
Mg452 O453 1.915 . S
Mg452 O457 2.013 . S
Mg452 O463 2.114 . S
Mg452 O467 2.013 . S
Mg452 O473 2.114 . S
O453 Mg452 1.915 . S
O453 Mg454 1.936 . S
O453 Mg455 1.963 . S
Mg454 O453 1.936 . S
Mg454 O463 2.291 . S
Mg454 O468 2.081 . S
Mg454 O470 2.023 . S
Mg454 O474 2.031 . S
Mg455 O453 1.963 . S
Mg455 O459 1.986 . S
Mg455 O471 1.942 . S
Mg455 O472 1.955 . S
C456 O467 1.191 . S
C456 O469 1.307 . S
O457 Mg452 2.013 . S
O457 C476 1.191 . S
O458 Mg449 2.081 . S
O458 C466 1.331 . S
O459 Mg455 1.986 . S
O459 C476 1.307 . S
O460 Mg449 2.023 . S
O460 C475 1.264 . S
O461 Mg450 1.942 . S
O461 C466 1.244 . S
O462 Mg450 1.955 . S
O462 C475 1.273 . S
O463 Mg452 2.114 . S
O463 Mg454 2.291 . S
O463 C465 1.312 . S
O464 Mg449 2.031 . S
O464 C465 1.208 . S
C465 O463 1.312 . S
C465 O464 1.208 . S
C466 O458 1.331 . S
C466 O461 1.244 . S
O467 Mg452 2.013 . S
O467 C456 1.191 . S
O468 C447 1.331 . S
O468 Mg454 2.081 . S
O469 Mg450 1.986 . S
O469 C456 1.307 . S
O470 C448 1.264 . S
O470 Mg454 2.023 . S
O471 C447 1.244 . S
O471 Mg455 1.942 . S
O472 C448 1.273 . S
O472 Mg455 1.955 . S
O473 C446 1.312 . S
O473 Mg449 2.291 . S
O473 Mg452 2.114 . S
O474 C446 1.208 . S
O474 Mg454 2.031 . S
C475 O460 1.264 . S
C475 O462 1.273 . S
C476 O457 1.191 . S
C476 O459 1.307 . S
C477 O504 1.312 . S
C477 O505 1.208 . S
C478 O499 1.331 . S
C478 O502 1.244 . S
C479 O501 1.264 . S
C479 O503 1.273 . S
Mg480 O482 1.936 . S
Mg480 O489 2.081 . S
Mg480 O491 2.023 . S
Mg480 O495 2.031 . S
Mg480 O504 2.291 . S
Mg481 O482 1.963 1_655 S
Mg481 O492 1.942 . S
Mg481 O493 1.955 . S
Mg481 O500 1.986 . S
O482 Mg480 1.936 . S
O482 Mg481 1.963 1_455 S
O482 Mg483 1.915 . S
Mg483 O482 1.915 . S
Mg483 O484 1.915 . S
Mg483 O488 2.013 . S
Mg483 O494 2.114 . S
Mg483 O498 2.013 . S
Mg483 O504 2.114 . S
O484 Mg483 1.915 . S
O484 Mg485 1.936 . S
O484 Mg486 1.963 . S
Mg485 O484 1.936 . S
Mg485 O494 2.291 . S
Mg485 O499 2.081 . S
Mg485 O501 2.023 . S
Mg485 O505 2.031 . S
Mg486 O484 1.963 . S
Mg486 O490 1.986 . S
Mg486 O502 1.942 . S
Mg486 O503 1.955 . S
C487 O498 1.191 . S
C487 O500 1.307 1_455 S
O488 Mg483 2.013 . S
O488 C507 1.191 . S
O489 Mg480 2.081 . S
O489 C497 1.331 1_455 S
O490 Mg486 1.986 . S
O490 C507 1.307 . S
O491 Mg480 2.023 . S
O491 C506 1.264 1_455 S
O492 Mg481 1.942 . S
O492 C497 1.244 . S
O493 Mg481 1.955 . S
O493 C506 1.273 . S
O494 Mg483 2.114 . S
O494 Mg485 2.291 . S
O494 C496 1.312 . S
O495 Mg480 2.031 . S
O495 C496 1.208 . S
C496 O494 1.312 . S
C496 O495 1.208 . S
C497 O489 1.331 1_655 S
C497 O492 1.244 . S
O498 Mg483 2.013 . S
O498 C487 1.191 . S
O499 C478 1.331 . S
O499 Mg485 2.081 . S
O500 Mg481 1.986 . S
O500 C487 1.307 1_655 S
O501 C479 1.264 . S
O501 Mg485 2.023 . S
O502 C478 1.244 . S
O502 Mg486 1.942 . S
O503 C479 1.273 . S
O503 Mg486 1.955 . S
O504 C477 1.312 . S
O504 Mg480 2.291 . S
O504 Mg483 2.114 . S
O505 C477 1.208 . S
O505 Mg485 2.031 . S
C506 O491 1.264 1_655 S
C506 O493 1.273 . S
C507 O488 1.191 . S
C507 O490 1.307 . S
H508 C520 0.930 . S
H509 C522 0.930 . S
H510 C523 0.930 . S
H511 C527 0.959 . S
H512 C527 0.959 . S
H513 C527 0.961 . S
H514 C528 0.960 . S
H515 C528 0.961 . S
H516 C528 0.959 . S
H517 C531 0.929 . S
H518 C532 0.931 . S
H519 C534 0.930 . S
C520 H508 0.930 . S
C520 C521 1.399 . S
C520 C525 1.399 . S
C521 C520 1.399 . S
C521 C522 1.376 . S
C522 H509 0.930 . S
C522 C521 1.376 . S
C522 C523 1.388 . S
C523 H510 0.930 . S
C523 C522 1.388 . S
C523 C524 1.390 . S
C524 C523 1.390 . S
C524 C525 1.394 . S
C524 C530 1.465 . S
C525 C520 1.399 . S
C525 C524 1.394 . S
C525 C526 1.516 . S
C526 C525 1.516 . S
C526 C527 1.502 . S
C526 C528 1.561 . S
C526 C529 1.526 . S
C527 H511 0.959 . S
C527 H512 0.959 . S
C527 H513 0.961 . S
C527 C526 1.502 . S
C528 H514 0.960 . S
C528 H515 0.961 . S
C528 H516 0.959 . S
C528 C526 1.561 . S
C529 C526 1.526 . S
C529 C530 1.396 . S
C529 C534 1.390 . S
C530 C524 1.465 . S
C530 C529 1.396 . S
C530 C531 1.399 . S
C531 H517 0.929 . S
C531 C530 1.399 . S
C531 C532 1.385 . S
C532 H518 0.931 . S
C532 C531 1.385 . S
C532 C533 1.389 . S
C533 C532 1.389 . S
C533 C534 1.387 . S
C534 H519 0.930 . S
C534 C529 1.390 . S
C534 C533 1.387 . S
H535 C547 0.930 . S
H536 C549 0.930 . S
H537 C550 0.930 . S
H538 C554 0.959 . S
H539 C554 0.959 . S
H540 C554 0.961 . S
H541 C555 0.960 . S
H542 C555 0.961 . S
H543 C555 0.959 . S
H544 C558 0.929 1_565 S
H545 C559 0.931 . S
H546 C561 0.930 . S
C547 H535 0.930 . S
C547 C548 1.399 . S
C547 C552 1.399 . S
C548 C547 1.399 . S
C548 C549 1.376 . S
C549 H536 0.930 . S
C549 C548 1.376 . S
C549 C550 1.388 . S
C550 H537 0.930 . S
C550 C549 1.388 . S
C550 C551 1.390 . S
C551 C550 1.390 . S
C551 C552 1.394 . S
C551 C557 1.465 1_565 S
C552 C547 1.399 . S
C552 C551 1.394 . S
C552 C553 1.516 1_565 S
C553 C552 1.516 1_545 S
C553 C554 1.502 . S
C553 C555 1.561 . S
C553 C556 1.526 . S
C554 H538 0.959 . S
C554 H539 0.959 . S
C554 H540 0.961 . S
C554 C553 1.502 . S
C555 H541 0.960 . S
C555 H542 0.961 . S
C555 H543 0.959 . S
C555 C553 1.561 . S
C556 C553 1.526 . S
C556 C557 1.396 . S
C556 C561 1.390 . S
C557 C551 1.465 1_545 S
C557 C556 1.396 . S
C557 C558 1.399 . S
C558 H544 0.929 1_545 S
C558 C557 1.399 . S
C558 C559 1.385 . S
C559 H545 0.931 . S
C559 C558 1.385 . S
C559 C560 1.389 . S
C560 C559 1.389 . S
C560 C561 1.387 . S
C561 H546 0.930 . S
C561 C556 1.390 . S
C561 C560 1.387 . S
H562 C574 0.930 . S
H563 C576 0.930 . S
H564 C577 0.930 . S
H565 C581 0.959 . S
H566 C581 0.959 . S
H567 C581 0.961 . S
H568 C582 0.960 1_565 S
H569 C582 0.961 1_565 S
H570 C582 0.959 . S
H571 C585 0.929 . S
H572 C586 0.931 . S
H573 C588 0.930 . S
C574 H562 0.930 . S
C574 C575 1.399 . S
C574 C579 1.399 . S
C575 C574 1.399 . S
C575 C576 1.376 . S
C576 H563 0.930 . S
C576 C575 1.376 . S
C576 C577 1.388 . S
C577 H564 0.930 . S
C577 C576 1.388 . S
C577 C578 1.390 . S
C578 C577 1.390 . S
C578 C579 1.394 . S
C578 C584 1.465 . S
C579 C574 1.399 . S
C579 C578 1.394 . S
C579 C580 1.516 . S
C580 C579 1.516 . S
C580 C581 1.502 . S
C580 C582 1.561 . S
C580 C583 1.526 . S
C581 H565 0.959 . S
C581 H566 0.959 . S
C581 H567 0.961 . S
C581 C580 1.502 . S
C582 H568 0.960 1_545 S
C582 H569 0.961 1_545 S
C582 H570 0.959 . S
C582 C580 1.561 . S
C583 C580 1.526 . S
C583 C584 1.396 . S
C583 C588 1.390 . S
C584 C578 1.465 . S
C584 C583 1.396 . S
C584 C585 1.399 . S
C585 H571 0.929 . S
C585 C584 1.399 . S
C585 C586 1.385 . S
C586 H572 0.931 . S
C586 C585 1.385 . S
C586 C587 1.389 . S
C587 C586 1.389 . S
C587 C588 1.387 . S
C588 H573 0.930 . S
C588 C583 1.390 . S
C588 C587 1.387 . S
H589 C601 0.930 . S
H590 C603 0.930 . S
H591 C604 0.930 . S
H592 C608 0.959 . S
H593 C608 0.959 . S
H594 C608 0.961 . S
H595 C609 0.960 1_545 S
H596 C609 0.961 . S
H597 C609 0.959 . S
H598 C612 0.929 . S
H599 C613 0.931 . S
H600 C615 0.930 . S
C601 H589 0.930 . S
C601 C602 1.399 . S
C601 C606 1.399 . S
C602 C601 1.399 . S
C602 C603 1.376 . S
C603 H590 0.930 . S
C603 C602 1.376 . S
C603 C604 1.388 . S
C604 H591 0.930 . S
C604 C603 1.388 . S
C604 C605 1.390 . S
C605 C604 1.390 . S
C605 C606 1.394 . S
C605 C611 1.465 1_545 S
C606 C601 1.399 . S
C606 C605 1.394 . S
C606 C607 1.516 . S
C607 C606 1.516 . S
C607 C608 1.502 . S
C607 C609 1.561 1_545 S
C607 C610 1.526 1_545 S
C608 H592 0.959 . S
C608 H593 0.959 . S
C608 H594 0.961 . S
C608 C607 1.502 . S
C609 H595 0.960 1_565 S
C609 H596 0.961 . S
C609 H597 0.959 . S
C609 C607 1.561 1_565 S
C610 C607 1.526 1_565 S
C610 C611 1.396 . S
C610 C615 1.390 . S
C611 C605 1.465 1_565 S
C611 C610 1.396 . S
C611 C612 1.399 . S
C612 H598 0.929 . S
C612 C611 1.399 . S
C612 C613 1.385 . S
C613 H599 0.931 . S
C613 C612 1.385 . S
C613 C614 1.389 . S
C614 C613 1.389 . S
C614 C615 1.387 . S
C615 H600 0.930 . S
C615 C610 1.390 . S
C615 C614 1.387 . S
H616 C628 0.930 . S
H617 C630 0.930 . S
H618 C631 0.930 . S
H619 C635 0.959 . S
H620 C635 0.959 . S
H621 C635 0.961 1_565 S
H622 C636 0.960 . S
H623 C636 0.961 . S
H624 C636 0.959 . S
H625 C639 0.929 . S
H626 C640 0.931 . S
H627 C642 0.930 . S
C628 H616 0.930 . S
C628 C629 1.399 . S
C628 C633 1.399 . S
C629 C628 1.399 . S
C629 C630 1.376 . S
C630 H617 0.930 . S
C630 C629 1.376 . S
C630 C631 1.388 . S
C631 H618 0.930 . S
C631 C630 1.388 . S
C631 C632 1.390 . S
C632 C631 1.390 . S
C632 C633 1.394 . S
C632 C638 1.465 . S
C633 C628 1.399 . S
C633 C632 1.394 . S
C633 C634 1.516 . S
C634 C633 1.516 . S
C634 C635 1.502 . S
C634 C636 1.561 . S
C634 C637 1.526 . S
C635 H619 0.959 . S
C635 H620 0.959 . S
C635 H621 0.961 1_545 S
C635 C634 1.502 . S
C636 H622 0.960 . S
C636 H623 0.961 . S
C636 H624 0.959 . S
C636 C634 1.561 . S
C637 C634 1.526 . S
C637 C638 1.396 . S
C637 C642 1.390 . S
C638 C632 1.465 . S
C638 C637 1.396 . S
C638 C639 1.399 . S
C639 H625 0.929 . S
C639 C638 1.399 . S
C639 C640 1.385 . S
C640 H626 0.931 . S
C640 C639 1.385 . S
C640 C641 1.389 . S
C641 C640 1.389 . S
C641 C642 1.387 . S
C642 H627 0.930 . S
C642 C637 1.390 . S
C642 C641 1.387 . S
H643 C655 0.930 . S
H644 C657 0.930 . S
H645 C658 0.930 . S
H646 C662 0.959 . S
H647 C662 0.959 . S
H648 C662 0.961 . S
H649 C663 0.960 . S
H650 C663 0.961 . S
H651 C663 0.959 . S
H652 C666 0.929 1_565 S
H653 C667 0.931 . S
H654 C669 0.930 . S
C655 H643 0.930 . S
C655 C656 1.399 . S
C655 C660 1.399 . S
C656 C655 1.399 . S
C656 C657 1.376 . S
C657 H644 0.930 . S
C657 C656 1.376 . S
C657 C658 1.388 . S
C658 H645 0.930 . S
C658 C657 1.388 . S
C658 C659 1.390 . S
C659 C658 1.390 . S
C659 C660 1.394 . S
C659 C665 1.465 1_565 S
C660 C655 1.399 . S
C660 C659 1.394 . S
C660 C661 1.516 1_565 S
C661 C660 1.516 1_545 S
C661 C662 1.502 . S
C661 C663 1.561 . S
C661 C664 1.526 . S
C662 H646 0.959 . S
C662 H647 0.959 . S
C662 H648 0.961 . S
C662 C661 1.502 . S
C663 H649 0.960 . S
C663 H650 0.961 . S
C663 H651 0.959 . S
C663 C661 1.561 . S
C664 C661 1.526 . S
C664 C665 1.396 . S
C664 C669 1.390 . S
C665 C659 1.465 1_545 S
C665 C664 1.396 . S
C665 C666 1.399 . S
C666 H652 0.929 1_545 S
C666 C665 1.399 . S
C666 C667 1.385 . S
C667 H653 0.931 . S
C667 C666 1.385 . S
C667 C668 1.389 . S
C668 C667 1.389 . S
C668 C669 1.387 . S
C669 H654 0.930 . S
C669 C664 1.390 . S
C669 C668 1.387 . S
H670 C682 0.930 . S
H671 C684 0.930 . S
H672 C685 0.930 . S
H673 C689 0.959 . S
H674 C689 0.959 . S
H675 C689 0.961 . S
H676 C690 0.960 1_545 S
H677 C690 0.961 1_545 S
H678 C690 0.959 . S
H679 C693 0.929 . S
H680 C694 0.931 . S
H681 C696 0.930 . S
C682 H670 0.930 . S
C682 C683 1.399 . S
C682 C687 1.399 . S
C683 C682 1.399 . S
C683 C684 1.376 . S
C684 H671 0.930 . S
C684 C683 1.376 . S
C684 C685 1.388 . S
C685 H672 0.930 . S
C685 C684 1.388 . S
C685 C686 1.390 . S
C686 C685 1.390 . S
C686 C687 1.394 . S
C686 C692 1.465 . S
C687 C682 1.399 . S
C687 C686 1.394 . S
C687 C688 1.516 . S
C688 C687 1.516 . S
C688 C689 1.502 . S
C688 C690 1.561 . S
C688 C691 1.526 . S
C689 H673 0.959 . S
C689 H674 0.959 . S
C689 H675 0.961 . S
C689 C688 1.502 . S
C690 H676 0.960 1_565 S
C690 H677 0.961 1_565 S
C690 H678 0.959 . S
C690 C688 1.561 . S
C691 C688 1.526 . S
C691 C692 1.396 . S
C691 C696 1.390 . S
C692 C686 1.465 . S
C692 C691 1.396 . S
C692 C693 1.399 . S
C693 H679 0.929 . S
C693 C692 1.399 . S
C693 C694 1.385 . S
C694 H680 0.931 . S
C694 C693 1.385 . S
C694 C695 1.389 . S
C695 C694 1.389 . S
C695 C696 1.387 . S
C696 H681 0.930 . S
C696 C691 1.390 . S
C696 C695 1.387 . S
H697 C709 0.930 . S
H698 C711 0.930 . S
H699 C712 0.930 . S
H700 C716 0.959 . S
H701 C716 0.959 . S
H702 C716 0.961 . S
H703 C717 0.960 . S
H704 C717 0.961 . S
H705 C717 0.959 . S
H706 C720 0.929 1_545 S
H707 C721 0.931 . S
H708 C723 0.930 . S
C709 H697 0.930 . S
C709 C710 1.399 . S
C709 C714 1.399 . S
C710 C709 1.399 . S
C710 C711 1.376 . S
C711 H698 0.930 . S
C711 C710 1.376 . S
C711 C712 1.388 . S
C712 H699 0.930 . S
C712 C711 1.388 . S
C712 C713 1.390 . S
C713 C712 1.390 . S
C713 C714 1.394 . S
C713 C719 1.465 1_545 S
C714 C709 1.399 . S
C714 C713 1.394 . S
C714 C715 1.516 1_545 S
C715 C714 1.516 1_565 S
C715 C716 1.502 . S
C715 C717 1.561 . S
C715 C718 1.526 . S
C716 H700 0.959 . S
C716 H701 0.959 . S
C716 H702 0.961 . S
C716 C715 1.502 . S
C717 H703 0.960 . S
C717 H704 0.961 . S
C717 H705 0.959 . S
C717 C715 1.561 . S
C718 C715 1.526 . S
C718 C719 1.396 . S
C718 C723 1.390 . S
C719 C713 1.465 1_565 S
C719 C718 1.396 . S
C719 C720 1.399 . S
C720 H706 0.929 1_565 S
C720 C719 1.399 . S
C720 C721 1.385 . S
C721 H707 0.931 . S
C721 C720 1.385 . S
C721 C722 1.389 . S
C722 C721 1.389 . S
C722 C723 1.387 . S
C723 H708 0.930 . S
C723 C718 1.390 . S
C723 C722 1.387 . S
H724 C736 0.930 . S
H725 C738 0.930 . S
H726 C739 0.930 . S
H727 C743 0.959 . S
H728 C743 0.959 . S
H729 C743 0.961 . S
H730 C744 0.960 . S
H731 C744 0.961 . S
H732 C744 0.959 . S
H733 C747 0.929 . S
H734 C748 0.931 . S
H735 C750 0.930 . S
C736 H724 0.930 . S
C736 C737 1.399 . S
C736 C741 1.399 . S
C737 C736 1.399 . S
C737 C738 1.376 . S
C738 H725 0.930 . S
C738 C737 1.376 . S
C738 C739 1.388 . S
C739 H726 0.930 . S
C739 C738 1.388 . S
C739 C740 1.390 . S
C740 C739 1.390 . S
C740 C741 1.394 . S
C740 C746 1.465 . S
C741 C736 1.399 . S
C741 C740 1.394 . S
C741 C742 1.516 . S
C742 C741 1.516 . S
C742 C743 1.502 . S
C742 C744 1.561 . S
C742 C745 1.526 . S
C743 H727 0.959 . S
C743 H728 0.959 . S
C743 H729 0.961 . S
C743 C742 1.502 . S
C744 H730 0.960 . S
C744 H731 0.961 . S
C744 H732 0.959 . S
C744 C742 1.561 . S
C745 C742 1.526 . S
C745 C746 1.396 . S
C745 C750 1.390 . S
C746 C740 1.465 . S
C746 C745 1.396 . S
C746 C747 1.399 . S
C747 H733 0.929 . S
C747 C746 1.399 . S
C747 C748 1.385 . S
C748 H734 0.931 . S
C748 C747 1.385 . S
C748 C749 1.389 . S
C749 C748 1.389 . S
C749 C750 1.387 . S
C750 H735 0.930 . S
C750 C745 1.390 . S
C750 C749 1.387 . S
H751 C763 0.930 . S
H752 C765 0.930 1_545 S
H753 C766 0.930 . S
H754 C770 0.959 . S
H755 C770 0.959 . S
H756 C770 0.961 . S
H757 C771 0.960 . S
H758 C771 0.961 . S
H759 C771 0.959 . S
H760 C774 0.929 . S
H761 C775 0.931 . S
H762 C777 0.930 . S
C763 H751 0.930 . S
C763 C764 1.399 . S
C763 C768 1.399 . S
C764 C763 1.399 . S
C764 C765 1.376 . S
C765 H752 0.930 1_565 S
C765 C764 1.376 . S
C765 C766 1.388 . S
C766 H753 0.930 . S
C766 C765 1.388 . S
C766 C767 1.390 . S
C767 C766 1.390 . S
C767 C768 1.394 . S
C767 C773 1.465 . S
C768 C763 1.399 . S
C768 C767 1.394 . S
C768 C769 1.516 . S
C769 C768 1.516 . S
C769 C770 1.502 . S
C769 C771 1.561 . S
C769 C772 1.526 . S
C770 H754 0.959 . S
C770 H755 0.959 . S
C770 H756 0.961 . S
C770 C769 1.502 . S
C771 H757 0.960 . S
C771 H758 0.961 . S
C771 H759 0.959 . S
C771 C769 1.561 . S
C772 C769 1.526 . S
C772 C773 1.396 . S
C772 C777 1.390 . S
C773 C767 1.465 . S
C773 C772 1.396 . S
C773 C774 1.399 . S
C774 H760 0.929 . S
C774 C773 1.399 . S
C774 C775 1.385 . S
C775 H761 0.931 . S
C775 C774 1.385 . S
C775 C776 1.389 . S
C776 C775 1.389 . S
C776 C777 1.387 . S
C777 H762 0.930 . S
C777 C772 1.390 . S
C777 C776 1.387 . S
H778 C790 0.930 . S
H779 C792 0.930 . S
H780 C793 0.930 . S
H781 C797 0.959 1_455 S
H782 C797 0.959 1_455 S
H783 C797 0.961 . S
H784 C798 0.960 . S
H785 C798 0.961 . S
H786 C798 0.959 . S
H787 C801 0.929 . S
H788 C802 0.931 . S
H789 C804 0.930 . S
C790 H778 0.930 . S
C790 C791 1.399 . S
C790 C795 1.399 . S
C791 C790 1.399 . S
C791 C792 1.376 . S
C792 H779 0.930 . S
C792 C791 1.376 . S
C792 C793 1.388 . S
C793 H780 0.930 . S
C793 C792 1.388 . S
C793 C794 1.390 . S
C794 C793 1.390 . S
C794 C795 1.394 . S
C794 C800 1.465 . S
C795 C790 1.399 . S
C795 C794 1.394 . S
C795 C796 1.516 . S
C796 C795 1.516 . S
C796 C797 1.502 . S
C796 C798 1.561 . S
C796 C799 1.526 . S
C797 H781 0.959 1_655 S
C797 H782 0.959 1_655 S
C797 H783 0.961 . S
C797 C796 1.502 . S
C798 H784 0.960 . S
C798 H785 0.961 . S
C798 H786 0.959 . S
C798 C796 1.561 . S
C799 C796 1.526 . S
C799 C800 1.396 . S
C799 C804 1.390 1_655 S
C800 C794 1.465 . S
C800 C799 1.396 . S
C800 C801 1.399 . S
C801 H787 0.929 . S
C801 C800 1.399 . S
C801 C802 1.385 . S
C802 H788 0.931 . S
C802 C801 1.385 . S
C802 C803 1.389 1_655 S
C803 C802 1.389 1_455 S
C803 C804 1.387 . S
C804 H789 0.930 . S
C804 C799 1.390 1_455 S
C804 C803 1.387 . S
H805 C817 0.930 . S
H806 C819 0.930 . S
H807 C820 0.930 1_565 S
H808 C824 0.959 . S
H809 C824 0.959 . S
H810 C824 0.961 . S
H811 C825 0.960 . S
H812 C825 0.961 . S
H813 C825 0.959 . S
H814 C828 0.929 . S
H815 C829 0.931 . S
H816 C831 0.930 . S
C817 H805 0.930 . S
C817 C818 1.399 . S
C817 C822 1.399 . S
C818 C817 1.399 . S
C818 C819 1.376 1_545 S
C819 H806 0.930 . S
C819 C818 1.376 1_565 S
C819 C820 1.388 1_565 S
C820 H807 0.930 1_545 S
C820 C819 1.388 1_545 S
C820 C821 1.390 . S
C821 C820 1.390 . S
C821 C822 1.394 . S
C821 C827 1.465 . S
C822 C817 1.399 . S
C822 C821 1.394 . S
C822 C823 1.516 . S
C823 C822 1.516 . S
C823 C824 1.502 . S
C823 C825 1.561 . S
C823 C826 1.526 . S
C824 H808 0.959 . S
C824 H809 0.959 . S
C824 H810 0.961 . S
C824 C823 1.502 . S
C825 H811 0.960 . S
C825 H812 0.961 . S
C825 H813 0.959 . S
C825 C823 1.561 . S
C826 C823 1.526 . S
C826 C827 1.396 . S
C826 C831 1.390 . S
C827 C821 1.465 . S
C827 C826 1.396 . S
C827 C828 1.399 1_655 S
C828 H814 0.929 . S
C828 C827 1.399 1_455 S
C828 C829 1.385 . S
C829 H815 0.931 . S
C829 C828 1.385 . S
C829 C830 1.389 . S
C830 C829 1.389 . S
C830 C831 1.387 1_455 S
C831 H816 0.930 . S
C831 C826 1.390 . S
C831 C830 1.387 1_655 S
H832 C844 0.930 . S
H833 C846 0.930 . S
H834 C847 0.930 . S
H835 C851 0.959 . S
H836 C851 0.959 . S
H837 C851 0.961 . S
H838 C852 0.960 . S
H839 C852 0.961 . S
H840 C852 0.959 . S
H841 C855 0.929 . S
H842 C856 0.931 . S
H843 C858 0.930 . S
C844 H832 0.930 . S
C844 C845 1.399 . S
C844 C849 1.399 . S
C845 C844 1.399 . S
C845 C846 1.376 . S
C846 H833 0.930 . S
C846 C845 1.376 . S
C846 C847 1.388 . S
C847 H834 0.930 . S
C847 C846 1.388 . S
C847 C848 1.390 . S
C848 C847 1.390 . S
C848 C849 1.394 . S
C848 C854 1.465 . S
C849 C844 1.399 . S
C849 C848 1.394 . S
C849 C850 1.516 . S
C850 C849 1.516 . S
C850 C851 1.502 . S
C850 C852 1.561 . S
C850 C853 1.526 . S
C851 H835 0.959 . S
C851 H836 0.959 . S
C851 H837 0.961 . S
C851 C850 1.502 . S
C852 H838 0.960 . S
C852 H839 0.961 . S
C852 H840 0.959 . S
C852 C850 1.561 . S
C853 C850 1.526 . S
C853 C854 1.396 . S
C853 C858 1.390 . S
C854 C848 1.465 . S
C854 C853 1.396 . S
C854 C855 1.399 . S
C855 H841 0.929 . S
C855 C854 1.399 . S
C855 C856 1.385 . S
C856 H842 0.931 . S
C856 C855 1.385 . S
C856 C857 1.389 . S
C857 C856 1.389 . S
C857 C858 1.387 . S
C858 H843 0.930 . S
C858 C853 1.390 . S
C858 C857 1.387 . S
H859 C871 0.930 1_545 S
H860 C873 0.930 . S
H861 C874 0.930 . S
H862 C878 0.959 . S
H863 C878 0.959 . S
H864 C878 0.961 1_545 S
H865 C879 0.960 1_545 S
H866 C879 0.961 . S
H867 C879 0.959 . S
H868 C882 0.929 . S
H869 C883 0.931 . S
H870 C885 0.930 . S
C871 H859 0.930 1_565 S
C871 C872 1.399 . S
C871 C876 1.399 . S
C872 C871 1.399 . S
C872 C873 1.376 . S
C873 H860 0.930 . S
C873 C872 1.376 . S
C873 C874 1.388 . S
C874 H861 0.930 . S
C874 C873 1.388 . S
C874 C875 1.390 . S
C875 C874 1.390 . S
C875 C876 1.394 . S
C875 C881 1.465 . S
C876 C871 1.399 . S
C876 C875 1.394 . S
C876 C877 1.516 . S
C877 C876 1.516 . S
C877 C878 1.502 . S
C877 C879 1.561 1_655 S
C877 C880 1.526 . S
C878 H862 0.959 . S
C878 H863 0.959 . S
C878 H864 0.961 1_565 S
C878 C877 1.502 . S
C879 H865 0.960 1_565 S
C879 H866 0.961 . S
C879 H867 0.959 . S
C879 C877 1.561 1_455 S
C880 C877 1.526 . S
C880 C881 1.396 . S
C880 C885 1.390 1_655 S
C881 C875 1.465 . S
C881 C880 1.396 . S
C881 C882 1.399 . S
C882 H868 0.929 . S
C882 C881 1.399 . S
C882 C883 1.385 . S
C883 H869 0.931 . S
C883 C882 1.385 . S
C883 C884 1.389 1_655 S
C884 C883 1.389 1_455 S
C884 C885 1.387 . S
C885 H870 0.930 . S
C885 C880 1.390 1_455 S
C885 C884 1.387 . S
H886 C898 0.930 . S
H887 C900 0.930 . S
H888 C901 0.930 . S
H889 C905 0.959 . S
H890 C905 0.959 . S
H891 C905 0.961 . S
H892 C906 0.960 . S
H893 C906 0.961 1_455 S
H894 C906 0.959 1_455 S
H895 C909 0.929 . S
H896 C910 0.931 . S
H897 C912 0.930 . S
C898 H886 0.930 . S
C898 C899 1.399 . S
C898 C903 1.399 . S
C899 C898 1.399 . S
C899 C900 1.376 . S
C900 H887 0.930 . S
C900 C899 1.376 . S
C900 C901 1.388 . S
C901 H888 0.930 . S
C901 C900 1.388 . S
C901 C902 1.390 . S
C902 C901 1.390 . S
C902 C903 1.394 . S
C902 C908 1.465 . S
C903 C898 1.399 . S
C903 C902 1.394 . S
C903 C904 1.516 . S
C904 C903 1.516 . S
C904 C905 1.502 . S
C904 C906 1.561 . S
C904 C907 1.526 . S
C905 H889 0.959 . S
C905 H890 0.959 . S
C905 H891 0.961 . S
C905 C904 1.502 . S
C906 H892 0.960 . S
C906 H893 0.961 1_655 S
C906 H894 0.959 1_655 S
C906 C904 1.561 . S
C907 C904 1.526 . S
C907 C908 1.396 . S
C907 C912 1.390 1_655 S
C908 C902 1.465 . S
C908 C907 1.396 . S
C908 C909 1.399 . S
C909 H895 0.929 . S
C909 C908 1.399 . S
C909 C910 1.385 . S
C910 H896 0.931 . S
C910 C909 1.385 . S
C910 C911 1.389 1_655 S
C911 C910 1.389 1_455 S
C911 C912 1.387 . S
C912 H897 0.930 . S
C912 C907 1.390 1_455 S
C912 C911 1.387 . S
H913 C925 0.930 . S
H914 C927 0.930 . S
H915 C928 0.930 . S
H916 C932 0.959 . S
H917 C932 0.959 . S
H918 C932 0.961 . S
H919 C933 0.960 . S
H920 C933 0.961 . S
H921 C933 0.959 . S
H922 C936 0.929 . S
H923 C937 0.931 . S
H924 C939 0.930 . S
C925 H913 0.930 . S
C925 C926 1.399 . S
C925 C930 1.399 . S
C926 C925 1.399 . S
C926 C927 1.376 . S
C927 H914 0.930 . S
C927 C926 1.376 . S
C927 C928 1.388 . S
C928 H915 0.930 . S
C928 C927 1.388 . S
C928 C929 1.390 . S
C929 C928 1.390 . S
C929 C930 1.394 . S
C929 C935 1.465 . S
C930 C925 1.399 . S
C930 C929 1.394 . S
C930 C931 1.516 . S
C931 C930 1.516 . S
C931 C932 1.502 . S
C931 C933 1.561 . S
C931 C934 1.526 . S
C932 H916 0.959 . S
C932 H917 0.959 . S
C932 H918 0.961 . S
C932 C931 1.502 . S
C933 H919 0.960 . S
C933 H920 0.961 . S
C933 H921 0.959 . S
C933 C931 1.561 . S
C934 C931 1.526 . S
C934 C935 1.396 . S
C934 C939 1.390 . S
C935 C929 1.465 . S
C935 C934 1.396 . S
C935 C936 1.399 . S
C936 H922 0.929 . S
C936 C935 1.399 . S
C936 C937 1.385 . S
C937 H923 0.931 . S
C937 C936 1.385 . S
C937 C938 1.389 . S
C938 C937 1.389 . S
C938 C939 1.387 . S
C939 H924 0.930 . S
C939 C934 1.390 . S
C939 C938 1.387 . S
H940 C952 0.930 . S
H941 C954 0.930 . S
H942 C955 0.930 . S
H943 C959 0.959 . S
H944 C959 0.959 . S
H945 C959 0.961 . S
H946 C960 0.960 . S
H947 C960 0.961 . S
H948 C960 0.959 . S
H949 C963 0.929 . S
H950 C964 0.931 . S
H951 C966 0.930 . S
C952 H940 0.930 . S
C952 C953 1.399 . S
C952 C957 1.399 . S
C953 C952 1.399 . S
C953 C954 1.376 . S
C954 H941 0.930 . S
C954 C953 1.376 . S
C954 C955 1.388 . S
C955 H942 0.930 . S
C955 C954 1.388 . S
C955 C956 1.390 . S
C956 C955 1.390 . S
C956 C957 1.394 . S
C956 C962 1.465 . S
C957 C952 1.399 . S
C957 C956 1.394 . S
C957 C958 1.516 . S
C958 C957 1.516 . S
C958 C959 1.502 . S
C958 C960 1.561 . S
C958 C961 1.526 . S
C959 H943 0.959 . S
C959 H944 0.959 . S
C959 H945 0.961 . S
C959 C958 1.502 . S
C960 H946 0.960 . S
C960 H947 0.961 . S
C960 H948 0.959 . S
C960 C958 1.561 . S
C961 C958 1.526 . S
C961 C962 1.396 . S
C961 C966 1.390 . S
C962 C956 1.465 . S
C962 C961 1.396 . S
C962 C963 1.399 . S
C963 H949 0.929 . S
C963 C962 1.399 . S
C963 C964 1.385 . S
C964 H950 0.931 . S
C964 C963 1.385 . S
C964 C965 1.389 . S
C965 C964 1.389 . S
C965 C966 1.387 . S
C966 H951 0.930 . S
C966 C961 1.390 . S
C966 C965 1.387 . S
H967 C979 0.930 . S
H968 C981 0.930 . S
H969 C982 0.930 . S
H970 C986 0.959 1_455 S
H971 C986 0.957 1_455 S
H972 C986 0.961 . S
H973 C987 0.960 . S
H974 C987 0.961 . S
H975 C987 0.959 . S
H976 C990 0.929 . S
H977 C991 0.931 . S
H978 C993 0.930 . S
C979 H967 0.930 . S
C979 C980 1.399 . S
C979 C984 1.399 . S
C980 C979 1.399 . S
C980 C981 1.376 . S
C981 H968 0.930 . S
C981 C980 1.376 . S
C981 C982 1.388 . S
C982 H969 0.930 . S
C982 C981 1.388 . S
C982 C983 1.390 . S
C983 C982 1.390 . S
C983 C984 1.394 . S
C983 C989 1.465 . S
C984 C979 1.399 . S
C984 C983 1.394 . S
C984 C985 1.516 . S
C985 C984 1.516 . S
C985 C986 1.502 . S
C985 C987 1.561 . S
C985 C988 1.526 . S
C986 H970 0.959 1_655 S
C986 H971 0.957 1_655 S
C986 H972 0.961 . S
C986 C985 1.502 . S
C987 H973 0.960 . S
C987 H974 0.961 . S
C987 H975 0.959 . S
C987 C985 1.561 . S
C988 C985 1.526 . S
C988 C989 1.396 . S
C988 C993 1.390 . S
C989 C983 1.465 . S
C989 C988 1.396 . S
C989 C990 1.399 . S
C990 H976 0.929 . S
C990 C989 1.399 . S
C990 C991 1.385 . S
C991 H977 0.931 . S
C991 C990 1.385 . S
C991 C992 1.389 . S
C992 C991 1.389 . S
C992 C993 1.387 . S
C993 H978 0.930 . S
C993 C988 1.390 . S
C993 C992 1.387 . S
H994 C1006 0.930 . S
H995 C1008 0.930 . S
H996 C1009 0.930 . S
H997 C1013 0.959 . S
H998 C1013 0.959 . S
H999 C1013 0.961 . S
H1000 C1014 0.960 . S
H1001 C1014 0.961 . S
H1002 C1014 0.959 . S
H1003 C1017 0.929 . S
H1004 C1018 0.931 . S
H1005 C1020 0.930 . S
C1006 H994 0.930 . S
C1006 C1007 1.399 . S
C1006 C1011 1.399 . S
C1007 C1006 1.399 . S
C1007 C1008 1.376 . S
C1008 H995 0.930 . S
C1008 C1007 1.376 . S
C1008 C1009 1.388 . S
C1009 H996 0.930 . S
C1009 C1008 1.388 . S
C1009 C1010 1.390 . S
C1010 C1009 1.390 . S
C1010 C1011 1.394 . S
C1010 C1016 1.465 . S
C1011 C1006 1.399 . S
C1011 C1010 1.394 . S
C1011 C1012 1.516 . S
C1012 C1011 1.516 . S
C1012 C1013 1.502 . S
C1012 C1014 1.561 . S
C1012 C1015 1.526 . S
C1013 H997 0.959 . S
C1013 H998 0.959 . S
C1013 H999 0.961 . S
C1013 C1012 1.502 . S
C1014 H1000 0.960 . S
C1014 H1001 0.961 . S
C1014 H1002 0.959 . S
C1014 C1012 1.561 . S
C1015 C1012 1.526 . S
C1015 C1016 1.396 . S
C1015 C1020 1.390 . S
C1016 C1010 1.465 . S
C1016 C1015 1.396 . S
C1016 C1017 1.399 . S
C1017 H1003 0.929 . S
C1017 C1016 1.399 . S
C1017 C1018 1.385 . S
C1018 H1004 0.931 . S
C1018 C1017 1.385 . S
C1018 C1019 1.389 . S
C1019 C1018 1.389 . S
C1019 C1020 1.387 . S
C1020 H1005 0.930 . S
C1020 C1015 1.390 . S
C1020 C1019 1.387 . S
H1021 C1033 0.930 . S
H1022 C1035 0.930 . S
H1023 C1036 0.930 . S
H1024 C1040 0.959 . S
H1025 C1040 0.959 . S
H1026 C1040 0.961 . S
H1027 C1041 0.960 . S
H1028 C1041 0.961 . S
H1029 C1041 0.959 . S
H1030 C1044 0.929 . S
H1031 C1045 0.931 . S
H1032 C1047 0.930 . S
C1033 H1021 0.930 . S
C1033 C1034 1.399 . S
C1033 C1038 1.399 . S
C1034 C1033 1.399 . S
C1034 C1035 1.376 . S
C1035 H1022 0.930 . S
C1035 C1034 1.376 . S
C1035 C1036 1.388 . S
C1036 H1023 0.930 . S
C1036 C1035 1.388 . S
C1036 C1037 1.390 . S
C1037 C1036 1.390 . S
C1037 C1038 1.394 . S
C1037 C1043 1.465 . S
C1038 C1033 1.399 . S
C1038 C1037 1.394 . S
C1038 C1039 1.516 . S
C1039 C1038 1.516 . S
C1039 C1040 1.502 . S
C1039 C1041 1.561 . S
C1039 C1042 1.526 . S
C1040 H1024 0.959 . S
C1040 H1025 0.959 . S
C1040 H1026 0.961 . S
C1040 C1039 1.502 . S
C1041 H1027 0.960 . S
C1041 H1028 0.961 . S
C1041 H1029 0.959 . S
C1041 C1039 1.561 . S
C1042 C1039 1.526 . S
C1042 C1043 1.396 . S
C1042 C1047 1.390 . S
C1043 C1037 1.465 . S
C1043 C1042 1.396 . S
C1043 C1044 1.399 . S
C1044 H1030 0.929 . S
C1044 C1043 1.399 . S
C1044 C1045 1.385 . S
C1045 H1031 0.931 . S
C1045 C1044 1.385 . S
C1045 C1046 1.389 . S
C1046 C1045 1.389 . S
C1046 C1047 1.387 . S
C1047 H1032 0.930 . S
C1047 C1042 1.390 . S
C1047 C1046 1.387 . S
H1048 C1060 0.930 . S
H1049 C1062 0.930 . S
H1050 C1063 0.930 . S
H1051 C1067 0.959 . S
H1052 C1067 0.959 . S
H1053 C1067 0.961 . S
H1054 C1068 0.960 . S
H1055 C1068 0.961 . S
H1056 C1068 0.959 . S
H1057 C1071 0.929 . S
H1058 C1072 0.931 . S
H1059 C1074 0.930 . S
C1060 H1048 0.930 . S
C1060 C1061 1.399 . S
C1060 C1065 1.399 . S
C1061 C1060 1.399 . S
C1061 C1062 1.376 . S
C1062 H1049 0.930 . S
C1062 C1061 1.376 . S
C1062 C1063 1.388 . S
C1063 H1050 0.930 . S
C1063 C1062 1.388 . S
C1063 C1064 1.390 . S
C1064 C1063 1.390 . S
C1064 C1065 1.394 . S
C1064 C1070 1.465 . S
C1065 C1060 1.399 . S
C1065 C1064 1.394 . S
C1065 C1066 1.516 . S
C1066 C1065 1.516 . S
C1066 C1067 1.502 . S
C1066 C1068 1.561 . S
C1066 C1069 1.526 . S
C1067 H1051 0.959 . S
C1067 H1052 0.959 . S
C1067 H1053 0.961 . S
C1067 C1066 1.502 . S
C1068 H1054 0.960 . S
C1068 H1055 0.961 . S
C1068 H1056 0.959 . S
C1068 C1066 1.561 . S
C1069 C1066 1.526 . S
C1069 C1070 1.396 . S
C1069 C1074 1.390 . S
C1070 C1064 1.465 . S
C1070 C1069 1.396 . S
C1070 C1071 1.399 . S
C1071 H1057 0.929 . S
C1071 C1070 1.399 . S
C1071 C1072 1.385 . S
C1072 H1058 0.931 . S
C1072 C1071 1.385 . S
C1072 C1073 1.389 . S
C1073 C1072 1.389 . S
C1073 C1074 1.387 . S
C1074 H1059 0.930 . S
C1074 C1069 1.390 . S
C1074 C1073 1.387 . S
H1075 C1087 0.930 . S
H1076 C1089 0.930 . S
H1077 C1090 0.930 . S
H1078 C1094 0.959 . S
H1079 C1094 0.959 . S
H1080 C1094 0.961 . S
H1081 C1095 0.960 . S
H1082 C1095 0.961 . S
H1083 C1095 0.959 . S
H1084 C1098 0.929 . S
H1085 C1099 0.931 . S
H1086 C1101 0.930 . S
C1087 H1075 0.930 . S
C1087 C1088 1.399 . S
C1087 C1092 1.399 . S
C1088 C1087 1.399 . S
C1088 C1089 1.376 . S
C1089 H1076 0.930 . S
C1089 C1088 1.376 . S
C1089 C1090 1.388 . S
C1090 H1077 0.930 . S
C1090 C1089 1.388 . S
C1090 C1091 1.390 . S
C1091 C1090 1.390 . S
C1091 C1092 1.394 . S
C1091 C1097 1.465 . S
C1092 C1087 1.399 . S
C1092 C1091 1.394 . S
C1092 C1093 1.516 . S
C1093 C1092 1.516 . S
C1093 C1094 1.502 . S
C1093 C1095 1.561 . S
C1093 C1096 1.526 . S
C1094 H1078 0.959 . S
C1094 H1079 0.959 . S
C1094 H1080 0.961 . S
C1094 C1093 1.502 . S
C1095 H1081 0.960 . S
C1095 H1082 0.961 . S
C1095 H1083 0.959 . S
C1095 C1093 1.561 . S
C1096 C1093 1.526 . S
C1096 C1097 1.396 . S
C1096 C1101 1.390 . S
C1097 C1091 1.465 . S
C1097 C1096 1.396 . S
C1097 C1098 1.399 . S
C1098 H1084 0.929 . S
C1098 C1097 1.399 . S
C1098 C1099 1.385 . S
C1099 H1085 0.931 . S
C1099 C1098 1.385 . S
C1099 C1100 1.389 . S
C1100 C1099 1.389 . S
C1100 C1101 1.387 . S
C1101 H1086 0.930 . S
C1101 C1096 1.390 . S
C1101 C1100 1.387 . S
H1102 C1114 0.930 . S
H1103 C1116 0.930 . S
H1104 C1117 0.930 . S
H1105 C1121 0.959 . S
H1106 C1121 0.959 . S
H1107 C1121 0.961 . S
H1108 C1122 0.960 . S
H1109 C1122 0.961 . S
H1110 C1122 0.959 . S
H1111 C1125 0.929 . S
H1112 C1126 0.931 . S
H1113 C1128 0.930 . S
C1114 H1102 0.930 . S
C1114 C1115 1.399 . S
C1114 C1119 1.399 . S
C1115 C1114 1.399 . S
C1115 C1116 1.376 . S
C1116 H1103 0.930 . S
C1116 C1115 1.376 . S
C1116 C1117 1.388 . S
C1117 H1104 0.930 . S
C1117 C1116 1.388 . S
C1117 C1118 1.390 . S
C1118 C1117 1.390 . S
C1118 C1119 1.394 . S
C1118 C1124 1.465 . S
C1119 C1114 1.399 . S
C1119 C1118 1.394 . S
C1119 C1120 1.516 . S
C1120 C1119 1.516 . S
C1120 C1121 1.502 . S
C1120 C1122 1.561 . S
C1120 C1123 1.526 . S
C1121 H1105 0.959 . S
C1121 H1106 0.959 . S
C1121 H1107 0.961 . S
C1121 C1120 1.502 . S
C1122 H1108 0.960 . S
C1122 H1109 0.961 . S
C1122 H1110 0.959 . S
C1122 C1120 1.561 . S
C1123 C1120 1.526 . S
C1123 C1124 1.396 . S
C1123 C1128 1.390 . S
C1124 C1118 1.465 . S
C1124 C1123 1.396 . S
C1124 C1125 1.399 . S
C1125 H1111 0.929 . S
C1125 C1124 1.399 . S
C1125 C1126 1.385 . S
C1126 H1112 0.931 . S
C1126 C1125 1.385 . S
C1126 C1127 1.389 . S
C1127 C1126 1.389 . S
C1127 C1128 1.387 . S
C1128 H1113 0.930 . S
C1128 C1123 1.390 . S
C1128 C1127 1.387 . S
H1129 C1141 0.930 . S
H1130 C1143 0.930 . S
H1131 C1144 0.930 . S
H1132 C1148 0.959 . S
H1133 C1148 0.959 . S
H1134 C1148 0.961 . S
H1135 C1149 0.960 . S
H1136 C1149 0.961 . S
H1137 C1149 0.959 . S
H1138 C1152 0.929 1_455 S
H1139 C1153 0.931 1_455 S
H1140 C1155 0.930 . S
C1141 H1129 0.930 . S
C1141 C1142 1.399 . S
C1141 C1146 1.399 . S
C1142 C1141 1.399 . S
C1142 C1143 1.376 . S
C1143 H1130 0.930 . S
C1143 C1142 1.376 . S
C1143 C1144 1.388 . S
C1144 H1131 0.930 . S
C1144 C1143 1.388 . S
C1144 C1145 1.390 . S
C1145 C1144 1.390 . S
C1145 C1146 1.394 . S
C1145 C1151 1.465 . S
C1146 C1141 1.399 . S
C1146 C1145 1.394 . S
C1146 C1147 1.516 . S
C1147 C1146 1.516 . S
C1147 C1148 1.502 . S
C1147 C1149 1.561 . S
C1147 C1150 1.526 . S
C1148 H1132 0.959 . S
C1148 H1133 0.959 . S
C1148 H1134 0.961 . S
C1148 C1147 1.502 . S
C1149 H1135 0.960 . S
C1149 H1136 0.961 . S
C1149 H1137 0.959 . S
C1149 C1147 1.561 . S
C1150 C1147 1.526 . S
C1150 C1151 1.396 . S
C1150 C1155 1.390 . S
C1151 C1145 1.465 . S
C1151 C1150 1.396 . S
C1151 C1152 1.399 . S
C1152 H1138 0.929 1_655 S
C1152 C1151 1.399 . S
C1152 C1153 1.385 . S
C1153 H1139 0.931 1_655 S
C1153 C1152 1.385 . S
C1153 C1154 1.389 . S
C1154 C1153 1.389 . S
C1154 C1155 1.387 . S
C1155 H1140 0.930 . S
C1155 C1150 1.390 . S
C1155 C1154 1.387 . S
H1156 C1168 0.930 . S
H1157 C1170 0.930 . S
H1158 C1171 0.930 . S
H1159 C1175 0.959 . S
H1160 C1175 0.959 . S
H1161 C1175 0.961 . S
H1162 C1176 0.960 . S
H1163 C1176 0.961 . S
H1164 C1176 0.959 . S
H1165 C1179 0.929 . S
H1166 C1180 0.931 . S
H1167 C1182 0.930 . S
C1168 H1156 0.930 . S
C1168 C1169 1.399 . S
C1168 C1173 1.399 . S
C1169 C1168 1.399 . S
C1169 C1170 1.376 . S
C1170 H1157 0.930 . S
C1170 C1169 1.376 . S
C1170 C1171 1.388 . S
C1171 H1158 0.930 . S
C1171 C1170 1.388 . S
C1171 C1172 1.390 . S
C1172 C1171 1.390 . S
C1172 C1173 1.394 . S
C1172 C1178 1.465 . S
C1173 C1168 1.399 . S
C1173 C1172 1.394 . S
C1173 C1174 1.516 . S
C1174 C1173 1.516 . S
C1174 C1175 1.502 . S
C1174 C1176 1.561 . S
C1174 C1177 1.526 . S
C1175 H1159 0.959 . S
C1175 H1160 0.959 . S
C1175 H1161 0.961 . S
C1175 C1174 1.502 . S
C1176 H1162 0.960 . S
C1176 H1163 0.961 . S
C1176 H1164 0.959 . S
C1176 C1174 1.561 . S
C1177 C1174 1.526 . S
C1177 C1178 1.396 . S
C1177 C1182 1.390 . S
C1178 C1172 1.465 . S
C1178 C1177 1.396 . S
C1178 C1179 1.399 . S
C1179 H1165 0.929 . S
C1179 C1178 1.399 . S
C1179 C1180 1.385 . S
C1180 H1166 0.931 . S
C1180 C1179 1.385 . S
C1180 C1181 1.389 . S
C1181 C1180 1.389 . S
C1181 C1182 1.387 . S
C1182 H1167 0.930 . S
C1182 C1177 1.390 . S
C1182 C1181 1.387 . S
H1183 C1195 0.930 . S
H1184 C1197 0.930 . S
H1185 C1198 0.930 . S
H1186 C1202 0.959 . S
H1187 C1202 0.959 . S
H1188 C1202 0.961 . S
H1189 C1203 0.960 . S
H1190 C1203 0.961 . S
H1191 C1203 0.959 . S
H1192 C1206 0.929 . S
H1193 C1207 0.931 . S
H1194 C1209 0.930 . S
C1195 H1183 0.930 . S
C1195 C1196 1.399 . S
C1195 C1200 1.399 . S
C1196 C1195 1.399 . S
C1196 C1197 1.376 . S
C1197 H1184 0.930 . S
C1197 C1196 1.376 . S
C1197 C1198 1.388 . S
C1198 H1185 0.930 . S
C1198 C1197 1.388 . S
C1198 C1199 1.390 . S
C1199 C1198 1.390 . S
C1199 C1200 1.394 . S
C1199 C1205 1.465 . S
C1200 C1195 1.399 . S
C1200 C1199 1.394 . S
C1200 C1201 1.516 . S
C1201 C1200 1.516 . S
C1201 C1202 1.502 . S
C1201 C1203 1.561 . S
C1201 C1204 1.526 . S
C1202 H1186 0.959 . S
C1202 H1187 0.959 . S
C1202 H1188 0.961 . S
C1202 C1201 1.502 . S
C1203 H1189 0.960 . S
C1203 H1190 0.961 . S
C1203 H1191 0.959 . S
C1203 C1201 1.561 . S
C1204 C1201 1.526 . S
C1204 C1205 1.396 . S
C1204 C1209 1.390 . S
C1205 C1199 1.465 . S
C1205 C1204 1.396 . S
C1205 C1206 1.399 . S
C1206 H1192 0.929 . S
C1206 C1205 1.399 . S
C1206 C1207 1.385 . S
C1207 H1193 0.931 . S
C1207 C1206 1.385 . S
C1207 C1208 1.389 . S
C1208 C1207 1.389 . S
C1208 C1209 1.387 . S
C1209 H1194 0.930 . S
C1209 C1204 1.390 . S
C1209 C1208 1.387 . S
H1210 C1222 0.930 . S
H1211 C1224 0.930 . S
H1212 C1225 0.930 . S
H1213 C1229 0.959 . S
H1214 C1229 0.959 . S
H1215 C1229 0.961 . S
H1216 C1230 0.960 . S
H1217 C1230 0.961 . S
H1218 C1230 0.959 . S
H1219 C1233 0.929 . S
H1220 C1234 0.931 . S
H1221 C1236 0.930 . S
C1222 H1210 0.930 . S
C1222 C1223 1.399 . S
C1222 C1227 1.399 . S
C1223 C1222 1.399 . S
C1223 C1224 1.376 . S
C1224 H1211 0.930 . S
C1224 C1223 1.376 . S
C1224 C1225 1.388 . S
C1225 H1212 0.930 . S
C1225 C1224 1.388 . S
C1225 C1226 1.390 . S
C1226 C1225 1.390 . S
C1226 C1227 1.394 . S
C1226 C1232 1.465 . S
C1227 C1222 1.399 . S
C1227 C1226 1.394 . S
C1227 C1228 1.516 . S
C1228 C1227 1.516 . S
C1228 C1229 1.502 . S
C1228 C1230 1.561 . S
C1228 C1231 1.526 . S
C1229 H1213 0.959 . S
C1229 H1214 0.959 . S
C1229 H1215 0.961 . S
C1229 C1228 1.502 . S
C1230 H1216 0.960 . S
C1230 H1217 0.961 . S
C1230 H1218 0.959 . S
C1230 C1228 1.561 . S
C1231 C1228 1.526 . S
C1231 C1232 1.396 . S
C1231 C1236 1.390 . S
C1232 C1226 1.465 . S
C1232 C1231 1.396 . S
C1232 C1233 1.399 . S
C1233 H1219 0.929 . S
C1233 C1232 1.399 . S
C1233 C1234 1.385 . S
C1234 H1220 0.931 . S
C1234 C1233 1.385 . S
C1234 C1235 1.389 . S
C1235 C1234 1.389 . S
C1235 C1236 1.387 . S
C1236 H1221 0.930 . S
C1236 C1231 1.390 . S
C1236 C1235 1.387 . S
H1237 C1249 0.930 . S
H1238 C1251 0.930 . S
H1239 C1252 0.930 . S
H1240 C1256 0.959 . S
H1241 C1256 0.959 . S
H1242 C1256 0.961 . S
H1243 C1257 0.960 . S
H1244 C1257 0.961 . S
H1245 C1257 0.959 . S
H1246 C1260 0.929 . S
H1247 C1261 0.931 . S
H1248 C1263 0.930 . S
C1249 H1237 0.930 . S
C1249 C1250 1.399 . S
C1249 C1254 1.399 . S
C1250 C1249 1.399 . S
C1250 C1251 1.376 . S
C1251 H1238 0.930 . S
C1251 C1250 1.376 . S
C1251 C1252 1.388 . S
C1252 H1239 0.930 . S
C1252 C1251 1.388 . S
C1252 C1253 1.390 . S
C1253 C1252 1.390 . S
C1253 C1254 1.394 . S
C1253 C1259 1.465 . S
C1254 C1249 1.399 . S
C1254 C1253 1.394 . S
C1254 C1255 1.516 . S
C1255 C1254 1.516 . S
C1255 C1256 1.502 . S
C1255 C1257 1.561 . S
C1255 C1258 1.526 . S
C1256 H1240 0.959 . S
C1256 H1241 0.959 . S
C1256 H1242 0.961 . S
C1256 C1255 1.502 . S
C1257 H1243 0.960 . S
C1257 H1244 0.961 . S
C1257 H1245 0.959 . S
C1257 C1255 1.561 . S
C1258 C1255 1.526 . S
C1258 C1259 1.396 . S
C1258 C1263 1.390 . S
C1259 C1253 1.465 . S
C1259 C1258 1.396 . S
C1259 C1260 1.399 . S
C1260 H1246 0.929 . S
C1260 C1259 1.399 . S
C1260 C1261 1.385 . S
C1261 H1247 0.931 . S
C1261 C1260 1.385 . S
C1261 C1262 1.389 . S
C1262 C1261 1.389 . S
C1262 C1263 1.387 . S
C1263 H1248 0.930 . S
C1263 C1258 1.390 . S
C1263 C1262 1.387 . S
H1264 C1276 0.930 . S
H1265 C1278 0.930 . S
H1266 C1279 0.930 . S
H1267 C1283 0.959 . S
H1268 C1283 0.959 . S
H1269 C1283 0.961 . S
H1270 C1284 0.960 . S
H1271 C1284 0.961 . S
H1272 C1284 0.959 . S
H1273 C1287 0.929 . S
H1274 C1288 0.931 . S
H1275 C1290 0.930 . S
C1276 H1264 0.930 . S
C1276 C1277 1.399 . S
C1276 C1281 1.399 . S
C1277 C1276 1.399 . S
C1277 C1278 1.376 . S
C1278 H1265 0.930 . S
C1278 C1277 1.376 . S
C1278 C1279 1.388 . S
C1279 H1266 0.930 . S
C1279 C1278 1.388 . S
C1279 C1280 1.390 . S
C1280 C1279 1.390 . S
C1280 C1281 1.394 . S
C1280 C1286 1.465 . S
C1281 C1276 1.399 . S
C1281 C1280 1.394 . S
C1281 C1282 1.516 . S
C1282 C1281 1.516 . S
C1282 C1283 1.502 . S
C1282 C1284 1.561 . S
C1282 C1285 1.526 . S
C1283 H1267 0.959 . S
C1283 H1268 0.959 . S
C1283 H1269 0.961 . S
C1283 C1282 1.502 . S
C1284 H1270 0.960 . S
C1284 H1271 0.961 . S
C1284 H1272 0.959 . S
C1284 C1282 1.561 . S
C1285 C1282 1.526 . S
C1285 C1286 1.396 . S
C1285 C1290 1.390 . S
C1286 C1280 1.465 . S
C1286 C1285 1.396 . S
C1286 C1287 1.399 . S
C1287 H1273 0.929 . S
C1287 C1286 1.399 . S
C1287 C1288 1.385 . S
C1288 H1274 0.931 . S
C1288 C1287 1.385 . S
C1288 C1289 1.389 . S
C1289 C1288 1.389 . S
C1289 C1290 1.387 . S
C1290 H1275 0.930 . S
C1290 C1285 1.390 . S
C1290 C1289 1.387 . S
H1291 C1303 0.930 . S
H1292 C1305 0.930 . S
H1293 C1306 0.930 . S
H1294 C1310 0.959 . S
H1295 C1310 0.959 . S
H1296 C1310 0.961 . S
H1297 C1311 0.960 . S
H1298 C1311 0.961 . S
H1299 C1311 0.959 . S
H1300 C1314 0.929 . S
H1301 C1315 0.931 . S
H1302 C1317 0.930 . S
C1303 H1291 0.930 . S
C1303 C1304 1.399 . S
C1303 C1308 1.399 . S
C1304 C1303 1.399 . S
C1304 C1305 1.376 . S
C1305 H1292 0.930 . S
C1305 C1304 1.376 . S
C1305 C1306 1.388 . S
C1306 H1293 0.930 . S
C1306 C1305 1.388 . S
C1306 C1307 1.390 . S
C1307 C1306 1.390 . S
C1307 C1308 1.394 . S
C1307 C1313 1.465 . S
C1308 C1303 1.399 . S
C1308 C1307 1.394 . S
C1308 C1309 1.516 . S
C1309 C1308 1.516 . S
C1309 C1310 1.502 . S
C1309 C1311 1.561 . S
C1309 C1312 1.526 . S
C1310 H1294 0.959 . S
C1310 H1295 0.959 . S
C1310 H1296 0.961 . S
C1310 C1309 1.502 . S
C1311 H1297 0.960 . S
C1311 H1298 0.961 . S
C1311 H1299 0.959 . S
C1311 C1309 1.561 . S
C1312 C1309 1.526 . S
C1312 C1313 1.396 . S
C1312 C1317 1.390 . S
C1313 C1307 1.465 . S
C1313 C1312 1.396 . S
C1313 C1314 1.399 . S
C1314 H1300 0.929 . S
C1314 C1313 1.399 . S
C1314 C1315 1.385 . S
C1315 H1301 0.931 . S
C1315 C1314 1.385 . S
C1315 C1316 1.389 . S
C1316 C1315 1.389 . S
C1316 C1317 1.387 . S
C1317 H1302 0.930 . S
C1317 C1312 1.390 . S
C1317 C1316 1.387 . S
H1318 C1330 0.930 . S
H1319 C1332 0.930 . S
H1320 C1333 0.930 . S
H1321 C1337 0.959 . S
H1322 C1337 0.959 . S
H1323 C1337 0.961 . S
H1324 C1338 0.960 . S
H1325 C1338 0.961 . S
H1326 C1338 0.959 . S
H1327 C1341 0.929 . S
H1328 C1342 0.931 . S
H1329 C1344 0.930 . S
C1330 H1318 0.930 . S
C1330 C1331 1.399 . S
C1330 C1335 1.399 . S
C1331 C1330 1.399 . S
C1331 C1332 1.376 . S
C1332 H1319 0.930 . S
C1332 C1331 1.376 . S
C1332 C1333 1.388 . S
C1333 H1320 0.930 . S
C1333 C1332 1.388 . S
C1333 C1334 1.390 . S
C1334 C1333 1.390 . S
C1334 C1335 1.394 . S
C1334 C1340 1.465 . S
C1335 C1330 1.399 . S
C1335 C1334 1.394 . S
C1335 C1336 1.516 . S
C1336 C1335 1.516 . S
C1336 C1337 1.502 . S
C1336 C1338 1.561 . S
C1336 C1339 1.526 . S
C1337 H1321 0.959 . S
C1337 H1322 0.959 . S
C1337 H1323 0.961 . S
C1337 C1336 1.502 . S
C1338 H1324 0.960 . S
C1338 H1325 0.961 . S
C1338 H1326 0.959 . S
C1338 C1336 1.561 . S
C1339 C1336 1.526 . S
C1339 C1340 1.396 . S
C1339 C1344 1.390 . S
C1340 C1334 1.465 . S
C1340 C1339 1.396 . S
C1340 C1341 1.399 . S
C1341 H1327 0.929 . S
C1341 C1340 1.399 . S
C1341 C1342 1.385 . S
C1342 H1328 0.931 . S
C1342 C1341 1.385 . S
C1342 C1343 1.389 . S
C1343 C1342 1.389 . S
C1343 C1344 1.387 . S
C1344 H1329 0.930 . S
C1344 C1339 1.390 . S
C1344 C1343 1.387 . S
H1345 C1357 0.930 . S
H1346 C1359 0.930 . S
H1347 C1360 0.930 . S
H1348 C1364 0.959 . S
H1349 C1364 0.959 . S
H1350 C1364 0.961 . S
H1351 C1365 0.960 . S
H1352 C1365 0.961 . S
H1353 C1365 0.959 . S
H1354 C1368 0.929 . S
H1355 C1369 0.931 . S
H1356 C1371 0.930 . S
C1357 H1345 0.930 . S
C1357 C1358 1.399 . S
C1357 C1362 1.399 . S
C1358 C1357 1.399 . S
C1358 C1359 1.376 . S
C1359 H1346 0.930 . S
C1359 C1358 1.376 . S
C1359 C1360 1.388 . S
C1360 H1347 0.930 . S
C1360 C1359 1.388 . S
C1360 C1361 1.390 . S
C1361 C1360 1.390 . S
C1361 C1362 1.394 . S
C1361 C1367 1.465 . S
C1362 C1357 1.399 . S
C1362 C1361 1.394 . S
C1362 C1363 1.516 . S
C1363 C1362 1.516 . S
C1363 C1364 1.502 . S
C1363 C1365 1.561 . S
C1363 C1366 1.526 . S
C1364 H1348 0.959 . S
C1364 H1349 0.959 . S
C1364 H1350 0.961 . S
C1364 C1363 1.502 . S
C1365 H1351 0.960 . S
C1365 H1352 0.961 . S
C1365 H1353 0.959 . S
C1365 C1363 1.561 . S
C1366 C1363 1.526 . S
C1366 C1367 1.396 . S
C1366 C1371 1.390 . S
C1367 C1361 1.465 . S
C1367 C1366 1.396 . S
C1367 C1368 1.399 . S
C1368 H1354 0.929 . S
C1368 C1367 1.399 . S
C1368 C1369 1.385 . S
C1369 H1355 0.931 . S
C1369 C1368 1.385 . S
C1369 C1370 1.389 . S
C1370 C1369 1.389 . S
C1370 C1371 1.387 . S
C1371 H1356 0.930 . S
C1371 C1366 1.390 . S
C1371 C1370 1.387 . S
C533 C444 1.770 . S
C521 C45 1.837 . S
C548 C78 1.738 . S
C560 C447 1.691 . S
C575 C126 1.733 . S
C587 C478 1.702 . S
C614 C413 1.772 . S
C602 C174 1.811 . S
C641 C448 1.775 . S
C629 C36 1.840 . S
C668 C479 1.725 . S
C656 C69 1.815 . S
C695 C404 1.708 . S
C683 C117 1.742 . S
C722 C435 1.694 . S
C710 C165 1.757 . S
C737 C30 1.335 . S
C749 C465 1.258 . S
C764 C228 1.303 1_565 S
C776 C434 1.221 . S
C791 C141 1.204 . S
C803 C394 1.240 . S
C830 C487 1.243 . S
C818 C270 1.211 1_545 S
C857 C415 1.241 . S
C845 C21 1.330 . S
C872 C237 1.269 1_565 S
C884 C414 1.251 . S
C899 C132 1.230 . S
C911 C507 1.196 . S
C938 C446 1.255 . S
C926 C261 1.305 1_545 S
C953 C333 1.830 . S
C965 C506 1.777 . S
C980 C213 1.748 . S
C992 C385 1.744 . S
C1007 C357 1.741 . S
C1019 C416 1.696 . S
C1034 C285 1.807 . S
C1046 C475 1.719 . S
C1073 C386 1.773 . S
C1061 C324 1.837 . S
C1088 C222 1.796 . S
C1100 C417 1.722 . S
C1115 C366 1.736 . S
C1127 C466 1.700 . S
C1154 C497 1.702 . S
C1142 C276 1.764 . S
C1169 C318 1.286 . S
C1181 C403 1.198 . S
C1196 C93 1.267 . S
C1208 C496 1.183 . S
C1223 C372 1.230 . S
C1235 C456 1.251 . S
C1262 C425 1.243 . S
C1250 C189 1.268 . S
C1289 C477 1.303 . S
C1277 C309 1.333 . S
C1316 C476 1.266 . S
C1304 C84 1.246 . S
C1343 C445 1.203 . S
C1331 C381 1.237 . S
C1370 C384 1.274 . S
C1358 C180 1.318 . S
