# Generated by pormake.
# Topology pyr, (3,6)-cn, num edge types: 1
# Building blocks:
#     Node 0, Type 0, BuildingBlock: BETDAH_clean_linker_0, # of connection points: 3
#     Node 1, Type 0, BuildingBlock: BETDAH_clean_linker_0, # of connection points: 3
#     Node 2, Type 0, BuildingBlock: BETDAH_clean_linker_0, # of connection points: 3
#     Node 3, Type 0, BuildingBlock: BETDAH_clean_linker_0, # of connection points: 3
#     Node 4, Type 0, BuildingBlock: BETDAH_clean_linker_0, # of connection points: 3
#     Node 5, Type 0, BuildingBlock: BETDAH_clean_linker_0, # of connection points: 3
#     Node 6, Type 0, BuildingBlock: BETDAH_clean_linker_0, # of connection points: 3
#     Node 7, Type 0, BuildingBlock: BETDAH_clean_linker_0, # of connection points: 3
#     Node 8, Type 1, BuildingBlock: PAMTUU_clean_sbu_0, # of connection points: 6
#     Node 9, Type 1, BuildingBlock: PAMTUU_clean_sbu_0, # of connection points: 6
#     Node 10, Type 1, BuildingBlock: PAMTUU_clean_sbu_0, # of connection points: 6
#     Node 11, Type 1, BuildingBlock: PAMTUU_clean_sbu_0, # of connection points: 6
#     Edge 12, Type (0, 1), BuildingBlock: OJICUG_clean_linker_0, # of connection points: 2
#     Edge 13, Type (0, 1), BuildingBlock: OJICUG_clean_linker_0, # of connection points: 2
#     Edge 14, Type (0, 1), BuildingBlock: OJICUG_clean_linker_0, # of connection points: 2
#     Edge 15, Type (0, 1), BuildingBlock: OJICUG_clean_linker_0, # of connection points: 2
#     Edge 16, Type (0, 1), BuildingBlock: OJICUG_clean_linker_0, # of connection points: 2
#     Edge 17, Type (0, 1), BuildingBlock: OJICUG_clean_linker_0, # of connection points: 2
#     Edge 18, Type (0, 1), BuildingBlock: OJICUG_clean_linker_0, # of connection points: 2
#     Edge 19, Type (0, 1), BuildingBlock: OJICUG_clean_linker_0, # of connection points: 2
#     Edge 20, Type (0, 1), BuildingBlock: OJICUG_clean_linker_0, # of connection points: 2
#     Edge 21, Type (0, 1), BuildingBlock: OJICUG_clean_linker_0, # of connection points: 2
#     Edge 22, Type (0, 1), BuildingBlock: OJICUG_clean_linker_0, # of connection points: 2
#     Edge 23, Type (0, 1), BuildingBlock: OJICUG_clean_linker_0, # of connection points: 2
#     Edge 24, Type (0, 1), BuildingBlock: OJICUG_clean_linker_0, # of connection points: 2
#     Edge 25, Type (0, 1), BuildingBlock: OJICUG_clean_linker_0, # of connection points: 2
#     Edge 26, Type (0, 1), BuildingBlock: OJICUG_clean_linker_0, # of connection points: 2
#     Edge 27, Type (0, 1), BuildingBlock: OJICUG_clean_linker_0, # of connection points: 2
#     Edge 28, Type (0, 1), BuildingBlock: OJICUG_clean_linker_0, # of connection points: 2
#     Edge 29, Type (0, 1), BuildingBlock: OJICUG_clean_linker_0, # of connection points: 2
#     Edge 30, Type (0, 1), BuildingBlock: OJICUG_clean_linker_0, # of connection points: 2
#     Edge 31, Type (0, 1), BuildingBlock: OJICUG_clean_linker_0, # of connection points: 2
#     Edge 32, Type (0, 1), BuildingBlock: OJICUG_clean_linker_0, # of connection points: 2
#     Edge 33, Type (0, 1), BuildingBlock: OJICUG_clean_linker_0, # of connection points: 2
#     Edge 34, Type (0, 1), BuildingBlock: OJICUG_clean_linker_0, # of connection points: 2
#     Edge 35, Type (0, 1), BuildingBlock: OJICUG_clean_linker_0, # of connection points: 2
# Relax obj value: 0.207
# Max RMSD: 0.182
# Mean RMSD: 0.136
data_MOF--net-pyr--node1-PAMTUU_clean_sbu_0--node2-BETDAH_clean_linker_0--edge1-OJICUG_clean_linker_0
_symmetry_space_group_name_H-M    P1
_symmetry_Int_Tables_number       1
_symmetry_cell_setting            triclinic
loop_
_symmetry_equiv_pos_as_xyz
'x, y, z'
_cell_length_a     27.362287
_cell_length_b     29.424165
_cell_length_c     27.882365
_cell_angle_alpha  90.248378
_cell_angle_beta   90.055179
_cell_angle_gamma 108.98411
loop_
_atom_site_label
_atom_site_type_symbol
_atom_site_fract_x
_atom_site_fract_y
_atom_site_fract_z
_atom_type_partial_charge
H0 H 0.46415 0.25887 0.31625 0.0
H1 H 0.50868 0.3666 0.20619 0.0
H2 H 0.4135 0.38257 0.32284 0.0
C3 C 0.46585 0.29379 0.3026 0.0
C4 C 0.43815 0.31996 0.32617 0.0
C5 C 0.49074 0.30966 0.25883 0.0
C6 C 0.49009 0.35381 0.24012 0.0
C7 C 0.46144 0.37948 0.26252 0.0
C8 C 0.43586 0.36271 0.3057 0.0
N9 N 0.4551 0.41975 0.23899 0.0
C10 C 0.40677 0.42542 0.23492 0.0
H11 H 0.24877 0.79938 0.84846 0.0
H12 H 0.1053 0.82405 0.82001 0.0
H13 H 0.16811 0.75042 0.71572 0.0
C14 C 0.21503 0.79392 0.82587 0.0
C15 C 0.21301 0.77205 0.78076 0.0
C16 C 0.17639 0.81272 0.84028 0.0
C17 C 0.13441 0.80818 0.80977 0.0
C18 C 0.13093 0.78506 0.76514 0.0
C19 C 0.16967 0.76607 0.75117 0.0
N20 N 0.0919 0.78562 0.73196 0.0
C21 C 0.07974 0.82747 0.72496 0.0
H22 H 0.74885 0.37402 0.9993 0.0
H23 H 0.75345 0.50155 0.92219 0.0
H24 H 0.62337 0.37284 0.9054 0.0
C25 C 0.73264 0.39132 0.97237 0.0
C26 C 0.68413 0.36568 0.95193 0.0
C27 C 0.75917 0.43992 0.9615 0.0
C28 C 0.73523 0.4637 0.92957 0.0
C29 C 0.68645 0.43958 0.90861 0.0
C30 C 0.66145 0.39068 0.92012 0.0
N31 N 0.65686 0.467 0.88813 0.0
C32 C 0.65428 0.48007 0.83987 0.0
H33 H 0.83184 0.78532 0.50483 0.0
H34 H 0.97003 0.79144 0.42849 0.0
H35 H 0.83687 0.66394 0.42001 0.0
C36 C 0.85217 0.76902 0.48052 0.0
C37 C 0.82712 0.72173 0.46382 0.0
C38 C 0.90358 0.79506 0.46821 0.0
C39 C 0.92978 0.77308 0.43685 0.0
C40 C 0.90582 0.72634 0.41812 0.0
C41 C 0.8545 0.70066 0.43218 0.0
N42 N 0.93803 0.70301 0.39488 0.0
C43 C 0.93211 0.6809 0.34939 0.0
H44 H 0.76558 0.81471 0.89531 0.0
H45 H 0.67736 0.77226 1.02435 0.0
H46 H 0.61869 0.83708 0.90932 0.0
C47 C 0.73029 0.8102 0.9152 0.0
C48 C 0.69193 0.82679 0.89586 0.0
C49 C 0.72552 0.79066 0.96133 0.0
C50 C 0.6808 0.78615 0.98813 0.0
C51 C 0.64272 0.80386 0.96982 0.0
C52 C 0.64812 0.82348 0.92344 0.0
N53 N 0.60174 0.80588 0.9999 0.0
C54 C 0.58487 0.84563 0.9991 0.0
H55 H 0.92987 0.24106 0.40012 0.0
H56 H 0.9733 0.32739 0.52769 0.0
H57 H 0.8715 0.35786 0.42363 0.0
C58 C 0.92953 0.27198 0.42135 0.0
C59 C 0.89879 0.29907 0.4066 0.0
C60 C 0.9557 0.28115 0.46522 0.0
C61 C 0.95445 0.32076 0.49294 0.0
C62 C 0.92409 0.34867 0.47825 0.0
C63 C 0.89653 0.33784 0.43463 0.0
N64 N 0.91763 0.38413 0.50998 0.0
C65 C 0.87197 0.39521 0.5112 0.0
H66 H 0.3465 0.80333 0.18112 0.0
H67 H 0.34144 0.69888 0.29173 0.0
H68 H 0.46376 0.83509 0.28935 0.0
C69 C 0.36149 0.79305 0.21376 0.0
C70 C 0.40677 0.82554 0.23339 0.0
C71 C 0.33617 0.74752 0.23437 0.0
C72 C 0.35961 0.7334 0.27506 0.0
C73 C 0.40641 0.76494 0.29464 0.0
C74 C 0.42882 0.81064 0.27357 0.0
N75 N 0.43297 0.75437 0.3356 0.0
C76 C 0.4237 0.71346 0.36483 0.0
H77 H 0.24482 0.36434 0.68786 0.0
H78 H 0.24121 0.47719 0.78673 0.0
H79 H 0.12691 0.33671 0.79511 0.0
C80 C 0.22726 0.37693 0.71762 0.0
C81 C 0.18309 0.34461 0.73889 0.0
C82 C 0.24882 0.42512 0.73355 0.0
C83 C 0.2257 0.44056 0.77375 0.0
C84 C 0.18128 0.40834 0.79604 0.0
C85 C 0.16075 0.3611 0.7779 0.0
N86 N 0.15367 0.42031 0.83542 0.0
C87 C 0.1637 0.46093 0.8654 0.0
Tb88 Tb 0.0988 0.07782 0.57468 0.0
Tb89 Tb 0.98911 0.06375 0.62966 0.0
C90 C 0.99866 0.98532 0.55701 0.0
C91 C 0.22372 0.13002 0.51094 0.0
C92 C 0.30173 0.20533 0.4674 0.0
C93 C 0.25879 0.21391 0.48837 0.0
C94 C 0.22003 0.17647 0.51011 0.0
C95 C 0.26738 0.12177 0.49198 0.0
C96 C 0.30615 0.15911 0.47041 0.0
C97 C 0.18117 0.08931 0.52878 0.0
O98 O 0.07281 0.13679 0.55245 0.0
O99 O 0.98819 0.0929 0.5586 0.0
O100 O 0.03973 0.1356 0.64994 0.0
O101 O 0.11994 0.13037 0.63353 0.0
O102 O 0.90955 0.05082 0.62176 0.0
O103 O 0.94749 0.07243 0.69024 0.0
O104 O 0.02454 1.02174 0.67359 0.0
O105 O 0.09156 1.01966 0.62404 0.0
O106 O 0.03931 1.01803 0.53812 0.0
O107 O 0.9777 0.99384 0.59702 0.0
C108 C 0.02439 0.13109 0.5433 0.0
O109 O 0.17762 0.08466 0.57524 0.0
O110 O 0.13635 0.08291 0.50861 0.0
C111 C 0.0904 0.15259 0.65369 0.0
C112 C 0.8607 1.02229 0.69198 0.0
C113 C 0.78238 0.95432 0.74393 0.0
C114 C 0.80668 1.00076 0.76256 0.0
C115 C 0.84517 0.0344 0.7367 0.0
C116 C 0.83563 0.97653 0.67238 0.0
C117 C 0.79657 0.94291 0.69807 0.0
C118 C 0.90352 0.05794 0.66725 0.0
C119 C 0.06235 1.00524 0.66199 0.0
H120 H 0.25458 0.24923 0.48688 0.0
H121 H 0.18652 0.18336 0.52496 0.0
H122 H 0.27065 0.08604 0.4924 0.0
H123 H 0.3383 0.15113 0.45397 0.0
H124 H 0.79776 1.01066 0.79813 0.0
H125 H 0.86393 0.06959 0.75231 0.0
H126 H 0.84675 0.96639 0.63771 0.0
H127 H 0.77831 0.90768 0.68244 0.0
Tb128 Tb 0.59702 0.09914 0.10881 0.0
Tb129 Tb 0.48374 0.08676 1.06187 0.0
C130 C 0.55133 1.02515 1.02725 0.0
C131 C 0.72082 0.14547 0.17416 0.0
C132 C 0.78078 0.20805 0.24357 0.0
C133 C 0.79046 0.16528 0.2319 0.0
C134 C 0.76064 0.13419 0.19735 0.0
C135 C 0.71281 0.18944 0.18371 0.0
C136 C 0.74299 0.22085 0.21821 0.0
C137 C 0.68422 0.10864 0.14489 0.0
O138 O 0.60893 0.16612 0.07036 0.0
O139 O 0.5391 0.14336 1.01899 0.0
O140 O 0.50266 0.15089 0.10528 0.0
O141 O 0.56161 0.13785 0.1574 0.0
O142 O 0.43652 0.07958 1.00137 0.0
O143 O 0.40639 0.0824 0.07273 0.0
O144 O 0.46858 0.03757 0.12367 0.0
O145 O 0.54795 1.02773 0.13088 0.0
O146 O 0.59208 0.06037 1.04148 0.0
O147 O 0.50462 1.02575 1.03646 0.0
C148 C 0.58422 0.17392 1.03247 0.0
O149 O 0.64048 0.08661 0.16593 0.0
O150 O 0.67765 0.12046 0.10096 0.0
C151 C 0.53006 0.16119 0.14474 0.0
C152 C 0.35102 0.03213 1.016 0.0
C153 C 0.26986 0.953 0.98131 0.0
C154 C 0.26253 0.99774 0.98851 0.0
C155 C 0.30302 0.03712 1.00547 0.0
C156 C 0.35732 0.98685 1.01262 0.0
C157 C 0.31719 0.94766 0.9952 0.0
C158 C 0.39535 0.07457 1.02729 0.0
C159 C 0.49811 1.01324 0.13977 0.0
H160 H 0.81962 0.15495 0.25113 0.0
H161 H 0.76701 0.10028 0.19044 0.0
H162 H 0.68173 0.19832 0.16619 0.0
H163 H 0.73481 0.25353 0.22707 0.0
H164 H 0.22631 1.00287 0.97903 0.0
H165 H 0.29748 0.07184 1.00856 0.0
H166 H 0.39413 0.98235 1.02112 0.0
H167 H 0.32471 0.9141 0.98967 0.0
Tb168 Tb 0.52943 0.53371 0.56476 0.0
Tb169 Tb 0.53685 0.62982 0.62443 0.0
C170 C 0.48386 0.61173 0.52208 0.0
C171 C 0.57953 0.44265 0.52066 0.0
C172 C 0.67279 0.42109 0.51728 0.0
C173 C 0.63837 0.41021 0.47802 0.0
C174 C 0.5921 0.42097 0.47972 0.0
C175 C 0.61333 0.45258 0.56016 0.0
C176 C 0.65928 0.44179 0.55857 0.0
C177 C 0.53552 0.46109 0.52025 0.0
O178 O 0.61091 0.57831 0.56244 0.0
O179 O 0.60105 0.65171 0.57333 0.0
O180 O 0.58948 0.59954 0.66296 0.0
O181 O 0.55293 0.52177 0.63772 0.0
O182 O 0.54286 0.70289 0.62501 0.0
O183 O 0.53564 0.6635 0.6909 0.0
O184 O 0.47165 0.57307 0.65482 0.0
O185 O 0.45033 0.52066 0.59136 0.0
O186 O 0.50741 0.58007 0.51301 0.0
O187 O 0.48098 0.62615 0.56649 0.0
C188 C 0.62802 0.62517 0.55709 0.0
O189 O 0.51092 0.45854 0.56071 0.0
O190 O 0.54548 0.50324 0.50079 0.0
C191 C 0.58214 0.55322 0.6683 0.0
C192 C 0.48737 0.7158 0.68426 0.0
C193 C 0.39708 0.73427 0.71438 0.0
C194 C 0.44286 0.75038 0.74183 0.0
C195 C 0.48758 0.74122 0.72686 0.0
C196 C 0.4419 0.69978 0.65669 0.0
C197 C 0.39732 0.70911 0.67145 0.0
C198 C 0.53284 0.70234 0.67072 0.0
C199 C 0.43881 0.53593 0.6331 0.0
H200 H 0.64749 0.3939 0.44583 0.0
H201 H 0.56693 0.41368 0.44861 0.0
H202 H 0.60515 0.47032 0.59178 0.0
H203 H 0.68518 0.45143 0.5891 0.0
H204 H 0.44389 0.7692 0.77547 0.0
H205 H 0.52201 0.75316 0.74901 0.0
H206 H 0.44059 0.67949 0.62396 0.0
H207 H 0.36311 0.69673 0.64909 0.0
Tb208 Tb 0.04992 0.62941 0.07175 0.0
Tb209 Tb 0.04966 0.53349 0.12904 0.0
C210 C 0.10029 0.55576 1.02639 0.0
C211 C 0.9972 0.71864 1.02468 0.0
C212 C 0.90782 0.74535 1.01402 0.0
C213 C 0.95074 0.76447 0.98367 0.0
C214 C 0.99505 0.75115 0.98897 0.0
C215 C 0.95489 0.69998 1.05551 0.0
C216 C 0.91058 0.71324 1.05026 0.0
C217 C 0.0415 0.70105 1.02749 0.0
O218 O 0.96976 0.58209 0.07019 0.0
O219 O 0.98339 0.51001 0.07935 0.0
O220 O 0.99788 0.56141 0.17205 0.0
O221 O 0.02422 0.63897 0.14431 0.0
O222 O 0.04824 0.46159 0.12628 0.0
O223 O 0.05436 0.49861 0.19373 0.0
O224 O 0.11597 0.59071 0.15804 0.0
O225 O 0.12905 0.64808 0.09942 0.0
O226 O 0.07377 0.58518 1.0187 0.0
O227 O 0.10509 0.54131 0.07019 0.0
C228 C 0.95444 0.53527 0.06432 0.0
O229 O 0.06308 0.70386 0.06953 0.0
O230 O 0.03391 0.65917 1.00773 0.0
C231 C 1.00008 0.6068 0.17637 0.0
C232 C 0.10949 0.45342 0.18144 0.0
C233 C 0.20576 0.44104 0.20036 0.0
C234 C 0.15964 0.40806 0.21814 0.0
C235 C 0.11176 0.41421 0.20867 0.0
C236 C 0.15543 0.4864 0.16408 0.0
C237 C 0.20294 0.48037 0.17345 0.0
C238 C 0.06025 0.46174 0.17152 0.0
C239 C 0.14426 0.63118 0.1384 0.0
H240 H 0.94956 0.78866 0.95486 0.0
H241 H 0.02711 0.76538 0.96451 0.0
H242 H 0.95579 0.67448 0.08314 0.0
H243 H 0.87847 0.69823 0.07444 0.0
H244 H 0.16051 0.37724 0.23878 0.0
H245 H 0.0767 0.38851 0.22255 0.0
H246 H 0.15466 0.51718 0.14339 0.0
H247 H 0.23761 0.507 0.16004 0.0
C248 C 0.42499 0.27544 0.40397 0.0
C249 C 0.40592 0.29871 0.36821 0.0
H250 H 0.40704 0.22841 0.46448 0.0
C251 C 0.35388 0.29653 0.36977 0.0
H252 H 0.46516 0.27717 0.40401 0.0
C253 C 0.32068 0.26867 0.40425 0.0
C254 C 0.3389 0.24244 0.43781 0.0
H255 H 0.3379 0.31367 0.3424 0.0
H256 H 0.28005 0.26508 0.40246 0.0
C257 C 0.39178 0.24757 0.43849 0.0
C258 C 0.20359 0.83128 0.92574 0.0
C259 C 0.18577 0.84475 0.88262 0.0
H260 H 0.24227 0.85495 0.99248 0.0
C261 C 0.18626 0.89225 0.87701 0.0
H262 H 0.20299 0.79464 0.93101 0.0
C263 C 0.20956 0.92691 0.91156 0.0
C264 C 0.23242 0.91458 0.95256 0.0
H265 H 0.17309 0.90364 0.84391 0.0
H266 H 0.21371 0.96399 0.90376 0.0
C267 C 0.22633 0.86586 0.96067 0.0
C268 C 0.61526 0.46766 0.75733 0.0
C269 C 0.64184 0.49884 0.79405 0.0
H270 H 0.57629 0.45995 0.68933 0.0
C271 C 0.65078 0.54843 0.78819 0.0
H272 H 0.60705 0.42925 0.7609 0.0
C273 C 0.63285 0.56631 0.74714 0.0
C274 C 0.60508 0.53508 0.71068 0.0
H275 H 0.67049 0.57344 0.8161 0.0
H276 H 0.63969 0.6046 0.74461 0.0
C277 C 0.59734 0.48546 0.71628 0.0
C278 C 0.94104 0.61187 0.30107 0.0
C279 C 0.94131 0.65979 0.30363 0.0
H280 H 0.95862 0.55726 0.25943 0.0
C281 C 0.9581 0.68897 0.26318 0.0
H282 H 0.9292 0.58863 0.33192 0.0
C283 C 0.97536 0.67121 0.22173 0.0
C284 C 0.97668 0.62361 0.21933 0.0
H285 H 0.95961 0.72622 0.26414 0.0
H286 H 0.98896 0.69543 0.19187 0.0
C287 C 0.9582 0.59393 0.25946 0.0
C288 C 0.49467 0.2703 0.18025 0.0
C289 C 0.50847 0.27607 0.22893 0.0
H290 H 0.49087 0.23009 0.11598 0.0
C291 C 0.53329 0.24559 0.2493 0.0
H292 H 0.47473 0.29239 0.16344 0.0
C293 C 0.54217 0.20894 0.22186 0.0
C294 C 0.52581 0.20193 0.17382 0.0
H295 H 0.54462 0.24932 0.28672 0.0
H296 H 0.56011 0.18521 0.23864 0.0
C297 C 0.50324 0.23385 0.15313 0.0
C298 C 0.11958 0.91098 0.7005 0.0
C299 C 0.07562 0.87421 0.71571 0.0
H300 H 0.14998 0.98218 0.67254 0.0
C301 C 0.02828 0.88278 0.71944 0.0
H302 H 0.15653 0.90496 0.69781 0.0
C303 C 0.02451 0.92731 0.70559 0.0
C304 C 0.06802 0.96333 0.68749 0.0
H305 H 0.99398 0.85463 0.73134 0.0
H306 H 0.98703 0.93238 0.7062 0.0
C307 C 0.11583 0.95513 0.68635 0.0
C308 C 0.84513 0.44062 0.9975 0.0
C309 C 0.81024 0.46548 0.98627 0.0
H310 H 0.91643 0.44217 1.03088 0.0
C311 C 0.82384 0.51392 1.00111 0.0
H312 H 0.83722 0.4037 0.98609 0.0
C313 C 0.87009 0.5363 1.02657 0.0
C314 C 0.90428 0.51099 1.03846 0.0
H315 H 0.79824 0.53447 0.994 0.0
H316 H 0.87885 0.57355 1.03725 0.0
C317 C 0.891 0.46281 1.02331 0.0
C318 C 0.76015 0.64618 0.49724 0.0
C319 C 0.77392 0.69469 0.48307 0.0
H320 H 0.70409 0.58633 0.53173 0.0
C321 C 0.73794 0.71892 0.49191 0.0
H322 H 0.78664 0.6262 0.49162 0.0
C323 C 0.69128 0.69649 0.51594 0.0
C324 C 0.67818 0.64859 0.53141 0.0
H325 H 0.74607 0.75584 0.48072 0.0
H326 H 0.66535 0.71691 0.52231 0.0
C327 C 0.7129 0.62342 0.52086 0.0
C328 C 0.31908 0.41835 0.26344 0.0
C329 C 0.3561 0.42893 0.22683 0.0
H330 H 0.2421 0.41402 0.28388 0.0
C331 C 0.34335 0.44175 0.18143 0.0
H332 H 0.32834 0.40798 0.29867 0.0
C333 C 0.29423 0.44474 0.17274 0.0
C334 C 0.25693 0.43505 0.2094 0.0
H335 H 0.37136 0.44942 0.1526 0.0
H336 H 0.2854 0.45453 0.13715 0.0
C337 C 0.26976 0.42137 0.25481 0.0
C338 C 0.68577 0.28414 0.98073 0.0
C339 C 0.65688 0.31399 0.96695 0.0
H340 H 0.68591 0.21781 1.01236 0.0
C341 C 0.60247 0.29459 0.9708 0.0
H342 H 0.72738 0.29616 0.97698 0.0
C343 C 0.57839 0.24811 0.9896 0.0
C344 C 0.60798 0.22004 1.00595 0.0
H345 H 0.57835 0.31589 0.96119 0.0
H346 H 0.53676 0.23515 0.99356 0.0
C347 C 0.66189 0.23856 1.00063 0.0
C348 C 0.91871 0.85342 0.53831 0.0
C349 C 0.93001 0.84387 0.4907 0.0
H350 H 0.9306 0.90429 0.59579 0.0
C351 C 0.96585 0.88156 0.46527 0.0
H352 H 0.89285 0.82545 0.56005 0.0
C353 C 0.98855 0.92734 0.48647 0.0
C354 C 0.97584 0.93687 0.53361 0.0
H355 H 0.97567 0.87604 0.42859 0.0
H356 H 1.0155 0.95543 0.46564 0.0
C357 C 0.94082 0.89898 0.55916 0.0
C358 C 0.30844 0.79673 0.76803 0.0
C359 C 0.25942 0.76183 0.7627 0.0
H360 H 0.38973 0.81588 0.75629 0.0
C361 C 0.25559 0.71804 0.7402 0.0
H362 H 0.31251 0.83133 0.78419 0.0
C363 C 0.30018 0.70896 0.72445 0.0
C364 C 0.34937 0.74372 0.73046 0.0
H365 H 0.21831 0.69054 0.73567 0.0
H366 H 0.29615 0.67437 0.70835 0.0
C367 C 0.35277 0.78784 0.7521 0.0
C368 C 0.69345 0.89789 0.84625 0.0
C369 C 0.70212 0.85353 0.85001 0.0
H370 H 0.71045 0.96412 0.80826 0.0
C371 C 0.72836 0.8389 0.81282 0.0
H372 H 0.67324 0.91025 0.87416 0.0
C373 C 0.75113 0.87041 0.77587 0.0
C374 C 0.7473 0.9169 0.77496 0.0
H375 H 0.73452 0.80437 0.81416 0.0
H376 H 0.7751 0.85954 0.75041 0.0
C377 C 0.71551 0.92912 0.80881 0.0
C378 C 0.8279 0.23359 0.37002 0.0
C379 C 0.86268 0.28047 0.36662 0.0
H380 H 0.77462 0.17423 0.33321 0.0
C381 C 0.86628 0.30604 0.32366 0.0
H382 H 0.82425 0.21352 0.40309 0.0
C383 C 0.83763 0.28344 0.28345 0.0
C384 C 0.80571 0.23526 0.28628 0.0
H385 H 0.89304 0.34228 0.32057 0.0
H386 H 0.84232 0.30257 0.24977 0.0
C387 C 0.79978 0.21114 0.33018 0.0
C388 C 0.422 0.69171 0.45168 0.0
C389 C 0.43051 0.68179 0.40353 0.0
H390 H 0.43138 0.67779 0.52625 0.0
C391 C 0.4539 0.64647 0.39462 0.0
H392 H 0.40512 0.71938 0.46002 0.0
C393 C 0.46932 0.62253 0.43276 0.0
C394 C 0.46235 0.63347 0.48119 0.0
H395 H 0.46212 0.63858 0.3581 0.0
H396 H 0.48838 0.59654 0.42418 0.0
C397 C 0.43751 0.66794 0.48983 0.0
C398 C 0.13066 0.5252 0.89753 0.0
C399 C 0.15663 0.49165 0.90499 0.0
H400 H 0.09316 0.57195 0.92921 0.0
C401 C 0.16689 0.4818 0.95261 0.0
H402 H 0.12103 0.53286 0.86143 0.0
C403 C 0.15047 0.50383 0.99172 0.0
C404 C 0.12288 0.53633 0.98454 0.0
H405 H 0.18575 0.45536 0.95977 0.0
H406 H 0.15795 0.49405 1.02773 0.0
C407 C 0.11429 0.54738 0.93664 0.0
C408 C 0.52464 0.8922 1.00596 0.0
C409 C 0.57475 0.8907 0.99918 0.0
H410 H 0.47755 0.93648 1.01896 0.0
C411 C 0.61617 0.93362 0.99544 0.0
H412 H 0.49223 0.85924 1.00878 0.0
C413 C 0.60808 0.97783 1.00123 0.0
C414 C 0.5583 0.97972 1.01071 0.0
H415 H 0.65514 0.93292 0.98991 0.0
H416 H 0.64118 1.01037 1.0004 0.0
C417 C 0.51638 0.93644 1.01145 0.0
C418 C 0.02587 0.25439 0.50234 0.0
C419 C 0.97521 0.24374 0.48495 0.0
H420 H 0.08197 0.22644 0.53357 0.0
C421 C 0.94196 0.19593 0.48552 0.0
H422 H 0.05212 0.29101 0.50219 0.0
C423 C 0.95872 0.1594 0.50308 0.0
C424 C 1.00927 0.16966 0.52047 0.0
H425 H 0.90246 0.18682 0.47283 0.0
H426 H 0.93173 0.12308 0.50351 0.0
C427 C 0.04297 0.21745 0.51969 0.0
C428 C 0.26991 0.66566 0.21215 0.0
C429 C 0.28551 0.71636 0.21218 0.0
H430 H 0.21344 0.59909 0.18919 0.0
C431 C 0.25281 0.73783 0.18845 0.0
H432 H 0.29341 0.64728 0.22962 0.0
C433 C 0.2084 0.71029 0.16356 0.0
C434 C 0.19339 0.65998 0.16299 0.0
H435 H 0.26114 0.77637 0.18903 0.0
H436 H 0.18495 0.72854 0.14571 0.0
C437 C 0.22418 0.63791 0.18841 0.0
C438 C 0.3365 0.49161 0.73164 0.0
C439 C 0.29553 0.45765 0.70725 0.0
H440 H 0.41316 0.54254 0.72781 0.0
C441 C 0.3013 0.45223 0.65728 0.0
H442 H 0.33413 0.49699 0.76989 0.0
C443 C 0.34723 0.47749 0.63325 0.0
C444 C 0.38874 0.51013 0.65797 0.0
H445 H 0.27035 0.42783 0.6364 0.0
H446 H 0.35018 0.47132 0.5952 0.0
C447 C 0.38221 0.51756 0.70736 0.0
C448 C 0.8189 0.81586 0.98213 0.0
C449 C 0.77026 0.77996 0.98207 0.0
H450 H 0.90021 0.83333 0.99325 0.0
C451 C 0.76623 0.73343 0.99695 0.0
H452 H 0.82278 0.85218 0.97125 0.0
C453 C 0.8108 0.72239 1.00902 0.0
C454 C 0.85992 0.75783 1.00659 0.0
H455 H 0.7291 0.70519 0.99688 0.0
H456 H 0.80698 0.68564 1.01806 0.0
C457 C 0.8632 0.80497 0.99438 0.0
C458 C 0.3991 0.90078 0.19351 0.0
C459 C 0.43048 0.87484 0.21142 0.0
H460 H 0.39509 0.96402 0.1576 0.0
C461 C 0.48441 0.89606 0.20694 0.0
H462 H 0.35746 0.88632 0.19674 0.0
C463 C 0.50606 0.94096 0.18451 0.0
C464 C 0.47464 0.96652 0.16601 0.0
H465 H 0.51007 0.8774 0.21968 0.0
H466 H 0.5477 0.95536 0.18121 0.0
C467 C 0.42076 0.94579 0.17126 0.0
C468 C 0.10554 0.27231 0.71667 0.0
C469 C 0.15958 0.29417 0.7193 0.0
H470 H 0.04173 0.21145 0.69452 0.0
C471 C 0.19071 0.26785 0.70161 0.0
H472 H 0.08 0.29126 0.7291 0.0
C473 C 0.16858 0.2218 0.68123 0.0
C474 C 0.11455 0.2004 0.67797 0.0
H475 H 0.23242 0.28278 0.70352 0.0
H476 H 0.19396 0.2032 0.66757 0.0
C477 C 0.08346 0.22631 0.69643 0.0
C478 C 0.79196 0.39026 0.55396 0.0
C479 C 0.82226 0.40219 0.51258 0.0
H480 H 0.72033 0.38589 0.5876 0.0
C481 C 0.80313 0.41896 0.47213 0.0
H482 H 0.80603 0.37668 0.58531 0.0
C483 C 0.75414 0.42431 0.47326 0.0
C484 C 0.72361 0.41289 0.51492 0.0
H485 H 0.82605 0.42799 0.43974 0.0
H486 H 0.74064 0.4383 0.44188 0.0
C487 C 0.74305 0.39558 0.55518 0.0
loop_
_geom_bond_atom_site_label_1
_geom_bond_atom_site_label_2
_geom_bond_distance
_geom_bond_site_symmetry_2
_ccdc_geom_bond_type
H0 C3 0.929 . S
H1 C6 0.929 . S
H2 C8 0.930 . S
C3 H0 0.929 . S
C3 C4 1.398 . S
C3 C5 1.396 . S
C4 C3 1.398 . S
C4 C8 1.407 . S
C5 C3 1.396 . S
C5 C6 1.394 . S
C6 H1 0.929 . S
C6 C5 1.394 . S
C6 C7 1.382 . S
C7 C6 1.382 . S
C7 C8 1.392 . S
C7 N9 1.420 . S
C8 H2 0.930 . S
C8 C4 1.407 . S
C8 C7 1.392 . S
N9 C7 1.420 . S
N9 C10 1.244 . S
C10 N9 1.244 . S
H11 C14 0.929 . S
H12 C17 0.929 . S
H13 C19 0.930 . S
C14 H11 0.929 . S
C14 C15 1.398 . S
C14 C16 1.396 . S
C15 C14 1.398 . S
C15 C19 1.407 . S
C16 C14 1.396 . S
C16 C17 1.394 . S
C17 H12 0.929 . S
C17 C16 1.394 . S
C17 C18 1.382 . S
C18 C17 1.382 . S
C18 C19 1.392 . S
C18 N20 1.420 . S
C19 H13 0.930 . S
C19 C15 1.407 . S
C19 C18 1.392 . S
N20 C18 1.420 . S
N20 C21 1.244 . S
C21 N20 1.244 . S
H22 C25 0.929 . S
H23 C28 0.929 . S
H24 C30 0.930 . S
C25 H22 0.929 . S
C25 C26 1.398 . S
C25 C27 1.396 . S
C26 C25 1.398 . S
C26 C30 1.407 . S
C27 C25 1.396 . S
C27 C28 1.394 . S
C28 H23 0.929 . S
C28 C27 1.394 . S
C28 C29 1.382 . S
C29 C28 1.382 . S
C29 C30 1.392 . S
C29 N31 1.420 . S
C30 H24 0.930 . S
C30 C26 1.407 . S
C30 C29 1.392 . S
N31 C29 1.420 . S
N31 C32 1.244 . S
C32 N31 1.244 . S
H33 C36 0.929 . S
H34 C39 0.929 . S
H35 C41 0.930 . S
C36 H33 0.929 . S
C36 C37 1.398 . S
C36 C38 1.396 . S
C37 C36 1.398 . S
C37 C41 1.407 . S
C38 C36 1.396 . S
C38 C39 1.394 . S
C39 H34 0.929 . S
C39 C38 1.394 . S
C39 C40 1.382 . S
C40 C39 1.382 . S
C40 C41 1.392 . S
C40 N42 1.420 . S
C41 H35 0.930 . S
C41 C37 1.407 . S
C41 C40 1.392 . S
N42 C40 1.420 . S
N42 C43 1.244 . S
C43 N42 1.244 . S
H44 C47 0.929 . S
H45 C50 0.929 . S
H46 C52 0.930 . S
C47 H44 0.929 . S
C47 C48 1.398 . S
C47 C49 1.396 . S
C48 C47 1.398 . S
C48 C52 1.407 . S
C49 C47 1.396 . S
C49 C50 1.394 . S
C50 H45 0.929 . S
C50 C49 1.394 . S
C50 C51 1.382 . S
C51 C50 1.382 . S
C51 C52 1.392 . S
C51 N53 1.420 . S
C52 H46 0.930 . S
C52 C48 1.407 . S
C52 C51 1.392 . S
N53 C51 1.420 . S
N53 C54 1.244 . S
C54 N53 1.244 . S
H55 C58 0.929 . S
H56 C61 0.929 . S
H57 C63 0.930 . S
C58 H55 0.929 . S
C58 C59 1.398 . S
C58 C60 1.396 . S
C59 C58 1.398 . S
C59 C63 1.407 . S
C60 C58 1.396 . S
C60 C61 1.394 . S
C61 H56 0.929 . S
C61 C60 1.394 . S
C61 C62 1.382 . S
C62 C61 1.382 . S
C62 C63 1.392 . S
C62 N64 1.420 . S
C63 H57 0.930 . S
C63 C59 1.407 . S
C63 C62 1.392 . S
N64 C62 1.420 . S
N64 C65 1.244 . S
C65 N64 1.244 . S
H66 C69 0.929 . S
H67 C72 0.929 . S
H68 C74 0.930 . S
C69 H66 0.929 . S
C69 C70 1.398 . S
C69 C71 1.396 . S
C70 C69 1.398 . S
C70 C74 1.407 . S
C71 C69 1.396 . S
C71 C72 1.394 . S
C72 H67 0.929 . S
C72 C71 1.394 . S
C72 C73 1.382 . S
C73 C72 1.382 . S
C73 C74 1.392 . S
C73 N75 1.420 . S
C74 H68 0.930 . S
C74 C70 1.407 . S
C74 C73 1.392 . S
N75 C73 1.420 . S
N75 C76 1.244 . S
C76 N75 1.244 . S
H77 C80 0.929 . S
H78 C83 0.929 . S
H79 C85 0.930 . S
C80 H77 0.929 . S
C80 C81 1.398 . S
C80 C82 1.396 . S
C81 C80 1.398 . S
C81 C85 1.407 . S
C82 C80 1.396 . S
C82 C83 1.394 . S
C83 H78 0.929 . S
C83 C82 1.394 . S
C83 C84 1.382 . S
C84 C83 1.382 . S
C84 C85 1.392 . S
C84 N86 1.420 . S
C85 H79 0.930 . S
C85 C81 1.407 . S
C85 C84 1.392 . S
N86 C84 1.420 . S
N86 C87 1.244 . S
C87 N86 1.244 . S
Tb88 C97 2.764 . S
Tb88 O98 2.325 . S
Tb88 O101 2.303 . S
Tb88 O105 2.322 1_545 S
Tb88 O106 2.349 1_545 S
Tb88 O109 2.415 . S
Tb88 O110 2.399 . S
Tb89 O99 2.322 . S
Tb89 O100 2.349 1_655 S
Tb89 O102 2.415 1_545 S
Tb89 O103 2.399 . S
Tb89 O104 2.325 1_645 S
Tb89 O107 2.303 1_545 S
Tb89 C118 2.764 1_545 S
C90 O106 1.261 1_655 S
C90 O107 1.257 . S
C91 C94 1.358 . S
C91 C95 1.332 . S
C91 C97 1.504 . S
C92 C93 1.373 . S
C92 C96 1.308 . S
C93 C92 1.373 . S
C93 C94 1.429 . S
C93 H120 0.932 . S
C94 C91 1.358 . S
C94 C93 1.429 . S
C94 H121 0.930 . S
C95 C91 1.332 . S
C95 C96 1.394 . S
C95 H122 0.932 . S
C96 C92 1.308 . S
C96 C95 1.394 . S
C96 H123 0.929 . S
C97 Tb88 2.764 . S
C97 C91 1.504 . S
C97 O109 1.239 . S
C97 O110 1.263 . S
O98 Tb88 2.325 . S
O98 C108 1.236 1_455 S
O99 Tb89 2.322 . S
O99 C108 1.257 . S
O100 Tb89 2.349 1_455 S
O100 C111 1.261 . S
O101 Tb88 2.303 . S
O101 C111 1.257 . S
O102 Tb89 2.415 1_565 S
O102 C118 1.239 . S
O103 Tb89 2.399 . S
O103 C118 1.263 1_545 S
O104 Tb89 2.325 1_465 S
O104 C119 1.236 . S
O105 Tb88 2.322 1_565 S
O105 C119 1.257 . S
O106 Tb88 2.349 1_565 S
O106 C90 1.261 1_455 S
O107 Tb89 2.303 1_565 S
O107 C90 1.257 . S
C108 O98 1.236 1_655 S
C108 O99 1.257 . S
O109 Tb88 2.415 . S
O109 C97 1.239 . S
O110 Tb88 2.399 . S
O110 C97 1.263 . S
C111 O100 1.261 . S
C111 O101 1.257 . S
C112 C115 1.358 . S
C112 C116 1.332 . S
C112 C118 1.504 . S
C113 C114 1.373 . S
C113 C117 1.308 . S
C114 C113 1.373 . S
C114 C115 1.429 . S
C114 H124 0.932 . S
C115 C112 1.358 . S
C115 C114 1.429 . S
C115 H125 0.930 . S
C116 C112 1.332 . S
C116 C117 1.394 . S
C116 H126 0.932 . S
C117 C113 1.308 . S
C117 C116 1.394 . S
C117 H127 0.929 . S
C118 Tb89 2.764 1_565 S
C118 O102 1.239 . S
C118 O103 1.263 1_565 S
C118 C112 1.504 . S
C119 O104 1.236 . S
C119 O105 1.257 . S
H120 C93 0.932 . S
H121 C94 0.930 . S
H122 C95 0.932 . S
H123 C96 0.929 . S
H124 C114 0.932 . S
H125 C115 0.930 . S
H126 C116 0.932 . S
H127 C117 0.929 . S
Tb128 C137 2.764 . S
Tb128 O138 2.325 . S
Tb128 O141 2.303 . S
Tb128 O145 2.322 1_545 S
Tb128 O146 2.349 1_545 S
Tb128 O149 2.415 . S
Tb128 O150 2.399 . S
Tb129 O139 2.322 . S
Tb129 O140 2.349 . S
Tb129 O142 2.415 1_544 S
Tb129 O143 2.399 1_544 S
Tb129 O144 2.325 1_545 S
Tb129 O147 2.303 1_545 S
Tb129 C158 2.764 1_544 S
C130 O146 1.261 . S
C130 O147 1.257 . S
C131 C134 1.358 . S
C131 C135 1.332 . S
C131 C137 1.504 . S
C132 C133 1.373 . S
C132 C136 1.308 . S
C133 C132 1.373 . S
C133 C134 1.429 . S
C133 H160 0.932 . S
C134 C131 1.358 . S
C134 C133 1.429 . S
C134 H161 0.930 . S
C135 C131 1.332 . S
C135 C136 1.394 . S
C135 H162 0.932 . S
C136 C132 1.308 . S
C136 C135 1.394 . S
C136 H163 0.929 . S
C137 Tb128 2.764 . S
C137 C131 1.504 . S
C137 O149 1.239 . S
C137 O150 1.263 . S
O138 Tb128 2.325 . S
O138 C148 1.236 . S
O139 Tb129 2.322 . S
O139 C148 1.257 . S
O140 Tb129 2.349 . S
O140 C151 1.261 . S
O141 Tb128 2.303 . S
O141 C151 1.257 . S
O142 Tb129 2.415 1_566 S
O142 C158 1.239 . S
O143 Tb129 2.399 1_566 S
O143 C158 1.263 . S
O144 Tb129 2.325 1_565 S
O144 C159 1.236 . S
O145 Tb128 2.322 1_565 S
O145 C159 1.257 . S
O146 Tb128 2.349 1_565 S
O146 C130 1.261 . S
O147 Tb129 2.303 1_565 S
O147 C130 1.257 . S
C148 O138 1.236 . S
C148 O139 1.257 . S
O149 Tb128 2.415 . S
O149 C137 1.239 . S
O150 Tb128 2.399 . S
O150 C137 1.263 . S
C151 O140 1.261 . S
C151 O141 1.257 . S
C152 C155 1.358 . S
C152 C156 1.332 . S
C152 C158 1.504 . S
C153 C154 1.373 . S
C153 C157 1.308 . S
C154 C153 1.373 . S
C154 C155 1.429 . S
C154 H164 0.932 . S
C155 C152 1.358 . S
C155 C154 1.429 . S
C155 H165 0.930 . S
C156 C152 1.332 . S
C156 C157 1.394 . S
C156 H166 0.932 . S
C157 C153 1.308 . S
C157 C156 1.394 . S
C157 H167 0.929 . S
C158 Tb129 2.764 1_566 S
C158 O142 1.239 . S
C158 O143 1.263 . S
C158 C152 1.504 . S
C159 O144 1.236 . S
C159 O145 1.257 . S
H160 C133 0.932 . S
H161 C134 0.930 . S
H162 C135 0.932 . S
H163 C136 0.929 . S
H164 C154 0.932 . S
H165 C155 0.930 . S
H166 C156 0.932 . S
H167 C157 0.929 . S
Tb168 C177 2.764 . S
Tb168 O178 2.325 . S
Tb168 O181 2.303 . S
Tb168 O185 2.322 . S
Tb168 O186 2.349 . S
Tb168 O189 2.415 . S
Tb168 O190 2.399 . S
Tb169 O179 2.322 . S
Tb169 O180 2.349 . S
Tb169 O182 2.415 . S
Tb169 O183 2.399 . S
Tb169 O184 2.325 . S
Tb169 O187 2.303 . S
Tb169 C198 2.764 . S
C170 O186 1.261 . S
C170 O187 1.257 . S
C171 C174 1.358 . S
C171 C175 1.332 . S
C171 C177 1.504 . S
C172 C173 1.373 . S
C172 C176 1.308 . S
C173 C172 1.373 . S
C173 C174 1.429 . S
C173 H200 0.932 . S
C174 C171 1.358 . S
C174 C173 1.429 . S
C174 H201 0.930 . S
C175 C171 1.332 . S
C175 C176 1.394 . S
C175 H202 0.932 . S
C176 C172 1.308 . S
C176 C175 1.394 . S
C176 H203 0.929 . S
C177 Tb168 2.764 . S
C177 C171 1.504 . S
C177 O189 1.239 . S
C177 O190 1.263 . S
O178 Tb168 2.325 . S
O178 C188 1.236 . S
O179 Tb169 2.322 . S
O179 C188 1.257 . S
O180 Tb169 2.349 . S
O180 C191 1.261 . S
O181 Tb168 2.303 . S
O181 C191 1.257 . S
O182 Tb169 2.415 . S
O182 C198 1.239 . S
O183 Tb169 2.399 . S
O183 C198 1.263 . S
O184 Tb169 2.325 . S
O184 C199 1.236 . S
O185 Tb168 2.322 . S
O185 C199 1.257 . S
O186 Tb168 2.349 . S
O186 C170 1.261 . S
O187 Tb169 2.303 . S
O187 C170 1.257 . S
C188 O178 1.236 . S
C188 O179 1.257 . S
O189 Tb168 2.415 . S
O189 C177 1.239 . S
O190 Tb168 2.399 . S
O190 C177 1.263 . S
C191 O180 1.261 . S
C191 O181 1.257 . S
C192 C195 1.358 . S
C192 C196 1.332 . S
C192 C198 1.504 . S
C193 C194 1.373 . S
C193 C197 1.308 . S
C194 C193 1.373 . S
C194 C195 1.429 . S
C194 H204 0.932 . S
C195 C192 1.358 . S
C195 C194 1.429 . S
C195 H205 0.930 . S
C196 C192 1.332 . S
C196 C197 1.394 . S
C196 H206 0.932 . S
C197 C193 1.308 . S
C197 C196 1.394 . S
C197 H207 0.929 . S
C198 Tb169 2.764 . S
C198 O182 1.239 . S
C198 O183 1.263 . S
C198 C192 1.504 . S
C199 O184 1.236 . S
C199 O185 1.257 . S
H200 C173 0.932 . S
H201 C174 0.930 . S
H202 C175 0.932 . S
H203 C176 0.929 . S
H204 C194 0.932 . S
H205 C195 0.930 . S
H206 C196 0.932 . S
H207 C197 0.929 . S
Tb208 C217 2.764 1_455 S
Tb208 O218 2.325 1_455 S
Tb208 O221 2.303 1_556 S
Tb208 O225 2.322 1_556 S
Tb208 O226 2.349 . S
Tb208 O229 2.415 1_455 S
Tb208 O230 2.399 . S
Tb209 O219 2.322 1_455 S
Tb209 O220 2.349 . S
Tb209 O222 2.415 . S
Tb209 O223 2.399 . S
Tb209 O224 2.325 . S
Tb209 O227 2.303 1_554 S
Tb209 C238 2.764 . S
C210 O226 1.261 . S
C210 O227 1.257 . S
C211 C214 1.358 . S
C211 C215 1.332 . S
C211 C217 1.504 . S
C212 C213 1.373 . S
C212 C216 1.308 . S
C213 C212 1.373 . S
C213 C214 1.429 . S
C213 H240 0.932 . S
C214 C211 1.358 . S
C214 C213 1.429 . S
C214 H241 0.930 . S
C215 C211 1.332 . S
C215 C216 1.394 . S
C215 H242 0.932 . S
C216 C212 1.308 . S
C216 C215 1.394 . S
C216 H243 0.929 . S
C217 Tb208 2.764 1_655 S
C217 C211 1.504 . S
C217 O229 1.239 . S
C217 O230 1.263 1_655 S
O218 Tb208 2.325 1_655 S
O218 C228 1.236 . S
O219 Tb209 2.322 1_655 S
O219 C228 1.257 1_554 S
O220 Tb209 2.349 . S
O220 C231 1.261 . S
O221 Tb208 2.303 1_554 S
O221 C231 1.257 . S
O222 Tb209 2.415 . S
O222 C238 1.239 . S
O223 Tb209 2.399 . S
O223 C238 1.263 . S
O224 Tb209 2.325 . S
O224 C239 1.236 . S
O225 Tb208 2.322 1_554 S
O225 C239 1.257 . S
O226 Tb208 2.349 . S
O226 C210 1.261 . S
O227 Tb209 2.303 1_556 S
O227 C210 1.257 . S
C228 O218 1.236 . S
C228 O219 1.257 1_556 S
O229 Tb208 2.415 1_655 S
O229 C217 1.239 . S
O230 Tb208 2.399 . S
O230 C217 1.263 1_455 S
C231 O220 1.261 . S
C231 O221 1.257 . S
C232 C235 1.358 . S
C232 C236 1.332 . S
C232 C238 1.504 . S
C233 C234 1.373 . S
C233 C237 1.308 . S
C234 C233 1.373 . S
C234 C235 1.429 . S
C234 H244 0.932 . S
C235 C232 1.358 . S
C235 C234 1.429 . S
C235 H245 0.930 . S
C236 C232 1.332 . S
C236 C237 1.394 . S
C236 H246 0.932 . S
C237 C233 1.308 . S
C237 C236 1.394 . S
C237 H247 0.929 . S
C238 Tb209 2.764 . S
C238 O222 1.239 . S
C238 O223 1.263 . S
C238 C232 1.504 . S
C239 O224 1.236 . S
C239 O225 1.257 . S
H240 C213 0.932 . S
H241 C214 0.930 . S
H242 C215 0.932 . S
H243 C216 0.929 . S
H244 C234 0.932 . S
H245 C235 0.930 . S
H246 C236 0.932 . S
H247 C237 0.929 . S
C248 C249 1.387 . S
C248 H252 0.950 . S
C248 C257 1.390 . S
C249 C248 1.387 . S
C249 C251 1.387 . S
H250 C257 0.950 . S
C251 C249 1.387 . S
C251 C253 1.390 . S
C251 H255 0.950 . S
H252 C248 0.950 . S
C253 C251 1.390 . S
C253 C254 1.387 . S
C253 H256 0.950 . S
C254 C253 1.387 . S
C254 C257 1.387 . S
H255 C251 0.950 . S
H256 C253 0.950 . S
C257 C248 1.390 . S
C257 H250 0.950 . S
C257 C254 1.387 . S
C258 C259 1.387 . S
C258 H262 0.950 . S
C258 C267 1.390 . S
C259 C258 1.387 . S
C259 C261 1.387 . S
H260 C267 0.950 . S
C261 C259 1.387 . S
C261 C263 1.390 . S
C261 H265 0.950 . S
H262 C258 0.950 . S
C263 C261 1.390 . S
C263 C264 1.387 . S
C263 H266 0.950 . S
C264 C263 1.387 . S
C264 C267 1.387 . S
H265 C261 0.950 . S
H266 C263 0.950 . S
C267 C258 1.390 . S
C267 H260 0.950 . S
C267 C264 1.387 . S
C268 C269 1.387 . S
C268 H272 0.950 . S
C268 C277 1.390 . S
C269 C268 1.387 . S
C269 C271 1.387 . S
H270 C277 0.950 . S
C271 C269 1.387 . S
C271 C273 1.390 . S
C271 H275 0.950 . S
H272 C268 0.950 . S
C273 C271 1.390 . S
C273 C274 1.387 . S
C273 H276 0.950 . S
C274 C273 1.387 . S
C274 C277 1.387 . S
H275 C271 0.950 . S
H276 C273 0.950 . S
C277 C268 1.390 . S
C277 H270 0.950 . S
C277 C274 1.387 . S
C278 C279 1.387 . S
C278 H282 0.950 . S
C278 C287 1.390 . S
C279 C278 1.387 . S
C279 C281 1.387 . S
H280 C287 0.950 . S
C281 C279 1.387 . S
C281 C283 1.390 . S
C281 H285 0.950 . S
H282 C278 0.950 . S
C283 C281 1.390 . S
C283 C284 1.387 . S
C283 H286 0.950 . S
C284 C283 1.387 . S
C284 C287 1.387 . S
H285 C281 0.950 . S
H286 C283 0.950 . S
C287 C278 1.390 . S
C287 H280 0.950 . S
C287 C284 1.387 . S
C288 C289 1.387 . S
C288 H292 0.950 . S
C288 C297 1.390 . S
C289 C288 1.387 . S
C289 C291 1.387 . S
H290 C297 0.950 . S
C291 C289 1.387 . S
C291 C293 1.390 . S
C291 H295 0.950 . S
H292 C288 0.950 . S
C293 C291 1.390 . S
C293 C294 1.387 . S
C293 H296 0.950 . S
C294 C293 1.387 . S
C294 C297 1.387 . S
H295 C291 0.950 . S
H296 C293 0.950 . S
C297 C288 1.390 . S
C297 H290 0.950 . S
C297 C294 1.387 . S
C298 C299 1.387 . S
C298 H302 0.950 . S
C298 C307 1.390 . S
C299 C298 1.387 . S
C299 C301 1.387 1_455 S
H300 C307 0.950 . S
C301 C299 1.387 1_655 S
C301 C303 1.390 . S
C301 H305 0.950 . S
H302 C298 0.950 . S
C303 C301 1.390 . S
C303 C304 1.387 1_655 S
C303 H306 0.950 . S
C304 C303 1.387 1_455 S
C304 C307 1.387 . S
H305 C301 0.950 . S
H306 C303 0.950 . S
C307 C298 1.390 . S
C307 H300 0.950 . S
C307 C304 1.387 . S
C308 C309 1.387 . S
C308 H312 0.950 . S
C308 C317 1.390 . S
C309 C308 1.387 . S
C309 C311 1.387 . S
H310 C317 0.950 1_554 S
C311 C309 1.387 . S
C311 C313 1.390 . S
C311 H315 0.950 . S
H312 C308 0.950 . S
C313 C311 1.390 . S
C313 C314 1.387 . S
C313 H316 0.950 . S
C314 C313 1.387 . S
C314 C317 1.387 . S
H315 C311 0.950 . S
H316 C313 0.950 . S
C317 C308 1.390 . S
C317 H310 0.950 1_556 S
C317 C314 1.387 . S
C318 C319 1.387 . S
C318 H322 0.950 . S
C318 C327 1.390 . S
C319 C318 1.387 . S
C319 C321 1.387 . S
H320 C327 0.950 . S
C321 C319 1.387 . S
C321 C323 1.390 . S
C321 H325 0.950 . S
H322 C318 0.950 . S
C323 C321 1.390 . S
C323 C324 1.387 . S
C323 H326 0.950 . S
C324 C323 1.387 . S
C324 C327 1.387 . S
H325 C321 0.950 . S
H326 C323 0.950 . S
C327 C318 1.390 . S
C327 H320 0.950 . S
C327 C324 1.387 . S
C328 C329 1.387 . S
C328 H332 0.950 . S
C328 C337 1.390 . S
C329 C328 1.387 . S
C329 C331 1.387 . S
H330 C337 0.950 . S
C331 C329 1.387 . S
C331 C333 1.390 . S
C331 H335 0.950 . S
H332 C328 0.950 . S
C333 C331 1.390 . S
C333 C334 1.387 . S
C333 H336 0.950 . S
C334 C333 1.387 . S
C334 C337 1.387 . S
H335 C331 0.950 . S
H336 C333 0.950 . S
C337 C328 1.390 . S
C337 H330 0.950 . S
C337 C334 1.387 . S
C338 C339 1.387 . S
C338 H342 0.950 . S
C338 C347 1.390 . S
C339 C338 1.387 . S
C339 C341 1.387 . S
H340 C347 0.944 1_554 S
C341 C339 1.387 . S
C341 C343 1.390 . S
C341 H345 0.950 . S
H342 C338 0.950 . S
C343 C341 1.390 . S
C343 C344 1.387 . S
C343 H346 0.950 . S
C344 C343 1.387 . S
C344 C347 1.387 . S
H345 C341 0.950 . S
H346 C343 0.950 . S
C347 C338 1.390 . S
C347 H340 0.944 1_556 S
C347 C344 1.387 . S
C348 C349 1.387 . S
C348 H352 0.950 . S
C348 C357 1.390 . S
C349 C348 1.387 . S
C349 C351 1.387 . S
H350 C357 0.950 . S
C351 C349 1.387 . S
C351 C353 1.390 . S
C351 H355 0.950 . S
H352 C348 0.950 . S
C353 C351 1.390 . S
C353 C354 1.387 . S
C353 H356 0.953 . S
C354 C353 1.387 . S
C354 C357 1.387 . S
H355 C351 0.950 . S
H356 C353 0.953 . S
C357 C348 1.390 . S
C357 H350 0.950 . S
C357 C354 1.387 . S
C358 C359 1.387 . S
C358 H362 0.950 . S
C358 C367 1.390 . S
C359 C358 1.387 . S
C359 C361 1.387 . S
H360 C367 0.950 . S
C361 C359 1.387 . S
C361 C363 1.390 . S
C361 H365 0.950 . S
H362 C358 0.950 . S
C363 C361 1.390 . S
C363 C364 1.387 . S
C363 H366 0.950 . S
C364 C363 1.387 . S
C364 C367 1.387 . S
H365 C361 0.950 . S
H366 C363 0.950 . S
C367 C358 1.390 . S
C367 H360 0.950 . S
C367 C364 1.387 . S
C368 C369 1.387 . S
C368 H372 0.950 . S
C368 C377 1.390 . S
C369 C368 1.387 . S
C369 C371 1.387 . S
H370 C377 0.950 . S
C371 C369 1.387 . S
C371 C373 1.390 . S
C371 H375 0.950 . S
H372 C368 0.950 . S
C373 C371 1.390 . S
C373 C374 1.387 . S
C373 H376 0.950 . S
C374 C373 1.387 . S
C374 C377 1.387 . S
H375 C371 0.950 . S
H376 C373 0.950 . S
C377 C368 1.390 . S
C377 H370 0.950 . S
C377 C374 1.387 . S
C378 C379 1.387 . S
C378 H382 0.950 . S
C378 C387 1.390 . S
C379 C378 1.387 . S
C379 C381 1.387 . S
H380 C387 0.950 . S
C381 C379 1.387 . S
C381 C383 1.390 . S
C381 H385 0.950 . S
H382 C378 0.950 . S
C383 C381 1.390 . S
C383 C384 1.387 . S
C383 H386 0.950 . S
C384 C383 1.387 . S
C384 C387 1.387 . S
H385 C381 0.950 . S
H386 C383 0.950 . S
C387 C378 1.390 . S
C387 H380 0.950 . S
C387 C384 1.387 . S
C388 C389 1.387 . S
C388 H392 0.950 . S
C388 C397 1.390 . S
C389 C388 1.387 . S
C389 C391 1.387 . S
H390 C397 0.950 . S
C391 C389 1.387 . S
C391 C393 1.390 . S
C391 H395 0.950 . S
H392 C388 0.950 . S
C393 C391 1.390 . S
C393 C394 1.387 . S
C393 H396 0.950 . S
C394 C393 1.387 . S
C394 C397 1.387 . S
H395 C391 0.950 . S
H396 C393 0.950 . S
C397 C388 1.390 . S
C397 H390 0.950 . S
C397 C394 1.387 . S
C398 C399 1.387 . S
C398 H402 0.950 . S
C398 C407 1.390 . S
C399 C398 1.387 . S
C399 C401 1.387 . S
H400 C407 0.950 . S
C401 C399 1.387 . S
C401 C403 1.390 . S
C401 H405 0.950 . S
H402 C398 0.950 . S
C403 C401 1.390 . S
C403 C404 1.387 . S
C403 H406 0.950 . S
C404 C403 1.387 . S
C404 C407 1.387 . S
H405 C401 0.950 . S
H406 C403 0.950 . S
C407 C398 1.390 . S
C407 H400 0.950 . S
C407 C404 1.387 . S
C408 C409 1.387 . S
C408 H412 0.950 . S
C408 C417 1.390 . S
C409 C408 1.387 . S
C409 C411 1.387 . S
H410 C417 0.950 . S
C411 C409 1.387 . S
C411 C413 1.390 . S
C411 H415 0.950 . S
H412 C408 0.950 . S
C413 C411 1.390 . S
C413 C414 1.387 . S
C413 H416 0.950 1_556 S
C414 C413 1.387 . S
C414 C417 1.387 . S
H415 C411 0.950 . S
H416 C413 0.950 1_554 S
C417 C408 1.390 . S
C417 H410 0.950 . S
C417 C414 1.387 . S
C418 C419 1.387 1_455 S
C418 H422 0.950 . S
C418 C427 1.390 . S
C419 C418 1.387 1_655 S
C419 C421 1.387 . S
H420 C427 0.950 . S
C421 C419 1.387 . S
C421 C423 1.390 . S
C421 H425 0.950 . S
H422 C418 0.950 . S
C423 C421 1.390 . S
C423 C424 1.387 . S
C423 H426 0.950 . S
C424 C423 1.387 . S
C424 C427 1.387 1_655 S
H425 C421 0.950 . S
H426 C423 0.950 . S
C427 C418 1.390 . S
C427 H420 0.950 . S
C427 C424 1.387 1_455 S
C428 C429 1.387 . S
C428 H432 0.950 . S
C428 C437 1.390 . S
C429 C428 1.387 . S
C429 C431 1.387 . S
H430 C437 0.950 . S
C431 C429 1.387 . S
C431 C433 1.390 . S
C431 H435 0.950 . S
H432 C428 0.950 . S
C433 C431 1.390 . S
C433 C434 1.387 . S
C433 H436 0.950 . S
C434 C433 1.387 . S
C434 C437 1.387 . S
H435 C431 0.950 . S
H436 C433 0.950 . S
C437 C428 1.390 . S
C437 H430 0.950 . S
C437 C434 1.387 . S
C438 C439 1.387 . S
C438 H442 0.950 . S
C438 C447 1.390 . S
C439 C438 1.387 . S
C439 C441 1.387 . S
H440 C447 0.950 . S
C441 C439 1.387 . S
C441 C443 1.390 . S
C441 H445 0.950 . S
H442 C438 0.950 . S
C443 C441 1.390 . S
C443 C444 1.387 . S
C443 H446 0.950 . S
C444 C443 1.387 . S
C444 C447 1.387 . S
H445 C441 0.950 . S
H446 C443 0.950 . S
C447 C438 1.390 . S
C447 H440 0.950 . S
C447 C444 1.387 . S
C448 C449 1.387 . S
C448 H452 0.950 . S
C448 C457 1.390 . S
C449 C448 1.387 . S
C449 C451 1.387 . S
H450 C457 0.950 . S
C451 C449 1.387 . S
C451 C453 1.390 . S
C451 H455 0.950 . S
H452 C448 0.950 . S
C453 C451 1.390 . S
C453 C454 1.387 . S
C453 H456 0.950 . S
C454 C453 1.387 . S
C454 C457 1.387 . S
H455 C451 0.950 . S
H456 C453 0.950 . S
C457 C448 1.390 . S
C457 H450 0.950 . S
C457 C454 1.387 . S
C458 C459 1.387 . S
C458 H462 0.950 . S
C458 C467 1.390 . S
C459 C458 1.387 . S
C459 C461 1.387 . S
H460 C467 0.950 . S
C461 C459 1.387 . S
C461 C463 1.390 . S
C461 H465 0.950 . S
H462 C458 0.950 . S
C463 C461 1.390 . S
C463 C464 1.387 . S
C463 H466 0.950 . S
C464 C463 1.387 . S
C464 C467 1.387 . S
H465 C461 0.950 . S
H466 C463 0.950 . S
C467 C458 1.390 . S
C467 H460 0.950 . S
C467 C464 1.387 . S
C468 C469 1.387 . S
C468 H472 0.950 . S
C468 C477 1.390 . S
C469 C468 1.387 . S
C469 C471 1.387 . S
H470 C477 0.950 . S
C471 C469 1.387 . S
C471 C473 1.390 . S
C471 H475 0.950 . S
H472 C468 0.950 . S
C473 C471 1.390 . S
C473 C474 1.387 . S
C473 H476 0.950 . S
C474 C473 1.387 . S
C474 C477 1.387 . S
H475 C471 0.950 . S
H476 C473 0.950 . S
C477 C468 1.390 . S
C477 H470 0.950 . S
C477 C474 1.387 . S
C478 C479 1.387 . S
C478 H482 0.950 . S
C478 C487 1.390 . S
C479 C478 1.387 . S
C479 C481 1.387 . S
H480 C487 0.950 . S
C481 C479 1.387 . S
C481 C483 1.390 . S
C481 H485 0.950 . S
H482 C478 0.950 . S
C483 C481 1.390 . S
C483 C484 1.387 . S
C483 H486 0.950 . S
C484 C483 1.387 . S
C484 C487 1.387 . S
H485 C481 0.950 . S
H486 C483 0.950 . S
C487 C478 1.390 . S
C487 H480 0.950 . S
C487 C484 1.387 . S
C249 C4 0.992 . S
C254 C92 1.019 . S
C259 C16 1.251 . S
C264 C153 1.276 . S
C274 C191 2.247 . S
C269 C32 2.276 . S
C279 C43 2.384 . S
C284 C231 2.333 1_655 S
C294 C151 1.739 . S
C289 C5 1.657 . S
C304 C119 1.749 . S
C299 C21 1.596 . S
C314 C228 1.837 . S
C309 C27 1.852 . S
C324 C188 1.844 . S
C319 C37 1.894 . S
C329 C10 1.201 . S
C334 C233 1.214 . S
C344 C148 2.587 1_556 S
C339 C26 2.583 . S
C349 C38 2.034 . S
C354 C90 2.001 . S
C359 C15 1.612 . S
C364 C193 1.690 . S
C374 C113 1.070 . S
C369 C48 1.049 . S
C379 C59 1.116 . S
C384 C132 1.128 . S
C389 C76 2.537 . S
C394 C170 2.470 . S
C399 C87 2.195 . S
C404 C210 2.191 . S
C409 C54 1.137 . S
C414 C130 1.229 1_556 S
C424 C108 2.238 . S
C419 C60 2.119 . S
C434 C239 1.759 . S
C429 C71 1.768 . S
C444 C199 1.938 . S
C439 C82 1.949 . S
C449 C49 1.508 . S
C454 C212 1.599 . S
C464 C159 2.111 . S
C459 C70 2.117 . S
C474 C111 2.407 . S
C469 C81 2.457 . S
C479 C65 1.349 . S
C484 C172 1.408 . S
