# Generated by pormake.
# Topology sqc, (4,8)-cn, num edge types: 1
# Building blocks:
#     Node 0, Type 0, BuildingBlock: AZAVOO_clean_linker_0, # of connection points: 4
#     Node 1, Type 0, BuildingBlock: AZAVOO_clean_linker_0, # of connection points: 4
#     Node 2, Type 0, BuildingBlock: AZAVOO_clean_linker_0, # of connection points: 4
#     Node 3, Type 0, BuildingBlock: AZAVOO_clean_linker_0, # of connection points: 4
#     Node 4, Type 0, BuildingBlock: AZAVOO_clean_linker_0, # of connection points: 4
#     Node 5, Type 0, BuildingBlock: AZAVOO_clean_linker_0, # of connection points: 4
#     Node 6, Type 0, BuildingBlock: AZAVOO_clean_linker_0, # of connection points: 4
#     Node 7, Type 0, BuildingBlock: AZAVOO_clean_linker_0, # of connection points: 4
#     Node 8, Type 1, BuildingBlock: TAGTUT_clean_sbu_3, # of connection points: 8
#     Node 9, Type 1, BuildingBlock: TAGTUT_clean_sbu_3, # of connection points: 8
#     Node 10, Type 1, BuildingBlock: TAGTUT_clean_sbu_3, # of connection points: 8
#     Node 11, Type 1, BuildingBlock: TAGTUT_clean_sbu_3, # of connection points: 8
#     Edge 12, Type (0, 1), BuildingBlock: XIVTED_clean_linker_0, # of connection points: 2
#     Edge 13, Type (0, 1), BuildingBlock: XIVTED_clean_linker_0, # of connection points: 2
#     Edge 14, Type (0, 1), BuildingBlock: XIVTED_clean_linker_0, # of connection points: 2
#     Edge 15, Type (0, 1), BuildingBlock: XIVTED_clean_linker_0, # of connection points: 2
#     Edge 16, Type (0, 1), BuildingBlock: XIVTED_clean_linker_0, # of connection points: 2
#     Edge 17, Type (0, 1), BuildingBlock: XIVTED_clean_linker_0, # of connection points: 2
#     Edge 18, Type (0, 1), BuildingBlock: XIVTED_clean_linker_0, # of connection points: 2
#     Edge 19, Type (0, 1), BuildingBlock: XIVTED_clean_linker_0, # of connection points: 2
#     Edge 20, Type (0, 1), BuildingBlock: XIVTED_clean_linker_0, # of connection points: 2
#     Edge 21, Type (0, 1), BuildingBlock: XIVTED_clean_linker_0, # of connection points: 2
#     Edge 22, Type (0, 1), BuildingBlock: XIVTED_clean_linker_0, # of connection points: 2
#     Edge 23, Type (0, 1), BuildingBlock: XIVTED_clean_linker_0, # of connection points: 2
#     Edge 24, Type (0, 1), BuildingBlock: XIVTED_clean_linker_0, # of connection points: 2
#     Edge 25, Type (0, 1), BuildingBlock: XIVTED_clean_linker_0, # of connection points: 2
#     Edge 26, Type (0, 1), BuildingBlock: XIVTED_clean_linker_0, # of connection points: 2
#     Edge 27, Type (0, 1), BuildingBlock: XIVTED_clean_linker_0, # of connection points: 2
#     Edge 28, Type (0, 1), BuildingBlock: XIVTED_clean_linker_0, # of connection points: 2
#     Edge 29, Type (0, 1), BuildingBlock: XIVTED_clean_linker_0, # of connection points: 2
#     Edge 30, Type (0, 1), BuildingBlock: XIVTED_clean_linker_0, # of connection points: 2
#     Edge 31, Type (0, 1), BuildingBlock: XIVTED_clean_linker_0, # of connection points: 2
#     Edge 32, Type (0, 1), BuildingBlock: XIVTED_clean_linker_0, # of connection points: 2
#     Edge 33, Type (0, 1), BuildingBlock: XIVTED_clean_linker_0, # of connection points: 2
#     Edge 34, Type (0, 1), BuildingBlock: XIVTED_clean_linker_0, # of connection points: 2
#     Edge 35, Type (0, 1), BuildingBlock: XIVTED_clean_linker_0, # of connection points: 2
#     Edge 36, Type (0, 1), BuildingBlock: XIVTED_clean_linker_0, # of connection points: 2
#     Edge 37, Type (0, 1), BuildingBlock: XIVTED_clean_linker_0, # of connection points: 2
#     Edge 38, Type (0, 1), BuildingBlock: XIVTED_clean_linker_0, # of connection points: 2
#     Edge 39, Type (0, 1), BuildingBlock: XIVTED_clean_linker_0, # of connection points: 2
#     Edge 40, Type (0, 1), BuildingBlock: XIVTED_clean_linker_0, # of connection points: 2
#     Edge 41, Type (0, 1), BuildingBlock: XIVTED_clean_linker_0, # of connection points: 2
#     Edge 42, Type (0, 1), BuildingBlock: XIVTED_clean_linker_0, # of connection points: 2
#     Edge 43, Type (0, 1), BuildingBlock: XIVTED_clean_linker_0, # of connection points: 2
# Relax obj value: 0.172
# Max RMSD: 0.268
# Mean RMSD: 0.229
data_MOF--net-sqc--node1-TAGTUT_clean_sbu_3--node2-AZAVOO_clean_linker_0--edge1-XIVTED_clean_linker_0
_symmetry_space_group_name_H-M    P1
_symmetry_Int_Tables_number       1
_symmetry_cell_setting            triclinic
loop_
_symmetry_equiv_pos_as_xyz
'x, y, z'
_cell_length_a     26.2824
_cell_length_b     26.244995
_cell_length_c     92.063746
_cell_angle_alpha  91.285442
_cell_angle_beta   89.760461
_cell_angle_gamma 90.875168
loop_
_atom_site_label
_atom_site_type_symbol
_atom_site_fract_x
_atom_site_fract_y
_atom_site_fract_z
_atom_type_partial_charge
H0 H 0.99608 0.31991 0.58753 0.0
H1 H 0.71002 0.90229 0.49962 0.0
H2 H 0.08733 0.17861 0.52475 0.0
H3 H 0.16541 0.21363 0.53582 0.0
H4 H 0.20037 0.06438 0.55163 0.0
H5 H 0.12235 0.02996 0.54066 0.0
H6 H 0.96828 0.19599 0.53449 0.0
H7 H 0.97247 0.2588 0.55451 0.0
H8 H 0.05038 0.15001 0.58074 0.0
H9 H 0.04535 0.08733 0.56069 0.0
H10 H 0.8723 0.13259 0.52146 0.0
H11 H 0.79023 0.13448 0.53415 0.0
H12 H 0.85599 0.05217 0.56952 0.0
H13 H 0.93632 0.04784 0.55637 0.0
H14 H 0.89724 0.07579 0.49466 0.0
H15 H 0.81627 0.04 0.48581 0.0
H16 H 0.81562 0.9324 0.5207 0.0
H17 H 0.89614 0.9692 0.52958 0.0
H18 H 0.0062 0.04877 0.48212 0.0
H19 H 0.95517 0.00575 0.46337 0.0
H20 H 0.92008 0.88521 0.49336 0.0
H21 H 0.97471 0.92621 0.51127 0.0
H22 H 0.11831 0.09127 0.49902 0.0
H23 H 0.19372 0.05241 0.48797 0.0
H24 H 0.15291 0.90874 0.50729 0.0
H25 H 0.07754 0.94786 0.5182 0.0
O26 O 0.99471 0.29445 0.57978 0.0
O27 O 0.03489 0.23721 0.5928 0.0
O28 O 0.74097 0.9772 0.48621 0.0
O29 O 0.74111 0.91835 0.50321 0.0
C30 C 0.04904 0.08213 0.52689 0.0
C31 C 0.00413 0.09944 0.53385 0.0
C32 C 0.95635 0.07979 0.52935 0.0
C33 C 0.9531 0.0449 0.51756 0.0
C34 C -0.00213 0.02723 0.51072 0.0
C35 C 0.04586 0.04478 0.51559 0.0
C36 C 0.09926 0.1018 0.53193 0.0
C37 C 0.11237 0.15344 0.53042 0.0
C38 C 0.15679 0.17335 0.53676 0.0
C39 C 0.18897 0.14175 0.54458 0.0
C40 C 0.17679 0.08953 0.54548 0.0
C41 C 0.1322 0.06978 0.53925 0.0
C42 C 0.00685 0.13727 0.5461 0.0
C43 C 0.98616 0.18579 0.54458 0.0
C44 C 0.98868 0.2216 0.55603 0.0
C45 C 0.0119 0.2095 0.56921 0.0
C46 C 0.03237 0.16065 0.57071 0.0
C47 C 0.02971 0.12483 0.55927 0.0
C48 C 0.91006 0.09008 0.53803 0.0
C49 C 0.8688 0.11538 0.53201 0.0
C50 C 0.82202 0.11627 0.53925 0.0
C51 C 0.8162 0.09248 0.5527 0.0
C52 C 0.85856 0.06935 0.55896 0.0
C53 C 0.9049 0.06786 0.55163 0.0
C54 C 0.90253 0.02491 0.5127 0.0
C55 C 0.8793 0.04475 0.50042 0.0
C56 C 0.83316 0.02414 0.49538 0.0
C57 C 0.80974 0.98296 0.50246 0.0
C58 C 0.83276 0.96386 0.51494 0.0
C59 C 0.87863 0.98488 0.52007 0.0
C60 C 0.99258 0.99132 0.49817 0.0
C61 C 0.99016 0.01137 0.48423 0.0
C62 C 0.95978 0.98724 0.47366 0.0
C63 C 0.9306 0.94362 0.4771 0.0
C64 C 0.94092 0.91907 0.49021 0.0
C65 C 0.97261 0.94243 0.50057 0.0
C66 C 0.09239 0.0222 0.50927 0.0
C67 C 0.12598 0.05154 0.50093 0.0
C68 C 0.16914 0.02938 0.49474 0.0
C69 C 0.17915 0.9775 0.49677 0.0
C70 C 0.14587 0.9486 0.50541 0.0
C71 C 0.10288 0.97082 0.51162 0.0
C72 C 0.01463 0.24771 0.58134 0.0
C73 C 0.76184 0.95954 0.49678 0.0
H74 H 0.36232 0.53291 0.70165 0.0
H75 H 0.30817 0.05406 0.79301 0.0
H76 H 0.29228 0.58724 0.78065 0.0
H77 H 0.30949 0.5051 0.76881 0.0
H78 H 0.47001 0.54373 0.76784 0.0
H79 H 0.45248 0.6244 0.78033 0.0
H80 H 0.28829 0.64866 0.75227 0.0
H81 H 0.30401 0.59838 0.73002 0.0
H82 H 0.46473 0.63432 0.73339 0.0
H83 H 0.44839 0.68431 0.75565 0.0
H84 H 0.25933 0.77978 0.75718 0.0
H85 H 0.25484 0.82851 0.73478 0.0
H86 H 0.41904 0.82931 0.73188 0.0
H87 H 0.42308 0.7812 0.75427 0.0
H88 H 0.23835 0.80862 0.78873 0.0
H89 H 0.21576 0.89806 0.79249 0.0
H90 H 0.37296 0.94257 0.78553 0.0
H91 H 0.3951 0.85282 0.78202 0.0
H92 H 0.24576 0.73864 0.81244 0.0
H93 H 0.21838 0.80539 0.82953 0.0
H94 H 0.36997 0.87186 0.82869 0.0
H95 H 0.39726 0.80362 0.81227 0.0
H96 H 0.26141 0.64321 0.80628 0.0
H97 H 0.25584 0.57416 0.82363 0.0
H98 H 0.41767 0.58751 0.83111 0.0
H99 H 0.42293 0.65685 0.81358 0.0
O100 O 0.3567 0.5546 0.71013 0.0
O101 O 0.43878 0.5753 0.71211 0.0
O102 O 0.23574 0.99345 0.79498 0.0
O103 O 0.31588 0.01848 0.79128 0.0
C104 C 0.35925 0.66647 0.78255 0.0
C105 C 0.358 0.69552 0.76983 0.0
C106 C 0.34437 0.7471 0.77068 0.0
C107 C 0.33263 0.76982 0.78426 0.0
C108 C 0.3342 0.74066 0.79704 0.0
C109 C 0.34653 0.68862 0.79613 0.0
C110 C 0.37113 0.61175 0.78112 0.0
C111 C 0.33138 0.5766 0.77862 0.0
C112 C 0.34126 0.53006 0.77167 0.0
C113 C 0.39088 0.51876 0.76694 0.0
C114 C 0.43136 0.55121 0.77129 0.0
C115 C 0.42147 0.59742 0.77844 0.0
C116 C 0.36716 0.67027 0.75548 0.0
C117 C 0.32673 0.64623 0.74804 0.0
C118 C 0.33588 0.61733 0.73539 0.0
C119 C 0.38567 0.61216 0.72996 0.0
C120 C 0.42594 0.63748 0.73728 0.0
C121 C 0.41672 0.6663 0.74994 0.0
C122 C 0.34153 0.77693 0.75726 0.0
C123 C 0.29422 0.79064 0.75168 0.0
C124 C 0.29174 0.81833 0.73892 0.0
C125 C 0.33657 0.83219 0.73152 0.0
C126 C 0.38384 0.81826 0.73719 0.0
C127 C 0.38627 0.79105 0.74999 0.0
C128 C 0.31836 0.82435 0.78518 0.0
C129 C 0.26777 0.8378 0.78796 0.0
C130 C 0.255 0.88889 0.79011 0.0
C131 C 0.29263 0.92748 0.78938 0.0
C132 C 0.3431 0.91382 0.78621 0.0
C133 C 0.35583 0.86266 0.78412 0.0
C134 C 0.32346 0.76637 0.81114 0.0
C135 C 0.27366 0.76594 0.81662 0.0
C136 C 0.25785 0.80486 0.82611 0.0
C137 C 0.29158 0.84491 0.83013 0.0
C138 C 0.34292 0.84176 0.82588 0.0
C139 C 0.35878 0.80251 0.81654 0.0
C140 C 0.34238 0.65554 0.80889 0.0
C141 C 0.29539 0.63227 0.81198 0.0
C142 C 0.29246 0.59232 0.82169 0.0
C143 C 0.33649 0.57504 0.82853 0.0
C144 C 0.38321 0.60014 0.82598 0.0
C145 C 0.3862 0.6399 0.8161 0.0
C146 C 0.39551 0.57975 0.71685 0.0
C147 C 0.27949 0.9817 0.79204 0.0
H148 H 0.63268 0.99234 0.12151 0.0
H149 H 0.90463 0.23617 0.98945 0.0
H150 H 0.53513 0.0248 0.04332 0.0
H151 H 0.46758 0.99728 0.05985 0.0
H152 H 0.44303 0.15416 0.07297 0.0
H153 H 0.51034 0.18132 0.05616 0.0
H154 H 0.63319 0.021 0.05871 0.0
H155 H 0.63477 0.99392 0.08396 0.0
H156 H 0.60852 0.14928 0.09843 0.0
H157 H 0.60756 0.17586 0.07309 0.0
H158 H 0.71676 0.03757 0.03591 0.0
H159 H 0.77465 0.99531 0.0521 0.0
H160 H 0.78137 0.13111 0.07961 0.0
H161 H 0.72154 0.17238 0.06349 0.0
H162 H 0.7127 0.07899 0.00653 0.0
H163 H 0.78796 0.09769 0.99174 0.0
H164 H 0.81104 0.23904 0.01605 0.0
H165 H 0.7352 0.2201 0.03063 0.0
H166 H 0.60879 0.088 0.99459 0.0
H167 H 0.6465 0.10686 0.97109 0.0
H168 H 0.68835 0.25783 0.98724 0.0
H169 H 0.64644 0.23991 0.0101 0.0
H170 H 0.54538 0.04292 0.01429 0.0
H171 H 0.46772 0.0245 0.00051 0.0
H172 H 0.42528 0.18255 0.0052 0.0
H173 H 0.50327 0.20044 0.0192 0.0
O174 O 0.63156 0.00382 0.1116 0.0
O175 O 0.61694 0.08406 0.11848 0.0
O176 O 0.86206 0.15396 0.98331 0.0
O177 O 0.87588 0.22693 0.9955 0.0
C178 C 0.57526 0.1199 0.04108 0.0
C179 C 0.62121 0.11691 0.0488 0.0
C180 C 0.66804 0.12485 0.04161 0.0
C181 C 0.66889 0.14031 0.02709 0.0
C182 C 0.62264 0.14547 0.01944 0.0
C183 C 0.57611 0.13218 0.02623 0.0
C184 C 0.52721 0.10503 0.04847 0.0
C185 C 0.51402 0.05329 0.04942 0.0
C186 C 0.47594 0.03764 0.05902 0.0
C187 C 0.45047 0.07351 0.06788 0.0
C188 C 0.46173 0.12566 0.06624 0.0
C189 C 0.49999 0.14128 0.05662 0.0
C190 C 0.62049 0.10037 0.06413 0.0
C191 C 0.62782 0.04907 0.06736 0.0
C192 C 0.62867 0.03373 0.08179 0.0
C193 C 0.62188 0.06946 0.09322 0.0
C194 C 0.61395 0.12082 0.08988 0.0
C195 C 0.6133 0.13611 0.07544 0.0
C196 C 0.71501 0.10783 0.0486 0.0
C197 C 0.73235 0.05884 0.04513 0.0
C198 C 0.76533 0.03468 0.05445 0.0
C199 C 0.7818 0.05945 0.06733 0.0
C200 C 0.76825 0.11055 0.06998 0.0
C201 C 0.73484 0.13454 0.06068 0.0
C202 C 0.71838 0.14839 0.01956 0.0
C203 C 0.73439 0.11372 0.00873 0.0
C204 C 0.77731 0.12456 0.00028 0.0
C205 C 0.80528 0.1701 0.00263 0.0
C206 C 0.79021 0.20377 0.0139 0.0
C207 C 0.74715 0.19292 0.02232 0.0
C208 C 0.62513 0.16242 0.00415 0.0
C209 C 0.62314 0.12619 0.99274 0.0
C210 C 0.64612 0.13673 0.97938 0.0
C211 C 0.67273 0.18315 0.97737 0.0
C212 C 0.66867 0.22156 0.98823 0.0
C213 C 0.64444 0.21143 0.00141 0.0
C214 C 0.52996 0.12309 0.0175 0.0
C215 C 0.51931 0.07355 0.01227 0.0
C216 C 0.47505 0.0631 0.00445 0.0
C217 C 0.44054 0.10208 0.0018 0.0
C218 C 0.45101 0.15169 0.00725 0.0
C219 C 0.4956 0.16215 0.01506 0.0
C220 C 0.62325 0.0531 0.10854 0.0
C221 C 0.84947 0.18293 0.99323 0.0
H222 H 0.12602 0.33631 0.2021 0.0
H223 H 0.59161 0.60494 0.27489 0.0
H224 H 0.25945 0.26575 0.27005 0.0
H225 H 0.21308 0.18537 0.26562 0.0
H226 H 0.34523 0.12493 0.24332 0.0
H227 H 0.39165 0.20429 0.24859 0.0
H228 H 0.25702 0.37643 0.25239 0.0
H229 H 0.19239 0.36936 0.23338 0.0
H230 H 0.28993 0.26848 0.20851 0.0
H231 H 0.35448 0.27634 0.22757 0.0
H232 H 0.3363 0.46746 0.26501 0.0
H233 H 0.31625 0.541 0.25075 0.0
H234 H 0.36443 0.45923 0.21179 0.0
H235 H 0.39048 0.38848 0.22656 0.0
H236 H 0.3924 0.45322 0.28908 0.0
H237 H 0.44362 0.52937 0.29496 0.0
H238 H 0.54216 0.49531 0.25838 0.0
H239 H 0.49093 0.41873 0.25275 0.0
H240 H 0.36723 0.34793 0.30284 0.0
H241 H 0.39934 0.38869 0.3247 0.0
H242 H 0.54931 0.39907 0.30533 0.0
H243 H 0.51627 0.35654 0.28322 0.0
H244 H 0.31945 0.26653 0.29455 0.0
H245 H 0.32888 0.20234 0.31328 0.0
H246 H 0.47599 0.16326 0.29564 0.0
H247 H 0.46711 0.22882 0.27716 0.0
O248 O 0.15226 0.3388 0.20945 0.0
O249 O 0.20387 0.28722 0.19706 0.0
O250 O 0.51867 0.59093 0.29141 0.0
O251 O 0.57018 0.57553 0.27265 0.0
C252 C 0.35652 0.2892 0.26212 0.0
C253 C 0.34908 0.33099 0.25302 0.0
C254 C 0.37592 0.37742 0.25573 0.0
C255 C 0.40956 0.38181 0.26765 0.0
C256 C 0.41481 0.34053 0.27712 0.0
C257 C 0.38881 0.29418 0.27422 0.0
C258 C 0.32853 0.24067 0.25948 0.0
C259 C 0.27824 0.23478 0.26432 0.0
C260 C 0.2519 0.18889 0.26175 0.0
C261 C 0.27526 0.14847 0.25408 0.0
C262 C 0.3262 0.15458 0.24952 0.0
C263 C 0.35267 0.20016 0.25231 0.0
C264 C 0.3104 0.32699 0.24133 0.0
C265 C 0.26441 0.35303 0.2428 0.0
C266 C 0.22754 0.34882 0.23193 0.0
C267 C 0.23597 0.31832 0.21942 0.0
C268 C 0.28221 0.29227 0.21801 0.0
C269 C 0.3191 0.29661 0.22887 0.0
C270 C 0.36542 0.4227 0.24688 0.0
C271 C 0.34419 0.46616 0.25346 0.0
C272 C 0.33169 0.50792 0.24518 0.0
C273 C 0.33789 0.50635 0.22998 0.0
C274 C 0.3598 0.46273 0.22345 0.0
C275 C 0.37408 0.42169 0.23185 0.0
C276 C 0.43823 0.43024 0.27055 0.0
C277 C 0.42503 0.46229 0.28234 0.0
C278 C 0.45431 0.50581 0.28566 0.0
C279 C 0.49716 0.5183 0.27717 0.0
C280 C 0.50952 0.4867 0.26517 0.0
C281 C 0.48025 0.44306 0.26188 0.0
C282 C 0.4393 0.34949 0.29142 0.0
C283 C 0.40767 0.35605 0.30357 0.0
C284 C 0.42629 0.37965 0.31613 0.0
C285 C 0.47675 0.39801 0.31667 0.0
C286 C 0.51004 0.38594 0.30512 0.0
C287 C 0.49135 0.36157 0.29253 0.0
C288 C 0.39266 0.25211 0.28456 0.0
C289 C 0.35352 0.24382 0.29467 0.0
C290 C 0.35901 0.20758 0.30536 0.0
C291 C 0.4032 0.17842 0.30584 0.0
C292 C 0.44162 0.18549 0.2954 0.0
C293 C 0.43659 0.22261 0.28489 0.0
C294 C 0.19656 0.31372 0.20794 0.0
C295 C 0.52912 0.56383 0.28088 0.0
H296 H 0.00299 0.04387 0.2091 0.0
H297 H 0.76177 0.55518 0.28314 0.0
H298 H 0.79536 0.09224 0.26913 0.0
H299 H 0.82853 0.01008 0.26181 0.0
H300 H 0.97626 0.0548 0.27878 0.0
H301 H 0.94213 0.1379 0.28603 0.0
H302 H 0.84049 0.13611 0.2439 0.0
H303 H 0.89662 0.09135 0.22679 0.0
H304 H 0.0258 0.17512 0.24458 0.0
H305 H 0.96926 0.21887 0.26185 0.0
H306 H 0.80583 0.2463 0.238 0.0
H307 H 0.8241 0.29625 0.21635 0.0
H308 H 0.94479 0.37646 0.23948 0.0
H309 H 0.92611 0.32626 0.2611 0.0
H310 H 0.74671 0.31472 0.2581 0.0
H311 H 0.71701 0.40266 0.25765 0.0
H312 H 0.82991 0.44649 0.28981 0.0
H313 H 0.85962 0.35859 0.28998 0.0
H314 H 0.70299 0.26846 0.28571 0.0
H315 H 0.65961 0.33373 0.30048 0.0
H316 H 0.79246 0.34947 0.32776 0.0
H317 H 0.83541 0.28435 0.31299 0.0
H318 H 0.73328 0.13789 0.28624 0.0
H319 H 0.70905 0.06792 0.30172 0.0
H320 H 0.83119 0.11072 0.33125 0.0
H321 H 0.85774 0.17783 0.31474 0.0
O322 O 0.98126 0.06309 0.21566 0.0
O323 O 0.04524 0.1124 0.22365 0.0
O324 O 0.71706 0.49628 0.26602 0.0
O325 O 0.77356 0.52041 0.28283 0.0
C326 C 0.85122 0.17475 0.27741 0.0
C327 C 0.86754 0.20373 0.26546 0.0
C328 C 0.85151 0.25427 0.2642 0.0
C329 C 0.82071 0.27649 0.2751 0.0
C330 C 0.80386 0.24719 0.28697 0.0
C331 C 0.81845 0.196 0.28801 0.0
C332 C 0.8664 0.1209 0.27804 0.0
C333 C 0.83406 0.08331 0.27203 0.0
C334 C 0.85334 0.03617 0.26782 0.0
C335 C 0.90543 0.02619 0.26946 0.0
C336 C 0.9362 0.06176 0.27715 0.0
C337 C 0.91674 0.10902 0.2814 0.0
C338 C 0.90091 0.1805 0.25413 0.0
C339 C 0.8809 0.14488 0.24403 0.0
C340 C 0.91305 0.11933 0.23428 0.0
C341 C 0.96573 0.12951 0.23435 0.0
C342 C 0.98542 0.16636 0.24425 0.0
C343 C 0.95323 0.19156 0.25407 0.0
C344 C 0.8646 0.28298 0.25104 0.0
C345 C 0.83641 0.27445 0.23831 0.0
C346 C 0.84678 0.303 0.22602 0.0
C347 C 0.88584 0.34015 0.22626 0.0
C348 C 0.91486 0.34766 0.23896 0.0
C349 C 0.90411 0.31938 0.2513 0.0
C350 C 0.80532 0.33046 0.27405 0.0
C351 C 0.76536 0.34356 0.26489 0.0
C352 C 0.74833 0.39372 0.26472 0.0
C353 C 0.77099 0.43159 0.27374 0.0
C354 C 0.81159 0.41831 0.28274 0.0
C355 C 0.82871 0.36819 0.28284 0.0
C356 C 0.77223 0.27178 0.29834 0.0
C357 C 0.72177 0.28446 0.29526 0.0
C358 C 0.69727 0.32195 0.30361 0.0
C359 C 0.72325 0.3472 0.31502 0.0
C360 C 0.77205 0.33105 0.31884 0.0
C361 C 0.79629 0.29337 0.31059 0.0
C362 C 0.79716 0.16283 0.29939 0.0
C363 C 0.75418 0.13257 0.2962 0.0
C364 C 0.74033 0.09248 0.30517 0.0
C365 C 0.76828 0.08271 0.31783 0.0
C366 C 0.80948 0.11567 0.32144 0.0
C367 C 0.8242 0.15489 0.31219 0.0
C368 C -6e-05 0.10135 0.22424 0.0
C369 C 0.75215 0.48464 0.27391 0.0
H370 H 0.72623 0.76591 0.6858 0.0
H371 H 0.88272 0.50864 0.8277 0.0
H372 H 0.88396 0.87314 0.74348 0.0
H373 H 0.85029 0.94353 0.72951 0.0
H374 H 0.73746 0.97075 0.76292 0.0
H375 H 0.77128 0.90037 0.77681 0.0
H376 H 0.8618 0.75065 0.73573 0.0
H377 H 0.81641 0.74987 0.71256 0.0
H378 H 0.68635 0.81755 0.73399 0.0
H379 H 0.73186 0.8174 0.75711 0.0
H380 H 0.89648 0.65966 0.76014 0.0
H381 H 0.86601 0.57536 0.75236 0.0
H382 H 0.7107 0.62712 0.75615 0.0
H383 H 0.74177 0.70933 0.76536 0.0
H384 H 0.95983 0.69902 0.78566 0.0
H385 H 0.97982 0.62432 0.79987 0.0
H386 H 0.82037 0.60579 0.81064 0.0
H387 H 0.80107 0.68125 0.79664 0.0
H388 H 0.98392 0.80996 0.7915 0.0
H389 H 0.03592 0.7875 0.81238 0.0
H390 H 0.89912 0.75067 0.83642 0.0
H391 H 0.84779 0.77367 0.81563 0.0
H392 H 0.94132 0.90643 0.77308 0.0
H393 H 0.96891 0.98336 0.78681 0.0
H394 H 0.85525 0.95189 0.81958 0.0
H395 H 0.82777 0.8757 0.80581 0.0
O396 O 0.74327 0.76601 0.69511 0.0
O397 O 0.67746 0.80081 0.70666 0.0
O398 O 0.95756 0.55044 0.81649 0.0
O399 O 0.87581 0.53803 0.8219 0.0
C400 C 0.84381 0.83392 0.76819 0.0
C401 C 0.82855 0.78627 0.76201 0.0
C402 C 0.83993 0.74072 0.76918 0.0
C403 C 0.86752 0.74298 0.78232 0.0
C404 C 0.88279 0.79068 0.78838 0.0
C405 C 0.87028 0.83602 0.78144 0.0
C406 C 0.8297 0.88161 0.76106 0.0
C407 C 0.85284 0.89523 0.74793 0.0
C408 C 0.83383 0.93551 0.74003 0.0
C409 C 0.79121 0.96225 0.74515 0.0
C410 C 0.77023 0.9505 0.75875 0.0
C411 C 0.78951 0.91055 0.76669 0.0
C412 C 0.80023 0.78431 0.74806 0.0
C413 C 0.8234 0.76501 0.7354 0.0
C414 C 0.79743 0.76475 0.72218 0.0
C415 C 0.7478 0.78382 0.72141 0.0
C416 C 0.72455 0.8027 0.73419 0.0
C417 C 0.7505 0.80278 0.7474 0.0
C418 C 0.82138 0.69071 0.7633 0.0
C419 C 0.85587 0.65247 0.75942 0.0
C420 C 0.83826 0.60435 0.75483 0.0
C421 C 0.78569 0.59393 0.75359 0.0
C422 C 0.75136 0.6329 0.75727 0.0
C423 C 0.76903 0.68048 0.76226 0.0
C424 C 0.87904 0.69556 0.79015 0.0
C425 C 0.92929 0.67874 0.79109 0.0
C426 C 0.94058 0.63605 0.7992 0.0
C427 C 0.90167 0.60911 0.80642 0.0
C428 C 0.85122 0.62566 0.80524 0.0
C429 C 0.84004 0.66859 0.7972 0.0
C430 C 0.91232 0.7924 0.80204 0.0
C431 C 0.96528 0.79911 0.80151 0.0
C432 C 0.99485 0.78617 0.8134 0.0
C433 C 0.9716 0.7666 0.82593 0.0
C434 C 0.91819 0.76594 0.82698 0.0
C435 C 0.88874 0.77871 0.81508 0.0
C436 C 0.88299 0.88551 0.78858 0.0
C437 C 0.92189 0.91684 0.78309 0.0
C438 C 0.93748 0.96058 0.79089 0.0
C439 C 0.91451 0.97294 0.80429 0.0
C440 C 0.87398 0.94266 0.80937 0.0
C441 C 0.85822 0.89938 0.80154 0.0
C442 C 0.72056 0.78412 0.70732 0.0
C443 C 0.91356 0.56413 0.81521 0.0
H444 H 0.39141 0.42489 0.93597 0.0
H445 H 0.85503 0.52336 0.03398 0.0
H446 H 0.41513 0.60467 0.99492 0.0
H447 H 0.32914 0.58106 0.98755 0.0
H448 H 0.31276 0.48914 0.02579 0.0
H449 H 0.40067 0.50913 0.03223 0.0
H450 H 0.50434 0.55813 0.97664 0.0
H451 H 0.46282 0.51171 0.95648 0.0
H452 H 0.40419 0.40074 0.98655 0.0
H453 H 0.44655 0.44703 0.00655 0.0
H454 H 0.61723 0.58199 0.98757 0.0
H455 H 0.68415 0.54116 0.97314 0.0
H456 H 0.63403 0.39376 0.98806 0.0
H457 H 0.56737 0.43511 0.00278 0.0
H458 H 0.64319 0.64268 0.01544 0.0
H459 H 0.73517 0.64467 0.01953 0.0
H460 H 0.72887 0.48546 0.03066 0.0
H461 H 0.6368 0.48427 0.02676 0.0
H462 H 0.56359 0.68767 0.03442 0.0
H463 H 0.62842 0.72501 0.05073 0.0
H464 H 0.65142 0.57713 0.06907 0.0
H465 H 0.58669 0.54029 0.05281 0.0
H466 H 0.43359 0.66881 0.02816 0.0
H467 H 0.36573 0.68917 0.04551 0.0
H468 H 0.40736 0.55931 0.07086 0.0
H469 H 0.47632 0.54124 0.05388 0.0
O470 O 0.40816 0.44223 0.94405 0.0
O471 O 0.3784 0.38667 0.96001 0.0
O472 O 0.81984 0.60555 0.02657 0.0
O473 O 0.81876 0.52356 0.03219 0.0
C474 C 0.47056 0.56016 0.01581 0.0
C475 C 0.50168 0.53538 0.00537 0.0
C476 C 0.55488 0.53712 0.00696 0.0
C477 C 0.5772 0.56289 0.01899 0.0
C478 C 0.54611 0.58633 0.02965 0.0
C479 C 0.49285 0.58478 0.02809 0.0
C480 C 0.41446 0.55799 0.01396 0.0
C481 C 0.39245 0.58043 0.00188 0.0
C482 C 0.34288 0.56721 -0.00223 0.0
C483 C 0.31414 0.53207 0.00588 0.0
C484 C 0.33427 0.51504 0.01904 0.0
C485 C 0.38437 0.52708 0.02289 0.0
C486 C 0.47836 0.50599 0.99304 0.0
C487 C 0.48289 0.52354 0.97882 0.0
C488 C 0.45896 0.49706 0.96734 0.0
C489 C 0.43003 0.45259 0.96991 0.0
C490 C 0.42609 0.43487 0.98418 0.0
C491 C 0.45021 0.46125 -0.00437 0.0
C492 C 0.58798 0.51141 -0.00377 0.0
C493 C 0.62012 0.54084 0.98751 0.0
C494 C 0.65829 0.51762 0.97939 0.0
C495 C 0.66428 0.46463 0.97977 0.0
C496 C 0.62988 0.43471 0.9877 0.0
C497 C 0.59193 0.45814 -0.004 0.0
C498 C 0.63343 0.56338 0.02083 0.0
C499 C 0.6618 0.60831 0.01876 0.0
C500 C 0.7143 0.60931 0.02109 0.0
C501 C 0.73937 0.56521 0.02544 0.0
C502 C 0.71078 0.52008 0.02732 0.0
C503 C 0.65825 0.51922 0.02505 0.0
C504 C 0.57066 0.61133 0.04244 0.0
C505 C 0.58106 0.6639 0.04241 0.0
C506 C 0.61835 0.68503 0.05163 0.0
C507 C 0.64566 0.65364 0.06089 0.0
C508 C 0.6316 0.60193 0.06182 0.0
C509 C 0.59417 0.581 0.05271 0.0
C510 C 0.45979 0.60385 0.03988 0.0
C511 C 0.42883 0.64593 0.03773 0.0
C512 C 0.38958 0.65681 0.04751 0.0
C513 C 0.38048 0.62532 0.05945 0.0
C514 C 0.41349 0.58471 0.06189 0.0
C515 C 0.4531 0.57438 0.05224 0.0
C516 C 0.40394 0.42503 0.95774 0.0
C517 C 0.79506 0.56619 0.02808 0.0
H518 H 0.09353 0.4039 0.62053 0.0
H519 H 0.37585 0.72224 0.49584 0.0
H520 H 0.00975 0.46804 0.54 0.0
H521 H 0.94486 0.43319 0.55639 0.0
H522 H 0.94373 0.57662 0.58043 0.0
H523 H 0.00752 0.61104 0.56388 0.0
H524 H 0.09413 0.45503 0.55904 0.0
H525 H 0.0915 0.419 0.58332 0.0
H526 H 0.11571 0.56975 0.60222 0.0
H527 H 0.11753 0.60532 0.57785 0.0
H528 H 0.19586 0.47669 0.54416 0.0
H529 H 0.26362 0.44473 0.55917 0.0
H530 H 0.28541 0.59544 0.57844 0.0
H531 H 0.21555 0.6266 0.56356 0.0
H532 H 0.22546 0.53109 0.51757 0.0
H533 H 0.30128 0.5605 0.50445 0.0
H534 H 0.2705 0.71546 0.51842 0.0
H535 H 0.19496 0.68542 0.53152 0.0
H536 H 0.13306 0.53295 0.49995 0.0
H537 H 0.17503 0.56281 0.47816 0.0
H538 H 0.14505 0.7186 0.49147 0.0
H539 H 0.10356 0.68782 0.51354 0.0
H540 H 0.0464 0.5031 0.50833 0.0
H541 H 0.97719 0.50053 0.49061 0.0
H542 H 0.91064 0.63216 0.51183 0.0
H543 H 0.98087 0.63513 0.5294 0.0
O544 O 0.09454 0.41898 0.61104 0.0
O545 O 0.10759 0.49717 0.62022 0.0
O546 O 0.36232 0.62886 0.49484 0.0
O547 O 0.34746 0.70928 0.50147 0.0
C548 C 0.06159 0.55794 0.54385 0.0
C549 C 0.10681 0.55449 0.55197 0.0
C550 C 0.15382 0.5687 0.54575 0.0
C551 C 0.15565 0.58931 0.53184 0.0
C552 C 0.11075 0.5914 0.52351 0.0
C553 C 0.06392 0.57424 0.52936 0.0
C554 C 0.01295 0.54216 0.55071 0.0
C555 C 0.99386 0.49244 0.54846 0.0
C556 C 0.9575 0.47238 0.55798 0.0
C557 C 0.93962 0.50189 0.56984 0.0
C558 C 0.95624 0.55294 0.57136 0.0
C559 C 0.99256 0.57284 0.56187 0.0
C560 C 0.10555 0.53278 0.56674 0.0
C561 C 0.09851 0.4802 0.56846 0.0
C562 C 0.0972 0.45973 0.58233 0.0
C563 C 0.10332 0.49151 0.59472 0.0
C564 C 0.11078 0.54423 0.59292 0.0
C565 C 0.11189 0.56465 0.57903 0.0
C566 C 0.20107 0.5537 0.55288 0.0
C567 C 0.21613 0.50298 0.5514 0.0
C568 C 0.25505 0.48493 0.55994 0.0
C569 C 0.27981 0.51752 0.57006 0.0
C570 C 0.26651 0.5693 0.57089 0.0
C571 C 0.22713 0.58729 0.56234 0.0
C572 C 0.20502 0.60614 0.52552 0.0
C573 C 0.23577 0.57122 0.51799 0.0
C574 C 0.27881 0.58819 0.51043 0.0
C575 C 0.29181 0.64041 0.51032 0.0
C576 C 0.26158 0.67503 0.51826 0.0
C577 C 0.2186 0.65798 0.52582 0.0
C578 C 0.11526 0.60819 0.5083 0.0
C579 C 0.13293 0.57335 0.49777 0.0
C580 C 0.15731 0.59069 0.48531 0.0
C581 C 0.1644 0.64327 0.48319 0.0
C582 C 0.1411 0.67791 0.49293 0.0
C583 C 0.11664 0.66041 0.50543 0.0
C584 C 0.01884 0.5698 0.51994 0.0
C585 C 0.01674 0.53123 0.50917 0.0
C586 C 0.97732 0.52975 0.49911 0.0
C587 C 0.93901 0.56636 0.49984 0.0
C588 C 0.93972 0.60339 0.51112 0.0
C589 C 0.97967 0.60525 0.52109 0.0
C590 C 0.10198 0.46962 0.60945 0.0
C591 C 0.33609 0.65894 0.50177 0.0
C592 C 0.13646 0.71171 0.16434 0.0
C593 C 0.95864 0.62011 0.15914 0.0
C594 C 0.93471 0.73318 0.12602 0.0
Mg595 Mg 0.17197 0.82594 0.15709 0.0
Mg596 Mg 0.09502 0.92349 0.15414 0.0
O597 O 0.10752 0.85522 0.14962 0.0
Mg598 Mg 0.05977 0.7971 0.15352 0.0
O599 O 0.01755 0.7346 0.1569 0.0
Mg600 Mg 0.0447 0.69013 0.14072 0.0
Mg601 Mg 0.94697 0.73788 0.15878 0.0
C602 C 0.989 0.88886 0.14044 0.0
O603 O 0.02529 0.82975 0.17477 0.0
O604 O 0.21446 0.89386 0.14639 0.0
O605 O 0.94655 0.79442 0.17625 0.0
O606 O 0.16609 0.87182 0.17902 0.0
O607 O 0.15896 0.95636 0.14258 0.0
O608 O 0.10671 0.93124 0.17688 0.0
O609 O 0.09026 0.75956 0.13288 0.0
O610 O 0.17263 0.78062 0.13578 0.0
C611 C 0.13675 0.75767 0.12875 0.0
C612 C 0.20349 0.93747 0.14126 0.0
O613 O -0.00149 0.84111 0.14133 0.0
O614 O -0.00166 0.62397 0.15102 0.0
O615 O 0.01854 0.92436 0.14551 0.0
O616 O 0.97602 0.7077 0.12552 0.0
O617 O 0.93305 0.65892 0.16335 0.0
O618 O 0.91862 0.75371 0.13782 0.0
O619 O 0.12316 0.75845 0.16552 0.0
O620 O 0.1121 0.67926 0.15622 0.0
C621 C 0.13927 0.90804 0.18442 0.0
C622 C 0.98201 0.82414 0.18119 0.0
C623 C 0.63584 0.82619 0.42264 0.0
C624 C 0.68668 0.63649 0.42318 0.0
C625 C 0.61609 0.62872 0.3807 0.0
Mg626 Mg 0.54073 0.87938 0.40667 0.0
Mg627 Mg 0.44173 0.81201 0.39329 0.0
O628 O 0.51254 0.82065 0.39483 0.0
Mg629 Mg 0.55369 0.76658 0.40324 0.0
O630 O 0.59815 0.71467 0.41148 0.0
Mg631 Mg 0.66114 0.73154 0.40013 0.0
Mg632 Mg 0.57723 0.64608 0.41175 0.0
C633 C 0.47603 0.70629 0.38045 0.0
O634 O 0.49053 0.73947 0.41892 0.0
O635 O 0.49292 0.92968 0.39136 0.0
O636 O 0.50154 0.65482 0.42089 0.0
O637 O 0.4733 0.87615 0.42313 0.0
O638 O 0.43061 0.88022 0.38149 0.0
O639 O 0.41275 0.82243 0.41477 0.0
O640 O 0.61634 0.79085 0.38733 0.0
O641 O 0.60641 0.87531 0.39052 0.0
C642 C 0.63019 0.83719 0.38497 0.0
C643 C 0.45509 0.92271 0.38266 0.0
O644 O 0.51935 0.71258 0.38652 0.0
O645 O 0.7003 0.67329 0.41495 0.0
O646 O 0.43904 0.73714 0.38232 0.0
O647 O 0.64673 0.66673 0.38268 0.0
O648 O 0.64052 0.62031 0.42406 0.0
O649 O 0.58318 0.61635 0.39023 0.0
O650 O 0.588 0.82273 0.41983 0.0
O651 O 0.66831 0.79527 0.41709 0.0
C652 C 0.43061 0.8525 0.42464 0.0
C653 C 0.4761 0.69546 0.42334 0.0
C654 C 0.59851 0.14795 0.67033 0.0
C655 C 0.40747 0.09595 0.66078 0.0
C656 C 0.4236 0.20222 0.62504 0.0
Mg657 Mg 0.66119 0.25117 0.66153 0.0
Mg658 Mg 0.60138 0.36023 0.65896 0.0
O659 O 0.60489 0.29197 0.65308 0.0
Mg660 Mg 0.54592 0.24537 0.65645 0.0
O661 O 0.49014 0.19388 0.65928 0.0
Mg662 Mg 0.51287 0.14181 0.64441 0.0
Mg663 Mg 0.42196 0.21324 0.65805 0.0
C664 C 0.49731 0.34759 0.64224 0.0
O665 O 0.51298 0.28907 0.67618 0.0
O666 O 0.71623 0.31053 0.65071 0.0
O667 O 0.42809 0.27533 0.67398 0.0
O668 O 0.66244 0.29921 0.68313 0.0
O669 O 0.67189 0.3829 0.64896 0.0
O670 O 0.60826 0.36357 0.68193 0.0
O671 O 0.57312 0.19933 0.63706 0.0
O672 O 0.65718 0.20333 0.64053 0.0
C673 C 0.61823 0.1871 0.63341 0.0
C674 C 0.71223 0.357 0.64668 0.0
O675 O 0.49854 0.29872 0.64271 0.0
O676 O 0.44943 0.08972 0.65378 0.0
O677 O 0.52977 0.37702 0.64875 0.0
O678 O 0.45837 0.16933 0.62671 0.0
O679 O 0.38965 0.14024 0.66372 0.0
O680 O 0.40598 0.22809 0.63576 0.0
O681 O 0.59746 0.19675 0.6701 0.0
O682 O 0.56904 0.12022 0.66222 0.0
C683 C 0.63945 0.3371 0.68902 0.0
C684 C 0.46675 0.29689 0.68021 0.0
C685 C 0.14617 0.3256 0.93184 0.0
C686 C 0.17931 0.13399 0.92948 0.0
C687 C 0.15721 0.14614 0.88377 0.0
Mg688 Mg 0.0851 0.39946 0.91092 0.0
Mg689 Mg -0.0006 0.36061 0.88634 0.0
O690 O 0.06205 0.35063 0.89505 0.0
Mg691 Mg 0.08402 0.2858 0.90379 0.0
O692 O 0.11254 0.22484 0.91303 0.0
Mg693 Mg 0.18623 0.23835 0.9088 0.0
Mg694 Mg 0.08722 0.15835 0.91053 0.0
C695 C 0.02444 0.25158 0.87307 0.0
O696 O 0.0055 0.26118 0.91349 0.0
O697 O 0.06577 0.4658 0.89557 0.0
O698 O 0.00743 0.17517 0.91445 0.0
O699 O 0.00386 0.40101 0.9206 0.0
O700 O 0.01572 0.43403 0.87765 0.0
O701 O 0.94883 0.36781 0.90432 0.0
O702 O 0.16319 0.30627 0.89467 0.0
O703 O 0.16303 0.38982 0.90058 0.0
C704 C 0.18525 0.35042 0.89522 0.0
C705 C 0.04175 0.47047 0.88357 0.0
O706 O 0.05811 0.24385 0.88283 0.0
O707 O 0.20287 0.17143 0.92361 0.0
O708 O 0.99749 0.29193 0.87279 0.0
O709 O 0.18639 0.18119 0.88918 0.0
O710 O 0.13253 0.12289 0.92694 0.0
O711 O 0.11497 0.13369 0.88971 0.0
O712 O 0.10587 0.33012 0.92425 0.0
O713 O 0.18051 0.29331 0.92835 0.0
C714 C 0.95881 0.38677 0.91689 0.0
C715 C 0.98419 0.21769 0.91607 0.0
H716 H 0.27673 0.01405 0.49331 0.0
H717 H 0.33874 0.80914 0.43155 0.0
H718 H 0.17905 0.88509 0.48256 0.0
H719 H 0.44986 0.9198 0.44734 0.0
H720 H 0.28305 0.83216 0.45167 0.0
H721 H 0.34355 0.97691 0.478 0.0
C722 C 0.26954 0.97774 0.48782 0.0
C723 C 0.22212 0.9529 0.48906 0.0
C724 C 0.31979 0.85114 0.45085 0.0
C725 C 0.29815 0.91026 0.47158 0.0
C726 C 0.35173 0.838 0.43933 0.0
C727 C 0.39905 0.86278 0.43767 0.0
C728 C 0.33455 0.89033 0.46063 0.0
C729 C 0.41364 0.89985 0.44814 0.0
C730 C 0.30774 0.95641 0.47916 0.0
C731 C 0.21508 0.9055 0.48194 0.0
N732 N 0.38116 0.91304 0.45907 0.0
N733 N 0.25244 0.88605 0.47337 0.0
H734 H 0.39006 0.81823 0.70626 0.0
H735 H 0.32242 0.09307 0.67817 0.0
H736 H 0.27904 0.91614 0.72667 0.0
H737 H 0.43615 0.99608 0.65853 0.0
H738 H 0.29353 0.02195 0.69285 0.0
H739 H 0.39548 0.8761 0.68589 0.0
C740 C 0.36649 0.85174 0.70637 0.0
C741 C 0.33471 0.86292 0.71826 0.0
C742 C 0.32428 0.01602 0.68516 0.0
C743 C 0.34068 0.92936 0.69502 0.0
C744 C 0.34077 0.05662 0.67673 0.0
C745 C 0.38261 0.05096 0.66733 0.0
C746 C 0.34996 0.96952 0.68423 0.0
C747 C 0.40436 0.00258 0.66582 0.0
C748 C 0.3694 0.88465 0.69472 0.0
C749 C 0.30414 0.90619 0.71773 0.0
N750 N 0.38832 0.96399 0.67436 0.0
N751 N 0.30845 0.93828 0.7064 0.0
H752 H 0.34261 0.13327 0.00647 0.0
H753 H 0.26769 0.08473 0.92541 0.0
H754 H 0.4357 0.04684 0.97641 0.0
H755 H 0.15608 0.12344 0.95806 0.0
H756 H 0.32624 0.06047 0.94447 0.0
H757 H 0.27076 0.12274 0.98976 0.0
C758 C 0.34771 0.11169 -0.00359 0.0
C759 C 0.39524 0.09151 0.9927 0.0
C760 C 0.2885 0.07291 0.94752 0.0
C761 C 0.31356 0.07918 0.97362 0.0
C762 C 0.25512 0.08649 0.93663 0.0
C763 C 0.20739 0.1059 0.94029 0.0
C764 C 0.27452 0.08063 0.96214 0.0
C765 C 0.19267 0.10821 0.95491 0.0
C766 C 0.30664 0.10523 0.98696 0.0
C767 C 0.39969 0.06306 0.97969 0.0
N768 N 0.22671 0.0969 0.9654 0.0
N769 N 0.35959 0.05843 0.97051 0.0
H770 H 0.17468 0.14168 0.24622 0.0
H771 H 0.21852 0.88553 0.20251 0.0
H772 H 0.30771 0.0492 0.25148 0.0
H773 H 0.08254 0.97539 0.2004 0.0
H774 H 0.2431 0.93293 0.22463 0.0
H775 H 0.13179 0.06985 0.23435 0.0
C776 C 0.19467 0.10601 0.2452 0.0
C777 C 0.2456 0.10216 0.24954 0.0
C778 C 0.20735 0.94148 0.21948 0.0
C779 C 0.19695 0.01999 0.23531 0.0
C780 C 0.19328 0.91439 0.20685 0.0
C781 C 0.14919 0.92754 0.19935 0.0
C782 C 0.17715 0.98198 0.22454 0.0
C783 C 0.11761 0.96483 0.20559 0.0
C784 C 0.17013 0.06494 0.23827 0.0
C785 C 0.26916 0.05466 0.2478 0.0
N786 N 0.13264 0.99128 0.21767 0.0
N787 N 0.24508 0.01578 0.24051 0.0
H788 H 0.19108 0.22876 0.56147 0.0
H789 H 0.44853 0.15127 0.59977 0.0
H790 H 0.28502 0.10379 0.54712 0.0
H791 H 0.34511 0.26365 0.61722 0.0
H792 H 0.39981 0.14797 0.57729 0.0
H793 H 0.25756 0.25599 0.57852 0.0
C794 C 0.22621 0.20773 0.56166 0.0
C795 C 0.23231 0.16352 0.55301 0.0
C796 C 0.38815 0.17383 0.58597 0.0
C797 C 0.30808 0.19393 0.57268 0.0
C798 C 0.41598 0.17579 0.59883 0.0
C799 C 0.40008 0.20678 0.61057 0.0
C800 C 0.34404 0.20295 0.58484 0.0
C801 C 0.35816 0.23837 0.60857 0.0
C802 C 0.264 0.22309 0.57148 0.0
C803 C 0.2784 0.1375 0.55381 0.0
N804 N 0.33111 0.23506 0.59604 0.0
N805 N 0.31427 0.15273 0.56362 0.0
H806 H 0.33852 0.90688 0.85073 0.0
H807 H 0.10289 0.08208 0.86564 0.0
H808 H 0.20142 0.89246 0.82514 0.0
H809 H 0.2563 0.13121 0.87583 0.0
H810 H 0.13679 0.01216 0.85079 0.0
H811 H 0.3078 0.98762 0.86085 0.0
C812 C 0.30201 0.92058 0.84722 0.0
C813 C 0.27232 0.89235 0.83717 0.0
C814 C 0.16303 0.03885 0.85604 0.0
C815 C 0.23689 0.98463 0.8488 0.0
C816 C 0.14369 0.07897 0.86445 0.0
C817 C 0.17675 0.11243 0.87204 0.0
C818 C 0.21577 0.03146 0.85552 0.0
C819 C 0.22938 0.10635 0.87018 0.0
C820 C 0.28461 0.96677 0.85298 0.0
C821 C 0.22506 0.91201 0.83315 0.0
N822 N 0.24729 0.06592 0.86234 0.0
N823 N 0.20865 0.95672 0.83906 0.0
H824 H 0.46356 0.9951 0.08642 0.0
H825 H 0.19321 0.02522 0.12576 0.0
H826 H 0.35787 0.11301 0.07605 0.0
H827 H 0.30207 0.9098 0.13596 0.0
H828 H 0.25452 0.06168 0.10868 0.0
H829 H 0.40586 0.96619 0.10541 0.0
C830 C 0.42794 0.01468 0.08806 0.0
C831 C 0.41522 0.05613 0.07948 0.0
C832 C 0.26508 0.02863 0.11475 0.0
C833 C 0.34906 0.02362 0.10146 0.0
C834 C 0.23016 0.00786 0.12457 0.0
C835 C 0.24223 0.96405 0.13228 0.0
C836 C 0.31242 0.00543 0.11261 0.0
C837 C 0.29078 0.94334 0.13023 0.0
C838 C 0.39516 -0.00159 0.09901 0.0
C839 C 0.36918 0.0809 0.0824 0.0
N840 N 0.32383 0.96398 0.12054 0.0
N841 N 0.3376 0.06409 0.09309 0.0
H842 H 0.41759 0.0765 0.30263 0.0
H843 H 0.47742 0.02526 0.38496 0.0
H844 H 0.40314 0.19654 0.33505 0.0
H845 H 0.40545 0.91171 0.35689 0.0
H846 H 0.46274 0.08935 0.36643 0.0
H847 H 0.42712 0.01487 0.32206 0.0
C848 C 0.4166 0.08968 0.31386 0.0
C849 C 0.40947 0.14122 0.31737 0.0
C850 C 0.44985 0.05041 0.36447 0.0
C851 C 0.42081 0.07178 0.33946 0.0
C852 C 0.45822 0.01393 0.37498 0.0
C853 C 0.44258 0.96315 0.37246 0.0
C854 C 0.42691 0.03551 0.35127 0.0
C855 C 0.41788 0.95045 0.35934 0.0
C856 C 0.42173 0.0547 0.3249 0.0
C857 C 0.4083 0.15683 0.33203 0.0
N858 N 0.4114 0.98626 0.34916 0.0
N859 N 0.41436 0.1222 0.34261 0.0
H860 H 0.74763 0.17025 0.55467 0.0
H861 H 0.68005 0.106 0.6305 0.0
H862 H 0.77248 0.01688 0.56888 0.0
H863 H 0.57593 0.19811 0.6068 0.0
H864 H 0.70875 0.06719 0.6076 0.0
H865 H 0.67791 0.17776 0.57207 0.0
C866 C 0.73763 0.13761 0.56114 0.0
C867 C 0.76716 0.09351 0.56068 0.0
C868 C 0.6785 0.09474 0.60741 0.0
C869 C 0.68827 0.10242 0.58078 0.0
C870 C 0.66244 0.117 0.62044 0.0
C871 C 0.62639 0.15557 0.62036 0.0
C872 C 0.65979 0.11289 0.59427 0.0
C873 C 0.60422 0.16859 0.60717 0.0
C874 C 0.69771 0.14194 0.57107 0.0
C875 C 0.75218 0.05246 0.56934 0.0
N876 N 0.62254 0.14843 0.59451 0.0
N877 N 0.7147 0.05843 0.57937 0.0
H878 H 0.83236 0.02511 0.33455 0.0
H879 H 0.61727 0.82393 0.35608 0.0
H880 H 0.67459 0.03561 0.32183 0.0
H881 H 0.7224 0.88383 0.38814 0.0
H882 H 0.65886 0.87705 0.33776 0.0
H883 H 0.80936 0.95222 0.34946 0.0
C884 C 0.79298 0.01256 0.33483 0.0
C885 C 0.75542 0.0375 0.32686 0.0
C886 C 0.67398 0.87697 0.34868 0.0
C887 C 0.72999 0.95196 0.34327 0.0
C888 C 0.6509 0.84613 0.35905 0.0
C889 C 0.66698 0.84932 0.37352 0.0
C890 C 0.71366 0.91048 0.35287 0.0
C891 C 0.70955 0.88 0.377 0.0
C892 C 0.78024 0.97039 0.3432 0.0
C893 C 0.70538 0.01767 0.32743 0.0
N894 N 0.73124 0.90998 0.36675 0.0
N895 N 0.69426 0.9761 0.33543 0.0
H896 H 0.85403 0.98564 0.06342 0.0
H897 H 0.92842 0.97039 0.14537 0.0
H898 H 0.76896 0.06579 0.09683 0.0
H899 H 0.95372 0.84478 0.11532 0.0
H900 H 0.87051 0.00744 0.12792 0.0
H901 H 0.89388 0.93556 0.08218 0.0
C902 C 0.84361 0.99268 0.07467 0.0
C903 C 0.80851 0.03047 0.07854 0.0
C904 C 0.88788 0.97122 0.12527 0.0
C905 C 0.85428 0.97361 0.10001 0.0
C906 C 0.92077 0.95011 0.13521 0.0
C907 C 0.9458 0.90472 0.13168 0.0
C908 C 0.88125 0.9474 0.1116 0.0
C909 C 0.93484 0.87977 0.11842 0.0
C910 C 0.86623 0.96394 0.08535 0.0
C911 C 0.79689 0.03816 0.09334 0.0
N912 N 0.90408 0.90205 0.10868 0.0
N913 N 0.82009 0.01029 0.10354 0.0
H914 H 0.93671 0.07144 0.79679 0.0
H915 H 0.02953 0.14977 0.87693 0.0
H916 H 0.93911 0.96913 0.83279 0.0
H917 H 0.9934 0.26092 0.84492 0.0
H918 H 0.00766 0.08182 0.8595 0.0
H919 H 0.96835 0.14052 0.81299 0.0
C920 C 0.94413 0.06361 0.80808 0.0
C921 C 0.93482 0.01494 0.81356 0.0
C922 C 0.00498 0.12104 0.85621 0.0
C923 C 0.97099 0.09291 0.83199 0.0
C924 C 0.01804 0.15976 0.86611 0.0
C925 C 0.01394 0.2108 0.86226 0.0
C926 C 0.9879 0.13344 0.84232 0.0
C927 C 0.99706 0.22185 0.84826 0.0
C928 C 0.96194 0.10289 0.8173 0.0
C929 C 0.94499 0.00645 0.82823 0.0
N930 N 0.98467 0.18336 0.83874 0.0
N931 N 0.96251 0.04506 0.83693 0.0
H932 H 0.88351 0.84912 0.47349 0.0
H933 H 0.67518 0.9208 0.41869 0.0
H934 H 0.86868 0.00702 0.46183 0.0
H935 H 0.64839 0.80682 0.45086 0.0
H936 H 0.74558 0.95588 0.43341 0.0
H937 H 0.79958 0.83147 0.46331 0.0
C938 C 0.86301 0.88017 0.46882 0.0
C939 C 0.88376 0.92982 0.4687 0.0
C940 C 0.723 0.92443 0.43752 0.0
C941 C 0.78763 0.90932 0.45677 0.0
C942 C 0.68231 0.90511 0.42927 0.0
C943 C 0.65582 0.86145 0.43374 0.0
C944 C 0.73778 0.89867 0.44998 0.0
C945 C 0.66762 0.84106 0.44722 0.0
C946 C 0.81489 0.86999 0.46306 0.0
C947 C 0.85533 0.96787 0.462 0.0
N948 N 0.70878 0.85891 0.4547 0.0
N949 N 0.80888 0.95676 0.45624 0.0
H950 H 0.99433 0.03083 0.254 0.0
H951 H 0.89468 0.82646 0.19759 0.0
H952 H 0.86811 0.92948 0.26359 0.0
H953 H 0.05147 0.87707 0.19772 0.0
H954 H 0.88372 0.86572 0.22165 0.0
H955 H 0.01842 0.97454 0.2339 0.0
C956 C 0.97262 0.99585 0.25224 0.0
C957 C 0.92855 0.98528 0.2604 0.0
C958 C 0.92063 0.86807 0.21641 0.0
C959 C 0.95483 0.92195 0.23697 0.0
C960 C 0.92682 0.84613 0.20261 0.0
C961 C 0.97397 0.84962 0.19546 0.0
C962 C 0.9617 0.89413 0.22303 0.0
C963 C 0.01426 0.87501 0.20262 0.0
C964 C 0.98613 0.96401 0.2406 0.0
C965 C 0.90161 0.93972 0.25736 0.0
N966 N 0.00716 0.89679 0.21596 0.0
N967 N 0.91447 0.91028 0.24565 0.0
H968 H 0.73052 0.10822 0.96445 0.0
H969 H 0.93677 0.29172 0.93209 0.0
H970 H 0.70433 0.27035 0.96308 0.0
H971 H 0.91512 0.13848 0.91531 0.0
H972 H 0.85455 0.28531 0.94467 0.0
H973 H 0.80012 0.11834 0.94734 0.0
C974 C 0.73823 0.14586 0.96034 0.0
C975 C 0.71072 0.18845 0.96532 0.0
C976 C 0.86721 0.25368 0.9379 0.0
C977 C 0.79275 0.20032 0.94603 0.0
C978 C 0.91383 0.25752 0.93063 0.0
C979 C 0.93225 0.21618 0.92237 0.0
C980 C 0.83923 0.20776 0.93711 0.0
C981 C 0.90232 0.17143 0.92151 0.0
C982 C 0.7786 0.15157 0.95062 0.0
C983 C 0.72464 0.23639 0.95983 0.0
N984 N 0.85753 0.16824 0.9289 0.0
N985 N 0.76512 0.24113 0.95066 0.0
H986 H 0.83052 0.04125 0.72921 0.0
H987 H 0.58686 0.05136 0.67985 0.0
H988 H 0.69099 0.95948 0.73858 0.0
H989 H 0.681 0.18663 0.68562 0.0
H990 H 0.63461 0.01046 0.69877 0.0
H991 H 0.78477 0.09044 0.71101 0.0
C992 C 0.79023 0.03419 0.72755 0.0
C993 C 0.76427 0.99661 0.73541 0.0
C994 C 0.64484 0.0491 0.69589 0.0
C995 C 0.71268 0.05125 0.71461 0.0
C996 C 0.61791 0.07239 0.68501 0.0
C997 C 0.62994 0.12256 0.68116 0.0
C998 C 0.68471 0.0757 0.70288 0.0
C999 C 0.67043 0.14795 0.68832 0.0
C1000 C 0.7643 0.06218 0.71724 0.0
C1001 C 0.7122 0.98859 0.73288 0.0
N1002 N 0.69674 0.12407 0.69884 0.0
N1003 N 0.68828 0.01524 0.72257 0.0
H1004 H 0.66563 0.38712 0.95944 0.0
H1005 H 0.96422 0.4204 0.94522 0.0
H1006 H 0.76301 0.49062 0.98399 0.0
H1007 H 0.85815 0.36315 0.91278 0.0
H1008 H 0.89379 0.42857 0.96245 0.0
H1009 H 0.74012 0.35881 0.94534 0.0
C1010 C 0.70286 0.4032 0.96195 0.0
C1011 C 0.70857 0.44182 0.97258 0.0
C1012 C 0.88615 0.41405 0.95156 0.0
C1013 C 0.79287 0.41011 0.95674 0.0
C1014 C 0.9262 0.40961 0.9417 0.0
C1015 C 0.91695 0.39177 0.92748 0.0
C1016 C 0.83666 0.40045 0.94715 0.0
C1017 C 0.86697 0.3777 0.92358 0.0
C1018 C 0.74508 0.38734 0.95392 0.0
C1019 C 0.7573 0.46145 0.97562 0.0
N1020 N 0.82859 0.38256 0.93337 0.0
N1021 N 0.79766 0.44565 0.96764 0.0
H1022 H 0.81458 0.38867 0.21041 0.0
H1023 H 0.0193 0.53702 0.16202 0.0
H1024 H 0.9765 0.3667 0.21349 0.0
H1025 H 0.86695 0.58988 0.17036 0.0
H1026 H -0.0002 0.46079 0.17598 0.0
H1027 H 0.82965 0.44903 0.19094 0.0
C1028 C 0.85326 0.39598 0.20682 0.0
C1029 C 0.89443 0.37304 0.21361 0.0
C1030 C 0.9705 0.4888 0.17456 0.0
C1031 C 0.91188 0.44207 0.19145 0.0
C1032 C 0.98144 0.53211 0.16652 0.0
C1033 C 0.94485 0.57012 0.16519 0.0
C1034 C 0.92253 0.48333 0.18115 0.0
C1035 C 0.89649 0.56183 0.17128 0.0
C1036 C 0.86183 0.43059 0.19578 0.0
C1037 C 0.94381 0.3842 0.20865 0.0
N1038 N 0.88683 0.51948 0.17909 0.0
N1039 N 0.95122 0.41816 0.19789 0.0
H1040 H 0.83572 0.57295 0.50276 0.0
H1041 H 0.79048 0.64161 0.4209 0.0
H1042 H 0.95555 0.56457 0.47067 0.0
H1043 H 0.66917 0.585 0.44821 0.0
H1044 H 0.85211 0.61668 0.43915 0.0
H1045 H 0.7736 0.58139 0.48317 0.0
C1046 C 0.84876 0.57259 0.49157 0.0
C1047 C 0.90057 0.5681 0.48825 0.0
C1048 C 0.81202 0.60913 0.44104 0.0
C1049 C 0.83037 0.57813 0.46595 0.0
C1050 C 0.77687 0.62342 0.43065 0.0
C1051 C 0.72465 0.61564 0.43309 0.0
C1052 C 0.79468 0.58789 0.45404 0.0
C1053 C 0.70909 0.59169 0.44589 0.0
C1054 C 0.81344 0.57708 0.48043 0.0
C1055 C 0.91577 0.56759 0.47363 0.0
N1056 N 0.74395 0.57935 0.456 0.0
N1057 N 0.88085 0.57317 0.463 0.0
H1058 H 0.83108 0.52976 0.73347 0.0
H1059 H 0.58767 0.40017 0.70767 0.0
H1060 H 0.69664 0.54245 0.7605 0.0
H1061 H 0.73002 0.32178 0.70259 0.0
H1062 H 0.62429 0.45059 0.72771 0.0
H1063 H 0.7953 0.4525 0.72238 0.0
C1064 C 0.79457 0.51603 0.73735 0.0
C1065 C 0.76669 0.54361 0.74787 0.0
C1066 C 0.64698 0.42126 0.7225 0.0
C1067 C 0.72492 0.45554 0.73475 0.0
C1068 C 0.62604 0.39231 0.71109 0.0
C1069 C 0.65592 0.35693 0.70339 0.0
C1070 C 0.69859 0.41599 0.72585 0.0
C1071 C 0.7057 0.3488 0.70819 0.0
C1072 C 0.77414 0.47176 0.73094 0.0
C1073 C 0.71896 0.52376 0.75211 0.0
N1074 N 0.72606 0.37928 0.71885 0.0
N1075 N 0.69906 0.48158 0.7453 0.0
H1076 H 0.6576 0.74235 0.07701 0.0
H1077 H 0.94017 0.67387 0.10115 0.0
H1078 H 0.73879 0.60993 0.06167 0.0
H1079 H 0.85096 0.79185 0.12189 0.0
H1080 H 0.87344 0.66173 0.08295 0.0
H1081 H 0.73406 0.77134 0.09021 0.0
C1082 C 0.69161 0.71959 0.07638 0.0
C1083 C 0.69165 0.67319 0.06853 0.0
C1084 C 0.86881 0.69075 0.09138 0.0
C1085 C 0.77907 0.70611 0.08342 0.0
C1086 C 0.9071 0.69796 0.10172 0.0
C1087 C 0.90073 0.7332 0.11324 0.0
C1088 C 0.82393 0.71903 0.09256 0.0
C1089 C 0.85708 0.76352 0.11336 0.0
C1090 C 0.73516 0.73608 0.08389 0.0
C1091 C 0.73677 0.64526 0.06794 0.0
N1092 N 0.82005 0.75528 0.1033 0.0
N1093 N 0.77854 0.66199 0.07535 0.0
H1094 H 0.77 0.43935 0.31909 0.0
H1095 H 0.56323 0.54056 0.37447 0.0
H1096 H 0.62771 0.36002 0.32657 0.0
H1097 H 0.6847 0.63639 0.35814 0.0
H1098 H 0.58345 0.4763 0.35603 0.0
H1099 H 0.73726 0.51381 0.33225 0.0
C1100 C 0.73181 0.43772 0.32355 0.0
C1101 C 0.70189 0.3932 0.32211 0.0
C1102 C 0.60515 0.51172 0.3563 0.0
C1103 C 0.66407 0.47821 0.33708 0.0
C1104 C 0.5937 0.54858 0.36686 0.0
C1105 C 0.62269 0.59392 0.36798 0.0
C1106 C 0.64613 0.51989 0.34681 0.0
C1107 C 0.66152 0.60195 0.35774 0.0
C1108 C 0.71296 0.48035 0.33093 0.0
C1109 C 0.65215 0.39346 0.32765 0.0
N1110 N 0.67256 0.56495 0.3477 0.0
N1111 N 0.63501 0.43511 0.33511 0.0
H1112 H 0.94679 0.4071 0.58164 0.0
H1113 H 0.72268 0.45665 0.6391 0.0
H1114 H 0.85881 0.54457 0.58433 0.0
H1115 H 0.79292 0.30999 0.63298 0.0
H1116 H 0.77968 0.49165 0.62086 0.0
H1117 H 0.89598 0.37217 0.60153 0.0
C1118 C 0.91641 0.42972 0.58628 0.0
C1119 C 0.90693 0.47884 0.58124 0.0
C1120 C 0.78295 0.45188 0.62355 0.0
C1121 C 0.84953 0.43953 0.60425 0.0
C1122 C 0.75052 0.43184 0.63405 0.0
C1123 C 0.75259 0.38008 0.63752 0.0
C1124 C 0.81787 0.42007 0.61638 0.0
C1125 C 0.78987 0.35008 0.63065 0.0
C1126 C 0.88778 0.40993 0.59774 0.0
C1127 C 0.86785 0.5068 0.58793 0.0
N1128 N 0.82077 0.37041 0.62031 0.0
N1129 N 0.84071 0.48679 0.59907 0.0
H1130 H 0.96465 0.76506 0.85578 0.0
H1131 H 0.04649 0.4831 0.85452 0.0
H1132 H 0.04372 0.69693 0.81922 0.0
H1133 H 0.04489 0.56755 0.89525 0.0
H1134 H 0.04577 0.5631 0.84159 0.0
H1135 H 0.99576 0.69697 0.87112 0.0
C1136 C 0.98977 0.73671 0.8511 0.0
C1137 C 0.00124 0.73635 0.83619 0.0
C1138 C 0.04635 0.56431 0.85336 0.0
C1139 C 0.03583 0.65836 0.85349 0.0
C1140 C 0.04627 0.51868 0.86072 0.0
C1141 C 0.04522 0.51897 0.87593 0.0
C1142 C 0.04399 0.6106 0.86125 0.0
C1143 C 0.04558 0.56599 0.88349 0.0
C1144 C 0.0075 0.69798 0.85984 0.0
C1145 C 0.03407 0.6989 0.83066 0.0
N1146 N 0.04389 0.61017 0.87606 0.0
N1147 N 0.04925 0.66076 0.83924 0.0
H1148 H 0.37471 0.61307 0.08887 0.0
H1149 H 0.12228 0.76239 0.09953 0.0
H1150 H 0.28468 0.65643 0.05209 0.0
H1151 H 0.18944 0.67265 0.1328 0.0
H1152 H 0.17383 0.71697 0.08121 0.0
H1153 H 0.30233 0.62874 0.10465 0.0
C1154 C 0.33956 0.6253 0.08406 0.0
C1155 C 0.3361 0.63389 0.06912 0.0
C1156 C 0.17602 0.70604 0.09246 0.0
C1157 C 0.25298 0.65306 0.08727 0.0
C1158 C 0.14637 0.73163 0.10284 0.0
C1159 C 0.15225 0.72101 0.11755 0.0
C1160 C 0.21189 0.6706 0.09704 0.0
C1161 C 0.18429 0.68168 0.12149 0.0
C1162 C 0.29808 0.63429 0.0931 0.0
C1163 C 0.28957 0.65062 0.0636 0.0
N1164 N 0.21369 0.65844 0.11131 0.0
N1165 N 0.24997 0.66037 0.07272 0.0
H1166 H 0.37606 0.56421 0.85579 0.0
H1167 H 0.20932 0.31325 0.86816 0.0
H1168 H 0.28975 0.4835 0.82259 0.0
H1169 H 0.26399 0.41386 0.90249 0.0
H1170 H 0.26504 0.35757 0.851 0.0
H1171 H 0.3597 0.49356 0.87227 0.0
C1172 C 0.35446 0.5312 0.8519 0.0
C1173 C 0.33318 0.53009 0.83796 0.0
C1174 C 0.26607 0.36888 0.86239 0.0
C1175 C 0.31453 0.44932 0.85664 0.0
C1176 C 0.2348 0.34311 0.87221 0.0
C1177 C 0.2316 0.36062 0.88667 0.0
C1178 C 0.29411 0.41216 0.86715 0.0
C1179 C 0.26501 0.39977 0.89135 0.0
C1180 C 0.34512 0.49096 0.86129 0.0
C1181 C 0.30569 0.48636 0.83341 0.0
N1182 N 0.29413 0.42499 0.88156 0.0
N1183 N 0.29664 0.448 0.84278 0.0
H1184 H 0.35087 0.44363 0.56511 0.0
H1185 H 0.45488 0.44113 0.64568 0.0
H1186 H 0.28934 0.54137 0.59904 0.0
H1187 H 0.45743 0.30876 0.61704 0.0
H1188 H 0.40212 0.4845 0.62808 0.0
H1189 H 0.4006 0.40039 0.58333 0.0
C1190 C 0.34797 0.45617 0.57637 0.0
C1191 C 0.31558 0.49596 0.58056 0.0
C1192 C 0.4138 0.44576 0.62575 0.0
C1193 C 0.37276 0.44708 0.60135 0.0
C1194 C 0.44375 0.42105 0.63576 0.0
C1195 C 0.46018 0.37133 0.63277 0.0
C1196 C 0.40129 0.42084 0.61259 0.0
C1197 C 0.44491 0.34687 0.6198 0.0
C1198 C 0.37626 0.43142 0.58673 0.0
C1199 C 0.31424 0.51134 0.59527 0.0
N1200 N 0.41672 0.37215 0.61006 0.0
N1201 N 0.34244 0.4868 0.60516 0.0
H1202 H 0.52883 0.48675 0.31186 0.0
H1203 H 0.41418 0.62252 0.38271 0.0
H1204 H 0.4513 0.40399 0.34565 0.0
H1205 H 0.53012 0.6914 0.35601 0.0
H1206 H 0.41977 0.54393 0.36773 0.0
H1207 H 0.527 0.56331 0.32719 0.0
C1208 C 0.51274 0.48418 0.32267 0.0
C1209 C 0.4896 0.43892 0.32741 0.0
C1210 C 0.4435 0.57651 0.36506 0.0
C1211 C 0.4854 0.52715 0.34474 0.0
C1212 C 0.43974 0.6213 0.37345 0.0
C1213 C 0.47118 0.66307 0.37032 0.0
C1214 C 0.47863 0.57425 0.3535 0.0
C1215 C 0.50483 0.65981 0.35853 0.0
C1216 C 0.51086 0.52826 0.33132 0.0
C1217 C 0.46872 0.43835 0.34147 0.0
N1218 N 0.50761 0.61611 0.35049 0.0
N1219 N 0.46635 0.48209 0.34957 0.0
H1220 H 0.24047 0.57102 0.98791 0.0
H1221 H 0.18448 0.29312 0.95699 0.0
H1222 H 0.28611 0.43175 0.00802 0.0
H1223 H 0.12406 0.42652 0.93718 0.0
H1224 H 0.20733 0.34429 0.97834 0.0
H1225 H 0.18358 0.5208 0.97197 0.0
C1226 C 0.23786 0.53017 0.98922 0.0
C1227 C 0.26927 0.50569 -0.00084 0.0
C1228 C 0.18857 0.36263 0.96945 0.0
C1229 C 0.20404 0.44824 0.98105 0.0
C1230 C 0.17573 0.33336 0.95723 0.0
C1231 C 0.15334 0.356 0.94528 0.0
C1232 C 0.1803 0.41538 0.96959 0.0
C1233 C 0.14178 0.40795 0.94619 0.0
C1234 C 0.20518 0.50158 0.98015 0.0
C1235 C 0.26299 0.4528 0.00062 0.0
N1236 N 0.15647 0.43633 0.95806 0.0
N1237 N 0.23184 0.42595 0.99151 0.0
H1238 H 0.33057 0.49837 0.7435 0.0
H1239 H 0.53114 0.31988 0.70277 0.0
H1240 H 0.47096 0.45285 0.76333 0.0
H1241 H 0.37997 0.34776 0.68695 0.0
H1242 H 0.51182 0.37065 0.72471 0.0
H1243 H 0.34897 0.44358 0.72267 0.0
C1244 C 0.36472 0.47582 0.74367 0.0
C1245 C 0.39899 0.4798 0.75531 0.0
C1246 C 0.48299 0.36572 0.7164 0.0
C1247 C 0.4212 0.41805 0.7311 0.0
C1248 C 0.49416 0.33725 0.70384 0.0
C1249 C 0.4572 0.32999 0.69301 0.0
C1250 C 0.43469 0.38728 0.71805 0.0
C1251 C 0.40955 0.35237 0.69504 0.0
C1252 C 0.37553 0.44496 0.73163 0.0
C1253 C 0.44356 0.45102 0.75458 0.0
N1254 N 0.39972 0.3801 0.7073 0.0
N1255 N 0.45356 0.42149 0.74262 0.0
H1256 H 0.23478 0.72082 0.48644 0.0
H1257 H 0.40324 0.62161 0.42 0.0
H1258 H 0.1832 0.60484 0.45566 0.0
H1259 H 0.4392 0.75912 0.44454 0.0
H1260 H 0.32207 0.61507 0.43301 0.0
H1261 H 0.30773 0.73825 0.47082 0.0
C1262 C 0.23797 0.69982 0.47623 0.0
C1263 C 0.20277 0.66093 0.47244 0.0
C1264 C 0.3475 0.64689 0.43551 0.0
C1265 C 0.28756 0.67953 0.45475 0.0
C1266 C 0.39389 0.65038 0.42816 0.0
C1267 C 0.42749 0.69112 0.4312 0.0
C1268 C 0.33516 0.68391 0.44616 0.0
C1269 C 0.4138 0.72752 0.4418 0.0
C1270 C 0.28011 0.70944 0.46739 0.0
C1271 C 0.2098 0.63445 0.45917 0.0
N1272 N 0.36881 0.72282 0.44902 0.0
N1273 N 0.25172 0.64375 0.45092 0.0
H1274 H 0.25626 0.56865 0.23563 0.0
H1275 H 0.20269 0.63625 0.15729 0.0
H1276 H 0.37342 0.53985 0.20343 0.0
H1277 H 0.16515 0.74465 0.19145 0.0
H1278 H 0.26331 0.59682 0.17355 0.0
H1279 H 0.21959 0.63067 0.21975 0.0
C1280 C 0.27521 0.57585 0.22541 0.0
C1281 C 0.31819 0.54815 0.22094 0.0
C1282 C 0.2426 0.62993 0.17735 0.0
C1283 C 0.27445 0.61816 0.20244 0.0
C1284 C 0.20793 0.65227 0.16813 0.0
C1285 C 0.17877 0.69344 0.17311 0.0
C1286 C 0.24671 0.64789 0.19176 0.0
C1287 C 0.18696 0.71287 0.18724 0.0
C1288 C 0.25386 0.6113 0.21631 0.0
C1289 C 0.33952 0.55883 0.20726 0.0
N1290 N 0.21934 0.68905 0.19623 0.0
N1291 N 0.31678 0.59219 0.19836 0.0
loop_
_geom_bond_atom_site_label_1
_geom_bond_atom_site_label_2
_geom_bond_distance
_geom_bond_site_symmetry_2
_ccdc_geom_bond_type
H0 O26 0.856 . S
H1 O29 0.854 . S
H2 C37 0.930 . S
H3 C38 0.930 . S
H4 C40 0.930 1_565 S
H5 C41 0.930 1_565 S
H6 C43 0.931 . S
H7 C44 0.930 1_655 S
H8 C46 0.930 . S
H9 C47 0.929 . S
H10 C49 0.930 . S
H11 C50 0.931 . S
H12 C52 0.930 . S
H13 C53 0.929 1_565 S
H14 C55 0.931 . S
H15 C56 0.930 . S
H16 C58 0.930 . S
H17 C59 0.932 . S
H18 C61 0.930 1_545 S
H19 C62 0.929 . S
H20 C64 0.931 . S
H21 C65 0.930 . S
H22 C67 0.929 . S
H23 C68 0.931 1_545 S
H24 C70 0.930 . S
H25 C71 0.929 . S
O26 H0 0.856 . S
O26 C72 1.300 . S
O27 C72 1.209 . S
O28 C73 1.199 . S
O29 H1 0.854 . S
O29 C73 1.297 . S
C30 C31 1.404 1_455 S
C30 C35 1.397 . S
C30 C36 1.492 . S
C31 C30 1.404 1_655 S
C31 C32 1.396 . S
C31 C42 1.491 1_655 S
C32 C31 1.396 . S
C32 C33 1.397 . S
C32 C48 1.509 . S
C33 C32 1.397 . S
C33 C34 1.412 1_545 S
C33 C54 1.484 1_545 S
C34 C33 1.412 1_565 S
C34 C35 1.388 1_665 S
C34 C60 1.490 . S
C35 C30 1.397 . S
C35 C34 1.388 1_445 S
C35 C66 1.519 1_545 S
C36 C30 1.492 . S
C36 C37 1.363 . S
C36 C41 1.390 . S
C37 H2 0.930 . S
C37 C36 1.363 . S
C37 C38 1.372 . S
C38 H3 0.930 . S
C38 C37 1.372 . S
C38 C39 1.383 . S
C39 C38 1.383 . S
C39 C40 1.395 . S
C40 H4 0.930 1_545 S
C40 C39 1.395 . S
C40 C41 1.362 . S
C41 H5 0.930 1_545 S
C41 C36 1.390 . S
C41 C40 1.362 . S
C42 C31 1.491 1_455 S
C42 C43 1.375 1_455 S
C42 C47 1.401 . S
C43 H6 0.931 . S
C43 C42 1.375 1_655 S
C43 C44 1.376 1_655 S
C44 H7 0.930 1_455 S
C44 C43 1.376 1_455 S
C44 C45 1.376 . S
C45 C44 1.376 . S
C45 C46 1.378 . S
C45 C72 1.486 . S
C46 H8 0.930 . S
C46 C45 1.378 . S
C46 C47 1.376 . S
C47 H9 0.929 . S
C47 C42 1.401 . S
C47 C46 1.376 . S
C48 C32 1.509 . S
C48 C49 1.391 . S
C48 C53 1.386 . S
C49 H10 0.930 . S
C49 C48 1.391 . S
C49 C50 1.375 . S
C50 H11 0.931 . S
C50 C49 1.375 . S
C50 C51 1.375 . S
C51 C50 1.375 . S
C51 C52 1.361 . S
C52 H12 0.930 . S
C52 C51 1.361 . S
C52 C53 1.399 . S
C53 H13 0.929 1_545 S
C53 C48 1.386 . S
C53 C52 1.399 . S
C54 C33 1.484 1_565 S
C54 C55 1.391 1_565 S
C54 C59 1.365 . S
C55 H14 0.931 . S
C55 C54 1.391 1_545 S
C55 C56 1.372 . S
C56 H15 0.930 . S
C56 C55 1.372 . S
C56 C57 1.397 1_545 S
C57 C56 1.397 1_565 S
C57 C58 1.390 . S
C57 C73 1.476 . S
C58 H16 0.930 . S
C58 C57 1.390 . S
C58 C59 1.366 . S
C59 H17 0.932 . S
C59 C54 1.365 . S
C59 C58 1.366 . S
C60 C34 1.490 . S
C60 C61 1.380 . S
C60 C65 1.386 . S
C61 H18 0.930 1_565 S
C61 C60 1.380 . S
C61 C62 1.381 . S
C62 H19 0.929 . S
C62 C61 1.381 . S
C62 C63 1.371 . S
C63 C62 1.371 . S
C63 C64 1.380 . S
C64 H20 0.931 . S
C64 C63 1.380 . S
C64 C65 1.387 . S
C65 H21 0.930 . S
C65 C60 1.386 . S
C65 C64 1.387 . S
C66 C35 1.519 1_565 S
C66 C67 1.377 1_565 S
C66 C71 1.361 . S
C67 H22 0.929 . S
C67 C66 1.377 1_545 S
C67 C68 1.386 1_545 S
C68 H23 0.931 1_565 S
C68 C67 1.386 1_565 S
C68 C69 1.363 . S
C69 C68 1.363 . S
C69 C70 1.385 . S
C70 H24 0.930 . S
C70 C69 1.385 . S
C70 C71 1.396 . S
C71 H25 0.929 . S
C71 C66 1.361 . S
C71 C70 1.396 . S
C72 O26 1.300 . S
C72 O27 1.209 . S
C72 C45 1.486 . S
C73 O28 1.199 . S
C73 O29 1.297 . S
C73 C57 1.476 . S
H74 O100 0.856 . S
H75 O103 0.854 . S
H76 C111 0.930 . S
H77 C112 0.930 . S
H78 C114 0.930 . S
H79 C115 0.930 . S
H80 C117 0.931 . S
H81 C118 0.930 . S
H82 C120 0.930 . S
H83 C121 0.929 . S
H84 C123 0.930 . S
H85 C124 0.931 . S
H86 C126 0.930 . S
H87 C127 0.929 . S
H88 C129 0.931 . S
H89 C130 0.930 . S
H90 C132 0.930 . S
H91 C133 0.932 . S
H92 C135 0.930 . S
H93 C136 0.929 . S
H94 C138 0.931 . S
H95 C139 0.930 . S
H96 C141 0.929 . S
H97 C142 0.931 . S
H98 C144 0.930 . S
H99 C145 0.929 . S
O100 H74 0.856 . S
O100 C146 1.300 . S
O101 C146 1.209 . S
O102 C147 1.199 . S
O103 H75 0.854 . S
O103 C147 1.297 . S
C104 C105 1.404 . S
C104 C109 1.397 . S
C104 C110 1.492 . S
C105 C104 1.404 . S
C105 C106 1.396 . S
C105 C116 1.492 . S
C106 C105 1.396 . S
C106 C107 1.397 . S
C106 C122 1.509 . S
C107 C106 1.397 . S
C107 C108 1.412 . S
C107 C128 1.485 . S
C108 C107 1.412 . S
C108 C109 1.388 . S
C108 C134 1.490 . S
C109 C104 1.397 . S
C109 C108 1.388 . S
C109 C140 1.519 . S
C110 C104 1.492 . S
C110 C111 1.363 . S
C110 C115 1.390 . S
C111 H76 0.930 . S
C111 C110 1.363 . S
C111 C112 1.372 . S
C112 H77 0.930 . S
C112 C111 1.372 . S
C112 C113 1.383 . S
C113 C112 1.383 . S
C113 C114 1.395 . S
C114 H78 0.930 . S
C114 C113 1.395 . S
C114 C115 1.362 . S
C115 H79 0.930 . S
C115 C110 1.390 . S
C115 C114 1.362 . S
C116 C105 1.492 . S
C116 C117 1.377 . S
C116 C121 1.397 . S
C117 H80 0.931 . S
C117 C116 1.377 . S
C117 C118 1.376 . S
C118 H81 0.930 . S
C118 C117 1.376 . S
C118 C119 1.376 . S
C119 C118 1.376 . S
C119 C120 1.378 . S
C119 C146 1.486 . S
C120 H82 0.930 . S
C120 C119 1.378 . S
C120 C121 1.376 . S
C121 H83 0.929 . S
C121 C116 1.397 . S
C121 C120 1.376 . S
C122 C106 1.509 . S
C122 C123 1.391 . S
C122 C127 1.386 . S
C123 H84 0.930 . S
C123 C122 1.391 . S
C123 C124 1.375 . S
C124 H85 0.931 . S
C124 C123 1.375 . S
C124 C125 1.375 . S
C125 C124 1.375 . S
C125 C126 1.361 . S
C126 H86 0.930 . S
C126 C125 1.361 . S
C126 C127 1.399 . S
C127 H87 0.929 . S
C127 C122 1.386 . S
C127 C126 1.399 . S
C128 C107 1.485 . S
C128 C129 1.394 . S
C128 C133 1.360 . S
C129 H88 0.931 . S
C129 C128 1.394 . S
C129 C130 1.372 . S
C130 H89 0.930 . S
C130 C129 1.372 . S
C130 C131 1.397 . S
C131 C130 1.397 . S
C131 C132 1.390 . S
C131 C147 1.476 1_565 S
C132 H90 0.930 . S
C132 C131 1.390 . S
C132 C133 1.366 . S
C133 H91 0.932 . S
C133 C128 1.360 . S
C133 C132 1.366 . S
C134 C108 1.490 . S
C134 C135 1.380 . S
C134 C139 1.386 . S
C135 H92 0.930 . S
C135 C134 1.380 . S
C135 C136 1.381 . S
C136 H93 0.929 . S
C136 C135 1.381 . S
C136 C137 1.371 . S
C137 C136 1.371 . S
C137 C138 1.380 . S
C138 H94 0.931 . S
C138 C137 1.380 . S
C138 C139 1.387 . S
C139 H95 0.930 . S
C139 C134 1.386 . S
C139 C138 1.387 . S
C140 C109 1.519 . S
C140 C141 1.377 . S
C140 C145 1.361 . S
C141 H96 0.929 . S
C141 C140 1.377 . S
C141 C142 1.386 . S
C142 H97 0.931 . S
C142 C141 1.386 . S
C142 C143 1.363 . S
C143 C142 1.363 . S
C143 C144 1.385 . S
C144 H98 0.930 . S
C144 C143 1.385 . S
C144 C145 1.396 . S
C145 H99 0.929 . S
C145 C140 1.361 . S
C145 C144 1.396 . S
C146 O100 1.300 . S
C146 O101 1.209 . S
C146 C119 1.486 . S
C147 O102 1.199 . S
C147 O103 1.297 . S
C147 C131 1.476 1_545 S
H148 O174 0.856 . S
H149 O177 0.846 1_455 S
H150 C185 0.930 . S
H151 C186 0.930 . S
H152 C188 0.930 . S
H153 C189 0.930 . S
H154 C191 0.931 . S
H155 C192 0.930 . S
H156 C194 0.930 . S
H157 C195 0.929 . S
H158 C197 0.930 . S
H159 C198 0.931 . S
H160 C200 0.930 . S
H161 C201 0.929 . S
H162 C203 0.931 . S
H163 C204 0.930 . S
H164 C206 0.930 . S
H165 C207 0.932 . S
H166 C209 0.930 . S
H167 C210 0.929 . S
H168 C212 0.929 1_556 S
H169 C213 0.930 . S
H170 C215 0.929 . S
H171 C216 0.957 . S
H172 C218 0.930 . S
H173 C219 0.929 . S
O174 H148 0.856 . S
O174 C220 1.300 . S
O175 C220 1.209 . S
O176 C221 1.199 . S
O177 H149 0.846 1_655 S
O177 C221 1.297 . S
C178 C179 1.404 . S
C178 C183 1.397 . S
C178 C184 1.492 . S
C179 C178 1.404 . S
C179 C180 1.396 . S
C179 C190 1.492 . S
C180 C179 1.396 . S
C180 C181 1.397 . S
C180 C196 1.509 . S
C181 C180 1.397 . S
C181 C182 1.412 . S
C181 C202 1.485 . S
C182 C181 1.412 . S
C182 C183 1.388 . S
C182 C208 1.490 . S
C183 C178 1.397 . S
C183 C182 1.388 . S
C183 C214 1.519 . S
C184 C178 1.492 . S
C184 C185 1.363 1_545 S
C184 C189 1.390 . S
C185 H150 0.930 . S
C185 C184 1.363 1_565 S
C185 C186 1.372 . S
C186 H151 0.930 . S
C186 C185 1.372 . S
C186 C187 1.383 1_565 S
C187 C186 1.383 1_545 S
C187 C188 1.395 . S
C188 H152 0.930 . S
C188 C187 1.395 . S
C188 C189 1.362 . S
C189 H153 0.930 . S
C189 C184 1.390 . S
C189 C188 1.362 . S
C190 C179 1.492 . S
C190 C191 1.377 1_545 S
C190 C195 1.397 . S
C191 H154 0.931 . S
C191 C190 1.377 1_565 S
C191 C192 1.376 . S
C192 H155 0.930 . S
C192 C191 1.376 . S
C192 C193 1.376 . S
C193 C192 1.376 . S
C193 C194 1.378 1_565 S
C193 C220 1.486 . S
C194 H156 0.930 . S
C194 C193 1.378 1_545 S
C194 C195 1.376 . S
C195 H157 0.929 . S
C195 C190 1.397 . S
C195 C194 1.376 . S
C196 C180 1.509 . S
C196 C197 1.391 1_545 S
C196 C201 1.386 . S
C197 H158 0.930 . S
C197 C196 1.391 1_565 S
C197 C198 1.375 . S
C198 H159 0.931 . S
C198 C197 1.375 . S
C198 C199 1.375 . S
C199 C198 1.375 . S
C199 C200 1.361 1_565 S
C200 H160 0.930 . S
C200 C199 1.361 1_545 S
C200 C201 1.399 . S
C201 H161 0.929 . S
C201 C196 1.386 . S
C201 C200 1.399 . S
C202 C181 1.485 . S
C202 C203 1.394 . S
C202 C207 1.360 . S
C203 H162 0.931 . S
C203 C202 1.394 . S
C203 C204 1.372 . S
C204 H163 0.930 . S
C204 C203 1.372 . S
C204 C205 1.397 . S
C205 C204 1.397 . S
C205 C206 1.390 . S
C205 C221 1.476 . S
C206 H164 0.930 . S
C206 C205 1.390 . S
C206 C207 1.366 . S
C207 H165 0.932 . S
C207 C202 1.360 . S
C207 C206 1.366 . S
C208 C182 1.490 . S
C208 C209 1.380 . S
C208 C213 1.386 . S
C209 H166 0.930 . S
C209 C208 1.380 . S
C209 C210 1.381 1_554 S
C210 H167 0.929 . S
C210 C209 1.381 1_556 S
C210 C211 1.371 . S
C211 C210 1.371 . S
C211 C212 1.357 1_556 S
C212 H168 0.929 1_554 S
C212 C211 1.357 1_554 S
C212 C213 1.412 . S
C213 H169 0.930 . S
C213 C208 1.386 . S
C213 C212 1.412 . S
C214 C183 1.519 . S
C214 C215 1.377 . S
C214 C219 1.361 . S
C215 H170 0.929 . S
C215 C214 1.377 . S
C215 C216 1.386 . S
C216 H171 0.957 . S
C216 C215 1.386 . S
C216 C217 1.363 . S
C217 C216 1.363 . S
C217 C218 1.385 . S
C218 H172 0.930 . S
C218 C217 1.385 . S
C218 C219 1.396 . S
C219 H173 0.929 . S
C219 C214 1.361 . S
C219 C218 1.396 . S
C220 O174 1.300 . S
C220 O175 1.209 . S
C220 C193 1.486 . S
C221 O176 1.199 . S
C221 O177 1.297 . S
C221 C205 1.476 . S
H222 O248 0.856 . S
H223 O251 0.854 . S
H224 C259 0.930 . S
H225 C260 0.930 . S
H226 C262 0.930 . S
H227 C263 0.930 . S
H228 C265 0.931 . S
H229 C266 0.930 . S
H230 C268 0.930 . S
H231 C269 0.929 . S
H232 C271 0.930 . S
H233 C272 0.931 . S
H234 C274 0.930 . S
H235 C275 0.929 . S
H236 C277 0.931 . S
H237 C278 0.930 . S
H238 C280 0.930 . S
H239 C281 0.932 . S
H240 C283 0.930 . S
H241 C284 0.929 . S
H242 C286 0.931 . S
H243 C287 0.930 . S
H244 C289 0.929 . S
H245 C290 0.931 . S
H246 C292 0.930 . S
H247 C293 0.929 . S
O248 H222 0.856 . S
O248 C294 1.300 . S
O249 C294 1.209 . S
O250 C295 1.199 . S
O251 H223 0.854 . S
O251 C295 1.297 . S
C252 C253 1.404 . S
C252 C257 1.397 . S
C252 C258 1.492 . S
C253 C252 1.404 . S
C253 C254 1.396 . S
C253 C264 1.492 . S
C254 C253 1.396 . S
C254 C255 1.397 . S
C254 C270 1.509 . S
C255 C254 1.397 . S
C255 C256 1.412 . S
C255 C276 1.485 . S
C256 C255 1.412 . S
C256 C257 1.388 . S
C256 C282 1.490 . S
C257 C252 1.397 . S
C257 C256 1.388 . S
C257 C288 1.519 . S
C258 C252 1.492 . S
C258 C259 1.363 . S
C258 C263 1.390 . S
C259 H224 0.930 . S
C259 C258 1.363 . S
C259 C260 1.372 . S
C260 H225 0.930 . S
C260 C259 1.372 . S
C260 C261 1.383 . S
C261 C260 1.383 . S
C261 C262 1.395 . S
C262 H226 0.930 . S
C262 C261 1.395 . S
C262 C263 1.362 . S
C263 H227 0.930 . S
C263 C258 1.390 . S
C263 C262 1.362 . S
C264 C253 1.492 . S
C264 C265 1.377 . S
C264 C269 1.397 . S
C265 H228 0.931 . S
C265 C264 1.377 . S
C265 C266 1.376 . S
C266 H229 0.930 . S
C266 C265 1.376 . S
C266 C267 1.376 . S
C267 C266 1.376 . S
C267 C268 1.378 . S
C267 C294 1.486 . S
C268 H230 0.930 . S
C268 C267 1.378 . S
C268 C269 1.376 . S
C269 H231 0.929 . S
C269 C264 1.397 . S
C269 C268 1.376 . S
C270 C254 1.509 . S
C270 C271 1.391 . S
C270 C275 1.386 . S
C271 H232 0.930 . S
C271 C270 1.391 . S
C271 C272 1.375 . S
C272 H233 0.931 . S
C272 C271 1.375 . S
C272 C273 1.375 . S
C273 C272 1.375 . S
C273 C274 1.361 . S
C274 H234 0.930 . S
C274 C273 1.361 . S
C274 C275 1.399 . S
C275 H235 0.929 . S
C275 C270 1.386 . S
C275 C274 1.399 . S
C276 C255 1.485 . S
C276 C277 1.394 . S
C276 C281 1.360 . S
C277 H236 0.931 . S
C277 C276 1.394 . S
C277 C278 1.372 . S
C278 H237 0.930 . S
C278 C277 1.372 . S
C278 C279 1.397 . S
C279 C278 1.397 . S
C279 C280 1.390 . S
C279 C295 1.476 . S
C280 H238 0.930 . S
C280 C279 1.390 . S
C280 C281 1.366 . S
C281 H239 0.932 . S
C281 C276 1.360 . S
C281 C280 1.366 . S
C282 C256 1.490 . S
C282 C283 1.380 . S
C282 C287 1.386 . S
C283 H240 0.930 . S
C283 C282 1.380 . S
C283 C284 1.381 . S
C284 H241 0.929 . S
C284 C283 1.381 . S
C284 C285 1.371 . S
C285 C284 1.371 . S
C285 C286 1.380 . S
C286 H242 0.931 . S
C286 C285 1.380 . S
C286 C287 1.387 . S
C287 H243 0.930 . S
C287 C282 1.386 . S
C287 C286 1.387 . S
C288 C257 1.519 . S
C288 C289 1.377 . S
C288 C293 1.361 . S
C289 H244 0.929 . S
C289 C288 1.377 . S
C289 C290 1.386 . S
C290 H245 0.931 . S
C290 C289 1.386 . S
C290 C291 1.363 . S
C291 C290 1.363 . S
C291 C292 1.385 . S
C292 H246 0.930 . S
C292 C291 1.385 . S
C292 C293 1.396 . S
C293 H247 0.929 . S
C293 C288 1.361 . S
C293 C292 1.396 . S
C294 O248 1.300 . S
C294 O249 1.209 . S
C294 C267 1.486 . S
C295 O250 1.199 . S
C295 O251 1.297 . S
C295 C279 1.476 . S
H296 O322 0.856 . S
H297 O325 0.854 . S
H298 C333 0.930 . S
H299 C334 0.930 . S
H300 C336 0.930 . S
H301 C337 0.930 . S
H302 C339 0.931 . S
H303 C340 0.930 . S
H304 C342 0.930 . S
H305 C343 0.929 . S
H306 C345 0.930 . S
H307 C346 0.931 . S
H308 C348 0.930 . S
H309 C349 0.929 . S
H310 C351 0.931 . S
H311 C352 0.930 . S
H312 C354 0.930 . S
H313 C355 0.932 . S
H314 C357 0.930 . S
H315 C358 0.929 . S
H316 C360 0.931 . S
H317 C361 0.930 . S
H318 C363 0.929 . S
H319 C364 0.931 . S
H320 C366 0.930 . S
H321 C367 0.929 . S
O322 H296 0.856 . S
O322 C368 1.300 . S
O323 C368 1.209 1_455 S
O324 C369 1.199 . S
O325 H297 0.854 . S
O325 C369 1.297 . S
C326 C327 1.404 . S
C326 C331 1.397 . S
C326 C332 1.492 . S
C327 C326 1.404 . S
C327 C328 1.396 . S
C327 C338 1.492 . S
C328 C327 1.396 . S
C328 C329 1.397 . S
C328 C344 1.509 . S
C329 C328 1.397 . S
C329 C330 1.412 . S
C329 C350 1.485 . S
C330 C329 1.412 . S
C330 C331 1.388 . S
C330 C356 1.490 . S
C331 C326 1.397 . S
C331 C330 1.388 . S
C331 C362 1.519 . S
C332 C326 1.492 . S
C332 C333 1.363 . S
C332 C337 1.390 . S
C333 H298 0.930 . S
C333 C332 1.363 . S
C333 C334 1.372 . S
C334 H299 0.930 . S
C334 C333 1.372 . S
C334 C335 1.383 . S
C335 C334 1.383 . S
C335 C336 1.395 . S
C336 H300 0.930 . S
C336 C335 1.395 . S
C336 C337 1.362 . S
C337 H301 0.930 . S
C337 C332 1.390 . S
C337 C336 1.362 . S
C338 C327 1.492 . S
C338 C339 1.377 . S
C338 C343 1.397 . S
C339 H302 0.931 . S
C339 C338 1.377 . S
C339 C340 1.376 . S
C340 H303 0.930 . S
C340 C339 1.376 . S
C340 C341 1.376 . S
C341 C340 1.376 . S
C341 C342 1.378 . S
C341 C368 1.486 . S
C342 H304 0.930 . S
C342 C341 1.378 . S
C342 C343 1.376 . S
C343 H305 0.929 . S
C343 C338 1.397 . S
C343 C342 1.376 . S
C344 C328 1.509 . S
C344 C345 1.391 . S
C344 C349 1.386 . S
C345 H306 0.930 . S
C345 C344 1.391 . S
C345 C346 1.375 . S
C346 H307 0.931 . S
C346 C345 1.375 . S
C346 C347 1.375 . S
C347 C346 1.375 . S
C347 C348 1.361 . S
C348 H308 0.930 . S
C348 C347 1.361 . S
C348 C349 1.399 . S
C349 H309 0.929 . S
C349 C344 1.386 . S
C349 C348 1.399 . S
C350 C329 1.485 . S
C350 C351 1.394 . S
C350 C355 1.360 . S
C351 H310 0.931 . S
C351 C350 1.394 . S
C351 C352 1.372 . S
C352 H311 0.930 . S
C352 C351 1.372 . S
C352 C353 1.397 . S
C353 C352 1.397 . S
C353 C354 1.390 . S
C353 C369 1.476 . S
C354 H312 0.930 . S
C354 C353 1.390 . S
C354 C355 1.366 . S
C355 H313 0.932 . S
C355 C350 1.360 . S
C355 C354 1.366 . S
C356 C330 1.490 . S
C356 C357 1.380 . S
C356 C361 1.386 . S
C357 H314 0.930 . S
C357 C356 1.380 . S
C357 C358 1.381 . S
C358 H315 0.929 . S
C358 C357 1.381 . S
C358 C359 1.371 . S
C359 C358 1.371 . S
C359 C360 1.380 . S
C360 H316 0.931 . S
C360 C359 1.380 . S
C360 C361 1.387 . S
C361 H317 0.930 . S
C361 C356 1.386 . S
C361 C360 1.387 . S
C362 C331 1.519 . S
C362 C363 1.377 . S
C362 C367 1.361 . S
C363 H318 0.929 . S
C363 C362 1.377 . S
C363 C364 1.386 . S
C364 H319 0.931 . S
C364 C363 1.386 . S
C364 C365 1.363 . S
C365 C364 1.363 . S
C365 C366 1.385 . S
C366 H320 0.930 . S
C366 C365 1.385 . S
C366 C367 1.396 . S
C367 H321 0.929 . S
C367 C362 1.361 . S
C367 C366 1.396 . S
C368 O322 1.300 . S
C368 O323 1.209 1_655 S
C368 C341 1.486 . S
C369 O324 1.199 . S
C369 O325 1.297 . S
C369 C353 1.476 . S
H370 O396 0.856 . S
H371 O399 0.854 . S
H372 C407 0.930 . S
H373 C408 0.930 1_545 S
H374 C410 0.930 . S
H375 C411 0.930 . S
H376 C413 0.931 . S
H377 C414 0.930 . S
H378 C416 0.930 . S
H379 C417 0.929 . S
H380 C419 0.930 . S
H381 C420 0.931 . S
H382 C422 0.930 . S
H383 C423 0.929 . S
H384 C425 0.931 . S
H385 C426 0.930 . S
H386 C428 0.930 . S
H387 C429 0.932 . S
H388 C431 0.930 . S
H389 C432 0.929 . S
H390 C434 0.931 . S
H391 C435 0.930 . S
H392 C437 0.929 . S
H393 C438 0.931 . S
H394 C440 0.930 . S
H395 C441 0.929 . S
O396 H370 0.856 . S
O396 C442 1.300 . S
O397 C442 1.209 . S
O398 C443 1.199 . S
O399 H371 0.854 . S
O399 C443 1.297 . S
C400 C401 1.404 . S
C400 C405 1.397 . S
C400 C406 1.492 . S
C401 C400 1.404 . S
C401 C402 1.396 . S
C401 C412 1.492 . S
C402 C401 1.396 . S
C402 C403 1.397 . S
C402 C418 1.509 . S
C403 C402 1.397 . S
C403 C404 1.412 . S
C403 C424 1.485 . S
C404 C403 1.412 . S
C404 C405 1.388 . S
C404 C430 1.490 . S
C405 C400 1.397 . S
C405 C404 1.388 . S
C405 C436 1.519 . S
C406 C400 1.492 . S
C406 C407 1.363 . S
C406 C411 1.390 . S
C407 H372 0.930 . S
C407 C406 1.363 . S
C407 C408 1.372 . S
C408 H373 0.930 1_565 S
C408 C407 1.372 . S
C408 C409 1.383 1_565 S
C409 C408 1.383 1_545 S
C409 C410 1.395 . S
C410 H374 0.930 . S
C410 C409 1.395 . S
C410 C411 1.362 1_545 S
C411 H375 0.930 . S
C411 C406 1.390 . S
C411 C410 1.362 1_565 S
C412 C401 1.492 . S
C412 C413 1.377 . S
C412 C417 1.397 . S
C413 H376 0.931 . S
C413 C412 1.377 . S
C413 C414 1.376 . S
C414 H377 0.930 . S
C414 C413 1.376 . S
C414 C415 1.376 . S
C415 C414 1.376 . S
C415 C416 1.378 . S
C415 C442 1.486 . S
C416 H378 0.930 . S
C416 C415 1.378 . S
C416 C417 1.376 . S
C417 H379 0.929 . S
C417 C412 1.397 . S
C417 C416 1.376 . S
C418 C402 1.509 . S
C418 C419 1.391 . S
C418 C423 1.386 . S
C419 H380 0.930 . S
C419 C418 1.391 . S
C419 C420 1.375 . S
C420 H381 0.931 . S
C420 C419 1.375 . S
C420 C421 1.375 . S
C421 C420 1.375 . S
C421 C422 1.361 . S
C422 H382 0.930 . S
C422 C421 1.361 . S
C422 C423 1.399 . S
C423 H383 0.929 . S
C423 C418 1.386 . S
C423 C422 1.399 . S
C424 C403 1.485 . S
C424 C425 1.394 . S
C424 C429 1.360 . S
C425 H384 0.931 . S
C425 C424 1.394 . S
C425 C426 1.372 . S
C426 H385 0.930 . S
C426 C425 1.372 . S
C426 C427 1.397 . S
C427 C426 1.397 . S
C427 C428 1.390 . S
C427 C443 1.476 . S
C428 H386 0.930 . S
C428 C427 1.390 . S
C428 C429 1.366 . S
C429 H387 0.932 . S
C429 C424 1.360 . S
C429 C428 1.366 . S
C430 C404 1.490 . S
C430 C431 1.380 . S
C430 C435 1.386 . S
C431 H388 0.930 . S
C431 C430 1.380 . S
C431 C432 1.381 . S
C432 H389 0.929 . S
C432 C431 1.381 . S
C432 C433 1.371 . S
C433 C432 1.371 . S
C433 C434 1.380 . S
C434 H390 0.931 . S
C434 C433 1.380 . S
C434 C435 1.387 . S
C435 H391 0.930 . S
C435 C430 1.386 . S
C435 C434 1.387 . S
C436 C405 1.519 . S
C436 C437 1.377 . S
C436 C441 1.361 . S
C437 H392 0.929 . S
C437 C436 1.377 . S
C437 C438 1.386 . S
C438 H393 0.931 . S
C438 C437 1.386 . S
C438 C439 1.363 . S
C439 C438 1.363 . S
C439 C440 1.385 . S
C440 H394 0.930 . S
C440 C439 1.385 . S
C440 C441 1.396 . S
C441 H395 0.929 . S
C441 C436 1.361 . S
C441 C440 1.396 . S
C442 O396 1.300 . S
C442 O397 1.209 . S
C442 C415 1.486 . S
C443 O398 1.199 . S
C443 O399 1.297 . S
C443 C427 1.476 . S
H444 O470 0.856 . S
H445 O473 0.854 . S
H446 C481 0.928 1_556 S
H447 C482 0.899 1_556 S
H448 C484 0.930 . S
H449 C485 0.930 . S
H450 C487 0.931 . S
H451 C488 0.930 . S
H452 C490 0.930 . S
H453 C491 0.862 1_554 S
H454 C493 0.930 . S
H455 C494 0.931 . S
H456 C496 0.930 . S
H457 C497 0.929 . S
H458 C499 0.931 . S
H459 C500 0.930 . S
H460 C502 0.930 . S
H461 C503 0.932 . S
H462 C505 0.930 . S
H463 C506 0.929 . S
H464 C508 0.931 . S
H465 C509 0.930 . S
H466 C511 0.929 . S
H467 C512 0.931 . S
H468 C514 0.930 . S
H469 C515 0.929 . S
O470 H444 0.856 . S
O470 C516 1.300 . S
O471 C516 1.209 . S
O472 C517 1.199 . S
O473 H445 0.854 . S
O473 C517 1.297 . S
C474 C475 1.404 . S
C474 C479 1.397 . S
C474 C480 1.492 . S
C475 C474 1.404 . S
C475 C476 1.396 . S
C475 C486 1.492 1_554 S
C476 C475 1.396 . S
C476 C477 1.397 . S
C476 C492 1.509 . S
C477 C476 1.397 . S
C477 C478 1.412 . S
C477 C498 1.485 . S
C478 C477 1.412 . S
C478 C479 1.388 . S
C478 C504 1.490 . S
C479 C474 1.397 . S
C479 C478 1.388 . S
C479 C510 1.519 . S
C480 C474 1.492 . S
C480 C481 1.363 . S
C480 C485 1.390 . S
C481 H446 0.928 1_554 S
C481 C480 1.363 . S
C481 C482 1.385 . S
C482 H447 0.899 1_554 S
C482 C481 1.385 . S
C482 C483 1.403 . S
C483 C482 1.403 . S
C483 C484 1.395 . S
C484 H448 0.930 . S
C484 C483 1.395 . S
C484 C485 1.362 . S
C485 H449 0.930 . S
C485 C480 1.390 . S
C485 C484 1.362 . S
C486 C475 1.492 1_556 S
C486 C487 1.377 . S
C486 C491 1.406 . S
C487 H450 0.931 . S
C487 C486 1.377 . S
C487 C488 1.376 . S
C488 H451 0.930 . S
C488 C487 1.376 . S
C488 C489 1.376 . S
C489 C488 1.376 . S
C489 C490 1.378 . S
C489 C516 1.486 . S
C490 H452 0.930 . S
C490 C489 1.378 . S
C490 C491 1.435 . S
C491 H453 0.862 1_556 S
C491 C486 1.406 . S
C491 C490 1.435 . S
C492 C476 1.509 . S
C492 C493 1.391 1_554 S
C492 C497 1.386 . S
C493 H454 0.930 . S
C493 C492 1.391 1_556 S
C493 C494 1.375 . S
C494 H455 0.931 . S
C494 C493 1.375 . S
C494 C495 1.375 . S
C495 C494 1.375 . S
C495 C496 1.361 . S
C496 H456 0.930 . S
C496 C495 1.361 . S
C496 C497 1.399 1_556 S
C497 H457 0.929 . S
C497 C492 1.386 . S
C497 C496 1.399 1_554 S
C498 C477 1.485 . S
C498 C499 1.394 . S
C498 C503 1.360 . S
C499 H458 0.931 . S
C499 C498 1.394 . S
C499 C500 1.372 . S
C500 H459 0.930 . S
C500 C499 1.372 . S
C500 C501 1.397 . S
C501 C500 1.397 . S
C501 C502 1.390 . S
C501 C517 1.476 . S
C502 H460 0.930 . S
C502 C501 1.390 . S
C502 C503 1.366 . S
C503 H461 0.932 . S
C503 C498 1.360 . S
C503 C502 1.366 . S
C504 C478 1.490 . S
C504 C505 1.380 . S
C504 C509 1.386 . S
C505 H462 0.930 . S
C505 C504 1.380 . S
C505 C506 1.381 . S
C506 H463 0.929 . S
C506 C505 1.381 . S
C506 C507 1.371 . S
C507 C506 1.371 . S
C507 C508 1.380 . S
C508 H464 0.931 . S
C508 C507 1.380 . S
C508 C509 1.387 . S
C509 H465 0.930 . S
C509 C504 1.386 . S
C509 C508 1.387 . S
C510 C479 1.519 . S
C510 C511 1.377 . S
C510 C515 1.361 . S
C511 H466 0.929 . S
C511 C510 1.377 . S
C511 C512 1.386 . S
C512 H467 0.931 . S
C512 C511 1.386 . S
C512 C513 1.363 . S
C513 C512 1.363 . S
C513 C514 1.385 . S
C514 H468 0.930 . S
C514 C513 1.385 . S
C514 C515 1.396 . S
C515 H469 0.929 . S
C515 C510 1.361 . S
C515 C514 1.396 . S
C516 O470 1.300 . S
C516 O471 1.209 . S
C516 C489 1.486 . S
C517 O472 1.199 . S
C517 O473 1.297 . S
C517 C501 1.476 . S
H518 O544 0.856 . S
H519 O547 0.854 . S
H520 C555 0.930 . S
H521 C556 0.930 1_655 S
H522 C558 0.930 . S
H523 C559 0.930 . S
H524 C561 0.931 . S
H525 C562 0.930 . S
H526 C564 0.930 . S
H527 C565 0.929 . S
H528 C567 0.930 . S
H529 C568 0.931 . S
H530 C570 0.930 . S
H531 C571 0.929 . S
H532 C573 0.931 . S
H533 C574 0.930 . S
H534 C576 0.930 . S
H535 C577 0.932 . S
H536 C579 0.930 . S
H537 C580 0.929 . S
H538 C582 0.931 . S
H539 C583 0.930 . S
H540 C585 0.929 . S
H541 C586 0.931 . S
H542 C588 0.930 . S
H543 C589 0.929 . S
O544 H518 0.856 . S
O544 C590 1.300 . S
O545 C590 1.209 . S
O546 C591 1.199 . S
O547 H519 0.854 . S
O547 C591 1.297 . S
C548 C549 1.404 . S
C548 C553 1.397 . S
C548 C554 1.492 . S
C549 C548 1.404 . S
C549 C550 1.396 . S
C549 C560 1.492 . S
C550 C549 1.396 . S
C550 C551 1.397 . S
C550 C566 1.509 . S
C551 C550 1.397 . S
C551 C552 1.412 . S
C551 C572 1.485 . S
C552 C551 1.412 . S
C552 C553 1.388 . S
C552 C578 1.490 . S
C553 C548 1.397 . S
C553 C552 1.388 . S
C553 C584 1.519 . S
C554 C548 1.492 . S
C554 C555 1.363 . S
C554 C559 1.390 . S
C555 H520 0.930 . S
C555 C554 1.363 . S
C555 C556 1.372 . S
C556 H521 0.930 1_455 S
C556 C555 1.372 . S
C556 C557 1.383 1_455 S
C557 C556 1.383 1_655 S
C557 C558 1.395 . S
C558 H522 0.930 . S
C558 C557 1.395 . S
C558 C559 1.362 1_655 S
C559 H523 0.930 . S
C559 C554 1.390 . S
C559 C558 1.362 1_455 S
C560 C549 1.492 . S
C560 C561 1.377 . S
C560 C565 1.397 . S
C561 H524 0.931 . S
C561 C560 1.377 . S
C561 C562 1.376 . S
C562 H525 0.930 . S
C562 C561 1.376 . S
C562 C563 1.376 . S
C563 C562 1.376 . S
C563 C564 1.378 . S
C563 C590 1.486 . S
C564 H526 0.930 . S
C564 C563 1.378 . S
C564 C565 1.376 . S
C565 H527 0.929 . S
C565 C560 1.397 . S
C565 C564 1.376 . S
C566 C550 1.509 . S
C566 C567 1.391 . S
C566 C571 1.386 . S
C567 H528 0.930 . S
C567 C566 1.391 . S
C567 C568 1.375 . S
C568 H529 0.931 . S
C568 C567 1.375 . S
C568 C569 1.375 . S
C569 C568 1.375 . S
C569 C570 1.361 . S
C570 H530 0.930 . S
C570 C569 1.361 . S
C570 C571 1.399 . S
C571 H531 0.929 . S
C571 C566 1.386 . S
C571 C570 1.399 . S
C572 C551 1.485 . S
C572 C573 1.394 . S
C572 C577 1.360 . S
C573 H532 0.931 . S
C573 C572 1.394 . S
C573 C574 1.372 . S
C574 H533 0.930 . S
C574 C573 1.372 . S
C574 C575 1.397 . S
C575 C574 1.397 . S
C575 C576 1.390 . S
C575 C591 1.476 . S
C576 H534 0.930 . S
C576 C575 1.390 . S
C576 C577 1.366 . S
C577 H535 0.932 . S
C577 C572 1.360 . S
C577 C576 1.366 . S
C578 C552 1.490 . S
C578 C579 1.380 . S
C578 C583 1.386 . S
C579 H536 0.930 . S
C579 C578 1.380 . S
C579 C580 1.381 . S
C580 H537 0.929 . S
C580 C579 1.381 . S
C580 C581 1.371 . S
C581 C580 1.371 . S
C581 C582 1.380 . S
C582 H538 0.931 . S
C582 C581 1.380 . S
C582 C583 1.387 . S
C583 H539 0.930 . S
C583 C578 1.386 . S
C583 C582 1.387 . S
C584 C553 1.519 . S
C584 C585 1.377 . S
C584 C589 1.361 . S
C585 H540 0.929 . S
C585 C584 1.377 . S
C585 C586 1.386 . S
C586 H541 0.931 . S
C586 C585 1.386 . S
C586 C587 1.363 . S
C587 C586 1.363 . S
C587 C588 1.385 . S
C588 H542 0.930 . S
C588 C587 1.385 . S
C588 C589 1.396 . S
C589 H543 0.929 . S
C589 C584 1.361 . S
C589 C588 1.396 . S
C590 O544 1.300 . S
C590 O545 1.209 . S
C590 C563 1.486 . S
C591 O546 1.199 . S
C591 O547 1.297 . S
C591 C575 1.476 . S
C592 O619 1.312 . S
C592 O620 1.208 . S
C593 O614 1.331 . S
C593 O617 1.244 . S
C594 O616 1.264 . S
C594 O618 1.273 . S
Mg595 O597 1.936 . S
Mg595 O604 2.081 . S
Mg595 O606 2.023 . S
Mg595 O610 2.031 . S
Mg595 O619 2.291 . S
Mg596 O597 1.963 . S
Mg596 O607 1.942 . S
Mg596 O608 1.955 . S
Mg596 O615 1.986 . S
O597 Mg595 1.936 . S
O597 Mg596 1.963 . S
O597 Mg598 1.915 . S
Mg598 O597 1.915 . S
Mg598 O599 1.915 . S
Mg598 O603 2.013 . S
Mg598 O609 2.114 . S
Mg598 O613 2.013 . S
Mg598 O619 2.114 . S
O599 Mg598 1.915 . S
O599 Mg600 1.936 . S
O599 Mg601 1.963 1_455 S
Mg600 O599 1.936 . S
Mg600 O609 2.291 . S
Mg600 O614 2.081 1_455 S
Mg600 O616 2.023 1_455 S
Mg600 O620 2.031 . S
Mg601 O599 1.963 1_655 S
Mg601 O605 1.986 . S
Mg601 O617 1.942 . S
Mg601 O618 1.955 . S
C602 O613 1.191 . S
C602 O615 1.307 . S
O603 Mg598 2.013 . S
O603 C622 1.199 . S
O604 Mg595 2.081 . S
O604 C612 1.331 . S
O605 Mg601 1.986 . S
O605 C622 1.299 1_655 S
O606 Mg595 2.023 . S
O606 C621 1.264 . S
O607 Mg596 1.942 . S
O607 C612 1.244 . S
O608 Mg596 1.955 . S
O608 C621 1.273 . S
O609 Mg598 2.114 . S
O609 Mg600 2.291 . S
O609 C611 1.312 . S
O610 Mg595 2.031 . S
O610 C611 1.208 . S
C611 O609 1.312 . S
C611 O610 1.208 . S
C612 O604 1.331 . S
C612 O607 1.244 . S
O613 Mg598 2.013 . S
O613 C602 1.191 . S
O614 C593 1.331 . S
O614 Mg600 2.081 1_655 S
O615 Mg596 1.986 . S
O615 C602 1.307 . S
O616 C594 1.264 . S
O616 Mg600 2.023 1_655 S
O617 C593 1.244 . S
O617 Mg601 1.942 . S
O618 C594 1.273 . S
O618 Mg601 1.955 . S
O619 C592 1.312 . S
O619 Mg595 2.291 . S
O619 Mg598 2.114 . S
O620 C592 1.208 . S
O620 Mg600 2.031 . S
C621 O606 1.264 . S
C621 O608 1.273 . S
C622 O603 1.199 . S
C622 O605 1.299 1_455 S
C623 O650 1.312 . S
C623 O651 1.208 . S
C624 O645 1.331 . S
C624 O648 1.244 . S
C625 O647 1.264 . S
C625 O649 1.273 . S
Mg626 O628 1.936 . S
Mg626 O635 2.081 . S
Mg626 O637 2.023 . S
Mg626 O641 2.031 . S
Mg626 O650 2.291 . S
Mg627 O628 1.963 . S
Mg627 O638 1.942 . S
Mg627 O639 1.955 . S
Mg627 O646 1.986 . S
O628 Mg626 1.936 . S
O628 Mg627 1.963 . S
O628 Mg629 1.915 . S
Mg629 O628 1.915 . S
Mg629 O630 1.915 . S
Mg629 O634 2.013 . S
Mg629 O640 2.114 . S
Mg629 O644 2.013 . S
Mg629 O650 2.114 . S
O630 Mg629 1.915 . S
O630 Mg631 1.936 . S
O630 Mg632 1.963 . S
Mg631 O630 1.936 . S
Mg631 O640 2.291 . S
Mg631 O645 2.081 . S
Mg631 O647 2.023 . S
Mg631 O651 2.031 . S
Mg632 O630 1.963 . S
Mg632 O636 1.986 . S
Mg632 O648 1.942 . S
Mg632 O649 1.955 . S
C633 O644 1.191 . S
C633 O646 1.307 . S
O634 Mg629 2.013 . S
O634 C653 1.191 . S
O635 Mg626 2.081 . S
O635 C643 1.331 . S
O636 Mg632 1.986 . S
O636 C653 1.307 . S
O637 Mg626 2.023 . S
O637 C652 1.264 . S
O638 Mg627 1.942 . S
O638 C643 1.244 . S
O639 Mg627 1.955 . S
O639 C652 1.273 . S
O640 Mg629 2.114 . S
O640 Mg631 2.291 . S
O640 C642 1.312 . S
O641 Mg626 2.031 . S
O641 C642 1.208 . S
C642 O640 1.312 . S
C642 O641 1.208 . S
C643 O635 1.331 . S
C643 O638 1.244 . S
O644 Mg629 2.013 . S
O644 C633 1.191 . S
O645 C624 1.331 . S
O645 Mg631 2.081 . S
O646 Mg627 1.986 . S
O646 C633 1.307 . S
O647 C625 1.264 . S
O647 Mg631 2.023 . S
O648 C624 1.244 . S
O648 Mg632 1.942 . S
O649 C625 1.273 . S
O649 Mg632 1.955 . S
O650 C623 1.312 . S
O650 Mg626 2.291 . S
O650 Mg629 2.114 . S
O651 C623 1.208 . S
O651 Mg631 2.031 . S
C652 O637 1.264 . S
C652 O639 1.273 . S
C653 O634 1.191 . S
C653 O636 1.307 . S
C654 O681 1.312 . S
C654 O682 1.208 . S
C655 O676 1.331 . S
C655 O679 1.244 . S
C656 O678 1.264 . S
C656 O680 1.273 . S
Mg657 O659 1.936 . S
Mg657 O666 2.081 . S
Mg657 O668 2.023 . S
Mg657 O672 2.031 . S
Mg657 O681 2.291 . S
Mg658 O659 1.963 . S
Mg658 O669 1.942 . S
Mg658 O670 1.955 . S
Mg658 O677 1.986 . S
O659 Mg657 1.936 . S
O659 Mg658 1.963 . S
O659 Mg660 1.915 . S
Mg660 O659 1.915 . S
Mg660 O661 1.915 . S
Mg660 O665 2.013 . S
Mg660 O671 2.114 . S
Mg660 O675 2.013 . S
Mg660 O681 2.114 . S
O661 Mg660 1.915 . S
O661 Mg662 1.936 . S
O661 Mg663 1.963 . S
Mg662 O661 1.936 . S
Mg662 O671 2.291 . S
Mg662 O676 2.081 . S
Mg662 O678 2.023 . S
Mg662 O682 2.031 . S
Mg663 O661 1.963 . S
Mg663 O667 1.986 . S
Mg663 O679 1.942 . S
Mg663 O680 1.955 . S
C664 O675 1.191 . S
C664 O677 1.307 . S
O665 Mg660 2.013 . S
O665 C684 1.191 . S
O666 Mg657 2.081 . S
O666 C674 1.331 . S
O667 Mg663 1.986 . S
O667 C684 1.307 . S
O668 Mg657 2.023 . S
O668 C683 1.264 . S
O669 Mg658 1.942 . S
O669 C674 1.244 . S
O670 Mg658 1.955 . S
O670 C683 1.273 . S
O671 Mg660 2.114 . S
O671 Mg662 2.291 . S
O671 C673 1.312 . S
O672 Mg657 2.031 . S
O672 C673 1.208 . S
C673 O671 1.312 . S
C673 O672 1.208 . S
C674 O666 1.331 . S
C674 O669 1.244 . S
O675 Mg660 2.013 . S
O675 C664 1.191 . S
O676 C655 1.331 . S
O676 Mg662 2.081 . S
O677 Mg658 1.986 . S
O677 C664 1.307 . S
O678 C656 1.264 . S
O678 Mg662 2.023 . S
O679 C655 1.244 . S
O679 Mg663 1.942 . S
O680 C656 1.273 . S
O680 Mg663 1.955 . S
O681 C654 1.312 . S
O681 Mg657 2.291 . S
O681 Mg660 2.114 . S
O682 C654 1.208 . S
O682 Mg662 2.031 . S
C683 O668 1.264 . S
C683 O670 1.273 . S
C684 O665 1.191 . S
C684 O667 1.307 . S
C685 O712 1.312 . S
C685 O713 1.208 . S
C686 O707 1.331 . S
C686 O710 1.244 . S
C687 O709 1.264 . S
C687 O711 1.273 . S
Mg688 O690 1.936 . S
Mg688 O697 2.081 1_455 S
Mg688 O699 2.023 1_455 S
Mg688 O703 2.031 . S
Mg688 O712 2.291 . S
Mg689 O690 1.963 1_655 S
Mg689 O700 1.942 . S
Mg689 O701 1.955 . S
Mg689 O708 1.986 . S
O690 Mg688 1.936 . S
O690 Mg689 1.963 1_455 S
O690 Mg691 1.915 . S
Mg691 O690 1.915 . S
Mg691 O692 1.915 . S
Mg691 O696 2.013 . S
Mg691 O702 2.114 . S
Mg691 O706 2.013 . S
Mg691 O712 2.114 . S
O692 Mg691 1.915 . S
O692 Mg693 1.936 . S
O692 Mg694 1.963 . S
Mg693 O692 1.936 . S
Mg693 O702 2.291 . S
Mg693 O707 2.081 . S
Mg693 O709 2.023 . S
Mg693 O713 2.031 . S
Mg694 O692 1.963 . S
Mg694 O698 1.986 . S
Mg694 O710 1.942 . S
Mg694 O711 1.955 . S
C695 O706 1.191 1_655 S
C695 O708 1.307 . S
O696 Mg691 2.013 . S
O696 C715 1.191 . S
O697 Mg688 2.081 1_655 S
O697 C705 1.331 . S
O698 Mg694 1.986 . S
O698 C715 1.307 . S
O699 Mg688 2.023 1_655 S
O699 C714 1.264 . S
O700 Mg689 1.942 . S
O700 C705 1.244 . S
O701 Mg689 1.955 . S
O701 C714 1.273 . S
O702 Mg691 2.114 . S
O702 Mg693 2.291 . S
O702 C704 1.312 . S
O703 Mg688 2.031 . S
O703 C704 1.208 . S
C704 O702 1.312 . S
C704 O703 1.208 . S
C705 O697 1.331 . S
C705 O700 1.244 . S
O706 Mg691 2.013 . S
O706 C695 1.191 1_455 S
O707 C686 1.331 . S
O707 Mg693 2.081 . S
O708 Mg689 1.986 . S
O708 C695 1.307 . S
O709 C687 1.264 . S
O709 Mg693 2.023 . S
O710 C686 1.244 . S
O710 Mg694 1.942 . S
O711 C687 1.273 . S
O711 Mg694 1.955 . S
O712 C685 1.312 . S
O712 Mg688 2.291 . S
O712 Mg691 2.114 . S
O713 C685 1.208 . S
O713 Mg693 2.031 . S
C714 O699 1.264 . S
C714 O701 1.273 . S
C715 O696 1.191 . S
C715 O698 1.307 . S
H716 C722 0.930 . S
H717 C726 0.930 . S
H718 C731 0.929 . S
H719 C729 0.929 . S
H720 C724 0.929 . S
H721 C730 0.929 . S
C722 H716 0.930 . S
C722 C723 1.367 . S
C722 C730 1.378 . S
C723 C722 1.367 . S
C723 C731 1.433 . S
C724 H720 0.929 . S
C724 C726 1.378 . S
C724 C728 1.350 . S
C725 C728 1.463 . S
C725 C730 1.350 . S
C725 N733 1.427 . S
C726 H717 0.930 . S
C726 C724 1.378 . S
C726 C727 1.367 . S
C727 C726 1.367 . S
C727 C729 1.433 . S
C728 C724 1.350 . S
C728 C725 1.463 . S
C728 N732 1.427 . S
C729 H719 0.929 . S
C729 C727 1.433 . S
C729 N732 1.384 . S
C730 H721 0.929 . S
C730 C722 1.378 . S
C730 C725 1.350 . S
C731 H718 0.929 . S
C731 C723 1.433 . S
C731 N733 1.384 . S
N732 C728 1.427 . S
N732 C729 1.384 . S
N733 C725 1.427 . S
N733 C731 1.384 . S
H734 C740 0.930 . S
H735 C744 0.930 . S
H736 C749 0.929 . S
H737 C747 0.929 . S
H738 C742 0.929 . S
H739 C748 0.929 . S
C740 H734 0.930 . S
C740 C741 1.367 . S
C740 C748 1.378 . S
C741 C740 1.367 . S
C741 C749 1.433 . S
C742 H738 0.929 . S
C742 C744 1.378 . S
C742 C746 1.350 . S
C743 C746 1.463 . S
C743 C748 1.350 1_545 S
C743 N751 1.427 . S
C744 H735 0.930 . S
C744 C742 1.378 . S
C744 C745 1.367 . S
C745 C744 1.367 . S
C745 C747 1.433 . S
C746 C742 1.350 . S
C746 C743 1.463 . S
C746 N750 1.427 . S
C747 H737 0.929 . S
C747 C745 1.433 . S
C747 N750 1.384 . S
C748 H739 0.929 . S
C748 C740 1.378 . S
C748 C743 1.350 1_565 S
C749 H736 0.929 . S
C749 C741 1.433 . S
C749 N751 1.384 1_565 S
N750 C746 1.427 . S
N750 C747 1.384 . S
N751 C743 1.427 . S
N751 C749 1.384 1_545 S
H752 C758 0.930 1_554 S
H753 C762 0.930 . S
H754 C767 0.929 . S
H755 C765 0.929 . S
H756 C760 0.929 . S
H757 C766 0.929 . S
C758 H752 0.930 1_556 S
C758 C759 1.367 . S
C758 C766 1.378 . S
C759 C758 1.367 . S
C759 C767 1.433 . S
C760 H756 0.929 . S
C760 C762 1.378 . S
C760 C764 1.350 . S
C761 C764 1.463 . S
C761 C766 1.350 . S
C761 N769 1.427 . S
C762 H753 0.930 . S
C762 C760 1.378 . S
C762 C763 1.367 . S
C763 C762 1.367 . S
C763 C765 1.433 . S
C764 C760 1.350 . S
C764 C761 1.463 . S
C764 N768 1.427 . S
C765 H755 0.929 . S
C765 C763 1.433 . S
C765 N768 1.384 . S
C766 H757 0.929 . S
C766 C758 1.378 . S
C766 C761 1.350 . S
C767 H754 0.929 . S
C767 C759 1.433 . S
C767 N769 1.384 . S
N768 C764 1.427 . S
N768 C765 1.384 . S
N769 C761 1.427 . S
N769 C767 1.384 . S
H770 C776 0.930 . S
H771 C780 0.930 . S
H772 C785 0.929 . S
H773 C783 0.929 1_545 S
H774 C778 0.929 . S
H775 C784 0.929 . S
C776 H770 0.930 . S
C776 C777 1.367 . S
C776 C784 1.378 . S
C777 C776 1.367 . S
C777 C785 1.433 . S
C778 H774 0.929 . S
C778 C780 1.378 . S
C778 C782 1.350 1_565 S
C779 C782 1.463 . S
C779 C784 1.350 . S
C779 N787 1.427 . S
C780 H771 0.930 . S
C780 C778 1.378 . S
C780 C781 1.367 . S
C781 C780 1.367 . S
C781 C783 1.433 . S
C782 C778 1.350 1_545 S
C782 C779 1.463 . S
C782 N786 1.427 . S
C783 H773 0.929 1_565 S
C783 C781 1.433 . S
C783 N786 1.384 1_565 S
C784 H775 0.929 . S
C784 C776 1.378 . S
C784 C779 1.350 . S
C785 H772 0.929 . S
C785 C777 1.433 . S
C785 N787 1.384 . S
N786 C782 1.427 . S
N786 C783 1.384 1_545 S
N787 C779 1.427 . S
N787 C785 1.384 . S
H788 C794 0.930 . S
H789 C798 0.930 . S
H790 C803 0.929 . S
H791 C801 0.929 . S
H792 C796 0.929 . S
H793 C802 0.929 . S
C794 H788 0.930 . S
C794 C795 1.367 . S
C794 C802 1.378 . S
C795 C794 1.367 . S
C795 C803 1.433 . S
C796 H792 0.929 . S
C796 C798 1.378 . S
C796 C800 1.350 . S
C797 C800 1.463 . S
C797 C802 1.350 . S
C797 N805 1.427 . S
C798 H789 0.930 . S
C798 C796 1.378 . S
C798 C799 1.367 . S
C799 C798 1.367 . S
C799 C801 1.433 . S
C800 C796 1.350 . S
C800 C797 1.463 . S
C800 N804 1.427 . S
C801 H791 0.929 . S
C801 C799 1.433 . S
C801 N804 1.384 . S
C802 H793 0.929 . S
C802 C794 1.378 . S
C802 C797 1.350 . S
C803 H790 0.929 . S
C803 C795 1.433 . S
C803 N805 1.384 . S
N804 C800 1.427 . S
N804 C801 1.384 . S
N805 C797 1.427 . S
N805 C803 1.384 . S
H806 C812 0.930 . S
H807 C816 0.930 . S
H808 C821 0.929 . S
H809 C819 0.929 . S
H810 C814 0.929 . S
H811 C820 0.929 . S
C812 H806 0.930 . S
C812 C813 1.367 . S
C812 C820 1.378 . S
C813 C812 1.367 . S
C813 C821 1.433 . S
C814 H810 0.929 . S
C814 C816 1.378 . S
C814 C818 1.350 . S
C815 C818 1.463 1_565 S
C815 C820 1.350 . S
C815 N823 1.427 . S
C816 H807 0.930 . S
C816 C814 1.378 . S
C816 C817 1.367 . S
C817 C816 1.367 . S
C817 C819 1.433 . S
C818 C814 1.350 . S
C818 C815 1.463 1_545 S
C818 N822 1.427 . S
C819 H809 0.929 . S
C819 C817 1.433 . S
C819 N822 1.384 . S
C820 H811 0.929 . S
C820 C812 1.378 . S
C820 C815 1.350 . S
C821 H808 0.929 . S
C821 C813 1.433 . S
C821 N823 1.384 . S
N822 C818 1.427 . S
N822 C819 1.384 . S
N823 C815 1.427 . S
N823 C821 1.384 . S
H824 C830 0.930 . S
H825 C834 0.930 . S
H826 C839 0.929 . S
H827 C837 0.929 . S
H828 C832 0.929 . S
H829 C838 0.929 . S
C830 H824 0.930 . S
C830 C831 1.367 . S
C830 C838 1.378 . S
C831 C830 1.367 . S
C831 C839 1.433 1_565 S
C832 H828 0.929 . S
C832 C834 1.378 . S
C832 C836 1.350 . S
C833 C836 1.463 . S
C833 C838 1.350 . S
C833 N841 1.427 . S
C834 H825 0.930 . S
C834 C832 1.378 . S
C834 C835 1.367 . S
C835 C834 1.367 . S
C835 C837 1.433 . S
C836 C832 1.350 . S
C836 C833 1.463 . S
C836 N840 1.427 . S
C837 H827 0.929 . S
C837 C835 1.433 . S
C837 N840 1.384 . S
C838 H829 0.929 . S
C838 C830 1.378 . S
C838 C833 1.350 . S
C839 H826 0.929 . S
C839 C831 1.433 1_545 S
C839 N841 1.384 1_545 S
N840 C836 1.427 . S
N840 C837 1.384 . S
N841 C833 1.427 . S
N841 C839 1.384 1_565 S
H842 C848 0.930 . S
H843 C852 0.930 . S
H844 C857 0.929 . S
H845 C855 0.929 . S
H846 C850 0.929 . S
H847 C856 0.929 . S
C848 H842 0.930 . S
C848 C849 1.367 . S
C848 C856 1.378 . S
C849 C848 1.367 . S
C849 C857 1.433 . S
C850 H846 0.929 . S
C850 C852 1.378 1_545 S
C850 C854 1.350 . S
C851 C854 1.463 . S
C851 C856 1.350 . S
C851 N859 1.427 . S
C852 H843 0.930 . S
C852 C850 1.378 1_565 S
C852 C853 1.367 . S
C853 C852 1.367 . S
C853 C855 1.433 . S
C854 C850 1.350 . S
C854 C851 1.463 . S
C854 N858 1.427 1_545 S
C855 H845 0.929 . S
C855 C853 1.433 . S
C855 N858 1.384 . S
C856 H847 0.929 . S
C856 C848 1.378 . S
C856 C851 1.350 . S
C857 H844 0.929 . S
C857 C849 1.433 . S
C857 N859 1.384 . S
N858 C854 1.427 1_565 S
N858 C855 1.384 . S
N859 C851 1.427 . S
N859 C857 1.384 . S
H860 C866 0.930 . S
H861 C870 0.930 . S
H862 C875 0.929 . S
H863 C873 0.929 . S
H864 C868 0.929 . S
H865 C874 0.929 . S
C866 H860 0.930 . S
C866 C867 1.367 . S
C866 C874 1.378 . S
C867 C866 1.367 . S
C867 C875 1.433 . S
C868 H864 0.929 . S
C868 C870 1.378 . S
C868 C872 1.350 . S
C869 C872 1.463 . S
C869 C874 1.350 . S
C869 N877 1.427 . S
C870 H861 0.930 . S
C870 C868 1.378 . S
C870 C871 1.367 . S
C871 C870 1.367 . S
C871 C873 1.433 . S
C872 C868 1.350 . S
C872 C869 1.463 . S
C872 N876 1.427 . S
C873 H863 0.929 . S
C873 C871 1.433 . S
C873 N876 1.384 . S
C874 H865 0.929 . S
C874 C866 1.378 . S
C874 C869 1.350 . S
C875 H862 0.929 . S
C875 C867 1.433 . S
C875 N877 1.384 . S
N876 C872 1.427 . S
N876 C873 1.384 . S
N877 C869 1.427 . S
N877 C875 1.384 . S
H878 C884 0.930 . S
H879 C888 0.930 . S
H880 C893 0.929 . S
H881 C891 0.929 . S
H882 C886 0.929 . S
H883 C892 0.929 . S
C884 H878 0.930 . S
C884 C885 1.367 1_565 S
C884 C892 1.378 . S
C885 C884 1.367 1_545 S
C885 C893 1.433 . S
C886 H882 0.929 . S
C886 C888 1.378 . S
C886 C890 1.350 . S
C887 C890 1.463 . S
C887 C892 1.350 . S
C887 N895 1.427 1_565 S
C888 H879 0.930 . S
C888 C886 1.378 . S
C888 C889 1.367 . S
C889 C888 1.367 . S
C889 C891 1.433 . S
C890 C886 1.350 . S
C890 C887 1.463 . S
C890 N894 1.427 . S
C891 H881 0.929 . S
C891 C889 1.433 . S
C891 N894 1.384 . S
C892 H883 0.929 . S
C892 C884 1.378 . S
C892 C887 1.350 . S
C893 H880 0.929 . S
C893 C885 1.433 . S
C893 N895 1.384 . S
N894 C890 1.427 . S
N894 C891 1.384 . S
N895 C887 1.427 1_545 S
N895 C893 1.384 . S
H896 C902 0.930 . S
H897 C906 0.930 . S
H898 C911 0.929 . S
H899 C909 0.929 . S
H900 C904 0.929 . S
H901 C910 0.929 . S
C902 H896 0.930 . S
C902 C903 1.367 . S
C902 C910 1.378 . S
C903 C902 1.367 . S
C903 C911 1.433 1_565 S
C904 H900 0.929 . S
C904 C906 1.378 . S
C904 C908 1.350 . S
C905 C908 1.463 . S
C905 C910 1.350 . S
C905 N913 1.427 . S
C906 H897 0.930 . S
C906 C904 1.378 . S
C906 C907 1.367 1_655 S
C907 C906 1.367 1_455 S
C907 C909 1.433 . S
C908 C904 1.350 . S
C908 C905 1.463 . S
C908 N912 1.427 . S
C909 H899 0.929 . S
C909 C907 1.433 . S
C909 N912 1.384 1_455 S
C910 H901 0.929 . S
C910 C902 1.378 . S
C910 C905 1.350 . S
C911 H898 0.929 . S
C911 C903 1.433 1_545 S
C911 N913 1.384 1_545 S
N912 C908 1.427 . S
N912 C909 1.384 1_655 S
N913 C905 1.427 . S
N913 C911 1.384 1_565 S
H914 C920 0.930 . S
H915 C924 0.930 . S
H916 C929 0.929 1_565 S
H917 C927 0.929 1_455 S
H918 C922 0.929 . S
H919 C928 0.929 . S
C920 H914 0.930 . S
C920 C921 1.367 . S
C920 C928 1.378 . S
C921 C920 1.367 . S
C921 C929 1.433 . S
C922 H918 0.929 . S
C922 C924 1.378 . S
C922 C926 1.350 . S
C923 C926 1.463 . S
C923 C928 1.350 . S
C923 N931 1.427 . S
C924 H915 0.930 . S
C924 C922 1.378 . S
C924 C925 1.367 . S
C925 C924 1.367 . S
C925 C927 1.433 . S
C926 C922 1.350 . S
C926 C923 1.463 . S
C926 N930 1.427 . S
C927 H917 0.929 1_655 S
C927 C925 1.433 . S
C927 N930 1.384 . S
C928 H919 0.929 . S
C928 C920 1.378 . S
C928 C923 1.350 . S
C929 H916 0.929 1_545 S
C929 C921 1.433 . S
C929 N931 1.384 . S
N930 C926 1.427 . S
N930 C927 1.384 . S
N931 C923 1.427 . S
N931 C929 1.384 . S
H932 C938 0.930 . S
H933 C942 0.930 . S
H934 C947 0.929 . S
H935 C945 0.929 . S
H936 C940 0.929 . S
H937 C946 0.929 . S
C938 H932 0.930 . S
C938 C939 1.367 . S
C938 C946 1.378 . S
C939 C938 1.367 . S
C939 C947 1.433 . S
C940 H936 0.929 . S
C940 C942 1.378 . S
C940 C944 1.350 . S
C941 C944 1.463 . S
C941 C946 1.350 . S
C941 N949 1.427 . S
C942 H933 0.930 . S
C942 C940 1.378 . S
C942 C943 1.367 . S
C943 C942 1.367 . S
C943 C945 1.433 . S
C944 C940 1.350 . S
C944 C941 1.463 . S
C944 N948 1.427 . S
C945 H935 0.929 . S
C945 C943 1.433 . S
C945 N948 1.384 . S
C946 H937 0.929 . S
C946 C938 1.378 . S
C946 C941 1.350 . S
C947 H934 0.929 . S
C947 C939 1.433 . S
C947 N949 1.384 . S
N948 C944 1.427 . S
N948 C945 1.384 . S
N949 C941 1.427 . S
N949 C947 1.384 . S
H950 C956 0.930 . S
H951 C960 0.930 . S
H952 C965 0.929 . S
H953 C963 0.929 . S
H954 C958 0.929 . S
H955 C964 0.929 1_545 S
C956 H950 0.930 . S
C956 C957 1.367 1_545 S
C956 C964 1.378 1_545 S
C957 C956 1.367 1_565 S
C957 C965 1.433 . S
C958 H954 0.929 . S
C958 C960 1.378 . S
C958 C962 1.350 . S
C959 C962 1.463 . S
C959 C964 1.350 . S
C959 N967 1.427 . S
C960 H951 0.930 . S
C960 C958 1.378 . S
C960 C961 1.367 . S
C961 C960 1.367 . S
C961 C963 1.433 1_655 S
C962 C958 1.350 . S
C962 C959 1.463 . S
C962 N966 1.427 . S
C963 H953 0.929 . S
C963 C961 1.433 1_455 S
C963 N966 1.384 1_455 S
C964 H955 0.929 1_565 S
C964 C956 1.378 1_565 S
C964 C959 1.350 . S
C965 H952 0.929 . S
C965 C957 1.433 . S
C965 N967 1.384 . S
N966 C962 1.427 . S
N966 C963 1.384 1_655 S
N967 C959 1.427 . S
N967 C965 1.384 . S
H968 C974 0.930 . S
H969 C978 0.930 . S
H970 C983 0.929 . S
H971 C981 0.929 . S
H972 C976 0.929 . S
H973 C982 0.929 . S
C974 H968 0.930 . S
C974 C975 1.367 . S
C974 C982 1.378 . S
C975 C974 1.367 . S
C975 C983 1.433 . S
C976 H972 0.929 . S
C976 C978 1.378 . S
C976 C980 1.350 . S
C977 C980 1.463 . S
C977 C982 1.350 . S
C977 N985 1.427 . S
C978 H969 0.930 . S
C978 C976 1.378 . S
C978 C979 1.367 . S
C979 C978 1.367 . S
C979 C981 1.433 . S
C980 C976 1.350 . S
C980 C977 1.463 . S
C980 N984 1.427 . S
C981 H971 0.929 . S
C981 C979 1.433 . S
C981 N984 1.384 . S
C982 H973 0.929 . S
C982 C974 1.378 . S
C982 C977 1.350 . S
C983 H970 0.929 . S
C983 C975 1.433 . S
C983 N985 1.384 . S
N984 C980 1.427 . S
N984 C981 1.384 . S
N985 C977 1.427 . S
N985 C983 1.384 . S
H986 C992 0.930 . S
H987 C996 0.930 . S
H988 C1001 0.929 . S
H989 C999 0.929 . S
H990 C994 0.929 . S
H991 C1000 0.929 . S
C992 H986 0.930 . S
C992 C993 1.367 . S
C992 C1000 1.378 . S
C993 C992 1.367 . S
C993 C1001 1.433 . S
C994 H990 0.929 . S
C994 C996 1.378 . S
C994 C998 1.350 . S
C995 C998 1.463 . S
C995 C1000 1.350 . S
C995 N1003 1.427 . S
C996 H987 0.930 . S
C996 C994 1.378 . S
C996 C997 1.367 . S
C997 C996 1.367 . S
C997 C999 1.433 . S
C998 C994 1.350 . S
C998 C995 1.463 . S
C998 N1002 1.427 . S
C999 H989 0.929 . S
C999 C997 1.433 . S
C999 N1002 1.384 . S
C1000 H991 0.929 . S
C1000 C992 1.378 . S
C1000 C995 1.350 . S
C1001 H988 0.929 . S
C1001 C993 1.433 . S
C1001 N1003 1.384 . S
N1002 C998 1.427 . S
N1002 C999 1.384 . S
N1003 C995 1.427 . S
N1003 C1001 1.384 . S
H1004 C1010 0.930 . S
H1005 C1014 0.930 . S
H1006 C1019 0.929 . S
H1007 C1017 0.929 . S
H1008 C1012 0.929 . S
H1009 C1018 0.929 . S
C1010 H1004 0.930 . S
C1010 C1011 1.367 . S
C1010 C1018 1.378 . S
C1011 C1010 1.367 . S
C1011 C1019 1.433 . S
C1012 H1008 0.929 . S
C1012 C1014 1.378 . S
C1012 C1016 1.350 . S
C1013 C1016 1.463 . S
C1013 C1018 1.350 . S
C1013 N1021 1.427 . S
C1014 H1005 0.930 . S
C1014 C1012 1.378 . S
C1014 C1015 1.367 . S
C1015 C1014 1.367 . S
C1015 C1017 1.433 . S
C1016 C1012 1.350 . S
C1016 C1013 1.463 . S
C1016 N1020 1.427 . S
C1017 H1007 0.929 . S
C1017 C1015 1.433 . S
C1017 N1020 1.384 . S
C1018 H1009 0.929 . S
C1018 C1010 1.378 . S
C1018 C1013 1.350 . S
C1019 H1006 0.929 . S
C1019 C1011 1.433 . S
C1019 N1021 1.384 . S
N1020 C1016 1.427 . S
N1020 C1017 1.384 . S
N1021 C1013 1.427 . S
N1021 C1019 1.384 . S
H1022 C1028 0.930 . S
H1023 C1032 0.930 . S
H1024 C1037 0.929 . S
H1025 C1035 0.929 . S
H1026 C1030 0.929 . S
H1027 C1036 0.929 . S
C1028 H1022 0.930 . S
C1028 C1029 1.367 . S
C1028 C1036 1.378 . S
C1029 C1028 1.367 . S
C1029 C1037 1.433 . S
C1030 H1026 0.929 . S
C1030 C1032 1.378 . S
C1030 C1034 1.350 . S
C1031 C1034 1.463 . S
C1031 C1036 1.350 . S
C1031 N1039 1.427 . S
C1032 H1023 0.930 . S
C1032 C1030 1.378 . S
C1032 C1033 1.367 . S
C1033 C1032 1.367 . S
C1033 C1035 1.433 . S
C1034 C1030 1.350 . S
C1034 C1031 1.463 . S
C1034 N1038 1.427 . S
C1035 H1025 0.929 . S
C1035 C1033 1.433 . S
C1035 N1038 1.384 . S
C1036 H1027 0.929 . S
C1036 C1028 1.378 . S
C1036 C1031 1.350 . S
C1037 H1024 0.929 . S
C1037 C1029 1.433 . S
C1037 N1039 1.384 . S
N1038 C1034 1.427 . S
N1038 C1035 1.384 . S
N1039 C1031 1.427 . S
N1039 C1037 1.384 . S
H1040 C1046 0.930 . S
H1041 C1050 0.930 . S
H1042 C1055 0.929 . S
H1043 C1053 0.929 . S
H1044 C1048 0.929 . S
H1045 C1054 0.929 . S
C1046 H1040 0.930 . S
C1046 C1047 1.367 . S
C1046 C1054 1.378 . S
C1047 C1046 1.367 . S
C1047 C1055 1.433 . S
C1048 H1044 0.929 . S
C1048 C1050 1.378 . S
C1048 C1052 1.350 . S
C1049 C1052 1.463 . S
C1049 C1054 1.350 . S
C1049 N1057 1.427 . S
C1050 H1041 0.930 . S
C1050 C1048 1.378 . S
C1050 C1051 1.367 . S
C1051 C1050 1.367 . S
C1051 C1053 1.433 . S
C1052 C1048 1.350 . S
C1052 C1049 1.463 . S
C1052 N1056 1.427 . S
C1053 H1043 0.929 . S
C1053 C1051 1.433 . S
C1053 N1056 1.384 . S
C1054 H1045 0.929 . S
C1054 C1046 1.378 . S
C1054 C1049 1.350 . S
C1055 H1042 0.929 . S
C1055 C1047 1.433 . S
C1055 N1057 1.384 . S
N1056 C1052 1.427 . S
N1056 C1053 1.384 . S
N1057 C1049 1.427 . S
N1057 C1055 1.384 . S
H1058 C1064 0.930 . S
H1059 C1068 0.930 . S
H1060 C1073 0.929 . S
H1061 C1071 0.929 . S
H1062 C1066 0.929 . S
H1063 C1072 0.929 . S
C1064 H1058 0.930 . S
C1064 C1065 1.367 . S
C1064 C1072 1.378 . S
C1065 C1064 1.367 . S
C1065 C1073 1.433 . S
C1066 H1062 0.929 . S
C1066 C1068 1.378 . S
C1066 C1070 1.350 . S
C1067 C1070 1.463 . S
C1067 C1072 1.350 . S
C1067 N1075 1.427 . S
C1068 H1059 0.930 . S
C1068 C1066 1.378 . S
C1068 C1069 1.367 . S
C1069 C1068 1.367 . S
C1069 C1071 1.433 . S
C1070 C1066 1.350 . S
C1070 C1067 1.463 . S
C1070 N1074 1.427 . S
C1071 H1061 0.929 . S
C1071 C1069 1.433 . S
C1071 N1074 1.384 . S
C1072 H1063 0.929 . S
C1072 C1064 1.378 . S
C1072 C1067 1.350 . S
C1073 H1060 0.929 . S
C1073 C1065 1.433 . S
C1073 N1075 1.384 . S
N1074 C1070 1.427 . S
N1074 C1071 1.384 . S
N1075 C1067 1.427 . S
N1075 C1073 1.384 . S
H1076 C1082 0.930 . S
H1077 C1086 0.930 . S
H1078 C1091 0.929 . S
H1079 C1089 0.929 . S
H1080 C1084 0.929 . S
H1081 C1090 0.929 . S
C1082 H1076 0.930 . S
C1082 C1083 1.367 . S
C1082 C1090 1.378 . S
C1083 C1082 1.367 . S
C1083 C1091 1.433 . S
C1084 H1080 0.929 . S
C1084 C1086 1.378 . S
C1084 C1088 1.350 . S
C1085 C1088 1.463 . S
C1085 C1090 1.350 . S
C1085 N1093 1.427 . S
C1086 H1077 0.930 . S
C1086 C1084 1.378 . S
C1086 C1087 1.367 . S
C1087 C1086 1.367 . S
C1087 C1089 1.433 . S
C1088 C1084 1.350 . S
C1088 C1085 1.463 . S
C1088 N1092 1.427 . S
C1089 H1079 0.929 . S
C1089 C1087 1.433 . S
C1089 N1092 1.384 . S
C1090 H1081 0.929 . S
C1090 C1082 1.378 . S
C1090 C1085 1.350 . S
C1091 H1078 0.929 . S
C1091 C1083 1.433 . S
C1091 N1093 1.384 . S
N1092 C1088 1.427 . S
N1092 C1089 1.384 . S
N1093 C1085 1.427 . S
N1093 C1091 1.384 . S
H1094 C1100 0.930 . S
H1095 C1104 0.930 . S
H1096 C1109 0.929 . S
H1097 C1107 0.929 . S
H1098 C1102 0.929 . S
H1099 C1108 0.929 . S
C1100 H1094 0.930 . S
C1100 C1101 1.367 . S
C1100 C1108 1.378 . S
C1101 C1100 1.367 . S
C1101 C1109 1.433 . S
C1102 H1098 0.929 . S
C1102 C1104 1.378 . S
C1102 C1106 1.350 . S
C1103 C1106 1.463 . S
C1103 C1108 1.350 . S
C1103 N1111 1.427 . S
C1104 H1095 0.930 . S
C1104 C1102 1.378 . S
C1104 C1105 1.367 . S
C1105 C1104 1.367 . S
C1105 C1107 1.433 . S
C1106 C1102 1.350 . S
C1106 C1103 1.463 . S
C1106 N1110 1.427 . S
C1107 H1097 0.929 . S
C1107 C1105 1.433 . S
C1107 N1110 1.384 . S
C1108 H1099 0.929 . S
C1108 C1100 1.378 . S
C1108 C1103 1.350 . S
C1109 H1096 0.929 . S
C1109 C1101 1.433 . S
C1109 N1111 1.384 . S
N1110 C1106 1.427 . S
N1110 C1107 1.384 . S
N1111 C1103 1.427 . S
N1111 C1109 1.384 . S
H1112 C1118 0.930 . S
H1113 C1122 0.930 . S
H1114 C1127 0.929 . S
H1115 C1125 0.929 . S
H1116 C1120 0.929 . S
H1117 C1126 0.929 . S
C1118 H1112 0.930 . S
C1118 C1119 1.367 . S
C1118 C1126 1.378 . S
C1119 C1118 1.367 . S
C1119 C1127 1.433 . S
C1120 H1116 0.929 . S
C1120 C1122 1.378 . S
C1120 C1124 1.350 . S
C1121 C1124 1.463 . S
C1121 C1126 1.350 . S
C1121 N1129 1.427 . S
C1122 H1113 0.930 . S
C1122 C1120 1.378 . S
C1122 C1123 1.367 . S
C1123 C1122 1.367 . S
C1123 C1125 1.433 . S
C1124 C1120 1.350 . S
C1124 C1121 1.463 . S
C1124 N1128 1.427 . S
C1125 H1115 0.929 . S
C1125 C1123 1.433 . S
C1125 N1128 1.384 . S
C1126 H1117 0.929 . S
C1126 C1118 1.378 . S
C1126 C1121 1.350 . S
C1127 H1114 0.929 . S
C1127 C1119 1.433 . S
C1127 N1129 1.384 . S
N1128 C1124 1.427 . S
N1128 C1125 1.384 . S
N1129 C1121 1.427 . S
N1129 C1127 1.384 . S
H1130 C1136 0.930 . S
H1131 C1140 0.930 1_455 S
H1132 C1145 0.929 1_455 S
H1133 C1143 0.929 . S
H1134 C1138 0.929 1_455 S
H1135 C1144 0.929 . S
C1136 H1130 0.930 . S
C1136 C1137 1.367 . S
C1136 C1144 1.378 . S
C1137 C1136 1.367 . S
C1137 C1145 1.433 . S
C1138 H1134 0.929 1_655 S
C1138 C1140 1.378 . S
C1138 C1142 1.350 . S
C1139 C1142 1.463 . S
C1139 C1144 1.350 . S
C1139 N1147 1.427 . S
C1140 H1131 0.930 1_655 S
C1140 C1138 1.378 . S
C1140 C1141 1.367 . S
C1141 C1140 1.367 . S
C1141 C1143 1.433 . S
C1142 C1138 1.350 . S
C1142 C1139 1.463 . S
C1142 N1146 1.427 . S
C1143 H1133 0.929 . S
C1143 C1141 1.433 . S
C1143 N1146 1.384 . S
C1144 H1135 0.929 . S
C1144 C1136 1.378 . S
C1144 C1139 1.350 . S
C1145 H1132 0.929 1_655 S
C1145 C1137 1.433 . S
C1145 N1147 1.384 . S
N1146 C1142 1.427 . S
N1146 C1143 1.384 . S
N1147 C1139 1.427 . S
N1147 C1145 1.384 . S
H1148 C1154 0.930 . S
H1149 C1158 0.930 . S
H1150 C1163 0.929 . S
H1151 C1161 0.929 . S
H1152 C1156 0.929 . S
H1153 C1162 0.929 . S
C1154 H1148 0.930 . S
C1154 C1155 1.367 . S
C1154 C1162 1.378 . S
C1155 C1154 1.367 . S
C1155 C1163 1.433 . S
C1156 H1152 0.929 . S
C1156 C1158 1.378 . S
C1156 C1160 1.350 . S
C1157 C1160 1.463 . S
C1157 C1162 1.350 . S
C1157 N1165 1.427 . S
C1158 H1149 0.930 . S
C1158 C1156 1.378 . S
C1158 C1159 1.367 . S
C1159 C1158 1.367 . S
C1159 C1161 1.433 . S
C1160 C1156 1.350 . S
C1160 C1157 1.463 . S
C1160 N1164 1.427 . S
C1161 H1151 0.929 . S
C1161 C1159 1.433 . S
C1161 N1164 1.384 . S
C1162 H1153 0.929 . S
C1162 C1154 1.378 . S
C1162 C1157 1.350 . S
C1163 H1150 0.929 . S
C1163 C1155 1.433 . S
C1163 N1165 1.384 . S
N1164 C1160 1.427 . S
N1164 C1161 1.384 . S
N1165 C1157 1.427 . S
N1165 C1163 1.384 . S
H1166 C1172 0.930 . S
H1167 C1176 0.930 . S
H1168 C1181 0.929 . S
H1169 C1179 0.929 . S
H1170 C1174 0.929 . S
H1171 C1180 0.929 . S
C1172 H1166 0.930 . S
C1172 C1173 1.367 . S
C1172 C1180 1.378 . S
C1173 C1172 1.367 . S
C1173 C1181 1.433 . S
C1174 H1170 0.929 . S
C1174 C1176 1.378 . S
C1174 C1178 1.350 . S
C1175 C1178 1.463 . S
C1175 C1180 1.350 . S
C1175 N1183 1.427 . S
C1176 H1167 0.930 . S
C1176 C1174 1.378 . S
C1176 C1177 1.367 . S
C1177 C1176 1.367 . S
C1177 C1179 1.433 . S
C1178 C1174 1.350 . S
C1178 C1175 1.463 . S
C1178 N1182 1.427 . S
C1179 H1169 0.929 . S
C1179 C1177 1.433 . S
C1179 N1182 1.384 . S
C1180 H1171 0.929 . S
C1180 C1172 1.378 . S
C1180 C1175 1.350 . S
C1181 H1168 0.929 . S
C1181 C1173 1.433 . S
C1181 N1183 1.384 . S
N1182 C1178 1.427 . S
N1182 C1179 1.384 . S
N1183 C1175 1.427 . S
N1183 C1181 1.384 . S
H1184 C1190 0.930 . S
H1185 C1194 0.930 . S
H1186 C1199 0.929 . S
H1187 C1197 0.929 . S
H1188 C1192 0.929 . S
H1189 C1198 0.929 . S
C1190 H1184 0.930 . S
C1190 C1191 1.367 . S
C1190 C1198 1.378 . S
C1191 C1190 1.367 . S
C1191 C1199 1.433 . S
C1192 H1188 0.929 . S
C1192 C1194 1.378 . S
C1192 C1196 1.350 . S
C1193 C1196 1.463 . S
C1193 C1198 1.350 . S
C1193 N1201 1.427 . S
C1194 H1185 0.930 . S
C1194 C1192 1.378 . S
C1194 C1195 1.367 . S
C1195 C1194 1.367 . S
C1195 C1197 1.433 . S
C1196 C1192 1.350 . S
C1196 C1193 1.463 . S
C1196 N1200 1.427 . S
C1197 H1187 0.929 . S
C1197 C1195 1.433 . S
C1197 N1200 1.384 . S
C1198 H1189 0.929 . S
C1198 C1190 1.378 . S
C1198 C1193 1.350 . S
C1199 H1186 0.929 . S
C1199 C1191 1.433 . S
C1199 N1201 1.384 . S
N1200 C1196 1.427 . S
N1200 C1197 1.384 . S
N1201 C1193 1.427 . S
N1201 C1199 1.384 . S
H1202 C1208 0.930 . S
H1203 C1212 0.930 . S
H1204 C1217 0.929 . S
H1205 C1215 0.929 . S
H1206 C1210 0.929 . S
H1207 C1216 0.929 . S
C1208 H1202 0.930 . S
C1208 C1209 1.367 . S
C1208 C1216 1.378 . S
C1209 C1208 1.367 . S
C1209 C1217 1.433 . S
C1210 H1206 0.929 . S
C1210 C1212 1.378 . S
C1210 C1214 1.350 . S
C1211 C1214 1.463 . S
C1211 C1216 1.350 . S
C1211 N1219 1.427 . S
C1212 H1203 0.930 . S
C1212 C1210 1.378 . S
C1212 C1213 1.367 . S
C1213 C1212 1.367 . S
C1213 C1215 1.433 . S
C1214 C1210 1.350 . S
C1214 C1211 1.463 . S
C1214 N1218 1.427 . S
C1215 H1205 0.929 . S
C1215 C1213 1.433 . S
C1215 N1218 1.384 . S
C1216 H1207 0.929 . S
C1216 C1208 1.378 . S
C1216 C1211 1.350 . S
C1217 H1204 0.929 . S
C1217 C1209 1.433 . S
C1217 N1219 1.384 . S
N1218 C1214 1.427 . S
N1218 C1215 1.384 . S
N1219 C1211 1.427 . S
N1219 C1217 1.384 . S
H1220 C1226 0.930 . S
H1221 C1230 0.930 . S
H1222 C1235 0.929 1_554 S
H1223 C1233 0.929 . S
H1224 C1228 0.929 . S
H1225 C1234 0.929 . S
C1226 H1220 0.930 . S
C1226 C1227 1.367 . S
C1226 C1234 1.378 . S
C1227 C1226 1.367 . S
C1227 C1235 1.433 . S
C1228 H1224 0.929 . S
C1228 C1230 1.378 . S
C1228 C1232 1.350 . S
C1229 C1232 1.463 . S
C1229 C1234 1.350 . S
C1229 N1237 1.427 . S
C1230 H1221 0.930 . S
C1230 C1228 1.378 . S
C1230 C1231 1.367 . S
C1231 C1230 1.367 . S
C1231 C1233 1.433 . S
C1232 C1228 1.350 . S
C1232 C1229 1.463 . S
C1232 N1236 1.427 . S
C1233 H1223 0.929 . S
C1233 C1231 1.433 . S
C1233 N1236 1.384 . S
C1234 H1225 0.929 . S
C1234 C1226 1.378 . S
C1234 C1229 1.350 . S
C1235 H1222 0.929 1_556 S
C1235 C1227 1.433 . S
C1235 N1237 1.384 . S
N1236 C1232 1.427 . S
N1236 C1233 1.384 . S
N1237 C1229 1.427 . S
N1237 C1235 1.384 . S
H1238 C1244 0.930 . S
H1239 C1248 0.930 . S
H1240 C1253 0.929 . S
H1241 C1251 0.929 . S
H1242 C1246 0.929 . S
H1243 C1252 0.929 . S
C1244 H1238 0.930 . S
C1244 C1245 1.367 . S
C1244 C1252 1.378 . S
C1245 C1244 1.367 . S
C1245 C1253 1.433 . S
C1246 H1242 0.929 . S
C1246 C1248 1.378 . S
C1246 C1250 1.350 . S
C1247 C1250 1.463 . S
C1247 C1252 1.350 . S
C1247 N1255 1.427 . S
C1248 H1239 0.930 . S
C1248 C1246 1.378 . S
C1248 C1249 1.367 . S
C1249 C1248 1.367 . S
C1249 C1251 1.433 . S
C1250 C1246 1.350 . S
C1250 C1247 1.463 . S
C1250 N1254 1.427 . S
C1251 H1241 0.929 . S
C1251 C1249 1.433 . S
C1251 N1254 1.384 . S
C1252 H1243 0.929 . S
C1252 C1244 1.378 . S
C1252 C1247 1.350 . S
C1253 H1240 0.929 . S
C1253 C1245 1.433 . S
C1253 N1255 1.384 . S
N1254 C1250 1.427 . S
N1254 C1251 1.384 . S
N1255 C1247 1.427 . S
N1255 C1253 1.384 . S
H1256 C1262 0.930 . S
H1257 C1266 0.930 . S
H1258 C1271 0.929 . S
H1259 C1269 0.929 . S
H1260 C1264 0.929 . S
H1261 C1270 0.929 . S
C1262 H1256 0.930 . S
C1262 C1263 1.367 . S
C1262 C1270 1.378 . S
C1263 C1262 1.367 . S
C1263 C1271 1.433 . S
C1264 H1260 0.929 . S
C1264 C1266 1.378 . S
C1264 C1268 1.350 . S
C1265 C1268 1.463 . S
C1265 C1270 1.350 . S
C1265 N1273 1.427 . S
C1266 H1257 0.930 . S
C1266 C1264 1.378 . S
C1266 C1267 1.367 . S
C1267 C1266 1.367 . S
C1267 C1269 1.433 . S
C1268 C1264 1.350 . S
C1268 C1265 1.463 . S
C1268 N1272 1.427 . S
C1269 H1259 0.929 . S
C1269 C1267 1.433 . S
C1269 N1272 1.384 . S
C1270 H1261 0.929 . S
C1270 C1262 1.378 . S
C1270 C1265 1.350 . S
C1271 H1258 0.929 . S
C1271 C1263 1.433 . S
C1271 N1273 1.384 . S
N1272 C1268 1.427 . S
N1272 C1269 1.384 . S
N1273 C1265 1.427 . S
N1273 C1271 1.384 . S
H1274 C1280 0.930 . S
H1275 C1284 0.930 . S
H1276 C1289 0.929 . S
H1277 C1287 0.929 . S
H1278 C1282 0.929 . S
H1279 C1288 0.929 . S
C1280 H1274 0.930 . S
C1280 C1281 1.367 . S
C1280 C1288 1.378 . S
C1281 C1280 1.367 . S
C1281 C1289 1.433 . S
C1282 H1278 0.929 . S
C1282 C1284 1.378 . S
C1282 C1286 1.350 . S
C1283 C1286 1.463 . S
C1283 C1288 1.350 . S
C1283 N1291 1.427 . S
C1284 H1275 0.930 . S
C1284 C1282 1.378 . S
C1284 C1285 1.367 . S
C1285 C1284 1.367 . S
C1285 C1287 1.433 . S
C1286 C1282 1.350 . S
C1286 C1283 1.463 . S
C1286 N1290 1.427 . S
C1287 H1277 0.929 . S
C1287 C1285 1.433 . S
C1287 N1290 1.384 . S
C1288 H1279 0.929 . S
C1288 C1280 1.378 . S
C1288 C1283 1.350 . S
C1289 H1276 0.929 . S
C1289 C1281 1.433 . S
C1289 N1291 1.384 . S
N1290 C1286 1.427 . S
N1290 C1287 1.384 . S
N1291 C1283 1.427 . S
N1291 C1289 1.384 . S
C727 C652 2.243 . S
C723 C69 2.284 . S
C741 C125 1.049 . S
C745 C655 1.050 . S
C759 C217 2.180 1_556 S
C763 C686 2.156 . S
C781 C621 1.810 . S
C777 C261 1.730 . S
C799 C656 2.107 . S
C795 C39 2.023 . S
C817 C687 2.266 . S
C813 C137 2.182 . S
C835 C612 2.023 . S
C831 C187 1.923 1_565 S
C853 C643 2.380 . S
C849 C291 2.404 . S
C867 C51 0.498 . S
C871 C673 0.589 . S
C885 C365 1.809 . S
C889 C642 1.683 . S
C903 C199 0.461 . S
C907 C602 0.475 . S
C925 C695 1.469 . S
C921 C439 1.482 1_545 S
C943 C623 1.296 . S
C939 C63 1.372 . S
C957 C335 1.276 1_565 S
C961 C622 1.378 1_655 S
C975 C211 1.252 . S
C979 C715 1.299 1_655 S
C997 C654 1.659 . S
C993 C409 1.580 . S
C1011 C495 1.122 . S
C1015 C714 1.102 . S
C1029 C347 1.225 . S
C1033 C593 1.215 . S
C1047 C587 2.180 1_655 S
C1051 C624 2.157 . S
C1065 C421 1.075 . S
C1069 C683 1.064 . S
C1087 C594 2.238 . S
C1083 C507 2.157 . S
C1101 C359 1.916 . S
C1105 C625 2.002 . S
C1119 C557 1.924 . S
C1123 C674 2.019 . S
C1141 C705 2.191 . S
C1137 C433 2.082 . S
C1155 C513 1.641 . S
C1159 C611 1.544 . S
C1173 C143 1.600 . S
C1177 C704 1.506 . S
C1191 C569 0.459 . S
C1195 C664 0.483 . S
C1213 C633 1.104 . S
C1209 C285 1.061 . S
C1231 C685 1.532 . S
C1227 C483 1.461 1_556 S
C1249 C684 1.642 . S
C1245 C113 1.518 . S
C1267 C653 1.250 . S
C1263 C581 1.202 . S
C1285 C592 0.748 . S
C1281 C273 0.737 . S
