# Generated by pormake.
# Topology rtl, (3,6)-cn, num edge types: 1
# Building blocks:
#     Node 0, Type 0, BuildingBlock: MIDCAF_clean_linker_0, # of connection points: 3
#     Node 1, Type 0, BuildingBlock: MIDCAF_clean_linker_0, # of connection points: 3
#     Node 2, Type 0, BuildingBlock: MIDCAF_clean_linker_0, # of connection points: 3
#     Node 3, Type 0, BuildingBlock: MIDCAF_clean_linker_0, # of connection points: 3
#     Node 4, Type 1, BuildingBlock: KUMBOL_clean_sbu_1, # of connection points: 6
#     Node 5, Type 1, BuildingBlock: KUMBOL_clean_sbu_1, # of connection points: 6
#     Edge 6, Type (0, 1), BuildingBlock: EZIPEK_clean_linker_0, # of connection points: 2
#     Edge 7, Type (0, 1), BuildingBlock: EZIPEK_clean_linker_0, # of connection points: 2
#     Edge 8, Type (0, 1), BuildingBlock: EZIPEK_clean_linker_0, # of connection points: 2
#     Edge 9, Type (0, 1), BuildingBlock: EZIPEK_clean_linker_0, # of connection points: 2
#     Edge 10, Type (0, 1), BuildingBlock: EZIPEK_clean_linker_0, # of connection points: 2
#     Edge 11, Type (0, 1), BuildingBlock: EZIPEK_clean_linker_0, # of connection points: 2
#     Edge 12, Type (0, 1), BuildingBlock: EZIPEK_clean_linker_0, # of connection points: 2
#     Edge 13, Type (0, 1), BuildingBlock: EZIPEK_clean_linker_0, # of connection points: 2
#     Edge 14, Type (0, 1), BuildingBlock: EZIPEK_clean_linker_0, # of connection points: 2
#     Edge 15, Type (0, 1), BuildingBlock: EZIPEK_clean_linker_0, # of connection points: 2
#     Edge 16, Type (0, 1), BuildingBlock: EZIPEK_clean_linker_0, # of connection points: 2
#     Edge 17, Type (0, 1), BuildingBlock: EZIPEK_clean_linker_0, # of connection points: 2
# Relax obj value: 0.018
# Max RMSD: 0.113
# Mean RMSD: 0.067
data_MOF--net-rtl--node1-KUMBOL_clean_sbu_1--node2-MIDCAF_clean_linker_0--edge1-EZIPEK_clean_linker_0
_symmetry_space_group_name_H-M    P1
_symmetry_Int_Tables_number       1
_symmetry_cell_setting            triclinic
loop_
_symmetry_equiv_pos_as_xyz
'x, y, z'
_cell_length_a     31.021655
_cell_length_b     31.790006
_cell_length_c     28.284295
_cell_angle_alpha  77.24186
_cell_angle_beta   99.626016
_cell_angle_gamma 90.610019
loop_
_atom_site_label
_atom_site_type_symbol
_atom_site_fract_x
_atom_site_fract_y
_atom_site_fract_z
_atom_type_partial_charge
C0 C 0.14432 0.91326 0.12857 0.0
C1 C 0.16007 0.89009 0.17642 0.0
C2 C 0.19386 0.85905 0.18434 0.0
C3 C 0.21114 0.85074 0.14452 0.0
H4 H 0.26524 0.74727 0.08606 0.0
H5 H 0.31464 0.68618 0.09104 0.0
H6 H 0.37285 0.76083 0.97218 0.0
H7 H 0.32202 0.82127 0.96544 0.0
H8 H 0.23584 0.87969 0.87905 0.0
H9 H 0.19423 0.90769 0.79632 0.0
H10 H 0.08978 0.94975 0.85958 0.0
H11 H 0.13101 0.92292 0.94192 0.0
H12 H 0.1482 0.92339 0.05236 0.0
H13 H 0.11824 0.93733 0.1219 0.0
H14 H 0.20635 0.84092 0.22119 0.0
H15 H 0.23685 0.82626 0.1516 0.0
N16 N 0.24301 0.83275 0.05928 0.0
N17 N 0.24056 0.84685 0.97369 0.0
N18 N 0.19467 0.88593 0.0072 0.0
C19 C 0.25774 0.8243 0.01953 0.0
C20 C 0.20878 0.87759 0.96723 0.0
C21 C 0.21176 0.86407 0.05335 0.0
C22 C 0.28991 0.7889 0.02538 0.0
C23 C 0.28874 0.75067 0.06119 0.0
C24 C 0.31673 0.71574 0.06389 0.0
C25 C 0.34721 0.7189 0.03175 0.0
C26 C 0.34931 0.75761 0.99697 0.0
C27 C 0.32042 0.79207 0.99329 0.0
C28 C 0.1866 0.89871 0.91716 0.0
C29 C 0.20428 0.89545 0.87533 0.0
C30 C 0.18071 0.91147 0.82811 0.0
C31 C 0.13888 0.93026 0.82218 0.0
C32 C 0.12198 0.93515 0.86363 0.0
C33 C 0.14568 0.91979 0.91067 0.0
C34 C 0.19491 0.87346 0.0962 0.0
C35 C 0.16154 0.9051 0.08887 0.0
C36 C 0.63856 0.59743 0.52046 0.0
C37 C 0.65829 0.61421 0.47925 0.0
C38 C 0.6843 0.65049 0.47912 0.0
C39 C 0.69101 0.66953 0.51962 0.0
H40 H 0.70815 0.79785 0.56481 0.0
H41 H 0.76244 0.85358 0.55026 0.0
H42 H 0.84107 0.79637 0.69019 0.0
H43 H 0.78548 0.74153 0.70587 0.0
H44 H 0.62529 0.71933 0.73288 0.0
H45 H 0.59027 0.68941 0.8044 0.0
H46 H 0.64676 0.5639 0.81318 0.0
H47 H 0.67907 0.59322 0.73958 0.0
H48 H 0.63011 0.60266 0.59278 0.0
H49 H 0.61824 0.56946 0.52108 0.0
H50 H 0.6997 0.66394 0.44763 0.0
H51 H 0.71156 0.69739 0.51802 0.0
N52 N 0.70466 0.70906 0.602 0.0
N53 N 0.69802 0.71163 0.68271 0.0
N54 N 0.66472 0.65649 0.64685 0.0
C55 C 0.71388 0.72824 0.64065 0.0
C56 C 0.67313 0.67585 0.6858 0.0
C57 C 0.68033 0.67318 0.60457 0.0
C58 C 0.74267 0.76564 0.63652 0.0
C59 C 0.73644 0.79794 0.59304 0.0
C60 C 0.76745 0.82966 0.58466 0.0
C61 C 0.80598 0.82895 0.61894 0.0
C62 C 0.81151 0.79762 0.66336 0.0
C63 C 0.77975 0.76647 0.67236 0.0
C64 C 0.65467 0.65846 0.73084 0.0
C65 C 0.63021 0.68539 0.75028 0.0
C66 C 0.61032 0.66836 0.79114 0.0
C67 C 0.61599 0.62439 0.81448 0.0
C68 C 0.64183 0.59787 0.79589 0.0
C69 C 0.66024 0.61455 0.75389 0.0
C70 C 0.67193 0.6527 0.56148 0.0
C71 C 0.64544 0.61643 0.56135 0.0
C72 C 0.85888 0.09437 0.93801 0.0
C73 C 0.83449 0.11029 0.8904 0.0
C74 C 0.80231 0.14283 0.88628 0.0
C75 C 0.79201 0.1552 0.9276 0.0
H76 H 0.70196 0.23217 0.97561 0.0
H77 H 0.6503 0.29176 0.97107 0.0
H78 H 0.71229 0.30526 0.11497 0.0
H79 H 0.76304 0.2459 0.12032 0.0
H80 H 0.79342 0.15134 0.19211 0.0
H81 H 0.83117 0.11978 0.27503 0.0
H82 H 0.92283 0.05384 0.21574 0.0
H83 H 0.88515 0.08521 0.13194 0.0
H84 H 0.86787 0.09298 0.01494 0.0
H85 H 0.8874 0.07362 0.94453 0.0
H86 H 0.78551 0.16048 0.85107 0.0
H87 H 0.7667 0.17983 0.92222 0.0
N88 N 0.77523 0.18381 0.01336 0.0
N89 N 0.78638 0.17612 0.09883 0.0
N90 N 0.82385 0.13 0.06464 0.0
C91 C 0.76647 0.19695 0.05342 0.0
C92 C 0.81488 0.14259 0.10493 0.0
C93 C 0.80407 0.15038 0.01868 0.0
C94 C 0.73638 0.23409 0.04847 0.0
C95 C 0.70467 0.24807 0.00609 0.0
C96 C 0.6752 0.282 0.00341 0.0
C97 C 0.67765 0.30278 0.0427 0.0
C98 C 0.70992 0.28955 0.08434 0.0
C99 C 0.7388 0.25547 0.08734 0.0
C100 C 0.83642 0.12106 0.1552 0.0
C101 C 0.82144 0.12996 0.19641 0.0
C102 C 0.84279 0.11186 0.2439 0.0
C103 C 0.87959 0.08465 0.25117 0.0
C104 C 0.8943 0.07478 0.21051 0.0
C105 C 0.87274 0.09273 0.16279 0.0
C106 C 0.81453 0.1368 0.97479 0.0
C107 C 0.84841 0.10658 0.97937 0.0
C108 C 0.3907 0.40415 0.587 0.0
C109 C 0.38304 0.3827 0.63359 0.0
C110 C 0.36445 0.34187 0.63964 0.0
C111 C 0.35226 0.32332 0.59912 0.0
H112 H 0.30375 0.20897 0.54889 0.0
H113 H 0.25046 0.15202 0.56181 0.0
H114 H 0.1737 0.20815 0.42042 0.0
H115 H 0.22805 0.26438 0.40638 0.0
H116 H 0.32056 0.30575 0.33476 0.0
H117 H 0.34841 0.33787 0.25882 0.0
H118 H 0.41156 0.43575 0.32749 0.0
H119 H 0.38412 0.40449 0.40303 0.0
H120 H 0.38433 0.40338 0.51084 0.0
H121 H 0.40503 0.43573 0.58182 0.0
H122 H 0.35844 0.32492 0.6755 0.0
H123 H 0.33717 0.29212 0.60472 0.0
N124 N 0.3166 0.29273 0.51185 0.0
N125 N 0.31014 0.29707 0.42687 0.0
N126 N 0.35294 0.34624 0.4638 0.0
C127 C 0.3 0.27755 0.47147 0.0
C128 C 0.33708 0.33139 0.42296 0.0
C129 C 0.34289 0.32723 0.50829 0.0
C130 C 0.26994 0.24107 0.47665 0.0
C131 C 0.27578 0.20885 0.52028 0.0
C132 C 0.24537 0.17638 0.52778 0.0
C133 C 0.20785 0.1762 0.4924 0.0
C134 C 0.20236 0.20785 0.44826 0.0
C135 C 0.23346 0.23976 0.44018 0.0
C136 C 0.35033 0.35222 0.37531 0.0
C137 C 0.3399 0.33441 0.33356 0.0
C138 C 0.35568 0.3527 0.29015 0.0
C139 C 0.38199 0.38907 0.28784 0.0
C140 C 0.39121 0.40774 0.32868 0.0
C141 C 0.37557 0.38958 0.37193 0.0
C142 C 0.35872 0.34524 0.55194 0.0
C143 C 0.37881 0.38555 0.54653 0.0
C144 C 0.90882 0.11176 0.46045 0.0
C145 C 0.8373 0.08037 0.45138 0.0
C146 C 0.88043 0.08016 0.47711 0.0
C147 C 0.8244 0.11077 0.407 0.0
C148 C 0.8956 0.14332 0.41687 0.0
C149 C 0.85354 0.1421 0.3897 0.0
N150 N 0.94956 0.11161 0.48701 0.0
C151 C 0.97784 0.14364 0.47383 0.0
C152 C 0.925 0.17529 0.40206 0.0
C153 C 0.96611 0.17573 0.43099 0.0
Gd154 Gd 0.03279 0.95285 0.52381 0.0
Gd155 Gd 0.96878 0.05358 0.5549 0.0
N156 N 0.89426 0.05056 0.51963 0.0
C157 C 0.80808 0.05074 0.47167 0.0
C158 C 0.86443 0.02491 0.54197 0.0
C159 C 0.82144 0.02361 0.51776 0.0
H160 H 0.87314 0.0057 0.57886 0.0
H161 H 0.79846 0.00216 0.53506 0.0
H162 H 0.12753 0.98883 0.57994 0.0
H163 H 0.00991 0.14371 0.49573 0.0
H164 H 0.18826 0.96015 0.64611 0.0
H165 H 0.77469 0.04983 0.45308 0.0
H166 H 0.79165 0.1109 0.38634 0.0
H167 H 0.96761 0.86976 0.51444 0.0
H168 H 0.91611 0.20002 0.36871 0.0
H169 H 0.9889 0.20057 0.42012 0.0
H170 H 0.15523 0.81154 0.70082 0.0
H171 H 0.84296 0.16572 0.35578 0.0
H172 H 0.02233 0.75945 0.62366 0.0
H173 H 0.96313 0.79331 0.55635 0.0
N174 N 0.02718 0.87951 0.55924 0.0
C175 C 0.06043 0.86143 0.59553 0.0
C176 C 0.99276 0.85556 0.54478 0.0
C177 C 0.0241 0.79313 0.60578 0.0
C178 C 0.99055 0.81214 0.56793 0.0
C179 C 0.05969 0.8177 0.61991 0.0
H180 H 0.09416 0.76644 0.67688 0.0
N181 N 0.09397 0.92944 0.58588 0.0
C182 C 0.09502 0.88692 0.60891 0.0
C183 C 0.16326 0.89601 0.66069 0.0
C184 C 0.12953 0.86922 0.6472 0.0
C185 C 0.12741 0.95542 0.59829 0.0
C186 C 0.16223 0.93922 0.63602 0.0
O187 O 0.98067 0.05548 0.47831 0.0
O188 O 0.97257 0.98543 0.4728 0.0
O189 O 0.07234 0.96823 0.46616 0.0
O190 O 0.04206 0.90638 0.48012 0.0
O191 O 0.94613 0.98519 0.57965 0.0
O192 O 0.96044 0.94743 0.52332 0.0
O193 O 0.03226 0.94964 0.60395 0.0
O194 O 0.02836 0.02024 0.60615 0.0
O195 O 0.93848 0.06036 0.61735 0.0
O196 O 0.97605 0.11279 0.58186 0.0
O197 O 0.06846 0.01605 0.51591 0.0
O198 O 0.03858 0.06929 0.54727 0.0
C199 C 0.96876 0.02681 0.45241 0.0
C200 C 0.93968 0.95174 0.55901 0.0
C201 C 0.04889 0.93735 0.39829 0.0
C202 C 0.06336 0.93152 0.31804 0.0
C203 C 0.99206 0.95679 0.32628 0.0
C204 C 0.00594 0.95171 0.37681 0.0
C205 C 0.0206 0.94665 0.29693 0.0
C206 C 0.07759 0.92725 0.36873 0.0
C207 C 0.06387 0.93259 0.45135 0.0
C208 C 0.12902 0.82562 0.67129 0.0
C209 C 0.0942 0.79995 0.65772 0.0
H210 H 0.19017 0.88367 0.69013 0.0
C211 C 0.03262 0.9796 0.62923 0.0
C212 C 0.069 0.05426 0.52715 0.0
C213 C 0.9443 0.12511 0.65088 0.0
C214 C 0.91359 0.13282 0.72256 0.0
C215 C 0.95387 0.19123 0.68084 0.0
C216 C 0.9609 0.16681 0.64727 0.0
C217 C 0.93034 0.17436 0.71838 0.0
C218 C 0.92047 0.10826 0.6887 0.0
C219 C 0.95306 0.09898 0.61619 0.0
H220 H 0.95898 0.96813 0.30997 0.0
H221 H 0.98301 0.95855 0.39903 0.0
H222 H 0.00927 0.95012 0.25786 0.0
H223 H 0.11064 0.91561 0.38508 0.0
H224 H 0.9668 0.2233 0.67781 0.0
H225 H 0.9795 0.18052 0.61865 0.0
H226 H 0.92516 0.19365 0.74418 0.0
H227 H 0.9075 0.07613 0.69217 0.0
C228 C 0.64293 0.56692 0.07348 0.0
C229 C 0.63522 0.64342 0.06938 0.0
C230 C 0.6187 0.60139 0.07864 0.0
C231 C 0.67559 0.6503 0.05305 0.0
C232 C 0.68424 0.5734 0.05884 0.0
C233 C 0.70002 0.61536 0.04771 0.0
N234 N 0.62691 0.52673 0.08481 0.0
C235 C 0.65224 0.49139 0.08673 0.0
C236 C 0.70896 0.53735 0.05715 0.0
C237 C 0.69316 0.4961 0.07197 0.0
Gd238 Gd 0.46011 0.47392 0.01252 0.0
Gd239 Gd 0.55667 0.52158 0.10598 0.0
N240 N 0.57968 0.59366 0.09425 0.0
C241 C 0.61095 0.67722 0.07746 0.0
C242 C 0.55711 0.62625 0.1047 0.0
C243 C 0.57199 0.66846 0.09579 0.0
H244 H 0.52776 0.61986 0.12054 0.0
H245 H 0.55357 0.69416 0.1035 0.0
H246 H 0.50122 0.37349 0.03588 0.0
H247 H 0.64153 0.45947 0.10069 0.0
H248 H 0.48455 0.30047 0.07976 0.0
H249 H 0.62249 0.70994 0.07075 0.0
H250 H 0.68855 0.68242 0.04526 0.0
H251 H 0.3682 0.53629 1.00154 0.0
H252 H 0.74085 0.54095 0.04612 0.0
H253 H 0.71272 0.4679 0.0727 0.0
H254 H 0.34957 0.32075 0.135 0.0
H255 H 0.73151 0.62102 0.036 0.0
H256 H 0.2811 0.46146 0.08634 0.0
H257 H 0.29963 0.53038 0.03462 0.0
N258 N 0.3911 0.47222 0.03784 0.0
C259 C 0.37988 0.43313 0.06305 0.0
C260 C 0.36176 0.50634 0.0256 0.0
C261 C 0.31178 0.46394 0.07251 0.0
C262 C 0.32221 0.50295 0.04353 0.0
C263 C 0.34027 0.42816 0.08177 0.0
H264 H 0.30001 0.38339 0.12362 0.0
N265 N 0.44571 0.4033 0.05112 0.0
C266 C 0.40762 0.39757 0.06928 0.0
C267 C 0.42521 0.32143 0.09899 0.0
C268 C 0.39683 0.35656 0.0947 0.0
C269 C 0.47238 0.36891 0.05292 0.0
C270 C 0.46284 0.32755 0.07744 0.0
O271 O 0.56479 0.53332 0.02567 0.0
O272 O 0.49487 0.53373 0.97963 0.0
O273 O 0.46514 0.44297 0.95214 0.0
O274 O 0.40681 0.47956 0.95107 0.0
O275 O 0.49777 0.56591 0.07713 0.0
O276 O 0.44451 0.54083 0.02169 0.0
O277 O 0.47885 0.44337 0.09264 0.0
O278 O 0.49147 0.50062 0.12799 0.0
O279 O 0.56263 0.54204 0.17491 0.0
O280 O 0.59566 0.48326 0.17261 0.0
O281 O 0.52998 0.45154 0.01751 0.0
O282 O 0.56113 0.45273 0.09731 0.0
C283 C 0.53682 0.54265 0.98379 0.0
C284 C 0.45993 0.56948 0.04731 0.0
C285 C 0.42801 0.48032 0.87501 0.0
C286 C 0.41961 0.47552 0.78939 0.0
C287 C 0.4327 0.54467 0.81141 0.0
C288 C 0.43382 0.52497 0.86092 0.0
C289 C 0.42544 0.52011 0.77565 0.0
C290 C 0.42129 0.45565 0.83917 0.0
C291 C 0.42795 0.45918 0.92665 0.0
C292 C 0.3582 0.35191 0.11486 0.0
C293 C 0.33002 0.38762 0.10844 0.0
H294 H 0.41805 0.28938 0.11823 0.0
C295 C 0.4743 0.46286 0.12756 0.0
C296 C 0.56037 0.43884 0.05656 0.0
C297 C 0.62827 0.524 0.23002 0.0
C298 C 0.6584 0.55095 0.30276 0.0
C299 C 0.70473 0.54264 0.24395 0.0
C300 C 0.66938 0.52771 0.21516 0.0
C301 C 0.69933 0.55429 0.28748 0.0
C302 C 0.623 0.53547 0.27403 0.0
C303 C 0.58982 0.51091 0.19901 0.0
H304 H 0.4373 0.57905 0.80072 0.0
H305 H 0.43919 0.54452 0.88814 0.0
H306 H 0.42421 0.5358 0.73732 0.0
H307 H 0.41654 0.42121 0.84976 0.0
H308 H 0.73633 0.54552 0.23228 0.0
H309 H 0.67413 0.51944 0.18125 0.0
H310 H 0.72699 0.56615 0.30916 0.0
H311 H 0.59125 0.53312 0.28553 0.0
C312 C 0.16429 0.11341 0.47152 0.0
C313 C 0.17398 0.14323 0.50211 0.0
C314 C 0.12437 0.10591 0.55525 0.0
C315 C 0.10797 0.08178 0.51965 0.0
N316 N 0.11053 0.06755 0.43895 0.0
N317 N 0.15636 0.17274 0.56853 0.0
C318 C 0.12756 0.08659 0.47649 0.0
C319 C 0.15203 0.14093 0.54269 0.0
N320 N 0.19085 0.10969 0.43858 0.0
N321 N 0.11565 0.09404 0.60207 0.0
H322 H 0.17506 0.19989 0.55955 0.0
H323 H 0.13767 0.17424 0.59555 0.0
H324 H 0.09947 0.06587 0.61435 0.0
H325 H 0.1297 0.10877 0.6302 0.0
H326 H 0.188 0.08523 0.41912 0.0
H327 H 0.21857 0.12811 0.43452 0.0
H328 H 0.1205 0.07484 0.40472 0.0
H329 H 0.084 0.04754 0.43964 0.0
C330 C 0.40614 0.66499 0.07934 0.0
C331 C 0.37713 0.68165 0.03497 0.0
C332 C 0.40866 0.63026 0.99638 0.0
C333 C 0.43218 0.60877 0.04293 0.0
N334 N 0.44362 0.60154 0.13171 0.0
N335 N 0.34433 0.67345 0.95389 0.0
C336 C 0.42836 0.62494 0.08534 0.0
C337 C 0.37643 0.66233 0.99419 0.0
N338 N 0.41354 0.68782 0.11544 0.0
N339 N 0.41844 0.62196 0.95395 0.0
H340 H 0.31918 0.69574 0.9514 0.0
H341 H 0.34023 0.65716 0.92531 0.0
H342 H 0.44437 0.60166 0.95338 0.0
H343 H 0.40447 0.6395 0.91918 0.0
H344 H 0.43775 0.67884 0.14642 0.0
H345 H 0.39901 0.71804 0.11189 0.0
H346 H 0.43715 0.61048 0.1632 0.0
H347 H 0.45858 0.57119 0.13924 0.0
C348 C 0.85693 0.88918 0.63406 0.0
C349 C 0.84178 0.85875 0.60589 0.0
C350 C 0.88547 0.8922 0.54407 0.0
C351 C 0.90621 0.91902 0.57542 0.0
N352 N 0.91815 0.93058 0.65939 0.0
N353 N 0.85344 0.82299 0.54208 0.0
C354 C 0.89392 0.914 0.62312 0.0
C355 C 0.85993 0.85754 0.5636 0.0
N356 N 0.83567 0.8953 0.67067 0.0
N357 N 0.8871 0.90043 0.49494 0.0
H358 H 0.83608 0.79614 0.55614 0.0
H359 H 0.86959 0.81907 0.51374 0.0
H360 H 0.90269 0.92612 0.47626 0.0
H361 H 0.86842 0.88377 0.47118 0.0
H362 H 0.84286 0.92037 0.68882 0.0
H363 H 0.80812 0.87821 0.67937 0.0
H364 H 0.91189 0.92396 0.69535 0.0
H365 H 0.94761 0.94585 0.65649 0.0
C366 C 0.64767 0.37927 0.01285 0.0
C367 C 0.64556 0.33725 0.04234 0.0
C368 C 0.59632 0.36439 0.08831 0.0
C369 C 0.59306 0.40517 0.05466 0.0
N370 N 0.61557 0.45123 0.98329 0.0
N371 N 0.60933 0.28774 0.09953 0.0
C372 C 0.61838 0.41236 0.01605 0.0
C373 C 0.61694 0.32919 0.07712 0.0
N374 N 0.67912 0.38817 0.98374 0.0
N375 N 0.58239 0.35933 0.1324 0.0
H376 H 0.62362 0.26101 0.09177 0.0
H377 H 0.58533 0.28001 0.12156 0.0
H378 H 0.57356 0.38513 0.14592 0.0
H379 H 0.58664 0.33059 0.15909 0.0
H380 H 0.68576 0.41925 0.96587 0.0
H381 H 0.70099 0.36479 0.9803 0.0
H382 H 0.62822 0.45648 0.95067 0.0
H383 H 0.59942 0.47806 0.98806 0.0
C384 C 0.1492 0.93606 0.23523 0.0
C385 C 0.13973 0.89787 0.21776 0.0
C386 C 0.08732 0.8779 0.27433 0.0
C387 C 0.09249 0.91869 0.28679 0.0
N388 N 0.12587 0.98818 0.27756 0.0
N389 N 0.0971 0.83404 0.21671 0.0
C390 C 0.12305 0.94813 0.26714 0.0
C391 C 0.10835 0.86895 0.23658 0.0
N392 N 0.18363 0.96034 0.2218 0.0
N393 N 0.06267 0.84756 0.29908 0.0
H394 H 0.11206 0.82602 0.18939 0.0
H395 H 0.07079 0.81471 0.22468 0.0
H396 H 0.04645 0.85321 0.32665 0.0
H397 H 0.06133 0.81567 0.29541 0.0
H398 H 0.19501 0.98623 0.23691 0.0
H399 H 0.20334 0.95231 0.19843 0.0
H400 H 0.14373 0.01294 0.25999 0.0
H401 H 0.10801 0.9977 0.30174 0.0
C402 C 0.5997 0.6217 0.90031 0.0
C403 C 0.59323 0.60543 0.85676 0.0
C404 C 0.55064 0.5469 0.89681 0.0
C405 C 0.55373 0.56543 0.9386 0.0
N406 N 0.56836 0.62906 0.97087 0.0
N407 N 0.55066 0.5601 0.80931 0.0
C408 C 0.57453 0.60541 0.93769 0.0
C409 C 0.56498 0.57035 0.85366 0.0
N410 N 0.63098 0.6513 0.90722 0.0
N411 N 0.53604 0.5061 0.89873 0.0
H412 H 0.55846 0.57792 0.77636 0.0
H413 H 0.52721 0.537 0.8046 0.0
H414 H 0.52674 0.48737 0.93007 0.0
H415 H 0.53735 0.48956 0.871 0.0
H416 H 0.63925 0.66102 0.94039 0.0
H417 H 0.65163 0.66264 0.88192 0.0
H418 H 0.57969 0.66029 0.96895 0.0
H419 H 0.54745 0.61939 0.99633 0.0
C420 C 0.88773 0.03357 0.33346 0.0
C421 C 0.90388 0.06862 0.30165 0.0
C422 C 0.96401 0.07542 0.36744 0.0
C423 C 0.94601 0.04217 0.40058 0.0
N424 N 0.88245 0.00094 0.41756 0.0
N425 N 0.95207 0.12864 0.29032 0.0
C426 C 0.90569 0.02408 0.38423 0.0
C427 C 0.94056 0.09117 0.31916 0.0
N428 N 0.85514 0.00933 0.31523 0.0
N429 N 0.00393 0.09154 0.38135 0.0
H430 H 0.93643 0.14075 0.25428 0.0
H431 H 0.97473 0.14957 0.30337 0.0
H432 H 0.02134 0.08333 0.41685 0.0
H433 H 0.02114 0.11127 0.35681 0.0
H434 H 0.84527 0.98069 0.33601 0.0
H435 H 0.84076 0.01577 0.27819 0.0
H436 H 0.85092 0.99044 0.40799 0.0
H437 H 0.89222 0.99735 0.45528 0.0
C438 C 0.35741 0.42258 0.6914 0.0
C439 C 0.39245 0.40428 0.6755 0.0
C440 C 0.44555 0.43339 0.73372 0.0
C441 C 0.41041 0.44976 0.75128 0.0
N442 N 0.33319 0.45421 0.75331 0.0
N443 N 0.4691 0.38568 0.68617 0.0
C444 C 0.36639 0.44247 0.73216 0.0
C445 C 0.43638 0.40781 0.69801 0.0
N446 N 0.31574 0.42271 0.6661 0.0
N447 N 0.48761 0.443 0.7506 0.0
H448 H 0.46345 0.36666 0.66015 0.0
H449 H 0.50122 0.38325 0.70469 0.0
H450 H 0.49566 0.46012 0.77822 0.0
H451 H 0.51434 0.43642 0.73527 0.0
H452 H 0.28959 0.43981 0.6723 0.0
H453 H 0.30768 0.40848 0.63602 0.0
H454 H 0.30096 0.44511 0.74505 0.0
H455 H 0.33826 0.47043 0.78197 0.0
C456 C 0.62721 0.61639 0.39089 0.0
C457 C 0.65257 0.59415 0.4358 0.0
C458 C 0.67271 0.53851 0.39493 0.0
C459 C 0.65298 0.56418 0.34885 0.0
N460 N 0.61456 0.6297 0.30185 0.0
N461 N 0.70302 0.53601 0.48026 0.0
C462 C 0.63064 0.60355 0.34651 0.0
C463 C 0.67596 0.55545 0.43791 0.0
N464 N 0.59947 0.64952 0.3909 0.0
N465 N 0.68772 0.49763 0.39765 0.0
H466 H 0.70612 0.54713 0.51266 0.0
H467 H 0.72484 0.51075 0.48234 0.0
H468 H 0.68565 0.4842 0.36688 0.0
H469 H 0.69839 0.4757 0.43073 0.0
H470 H 0.57691 0.66432 0.36031 0.0
H471 H 0.59614 0.65953 0.42287 0.0
H472 H 0.60243 0.66096 0.29767 0.0
H473 H 0.61633 0.62151 0.26849 0.0
C474 C 0.82135 0.1151 0.79744 0.0
C475 C 0.84611 0.09835 0.84462 0.0
C476 C 0.90889 0.08752 0.8065 0.0
C477 C 0.88831 0.11554 0.76237 0.0
N478 N 0.82238 0.15146 0.71286 0.0
N479 N 0.89523 0.03728 0.87955 0.0
C480 C 0.84344 0.12741 0.75659 0.0
C481 C 0.8851 0.07508 0.8458 0.0
N482 N 0.77683 0.11443 0.79115 0.0
N483 N 0.95126 0.07369 0.81158 0.0
H484 H 0.87336 0.02363 0.90263 0.0
H485 H 0.92141 0.01702 0.87945 0.0
H486 H 0.96959 0.08137 0.78324 0.0
H487 H 0.96866 0.05669 0.84503 0.0
H488 H 0.75677 0.12261 0.75686 0.0
H489 H 0.76067 0.10066 0.8202 0.0
H490 H 0.79114 0.16502 0.70855 0.0
H491 H 0.83708 0.15953 0.68157 0.0
C492 C 0.38692 0.445 0.21089 0.0
C493 C 0.4029 0.40606 0.24413 0.0
C494 C 0.46002 0.40022 0.1956 0.0
C495 C 0.44824 0.44232 0.16623 0.0
N496 N 0.39931 0.50474 0.14536 0.0
N497 N 0.45815 0.34926 0.27261 0.0
C498 C 0.41142 0.46478 0.17393 0.0
C499 C 0.44023 0.38427 0.23755 0.0
N500 N 0.34745 0.4622 0.21371 0.0
N501 N 0.48955 0.37476 0.18335 0.0
H502 H 0.44454 0.33606 0.30375 0.0
H503 H 0.48859 0.3355 0.27308 0.0
H504 H 0.50547 0.38469 0.15366 0.0
H505 H 0.49495 0.3421 0.19964 0.0
H506 H 0.33134 0.48786 0.18746 0.0
H507 H 0.32883 0.44842 0.24037 0.0
H508 H 0.3769 0.52529 0.15314 0.0
H509 H 0.41264 0.51803 0.1142 0.0
C510 C 0.10226 0.98687 0.75101 0.0
C511 C 0.11096 0.94266 0.77304 0.0
C512 C 0.05798 0.92263 0.70751 0.0
C513 C 0.05224 0.96707 0.68303 0.0
N514 N 0.05044 0.03926 0.69723 0.0
N515 N 0.09901 0.86769 0.77239 0.0
C516 C 0.06916 0.99882 0.70904 0.0
C517 C 0.08927 0.9103 0.75136 0.0
N518 N 0.12642 0.01759 0.76952 0.0
N519 N 0.03064 0.89268 0.69163 0.0
H520 H 0.11928 0.85711 0.80623 0.0
H521 H 0.08929 0.84264 0.75508 0.0
H522 H 0.00426 0.90056 0.66302 0.0
H523 H 0.03037 0.86056 0.7101 0.0
H524 H 0.12487 0.05004 0.75155 0.0
H525 H 0.15106 0.01007 0.80031 0.0
H526 H 0.0596 0.06278 0.71715 0.0
H527 H 0.0209 0.04679 0.67337 0.0
loop_
_geom_bond_atom_site_label_1
_geom_bond_atom_site_label_2
_geom_bond_distance
_geom_bond_site_symmetry_2
_ccdc_geom_bond_type
C0 C1 1.384 . S
C0 H13 0.947 . S
C0 C35 1.382 . S
C1 C0 1.384 . S
C1 C2 1.378 . S
C2 C1 1.378 . S
C2 C3 1.378 . S
C2 H14 0.952 . S
C3 C2 1.378 . S
C3 H15 0.950 . S
C3 C34 1.383 . S
H4 C23 0.947 . S
H5 C24 0.946 . S
H6 C26 0.953 . S
H7 C27 0.945 . S
H8 C29 0.952 . S
H9 C30 0.949 . S
H10 C32 0.950 . S
H11 C33 0.948 . S
H12 C35 0.951 . S
H13 C0 0.947 . S
H14 C2 0.952 . S
H15 C3 0.950 . S
N16 C19 1.382 . S
N16 C21 1.363 . S
N17 C19 1.371 1_556 S
N17 C20 1.372 . S
N18 C20 1.361 1_554 S
N18 C21 1.377 . S
C19 N16 1.382 . S
C19 N17 1.371 1_554 S
C19 C22 1.480 . S
C20 N17 1.372 . S
C20 N18 1.361 1_556 S
C20 C28 1.457 . S
C21 N16 1.363 . S
C21 N18 1.377 . S
C21 C34 1.479 . S
C22 C19 1.480 . S
C22 C23 1.383 . S
C22 C27 1.385 1_554 S
C23 H4 0.947 . S
C23 C22 1.383 . S
C23 C24 1.388 . S
C24 H5 0.946 . S
C24 C23 1.388 . S
C24 C25 1.384 . S
C25 C24 1.384 . S
C25 C26 1.377 1_554 S
C26 H6 0.953 . S
C26 C25 1.377 1_556 S
C26 C27 1.369 . S
C27 H7 0.945 . S
C27 C22 1.385 1_556 S
C27 C26 1.369 . S
C28 C20 1.457 . S
C28 C29 1.372 . S
C28 C33 1.364 . S
C29 H8 0.952 . S
C29 C28 1.372 . S
C29 C30 1.389 . S
C30 H9 0.949 . S
C30 C29 1.389 . S
C30 C31 1.387 . S
C31 C30 1.387 . S
C31 C32 1.372 . S
C32 H10 0.950 . S
C32 C31 1.372 . S
C32 C33 1.379 . S
C33 H11 0.948 . S
C33 C28 1.364 . S
C33 C32 1.379 . S
C34 C3 1.383 . S
C34 C21 1.479 . S
C34 C35 1.398 . S
C35 C0 1.382 . S
C35 H12 0.951 . S
C35 C34 1.398 . S
C36 C37 1.384 . S
C36 H49 0.947 . S
C36 C71 1.382 . S
C37 C36 1.384 . S
C37 C38 1.378 . S
C38 C37 1.378 . S
C38 C39 1.378 . S
C38 H50 0.952 . S
C39 C38 1.378 . S
C39 H51 0.950 . S
C39 C70 1.383 . S
H40 C59 0.947 . S
H41 C60 0.946 . S
H42 C62 0.953 . S
H43 C63 0.945 . S
H44 C65 0.952 . S
H45 C66 0.949 . S
H46 C68 0.950 . S
H47 C69 0.948 . S
H48 C71 0.951 . S
H49 C36 0.947 . S
H50 C38 0.952 . S
H51 C39 0.950 . S
N52 C55 1.382 . S
N52 C57 1.363 . S
N53 C55 1.371 . S
N53 C56 1.372 . S
N54 C56 1.361 . S
N54 C57 1.377 . S
C55 N52 1.382 . S
C55 N53 1.371 . S
C55 C58 1.480 . S
C56 N53 1.372 . S
C56 N54 1.361 . S
C56 C64 1.457 . S
C57 N52 1.363 . S
C57 N54 1.377 . S
C57 C70 1.479 . S
C58 C55 1.480 . S
C58 C59 1.383 . S
C58 C63 1.385 . S
C59 H40 0.947 . S
C59 C58 1.383 . S
C59 C60 1.388 . S
C60 H41 0.946 . S
C60 C59 1.388 . S
C60 C61 1.384 . S
C61 C60 1.384 . S
C61 C62 1.377 . S
C62 H42 0.953 . S
C62 C61 1.377 . S
C62 C63 1.369 . S
C63 H43 0.945 . S
C63 C58 1.385 . S
C63 C62 1.369 . S
C64 C56 1.457 . S
C64 C65 1.372 . S
C64 C69 1.364 . S
C65 H44 0.952 . S
C65 C64 1.372 . S
C65 C66 1.389 . S
C66 H45 0.949 . S
C66 C65 1.389 . S
C66 C67 1.387 . S
C67 C66 1.387 . S
C67 C68 1.372 . S
C68 H46 0.950 . S
C68 C67 1.372 . S
C68 C69 1.379 . S
C69 H47 0.948 . S
C69 C64 1.364 . S
C69 C68 1.379 . S
C70 C39 1.383 . S
C70 C57 1.479 . S
C70 C71 1.398 . S
C71 C36 1.382 . S
C71 H48 0.951 . S
C71 C70 1.398 . S
C72 C73 1.384 . S
C72 H85 0.947 . S
C72 C107 1.382 . S
C73 C72 1.384 . S
C73 C74 1.378 . S
C74 C73 1.378 . S
C74 C75 1.378 . S
C74 H86 0.952 . S
C75 C74 1.378 . S
C75 H87 0.950 . S
C75 C106 1.383 . S
H76 C95 0.947 1_556 S
H77 C96 0.946 1_556 S
H78 C98 0.953 . S
H79 C99 0.945 . S
H80 C101 0.952 . S
H81 C102 0.949 . S
H82 C104 0.950 . S
H83 C105 0.948 . S
H84 C107 0.951 1_554 S
H85 C72 0.947 . S
H86 C74 0.952 . S
H87 C75 0.950 . S
N88 C91 1.382 . S
N88 C93 1.363 . S
N89 C91 1.371 . S
N89 C92 1.372 . S
N90 C92 1.361 . S
N90 C93 1.377 . S
C91 N88 1.382 . S
C91 N89 1.371 . S
C91 C94 1.480 . S
C92 N89 1.372 . S
C92 N90 1.361 . S
C92 C100 1.457 . S
C93 N88 1.363 . S
C93 N90 1.377 . S
C93 C106 1.479 1_554 S
C94 C91 1.480 . S
C94 C95 1.383 . S
C94 C99 1.385 . S
C95 H76 0.947 1_554 S
C95 C94 1.383 . S
C95 C96 1.388 . S
C96 H77 0.946 1_554 S
C96 C95 1.388 . S
C96 C97 1.384 . S
C97 C96 1.384 . S
C97 C98 1.377 . S
C98 H78 0.953 . S
C98 C97 1.377 . S
C98 C99 1.369 . S
C99 H79 0.945 . S
C99 C94 1.385 . S
C99 C98 1.369 . S
C100 C92 1.457 . S
C100 C101 1.372 . S
C100 C105 1.364 . S
C101 H80 0.952 . S
C101 C100 1.372 . S
C101 C102 1.389 . S
C102 H81 0.949 . S
C102 C101 1.389 . S
C102 C103 1.387 . S
C103 C102 1.387 . S
C103 C104 1.372 . S
C104 H82 0.950 . S
C104 C103 1.372 . S
C104 C105 1.379 . S
C105 H83 0.948 . S
C105 C100 1.364 . S
C105 C104 1.379 . S
C106 C75 1.383 . S
C106 C93 1.479 1_556 S
C106 C107 1.398 . S
C107 C72 1.382 . S
C107 H84 0.951 1_556 S
C107 C106 1.398 . S
C108 C109 1.384 . S
C108 H121 0.947 . S
C108 C143 1.382 . S
C109 C108 1.384 . S
C109 C110 1.378 . S
C110 C109 1.378 . S
C110 C111 1.378 . S
C110 H122 0.952 . S
C111 C110 1.378 . S
C111 H123 0.950 . S
C111 C142 1.383 . S
H112 C131 0.947 . S
H113 C132 0.946 . S
H114 C134 0.953 . S
H115 C135 0.945 . S
H116 C137 0.952 . S
H117 C138 0.949 . S
H118 C140 0.950 . S
H119 C141 0.948 . S
H120 C143 0.951 . S
H121 C108 0.947 . S
H122 C110 0.952 . S
H123 C111 0.950 . S
N124 C127 1.382 . S
N124 C129 1.363 . S
N125 C127 1.371 . S
N125 C128 1.372 . S
N126 C128 1.361 . S
N126 C129 1.377 . S
C127 N124 1.382 . S
C127 N125 1.371 . S
C127 C130 1.480 . S
C128 N125 1.372 . S
C128 N126 1.361 . S
C128 C136 1.457 . S
C129 N124 1.363 . S
C129 N126 1.377 . S
C129 C142 1.479 . S
C130 C127 1.480 . S
C130 C131 1.383 . S
C130 C135 1.385 . S
C131 H112 0.947 . S
C131 C130 1.383 . S
C131 C132 1.388 . S
C132 H113 0.946 . S
C132 C131 1.388 . S
C132 C133 1.384 . S
C133 C132 1.384 . S
C133 C134 1.377 . S
C134 H114 0.953 . S
C134 C133 1.377 . S
C134 C135 1.369 . S
C135 H115 0.945 . S
C135 C130 1.385 . S
C135 C134 1.369 . S
C136 C128 1.457 . S
C136 C137 1.372 . S
C136 C141 1.364 . S
C137 H116 0.952 . S
C137 C136 1.372 . S
C137 C138 1.389 . S
C138 H117 0.949 . S
C138 C137 1.389 . S
C138 C139 1.387 . S
C139 C138 1.387 . S
C139 C140 1.372 . S
C140 H118 0.950 . S
C140 C139 1.372 . S
C140 C141 1.379 . S
C141 H119 0.948 . S
C141 C136 1.364 . S
C141 C140 1.379 . S
C142 C111 1.383 . S
C142 C129 1.479 . S
C142 C143 1.398 . S
C143 C108 1.382 . S
C143 H120 0.951 . S
C143 C142 1.398 . S
C144 C146 1.422 . S
C144 C148 1.415 . S
C144 N150 1.369 . S
C145 C146 1.421 . S
C145 C147 1.417 . S
C145 C157 1.422 . S
C146 C144 1.422 . S
C146 C145 1.421 . S
C146 N156 1.359 . S
C147 C145 1.417 . S
C147 C149 1.329 . S
C147 H166 0.930 . S
C148 C144 1.415 . S
C148 C149 1.437 . S
C148 C152 1.413 . S
C149 C147 1.329 . S
C149 C148 1.437 . S
C149 H171 0.929 . S
N150 C144 1.369 . S
N150 C151 1.338 . S
N150 Gd155 2.622 . S
C151 N150 1.338 . S
C151 C153 1.378 . S
C151 H163 0.929 1_655 S
C152 C148 1.413 . S
C152 C153 1.348 . S
C152 H168 0.931 . S
C153 C151 1.378 . S
C153 C152 1.348 . S
C153 H169 0.930 1_655 S
Gd154 N174 2.622 . S
Gd154 N181 2.570 . S
Gd154 O188 2.345 1_465 S
Gd154 O189 2.468 . S
Gd154 O190 2.427 . S
Gd154 O192 2.388 1_455 S
Gd154 O193 2.386 . S
Gd154 O197 2.307 1_565 S
Gd154 C207 2.805 . S
Gd155 N150 2.622 . S
Gd155 N156 2.570 . S
Gd155 O187 2.386 . S
Gd155 O191 2.307 1_545 S
Gd155 O194 2.353 1_655 S
Gd155 O195 2.468 . S
Gd155 O196 2.427 . S
Gd155 O198 2.388 1_655 S
Gd155 C219 2.805 . S
N156 C146 1.359 . S
N156 Gd155 2.570 . S
N156 C158 1.343 . S
C157 C145 1.422 . S
C157 C159 1.321 . S
C157 H165 0.931 . S
C158 N156 1.343 . S
C158 C159 1.390 . S
C158 H160 0.931 . S
C159 C157 1.321 . S
C159 C158 1.390 . S
C159 H161 0.930 . S
H160 C158 0.931 . S
H161 C159 0.930 . S
H162 C185 0.931 . S
H163 C151 0.929 1_455 S
H164 C186 0.930 . S
H165 C157 0.931 . S
H166 C147 0.930 . S
H167 C176 0.929 1_655 S
H168 C152 0.931 . S
H169 C153 0.930 1_455 S
H170 C208 0.930 . S
H171 C149 0.929 . S
H172 C177 0.931 . S
H173 C178 0.930 1_655 S
N174 Gd154 2.622 . S
N174 C175 1.369 . S
N174 C176 1.338 . S
C175 N174 1.369 . S
C175 C179 1.415 . S
C175 C182 1.422 . S
C176 H167 0.929 1_455 S
C176 N174 1.338 . S
C176 C178 1.378 . S
C177 H172 0.931 . S
C177 C178 1.348 . S
C177 C179 1.413 . S
C178 H173 0.930 1_455 S
C178 C176 1.378 . S
C178 C177 1.348 . S
C179 C175 1.415 . S
C179 C177 1.413 . S
C179 C209 1.437 . S
H180 C209 0.929 . S
N181 Gd154 2.570 . S
N181 C182 1.359 . S
N181 C185 1.343 . S
C182 C175 1.422 . S
C182 N181 1.359 . S
C182 C184 1.421 . S
C183 C184 1.422 . S
C183 C186 1.321 . S
C183 H210 0.931 . S
C184 C182 1.421 . S
C184 C183 1.422 . S
C184 C208 1.417 . S
C185 H162 0.931 . S
C185 N181 1.343 . S
C185 C186 1.390 . S
C186 H164 0.930 . S
C186 C183 1.321 . S
C186 C185 1.390 . S
O187 Gd155 2.386 . S
O187 C199 1.265 . S
O188 Gd154 2.345 1_645 S
O188 C199 1.256 . S
O189 Gd154 2.468 . S
O189 C207 1.263 . S
O190 Gd154 2.427 . S
O190 C207 1.252 . S
O191 Gd155 2.307 1_565 S
O191 C200 1.261 . S
O192 Gd154 2.388 1_655 S
O192 C200 1.252 . S
O193 Gd154 2.386 . S
O193 C211 1.265 . S
O194 Gd155 2.353 1_455 S
O194 C211 1.242 1_545 S
O195 Gd155 2.468 . S
O195 C219 1.263 . S
O196 Gd155 2.427 . S
O196 C219 1.252 . S
O197 Gd154 2.307 1_545 S
O197 C212 1.261 . S
O198 Gd155 2.388 1_455 S
O198 C212 1.252 . S
C199 O187 1.265 . S
C199 O188 1.256 . S
C200 O191 1.261 . S
C200 O192 1.252 . S
C201 C204 1.394 . S
C201 C206 1.370 . S
C201 C207 1.500 . S
C202 C205 1.383 . S
C202 C206 1.395 . S
C203 C204 1.396 . S
C203 C205 1.365 . S
C203 H220 0.929 . S
C204 C201 1.394 . S
C204 C203 1.396 . S
C204 H221 0.930 . S
C205 C202 1.383 . S
C205 C203 1.365 . S
C205 H222 0.931 . S
C206 C201 1.370 . S
C206 C202 1.395 . S
C206 H223 0.930 . S
C207 Gd154 2.805 . S
C207 O189 1.263 . S
C207 O190 1.252 . S
C207 C201 1.500 . S
C208 H170 0.930 . S
C208 C184 1.417 . S
C208 C209 1.329 . S
C209 C179 1.437 . S
C209 H180 0.929 . S
C209 C208 1.329 . S
H210 C183 0.931 . S
C211 O193 1.265 . S
C211 O194 1.242 1_565 S
C212 O197 1.261 . S
C212 O198 1.252 . S
C213 C216 1.394 . S
C213 C218 1.370 . S
C213 C219 1.500 . S
C214 C217 1.383 . S
C214 C218 1.395 . S
C215 C216 1.396 . S
C215 C217 1.365 . S
C215 H224 0.929 . S
C216 C213 1.394 . S
C216 C215 1.396 . S
C216 H225 0.930 . S
C217 C214 1.383 . S
C217 C215 1.365 . S
C217 H226 0.931 . S
C218 C213 1.370 . S
C218 C214 1.395 . S
C218 H227 0.930 . S
C219 Gd155 2.805 . S
C219 O195 1.263 . S
C219 O196 1.252 . S
C219 C213 1.500 . S
H220 C203 0.929 . S
H221 C204 0.930 . S
H222 C205 0.931 . S
H223 C206 0.930 . S
H224 C215 0.929 . S
H225 C216 0.930 . S
H226 C217 0.931 . S
H227 C218 0.930 . S
C228 C230 1.422 . S
C228 C232 1.415 . S
C228 N234 1.369 . S
C229 C230 1.421 . S
C229 C231 1.417 . S
C229 C241 1.422 . S
C230 C228 1.422 . S
C230 C229 1.421 . S
C230 N240 1.359 . S
C231 C229 1.417 . S
C231 C233 1.329 . S
C231 H250 0.930 . S
C232 C228 1.415 . S
C232 C233 1.437 . S
C232 C236 1.413 . S
C233 C231 1.329 . S
C233 C232 1.437 . S
C233 H255 0.929 . S
N234 C228 1.369 . S
N234 C235 1.338 . S
N234 Gd239 2.622 . S
C235 N234 1.338 . S
C235 C237 1.378 . S
C235 H247 0.929 . S
C236 C232 1.413 . S
C236 C237 1.348 . S
C236 H252 0.931 . S
C237 C235 1.378 . S
C237 C236 1.348 . S
C237 H253 0.930 . S
Gd238 N258 2.621 1_556 S
Gd238 N265 2.570 1_556 S
Gd238 O272 2.353 . S
Gd238 O273 2.468 . S
Gd238 O274 2.427 . S
Gd238 O276 2.388 1_556 S
Gd238 O277 2.386 1_556 S
Gd238 O281 2.307 1_556 S
Gd238 C291 2.805 . S
Gd239 N234 2.622 . S
Gd239 N240 2.570 . S
Gd239 O271 2.386 . S
Gd239 O275 2.307 . S
Gd239 O278 2.353 . S
Gd239 O279 2.468 . S
Gd239 O280 2.427 . S
Gd239 O282 2.388 . S
Gd239 C303 2.805 . S
N240 C230 1.359 . S
N240 Gd239 2.570 . S
N240 C242 1.343 . S
C241 C229 1.422 . S
C241 C243 1.321 . S
C241 H249 0.931 . S
C242 N240 1.343 . S
C242 C243 1.390 . S
C242 H244 0.931 . S
C243 C241 1.321 . S
C243 C242 1.390 . S
C243 H245 0.930 . S
H244 C242 0.931 . S
H245 C243 0.930 . S
H246 C269 0.931 . S
H247 C235 0.929 . S
H248 C270 0.930 . S
H249 C241 0.931 . S
H250 C231 0.930 . S
H251 C260 0.929 . S
H252 C236 0.931 . S
H253 C237 0.930 . S
H254 C292 0.930 . S
H255 C233 0.929 . S
H256 C261 0.931 . S
H257 C262 0.930 . S
N258 Gd238 2.621 1_554 S
N258 C259 1.369 . S
N258 C260 1.338 1_554 S
C259 N258 1.369 . S
C259 C263 1.415 . S
C259 C266 1.422 . S
C260 H251 0.929 . S
C260 N258 1.338 1_556 S
C260 C262 1.378 . S
C261 H256 0.931 . S
C261 C262 1.348 1_554 S
C261 C263 1.413 . S
C262 H257 0.930 . S
C262 C260 1.378 . S
C262 C261 1.348 1_556 S
C263 C259 1.415 . S
C263 C261 1.413 . S
C263 C293 1.437 . S
H264 C293 0.929 . S
N265 Gd238 2.570 1_554 S
N265 C266 1.359 . S
N265 C269 1.343 . S
C266 C259 1.422 . S
C266 N265 1.359 . S
C266 C268 1.421 . S
C267 C268 1.422 . S
C267 C270 1.321 . S
C267 H294 0.931 . S
C268 C266 1.421 . S
C268 C267 1.422 . S
C268 C292 1.417 . S
C269 H246 0.931 . S
C269 N265 1.343 . S
C269 C270 1.390 . S
C270 H248 0.930 . S
C270 C267 1.321 . S
C270 C269 1.390 . S
O271 Gd239 2.386 . S
O271 C283 1.265 1_554 S
O272 Gd238 2.353 . S
O272 C283 1.242 . S
O273 Gd238 2.468 . S
O273 C291 1.263 . S
O274 Gd238 2.427 . S
O274 C291 1.252 . S
O275 Gd239 2.307 . S
O275 C284 1.261 . S
O276 Gd238 2.388 1_554 S
O276 C284 1.252 . S
O277 Gd238 2.386 1_554 S
O277 C295 1.265 . S
O278 Gd239 2.353 . S
O278 C295 1.242 . S
O279 Gd239 2.468 . S
O279 C303 1.263 . S
O280 Gd239 2.427 . S
O280 C303 1.252 . S
O281 Gd238 2.307 1_554 S
O281 C296 1.261 . S
O282 Gd239 2.388 . S
O282 C296 1.252 . S
C283 O271 1.265 1_556 S
C283 O272 1.242 . S
C284 O275 1.261 . S
C284 O276 1.252 . S
C285 C288 1.394 . S
C285 C290 1.370 . S
C285 C291 1.500 . S
C286 C289 1.383 . S
C286 C290 1.395 . S
C287 C288 1.396 . S
C287 C289 1.365 . S
C287 H304 0.929 . S
C288 C285 1.394 . S
C288 C287 1.396 . S
C288 H305 0.930 . S
C289 C286 1.383 . S
C289 C287 1.365 . S
C289 H306 0.931 . S
C290 C285 1.370 . S
C290 C286 1.395 . S
C290 H307 0.930 . S
C291 Gd238 2.805 . S
C291 O273 1.263 . S
C291 O274 1.252 . S
C291 C285 1.500 . S
C292 H254 0.930 . S
C292 C268 1.417 . S
C292 C293 1.329 . S
C293 C263 1.437 . S
C293 H264 0.929 . S
C293 C292 1.329 . S
H294 C267 0.931 . S
C295 O277 1.265 . S
C295 O278 1.242 . S
C296 O281 1.261 . S
C296 O282 1.252 . S
C297 C300 1.394 . S
C297 C302 1.370 . S
C297 C303 1.500 . S
C298 C301 1.383 . S
C298 C302 1.395 . S
C299 C300 1.396 . S
C299 C301 1.365 . S
C299 H308 0.929 . S
C300 C297 1.394 . S
C300 C299 1.396 . S
C300 H309 0.930 . S
C301 C298 1.383 . S
C301 C299 1.365 . S
C301 H310 0.931 . S
C302 C297 1.370 . S
C302 C298 1.395 . S
C302 H311 0.930 . S
C303 Gd239 2.805 . S
C303 O279 1.263 . S
C303 O280 1.252 . S
C303 C297 1.500 . S
H304 C287 0.929 . S
H305 C288 0.930 . S
H306 C289 0.931 . S
H307 C290 0.930 . S
H308 C299 0.929 . S
H309 C300 0.930 . S
H310 C301 0.931 . S
H311 C302 0.930 . S
C312 C313 1.363 . S
C312 C318 1.379 . S
C312 N320 1.356 . S
C313 C312 1.363 . S
C313 C319 1.363 . S
C314 C315 1.363 . S
C314 C319 1.379 . S
C314 N321 1.356 . S
C315 C314 1.363 . S
C315 C318 1.363 . S
N316 C318 1.356 . S
N316 H328 0.984 . S
N316 H329 0.985 . S
N317 C319 1.356 . S
N317 H322 0.984 . S
N317 H323 0.985 . S
C318 C312 1.379 . S
C318 C315 1.363 . S
C318 N316 1.356 . S
C319 C313 1.363 . S
C319 C314 1.379 . S
C319 N317 1.356 . S
N320 C312 1.356 . S
N320 H326 0.984 . S
N320 H327 0.984 . S
N321 C314 1.356 . S
N321 H324 0.984 . S
N321 H325 0.985 . S
H322 N317 0.984 . S
H323 N317 0.985 . S
H324 N321 0.984 . S
H325 N321 0.985 . S
H326 N320 0.984 . S
H327 N320 0.984 . S
H328 N316 0.984 . S
H329 N316 0.985 . S
C330 C331 1.363 . S
C330 C336 1.379 . S
C330 N338 1.356 . S
C331 C330 1.363 . S
C331 C337 1.363 . S
C332 C333 1.363 . S
C332 C337 1.379 . S
C332 N339 1.356 1_554 S
C333 C332 1.363 . S
C333 C336 1.363 . S
N334 C336 1.356 . S
N334 H346 0.984 . S
N334 H347 0.985 . S
N335 C337 1.356 1_556 S
N335 H340 0.984 . S
N335 H341 0.985 . S
C336 C330 1.379 . S
C336 C333 1.363 . S
C336 N334 1.356 . S
C337 C331 1.363 . S
C337 C332 1.379 . S
C337 N335 1.356 1_554 S
N338 C330 1.356 . S
N338 H344 0.984 . S
N338 H345 0.984 . S
N339 C332 1.356 1_556 S
N339 H342 0.984 . S
N339 H343 0.985 . S
H340 N335 0.984 . S
H341 N335 0.985 . S
H342 N339 0.984 . S
H343 N339 0.985 . S
H344 N338 0.984 . S
H345 N338 0.984 . S
H346 N334 0.984 . S
H347 N334 0.985 . S
C348 C349 1.363 . S
C348 C354 1.379 . S
C348 N356 1.356 . S
C349 C348 1.363 . S
C349 C355 1.363 . S
C350 C351 1.363 . S
C350 C355 1.379 . S
C350 N357 1.356 . S
C351 C350 1.363 . S
C351 C354 1.363 . S
N352 C354 1.356 . S
N352 H364 0.984 . S
N352 H365 0.985 . S
N353 C355 1.356 . S
N353 H358 0.984 . S
N353 H359 0.985 . S
C354 C348 1.379 . S
C354 C351 1.363 . S
C354 N352 1.356 . S
C355 C349 1.363 . S
C355 C350 1.379 . S
C355 N353 1.356 . S
N356 C348 1.356 . S
N356 H362 0.984 . S
N356 H363 0.984 . S
N357 C350 1.356 . S
N357 H360 0.984 . S
N357 H361 0.985 . S
H358 N353 0.984 . S
H359 N353 0.985 . S
H360 N357 0.984 . S
H361 N357 0.985 . S
H362 N356 0.984 . S
H363 N356 0.984 . S
H364 N352 0.984 . S
H365 N352 0.985 . S
C366 C367 1.363 1_556 S
C366 C372 1.379 1_556 S
C366 N374 1.356 . S
C367 C366 1.363 1_554 S
C367 C373 1.363 . S
C368 C369 1.363 . S
C368 C373 1.379 . S
C368 N375 1.356 . S
C369 C368 1.363 . S
C369 C372 1.363 . S
N370 C372 1.356 1_556 S
N370 H382 0.984 . S
N370 H383 0.985 . S
N371 C373 1.356 . S
N371 H376 0.984 . S
N371 H377 0.985 . S
C372 C366 1.379 1_554 S
C372 C369 1.363 . S
C372 N370 1.356 1_554 S
C373 C367 1.363 . S
C373 C368 1.379 . S
C373 N371 1.356 . S
N374 C366 1.356 . S
N374 H380 0.984 . S
N374 H381 0.984 . S
N375 C368 1.356 . S
N375 H378 0.984 . S
N375 H379 0.985 . S
H376 N371 0.984 . S
H377 N371 0.985 . S
H378 N375 0.984 . S
H379 N375 0.985 . S
H380 N374 0.984 . S
H381 N374 0.984 . S
H382 N370 0.984 . S
H383 N370 0.985 . S
C384 C385 1.363 . S
C384 C390 1.379 . S
C384 N392 1.356 . S
C385 C384 1.363 . S
C385 C391 1.363 . S
C386 C387 1.363 . S
C386 C391 1.379 . S
C386 N393 1.356 . S
C387 C386 1.363 . S
C387 C390 1.363 . S
N388 C390 1.356 1_545 S
N388 H400 0.984 . S
N388 H401 0.985 . S
N389 C391 1.356 . S
N389 H394 0.984 . S
N389 H395 0.985 . S
C390 C384 1.379 . S
C390 C387 1.363 . S
C390 N388 1.356 1_565 S
C391 C385 1.363 . S
C391 C386 1.379 . S
C391 N389 1.356 . S
N392 C384 1.356 . S
N392 H398 0.984 1_565 S
N392 H399 0.984 . S
N393 C386 1.356 . S
N393 H396 0.984 . S
N393 H397 0.985 . S
H394 N389 0.984 . S
H395 N389 0.985 . S
H396 N393 0.984 . S
H397 N393 0.985 . S
H398 N392 0.984 1_545 S
H399 N392 0.984 . S
H400 N388 0.984 . S
H401 N388 0.985 . S
C402 C403 1.363 . S
C402 C408 1.379 . S
C402 N410 1.356 . S
C403 C402 1.363 . S
C403 C409 1.363 . S
C404 C405 1.363 . S
C404 C409 1.379 . S
C404 N411 1.356 . S
C405 C404 1.363 . S
C405 C408 1.363 . S
N406 C408 1.356 . S
N406 H418 0.984 . S
N406 H419 0.985 . S
N407 C409 1.356 . S
N407 H412 0.984 . S
N407 H413 0.985 . S
C408 C402 1.379 . S
C408 C405 1.363 . S
C408 N406 1.356 . S
C409 C403 1.363 . S
C409 C404 1.379 . S
C409 N407 1.356 . S
N410 C402 1.356 . S
N410 H416 0.984 . S
N410 H417 0.984 . S
N411 C404 1.356 . S
N411 H414 0.984 . S
N411 H415 0.985 . S
H412 N407 0.984 . S
H413 N407 0.985 . S
H414 N411 0.984 . S
H415 N411 0.985 . S
H416 N410 0.984 . S
H417 N410 0.984 . S
H418 N406 0.984 . S
H419 N406 0.985 . S
C420 C421 1.363 . S
C420 C426 1.379 . S
C420 N428 1.356 1_545 S
C421 C420 1.363 . S
C421 C427 1.363 . S
C422 C423 1.363 . S
C422 C427 1.379 . S
C422 N429 1.356 . S
C423 C422 1.363 . S
C423 C426 1.363 . S
N424 C426 1.356 1_565 S
N424 H436 0.984 . S
N424 H437 0.985 . S
N425 C427 1.356 . S
N425 H430 0.984 . S
N425 H431 0.985 . S
C426 C420 1.379 . S
C426 C423 1.363 . S
C426 N424 1.356 1_545 S
C427 C421 1.363 . S
C427 C422 1.379 . S
C427 N425 1.356 . S
N428 C420 1.356 1_565 S
N428 H434 0.984 . S
N428 H435 0.984 1_565 S
N429 C422 1.356 . S
N429 H432 0.984 . S
N429 H433 0.985 . S
H430 N425 0.984 . S
H431 N425 0.985 . S
H432 N429 0.984 . S
H433 N429 0.985 . S
H434 N428 0.984 . S
H435 N428 0.984 1_545 S
H436 N424 0.984 . S
H437 N424 0.985 . S
C438 C439 1.363 . S
C438 C444 1.379 . S
C438 N446 1.356 . S
C439 C438 1.363 . S
C439 C445 1.363 . S
C440 C441 1.363 . S
C440 C445 1.379 . S
C440 N447 1.356 . S
C441 C440 1.363 . S
C441 C444 1.363 . S
N442 C444 1.356 . S
N442 H454 0.984 . S
N442 H455 0.985 . S
N443 C445 1.356 . S
N443 H448 0.984 . S
N443 H449 0.985 . S
C444 C438 1.379 . S
C444 C441 1.363 . S
C444 N442 1.356 . S
C445 C439 1.363 . S
C445 C440 1.379 . S
C445 N443 1.356 . S
N446 C438 1.356 . S
N446 H452 0.984 . S
N446 H453 0.984 . S
N447 C440 1.356 . S
N447 H450 0.984 . S
N447 H451 0.985 . S
H448 N443 0.984 . S
H449 N443 0.985 . S
H450 N447 0.984 . S
H451 N447 0.985 . S
H452 N446 0.984 . S
H453 N446 0.984 . S
H454 N442 0.984 . S
H455 N442 0.985 . S
C456 C457 1.363 . S
C456 C462 1.379 . S
C456 N464 1.356 . S
C457 C456 1.363 . S
C457 C463 1.363 . S
C458 C459 1.363 . S
C458 C463 1.379 . S
C458 N465 1.356 . S
C459 C458 1.363 . S
C459 C462 1.363 . S
N460 C462 1.356 . S
N460 H472 0.984 . S
N460 H473 0.985 . S
N461 C463 1.356 . S
N461 H466 0.984 . S
N461 H467 0.985 . S
C462 C456 1.379 . S
C462 C459 1.363 . S
C462 N460 1.356 . S
C463 C457 1.363 . S
C463 C458 1.379 . S
C463 N461 1.356 . S
N464 C456 1.356 . S
N464 H470 0.984 . S
N464 H471 0.984 . S
N465 C458 1.356 . S
N465 H468 0.984 . S
N465 H469 0.985 . S
H466 N461 0.984 . S
H467 N461 0.985 . S
H468 N465 0.984 . S
H469 N465 0.985 . S
H470 N464 0.984 . S
H471 N464 0.984 . S
H472 N460 0.984 . S
H473 N460 0.985 . S
C474 C475 1.363 . S
C474 C480 1.379 . S
C474 N482 1.356 . S
C475 C474 1.363 . S
C475 C481 1.363 . S
C476 C477 1.363 . S
C476 C481 1.379 . S
C476 N483 1.356 . S
C477 C476 1.363 . S
C477 C480 1.363 . S
N478 C480 1.356 . S
N478 H490 0.984 . S
N478 H491 0.985 . S
N479 C481 1.356 . S
N479 H484 0.984 . S
N479 H485 0.985 1_545 S
C480 C474 1.379 . S
C480 C477 1.363 . S
C480 N478 1.356 . S
C481 C475 1.363 . S
C481 C476 1.379 . S
C481 N479 1.356 . S
N482 C474 1.356 . S
N482 H488 0.984 . S
N482 H489 0.984 . S
N483 C476 1.356 . S
N483 H486 0.984 . S
N483 H487 0.985 1_545 S
H484 N479 0.984 . S
H485 N479 0.985 1_565 S
H486 N483 0.984 . S
H487 N483 0.985 1_565 S
H488 N482 0.984 . S
H489 N482 0.984 . S
H490 N478 0.984 . S
H491 N478 0.985 . S
C492 C493 1.363 . S
C492 C498 1.379 . S
C492 N500 1.356 . S
C493 C492 1.363 . S
C493 C499 1.363 . S
C494 C495 1.363 . S
C494 C499 1.379 . S
C494 N501 1.356 . S
C495 C494 1.363 . S
C495 C498 1.363 . S
N496 C498 1.356 . S
N496 H508 0.984 . S
N496 H509 0.985 . S
N497 C499 1.356 . S
N497 H502 0.984 . S
N497 H503 0.985 . S
C498 C492 1.379 . S
C498 C495 1.363 . S
C498 N496 1.356 . S
C499 C493 1.363 . S
C499 C494 1.379 . S
C499 N497 1.356 . S
N500 C492 1.356 . S
N500 H506 0.984 . S
N500 H507 0.984 . S
N501 C494 1.356 . S
N501 H504 0.984 . S
N501 H505 0.985 . S
H502 N497 0.984 . S
H503 N497 0.985 . S
H504 N501 0.984 . S
H505 N501 0.985 . S
H506 N500 0.984 . S
H507 N500 0.984 . S
H508 N496 0.984 . S
H509 N496 0.985 . S
C510 C511 1.363 . S
C510 C516 1.379 . S
C510 N518 1.356 1_565 S
C511 C510 1.363 . S
C511 C517 1.363 . S
C512 C513 1.363 . S
C512 C517 1.379 . S
C512 N519 1.356 . S
C513 C512 1.363 . S
C513 C516 1.363 . S
N514 C516 1.356 1_545 S
N514 H526 0.984 . S
N514 H527 0.985 . S
N515 C517 1.356 . S
N515 H520 0.984 . S
N515 H521 0.985 . S
C516 C510 1.379 . S
C516 C513 1.363 . S
C516 N514 1.356 1_565 S
C517 C511 1.363 . S
C517 C512 1.379 . S
C517 N515 1.356 . S
N518 C510 1.356 1_545 S
N518 H524 0.984 . S
N518 H525 0.984 . S
N519 C512 1.356 . S
N519 H522 0.984 . S
N519 H523 0.985 . S
H520 N515 0.984 . S
H521 N515 0.985 . S
H522 N519 0.984 . S
H523 N519 0.985 . S
H524 N518 0.984 . S
H525 N518 0.984 . S
H526 N514 0.984 . S
H527 N514 0.985 . S
C315 C212 1.673 . S
C313 C133 1.666 . S
C331 C25 1.650 . S
C333 C284 1.660 . S
C349 C61 1.637 . S
C351 C200 1.673 . S
C367 C97 1.599 . S
C369 C296 1.660 . S
C387 C202 1.426 . S
C385 C1 1.557 . S
C405 C283 1.630 . S
C403 C67 1.584 . S
C421 C103 1.599 . S
C423 C199 1.665 . S
C439 C109 1.533 . S
C441 C286 1.409 . S
C459 C298 1.409 . S
C457 C37 1.522 . S
C477 C214 1.426 . S
C475 C73 1.537 . S
C495 C295 1.630 . S
C493 C139 1.613 . S
C511 C31 1.651 . S
C513 C211 1.665 . S
