# Generated by pormake.
# Topology nom, (4,4)-cn, num edge types: 1
# Building blocks:
#     Node 0, Type 0, BuildingBlock: AZAVOO_clean_linker_0, # of connection points: 4
#     Node 1, Type 0, BuildingBlock: AZAVOO_clean_linker_0, # of connection points: 4
#     Node 2, Type 0, BuildingBlock: AZAVOO_clean_linker_0, # of connection points: 4
#     Node 3, Type 0, BuildingBlock: AZAVOO_clean_linker_0, # of connection points: 4
#     Node 4, Type 0, BuildingBlock: AZAVOO_clean_linker_0, # of connection points: 4
#     Node 5, Type 0, BuildingBlock: AZAVOO_clean_linker_0, # of connection points: 4
#     Node 6, Type 1, BuildingBlock: TATPOV_clean_sbu_0, # of connection points: 4
#     Node 7, Type 1, BuildingBlock: TATPOV_clean_sbu_0, # of connection points: 4
#     Node 8, Type 1, BuildingBlock: TATPOV_clean_sbu_0, # of connection points: 4
#     Node 9, Type 1, BuildingBlock: TATPOV_clean_sbu_0, # of connection points: 4
#     Node 10, Type 1, BuildingBlock: TATPOV_clean_sbu_0, # of connection points: 4
#     Node 11, Type 1, BuildingBlock: TATPOV_clean_sbu_0, # of connection points: 4
#     Edge 12, Type (0, 1), BuildingBlock: EZIPEK_clean_linker_0, # of connection points: 2
#     Edge 13, Type (0, 1), BuildingBlock: EZIPEK_clean_linker_0, # of connection points: 2
#     Edge 14, Type (0, 1), BuildingBlock: EZIPEK_clean_linker_0, # of connection points: 2
#     Edge 15, Type (0, 1), BuildingBlock: EZIPEK_clean_linker_0, # of connection points: 2
#     Edge 16, Type (0, 1), BuildingBlock: EZIPEK_clean_linker_0, # of connection points: 2
#     Edge 17, Type (0, 1), BuildingBlock: EZIPEK_clean_linker_0, # of connection points: 2
#     Edge 18, Type (0, 1), BuildingBlock: EZIPEK_clean_linker_0, # of connection points: 2
#     Edge 19, Type (0, 1), BuildingBlock: EZIPEK_clean_linker_0, # of connection points: 2
#     Edge 20, Type (0, 1), BuildingBlock: EZIPEK_clean_linker_0, # of connection points: 2
#     Edge 21, Type (0, 1), BuildingBlock: EZIPEK_clean_linker_0, # of connection points: 2
#     Edge 22, Type (0, 1), BuildingBlock: EZIPEK_clean_linker_0, # of connection points: 2
#     Edge 23, Type (0, 1), BuildingBlock: EZIPEK_clean_linker_0, # of connection points: 2
#     Edge 24, Type (0, 1), BuildingBlock: EZIPEK_clean_linker_0, # of connection points: 2
#     Edge 25, Type (0, 1), BuildingBlock: EZIPEK_clean_linker_0, # of connection points: 2
#     Edge 26, Type (0, 1), BuildingBlock: EZIPEK_clean_linker_0, # of connection points: 2
#     Edge 27, Type (0, 1), BuildingBlock: EZIPEK_clean_linker_0, # of connection points: 2
#     Edge 28, Type (0, 1), BuildingBlock: EZIPEK_clean_linker_0, # of connection points: 2
#     Edge 29, Type (0, 1), BuildingBlock: EZIPEK_clean_linker_0, # of connection points: 2
#     Edge 30, Type (0, 1), BuildingBlock: EZIPEK_clean_linker_0, # of connection points: 2
#     Edge 31, Type (0, 1), BuildingBlock: EZIPEK_clean_linker_0, # of connection points: 2
#     Edge 32, Type (0, 1), BuildingBlock: EZIPEK_clean_linker_0, # of connection points: 2
#     Edge 33, Type (0, 1), BuildingBlock: EZIPEK_clean_linker_0, # of connection points: 2
#     Edge 34, Type (0, 1), BuildingBlock: EZIPEK_clean_linker_0, # of connection points: 2
#     Edge 35, Type (0, 1), BuildingBlock: EZIPEK_clean_linker_0, # of connection points: 2
# Relax obj value: 0.172
# Max RMSD: 0.230
# Mean RMSD: 0.171
data_MOF--net-nom--node1-TATPOV_clean_sbu_0--node2-AZAVOO_clean_linker_0--edge1-EZIPEK_clean_linker_0
_symmetry_space_group_name_H-M    P1
_symmetry_Int_Tables_number       1
_symmetry_cell_setting            triclinic
loop_
_symmetry_equiv_pos_as_xyz
'x, y, z'
_cell_length_a     36.971335
_cell_length_b     38.416653
_cell_length_c     47.489359
_cell_angle_alpha  90.677398
_cell_angle_beta   89.837089
_cell_angle_gamma 120.83868
loop_
_atom_site_label
_atom_site_type_symbol
_atom_site_fract_x
_atom_site_fract_y
_atom_site_fract_z
_atom_type_partial_charge
H0 H 0.09926 0.4729 0.10159 0.0
H1 H 0.29977 0.67485 0.37002 0.0
H2 H 0.98256 0.40194 0.2564 0.0
H3 H 0.93665 0.36596 0.21588 0.0
H4 H 0.93186 0.47272 0.19595 0.0
H5 H 0.97691 0.50829 0.23671 0.0
H6 H 0.08083 0.45207 0.22368 0.0
H7 H 0.09192 0.45216 0.1728 0.0
H8 H 0.06105 0.54587 0.16355 0.0
H9 H 0.05125 0.54619 0.21451 0.0
H10 H 0.15869 0.50651 0.25221 0.0
H11 H 0.23054 0.55686 0.23656 0.0
H12 H 0.19903 0.65045 0.24174 0.0
H13 H 0.12748 0.60029 0.25641 0.0
H14 H 0.14925 0.49902 0.31478 0.0
H15 H 0.21851 0.53925 0.33726 0.0
H16 H 0.20184 0.64272 0.34083 0.0
H17 H 0.13306 0.60234 0.31798 0.0
H18 H 0.05821 0.45714 0.35182 0.0
H19 H 0.08212 0.47587 0.40087 0.0
H20 H 0.08314 0.58781 0.39123 0.0
H21 H 0.05773 0.56837 0.34256 0.0
H22 H 0.96705 0.43074 0.33494 0.0
H23 H 0.90358 0.4247 0.35724 0.0
H24 H 0.92009 0.52638 0.30919 0.0
H25 H 0.98299 0.53244 0.28719 0.0
O26 O 0.09495 0.47351 0.12166 0.0
O27 O 0.07894 0.52174 0.11807 0.0
O28 O 0.27942 0.60406 0.35907 0.0
O29 O 0.27243 0.65817 0.36128 0.0
C30 C 0.02117 0.48258 0.26704 0.0
C31 C 0.06088 0.5005 0.25365 0.0
C32 C 0.09789 0.5227 0.26958 0.0
C33 C 0.09591 0.52434 0.2991 0.0
C34 C 0.05644 0.50699 0.31268 0.0
C35 C 0.01888 0.48804 0.29646 0.0
C36 C 0.98291 0.45768 0.24962 0.0
C37 C 0.96993 0.41691 0.24412 0.0
C38 C 0.94411 0.39652 0.22089 0.0
C39 C 0.93162 0.41701 0.20269 0.0
C40 C 0.94143 0.45653 0.20969 0.0
C41 C 0.96678 0.4767 0.23308 0.0
C42 C 0.06434 0.49846 0.22261 0.0
C43 C 0.07617 0.47233 0.21056 0.0
C44 C 0.08272 0.47264 0.18153 0.0
C45 C 0.07723 0.49894 0.16408 0.0
C46 C 0.06534 0.5251 0.17634 0.0
C47 C 0.05933 0.52509 0.20539 0.0
C48 C 0.13825 0.55003 0.25545 0.0
C49 C 0.1671 0.53766 0.24914 0.0
C50 C 0.20783 0.56621 0.24034 0.0
C51 C 0.21989 0.60724 0.23847 0.0
C52 C 0.19018 0.61892 0.24327 0.0
C53 C 0.14953 0.59043 0.25154 0.0
C54 C 0.13586 0.54756 0.31531 0.0
C55 C 0.16045 0.53022 0.32078 0.0
C56 C 0.20007 0.55335 0.33343 0.0
C57 C 0.2157 0.59423 0.34087 0.0
C58 C 0.19075 0.61135 0.33547 0.0
C59 C 0.15127 0.58824 0.32268 0.0
C60 C 0.05609 0.51135 0.34371 0.0
C61 C 0.06156 0.48474 0.36074 0.0
C62 C 0.07556 0.49557 0.38856 0.0
C63 C 0.08511 0.53353 0.39936 0.0
C64 C 0.07618 0.55853 0.38313 0.0
C65 C 0.06134 0.54731 0.35551 0.0
C66 C 0.97916 0.48157 0.30905 0.0
C67 C 0.9567 0.45144 0.32912 0.0
C68 C 0.9208 0.44816 0.34191 0.0
C69 C 0.9074 0.47527 0.3349 0.0
C70 C 0.92998 0.50526 0.31488 0.0
C71 C 0.96555 0.50844 0.30215 0.0
C72 C 0.08376 0.4989 0.13323 0.0
C73 C 0.25777 0.61896 0.35428 0.0
H74 H 0.58478 0.09574 0.28621 0.0
H75 H 0.54094 0.26723 0.56038 0.0
H76 H 0.55996 0.99795 0.43937 0.0
H77 H 0.55967 0.95424 0.40105 0.0
H78 H 0.4308 0.91709 0.38179 0.0
H79 H 0.43085 0.96014 0.42054 0.0
H80 H 0.58833 0.08673 0.409 0.0
H81 H 0.59969 0.09613 0.35815 0.0
H82 H 0.46534 0.04048 0.34537 0.0
H83 H 0.45459 0.03189 0.39629 0.0
H84 H 0.60204 0.15259 0.45018 0.0
H85 H 0.62459 0.22035 0.43191 0.0
H86 H 0.49629 0.18018 0.40855 0.0
H87 H 0.47373 0.11226 0.42685 0.0
H88 H 0.59101 0.13371 0.51131 0.0
H89 H 0.61046 0.19603 0.53785 0.0
H90 H 0.489 0.18098 0.5185 0.0
H91 H 0.47036 0.11925 0.49156 0.0
H92 H 0.55417 0.03127 0.52779 0.0
H93 H 0.57208 0.04958 0.57769 0.0
H94 H 0.47587 0.08102 0.58372 0.0
H95 H 0.45655 0.06084 0.5343 0.0
H96 H 0.51581 0.95591 0.48963 0.0
H97 H 0.47011 0.886 0.5065 0.0
H98 H 0.36637 0.90684 0.51315 0.0
H99 H 0.41185 0.9764 0.49668 0.0
O100 O 0.57962 0.09195 0.30625 0.0
O101 O 0.51034 0.06337 0.30084 0.0
O102 O 0.59659 0.24973 0.55876 0.0
O103 O 0.53448 0.24326 0.5495 0.0
C104 C 0.49978 0.01625 0.45007 0.0
C105 C 0.51406 0.05407 0.43708 0.0
C106 C 0.52217 0.0881 0.45343 0.0
C107 C 0.51799 0.08494 0.48293 0.0
C108 C 0.5035 0.04708 0.49606 0.0
C109 C 0.49237 0.0122 0.47941 0.0
C110 C 0.4954 0.98209 0.43265 0.0
C111 C 0.53116 0.97911 0.42761 0.0
C112 C 0.53107 0.9544 0.40576 0.0
C113 C 0.49541 0.93299 0.38848 0.0
C114 C 0.4586 0.93354 0.39492 0.0
C115 C 0.45855 0.95789 0.417 0.0
C116 C 0.52065 0.05833 0.4062 0.0
C117 C 0.56144 0.07654 0.39513 0.0
C118 C 0.56782 0.08195 0.36611 0.0
C119 C 0.53341 0.06907 0.34768 0.0
C120 C 0.49252 0.05073 0.35895 0.0
C121 C 0.48625 0.04559 0.38799 0.0
C122 C 0.5363 0.12766 0.43984 0.0
C123 C 0.57892 0.15827 0.44079 0.0
C124 C 0.59171 0.19674 0.43039 0.0
C125 C 0.56203 0.20507 0.41896 0.0
C126 C 0.51955 0.17414 0.41725 0.0
C127 C 0.50676 0.13558 0.42762 0.0
C128 C 0.52914 0.12184 0.49988 0.0
C129 C 0.56863 0.14388 0.51298 0.0
C130 C 0.57963 0.17943 0.52808 0.0
C131 C 0.55109 0.19323 0.53057 0.0
C132 C 0.51161 0.17108 0.51719 0.0
C133 C 0.50083 0.13579 0.50185 0.0
C134 C 0.5046 0.0455 0.52727 0.0
C135 C 0.53564 0.04032 0.54019 0.0
C136 C 0.54604 0.05096 0.56856 0.0
C137 C 0.52592 0.06751 0.58404 0.0
C138 C 0.49202 0.06873 0.57193 0.0
C139 C 0.48102 0.05724 0.5438 0.0
C140 C 0.46711 0.97122 0.49185 0.0
C141 C 0.48336 0.94548 0.49499 0.0
C142 C 0.4574 0.90576 0.50462 0.0
C143 C 0.41484 0.8913 0.51089 0.0
C144 C 0.39905 0.91742 0.50837 0.0
C145 C 0.42499 0.95705 0.49904 0.0
C146 C 0.54025 0.07459 0.31685 0.0
C147 C 0.56228 0.23048 0.5471 0.0
H148 H 0.58574 0.55052 0.81171 0.0
H149 H 0.59286 0.34325 0.55158 0.0
H150 H 0.56052 0.61985 0.64792 0.0
H151 H 0.56153 0.66108 0.68826 0.0
H152 H 0.44826 0.55785 0.71991 0.0
H153 H 0.44564 0.5178 0.67868 0.0
H154 H 0.59633 0.56539 0.68916 0.0
H155 H 0.60479 0.56686 0.74034 0.0
H156 H 0.47509 0.46995 0.74787 0.0
H157 H 0.46767 0.46771 0.69652 0.0
H158 H 0.61758 0.50993 0.65925 0.0
H159 H 0.63717 0.46306 0.67966 0.0
H160 H 0.50651 0.36772 0.67864 0.0
H161 H 0.48701 0.41452 0.65859 0.0
H162 H 0.62032 0.52051 0.59651 0.0
H163 H 0.64943 0.48117 0.57633 0.0
H164 H 0.52541 0.37343 0.57753 0.0
H165 H 0.4966 0.41343 0.59713 0.0
H166 H 0.59543 0.5722 0.5732 0.0
H167 H 0.62028 0.56373 0.52733 0.0
H168 H 0.49747 0.46015 0.50935 0.0
H169 H 0.47335 0.46708 0.5564 0.0
H170 H 0.53603 0.60542 0.58324 0.0
H171 H 0.49121 0.62917 0.56264 0.0
H172 H 0.38047 0.5225 0.59334 0.0
H173 H 0.42494 0.49909 0.61399 0.0
O174 O 0.58201 0.54862 0.79148 0.0
O175 O 0.51575 0.4975 0.79418 0.0
O176 O 0.64502 0.41593 0.55885 0.0
O177 O 0.58199 0.35959 0.55913 0.0
C178 C 0.51212 0.53785 0.64399 0.0
C179 C 0.52692 0.51534 0.6582 0.0
C180 C 0.53915 0.49175 0.64279 0.0
C181 C 0.53985 0.49275 0.61325 0.0
C182 C 0.5256 0.51553 0.59884 0.0
C183 C 0.50935 0.53626 0.61422 0.0
C184 C 0.50348 0.56558 0.66076 0.0
C185 C 0.53471 0.60681 0.66277 0.0
C186 C 0.53559 0.63015 0.68593 0.0
C187 C 0.50609 0.61188 0.70766 0.0
C188 C 0.47196 0.5722 0.70372 0.0
C189 C 0.4703 0.5494 0.68015 0.0
C190 C 0.53115 0.5171 0.68931 0.0
C191 C 0.56979 0.54463 0.70195 0.0
C192 C 0.57451 0.54533 0.73116 0.0
C193 C 0.54042 0.51897 0.74824 0.0
C194 C 0.50185 0.49098 0.73536 0.0
C195 C 0.49744 0.48978 0.7061 0.0
C196 C 0.55095 0.46536 0.65756 0.0
C197 C 0.59325 0.47909 0.66388 0.0
C198 C 0.60436 0.45254 0.67539 0.0
C199 C 0.57317 0.41215 0.68043 0.0
C200 C 0.53082 0.39886 0.6748 0.0
C201 C 0.51974 0.4254 0.66349 0.0
C202 C 0.55628 0.46992 0.59777 0.0
C203 C 0.59938 0.48859 0.59182 0.0
C204 C 0.61598 0.46596 0.58059 0.0
C205 C 0.58977 0.42408 0.57546 0.0
C206 C 0.54647 0.40558 0.58127 0.0
C207 C 0.52986 0.42838 0.59222 0.0
C208 C 0.53261 0.52028 0.56811 0.0
C209 C 0.57328 0.54868 0.55895 0.0
C210 C 0.58762 0.54351 0.53297 0.0
C211 C 0.56108 0.51056 0.51541 0.0
C212 C 0.51859 0.48531 0.52291 0.0
C213 C 0.50463 0.48962 0.54949 0.0
C214 C 0.48368 0.55051 0.60004 0.0
C215 C 0.50211 0.58707 0.58525 0.0
C216 C 0.47664 0.60056 0.57358 0.0
C217 C 0.43258 0.57743 0.57646 0.0
C218 C 0.41433 0.54061 0.59081 0.0
C219 C 0.43967 0.52734 0.60256 0.0
C220 C 0.54516 0.52087 0.77934 0.0
C221 C 0.60741 0.39977 0.56401 0.0
H222 H 0.09625 0.45738 -0.02148 0.0
H223 H 0.29585 0.55405 0.70299 0.0
H224 H 0.98478 0.47326 0.83818 0.0
H225 H 0.93987 0.45091 0.87999 0.0
H226 H 0.91762 0.33002 0.86805 0.0
H227 H 0.96311 0.35265 0.82611 0.0
H228 H 0.06243 0.49414 0.86586 0.0
H229 H 0.07658 0.48899 0.91549 0.0
H230 H 0.06911 0.37486 0.89739 0.0
H231 H 0.05458 0.3803 0.84785 0.0
H232 H 0.14395 0.53359 0.83135 0.0
H233 H 0.21644 0.55793 0.84692 0.0
H234 H 0.20047 0.44098 0.82686 0.0
H235 H 0.12797 0.41684 0.81084 0.0
H236 H 0.13807 0.55184 0.77327 0.0
H237 H 0.20743 0.59003 0.75114 0.0
H238 H 0.19936 0.47737 0.72696 0.0
H239 H 0.13055 0.43964 0.74987 0.0
H240 H 0.03668 0.51936 0.74995 0.0
H241 H 0.06217 0.55883 0.70649 0.0
H242 H 0.09491 0.47353 0.6735 0.0
H243 H 0.06765 0.43316 0.71632 0.0
H244 H 0.94702 0.4524 0.78855 0.0
H245 H 0.87562 0.41254 0.76866 0.0
H246 H 0.9137 0.34146 0.71979 0.0
H247 H 0.98445 0.38002 0.74056 0.0
O248 O 0.08999 0.4585 0.95889 0.0
O249 O 0.08654 0.40029 0.9484 0.0
O250 O 0.27008 0.59672 0.72352 0.0
O251 O 0.2684 0.5397 0.71174 0.0
C252 C 0.01421 0.4314 0.81033 0.0
C253 C 0.05342 0.44302 0.82295 0.0
C254 C 0.09022 0.4613 0.80676 0.0
C255 C 0.08886 0.47023 0.77833 0.0
C256 C 0.04992 0.459 0.7654 0.0
C257 C 0.01211 0.43801 0.78114 0.0
C258 C 0.97674 0.41446 0.82887 0.0
C259 C 0.96871 0.44152 0.84378 0.0
C260 C 0.94342 0.42887 0.86774 0.0
C261 C 0.92588 0.38899 0.8772 0.0
C262 C 0.93092 0.36092 0.86099 0.0
C263 C 0.95651 0.3737 0.837 0.0
C264 C 0.05692 0.43731 0.85346 0.0
C265 C 0.06315 0.46773 0.8728 0.0
C266 C 0.07161 0.46489 0.90106 0.0
C267 C 0.0743 0.43166 0.91038 0.0
C268 C 0.06744 0.40093 0.8909 0.0
C269 C 0.05879 0.40376 0.86267 0.0
C270 C 0.1312 0.47366 0.81995 0.0
C271 C 0.1559 0.51307 0.83083 0.0
C272 C 0.19698 0.52684 0.83966 0.0
C273 C 0.21347 0.50117 0.83781 0.0
C274 C 0.18797 0.461 0.82835 0.0
C275 C 0.14692 0.44733 0.8193 0.0
C276 C 0.12913 0.49307 0.76273 0.0
C277 C 0.15123 0.53553 0.76295 0.0
C278 C 0.19087 0.55721 0.75041 0.0
C279 C 0.20881 0.53673 0.73709 0.0
C280 C 0.18636 0.49409 0.73684 0.0
C281 C 0.14698 0.47246 0.74976 0.0
C282 C 0.05056 0.47351 0.73641 0.0
C283 C 0.04743 0.5081 0.73281 0.0
C284 C 0.06247 0.53088 0.70821 0.0
C285 C 0.08149 0.51966 0.68717 0.0
C286 C 0.08088 0.48298 0.68965 0.0
C287 C 0.06503 0.4598 0.71396 0.0
C288 C 0.97079 0.41864 0.76645 0.0
C289 C 0.94001 0.42822 0.77362 0.0
C290 C 0.89945 0.40573 0.76214 0.0
C291 C 0.88941 0.37385 0.74301 0.0
C292 C 0.92085 0.36581 0.73463 0.0
C293 C 0.96116 0.3879 0.74639 0.0
C294 C 0.084 0.42907 0.94032 0.0
C295 C 0.25091 0.55966 0.72374 0.0
H296 H 0.40732 0.97128 0.78082 0.0
H297 H 0.40407 0.73716 0.03289 0.0
H298 H 0.45371 0.04801 0.92044 0.0
H299 H 0.48395 0.09855 0.88319 0.0
H300 H 0.6082 0.12317 0.90473 0.0
H301 H 0.57757 0.0699 0.9403 0.0
H302 H 0.39929 0.96081 0.90376 0.0
H303 H 0.39011 0.96157 0.85276 0.0
H304 H 0.5204 0.99671 0.84067 0.0
H305 H 0.52943 0.99689 0.89175 0.0
H306 H 0.37228 0.87985 0.94008 0.0
H307 H 0.34754 0.81296 0.91775 0.0
H308 H 0.47492 0.85219 0.89256 0.0
H309 H 0.49938 0.91852 0.91458 0.0
H310 H 0.38713 0.89801 0.0042 0.0
H311 H 0.35826 0.8313 0.02575 0.0
H312 H 0.4676 0.8271 -0.00176 0.0
H313 H 0.49584 0.8936 0.97664 0.0
H314 H 0.44207 0.98484 0.03497 0.0
H315 H 0.44454 0.9664 0.08408 0.0
H316 H 0.54368 0.94309 0.0626 0.0
H317 H 0.54111 0.96139 0.01356 0.0
H318 H 0.48639 0.07509 -0.00853 0.0
H319 H 0.53669 0.14085 0.0136 0.0
H320 H 0.62871 0.10399 0.01919 0.0
H321 H 0.57878 0.03866 -0.00293 0.0
O322 O 0.41149 0.97082 0.80089 0.0
O323 O 0.47908 0.99023 0.79595 0.0
O324 O 0.35961 0.76758 0.0389 0.0
O325 O 0.41476 0.7636 0.02468 0.0
C326 C 0.49373 0.01555 0.94792 0.0
C327 C 0.47051 0.97889 0.93233 0.0
C328 C 0.45437 0.94143 0.94584 0.0
C329 C 0.46012 0.94019 0.97502 0.0
C330 C 0.48362 0.97656 -0.00941 0.0
C331 C 0.50085 0.01429 0.97706 0.0
C332 C 0.51326 0.05462 0.93269 0.0
C333 C 0.48756 0.0649 0.9176 0.0
C334 C 0.50476 0.0937 0.89641 0.0
C335 C 0.54807 0.11361 0.89083 0.0
C336 C 0.57461 0.10758 0.90859 0.0
C337 C 0.55715 0.07746 0.92902 0.0
C338 C 0.46513 0.9793 0.90138 0.0
C339 C 0.42584 0.96888 0.89003 0.0
C340 C 0.4207 0.96931 0.86092 0.0
C341 C 0.45468 0.97966 0.84266 0.0
C342 C 0.49378 0.9892 0.85416 0.0
C343 C 0.49901 0.98927 0.88329 0.0
C344 C 0.43755 0.90375 0.92888 0.0
C345 C 0.39452 0.87417 0.92912 0.0
C346 C 0.38048 0.8363 0.91643 0.0
C347 C 0.4096 0.8279 0.90377 0.0
C348 C 0.45214 0.85832 0.90224 0.0
C349 C 0.46604 0.89602 0.91473 0.0
C350 C 0.44349 0.90048 -0.01106 0.0
C351 C 0.40477 0.88261 0.00296 0.0
C352 C 0.38835 0.84451 0.01515 0.0
C353 C 0.41061 0.82382 0.01366 0.0
C354 C 0.44966 0.84216 -0.00022 0.0
C355 C 0.46589 0.88012 -0.01254 0.0
C356 C 0.49138 0.97436 0.02087 0.0
C357 C 0.46524 0.97706 0.0411 0.0
C358 C 0.46666 0.96661 0.06898 0.0
C359 C 0.4943 0.95349 0.07675 0.0
C360 C 0.52245 0.95349 0.05691 0.0
C361 C 0.52094 0.96383 0.02906 0.0
C362 C 0.52897 0.05217 -0.00716 0.0
C363 C 0.51716 0.08104 -0.0021 0.0
C364 C 0.54564 0.11829 0.01051 0.0
C365 C 0.58618 0.12694 0.01796 0.0
C366 C 0.59743 0.09758 0.0137 0.0
C367 C 0.569 0.06041 0.0012 0.0
C368 C 0.44932 0.98056 0.81176 0.0
C369 C 0.39332 0.78334 0.02653 0.0
H370 H 0.58498 0.5173 0.93347 0.0
H371 H 0.71326 0.44375 0.21709 0.0
H372 H 0.53256 0.57006 0.07507 0.0
H373 H 0.51836 0.597 0.03289 0.0
H374 H 0.63858 0.70759 0.04225 0.0
H375 H 0.65365 0.67957 0.08406 0.0
H376 H 0.55732 0.51465 0.05499 0.0
H377 H 0.55718 0.50551 0.00386 0.0
H378 H 0.68049 0.61379 -0.00067 0.0
H379 H 0.67952 0.62324 0.05036 0.0
H380 H 0.5918 0.46911 0.09619 0.0
H381 H 0.62423 0.43089 0.07819 0.0
H382 H 0.73991 0.54342 0.0629 0.0
H383 H 0.70768 0.58136 0.08067 0.0
H384 H 0.57606 0.48999 0.16442 0.0
H385 H 0.59074 0.44717 0.1943 0.0
H386 H 0.72194 0.51612 0.1704 0.0
H387 H 0.70682 0.55865 0.14059 0.0
H388 H 0.56379 0.56447 0.18776 0.0
H389 H 0.5727 0.55473 0.23792 0.0
H390 H 0.70421 0.59764 0.22296 0.0
H391 H 0.69642 0.6124 0.17448 0.0
H392 H 0.53544 0.60173 0.13257 0.0
H393 H 0.51847 0.64742 0.15824 0.0
H394 H 0.64752 0.71929 0.18623 0.0
H395 H 0.66481 0.67419 0.15992 0.0
O396 O 0.58557 0.52159 0.95363 0.0
O397 O 0.64911 0.57725 0.95248 0.0
O398 O 0.63894 0.42619 0.21739 0.0
O399 O 0.70646 0.45978 0.20506 0.0
C400 C 0.60801 0.60059 0.10056 0.0
C401 C 0.61895 0.57408 0.08732 0.0
C402 C 0.63092 0.55133 0.10357 0.0
C403 C 0.63126 0.55414 0.13309 0.0
C404 C 0.62299 0.5825 0.14645 0.0
C405 C 0.61098 0.60567 0.13022 0.0
C406 C 0.5942 0.62275 0.08245 0.0
C407 C 0.55523 0.60066 0.06866 0.0
C408 C 0.54733 0.6159 0.04449 0.0
C409 C 0.57799 0.65375 0.03406 0.0
C410 C 0.61492 0.67801 0.04978 0.0
C411 C 0.62327 0.66229 0.07374 0.0
C412 C 0.61818 0.56985 0.0562 0.0
C413 C 0.584 0.53659 0.04281 0.0
C414 C 0.58412 0.53137 0.01366 0.0
C415 C 0.61877 0.55902 -0.00252 0.0
C416 C 0.65322 0.59204 0.01113 0.0
C417 C 0.65271 0.59763 0.04022 0.0
C418 C 0.64754 0.52785 0.08964 0.0
C419 C 0.6238 0.48536 0.08837 0.0
C420 C 0.64213 0.46372 0.0781 0.0
C421 C 0.68429 0.48461 0.0693 0.0
C422 C 0.70728 0.52704 0.0695 0.0
C423 C 0.68897 0.54856 0.07958 0.0
C424 C 0.64028 0.5272 0.15018 0.0
C425 C 0.60788 0.49559 0.16552 0.0
C426 C 0.61638 0.47127 0.18262 0.0
C427 C 0.65756 0.47831 0.18481 0.0
C428 C 0.68989 0.50988 0.16922 0.0
C429 C 0.68131 0.53405 0.15202 0.0
C430 C 0.62933 0.58826 0.17739 0.0
C431 C 0.59489 0.57371 0.19576 0.0
C432 C 0.59986 0.56755 0.22419 0.0
C433 C 0.63871 0.57378 0.23395 0.0
C434 C 0.67373 0.59189 0.21598 0.0
C435 C 0.66934 0.60039 0.18827 0.0
C436 C 0.60138 0.63469 0.1443 0.0
C437 C 0.56022 0.62768 0.14384 0.0
C438 C 0.55051 0.65354 0.15856 0.0
C439 C 0.58178 0.68663 0.17407 0.0
C440 C 0.62306 0.69395 0.1743 0.0
C441 C 0.63284 0.66826 0.15937 0.0
C442 C 0.6189 0.55331 0.96652 0.0
C443 C 0.6669 0.45309 0.2034 0.0
Zn444 Zn 0.72401 0.52922 0.38829 0.0
Zn445 Zn 0.67004 0.45254 0.37454 0.0
O446 O 0.72792 0.45728 0.37362 0.0
O447 O 0.77426 0.52142 0.38251 0.0
O448 O 0.63134 0.39167 0.37245 0.0
O449 O 0.69708 0.52659 0.42568 0.0
O450 O 0.64728 0.46694 0.4098 0.0
C451 C 0.76601 0.48603 0.37594 0.0
C452 C 0.67497 0.51613 0.33637 0.0
O453 O 0.66233 0.47863 0.33948 0.0
O454 O 0.69823 0.54174 0.35502 0.0
C455 C 0.63582 0.37428 0.39368 0.0
O456 O 0.66275 0.39656 0.41354 0.0
C457 C 0.66064 0.49564 0.42792 0.0
Zn458 Zn 0.19557 0.67175 0.54631 0.0
Zn459 Zn 0.24354 0.63667 0.54744 0.0
O460 O 0.28562 0.69804 0.54193 0.0
O461 O 0.24804 0.72774 0.54346 0.0
O462 O 0.28295 0.61502 0.55322 0.0
O463 O 0.16835 0.64594 0.58342 0.0
O464 O 0.20672 0.61697 0.58323 0.0
C465 C 0.28327 0.72997 0.54102 0.0
C466 C 0.17872 0.61314 0.5007 0.0
O467 O 0.20718 0.6086 0.51225 0.0
O468 O 0.16926 0.63818 0.51076 0.0
C469 C 0.31539 0.62505 0.53824 0.0
O470 O 0.32334 0.6487 0.5165 0.0
C471 C 0.17863 0.62243 0.59449 0.0
Zn472 Zn 0.54042 0.19305 0.73071 0.0
Zn473 Zn 0.62625 0.22714 0.72877 0.0
O474 O 0.61706 0.27373 0.7193 0.0
O475 O 0.54829 0.24779 0.72201 0.0
O476 O 0.68942 0.25576 0.73103 0.0
O477 O 0.54065 0.17726 0.77106 0.0
O478 O 0.60949 0.20391 0.76835 0.0
C479 C 0.58492 0.2775 0.71758 0.0
C480 C 0.57063 0.15938 0.68741 0.0
O481 O 0.60724 0.18458 0.69702 0.0
O482 O 0.53805 0.15696 0.69826 0.0
C483 C 0.71422 0.27332 0.7106 0.0
O484 O 0.69881 0.27075 0.68525 0.0
C485 C 0.57533 0.1858 0.7822 0.0
Zn486 Zn 0.47494 0.5982 0.87641 0.0
Zn487 Zn 0.46466 0.65082 0.87788 0.0
O488 O 0.41198 0.58888 0.87999 0.0
O489 O 0.41103 0.58809 0.88055 0.0
O490 O 0.44077 0.68711 0.88298 0.0
O491 O 0.51156 0.6142 0.91164 0.0
O492 O 0.50542 0.66796 0.91104 0.0
C493 C 0.39246 0.58413 0.85717 0.0
C494 C 0.49942 0.64013 0.82454 0.0
O495 O 0.49009 0.66287 0.83851 0.0
O496 O 0.49794 0.60999 0.83636 0.0
C497 C 0.41057 0.68643 0.86976 0.0
O498 O 0.38981 0.65878 0.85024 0.0
C499 C 0.51917 0.64743 0.92273 0.0
Zn500 Zn 0.87182 0.42846 0.03949 0.0
Zn501 Zn 0.80686 0.35039 0.04071 0.0
O502 O 0.77771 0.38282 0.04334 0.0
O503 O 0.82914 0.44666 0.04077 0.0
O504 O 0.75777 0.29369 0.03854 0.0
O505 O 0.89032 0.41755 0.00183 0.0
O506 O 0.83603 0.355 0.00282 0.0
C507 C 0.79036 0.42038 0.0429 0.0
C508 C 0.86941 0.38414 0.08953 0.0
O509 O 0.83725 0.35436 0.07785 0.0
O510 O 0.89018 0.41778 0.07709 0.0
C511 C 0.72505 0.28177 0.05352 0.0
O512 O 0.72385 0.30613 0.07264 0.0
C513 C 0.86805 0.38305 -0.00971 0.0
Zn514 Zn 0.41274 0.84278 0.2333 0.0
Zn515 Zn 0.46919 0.81733 0.22581 0.0
O516 O 0.41184 0.76514 0.22644 0.0
O517 O 0.36525 0.78455 0.23053 0.0
O518 O 0.50607 0.79486 0.21518 0.0
O519 O 0.43365 0.87614 0.19819 0.0
O520 O 0.4786 0.85495 0.1927 0.0
C521 C 0.3739 0.75679 0.22797 0.0
C522 C 0.47209 0.86184 0.27974 0.0
O523 O 0.4875 0.84468 0.26492 0.0
O524 O 0.44163 0.86492 0.27078 0.0
C525 C 0.52313 0.7817 0.23175 0.0
O526 O 0.52064 0.78538 0.25912 0.0
C527 C 0.46263 0.87559 0.18437 0.0
C528 C 0.27613 0.65836 0.20716 0.0
C529 C 0.26421 0.63934 0.23374 0.0
C530 C 0.32856 0.69432 0.25538 0.0
C531 C 0.33946 0.71423 0.2291 0.0
N532 N 0.3302 0.71254 0.17889 0.0
N533 N 0.2825 0.63343 0.28144 0.0
C534 C 0.31535 0.69523 0.20455 0.0
C535 C 0.2918 0.65534 0.25726 0.0
N536 N 0.24909 0.6418 0.1848 0.0
N537 N 0.35214 0.71374 0.27881 0.0
H538 H 0.25515 0.60532 0.2839 0.0
H539 H 0.30331 0.64134 0.29829 0.0
H540 H 0.38011 0.74174 0.27805 0.0
H541 H 0.34309 0.70336 0.29925 0.0
H542 H 0.25327 0.65625 0.16565 0.0
H543 H 0.22124 0.61369 0.1858 0.0
H544 H 0.31607 0.69882 0.1598 0.0
H545 H 0.35883 0.73966 0.17655 0.0
C546 C 0.59497 0.26132 0.38387 0.0
C547 C 0.57547 0.24704 0.41037 0.0
C548 C 0.58574 0.31395 0.42166 0.0
C549 C 0.61069 0.32967 0.39712 0.0
N550 N 0.64231 0.31939 0.35572 0.0
N551 N 0.55484 0.25988 0.45576 0.0
C552 C 0.61572 0.30357 0.37817 0.0
C553 C 0.5712 0.2733 0.42955 0.0
N554 N 0.59344 0.23438 0.36414 0.0
N555 N 0.57528 0.33778 0.4371 0.0
H556 H 0.54306 0.2301 0.46218 0.0
H557 H 0.5556 0.27889 0.47187 0.0
H558 H 0.58477 0.36746 0.43155 0.0
H559 H 0.55396 0.32705 0.4537 0.0
H560 H 0.60326 0.24216 0.34341 0.0
H561 H 0.57897 0.20335 0.36786 0.0
H562 H 0.65118 0.30267 0.34313 0.0
H563 H 0.65805 0.35008 0.35076 0.0
C564 C 0.3959 0.6168 0.58319 0.0
C565 C 0.4051 0.59219 0.56563 0.0
C566 C 0.35445 0.58797 0.53032 0.0
C567 C 0.34677 0.61416 0.54731 0.0
N568 N 0.36625 0.6602 0.58699 0.0
N569 N 0.3986 0.55926 0.52091 0.0
C570 C 0.36918 0.63043 0.57296 0.0
C571 C 0.38604 0.57932 0.53866 0.0
N572 N 0.41186 0.62627 0.60997 0.0
N573 N 0.33031 0.57003 0.50686 0.0
H574 H 0.42105 0.55183 0.52657 0.0
H575 H 0.38933 0.55269 0.49991 0.0
H576 H 0.30704 0.57576 0.50011 0.0
H577 H 0.331 0.54725 0.49523 0.0
H578 H 0.40222 0.63976 0.625 0.0
H579 H 0.43277 0.61816 0.61791 0.0
H580 H 0.38525 0.67644 0.60409 0.0
H581 H 0.34742 0.67137 0.58006 0.0
C582 C 0.82142 0.30674 0.74213 0.0
C583 C 0.84536 0.34745 0.73292 0.0
C584 C 0.78315 0.33996 0.70886 0.0
C585 C 0.7602 0.29827 0.71613 0.0
N586 N 0.76074 0.23991 0.73379 0.0
N587 N 0.85182 0.40014 0.70251 0.0
C588 C 0.78036 0.28102 0.73099 0.0
C589 C 0.82709 0.36322 0.71467 0.0
N590 N 0.83707 0.29306 0.76246 0.0
N591 N 0.76276 0.35812 0.69805 0.0
H592 H 0.88417 0.41795 0.70622 0.0
H593 H 0.84102 0.41129 0.68678 0.0
H594 H 0.7304 0.34282 0.69436 0.0
H595 H 0.77729 0.38932 0.69528 0.0
H596 H 0.81912 0.26505 0.77209 0.0
H597 H 0.86669 0.31109 0.77165 0.0
H598 H 0.77562 0.22542 0.74203 0.0
H599 H 0.73112 0.21997 0.72518 0.0
C600 C 0.3939 0.75808 0.91487 0.0
C601 C 0.39747 0.78642 0.89456 0.0
C602 C 0.40225 0.74529 0.85667 0.0
C603 C 0.39926 0.71717 0.87707 0.0
N604 N 0.37961 0.69035 0.92389 0.0
N605 N 0.39339 0.80226 0.8463 0.0
C606 C 0.39081 0.72146 0.90564 0.0
C607 C 0.39744 0.77818 0.86544 0.0
N608 N 0.39616 0.76719 0.94298 0.0
N609 N 0.41278 0.74246 0.82947 0.0
H610 H 0.38999 0.82664 0.8524 0.0
H611 H 0.38936 0.79584 0.82479 0.0
H612 H 0.41716 0.71923 0.82213 0.0
H613 H 0.42023 0.7648 0.81457 0.0
H614 H 0.39942 0.75014 0.95857 0.0
H615 H 0.39755 0.7933 0.95078 0.0
H616 H 0.3691 0.6901 0.9443 0.0
H617 H 0.37677 0.66298 0.91765 0.0
C618 C 0.71021 0.45318 0.03425 0.0
C619 C 0.70643 0.4627 0.06264 0.0
C620 C 0.75688 0.44352 0.07793 0.0
C621 C 0.76035 0.43358 0.04957 0.0
N622 N 0.73588 0.42168 0.00152 0.0
N623 N 0.7191 0.46015 0.11216 0.0
C624 C 0.73548 0.43604 0.02793 0.0
C625 C 0.72751 0.4556 0.08472 0.0
N626 N 0.69067 0.46177 0.01337 0.0
N627 N 0.78255 0.44247 0.0982 0.0
H628 H 0.69836 0.46977 0.11793 0.0
H629 H 0.72993 0.45142 0.12932 0.0
H630 H 0.80347 0.43237 0.0943 0.0
H631 H 0.78522 0.45389 0.11856 0.0
H632 H 0.69586 0.45996 -0.008 0.0
H633 H 0.67056 0.47277 0.01747 0.0
H634 H 0.71544 0.41884 -0.01456 0.0
H635 H 0.75492 0.40989 -0.00386 0.0
C636 C 0.37525 0.83861 0.54788 0.0
C637 C 0.38572 0.84835 0.51909 0.0
C638 C 0.33156 0.7791 0.50497 0.0
C639 C 0.32099 0.76944 0.53374 0.0
N640 N 0.33694 0.78646 0.5828 0.0
N641 N 0.37954 0.82688 0.47054 0.0
C642 C 0.34422 0.79818 0.55529 0.0
C643 C 0.36575 0.81814 0.49774 0.0
N644 N 0.39424 0.8684 0.568 0.0
N645 N 0.30762 0.75143 0.4845 0.0
H646 H 0.40331 0.85552 0.46424 0.0
H647 H 0.3697 0.80526 0.45446 0.0
H648 H 0.28329 0.7221 0.48894 0.0
H649 H 0.31007 0.75796 0.46314 0.0
H650 H 0.38484 0.86486 0.58895 0.0
H651 H 0.41853 0.89771 0.56345 0.0
H652 H 0.35524 0.80451 0.59958 0.0
H653 H 0.31423 0.75716 0.58876 0.0
C654 C 0.59223 0.35969 0.67041 0.0
C655 C 0.5844 0.38266 0.69049 0.0
C656 C 0.58789 0.34243 0.72883 0.0
C657 C 0.58977 0.31614 0.70849 0.0
N658 N 0.5931 0.29809 0.66015 0.0
N659 N 0.57446 0.39701 0.73846 0.0
C660 C 0.59243 0.32463 0.67932 0.0
C661 C 0.58265 0.37466 0.71969 0.0
N662 N 0.59929 0.37146 0.64288 0.0
N663 N 0.5916 0.33666 0.75679 0.0
H664 H 0.57228 0.42195 0.73254 0.0
H665 H 0.56785 0.38989 0.75964 0.0
H666 H 0.59533 0.31312 0.764 0.0
H667 H 0.59435 0.35677 0.77268 0.0
H668 H 0.60913 0.35847 0.62762 0.0
H669 H 0.5984 0.3965 0.63557 0.0
H670 H 0.58996 0.29974 0.63852 0.0
H671 H 0.59457 0.27273 0.66595 0.0
C672 C 0.2737 0.52881 0.87158 0.0
C673 C 0.25862 0.51789 0.84366 0.0
C674 C 0.33032 0.54366 0.82688 0.0
C675 C 0.34604 0.55983 0.85418 0.0
N676 N 0.33119 0.57668 0.9008 0.0
N677 N 0.27281 0.52113 0.79377 0.0
C678 C 0.31751 0.55464 0.8763 0.0
C679 C 0.28693 0.52683 0.82099 0.0
N680 N 0.24611 0.51477 0.89359 0.0
N681 N 0.35676 0.5439 0.80653 0.0
H682 H 0.24122 0.509 0.78842 0.0
H683 H 0.29288 0.53174 0.77648 0.0
H684 H 0.38897 0.55603 0.80973 0.0
H685 H 0.34609 0.52874 0.78727 0.0
H686 H 0.25585 0.51856 0.91455 0.0
H687 H 0.21365 0.49589 0.89078 0.0
H688 H 0.31071 0.57641 0.91603 0.0
H689 H 0.36218 0.5992 0.90464 0.0
C690 C 0.63818 0.19997 0.00862 0.0
C691 C 0.61839 0.16787 0.02813 0.0
C692 C 0.66766 0.21097 0.06515 0.0
C693 C 0.68634 0.24342 0.04586 0.0
N694 N 0.6824 0.27228 0.00193 0.0
N695 N 0.60815 0.14441 0.07594 0.0
C696 C 0.66944 0.23897 0.01839 0.0
C697 C 0.6312 0.17392 0.05678 0.0
N698 N 0.62852 0.19283 -0.01944 0.0
N699 N 0.68585 0.21492 0.09092 0.0
H700 H 0.58135 0.11691 0.07037 0.0
H701 H 0.61335 0.14842 0.09757 0.0
H702 H 0.71238 0.24172 0.09782 0.0
H703 H 0.67653 0.19092 0.1047 0.0
H704 H 0.64552 0.21395 0.96505 0.0
H705 H 0.60572 0.16469 0.97239 0.0
H706 H 0.66811 0.27145 -0.01714 0.0
H707 H 0.70458 0.30162 0.00862 0.0
C708 C 0.54484 0.69672 0.2149 0.0
C709 C 0.57064 0.71276 0.19077 0.0
C710 C 0.5732 0.77721 0.19831 0.0
C711 C 0.5423 0.75906 0.21969 0.0
N712 N 0.49326 0.69875 0.24512 0.0
N713 N 0.60565 0.7667 0.15724 0.0
C714 C 0.52689 0.71816 0.22738 0.0
C715 C 0.58407 0.75271 0.18191 0.0
N716 N 0.53789 0.66119 0.2261 0.0
N717 N 0.59287 0.81807 0.19413 0.0
H718 H 0.61414 0.74967 0.14458 0.0
H719 H 0.6121 0.79382 0.14814 0.0
H720 H 0.58635 0.83705 0.20621 0.0
H721 H 0.61849 0.83365 0.18072 0.0
H722 H 0.52291 0.65019 0.24533 0.0
H723 H 0.55073 0.64473 0.21758 0.0
H724 H 0.47793 0.66772 0.24884 0.0
H725 H 0.4779 0.71254 0.25405 0.0
C726 C 0.8326 0.45787 0.33046 0.0
C727 C 0.86897 0.47219 0.34753 0.0
C728 C 0.83422 0.48813 0.38548 0.0
C729 C 0.80049 0.47926 0.36687 0.0
N730 N 0.77132 0.46237 0.3197 0.0
N731 N 0.90656 0.50425 0.39049 0.0
C732 C 0.80041 0.46551 0.3389 0.0
C733 C 0.8703 0.48795 0.37496 0.0
N734 N 0.8288 0.43681 0.30616 0.0
N735 N 0.83129 0.49577 0.41331 0.0
H736 H 0.93329 0.50399 0.38371 0.0
H737 H 0.91116 0.5204 0.40922 0.0
H738 H 0.80516 0.49578 0.42166 0.0
H739 H 0.85286 0.49848 0.42851 0.0
H740 H 0.80116 0.42201 0.29429 0.0
H741 H 0.85188 0.4307 0.29935 0.0
H742 H 0.77276 0.45688 0.29831 0.0
H743 H 0.74812 0.46929 0.32435 0.0
C744 C 0.15323 0.56799 0.4264 0.0
C745 C 0.10865 0.54929 0.42633 0.0
C746 C 0.11036 0.56475 0.47667 0.0
C747 C 0.15511 0.58848 0.47567 0.0
N748 N 0.2192 0.61707 0.44853 0.0
N749 N 0.04434 0.53148 0.4507 0.0
C750 C 0.17667 0.5909 0.45035 0.0
C751 C 0.08705 0.54802 0.45132 0.0
N752 N 0.17327 0.56375 0.40358 0.0
N753 N 0.09026 0.5571 0.50203 0.0
H754 H 0.02608 0.5172 0.43284 0.0
H755 H 0.02733 0.534 0.4673 0.0
H756 H 0.10634 0.56811 0.52108 0.0
H757 H 0.05815 0.5368 0.50455 0.0
H758 H 0.20494 0.57231 0.40379 0.0
H759 H 0.15746 0.54833 0.38527 0.0
H760 H 0.23575 0.62372 0.42965 0.0
H761 H 0.23762 0.63495 0.46538 0.0
C762 C 0.52457 0.06925 0.63705 0.0
C763 C 0.54339 0.08863 0.6114 0.0
C764 C 0.58363 0.15402 0.63604 0.0
C765 C 0.56547 0.13463 0.66189 0.0
N766 N 0.52663 0.07295 0.68816 0.0
N767 N 0.59905 0.14664 0.58758 0.0
C768 C 0.53838 0.09187 0.66274 0.0
C769 C 0.57581 0.13005 0.61133 0.0
N770 N 0.49281 0.02957 0.6367 0.0
N771 N 0.6057 0.19541 0.63449 0.0
H772 H 0.59394 0.13034 0.56887 0.0
H773 H 0.626 0.1754 0.58725 0.0
H774 H 0.61163 0.21455 0.65179 0.0
H775 H 0.61494 0.21093 0.61553 0.0
H776 H 0.47435 0.01493 0.65416 0.0
H777 H 0.48346 0.01176 0.61838 0.0
H778 H 0.51 0.04158 0.69034 0.0
H779 H 0.53697 0.0887 0.70729 0.0
C780 C 0.5444 0.63631 0.7543 0.0
C781 C 0.51205 0.63183 0.73575 0.0
C782 C 0.47553 0.64204 0.77515 0.0
C783 C 0.50731 0.64541 0.79382 0.0
N784 N 0.57771 0.65864 0.80022 0.0
N785 N 0.45529 0.6436 0.72681 0.0
C786 C 0.54377 0.64698 0.78297 0.0
C787 C 0.48059 0.63942 0.74568 0.0
N788 N 0.57417 0.62785 0.74518 0.0
N789 N 0.43903 0.63808 0.78542 0.0
H790 H 0.45866 0.64189 0.70508 0.0
H791 H 0.43421 0.6528 0.73251 0.0
H792 H 0.43325 0.63937 0.80674 0.0
H793 H 0.41287 0.63032 0.77285 0.0
H794 H 0.59508 0.62566 0.75864 0.0
H795 H 0.57655 0.62043 0.72441 0.0
H796 H 0.60681 0.66411 0.79307 0.0
H797 H 0.57797 0.66693 0.82127 0.0
C798 C 0.93115 0.37877 0.92892 0.0
C799 C 0.90683 0.37877 0.90578 0.0
C800 C 0.85374 0.37603 0.93822 0.0
C801 C 0.87834 0.37642 0.9613 0.0
N802 N 0.93429 0.36809 -0.02105 0.0
N803 N 0.84113 0.36795 0.88769 0.0
C804 C 0.91509 0.37449 0.9567 0.0
C805 C 0.86674 0.37423 0.91026 0.0
N806 N 0.97057 0.38501 0.92449 0.0
N807 N 0.81923 0.37952 0.94302 0.0
H808 H 0.85004 0.36655 0.86703 0.0
H809 H 0.80994 0.36062 0.8895 0.0
H810 H 0.80829 0.38021 0.96317 0.0
H811 H 0.80286 0.38423 0.92718 0.0
H812 H 0.99178 0.39026 0.94065 0.0
H813 H 0.98324 0.38746 0.9045 0.0
H814 H 0.95873 0.36224 0.97679 0.0
H815 H 0.92317 0.36491 -0.00046 0.0
C816 C 0.46418 0.89095 0.10573 0.0
C817 C 0.48918 0.93385 0.10429 0.0
C818 C 0.49847 0.93873 0.15554 0.0
C819 C 0.47469 0.89576 0.15682 0.0
N820 N 0.44 0.83038 0.13335 0.0
N821 N 0.53534 0.99857 0.12635 0.0
C822 C 0.45936 0.8717 0.13193 0.0
C823 C 0.50792 0.9578 0.12881 0.0
N824 N 0.44338 0.86875 0.08224 0.0
N825 N 0.51138 0.96118 0.17993 0.0
H826 H 0.5424 0.01335 0.10706 0.0
H827 H 0.55337 0.01736 0.14294 0.0
H828 H 0.50696 0.94816 0.19974 0.0
H829 H 0.52462 0.99248 0.18079 0.0
H830 H 0.42053 0.83806 0.08252 0.0
H831 H 0.44658 0.88155 0.06249 0.0
H832 H 0.43286 0.81153 0.11575 0.0
H833 H 0.43344 0.81473 0.15224 0.0
C834 C 0.67783 0.58641 0.27944 0.0
C835 C 0.64335 0.55962 0.2621 0.0
C836 C 0.62413 0.50653 0.29702 0.0
C837 C 0.6636 0.53078 0.3108 0.0
N838 N 0.73349 0.59094 0.3081 0.0
N839 N 0.58903 0.48986 0.25198 0.0
C840 C 0.69206 0.57011 0.30021 0.0
C841 C 0.61775 0.51838 0.27016 0.0
N842 N 0.6973 0.62735 0.27597 0.0
N843 N 0.59206 0.47323 0.3097 0.0
H844 H 0.58473 0.49617 0.23142 0.0
H845 H 0.57281 0.45898 0.25644 0.0
H846 H 0.59371 0.46534 0.33037 0.0
H847 H 0.56195 0.45671 0.30091 0.0
H848 H 0.72085 0.64799 0.28959 0.0
H849 H 0.68657 0.64037 0.26155 0.0
H850 H 0.7554 0.61852 0.29915 0.0
H851 H 0.74726 0.57834 0.32022 0.0
C852 C 0.51772 0.93896 0.33792 0.0
C853 C 0.4978 0.91407 0.36164 0.0
C854 C 0.46998 0.85309 0.33188 0.0
C855 C 0.48854 0.87814 0.30815 0.0
N856 N 0.53885 0.94276 0.28902 0.0
N857 N 0.46386 0.84824 0.38288 0.0
C858 C 0.5156 0.92045 0.31144 0.0
C859 C 0.4769 0.87126 0.35915 0.0
N860 N 0.53635 0.98015 0.34032 0.0
N861 N 0.44421 0.8122 0.32806 0.0
H862 H 0.46853 0.86096 0.40305 0.0
H863 H 0.45155 0.81706 0.38287 0.0
H864 H 0.44033 0.79799 0.30851 0.0
H865 H 0.42554 0.79258 0.34384 0.0
H866 H 0.54709 0.99956 0.32321 0.0
H867 H 0.53876 0.99504 0.35931 0.0
H868 H 0.56212 0.97328 0.29044 0.0
H869 H 0.53754 0.92958 0.2694 0.0
C870 C 0.58901 0.47011 0.49169 0.0
C871 C 0.57959 0.50165 0.49044 0.0
C872 C 0.61645 0.5234 0.44527 0.0
C873 C 0.63105 0.49596 0.4488 0.0
N874 N 0.63306 0.44405 0.47541 0.0
N875 N 0.58371 0.55834 0.46627 0.0
C876 C 0.61733 0.4691 0.47181 0.0
C877 C 0.59294 0.52815 0.46715 0.0
N878 N 0.57086 0.44104 0.51182 0.0
N879 N 0.62388 0.54386 0.42052 0.0
H880 H 0.56383 0.56074 0.48078 0.0
H881 H 0.59709 0.58201 0.45198 0.0
H882 H 0.6406 0.54086 0.40388 0.0
H883 H 0.61051 0.56111 0.41539 0.0
H884 H 0.57204 0.41455 0.51156 0.0
H885 H 0.55158 0.44154 0.5276 0.0
H886 H 0.62844 0.42721 0.49349 0.0
H887 H 0.65338 0.44214 0.46103 0.0
C888 C 0.14394 0.58421 0.66908 0.0
C889 C 0.10511 0.54759 0.66361 0.0
C890 C 0.11644 0.55908 0.61282 0.0
C891 C 0.15367 0.59689 0.6184 0.0
N892 N 0.19975 0.64872 0.6514 0.0
N893 N 0.05051 0.504 0.63078 0.0
C894 C 0.16644 0.61047 0.64643 0.0
C895 C 0.09025 0.53613 0.63558 0.0
N896 N 0.16031 0.59306 0.69573 0.0
N897 N 0.10667 0.54461 0.58576 0.0
H898 H 0.03033 0.48685 0.647 0.0
H899 H 0.0361 0.49657 0.61105 0.0
H900 H 0.1248 0.56075 0.56852 0.0
H901 H 0.08263 0.51537 0.58056 0.0
H902 H 0.19072 0.6165 0.70047 0.0
H903 H 0.14471 0.57513 0.71299 0.0
H904 H 0.20771 0.66222 0.67132 0.0
H905 H 0.21765 0.66823 0.63527 0.0
C906 C 0.57003 0.11708 0.84055 0.0
C907 C 0.56388 0.13643 0.86424 0.0
C908 C 0.57506 0.19296 0.8346 0.0
C909 C 0.57527 0.1708 0.81059 0.0
N910 N 0.57058 0.11111 0.78973 0.0
N911 N 0.56103 0.19262 0.88468 0.0
C912 C 0.5727 0.13293 0.81332 0.0
C913 C 0.56695 0.1746 0.86155 0.0
N914 N 0.57326 0.08349 0.84402 0.0
N915 N 0.58304 0.23162 0.83152 0.0
H916 H 0.55763 0.18107 0.90493 0.0
H917 H 0.55792 0.21801 0.88384 0.0
H918 H 0.58871 0.24557 0.81196 0.0
H919 H 0.58707 0.25098 0.84829 0.0
H920 H 0.58283 0.07109 0.82814 0.0
H921 H 0.56969 0.06957 0.86331 0.0
H922 H 0.56281 0.08096 0.79009 0.0
H923 H 0.5738 0.12218 0.76935 0.0
C924 C 0.59363 0.66196 -0.01797 0.0
C925 C 0.57161 0.66529 0.00553 0.0
C926 C 0.51861 0.66397 0.97417 0.0
C927 C 0.54012 0.6598 0.95064 0.0
N928 N 0.60378 0.66686 0.93139 0.0
N929 N 0.52204 0.68263 0.02352 0.0
C930 C 0.57962 0.66284 0.95436 0.0
C931 C 0.53722 0.67105 0.00132 0.0
N932 N 0.62634 0.65559 -0.01395 0.0
N933 N 0.47897 0.65788 0.97115 0.0
H934 H 0.5354 0.68794 0.04361 0.0
H935 H 0.49943 0.69093 0.0214 0.0
H936 H 0.46305 0.65122 0.95199 0.0
H937 H 0.46018 0.65593 -0.01185 0.0
H938 H 0.63985 0.64756 0.96988 0.0
H939 H 0.63875 0.65628 0.00581 0.0
H940 H 0.63462 0.673 0.93277 0.0
H941 H 0.59438 0.66808 0.9109 0.0
C942 C 0.86967 0.38658 0.16968 0.0
C943 C 0.9125 0.39941 0.17469 0.0
C944 C 0.921 0.38758 0.1248 0.0
C945 C 0.88073 0.38176 0.11908 0.0
N946 N 0.81646 0.37693 0.13568 0.0
N947 N 0.98002 0.41357 0.15708 0.0
C948 C 0.85458 0.38079 0.14146 0.0
C949 C 0.93833 0.39966 0.15234 0.0
N950 N 0.84352 0.37983 0.19199 0.0
N951 N 0.94247 0.38133 0.10379 0.0
H952 H 0.99393 0.4223 0.17692 0.0
H953 H 0.00155 0.4189 0.14112 0.0
H954 H 0.93017 0.37224 0.08349 0.0
H955 H 0.9703 0.3813 0.10701 0.0
H956 H 0.81104 0.36671 0.19001 0.0
H957 H 0.85391 0.38397 0.21285 0.0
H958 H 0.79852 0.38132 0.15066 0.0
H959 H 0.80367 0.3717 0.11548 0.0
loop_
_geom_bond_atom_site_label_1
_geom_bond_atom_site_label_2
_geom_bond_distance
_geom_bond_site_symmetry_2
_ccdc_geom_bond_type
H0 O26 0.856 . S
H1 O29 0.854 . S
H2 C37 0.930 1_455 S
H3 C38 0.930 . S
H4 C40 0.930 . S
H5 C41 0.930 . S
H6 C43 0.931 . S
H7 C44 0.930 . S
H8 C46 0.930 . S
H9 C47 0.929 . S
H10 C49 0.930 . S
H11 C50 0.931 . S
H12 C52 0.930 . S
H13 C53 0.929 . S
H14 C55 0.931 . S
H15 C56 0.930 . S
H16 C58 0.930 . S
H17 C59 0.932 . S
H18 C61 0.930 . S
H19 C62 0.929 . S
H20 C64 0.931 . S
H21 C65 0.930 . S
H22 C67 0.929 . S
H23 C68 0.931 . S
H24 C70 0.930 . S
H25 C71 0.929 . S
O26 H0 0.856 . S
O26 C72 1.300 . S
O27 C72 1.209 . S
O28 C73 1.199 . S
O29 H1 0.854 . S
O29 C73 1.297 . S
C30 C31 1.404 . S
C30 C35 1.397 . S
C30 C36 1.492 . S
C31 C30 1.404 . S
C31 C32 1.396 . S
C31 C42 1.492 . S
C32 C31 1.396 . S
C32 C33 1.397 . S
C32 C48 1.509 . S
C33 C32 1.397 . S
C33 C34 1.412 . S
C33 C54 1.485 . S
C34 C33 1.412 . S
C34 C35 1.388 . S
C34 C60 1.490 . S
C35 C30 1.397 . S
C35 C34 1.388 . S
C35 C66 1.519 1_455 S
C36 C30 1.492 . S
C36 C37 1.363 1_455 S
C36 C41 1.390 1_455 S
C37 H2 0.930 1_655 S
C37 C36 1.363 1_655 S
C37 C38 1.372 . S
C38 H3 0.930 . S
C38 C37 1.372 . S
C38 C39 1.383 . S
C39 C38 1.383 . S
C39 C40 1.395 . S
C40 H4 0.930 . S
C40 C39 1.395 . S
C40 C41 1.362 . S
C41 H5 0.930 . S
C41 C36 1.390 1_655 S
C41 C40 1.362 . S
C42 C31 1.492 . S
C42 C43 1.377 . S
C42 C47 1.397 . S
C43 H6 0.931 . S
C43 C42 1.377 . S
C43 C44 1.376 . S
C44 H7 0.930 . S
C44 C43 1.376 . S
C44 C45 1.376 . S
C45 C44 1.376 . S
C45 C46 1.378 . S
C45 C72 1.486 . S
C46 H8 0.930 . S
C46 C45 1.378 . S
C46 C47 1.376 . S
C47 H9 0.929 . S
C47 C42 1.397 . S
C47 C46 1.376 . S
C48 C32 1.509 . S
C48 C49 1.391 . S
C48 C53 1.386 . S
C49 H10 0.930 . S
C49 C48 1.391 . S
C49 C50 1.375 . S
C50 H11 0.931 . S
C50 C49 1.375 . S
C50 C51 1.375 . S
C51 C50 1.375 . S
C51 C52 1.361 . S
C52 H12 0.930 . S
C52 C51 1.361 . S
C52 C53 1.399 . S
C53 H13 0.929 . S
C53 C48 1.386 . S
C53 C52 1.399 . S
C54 C33 1.485 . S
C54 C55 1.394 . S
C54 C59 1.360 . S
C55 H14 0.931 . S
C55 C54 1.394 . S
C55 C56 1.372 . S
C56 H15 0.930 . S
C56 C55 1.372 . S
C56 C57 1.397 . S
C57 C56 1.397 . S
C57 C58 1.390 . S
C57 C73 1.476 . S
C58 H16 0.930 . S
C58 C57 1.390 . S
C58 C59 1.366 . S
C59 H17 0.932 . S
C59 C54 1.360 . S
C59 C58 1.366 . S
C60 C34 1.490 . S
C60 C61 1.380 . S
C60 C65 1.386 . S
C61 H18 0.930 . S
C61 C60 1.380 . S
C61 C62 1.381 . S
C62 H19 0.929 . S
C62 C61 1.381 . S
C62 C63 1.371 . S
C63 C62 1.371 . S
C63 C64 1.380 . S
C64 H20 0.931 . S
C64 C63 1.380 . S
C64 C65 1.387 . S
C65 H21 0.930 . S
C65 C60 1.386 . S
C65 C64 1.387 . S
C66 C35 1.519 1_655 S
C66 C67 1.377 . S
C66 C71 1.361 . S
C67 H22 0.929 . S
C67 C66 1.377 . S
C67 C68 1.386 . S
C68 H23 0.931 . S
C68 C67 1.386 . S
C68 C69 1.363 . S
C69 C68 1.363 . S
C69 C70 1.385 . S
C70 H24 0.930 . S
C70 C69 1.385 . S
C70 C71 1.396 . S
C71 H25 0.929 . S
C71 C66 1.361 . S
C71 C70 1.396 . S
C72 O26 1.300 . S
C72 O27 1.209 . S
C72 C45 1.486 . S
C73 O28 1.199 . S
C73 O29 1.297 . S
C73 C57 1.476 . S
H74 O100 0.856 . S
H75 O103 0.854 . S
H76 C111 0.930 1_545 S
H77 C112 0.930 . S
H78 C114 0.930 . S
H79 C115 0.930 . S
H80 C117 0.931 . S
H81 C118 0.930 . S
H82 C120 0.930 . S
H83 C121 0.929 . S
H84 C123 0.930 . S
H85 C124 0.931 . S
H86 C126 0.930 . S
H87 C127 0.929 . S
H88 C129 0.931 . S
H89 C130 0.930 . S
H90 C132 0.930 . S
H91 C133 0.932 . S
H92 C135 0.930 . S
H93 C136 0.929 . S
H94 C138 0.931 . S
H95 C139 0.930 . S
H96 C141 0.929 . S
H97 C142 0.931 . S
H98 C144 0.930 . S
H99 C145 0.929 . S
O100 H74 0.856 . S
O100 C146 1.300 . S
O101 C146 1.209 . S
O102 C147 1.199 . S
O103 H75 0.854 . S
O103 C147 1.297 . S
C104 C105 1.404 . S
C104 C109 1.397 . S
C104 C110 1.492 1_545 S
C105 C104 1.404 . S
C105 C106 1.396 . S
C105 C116 1.492 . S
C106 C105 1.396 . S
C106 C107 1.397 . S
C106 C122 1.509 . S
C107 C106 1.397 . S
C107 C108 1.412 . S
C107 C128 1.485 . S
C108 C107 1.412 . S
C108 C109 1.388 . S
C108 C134 1.490 . S
C109 C104 1.397 . S
C109 C108 1.388 . S
C109 C140 1.519 1_545 S
C110 C104 1.492 1_565 S
C110 C111 1.363 . S
C110 C115 1.390 . S
C111 H76 0.930 1_565 S
C111 C110 1.363 . S
C111 C112 1.372 . S
C112 H77 0.930 . S
C112 C111 1.372 . S
C112 C113 1.383 . S
C113 C112 1.383 . S
C113 C114 1.395 . S
C114 H78 0.930 . S
C114 C113 1.395 . S
C114 C115 1.362 . S
C115 H79 0.930 . S
C115 C110 1.390 . S
C115 C114 1.362 . S
C116 C105 1.492 . S
C116 C117 1.377 . S
C116 C121 1.397 . S
C117 H80 0.931 . S
C117 C116 1.377 . S
C117 C118 1.376 . S
C118 H81 0.930 . S
C118 C117 1.376 . S
C118 C119 1.376 . S
C119 C118 1.376 . S
C119 C120 1.378 . S
C119 C146 1.486 . S
C120 H82 0.930 . S
C120 C119 1.378 . S
C120 C121 1.376 . S
C121 H83 0.929 . S
C121 C116 1.397 . S
C121 C120 1.376 . S
C122 C106 1.509 . S
C122 C123 1.391 . S
C122 C127 1.386 . S
C123 H84 0.930 . S
C123 C122 1.391 . S
C123 C124 1.375 . S
C124 H85 0.931 . S
C124 C123 1.375 . S
C124 C125 1.375 . S
C125 C124 1.375 . S
C125 C126 1.361 . S
C126 H86 0.930 . S
C126 C125 1.361 . S
C126 C127 1.399 . S
C127 H87 0.929 . S
C127 C122 1.386 . S
C127 C126 1.399 . S
C128 C107 1.485 . S
C128 C129 1.394 . S
C128 C133 1.360 . S
C129 H88 0.931 . S
C129 C128 1.394 . S
C129 C130 1.372 . S
C130 H89 0.930 . S
C130 C129 1.372 . S
C130 C131 1.397 . S
C131 C130 1.397 . S
C131 C132 1.390 . S
C131 C147 1.476 . S
C132 H90 0.930 . S
C132 C131 1.390 . S
C132 C133 1.366 . S
C133 H91 0.932 . S
C133 C128 1.360 . S
C133 C132 1.366 . S
C134 C108 1.490 . S
C134 C135 1.380 . S
C134 C139 1.386 . S
C135 H92 0.930 . S
C135 C134 1.380 . S
C135 C136 1.381 . S
C136 H93 0.929 . S
C136 C135 1.381 . S
C136 C137 1.371 . S
C137 C136 1.371 . S
C137 C138 1.380 . S
C138 H94 0.931 . S
C138 C137 1.380 . S
C138 C139 1.387 . S
C139 H95 0.930 . S
C139 C134 1.386 . S
C139 C138 1.387 . S
C140 C109 1.519 1_565 S
C140 C141 1.377 . S
C140 C145 1.361 . S
C141 H96 0.929 . S
C141 C140 1.377 . S
C141 C142 1.386 . S
C142 H97 0.931 . S
C142 C141 1.386 . S
C142 C143 1.363 . S
C143 C142 1.363 . S
C143 C144 1.385 . S
C144 H98 0.930 . S
C144 C143 1.385 . S
C144 C145 1.396 . S
C145 H99 0.929 . S
C145 C140 1.361 . S
C145 C144 1.396 . S
C146 O100 1.300 . S
C146 O101 1.209 . S
C146 C119 1.486 . S
C147 O102 1.199 . S
C147 O103 1.297 . S
C147 C131 1.476 . S
H148 O174 0.856 . S
H149 O177 0.854 . S
H150 C185 0.930 . S
H151 C186 0.930 . S
H152 C188 0.930 . S
H153 C189 0.930 . S
H154 C191 0.931 . S
H155 C192 0.930 . S
H156 C194 0.930 . S
H157 C195 0.929 . S
H158 C197 0.930 . S
H159 C198 0.931 . S
H160 C200 0.930 . S
H161 C201 0.929 . S
H162 C203 0.931 . S
H163 C204 0.930 . S
H164 C206 0.930 . S
H165 C207 0.932 . S
H166 C209 0.930 . S
H167 C210 0.929 . S
H168 C212 0.931 . S
H169 C213 0.930 . S
H170 C215 0.929 . S
H171 C216 0.931 . S
H172 C218 0.930 . S
H173 C219 0.929 . S
O174 H148 0.856 . S
O174 C220 1.300 . S
O175 C220 1.209 . S
O176 C221 1.199 . S
O177 H149 0.854 . S
O177 C221 1.297 . S
C178 C179 1.404 . S
C178 C183 1.397 . S
C178 C184 1.492 . S
C179 C178 1.404 . S
C179 C180 1.396 . S
C179 C190 1.492 . S
C180 C179 1.396 . S
C180 C181 1.397 . S
C180 C196 1.509 . S
C181 C180 1.397 . S
C181 C182 1.412 . S
C181 C202 1.485 . S
C182 C181 1.412 . S
C182 C183 1.388 . S
C182 C208 1.490 . S
C183 C178 1.397 . S
C183 C182 1.388 . S
C183 C214 1.519 . S
C184 C178 1.492 . S
C184 C185 1.363 . S
C184 C189 1.390 . S
C185 H150 0.930 . S
C185 C184 1.363 . S
C185 C186 1.372 . S
C186 H151 0.930 . S
C186 C185 1.372 . S
C186 C187 1.383 . S
C187 C186 1.383 . S
C187 C188 1.395 . S
C188 H152 0.930 . S
C188 C187 1.395 . S
C188 C189 1.362 . S
C189 H153 0.930 . S
C189 C184 1.390 . S
C189 C188 1.362 . S
C190 C179 1.492 . S
C190 C191 1.377 . S
C190 C195 1.397 . S
C191 H154 0.931 . S
C191 C190 1.377 . S
C191 C192 1.376 . S
C192 H155 0.930 . S
C192 C191 1.376 . S
C192 C193 1.376 . S
C193 C192 1.376 . S
C193 C194 1.378 . S
C193 C220 1.486 . S
C194 H156 0.930 . S
C194 C193 1.378 . S
C194 C195 1.376 . S
C195 H157 0.929 . S
C195 C190 1.397 . S
C195 C194 1.376 . S
C196 C180 1.509 . S
C196 C197 1.391 . S
C196 C201 1.386 . S
C197 H158 0.930 . S
C197 C196 1.391 . S
C197 C198 1.375 . S
C198 H159 0.931 . S
C198 C197 1.375 . S
C198 C199 1.375 . S
C199 C198 1.375 . S
C199 C200 1.361 . S
C200 H160 0.930 . S
C200 C199 1.361 . S
C200 C201 1.399 . S
C201 H161 0.929 . S
C201 C196 1.386 . S
C201 C200 1.399 . S
C202 C181 1.485 . S
C202 C203 1.394 . S
C202 C207 1.360 . S
C203 H162 0.931 . S
C203 C202 1.394 . S
C203 C204 1.372 . S
C204 H163 0.930 . S
C204 C203 1.372 . S
C204 C205 1.397 . S
C205 C204 1.397 . S
C205 C206 1.390 . S
C205 C221 1.476 . S
C206 H164 0.930 . S
C206 C205 1.390 . S
C206 C207 1.366 . S
C207 H165 0.932 . S
C207 C202 1.360 . S
C207 C206 1.366 . S
C208 C182 1.490 . S
C208 C209 1.380 . S
C208 C213 1.386 . S
C209 H166 0.930 . S
C209 C208 1.380 . S
C209 C210 1.381 . S
C210 H167 0.929 . S
C210 C209 1.381 . S
C210 C211 1.371 . S
C211 C210 1.371 . S
C211 C212 1.380 . S
C212 H168 0.931 . S
C212 C211 1.380 . S
C212 C213 1.387 . S
C213 H169 0.930 . S
C213 C208 1.386 . S
C213 C212 1.387 . S
C214 C183 1.519 . S
C214 C215 1.377 . S
C214 C219 1.361 . S
C215 H170 0.929 . S
C215 C214 1.377 . S
C215 C216 1.386 . S
C216 H171 0.931 . S
C216 C215 1.386 . S
C216 C217 1.363 . S
C217 C216 1.363 . S
C217 C218 1.385 . S
C218 H172 0.930 . S
C218 C217 1.385 . S
C218 C219 1.396 . S
C219 H173 0.929 . S
C219 C214 1.361 . S
C219 C218 1.396 . S
C220 O174 1.300 . S
C220 O175 1.209 . S
C220 C193 1.486 . S
C221 O176 1.199 . S
C221 O177 1.297 . S
C221 C205 1.476 . S
H222 O248 0.856 1_554 S
H223 O251 0.854 . S
H224 C259 0.930 1_455 S
H225 C260 0.930 . S
H226 C262 0.930 . S
H227 C263 0.930 . S
H228 C265 0.931 . S
H229 C266 0.930 . S
H230 C268 0.930 . S
H231 C269 0.929 . S
H232 C271 0.930 . S
H233 C272 0.931 . S
H234 C274 0.930 . S
H235 C275 0.929 . S
H236 C277 0.931 . S
H237 C278 0.930 . S
H238 C280 0.930 . S
H239 C281 0.932 . S
H240 C283 0.930 . S
H241 C284 0.929 . S
H242 C286 0.931 . S
H243 C287 0.930 . S
H244 C289 0.929 . S
H245 C290 0.931 . S
H246 C292 0.930 . S
H247 C293 0.929 . S
O248 H222 0.856 1_556 S
O248 C294 1.300 . S
O249 C294 1.209 . S
O250 C295 1.199 . S
O251 H223 0.854 . S
O251 C295 1.297 . S
C252 C253 1.404 . S
C252 C257 1.397 . S
C252 C258 1.496 . S
C253 C252 1.404 . S
C253 C254 1.396 . S
C253 C264 1.492 . S
C254 C253 1.396 . S
C254 C255 1.397 . S
C254 C270 1.509 . S
C255 C254 1.397 . S
C255 C256 1.412 . S
C255 C276 1.485 . S
C256 C255 1.412 . S
C256 C257 1.388 . S
C256 C282 1.490 . S
C257 C252 1.397 . S
C257 C256 1.388 . S
C257 C288 1.519 1_455 S
C258 C252 1.496 . S
C258 C259 1.360 1_455 S
C258 C263 1.389 1_455 S
C259 H224 0.930 1_655 S
C259 C258 1.360 1_655 S
C259 C260 1.372 . S
C260 H225 0.930 . S
C260 C259 1.372 . S
C260 C261 1.383 . S
C261 C260 1.383 . S
C261 C262 1.395 . S
C262 H226 0.930 . S
C262 C261 1.395 . S
C262 C263 1.362 . S
C263 H227 0.930 . S
C263 C258 1.389 1_655 S
C263 C262 1.362 . S
C264 C253 1.492 . S
C264 C265 1.377 . S
C264 C269 1.397 . S
C265 H228 0.931 . S
C265 C264 1.377 . S
C265 C266 1.376 . S
C266 H229 0.930 . S
C266 C265 1.376 . S
C266 C267 1.376 . S
C267 C266 1.376 . S
C267 C268 1.378 . S
C267 C294 1.486 . S
C268 H230 0.930 . S
C268 C267 1.378 . S
C268 C269 1.376 . S
C269 H231 0.929 . S
C269 C264 1.397 . S
C269 C268 1.376 . S
C270 C254 1.509 . S
C270 C271 1.391 . S
C270 C275 1.386 . S
C271 H232 0.930 . S
C271 C270 1.391 . S
C271 C272 1.375 . S
C272 H233 0.931 . S
C272 C271 1.375 . S
C272 C273 1.375 . S
C273 C272 1.375 . S
C273 C274 1.361 . S
C274 H234 0.930 . S
C274 C273 1.361 . S
C274 C275 1.399 . S
C275 H235 0.929 . S
C275 C270 1.386 . S
C275 C274 1.399 . S
C276 C255 1.485 . S
C276 C277 1.394 . S
C276 C281 1.360 . S
C277 H236 0.931 . S
C277 C276 1.394 . S
C277 C278 1.372 . S
C278 H237 0.930 . S
C278 C277 1.372 . S
C278 C279 1.397 . S
C279 C278 1.397 . S
C279 C280 1.390 . S
C279 C295 1.476 . S
C280 H238 0.930 . S
C280 C279 1.390 . S
C280 C281 1.366 . S
C281 H239 0.932 . S
C281 C276 1.360 . S
C281 C280 1.366 . S
C282 C256 1.490 . S
C282 C283 1.380 . S
C282 C287 1.386 . S
C283 H240 0.930 . S
C283 C282 1.380 . S
C283 C284 1.381 . S
C284 H241 0.929 . S
C284 C283 1.381 . S
C284 C285 1.371 . S
C285 C284 1.371 . S
C285 C286 1.380 . S
C286 H242 0.931 . S
C286 C285 1.380 . S
C286 C287 1.387 . S
C287 H243 0.930 . S
C287 C282 1.386 . S
C287 C286 1.387 . S
C288 C257 1.519 1_655 S
C288 C289 1.377 . S
C288 C293 1.361 . S
C289 H244 0.929 . S
C289 C288 1.377 . S
C289 C290 1.386 . S
C290 H245 0.931 . S
C290 C289 1.386 . S
C290 C291 1.363 . S
C291 C290 1.363 . S
C291 C292 1.385 . S
C292 H246 0.930 . S
C292 C291 1.385 . S
C292 C293 1.396 . S
C293 H247 0.929 . S
C293 C288 1.361 . S
C293 C292 1.396 . S
C294 O248 1.300 . S
C294 O249 1.209 . S
C294 C267 1.486 . S
C295 O250 1.199 . S
C295 O251 1.297 . S
C295 C279 1.476 . S
H296 O322 0.856 . S
H297 O325 0.854 . S
H298 C333 0.930 . S
H299 C334 0.930 . S
H300 C336 0.930 . S
H301 C337 0.930 . S
H302 C339 0.931 . S
H303 C340 0.930 . S
H304 C342 0.930 . S
H305 C343 0.929 . S
H306 C345 0.930 . S
H307 C346 0.931 . S
H308 C348 0.930 . S
H309 C349 0.929 . S
H310 C351 0.931 . S
H311 C352 0.930 . S
H312 C354 0.930 . S
H313 C355 0.932 . S
H314 C357 0.947 . S
H315 C358 0.931 1_545 S
H316 C360 0.931 . S
H317 C361 0.930 . S
H318 C363 0.929 1_556 S
H319 C364 0.931 . S
H320 C366 0.930 . S
H321 C367 0.929 . S
O322 H296 0.856 . S
O322 C368 1.300 . S
O323 C368 1.209 . S
O324 C369 1.199 . S
O325 H297 0.854 . S
O325 C369 1.297 . S
C326 C327 1.404 1_545 S
C326 C331 1.397 . S
C326 C332 1.492 . S
C327 C326 1.404 1_565 S
C327 C328 1.396 . S
C327 C338 1.492 . S
C328 C327 1.396 . S
C328 C329 1.397 . S
C328 C344 1.509 . S
C329 C328 1.397 . S
C329 C330 1.412 1_556 S
C329 C350 1.485 1_556 S
C330 C329 1.412 1_554 S
C330 C331 1.388 1_564 S
C330 C356 1.490 . S
C331 C326 1.397 . S
C331 C330 1.388 1_546 S
C331 C362 1.519 1_556 S
C332 C326 1.492 . S
C332 C333 1.363 . S
C332 C337 1.390 . S
C333 H298 0.930 . S
C333 C332 1.363 . S
C333 C334 1.372 . S
C334 H299 0.930 . S
C334 C333 1.372 . S
C334 C335 1.383 . S
C335 C334 1.383 . S
C335 C336 1.395 . S
C336 H300 0.930 . S
C336 C335 1.395 . S
C336 C337 1.362 . S
C337 H301 0.930 . S
C337 C332 1.390 . S
C337 C336 1.362 . S
C338 C327 1.492 . S
C338 C339 1.377 . S
C338 C343 1.397 . S
C339 H302 0.931 . S
C339 C338 1.377 . S
C339 C340 1.376 . S
C340 H303 0.930 . S
C340 C339 1.376 . S
C340 C341 1.376 . S
C341 C340 1.376 . S
C341 C342 1.378 . S
C341 C368 1.486 . S
C342 H304 0.930 . S
C342 C341 1.378 . S
C342 C343 1.376 . S
C343 H305 0.929 . S
C343 C338 1.397 . S
C343 C342 1.376 . S
C344 C328 1.509 . S
C344 C345 1.391 . S
C344 C349 1.386 . S
C345 H306 0.930 . S
C345 C344 1.391 . S
C345 C346 1.375 . S
C346 H307 0.931 . S
C346 C345 1.375 . S
C346 C347 1.375 . S
C347 C346 1.375 . S
C347 C348 1.361 . S
C348 H308 0.930 . S
C348 C347 1.361 . S
C348 C349 1.399 . S
C349 H309 0.929 . S
C349 C344 1.386 . S
C349 C348 1.399 . S
C350 C329 1.485 1_554 S
C350 C351 1.394 . S
C350 C355 1.360 . S
C351 H310 0.931 . S
C351 C350 1.394 . S
C351 C352 1.372 . S
C352 H311 0.930 . S
C352 C351 1.372 . S
C352 C353 1.397 . S
C353 C352 1.397 . S
C353 C354 1.390 . S
C353 C369 1.476 . S
C354 H312 0.930 . S
C354 C353 1.390 . S
C354 C355 1.366 . S
C355 H313 0.932 . S
C355 C350 1.360 . S
C355 C354 1.366 . S
C356 C330 1.490 . S
C356 C357 1.380 . S
C356 C361 1.386 . S
C357 H314 0.947 . S
C357 C356 1.380 . S
C357 C358 1.381 . S
C358 H315 0.931 1_565 S
C358 C357 1.381 . S
C358 C359 1.370 . S
C359 C358 1.370 . S
C359 C360 1.380 . S
C360 H316 0.931 . S
C360 C359 1.380 . S
C360 C361 1.387 . S
C361 H317 0.930 . S
C361 C356 1.386 . S
C361 C360 1.387 . S
C362 C331 1.519 1_554 S
C362 C363 1.377 . S
C362 C367 1.361 . S
C363 H318 0.929 1_554 S
C363 C362 1.377 . S
C363 C364 1.386 . S
C364 H319 0.931 . S
C364 C363 1.386 . S
C364 C365 1.363 . S
C365 C364 1.363 . S
C365 C366 1.385 . S
C366 H320 0.930 . S
C366 C365 1.385 . S
C366 C367 1.396 . S
C367 H321 0.929 . S
C367 C362 1.361 . S
C367 C366 1.396 . S
C368 O322 1.300 . S
C368 O323 1.209 . S
C368 C341 1.486 . S
C369 O324 1.199 . S
C369 O325 1.297 . S
C369 C353 1.476 . S
H370 O396 0.856 . S
H371 O399 0.854 . S
H372 C407 0.930 . S
H373 C408 0.930 . S
H374 C410 0.930 . S
H375 C411 0.930 . S
H376 C413 0.931 . S
H377 C414 0.930 . S
H378 C416 0.930 . S
H379 C417 0.929 . S
H380 C419 0.930 . S
H381 C420 0.931 . S
H382 C422 0.930 . S
H383 C423 0.929 . S
H384 C425 0.931 . S
H385 C426 0.930 . S
H386 C428 0.930 . S
H387 C429 0.932 . S
H388 C431 0.930 . S
H389 C432 0.929 . S
H390 C434 0.931 . S
H391 C435 0.930 . S
H392 C437 0.929 . S
H393 C438 0.931 . S
H394 C440 0.930 . S
H395 C441 0.929 . S
O396 H370 0.856 . S
O396 C442 1.300 . S
O397 C442 1.209 . S
O398 C443 1.199 . S
O399 H371 0.854 . S
O399 C443 1.297 . S
C400 C401 1.404 . S
C400 C405 1.397 . S
C400 C406 1.492 . S
C401 C400 1.404 . S
C401 C402 1.396 . S
C401 C412 1.492 . S
C402 C401 1.396 . S
C402 C403 1.397 . S
C402 C418 1.509 . S
C403 C402 1.397 . S
C403 C404 1.412 . S
C403 C424 1.485 . S
C404 C403 1.412 . S
C404 C405 1.388 . S
C404 C430 1.490 . S
C405 C400 1.397 . S
C405 C404 1.388 . S
C405 C436 1.519 . S
C406 C400 1.492 . S
C406 C407 1.363 . S
C406 C411 1.390 . S
C407 H372 0.930 . S
C407 C406 1.363 . S
C407 C408 1.372 . S
C408 H373 0.930 . S
C408 C407 1.372 . S
C408 C409 1.383 . S
C409 C408 1.383 . S
C409 C410 1.395 . S
C410 H374 0.930 . S
C410 C409 1.395 . S
C410 C411 1.362 . S
C411 H375 0.930 . S
C411 C406 1.390 . S
C411 C410 1.362 . S
C412 C401 1.492 . S
C412 C413 1.377 . S
C412 C417 1.397 . S
C413 H376 0.931 . S
C413 C412 1.377 . S
C413 C414 1.376 . S
C414 H377 0.930 . S
C414 C413 1.376 . S
C414 C415 1.376 . S
C415 C414 1.376 . S
C415 C416 1.378 . S
C415 C442 1.486 1_554 S
C416 H378 0.930 . S
C416 C415 1.378 . S
C416 C417 1.376 . S
C417 H379 0.929 . S
C417 C412 1.397 . S
C417 C416 1.376 . S
C418 C402 1.509 . S
C418 C419 1.391 . S
C418 C423 1.386 . S
C419 H380 0.930 . S
C419 C418 1.391 . S
C419 C420 1.375 . S
C420 H381 0.931 . S
C420 C419 1.375 . S
C420 C421 1.375 . S
C421 C420 1.375 . S
C421 C422 1.361 . S
C422 H382 0.930 . S
C422 C421 1.361 . S
C422 C423 1.399 . S
C423 H383 0.929 . S
C423 C418 1.386 . S
C423 C422 1.399 . S
C424 C403 1.485 . S
C424 C425 1.394 . S
C424 C429 1.360 . S
C425 H384 0.931 . S
C425 C424 1.394 . S
C425 C426 1.372 . S
C426 H385 0.930 . S
C426 C425 1.372 . S
C426 C427 1.397 . S
C427 C426 1.397 . S
C427 C428 1.390 . S
C427 C443 1.476 . S
C428 H386 0.930 . S
C428 C427 1.390 . S
C428 C429 1.366 . S
C429 H387 0.932 . S
C429 C424 1.360 . S
C429 C428 1.366 . S
C430 C404 1.490 . S
C430 C431 1.380 . S
C430 C435 1.386 . S
C431 H388 0.930 . S
C431 C430 1.380 . S
C431 C432 1.381 . S
C432 H389 0.929 . S
C432 C431 1.381 . S
C432 C433 1.371 . S
C433 C432 1.371 . S
C433 C434 1.380 . S
C434 H390 0.931 . S
C434 C433 1.380 . S
C434 C435 1.387 . S
C435 H391 0.930 . S
C435 C430 1.386 . S
C435 C434 1.387 . S
C436 C405 1.519 . S
C436 C437 1.377 . S
C436 C441 1.361 . S
C437 H392 0.929 . S
C437 C436 1.377 . S
C437 C438 1.386 . S
C438 H393 0.931 . S
C438 C437 1.386 . S
C438 C439 1.363 . S
C439 C438 1.363 . S
C439 C440 1.385 . S
C440 H394 0.930 . S
C440 C439 1.385 . S
C440 C441 1.396 . S
C441 H395 0.929 . S
C441 C436 1.361 . S
C441 C440 1.396 . S
C442 O396 1.300 . S
C442 O397 1.209 . S
C442 C415 1.486 1_556 S
C443 O398 1.199 . S
C443 O399 1.297 . S
C443 C427 1.476 . S
Zn444 O447 2.031 . S
Zn444 O449 2.049 . S
Zn444 O454 2.067 . S
Zn445 O446 1.962 . S
Zn445 O448 1.986 . S
Zn445 O450 1.996 . S
Zn445 O453 1.943 . S
O446 Zn445 1.962 . S
O446 C451 1.254 . S
O447 Zn444 2.031 . S
O447 C451 1.269 . S
O448 Zn445 1.986 . S
O448 C455 1.262 . S
O449 Zn444 2.049 . S
O449 C457 1.260 . S
O450 Zn445 1.996 . S
O450 C457 1.257 . S
C451 O446 1.254 . S
C451 O447 1.269 . S
C452 O453 1.249 . S
C452 O454 1.270 . S
O453 Zn445 1.943 . S
O453 C452 1.249 . S
O454 Zn444 2.067 . S
O454 C452 1.270 . S
C455 O448 1.262 . S
C455 O456 1.232 . S
O456 C455 1.232 . S
C457 O449 1.260 . S
C457 O450 1.257 . S
Zn458 O461 2.031 . S
Zn458 O463 2.049 . S
Zn458 O468 2.067 . S
Zn459 O460 1.962 . S
Zn459 O462 1.986 . S
Zn459 O464 1.996 . S
Zn459 O467 1.943 . S
O460 Zn459 1.962 . S
O460 C465 1.254 . S
O461 Zn458 2.031 . S
O461 C465 1.269 . S
O462 Zn459 1.986 . S
O462 C469 1.262 . S
O463 Zn458 2.049 . S
O463 C471 1.260 . S
O464 Zn459 1.996 . S
O464 C471 1.257 . S
C465 O460 1.254 . S
C465 O461 1.269 . S
C466 O467 1.249 . S
C466 O468 1.270 . S
O467 Zn459 1.943 . S
O467 C466 1.249 . S
O468 Zn458 2.067 . S
O468 C466 1.270 . S
C469 O462 1.262 . S
C469 O470 1.232 . S
O470 C469 1.232 . S
C471 O463 1.260 . S
C471 O464 1.257 . S
Zn472 O475 2.031 . S
Zn472 O477 2.049 . S
Zn472 O482 2.067 . S
Zn473 O474 1.962 . S
Zn473 O476 1.986 . S
Zn473 O478 1.996 . S
Zn473 O481 1.943 . S
O474 Zn473 1.962 . S
O474 C479 1.254 . S
O475 Zn472 2.031 . S
O475 C479 1.269 . S
O476 Zn473 1.986 . S
O476 C483 1.262 . S
O477 Zn472 2.049 . S
O477 C485 1.260 . S
O478 Zn473 1.996 . S
O478 C485 1.257 . S
C479 O474 1.254 . S
C479 O475 1.269 . S
C480 O481 1.249 . S
C480 O482 1.270 . S
O481 Zn473 1.943 . S
O481 C480 1.249 . S
O482 Zn472 2.067 . S
O482 C480 1.270 . S
C483 O476 1.262 . S
C483 O484 1.232 . S
O484 C483 1.232 . S
C485 O477 1.260 . S
C485 O478 1.257 . S
Zn486 O489 2.031 . S
Zn486 O491 2.049 . S
Zn486 O496 2.067 . S
Zn487 O488 1.962 . S
Zn487 O490 1.986 . S
Zn487 O492 1.996 . S
Zn487 O495 1.943 . S
O488 Zn487 1.962 . S
O488 C493 1.254 . S
O489 Zn486 2.031 . S
O489 C493 1.269 . S
O490 Zn487 1.986 . S
O490 C497 1.262 . S
O491 Zn486 2.049 . S
O491 C499 1.260 . S
O492 Zn487 1.996 . S
O492 C499 1.257 . S
C493 O488 1.254 . S
C493 O489 1.269 . S
C494 O495 1.249 . S
C494 O496 1.270 . S
O495 Zn487 1.943 . S
O495 C494 1.249 . S
O496 Zn486 2.067 . S
O496 C494 1.270 . S
C497 O490 1.262 . S
C497 O498 1.232 . S
O498 C497 1.232 . S
C499 O491 1.260 . S
C499 O492 1.257 . S
Zn500 O503 2.031 . S
Zn500 O505 2.049 . S
Zn500 O510 2.067 . S
Zn501 O502 1.962 . S
Zn501 O504 1.986 . S
Zn501 O506 1.996 . S
Zn501 O509 1.943 . S
O502 Zn501 1.962 . S
O502 C507 1.254 . S
O503 Zn500 2.031 . S
O503 C507 1.269 . S
O504 Zn501 1.986 . S
O504 C511 1.262 . S
O505 Zn500 2.049 . S
O505 C513 1.260 . S
O506 Zn501 1.996 . S
O506 C513 1.257 . S
C507 O502 1.254 . S
C507 O503 1.269 . S
C508 O509 1.249 . S
C508 O510 1.270 . S
O509 Zn501 1.943 . S
O509 C508 1.249 . S
O510 Zn500 2.067 . S
O510 C508 1.270 . S
C511 O504 1.262 . S
C511 O512 1.232 . S
O512 C511 1.232 . S
C513 O505 1.260 . S
C513 O506 1.257 . S
Zn514 O517 2.031 . S
Zn514 O519 2.049 . S
Zn514 O524 2.067 . S
Zn515 O516 1.962 . S
Zn515 O518 1.986 . S
Zn515 O520 1.996 . S
Zn515 O523 1.943 . S
O516 Zn515 1.962 . S
O516 C521 1.254 . S
O517 Zn514 2.031 . S
O517 C521 1.269 . S
O518 Zn515 1.986 . S
O518 C525 1.262 . S
O519 Zn514 2.049 . S
O519 C527 1.260 . S
O520 Zn515 1.996 . S
O520 C527 1.257 . S
C521 O516 1.254 . S
C521 O517 1.269 . S
C522 O523 1.249 . S
C522 O524 1.270 . S
O523 Zn515 1.943 . S
O523 C522 1.249 . S
O524 Zn514 2.067 . S
O524 C522 1.270 . S
C525 O518 1.262 . S
C525 O526 1.232 . S
O526 C525 1.232 . S
C527 O519 1.260 . S
C527 O520 1.257 . S
C528 C529 1.363 . S
C528 C534 1.379 . S
C528 N536 1.356 . S
C529 C528 1.363 . S
C529 C535 1.363 . S
C530 C531 1.363 . S
C530 C535 1.379 . S
C530 N537 1.356 . S
C531 C530 1.363 . S
C531 C534 1.363 . S
N532 C534 1.356 . S
N532 H544 0.984 . S
N532 H545 0.985 . S
N533 C535 1.356 . S
N533 H538 0.984 . S
N533 H539 0.985 . S
C534 C528 1.379 . S
C534 C531 1.363 . S
C534 N532 1.356 . S
C535 C529 1.363 . S
C535 C530 1.379 . S
C535 N533 1.356 . S
N536 C528 1.356 . S
N536 H542 0.984 . S
N536 H543 0.984 . S
N537 C530 1.356 . S
N537 H540 0.984 . S
N537 H541 0.985 . S
H538 N533 0.984 . S
H539 N533 0.985 . S
H540 N537 0.984 . S
H541 N537 0.985 . S
H542 N536 0.984 . S
H543 N536 0.984 . S
H544 N532 0.984 . S
H545 N532 0.985 . S
C546 C547 1.363 . S
C546 C552 1.379 . S
C546 N554 1.356 . S
C547 C546 1.363 . S
C547 C553 1.363 . S
C548 C549 1.363 . S
C548 C553 1.379 . S
C548 N555 1.356 . S
C549 C548 1.363 . S
C549 C552 1.363 . S
N550 C552 1.356 . S
N550 H562 0.984 . S
N550 H563 0.985 . S
N551 C553 1.356 . S
N551 H556 0.984 . S
N551 H557 0.985 . S
C552 C546 1.379 . S
C552 C549 1.363 . S
C552 N550 1.356 . S
C553 C547 1.363 . S
C553 C548 1.379 . S
C553 N551 1.356 . S
N554 C546 1.356 . S
N554 H560 0.984 . S
N554 H561 0.984 . S
N555 C548 1.356 . S
N555 H558 0.984 . S
N555 H559 0.985 . S
H556 N551 0.984 . S
H557 N551 0.985 . S
H558 N555 0.984 . S
H559 N555 0.985 . S
H560 N554 0.984 . S
H561 N554 0.984 . S
H562 N550 0.984 . S
H563 N550 0.985 . S
C564 C565 1.363 . S
C564 C570 1.379 . S
C564 N572 1.356 . S
C565 C564 1.363 . S
C565 C571 1.363 . S
C566 C567 1.363 . S
C566 C571 1.379 . S
C566 N573 1.356 . S
C567 C566 1.363 . S
C567 C570 1.363 . S
N568 C570 1.356 . S
N568 H580 0.984 . S
N568 H581 0.985 . S
N569 C571 1.356 . S
N569 H574 0.984 . S
N569 H575 0.985 . S
C570 C564 1.379 . S
C570 C567 1.363 . S
C570 N568 1.356 . S
C571 C565 1.363 . S
C571 C566 1.379 . S
C571 N569 1.356 . S
N572 C564 1.356 . S
N572 H578 0.984 . S
N572 H579 0.984 . S
N573 C566 1.356 . S
N573 H576 0.984 . S
N573 H577 0.985 . S
H574 N569 0.984 . S
H575 N569 0.985 . S
H576 N573 0.984 . S
H577 N573 0.985 . S
H578 N572 0.984 . S
H579 N572 0.984 . S
H580 N568 0.984 . S
H581 N568 0.985 . S
C582 C583 1.363 . S
C582 C588 1.379 . S
C582 N590 1.356 . S
C583 C582 1.363 . S
C583 C589 1.363 . S
C584 C585 1.363 . S
C584 C589 1.379 . S
C584 N591 1.356 . S
C585 C584 1.363 . S
C585 C588 1.363 . S
N586 C588 1.356 . S
N586 H598 0.984 . S
N586 H599 0.985 . S
N587 C589 1.356 . S
N587 H592 0.984 . S
N587 H593 0.985 . S
C588 C582 1.379 . S
C588 C585 1.363 . S
C588 N586 1.356 . S
C589 C583 1.363 . S
C589 C584 1.379 . S
C589 N587 1.356 . S
N590 C582 1.356 . S
N590 H596 0.984 . S
N590 H597 0.984 . S
N591 C584 1.356 . S
N591 H594 0.984 . S
N591 H595 0.985 . S
H592 N587 0.984 . S
H593 N587 0.985 . S
H594 N591 0.984 . S
H595 N591 0.985 . S
H596 N590 0.984 . S
H597 N590 0.984 . S
H598 N586 0.984 . S
H599 N586 0.985 . S
C600 C601 1.363 . S
C600 C606 1.379 . S
C600 N608 1.356 . S
C601 C600 1.363 . S
C601 C607 1.363 . S
C602 C603 1.363 . S
C602 C607 1.379 . S
C602 N609 1.356 . S
C603 C602 1.363 . S
C603 C606 1.363 . S
N604 C606 1.356 . S
N604 H616 0.984 . S
N604 H617 0.985 . S
N605 C607 1.356 . S
N605 H610 0.984 . S
N605 H611 0.985 . S
C606 C600 1.379 . S
C606 C603 1.363 . S
C606 N604 1.356 . S
C607 C601 1.363 . S
C607 C602 1.379 . S
C607 N605 1.356 . S
N608 C600 1.356 . S
N608 H614 0.984 . S
N608 H615 0.984 . S
N609 C602 1.356 . S
N609 H612 0.984 . S
N609 H613 0.985 . S
H610 N605 0.984 . S
H611 N605 0.985 . S
H612 N609 0.984 . S
H613 N609 0.985 . S
H614 N608 0.984 . S
H615 N608 0.984 . S
H616 N604 0.984 . S
H617 N604 0.985 . S
C618 C619 1.363 . S
C618 C624 1.379 . S
C618 N626 1.356 . S
C619 C618 1.363 . S
C619 C625 1.363 . S
C620 C621 1.363 . S
C620 C625 1.379 . S
C620 N627 1.356 . S
C621 C620 1.363 . S
C621 C624 1.363 . S
N622 C624 1.356 . S
N622 H634 0.984 . S
N622 H635 0.985 . S
N623 C625 1.356 . S
N623 H628 0.984 . S
N623 H629 0.985 . S
C624 C618 1.379 . S
C624 C621 1.363 . S
C624 N622 1.356 . S
C625 C619 1.363 . S
C625 C620 1.379 . S
C625 N623 1.356 . S
N626 C618 1.356 . S
N626 H632 0.984 . S
N626 H633 0.984 . S
N627 C620 1.356 . S
N627 H630 0.984 . S
N627 H631 0.985 . S
H628 N623 0.984 . S
H629 N623 0.985 . S
H630 N627 0.984 . S
H631 N627 0.985 . S
H632 N626 0.984 . S
H633 N626 0.984 . S
H634 N622 0.984 . S
H635 N622 0.985 . S
C636 C637 1.363 . S
C636 C642 1.379 . S
C636 N644 1.356 . S
C637 C636 1.363 . S
C637 C643 1.363 . S
C638 C639 1.363 . S
C638 C643 1.379 . S
C638 N645 1.356 . S
C639 C638 1.363 . S
C639 C642 1.363 . S
N640 C642 1.356 . S
N640 H652 0.984 . S
N640 H653 0.985 . S
N641 C643 1.356 . S
N641 H646 0.984 . S
N641 H647 0.985 . S
C642 C636 1.379 . S
C642 C639 1.363 . S
C642 N640 1.356 . S
C643 C637 1.363 . S
C643 C638 1.379 . S
C643 N641 1.356 . S
N644 C636 1.356 . S
N644 H650 0.984 . S
N644 H651 0.984 . S
N645 C638 1.356 . S
N645 H648 0.984 . S
N645 H649 0.985 . S
H646 N641 0.984 . S
H647 N641 0.985 . S
H648 N645 0.984 . S
H649 N645 0.985 . S
H650 N644 0.984 . S
H651 N644 0.984 . S
H652 N640 0.984 . S
H653 N640 0.985 . S
C654 C655 1.363 . S
C654 C660 1.379 . S
C654 N662 1.356 . S
C655 C654 1.363 . S
C655 C661 1.363 . S
C656 C657 1.363 . S
C656 C661 1.379 . S
C656 N663 1.356 . S
C657 C656 1.363 . S
C657 C660 1.363 . S
N658 C660 1.356 . S
N658 H670 0.984 . S
N658 H671 0.985 . S
N659 C661 1.356 . S
N659 H664 0.984 . S
N659 H665 0.985 . S
C660 C654 1.379 . S
C660 C657 1.363 . S
C660 N658 1.356 . S
C661 C655 1.363 . S
C661 C656 1.379 . S
C661 N659 1.356 . S
N662 C654 1.356 . S
N662 H668 0.984 . S
N662 H669 0.984 . S
N663 C656 1.356 . S
N663 H666 0.984 . S
N663 H667 0.985 . S
H664 N659 0.984 . S
H665 N659 0.985 . S
H666 N663 0.984 . S
H667 N663 0.985 . S
H668 N662 0.984 . S
H669 N662 0.984 . S
H670 N658 0.984 . S
H671 N658 0.985 . S
C672 C673 1.363 . S
C672 C678 1.379 . S
C672 N680 1.356 . S
C673 C672 1.363 . S
C673 C679 1.363 . S
C674 C675 1.363 . S
C674 C679 1.379 . S
C674 N681 1.356 . S
C675 C674 1.363 . S
C675 C678 1.363 . S
N676 C678 1.356 . S
N676 H688 0.984 . S
N676 H689 0.985 . S
N677 C679 1.356 . S
N677 H682 0.984 . S
N677 H683 0.985 . S
C678 C672 1.379 . S
C678 C675 1.363 . S
C678 N676 1.356 . S
C679 C673 1.363 . S
C679 C674 1.379 . S
C679 N677 1.356 . S
N680 C672 1.356 . S
N680 H686 0.984 . S
N680 H687 0.984 . S
N681 C674 1.356 . S
N681 H684 0.984 . S
N681 H685 0.985 . S
H682 N677 0.984 . S
H683 N677 0.985 . S
H684 N681 0.984 . S
H685 N681 0.985 . S
H686 N680 0.984 . S
H687 N680 0.984 . S
H688 N676 0.984 . S
H689 N676 0.985 . S
C690 C691 1.363 . S
C690 C696 1.379 . S
C690 N698 1.356 1_554 S
C691 C690 1.363 . S
C691 C697 1.363 . S
C692 C693 1.363 . S
C692 C697 1.379 . S
C692 N699 1.356 . S
C693 C692 1.363 . S
C693 C696 1.363 . S
N694 C696 1.356 . S
N694 H706 0.984 1_554 S
N694 H707 0.985 . S
N695 C697 1.356 . S
N695 H700 0.984 . S
N695 H701 0.985 . S
C696 C690 1.379 . S
C696 C693 1.363 . S
C696 N694 1.356 . S
C697 C691 1.363 . S
C697 C692 1.379 . S
C697 N695 1.356 . S
N698 C690 1.356 1_556 S
N698 H704 0.984 . S
N698 H705 0.984 . S
N699 C692 1.356 . S
N699 H702 0.984 . S
N699 H703 0.985 . S
H700 N695 0.984 . S
H701 N695 0.985 . S
H702 N699 0.984 . S
H703 N699 0.985 . S
H704 N698 0.984 . S
H705 N698 0.984 . S
H706 N694 0.984 1_556 S
H707 N694 0.985 . S
C708 C709 1.363 . S
C708 C714 1.379 . S
C708 N716 1.356 . S
C709 C708 1.363 . S
C709 C715 1.363 . S
C710 C711 1.363 . S
C710 C715 1.379 . S
C710 N717 1.356 . S
C711 C710 1.363 . S
C711 C714 1.363 . S
N712 C714 1.356 . S
N712 H724 0.984 . S
N712 H725 0.985 . S
N713 C715 1.356 . S
N713 H718 0.984 . S
N713 H719 0.985 . S
C714 C708 1.379 . S
C714 C711 1.363 . S
C714 N712 1.356 . S
C715 C709 1.363 . S
C715 C710 1.379 . S
C715 N713 1.356 . S
N716 C708 1.356 . S
N716 H722 0.984 . S
N716 H723 0.984 . S
N717 C710 1.356 . S
N717 H720 0.984 . S
N717 H721 0.985 . S
H718 N713 0.984 . S
H719 N713 0.985 . S
H720 N717 0.984 . S
H721 N717 0.985 . S
H722 N716 0.984 . S
H723 N716 0.984 . S
H724 N712 0.984 . S
H725 N712 0.985 . S
C726 C727 1.363 . S
C726 C732 1.379 . S
C726 N734 1.356 . S
C727 C726 1.363 . S
C727 C733 1.363 . S
C728 C729 1.363 . S
C728 C733 1.379 . S
C728 N735 1.356 . S
C729 C728 1.363 . S
C729 C732 1.363 . S
N730 C732 1.356 . S
N730 H742 0.984 . S
N730 H743 0.985 . S
N731 C733 1.356 . S
N731 H736 0.984 . S
N731 H737 0.985 . S
C732 C726 1.379 . S
C732 C729 1.363 . S
C732 N730 1.356 . S
C733 C727 1.363 . S
C733 C728 1.379 . S
C733 N731 1.356 . S
N734 C726 1.356 . S
N734 H740 0.984 . S
N734 H741 0.984 . S
N735 C728 1.356 . S
N735 H738 0.984 . S
N735 H739 0.985 . S
H736 N731 0.984 . S
H737 N731 0.985 . S
H738 N735 0.984 . S
H739 N735 0.985 . S
H740 N734 0.984 . S
H741 N734 0.984 . S
H742 N730 0.984 . S
H743 N730 0.985 . S
C744 C745 1.363 . S
C744 C750 1.379 . S
C744 N752 1.356 . S
C745 C744 1.363 . S
C745 C751 1.363 . S
C746 C747 1.363 . S
C746 C751 1.379 . S
C746 N753 1.356 . S
C747 C746 1.363 . S
C747 C750 1.363 . S
N748 C750 1.356 . S
N748 H760 0.984 . S
N748 H761 0.985 . S
N749 C751 1.356 . S
N749 H754 0.984 . S
N749 H755 0.985 . S
C750 C744 1.379 . S
C750 C747 1.363 . S
C750 N748 1.356 . S
C751 C745 1.363 . S
C751 C746 1.379 . S
C751 N749 1.356 . S
N752 C744 1.356 . S
N752 H758 0.984 . S
N752 H759 0.984 . S
N753 C746 1.356 . S
N753 H756 0.984 . S
N753 H757 0.985 . S
H754 N749 0.984 . S
H755 N749 0.985 . S
H756 N753 0.984 . S
H757 N753 0.985 . S
H758 N752 0.984 . S
H759 N752 0.984 . S
H760 N748 0.984 . S
H761 N748 0.985 . S
C762 C763 1.363 . S
C762 C768 1.379 . S
C762 N770 1.356 . S
C763 C762 1.363 . S
C763 C769 1.363 . S
C764 C765 1.363 . S
C764 C769 1.379 . S
C764 N771 1.356 . S
C765 C764 1.363 . S
C765 C768 1.363 . S
N766 C768 1.356 . S
N766 H778 0.984 . S
N766 H779 0.985 . S
N767 C769 1.356 . S
N767 H772 0.984 . S
N767 H773 0.985 . S
C768 C762 1.379 . S
C768 C765 1.363 . S
C768 N766 1.356 . S
C769 C763 1.363 . S
C769 C764 1.379 . S
C769 N767 1.356 . S
N770 C762 1.356 . S
N770 H776 0.984 . S
N770 H777 0.984 . S
N771 C764 1.356 . S
N771 H774 0.984 . S
N771 H775 0.985 . S
H772 N767 0.984 . S
H773 N767 0.985 . S
H774 N771 0.984 . S
H775 N771 0.985 . S
H776 N770 0.984 . S
H777 N770 0.984 . S
H778 N766 0.984 . S
H779 N766 0.985 . S
C780 C781 1.363 . S
C780 C786 1.379 . S
C780 N788 1.356 . S
C781 C780 1.363 . S
C781 C787 1.363 . S
C782 C783 1.363 . S
C782 C787 1.379 . S
C782 N789 1.356 . S
C783 C782 1.363 . S
C783 C786 1.363 . S
N784 C786 1.356 . S
N784 H796 0.984 . S
N784 H797 0.985 . S
N785 C787 1.356 . S
N785 H790 0.984 . S
N785 H791 0.985 . S
C786 C780 1.379 . S
C786 C783 1.363 . S
C786 N784 1.356 . S
C787 C781 1.363 . S
C787 C782 1.379 . S
C787 N785 1.356 . S
N788 C780 1.356 . S
N788 H794 0.984 . S
N788 H795 0.984 . S
N789 C782 1.356 . S
N789 H792 0.984 . S
N789 H793 0.985 . S
H790 N785 0.984 . S
H791 N785 0.985 . S
H792 N789 0.984 . S
H793 N789 0.985 . S
H794 N788 0.984 . S
H795 N788 0.984 . S
H796 N784 0.984 . S
H797 N784 0.985 . S
C798 C799 1.363 . S
C798 C804 1.379 . S
C798 N806 1.356 . S
C799 C798 1.363 . S
C799 C805 1.363 . S
C800 C801 1.363 . S
C800 C805 1.379 . S
C800 N807 1.356 . S
C801 C800 1.363 . S
C801 C804 1.363 . S
N802 C804 1.366 . S
N802 H814 0.986 . S
N802 H815 0.974 1_556 S
N803 C805 1.356 . S
N803 H808 0.984 . S
N803 H809 0.985 . S
C804 C798 1.379 . S
C804 C801 1.363 . S
C804 N802 1.366 . S
C805 C799 1.363 . S
C805 C800 1.379 . S
C805 N803 1.356 . S
N806 C798 1.356 . S
N806 H812 0.984 . S
N806 H813 0.984 . S
N807 C800 1.356 . S
N807 H810 0.984 1_556 S
N807 H811 0.985 . S
H808 N803 0.984 . S
H809 N803 0.985 . S
H810 N807 0.984 1_554 S
H811 N807 0.985 . S
H812 N806 0.984 . S
H813 N806 0.984 . S
H814 N802 0.986 . S
H815 N802 0.974 1_554 S
C816 C817 1.363 . S
C816 C822 1.379 . S
C816 N824 1.356 . S
C817 C816 1.363 . S
C817 C823 1.363 . S
C818 C819 1.363 . S
C818 C823 1.379 . S
C818 N825 1.356 . S
C819 C818 1.363 . S
C819 C822 1.363 . S
N820 C822 1.356 . S
N820 H832 0.984 . S
N820 H833 0.985 . S
N821 C823 1.356 1_545 S
N821 H826 0.984 . S
N821 H827 0.985 . S
C822 C816 1.379 . S
C822 C819 1.363 . S
C822 N820 1.356 . S
C823 C817 1.363 . S
C823 C818 1.379 . S
C823 N821 1.356 1_565 S
N824 C816 1.356 . S
N824 H830 0.984 . S
N824 H831 0.984 . S
N825 C818 1.356 . S
N825 H828 0.984 . S
N825 H829 0.985 . S
H826 N821 0.984 . S
H827 N821 0.985 . S
H828 N825 0.984 . S
H829 N825 0.985 . S
H830 N824 0.984 . S
H831 N824 0.984 . S
H832 N820 0.984 . S
H833 N820 0.985 . S
C834 C835 1.363 . S
C834 C840 1.379 . S
C834 N842 1.356 . S
C835 C834 1.363 . S
C835 C841 1.363 . S
C836 C837 1.363 . S
C836 C841 1.379 . S
C836 N843 1.356 . S
C837 C836 1.363 . S
C837 C840 1.363 . S
N838 C840 1.356 . S
N838 H850 0.984 . S
N838 H851 0.985 . S
N839 C841 1.356 . S
N839 H844 0.984 . S
N839 H845 0.985 . S
C840 C834 1.379 . S
C840 C837 1.363 . S
C840 N838 1.356 . S
C841 C835 1.363 . S
C841 C836 1.379 . S
C841 N839 1.356 . S
N842 C834 1.356 . S
N842 H848 0.984 . S
N842 H849 0.984 . S
N843 C836 1.356 . S
N843 H846 0.984 . S
N843 H847 0.985 . S
H844 N839 0.984 . S
H845 N839 0.985 . S
H846 N843 0.984 . S
H847 N843 0.985 . S
H848 N842 0.984 . S
H849 N842 0.984 . S
H850 N838 0.984 . S
H851 N838 0.985 . S
C852 C853 1.363 . S
C852 C858 1.379 . S
C852 N860 1.356 . S
C853 C852 1.363 . S
C853 C859 1.363 . S
C854 C855 1.363 . S
C854 C859 1.379 . S
C854 N861 1.356 . S
C855 C854 1.363 . S
C855 C858 1.363 . S
N856 C858 1.356 . S
N856 H868 0.984 . S
N856 H869 0.985 . S
N857 C859 1.356 . S
N857 H862 0.984 . S
N857 H863 0.985 . S
C858 C852 1.379 . S
C858 C855 1.363 . S
C858 N856 1.356 . S
C859 C853 1.363 . S
C859 C854 1.379 . S
C859 N857 1.356 . S
N860 C852 1.356 . S
N860 H866 0.984 . S
N860 H867 0.984 . S
N861 C854 1.356 . S
N861 H864 0.984 . S
N861 H865 0.985 . S
H862 N857 0.984 . S
H863 N857 0.985 . S
H864 N861 0.984 . S
H865 N861 0.985 . S
H866 N860 0.984 . S
H867 N860 0.984 . S
H868 N856 0.984 . S
H869 N856 0.985 . S
C870 C871 1.363 . S
C870 C876 1.379 . S
C870 N878 1.356 . S
C871 C870 1.363 . S
C871 C877 1.363 . S
C872 C873 1.363 . S
C872 C877 1.379 . S
C872 N879 1.356 . S
C873 C872 1.363 . S
C873 C876 1.363 . S
N874 C876 1.356 . S
N874 H886 0.984 . S
N874 H887 0.985 . S
N875 C877 1.356 . S
N875 H880 0.984 . S
N875 H881 0.985 . S
C876 C870 1.379 . S
C876 C873 1.363 . S
C876 N874 1.356 . S
C877 C871 1.363 . S
C877 C872 1.379 . S
C877 N875 1.356 . S
N878 C870 1.356 . S
N878 H884 0.984 . S
N878 H885 0.984 . S
N879 C872 1.356 . S
N879 H882 0.984 . S
N879 H883 0.985 . S
H880 N875 0.984 . S
H881 N875 0.985 . S
H882 N879 0.984 . S
H883 N879 0.985 . S
H884 N878 0.984 . S
H885 N878 0.984 . S
H886 N874 0.984 . S
H887 N874 0.985 . S
C888 C889 1.363 . S
C888 C894 1.379 . S
C888 N896 1.356 . S
C889 C888 1.363 . S
C889 C895 1.363 . S
C890 C891 1.363 . S
C890 C895 1.379 . S
C890 N897 1.356 . S
C891 C890 1.363 . S
C891 C894 1.363 . S
N892 C894 1.356 . S
N892 H904 0.984 . S
N892 H905 0.985 . S
N893 C895 1.356 . S
N893 H898 0.984 . S
N893 H899 0.985 . S
C894 C888 1.379 . S
C894 C891 1.363 . S
C894 N892 1.356 . S
C895 C889 1.363 . S
C895 C890 1.379 . S
C895 N893 1.356 . S
N896 C888 1.356 . S
N896 H902 0.984 . S
N896 H903 0.984 . S
N897 C890 1.356 . S
N897 H900 0.984 . S
N897 H901 0.985 . S
H898 N893 0.984 . S
H899 N893 0.985 . S
H900 N897 0.984 . S
H901 N897 0.985 . S
H902 N896 0.984 . S
H903 N896 0.984 . S
H904 N892 0.984 . S
H905 N892 0.985 . S
C906 C907 1.363 . S
C906 C912 1.379 . S
C906 N914 1.356 . S
C907 C906 1.363 . S
C907 C913 1.363 . S
C908 C909 1.363 . S
C908 C913 1.379 . S
C908 N915 1.356 . S
C909 C908 1.363 . S
C909 C912 1.363 . S
N910 C912 1.356 . S
N910 H922 0.984 . S
N910 H923 0.985 . S
N911 C913 1.356 . S
N911 H916 0.984 . S
N911 H917 0.985 . S
C912 C906 1.379 . S
C912 C909 1.363 . S
C912 N910 1.356 . S
C913 C907 1.363 . S
C913 C908 1.379 . S
C913 N911 1.356 . S
N914 C906 1.356 . S
N914 H920 0.984 . S
N914 H921 0.984 . S
N915 C908 1.356 . S
N915 H918 0.984 . S
N915 H919 0.985 . S
H916 N911 0.984 . S
H917 N911 0.985 . S
H918 N915 0.984 . S
H919 N915 0.985 . S
H920 N914 0.984 . S
H921 N914 0.984 . S
H922 N910 0.984 . S
H923 N910 0.985 . S
C924 C925 1.363 . S
C924 C930 1.379 1_554 S
C924 N932 1.356 . S
C925 C924 1.363 . S
C925 C931 1.363 . S
C926 C927 1.363 . S
C926 C931 1.379 1_556 S
C926 N933 1.356 . S
C927 C926 1.363 . S
C927 C930 1.363 . S
N928 C930 1.356 . S
N928 H940 0.984 . S
N928 H941 0.985 . S
N929 C931 1.356 . S
N929 H934 0.984 . S
N929 H935 0.985 . S
C930 C924 1.379 1_556 S
C930 C927 1.363 . S
C930 N928 1.356 . S
C931 C925 1.363 . S
C931 C926 1.379 1_554 S
C931 N929 1.356 . S
N932 C924 1.356 . S
N932 H938 0.984 . S
N932 H939 0.984 . S
N933 C926 1.356 . S
N933 H936 0.984 . S
N933 H937 0.985 . S
H934 N929 0.984 . S
H935 N929 0.985 . S
H936 N933 0.984 . S
H937 N933 0.985 . S
H938 N932 0.984 . S
H939 N932 0.984 . S
H940 N928 0.984 . S
H941 N928 0.985 . S
C942 C943 1.363 . S
C942 C948 1.379 . S
C942 N950 1.356 . S
C943 C942 1.363 . S
C943 C949 1.363 . S
C944 C945 1.363 . S
C944 C949 1.379 . S
C944 N951 1.356 . S
C945 C944 1.363 . S
C945 C948 1.363 . S
N946 C948 1.356 . S
N946 H958 0.984 . S
N946 H959 0.985 . S
N947 C949 1.356 . S
N947 H952 0.984 . S
N947 H953 0.985 . S
C948 C942 1.379 . S
C948 C945 1.363 . S
C948 N946 1.356 . S
C949 C943 1.363 . S
C949 C944 1.379 . S
C949 N947 1.356 . S
N950 C942 1.356 . S
N950 H956 0.984 . S
N950 H957 0.984 . S
N951 C944 1.356 . S
N951 H954 0.984 . S
N951 H955 0.985 . S
H952 N947 0.984 . S
H953 N947 0.985 . S
H954 N951 0.984 . S
H955 N951 0.985 . S
H956 N950 0.984 . S
H957 N950 0.984 . S
H958 N946 0.984 . S
H959 N946 0.985 . S
C531 C521 1.425 . S
C529 C51 1.376 . S
C547 C125 1.457 . S
C549 C455 1.426 . S
C565 C217 2.348 . S
C567 C469 2.340 . S
C583 C291 1.497 . S
C585 C483 1.455 . S
C603 C497 1.107 . S
C601 C347 1.118 . S
C619 C421 0.944 . S
C621 C507 0.949 . S
C637 C143 2.269 . S
C639 C465 2.282 . S
C655 C199 1.627 . S
C657 C479 1.667 . S
C673 C273 0.697 . S
C675 C493 0.695 . S
C693 C511 1.642 . S
C691 C365 1.657 . S
C711 C525 1.811 . S
C709 C439 1.891 . S
C729 C451 2.364 . S
C727 C69 2.318 . S
C745 C63 1.520 . S
C747 C466 1.593 . S
C763 C137 1.709 . S
C765 C480 1.759 . S
C783 C494 1.520 . S
C781 C187 1.410 . S
C799 C261 1.515 . S
C801 C513 1.565 1_556 S
C819 C527 1.485 . S
C817 C359 1.483 . S
C837 C452 1.225 . S
C835 C433 1.178 . S
C855 C522 1.704 . S
C853 C113 1.706 . S
C871 C211 1.310 . S
C873 C457 1.375 . S
C891 C471 1.672 . S
C889 C285 1.549 . S
C907 C335 1.398 . S
C909 C485 1.417 . S
C925 C409 1.378 . S
C927 C499 1.459 . S
C943 C39 1.666 . S
C945 C508 1.686 . S
