# Generated by pormake.
# Topology ptr, (4,4)-cn, num edge types: 1
# Building blocks:
#     Node 0, Type 0, BuildingBlock: QUQFOY_clean_sbu_3, # of connection points: 4
#     Node 1, Type 0, BuildingBlock: QUQFOY_clean_sbu_3, # of connection points: 4
#     Node 2, Type 0, BuildingBlock: QUQFOY_clean_sbu_3, # of connection points: 4
#     Node 3, Type 0, BuildingBlock: QUQFOY_clean_sbu_3, # of connection points: 4
#     Node 4, Type 0, BuildingBlock: QUQFOY_clean_sbu_3, # of connection points: 4
#     Node 5, Type 0, BuildingBlock: QUQFOY_clean_sbu_3, # of connection points: 4
#     Node 6, Type 0, BuildingBlock: QUQFOY_clean_sbu_3, # of connection points: 4
#     Node 7, Type 0, BuildingBlock: QUQFOY_clean_sbu_3, # of connection points: 4
#     Node 8, Type 0, BuildingBlock: QUQFOY_clean_sbu_3, # of connection points: 4
#     Node 9, Type 0, BuildingBlock: QUQFOY_clean_sbu_3, # of connection points: 4
#     Node 10, Type 0, BuildingBlock: QUQFOY_clean_sbu_3, # of connection points: 4
#     Node 11, Type 0, BuildingBlock: QUQFOY_clean_sbu_3, # of connection points: 4
#     Node 12, Type 0, BuildingBlock: QUQFOY_clean_sbu_3, # of connection points: 4
#     Node 13, Type 0, BuildingBlock: QUQFOY_clean_sbu_3, # of connection points: 4
#     Node 14, Type 0, BuildingBlock: QUQFOY_clean_sbu_3, # of connection points: 4
#     Node 15, Type 0, BuildingBlock: QUQFOY_clean_sbu_3, # of connection points: 4
#     Node 16, Type 0, BuildingBlock: QUQFOY_clean_sbu_3, # of connection points: 4
#     Node 17, Type 0, BuildingBlock: QUQFOY_clean_sbu_3, # of connection points: 4
#     Node 18, Type 1, BuildingBlock: AZAVOO_clean_linker_0, # of connection points: 4
#     Node 19, Type 1, BuildingBlock: AZAVOO_clean_linker_0, # of connection points: 4
#     Node 20, Type 1, BuildingBlock: AZAVOO_clean_linker_0, # of connection points: 4
#     Node 21, Type 1, BuildingBlock: AZAVOO_clean_linker_0, # of connection points: 4
#     Node 22, Type 1, BuildingBlock: AZAVOO_clean_linker_0, # of connection points: 4
#     Node 23, Type 1, BuildingBlock: AZAVOO_clean_linker_0, # of connection points: 4
#     Node 24, Type 1, BuildingBlock: AZAVOO_clean_linker_0, # of connection points: 4
#     Node 25, Type 1, BuildingBlock: AZAVOO_clean_linker_0, # of connection points: 4
#     Node 26, Type 1, BuildingBlock: AZAVOO_clean_linker_0, # of connection points: 4
#     Node 27, Type 1, BuildingBlock: AZAVOO_clean_linker_0, # of connection points: 4
#     Node 28, Type 1, BuildingBlock: AZAVOO_clean_linker_0, # of connection points: 4
#     Node 29, Type 1, BuildingBlock: AZAVOO_clean_linker_0, # of connection points: 4
#     Node 30, Type 1, BuildingBlock: AZAVOO_clean_linker_0, # of connection points: 4
#     Node 31, Type 1, BuildingBlock: AZAVOO_clean_linker_0, # of connection points: 4
#     Node 32, Type 1, BuildingBlock: AZAVOO_clean_linker_0, # of connection points: 4
#     Node 33, Type 1, BuildingBlock: AZAVOO_clean_linker_0, # of connection points: 4
#     Node 34, Type 1, BuildingBlock: AZAVOO_clean_linker_0, # of connection points: 4
#     Node 35, Type 1, BuildingBlock: AZAVOO_clean_linker_0, # of connection points: 4
#     Edge 36, Type (0, 1), BuildingBlock: AJUNOK_clean_linker_0, # of connection points: 2
#     Edge 37, Type (0, 1), BuildingBlock: AJUNOK_clean_linker_0, # of connection points: 2
#     Edge 38, Type (0, 1), BuildingBlock: AJUNOK_clean_linker_0, # of connection points: 2
#     Edge 39, Type (0, 1), BuildingBlock: AJUNOK_clean_linker_0, # of connection points: 2
#     Edge 40, Type (0, 1), BuildingBlock: AJUNOK_clean_linker_0, # of connection points: 2
#     Edge 41, Type (0, 1), BuildingBlock: AJUNOK_clean_linker_0, # of connection points: 2
#     Edge 42, Type (0, 1), BuildingBlock: AJUNOK_clean_linker_0, # of connection points: 2
#     Edge 43, Type (0, 1), BuildingBlock: AJUNOK_clean_linker_0, # of connection points: 2
#     Edge 44, Type (0, 1), BuildingBlock: AJUNOK_clean_linker_0, # of connection points: 2
#     Edge 45, Type (0, 1), BuildingBlock: AJUNOK_clean_linker_0, # of connection points: 2
#     Edge 46, Type (0, 1), BuildingBlock: AJUNOK_clean_linker_0, # of connection points: 2
#     Edge 47, Type (0, 1), BuildingBlock: AJUNOK_clean_linker_0, # of connection points: 2
#     Edge 48, Type (0, 1), BuildingBlock: AJUNOK_clean_linker_0, # of connection points: 2
#     Edge 49, Type (0, 1), BuildingBlock: AJUNOK_clean_linker_0, # of connection points: 2
#     Edge 50, Type (0, 1), BuildingBlock: AJUNOK_clean_linker_0, # of connection points: 2
#     Edge 51, Type (0, 1), BuildingBlock: AJUNOK_clean_linker_0, # of connection points: 2
#     Edge 52, Type (0, 1), BuildingBlock: AJUNOK_clean_linker_0, # of connection points: 2
#     Edge 53, Type (0, 1), BuildingBlock: AJUNOK_clean_linker_0, # of connection points: 2
#     Edge 54, Type (0, 1), BuildingBlock: AJUNOK_clean_linker_0, # of connection points: 2
#     Edge 55, Type (0, 1), BuildingBlock: AJUNOK_clean_linker_0, # of connection points: 2
#     Edge 56, Type (0, 1), BuildingBlock: AJUNOK_clean_linker_0, # of connection points: 2
#     Edge 57, Type (0, 1), BuildingBlock: AJUNOK_clean_linker_0, # of connection points: 2
#     Edge 58, Type (0, 1), BuildingBlock: AJUNOK_clean_linker_0, # of connection points: 2
#     Edge 59, Type (0, 1), BuildingBlock: AJUNOK_clean_linker_0, # of connection points: 2
#     Edge 60, Type (0, 1), BuildingBlock: AJUNOK_clean_linker_0, # of connection points: 2
#     Edge 61, Type (0, 1), BuildingBlock: AJUNOK_clean_linker_0, # of connection points: 2
#     Edge 62, Type (0, 1), BuildingBlock: AJUNOK_clean_linker_0, # of connection points: 2
#     Edge 63, Type (0, 1), BuildingBlock: AJUNOK_clean_linker_0, # of connection points: 2
#     Edge 64, Type (0, 1), BuildingBlock: AJUNOK_clean_linker_0, # of connection points: 2
#     Edge 65, Type (0, 1), BuildingBlock: AJUNOK_clean_linker_0, # of connection points: 2
#     Edge 66, Type (0, 1), BuildingBlock: AJUNOK_clean_linker_0, # of connection points: 2
#     Edge 67, Type (0, 1), BuildingBlock: AJUNOK_clean_linker_0, # of connection points: 2
#     Edge 68, Type (0, 1), BuildingBlock: AJUNOK_clean_linker_0, # of connection points: 2
#     Edge 69, Type (0, 1), BuildingBlock: AJUNOK_clean_linker_0, # of connection points: 2
#     Edge 70, Type (0, 1), BuildingBlock: AJUNOK_clean_linker_0, # of connection points: 2
#     Edge 71, Type (0, 1), BuildingBlock: AJUNOK_clean_linker_0, # of connection points: 2
#     Edge 72, Type (0, 1), BuildingBlock: AJUNOK_clean_linker_0, # of connection points: 2
#     Edge 73, Type (0, 1), BuildingBlock: AJUNOK_clean_linker_0, # of connection points: 2
#     Edge 74, Type (0, 1), BuildingBlock: AJUNOK_clean_linker_0, # of connection points: 2
#     Edge 75, Type (0, 1), BuildingBlock: AJUNOK_clean_linker_0, # of connection points: 2
#     Edge 76, Type (0, 1), BuildingBlock: AJUNOK_clean_linker_0, # of connection points: 2
#     Edge 77, Type (0, 1), BuildingBlock: AJUNOK_clean_linker_0, # of connection points: 2
#     Edge 78, Type (0, 1), BuildingBlock: AJUNOK_clean_linker_0, # of connection points: 2
#     Edge 79, Type (0, 1), BuildingBlock: AJUNOK_clean_linker_0, # of connection points: 2
#     Edge 80, Type (0, 1), BuildingBlock: AJUNOK_clean_linker_0, # of connection points: 2
#     Edge 81, Type (0, 1), BuildingBlock: AJUNOK_clean_linker_0, # of connection points: 2
#     Edge 82, Type (0, 1), BuildingBlock: AJUNOK_clean_linker_0, # of connection points: 2
#     Edge 83, Type (0, 1), BuildingBlock: AJUNOK_clean_linker_0, # of connection points: 2
#     Edge 84, Type (0, 1), BuildingBlock: AJUNOK_clean_linker_0, # of connection points: 2
#     Edge 85, Type (0, 1), BuildingBlock: AJUNOK_clean_linker_0, # of connection points: 2
#     Edge 86, Type (0, 1), BuildingBlock: AJUNOK_clean_linker_0, # of connection points: 2
#     Edge 87, Type (0, 1), BuildingBlock: AJUNOK_clean_linker_0, # of connection points: 2
#     Edge 88, Type (0, 1), BuildingBlock: AJUNOK_clean_linker_0, # of connection points: 2
#     Edge 89, Type (0, 1), BuildingBlock: AJUNOK_clean_linker_0, # of connection points: 2
#     Edge 90, Type (0, 1), BuildingBlock: AJUNOK_clean_linker_0, # of connection points: 2
#     Edge 91, Type (0, 1), BuildingBlock: AJUNOK_clean_linker_0, # of connection points: 2
#     Edge 92, Type (0, 1), BuildingBlock: AJUNOK_clean_linker_0, # of connection points: 2
#     Edge 93, Type (0, 1), BuildingBlock: AJUNOK_clean_linker_0, # of connection points: 2
#     Edge 94, Type (0, 1), BuildingBlock: AJUNOK_clean_linker_0, # of connection points: 2
#     Edge 95, Type (0, 1), BuildingBlock: AJUNOK_clean_linker_0, # of connection points: 2
#     Edge 96, Type (0, 1), BuildingBlock: AJUNOK_clean_linker_0, # of connection points: 2
#     Edge 97, Type (0, 1), BuildingBlock: AJUNOK_clean_linker_0, # of connection points: 2
#     Edge 98, Type (0, 1), BuildingBlock: AJUNOK_clean_linker_0, # of connection points: 2
#     Edge 99, Type (0, 1), BuildingBlock: AJUNOK_clean_linker_0, # of connection points: 2
#     Edge 100, Type (0, 1), BuildingBlock: AJUNOK_clean_linker_0, # of connection points: 2
#     Edge 101, Type (0, 1), BuildingBlock: AJUNOK_clean_linker_0, # of connection points: 2
#     Edge 102, Type (0, 1), BuildingBlock: AJUNOK_clean_linker_0, # of connection points: 2
#     Edge 103, Type (0, 1), BuildingBlock: AJUNOK_clean_linker_0, # of connection points: 2
#     Edge 104, Type (0, 1), BuildingBlock: AJUNOK_clean_linker_0, # of connection points: 2
#     Edge 105, Type (0, 1), BuildingBlock: AJUNOK_clean_linker_0, # of connection points: 2
#     Edge 106, Type (0, 1), BuildingBlock: AJUNOK_clean_linker_0, # of connection points: 2
#     Edge 107, Type (0, 1), BuildingBlock: AJUNOK_clean_linker_0, # of connection points: 2
# Relax obj value: 0.058
# Max RMSD: 0.176
# Mean RMSD: 0.119
data_MOF--net-ptr--node1-QUQFOY_clean_sbu_3--node2-AZAVOO_clean_linker_0--edge1-AJUNOK_clean_linker_0
_symmetry_space_group_name_H-M    P1
_symmetry_Int_Tables_number       1
_symmetry_cell_setting            triclinic
loop_
_symmetry_equiv_pos_as_xyz
'x, y, z'
_cell_length_a     64.742267
_cell_length_b     63.93536
_cell_length_c     54.658777
_cell_angle_alpha  93.337112
_cell_angle_beta   92.230999
_cell_angle_gamma 120.74013
loop_
_atom_site_label
_atom_site_type_symbol
_atom_site_fract_x
_atom_site_fract_y
_atom_site_fract_z
_atom_type_partial_charge
C0 C 0.94857 0.30842 0.01076 0.0
O1 O 0.93644 0.31755 0.01868 0.0
Cd2 Cd 0.95428 0.35972 0.03304 0.0
O3 O 0.97149 0.32107 0.01226 0.0
Cd4 Cd 0.00411 0.36126 0.03131 0.0
C5 C 0.99212 0.38843 0.9869 0.0
O6 O 0.98442 0.36907 0.06475 0.0
O7 O 0.01731 0.4001 0.05475 0.0
O8 O 0.01539 0.3381 0.05565 0.0
C9 C 0.00041 0.39153 0.069 0.0
O10 O 0.97376 0.38315 -0.00123 0.0
C11 C 0.03711 0.34802 0.05039 0.0
O12 O 0.00663 0.38145 0.99348 0.0
O13 O 0.04386 0.36423 0.03516 0.0
C14 C 0.62202 0.66185 0.09069 0.0
O15 O 0.59964 0.65301 0.08564 0.0
Cd16 Cd 0.57592 0.6156 0.05973 0.0
O17 O 0.6323 0.65092 0.08217 0.0
Cd18 Cd 0.62252 0.61437 0.0556 0.0
C19 C 0.58411 0.57596 0.09273 0.0
O20 O 0.59621 0.61699 0.02358 0.0
O21 O 0.59668 0.58346 0.02293 0.0
O22 O 0.66172 0.64425 0.0437 0.0
C23 C 0.58989 0.59635 0.0125 0.0
O24 O 0.5701 0.58243 0.08354 0.0
C25 C 0.66957 0.6298 0.04099 0.0
O26 O 0.60614 0.58648 0.08798 0.0
O27 O 0.65556 0.60776 0.04538 0.0
C28 C 0.34602 0.95034 0.03776 0.0
O29 O 0.353 0.93647 0.02873 0.0
Cd30 Cd 0.39198 0.95526 0.01221 0.0
O31 O 0.35809 0.97314 0.03568 0.0
Cd32 Cd 0.39297 0.00475 0.01748 0.0
C33 C 0.42679 -0.00184 0.06056 0.0
O34 O 0.39242 0.98037 0.9809 0.0
O35 O 0.42458 0.01573 0.98987 0.0
O36 O 0.36243 0.01396 0.00561 0.0
C37 C 0.41284 0.99679 0.97491 0.0
O38 O 0.42125 0.97854 0.04755 0.0
C39 C 0.37597 0.03697 0.00913 0.0
O40 O 0.4179 0.01109 0.05473 0.0
O41 O 0.39784 0.04539 0.01679 0.0
C42 C 0.94365 0.6259 0.02955 0.0
O43 O 0.93086 0.60467 0.03652 0.0
Cd44 Cd 0.94842 0.58288 0.05309 0.0
O45 O 0.96647 0.63735 0.03374 0.0
Cd46 Cd -0.00266 0.63198 0.05582 0.0
C47 C 0.98901 0.59079 0.01015 0.0
O48 O 0.97607 0.60549 0.08819 0.0
O49 O 0.00893 0.60752 0.07788 0.0
O50 O 0.01172 0.67057 0.08004 0.0
C51 C 0.99197 0.59978 0.09204 0.0
O52 O 0.96929 0.57703 0.01952 0.0
C53 C 0.0332 0.68066 0.07384 0.0
O54 O 0.00311 0.61283 0.01895 0.0
O55 O 0.03802 0.66805 0.05887 0.0
C56 C 0.33549 0.38693 0.02136 0.0
O57 O 0.34701 0.40985 0.01979 0.0
Cd58 Cd 0.38601 0.43047 0.00333 0.0
O59 O 0.34379 0.37396 0.01305 0.0
Cd60 Cd 0.37761 0.37699 0.99196 0.0
C61 C 0.41494 0.41123 0.04191 0.0
O62 O 0.38282 0.40822 0.96511 0.0
O63 O 0.4099 0.39795 0.96537 0.0
O64 O 0.34814 0.33913 0.96807 0.0
C65 C 0.40178 0.41052 0.95663 0.0
O66 O 0.41284 0.42876 0.03489 0.0
C67 C 0.35866 0.32764 0.97352 0.0
O68 O 0.40325 0.39016 0.03019 0.0
O69 O 0.37817 0.33939 0.98724 0.0
C70 C 0.66799 0.04599 0.03582 0.0
O71 O 0.66254 0.0609 0.04543 0.0
Cd72 Cd 0.62278 0.04313 0.05974 0.0
O73 O 0.65408 0.02322 0.03708 0.0
Cd74 Cd 0.61792 0.99245 0.05488 0.0
C75 C 0.58912 0.00213 0.00925 0.0
O76 O 0.6179 0.01659 0.09158 0.0
O77 O 0.58511 0.98219 0.08066 0.0
O78 O 0.64849 0.9839 0.06822 0.0
C79 C 0.5968 0.0005 0.09639 0.0
O80 O 0.59684 0.02251 0.02183 0.0
C81 C 0.63528 0.96085 0.06524 0.0
O82 O 0.59409 0.98654 0.01655 0.0
O83 O 0.61336 0.95191 0.05739 0.0
C84 C 0.60845 0.64563 0.33644 0.0
O85 O 0.59717 0.65642 0.34198 0.0
Cd86 Cd 0.61634 0.69708 0.36093 0.0
O87 O 0.63108 0.656 0.34183 0.0
Cd88 Cd 0.6638 0.69428 0.36476 0.0
C89 C 0.66098 0.72803 0.3214 0.0
O90 O 0.63926 0.69727 0.39605 0.0
O91 O 0.67421 0.72929 0.39405 0.0
O92 O 0.67356 0.66518 0.38059 0.0
C93 C 0.65515 0.71849 0.40517 0.0
O94 O 0.64163 0.72363 0.33085 0.0
C95 C 0.69619 0.67971 0.38273 0.0
O96 O 0.67277 0.71838 0.32906 0.0
O97 O 0.70401 0.70093 0.37577 0.0
C98 C 0.28941 0.99162 0.4333 0.0
O99 O 0.26655 0.98056 0.43132 0.0
Cd100 Cd 0.24269 0.942 0.40713 0.0
O101 O 0.30027 0.98207 0.42302 0.0
Cd102 Cd 0.28943 0.94398 0.3984 0.0
C103 C 0.25597 0.90664 0.44006 0.0
O104 O 0.26052 0.94493 0.36878 0.0
O105 O 0.26234 0.91215 0.36619 0.0
O106 O 0.32617 0.97156 0.38021 0.0
C107 C 0.25493 0.925 0.35667 0.0
O108 O 0.23947 0.90996 0.43138 0.0
C109 C 0.33488 0.95775 0.37979 0.0
O110 O 0.27725 0.91859 0.43321 0.0
O111 O 0.32261 0.93736 0.38874 0.0
C112 C 0.0173 0.28561 0.36674 0.0
O113 O 0.02502 0.27187 0.3593 0.0
Cd114 Cd 0.06527 0.29035 0.3466 0.0
O115 O 0.0298 0.30855 0.36541 0.0
Cd116 Cd 0.06737 0.34005 0.35002 0.0
C117 C 0.09777 0.3325 0.39615 0.0
O118 O 0.06637 0.31482 0.31416 0.0
O119 O 0.09926 0.34958 0.32259 0.0
O120 O 0.03971 0.35323 0.3384 0.0
C121 C 0.08694 0.33053 0.30793 0.0
O122 O 0.09202 0.31235 0.3841 0.0
C123 C 0.05496 0.37589 0.34238 0.0
O124 O 0.09043 0.34602 0.38814 0.0
O125 O 0.07634 0.38217 0.34981 0.0
C126 C 0.60639 0.94356 0.36045 0.0
O127 O 0.59526 0.92109 0.36421 0.0
Cd128 Cd 0.61243 0.90199 0.38726 0.0
O129 O 0.62803 0.95793 0.36928 0.0
Cd130 Cd 0.65989 0.95655 0.39413 0.0
C131 C 0.6591 0.91545 0.35121 0.0
O132 O 0.63453 0.92872 0.42338 0.0
O133 O 0.67209 0.93932 0.42596 0.0
O134 O 0.67166 -0.00314 0.41343 0.0
C135 C 0.65151 0.9274 0.43414 0.0
O136 O 0.63883 0.89973 0.35831 0.0
C137 C 0.69344 0.00688 0.40814 0.0
O138 O 0.67038 0.93755 0.36051 0.0
O139 O 0.69942 0.99337 0.39623 0.0
C140 C -0.00162 0.72644 0.36138 0.0
O141 O 0.00874 0.74941 0.36075 0.0
Cd142 Cd 0.04914 0.77268 0.34874 0.0
O143 O 0.00891 0.71508 0.35488 0.0
Cd144 Cd 0.04699 0.72328 0.3391 0.0
C145 C 0.07692 0.75649 0.39193 0.0
O146 O 0.05363 0.7541 0.31114 0.0
O147 O 0.08405 0.74998 0.32087 0.0
O148 O 0.02471 0.6878 0.3096 0.0
C149 C 0.07504 0.75953 0.30776 0.0
O150 O 0.07312 0.77277 0.38433 0.0
C151 C 0.0337 0.67596 0.31831 0.0
O152 O 0.06881 0.73607 0.37941 0.0
O153 O 0.04948 0.6865 0.33638 0.0
C154 C 0.32637 0.38085 0.36345 0.0
O155 O 0.31769 0.39435 0.36833 0.0
Cd156 Cd 0.27835 0.3756 0.38493 0.0
O157 O 0.31519 0.35885 0.36866 0.0
Cd158 Cd 0.28054 0.3281 0.38741 0.0
C159 C 0.2452 0.32834 0.34031 0.0
O160 O 0.27829 0.35451 0.42029 0.0
O161 O 0.24929 0.31659 0.41551 0.0
O162 O 0.31136 0.32295 0.40695 0.0
C163 C 0.25908 0.33731 0.42778 0.0
O164 O 0.24955 0.34864 0.35085 0.0
C165 C 0.30165 0.30033 0.40048 0.0
O166 O 0.255 0.31713 0.34899 0.0
O167 O 0.28137 0.2901 0.38793 0.0
C168 C 0.29566 0.98177 0.65196 0.0
O169 O 0.28315 0.99189 0.65169 0.0
Cd170 Cd 0.29624 0.03156 0.67105 0.0
O171 O 0.31667 0.99267 0.66299 0.0
Cd172 Cd 0.34398 0.03289 0.6861 0.0
C173 C 0.34531 0.06551 0.63923 0.0
O174 O 0.31448 0.0349 0.71122 0.0
O175 O 0.34937 0.06785 0.71222 0.0
O176 O 0.35499 0.01141 0.71409 0.0
C177 C 0.32893 0.05642 0.72085 0.0
O178 O 0.32412 0.05972 0.64417 0.0
C179 C 0.37742 0.02351 0.71151 0.0
O180 O 0.3569 0.05736 0.6506 0.0
O181 O 0.38447 0.0401 0.69677 0.0
C182 C 0.94213 0.31159 0.75438 0.0
O183 O 0.91954 0.29842 0.74911 0.0
Cd184 Cd 0.90202 0.2619 0.72139 0.0
O185 O 0.95632 0.30549 0.74539 0.0
Cd186 Cd 0.95397 0.2721 0.71855 0.0
C187 C 0.91812 0.22837 0.75443 0.0
O188 O 0.9261 0.27144 0.68687 0.0
O189 O 0.93331 0.24205 0.6828 0.0
O190 O 0.99067 0.30418 0.70386 0.0
C191 C 0.92413 0.25352 0.67358 0.0
O192 O 0.90103 0.23019 0.74463 0.0
C193 C 0.00293 0.29404 0.70684 0.0
O194 O 0.93987 0.2429 0.74997 0.0
O195 O 0.99247 0.27343 0.71569 0.0
C196 C 0.67977 0.6111 0.70155 0.0
O197 O 0.69057 0.59963 0.69679 0.0
Cd198 Cd 0.72903 0.62011 0.67953 0.0
O199 O 0.68916 0.63344 0.69764 0.0
Cd200 Cd 0.72512 0.66722 0.68264 0.0
C201 C 0.76112 0.66433 0.72701 0.0
O202 O 0.72564 0.64258 0.64714 0.0
O203 O 0.75582 0.67955 0.65341 0.0
O204 O 0.69394 0.67621 0.67229 0.0
C205 C 0.74493 0.65964 0.63978 0.0
O206 O 0.75749 0.64513 0.71454 0.0
C207 C 0.70751 0.69921 0.67583 0.0
O208 O 0.75051 0.67538 0.72019 0.0
O209 O 0.72957 0.70761 0.68248 0.0
C210 C 0.28055 0.28717 0.68729 0.0
O211 O 0.26772 0.26498 0.69168 0.0
Cd212 Cd 0.28509 0.24352 0.70951 0.0
O213 O 0.30283 0.29936 0.6946 0.0
Cd214 Cd 0.33318 0.29469 0.71851 0.0
C215 C 0.33117 0.25725 0.67178 0.0
O216 O 0.30867 0.26536 0.74715 0.0
O217 O 0.34378 0.27013 0.74215 0.0
O218 O 0.34547 0.33128 0.74566 0.0
C219 C 0.32467 0.26037 0.75334 0.0
O220 O 0.31046 0.24193 0.67836 0.0
C221 C 0.36652 0.34345 0.73848 0.0
O222 O 0.34366 0.27865 0.68271 0.0
O223 O 0.37228 0.33275 0.7222 0.0
C224 C 0.67059 0.06378 0.68376 0.0
O225 O 0.68113 0.086 0.67919 0.0
Cd226 Cd 0.72108 0.10521 0.66571 0.0
O227 O 0.68015 0.05108 0.67881 0.0
Cd228 Cd 0.71497 0.0536 0.65949 0.0
C229 C 0.74877 0.08899 0.70968 0.0
O230 O 0.72155 0.08251 0.62916 0.0
O231 O 0.75093 0.07655 0.63791 0.0
O232 O 0.68663 0.01554 0.63527 0.0
C233 C 0.74222 0.08629 0.6247 0.0
O234 O 0.74537 0.10531 0.70139 0.0
C235 C 0.69667 0.00398 0.64201 0.0
O236 O 0.7392 0.06779 0.6984 0.0
O237 O 0.71562 0.01578 0.65656 0.0
C238 C 0.98973 0.71274 0.69583 0.0
O239 O 0.98066 0.72579 0.70117 0.0
Cd240 Cd 0.94116 0.70766 0.71673 0.0
O241 O 0.97853 0.69026 0.69955 0.0
Cd242 Cd 0.94223 0.65885 0.71632 0.0
C243 C 0.90737 0.66227 0.67053 0.0
O244 O 0.94162 0.68521 0.75032 0.0
O245 O 0.91168 0.64783 0.74555 0.0
O246 O 0.97109 0.64981 0.73426 0.0
C247 C 0.92239 0.66842 0.75809 0.0
O248 O 0.91227 0.68238 0.68203 0.0
C249 C 0.95926 0.62706 0.72781 0.0
O250 O 0.91684 0.65035 0.67812 0.0
O251 O 0.93909 0.61878 0.71555 0.0
H252 H 0.18311 0.35899 0.99083 0.0
H253 H 0.28656 0.2739 0.19168 0.0
H254 H 0.16285 0.35651 0.12346 0.0
H255 H 0.13309 0.3641 0.10346 0.0
H256 H 0.08082 0.28665 0.09743 0.0
H257 H 0.1106 0.27933 0.1181 0.0
H258 H 0.20187 0.35751 0.09607 0.0
H259 H 0.19939 0.36531 0.05308 0.0
H260 H 0.14197 0.29018 0.03607 0.0
H261 H 0.14488 0.28258 0.0791 0.0
H262 H 0.23809 0.35449 0.13521 0.0
H263 H 0.27127 0.37152 0.10857 0.0
H264 H 0.2319 0.30735 0.05707 0.0
H265 H 0.19885 0.28993 0.08437 0.0
H266 H 0.2343 0.34038 0.18321 0.0
H267 H 0.26658 0.3353 0.20091 0.0
H268 H 0.23638 0.26578 0.15763 0.0
H269 H 0.20396 0.27094 0.14035 0.0
H270 H 0.19314 0.34342 0.20234 0.0
H271 H 0.20476 0.34426 0.24554 0.0
H272 H 0.18479 0.26856 0.23413 0.0
H273 H 0.1735 0.26801 0.19055 0.0
H274 H 0.15715 0.34893 0.1721 0.0
H275 H 0.13708 0.35353 0.20721 0.0
H276 H 0.1062 0.27704 0.21748 0.0
H277 H 0.12594 0.27237 0.18185 0.0
O278 O 0.18381 0.3555 0.00774 0.0
O279 O 0.15421 0.31677 1e-05 0.0
O280 O 0.28875 0.31219 0.20685 0.0
O281 O 0.27411 0.27646 0.18481 0.0
C282 C 0.15764 0.31289 0.13217 0.0
C283 C 0.17528 0.31465 0.11667 0.0
C284 C 0.19497 0.31309 0.12625 0.0
C285 C 0.19628 0.30829 0.15095 0.0
C286 C 0.17869 0.30661 0.16653 0.0
C287 C 0.15943 0.30911 0.15716 0.0
C288 C 0.13872 0.31741 0.12246 0.0
C289 C 0.14483 0.34125 0.11818 0.0
C290 C 0.12793 0.34552 0.10656 0.0
C291 C 0.10463 0.32599 0.09897 0.0
C292 C 0.0985 0.3021 0.10349 0.0
C293 C 0.11542 0.29787 0.11527 0.0
C294 C 0.17369 0.31944 0.0906 0.0
C295 C 0.18888 0.34275 0.08299 0.0
C296 C 0.18736 0.34715 0.05844 0.0
C297 C 0.1705 0.32835 0.04112 0.0
C298 C 0.15518 0.30505 0.04892 0.0
C299 C 0.15678 0.30066 0.07346 0.0
C300 C 0.21616 0.32095 0.11175 0.0
C301 C 0.23686 0.34382 0.11848 0.0
C302 C 0.25557 0.3537 0.10307 0.0
C303 C 0.25377 0.34098 0.08053 0.0
C304 C 0.23355 0.31755 0.0743 0.0
C305 C 0.21479 0.30757 0.08985 0.0
C306 C 0.21666 0.3059 0.16071 0.0
C307 C 0.23464 0.32404 0.17764 0.0
C308 C 0.25309 0.32111 0.18768 0.0
C309 C 0.254 0.30006 0.18077 0.0
C310 C 0.23617 0.28216 0.16341 0.0
C311 C 0.21768 0.28508 0.15346 0.0
C312 C 0.18245 0.30565 0.19334 0.0
C313 C 0.19077 0.32686 0.20927 0.0
C314 C 0.19742 0.3273 0.23394 0.0
C315 C 0.19598 0.30656 0.24316 0.0
C316 C 0.18656 0.28495 0.22742 0.0
C317 C 0.17992 0.28454 0.20263 0.0
C318 C 0.14288 0.31029 0.17437 0.0
C319 C 0.14531 0.33295 0.1813 0.0
C320 C 0.13415 0.33563 0.20153 0.0
C321 C 0.12054 0.31573 0.21521 0.0
C322 C 0.11666 0.29264 0.2072 0.0
C323 C 0.12783 0.28994 0.18689 0.0
C324 C 0.16894 0.33309 0.01505 0.0
C325 C 0.27337 0.29671 0.19163 0.0
H326 H 0.70744 0.82135 0.00999 0.0
H327 H 0.71445 -0.00043 0.21749 0.0
H328 H 0.65837 0.80439 0.13958 0.0
H329 H 0.64147 0.7617 0.12524 0.0
H330 H 0.70746 0.76593 0.1516 0.0
H331 H 0.72494 0.80965 0.16479 0.0
H332 H 0.67127 0.82775 0.10466 0.0
H333 H 0.67933 0.82128 0.06257 0.0
H334 H 0.75584 0.86152 0.08401 0.0
H335 H 0.74752 0.86792 0.1262 0.0
H336 H 0.66021 0.85291 0.12711 0.0
H337 H 0.64454 0.87176 0.10068 0.0
H338 H 0.71264 0.94008 0.11329 0.0
H339 H 0.72911 0.91998 0.13716 0.0
H340 H 0.66324 0.87987 0.18615 0.0
H341 H 0.65939 0.91489 0.1995 0.0
H342 H 0.7366 0.96253 0.19925 0.0
H343 H 0.74014 0.92732 0.18598 0.0
H344 H 0.66445 0.83848 0.21978 0.0
H345 H 0.65653 0.84938 0.26014 0.0
H346 H 0.72673 0.91552 0.26681 0.0
H347 H 0.73571 0.90263 0.22768 0.0
H348 H 0.66091 0.79918 0.19199 0.0
H349 H 0.65309 0.77085 0.22326 0.0
H350 H 0.72623 0.81693 0.25521 0.0
H351 H 0.73426 0.84498 0.22311 0.0
O352 O 0.70467 0.82417 0.02681 0.0
O353 O 0.74383 0.84503 0.03877 0.0
O354 O 0.67583 0.96015 0.21206 0.0
O355 O 0.71543 0.98542 0.21219 0.0
C356 C 0.702 0.83591 0.16159 0.0
C357 C 0.70448 0.85252 0.1444 0.0
C358 C 0.70366 0.87349 0.15196 0.0
C359 C 0.70418 0.87982 0.17726 0.0
C360 C 0.70398 0.86434 0.19486 0.0
C361 C 0.70226 0.84197 0.18695 0.0
C362 C 0.69313 0.81027 0.15244 0.0
C363 C 0.66947 0.79632 0.14165 0.0
C364 C 0.65967 0.77181 0.13393 0.0
C365 C 0.67314 0.76048 0.13728 0.0
C366 C 0.69683 0.77435 0.14844 0.0
C367 C 0.70681 0.7992 0.15597 0.0
C368 C 0.70882 0.84838 0.11858 0.0
C369 C 0.68976 0.83523 0.10034 0.0
C370 C 0.69442 0.83152 0.07623 0.0
C371 C 0.71824 0.84088 0.0699 0.0
C372 C 0.73728 0.85406 0.08825 0.0
C373 C 0.73258 0.85775 0.11235 0.0
C374 C 0.69598 0.88488 0.13362 0.0
C375 C 0.67215 0.87162 0.12313 0.0
C376 C 0.66305 0.8826 0.10843 0.0
C377 C 0.67726 0.90748 0.10473 0.0
C378 C 0.70134 0.92071 0.11502 0.0
C379 C 0.71074 0.90937 0.129 0.0
C380 C 0.70194 0.90115 0.18509 0.0
C381 C 0.67926 0.89791 0.18898 0.0
C382 C 0.67713 0.91792 0.1966 0.0
C383 C 0.6977 0.94152 0.20044 0.0
C384 C 0.72041 0.94463 0.19646 0.0
C385 C 0.72249 0.92459 0.18886 0.0
C386 C 0.70083 0.86951 0.22088 0.0
C387 C 0.67863 0.85465 0.23048 0.0
C388 C 0.67395 0.86124 0.25339 0.0
C389 C 0.69089 0.88346 0.26674 0.0
C390 C 0.71345 0.89802 0.25742 0.0
C391 C 0.71851 0.89084 0.23487 0.0
C392 C 0.69829 0.82396 0.20498 0.0
C393 C 0.6755 0.80283 0.20524 0.0
C394 C 0.67097 0.7868 0.22328 0.0
C395 C 0.68908 0.79164 0.24157 0.0
C396 C 0.71208 0.81255 0.24106 0.0
C397 C 0.71664 0.82862 0.22288 0.0
C398 C 0.72312 0.83688 0.04427 0.0
C399 C 0.69556 0.96285 0.20857 0.0
H400 H 0.13952 0.82327 0.99398 0.0
H401 H 0.3288 0.00473 0.19087 0.0
H402 H 0.12018 0.83665 0.12297 0.0
H403 H 0.08776 0.79606 0.10529 0.0
H404 H 0.12556 0.76352 0.13711 0.0
H405 H 0.15782 0.80395 0.15456 0.0
H406 H 0.16482 0.87736 0.09114 0.0
H407 H 0.15318 0.86012 0.04824 0.0
H408 H 0.16594 0.80224 0.06529 0.0
H409 H 0.17791 0.81992 0.108 0.0
H410 H 0.21762 0.92338 0.1116 0.0
H411 H 0.25144 0.93987 0.08524 0.0
H412 H 0.25931 0.87757 0.09474 0.0
H413 H 0.2253 0.86105 0.12034 0.0
H414 H 0.20899 0.93469 0.17433 0.0
H415 H 0.24512 0.97466 0.18577 0.0
H416 H 0.28955 0.94323 0.17297 0.0
H417 H 0.25323 0.90325 0.16193 0.0
H418 H 0.17281 0.89706 0.21298 0.0
H419 H 0.18545 0.90722 0.25717 0.0
H420 H 0.24081 0.88956 0.24673 0.0
H421 H 0.22762 0.87874 0.20297 0.0
H422 H 0.12877 0.85457 0.18762 0.0
H423 H 0.10606 0.8328 0.22192 0.0
H424 H 0.15389 0.80504 0.23279 0.0
H425 H 0.17698 0.82768 0.19938 0.0
O426 O 0.14442 0.82992 0.01099 0.0
O427 O 0.15105 0.80045 0.02076 0.0
O428 O 0.29053 0.00414 0.19313 0.0
O429 O 0.31428 0.98907 0.18649 0.0
C430 C 0.1627 0.84758 0.147 0.0
C431 C 0.17832 0.85998 0.1288 0.0
C432 C 0.20043 0.88177 0.13551 0.0
C433 C 0.2063 0.89209 0.16016 0.0
C434 C 0.19099 0.87938 0.17844 0.0
C435 C 0.16925 0.85707 0.17183 0.0
C436 C 0.14117 0.82313 0.14018 0.0
C437 C 0.12111 0.82066 0.12658 0.0
C438 C 0.10276 0.7976 0.11646 0.0
C439 C 0.10449 0.7769 0.11963 0.0
C440 C 0.12405 0.77933 0.13421 0.0
C441 C 0.14226 0.80229 0.14443 0.0
C442 C 0.17194 0.84973 0.10268 0.0
C443 C 0.16516 0.86101 0.08552 0.0
C444 C 0.15848 0.85109 0.06106 0.0
C445 C 0.15852 0.82973 0.05336 0.0
C446 C 0.16562 0.81865 0.07062 0.0
C447 C 0.17239 0.82865 0.09504 0.0
C448 C 0.21915 0.8911 0.11781 0.0
C449 C 0.2265 0.91323 0.10764 0.0
C450 C 0.24584 0.92263 0.09281 0.0
C451 C 0.25815 0.9101 0.08826 0.0
C452 C 0.25007 0.88752 0.09781 0.0
C453 C 0.23073 0.87811 0.11244 0.0
C454 C 0.2285 0.91617 0.16701 0.0
C455 C 0.22655 0.93649 0.174 0.0
C456 C 0.24721 0.95929 0.18052 0.0
C457 C 0.27024 0.96216 0.18018 0.0
C458 C 0.27211 0.94167 0.17332 0.0
C459 C 0.2514 0.91884 0.16689 0.0
C460 C 0.19946 0.88739 0.20479 0.0
C461 C 0.18774 0.89554 0.22029 0.0
C462 C 0.19502 0.9014 0.24542 0.0
C463 C 0.21418 0.89926 0.2553 0.0
C464 C 0.2259 0.89123 0.23963 0.0
C465 C 0.21858 0.88531 0.21463 0.0
C466 C 0.15447 0.84268 0.19123 0.0
C467 C 0.13424 0.84375 0.19748 0.0
C468 C 0.12135 0.83135 0.21699 0.0
C469 C 0.12853 0.81764 0.23032 0.0
C470 C 0.14841 0.81608 0.22338 0.0
C471 C 0.16141 0.8287 0.20415 0.0
C472 C 0.15114 0.81908 0.02742 0.0
C473 C 0.29222 0.98641 0.187 0.0
H474 H 0.28013 0.16908 0.05626 0.0
H475 H 0.33912 0.01649 0.87975 0.0
H476 H 0.27406 0.17038 0.92593 0.0
H477 H 0.28536 0.21219 0.94138 0.0
H478 H 0.35715 0.23926 0.91855 0.0
H479 H 0.34608 0.19783 0.90378 0.0
H480 H 0.26856 0.12131 0.95791 0.0
H481 H 0.26674 0.13546 -0.0001 0.0
H482 H 0.33843 0.19819 -0.00217 0.0
H483 H 0.3402 0.18362 0.95608 0.0
H484 H 0.28233 0.07533 0.93781 0.0
H485 H 0.29961 0.05689 0.96314 0.0
H486 H 0.36295 0.12814 0.98241 0.0
H487 H 0.34689 0.14585 0.95486 0.0
H488 H 0.27191 0.06819 0.87824 0.0
H489 H 0.27585 0.03253 0.8689 0.0
H490 H 0.35025 0.07418 0.89865 0.0
H491 H 0.34617 0.10979 0.9075 0.0
H492 H 0.27015 0.10385 0.84112 0.0
H493 H 0.274 0.08851 0.80026 0.0
H494 H 0.34909 0.11516 0.82072 0.0
H495 H 0.34524 0.13091 0.86102 0.0
H496 H 0.26887 0.15285 0.86243 0.0
H497 H 0.27239 0.17849 0.82918 0.0
H498 H 0.34801 0.20238 0.82823 0.0
H499 H 0.34398 0.17587 0.86037 0.0
O500 O 0.2813 0.16373 0.03971 0.0
O501 O 0.31814 0.19573 0.03764 0.0
O502 O 0.29883 0.0098 0.86784 0.0
O503 O 0.33708 0.03032 0.88321 0.0
C504 C 0.30456 0.15611 0.90836 0.0
C505 C 0.30495 0.14296 0.92813 0.0
C506 C 0.30669 0.12196 0.92354 0.0
C507 C 0.30621 0.11314 0.89902 0.0
C508 C 0.30491 0.12584 0.8793 0.0
C509 C 0.30435 0.14743 0.88396 0.0
C510 C 0.30922 0.18118 0.9136 0.0
C511 C 0.29201 0.18547 0.92379 0.0
C512 C 0.29846 0.2092 0.93258 0.0
C513 C 0.32216 0.22865 0.93134 0.0
C514 C 0.33885 0.22443 0.91988 0.0
C515 C 0.33246 0.20088 0.91118 0.0
C516 C 0.30435 0.15157 0.95382 0.0
C517 C 0.28387 0.13807 0.96659 0.0
C518 C 0.28286 0.14622 0.99055 0.0
C519 C 0.30239 0.16803 0.00218 0.0
C520 C 0.32303 0.18138 0.98939 0.0
C521 C 0.32403 0.17316 0.96547 0.0
C522 C 0.31345 0.11188 0.94415 0.0
C523 C 0.29978 0.08698 0.94779 0.0
C524 C 0.30966 0.07651 0.96238 0.0
C525 C 0.33305 0.09096 0.97411 0.0
C526 C 0.34535 0.11635 0.97278 0.0
C527 C 0.33589 0.12662 0.9575 0.0
C528 C 0.30866 0.09146 0.89377 0.0
C529 C 0.28902 0.06954 0.88273 0.0
C530 C 0.29133 0.04922 0.87743 0.0
C531 C 0.31336 0.05048 0.88311 0.0
C532 C 0.33303 0.07255 0.89409 0.0
C533 C 0.33073 0.09289 0.89926 0.0
C534 C 0.30735 0.11818 0.854 0.0
C535 C 0.28744 0.10655 0.83658 0.0
C536 C 0.28963 0.0977 0.81342 0.0
C537 C 0.31177 0.1004 0.80751 0.0
C538 C 0.33185 0.1129 0.82476 0.0
C539 C 0.32966 0.12176 0.84779 0.0
C540 C 0.3061 0.16235 0.86352 0.0
C541 C 0.28606 0.1634 0.85472 0.0
C542 C 0.28815 0.17812 0.83589 0.0
C543 C 0.31039 0.19214 0.82579 0.0
C544 C 0.33045 0.19119 0.83499 0.0
C545 C 0.32825 0.17623 0.85347 0.0
C546 C 0.30118 0.17674 0.02756 0.0
C547 C 0.31588 0.02893 0.87755 0.0
H548 H 0.84171 0.18466 0.06482 0.0
H549 H 0.68633 0.98482 0.85773 0.0
H550 H 0.84032 0.18216 0.92558 0.0
H551 H 0.86772 0.22151 0.94841 0.0
H552 H 0.91976 0.19936 0.96108 0.0
H553 H 0.89203 0.15959 0.93755 0.0
H554 H 0.80825 0.15197 0.96118 0.0
H555 H 0.81715 0.16765 0.00456 0.0
H556 H 0.86568 0.14038 0.01294 0.0
H557 H 0.85654 0.12472 0.9695 0.0
H558 H 0.76587 0.11329 0.92498 0.0
H559 H 0.73386 0.09765 0.9531 0.0
H560 H 0.76846 0.06534 0.99195 0.0
H561 H 0.8001 0.08034 0.96301 0.0
H562 H 0.76587 0.10475 0.87288 0.0
H563 H 0.72667 0.07064 0.85584 0.0
H564 H 0.74317 0.02007 0.88791 0.0
H565 H 0.78243 0.05435 0.9046 0.0
H566 H 0.81711 0.1492 0.85625 0.0
H567 H 0.80498 0.14413 0.81268 0.0
H568 H 0.79104 0.07022 0.8086 0.0
H569 H 0.80602 0.07654 0.85184 0.0
H570 H 0.85892 0.18376 0.88366 0.0
H571 H 0.88395 0.20421 0.85071 0.0
H572 H 0.88855 0.14056 0.83086 0.0
H573 H 0.86468 0.12048 0.86525 0.0
O574 O 0.83803 0.17782 0.04785 0.0
O575 O 0.86211 0.16268 0.05144 0.0
O576 O 0.69414 0.0254 0.84798 0.0
O577 O 0.70168 -0.00133 0.86429 0.0
C578 C 0.84531 0.14334 0.91985 0.0
C579 C 0.8275 0.12906 0.93558 0.0
C580 C 0.80522 0.10897 0.92566 0.0
C581 C 0.80098 0.10265 0.9 0.0
C582 C 0.81901 0.11667 0.88425 0.0
C583 C 0.84158 0.13656 0.89431 0.0
C584 C 0.86435 0.16822 0.92972 0.0
C585 C 0.85788 0.18599 0.93274 0.0
C586 C 0.87338 0.20828 0.94597 0.0
C587 C 0.89553 0.21312 0.95682 0.0
C588 C 0.90266 0.19586 0.95288 0.0
C589 C 0.887 0.17334 0.93942 0.0
C590 C 0.83153 0.13696 0.96233 0.0
C591 C 0.82051 0.14909 0.97252 0.0
C592 C 0.82575 0.15816 -0.00274 0.0
C593 C 0.84214 0.15528 0.01222 0.0
C594 C 0.85296 0.14288 0.00194 0.0
C595 C 0.84772 0.13385 0.97719 0.0
C596 C 0.78503 0.09754 0.94169 0.0
C597 C 0.76625 0.10236 0.93921 0.0
C598 C 0.7482 0.09373 0.95548 0.0
C599 C 0.74868 0.08026 0.97464 0.0
C600 C 0.76747 0.07535 0.97708 0.0
C601 C 0.78551 0.0839 0.96065 0.0
C602 C 0.7771 0.08198 0.88971 0.0
C603 C 0.76105 0.08628 0.87604 0.0
C604 C 0.73864 0.06677 0.86641 0.0
C605 C 0.73181 0.0426 0.87045 0.0
C606 C 0.74787 0.03843 0.88439 0.0
C607 C 0.7703 0.05796 0.89396 0.0
C608 C 0.81284 0.11339 0.85724 0.0
C609 C 0.81237 0.13223 0.84577 0.0
C610 C 0.80503 0.12915 0.82091 0.0
C611 C 0.79697 0.10676 0.80707 0.0
C612 C 0.79769 0.08792 0.81849 0.0
C613 C 0.80591 0.09135 0.8433 0.0
C614 C 0.86049 0.15082 0.87754 0.0
C615 C 0.86654 0.17471 0.87344 0.0
C616 C 0.88057 0.18628 0.85433 0.0
C617 C 0.88825 0.17395 0.8386 0.0
C618 C 0.88305 0.15045 0.8431 0.0
C619 C 0.86947 0.13906 0.86266 0.0
C620 C 0.84807 0.16541 0.03836 0.0
C621 C 0.70806 0.02179 0.8602 0.0
H622 H 0.86932 0.70422 0.08885 0.0
H623 H 0.68659 0.6598 0.87744 0.0
H624 H 0.89412 0.71562 0.96319 0.0
H625 H 0.91889 0.70274 0.98541 0.0
H626 H 0.87799 0.63135 0.94557 0.0
H627 H 0.85304 0.64401 0.92392 0.0
H628 H 0.8501 0.72132 0.98877 0.0
H629 H 0.8596 0.72109 0.0325 0.0
H630 H 0.84548 0.64743 0.01896 0.0
H631 H 0.83573 0.64778 0.97538 0.0
H632 H 0.79577 0.71169 0.96083 0.0
H633 H 0.76161 0.69879 0.98611 0.0
H634 H 0.75967 0.63102 0.9948 0.0
H635 H 0.79201 0.64298 0.96756 0.0
H636 H 0.80599 0.72308 0.90297 0.0
H637 H 0.76918 0.72141 0.88732 0.0
H638 H 0.72735 0.64566 0.90248 0.0
H639 H 0.7643 0.64751 0.91778 0.0
H640 H 0.847 0.72341 0.87147 0.0
H641 H 0.83531 0.72114 0.82749 0.0
H642 H 0.77852 0.64614 0.83038 0.0
H643 H 0.79019 0.64849 0.87399 0.0
H644 H 0.89274 0.71853 0.89922 0.0
H645 H 0.91394 0.715 0.86438 0.0
H646 H 0.85214 0.64366 0.8411 0.0
H647 H 0.83211 0.64661 0.87679 0.0
O648 O 0.86546 0.70391 0.07149 0.0
O649 O 0.85846 0.66622 0.06346 0.0
O650 O 0.72376 0.69996 0.87593 0.0
O651 O 0.70146 0.66107 0.88369 0.0
C652 C 0.85224 0.68533 0.93453 0.0
C653 C 0.83682 0.68516 0.95232 0.0
C654 C 0.81533 0.68452 0.94488 0.0
C655 C 0.81032 0.68626 0.91995 0.0
C656 C 0.82604 0.68712 0.90232 0.0
C657 C 0.84659 0.68589 0.90946 0.0
C658 C 0.87172 0.68071 0.94203 0.0
C659 C 0.89111 0.69751 0.95864 0.0
C660 C 0.90514 0.69013 0.97136 0.0
C661 C 0.89988 0.66594 0.96748 0.0
C662 C 0.88206 0.64998 0.94909 0.0
C663 C 0.86804 0.6573 0.93649 0.0
C664 C 0.84255 0.68472 0.97885 0.0
C665 C 0.8491 0.70517 0.9953 0.0
C666 C 0.85452 0.70498 0.02025 0.0
C667 C 0.85342 0.68428 0.0292 0.0
C668 C 0.84665 0.66372 0.01266 0.0
C669 C 0.84118 0.66392 0.98773 0.0
C670 C 0.79657 0.6784 0.96253 0.0
C671 C 0.78801 0.69414 0.96833 0.0
C672 C 0.7687 0.68684 0.98307 0.0
C673 C 0.75811 0.66398 0.99282 0.0
C674 C 0.7673 0.64867 0.98752 0.0
C675 C 0.78605 0.65565 0.97225 0.0
C676 C 0.78777 0.6855 0.91175 0.0
C677 C 0.78883 0.7062 0.90302 0.0
C678 C 0.76779 0.70518 0.89406 0.0
C679 C 0.74531 0.68339 0.89367 0.0
C680 C 0.74434 0.66273 0.90256 0.0
C681 C 0.7654 0.66376 0.91145 0.0
C682 C 0.81926 0.68617 0.87586 0.0
C683 C 0.83202 0.70656 0.86253 0.0
C684 C 0.82535 0.70526 0.83757 0.0
C685 C 0.80603 0.68347 0.82573 0.0
C686 C 0.79355 0.66308 0.83912 0.0
C687 C 0.80005 0.66445 0.86398 0.0
C688 C 0.86075 0.683 0.89024 0.0
C689 C 0.88406 0.70201 0.88678 0.0
C690 C 0.89594 0.70009 0.86667 0.0
C691 C 0.88448 0.6793 0.84956 0.0
C692 C 0.86153 0.65992 0.85385 0.0
C693 C 0.84995 0.66165 0.87413 0.0
C694 C 0.85925 0.68416 0.05571 0.0
C695 C 0.72292 0.68209 0.88389 0.0
H696 H 0.79924 0.63932 0.31123 0.0
H697 H 0.96221 0.63072 0.52066 0.0
H698 H 0.81986 0.68119 0.45018 0.0
H699 H 0.79123 0.69004 0.4305 0.0
H700 H 0.73331 0.61684 0.43992 0.0
H701 H 0.76285 0.60748 0.4576 0.0
H702 H 0.83638 0.67275 0.41388 0.0
H703 H 0.82393 0.666 0.37006 0.0
H704 H 0.79051 0.58804 0.3739 0.0
H705 H 0.80313 0.59506 0.41785 0.0
H706 H 0.87203 0.68564 0.44036 0.0
H707 H 0.90569 0.7049 0.4149 0.0
H708 H 0.90939 0.63912 0.40995 0.0
H709 H 0.87369 0.61902 0.43346 0.0
H710 H 0.89567 0.68051 0.49583 0.0
H711 H 0.93411 0.68523 0.51083 0.0
H712 H 0.90327 0.60716 0.49726 0.0
H713 H 0.86496 0.60277 0.48233 0.0
H714 H 0.85503 0.67568 0.52974 0.0
H715 H 0.86825 0.67896 0.57301 0.0
H716 H 0.84849 0.60318 0.56563 0.0
H717 H 0.83552 0.60017 0.52204 0.0
H718 H 0.81303 0.67627 0.50188 0.0
H719 H 0.79344 0.6814 0.53718 0.0
H720 H 0.7689 0.60719 0.55297 0.0
H721 H 0.78769 0.60183 0.51692 0.0
O722 O 0.80407 0.64157 0.32863 0.0
O723 O 0.78718 0.60165 0.33158 0.0
O724 O 0.96222 0.66939 0.52146 0.0
O725 O 0.94724 0.62938 0.5148 0.0
C726 C 0.81215 0.63805 0.46304 0.0
C727 C 0.82781 0.63793 0.44589 0.0
C728 C 0.84981 0.64024 0.45415 0.0
C729 C 0.85437 0.63854 0.47917 0.0
C730 C 0.83772 0.63646 0.4962 0.0
C731 C 0.81694 0.63703 0.48824 0.0
C732 C 0.7935 0.64354 0.45472 0.0
C733 C 0.80099 0.66699 0.44781 0.0
C734 C 0.78451 0.67208 0.43677 0.0
C735 C 0.75993 0.65403 0.4331 0.0
C736 C 0.75221 0.6309 0.44155 0.0
C737 C 0.76895 0.62561 0.45205 0.0
C738 C 0.82073 0.63438 0.4191 0.0
C739 C 0.82647 0.65423 0.4053 0.0
C740 C 0.81928 0.65032 0.3802 0.0
C741 C 0.80622 0.62648 0.36845 0.0
C742 C 0.80055 0.60664 0.38236 0.0
C743 C 0.80775 0.6106 0.40746 0.0
C744 C 0.87002 0.65075 0.43816 0.0
C745 C 0.87959 0.67509 0.43307 0.0
C746 C 0.89909 0.6862 0.41885 0.0
C747 C 0.91019 0.67355 0.41021 0.0
C748 C 0.90083 0.64916 0.41567 0.0
C749 C 0.88066 0.63773 0.42935 0.0
C750 C 0.87766 0.64133 0.48798 0.0
C751 C 0.89732 0.66449 0.4961 0.0
C752 C 0.91922 0.66711 0.50466 0.0
C753 C 0.92177 0.64655 0.50523 0.0
C754 C 0.90193 0.62336 0.49705 0.0
C755 C 0.88005 0.62078 0.4885 0.0
C756 C 0.84413 0.63764 0.52285 0.0
C757 C 0.8532 0.65969 0.53757 0.0
C758 C 0.8606 0.66147 0.56231 0.0
C759 C 0.85904 0.6412 0.57283 0.0
C760 C 0.84981 0.61906 0.55803 0.0
C761 C 0.84237 0.61729 0.53322 0.0
C762 C 0.80161 0.63862 0.50676 0.0
C763 C 0.80276 0.66087 0.51247 0.0
C764 C 0.79192 0.6639 0.53284 0.0
C765 C 0.78013 0.64484 0.54804 0.0
C766 C 0.7779 0.62215 0.54153 0.0
C767 C 0.78858 0.61907 0.521 0.0
C768 C 0.79855 0.62238 0.3418 0.0
C769 C 0.94499 0.64923 0.51433 0.0
H770 H 0.34394 0.13971 0.33222 0.0
H771 H 0.38611 0.33927 0.52093 0.0
H772 H 0.32444 0.13693 0.46658 0.0
H773 H 0.30726 0.09321 0.45749 0.0
H774 H 0.37605 0.10128 0.47905 0.0
H775 H 0.39358 0.14575 0.48743 0.0
H776 H 0.33016 0.16482 0.4324 0.0
H777 H 0.32884 0.1521 0.38906 0.0
H778 H 0.40439 0.17516 0.39826 0.0
H779 H 0.40552 0.18806 0.44158 0.0
H780 H 0.32369 0.19372 0.4619 0.0
H781 H 0.30876 0.21591 0.43957 0.0
H782 H 0.3815 0.26835 0.42391 0.0
H783 H 0.39642 0.24579 0.44644 0.0
H784 H 0.33491 0.21801 0.51564 0.0
H785 H 0.33259 0.25464 0.52497 0.0
H786 H 0.40581 0.29951 0.50535 0.0
H787 H 0.40795 0.26273 0.49636 0.0
H788 H 0.33626 0.17591 0.54418 0.0
H789 H 0.32916 0.18878 0.58397 0.0
H790 H 0.39763 0.25648 0.5859 0.0
H791 H 0.4059 0.24198 0.54718 0.0
H792 H 0.33282 0.13742 0.52178 0.0
H793 H 0.33083 0.11033 0.5524 0.0
H794 H 0.40761 0.15645 0.57054 0.0
H795 H 0.40932 0.18398 0.54004 0.0
O796 O 0.3449 0.14499 0.34941 0.0
O797 O 0.38376 0.1571 0.35512 0.0
O798 O 0.34913 0.30066 0.52784 0.0
O799 O 0.38668 0.32453 0.51784 0.0
C800 C 0.36925 0.17064 0.48454 0.0
C801 C 0.36912 0.18542 0.46644 0.0
C802 C 0.36961 0.20719 0.47349 0.0
C803 C 0.3726 0.21547 0.49861 0.0
C804 C 0.37386 0.20127 0.51687 0.0
C805 C 0.37218 0.17878 0.50977 0.0
C806 C 0.36034 0.14455 0.47726 0.0
C807 C 0.33599 0.12941 0.46888 0.0
C808 C 0.32608 0.10438 0.46419 0.0
C809 C 0.3402 0.09386 0.46815 0.0
C810 C 0.36479 0.10903 0.47606 0.0
C811 C 0.37481 0.1343 0.48071 0.0
C812 C 0.36805 0.17775 0.44004 0.0
C813 C 0.34649 0.16743 0.42497 0.0
C814 C 0.34574 0.16002 0.40023 0.0
C815 C 0.36654 0.1627 0.39015 0.0
C816 C 0.38807 0.17291 0.4054 0.0
C817 C 0.38877 0.1803 0.43014 0.0
C818 C 0.36107 0.21809 0.45556 0.0
C819 C 0.33632 0.20954 0.45294 0.0
C820 C 0.32783 0.22221 0.44023 0.0
C821 C 0.34401 0.24387 0.43022 0.0
C822 C 0.36873 0.25175 0.43168 0.0
C823 C 0.37723 0.23887 0.44431 0.0
C824 C 0.37167 0.23779 0.50554 0.0
C825 C 0.3505 0.2358 0.51365 0.0
C826 C 0.3492 0.25673 0.51885 0.0
C827 C 0.36903 0.28002 0.51588 0.0
C828 C 0.39024 0.28188 0.50785 0.0
C829 C 0.39154 0.26094 0.50275 0.0
C830 C 0.37188 0.20767 0.54293 0.0
C831 C 0.3504 0.19286 0.55378 0.0
C832 C 0.3461 0.20057 0.57632 0.0
C833 C 0.36271 0.22377 0.5881 0.0
C834 C 0.38465 0.2383 0.57766 0.0
C835 C 0.38934 0.23013 0.55542 0.0
C836 C 0.37122 0.16263 0.52868 0.0
C837 C 0.34923 0.14166 0.53231 0.0
C838 C 0.34816 0.12616 0.54972 0.0
C839 C 0.36908 0.13125 0.56386 0.0
C840 C 0.39116 0.15225 0.56015 0.0
C841 C 0.39218 0.1679 0.54273 0.0
C842 C 0.36569 0.1548 0.36386 0.0
C843 C 0.36759 0.30229 0.52093 0.0
H844 H 0.79904 0.16068 0.31171 0.0
H845 H 0.00128 0.32494 0.501 0.0
H846 H 0.7843 0.1666 0.44261 0.0
H847 H 0.75011 0.12561 0.42863 0.0
H848 H 0.78926 0.09354 0.4584 0.0
H849 H 0.82336 0.13429 0.47167 0.0
H850 H 0.82883 0.21038 0.41107 0.0
H851 H 0.81542 0.19519 0.36785 0.0
H852 H 0.82527 0.1343 0.37889 0.0
H853 H 0.83892 0.14987 0.42199 0.0
H854 H 0.88361 0.25508 0.43143 0.0
H855 H 0.91871 0.27333 0.40687 0.0
H856 H 0.92255 0.20786 0.40833 0.0
H857 H 0.88725 0.18963 0.43199 0.0
H858 H 0.88098 0.26578 0.49325 0.0
H859 H 0.91987 0.30363 0.50302 0.0
H860 H 0.95656 0.2648 0.48494 0.0
H861 H 0.91759 0.22705 0.47569 0.0
H862 H 0.84127 0.22625 0.53146 0.0
H863 H 0.85518 0.23623 0.57528 0.0
H864 H 0.90973 0.21797 0.56204 0.0
H865 H 0.895 0.20696 0.51864 0.0
H866 H 0.79532 0.18352 0.50658 0.0
H867 H 0.77292 0.16056 0.54046 0.0
H868 H 0.8216 0.13352 0.5491 0.0
H869 H 0.84445 0.15744 0.51624 0.0
O870 O 0.80449 0.16641 0.32885 0.0
O871 O 0.80981 0.13543 0.33549 0.0
O872 O 0.96596 0.32923 0.50708 0.0
O873 O 0.98567 0.3102 0.49753 0.0
C874 C 0.82785 0.17776 0.46465 0.0
C875 C 0.8425 0.19042 0.4459 0.0
C876 C 0.86525 0.2116 0.45213 0.0
C877 C 0.87277 0.22107 0.47697 0.0
C878 C 0.85805 0.20848 0.49568 0.0
C879 C 0.8357 0.18673 0.4895 0.0
C880 C 0.80612 0.15332 0.45839 0.0
C881 C 0.78526 0.15066 0.44639 0.0
C882 C 0.76581 0.12733 0.43851 0.0
C883 C 0.76712 0.10651 0.44255 0.0
C884 C 0.78787 0.10932 0.45502 0.0
C885 C 0.80721 0.13252 0.46282 0.0
C886 C 0.83455 0.18107 0.41969 0.0
C887 C 0.82807 0.19377 0.40409 0.0
C888 C 0.82041 0.18504 0.37943 0.0
C889 C 0.81917 0.16347 0.36993 0.0
C890 C 0.82591 0.15091 0.38563 0.0
C891 C 0.83362 0.1597 0.41027 0.0
C892 C 0.88301 0.22111 0.43345 0.0
C893 C 0.8917 0.24453 0.42581 0.0
C894 C 0.91185 0.25496 0.41209 0.0
C895 C 0.92364 0.24218 0.40619 0.0
C896 C 0.91382 0.21812 0.41253 0.0
C897 C 0.89364 0.20766 0.426 0.0
C898 C 0.89648 0.24377 0.48351 0.0
C899 C 0.89745 0.2655 0.49151 0.0
C900 C 0.91968 0.28708 0.49702 0.0
C901 C 0.94134 0.28726 0.49463 0.0
C902 C 0.94025 0.26533 0.48689 0.0
C903 C 0.91801 0.24376 0.48151 0.0
C904 C 0.86736 0.21623 0.52186 0.0
C905 C 0.85629 0.22455 0.53807 0.0
C906 C 0.86433 0.23034 0.563 0.0
C907 C 0.8837 0.22811 0.57199 0.0
C908 C 0.89471 0.21978 0.55564 0.0
C909 C 0.88654 0.21379 0.53083 0.0
C910 C 0.82152 0.17221 0.50921 0.0
C911 C 0.80111 0.17269 0.51595 0.0
C912 C 0.78837 0.15956 0.53518 0.0
C913 C 0.79579 0.14562 0.54773 0.0
C914 C 0.81591 0.14473 0.54036 0.0
C915 C 0.82881 0.15813 0.52145 0.0
C916 C 0.8109 0.15418 0.34375 0.0
C917 C 0.965 0.31019 0.50016 0.0
H918 H 0.9866 0.52976 0.40412 0.0
H919 H 0.03408 0.37383 0.22031 0.0
H920 H 0.96294 0.51885 0.27558 0.0
H921 H 0.97006 0.55927 0.29058 0.0
H922 H 0.0381 0.59387 0.2579 0.0
H923 H 0.03151 0.55372 0.24379 0.0
H924 H 0.96487 0.47678 0.30671 0.0
H925 H 0.96757 0.49312 0.34912 0.0
H926 H 0.0372 0.55578 0.33862 0.0
H927 H 0.03441 0.53908 0.29641 0.0
H928 H 0.97117 0.42971 0.2804 0.0
H929 H 0.98571 0.4077 0.30367 0.0
H930 H 0.05315 0.47523 0.32345 0.0
H931 H 0.03931 0.49663 0.2982 0.0
H932 H 0.96343 0.42164 0.22273 0.0
H933 H 0.96858 0.38685 0.21264 0.0
H934 H 0.0437 0.43085 0.23959 0.0
H935 H 0.03841 0.4656 0.24911 0.0
H936 H 0.95666 0.4537 0.18885 0.0
H937 H 0.95714 0.43483 0.14853 0.0
H938 H 0.03424 0.46717 0.16083 0.0
H939 H 0.03363 0.48614 0.20073 0.0
H940 H 0.95445 0.50311 0.21133 0.0
H941 H 0.95242 0.52561 0.17724 0.0
H942 H 0.02737 0.55185 0.16693 0.0
H943 H 0.02893 0.52871 0.20023 0.0
O944 O 0.986 0.5235 0.38737 0.0
O945 O 0.02157 0.55551 0.38089 0.0
O946 O 0.99291 0.36556 0.21009 0.0
O947 O 0.03155 0.38729 0.22407 0.0
C948 C 0.99469 0.50951 0.25299 0.0
C949 C -0.00277 0.49716 0.2725 0.0
C950 C -0.00134 0.47608 0.26726 0.0
C951 C -0.00262 0.46728 0.24256 0.0
C952 C 0.99454 0.47948 0.22321 0.0
C953 C 0.99312 0.50051 0.22837 0.0
C954 C 0.99662 0.53342 0.25844 0.0
C955 C 0.97912 0.53518 0.27124 0.0
C956 C 0.98315 0.55809 0.27973 0.0
C957 C 0.00449 0.57931 0.2751 0.0
C958 C 0.02141 0.57758 0.26132 0.0
C959 C 0.01758 0.55475 0.25317 0.0
C960 C -0.00067 0.50683 0.29845 0.0
C961 C 0.98072 0.49397 0.31366 0.0
C962 C 0.9823 0.50338 0.33784 0.0
C963 C 0.00255 0.52581 0.34722 0.0
C964 C 0.02131 0.5385 0.33196 0.0
C965 C 0.01974 0.52904 0.30782 0.0
C966 C 0.00432 0.46465 0.28725 0.0
C967 C 0.98889 0.43982 0.29019 0.0
C968 C -0.00278 0.42731 0.30356 0.0
C969 C 0.0209 0.43963 0.31472 0.0
C970 C 0.03518 0.46509 0.31424 0.0
C971 C 0.0271 0.47745 0.30026 0.0
C972 C 0.00051 0.44608 0.23675 0.0
C973 C 0.98098 0.42372 0.22637 0.0
C974 C 0.98397 0.40388 0.22067 0.0
C975 C 0.00656 0.40606 0.22534 0.0
C976 C 0.02607 0.42853 0.23577 0.0
C977 C 0.02309 0.44839 0.2413 0.0
C978 C 0.9951 0.47117 0.19756 0.0
C979 C 0.97367 0.45713 0.18248 0.0
C980 C 0.97397 0.44634 0.15963 0.0
C981 C 0.99574 0.44969 0.1516 0.0
C982 C 0.0173 0.46468 0.16637 0.0
C983 C 0.01697 0.47539 0.18916 0.0
C984 C 0.99174 0.51409 0.20795 0.0
C985 C 0.97031 0.51359 0.20151 0.0
C986 C 0.96923 0.52649 0.18218 0.0
C987 C 0.98961 0.5401 0.16915 0.0
C988 C 0.01116 0.54091 0.17609 0.0
C989 C 0.01215 0.52785 0.19518 0.0
C990 C 0.00405 0.53591 0.37282 0.0
C991 C 0.00983 0.38504 0.21935 0.0
H992 H 0.50077 0.5297 0.39047 0.0
H993 H 0.36574 0.30154 0.20144 0.0
H994 H 0.50193 0.51663 0.24813 0.0
H995 H 0.52884 0.5578 0.26767 0.0
H996 H 0.57827 0.53605 0.29384 0.0
H997 H 0.5514 0.4947 0.27328 0.0
H998 H 0.47089 0.48945 0.28786 0.0
H999 H 0.47865 0.5087 0.32989 0.0
H1000 H 0.52474 0.48017 0.34761 0.0
H1001 H 0.51683 0.46108 0.30546 0.0
H1002 H 0.42777 0.44296 0.25416 0.0
H1003 H 0.39482 0.42867 0.28103 0.0
H1004 H 0.43151 0.40446 0.32907 0.0
H1005 H 0.46403 0.41781 0.30124 0.0
H1006 H 0.42309 0.42334 0.20965 0.0
H1007 H 0.38757 0.38374 0.19556 0.0
H1008 H 0.42157 0.34741 0.22759 0.0
H1009 H 0.45713 0.38721 0.24134 0.0
H1010 H 0.45743 0.46212 0.19045 0.0
H1011 H 0.44526 0.45312 0.14656 0.0
H1012 H 0.47643 0.40743 0.14093 0.0
H1013 H 0.48847 0.41648 0.18545 0.0
H1014 H 0.49682 0.503 0.20455 0.0
H1015 H 0.51897 0.52705 0.17149 0.0
H1016 H 0.56278 0.49401 0.17232 0.0
H1017 H 0.5404 0.46981 0.20586 0.0
O1018 O 0.49764 0.52162 0.37407 0.0
O1019 O 0.52051 0.50585 0.3825 0.0
O1020 O 0.36291 0.33703 0.19064 0.0
O1021 O 0.37959 0.31746 0.20675 0.0
C1022 C 0.50623 0.47725 0.25101 0.0
C1023 C 0.4896 0.46341 0.26789 0.0
C1024 C 0.46833 0.44127 0.25955 0.0
C1025 C 0.46455 0.43209 0.23464 0.0
C1026 C 0.48097 0.44614 0.2177 0.0
C1027 C 0.50185 0.46872 0.22591 0.0
C1028 C 0.52495 0.50287 0.25898 0.0
C1029 C 0.51899 0.52096 0.25725 0.0
C1030 C 0.53416 0.54431 0.26872 0.0
C1031 C 0.55532 0.54984 0.28255 0.0
C1032 C 0.562 0.53212 0.28324 0.0
C1033 C 0.54679 0.50864 0.27152 0.0
C1034 C 0.49318 0.47377 0.29377 0.0
C1035 C 0.48247 0.48722 0.30095 0.0
C1036 C 0.48701 0.49825 0.32492 0.0
C1037 C 0.50233 0.49598 0.34211 0.0
C1038 C 0.51284 0.48226 0.33484 0.0
C1039 C 0.50832 0.47128 0.31083 0.0
C1040 C 0.44796 0.43084 0.27543 0.0
C1041 C 0.42842 0.43403 0.27017 0.0
C1042 C 0.40982 0.42624 0.28573 0.0
C1043 C 0.41054 0.41536 0.30707 0.0
C1044 C 0.43027 0.41237 0.31249 0.0
C1045 C 0.44883 0.41998 0.29669 0.0
C1046 C 0.44282 0.40813 0.2262 0.0
C1047 C 0.42294 0.40683 0.21338 0.0
C1048 C 0.40262 0.38417 0.20546 0.0
C1049 C 0.40176 0.36238 0.21037 0.0
C1050 C 0.42166 0.36381 0.22344 0.0
C1051 C 0.44198 0.3865 0.23132 0.0
C1052 C 0.47379 0.43994 0.19102 0.0
C1053 C 0.4617 0.45021 0.17974 0.0
C1054 C 0.45488 0.44515 0.15469 0.0
C1055 C 0.45997 0.42964 0.14036 0.0
C1056 C 0.47213 0.41929 0.15165 0.0
C1057 C 0.47904 0.42445 0.17693 0.0
C1058 C 0.51714 0.48483 0.20765 0.0
C1059 C 0.51147 0.50124 0.19796 0.0
C1060 C 0.52395 0.51477 0.17898 0.0
C1061 C 0.5423 0.51207 0.1693 0.0
C1062 C 0.54864 0.49629 0.17956 0.0
C1063 C 0.53596 0.48257 0.1986 0.0
C1064 C 0.50742 0.50805 0.36746 0.0
C1065 C 0.38022 0.33826 0.20196 0.0
H1066 H 0.5276 0.99586 0.41533 0.0
H1067 H 0.3589 0.9913 0.18649 0.0
H1068 H 0.55798 0.02609 0.27525 0.0
H1069 H 0.58447 0.01394 0.29515 0.0
H1070 H 0.52325 0.94095 0.29751 0.0
H1071 H 0.49756 0.9528 0.27636 0.0
H1072 H 0.52742 0.02861 0.31767 0.0
H1073 H 0.5334 0.0217 0.36025 0.0
H1074 H 0.4692 0.94986 0.34912 0.0
H1075 H 0.46368 0.95684 0.30646 0.0
H1076 H 0.47426 0.02868 0.31398 0.0
H1077 H 0.44256 0.01891 0.34234 0.0
H1078 H 0.39627 0.95016 0.29915 0.0
H1079 H 0.42798 0.95983 0.27121 0.0
H1080 H 0.46055 0.03984 0.25975 0.0
H1081 H 0.42599 0.04201 0.24333 0.0
H1082 H 0.3984 0.97209 0.2016 0.0
H1083 H 0.43277 0.97001 0.21839 0.0
H1084 H 0.49287 0.04558 0.21215 0.0
H1085 H 0.48326 0.04779 0.16879 0.0
H1086 H 0.46369 0.9726 0.15279 0.0
H1087 H 0.47386 0.97079 0.19575 0.0
H1088 H 0.5401 0.04248 0.22028 0.0
H1089 H 0.5639 0.04296 0.18635 0.0
H1090 H 0.53652 0.96592 0.19005 0.0
H1091 H 0.51212 0.96541 0.22341 0.0
O1092 O 0.52476 -0.00171 0.39849 0.0
O1093 O 0.49131 0.96174 0.39202 0.0
O1094 O 0.38632 0.02582 0.21687 0.0
O1095 O 0.37243 0.99074 0.1938 0.0
C1096 C 0.50881 -0.00204 0.26645 0.0
C1097 C 0.49222 -0.00264 0.28291 0.0
C1098 C 0.47276 -0.00025 0.2743 0.0
C1099 C 0.47049 0.00384 0.24951 0.0
C1100 C 0.48784 0.00578 0.23341 0.0
C1101 C 0.50709 0.00292 0.24189 0.0
C1102 C 0.52587 0.99036 0.27463 0.0
C1103 C 0.55055 0.00736 0.27956 0.0
C1104 C 0.56551 0.00048 0.29125 0.0
C1105 C 0.55583 0.97663 0.29847 0.0
C1106 C 0.53133 0.95942 0.29219 0.0
C1107 C 0.51658 0.96617 0.28019 0.0
C1108 C 0.49497 0.99336 0.30908 0.0
C1109 C 0.51461 0.01145 0.32452 0.0
C1110 C 0.51799 0.00743 0.34881 0.0
C1111 C 0.50174 0.98525 0.35811 0.0
C1112 C 0.482 0.96718 0.34258 0.0
C1113 C 0.47871 0.97119 0.31825 0.0
C1114 C 0.4533 0.99501 0.29052 0.0
C1115 C 0.45721 0.0116 0.31065 0.0
C1116 C 0.4392 0.00598 0.32679 0.0
C1117 C 0.4172 0.98362 0.3231 0.0
C1118 C 0.41327 0.96727 0.3027 0.0
C1119 C 0.43119 0.97291 0.28657 0.0
C1120 C 0.44925 0.0049 0.24007 0.0
C1121 C 0.44696 0.02499 0.24713 0.0
C1122 C 0.42723 0.02619 0.2377 0.0
C1123 C 0.40949 0.00727 0.22103 0.0
C1124 C 0.41177 0.98702 0.21428 0.0
C1125 C 0.43141 0.98582 0.22379 0.0
C1126 C 0.48423 0.00809 0.20697 0.0
C1127 C 0.48695 0.02979 0.1991 0.0
C1128 C 0.48142 0.03099 0.17443 0.0
C1129 C 0.47306 0.01048 0.15733 0.0
C1130 C 0.47079 0.98894 0.16531 0.0
C1131 C 0.47643 0.98781 0.18987 0.0
C1132 C 0.52453 0.00396 0.22443 0.0
C1133 C 0.53966 0.02583 0.2141 0.0
C1134 C 0.55331 0.0261 0.19481 0.0
C1135 C 0.55216 0.0045 0.18567 0.0
C1136 C 0.5377 0.98282 0.19673 0.0
C1137 C 0.52397 0.98254 0.21593 0.0
C1138 C 0.50553 0.98096 0.38387 0.0
C1139 C 0.38874 0.00859 0.21055 0.0
H1140 H 0.50404 0.04557 0.6671 0.0
H1141 H 0.64473 0.97934 0.84708 0.0
H1142 H 0.49915 0.03813 0.7997 0.0
H1143 H 0.46938 0.04466 0.77815 0.0
H1144 H 0.42017 0.96662 0.76749 0.0
H1145 H 0.45008 0.96022 0.78955 0.0
H1146 H 0.53636 0.04186 0.7673 0.0
H1147 H 0.52841 0.05056 0.72613 0.0
H1148 H 0.47417 0.97424 0.70911 0.0
H1149 H 0.48249 0.96578 0.75029 0.0
H1150 H 0.57703 0.04128 0.79885 0.0
H1151 H 0.60824 0.05621 0.76976 0.0
H1152 H 0.56713 0.98813 0.72402 0.0
H1153 H 0.53599 0.97303 0.7536 0.0
H1154 H 0.57553 0.02874 0.85122 0.0
H1155 H 0.61262 0.0299 0.86469 0.0
H1156 H 0.58922 0.96308 0.81869 0.0
H1157 H 0.55208 0.96199 0.80559 0.0
H1158 H 0.52831 0.02282 0.87549 0.0
H1159 H 0.54029 0.02243 0.91813 0.0
H1160 H 0.54134 0.95644 0.89889 0.0
H1161 H 0.52673 0.95555 0.85668 0.0
H1162 H 0.49247 0.02729 0.84545 0.0
H1163 H 0.46823 0.02672 0.87877 0.0
H1164 H 0.44739 0.95198 0.88808 0.0
H1165 H 0.47092 0.95232 0.8538 0.0
O1166 O 0.50734 0.04162 0.68306 0.0
O1167 O 0.4798 0.00215 0.67514 0.0
O1168 O 0.6414 0.01362 0.86551 0.0
O1169 O 0.63025 0.97936 0.84204 0.0
C1170 C 0.49671 0.99518 0.8042 0.0
C1171 C 0.51373 -0.00175 0.78726 0.0
C1172 C 0.53477 -0.00165 0.79504 0.0
C1173 C 0.53841 0.99434 0.81956 0.0
C1174 C 0.52112 0.99076 0.83654 0.0
C1175 C 0.50025 0.99131 0.82879 0.0
C1176 C 0.47667 -0.00128 0.79623 0.0
C1177 C 0.48168 0.02248 0.79332 0.0
C1178 C 0.46484 0.02615 0.78075 0.0
C1179 C 0.44279 0.00611 0.77071 0.0
C1180 C 0.43714 0.98234 0.775 0.0
C1181 C 0.45405 0.97866 0.78768 0.0
C1182 C 0.51013 0.00316 0.76166 0.0
C1183 C 0.52302 0.027 0.75452 0.0
C1184 C 0.51833 0.03193 0.73105 0.0
C1185 C 0.50061 0.0131 0.71434 0.0
C1186 C 0.48793 0.98917 0.72152 0.0
C1187 C 0.49268 0.98426 0.74498 0.0
C1188 C 0.5544 0.00605 0.77836 0.0
C1189 C 0.57492 0.02946 0.78272 0.0
C1190 C 0.59251 0.03808 0.76596 0.0
C1191 C 0.58977 0.02346 0.74447 0.0
C1192 C 0.56951 -0.00026 0.74041 0.0
C1193 C 0.55184 0.99111 0.75724 0.0
C1194 C 0.56103 0.99515 0.82762 0.0
C1195 C 0.57839 0.0143 0.8442 0.0
C1196 C 0.59959 0.01495 0.8518 0.0
C1197 C 0.60386 0.99654 0.8428 0.0
C1198 C 0.58649 0.97752 0.82601 0.0
C1199 C 0.56527 0.97685 0.81847 0.0
C1200 C 0.52629 0.98904 0.86292 0.0
C1201 C 0.53014 0.00772 0.88064 0.0
C1202 C 0.53741 0.00767 0.90497 0.0
C1203 C 0.54184 0.98942 0.91204 0.0
C1204 C 0.53753 0.97044 0.89435 0.0
C1205 C 0.52948 0.97008 0.8701 0.0
C1206 C 0.48315 0.98973 0.84692 0.0
C1207 C 0.48197 0.0105 0.85403 0.0
C1208 C 0.46839 0.01025 0.87327 0.0
C1209 C 0.45591 0.9893 0.88594 0.0
C1210 C 0.45649 0.96823 0.87834 0.0
C1211 C 0.46998 0.96843 0.85889 0.0
C1212 C 0.49525 0.01852 0.68965 0.0
C1213 C 0.62633 -0.00288 0.85085 0.0
H1214 H 0.96959 0.44917 0.6715 0.0
H1215 H 0.02963 0.65662 0.85532 0.0
H1216 H 0.95958 0.44829 0.80451 0.0
H1217 H 0.94574 0.40579 0.79163 0.0
H1218 H 0.01598 0.41794 0.81451 0.0
H1219 H 0.03016 0.4612 0.8264 0.0
H1220 H 0.96381 0.48116 0.77211 0.0
H1221 H 0.95939 0.46646 0.72882 0.0
H1222 H 0.03206 0.47987 0.7353 0.0
H1223 H 0.03633 0.49482 0.77854 0.0
H1224 H 0.96194 0.51644 0.80302 0.0
H1225 H 0.9521 0.54105 0.77792 0.0
H1226 H 0.02435 0.57758 0.75427 0.0
H1227 H 0.03412 0.55272 0.77965 0.0
H1228 H 0.9753 0.53569 0.85828 0.0
H1229 H 0.97575 0.57383 0.86768 0.0
H1230 H 0.04513 0.61389 0.83777 0.0
H1231 H 0.04465 0.57568 0.82892 0.0
H1232 H 0.97704 0.49389 0.88737 0.0
H1233 H 0.97491 0.51127 0.92727 0.0
H1234 H 0.04361 0.57633 0.91955 0.0
H1235 H 0.04682 0.55753 0.88081 0.0
H1236 H 0.96897 0.45049 0.8597 0.0
H1237 H 0.96698 0.42449 0.89162 0.0
H1238 H 0.04263 0.47395 0.91316 0.0
H1239 H 0.04471 0.49956 0.88038 0.0
O1240 O 0.97178 0.4552 0.68863 0.0
O1241 O 0.00921 0.46236 0.69296 0.0
O1242 O 0.99401 0.62005 0.8684 0.0
O1243 O 0.02919 0.64133 0.85224 0.0
C1244 C 0.00376 0.48372 0.8231 0.0
C1245 C 0.00332 0.49817 0.80472 0.0
C1246 C 0.0051 0.52062 0.81149 0.0
C1247 C 0.00929 0.52968 0.83647 0.0
C1248 C 0.01093 0.51582 0.85493 0.0
C1249 C 0.00787 0.49261 0.84822 0.0
C1250 C 0.99594 0.45785 0.81606 0.0
C1251 C 0.97204 0.44184 0.80663 0.0
C1252 C 0.96404 0.41746 0.79971 0.0
C1253 C 0.97965 0.40845 0.80254 0.0
C1254 C 0.00358 0.42445 0.81225 0.0
C1255 C 0.01168 0.44905 0.81902 0.0
C1256 C 0.00054 0.48943 0.77834 0.0
C1257 C 0.97886 0.48123 0.76406 0.0
C1258 C 0.97634 0.47268 0.73937 0.0
C1259 C 0.9954 0.47207 0.72856 0.0
C1260 C 0.01704 0.48017 0.74302 0.0
C1261 C 0.01955 0.48873 0.76771 0.0
C1262 C -0.00128 0.53292 0.79312 0.0
C1263 C 0.97547 0.52937 0.79197 0.0
C1264 C 0.96987 0.54335 0.77762 0.0
C1265 C 0.98753 0.56127 0.76435 0.0
C1266 C 0.01052 0.56398 0.76454 0.0
C1267 C 0.01608 0.54979 0.77884 0.0
C1268 C 0.01004 0.55297 0.84312 0.0
C1269 C 0.9907 0.55277 0.85406 0.0
C1270 C 0.99096 0.57455 0.85929 0.0
C1271 C 0.01048 0.59692 0.85345 0.0
C1272 C 0.02983 0.59701 0.84252 0.0
C1273 C 0.02962 0.57523 0.83745 0.0
C1274 C 0.01219 0.52429 0.88118 0.0
C1275 C 0.99225 0.51131 0.89484 0.0
C1276 C 0.99084 0.52154 0.91746 0.0
C1277 C 0.00894 0.54534 0.92654 0.0
C1278 C 0.02953 0.55781 0.91344 0.0
C1279 C 0.03131 0.54716 0.89115 0.0
C1280 C 0.00705 0.47678 0.86751 0.0
C1281 C 0.98524 0.4555 0.87097 0.0
C1282 C 0.9841 0.44076 0.8893 0.0
C1283 C 0.0047 0.4471 0.90474 0.0
C1284 C 0.0266 0.46837 0.90121 0.0
C1285 C 0.02776 0.48311 0.8827 0.0
C1286 C 0.99264 0.46294 0.70234 0.0
C1287 C 0.01065 0.62006 0.85854 0.0
H1288 H 0.47025 0.48809 0.65232 0.0
H1289 H 0.66091 0.66785 0.84738 0.0
H1290 H 0.45187 0.50165 0.77735 0.0
H1291 H 0.41923 0.46048 0.76134 0.0
H1292 H 0.45186 0.42874 0.80411 0.0
H1293 H 0.4849 0.46968 0.81925 0.0
H1294 H 0.49835 0.54404 0.74864 0.0
H1295 H 0.4863 0.5264 0.7059 0.0
H1296 H 0.49077 0.4641 0.72518 0.0
H1297 H 0.50315 0.4821 0.76772 0.0
H1298 H 0.55481 0.5905 0.77353 0.0
H1299 H 0.59046 0.60498 0.75006 0.0
H1300 H 0.58319 0.53387 0.7495 0.0
H1301 H 0.5494 0.52047 0.77491 0.0
H1302 H 0.54086 0.60094 0.83148 0.0
H1303 H 0.57774 0.64033 0.8428 0.0
H1304 H 0.62011 0.60638 0.83115 0.0
H1305 H 0.58304 0.567 0.82019 0.0
H1306 H 0.50376 0.56449 0.87069 0.0
H1307 H 0.51767 0.57666 0.91467 0.0
H1308 H 0.57217 0.55777 0.90469 0.0
H1309 H 0.55827 0.54561 0.86123 0.0
H1310 H 0.4534 0.51068 0.83962 0.0
H1311 H 0.42837 0.48358 0.86978 0.0
H1312 H 0.48833 0.47697 0.89646 0.0
H1313 H 0.51243 0.50234 0.8652 0.0
O1314 O 0.47527 0.49485 0.66929 0.0
O1315 O 0.47755 0.46308 0.68024 0.0
O1316 O 0.62334 0.66853 0.85077 0.0
O1317 O 0.64607 0.65239 0.84334 0.0
C1318 C 0.4925 0.51312 0.80591 0.0
C1319 C 0.50808 0.5249 0.78738 0.0
C1320 C 0.53062 0.54642 0.79369 0.0
C1321 C 0.53663 0.55742 0.81811 0.0
C1322 C 0.5213 0.54545 0.83668 0.0
C1323 C 0.4994 0.52309 0.83067 0.0
C1324 C 0.47066 0.48865 0.7996 0.0
C1325 C 0.4517 0.4858 0.78362 0.0
C1326 C 0.43318 0.46244 0.77452 0.0
C1327 C 0.43325 0.44178 0.78171 0.0
C1328 C 0.45149 0.44457 0.79861 0.0
C1329 C 0.4702 0.46787 0.80735 0.0
C1330 C 0.50132 0.51423 0.76135 0.0
C1331 C 0.49678 0.52662 0.74357 0.0
C1332 C 0.48985 0.51647 0.71919 0.0
C1333 C 0.48743 0.49376 0.71215 0.0
C1334 C 0.49234 0.48155 0.72999 0.0
C1335 C 0.49932 0.49175 0.75433 0.0
C1336 C 0.54957 0.55448 0.77606 0.0
C1337 C 0.56095 0.5781 0.76827 0.0
C1338 C 0.5812 0.58627 0.75478 0.0
C1339 C 0.59001 0.57073 0.74848 0.0
C1340 C 0.57746 0.54658 0.75486 0.0
C1341 C 0.55778 0.53871 0.76892 0.0
C1342 C 0.5593 0.58121 0.82469 0.0
C1343 C 0.55813 0.60207 0.83136 0.0
C1344 C 0.57922 0.62453 0.83783 0.0
C1345 C 0.60189 0.62653 0.83776 0.0
C1346 C 0.60296 0.6055 0.83127 0.0
C1347 C 0.58183 0.58301 0.82491 0.0
C1348 C 0.53013 0.55433 0.86282 0.0
C1349 C 0.5188 0.56319 0.87806 0.0
C1350 C 0.52671 0.5701 0.90301 0.0
C1351 C 0.54575 0.56783 0.91291 0.0
C1352 C 0.55725 0.55937 0.89747 0.0
C1353 C 0.5495 0.55267 0.87268 0.0
C1354 C 0.48487 0.50882 0.85048 0.0
C1355 C 0.46112 0.50351 0.85216 0.0
C1356 C 0.44694 0.48822 0.86951 0.0
C1357 C 0.45647 0.47834 0.88566 0.0
C1358 C 0.48044 0.48419 0.88421 0.0
C1359 C 0.49438 0.49901 0.86661 0.0
C1360 C 0.4798 0.4829 0.6863 0.0
C1361 C 0.62434 0.65043 0.84439 0.0
H1362 H 0.61859 0.83871 0.74103 0.0
H1363 H 0.66936 0.68497 0.55831 0.0
H1364 H 0.61216 0.84418 0.61123 0.0
H1365 H 0.62447 0.88699 0.62297 0.0
H1366 H 0.69419 0.91069 0.59586 0.0
H1367 H 0.68205 0.86818 0.58469 0.0
H1368 H 0.60403 0.79272 0.64119 0.0
H1369 H 0.60336 0.80631 0.68378 0.0
H1370 H 0.67572 0.86783 0.68141 0.0
H1371 H 0.67627 0.85388 0.63896 0.0
H1372 H 0.61401 0.74536 0.61896 0.0
H1373 H 0.63051 0.72419 0.64085 0.0
H1374 H 0.69614 0.79321 0.66144 0.0
H1375 H 0.6807 0.81373 0.63722 0.0
H1376 H 0.60444 0.73918 0.56012 0.0
H1377 H 0.60734 0.70307 0.54957 0.0
H1378 H 0.68193 0.74284 0.57878 0.0
H1379 H 0.67893 0.77893 0.58873 0.0
H1380 H 0.6031 0.77444 0.52432 0.0
H1381 H 0.60559 0.75673 0.48413 0.0
H1382 H 0.68089 0.78323 0.5031 0.0
H1383 H 0.67837 0.80118 0.54274 0.0
H1384 H 0.60499 0.8302 0.55401 0.0
H1385 H 0.60672 0.85689 0.52277 0.0
H1386 H 0.67481 0.86639 0.50297 0.0
H1387 H 0.6738 0.84131 0.53539 0.0
O1388 O 0.61927 0.83363 0.72417 0.0
O1389 O 0.65645 0.865 0.722 0.0
O1390 O 0.62944 0.67949 0.54706 0.0
O1391 O 0.66771 0.69897 0.56228 0.0
C1392 C 0.64018 0.82764 0.59156 0.0
C1393 C 0.64008 0.81395 0.61101 0.0
C1394 C 0.64049 0.79226 0.60587 0.0
C1395 C 0.63967 0.78365 0.58117 0.0
C1396 C 0.63869 0.79683 0.56177 0.0
C1397 C 0.63883 0.81876 0.5669 0.0
C1398 C 0.64621 0.85318 0.59705 0.0
C1399 C 0.62997 0.85869 0.60765 0.0
C1400 C 0.63696 0.88303 0.6142 0.0
C1401 C 0.66024 0.90201 0.61023 0.0
C1402 C 0.6762 0.89636 0.59919 0.0
C1403 C 0.66924 0.87217 0.59267 0.0
C1404 C 0.64006 0.82246 0.63689 0.0
C1405 C 0.61971 0.80913 0.64991 0.0
C1406 C 0.61938 0.81694 0.67423 0.0
C1407 C 0.63945 0.83822 0.68597 0.0
C1408 C 0.65992 0.85143 0.67289 0.0
C1409 C 0.66023 0.84357 0.64859 0.0
C1410 C 0.64632 0.78101 0.626 0.0
C1411 C 0.63174 0.75596 0.62866 0.0
C1412 C 0.64119 0.74391 0.64125 0.0
C1413 C 0.66504 0.75695 0.65199 0.0
C1414 C 0.67814 0.78254 0.65237 0.0
C1415 C 0.66907 0.79441 0.63903 0.0
C1416 C 0.64139 0.76157 0.57539 0.0
C1417 C 0.62137 0.74002 0.56422 0.0
C1418 C 0.62308 0.71944 0.55824 0.0
C1419 C 0.64486 0.72005 0.56339 0.0
C1420 C 0.66489 0.74172 0.57459 0.0
C1421 C 0.6632 0.76234 0.58039 0.0
C1422 C 0.64053 0.78892 0.53636 0.0
C1423 C 0.62018 0.77674 0.51952 0.0
C1424 C 0.62158 0.7665 0.49678 0.0
C1425 C 0.64336 0.76838 0.49075 0.0
C1426 C 0.66392 0.78159 0.50727 0.0
C1427 C 0.6625 0.79176 0.52988 0.0
C1428 C 0.63901 0.83336 0.54663 0.0
C1429 C 0.62018 0.83794 0.54278 0.0
C1430 C 0.6211 0.85301 0.5248 0.0
C1431 C 0.64073 0.86345 0.51013 0.0
C1432 C 0.65946 0.85865 0.51398 0.0
C1433 C 0.65874 0.84399 0.53223 0.0
C1434 C 0.639 0.8465 0.71179 0.0
C1435 C 0.64677 0.69824 0.55705 0.0
H1436 H 0.17494 0.82291 0.7517 0.0
H1437 H 0.01594 0.65819 0.53243 0.0
H1438 H 0.17791 0.84394 0.62129 0.0
H1439 H 0.21028 0.88572 0.6327 0.0
H1440 H 0.26258 0.86688 0.61115 0.0
H1441 H 0.22971 0.82416 0.60023 0.0
H1442 H 0.14473 0.81237 0.64732 0.0
H1443 H 0.15296 0.81952 0.69196 0.0
H1444 H 0.20065 0.79094 0.68749 0.0
H1445 H 0.192 0.78357 0.64281 0.0
H1446 H 0.10602 0.78749 0.60287 0.0
H1447 H 0.07111 0.7734 0.62693 0.0
H1448 H 0.09145 0.72797 0.66402 0.0
H1449 H 0.12619 0.74159 0.63895 0.0
H1450 H 0.10234 0.77573 0.55236 0.0
H1451 H 0.06226 0.74432 0.53436 0.0
H1452 H 0.073 0.68858 0.56283 0.0
H1453 H 0.11324 0.72018 0.58044 0.0
H1454 H 0.15227 0.8166 0.53618 0.0
H1455 H 0.1372 0.81141 0.49349 0.0
H1456 H 0.12304 0.73746 0.48726 0.0
H1457 H 0.14052 0.74366 0.52962 0.0
H1458 H 0.19333 0.85035 0.56855 0.0
H1459 H 0.21878 0.87515 0.53758 0.0
H1460 H 0.22377 0.81409 0.50776 0.0
H1461 H 0.1995 0.78956 0.54001 0.0
O1462 O 0.17188 0.81985 0.73399 0.0
O1463 O 0.19631 0.80512 0.73069 0.0
O1464 O 0.02729 0.70033 0.52481 0.0
O1465 O 0.03179 0.67097 0.53926 0.0
C1466 C 0.18082 0.80707 0.59942 0.0
C1467 C 0.16253 0.79251 0.61464 0.0
C1468 C 0.13945 0.77455 0.604 0.0
C1469 C 0.13532 0.76925 0.57824 0.0
C1470 C 0.15384 0.78307 0.56294 0.0
C1471 C 0.17664 0.80212 0.57351 0.0
C1472 C 0.20142 0.83088 0.6102 0.0
C1473 C 0.19635 0.84842 0.61989 0.0
C1474 C 0.21479 0.87236 0.62604 0.0
C1475 C 0.23869 0.87938 0.62236 0.0
C1476 C 0.24416 0.86171 0.61399 0.0
C1477 C 0.22551 0.83745 0.60786 0.0
C1478 C 0.16745 0.79705 0.64183 0.0
C1479 C 0.15672 0.80739 0.65601 0.0
C1480 C 0.16157 0.81159 0.68152 0.0
C1481 C 0.17739 0.80571 0.69332 0.0
C1482 C 0.18831 0.79561 0.679 0.0
C1483 C 0.18341 0.79138 0.65349 0.0
C1484 C 0.11845 0.76535 0.61903 0.0
C1485 C 0.10287 0.77436 0.61608 0.0
C1486 C 0.08317 0.76662 0.6301 0.0
C1487 C 0.07886 0.74997 0.64766 0.0
C1488 C 0.09448 0.7409 0.65064 0.0
C1489 C 0.11423 0.7486 0.6364 0.0
C1490 C 0.11084 0.75019 0.56738 0.0
C1491 C 0.0961 0.75671 0.55449 0.0
C1492 C 0.07316 0.73874 0.54432 0.0
C1493 C 0.06444 0.71391 0.54709 0.0
C1494 C 0.07918 0.7075 0.56029 0.0
C1495 C 0.10216 0.7255 0.57037 0.0
C1496 C 0.14771 0.78059 0.53602 0.0
C1497 C 0.14686 0.79961 0.52538 0.0
C1498 C 0.13772 0.79642 0.50113 0.0
C1499 C 0.1282 0.77376 0.48733 0.0
C1500 C 0.13016 0.75509 0.49753 0.0
C1501 C 0.14003 0.75856 0.52169 0.0
C1502 C 0.19498 0.81824 0.55704 0.0
C1503 C 0.20089 0.84261 0.55625 0.0
C1504 C 0.21524 0.85671 0.53842 0.0
C1505 C 0.22332 0.84648 0.52062 0.0
C1506 C 0.21795 0.82235 0.52161 0.0
C1507 C 0.20412 0.80841 0.53993 0.0
C1508 C 0.18249 0.81017 0.72044 0.0
C1509 C 0.04005 0.69474 0.53635 0.0
H1510 H 0.2068 0.3548 0.75594 0.0
H1511 H 0.02767 0.34762 0.56261 0.0
H1512 H 0.22802 0.37818 0.63182 0.0
H1513 H 0.25358 0.3645 0.65049 0.0
H1514 H 0.21249 0.29525 0.60659 0.0
H1515 H 0.1864 0.30863 0.58884 0.0
H1516 H 0.18778 0.38287 0.6615 0.0
H1517 H 0.19754 0.37799 0.70371 0.0
H1518 H 0.17666 0.30324 0.68176 0.0
H1519 H 0.16663 0.30827 0.63973 0.0
H1520 H 0.13977 0.38217 0.64087 0.0
H1521 H 0.10684 0.37079 0.66794 0.0
H1522 H 0.08829 0.29544 0.65769 0.0
H1523 H 0.12139 0.30703 0.63149 0.0
H1524 H 0.14667 0.39555 0.57965 0.0
H1525 H 0.11235 0.40042 0.56909 0.0
H1526 H 0.06353 0.32442 0.57971 0.0
H1527 H 0.09798 0.31976 0.58993 0.0
H1528 H 0.18292 0.38913 0.54073 0.0
H1529 H 0.17107 0.38601 0.49673 0.0
H1530 H 0.10813 0.31529 0.50338 0.0
H1531 H 0.12028 0.31823 0.5469 0.0
H1532 H 0.22684 0.38339 0.56949 0.0
H1533 H 0.248 0.38057 0.53432 0.0
H1534 H 0.18406 0.31251 0.50663 0.0
H1535 H 0.16383 0.31463 0.54257 0.0
O1536 O 0.20262 0.35626 0.73917 0.0
O1537 O 0.19176 0.31798 0.72693 0.0
O1538 O 0.06742 0.3853 0.56198 0.0
O1539 O 0.04156 0.34625 0.56684 0.0
C1540 C 0.18604 0.34969 0.60311 0.0
C1541 C 0.17141 0.34937 0.62186 0.0
C1542 C 0.151 0.35118 0.61608 0.0
C1543 C 0.1458 0.3546 0.59184 0.0
C1544 C 0.16013 0.35454 0.57303 0.0
C1545 C 0.18011 0.35178 0.57858 0.0
C1546 C 0.20536 0.3444 0.609 0.0
C1547 C 0.22505 0.36036 0.62568 0.0
C1548 C 0.23964 0.35254 0.63629 0.0
C1549 C 0.2349 0.32877 0.63005 0.0
C1550 C 0.21637 0.31359 0.61186 0.0
C1551 C 0.20168 0.32132 0.60146 0.0
C1552 C 0.17676 0.34602 0.64755 0.0
C1553 C 0.18526 0.36545 0.66589 0.0
C1554 C 0.19086 0.36261 0.68996 0.0
C1555 C 0.18798 0.34026 0.69609 0.0
C1556 C 0.17916 0.32072 0.67765 0.0
C1557 C 0.17349 0.32356 0.65363 0.0
C1558 C 0.13299 0.34542 0.63441 0.0
C1559 C 0.12887 0.36334 0.64499 0.0
C1560 C 0.11008 0.3568 0.66033 0.0
C1561 C 0.09519 0.33227 0.66521 0.0
C1562 C 0.09985 0.31457 0.65496 0.0
C1563 C 0.11864 0.32113 0.63983 0.0
C1564 C 0.12481 0.3574 0.58583 0.0
C1565 C 0.12854 0.38001 0.57974 0.0
C1566 C 0.10891 0.38273 0.57372 0.0
C1567 C 0.08518 0.36281 0.57363 0.0
C1568 C 0.08154 0.34015 0.57968 0.0
C1569 C 0.10119 0.33746 0.58565 0.0
C1570 C 0.15228 0.35404 0.54702 0.0
C1571 C 0.16647 0.37312 0.53266 0.0
C1572 C 0.1597 0.37132 0.50765 0.0
C1573 C 0.13869 0.35041 0.49678 0.0
C1574 C 0.12447 0.33152 0.51131 0.0
C1575 C 0.13121 0.33331 0.53619 0.0
C1576 C 0.19368 0.34941 0.55837 0.0
C1577 C 0.21758 0.36776 0.55594 0.0
C1578 C 0.22949 0.36628 0.53567 0.0
C1579 C 0.21753 0.34659 0.51736 0.0
C1580 C 0.19382 0.32791 0.52036 0.0
C1581 C 0.18215 0.32918 0.54078 0.0
C1582 C 0.19419 0.33739 0.72162 0.0
C1583 C 0.06426 0.36556 0.56713 0.0
C1584 C 0.98177 0.39616 0.10646 0.0
C1585 C -0.00126 0.40708 0.08899 0.0
C1586 C 0.98037 0.41023 0.12618 0.0
C1587 C 0.99582 0.43573 0.12912 0.0
H1588 H 0.96981 0.37652 0.10525 0.0
H1589 H 0.96762 0.40097 0.13967 0.0
S1590 S 0.04168 0.47358 0.08727 0.0
N1591 N 0.03024 0.44523 0.07508 0.0
N1592 N 0.02734 0.47161 0.11215 0.0
C1593 C 0.01227 0.44701 0.11139 0.0
C1594 C 0.01379 0.4327 0.09132 0.0
C1595 C 0.5889 0.55814 0.13071 0.0
C1596 C 0.57448 0.55685 0.11005 0.0
C1597 C 0.57869 0.54255 0.14944 0.0
C1598 C 0.55386 0.52523 0.14788 0.0
H1599 H 0.60784 0.57215 0.1331 0.0
H1600 H 0.58998 0.54493 0.16577 0.0
S1601 S 0.50941 0.51156 0.09554 0.0
N1602 N 0.53487 0.5347 0.0877 0.0
N1603 N 0.51585 0.50545 0.12276 0.0
C1604 C 0.53973 0.52254 0.12647 0.0
C1605 C 0.55001 0.53836 0.10757 0.0
C1606 C 0.43757 0.01633 0.10412 0.0
C1607 C 0.44165 0.00445 0.08406 0.0
C1608 C 0.44871 0.01924 0.12758 0.0
C1609 C 0.46454 0.01062 0.13178 0.0
H1610 H 0.4247 0.02227 0.102 0.0
H1611 H 0.44394 0.0272 0.14275 0.0
S1612 S 0.48453 0.9822 0.08454 0.0
N1613 N 0.46467 0.98652 0.06932 0.0
N1614 N 0.48615 0.99265 0.11333 0.0
C1615 C 0.47006 0.00026 0.11154 0.0
C1616 C 0.45849 -0.00297 0.08771 0.0
C1617 C 0.44676 0.01182 0.9478 0.0
C1618 C 0.42306 0.99397 0.95204 0.0
C1619 C 0.45711 0.01004 0.92641 0.0
C1620 C 0.44418 0.99037 0.90832 0.0
H1621 H 0.45756 0.02736 0.96115 0.0
H1622 H 0.47552 0.02412 0.92414 0.0
S1623 S 0.38136 0.93902 0.90999 0.0
N1624 N 0.3868 0.95598 0.93611 0.0
N1625 N 0.40633 0.95286 0.89566 0.0
C1626 C 0.42048 0.97234 0.91221 0.0
C1627 C 0.40989 0.97411 0.93409 0.0
C1628 C 0.98072 0.41208 0.96049 0.0
C1629 C 0.99632 0.40331 0.96566 0.0
C1630 C 0.98378 0.42625 0.94093 0.0
C1631 C 0.00255 0.43235 0.92554 0.0
H1632 H 0.96592 0.40809 0.9717 0.0
H1633 H 0.97136 0.43265 0.93795 0.0
S1634 S 0.04825 0.41392 0.93043 0.0
N1635 N 0.03134 0.4018 0.95341 0.0
N1636 N 0.0369 0.42842 0.91634 0.0
C1637 C 0.01841 0.42389 0.93035 0.0
C1638 C 0.01531 0.40935 0.95041 0.0
C1639 C 0.5737 0.60469 0.97429 0.0
C1640 C 0.576 0.58802 0.9882 0.0
C1641 C 0.56278 0.59776 0.9502 0.0
C1642 C 0.55382 0.57396 0.93932 0.0
H1643 H 0.58116 0.62347 0.98168 0.0
H1644 H 0.56226 0.61136 0.93968 0.0
S1645 S 0.5521 0.52246 0.96891 0.0
N1646 N 0.56603 0.5459 0.99002 0.0
N1647 N 0.54556 0.53306 0.94482 0.0
C1648 C 0.55475 0.55678 0.95344 0.0
C1649 C 0.56583 0.56376 0.97788 0.0
C1650 C 0.97712 0.56581 0.97008 0.0
C1651 C 0.99521 0.58072 0.98867 0.0
C1652 C 0.98193 0.55482 0.95004 0.0
C1653 C 0.0049 0.55775 0.9481 0.0
H1654 H 0.95909 0.56274 0.97094 0.0
H1655 H 0.96747 0.54398 0.93589 0.0
S1656 S 0.05818 0.59421 0.99291 0.0
N1657 N 0.03688 0.59792 0.00429 0.0
N1658 N 0.04579 0.57625 0.96713 0.0
C1659 C 0.02319 0.57264 0.96671 0.0
C1660 C 0.01837 0.58433 0.98689 0.0
C1661 C 0.42912 0.42333 0.92278 0.0
C1662 C 0.41444 0.42759 0.93803 0.0
C1663 C 0.44217 0.43959 0.90561 0.0
C1664 C 0.44137 0.46097 0.90326 0.0
H1665 H 0.43052 0.40724 0.92406 0.0
H1666 H 0.45305 0.43537 0.89409 0.0
S1667 S 0.40624 0.48097 0.93953 0.0
N1668 N 0.39979 0.45469 0.94984 0.0
N1669 N 0.42503 0.48578 0.91803 0.0
C1670 C 0.42665 0.46542 0.91833 0.0
C1671 C 0.41304 0.44862 0.93562 0.0
C1672 C 0.58271 0.01788 0.97097 0.0
C1673 C 0.57622 -0.00209 0.98488 0.0
C1674 C 0.57153 0.0148 0.94756 0.0
C1675 C 0.55298 0.99169 0.93719 0.0
H1676 H 0.59698 0.03605 0.97799 0.0
H1677 H 0.57782 0.03074 0.93738 0.0
S1678 S 0.52819 0.93367 0.96694 0.0
N1679 N 0.54981 0.95427 0.98704 0.0
N1680 N 0.52786 0.94854 0.94334 0.0
C1681 C 0.54602 0.97154 0.9511 0.0
C1682 C 0.55783 0.97464 0.97486 0.0
C1683 C 0.56186 0.98518 0.12232 0.0
C1684 C 0.58616 0.00242 0.11936 0.0
C1685 C 0.55119 0.98598 0.14385 0.0
C1686 C 0.56434 0.00402 0.16337 0.0
H1687 H 0.55086 0.97091 0.10785 0.0
H1688 H 0.53234 0.9725 0.14507 0.0
S1689 S 0.62865 0.05307 0.16539 0.0
N1690 N 0.62317 0.03799 0.13807 0.0
N1691 N 0.60305 0.03926 0.1787 0.0
C1692 C 0.58863 0.02139 0.16076 0.0
C1693 C 0.59955 0.02063 0.13875 0.0
C1694 C 0.97926 0.58324 0.13267 0.0
C1695 C 0.99001 0.5833 0.1108 0.0
C1696 C 0.97873 0.56882 0.15132 0.0
C1697 C 0.98868 0.55381 0.14857 0.0
H1698 H 0.9719 0.59496 0.13571 0.0
H1699 H 0.97109 0.56998 0.16827 0.0
S1700 S 0.01556 0.5447 0.09319 0.0
N1701 N 0.00884 0.56549 0.0865 0.0
N1702 N 0.00715 0.53788 0.12117 0.0
C1703 C -0.00162 0.55283 0.12626 0.0
C1704 C -0.00078 0.56771 0.10747 0.0
C1705 C 0.44527 0.4391 0.07587 0.0
C1706 C 0.42942 0.41512 0.06527 0.0
C1707 C 0.45623 0.44354 0.09965 0.0
C1708 C 0.45185 0.42423 0.11383 0.0
H1709 H 0.44857 0.45466 0.0661 0.0
H1710 H 0.46747 0.46228 0.10744 0.0
S1711 S 0.4134 0.35808 0.09422 0.0
N1712 N 0.41125 0.3717 0.07031 0.0
N1713 N 0.43179 0.38026 0.11523 0.0
C1714 C 0.43723 0.40017 0.10306 0.0
C1715 C 0.42603 0.39557 0.07872 0.0
C1716 C 0.66672 0.75609 0.4325 0.0
C1717 C 0.65094 0.73089 0.4264 0.0
C1718 C 0.66365 0.76824 0.45288 0.0
C1719 C 0.64471 0.75565 0.46793 0.0
H1720 H 0.68169 0.76657 0.42156 0.0
H1721 H 0.67636 0.78762 0.45706 0.0
S1722 S 0.59876 0.68949 0.46039 0.0
N1723 N 0.61566 0.69371 0.43717 0.0
N1724 N 0.6102 0.71659 0.47573 0.0
C1725 C 0.62864 0.73052 0.46195 0.0
C1726 C 0.6317 0.71813 0.44114 0.0
C1727 C 0.22822 0.86738 0.457 0.0
C1728 C 0.25025 0.88977 0.45937 0.0
C1729 C 0.22045 0.85259 0.47653 0.0
C1730 C 0.23422 0.85999 0.49922 0.0
H1731 H 0.21657 0.86163 0.44015 0.0
H1732 H 0.20294 0.8359 0.47432 0.0
S1733 S 0.29341 0.91655 0.51472 0.0
N1734 N 0.28621 0.9181 0.48581 0.0
N1735 N 0.27108 0.89057 0.5229 0.0
C1736 C 0.25657 0.88191 0.50165 0.0
C1737 C 0.26477 0.89674 0.48157 0.0
C1738 C 0.11563 0.32213 0.43145 0.0
C1739 C 0.1112 0.33911 0.42073 0.0
C1740 C 0.12539 0.32639 0.45578 0.0
C1741 C 0.13127 0.34786 0.47031 0.0
H1742 H 0.11076 0.30496 0.42131 0.0
H1743 H 0.12784 0.3125 0.46349 0.0
S1744 S 0.12514 0.39909 0.45077 0.0
N1745 N 0.11507 0.37914 0.4263 0.0
N1746 N 0.13324 0.38687 0.47212 0.0
C1747 C 0.12808 0.36554 0.45961 0.0
C1748 C 0.11807 0.36122 0.43481 0.0
C1749 C 0.07995 0.30868 0.26622 0.0
C1750 C 0.096 0.32676 0.28464 0.0
C1751 C 0.08795 0.30512 0.24375 0.0
C1752 C 0.11224 0.31956 0.23895 0.0
H1753 H 0.06099 0.29735 0.26903 0.0
H1754 H 0.07501 0.2912 0.22994 0.0
S1755 S 0.16201 0.36749 0.28184 0.0
N1756 N 0.13767 0.35815 0.29703 0.0
N1757 N 0.15264 0.35122 0.25491 0.0
C1758 C 0.12859 0.33724 0.25737 0.0
C1759 C 0.12048 0.34091 0.2802 0.0
C1760 C 0.65584 0.75503 0.29367 0.0
C1761 C 0.66931 0.7445 0.30121 0.0
C1762 C 0.66257 0.7703 0.27458 0.0
C1763 C 0.68309 0.77581 0.26212 0.0
H1764 H 0.63981 0.75146 0.30252 0.0
H1765 H 0.65161 0.77796 0.26958 0.0
S1766 S 0.72473 0.75324 0.2743 0.0
N1767 N 0.70442 0.74093 0.29454 0.0
N1768 N 0.71694 0.7697 0.25843 0.0
C1769 C 0.69695 0.76574 0.26947 0.0
C1770 C 0.69008 0.75004 0.289 0.0
C1771 C 0.23564 0.89523 0.31943 0.0
C1772 C 0.24222 0.91798 0.33174 0.0
C1773 C 0.22583 0.88902 0.29499 0.0
C1774 C 0.2222 0.90532 0.28187 0.0
H1775 H 0.23856 0.88225 0.32854 0.0
H1776 H 0.2214 0.87146 0.28613 0.0
S1777 S 0.23552 0.9668 0.30571 0.0
N1778 N 0.24347 0.95652 0.32912 0.0
N1779 N 0.22534 0.94488 0.28304 0.0
C1780 C 0.22792 0.92778 0.29412 0.0
C1781 C 0.23786 0.93411 0.31908 0.0
C1782 C 0.65268 0.89611 0.30899 0.0
C1783 C 0.66823 0.9082 0.3302 0.0
C1784 C 0.6604 0.88859 0.28862 0.0
C1785 C 0.68379 0.89221 0.28887 0.0
H1786 H 0.63447 0.89274 0.308 0.0
H1787 H 0.64788 0.88001 0.27244 0.0
S1788 S 0.731 0.92215 0.34089 0.0
N1789 N 0.70791 0.92362 0.35069 0.0
N1790 N 0.72223 0.90818 0.31281 0.0
C1791 C 0.69952 0.90423 0.31018 0.0
C1792 C 0.69177 0.91249 0.33077 0.0
C1793 C 0.07683 0.7763 0.26736 0.0
C1794 C 0.08883 0.77596 0.28918 0.0
C1795 C 0.08977 0.79026 0.24857 0.0
C1796 C 0.1151 0.80457 0.25114 0.0
H1797 H 0.05738 0.76504 0.26441 0.0
H1798 H 0.0799 0.78924 0.23163 0.0
S1799 S 0.15462 0.81288 0.30639 0.0
N1800 N 0.12717 0.79277 0.31331 0.0
N1801 N 0.15145 0.81974 0.27837 0.0
C1802 C 0.12718 0.80537 0.27344 0.0
C1803 C 0.11404 0.79087 0.29238 0.0
C1804 C 0.21286 0.32557 0.31143 0.0
C1805 C 0.23024 0.31911 0.31659 0.0
C1806 C 0.20086 0.32021 0.28798 0.0
C1807 C 0.20595 0.3084 0.26868 0.0
H1808 H 0.20893 0.33544 0.32546 0.0
H1809 H 0.18803 0.32605 0.28473 0.0
S1810 S 0.24982 0.28746 0.27261 0.0
N1811 N 0.25142 0.29957 0.30064 0.0
N1812 N 0.22937 0.29012 0.25638 0.0
C1813 C 0.22268 0.30107 0.27379 0.0
C1814 C 0.2347 0.30627 0.29779 0.0
C1815 C 0.23647 0.32048 0.46453 0.0
C1816 C 0.24943 0.34057 0.45082 0.0
C1817 C 0.22683 0.3228 0.4863 0.0
C1818 C 0.2294 0.34523 0.49504 0.0
H1819 H 0.2339 0.30279 0.45852 0.0
H1820 H 0.21722 0.30683 0.49633 0.0
S1821 S 0.26074 0.40314 0.46508 0.0
N1822 N 0.26417 0.38357 0.44722 0.0
N1823 N 0.2452 0.38779 0.48765 0.0
C1824 C 0.2423 0.3655 0.48143 0.0
C1825 C 0.25249 0.3632 0.45943 0.0
C1826 C 0.66692 0.91719 0.47118 0.0
C1827 C 0.64752 0.9116 0.45423 0.0
C1828 C 0.66432 0.90181 0.48949 0.0
C1829 C 0.64232 0.88 0.49135 0.0
H1830 H 0.68432 0.93359 0.47026 0.0
H1831 H 0.67976 0.90702 0.50222 0.0
S1832 S 0.58616 0.85668 0.45089 0.0
N1833 N 0.60553 0.88287 0.44039 0.0
N1834 N 0.60084 0.85341 0.47433 0.0
C1835 C 0.62268 0.87428 0.47463 0.0
C1836 C 0.62524 0.89019 0.45617 0.0
C1837 C 0.1065 0.75327 0.4198 0.0
C1838 C 0.08987 0.76096 0.41618 0.0
C1839 C 0.11896 0.75751 0.44285 0.0
C1840 C 0.11489 0.76925 0.46306 0.0
H1841 H 0.11017 0.74427 0.40464 0.0
H1842 H 0.13203 0.7518 0.44479 0.0
S1843 S 0.07057 0.78974 0.46367 0.0
N1844 N 0.06866 0.7792 0.43486 0.0
N1845 N 0.09118 0.78621 0.47838 0.0
C1846 C 0.09761 0.77619 0.45976 0.0
C1847 C 0.08532 0.77229 0.43626 0.0
C1848 C 0.3379 0.09255 0.74929 0.0
C1849 C 0.32268 0.06757 0.74158 0.0
C1850 C 0.33366 0.10325 0.77006 0.0
C1851 C 0.31405 0.08938 0.78394 0.0
H1852 H 0.35352 0.10391 0.73948 0.0
H1853 H 0.3461 0.12245 0.77559 0.0
S1854 S 0.26855 0.02337 0.77145 0.0
N1855 N 0.28676 0.02937 0.74916 0.0
N1856 N 0.27909 0.04948 0.78848 0.0
C1857 C 0.29828 0.06456 0.7761 0.0
C1858 C 0.30253 0.05365 0.75486 0.0
C1859 C 0.92815 0.21893 0.79527 0.0
C1860 C 0.91265 0.21138 0.77366 0.0
C1861 C 0.92083 0.20579 0.81606 0.0
C1862 C 0.89813 0.18437 0.81555 0.0
H1863 H 0.94527 0.23602 0.79676 0.0
H1864 H 0.93245 0.21302 0.83296 0.0
S1865 S 0.85215 0.15527 0.76269 0.0
N1866 N 0.87441 0.18004 0.75244 0.0
N1867 N 0.86105 0.15505 0.79136 0.0
C1868 C 0.88326 0.17565 0.79356 0.0
C1869 C 0.89044 0.18924 0.7726 0.0
C1870 C 0.78508 0.65796 0.75954 0.0
C1871 C 0.77591 0.67221 0.7509 0.0
C1872 C 0.7959 0.66252 0.78343 0.0
C1873 C 0.79823 0.68165 0.79954 0.0
H1874 H 0.78304 0.64246 0.74817 0.0
H1875 H 0.80181 0.65049 0.78963 0.0
S1876 S 0.77949 0.72586 0.78564 0.0
N1877 N 0.77167 0.70757 0.76007 0.0
N1878 N 0.79207 0.71596 0.80504 0.0
C1879 C 0.79051 0.69696 0.79085 0.0
C1880 C 0.77933 0.69228 0.76651 0.0
C1881 C 0.7396 0.63592 0.59964 0.0
C1882 C 0.75436 0.65627 0.61658 0.0
C1883 C 0.74799 0.63237 0.57745 0.0
C1884 C 0.77143 0.64904 0.5714 0.0
H1885 H 0.72134 0.62269 0.60343 0.0
H1886 H 0.73597 0.61659 0.56483 0.0
S1887 S 0.81789 0.70423 0.61012 0.0
N1888 N 0.79397 0.69276 0.62615 0.0
N1889 N 0.80979 0.68578 0.58465 0.0
C1890 C 0.78652 0.66921 0.58832 0.0
C1891 C 0.77797 0.67291 0.61085 0.0
C1892 C 0.34765 0.07316 0.59533 0.0
C1893 C 0.35612 0.08199 0.61993 0.0
C1894 C 0.35329 0.08925 0.577 0.0
C1895 C 0.36722 0.11474 0.58277 0.0
H1896 H 0.33569 0.05375 0.59041 0.0
H1897 H 0.34582 0.08171 0.55833 0.0
S1898 S 0.39416 0.1467 0.64472 0.0
N1899 N 0.37984 0.11738 0.64922 0.0
N1900 N 0.39005 0.14789 0.61493 0.0
C1901 C 0.37669 0.12369 0.60725 0.0
C1902 C 0.37113 0.10722 0.62584 0.0
C1903 C 0.90681 0.22454 0.63558 0.0
C1904 C 0.91247 0.24686 0.64823 0.0
C1905 C 0.897 0.2184 0.61112 0.0
C1906 C 0.8926 0.23439 0.59833 0.0
H1907 H 0.91011 0.21175 0.64456 0.0
H1908 H 0.89296 0.20103 0.6021 0.0
S1909 S 0.90462 0.29524 0.62284 0.0
N1910 N 0.91284 0.285 0.64607 0.0
N1911 N 0.8949 0.27359 0.59995 0.0
C1912 C 0.89791 0.25663 0.6108 0.0
C1913 C 0.90774 0.26284 0.63577 0.0
C1914 C 0.32443 0.23688 0.62984 0.0
C1915 C 0.34026 0.25004 0.65062 0.0
C1916 C 0.3321 0.22898 0.60967 0.0
C1917 C 0.35576 0.23332 0.60974 0.0
H1918 H 0.30599 0.23285 0.62904 0.0
H1919 H 0.31931 0.2194 0.59385 0.0
S1920 S 0.40387 0.26625 0.66053 0.0
N1921 N 0.38056 0.26723 0.67041 0.0
N1922 N 0.39482 0.25127 0.6329 0.0
C1923 C 0.37181 0.24652 0.63053 0.0
C1924 C 0.36409 0.2551 0.6509 0.0
C1925 C 0.74409 0.10322 0.58435 0.0
C1926 C 0.75609 0.10235 0.60589 0.0
C1927 C 0.75704 0.1175 0.56572 0.0
C1928 C 0.78239 0.13168 0.56821 0.0
H1929 H 0.72461 0.09228 0.58156 0.0
H1930 H 0.74713 0.11699 0.54904 0.0
S1931 S 0.82198 0.13832 0.62275 0.0
N1932 N 0.7945 0.11824 0.6296 0.0
N1933 N 0.81879 0.14586 0.59507 0.0
C1934 C 0.79449 0.13176 0.59019 0.0
C1935 C 0.78134 0.1169 0.60892 0.0
C1936 C 0.89634 0.64087 0.62808 0.0
C1937 C 0.89229 0.65406 0.64687 0.0
C1938 C 0.88477 0.63591 0.6044 0.0
C1939 C 0.86858 0.64379 0.59871 0.0
H1940 H 0.90941 0.63534 0.63131 0.0
H1941 H 0.88936 0.62679 0.5902 0.0
S1942 S 0.8486 0.67519 0.64246 0.0
N1943 N 0.86892 0.67247 0.6589 0.0
N1944 N 0.84681 0.66267 0.61458 0.0
C1945 C 0.86321 0.6556 0.61774 0.0
C1946 C 0.87514 0.66084 0.64176 0.0
C1947 C 0.90268 0.65267 0.79652 0.0
C1948 C 0.91375 0.67208 0.78161 0.0
C1949 C 0.8941 0.65549 0.81884 0.0
C1950 C 0.89579 0.67769 0.82689 0.0
H1951 H 0.90079 0.63518 0.79099 0.0
H1952 H 0.88591 0.64005 0.8298 0.0
S1953 S 0.92226 0.73374 0.79367 0.0
N1954 N 0.92595 0.71417 0.77613 0.0
N1955 N 0.90873 0.71922 0.81752 0.0
C1956 C 0.90686 0.69728 0.81205 0.0
C1957 C 0.91606 0.69451 0.78954 0.0
C1958 C 0.30657 0.24 0.79095 0.0
C1959 C 0.32033 0.24219 0.77096 0.0
C1960 C 0.3031 0.2235 0.80843 0.0
C1961 C 0.31295 0.20834 0.80626 0.0
H1962 H 0.29899 0.25159 0.79349 0.0
H1963 H 0.29312 0.22304 0.82404 0.0
S1964 S 0.34742 0.20467 0.75516 0.0
N1965 N 0.34221 0.22657 0.74882 0.0
N1966 N 0.33489 0.19488 0.78105 0.0
C1967 C 0.32583 0.20964 0.78568 0.0
C1968 C 0.32971 0.22672 0.76818 0.0
C1969 C 0.75887 0.10738 0.75288 0.0
C1970 C 0.76233 0.09417 0.73373 0.0
C1971 C 0.77019 0.11131 0.77639 0.0
C1972 C 0.78589 0.10268 0.78158 0.0
H1973 H 0.7467 0.11408 0.74988 0.0
H1974 H 0.76614 0.12078 0.79075 0.0
S1975 S 0.80284 0.0692 0.7368 0.0
N1976 N 0.78322 0.07336 0.72087 0.0
N1977 N 0.80562 0.08185 0.76489 0.0
C1978 C 0.79008 0.09007 0.7623 0.0
C1979 C 0.77807 0.08558 0.73841 0.0
C1980 C 0.07732 0.35105 0.05501 0.0
C1981 C 0.05377 0.34143 0.06232 0.0
C1982 C 0.09356 0.34576 0.06677 0.0
C1983 C 0.08689 0.33068 0.08628 0.0
H1984 H 0.08332 0.36285 0.04018 0.0
H1985 H 0.1115 0.35351 0.0605 0.0
S1986 S 0.02774 0.30154 0.1131 0.0
N1987 N 0.02475 0.31621 0.09066 0.0
N1988 N 0.05545 0.30675 0.11283 0.0
C1989 C 0.06344 0.32091 0.09375 0.0
C1990 C 0.04686 0.32619 0.08177 0.0
C1991 C 0.62547 0.694 0.1215 0.0
C1992 C 0.63655 0.68585 0.10505 0.0
C1993 C 0.63805 0.71773 0.13315 0.0
C1994 C 0.66205 0.73433 0.12849 0.0
H1995 H 0.60676 0.68215 0.12497 0.0
H1996 H 0.62861 0.72342 0.14525 0.0
S1997 S 0.69959 0.72165 0.08777 0.0
N1998 N 0.67338 0.69575 0.08572 0.0
N1999 N 0.69674 0.74069 0.10708 0.0
C2000 C 0.67371 0.72609 0.11296 0.0
C2001 C 0.661 0.70177 0.10133 0.0
C2002 C 0.30479 0.91617 0.04469 0.0
C2003 C 0.32375 0.94034 0.05072 0.0
C2004 C 0.28335 0.90668 0.05648 0.0
C2005 C 0.28024 0.92099 0.07485 0.0
H2006 H 0.30639 0.90458 0.03056 0.0
H2007 H 0.26911 0.888 0.0512 0.0
S2008 S 0.32528 0.9847 0.09887 0.0
N2009 N 0.33845 0.97807 0.07701 0.0
N2010 N 0.29843 0.95999 0.09954 0.0
C2011 C 0.29919 0.94507 0.08128 0.0
C2012 C 0.32089 0.9548 0.06915 0.0
C2013 C 0.3431 0.04631 0.00797 0.0
C2014 C 0.3667 0.05292 0.00299 0.0
C2015 C 0.33271 0.05941 -0.00041 0.0
C2016 C 0.34539 0.07927 0.98545 0.0
H2017 H 0.33244 0.03063 0.0181 0.0
H2018 H 0.31441 0.0536 0.00373 0.0
S2019 S 0.40747 0.10283 0.96637 0.0
N2020 N 0.40253 0.08035 0.98323 0.0
N2021 N 0.38273 0.10426 0.9662 0.0
C2022 C 0.36919 0.08614 0.98057 0.0
C2023 C 0.37992 0.07313 0.98965 0.0
C2024 C 0.94654 0.27626 0.98067 0.0
C2025 C 0.93595 0.28308 -0.00087 0.0
C2026 C 0.93386 0.25302 0.96771 0.0
C2027 C 0.91031 0.23589 0.97299 0.0
H2028 H 0.96433 0.2893 0.97548 0.0
H2029 H 0.94207 0.24881 0.9528 0.0
S2030 S 0.87618 0.24309 0.02238 0.0
N2031 N 0.90163 0.26974 0.02387 0.0
N2032 N 0.87806 0.226 -0.00022 0.0
C2033 C 0.90019 0.24189 0.99246 0.0
C2034 C 0.91293 0.26552 0.00546 0.0
C2035 C 0.69589 0.62249 0.01427 0.0
C2036 C 0.69315 0.63807 0.0312 0.0
C2037 C 0.71707 0.63097 0.00223 0.0
C2038 C 0.73649 0.65523 0.00705 0.0
H2039 H 0.68116 0.60393 0.00944 0.0
H2040 H 0.71788 0.61859 0.98844 0.0
S2041 S 0.73927 0.7022 0.05253 0.0
N2042 N 0.71197 0.67823 0.05365 0.0
N2043 N 0.75234 0.6939 0.03195 0.0
C2044 C 0.73434 0.67062 0.02492 0.0
C2045 C 0.71255 0.66209 0.03679 0.0
C2046 C 0.94653 0.6576 0.0026 0.0
C2047 C 0.93221 0.63688 0.01523 0.0
C2048 C 0.93608 0.66725 0.98744 0.0
C2049 C 0.91095 0.65643 0.98427 0.0
H2050 H 0.96598 0.66616 0.00397 0.0
H2051 H 0.94767 0.6829 0.97769 0.0
S2052 S 0.86547 0.60401 0.01531 0.0
N2053 N 0.89152 0.60728 0.025 0.0
N2054 N 0.87206 0.62547 0.99649 0.0
C2055 C 0.89646 0.63637 -0.00256 0.0
C2056 C 0.90703 0.62658 0.01291 0.0
C2057 C 0.32878 0.29043 0.94639 0.0
C2058 C 0.34875 0.30188 0.96401 0.0
C2059 C 0.31968 0.26637 0.93632 0.0
C2060 C 0.33033 0.25309 0.94349 0.0
H2061 H 0.32035 0.30022 0.93997 0.0
H2062 H 0.30469 0.25836 0.92237 0.0
S2063 S 0.38111 0.2734 0.99066 0.0
N2064 N 0.37765 0.29718 0.98941 0.0
N2065 N 0.36043 0.25202 0.97042 0.0
C2066 C 0.34966 0.26389 0.96165 0.0
C2067 C 0.35892 0.2883 0.97193 0.0
C2068 C 0.70355 0.07943 0.01742 0.0
C2069 C 0.68988 0.05471 0.02208 0.0
C2070 C 0.72292 0.08764 0.00258 0.0
C2071 C 0.72945 0.0715 0.99192 0.0
H2072 H 0.69893 0.09249 0.02476 0.0
H2073 H 0.7327 0.10675 -0.00084 0.0
S2074 S 0.70039 0.00525 -0.00092 0.0
N2075 N 0.6851 0.01432 0.01556 0.0
N2076 N 0.72126 0.02988 0.9874 0.0
C2077 C 0.7165 0.04693 -0.00302 0.0
C2078 C 0.69677 0.03851 0.0121 0.0
C2079 C 0.6321 0.9264 0.08704 0.0
C2080 C 0.64499 0.9455 0.07229 0.0
C2081 C 0.64257 0.91399 0.09706 0.0
C2082 C 0.66612 0.91983 0.0922 0.0
H2083 H 0.6143 0.92186 0.09191 0.0
H2084 H 0.63239 0.90032 0.10946 0.0
S2085 S 0.70582 0.96635 0.05154 0.0
N2086 N 0.68159 0.96872 0.05172 0.0
N2087 N 0.70083 0.9444 0.06924 0.0
C2088 C 0.67861 0.93809 0.07628 0.0
C2089 C 0.66814 0.95113 0.06661 0.0
C2090 C 0.04491 0.71916 0.09981 0.0
C2091 C 0.05167 0.70567 0.08424 0.0
C2092 C 0.06202 0.74241 0.11086 0.0
C2093 C 0.08652 0.75289 0.10694 0.0
H2094 H 0.02626 0.71164 0.10372 0.0
H2095 H 0.05613 0.75204 0.12296 0.0
S2096 S 0.11363 0.72632 0.06663 0.0
N2097 N 0.08464 0.70531 0.0646 0.0
N2098 N 0.11672 0.74902 0.08552 0.0
C2099 C 0.09353 0.73999 0.09105 0.0
C2100 C 0.07613 0.71638 0.07964 0.0
C2101 C 0.30357 0.35076 0.04021 0.0
C2102 C 0.3132 0.37512 0.0345 0.0
C2103 C 0.2839 0.33959 0.05451 0.0
C2104 C 0.2731 0.35234 0.06365 0.0
H2105 H 0.31168 0.34033 0.03421 0.0
H2106 H 0.27761 0.32113 0.05911 0.0
S2107 S 0.28913 0.4152 0.05161 0.0
N2108 N 0.30892 0.41085 0.03752 0.0
N2109 N 0.2717 0.38964 0.06422 0.0
C2110 C 0.28172 0.37625 0.05723 0.0
C2111 C 0.30181 0.38769 0.04269 0.0
C2112 C 0.73083 0.68947 0.41214 0.0
C2113 C 0.7124 0.67282 0.39463 0.0
C2114 C 0.74555 0.68293 0.42493 0.0
C2115 C 0.74285 0.6597 0.42025 0.0
H2116 H 0.73351 0.70749 0.41646 0.0
H2117 H 0.75911 0.69625 0.43872 0.0
S2118 S 0.6981 0.61019 0.37448 0.0
N2119 N 0.69227 0.63239 0.37273 0.0
N2120 N 0.72092 0.62049 0.39556 0.0
C2121 C 0.72463 0.64302 0.40236 0.0
C2122 C 0.70921 0.64951 0.38982 0.0
C2123 C 0.32677 0.03293 0.43825 0.0
C2124 C 0.3036 0.01673 0.44551 0.0
C2125 C 0.33925 0.05775 0.4468 0.0
C2126 C 0.32906 0.06713 0.46303 0.0
H2127 H 0.33482 0.02671 0.42486 0.0
H2128 H 0.35638 0.06987 0.43963 0.0
S2129 S 0.27116 0.0316 0.4913 0.0
N2130 N 0.27244 0.01129 0.47234 0.0
N2131 N 0.29617 0.05788 0.48879 0.0
C2132 C 0.30681 0.05081 0.47192 0.0
C2133 C 0.294 0.02562 0.46305 0.0
C2134 C 0.9745 0.25196 0.36711 0.0
C2135 C 0.9935 0.27508 0.37669 0.0
C2136 C 0.95168 0.2418 0.37615 0.0
C2137 C 0.94717 0.25428 0.3953 0.0
H2138 H 0.97721 0.24174 0.35237 0.0
H2139 H 0.9375 0.22396 0.3682 0.0
S2140 S 0.99158 0.31454 0.42798 0.0
N2141 N 0.00666 0.30988 0.40681 0.0
N2142 N 0.96404 0.29038 0.42447 0.0
C2143 C 0.96614 0.27734 0.40519 0.0
C2144 C 0.98924 0.28782 0.39573 0.0
C2145 C 0.02556 0.38984 0.34427 0.0
C2146 C 0.04801 0.39394 0.3377 0.0
C2147 C 0.01746 0.40548 0.33792 0.0
C2148 C 0.0313 0.42545 0.3243 0.0
H2149 H 0.01406 0.37425 0.35414 0.0
H2150 H -5e-05 0.40156 0.34321 0.0
S2151 S 0.09096 0.44302 0.30161 0.0
N2152 N 0.08401 0.41911 0.31702 0.0
N2153 N 0.06834 0.44785 0.30378 0.0
C2154 C 0.05396 0.4298 0.31783 0.0
C2155 C 0.06242 0.41418 0.32484 0.0
C2156 C 0.60671 0.61232 0.30829 0.0
C2157 C 0.59508 0.62066 0.32387 0.0
C2158 C 0.59393 0.58909 0.2953 0.0
C2159 C 0.5692 0.57349 0.29762 0.0
H2160 H 0.62564 0.62405 0.30561 0.0
H2161 H 0.60328 0.58356 0.2829 0.0
S2162 S 0.53128 0.58504 0.33888 0.0
N2163 N 0.55795 0.61043 0.34267 0.0
N2164 N 0.53417 0.56673 0.3186 0.0
C2165 C 0.55767 0.58112 0.31403 0.0
C2166 C 0.57055 0.60474 0.32706 0.0
C2167 C 0.37003 0.98768 0.35834 0.0
C2168 C 0.35742 0.96473 0.36785 0.0
C2169 C 0.38993 0.99401 0.34467 0.0
C2170 C 0.39791 0.97759 0.33988 0.0
H2171 H 0.36414 0.0007 0.36088 0.0
H2172 H 0.39856 0.01152 0.337 0.0
S2173 S 0.3731 0.9164 0.36273 0.0
N2174 N 0.3557 0.92631 0.37305 0.0
N2175 N 0.39321 0.93835 0.34734 0.0
C2176 C 0.38624 0.95506 0.35014 0.0
C2177 C 0.366 0.94861 0.36417 0.0
C2178 C 0.57956 0.93821 0.32382 0.0
C2179 C 0.59449 0.95287 0.34463 0.0
C2180 C 0.568 0.94651 0.30843 0.0
C2181 C 0.57054 0.9696 0.31354 0.0
H2182 H 0.57692 0.92024 0.31926 0.0
H2183 H 0.55676 0.9346 0.29251 0.0
S2184 S 0.60696 0.01447 0.36663 0.0
N2185 N 0.61135 0.99146 0.36973 0.0
N2186 N 0.58866 0.00668 0.34152 0.0
C2187 C 0.58553 0.98447 0.33435 0.0
C2188 C 0.59771 0.97618 0.34974 0.0
C2189 C 0.01489 0.64304 0.28374 0.0
C2190 C 0.0259 0.65099 0.30787 0.0
C2191 C 0.00752 0.61954 0.27324 0.0
C2192 C 0.01055 0.60319 0.28674 0.0
H2193 H 0.01232 0.6552 0.27271 0.0
H2194 H -0.00037 0.61417 0.25443 0.0
S2195 S 0.03723 0.61429 0.35068 0.0
N2196 N 0.03884 0.64018 0.34507 0.0
N2197 N 0.02456 0.59584 0.32525 0.0
C2198 C 0.02104 0.61059 0.31092 0.0
C2199 C 0.02885 0.63458 0.32153 0.0
C2200 C 0.36108 0.41389 0.34351 0.0
C2201 C 0.34896 0.38999 0.3508 0.0
C2202 C 0.38138 0.42217 0.32996 0.0
C2203 C 0.39038 0.40691 0.32323 0.0
H2204 H 0.35461 0.42619 0.34786 0.0
H2205 H 0.38997 0.44062 0.32448 0.0
S2206 S 0.3658 0.34297 0.33812 0.0
N2207 N 0.34815 0.35137 0.35082 0.0
N2208 N 0.3859 0.36695 0.32498 0.0
C2209 C 0.37885 0.38321 0.33085 0.0
C2210 C 0.35825 0.37475 0.3447 0.0
C2211 C 0.30423 0.26253 0.39712 0.0
C2212 C 0.31355 0.28669 0.40729 0.0
C2213 C 0.3148 0.24906 0.40384 0.0
C2214 C 0.3351 0.2593 0.42087 0.0
H2215 H 0.2885 0.25383 0.38407 0.0
H2216 H 0.30679 0.23035 0.39598 0.0
S2217 S 0.36618 0.32152 0.45332 0.0
N2218 N 0.34436 0.32024 0.43541 0.0
N2219 N 0.36388 0.2947 0.44814 0.0
C2220 C 0.3448 0.28348 0.43094 0.0
C2221 C 0.3341 0.29723 0.42413 0.0
C2222 C 0.73546 0.04257 0.4105 0.0
C2223 C 0.71136 0.03283 0.41603 0.0
C2224 C 0.7532 0.06655 0.41878 0.0
C2225 C 0.74755 0.0818 0.43285 0.0
H2226 H 0.74084 0.0315 0.39996 0.0
H2227 H 0.77157 0.07319 0.41425 0.0
S2228 S 0.68723 0.06564 0.45195 0.0
N2229 N 0.68269 0.04069 0.43604 0.0
N2230 N 0.71628 0.08584 0.45171 0.0
C2231 C 0.72351 0.07262 0.43809 0.0
C2232 C 0.70536 0.0481 0.42969 0.0
C2233 C 0.97072 0.72396 0.39274 0.0
C2234 C 0.97508 0.71303 0.37218 0.0
C2235 C 0.94984 0.71091 0.40497 0.0
C2236 C 0.93223 0.68657 0.39677 0.0
H2237 H 0.98393 0.74249 0.39998 0.0
H2238 H 0.94773 0.7199 0.42126 0.0
S2239 S 0.93443 0.65042 0.34235 0.0
N2240 N 0.96005 0.67688 0.34352 0.0
N2241 N 0.92004 0.65262 0.36575 0.0
C2242 C 0.93615 0.67563 0.37579 0.0
C2243 C 0.95773 0.68881 0.36364 0.0
C2244 C 0.38626 0.00383 0.74528 0.0
C2245 C 0.39436 0.01877 0.72567 0.0
C2246 C 0.40193 -0.00045 0.75961 0.0
C2247 C 0.42626 0.01009 0.75487 0.0
H2248 H 0.36774 0.99561 0.7499 0.0
H2249 H 0.39506 0.9883 0.77478 0.0
S2250 S 0.45603 0.04854 0.7043 0.0
N2251 N 0.42809 0.04285 0.7014 0.0
N2252 N 0.45741 0.03454 0.7282 0.0
C2253 C 0.43448 0.02448 0.73494 0.0
C2254 C 0.41856 0.0289 0.72038 0.0
C2255 C 0.97574 0.35434 0.76589 0.0
C2256 C 0.95236 0.3352 0.76939 0.0
C2257 C 0.98495 0.37777 0.77767 0.0
C2258 C 0.97119 0.38283 0.79356 0.0
H2259 H 0.98664 0.35154 0.75307 0.0
H2260 H 0.00249 0.39226 0.77337 0.0
S2261 S 0.91071 0.33808 0.8123 0.0
N2262 N 0.91675 0.32218 0.79199 0.0
N2263 N 0.93436 0.36613 0.8147 0.0
C2264 C 0.94846 0.36347 0.79853 0.0
C2265 C 0.93896 0.33968 0.7863 0.0
C2266 C 0.63865 0.60427 0.70509 0.0
C2267 C 0.65647 0.59907 0.71248 0.0
C2268 C 0.61703 0.59467 0.71649 0.0
C2269 C 0.61266 0.57991 0.73602 0.0
H2270 H 0.64148 0.61591 0.69039 0.0
H2271 H 0.60369 0.59893 0.71001 0.0
S2272 S 0.65473 0.56274 0.76354 0.0
N2273 N 0.66886 0.57893 0.74079 0.0
N2274 N 0.62875 0.56178 0.76316 0.0
C2275 C 0.63055 0.5748 0.74373 0.0
C2276 C 0.65232 0.58416 0.73172 0.0
C2277 C 0.67498 0.70891 0.67858 0.0
C2278 C 0.69799 0.7153 0.67153 0.0
C2279 C 0.66479 0.72302 0.67309 0.0
C2280 C 0.67708 0.74371 0.65994 0.0
H2281 H 0.66474 0.69282 0.6883 0.0
H2282 H 0.64702 0.71747 0.67887 0.0
S2283 S 0.73709 0.76665 0.63555 0.0
N2284 N 0.73257 0.74307 0.65037 0.0
N2285 N 0.71303 0.7689 0.63874 0.0
C2286 C 0.70012 0.75012 0.65267 0.0
C2287 C 0.71067 0.73608 0.65879 0.0
C2288 C 0.28897 0.93971 0.65278 0.0
C2289 C 0.28478 0.95639 0.64103 0.0
C2290 C 0.27519 0.91456 0.64545 0.0
C2291 C 0.25713 0.90558 0.62602 0.0
H2292 H 0.30179 0.9459 0.66874 0.0
H2293 H 0.27759 0.90202 0.65599 0.0
S2294 S 0.24256 0.94206 0.5863 0.0
N2295 N 0.26367 0.96244 0.60695 0.0
N2296 N 0.23815 0.91528 0.59297 0.0
C2297 C 0.25436 0.92226 0.61278 0.0
C2298 C 0.2681 0.94769 0.62036 0.0
C2299 C 0.03523 0.32333 0.68216 0.0
C2300 C 0.02764 0.30518 0.69873 0.0
C2301 C 0.05758 0.33275 0.67226 0.0
C2302 C 0.07332 0.32457 0.6787 0.0
H2303 H 0.02346 0.3297 0.67601 0.0
H2304 H 0.06207 0.34577 0.65863 0.0
S2305 S 0.06356 0.27997 0.72404 0.0
N2306 N 0.03857 0.28101 0.72287 0.0
N2307 N 0.08094 0.29923 0.7047 0.0
C2308 C 0.06656 0.30743 0.69629 0.0
C2309 C 0.04364 0.29762 0.7062 0.0
C2310 C 0.24441 0.28629 0.6681 0.0
C2311 C 0.2696 0.29863 0.67301 0.0
C2312 C 0.23349 0.29617 0.65409 0.0
C2313 C 0.24729 0.31875 0.6443 0.0
H2314 H 0.23291 0.26884 0.6752 0.0
H2315 H 0.214 0.28615 0.65116 0.0
S2316 S 0.31388 0.35824 0.65099 0.0
N2317 N 0.30812 0.33472 0.66657 0.0
N2318 N 0.2874 0.35305 0.63997 0.0
C2319 C 0.27246 0.33136 0.64898 0.0
C2320 C 0.28365 0.32135 0.66336 0.0
C2321 C 0.69913 0.96625 0.64083 0.0
C2322 C 0.6867 0.9779 0.63365 0.0
C2323 C 0.69027 0.94166 0.63332 0.0
C2324 C 0.66857 0.92771 0.61846 0.0
H2325 H 0.71592 0.97619 0.6523 0.0
H2326 H 0.70045 0.93343 0.63928 0.0
S2327 S 0.62909 0.94926 0.59434 0.0
N2328 N 0.65141 0.97343 0.61065 0.0
N2329 N 0.6349 0.9271 0.59655 0.0
C2330 C 0.65582 0.93895 0.61122 0.0
C2331 C 0.66488 0.96408 0.61877 0.0
C2332 C 0.01997 0.70716 0.67399 0.0
C2333 C 0.01318 0.72311 0.68478 0.0
C2334 C 0.04157 0.71605 0.6627 0.0
C2335 C 0.05731 0.74123 0.66179 0.0
H2336 H 0.00829 0.68754 0.67377 0.0
H2337 H 0.04563 0.70305 0.65397 0.0
S2338 S 0.04942 0.79088 0.68937 0.0
N2339 N 0.02484 0.76547 0.69516 0.0
N2340 N 0.0657 0.78216 0.67419 0.0
C2341 C 0.05123 0.75746 0.67318 0.0
C2342 C 0.02912 0.74841 0.6846 0.0
C2343 C 0.95443 0.58564 0.72825 0.0
C2344 C 0.96815 0.61092 0.73525 0.0
C2345 C 0.96137 0.56973 0.73685 0.0
C2346 C 0.98237 0.57853 0.75259 0.0
H2347 H 0.93785 0.57795 0.71655 0.0
H2348 H 0.94993 0.55031 0.73161 0.0
S2349 S 0.02487 0.643 0.77622 0.0
N2350 N 0.00419 0.64401 0.75855 0.0
N2351 N 0.01692 0.61395 0.77478 0.0
C2352 C 0.99664 0.60377 0.75919 0.0
C2353 C 0.9896 0.62 0.7505 0.0
C2354 C 0.38033 0.37696 0.77215 0.0
C2355 C 0.38345 0.36884 0.74883 0.0
C2356 C 0.39636 0.40079 0.78267 0.0
C2357 C 0.41567 0.41734 0.76997 0.0
H2358 H 0.36568 0.36469 0.78258 0.0
H2359 H 0.39376 0.40629 0.80087 0.0
S2360 S 0.43136 0.40583 0.70824 0.0
N2361 N 0.40722 0.37965 0.71324 0.0
N2362 N 0.437 0.4246 0.73299 0.0
C2363 C 0.41879 0.40974 0.74656 0.0
C2364 C 0.40276 0.38541 0.73598 0.0
C2365 C 0.6387 0.02936 0.70473 0.0
C2366 C 0.64813 0.05291 0.69671 0.0
C2367 C 0.61922 0.01957 0.71942 0.0
C2368 C 0.60844 0.03295 0.72669 0.0
H2369 H 0.64688 0.01861 0.70033 0.0
H2370 H 0.61315 0.00179 0.72593 0.0
S2371 S 0.62384 0.09383 0.70815 0.0
N2372 N 0.64349 0.08833 0.69538 0.0
N2373 N 0.60674 0.06972 0.72293 0.0
C2374 C 0.61676 0.05591 0.71783 0.0
C2375 C 0.6366 0.06593 0.70284 0.0
loop_
_geom_bond_atom_site_label_1
_geom_bond_atom_site_label_2
_geom_bond_distance
_geom_bond_site_symmetry_2
_ccdc_geom_bond_type
C0 O1 1.306 . S
C0 O3 1.160 . S
O1 C0 1.306 . S
O1 Cd2 2.228 . S
Cd2 O1 2.228 . S
Cd2 O6 2.273 . S
Cd2 O10 2.277 . S
O3 C0 1.160 . S
O3 Cd4 2.203 1_655 S
Cd4 O3 2.203 1_455 S
Cd4 O6 2.411 1_455 S
Cd4 O7 2.333 . S
Cd4 O8 2.352 . S
Cd4 O12 2.277 1_554 S
Cd4 O13 2.356 . S
C5 O10 1.209 1_456 S
C5 O12 1.226 . S
O6 Cd2 2.273 . S
O6 Cd4 2.411 1_655 S
O6 C9 1.320 1_655 S
O7 Cd4 2.333 . S
O7 C9 1.214 . S
O8 Cd4 2.352 . S
O8 C11 1.258 . S
C9 O6 1.320 1_455 S
C9 O7 1.214 . S
O10 Cd2 2.277 . S
O10 C5 1.209 1_654 S
C11 O8 1.258 . S
C11 O13 1.282 . S
O12 Cd4 2.277 1_556 S
O12 C5 1.226 . S
O13 Cd4 2.356 . S
O13 C11 1.282 . S
C14 O15 1.306 . S
C14 O17 1.160 . S
O15 C14 1.306 . S
O15 Cd16 2.228 . S
Cd16 O15 2.228 . S
Cd16 O20 2.273 . S
Cd16 O24 2.277 . S
O17 C14 1.160 . S
O17 Cd18 2.203 . S
Cd18 O17 2.203 . S
Cd18 O20 2.411 . S
Cd18 O21 2.333 . S
Cd18 O22 2.352 . S
Cd18 O26 2.277 . S
Cd18 O27 2.356 . S
C19 O24 1.209 . S
C19 O26 1.226 . S
O20 Cd16 2.273 . S
O20 Cd18 2.411 . S
O20 C23 1.320 . S
O21 Cd18 2.333 . S
O21 C23 1.214 . S
O22 Cd18 2.352 . S
O22 C25 1.258 . S
C23 O20 1.320 . S
C23 O21 1.214 . S
O24 Cd16 2.277 . S
O24 C19 1.209 . S
C25 O22 1.258 . S
C25 O27 1.282 . S
O26 Cd18 2.277 . S
O26 C19 1.226 . S
O27 Cd18 2.356 . S
O27 C25 1.282 . S
C28 O29 1.306 . S
C28 O31 1.160 . S
O29 C28 1.306 . S
O29 Cd30 2.228 . S
Cd30 O29 2.228 . S
Cd30 O34 2.273 . S
Cd30 O38 2.277 . S
O31 C28 1.160 . S
O31 Cd32 2.203 1_565 S
Cd32 O31 2.203 1_545 S
Cd32 O34 2.411 1_545 S
Cd32 O35 2.329 1_554 S
Cd32 O36 2.325 1_554 S
Cd32 O40 2.277 . S
Cd32 O41 2.356 . S
C33 O38 1.209 1_545 S
C33 O40 1.226 . S
O34 Cd30 2.273 . S
O34 Cd32 2.411 1_565 S
O34 C37 1.320 1_554 S
O35 Cd32 2.329 1_556 S
O35 C37 1.215 1_545 S
O36 Cd32 2.325 1_556 S
O36 C39 1.252 1_556 S
C37 O34 1.320 1_556 S
C37 O35 1.215 1_565 S
O38 Cd30 2.277 . S
O38 C33 1.209 1_565 S
C39 O36 1.252 1_554 S
C39 O41 1.282 . S
O40 Cd32 2.277 . S
O40 C33 1.226 . S
O41 Cd32 2.356 . S
O41 C39 1.282 . S
C42 O43 1.306 . S
C42 O45 1.160 . S
O43 C42 1.306 . S
O43 Cd44 2.228 . S
Cd44 O43 2.228 . S
Cd44 O48 2.273 . S
Cd44 O52 2.277 . S
O45 C42 1.160 . S
O45 Cd46 2.203 1_655 S
Cd46 O45 2.203 1_455 S
Cd46 O48 2.411 1_455 S
Cd46 O49 2.333 . S
Cd46 O50 2.352 . S
Cd46 O54 2.277 . S
Cd46 O55 2.356 . S
C47 O52 1.209 1_455 S
C47 O54 1.226 . S
O48 Cd44 2.273 . S
O48 Cd46 2.411 1_655 S
O48 C51 1.320 . S
O49 Cd46 2.333 . S
O49 C51 1.214 1_455 S
O50 Cd46 2.352 . S
O50 C53 1.258 . S
C51 O48 1.320 . S
C51 O49 1.214 1_655 S
O52 Cd44 2.277 . S
O52 C47 1.209 1_655 S
C53 O50 1.258 . S
C53 O55 1.282 . S
O54 Cd46 2.277 . S
O54 C47 1.226 . S
O55 Cd46 2.356 . S
O55 C53 1.282 . S
C56 O57 1.306 . S
C56 O59 1.160 . S
O57 C56 1.306 . S
O57 Cd58 2.228 . S
Cd58 O57 2.228 . S
Cd58 O62 2.273 1_554 S
Cd58 O66 2.277 . S
O59 C56 1.160 . S
O59 Cd60 2.203 . S
Cd60 O59 2.203 . S
Cd60 O62 2.411 1_554 S
Cd60 O63 2.333 1_554 S
Cd60 O64 2.352 1_554 S
Cd60 O68 2.277 . S
Cd60 O69 2.356 1_554 S
C61 O66 1.209 . S
C61 O68 1.226 . S
O62 Cd58 2.273 1_556 S
O62 Cd60 2.411 1_556 S
O62 C65 1.320 . S
O63 Cd60 2.333 1_556 S
O63 C65 1.214 . S
O64 Cd60 2.352 1_556 S
O64 C67 1.258 . S
C65 O62 1.320 . S
C65 O63 1.214 . S
O66 Cd58 2.277 . S
O66 C61 1.209 . S
C67 O64 1.258 . S
C67 O69 1.282 . S
O68 Cd60 2.277 . S
O68 C61 1.226 . S
O69 Cd60 2.356 1_556 S
O69 C67 1.282 . S
C70 O71 1.306 . S
C70 O73 1.160 . S
O71 C70 1.306 . S
O71 Cd72 2.228 . S
Cd72 O71 2.228 . S
Cd72 O76 2.273 . S
Cd72 O80 2.277 . S
O73 C70 1.160 . S
O73 Cd74 2.203 1_545 S
Cd74 O73 2.203 1_565 S
Cd74 O76 2.411 1_565 S
Cd74 O77 2.333 . S
Cd74 O78 2.352 . S
Cd74 O82 2.277 . S
Cd74 O83 2.356 . S
C75 O80 1.209 1_565 S
C75 O82 1.226 . S
O76 Cd72 2.273 . S
O76 Cd74 2.411 1_545 S
O76 C79 1.320 . S
O77 Cd74 2.333 . S
O77 C79 1.214 1_565 S
O78 Cd74 2.352 . S
O78 C81 1.258 . S
C79 O76 1.320 . S
C79 O77 1.214 1_545 S
O80 Cd72 2.277 . S
O80 C75 1.209 1_545 S
C81 O78 1.258 . S
C81 O83 1.282 . S
O82 Cd74 2.277 . S
O82 C75 1.226 . S
O83 Cd74 2.356 . S
O83 C81 1.282 . S
C84 O85 1.306 . S
C84 O87 1.160 . S
O85 C84 1.306 . S
O85 Cd86 2.228 . S
Cd86 O85 2.228 . S
Cd86 O90 2.273 . S
Cd86 O94 2.277 . S
O87 C84 1.160 . S
O87 Cd88 2.203 . S
Cd88 O87 2.203 . S
Cd88 O90 2.411 . S
Cd88 O91 2.333 . S
Cd88 O92 2.352 . S
Cd88 O96 2.277 . S
Cd88 O97 2.356 . S
C89 O94 1.209 . S
C89 O96 1.226 . S
O90 Cd86 2.273 . S
O90 Cd88 2.411 . S
O90 C93 1.320 . S
O91 Cd88 2.333 . S
O91 C93 1.214 . S
O92 Cd88 2.352 . S
O92 C95 1.258 . S
C93 O90 1.320 . S
C93 O91 1.214 . S
O94 Cd86 2.277 . S
O94 C89 1.209 . S
C95 O92 1.258 . S
C95 O97 1.282 . S
O96 Cd88 2.277 . S
O96 C89 1.226 . S
O97 Cd88 2.356 . S
O97 C95 1.282 . S
C98 O99 1.301 . S
C98 O101 1.177 . S
O99 C98 1.301 . S
O99 Cd100 2.228 . S
Cd100 O99 2.228 . S
Cd100 O104 2.273 . S
Cd100 O108 2.277 . S
O101 C98 1.177 . S
O101 Cd102 2.203 . S
Cd102 O101 2.203 . S
Cd102 O104 2.411 . S
Cd102 O105 2.333 . S
Cd102 O106 2.352 . S
Cd102 O110 2.277 . S
Cd102 O111 2.356 . S
C103 O108 1.209 . S
C103 O110 1.226 . S
O104 Cd100 2.273 . S
O104 Cd102 2.411 . S
O104 C107 1.320 . S
O105 Cd102 2.333 . S
O105 C107 1.214 . S
O106 Cd102 2.352 . S
O106 C109 1.258 . S
C107 O104 1.320 . S
C107 O105 1.214 . S
O108 Cd100 2.277 . S
O108 C103 1.209 . S
C109 O106 1.258 . S
C109 O111 1.282 . S
O110 Cd102 2.277 . S
O110 C103 1.226 . S
O111 Cd102 2.356 . S
O111 C109 1.282 . S
C112 O113 1.306 . S
C112 O115 1.160 . S
O113 C112 1.306 . S
O113 Cd114 2.228 . S
Cd114 O113 2.228 . S
Cd114 O118 2.273 . S
Cd114 O122 2.277 . S
O115 C112 1.160 . S
O115 Cd116 2.203 . S
Cd116 O115 2.203 . S
Cd116 O118 2.411 . S
Cd116 O119 2.333 . S
Cd116 O120 2.352 . S
Cd116 O124 2.277 . S
Cd116 O125 2.356 . S
C117 O122 1.209 . S
C117 O124 1.226 . S
O118 Cd114 2.273 . S
O118 Cd116 2.411 . S
O118 C121 1.320 . S
O119 Cd116 2.333 . S
O119 C121 1.214 . S
O120 Cd116 2.352 . S
O120 C123 1.258 . S
C121 O118 1.320 . S
C121 O119 1.214 . S
O122 Cd114 2.277 . S
O122 C117 1.209 . S
C123 O120 1.258 . S
C123 O125 1.282 . S
O124 Cd116 2.277 . S
O124 C117 1.226 . S
O125 Cd116 2.356 . S
O125 C123 1.282 . S
C126 O127 1.306 . S
C126 O129 1.160 . S
O127 C126 1.306 . S
O127 Cd128 2.228 . S
Cd128 O127 2.228 . S
Cd128 O132 2.273 . S
Cd128 O136 2.277 . S
O129 C126 1.160 . S
O129 Cd130 2.203 . S
Cd130 O129 2.203 . S
Cd130 O132 2.411 . S
Cd130 O133 2.333 . S
Cd130 O134 2.352 . S
Cd130 O138 2.277 . S
Cd130 O139 2.356 1_565 S
C131 O136 1.209 . S
C131 O138 1.226 . S
O132 Cd128 2.273 . S
O132 Cd130 2.411 . S
O132 C135 1.320 . S
O133 Cd130 2.333 . S
O133 C135 1.214 . S
O134 Cd130 2.352 . S
O134 C137 1.258 1_565 S
C135 O132 1.320 . S
C135 O133 1.214 . S
O136 Cd128 2.277 . S
O136 C131 1.209 . S
C137 O134 1.258 1_545 S
C137 O139 1.282 . S
O138 Cd130 2.277 . S
O138 C131 1.226 . S
O139 Cd130 2.356 1_545 S
O139 C137 1.282 . S
C140 O141 1.306 . S
C140 O143 1.160 . S
O141 C140 1.306 . S
O141 Cd142 2.228 . S
Cd142 O141 2.228 . S
Cd142 O146 2.273 . S
Cd142 O150 2.277 . S
O143 C140 1.160 . S
O143 Cd144 2.203 . S
Cd144 O143 2.203 . S
Cd144 O146 2.411 . S
Cd144 O147 2.333 . S
Cd144 O148 2.352 . S
Cd144 O152 2.277 . S
Cd144 O153 2.356 . S
C145 O150 1.209 . S
C145 O152 1.226 . S
O146 Cd142 2.273 . S
O146 Cd144 2.411 . S
O146 C149 1.320 . S
O147 Cd144 2.333 . S
O147 C149 1.214 . S
O148 Cd144 2.352 . S
O148 C151 1.258 . S
C149 O146 1.320 . S
C149 O147 1.214 . S
O150 Cd142 2.277 . S
O150 C145 1.209 . S
C151 O148 1.258 . S
C151 O153 1.282 . S
O152 Cd144 2.277 . S
O152 C145 1.226 . S
O153 Cd144 2.356 . S
O153 C151 1.282 . S
C154 O155 1.306 . S
C154 O157 1.160 . S
O155 C154 1.306 . S
O155 Cd156 2.228 . S
Cd156 O155 2.228 . S
Cd156 O160 2.273 . S
Cd156 O164 2.277 . S
O157 C154 1.160 . S
O157 Cd158 2.203 . S
Cd158 O157 2.203 . S
Cd158 O160 2.411 . S
Cd158 O161 2.333 . S
Cd158 O162 2.352 . S
Cd158 O166 2.277 . S
Cd158 O167 2.356 . S
C159 O164 1.209 . S
C159 O166 1.226 . S
O160 Cd156 2.273 . S
O160 Cd158 2.411 . S
O160 C163 1.320 . S
O161 Cd158 2.333 . S
O161 C163 1.214 . S
O162 Cd158 2.352 . S
O162 C165 1.258 . S
C163 O160 1.320 . S
C163 O161 1.214 . S
O164 Cd156 2.277 . S
O164 C159 1.209 . S
C165 O162 1.258 . S
C165 O167 1.282 . S
O166 Cd158 2.277 . S
O166 C159 1.226 . S
O167 Cd158 2.356 . S
O167 C165 1.282 . S
C168 O169 1.306 1_565 S
C168 O171 1.160 1_565 S
O169 C168 1.306 1_545 S
O169 Cd170 2.228 . S
Cd170 O169 2.228 . S
Cd170 O174 2.273 . S
Cd170 O178 2.277 . S
O171 C168 1.160 1_545 S
O171 Cd172 2.203 . S
Cd172 O171 2.203 . S
Cd172 O174 2.411 . S
Cd172 O175 2.333 . S
Cd172 O176 2.352 . S
Cd172 O180 2.277 . S
Cd172 O181 2.356 . S
C173 O178 1.209 . S
C173 O180 1.226 . S
O174 Cd170 2.273 . S
O174 Cd172 2.411 . S
O174 C177 1.320 . S
O175 Cd172 2.333 . S
O175 C177 1.214 . S
O176 Cd172 2.352 . S
O176 C179 1.258 . S
C177 O174 1.320 . S
C177 O175 1.214 . S
O178 Cd170 2.277 . S
O178 C173 1.209 . S
C179 O176 1.258 . S
C179 O181 1.282 . S
O180 Cd172 2.277 . S
O180 C173 1.226 . S
O181 Cd172 2.356 . S
O181 C179 1.282 . S
C182 O183 1.306 . S
C182 O185 1.160 . S
O183 C182 1.306 . S
O183 Cd184 2.228 . S
Cd184 O183 2.228 . S
Cd184 O188 2.273 . S
Cd184 O192 2.277 . S
O185 C182 1.160 . S
O185 Cd186 2.203 . S
Cd186 O185 2.203 . S
Cd186 O188 2.411 . S
Cd186 O189 2.333 . S
Cd186 O190 2.352 . S
Cd186 O194 2.277 . S
Cd186 O195 2.356 1_655 S
C187 O192 1.209 . S
C187 O194 1.226 . S
O188 Cd184 2.273 . S
O188 Cd186 2.411 . S
O188 C191 1.320 . S
O189 Cd186 2.333 . S
O189 C191 1.214 . S
O190 Cd186 2.352 . S
O190 C193 1.258 1_655 S
C191 O188 1.320 . S
C191 O189 1.214 . S
O192 Cd184 2.277 . S
O192 C187 1.209 . S
C193 O190 1.258 1_455 S
C193 O195 1.282 . S
O194 Cd186 2.277 . S
O194 C187 1.226 . S
O195 Cd186 2.356 1_455 S
O195 C193 1.282 . S
C196 O197 1.306 . S
C196 O199 1.160 . S
O197 C196 1.306 . S
O197 Cd198 2.228 . S
Cd198 O197 2.228 . S
Cd198 O202 2.273 . S
Cd198 O206 2.277 . S
O199 C196 1.160 . S
O199 Cd200 2.203 . S
Cd200 O199 2.203 . S
Cd200 O202 2.411 . S
Cd200 O203 2.333 . S
Cd200 O204 2.352 . S
Cd200 O208 2.277 . S
Cd200 O209 2.356 . S
C201 O206 1.209 . S
C201 O208 1.226 . S
O202 Cd198 2.273 . S
O202 Cd200 2.411 . S
O202 C205 1.320 . S
O203 Cd200 2.333 . S
O203 C205 1.214 . S
O204 Cd200 2.352 . S
O204 C207 1.258 . S
C205 O202 1.320 . S
C205 O203 1.214 . S
O206 Cd198 2.277 . S
O206 C201 1.209 . S
C207 O204 1.258 . S
C207 O209 1.282 . S
O208 Cd200 2.277 . S
O208 C201 1.226 . S
O209 Cd200 2.356 . S
O209 C207 1.282 . S
C210 O211 1.306 . S
C210 O213 1.160 . S
O211 C210 1.306 . S
O211 Cd212 2.228 . S
Cd212 O211 2.228 . S
Cd212 O216 2.273 . S
Cd212 O220 2.277 . S
O213 C210 1.160 . S
O213 Cd214 2.203 . S
Cd214 O213 2.203 . S
Cd214 O216 2.411 . S
Cd214 O217 2.333 . S
Cd214 O218 2.352 . S
Cd214 O222 2.277 . S
Cd214 O223 2.356 . S
C215 O220 1.209 . S
C215 O222 1.226 . S
O216 Cd212 2.273 . S
O216 Cd214 2.411 . S
O216 C219 1.320 . S
O217 Cd214 2.333 . S
O217 C219 1.214 . S
O218 Cd214 2.352 . S
O218 C221 1.258 . S
C219 O216 1.320 . S
C219 O217 1.214 . S
O220 Cd212 2.277 . S
O220 C215 1.209 . S
C221 O218 1.258 . S
C221 O223 1.282 . S
O222 Cd214 2.277 . S
O222 C215 1.226 . S
O223 Cd214 2.356 . S
O223 C221 1.282 . S
C224 O225 1.306 . S
C224 O227 1.160 . S
O225 C224 1.306 . S
O225 Cd226 2.228 . S
Cd226 O225 2.228 . S
Cd226 O230 2.273 . S
Cd226 O234 2.277 . S
O227 C224 1.160 . S
O227 Cd228 2.203 . S
Cd228 O227 2.203 . S
Cd228 O230 2.411 . S
Cd228 O231 2.333 . S
Cd228 O232 2.352 . S
Cd228 O236 2.277 . S
Cd228 O237 2.356 . S
C229 O234 1.209 . S
C229 O236 1.226 . S
O230 Cd226 2.273 . S
O230 Cd228 2.411 . S
O230 C233 1.320 . S
O231 Cd228 2.333 . S
O231 C233 1.214 . S
O232 Cd228 2.352 . S
O232 C235 1.258 1_545 S
C233 O230 1.320 . S
C233 O231 1.214 . S
O234 Cd226 2.277 . S
O234 C229 1.209 . S
C235 O232 1.258 1_565 S
C235 O237 1.282 1_565 S
O236 Cd228 2.277 . S
O236 C229 1.226 . S
O237 Cd228 2.356 . S
O237 C235 1.282 1_545 S
C238 O239 1.306 . S
C238 O241 1.160 . S
O239 C238 1.306 . S
O239 Cd240 2.228 . S
Cd240 O239 2.228 . S
Cd240 O244 2.273 . S
Cd240 O248 2.277 . S
O241 C238 1.160 . S
O241 Cd242 2.203 . S
Cd242 O241 2.203 . S
Cd242 O244 2.411 . S
Cd242 O245 2.333 . S
Cd242 O246 2.352 . S
Cd242 O250 2.277 . S
Cd242 O251 2.356 . S
C243 O248 1.209 . S
C243 O250 1.226 . S
O244 Cd240 2.273 . S
O244 Cd242 2.411 . S
O244 C247 1.320 . S
O245 Cd242 2.333 . S
O245 C247 1.214 . S
O246 Cd242 2.352 . S
O246 C249 1.258 . S
C247 O244 1.320 . S
C247 O245 1.214 . S
O248 Cd240 2.277 . S
O248 C243 1.209 . S
C249 O246 1.258 . S
C249 O251 1.282 . S
O250 Cd242 2.277 . S
O250 C243 1.226 . S
O251 Cd242 2.356 . S
O251 C249 1.282 . S
H252 O278 0.856 . S
H253 O281 0.854 . S
H254 C289 0.930 . S
H255 C290 0.930 . S
H256 C292 0.930 . S
H257 C293 0.930 . S
H258 C295 0.931 . S
H259 C296 0.930 . S
H260 C298 0.930 . S
H261 C299 0.929 . S
H262 C301 0.930 . S
H263 C302 0.931 . S
H264 C304 0.930 . S
H265 C305 0.929 . S
H266 C307 0.931 . S
H267 C308 0.930 . S
H268 C310 0.930 . S
H269 C311 0.932 . S
H270 C313 0.930 . S
H271 C314 0.929 . S
H272 C316 0.931 . S
H273 C317 0.930 . S
H274 C319 0.929 . S
H275 C320 0.931 . S
H276 C322 0.930 . S
H277 C323 0.929 . S
O278 H252 0.856 . S
O278 C324 1.300 . S
O279 C324 1.209 . S
O280 C325 1.199 . S
O281 H253 0.854 . S
O281 C325 1.297 . S
C282 C283 1.404 . S
C282 C287 1.397 . S
C282 C288 1.492 . S
C283 C282 1.404 . S
C283 C284 1.396 . S
C283 C294 1.492 . S
C284 C283 1.396 . S
C284 C285 1.397 . S
C284 C300 1.509 . S
C285 C284 1.397 . S
C285 C286 1.412 . S
C285 C306 1.485 . S
C286 C285 1.412 . S
C286 C287 1.388 . S
C286 C312 1.490 . S
C287 C282 1.397 . S
C287 C286 1.388 . S
C287 C318 1.519 . S
C288 C282 1.492 . S
C288 C289 1.363 . S
C288 C293 1.390 . S
C289 H254 0.930 . S
C289 C288 1.363 . S
C289 C290 1.372 . S
C290 H255 0.930 . S
C290 C289 1.372 . S
C290 C291 1.383 . S
C291 C290 1.383 . S
C291 C292 1.395 . S
C292 H256 0.930 . S
C292 C291 1.395 . S
C292 C293 1.362 . S
C293 H257 0.930 . S
C293 C288 1.390 . S
C293 C292 1.362 . S
C294 C283 1.492 . S
C294 C295 1.377 . S
C294 C299 1.397 . S
C295 H258 0.931 . S
C295 C294 1.377 . S
C295 C296 1.376 . S
C296 H259 0.930 . S
C296 C295 1.376 . S
C296 C297 1.376 . S
C297 C296 1.376 . S
C297 C298 1.378 . S
C297 C324 1.486 . S
C298 H260 0.930 . S
C298 C297 1.378 . S
C298 C299 1.376 . S
C299 H261 0.929 . S
C299 C294 1.397 . S
C299 C298 1.376 . S
C300 C284 1.509 . S
C300 C301 1.391 . S
C300 C305 1.386 . S
C301 H262 0.930 . S
C301 C300 1.391 . S
C301 C302 1.375 . S
C302 H263 0.931 . S
C302 C301 1.375 . S
C302 C303 1.375 . S
C303 C302 1.375 . S
C303 C304 1.361 . S
C304 H264 0.930 . S
C304 C303 1.361 . S
C304 C305 1.399 . S
C305 H265 0.929 . S
C305 C300 1.386 . S
C305 C304 1.399 . S
C306 C285 1.485 . S
C306 C307 1.394 . S
C306 C311 1.360 . S
C307 H266 0.931 . S
C307 C306 1.394 . S
C307 C308 1.372 . S
C308 H267 0.930 . S
C308 C307 1.372 . S
C308 C309 1.397 . S
C309 C308 1.397 . S
C309 C310 1.390 . S
C309 C325 1.476 . S
C310 H268 0.930 . S
C310 C309 1.390 . S
C310 C311 1.366 . S
C311 H269 0.932 . S
C311 C306 1.360 . S
C311 C310 1.366 . S
C312 C286 1.490 . S
C312 C313 1.380 . S
C312 C317 1.386 . S
C313 H270 0.930 . S
C313 C312 1.380 . S
C313 C314 1.381 . S
C314 H271 0.929 . S
C314 C313 1.381 . S
C314 C315 1.371 . S
C315 C314 1.371 . S
C315 C316 1.380 . S
C316 H272 0.931 . S
C316 C315 1.380 . S
C316 C317 1.387 . S
C317 H273 0.930 . S
C317 C312 1.386 . S
C317 C316 1.387 . S
C318 C287 1.519 . S
C318 C319 1.377 . S
C318 C323 1.361 . S
C319 H274 0.929 . S
C319 C318 1.377 . S
C319 C320 1.386 . S
C320 H275 0.931 . S
C320 C319 1.386 . S
C320 C321 1.363 . S
C321 C320 1.363 . S
C321 C322 1.385 . S
C322 H276 0.930 . S
C322 C321 1.385 . S
C322 C323 1.396 . S
C323 H277 0.929 . S
C323 C318 1.361 . S
C323 C322 1.396 . S
C324 O278 1.300 . S
C324 O279 1.209 . S
C324 C297 1.486 . S
C325 O280 1.199 . S
C325 O281 1.297 . S
C325 C309 1.476 . S
H326 O352 0.856 . S
H327 O355 0.854 1_545 S
H328 C363 0.930 . S
H329 C364 0.930 . S
H330 C366 0.930 . S
H331 C367 0.930 . S
H332 C369 0.931 . S
H333 C370 0.930 . S
H334 C372 0.930 . S
H335 C373 0.929 . S
H336 C375 0.930 . S
H337 C376 0.931 . S
H338 C378 0.930 . S
H339 C379 0.929 . S
H340 C381 0.931 . S
H341 C382 0.930 . S
H342 C384 0.930 . S
H343 C385 0.932 . S
H344 C387 0.930 . S
H345 C388 0.929 . S
H346 C390 0.931 . S
H347 C391 0.930 . S
H348 C393 0.929 . S
H349 C394 0.931 . S
H350 C396 0.930 . S
H351 C397 0.929 . S
O352 H326 0.856 . S
O352 C398 1.300 . S
O353 C398 1.209 . S
O354 C399 1.199 . S
O355 H327 0.854 1_565 S
O355 C399 1.297 . S
C356 C357 1.404 . S
C356 C361 1.397 . S
C356 C362 1.492 . S
C357 C356 1.404 . S
C357 C358 1.396 . S
C357 C368 1.492 . S
C358 C357 1.396 . S
C358 C359 1.397 . S
C358 C374 1.509 . S
C359 C358 1.397 . S
C359 C360 1.412 . S
C359 C380 1.485 . S
C360 C359 1.412 . S
C360 C361 1.388 . S
C360 C386 1.490 . S
C361 C356 1.397 . S
C361 C360 1.388 . S
C361 C392 1.519 . S
C362 C356 1.492 . S
C362 C363 1.363 . S
C362 C367 1.390 . S
C363 H328 0.930 . S
C363 C362 1.363 . S
C363 C364 1.372 . S
C364 H329 0.930 . S
C364 C363 1.372 . S
C364 C365 1.383 . S
C365 C364 1.383 . S
C365 C366 1.395 . S
C366 H330 0.930 . S
C366 C365 1.395 . S
C366 C367 1.362 . S
C367 H331 0.930 . S
C367 C362 1.390 . S
C367 C366 1.362 . S
C368 C357 1.492 . S
C368 C369 1.377 . S
C368 C373 1.397 . S
C369 H332 0.931 . S
C369 C368 1.377 . S
C369 C370 1.376 . S
C370 H333 0.930 . S
C370 C369 1.376 . S
C370 C371 1.376 . S
C371 C370 1.376 . S
C371 C372 1.378 . S
C371 C398 1.486 . S
C372 H334 0.930 . S
C372 C371 1.378 . S
C372 C373 1.376 . S
C373 H335 0.929 . S
C373 C368 1.397 . S
C373 C372 1.376 . S
C374 C358 1.509 . S
C374 C375 1.391 . S
C374 C379 1.386 . S
C375 H336 0.930 . S
C375 C374 1.391 . S
C375 C376 1.375 . S
C376 H337 0.931 . S
C376 C375 1.375 . S
C376 C377 1.375 . S
C377 C376 1.375 . S
C377 C378 1.361 . S
C378 H338 0.930 . S
C378 C377 1.361 . S
C378 C379 1.399 . S
C379 H339 0.929 . S
C379 C374 1.386 . S
C379 C378 1.399 . S
C380 C359 1.485 . S
C380 C381 1.394 . S
C380 C385 1.360 . S
C381 H340 0.931 . S
C381 C380 1.394 . S
C381 C382 1.372 . S
C382 H341 0.930 . S
C382 C381 1.372 . S
C382 C383 1.397 . S
C383 C382 1.397 . S
C383 C384 1.390 . S
C383 C399 1.476 . S
C384 H342 0.930 . S
C384 C383 1.390 . S
C384 C385 1.366 . S
C385 H343 0.932 . S
C385 C380 1.360 . S
C385 C384 1.366 . S
C386 C360 1.490 . S
C386 C387 1.380 . S
C386 C391 1.386 . S
C387 H344 0.930 . S
C387 C386 1.380 . S
C387 C388 1.381 . S
C388 H345 0.929 . S
C388 C387 1.381 . S
C388 C389 1.371 . S
C389 C388 1.371 . S
C389 C390 1.380 . S
C390 H346 0.931 . S
C390 C389 1.380 . S
C390 C391 1.387 . S
C391 H347 0.930 . S
C391 C386 1.386 . S
C391 C390 1.387 . S
C392 C361 1.519 . S
C392 C393 1.377 . S
C392 C397 1.361 . S
C393 H348 0.929 . S
C393 C392 1.377 . S
C393 C394 1.386 . S
C394 H349 0.931 . S
C394 C393 1.386 . S
C394 C395 1.363 . S
C395 C394 1.363 . S
C395 C396 1.385 . S
C396 H350 0.930 . S
C396 C395 1.385 . S
C396 C397 1.396 . S
C397 H351 0.929 . S
C397 C392 1.361 . S
C397 C396 1.396 . S
C398 O352 1.300 . S
C398 O353 1.209 . S
C398 C371 1.486 . S
C399 O354 1.199 . S
C399 O355 1.297 . S
C399 C383 1.476 . S
H400 O426 0.856 . S
H401 O429 0.884 . S
H402 C437 0.930 . S
H403 C438 0.930 . S
H404 C440 0.930 . S
H405 C441 0.930 . S
H406 C443 0.931 . S
H407 C444 0.930 . S
H408 C446 0.930 . S
H409 C447 0.929 . S
H410 C449 0.930 . S
H411 C450 0.931 . S
H412 C452 0.930 . S
H413 C453 0.929 . S
H414 C455 0.931 . S
H415 C456 0.930 . S
H416 C458 0.930 . S
H417 C459 0.932 . S
H418 C461 0.930 . S
H419 C462 0.929 . S
H420 C464 0.931 . S
H421 C465 0.930 . S
H422 C467 0.929 . S
H423 C468 0.931 . S
H424 C470 0.930 . S
H425 C471 0.929 . S
O426 H400 0.856 . S
O426 C472 1.300 . S
O427 C472 1.209 . S
O428 C473 1.199 1_545 S
O429 H401 0.884 . S
O429 C473 1.297 . S
C430 C431 1.404 . S
C430 C435 1.397 . S
C430 C436 1.492 . S
C431 C430 1.404 . S
C431 C432 1.396 . S
C431 C442 1.492 . S
C432 C431 1.396 . S
C432 C433 1.397 . S
C432 C448 1.509 . S
C433 C432 1.397 . S
C433 C434 1.412 . S
C433 C454 1.485 . S
C434 C433 1.412 . S
C434 C435 1.388 . S
C434 C460 1.490 . S
C435 C430 1.397 . S
C435 C434 1.388 . S
C435 C466 1.519 . S
C436 C430 1.492 . S
C436 C437 1.363 . S
C436 C441 1.390 . S
C437 H402 0.930 . S
C437 C436 1.363 . S
C437 C438 1.372 . S
C438 H403 0.930 . S
C438 C437 1.372 . S
C438 C439 1.383 . S
C439 C438 1.383 . S
C439 C440 1.395 . S
C440 H404 0.930 . S
C440 C439 1.395 . S
C440 C441 1.362 . S
C441 H405 0.930 . S
C441 C436 1.390 . S
C441 C440 1.362 . S
C442 C431 1.492 . S
C442 C443 1.377 . S
C442 C447 1.397 . S
C443 H406 0.931 . S
C443 C442 1.377 . S
C443 C444 1.376 . S
C444 H407 0.930 . S
C444 C443 1.376 . S
C444 C445 1.376 . S
C445 C444 1.376 . S
C445 C446 1.378 . S
C445 C472 1.486 . S
C446 H408 0.930 . S
C446 C445 1.378 . S
C446 C447 1.376 . S
C447 H409 0.929 . S
C447 C442 1.397 . S
C447 C446 1.376 . S
C448 C432 1.509 . S
C448 C449 1.391 . S
C448 C453 1.386 . S
C449 H410 0.930 . S
C449 C448 1.391 . S
C449 C450 1.375 . S
C450 H411 0.931 . S
C450 C449 1.375 . S
C450 C451 1.375 . S
C451 C450 1.375 . S
C451 C452 1.361 . S
C452 H412 0.930 . S
C452 C451 1.361 . S
C452 C453 1.399 . S
C453 H413 0.929 . S
C453 C448 1.386 . S
C453 C452 1.399 . S
C454 C433 1.485 . S
C454 C455 1.394 . S
C454 C459 1.360 . S
C455 H414 0.931 . S
C455 C454 1.394 . S
C455 C456 1.372 . S
C456 H415 0.930 . S
C456 C455 1.372 . S
C456 C457 1.397 . S
C457 C456 1.397 . S
C457 C458 1.390 . S
C457 C473 1.476 . S
C458 H416 0.930 . S
C458 C457 1.390 . S
C458 C459 1.366 . S
C459 H417 0.932 . S
C459 C454 1.360 . S
C459 C458 1.366 . S
C460 C434 1.490 . S
C460 C461 1.380 . S
C460 C465 1.386 . S
C461 H418 0.930 . S
C461 C460 1.380 . S
C461 C462 1.381 . S
C462 H419 0.929 . S
C462 C461 1.381 . S
C462 C463 1.371 . S
C463 C462 1.371 . S
C463 C464 1.380 . S
C464 H420 0.931 . S
C464 C463 1.380 . S
C464 C465 1.387 . S
C465 H421 0.930 . S
C465 C460 1.386 . S
C465 C464 1.387 . S
C466 C435 1.519 . S
C466 C467 1.377 . S
C466 C471 1.361 . S
C467 H422 0.929 . S
C467 C466 1.377 . S
C467 C468 1.386 . S
C468 H423 0.931 . S
C468 C467 1.386 . S
C468 C469 1.363 . S
C469 C468 1.363 . S
C469 C470 1.385 . S
C470 H424 0.930 . S
C470 C469 1.385 . S
C470 C471 1.396 . S
C471 H425 0.929 . S
C471 C466 1.361 . S
C471 C470 1.396 . S
C472 O426 1.300 . S
C472 O427 1.209 . S
C472 C445 1.486 . S
C473 O428 1.199 1_565 S
C473 O429 1.297 . S
C473 C457 1.476 . S
H474 O500 0.856 . S
H475 O503 0.854 . S
H476 C511 0.930 . S
H477 C512 0.930 . S
H478 C514 0.930 . S
H479 C515 0.930 . S
H480 C517 0.931 . S
H481 C518 0.905 1_554 S
H482 C520 0.930 . S
H483 C521 0.929 . S
H484 C523 0.930 . S
H485 C524 0.931 . S
H486 C526 0.930 . S
H487 C527 0.929 . S
H488 C529 0.931 . S
H489 C530 0.930 . S
H490 C532 0.930 . S
H491 C533 0.932 . S
H492 C535 0.930 . S
H493 C536 0.929 . S
H494 C538 0.931 . S
H495 C539 0.930 . S
H496 C541 0.929 . S
H497 C542 0.931 . S
H498 C544 0.930 . S
H499 C545 0.929 . S
O500 H474 0.856 . S
O500 C546 1.300 . S
O501 C546 1.209 . S
O502 C547 1.199 . S
O503 H475 0.854 . S
O503 C547 1.297 . S
C504 C505 1.404 . S
C504 C509 1.397 . S
C504 C510 1.492 . S
C505 C504 1.404 . S
C505 C506 1.396 . S
C505 C516 1.492 . S
C506 C505 1.396 . S
C506 C507 1.397 . S
C506 C522 1.509 . S
C507 C506 1.397 . S
C507 C508 1.412 . S
C507 C528 1.485 . S
C508 C507 1.412 . S
C508 C509 1.388 . S
C508 C534 1.490 . S
C509 C504 1.397 . S
C509 C508 1.388 . S
C509 C540 1.519 . S
C510 C504 1.492 . S
C510 C511 1.363 . S
C510 C515 1.390 . S
C511 H476 0.930 . S
C511 C510 1.363 . S
C511 C512 1.372 . S
C512 H477 0.930 . S
C512 C511 1.372 . S
C512 C513 1.383 . S
C513 C512 1.383 . S
C513 C514 1.395 . S
C514 H478 0.930 . S
C514 C513 1.395 . S
C514 C515 1.362 . S
C515 H479 0.930 . S
C515 C510 1.390 . S
C515 C514 1.362 . S
C516 C505 1.492 . S
C516 C517 1.377 . S
C516 C521 1.397 . S
C517 H480 0.931 . S
C517 C516 1.377 . S
C517 C518 1.376 . S
C518 H481 0.905 1_556 S
C518 C517 1.376 . S
C518 C519 1.376 . S
C519 C518 1.376 . S
C519 C520 1.378 . S
C519 C546 1.486 1_556 S
C520 H482 0.930 . S
C520 C519 1.378 . S
C520 C521 1.376 . S
C521 H483 0.929 . S
C521 C516 1.397 . S
C521 C520 1.376 . S
C522 C506 1.509 . S
C522 C523 1.391 . S
C522 C527 1.386 . S
C523 H484 0.930 . S
C523 C522 1.391 . S
C523 C524 1.375 . S
C524 H485 0.931 . S
C524 C523 1.375 . S
C524 C525 1.375 . S
C525 C524 1.375 . S
C525 C526 1.361 . S
C526 H486 0.930 . S
C526 C525 1.361 . S
C526 C527 1.399 . S
C527 H487 0.929 . S
C527 C522 1.386 . S
C527 C526 1.399 . S
C528 C507 1.485 . S
C528 C529 1.394 . S
C528 C533 1.360 . S
C529 H488 0.931 . S
C529 C528 1.394 . S
C529 C530 1.372 . S
C530 H489 0.930 . S
C530 C529 1.372 . S
C530 C531 1.397 . S
C531 C530 1.397 . S
C531 C532 1.390 . S
C531 C547 1.476 . S
C532 H490 0.930 . S
C532 C531 1.390 . S
C532 C533 1.366 . S
C533 H491 0.932 . S
C533 C528 1.360 . S
C533 C532 1.366 . S
C534 C508 1.490 . S
C534 C535 1.380 . S
C534 C539 1.386 . S
C535 H492 0.930 . S
C535 C534 1.380 . S
C535 C536 1.381 . S
C536 H493 0.929 . S
C536 C535 1.381 . S
C536 C537 1.371 . S
C537 C536 1.371 . S
C537 C538 1.380 . S
C538 H494 0.931 . S
C538 C537 1.380 . S
C538 C539 1.387 . S
C539 H495 0.930 . S
C539 C534 1.386 . S
C539 C538 1.387 . S
C540 C509 1.519 . S
C540 C541 1.377 . S
C540 C545 1.361 . S
C541 H496 0.929 . S
C541 C540 1.377 . S
C541 C542 1.386 . S
C542 H497 0.931 . S
C542 C541 1.386 . S
C542 C543 1.363 . S
C543 C542 1.363 . S
C543 C544 1.385 . S
C544 H498 0.930 . S
C544 C543 1.385 . S
C544 C545 1.396 . S
C545 H499 0.929 . S
C545 C540 1.361 . S
C545 C544 1.396 . S
C546 O500 1.300 . S
C546 O501 1.209 . S
C546 C519 1.486 1_554 S
C547 O502 1.199 . S
C547 O503 1.297 . S
C547 C531 1.476 . S
H548 O574 0.856 . S
H549 O577 0.854 . S
H550 C585 0.930 . S
H551 C586 0.930 . S
H552 C588 0.930 . S
H553 C589 0.930 . S
H554 C591 0.931 . S
H555 C592 0.930 . S
H556 C594 0.914 1_554 S
H557 C595 0.929 . S
H558 C597 0.930 . S
H559 C598 0.931 . S
H560 C600 0.930 . S
H561 C601 0.929 . S
H562 C603 0.931 . S
H563 C604 0.930 . S
H564 C606 0.930 . S
H565 C607 0.932 . S
H566 C609 0.930 . S
H567 C610 0.929 . S
H568 C612 0.931 . S
H569 C613 0.930 . S
H570 C615 0.929 . S
H571 C616 0.931 . S
H572 C618 0.930 . S
H573 C619 0.929 . S
O574 H548 0.856 . S
O574 C620 1.300 . S
O575 C620 1.209 . S
O576 C621 1.199 . S
O577 H549 0.854 . S
O577 C621 1.297 1_565 S
C578 C579 1.404 . S
C578 C583 1.397 . S
C578 C584 1.492 . S
C579 C578 1.404 . S
C579 C580 1.396 . S
C579 C590 1.492 . S
C580 C579 1.396 . S
C580 C581 1.397 . S
C580 C596 1.509 . S
C581 C580 1.397 . S
C581 C582 1.412 . S
C581 C602 1.485 . S
C582 C581 1.412 . S
C582 C583 1.388 . S
C582 C608 1.490 . S
C583 C578 1.397 . S
C583 C582 1.388 . S
C583 C614 1.519 . S
C584 C578 1.492 . S
C584 C585 1.363 . S
C584 C589 1.390 . S
C585 H550 0.930 . S
C585 C584 1.363 . S
C585 C586 1.372 . S
C586 H551 0.930 . S
C586 C585 1.372 . S
C586 C587 1.383 . S
C587 C586 1.383 . S
C587 C588 1.395 . S
C588 H552 0.930 . S
C588 C587 1.395 . S
C588 C589 1.362 . S
C589 H553 0.930 . S
C589 C584 1.390 . S
C589 C588 1.362 . S
C590 C579 1.492 . S
C590 C591 1.377 . S
C590 C595 1.397 . S
C591 H554 0.931 . S
C591 C590 1.377 . S
C591 C592 1.376 1_556 S
C592 H555 0.930 . S
C592 C591 1.376 1_554 S
C592 C593 1.376 . S
C593 C592 1.376 . S
C593 C594 1.355 1_554 S
C593 C620 1.486 . S
C594 H556 0.914 1_556 S
C594 C593 1.355 1_556 S
C594 C595 1.416 . S
C595 H557 0.929 . S
C595 C590 1.397 . S
C595 C594 1.416 . S
C596 C580 1.509 . S
C596 C597 1.391 . S
C596 C601 1.386 . S
C597 H558 0.930 . S
C597 C596 1.391 . S
C597 C598 1.375 . S
C598 H559 0.931 . S
C598 C597 1.375 . S
C598 C599 1.375 . S
C599 C598 1.375 . S
C599 C600 1.361 . S
C600 H560 0.930 . S
C600 C599 1.361 . S
C600 C601 1.399 . S
C601 H561 0.929 . S
C601 C596 1.386 . S
C601 C600 1.399 . S
C602 C581 1.485 . S
C602 C603 1.394 . S
C602 C607 1.360 . S
C603 H562 0.931 . S
C603 C602 1.394 . S
C603 C604 1.372 . S
C604 H563 0.930 . S
C604 C603 1.372 . S
C604 C605 1.397 . S
C605 C604 1.397 . S
C605 C606 1.390 . S
C605 C621 1.476 . S
C606 H564 0.930 . S
C606 C605 1.390 . S
C606 C607 1.366 . S
C607 H565 0.932 . S
C607 C602 1.360 . S
C607 C606 1.366 . S
C608 C582 1.490 . S
C608 C609 1.380 . S
C608 C613 1.386 . S
C609 H566 0.930 . S
C609 C608 1.380 . S
C609 C610 1.381 . S
C610 H567 0.929 . S
C610 C609 1.381 . S
C610 C611 1.371 . S
C611 C610 1.371 . S
C611 C612 1.380 . S
C612 H568 0.931 . S
C612 C611 1.380 . S
C612 C613 1.387 . S
C613 H569 0.930 . S
C613 C608 1.386 . S
C613 C612 1.387 . S
C614 C583 1.519 . S
C614 C615 1.377 . S
C614 C619 1.361 . S
C615 H570 0.929 . S
C615 C614 1.377 . S
C615 C616 1.386 . S
C616 H571 0.931 . S
C616 C615 1.386 . S
C616 C617 1.363 . S
C617 C616 1.363 . S
C617 C618 1.385 . S
C618 H572 0.930 . S
C618 C617 1.385 . S
C618 C619 1.396 . S
C619 H573 0.929 . S
C619 C614 1.361 . S
C619 C618 1.396 . S
C620 O574 1.300 . S
C620 O575 1.209 . S
C620 C593 1.486 . S
C621 O576 1.199 . S
C621 O577 1.297 1_545 S
C621 C605 1.476 . S
H622 O648 0.856 . S
H623 O651 0.854 . S
H624 C659 0.930 . S
H625 C660 0.930 . S
H626 C662 0.930 . S
H627 C663 0.930 . S
H628 C665 0.931 . S
H629 C666 0.930 . S
H630 C668 0.936 . S
H631 C669 0.929 . S
H632 C671 0.930 . S
H633 C672 0.931 . S
H634 C674 0.930 . S
H635 C675 0.929 . S
H636 C677 0.931 . S
H637 C678 0.930 . S
H638 C680 0.930 . S
H639 C681 0.932 . S
H640 C683 0.930 . S
H641 C684 0.929 . S
H642 C686 0.931 . S
H643 C687 0.930 . S
H644 C689 0.929 . S
H645 C690 0.931 . S
H646 C692 0.930 . S
H647 C693 0.929 . S
O648 H622 0.856 . S
O648 C694 1.300 . S
O649 C694 1.209 . S
O650 C695 1.199 . S
O651 H623 0.854 . S
O651 C695 1.297 . S
C652 C653 1.404 . S
C652 C657 1.397 . S
C652 C658 1.492 . S
C653 C652 1.404 . S
C653 C654 1.396 . S
C653 C664 1.492 . S
C654 C653 1.396 . S
C654 C655 1.397 . S
C654 C670 1.509 . S
C655 C654 1.397 . S
C655 C656 1.412 . S
C655 C676 1.485 . S
C656 C655 1.412 . S
C656 C657 1.388 . S
C656 C682 1.490 . S
C657 C652 1.397 . S
C657 C656 1.388 . S
C657 C688 1.519 . S
C658 C652 1.492 . S
C658 C659 1.363 . S
C658 C663 1.390 . S
C659 H624 0.930 . S
C659 C658 1.363 . S
C659 C660 1.372 . S
C660 H625 0.930 . S
C660 C659 1.372 . S
C660 C661 1.383 . S
C661 C660 1.383 . S
C661 C662 1.395 . S
C662 H626 0.930 . S
C662 C661 1.395 . S
C662 C663 1.362 . S
C663 H627 0.930 . S
C663 C658 1.390 . S
C663 C662 1.362 . S
C664 C653 1.492 . S
C664 C665 1.377 . S
C664 C669 1.397 . S
C665 H628 0.931 . S
C665 C664 1.377 . S
C665 C666 1.376 1_556 S
C666 H629 0.930 . S
C666 C665 1.376 1_554 S
C666 C667 1.376 . S
C667 C666 1.376 . S
C667 C668 1.398 . S
C667 C694 1.486 . S
C668 H630 0.936 . S
C668 C667 1.398 . S
C668 C669 1.350 1_554 S
C669 H631 0.929 . S
C669 C664 1.397 . S
C669 C668 1.350 1_556 S
C670 C654 1.509 . S
C670 C671 1.391 . S
C670 C675 1.386 . S
C671 H632 0.930 . S
C671 C670 1.391 . S
C671 C672 1.375 . S
C672 H633 0.931 . S
C672 C671 1.375 . S
C672 C673 1.375 . S
C673 C672 1.375 . S
C673 C674 1.361 . S
C674 H634 0.930 . S
C674 C673 1.361 . S
C674 C675 1.399 . S
C675 H635 0.929 . S
C675 C670 1.386 . S
C675 C674 1.399 . S
C676 C655 1.485 . S
C676 C677 1.394 . S
C676 C681 1.360 . S
C677 H636 0.931 . S
C677 C676 1.394 . S
C677 C678 1.372 . S
C678 H637 0.930 . S
C678 C677 1.372 . S
C678 C679 1.397 . S
C679 C678 1.397 . S
C679 C680 1.390 . S
C679 C695 1.476 . S
C680 H638 0.930 . S
C680 C679 1.390 . S
C680 C681 1.366 . S
C681 H639 0.932 . S
C681 C676 1.360 . S
C681 C680 1.366 . S
C682 C656 1.490 . S
C682 C683 1.380 . S
C682 C687 1.386 . S
C683 H640 0.930 . S
C683 C682 1.380 . S
C683 C684 1.381 . S
C684 H641 0.929 . S
C684 C683 1.381 . S
C684 C685 1.371 . S
C685 C684 1.371 . S
C685 C686 1.380 . S
C686 H642 0.931 . S
C686 C685 1.380 . S
C686 C687 1.387 . S
C687 H643 0.930 . S
C687 C682 1.386 . S
C687 C686 1.387 . S
C688 C657 1.519 . S
C688 C689 1.377 . S
C688 C693 1.361 . S
C689 H644 0.929 . S
C689 C688 1.377 . S
C689 C690 1.386 . S
C690 H645 0.931 . S
C690 C689 1.386 . S
C690 C691 1.363 . S
C691 C690 1.363 . S
C691 C692 1.385 . S
C692 H646 0.930 . S
C692 C691 1.385 . S
C692 C693 1.396 . S
C693 H647 0.929 . S
C693 C688 1.361 . S
C693 C692 1.396 . S
C694 O648 1.300 . S
C694 O649 1.209 . S
C694 C667 1.486 . S
C695 O650 1.199 . S
C695 O651 1.297 . S
C695 C679 1.476 . S
H696 O722 0.856 . S
H697 O725 0.854 . S
H698 C733 0.930 . S
H699 C734 0.930 . S
H700 C736 0.930 . S
H701 C737 0.930 . S
H702 C739 0.931 . S
H703 C740 0.930 . S
H704 C742 0.930 . S
H705 C743 0.929 . S
H706 C745 0.930 . S
H707 C746 0.931 . S
H708 C748 0.930 . S
H709 C749 0.929 . S
H710 C751 0.931 . S
H711 C752 0.930 . S
H712 C754 0.930 . S
H713 C755 0.932 . S
H714 C757 0.930 . S
H715 C758 0.929 . S
H716 C760 0.931 . S
H717 C761 0.930 . S
H718 C763 0.929 . S
H719 C764 0.931 . S
H720 C766 0.930 . S
H721 C767 0.929 . S
O722 H696 0.856 . S
O722 C768 1.300 . S
O723 C768 1.209 . S
O724 C769 1.199 . S
O725 H697 0.854 . S
O725 C769 1.297 . S
C726 C727 1.404 . S
C726 C731 1.397 . S
C726 C732 1.492 . S
C727 C726 1.404 . S
C727 C728 1.396 . S
C727 C738 1.492 . S
C728 C727 1.396 . S
C728 C729 1.397 . S
C728 C744 1.509 . S
C729 C728 1.397 . S
C729 C730 1.412 . S
C729 C750 1.485 . S
C730 C729 1.412 . S
C730 C731 1.388 . S
C730 C756 1.490 . S
C731 C726 1.397 . S
C731 C730 1.388 . S
C731 C762 1.519 . S
C732 C726 1.492 . S
C732 C733 1.363 . S
C732 C737 1.390 . S
C733 H698 0.930 . S
C733 C732 1.363 . S
C733 C734 1.372 . S
C734 H699 0.930 . S
C734 C733 1.372 . S
C734 C735 1.383 . S
C735 C734 1.383 . S
C735 C736 1.395 . S
C736 H700 0.930 . S
C736 C735 1.395 . S
C736 C737 1.362 . S
C737 H701 0.930 . S
C737 C732 1.390 . S
C737 C736 1.362 . S
C738 C727 1.492 . S
C738 C739 1.377 . S
C738 C743 1.397 . S
C739 H702 0.931 . S
C739 C738 1.377 . S
C739 C740 1.376 . S
C740 H703 0.930 . S
C740 C739 1.376 . S
C740 C741 1.376 . S
C741 C740 1.376 . S
C741 C742 1.378 . S
C741 C768 1.486 . S
C742 H704 0.930 . S
C742 C741 1.378 . S
C742 C743 1.376 . S
C743 H705 0.929 . S
C743 C738 1.397 . S
C743 C742 1.376 . S
C744 C728 1.509 . S
C744 C745 1.391 . S
C744 C749 1.386 . S
C745 H706 0.930 . S
C745 C744 1.391 . S
C745 C746 1.375 . S
C746 H707 0.931 . S
C746 C745 1.375 . S
C746 C747 1.375 . S
C747 C746 1.375 . S
C747 C748 1.361 . S
C748 H708 0.930 . S
C748 C747 1.361 . S
C748 C749 1.399 . S
C749 H709 0.929 . S
C749 C744 1.386 . S
C749 C748 1.399 . S
C750 C729 1.485 . S
C750 C751 1.394 . S
C750 C755 1.360 . S
C751 H710 0.931 . S
C751 C750 1.394 . S
C751 C752 1.372 . S
C752 H711 0.930 . S
C752 C751 1.372 . S
C752 C753 1.397 . S
C753 C752 1.397 . S
C753 C754 1.390 . S
C753 C769 1.476 . S
C754 H712 0.930 . S
C754 C753 1.390 . S
C754 C755 1.366 . S
C755 H713 0.932 . S
C755 C750 1.360 . S
C755 C754 1.366 . S
C756 C730 1.490 . S
C756 C757 1.380 . S
C756 C761 1.386 . S
C757 H714 0.930 . S
C757 C756 1.380 . S
C757 C758 1.381 . S
C758 H715 0.929 . S
C758 C757 1.381 . S
C758 C759 1.371 . S
C759 C758 1.371 . S
C759 C760 1.380 . S
C760 H716 0.931 . S
C760 C759 1.380 . S
C760 C761 1.387 . S
C761 H717 0.930 . S
C761 C756 1.386 . S
C761 C760 1.387 . S
C762 C731 1.519 . S
C762 C763 1.377 . S
C762 C767 1.361 . S
C763 H718 0.929 . S
C763 C762 1.377 . S
C763 C764 1.386 . S
C764 H719 0.931 . S
C764 C763 1.386 . S
C764 C765 1.363 . S
C765 C764 1.363 . S
C765 C766 1.385 . S
C766 H720 0.930 . S
C766 C765 1.385 . S
C766 C767 1.396 . S
C767 H721 0.929 . S
C767 C762 1.361 . S
C767 C766 1.396 . S
C768 O722 1.300 . S
C768 O723 1.209 . S
C768 C741 1.486 . S
C769 O724 1.199 . S
C769 O725 1.297 . S
C769 C753 1.476 . S
H770 O796 0.856 . S
H771 O799 0.854 . S
H772 C807 0.930 . S
H773 C808 0.930 . S
H774 C810 0.930 . S
H775 C811 0.930 . S
H776 C813 0.931 . S
H777 C814 0.930 . S
H778 C816 0.930 . S
H779 C817 0.929 . S
H780 C819 0.930 . S
H781 C820 0.931 . S
H782 C822 0.930 . S
H783 C823 0.929 . S
H784 C825 0.931 . S
H785 C826 0.930 . S
H786 C828 0.930 . S
H787 C829 0.932 . S
H788 C831 0.930 . S
H789 C832 0.929 . S
H790 C834 0.931 . S
H791 C835 0.930 . S
H792 C837 0.929 . S
H793 C838 0.931 . S
H794 C840 0.930 . S
H795 C841 0.929 . S
O796 H770 0.856 . S
O796 C842 1.300 . S
O797 C842 1.209 . S
O798 C843 1.199 . S
O799 H771 0.854 . S
O799 C843 1.297 . S
C800 C801 1.404 . S
C800 C805 1.397 . S
C800 C806 1.492 . S
C801 C800 1.404 . S
C801 C802 1.396 . S
C801 C812 1.492 . S
C802 C801 1.396 . S
C802 C803 1.397 . S
C802 C818 1.509 . S
C803 C802 1.397 . S
C803 C804 1.412 . S
C803 C824 1.485 . S
C804 C803 1.412 . S
C804 C805 1.388 . S
C804 C830 1.490 . S
C805 C800 1.397 . S
C805 C804 1.388 . S
C805 C836 1.519 . S
C806 C800 1.492 . S
C806 C807 1.363 . S
C806 C811 1.390 . S
C807 H772 0.930 . S
C807 C806 1.363 . S
C807 C808 1.372 . S
C808 H773 0.930 . S
C808 C807 1.372 . S
C808 C809 1.383 . S
C809 C808 1.383 . S
C809 C810 1.395 . S
C810 H774 0.930 . S
C810 C809 1.395 . S
C810 C811 1.362 . S
C811 H775 0.930 . S
C811 C806 1.390 . S
C811 C810 1.362 . S
C812 C801 1.492 . S
C812 C813 1.377 . S
C812 C817 1.397 . S
C813 H776 0.931 . S
C813 C812 1.377 . S
C813 C814 1.376 . S
C814 H777 0.930 . S
C814 C813 1.376 . S
C814 C815 1.376 . S
C815 C814 1.376 . S
C815 C816 1.378 . S
C815 C842 1.486 . S
C816 H778 0.930 . S
C816 C815 1.378 . S
C816 C817 1.376 . S
C817 H779 0.929 . S
C817 C812 1.397 . S
C817 C816 1.376 . S
C818 C802 1.509 . S
C818 C819 1.391 . S
C818 C823 1.386 . S
C819 H780 0.930 . S
C819 C818 1.391 . S
C819 C820 1.375 . S
C820 H781 0.931 . S
C820 C819 1.375 . S
C820 C821 1.375 . S
C821 C820 1.375 . S
C821 C822 1.361 . S
C822 H782 0.930 . S
C822 C821 1.361 . S
C822 C823 1.399 . S
C823 H783 0.929 . S
C823 C818 1.386 . S
C823 C822 1.399 . S
C824 C803 1.485 . S
C824 C825 1.394 . S
C824 C829 1.360 . S
C825 H784 0.931 . S
C825 C824 1.394 . S
C825 C826 1.372 . S
C826 H785 0.930 . S
C826 C825 1.372 . S
C826 C827 1.397 . S
C827 C826 1.397 . S
C827 C828 1.390 . S
C827 C843 1.476 . S
C828 H786 0.930 . S
C828 C827 1.390 . S
C828 C829 1.366 . S
C829 H787 0.932 . S
C829 C824 1.360 . S
C829 C828 1.366 . S
C830 C804 1.490 . S
C830 C831 1.380 . S
C830 C835 1.386 . S
C831 H788 0.930 . S
C831 C830 1.380 . S
C831 C832 1.381 . S
C832 H789 0.929 . S
C832 C831 1.381 . S
C832 C833 1.371 . S
C833 C832 1.371 . S
C833 C834 1.380 . S
C834 H790 0.931 . S
C834 C833 1.380 . S
C834 C835 1.387 . S
C835 H791 0.930 . S
C835 C830 1.386 . S
C835 C834 1.387 . S
C836 C805 1.519 . S
C836 C837 1.377 . S
C836 C841 1.361 . S
C837 H792 0.929 . S
C837 C836 1.377 . S
C837 C838 1.386 . S
C838 H793 0.931 . S
C838 C837 1.386 . S
C838 C839 1.363 . S
C839 C838 1.363 . S
C839 C840 1.385 . S
C840 H794 0.930 . S
C840 C839 1.385 . S
C840 C841 1.396 . S
C841 H795 0.929 . S
C841 C836 1.361 . S
C841 C840 1.396 . S
C842 O796 1.300 . S
C842 O797 1.209 . S
C842 C815 1.486 . S
C843 O798 1.199 . S
C843 O799 1.297 . S
C843 C827 1.476 . S
H844 O870 0.856 . S
H845 O873 0.854 . S
H846 C881 0.930 . S
H847 C882 0.930 . S
H848 C884 0.930 . S
H849 C885 0.930 . S
H850 C887 0.931 . S
H851 C888 0.930 . S
H852 C890 0.930 . S
H853 C891 0.929 . S
H854 C893 0.930 . S
H855 C894 0.931 . S
H856 C896 0.930 . S
H857 C897 0.929 . S
H858 C899 0.931 . S
H859 C900 0.930 . S
H860 C902 0.930 . S
H861 C903 0.932 . S
H862 C905 0.930 . S
H863 C906 0.929 . S
H864 C908 0.931 . S
H865 C909 0.930 . S
H866 C911 0.929 . S
H867 C912 0.931 . S
H868 C914 0.930 . S
H869 C915 0.929 . S
O870 H844 0.856 . S
O870 C916 1.300 . S
O871 C916 1.209 . S
O872 C917 1.199 . S
O873 H845 0.854 . S
O873 C917 1.297 . S
C874 C875 1.404 . S
C874 C879 1.397 . S
C874 C880 1.492 . S
C875 C874 1.404 . S
C875 C876 1.396 . S
C875 C886 1.492 . S
C876 C875 1.396 . S
C876 C877 1.397 . S
C876 C892 1.509 . S
C877 C876 1.397 . S
C877 C878 1.412 . S
C877 C898 1.485 . S
C878 C877 1.412 . S
C878 C879 1.388 . S
C878 C904 1.490 . S
C879 C874 1.397 . S
C879 C878 1.388 . S
C879 C910 1.519 . S
C880 C874 1.492 . S
C880 C881 1.363 . S
C880 C885 1.390 . S
C881 H846 0.930 . S
C881 C880 1.363 . S
C881 C882 1.372 . S
C882 H847 0.930 . S
C882 C881 1.372 . S
C882 C883 1.383 . S
C883 C882 1.383 . S
C883 C884 1.395 . S
C884 H848 0.930 . S
C884 C883 1.395 . S
C884 C885 1.362 . S
C885 H849 0.930 . S
C885 C880 1.390 . S
C885 C884 1.362 . S
C886 C875 1.492 . S
C886 C887 1.377 . S
C886 C891 1.397 . S
C887 H850 0.931 . S
C887 C886 1.377 . S
C887 C888 1.376 . S
C888 H851 0.930 . S
C888 C887 1.376 . S
C888 C889 1.376 . S
C889 C888 1.376 . S
C889 C890 1.378 . S
C889 C916 1.486 . S
C890 H852 0.930 . S
C890 C889 1.378 . S
C890 C891 1.376 . S
C891 H853 0.929 . S
C891 C886 1.397 . S
C891 C890 1.376 . S
C892 C876 1.509 . S
C892 C893 1.391 . S
C892 C897 1.386 . S
C893 H854 0.930 . S
C893 C892 1.391 . S
C893 C894 1.375 . S
C894 H855 0.931 . S
C894 C893 1.375 . S
C894 C895 1.375 . S
C895 C894 1.375 . S
C895 C896 1.361 . S
C896 H856 0.930 . S
C896 C895 1.361 . S
C896 C897 1.399 . S
C897 H857 0.929 . S
C897 C892 1.386 . S
C897 C896 1.399 . S
C898 C877 1.485 . S
C898 C899 1.394 . S
C898 C903 1.360 . S
C899 H858 0.931 . S
C899 C898 1.394 . S
C899 C900 1.372 . S
C900 H859 0.930 . S
C900 C899 1.372 . S
C900 C901 1.397 . S
C901 C900 1.397 . S
C901 C902 1.390 . S
C901 C917 1.476 . S
C902 H860 0.930 . S
C902 C901 1.390 . S
C902 C903 1.366 . S
C903 H861 0.932 . S
C903 C898 1.360 . S
C903 C902 1.366 . S
C904 C878 1.490 . S
C904 C905 1.380 . S
C904 C909 1.386 . S
C905 H862 0.930 . S
C905 C904 1.380 . S
C905 C906 1.381 . S
C906 H863 0.929 . S
C906 C905 1.381 . S
C906 C907 1.371 . S
C907 C906 1.371 . S
C907 C908 1.380 . S
C908 H864 0.931 . S
C908 C907 1.380 . S
C908 C909 1.387 . S
C909 H865 0.930 . S
C909 C904 1.386 . S
C909 C908 1.387 . S
C910 C879 1.519 . S
C910 C911 1.377 . S
C910 C915 1.361 . S
C911 H866 0.929 . S
C911 C910 1.377 . S
C911 C912 1.386 . S
C912 H867 0.931 . S
C912 C911 1.386 . S
C912 C913 1.363 . S
C913 C912 1.363 . S
C913 C914 1.385 . S
C914 H868 0.930 . S
C914 C913 1.385 . S
C914 C915 1.396 . S
C915 H869 0.929 . S
C915 C910 1.361 . S
C915 C914 1.396 . S
C916 O870 1.300 . S
C916 O871 1.209 . S
C916 C889 1.486 . S
C917 O872 1.199 . S
C917 O873 1.297 . S
C917 C901 1.476 . S
H918 O944 0.856 . S
H919 O947 0.854 . S
H920 C955 0.930 . S
H921 C956 0.930 . S
H922 C958 0.930 . S
H923 C959 0.930 . S
H924 C961 0.948 . S
H925 C962 0.930 1_655 S
H926 C964 0.930 . S
H927 C965 0.929 . S
H928 C967 0.930 . S
H929 C968 0.931 1_655 S
H930 C970 0.930 . S
H931 C971 0.929 . S
H932 C973 0.931 . S
H933 C974 0.930 . S
H934 C976 0.930 . S
H935 C977 0.932 . S
H936 C979 0.930 . S
H937 C980 0.929 . S
H938 C982 0.931 . S
H939 C983 0.930 . S
H940 C985 0.929 . S
H941 C986 0.931 . S
H942 C988 0.930 . S
H943 C989 0.929 . S
O944 H918 0.856 . S
O944 C990 1.300 . S
O945 C990 1.209 . S
O946 C991 1.199 1_655 S
O947 H919 0.854 . S
O947 C991 1.297 . S
C948 C949 1.404 . S
C948 C953 1.395 . S
C948 C954 1.492 . S
C949 C948 1.404 . S
C949 C950 1.396 . S
C949 C960 1.492 . S
C950 C949 1.396 . S
C950 C951 1.397 . S
C950 C966 1.509 . S
C951 C950 1.397 . S
C951 C952 1.424 . S
C951 C972 1.485 . S
C952 C951 1.424 . S
C952 C953 1.405 . S
C952 C978 1.490 1_455 S
C953 C948 1.395 . S
C953 C952 1.405 . S
C953 C984 1.478 1_455 S
C954 C948 1.492 . S
C954 C955 1.363 1_455 S
C954 C959 1.390 . S
C955 H920 0.930 . S
C955 C954 1.363 1_655 S
C955 C956 1.372 . S
C956 H921 0.930 . S
C956 C955 1.372 . S
C956 C957 1.383 . S
C957 C956 1.383 . S
C957 C958 1.395 1_655 S
C958 H922 0.930 . S
C958 C957 1.395 1_455 S
C958 C959 1.362 . S
C959 H923 0.930 . S
C959 C954 1.390 . S
C959 C958 1.362 . S
C960 C949 1.492 . S
C960 C961 1.359 1_455 S
C960 C965 1.397 . S
C961 H924 0.948 . S
C961 C960 1.359 1_655 S
C961 C962 1.379 1_655 S
C962 H925 0.930 1_455 S
C962 C961 1.379 1_455 S
C962 C963 1.376 . S
C963 C962 1.376 . S
C963 C964 1.378 . S
C963 C990 1.486 . S
C964 H926 0.930 . S
C964 C963 1.378 . S
C964 C965 1.376 . S
C965 H927 0.929 . S
C965 C960 1.397 . S
C965 C964 1.376 . S
C966 C950 1.509 . S
C966 C967 1.391 1_455 S
C966 C971 1.386 . S
C967 H928 0.930 . S
C967 C966 1.391 1_655 S
C967 C968 1.375 1_655 S
C968 H929 0.931 1_455 S
C968 C967 1.375 1_455 S
C968 C969 1.375 . S
C969 C968 1.375 . S
C969 C970 1.361 . S
C970 H930 0.930 . S
C970 C969 1.361 . S
C970 C971 1.399 . S
C971 H931 0.929 . S
C971 C966 1.386 . S
C971 C970 1.399 . S
C972 C951 1.485 . S
C972 C973 1.394 1_455 S
C972 C977 1.360 . S
C973 H932 0.931 . S
C973 C972 1.394 1_655 S
C973 C974 1.372 . S
C974 H933 0.930 . S
C974 C973 1.372 . S
C974 C975 1.397 1_655 S
C975 C974 1.397 1_455 S
C975 C976 1.390 . S
C975 C991 1.476 . S
C976 H934 0.930 . S
C976 C975 1.390 . S
C976 C977 1.366 . S
C977 H935 0.932 . S
C977 C972 1.360 . S
C977 C976 1.366 . S
C978 C952 1.490 1_655 S
C978 C979 1.380 . S
C978 C983 1.386 1_655 S
C979 H936 0.930 . S
C979 C978 1.380 . S
C979 C980 1.381 . S
C980 H937 0.929 . S
C980 C979 1.381 . S
C980 C981 1.371 . S
C981 C980 1.371 . S
C981 C982 1.380 1_655 S
C982 H938 0.931 . S
C982 C981 1.380 1_455 S
C982 C983 1.387 . S
C983 H939 0.930 . S
C983 C978 1.386 1_455 S
C983 C982 1.387 . S
C984 C953 1.478 1_655 S
C984 C985 1.432 . S
C984 C989 1.326 1_655 S
C985 H940 0.929 . S
C985 C984 1.432 . S
C985 C986 1.386 . S
C986 H941 0.931 . S
C986 C985 1.386 . S
C986 C987 1.363 . S
C987 C986 1.363 . S
C987 C988 1.385 1_655 S
C988 H942 0.930 . S
C988 C987 1.385 1_455 S
C988 C989 1.396 . S
C989 H943 0.929 . S
C989 C984 1.326 1_455 S
C989 C988 1.396 . S
C990 O944 1.300 . S
C990 O945 1.209 . S
C990 C963 1.486 . S
C991 O946 1.199 1_455 S
C991 O947 1.297 . S
C991 C975 1.476 . S
H992 O1018 0.856 . S
H993 O1021 0.854 . S
H994 C1029 0.930 . S
H995 C1030 0.930 . S
H996 C1032 0.930 . S
H997 C1033 0.930 . S
H998 C1035 0.931 . S
H999 C1036 0.930 . S
H1000 C1038 0.930 . S
H1001 C1039 0.929 . S
H1002 C1041 0.930 . S
H1003 C1042 0.931 . S
H1004 C1044 0.930 . S
H1005 C1045 0.929 . S
H1006 C1047 0.931 . S
H1007 C1048 0.930 . S
H1008 C1050 0.930 . S
H1009 C1051 0.932 . S
H1010 C1053 0.930 . S
H1011 C1054 0.929 . S
H1012 C1056 0.931 . S
H1013 C1057 0.930 . S
H1014 C1059 0.929 . S
H1015 C1060 0.931 . S
H1016 C1062 0.930 . S
H1017 C1063 0.929 . S
O1018 H992 0.856 . S
O1018 C1064 1.300 . S
O1019 C1064 1.209 . S
O1020 C1065 1.199 . S
O1021 H993 0.854 . S
O1021 C1065 1.297 . S
C1022 C1023 1.404 . S
C1022 C1027 1.397 . S
C1022 C1028 1.492 . S
C1023 C1022 1.404 . S
C1023 C1024 1.396 . S
C1023 C1034 1.492 . S
C1024 C1023 1.396 . S
C1024 C1025 1.397 . S
C1024 C1040 1.509 . S
C1025 C1024 1.397 . S
C1025 C1026 1.412 . S
C1025 C1046 1.485 . S
C1026 C1025 1.412 . S
C1026 C1027 1.388 . S
C1026 C1052 1.490 . S
C1027 C1022 1.397 . S
C1027 C1026 1.388 . S
C1027 C1058 1.519 . S
C1028 C1022 1.492 . S
C1028 C1029 1.363 . S
C1028 C1033 1.390 . S
C1029 H994 0.930 . S
C1029 C1028 1.363 . S
C1029 C1030 1.372 . S
C1030 H995 0.930 . S
C1030 C1029 1.372 . S
C1030 C1031 1.383 . S
C1031 C1030 1.383 . S
C1031 C1032 1.395 . S
C1032 H996 0.930 . S
C1032 C1031 1.395 . S
C1032 C1033 1.362 . S
C1033 H997 0.930 . S
C1033 C1028 1.390 . S
C1033 C1032 1.362 . S
C1034 C1023 1.492 . S
C1034 C1035 1.377 . S
C1034 C1039 1.397 . S
C1035 H998 0.931 . S
C1035 C1034 1.377 . S
C1035 C1036 1.376 . S
C1036 H999 0.930 . S
C1036 C1035 1.376 . S
C1036 C1037 1.376 . S
C1037 C1036 1.376 . S
C1037 C1038 1.378 . S
C1037 C1064 1.486 . S
C1038 H1000 0.930 . S
C1038 C1037 1.378 . S
C1038 C1039 1.376 . S
C1039 H1001 0.929 . S
C1039 C1034 1.397 . S
C1039 C1038 1.376 . S
C1040 C1024 1.509 . S
C1040 C1041 1.391 . S
C1040 C1045 1.386 . S
C1041 H1002 0.930 . S
C1041 C1040 1.391 . S
C1041 C1042 1.375 . S
C1042 H1003 0.931 . S
C1042 C1041 1.375 . S
C1042 C1043 1.375 . S
C1043 C1042 1.375 . S
C1043 C1044 1.361 . S
C1044 H1004 0.930 . S
C1044 C1043 1.361 . S
C1044 C1045 1.399 . S
C1045 H1005 0.929 . S
C1045 C1040 1.386 . S
C1045 C1044 1.399 . S
C1046 C1025 1.485 . S
C1046 C1047 1.394 . S
C1046 C1051 1.360 . S
C1047 H1006 0.931 . S
C1047 C1046 1.394 . S
C1047 C1048 1.372 . S
C1048 H1007 0.930 . S
C1048 C1047 1.372 . S
C1048 C1049 1.397 . S
C1049 C1048 1.397 . S
C1049 C1050 1.390 . S
C1049 C1065 1.476 . S
C1050 H1008 0.930 . S
C1050 C1049 1.390 . S
C1050 C1051 1.366 . S
C1051 H1009 0.932 . S
C1051 C1046 1.360 . S
C1051 C1050 1.366 . S
C1052 C1026 1.490 . S
C1052 C1053 1.380 . S
C1052 C1057 1.386 . S
C1053 H1010 0.930 . S
C1053 C1052 1.380 . S
C1053 C1054 1.381 . S
C1054 H1011 0.929 . S
C1054 C1053 1.381 . S
C1054 C1055 1.371 . S
C1055 C1054 1.371 . S
C1055 C1056 1.380 . S
C1056 H1012 0.931 . S
C1056 C1055 1.380 . S
C1056 C1057 1.387 . S
C1057 H1013 0.930 . S
C1057 C1052 1.386 . S
C1057 C1056 1.387 . S
C1058 C1027 1.519 . S
C1058 C1059 1.377 . S
C1058 C1063 1.361 . S
C1059 H1014 0.929 . S
C1059 C1058 1.377 . S
C1059 C1060 1.386 . S
C1060 H1015 0.931 . S
C1060 C1059 1.386 . S
C1060 C1061 1.363 . S
C1061 C1060 1.363 . S
C1061 C1062 1.385 . S
C1062 H1016 0.930 . S
C1062 C1061 1.385 . S
C1062 C1063 1.396 . S
C1063 H1017 0.929 . S
C1063 C1058 1.361 . S
C1063 C1062 1.396 . S
C1064 O1018 1.300 . S
C1064 O1019 1.209 . S
C1064 C1037 1.486 . S
C1065 O1020 1.199 . S
C1065 O1021 1.297 . S
C1065 C1049 1.476 . S
H1066 O1092 0.856 . S
H1067 O1095 0.854 . S
H1068 C1103 0.930 . S
H1069 C1104 0.930 . S
H1070 C1106 0.930 . S
H1071 C1107 0.930 . S
H1072 C1109 0.931 . S
H1073 C1110 0.941 . S
H1074 C1112 0.930 . S
H1075 C1113 0.929 . S
H1076 C1115 0.930 . S
H1077 C1116 0.931 . S
H1078 C1118 0.930 . S
H1079 C1119 0.929 . S
H1080 C1121 0.931 . S
H1081 C1122 0.930 . S
H1082 C1124 0.930 . S
H1083 C1125 0.932 . S
H1084 C1127 0.930 . S
H1085 C1128 0.929 . S
H1086 C1130 0.931 . S
H1087 C1131 0.930 . S
H1088 C1133 0.929 . S
H1089 C1134 0.931 . S
H1090 C1136 0.930 . S
H1091 C1137 0.929 . S
O1092 H1066 0.856 . S
O1092 C1138 1.300 . S
O1093 C1138 1.209 . S
O1094 C1139 1.199 1_545 S
O1095 H1067 0.854 . S
O1095 C1139 1.297 . S
C1096 C1097 1.404 . S
C1096 C1101 1.414 . S
C1096 C1102 1.492 . S
C1097 C1096 1.404 . S
C1097 C1098 1.396 . S
C1097 C1108 1.492 . S
C1098 C1097 1.396 . S
C1098 C1099 1.397 . S
C1098 C1114 1.509 . S
C1099 C1098 1.397 . S
C1099 C1100 1.412 . S
C1099 C1120 1.485 . S
C1100 C1099 1.412 . S
C1100 C1101 1.364 . S
C1100 C1126 1.490 1_565 S
C1101 C1096 1.414 . S
C1101 C1100 1.364 . S
C1101 C1132 1.534 1_565 S
C1102 C1096 1.492 . S
C1102 C1103 1.363 1_565 S
C1102 C1107 1.390 . S
C1103 H1068 0.930 . S
C1103 C1102 1.363 1_545 S
C1103 C1104 1.372 . S
C1104 H1069 0.930 . S
C1104 C1103 1.372 . S
C1104 C1105 1.383 . S
C1105 C1104 1.383 . S
C1105 C1106 1.395 1_545 S
C1106 H1070 0.930 . S
C1106 C1105 1.395 1_565 S
C1106 C1107 1.362 . S
C1107 H1071 0.930 . S
C1107 C1102 1.390 . S
C1107 C1106 1.362 . S
C1108 C1097 1.492 . S
C1108 C1109 1.377 1_565 S
C1108 C1113 1.397 . S
C1109 H1072 0.931 . S
C1109 C1108 1.377 1_545 S
C1109 C1110 1.382 . S
C1110 H1073 0.941 . S
C1110 C1109 1.382 . S
C1110 C1111 1.359 1_545 S
C1111 C1110 1.359 1_565 S
C1111 C1112 1.378 . S
C1111 C1138 1.486 . S
C1112 H1074 0.930 . S
C1112 C1111 1.378 . S
C1112 C1113 1.376 . S
C1113 H1075 0.929 . S
C1113 C1108 1.397 . S
C1113 C1112 1.376 . S
C1114 C1098 1.509 . S
C1114 C1115 1.391 1_565 S
C1114 C1119 1.386 . S
C1115 H1076 0.930 . S
C1115 C1114 1.391 1_545 S
C1115 C1116 1.375 . S
C1116 H1077 0.931 . S
C1116 C1115 1.375 . S
C1116 C1117 1.375 1_545 S
C1117 C1116 1.375 1_565 S
C1117 C1118 1.361 . S
C1118 H1078 0.930 . S
C1118 C1117 1.361 . S
C1118 C1119 1.399 . S
C1119 H1079 0.929 . S
C1119 C1114 1.386 . S
C1119 C1118 1.399 . S
C1120 C1099 1.485 . S
C1120 C1121 1.394 1_565 S
C1120 C1125 1.360 . S
C1121 H1080 0.931 . S
C1121 C1120 1.394 1_545 S
C1121 C1122 1.372 . S
C1122 H1081 0.930 . S
C1122 C1121 1.372 . S
C1122 C1123 1.397 1_545 S
C1123 C1122 1.397 1_565 S
C1123 C1124 1.390 . S
C1123 C1139 1.476 . S
C1124 H1082 0.930 . S
C1124 C1123 1.390 . S
C1124 C1125 1.366 . S
C1125 H1083 0.932 . S
C1125 C1120 1.360 . S
C1125 C1124 1.366 . S
C1126 C1100 1.490 1_545 S
C1126 C1127 1.380 . S
C1126 C1131 1.386 1_545 S
C1127 H1084 0.930 . S
C1127 C1126 1.380 . S
C1127 C1128 1.381 . S
C1128 H1085 0.929 . S
C1128 C1127 1.381 . S
C1128 C1129 1.371 . S
C1129 C1128 1.371 . S
C1129 C1130 1.380 1_545 S
C1130 H1086 0.931 . S
C1130 C1129 1.380 1_565 S
C1130 C1131 1.387 . S
C1131 H1087 0.930 . S
C1131 C1126 1.386 1_565 S
C1131 C1130 1.387 . S
C1132 C1101 1.534 1_545 S
C1132 C1133 1.377 . S
C1132 C1137 1.360 1_545 S
C1133 H1088 0.929 . S
C1133 C1132 1.377 . S
C1133 C1134 1.386 . S
C1134 H1089 0.931 . S
C1134 C1133 1.386 . S
C1134 C1135 1.363 1_545 S
C1135 C1134 1.363 1_565 S
C1135 C1136 1.385 . S
C1136 H1090 0.930 . S
C1136 C1135 1.385 . S
C1136 C1137 1.396 . S
C1137 H1091 0.929 . S
C1137 C1132 1.360 1_565 S
C1137 C1136 1.396 . S
C1138 O1092 1.300 . S
C1138 O1093 1.209 . S
C1138 C1111 1.486 . S
C1139 O1094 1.199 1_565 S
C1139 O1095 1.297 . S
C1139 C1123 1.476 . S
H1140 O1166 0.856 . S
H1141 O1169 0.854 . S
H1142 C1177 0.930 . S
H1143 C1178 0.930 . S
H1144 C1180 0.930 . S
H1145 C1181 0.930 . S
H1146 C1183 0.931 . S
H1147 C1184 0.930 . S
H1148 C1186 0.930 . S
H1149 C1187 0.929 . S
H1150 C1189 0.930 . S
H1151 C1190 0.931 . S
H1152 C1192 0.930 . S
H1153 C1193 0.929 . S
H1154 C1195 0.931 . S
H1155 C1196 0.930 . S
H1156 C1198 0.930 . S
H1157 C1199 0.932 . S
H1158 C1201 0.930 . S
H1159 C1202 0.929 . S
H1160 C1204 0.931 . S
H1161 C1205 0.930 . S
H1162 C1207 0.929 . S
H1163 C1208 0.931 . S
H1164 C1210 0.930 . S
H1165 C1211 0.929 . S
O1166 H1140 0.856 . S
O1166 C1212 1.300 . S
O1167 C1212 1.209 1_565 S
O1168 C1213 1.199 1_545 S
O1169 H1141 0.854 . S
O1169 C1213 1.297 . S
C1170 C1171 1.404 . S
C1170 C1175 1.396 1_545 S
C1170 C1176 1.492 . S
C1171 C1170 1.404 . S
C1171 C1172 1.396 . S
C1171 C1182 1.492 . S
C1172 C1171 1.396 . S
C1172 C1173 1.392 1_545 S
C1172 C1188 1.509 . S
C1173 C1172 1.392 1_565 S
C1173 C1174 1.419 . S
C1173 C1194 1.497 . S
C1174 C1173 1.419 . S
C1174 C1175 1.367 . S
C1174 C1200 1.500 . S
C1175 C1170 1.396 1_565 S
C1175 C1174 1.367 . S
C1175 C1206 1.518 . S
C1176 C1170 1.492 . S
C1176 C1177 1.363 . S
C1176 C1181 1.390 1_545 S
C1177 H1142 0.930 . S
C1177 C1176 1.363 . S
C1177 C1178 1.372 . S
C1178 H1143 0.930 . S
C1178 C1177 1.372 . S
C1178 C1179 1.383 . S
C1179 C1178 1.383 . S
C1179 C1180 1.395 1_545 S
C1180 H1144 0.930 . S
C1180 C1179 1.395 1_565 S
C1180 C1181 1.362 . S
C1181 H1145 0.930 . S
C1181 C1176 1.390 1_565 S
C1181 C1180 1.362 . S
C1182 C1171 1.492 . S
C1182 C1183 1.377 . S
C1182 C1187 1.397 1_545 S
C1183 H1146 0.931 . S
C1183 C1182 1.377 . S
C1183 C1184 1.376 . S
C1184 H1147 0.930 . S
C1184 C1183 1.376 . S
C1184 C1185 1.376 . S
C1185 C1184 1.376 . S
C1185 C1186 1.378 1_545 S
C1185 C1212 1.486 . S
C1186 H1148 0.930 . S
C1186 C1185 1.378 1_565 S
C1186 C1187 1.376 . S
C1187 H1149 0.929 . S
C1187 C1182 1.397 1_565 S
C1187 C1186 1.376 . S
C1188 C1172 1.509 . S
C1188 C1189 1.391 . S
C1188 C1193 1.386 1_545 S
C1189 H1150 0.930 . S
C1189 C1188 1.391 . S
C1189 C1190 1.375 . S
C1190 H1151 0.931 . S
C1190 C1189 1.375 . S
C1190 C1191 1.416 . S
C1191 C1190 1.416 . S
C1191 C1192 1.339 1_545 S
C1192 H1152 0.930 . S
C1192 C1191 1.339 1_565 S
C1192 C1193 1.399 . S
C1193 H1153 0.929 . S
C1193 C1188 1.386 1_565 S
C1193 C1192 1.399 . S
C1194 C1173 1.497 . S
C1194 C1195 1.394 1_565 S
C1194 C1199 1.360 . S
C1195 H1154 0.931 . S
C1195 C1194 1.394 1_545 S
C1195 C1196 1.372 . S
C1196 H1155 0.930 . S
C1196 C1195 1.372 . S
C1196 C1197 1.397 1_545 S
C1197 C1196 1.397 1_565 S
C1197 C1198 1.390 . S
C1197 C1213 1.476 . S
C1198 H1156 0.930 . S
C1198 C1197 1.390 . S
C1198 C1199 1.366 . S
C1199 H1157 0.932 . S
C1199 C1194 1.360 . S
C1199 C1198 1.366 . S
C1200 C1174 1.500 . S
C1200 C1201 1.380 1_565 S
C1200 C1205 1.386 . S
C1201 H1158 0.930 . S
C1201 C1200 1.380 1_545 S
C1201 C1202 1.381 . S
C1202 H1159 0.929 . S
C1202 C1201 1.381 . S
C1202 C1203 1.375 1_545 S
C1203 C1202 1.375 1_565 S
C1203 C1204 1.376 . S
C1204 H1160 0.931 . S
C1204 C1203 1.376 . S
C1204 C1205 1.387 . S
C1205 H1161 0.930 . S
C1205 C1200 1.386 . S
C1205 C1204 1.387 . S
C1206 C1175 1.518 . S
C1206 C1207 1.377 1_565 S
C1206 C1211 1.361 . S
C1207 H1162 0.929 . S
C1207 C1206 1.377 1_545 S
C1207 C1208 1.386 . S
C1208 H1163 0.931 . S
C1208 C1207 1.386 . S
C1208 C1209 1.363 1_545 S
C1209 C1208 1.363 1_565 S
C1209 C1210 1.385 . S
C1210 H1164 0.930 . S
C1210 C1209 1.385 . S
C1210 C1211 1.396 . S
C1211 H1165 0.929 . S
C1211 C1206 1.361 . S
C1211 C1210 1.396 . S
C1212 O1166 1.300 . S
C1212 O1167 1.209 1_545 S
C1212 C1185 1.486 . S
C1213 O1168 1.199 1_565 S
C1213 O1169 1.297 . S
C1213 C1197 1.476 . S
H1214 O1240 0.856 . S
H1215 O1243 0.854 . S
H1216 C1251 0.930 . S
H1217 C1252 0.930 . S
H1218 C1254 0.930 . S
H1219 C1255 0.930 . S
H1220 C1257 0.931 . S
H1221 C1258 0.930 . S
H1222 C1260 0.930 . S
H1223 C1261 0.929 . S
H1224 C1263 0.930 . S
H1225 C1264 0.931 . S
H1226 C1266 0.930 . S
H1227 C1267 0.929 . S
H1228 C1269 0.931 . S
H1229 C1270 0.930 . S
H1230 C1272 0.930 . S
H1231 C1273 0.932 . S
H1232 C1275 0.930 . S
H1233 C1276 0.929 . S
H1234 C1278 0.931 . S
H1235 C1279 0.930 . S
H1236 C1281 0.929 . S
H1237 C1282 0.931 . S
H1238 C1284 0.930 . S
H1239 C1285 0.929 . S
O1240 H1214 0.856 . S
O1240 C1286 1.300 . S
O1241 C1286 1.209 1_455 S
O1242 C1287 1.199 1_655 S
O1243 H1215 0.854 . S
O1243 C1287 1.297 . S
C1244 C1245 1.404 . S
C1244 C1249 1.396 1_655 S
C1244 C1250 1.492 . S
C1245 C1244 1.404 . S
C1245 C1246 1.396 . S
C1245 C1256 1.492 . S
C1246 C1245 1.396 . S
C1246 C1247 1.396 . S
C1246 C1262 1.509 . S
C1247 C1246 1.396 . S
C1247 C1248 1.392 1_655 S
C1247 C1268 1.493 1_655 S
C1248 C1247 1.392 1_455 S
C1248 C1249 1.412 . S
C1248 C1274 1.485 . S
C1249 C1244 1.396 1_455 S
C1249 C1248 1.412 . S
C1249 C1280 1.516 . S
C1250 C1244 1.492 . S
C1250 C1251 1.363 . S
C1250 C1255 1.390 1_655 S
C1251 H1216 0.930 . S
C1251 C1250 1.363 . S
C1251 C1252 1.372 . S
C1252 H1217 0.930 . S
C1252 C1251 1.372 . S
C1252 C1253 1.383 . S
C1253 C1252 1.383 . S
C1253 C1254 1.395 1_655 S
C1254 H1218 0.930 . S
C1254 C1253 1.395 1_455 S
C1254 C1255 1.362 . S
C1255 H1219 0.930 . S
C1255 C1250 1.390 1_455 S
C1255 C1254 1.362 . S
C1256 C1245 1.492 . S
C1256 C1257 1.377 . S
C1256 C1261 1.397 1_655 S
C1257 H1220 0.931 . S
C1257 C1256 1.377 . S
C1257 C1258 1.376 . S
C1258 H1221 0.930 . S
C1258 C1257 1.376 . S
C1258 C1259 1.376 . S
C1259 C1258 1.376 . S
C1259 C1260 1.378 1_655 S
C1259 C1286 1.486 . S
C1260 H1222 0.930 . S
C1260 C1259 1.378 1_455 S
C1260 C1261 1.376 . S
C1261 H1223 0.929 . S
C1261 C1256 1.397 1_455 S
C1261 C1260 1.376 . S
C1262 C1246 1.509 . S
C1262 C1263 1.391 . S
C1262 C1267 1.386 1_655 S
C1263 H1224 0.930 . S
C1263 C1262 1.391 . S
C1263 C1264 1.375 . S
C1264 H1225 0.931 . S
C1264 C1263 1.375 . S
C1264 C1265 1.375 . S
C1265 C1264 1.375 . S
C1265 C1266 1.361 1_655 S
C1266 H1226 0.930 . S
C1266 C1265 1.361 1_455 S
C1266 C1267 1.399 . S
C1267 H1227 0.929 . S
C1267 C1262 1.386 1_455 S
C1267 C1266 1.399 . S
C1268 C1247 1.493 1_455 S
C1268 C1269 1.394 1_455 S
C1268 C1273 1.360 . S
C1269 H1228 0.931 . S
C1269 C1268 1.394 1_655 S
C1269 C1270 1.372 . S
C1270 H1229 0.930 . S
C1270 C1269 1.372 . S
C1270 C1271 1.397 1_655 S
C1271 C1270 1.397 1_455 S
C1271 C1272 1.390 . S
C1271 C1287 1.476 . S
C1272 H1230 0.930 . S
C1272 C1271 1.390 . S
C1272 C1273 1.366 . S
C1273 H1231 0.932 . S
C1273 C1268 1.360 . S
C1273 C1272 1.366 . S
C1274 C1248 1.485 . S
C1274 C1275 1.380 1_455 S
C1274 C1279 1.386 . S
C1275 H1232 0.930 . S
C1275 C1274 1.380 1_655 S
C1275 C1276 1.381 . S
C1276 H1233 0.929 . S
C1276 C1275 1.381 . S
C1276 C1277 1.371 1_655 S
C1277 C1276 1.371 1_455 S
C1277 C1278 1.380 . S
C1278 H1234 0.931 . S
C1278 C1277 1.380 . S
C1278 C1279 1.387 . S
C1279 H1235 0.930 . S
C1279 C1274 1.386 . S
C1279 C1278 1.387 . S
C1280 C1249 1.516 . S
C1280 C1281 1.377 1_455 S
C1280 C1285 1.361 . S
C1281 H1236 0.929 . S
C1281 C1280 1.377 1_655 S
C1281 C1282 1.386 . S
C1282 H1237 0.931 . S
C1282 C1281 1.386 . S
C1282 C1283 1.363 1_655 S
C1283 C1282 1.363 1_455 S
C1283 C1284 1.385 . S
C1284 H1238 0.930 . S
C1284 C1283 1.385 . S
C1284 C1285 1.396 . S
C1285 H1239 0.929 . S
C1285 C1280 1.361 . S
C1285 C1284 1.396 . S
C1286 O1240 1.300 . S
C1286 O1241 1.209 1_655 S
C1286 C1259 1.486 . S
C1287 O1242 1.199 1_455 S
C1287 O1243 1.297 . S
C1287 C1271 1.476 . S
H1288 O1314 0.856 . S
H1289 O1317 0.854 . S
H1290 C1325 0.930 . S
H1291 C1326 0.930 . S
H1292 C1328 0.930 . S
H1293 C1329 0.930 . S
H1294 C1331 0.931 . S
H1295 C1332 0.930 . S
H1296 C1334 0.930 . S
H1297 C1335 0.929 . S
H1298 C1337 0.930 . S
H1299 C1338 0.931 . S
H1300 C1340 0.930 . S
H1301 C1341 0.929 . S
H1302 C1343 0.931 . S
H1303 C1344 0.930 . S
H1304 C1346 0.930 . S
H1305 C1347 0.932 . S
H1306 C1349 0.930 . S
H1307 C1350 0.929 . S
H1308 C1352 0.931 . S
H1309 C1353 0.930 . S
H1310 C1355 0.929 . S
H1311 C1356 0.931 . S
H1312 C1358 0.930 . S
H1313 C1359 0.929 . S
O1314 H1288 0.856 . S
O1314 C1360 1.300 . S
O1315 C1360 1.209 . S
O1316 C1361 1.199 . S
O1317 H1289 0.854 . S
O1317 C1361 1.297 . S
C1318 C1319 1.404 . S
C1318 C1323 1.397 . S
C1318 C1324 1.492 . S
C1319 C1318 1.404 . S
C1319 C1320 1.396 . S
C1319 C1330 1.492 . S
C1320 C1319 1.396 . S
C1320 C1321 1.397 . S
C1320 C1336 1.509 . S
C1321 C1320 1.397 . S
C1321 C1322 1.412 . S
C1321 C1342 1.485 . S
C1322 C1321 1.412 . S
C1322 C1323 1.388 . S
C1322 C1348 1.490 . S
C1323 C1318 1.397 . S
C1323 C1322 1.388 . S
C1323 C1354 1.519 . S
C1324 C1318 1.492 . S
C1324 C1325 1.363 . S
C1324 C1329 1.390 . S
C1325 H1290 0.930 . S
C1325 C1324 1.363 . S
C1325 C1326 1.372 . S
C1326 H1291 0.930 . S
C1326 C1325 1.372 . S
C1326 C1327 1.383 . S
C1327 C1326 1.383 . S
C1327 C1328 1.395 . S
C1328 H1292 0.930 . S
C1328 C1327 1.395 . S
C1328 C1329 1.362 . S
C1329 H1293 0.930 . S
C1329 C1324 1.390 . S
C1329 C1328 1.362 . S
C1330 C1319 1.492 . S
C1330 C1331 1.377 . S
C1330 C1335 1.397 . S
C1331 H1294 0.931 . S
C1331 C1330 1.377 . S
C1331 C1332 1.376 . S
C1332 H1295 0.930 . S
C1332 C1331 1.376 . S
C1332 C1333 1.376 . S
C1333 C1332 1.376 . S
C1333 C1334 1.378 . S
C1333 C1360 1.486 . S
C1334 H1296 0.930 . S
C1334 C1333 1.378 . S
C1334 C1335 1.376 . S
C1335 H1297 0.929 . S
C1335 C1330 1.397 . S
C1335 C1334 1.376 . S
C1336 C1320 1.509 . S
C1336 C1337 1.391 . S
C1336 C1341 1.386 . S
C1337 H1298 0.930 . S
C1337 C1336 1.391 . S
C1337 C1338 1.375 . S
C1338 H1299 0.931 . S
C1338 C1337 1.375 . S
C1338 C1339 1.375 . S
C1339 C1338 1.375 . S
C1339 C1340 1.361 . S
C1340 H1300 0.930 . S
C1340 C1339 1.361 . S
C1340 C1341 1.399 . S
C1341 H1301 0.929 . S
C1341 C1336 1.386 . S
C1341 C1340 1.399 . S
C1342 C1321 1.485 . S
C1342 C1343 1.394 . S
C1342 C1347 1.360 . S
C1343 H1302 0.931 . S
C1343 C1342 1.394 . S
C1343 C1344 1.372 . S
C1344 H1303 0.930 . S
C1344 C1343 1.372 . S
C1344 C1345 1.397 . S
C1345 C1344 1.397 . S
C1345 C1346 1.390 . S
C1345 C1361 1.476 . S
C1346 H1304 0.930 . S
C1346 C1345 1.390 . S
C1346 C1347 1.366 . S
C1347 H1305 0.932 . S
C1347 C1342 1.360 . S
C1347 C1346 1.366 . S
C1348 C1322 1.490 . S
C1348 C1349 1.380 . S
C1348 C1353 1.386 . S
C1349 H1306 0.930 . S
C1349 C1348 1.380 . S
C1349 C1350 1.381 . S
C1350 H1307 0.929 . S
C1350 C1349 1.381 . S
C1350 C1351 1.371 . S
C1351 C1350 1.371 . S
C1351 C1352 1.380 . S
C1352 H1308 0.931 . S
C1352 C1351 1.380 . S
C1352 C1353 1.387 . S
C1353 H1309 0.930 . S
C1353 C1348 1.386 . S
C1353 C1352 1.387 . S
C1354 C1323 1.519 . S
C1354 C1355 1.377 . S
C1354 C1359 1.361 . S
C1355 H1310 0.929 . S
C1355 C1354 1.377 . S
C1355 C1356 1.386 . S
C1356 H1311 0.931 . S
C1356 C1355 1.386 . S
C1356 C1357 1.363 . S
C1357 C1356 1.363 . S
C1357 C1358 1.385 . S
C1358 H1312 0.930 . S
C1358 C1357 1.385 . S
C1358 C1359 1.396 . S
C1359 H1313 0.929 . S
C1359 C1354 1.361 . S
C1359 C1358 1.396 . S
C1360 O1314 1.300 . S
C1360 O1315 1.209 . S
C1360 C1333 1.486 . S
C1361 O1316 1.199 . S
C1361 O1317 1.297 . S
C1361 C1345 1.476 . S
H1362 O1388 0.856 . S
H1363 O1391 0.854 . S
H1364 C1399 0.930 . S
H1365 C1400 0.930 . S
H1366 C1402 0.930 . S
H1367 C1403 0.930 . S
H1368 C1405 0.931 . S
H1369 C1406 0.930 . S
H1370 C1408 0.930 . S
H1371 C1409 0.929 . S
H1372 C1411 0.930 . S
H1373 C1412 0.931 . S
H1374 C1414 0.930 . S
H1375 C1415 0.929 . S
H1376 C1417 0.931 . S
H1377 C1418 0.930 . S
H1378 C1420 0.930 . S
H1379 C1421 0.932 . S
H1380 C1423 0.930 . S
H1381 C1424 0.929 . S
H1382 C1426 0.931 . S
H1383 C1427 0.930 . S
H1384 C1429 0.929 . S
H1385 C1430 0.931 . S
H1386 C1432 0.930 . S
H1387 C1433 0.929 . S
O1388 H1362 0.856 . S
O1388 C1434 1.300 . S
O1389 C1434 1.209 . S
O1390 C1435 1.199 . S
O1391 H1363 0.854 . S
O1391 C1435 1.297 . S
C1392 C1393 1.404 . S
C1392 C1397 1.397 . S
C1392 C1398 1.492 . S
C1393 C1392 1.404 . S
C1393 C1394 1.396 . S
C1393 C1404 1.492 . S
C1394 C1393 1.396 . S
C1394 C1395 1.397 . S
C1394 C1410 1.509 . S
C1395 C1394 1.397 . S
C1395 C1396 1.412 . S
C1395 C1416 1.485 . S
C1396 C1395 1.412 . S
C1396 C1397 1.388 . S
C1396 C1422 1.490 . S
C1397 C1392 1.397 . S
C1397 C1396 1.388 . S
C1397 C1428 1.519 . S
C1398 C1392 1.492 . S
C1398 C1399 1.363 . S
C1398 C1403 1.390 . S
C1399 H1364 0.930 . S
C1399 C1398 1.363 . S
C1399 C1400 1.372 . S
C1400 H1365 0.930 . S
C1400 C1399 1.372 . S
C1400 C1401 1.383 . S
C1401 C1400 1.383 . S
C1401 C1402 1.395 . S
C1402 H1366 0.930 . S
C1402 C1401 1.395 . S
C1402 C1403 1.362 . S
C1403 H1367 0.930 . S
C1403 C1398 1.390 . S
C1403 C1402 1.362 . S
C1404 C1393 1.492 . S
C1404 C1405 1.377 . S
C1404 C1409 1.397 . S
C1405 H1368 0.931 . S
C1405 C1404 1.377 . S
C1405 C1406 1.376 . S
C1406 H1369 0.930 . S
C1406 C1405 1.376 . S
C1406 C1407 1.376 . S
C1407 C1406 1.376 . S
C1407 C1408 1.378 . S
C1407 C1434 1.486 . S
C1408 H1370 0.930 . S
C1408 C1407 1.378 . S
C1408 C1409 1.376 . S
C1409 H1371 0.929 . S
C1409 C1404 1.397 . S
C1409 C1408 1.376 . S
C1410 C1394 1.509 . S
C1410 C1411 1.391 . S
C1410 C1415 1.386 . S
C1411 H1372 0.930 . S
C1411 C1410 1.391 . S
C1411 C1412 1.375 . S
C1412 H1373 0.931 . S
C1412 C1411 1.375 . S
C1412 C1413 1.375 . S
C1413 C1412 1.375 . S
C1413 C1414 1.361 . S
C1414 H1374 0.930 . S
C1414 C1413 1.361 . S
C1414 C1415 1.399 . S
C1415 H1375 0.929 . S
C1415 C1410 1.386 . S
C1415 C1414 1.399 . S
C1416 C1395 1.485 . S
C1416 C1417 1.394 . S
C1416 C1421 1.360 . S
C1417 H1376 0.931 . S
C1417 C1416 1.394 . S
C1417 C1418 1.372 . S
C1418 H1377 0.930 . S
C1418 C1417 1.372 . S
C1418 C1419 1.397 . S
C1419 C1418 1.397 . S
C1419 C1420 1.390 . S
C1419 C1435 1.476 . S
C1420 H1378 0.930 . S
C1420 C1419 1.390 . S
C1420 C1421 1.366 . S
C1421 H1379 0.932 . S
C1421 C1416 1.360 . S
C1421 C1420 1.366 . S
C1422 C1396 1.490 . S
C1422 C1423 1.380 . S
C1422 C1427 1.386 . S
C1423 H1380 0.930 . S
C1423 C1422 1.380 . S
C1423 C1424 1.381 . S
C1424 H1381 0.929 . S
C1424 C1423 1.381 . S
C1424 C1425 1.371 . S
C1425 C1424 1.371 . S
C1425 C1426 1.380 . S
C1426 H1382 0.931 . S
C1426 C1425 1.380 . S
C1426 C1427 1.387 . S
C1427 H1383 0.930 . S
C1427 C1422 1.386 . S
C1427 C1426 1.387 . S
C1428 C1397 1.519 . S
C1428 C1429 1.377 . S
C1428 C1433 1.361 . S
C1429 H1384 0.929 . S
C1429 C1428 1.377 . S
C1429 C1430 1.386 . S
C1430 H1385 0.931 . S
C1430 C1429 1.386 . S
C1430 C1431 1.363 . S
C1431 C1430 1.363 . S
C1431 C1432 1.385 . S
C1432 H1386 0.930 . S
C1432 C1431 1.385 . S
C1432 C1433 1.396 . S
C1433 H1387 0.929 . S
C1433 C1428 1.361 . S
C1433 C1432 1.396 . S
C1434 O1388 1.300 . S
C1434 O1389 1.209 . S
C1434 C1407 1.486 . S
C1435 O1390 1.199 . S
C1435 O1391 1.297 . S
C1435 C1419 1.476 . S
H1436 O1462 0.856 . S
H1437 O1465 0.854 . S
H1438 C1473 0.930 . S
H1439 C1474 0.930 . S
H1440 C1476 0.930 . S
H1441 C1477 0.930 . S
H1442 C1479 0.931 . S
H1443 C1480 0.930 . S
H1444 C1482 0.930 . S
H1445 C1483 0.929 . S
H1446 C1485 0.930 . S
H1447 C1486 0.931 . S
H1448 C1488 0.930 . S
H1449 C1489 0.929 . S
H1450 C1491 0.931 . S
H1451 C1492 0.930 . S
H1452 C1494 0.930 . S
H1453 C1495 0.932 . S
H1454 C1497 0.930 . S
H1455 C1498 0.929 . S
H1456 C1500 0.931 . S
H1457 C1501 0.930 . S
H1458 C1503 0.929 . S
H1459 C1504 0.931 . S
H1460 C1506 0.930 . S
H1461 C1507 0.929 . S
O1462 H1436 0.856 . S
O1462 C1508 1.300 . S
O1463 C1508 1.209 . S
O1464 C1509 1.199 . S
O1465 H1437 0.854 . S
O1465 C1509 1.297 . S
C1466 C1467 1.404 . S
C1466 C1471 1.397 . S
C1466 C1472 1.492 . S
C1467 C1466 1.404 . S
C1467 C1468 1.396 . S
C1467 C1478 1.492 . S
C1468 C1467 1.396 . S
C1468 C1469 1.397 . S
C1468 C1484 1.509 . S
C1469 C1468 1.397 . S
C1469 C1470 1.412 . S
C1469 C1490 1.485 . S
C1470 C1469 1.412 . S
C1470 C1471 1.388 . S
C1470 C1496 1.490 . S
C1471 C1466 1.397 . S
C1471 C1470 1.388 . S
C1471 C1502 1.519 . S
C1472 C1466 1.492 . S
C1472 C1473 1.363 . S
C1472 C1477 1.390 . S
C1473 H1438 0.930 . S
C1473 C1472 1.363 . S
C1473 C1474 1.372 . S
C1474 H1439 0.930 . S
C1474 C1473 1.372 . S
C1474 C1475 1.383 . S
C1475 C1474 1.383 . S
C1475 C1476 1.395 . S
C1476 H1440 0.930 . S
C1476 C1475 1.395 . S
C1476 C1477 1.362 . S
C1477 H1441 0.930 . S
C1477 C1472 1.390 . S
C1477 C1476 1.362 . S
C1478 C1467 1.492 . S
C1478 C1479 1.377 . S
C1478 C1483 1.397 . S
C1479 H1442 0.931 . S
C1479 C1478 1.377 . S
C1479 C1480 1.376 . S
C1480 H1443 0.930 . S
C1480 C1479 1.376 . S
C1480 C1481 1.376 . S
C1481 C1480 1.376 . S
C1481 C1482 1.378 . S
C1481 C1508 1.486 . S
C1482 H1444 0.930 . S
C1482 C1481 1.378 . S
C1482 C1483 1.376 . S
C1483 H1445 0.929 . S
C1483 C1478 1.397 . S
C1483 C1482 1.376 . S
C1484 C1468 1.509 . S
C1484 C1485 1.391 . S
C1484 C1489 1.386 . S
C1485 H1446 0.930 . S
C1485 C1484 1.391 . S
C1485 C1486 1.375 . S
C1486 H1447 0.931 . S
C1486 C1485 1.375 . S
C1486 C1487 1.375 . S
C1487 C1486 1.375 . S
C1487 C1488 1.361 . S
C1488 H1448 0.930 . S
C1488 C1487 1.361 . S
C1488 C1489 1.399 . S
C1489 H1449 0.929 . S
C1489 C1484 1.386 . S
C1489 C1488 1.399 . S
C1490 C1469 1.485 . S
C1490 C1491 1.394 . S
C1490 C1495 1.360 . S
C1491 H1450 0.931 . S
C1491 C1490 1.394 . S
C1491 C1492 1.372 . S
C1492 H1451 0.930 . S
C1492 C1491 1.372 . S
C1492 C1493 1.397 . S
C1493 C1492 1.397 . S
C1493 C1494 1.390 . S
C1493 C1509 1.476 . S
C1494 H1452 0.930 . S
C1494 C1493 1.390 . S
C1494 C1495 1.366 . S
C1495 H1453 0.932 . S
C1495 C1490 1.360 . S
C1495 C1494 1.366 . S
C1496 C1470 1.490 . S
C1496 C1497 1.380 . S
C1496 C1501 1.386 . S
C1497 H1454 0.930 . S
C1497 C1496 1.380 . S
C1497 C1498 1.381 . S
C1498 H1455 0.929 . S
C1498 C1497 1.381 . S
C1498 C1499 1.371 . S
C1499 C1498 1.371 . S
C1499 C1500 1.380 . S
C1500 H1456 0.931 . S
C1500 C1499 1.380 . S
C1500 C1501 1.387 . S
C1501 H1457 0.930 . S
C1501 C1496 1.386 . S
C1501 C1500 1.387 . S
C1502 C1471 1.519 . S
C1502 C1503 1.377 . S
C1502 C1507 1.361 . S
C1503 H1458 0.929 . S
C1503 C1502 1.377 . S
C1503 C1504 1.386 . S
C1504 H1459 0.931 . S
C1504 C1503 1.386 . S
C1504 C1505 1.363 . S
C1505 C1504 1.363 . S
C1505 C1506 1.385 . S
C1506 H1460 0.930 . S
C1506 C1505 1.385 . S
C1506 C1507 1.396 . S
C1507 H1461 0.929 . S
C1507 C1502 1.361 . S
C1507 C1506 1.396 . S
C1508 O1462 1.300 . S
C1508 O1463 1.209 . S
C1508 C1481 1.486 . S
C1509 O1464 1.199 . S
C1509 O1465 1.297 . S
C1509 C1493 1.476 . S
H1510 O1536 0.856 . S
H1511 O1539 0.854 . S
H1512 C1547 0.930 . S
H1513 C1548 0.930 . S
H1514 C1550 0.930 . S
H1515 C1551 0.930 . S
H1516 C1553 0.931 . S
H1517 C1554 0.930 . S
H1518 C1556 0.930 . S
H1519 C1557 0.929 . S
H1520 C1559 0.930 . S
H1521 C1560 0.931 . S
H1522 C1562 0.930 . S
H1523 C1563 0.929 . S
H1524 C1565 0.931 . S
H1525 C1566 0.930 . S
H1526 C1568 0.930 . S
H1527 C1569 0.932 . S
H1528 C1571 0.930 . S
H1529 C1572 0.929 . S
H1530 C1574 0.931 . S
H1531 C1575 0.930 . S
H1532 C1577 0.929 . S
H1533 C1578 0.931 . S
H1534 C1580 0.930 . S
H1535 C1581 0.929 . S
O1536 H1510 0.856 . S
O1536 C1582 1.300 . S
O1537 C1582 1.209 . S
O1538 C1583 1.199 . S
O1539 H1511 0.854 . S
O1539 C1583 1.297 . S
C1540 C1541 1.404 . S
C1540 C1545 1.397 . S
C1540 C1546 1.492 . S
C1541 C1540 1.404 . S
C1541 C1542 1.396 . S
C1541 C1552 1.492 . S
C1542 C1541 1.396 . S
C1542 C1543 1.397 . S
C1542 C1558 1.509 . S
C1543 C1542 1.397 . S
C1543 C1544 1.412 . S
C1543 C1564 1.485 . S
C1544 C1543 1.412 . S
C1544 C1545 1.388 . S
C1544 C1570 1.490 . S
C1545 C1540 1.397 . S
C1545 C1544 1.388 . S
C1545 C1576 1.519 . S
C1546 C1540 1.492 . S
C1546 C1547 1.363 . S
C1546 C1551 1.390 . S
C1547 H1512 0.930 . S
C1547 C1546 1.363 . S
C1547 C1548 1.372 . S
C1548 H1513 0.930 . S
C1548 C1547 1.372 . S
C1548 C1549 1.383 . S
C1549 C1548 1.383 . S
C1549 C1550 1.395 . S
C1550 H1514 0.930 . S
C1550 C1549 1.395 . S
C1550 C1551 1.362 . S
C1551 H1515 0.930 . S
C1551 C1546 1.390 . S
C1551 C1550 1.362 . S
C1552 C1541 1.492 . S
C1552 C1553 1.377 . S
C1552 C1557 1.397 . S
C1553 H1516 0.931 . S
C1553 C1552 1.377 . S
C1553 C1554 1.376 . S
C1554 H1517 0.930 . S
C1554 C1553 1.376 . S
C1554 C1555 1.376 . S
C1555 C1554 1.376 . S
C1555 C1556 1.378 . S
C1555 C1582 1.486 . S
C1556 H1518 0.930 . S
C1556 C1555 1.378 . S
C1556 C1557 1.376 . S
C1557 H1519 0.929 . S
C1557 C1552 1.397 . S
C1557 C1556 1.376 . S
C1558 C1542 1.509 . S
C1558 C1559 1.391 . S
C1558 C1563 1.386 . S
C1559 H1520 0.930 . S
C1559 C1558 1.391 . S
C1559 C1560 1.375 . S
C1560 H1521 0.931 . S
C1560 C1559 1.375 . S
C1560 C1561 1.375 . S
C1561 C1560 1.375 . S
C1561 C1562 1.361 . S
C1562 H1522 0.930 . S
C1562 C1561 1.361 . S
C1562 C1563 1.399 . S
C1563 H1523 0.929 . S
C1563 C1558 1.386 . S
C1563 C1562 1.399 . S
C1564 C1543 1.485 . S
C1564 C1565 1.394 . S
C1564 C1569 1.360 . S
C1565 H1524 0.931 . S
C1565 C1564 1.394 . S
C1565 C1566 1.372 . S
C1566 H1525 0.930 . S
C1566 C1565 1.372 . S
C1566 C1567 1.397 . S
C1567 C1566 1.397 . S
C1567 C1568 1.390 . S
C1567 C1583 1.476 . S
C1568 H1526 0.930 . S
C1568 C1567 1.390 . S
C1568 C1569 1.366 . S
C1569 H1527 0.932 . S
C1569 C1564 1.360 . S
C1569 C1568 1.366 . S
C1570 C1544 1.490 . S
C1570 C1571 1.380 . S
C1570 C1575 1.386 . S
C1571 H1528 0.930 . S
C1571 C1570 1.380 . S
C1571 C1572 1.381 . S
C1572 H1529 0.929 . S
C1572 C1571 1.381 . S
C1572 C1573 1.371 . S
C1573 C1572 1.371 . S
C1573 C1574 1.380 . S
C1574 H1530 0.931 . S
C1574 C1573 1.380 . S
C1574 C1575 1.387 . S
C1575 H1531 0.930 . S
C1575 C1570 1.386 . S
C1575 C1574 1.387 . S
C1576 C1545 1.519 . S
C1576 C1577 1.377 . S
C1576 C1581 1.361 . S
C1577 H1532 0.929 . S
C1577 C1576 1.377 . S
C1577 C1578 1.386 . S
C1578 H1533 0.931 . S
C1578 C1577 1.386 . S
C1578 C1579 1.363 . S
C1579 C1578 1.363 . S
C1579 C1580 1.385 . S
C1580 H1534 0.930 . S
C1580 C1579 1.385 . S
C1580 C1581 1.396 . S
C1581 H1535 0.929 . S
C1581 C1576 1.361 . S
C1581 C1580 1.396 . S
C1582 O1536 1.300 . S
C1582 O1537 1.209 . S
C1582 C1555 1.486 . S
C1583 O1538 1.199 . S
C1583 O1539 1.297 . S
C1583 C1567 1.476 . S
C1584 C1585 1.369 . S
C1584 C1586 1.419 . S
C1584 H1588 0.930 . S
C1585 C1584 1.369 . S
C1585 C1594 1.429 1_655 S
C1586 C1584 1.419 . S
C1586 C1587 1.363 . S
C1586 H1589 0.929 . S
C1587 C1586 1.363 . S
C1587 C1593 1.428 . S
H1588 C1584 0.930 . S
H1589 C1586 0.929 . S
S1590 N1591 1.613 . S
S1590 N1592 1.610 . S
N1591 S1590 1.613 . S
N1591 C1594 1.350 . S
N1592 S1590 1.610 . S
N1592 C1593 1.351 1_455 S
C1593 C1587 1.428 . S
C1593 N1592 1.351 1_655 S
C1593 C1594 1.434 1_655 S
C1594 C1585 1.429 1_455 S
C1594 N1591 1.350 . S
C1594 C1593 1.434 1_455 S
C1595 C1596 1.369 . S
C1595 C1597 1.419 . S
C1595 H1599 0.930 . S
C1596 C1595 1.369 . S
C1596 C1605 1.429 . S
C1597 C1595 1.419 . S
C1597 C1598 1.363 . S
C1597 H1600 0.929 . S
C1598 C1597 1.363 . S
C1598 C1604 1.428 . S
H1599 C1595 0.930 . S
H1600 C1597 0.929 . S
S1601 N1602 1.613 . S
S1601 N1603 1.610 . S
N1602 S1601 1.613 . S
N1602 C1605 1.350 . S
N1603 S1601 1.610 . S
N1603 C1604 1.351 . S
C1604 C1598 1.428 . S
C1604 N1603 1.351 . S
C1604 C1605 1.434 . S
C1605 C1596 1.429 . S
C1605 N1602 1.350 . S
C1605 C1604 1.434 . S
C1606 C1607 1.369 . S
C1606 C1608 1.419 . S
C1606 H1610 0.930 . S
C1607 C1606 1.369 . S
C1607 C1616 1.429 . S
C1608 C1606 1.419 . S
C1608 C1609 1.363 . S
C1608 H1611 0.929 . S
C1609 C1608 1.363 . S
C1609 C1615 1.428 . S
H1610 C1606 0.930 . S
H1611 C1608 0.929 . S
S1612 N1613 1.613 . S
S1612 N1614 1.610 . S
N1613 S1612 1.613 . S
N1613 C1616 1.350 . S
N1614 S1612 1.610 . S
N1614 C1615 1.351 . S
C1615 C1609 1.428 . S
C1615 N1614 1.351 . S
C1615 C1616 1.434 . S
C1616 C1607 1.429 . S
C1616 N1613 1.350 . S
C1616 C1615 1.434 . S
C1617 C1618 1.369 . S
C1617 C1619 1.419 . S
C1617 H1621 0.930 . S
C1618 C1617 1.369 . S
C1618 C1627 1.429 . S
C1619 C1617 1.419 . S
C1619 C1620 1.363 . S
C1619 H1622 0.929 . S
C1620 C1619 1.363 . S
C1620 C1626 1.428 . S
H1621 C1617 0.930 . S
H1622 C1619 0.929 . S
S1623 N1624 1.613 . S
S1623 N1625 1.610 . S
N1624 S1623 1.613 . S
N1624 C1627 1.350 . S
N1625 S1623 1.610 . S
N1625 C1626 1.351 . S
C1626 C1620 1.428 . S
C1626 N1625 1.351 . S
C1626 C1627 1.434 . S
C1627 C1618 1.429 . S
C1627 N1624 1.350 . S
C1627 C1626 1.434 . S
C1628 C1629 1.369 1_655 S
C1628 C1630 1.419 . S
C1628 H1632 0.930 . S
C1629 C1628 1.369 1_455 S
C1629 C1638 1.429 . S
C1630 C1628 1.419 . S
C1630 C1631 1.363 1_655 S
C1630 H1633 0.929 . S
C1631 C1630 1.363 1_455 S
C1631 C1637 1.428 . S
H1632 C1628 0.930 . S
H1633 C1630 0.929 . S
S1634 N1635 1.613 . S
S1634 N1636 1.610 . S
N1635 S1634 1.613 . S
N1635 C1638 1.350 . S
N1636 S1634 1.610 . S
N1636 C1637 1.351 . S
C1637 C1631 1.428 . S
C1637 N1636 1.351 . S
C1637 C1638 1.434 . S
C1638 C1629 1.429 . S
C1638 N1635 1.350 . S
C1638 C1637 1.434 . S
C1639 C1640 1.369 1_556 S
C1639 C1641 1.419 . S
C1639 H1643 0.930 . S
C1640 C1639 1.369 1_554 S
C1640 C1649 1.429 . S
C1641 C1639 1.419 . S
C1641 C1642 1.363 . S
C1641 H1644 0.929 . S
C1642 C1641 1.363 . S
C1642 C1648 1.428 . S
H1643 C1639 0.930 . S
H1644 C1641 0.929 . S
S1645 N1646 1.613 . S
S1645 N1647 1.610 1_554 S
N1646 S1645 1.613 . S
N1646 C1649 1.350 . S
N1647 S1645 1.610 1_556 S
N1647 C1648 1.351 . S
C1648 C1642 1.428 . S
C1648 N1647 1.351 . S
C1648 C1649 1.434 1_556 S
C1649 C1640 1.429 . S
C1649 N1646 1.350 . S
C1649 C1648 1.434 1_554 S
C1650 C1651 1.369 1_655 S
C1650 C1652 1.419 . S
C1650 H1654 0.930 . S
C1651 C1650 1.369 1_455 S
C1651 C1660 1.440 . S
C1652 C1650 1.419 . S
C1652 C1653 1.363 1_655 S
C1652 H1655 0.929 . S
C1653 C1652 1.363 1_455 S
C1653 C1659 1.428 . S
H1654 C1650 0.930 . S
H1655 C1652 0.929 . S
S1656 N1657 1.613 . S
S1656 N1658 1.610 1_554 S
N1657 S1656 1.613 . S
N1657 C1660 1.322 1_554 S
N1658 S1656 1.610 1_556 S
N1658 C1659 1.351 . S
C1659 C1653 1.428 . S
C1659 N1658 1.351 . S
C1659 C1660 1.453 . S
C1660 C1651 1.440 . S
C1660 N1657 1.322 1_556 S
C1660 C1659 1.453 . S
C1661 C1662 1.369 . S
C1661 C1663 1.419 . S
C1661 H1665 0.930 . S
C1662 C1661 1.369 . S
C1662 C1671 1.429 . S
C1663 C1661 1.419 . S
C1663 C1664 1.363 . S
C1663 H1666 0.929 . S
C1664 C1663 1.363 . S
C1664 C1670 1.428 . S
H1665 C1661 0.930 . S
H1666 C1663 0.929 . S
S1667 N1668 1.613 . S
S1667 N1669 1.610 . S
N1668 S1667 1.613 . S
N1668 C1671 1.350 . S
N1669 S1667 1.610 . S
N1669 C1670 1.351 . S
C1670 C1664 1.428 . S
C1670 N1669 1.351 . S
C1670 C1671 1.434 . S
C1671 C1662 1.429 . S
C1671 N1668 1.350 . S
C1671 C1670 1.434 . S
C1672 C1673 1.369 1_545 S
C1672 C1674 1.419 . S
C1672 H1676 0.930 . S
C1673 C1672 1.369 1_565 S
C1673 C1682 1.429 . S
C1674 C1672 1.419 . S
C1674 C1675 1.353 1_545 S
C1674 H1677 0.929 . S
C1675 C1674 1.353 1_565 S
C1675 C1681 1.463 . S
H1676 C1672 0.930 . S
H1677 C1674 0.929 . S
S1678 N1679 1.613 . S
S1678 N1680 1.610 . S
N1679 S1678 1.613 . S
N1679 C1682 1.350 . S
N1680 S1678 1.610 . S
N1680 C1681 1.351 . S
C1681 C1675 1.463 . S
C1681 N1680 1.351 . S
C1681 C1682 1.434 . S
C1682 C1673 1.429 . S
C1682 N1679 1.350 . S
C1682 C1681 1.434 . S
C1683 C1684 1.369 . S
C1683 C1685 1.417 . S
C1683 H1687 0.930 . S
C1684 C1683 1.369 . S
C1684 C1693 1.429 . S
C1685 C1683 1.417 . S
C1685 C1686 1.366 . S
C1685 H1688 0.942 1_545 S
C1686 C1685 1.366 . S
C1686 C1692 1.412 . S
H1687 C1683 0.930 . S
H1688 C1685 0.942 1_565 S
S1689 N1690 1.613 . S
S1689 N1691 1.610 . S
N1690 S1689 1.613 . S
N1690 C1693 1.350 . S
N1691 S1689 1.610 . S
N1691 C1692 1.351 . S
C1692 C1686 1.412 . S
C1692 N1691 1.351 . S
C1692 C1693 1.434 . S
C1693 C1684 1.429 . S
C1693 N1690 1.350 . S
C1693 C1692 1.434 . S
C1694 C1695 1.369 . S
C1694 C1696 1.419 . S
C1694 H1698 0.930 . S
C1695 C1694 1.369 . S
C1695 C1704 1.429 . S
C1696 C1694 1.419 . S
C1696 C1697 1.363 . S
C1696 H1699 0.929 . S
C1697 C1696 1.363 . S
C1697 C1703 1.436 . S
H1698 C1694 0.930 . S
H1699 C1696 0.929 . S
S1700 N1701 1.613 1_455 S
S1700 N1702 1.610 . S
N1701 S1700 1.613 1_655 S
N1701 C1704 1.350 . S
N1702 S1700 1.610 . S
N1702 C1703 1.332 1_455 S
C1703 C1697 1.436 . S
C1703 N1702 1.332 1_655 S
C1703 C1704 1.447 . S
C1704 C1695 1.429 . S
C1704 N1701 1.350 . S
C1704 C1703 1.447 . S
C1705 C1706 1.369 . S
C1705 C1707 1.419 . S
C1705 H1709 0.930 . S
C1706 C1705 1.369 . S
C1706 C1715 1.429 . S
C1707 C1705 1.419 . S
C1707 C1708 1.363 . S
C1707 H1710 0.929 . S
C1708 C1707 1.363 . S
C1708 C1714 1.428 . S
H1709 C1705 0.930 . S
H1710 C1707 0.929 . S
S1711 N1712 1.613 . S
S1711 N1713 1.610 . S
N1712 S1711 1.613 . S
N1712 C1715 1.350 . S
N1713 S1711 1.610 . S
N1713 C1714 1.351 . S
C1714 C1708 1.428 . S
C1714 N1713 1.351 . S
C1714 C1715 1.434 . S
C1715 C1706 1.429 . S
C1715 N1712 1.350 . S
C1715 C1714 1.434 . S
C1716 C1717 1.369 . S
C1716 C1718 1.419 . S
C1716 H1720 0.930 . S
C1717 C1716 1.369 . S
C1717 C1726 1.429 . S
C1718 C1716 1.419 . S
C1718 C1719 1.363 . S
C1718 H1721 0.929 . S
C1719 C1718 1.363 . S
C1719 C1725 1.428 . S
H1720 C1716 0.930 . S
H1721 C1718 0.929 . S
S1722 N1723 1.613 . S
S1722 N1724 1.610 . S
N1723 S1722 1.613 . S
N1723 C1726 1.350 . S
N1724 S1722 1.610 . S
N1724 C1725 1.351 . S
C1725 C1719 1.428 . S
C1725 N1724 1.351 . S
C1725 C1726 1.434 . S
C1726 C1717 1.429 . S
C1726 N1723 1.350 . S
C1726 C1725 1.434 . S
C1727 C1728 1.369 . S
C1727 C1729 1.419 . S
C1727 H1731 0.930 . S
C1728 C1727 1.369 . S
C1728 C1737 1.429 . S
C1729 C1727 1.419 . S
C1729 C1730 1.363 . S
C1729 H1732 0.929 . S
C1730 C1729 1.363 . S
C1730 C1736 1.428 . S
H1731 C1727 0.930 . S
H1732 C1729 0.929 . S
S1733 N1734 1.613 . S
S1733 N1735 1.610 . S
N1734 S1733 1.613 . S
N1734 C1737 1.350 . S
N1735 S1733 1.610 . S
N1735 C1736 1.351 . S
C1736 C1730 1.428 . S
C1736 N1735 1.351 . S
C1736 C1737 1.434 . S
C1737 C1728 1.429 . S
C1737 N1734 1.350 . S
C1737 C1736 1.434 . S
C1738 C1739 1.369 . S
C1738 C1740 1.419 . S
C1738 H1742 0.930 . S
C1739 C1738 1.369 . S
C1739 C1748 1.429 . S
C1740 C1738 1.419 . S
C1740 C1741 1.363 . S
C1740 H1743 0.929 . S
C1741 C1740 1.363 . S
C1741 C1747 1.428 . S
H1742 C1738 0.930 . S
H1743 C1740 0.929 . S
S1744 N1745 1.613 . S
S1744 N1746 1.610 . S
N1745 S1744 1.613 . S
N1745 C1748 1.350 . S
N1746 S1744 1.610 . S
N1746 C1747 1.351 . S
C1747 C1741 1.428 . S
C1747 N1746 1.351 . S
C1747 C1748 1.434 . S
C1748 C1739 1.429 . S
C1748 N1745 1.350 . S
C1748 C1747 1.434 . S
C1749 C1750 1.369 . S
C1749 C1751 1.419 . S
C1749 H1753 0.930 . S
C1750 C1749 1.369 . S
C1750 C1759 1.429 . S
C1751 C1749 1.419 . S
C1751 C1752 1.363 . S
C1751 H1754 0.929 . S
C1752 C1751 1.363 . S
C1752 C1758 1.428 . S
H1753 C1749 0.930 . S
H1754 C1751 0.929 . S
S1755 N1756 1.613 . S
S1755 N1757 1.610 . S
N1756 S1755 1.613 . S
N1756 C1759 1.350 . S
N1757 S1755 1.610 . S
N1757 C1758 1.351 . S
C1758 C1752 1.428 . S
C1758 N1757 1.351 . S
C1758 C1759 1.434 . S
C1759 C1750 1.429 . S
C1759 N1756 1.350 . S
C1759 C1758 1.434 . S
C1760 C1761 1.369 . S
C1760 C1762 1.419 . S
C1760 H1764 0.930 . S
C1761 C1760 1.369 . S
C1761 C1770 1.429 . S
C1762 C1760 1.419 . S
C1762 C1763 1.363 . S
C1762 H1765 0.929 . S
C1763 C1762 1.363 . S
C1763 C1769 1.428 . S
H1764 C1760 0.930 . S
H1765 C1762 0.929 . S
S1766 N1767 1.613 . S
S1766 N1768 1.610 . S
N1767 S1766 1.613 . S
N1767 C1770 1.350 . S
N1768 S1766 1.610 . S
N1768 C1769 1.351 . S
C1769 C1763 1.428 . S
C1769 N1768 1.351 . S
C1769 C1770 1.434 . S
C1770 C1761 1.429 . S
C1770 N1767 1.350 . S
C1770 C1769 1.434 . S
C1771 C1772 1.369 . S
C1771 C1773 1.419 . S
C1771 H1775 0.930 . S
C1772 C1771 1.369 . S
C1772 C1781 1.429 . S
C1773 C1771 1.419 . S
C1773 C1774 1.363 . S
C1773 H1776 0.929 . S
C1774 C1773 1.363 . S
C1774 C1780 1.428 . S
H1775 C1771 0.930 . S
H1776 C1773 0.929 . S
S1777 N1778 1.613 . S
S1777 N1779 1.610 . S
N1778 S1777 1.613 . S
N1778 C1781 1.350 . S
N1779 S1777 1.610 . S
N1779 C1780 1.351 . S
C1780 C1774 1.428 . S
C1780 N1779 1.351 . S
C1780 C1781 1.434 . S
C1781 C1772 1.429 . S
C1781 N1778 1.350 . S
C1781 C1780 1.434 . S
C1782 C1783 1.369 . S
C1782 C1784 1.419 . S
C1782 H1786 0.930 . S
C1783 C1782 1.369 . S
C1783 C1792 1.429 . S
C1784 C1782 1.419 . S
C1784 C1785 1.363 . S
C1784 H1787 0.929 . S
C1785 C1784 1.363 . S
C1785 C1791 1.428 . S
H1786 C1782 0.930 . S
H1787 C1784 0.929 . S
S1788 N1789 1.613 . S
S1788 N1790 1.610 . S
N1789 S1788 1.613 . S
N1789 C1792 1.350 . S
N1790 S1788 1.610 . S
N1790 C1791 1.351 . S
C1791 C1785 1.428 . S
C1791 N1790 1.351 . S
C1791 C1792 1.434 . S
C1792 C1783 1.429 . S
C1792 N1789 1.350 . S
C1792 C1791 1.434 . S
C1793 C1794 1.369 . S
C1793 C1795 1.419 . S
C1793 H1797 0.930 . S
C1794 C1793 1.369 . S
C1794 C1803 1.429 . S
C1795 C1793 1.419 . S
C1795 C1796 1.363 . S
C1795 H1798 0.929 . S
C1796 C1795 1.363 . S
C1796 C1802 1.428 . S
H1797 C1793 0.930 . S
H1798 C1795 0.929 . S
S1799 N1800 1.613 . S
S1799 N1801 1.610 . S
N1800 S1799 1.613 . S
N1800 C1803 1.350 . S
N1801 S1799 1.610 . S
N1801 C1802 1.351 . S
C1802 C1796 1.428 . S
C1802 N1801 1.351 . S
C1802 C1803 1.434 . S
C1803 C1794 1.429 . S
C1803 N1800 1.350 . S
C1803 C1802 1.434 . S
C1804 C1805 1.369 . S
C1804 C1806 1.419 . S
C1804 H1808 0.930 . S
C1805 C1804 1.369 . S
C1805 C1814 1.429 . S
C1806 C1804 1.419 . S
C1806 C1807 1.363 . S
C1806 H1809 0.929 . S
C1807 C1806 1.363 . S
C1807 C1813 1.428 . S
H1808 C1804 0.930 . S
H1809 C1806 0.929 . S
S1810 N1811 1.613 . S
S1810 N1812 1.610 . S
N1811 S1810 1.613 . S
N1811 C1814 1.350 . S
N1812 S1810 1.610 . S
N1812 C1813 1.351 . S
C1813 C1807 1.428 . S
C1813 N1812 1.351 . S
C1813 C1814 1.434 . S
C1814 C1805 1.429 . S
C1814 N1811 1.350 . S
C1814 C1813 1.434 . S
C1815 C1816 1.369 . S
C1815 C1817 1.419 . S
C1815 H1819 0.930 . S
C1816 C1815 1.369 . S
C1816 C1825 1.429 . S
C1817 C1815 1.419 . S
C1817 C1818 1.363 . S
C1817 H1820 0.929 . S
C1818 C1817 1.363 . S
C1818 C1824 1.428 . S
H1819 C1815 0.930 . S
H1820 C1817 0.929 . S
S1821 N1822 1.613 . S
S1821 N1823 1.610 . S
N1822 S1821 1.613 . S
N1822 C1825 1.350 . S
N1823 S1821 1.610 . S
N1823 C1824 1.351 . S
C1824 C1818 1.428 . S
C1824 N1823 1.351 . S
C1824 C1825 1.434 . S
C1825 C1816 1.429 . S
C1825 N1822 1.350 . S
C1825 C1824 1.434 . S
C1826 C1827 1.369 . S
C1826 C1828 1.419 . S
C1826 H1830 0.930 . S
C1827 C1826 1.369 . S
C1827 C1836 1.429 . S
C1828 C1826 1.419 . S
C1828 C1829 1.363 . S
C1828 H1831 0.929 . S
C1829 C1828 1.363 . S
C1829 C1835 1.428 . S
H1830 C1826 0.930 . S
H1831 C1828 0.929 . S
S1832 N1833 1.613 . S
S1832 N1834 1.610 . S
N1833 S1832 1.613 . S
N1833 C1836 1.350 . S
N1834 S1832 1.610 . S
N1834 C1835 1.351 . S
C1835 C1829 1.428 . S
C1835 N1834 1.351 . S
C1835 C1836 1.434 . S
C1836 C1827 1.429 . S
C1836 N1833 1.350 . S
C1836 C1835 1.434 . S
C1837 C1838 1.369 . S
C1837 C1839 1.419 . S
C1837 H1841 0.930 . S
C1838 C1837 1.369 . S
C1838 C1847 1.429 . S
C1839 C1837 1.419 . S
C1839 C1840 1.363 . S
C1839 H1842 0.929 . S
C1840 C1839 1.363 . S
C1840 C1846 1.428 . S
H1841 C1837 0.930 . S
H1842 C1839 0.929 . S
S1843 N1844 1.613 . S
S1843 N1845 1.610 . S
N1844 S1843 1.613 . S
N1844 C1847 1.350 . S
N1845 S1843 1.610 . S
N1845 C1846 1.351 . S
C1846 C1840 1.428 . S
C1846 N1845 1.351 . S
C1846 C1847 1.434 . S
C1847 C1838 1.429 . S
C1847 N1844 1.350 . S
C1847 C1846 1.434 . S
C1848 C1849 1.369 . S
C1848 C1850 1.419 . S
C1848 H1852 0.930 . S
C1849 C1848 1.369 . S
C1849 C1858 1.429 . S
C1850 C1848 1.419 . S
C1850 C1851 1.363 . S
C1850 H1853 0.929 . S
C1851 C1850 1.363 . S
C1851 C1857 1.428 . S
H1852 C1848 0.930 . S
H1853 C1850 0.929 . S
S1854 N1855 1.613 . S
S1854 N1856 1.610 . S
N1855 S1854 1.613 . S
N1855 C1858 1.350 . S
N1856 S1854 1.610 . S
N1856 C1857 1.351 . S
C1857 C1851 1.428 . S
C1857 N1856 1.351 . S
C1857 C1858 1.434 . S
C1858 C1849 1.429 . S
C1858 N1855 1.350 . S
C1858 C1857 1.434 . S
C1859 C1860 1.369 . S
C1859 C1861 1.419 . S
C1859 H1863 0.930 . S
C1860 C1859 1.369 . S
C1860 C1869 1.429 . S
C1861 C1859 1.419 . S
C1861 C1862 1.363 . S
C1861 H1864 0.929 . S
C1862 C1861 1.363 . S
C1862 C1868 1.428 . S
H1863 C1859 0.930 . S
H1864 C1861 0.929 . S
S1865 N1866 1.613 . S
S1865 N1867 1.610 . S
N1866 S1865 1.613 . S
N1866 C1869 1.350 . S
N1867 S1865 1.610 . S
N1867 C1868 1.351 . S
C1868 C1862 1.428 . S
C1868 N1867 1.351 . S
C1868 C1869 1.434 . S
C1869 C1860 1.429 . S
C1869 N1866 1.350 . S
C1869 C1868 1.434 . S
C1870 C1871 1.369 . S
C1870 C1872 1.419 . S
C1870 H1874 0.930 . S
C1871 C1870 1.369 . S
C1871 C1880 1.429 . S
C1872 C1870 1.419 . S
C1872 C1873 1.363 . S
C1872 H1875 0.929 . S
C1873 C1872 1.363 . S
C1873 C1879 1.428 . S
H1874 C1870 0.930 . S
H1875 C1872 0.929 . S
S1876 N1877 1.613 . S
S1876 N1878 1.610 . S
N1877 S1876 1.613 . S
N1877 C1880 1.350 . S
N1878 S1876 1.610 . S
N1878 C1879 1.351 . S
C1879 C1873 1.428 . S
C1879 N1878 1.351 . S
C1879 C1880 1.434 . S
C1880 C1871 1.429 . S
C1880 N1877 1.350 . S
C1880 C1879 1.434 . S
C1881 C1882 1.369 . S
C1881 C1883 1.419 . S
C1881 H1885 0.930 . S
C1882 C1881 1.369 . S
C1882 C1891 1.429 . S
C1883 C1881 1.419 . S
C1883 C1884 1.363 . S
C1883 H1886 0.929 . S
C1884 C1883 1.363 . S
C1884 C1890 1.428 . S
H1885 C1881 0.930 . S
H1886 C1883 0.929 . S
S1887 N1888 1.613 . S
S1887 N1889 1.610 . S
N1888 S1887 1.613 . S
N1888 C1891 1.350 . S
N1889 S1887 1.610 . S
N1889 C1890 1.351 . S
C1890 C1884 1.428 . S
C1890 N1889 1.351 . S
C1890 C1891 1.434 . S
C1891 C1882 1.429 . S
C1891 N1888 1.350 . S
C1891 C1890 1.434 . S
C1892 C1893 1.369 . S
C1892 C1894 1.419 . S
C1892 H1896 0.930 . S
C1893 C1892 1.369 . S
C1893 C1902 1.429 . S
C1894 C1892 1.419 . S
C1894 C1895 1.363 . S
C1894 H1897 0.929 . S
C1895 C1894 1.363 . S
C1895 C1901 1.428 . S
H1896 C1892 0.930 . S
H1897 C1894 0.929 . S
S1898 N1899 1.613 . S
S1898 N1900 1.610 . S
N1899 S1898 1.613 . S
N1899 C1902 1.350 . S
N1900 S1898 1.610 . S
N1900 C1901 1.351 . S
C1901 C1895 1.428 . S
C1901 N1900 1.351 . S
C1901 C1902 1.434 . S
C1902 C1893 1.429 . S
C1902 N1899 1.350 . S
C1902 C1901 1.434 . S
C1903 C1904 1.369 . S
C1903 C1905 1.419 . S
C1903 H1907 0.930 . S
C1904 C1903 1.369 . S
C1904 C1913 1.429 . S
C1905 C1903 1.419 . S
C1905 C1906 1.363 . S
C1905 H1908 0.929 . S
C1906 C1905 1.363 . S
C1906 C1912 1.428 . S
H1907 C1903 0.930 . S
H1908 C1905 0.929 . S
S1909 N1910 1.613 . S
S1909 N1911 1.610 . S
N1910 S1909 1.613 . S
N1910 C1913 1.350 . S
N1911 S1909 1.610 . S
N1911 C1912 1.351 . S
C1912 C1906 1.428 . S
C1912 N1911 1.351 . S
C1912 C1913 1.434 . S
C1913 C1904 1.429 . S
C1913 N1910 1.350 . S
C1913 C1912 1.434 . S
C1914 C1915 1.369 . S
C1914 C1916 1.419 . S
C1914 H1918 0.930 . S
C1915 C1914 1.369 . S
C1915 C1924 1.429 . S
C1916 C1914 1.419 . S
C1916 C1917 1.363 . S
C1916 H1919 0.929 . S
C1917 C1916 1.363 . S
C1917 C1923 1.428 . S
H1918 C1914 0.930 . S
H1919 C1916 0.929 . S
S1920 N1921 1.613 . S
S1920 N1922 1.610 . S
N1921 S1920 1.613 . S
N1921 C1924 1.350 . S
N1922 S1920 1.610 . S
N1922 C1923 1.351 . S
C1923 C1917 1.428 . S
C1923 N1922 1.351 . S
C1923 C1924 1.434 . S
C1924 C1915 1.429 . S
C1924 N1921 1.350 . S
C1924 C1923 1.434 . S
C1925 C1926 1.369 . S
C1925 C1927 1.419 . S
C1925 H1929 0.930 . S
C1926 C1925 1.369 . S
C1926 C1935 1.429 . S
C1927 C1925 1.419 . S
C1927 C1928 1.363 . S
C1927 H1930 0.929 . S
C1928 C1927 1.363 . S
C1928 C1934 1.428 . S
H1929 C1925 0.930 . S
H1930 C1927 0.929 . S
S1931 N1932 1.613 . S
S1931 N1933 1.610 . S
N1932 S1931 1.613 . S
N1932 C1935 1.350 . S
N1933 S1931 1.610 . S
N1933 C1934 1.351 . S
C1934 C1928 1.428 . S
C1934 N1933 1.351 . S
C1934 C1935 1.434 . S
C1935 C1926 1.429 . S
C1935 N1932 1.350 . S
C1935 C1934 1.434 . S
C1936 C1937 1.369 . S
C1936 C1938 1.419 . S
C1936 H1940 0.930 . S
C1937 C1936 1.369 . S
C1937 C1946 1.429 . S
C1938 C1936 1.419 . S
C1938 C1939 1.363 . S
C1938 H1941 0.929 . S
C1939 C1938 1.363 . S
C1939 C1945 1.428 . S
H1940 C1936 0.930 . S
H1941 C1938 0.929 . S
S1942 N1943 1.613 . S
S1942 N1944 1.610 . S
N1943 S1942 1.613 . S
N1943 C1946 1.350 . S
N1944 S1942 1.610 . S
N1944 C1945 1.351 . S
C1945 C1939 1.428 . S
C1945 N1944 1.351 . S
C1945 C1946 1.434 . S
C1946 C1937 1.429 . S
C1946 N1943 1.350 . S
C1946 C1945 1.434 . S
C1947 C1948 1.369 . S
C1947 C1949 1.419 . S
C1947 H1951 0.930 . S
C1948 C1947 1.369 . S
C1948 C1957 1.429 . S
C1949 C1947 1.419 . S
C1949 C1950 1.363 . S
C1949 H1952 0.929 . S
C1950 C1949 1.363 . S
C1950 C1956 1.428 . S
H1951 C1947 0.930 . S
H1952 C1949 0.929 . S
S1953 N1954 1.613 . S
S1953 N1955 1.610 . S
N1954 S1953 1.613 . S
N1954 C1957 1.350 . S
N1955 S1953 1.610 . S
N1955 C1956 1.351 . S
C1956 C1950 1.428 . S
C1956 N1955 1.351 . S
C1956 C1957 1.434 . S
C1957 C1948 1.429 . S
C1957 N1954 1.350 . S
C1957 C1956 1.434 . S
C1958 C1959 1.369 . S
C1958 C1960 1.419 . S
C1958 H1962 0.930 . S
C1959 C1958 1.369 . S
C1959 C1968 1.429 . S
C1960 C1958 1.419 . S
C1960 C1961 1.363 . S
C1960 H1963 0.929 . S
C1961 C1960 1.363 . S
C1961 C1967 1.428 . S
H1962 C1958 0.930 . S
H1963 C1960 0.929 . S
S1964 N1965 1.613 . S
S1964 N1966 1.610 . S
N1965 S1964 1.613 . S
N1965 C1968 1.350 . S
N1966 S1964 1.610 . S
N1966 C1967 1.351 . S
C1967 C1961 1.428 . S
C1967 N1966 1.351 . S
C1967 C1968 1.434 . S
C1968 C1959 1.429 . S
C1968 N1965 1.350 . S
C1968 C1967 1.434 . S
C1969 C1970 1.369 . S
C1969 C1971 1.419 . S
C1969 H1973 0.930 . S
C1970 C1969 1.369 . S
C1970 C1979 1.429 . S
C1971 C1969 1.419 . S
C1971 C1972 1.363 . S
C1971 H1974 0.929 . S
C1972 C1971 1.363 . S
C1972 C1978 1.428 . S
H1973 C1969 0.930 . S
H1974 C1971 0.929 . S
S1975 N1976 1.613 . S
S1975 N1977 1.610 . S
N1976 S1975 1.613 . S
N1976 C1979 1.350 . S
N1977 S1975 1.610 . S
N1977 C1978 1.351 . S
C1978 C1972 1.428 . S
C1978 N1977 1.351 . S
C1978 C1979 1.434 . S
C1979 C1970 1.429 . S
C1979 N1976 1.350 . S
C1979 C1978 1.434 . S
C1980 C1981 1.369 . S
C1980 C1982 1.419 . S
C1980 H1984 0.930 . S
C1981 C1980 1.369 . S
C1981 C1990 1.429 . S
C1982 C1980 1.419 . S
C1982 C1983 1.363 . S
C1982 H1985 0.929 . S
C1983 C1982 1.363 . S
C1983 C1989 1.428 . S
H1984 C1980 0.930 . S
H1985 C1982 0.929 . S
S1986 N1987 1.613 . S
S1986 N1988 1.610 . S
N1987 S1986 1.613 . S
N1987 C1990 1.350 . S
N1988 S1986 1.610 . S
N1988 C1989 1.351 . S
C1989 C1983 1.428 . S
C1989 N1988 1.351 . S
C1989 C1990 1.434 . S
C1990 C1981 1.429 . S
C1990 N1987 1.350 . S
C1990 C1989 1.434 . S
C1991 C1992 1.369 . S
C1991 C1993 1.419 . S
C1991 H1995 0.930 . S
C1992 C1991 1.369 . S
C1992 C2001 1.429 . S
C1993 C1991 1.419 . S
C1993 C1994 1.363 . S
C1993 H1996 0.929 . S
C1994 C1993 1.363 . S
C1994 C2000 1.428 . S
H1995 C1991 0.930 . S
H1996 C1993 0.929 . S
S1997 N1998 1.613 . S
S1997 N1999 1.610 . S
N1998 S1997 1.613 . S
N1998 C2001 1.350 . S
N1999 S1997 1.610 . S
N1999 C2000 1.351 . S
C2000 C1994 1.428 . S
C2000 N1999 1.351 . S
C2000 C2001 1.434 . S
C2001 C1992 1.429 . S
C2001 N1998 1.350 . S
C2001 C2000 1.434 . S
C2002 C2003 1.369 . S
C2002 C2004 1.419 . S
C2002 H2006 0.930 . S
C2003 C2002 1.369 . S
C2003 C2012 1.429 . S
C2004 C2002 1.419 . S
C2004 C2005 1.363 . S
C2004 H2007 0.929 . S
C2005 C2004 1.363 . S
C2005 C2011 1.428 . S
H2006 C2002 0.930 . S
H2007 C2004 0.929 . S
S2008 N2009 1.613 1_545 S
S2008 N2010 1.610 1_545 S
N2009 S2008 1.613 1_565 S
N2009 C2012 1.350 . S
N2010 S2008 1.610 1_565 S
N2010 C2011 1.351 . S
C2011 C2005 1.428 . S
C2011 N2010 1.351 . S
C2011 C2012 1.434 . S
C2012 C2003 1.429 . S
C2012 N2009 1.350 . S
C2012 C2011 1.434 . S
C2013 C2014 1.369 1_554 S
C2013 C2015 1.419 1_554 S
C2013 H2017 0.930 . S
C2014 C2013 1.369 1_556 S
C2014 C2023 1.429 . S
C2015 C2013 1.419 1_556 S
C2015 C2016 1.363 . S
C2015 H2018 0.929 1_556 S
C2016 C2015 1.363 . S
C2016 C2022 1.428 . S
H2017 C2013 0.930 . S
H2018 C2015 0.929 1_554 S
S2019 N2020 1.613 . S
S2019 N2021 1.610 . S
N2020 S2019 1.613 . S
N2020 C2023 1.350 . S
N2021 S2019 1.610 . S
N2021 C2022 1.351 . S
C2022 C2016 1.428 . S
C2022 N2021 1.351 . S
C2022 C2023 1.434 . S
C2023 C2014 1.429 . S
C2023 N2020 1.350 . S
C2023 C2022 1.434 . S
C2024 C2025 1.369 . S
C2024 C2026 1.419 . S
C2024 H2028 0.930 . S
C2025 C2024 1.369 . S
C2025 C2034 1.429 . S
C2026 C2024 1.419 . S
C2026 C2027 1.363 . S
C2026 H2029 0.929 . S
C2027 C2026 1.363 . S
C2027 C2033 1.428 . S
H2028 C2024 0.930 . S
H2029 C2026 0.929 . S
S2030 N2031 1.613 . S
S2030 N2032 1.610 . S
N2031 S2030 1.613 . S
N2031 C2034 1.350 . S
N2032 S2030 1.610 . S
N2032 C2033 1.351 . S
C2033 C2027 1.428 . S
C2033 N2032 1.351 . S
C2033 C2034 1.434 . S
C2034 C2025 1.429 . S
C2034 N2031 1.350 . S
C2034 C2033 1.434 . S
C2035 C2036 1.369 . S
C2035 C2037 1.419 . S
C2035 H2039 0.930 . S
C2036 C2035 1.369 . S
C2036 C2045 1.429 . S
C2037 C2035 1.419 . S
C2037 C2038 1.363 . S
C2037 H2040 0.929 . S
C2038 C2037 1.363 . S
C2038 C2044 1.428 . S
H2039 C2035 0.930 . S
H2040 C2037 0.929 . S
S2041 N2042 1.613 . S
S2041 N2043 1.610 . S
N2042 S2041 1.613 . S
N2042 C2045 1.350 . S
N2043 S2041 1.610 . S
N2043 C2044 1.351 . S
C2044 C2038 1.428 . S
C2044 N2043 1.351 . S
C2044 C2045 1.434 . S
C2045 C2036 1.429 . S
C2045 N2042 1.350 . S
C2045 C2044 1.434 . S
C2046 C2047 1.369 1_556 S
C2046 C2048 1.419 . S
C2046 H2050 0.930 . S
C2047 C2046 1.369 1_554 S
C2047 C2056 1.429 . S
C2048 C2046 1.419 . S
C2048 C2049 1.363 . S
C2048 H2051 0.929 . S
C2049 C2048 1.363 . S
C2049 C2055 1.428 . S
H2050 C2046 0.930 . S
H2051 C2048 0.929 . S
S2052 N2053 1.613 . S
S2052 N2054 1.610 . S
N2053 S2052 1.613 . S
N2053 C2056 1.350 . S
N2054 S2052 1.610 . S
N2054 C2055 1.351 1_554 S
C2055 C2049 1.428 . S
C2055 N2054 1.351 1_556 S
C2055 C2056 1.434 1_556 S
C2056 C2047 1.429 . S
C2056 N2053 1.350 . S
C2056 C2055 1.434 1_554 S
C2057 C2058 1.369 . S
C2057 C2059 1.419 . S
C2057 H2061 0.930 . S
C2058 C2057 1.369 . S
C2058 C2067 1.429 . S
C2059 C2057 1.419 . S
C2059 C2060 1.363 . S
C2059 H2062 0.929 . S
C2060 C2059 1.363 . S
C2060 C2066 1.428 . S
H2061 C2057 0.930 . S
H2062 C2059 0.929 . S
S2063 N2064 1.613 1_554 S
S2063 N2065 1.610 1_554 S
N2064 S2063 1.613 1_556 S
N2064 C2067 1.350 . S
N2065 S2063 1.610 1_556 S
N2065 C2066 1.351 . S
C2066 C2060 1.428 . S
C2066 N2065 1.351 . S
C2066 C2067 1.434 . S
C2067 C2058 1.429 . S
C2067 N2064 1.350 . S
C2067 C2066 1.434 . S
C2068 C2069 1.369 . S
C2068 C2070 1.419 . S
C2068 H2072 0.930 . S
C2069 C2068 1.369 . S
C2069 C2078 1.429 1_554 S
C2070 C2068 1.419 . S
C2070 C2071 1.363 1_554 S
C2070 H2073 0.929 . S
C2071 C2070 1.363 1_556 S
C2071 C2077 1.428 . S
H2072 C2068 0.930 . S
H2073 C2070 0.929 . S
S2074 N2075 1.613 . S
S2074 N2076 1.610 . S
N2075 S2074 1.613 . S
N2075 C2078 1.350 . S
N2076 S2074 1.610 . S
N2076 C2077 1.351 . S
C2077 C2071 1.428 . S
C2077 N2076 1.351 . S
C2077 C2078 1.434 . S
C2078 C2069 1.429 1_556 S
C2078 N2075 1.350 . S
C2078 C2077 1.434 . S
C2079 C2080 1.369 . S
C2079 C2081 1.419 . S
C2079 H2083 0.930 . S
C2080 C2079 1.369 . S
C2080 C2089 1.429 . S
C2081 C2079 1.419 . S
C2081 C2082 1.363 . S
C2081 H2084 0.929 . S
C2082 C2081 1.363 . S
C2082 C2088 1.428 . S
H2083 C2079 0.930 . S
H2084 C2081 0.929 . S
S2085 N2086 1.613 . S
S2085 N2087 1.610 . S
N2086 S2085 1.613 . S
N2086 C2089 1.350 . S
N2087 S2085 1.610 . S
N2087 C2088 1.351 . S
C2088 C2082 1.428 . S
C2088 N2087 1.351 . S
C2088 C2089 1.434 . S
C2089 C2080 1.429 . S
C2089 N2086 1.350 . S
C2089 C2088 1.434 . S
C2090 C2091 1.369 . S
C2090 C2092 1.419 . S
C2090 H2094 0.930 . S
C2091 C2090 1.369 . S
C2091 C2100 1.429 . S
C2092 C2090 1.419 . S
C2092 C2093 1.363 . S
C2092 H2095 0.929 . S
C2093 C2092 1.363 . S
C2093 C2099 1.428 . S
H2094 C2090 0.930 . S
H2095 C2092 0.929 . S
S2096 N2097 1.613 . S
S2096 N2098 1.610 . S
N2097 S2096 1.613 . S
N2097 C2100 1.350 . S
N2098 S2096 1.610 . S
N2098 C2099 1.351 . S
C2099 C2093 1.428 . S
C2099 N2098 1.351 . S
C2099 C2100 1.434 . S
C2100 C2091 1.429 . S
C2100 N2097 1.350 . S
C2100 C2099 1.434 . S
C2101 C2102 1.369 . S
C2101 C2103 1.419 . S
C2101 H2105 0.930 . S
C2102 C2101 1.369 . S
C2102 C2111 1.429 . S
C2103 C2101 1.419 . S
C2103 C2104 1.363 . S
C2103 H2106 0.929 . S
C2104 C2103 1.363 . S
C2104 C2110 1.428 . S
H2105 C2101 0.930 . S
H2106 C2103 0.929 . S
S2107 N2108 1.613 . S
S2107 N2109 1.610 . S
N2108 S2107 1.613 . S
N2108 C2111 1.350 . S
N2109 S2107 1.610 . S
N2109 C2110 1.351 . S
C2110 C2104 1.428 . S
C2110 N2109 1.351 . S
C2110 C2111 1.434 . S
C2111 C2102 1.429 . S
C2111 N2108 1.350 . S
C2111 C2110 1.434 . S
C2112 C2113 1.369 . S
C2112 C2114 1.419 . S
C2112 H2116 0.930 . S
C2113 C2112 1.369 . S
C2113 C2122 1.429 . S
C2114 C2112 1.419 . S
C2114 C2115 1.363 . S
C2114 H2117 0.929 . S
C2115 C2114 1.363 . S
C2115 C2121 1.428 . S
H2116 C2112 0.930 . S
H2117 C2114 0.929 . S
S2118 N2119 1.613 . S
S2118 N2120 1.610 . S
N2119 S2118 1.613 . S
N2119 C2122 1.350 . S
N2120 S2118 1.610 . S
N2120 C2121 1.351 . S
C2121 C2115 1.428 . S
C2121 N2120 1.351 . S
C2121 C2122 1.434 . S
C2122 C2113 1.429 . S
C2122 N2119 1.350 . S
C2122 C2121 1.434 . S
C2123 C2124 1.369 . S
C2123 C2125 1.419 . S
C2123 H2127 0.930 . S
C2124 C2123 1.369 . S
C2124 C2133 1.429 . S
C2125 C2123 1.419 . S
C2125 C2126 1.363 . S
C2125 H2128 0.929 . S
C2126 C2125 1.363 . S
C2126 C2132 1.428 . S
H2127 C2123 0.930 . S
H2128 C2125 0.929 . S
S2129 N2130 1.613 . S
S2129 N2131 1.610 . S
N2130 S2129 1.613 . S
N2130 C2133 1.350 . S
N2131 S2129 1.610 . S
N2131 C2132 1.351 . S
C2132 C2126 1.428 . S
C2132 N2131 1.351 . S
C2132 C2133 1.434 . S
C2133 C2124 1.429 . S
C2133 N2130 1.350 . S
C2133 C2132 1.434 . S
C2134 C2135 1.369 . S
C2134 C2136 1.419 . S
C2134 H2138 0.930 . S
C2135 C2134 1.369 . S
C2135 C2144 1.429 . S
C2136 C2134 1.419 . S
C2136 C2137 1.363 . S
C2136 H2139 0.929 . S
C2137 C2136 1.363 . S
C2137 C2143 1.428 . S
H2138 C2134 0.930 . S
H2139 C2136 0.929 . S
S2140 N2141 1.613 . S
S2140 N2142 1.610 . S
N2141 S2140 1.613 . S
N2141 C2144 1.350 . S
N2142 S2140 1.610 . S
N2142 C2143 1.351 . S
C2143 C2137 1.428 . S
C2143 N2142 1.351 . S
C2143 C2144 1.434 . S
C2144 C2135 1.429 . S
C2144 N2141 1.350 . S
C2144 C2143 1.434 . S
C2145 C2146 1.369 . S
C2145 C2147 1.419 . S
C2145 H2149 0.930 . S
C2146 C2145 1.369 . S
C2146 C2155 1.429 . S
C2147 C2145 1.419 . S
C2147 C2148 1.363 . S
C2147 H2150 0.929 . S
C2148 C2147 1.363 . S
C2148 C2154 1.428 . S
H2149 C2145 0.930 . S
H2150 C2147 0.929 . S
S2151 N2152 1.613 . S
S2151 N2153 1.610 . S
N2152 S2151 1.613 . S
N2152 C2155 1.350 . S
N2153 S2151 1.610 . S
N2153 C2154 1.351 . S
C2154 C2148 1.428 . S
C2154 N2153 1.351 . S
C2154 C2155 1.434 . S
C2155 C2146 1.429 . S
C2155 N2152 1.350 . S
C2155 C2154 1.434 . S
C2156 C2157 1.369 . S
C2156 C2158 1.419 . S
C2156 H2160 0.930 . S
C2157 C2156 1.369 . S
C2157 C2166 1.429 . S
C2158 C2156 1.419 . S
C2158 C2159 1.363 . S
C2158 H2161 0.929 . S
C2159 C2158 1.363 . S
C2159 C2165 1.428 . S
H2160 C2156 0.930 . S
H2161 C2158 0.929 . S
S2162 N2163 1.613 . S
S2162 N2164 1.610 . S
N2163 S2162 1.613 . S
N2163 C2166 1.350 . S
N2164 S2162 1.610 . S
N2164 C2165 1.351 . S
C2165 C2159 1.428 . S
C2165 N2164 1.351 . S
C2165 C2166 1.434 . S
C2166 C2157 1.429 . S
C2166 N2163 1.350 . S
C2166 C2165 1.434 . S
C2167 C2168 1.369 . S
C2167 C2169 1.419 . S
C2167 H2171 0.930 . S
C2168 C2167 1.369 . S
C2168 C2177 1.429 . S
C2169 C2167 1.419 . S
C2169 C2170 1.363 . S
C2169 H2172 0.929 . S
C2170 C2169 1.363 . S
C2170 C2176 1.428 . S
H2171 C2167 0.930 . S
H2172 C2169 0.929 . S
S2173 N2174 1.613 . S
S2173 N2175 1.610 . S
N2174 S2173 1.613 . S
N2174 C2177 1.350 . S
N2175 S2173 1.610 . S
N2175 C2176 1.351 . S
C2176 C2170 1.428 . S
C2176 N2175 1.351 . S
C2176 C2177 1.434 . S
C2177 C2168 1.429 . S
C2177 N2174 1.350 . S
C2177 C2176 1.434 . S
C2178 C2179 1.369 . S
C2178 C2180 1.419 . S
C2178 H2182 0.930 . S
C2179 C2178 1.369 . S
C2179 C2188 1.388 1_565 S
C2180 C2178 1.419 . S
C2180 C2181 1.363 . S
C2180 H2183 0.929 . S
C2181 C2180 1.363 . S
C2181 C2187 1.428 1_565 S
H2182 C2178 0.930 . S
H2183 C2180 0.929 . S
S2184 N2185 1.613 . S
S2184 N2186 1.610 . S
N2185 S2184 1.613 . S
N2185 C2188 1.367 . S
N2186 S2184 1.610 . S
N2186 C2187 1.351 . S
C2187 C2181 1.428 1_545 S
C2187 N2186 1.351 . S
C2187 C2188 1.462 . S
C2188 C2179 1.388 1_545 S
C2188 N2185 1.367 . S
C2188 C2187 1.462 . S
C2189 C2190 1.369 . S
C2189 C2191 1.419 . S
C2189 H2193 0.930 . S
C2190 C2189 1.369 . S
C2190 C2199 1.429 . S
C2191 C2189 1.419 . S
C2191 C2192 1.363 . S
C2191 H2194 0.929 . S
C2192 C2191 1.363 . S
C2192 C2198 1.428 1_455 S
H2193 C2189 0.930 . S
H2194 C2191 0.929 . S
S2195 N2196 1.613 . S
S2195 N2197 1.610 . S
N2196 S2195 1.613 . S
N2196 C2199 1.350 1_655 S
N2197 S2195 1.610 . S
N2197 C2198 1.351 . S
C2198 C2192 1.428 1_655 S
C2198 N2197 1.351 . S
C2198 C2199 1.434 1_655 S
C2199 C2190 1.429 . S
C2199 N2196 1.350 1_455 S
C2199 C2198 1.434 1_455 S
C2200 C2201 1.369 . S
C2200 C2202 1.419 . S
C2200 H2204 0.930 . S
C2201 C2200 1.369 . S
C2201 C2210 1.429 . S
C2202 C2200 1.419 . S
C2202 C2203 1.363 . S
C2202 H2205 0.929 . S
C2203 C2202 1.363 . S
C2203 C2209 1.428 . S
H2204 C2200 0.930 . S
H2205 C2202 0.929 . S
S2206 N2207 1.613 . S
S2206 N2208 1.610 . S
N2207 S2206 1.613 . S
N2207 C2210 1.350 . S
N2208 S2206 1.610 . S
N2208 C2209 1.351 . S
C2209 C2203 1.428 . S
C2209 N2208 1.351 . S
C2209 C2210 1.434 . S
C2210 C2201 1.429 . S
C2210 N2207 1.350 . S
C2210 C2209 1.434 . S
C2211 C2212 1.369 . S
C2211 C2213 1.419 . S
C2211 H2215 0.930 . S
C2212 C2211 1.369 . S
C2212 C2221 1.429 . S
C2213 C2211 1.419 . S
C2213 C2214 1.363 . S
C2213 H2216 0.929 . S
C2214 C2213 1.363 . S
C2214 C2220 1.428 . S
H2215 C2211 0.930 . S
H2216 C2213 0.929 . S
S2217 N2218 1.613 . S
S2217 N2219 1.610 . S
N2218 S2217 1.613 . S
N2218 C2221 1.350 . S
N2219 S2217 1.610 . S
N2219 C2220 1.351 . S
C2220 C2214 1.428 . S
C2220 N2219 1.351 . S
C2220 C2221 1.434 . S
C2221 C2212 1.429 . S
C2221 N2218 1.350 . S
C2221 C2220 1.434 . S
C2222 C2223 1.369 . S
C2222 C2224 1.419 . S
C2222 H2226 0.930 . S
C2223 C2222 1.369 . S
C2223 C2232 1.429 . S
C2224 C2222 1.419 . S
C2224 C2225 1.363 . S
C2224 H2227 0.929 . S
C2225 C2224 1.363 . S
C2225 C2231 1.428 . S
H2226 C2222 0.930 . S
H2227 C2224 0.929 . S
S2228 N2229 1.613 . S
S2228 N2230 1.610 . S
N2229 S2228 1.613 . S
N2229 C2232 1.350 . S
N2230 S2228 1.610 . S
N2230 C2231 1.351 . S
C2231 C2225 1.428 . S
C2231 N2230 1.351 . S
C2231 C2232 1.434 . S
C2232 C2223 1.429 . S
C2232 N2229 1.350 . S
C2232 C2231 1.434 . S
C2233 C2234 1.369 . S
C2233 C2235 1.419 . S
C2233 H2237 0.930 . S
C2234 C2233 1.369 . S
C2234 C2243 1.429 . S
C2235 C2233 1.419 . S
C2235 C2236 1.363 . S
C2235 H2238 0.929 . S
C2236 C2235 1.363 . S
C2236 C2242 1.428 . S
H2237 C2233 0.930 . S
H2238 C2235 0.929 . S
S2239 N2240 1.613 . S
S2239 N2241 1.610 . S
N2240 S2239 1.613 . S
N2240 C2243 1.350 . S
N2241 S2239 1.610 . S
N2241 C2242 1.351 . S
C2242 C2236 1.428 . S
C2242 N2241 1.351 . S
C2242 C2243 1.434 . S
C2243 C2234 1.429 . S
C2243 N2240 1.350 . S
C2243 C2242 1.434 . S
C2244 C2245 1.369 . S
C2244 C2246 1.419 . S
C2244 H2248 0.930 . S
C2245 C2244 1.369 . S
C2245 C2254 1.429 . S
C2246 C2244 1.419 . S
C2246 C2247 1.363 . S
C2246 H2249 0.929 . S
C2247 C2246 1.363 . S
C2247 C2253 1.428 . S
H2248 C2244 0.930 . S
H2249 C2246 0.929 . S
S2250 N2251 1.613 . S
S2250 N2252 1.610 . S
N2251 S2250 1.613 . S
N2251 C2254 1.350 . S
N2252 S2250 1.610 . S
N2252 C2253 1.351 . S
C2253 C2247 1.428 . S
C2253 N2252 1.351 . S
C2253 C2254 1.434 . S
C2254 C2245 1.429 . S
C2254 N2251 1.350 . S
C2254 C2253 1.434 . S
C2255 C2256 1.389 . S
C2255 C2257 1.432 1_655 S
C2255 H2259 0.895 1_655 S
C2256 C2255 1.389 . S
C2256 C2265 1.429 . S
C2257 C2255 1.432 1_455 S
C2257 C2258 1.363 1_455 S
C2257 H2260 0.929 . S
C2258 C2257 1.363 1_655 S
C2258 C2264 1.428 . S
H2259 C2255 0.895 1_455 S
H2260 C2257 0.929 . S
S2261 N2262 1.613 . S
S2261 N2263 1.610 . S
N2262 S2261 1.613 . S
N2262 C2265 1.350 . S
N2263 S2261 1.610 . S
N2263 C2264 1.351 . S
C2264 C2258 1.428 . S
C2264 N2263 1.351 . S
C2264 C2265 1.434 . S
C2265 C2256 1.429 . S
C2265 N2262 1.350 . S
C2265 C2264 1.434 . S
C2266 C2267 1.369 . S
C2266 C2268 1.419 . S
C2266 H2270 0.930 . S
C2267 C2266 1.369 . S
C2267 C2276 1.429 . S
C2268 C2266 1.419 . S
C2268 C2269 1.363 . S
C2268 H2271 0.929 . S
C2269 C2268 1.363 . S
C2269 C2275 1.428 . S
H2270 C2266 0.930 . S
H2271 C2268 0.929 . S
S2272 N2273 1.613 . S
S2272 N2274 1.610 . S
N2273 S2272 1.613 . S
N2273 C2276 1.350 . S
N2274 S2272 1.610 . S
N2274 C2275 1.351 . S
C2275 C2269 1.428 . S
C2275 N2274 1.351 . S
C2275 C2276 1.434 . S
C2276 C2267 1.429 . S
C2276 N2273 1.350 . S
C2276 C2275 1.434 . S
C2277 C2278 1.369 . S
C2277 C2279 1.419 . S
C2277 H2281 0.930 . S
C2278 C2277 1.369 . S
C2278 C2287 1.429 . S
C2279 C2277 1.419 . S
C2279 C2280 1.363 . S
C2279 H2282 0.929 . S
C2280 C2279 1.363 . S
C2280 C2286 1.428 . S
H2281 C2277 0.930 . S
H2282 C2279 0.929 . S
S2283 N2284 1.613 . S
S2283 N2285 1.610 . S
N2284 S2283 1.613 . S
N2284 C2287 1.350 . S
N2285 S2283 1.610 . S
N2285 C2286 1.351 . S
C2286 C2280 1.428 . S
C2286 N2285 1.351 . S
C2286 C2287 1.434 . S
C2287 C2278 1.429 . S
C2287 N2284 1.350 . S
C2287 C2286 1.434 . S
C2288 C2289 1.369 . S
C2288 C2290 1.419 . S
C2288 H2292 0.930 . S
C2289 C2288 1.369 . S
C2289 C2298 1.429 . S
C2290 C2288 1.419 . S
C2290 C2291 1.363 . S
C2290 H2293 0.929 . S
C2291 C2290 1.363 . S
C2291 C2297 1.428 . S
H2292 C2288 0.930 . S
H2293 C2290 0.929 . S
S2294 N2295 1.613 . S
S2294 N2296 1.610 . S
N2295 S2294 1.613 . S
N2295 C2298 1.350 . S
N2296 S2294 1.610 . S
N2296 C2297 1.351 . S
C2297 C2291 1.428 . S
C2297 N2296 1.351 . S
C2297 C2298 1.434 . S
C2298 C2289 1.429 . S
C2298 N2295 1.350 . S
C2298 C2297 1.434 . S
C2299 C2300 1.369 . S
C2299 C2301 1.419 . S
C2299 H2303 0.930 . S
C2300 C2299 1.369 . S
C2300 C2309 1.429 . S
C2301 C2299 1.419 . S
C2301 C2302 1.363 . S
C2301 H2304 0.929 . S
C2302 C2301 1.363 . S
C2302 C2308 1.428 . S
H2303 C2299 0.930 . S
H2304 C2301 0.929 . S
S2305 N2306 1.613 . S
S2305 N2307 1.610 . S
N2306 S2305 1.613 . S
N2306 C2309 1.350 . S
N2307 S2305 1.610 . S
N2307 C2308 1.351 . S
C2308 C2302 1.428 . S
C2308 N2307 1.351 . S
C2308 C2309 1.434 . S
C2309 C2300 1.429 . S
C2309 N2306 1.350 . S
C2309 C2308 1.434 . S
C2310 C2311 1.369 . S
C2310 C2312 1.419 . S
C2310 H2314 0.930 . S
C2311 C2310 1.369 . S
C2311 C2320 1.429 . S
C2312 C2310 1.419 . S
C2312 C2313 1.363 . S
C2312 H2315 0.929 . S
C2313 C2312 1.363 . S
C2313 C2319 1.428 . S
H2314 C2310 0.930 . S
H2315 C2312 0.929 . S
S2316 N2317 1.613 . S
S2316 N2318 1.610 . S
N2317 S2316 1.613 . S
N2317 C2320 1.350 . S
N2318 S2316 1.610 . S
N2318 C2319 1.351 . S
C2319 C2313 1.428 . S
C2319 N2318 1.351 . S
C2319 C2320 1.434 . S
C2320 C2311 1.429 . S
C2320 N2317 1.350 . S
C2320 C2319 1.434 . S
C2321 C2322 1.369 . S
C2321 C2323 1.419 . S
C2321 H2325 0.930 . S
C2322 C2321 1.369 . S
C2322 C2331 1.429 . S
C2323 C2321 1.419 . S
C2323 C2324 1.363 . S
C2323 H2326 0.929 . S
C2324 C2323 1.363 . S
C2324 C2330 1.428 . S
H2325 C2321 0.930 . S
H2326 C2323 0.929 . S
S2327 N2328 1.613 . S
S2327 N2329 1.610 . S
N2328 S2327 1.613 . S
N2328 C2331 1.350 . S
N2329 S2327 1.610 . S
N2329 C2330 1.351 . S
C2330 C2324 1.428 . S
C2330 N2329 1.351 . S
C2330 C2331 1.434 . S
C2331 C2322 1.429 . S
C2331 N2328 1.350 . S
C2331 C2330 1.434 . S
C2332 C2333 1.369 . S
C2332 C2334 1.419 . S
C2332 H2336 0.930 . S
C2333 C2332 1.369 . S
C2333 C2342 1.429 . S
C2334 C2332 1.419 . S
C2334 C2335 1.363 . S
C2334 H2337 0.929 . S
C2335 C2334 1.363 . S
C2335 C2341 1.428 . S
H2336 C2332 0.930 . S
H2337 C2334 0.929 . S
S2338 N2339 1.613 . S
S2338 N2340 1.610 . S
N2339 S2338 1.613 . S
N2339 C2342 1.350 . S
N2340 S2338 1.610 . S
N2340 C2341 1.351 . S
C2341 C2335 1.428 . S
C2341 N2340 1.351 . S
C2341 C2342 1.434 . S
C2342 C2333 1.429 . S
C2342 N2339 1.350 . S
C2342 C2341 1.434 . S
C2343 C2344 1.369 . S
C2343 C2345 1.419 . S
C2343 H2347 0.930 . S
C2344 C2343 1.369 . S
C2344 C2353 1.429 . S
C2345 C2343 1.419 . S
C2345 C2346 1.363 . S
C2345 H2348 0.929 . S
C2346 C2345 1.363 . S
C2346 C2352 1.428 . S
H2347 C2343 0.930 . S
H2348 C2345 0.929 . S
S2349 N2350 1.613 . S
S2349 N2351 1.610 . S
N2350 S2349 1.613 . S
N2350 C2353 1.350 . S
N2351 S2349 1.610 . S
N2351 C2352 1.351 . S
C2352 C2346 1.428 . S
C2352 N2351 1.351 . S
C2352 C2353 1.434 . S
C2353 C2344 1.429 . S
C2353 N2350 1.350 . S
C2353 C2352 1.434 . S
C2354 C2355 1.369 . S
C2354 C2356 1.419 . S
C2354 H2358 0.930 . S
C2355 C2354 1.369 . S
C2355 C2364 1.429 . S
C2356 C2354 1.419 . S
C2356 C2357 1.363 . S
C2356 H2359 0.929 . S
C2357 C2356 1.363 . S
C2357 C2363 1.428 . S
H2358 C2354 0.930 . S
H2359 C2356 0.929 . S
S2360 N2361 1.613 . S
S2360 N2362 1.610 . S
N2361 S2360 1.613 . S
N2361 C2364 1.350 . S
N2362 S2360 1.610 . S
N2362 C2363 1.351 . S
C2363 C2357 1.428 . S
C2363 N2362 1.351 . S
C2363 C2364 1.434 . S
C2364 C2355 1.429 . S
C2364 N2361 1.350 . S
C2364 C2363 1.434 . S
C2365 C2366 1.369 . S
C2365 C2367 1.419 . S
C2365 H2369 0.930 . S
C2366 C2365 1.369 . S
C2366 C2375 1.429 . S
C2367 C2365 1.419 . S
C2367 C2368 1.363 . S
C2367 H2370 0.929 . S
C2368 C2367 1.363 . S
C2368 C2374 1.428 . S
H2369 C2365 0.930 . S
H2370 C2367 0.929 . S
S2371 N2372 1.613 . S
S2371 N2373 1.610 . S
N2372 S2371 1.613 . S
N2372 C2375 1.350 . S
N2373 S2371 1.610 . S
N2373 C2374 1.351 . S
C2374 C2368 1.428 . S
C2374 N2373 1.351 . S
C2374 C2375 1.434 . S
C2375 C2366 1.429 . S
C2375 N2372 1.350 . S
C2375 C2374 1.434 . S
C1585 C9 1.403 1_655 S
C1587 C981 1.272 . S
C1596 C19 1.665 . S
C1598 C1061 1.583 . S
C1609 C1129 1.409 . S
C1607 C33 1.472 . S
C1618 C37 1.730 . S
C1620 C1209 1.723 . S
C1629 C5 1.525 . S
C1631 C1283 1.506 . S
C1640 C23 1.782 . S
C1642 C1351 1.636 . S
C1651 C47 1.283 1_556 S
C1653 C1277 1.218 . S
C1664 C1357 1.519 . S
C1662 C65 1.521 . S
C1675 C1203 1.320 . S
C1673 C75 1.363 1_556 S
C1684 C79 1.615 . S
C1686 C1135 1.661 1_545 S
C1697 C987 1.514 . S
C1695 C51 1.492 . S
C1706 C61 1.518 . S
C1708 C1055 1.482 . S
C1717 C93 1.745 . S
C1719 C1425 1.529 . S
C1728 C103 1.724 . S
C1730 C1505 1.635 . S
C1741 C1573 1.589 . S
C1739 C117 1.719 . S
C1750 C121 1.974 . S
C1752 C321 1.878 . S
C1761 C89 1.810 . S
C1763 C395 1.716 . S
C1772 C107 1.818 . S
C1774 C463 1.672 . S
C1783 C131 1.331 . S
C1785 C389 1.266 . S
C1794 C149 1.556 . S
C1796 C469 1.548 . S
C1807 C315 1.417 . S
C1805 C159 1.450 . S
C1818 C1579 1.818 . S
C1816 C163 1.824 . S
C1829 C1431 1.615 . S
C1827 C135 1.633 . S
C1840 C1499 1.524 . S
C1838 C145 1.555 . S
C1849 C177 1.658 . S
C1851 C537 1.434 . S
C1860 C187 1.720 . S
C1862 C617 1.622 . S
C1871 C201 1.746 . S
C1873 C685 1.606 . S
C1882 C205 2.051 . S
C1884 C765 1.954 . S
C1895 C839 1.711 . S
C1893 C173 1.809 . S
C1906 C907 1.703 . S
C1904 C191 1.849 . S
C1917 C833 1.356 . S
C1915 C215 1.430 . S
C1928 C913 1.550 . S
C1926 C233 1.562 . S
C1937 C243 1.412 . S
C1939 C759 1.385 . S
C1950 C691 1.731 . S
C1948 C247 1.738 . S
C1959 C219 1.647 . S
C1961 C543 1.632 . S
C1972 C611 1.510 . S
C1970 C229 1.535 . S
C1983 C291 1.894 . S
C1981 C11 1.957 . S
C1992 C14 1.512 . S
C1994 C365 1.483 . S
C2005 C451 1.620 . S
C2003 C28 1.643 . S
C2016 C525 1.390 . S
C2014 C39 1.446 1_556 S
C2027 C587 1.631 . S
C2025 C0 1.670 1_556 S
C2038 C673 1.521 1_554 S
C2036 C25 1.545 . S
C2047 C42 2.257 . S
C2049 C661 2.093 . S
C2058 C67 1.799 . S
C2060 C513 1.656 . S
C2069 C70 1.849 . S
C2071 C599 1.746 . S
C2080 C81 1.706 . S
C2082 C377 1.584 . S
C2093 C439 1.791 . S
C2091 C53 1.943 . S
C2102 C56 1.922 . S
C2104 C303 1.806 . S
C2115 C735 1.835 . S
C2113 C95 1.893 . S
C2124 C98 1.606 1_545 S
C2126 C809 1.594 . S
C2135 C112 1.682 1_655 S
C2137 C895 1.647 . S
C2148 C969 1.203 . S
C2146 C123 1.228 . S
C2157 C84 1.596 . S
C2159 C1031 1.565 . S
C2168 C109 1.417 . S
C2170 C1117 1.418 . S
C2179 C126 1.927 . S
C2181 C1105 1.830 1_565 S
C2190 C151 1.489 . S
C2192 C957 1.426 1_455 S
C2203 C1043 1.688 . S
C2201 C154 1.786 . S
C2212 C165 1.709 . S
C2214 C821 1.566 . S
C2223 C137 1.926 . S
C2225 C883 1.791 . S
C2236 C747 1.871 . S
C2234 C140 1.979 1_655 S
C2247 C1179 1.725 . S
C2245 C179 1.775 . S
C2256 C182 1.339 . S
C2258 C1253 1.337 . S
C2267 C196 1.598 . S
C2269 C1339 1.570 . S
C2280 C1413 1.384 . S
C2278 C207 1.445 . S
C2291 C1475 1.650 . S
C2289 C168 1.676 . S
C2300 C193 1.622 . S
C2302 C1561 1.597 . S
C2311 C210 2.197 . S
C2313 C1549 2.046 . S
C2322 C235 1.888 . S
C2324 C1401 1.749 . S
C2335 C1487 1.757 . S
C2333 C238 1.874 1_455 S
C2346 C1265 1.254 . S
C2344 C249 1.323 . S
C2357 C1327 1.719 . S
C2355 C221 1.849 . S
C2366 C224 1.609 . S
C2368 C1191 1.558 . S
