# Generated by pormake.
# Topology rtl, (3,6)-cn, num edge types: 1
# Building blocks:
#     Node 0, Type 0, BuildingBlock: BETDIP_clean_linker_0, # of connection points: 3
#     Node 1, Type 0, BuildingBlock: BETDIP_clean_linker_0, # of connection points: 3
#     Node 2, Type 0, BuildingBlock: BETDIP_clean_linker_0, # of connection points: 3
#     Node 3, Type 0, BuildingBlock: BETDIP_clean_linker_0, # of connection points: 3
#     Node 4, Type 1, BuildingBlock: KUMBUR_clean_sbu_1, # of connection points: 6
#     Node 5, Type 1, BuildingBlock: KUMBUR_clean_sbu_1, # of connection points: 6
#     Edge 6, Type (0, 1), BuildingBlock: EZIPEK_clean_linker_0, # of connection points: 2
#     Edge 7, Type (0, 1), BuildingBlock: EZIPEK_clean_linker_0, # of connection points: 2
#     Edge 8, Type (0, 1), BuildingBlock: EZIPEK_clean_linker_0, # of connection points: 2
#     Edge 9, Type (0, 1), BuildingBlock: EZIPEK_clean_linker_0, # of connection points: 2
#     Edge 10, Type (0, 1), BuildingBlock: EZIPEK_clean_linker_0, # of connection points: 2
#     Edge 11, Type (0, 1), BuildingBlock: EZIPEK_clean_linker_0, # of connection points: 2
#     Edge 12, Type (0, 1), BuildingBlock: EZIPEK_clean_linker_0, # of connection points: 2
#     Edge 13, Type (0, 1), BuildingBlock: EZIPEK_clean_linker_0, # of connection points: 2
#     Edge 14, Type (0, 1), BuildingBlock: EZIPEK_clean_linker_0, # of connection points: 2
#     Edge 15, Type (0, 1), BuildingBlock: EZIPEK_clean_linker_0, # of connection points: 2
#     Edge 16, Type (0, 1), BuildingBlock: EZIPEK_clean_linker_0, # of connection points: 2
#     Edge 17, Type (0, 1), BuildingBlock: EZIPEK_clean_linker_0, # of connection points: 2
# Relax obj value: 0.054
# Max RMSD: 0.240
# Mean RMSD: 0.172
data_MOF--net-rtl--node1-KUMBUR_clean_sbu_1--node2-BETDIP_clean_linker_0--edge1-EZIPEK_clean_linker_0
_symmetry_space_group_name_H-M    P1
_symmetry_Int_Tables_number       1
_symmetry_cell_setting            triclinic
loop_
_symmetry_equiv_pos_as_xyz
'x, y, z'
_cell_length_a     26.164059
_cell_length_b     26.643749
_cell_length_c     20.477164
_cell_angle_alpha  73.935959
_cell_angle_beta   99.953158
_cell_angle_gamma 91.737229
loop_
_atom_site_label
_atom_site_type_symbol
_atom_site_fract_x
_atom_site_fract_y
_atom_site_fract_z
_atom_type_partial_charge
H0 H 0.21452 0.81476 0.92074 0.0
H1 H 0.22732 0.76403 0.14179 0.0
H2 H 0.12855 0.89533 0.02324 0.0
H3 H 0.29196 0.77475 0.94089 0.0
C4 C 0.29552 0.74433 0.9893 0.0
C5 C 0.2052 0.81962 0.96812 0.0
C6 C 0.16977 0.8594 0.96443 0.0
C7 C 0.22709 0.78585 0.03235 0.0
C8 C 0.2116 0.79088 0.09246 0.0
C9 C 0.17607 0.83016 0.08958 0.0
C10 C 0.15611 0.86503 0.02564 0.0
N11 N 0.26377 0.74566 0.03871 0.0
H12 H 0.70747 0.73145 0.80485 0.0
H13 H 0.73121 0.73088 0.60179 0.0
H14 H 0.61945 0.62952 0.69819 0.0
H15 H 0.81424 0.74383 0.64877 0.0
C16 C 0.80772 0.77498 0.67133 0.0
C17 C 0.69729 0.71767 0.75928 0.0
C18 C 0.65905 0.67928 0.75749 0.0
C19 C 0.72439 0.73601 0.70368 0.0
C20 C 0.71161 0.71677 0.64565 0.0
C21 C 0.67423 0.67839 0.64372 0.0
C22 C 0.64756 0.66017 0.69917 0.0
N23 N 0.76504 0.77267 0.70703 0.0
H24 H 0.77625 0.21698 0.01455 0.0
H25 H 0.81948 0.18953 0.23462 0.0
H26 H 0.90287 0.11155 0.12715 0.0
H27 H 0.77567 0.2608 0.22042 0.0
C28 C 0.75062 0.27191 0.17052 0.0
C29 C 0.80064 0.19754 0.06296 0.0
C30 C 0.84018 0.16284 0.06376 0.0
C31 C 0.79325 0.20861 0.12374 0.0
C32 C 0.82508 0.1832 0.18643 0.0
C33 C 0.86448 0.14825 0.18772 0.0
C34 C 0.8722 0.1383 0.12628 0.0
N35 N 0.7542 0.24605 0.11926 0.0
H36 H 0.30788 0.31159 0.34306 0.0
H37 H 0.28533 0.32849 0.53981 0.0
H38 H 0.40712 0.41068 0.44112 0.0
H39 H 0.21151 0.29009 0.52029 0.0
C40 C 0.21698 0.26359 0.49021 0.0
C41 C 0.31883 0.32828 0.38599 0.0
C42 C 0.35949 0.36412 0.3849 0.0
C43 C 0.29204 0.31423 0.44219 0.0
C44 C 0.30565 0.33783 0.49642 0.0
C45 C 0.34731 0.37249 0.49667 0.0
C46 C 0.37484 0.38413 0.44147 0.0
N47 N 0.25352 0.2749 0.44404 0.0
Tb48 Tb 0.06185 0.95778 0.54099 0.0
C49 C 0.93458 0.15958 0.49076 0.0
N50 N 0.97843 0.14418 0.5381 0.0
C51 C 0.01243 0.23049 0.50195 0.0
C52 C 0.92884 0.21032 0.44506 0.0
C53 C 0.01602 0.17987 0.54651 0.0
C54 C 0.96899 0.24559 0.45032 0.0
C55 C 0.8472 0.13953 0.44429 0.0
C56 C 0.89429 0.12504 0.49036 0.0
C57 C 0.84216 0.18901 0.39617 0.0
C58 C 0.88293 0.22438 0.39658 0.0
Tb59 Tb 0.98037 0.05908 0.60585 0.0
N60 N 0.9009 0.07742 0.53711 0.0
C61 C 0.80628 0.10433 0.44939 0.0
C62 C 0.85999 0.04466 0.54602 0.0
C63 C 0.81241 0.05708 0.50138 0.0
H64 H 0.04869 0.17003 0.58818 0.0
H65 H 0.78051 0.03029 0.50722 0.0
H66 H 1.0047 0.84754 0.60679 0.0
H67 H 0.26613 0.00532 0.55655 0.0
H68 H 0.86449 0.0085 0.58676 0.0
H69 H 0.7694 0.11392 0.41495 0.0
H70 H 0.1736 0.01774 0.50738 0.0
H71 H 0.04292 0.25803 0.50805 0.0
H72 H 0.8065 0.20075 0.35966 0.0
H73 H 0.87812 0.26289 0.3603 0.0
H74 H 0.02775 0.76505 0.69755 0.0
H75 H 0.9662 0.2849 0.41613 0.0
H76 H 0.29678 0.92774 0.65307 0.0
N77 N 0.08023 0.87885 0.62086 0.0
C78 C 0.13059 0.86891 0.65122 0.0
C79 C 0.05699 0.7942 0.68564 0.0
C80 C 0.14588 0.822 0.70258 0.0
C81 C 0.04384 0.84136 0.63488 0.0
C82 C 0.1081 0.78479 0.72045 0.0
N83 N 0.15005 0.95011 0.57932 0.0
C84 C 0.18549 0.98476 0.55145 0.0
C85 C 0.21978 0.89654 0.65833 0.0
C86 C 0.16673 0.90585 0.62973 0.0
C87 C 0.25569 0.93339 0.63253 0.0
C88 C 0.23849 0.97735 0.5783 0.0
H89 H 0.11823 0.74821 0.75967 0.0
H90 H 0.21085 0.7779 0.77342 0.0
H91 H 0.27572 0.84314 0.73439 0.0
O92 O 0.10271 0.94266 0.46839 0.0
O93 O 0.06166 0.94457 0.65192 0.0
O94 O 0.0541 0.02554 0.67085 0.0
O95 O 0.02564 0.91454 0.47403 0.0
O96 O 0.09058 0.0382 0.52325 0.0
O97 O 0.06088 0.08094 0.595 0.0
O98 O 0.9367 0.0388 0.68668 0.0
O99 O 0.95596 0.04007 0.50723 0.0
O100 O 0.03004 0.03045 0.46687 0.0
O101 O 0.97623 0.11124 0.66542 0.0
O102 O 0.96269 0.97552 0.63809 0.0
O103 O 0.97952 0.9415 0.55055 0.0
C104 C 0.07115 0.97672 0.69092 0.0
C105 C 0.08136 0.86889 0.42824 0.0
C106 C 0.11204 0.82885 0.34786 0.0
C107 C 0.11409 0.78007 0.39712 0.0
C108 C 0.08386 0.81987 0.47696 0.0
C109 C 0.10007 0.77571 0.46129 0.0
C110 C 0.09553 0.87318 0.36366 0.0
C111 C 0.0922 0.07684 0.55238 0.0
C112 C 0.06558 0.9165 0.44342 0.0
C113 C 0.19832 0.81347 0.73336 0.0
C114 C 0.23524 0.85063 0.71114 0.0
C115 C 0.98276 0.04903 0.45688 0.0
C116 C 0.90188 0.10887 0.7162 0.0
C117 C 0.85981 0.13816 0.79691 0.0
C118 C 0.82167 0.16441 0.74201 0.0
C119 C 0.86354 0.13544 0.66181 0.0
C120 C 0.89967 0.11002 0.78386 0.0
C121 C 0.82348 0.16281 0.67483 0.0
C122 C 0.95471 0.94113 0.60193 0.0
C123 C 0.94596 0.08212 0.70343 0.0
H124 H 0.12663 0.74546 0.38583 0.0
H125 H 0.07346 0.81565 0.52693 0.0
H126 H 0.10188 0.73798 0.49909 0.0
H127 H 0.09393 0.91096 0.32576 0.0
H128 H 0.79073 0.1863 0.75123 0.0
H129 H 0.86483 0.13566 0.60937 0.0
H130 H 0.92945 0.09007 0.82613 0.0
H131 H 0.79409 0.18332 0.63261 0.0
Tb132 Tb 0.48155 0.46767 0.01754 0.0
C133 C 0.65953 0.61034 0.08097 0.0
N134 N 0.64995 0.56103 0.11697 0.0
C135 C 0.7375 0.53505 0.11977 0.0
C136 C 0.70771 0.62329 0.05939 0.0
C137 C 0.68892 0.52416 0.13971 0.0
C138 C 0.74661 0.58455 0.0782 0.0
C139 C 0.63015 0.70027 0.03301 0.0
C140 C 0.62116 0.648 0.06768 0.0
C141 C 0.67711 0.7131 1.00832 0.0
C142 C 0.71582 0.67464 0.02143 0.0
Tb143 Tb 0.56843 0.54583 0.14304 0.0
N144 N 0.57616 0.63382 0.09198 0.0
C145 C 0.59234 0.73825 0.02593 0.0
C146 C 0.54087 0.67159 0.08943 0.0
C147 C 0.54795 0.72396 0.05542 0.0
H148 H 0.68287 0.48633 0.17349 0.0
H149 H 0.51933 0.75333 0.05253 0.0
H150 H 0.36643 0.5319 0.94626 0.0
H151 H 0.51823 0.26309 0.14812 0.0
H152 H 0.50743 0.66206 0.1145 0.0
H153 H 0.59778 0.77886 0.99977 0.0
H154 H 0.53898 0.35028 0.07811 0.0
H155 H 0.76788 0.50529 0.13669 0.0
H156 H 0.68439 0.75289 0.98062 0.0
H157 H 0.75234 0.68529 1.00358 0.0
H158 H 0.27643 0.52114 0.96654 0.0
H159 H 0.78425 0.5929 0.06282 0.0
H160 H 0.4321 0.24764 0.1838 0.0
N161 N 0.39459 0.46202 0.0237 0.0
C162 C 0.38064 0.416 0.065 0.0
C163 C 0.30555 0.49167 0.99553 0.0
C164 C 0.32909 0.40757 0.0766 0.0
C165 C 0.35705 0.49801 0.98511 0.0
C166 C 0.29173 0.44682 0.04272 0.0
N167 N 0.46622 0.38439 0.07723 0.0
C168 C 0.50152 0.34414 0.094 0.0
C169 C 0.4038 0.32656 0.13151 0.0
C170 C 0.41738 0.3757 0.09181 0.0
C171 C 0.44103 0.28602 0.15322 0.0
C172 C 0.48974 0.2946 0.13323 0.0
H173 H 0.25172 0.44188 0.0503 0.0
H174 H 0.27691 0.3528 0.12996 0.0
H175 H 0.3424 0.28196 0.17828 0.0
O176 O 0.51132 0.46205 0.93018 0.0
O177 O 0.49538 0.4379 0.12936 0.0
O178 O 0.49645 0.5077 0.17322 0.0
O179 O 0.43664 0.43344 0.94646 0.0
O180 O 0.5645 0.44305 0.05559 0.0
O181 O 0.58991 0.46374 0.1601 0.0
O182 O 0.57311 0.58898 0.21554 0.0
O183 O 0.58645 0.54316 0.04279 0.0
O184 O 0.5094 0.54556 0.96965 0.0
O185 O 0.60813 0.51268 0.24436 0.0
O186 O 0.49019 0.57789 0.10082 0.0
O187 O 0.44736 0.5436 0.01299 0.0
C188 C 0.47995 0.46085 0.1714 0.0
C189 C 0.44428 0.4742 0.83341 0.0
C190 C 0.40171 0.47299 0.71803 0.0
C191 C 0.37699 0.52095 0.71065 0.0
C192 C 0.4211 0.52312 0.82361 0.0
C193 C 0.38778 0.54643 0.76238 0.0
C194 C 0.43634 0.45029 0.77953 0.0
C195 C 0.59542 0.43676 0.11637 0.0
C196 C 0.46848 0.44457 0.90311 0.0
C197 C 0.31611 0.35962 0.11949 0.0
C198 C 0.35338 0.31921 0.14688 0.0
C199 C 0.55687 0.56227 0.98255 0.0
C200 C 0.64446 0.57288 0.30564 0.0
C201 C 0.67673 0.60641 0.40407 0.0
C202 C 0.72554 0.61354 0.38364 0.0
C203 C 0.69331 0.58076 0.28541 0.0
C204 C 0.63634 0.58577 0.36515 0.0
C205 C 0.7337 0.60076 0.32451 0.0
C206 C 0.45177 0.57779 0.04988 0.0
C207 C 0.60055 0.55367 0.26445 0.0
H208 H 0.34944 0.53881 0.66457 0.0
H209 H 0.42692 0.54203 0.86463 0.0
H210 H 0.36899 0.58355 0.75591 0.0
H211 H 0.45459 0.41267 0.78694 0.0
H212 H 0.75712 0.62933 0.41323 0.0
H213 H 0.70032 0.57193 0.23947 0.0
H214 H 0.59856 0.58036 0.38083 0.0
H215 H 0.77131 0.60669 0.30865 0.0
C216 C 0.16021 0.19522 0.45126 0.0
C217 C 0.18991 0.2126 0.5051 0.0
C218 C 0.16006 0.1383 0.59038 0.0
C219 C 0.13151 0.11931 0.53619 0.0
N220 N 0.12137 0.12276 0.41402 0.0
N221 N 0.22857 0.19398 0.62492 0.0
C222 C 0.13708 0.14518 0.46648 0.0
C223 C 0.19281 0.18219 0.57438 0.0
N224 N 0.15108 0.22771 0.38566 0.0
N225 N 0.15628 0.1146 0.6576 0.0
H226 H 0.25374 0.22527 0.61518 0.0
H227 H 0.23697 0.16994 0.67522 0.0
H228 H 0.13863 0.07895 0.67366 0.0
H229 H 0.16917 0.13144 0.69761 0.0
H230 H 0.12424 0.21956 0.34613 0.0
H231 H 0.16593 0.26522 0.37229 0.0
H232 H 0.13058 0.13807 0.36491 0.0
H233 H 0.10374 0.08691 0.41923 0.0
C234 C 0.36639 0.68493 0.07042 0.0
C235 C 0.33545 0.70203 1.00423 0.0
C236 C 0.38574 0.6436 0.96444 0.0
C237 C 0.41036 0.61968 0.03376 0.0
N238 N 0.41088 0.61182 0.15553 0.0
N239 N 0.30951 0.68994 0.89069 0.0
C240 C 0.39675 0.63849 0.08764 0.0
C241 C 0.34315 0.67896 0.952 0.0
N242 N 0.3694 0.71428 0.11607 0.0
N243 N 0.40462 0.63593 0.90974 0.0
H244 H 0.27756 0.71523 0.87951 0.0
H245 H 0.31051 0.66987 0.85384 0.0
H246 H 0.43825 0.61456 0.91477 0.0
H247 H 0.39055 0.65642 0.85879 0.0
H248 H 0.39536 0.70541 0.16265 0.0
H249 H 0.3514 0.75087 0.10374 0.0
H250 H 0.39718 0.62226 0.19495 0.0
H251 H 0.43073 0.57622 0.17266 0.0
C252 C 0.88072 0.8302 0.70746 0.0
C253 C 0.84076 0.82175 0.65572 0.0
C254 C 0.87151 0.89539 0.57044 0.0
C255 C 0.91522 0.89995 0.62026 0.0
N256 N 0.96637 0.86389 0.7329 0.0
N257 N 0.80051 0.84238 0.5361 0.0
C258 C 0.92087 0.86561 0.6882 0.0
C259 C 0.83695 0.85317 0.58662 0.0
N260 N 0.88086 0.80378 0.77499 0.0
N261 N 0.86155 0.93274 0.50871 0.0
H262 H 0.77234 0.81408 0.54639 0.0
H263 H 0.80004 0.85934 0.48366 0.0
H264 H 0.8849 0.96503 0.49625 0.0
H265 H 0.82755 0.9348 0.47304 0.0
H266 H 0.90582 0.81239 0.81579 0.0
H267 H 0.85308 0.77625 0.79068 0.0
H268 H 0.97519 0.83589 0.7803 0.0
H269 H 0.99778 0.88669 0.71919 0.0
C270 C 0.71099 0.35927 0.09928 0.0
C271 C 0.71232 0.31516 0.15742 0.0
C272 C 0.64659 0.3568 0.19837 0.0
C273 C 0.63953 0.39755 0.13539 0.0
N274 N 0.67923 0.44734 0.04117 0.0
N275 N 0.6764 0.26811 0.25726 0.0
C276 C 0.67524 0.40107 0.0893 0.0
C277 C 0.67898 0.31304 0.20571 0.0
N278 N 0.74442 0.36167 0.05404 0.0
N279 N 0.62612 0.36115 0.25358 0.0
H280 H 0.69931 0.23497 0.26471 0.0
H281 H 0.64796 0.2619 0.28841 0.0
H282 H 0.6067 0.39423 0.25449 0.0
H283 H 0.63454 0.33476 0.30235 0.0
H284 H 0.74018 0.38801 1.0052 0.0
H285 H 0.77611 0.33628 0.06429 0.0
H286 H 0.7074 0.45552 1.00975 0.0
H287 H 0.658 0.48028 0.03876 0.0
C288 C 0.11001 0.81129 0.16886 0.0
C289 C 0.15824 0.83314 0.15377 0.0
C290 C 0.1765 0.85232 0.26613 0.0
C291 C 0.12705 0.83303 0.27953 0.0
N292 N 0.04265 0.80365 0.2388 0.0
N293 N 0.23344 0.88251 0.18172 0.0
C294 C 0.09255 0.81539 0.22932 0.0
C295 C 0.19031 0.85614 0.20058 0.0
N296 N 0.08182 0.78481 0.12678 0.0
N297 N 0.21103 0.86512 0.31699 0.0
H298 H 0.24491 0.88557 0.13445 0.0
H299 H 0.25548 0.90489 0.21021 0.0
H300 H 0.20213 0.86347 0.36526 0.0
H301 H 0.24968 0.87373 0.31336 0.0
H302 H 0.0494 0.76296 0.13899 0.0
H303 H 0.09317 0.78107 0.08196 0.0
H304 H 0.01395 0.79598 0.20093 0.0
H305 H 0.02858 0.80605 0.28253 0.0
C306 C 0.5938 0.67646 0.83724 0.0
C307 C 0.63552 0.65298 0.81948 0.0
C308 C 0.61876 0.56953 0.89873 0.0
C309 C 0.58138 0.59355 0.92342 0.0
N310 N 0.53451 0.67138 0.91819 0.0
N311 N 0.69558 0.58043 0.84634 0.0
C312 C 0.56919 0.64761 0.89317 0.0
C313 C 0.6505 0.60063 0.85458 0.0
N314 N 0.5768 0.72557 0.79937 0.0
N315 N 0.6213 0.51662 0.91258 0.0
H316 H 0.7207 0.60245 0.81554 0.0
H317 H 0.7105 0.54375 0.87587 0.0
H318 H 0.59761 0.49235 0.94291 0.0
H319 H 0.64346 0.49741 0.88884 0.0
H320 H 0.54323 0.74306 0.80447 0.0
H321 H 0.59481 0.74785 0.75951 0.0
H322 H 0.52714 0.71146 0.90298 0.0
H323 H 0.51537 0.65114 0.9579 0.0
C324 C 0.88566 0.07047 0.29038 0.0
C325 C 0.89755 0.12174 0.2543 0.0
C326 C 0.96785 0.1249 0.34941 0.0
C327 C 0.95637 0.07309 0.38486 0.0
N328 N 0.91703 0.99149 0.37791 0.0
N329 N 0.95474 0.19506 0.24246 0.0
C330 C 0.9188 0.04439 0.35223 0.0
C331 C 0.94032 0.14813 0.28168 0.0
N332 N 0.84198 0.047 0.26648 0.0
N333 N 1.00419 0.15218 0.38124 0.0
H334 H 0.93481 0.21335 0.1932 0.0
H335 H 0.98836 0.2143 0.25613 0.0
H336 H 0.02465 0.13621 0.43072 0.0
H337 H 1.01193 0.19142 0.36116 0.0
H338 H 0.82823 0.01216 0.29506 0.0
H339 H 0.81716 0.06433 0.22046 0.0
H340 H 0.89389 0.96768 0.3527 0.0
H341 H 0.94301 0.97089 0.42068 0.0
C342 C 0.36962 0.3673 0.62399 0.0
C343 C 0.36173 0.39771 0.55399 0.0
C344 C 0.39097 0.47446 0.59257 0.0
C345 C 0.3896 0.44618 0.66205 0.0
N346 N 0.36219 0.36759 0.73959 0.0
N347 N 0.3506 0.48455 0.47458 0.0
C348 C 0.37453 0.39302 0.6768 0.0
C349 C 0.36821 0.45266 0.53894 0.0
N350 N 0.37437 0.31417 0.64065 0.0
N351 N 0.41532 0.52129 0.57742 0.0
H352 H 0.32969 0.47087 0.435 0.0
H353 H 0.3513 0.52518 0.46343 0.0
H354 H 0.43568 0.53705 0.61537 0.0
H355 H 0.42036 0.54104 0.52739 0.0
H356 H 0.38412 0.29119 0.69146 0.0
H357 H 0.37467 0.29388 0.60387 0.0
H358 H 0.34716 0.33005 0.74997 0.0
H359 H 0.36087 0.386 0.77805 0.0
C360 C 0.69154 0.60699 0.59138 0.0
C361 C 0.66643 0.65511 0.5847 0.0
C362 C 0.64378 0.6694 0.45957 0.0
C363 C 0.66837 0.62099 0.46644 0.0
N364 N 0.70437 0.53809 0.53896 0.0
N365 N 0.60898 0.72626 0.51636 0.0
C366 C 0.68855 0.58792 0.53255 0.0
C367 C 0.63928 0.68438 0.51988 0.0
N368 N 0.72054 0.58088 0.65307 0.0
N369 N 0.62688 0.70206 0.39538 0.0
H370 H 0.60508 0.73804 0.55984 0.0
H371 H 0.58423 0.74638 0.47186 0.0
H372 H 0.62875 0.69211 0.35003 0.0
H373 H 0.61415 0.74035 0.38678 0.0
H374 H 0.74482 0.54909 0.6591 0.0
H375 H 0.72329 0.59312 0.69766 0.0
H376 H 0.71451 0.51024 0.58625 0.0
H377 H 0.70288 0.52307 0.49672 0.0
C378 C 0.88062 0.188 0.95684 0.0
C379 C 0.84878 0.1536 0.99808 0.0
C380 C 0.82577 0.10759 0.9087 0.0
C381 C 0.85832 0.14141 0.86795 0.0
N382 N 0.92264 0.20857 0.85592 0.0
N383 N 0.7974 0.07609 0.01969 0.0
C384 C 0.88767 0.17998 0.89301 0.0
C385 C 0.8233 0.11191 0.97591 0.0
N386 N 0.90283 0.22929 0.97795 0.0
N387 N 0.79624 0.07223 0.88224 0.0
H388 H 0.79374 0.07887 0.06851 0.0
H389 H 0.78252 0.04169 1.01006 0.0
H390 H 0.79889 0.06629 0.83466 0.0
H391 H 0.76714 0.05063 0.90535 0.0
H392 H 0.92133 0.2595 0.94708 0.0
H393 H 0.90038 0.23513 0.02565 0.0
H394 H 0.94945 0.23315 0.87442 0.0
H395 H 0.92743 0.20522 0.80778 0.0
C396 C 0.4318 0.3585 0.32082 0.0
C397 C 0.38551 0.38339 0.32364 0.0
C398 C 0.39686 0.4536 0.22069 0.0
C399 C 0.44603 0.43186 0.22148 0.0
N400 N 0.5031 0.35562 0.26092 0.0
N401 N 0.32461 0.45575 0.27982 0.0
C402 C 0.46136 0.38185 0.26812 0.0
C403 C 0.36797 0.43096 0.27408 0.0
N404 N 0.44889 0.31378 0.37108 0.0
N405 N 0.37578 0.49354 0.16574 0.0
H406 H 0.30072 0.43915 0.31571 0.0
H407 H 0.31389 0.49401 0.25193 0.0
H408 H 0.39449 0.50912 0.12406 0.0
H409 H 0.33782 0.50749 0.15755 0.0
H410 H 0.48569 0.29719 0.37889 0.0
H411 H 0.42696 0.29431 0.40814 0.0
H412 H 0.5127 0.31685 0.28724 0.0
H413 H 0.52602 0.37067 0.22393 0.0
C414 C 0.17562 0.92622 0.85074 0.0
C415 C 0.14496 0.89357 0.89591 0.0
C416 C 0.06667 0.93029 0.81447 0.0
C417 C 0.09702 0.95457 0.76392 0.0
N418 N 0.18142 0.9764 0.73367 0.0
N419 N 0.06082 0.85748 0.91332 0.0
C420 C 0.15194 0.95284 0.78203 0.0
C421 C 0.09029 0.89381 0.8759 0.0
N422 N 0.2268 0.93304 0.87418 0.0
N423 N 0.01547 0.94327 0.80508 0.0
H424 H 0.07664 0.82783 0.95658 0.0
H425 H 0.02131 0.85341 0.89687 0.0
H426 H 0.99768 0.97134 0.76174 0.0
H427 H 0.99266 0.93019 0.84327 0.0
H428 H 0.25009 0.95996 0.84605 0.0
H429 H 0.24488 0.91531 0.9246 0.0
H430 H 0.22167 0.97281 0.74162 0.0
H431 H 0.16514 0.99706 0.68367 0.0
loop_
_geom_bond_atom_site_label_1
_geom_bond_atom_site_label_2
_geom_bond_distance
_geom_bond_site_symmetry_2
_ccdc_geom_bond_type
H0 C5 0.930 . S
H1 C8 0.930 . S
H2 C10 0.930 . S
H3 C4 1.016 . S
C4 H3 1.016 . S
C4 N11 1.286 . S
C5 H0 0.930 . S
C5 C6 1.397 . S
C5 C7 1.361 1_556 S
C6 C5 1.397 . S
C6 C10 1.390 1_556 S
C7 C5 1.361 1_554 S
C7 C8 1.393 . S
C7 N11 1.413 . S
C8 H1 0.930 . S
C8 C7 1.393 . S
C8 C9 1.399 . S
C9 C8 1.399 . S
C9 C10 1.381 . S
C10 H2 0.930 . S
C10 C6 1.390 1_554 S
C10 C9 1.381 . S
N11 C4 1.286 . S
N11 C7 1.413 . S
H12 C17 0.930 . S
H13 C20 0.930 . S
H14 C22 0.930 . S
H15 C16 1.016 . S
C16 H15 1.016 . S
C16 N23 1.286 . S
C17 H12 0.930 . S
C17 C18 1.397 . S
C17 C19 1.361 . S
C18 C17 1.397 . S
C18 C22 1.390 . S
C19 C17 1.361 . S
C19 C20 1.393 . S
C19 N23 1.413 . S
C20 H13 0.930 . S
C20 C19 1.393 . S
C20 C21 1.399 . S
C21 C20 1.399 . S
C21 C22 1.381 . S
C22 H14 0.930 . S
C22 C18 1.390 . S
C22 C21 1.381 . S
N23 C16 1.286 . S
N23 C19 1.413 . S
H24 C29 0.930 1_556 S
H25 C32 0.930 . S
H26 C34 0.930 . S
H27 C28 1.016 . S
C28 H27 1.016 . S
C28 N35 1.286 . S
C29 H24 0.930 1_554 S
C29 C30 1.397 . S
C29 C31 1.361 . S
C30 C29 1.397 . S
C30 C34 1.390 . S
C31 C29 1.361 . S
C31 C32 1.393 . S
C31 N35 1.413 . S
C32 H25 0.930 . S
C32 C31 1.393 . S
C32 C33 1.399 . S
C33 C32 1.399 . S
C33 C34 1.381 . S
C34 H26 0.930 . S
C34 C30 1.390 . S
C34 C33 1.381 . S
N35 C28 1.286 . S
N35 C31 1.413 . S
H36 C41 0.930 . S
H37 C44 0.930 . S
H38 C46 0.930 . S
H39 C40 1.016 . S
C40 H39 1.016 . S
C40 N47 1.286 . S
C41 H36 0.930 . S
C41 C42 1.397 . S
C41 C43 1.361 . S
C42 C41 1.397 . S
C42 C46 1.390 . S
C43 C41 1.361 . S
C43 C44 1.393 . S
C43 N47 1.413 . S
C44 H37 0.930 . S
C44 C43 1.393 . S
C44 C45 1.399 . S
C45 C44 1.399 . S
C45 C46 1.381 . S
C46 H38 0.930 . S
C46 C42 1.390 . S
C46 C45 1.381 . S
N47 C40 1.286 . S
N47 C43 1.413 . S
Tb48 N77 2.617 . S
Tb48 N83 2.572 . S
Tb48 O92 2.465 . S
Tb48 O93 2.387 . S
Tb48 O95 2.428 . S
Tb48 O96 2.308 1_565 S
Tb48 O100 2.349 1_465 S
Tb48 O103 2.393 1_455 S
Tb48 C112 2.802 . S
C49 N50 1.379 . S
C49 C52 1.416 . S
C49 C56 1.424 . S
N50 C49 1.379 . S
N50 C53 1.334 1_655 S
N50 Tb59 2.617 . S
C51 C53 1.390 . S
C51 C54 1.339 1_455 S
C51 H71 0.930 . S
C52 C49 1.416 . S
C52 C54 1.416 . S
C52 C58 1.448 . S
C53 N50 1.334 1_455 S
C53 C51 1.390 . S
C53 H64 0.930 . S
C54 C51 1.339 1_655 S
C54 C52 1.416 . S
C54 H75 0.930 . S
C55 C56 1.413 . S
C55 C57 1.427 . S
C55 C61 1.416 . S
C56 C49 1.424 . S
C56 C55 1.413 . S
C56 N60 1.361 . S
C57 C55 1.427 . S
C57 C58 1.328 . S
C57 H72 0.929 . S
C58 C52 1.448 . S
C58 C57 1.328 . S
C58 H73 0.930 . S
Tb59 N50 2.617 . S
Tb59 N60 2.572 . S
Tb59 O94 2.349 1_655 S
Tb59 O97 2.393 1_655 S
Tb59 O98 2.465 . S
Tb59 O99 2.387 . S
Tb59 O101 2.428 . S
Tb59 O102 2.308 1_545 S
Tb59 C123 2.802 . S
N60 C56 1.361 . S
N60 Tb59 2.572 . S
N60 C62 1.340 . S
C61 C55 1.416 . S
C61 C63 1.332 . S
C61 H69 0.931 . S
C62 N60 1.340 . S
C62 C63 1.407 . S
C62 H68 0.930 . S
C63 C61 1.332 . S
C63 C62 1.407 . S
C63 H65 0.929 . S
H64 C53 0.930 . S
H65 C63 0.929 . S
H66 C81 0.930 1_655 S
H67 C88 0.929 . S
H68 C62 0.930 . S
H69 C61 0.931 . S
H70 C84 0.930 . S
H71 C51 0.930 . S
H72 C57 0.929 . S
H73 C58 0.930 . S
H74 C79 0.930 1_655 S
H75 C54 0.930 . S
H76 C87 0.931 . S
N77 Tb48 2.617 . S
N77 C78 1.379 . S
N77 C81 1.334 . S
C78 N77 1.379 . S
C78 C80 1.416 . S
C78 C86 1.424 . S
C79 H74 0.930 1_455 S
C79 C81 1.390 . S
C79 C82 1.339 . S
C80 C78 1.416 . S
C80 C82 1.416 . S
C80 C113 1.448 . S
C81 H66 0.930 1_455 S
C81 N77 1.334 . S
C81 C79 1.390 . S
C82 C79 1.339 . S
C82 C80 1.416 . S
C82 H89 0.930 . S
N83 Tb48 2.572 . S
N83 C84 1.340 . S
N83 C86 1.361 . S
C84 H70 0.930 . S
C84 N83 1.340 . S
C84 C88 1.407 . S
C85 C86 1.413 . S
C85 C87 1.416 . S
C85 C114 1.427 . S
C86 C78 1.424 . S
C86 N83 1.361 . S
C86 C85 1.413 . S
C87 H76 0.931 . S
C87 C85 1.416 . S
C87 C88 1.332 . S
C88 H67 0.929 . S
C88 C84 1.407 . S
C88 C87 1.332 . S
H89 C82 0.930 . S
H90 C113 0.930 . S
H91 C114 0.929 . S
O92 Tb48 2.465 . S
O92 C112 1.264 . S
O93 Tb48 2.387 . S
O93 C104 1.264 . S
O94 Tb59 2.349 1_455 S
O94 C104 1.243 1_545 S
O95 Tb48 2.428 . S
O95 C112 1.256 . S
O96 Tb48 2.308 1_545 S
O96 C111 1.266 . S
O97 Tb59 2.393 1_455 S
O97 C111 1.248 . S
O98 Tb59 2.465 . S
O98 C123 1.264 . S
O99 Tb59 2.387 . S
O99 C115 1.264 . S
O100 Tb48 2.349 1_645 S
O100 C115 1.243 . S
O101 Tb59 2.428 . S
O101 C123 1.256 . S
O102 Tb59 2.308 1_565 S
O102 C122 1.266 . S
O103 Tb48 2.393 1_655 S
O103 C122 1.248 . S
C104 O93 1.264 . S
C104 O94 1.243 1_565 S
C105 C108 1.399 . S
C105 C110 1.383 . S
C105 C112 1.496 . S
C106 C107 1.399 . S
C106 C110 1.389 . S
C107 C106 1.399 . S
C107 C109 1.380 . S
C107 H124 0.929 . S
C108 C105 1.399 . S
C108 C109 1.392 . S
C108 H125 0.929 . S
C109 C107 1.380 . S
C109 C108 1.392 . S
C109 H126 0.929 . S
C110 C105 1.383 . S
C110 C106 1.389 . S
C110 H127 0.931 . S
C111 O96 1.266 . S
C111 O97 1.248 . S
C112 Tb48 2.802 . S
C112 O92 1.264 . S
C112 O95 1.256 . S
C112 C105 1.496 . S
C113 C80 1.448 . S
C113 H90 0.930 . S
C113 C114 1.328 . S
C114 C85 1.427 . S
C114 H91 0.929 . S
C114 C113 1.328 . S
C115 O99 1.264 . S
C115 O100 1.243 . S
C116 C119 1.399 . S
C116 C120 1.383 . S
C116 C123 1.496 . S
C117 C118 1.399 . S
C117 C120 1.389 . S
C118 C117 1.399 . S
C118 C121 1.380 . S
C118 H128 0.929 . S
C119 C116 1.399 . S
C119 C121 1.392 . S
C119 H129 0.929 . S
C120 C116 1.383 . S
C120 C117 1.389 . S
C120 H130 0.931 . S
C121 C118 1.380 . S
C121 C119 1.392 . S
C121 H131 0.929 . S
C122 O102 1.266 . S
C122 O103 1.248 . S
C123 Tb59 2.802 . S
C123 O98 1.264 . S
C123 O101 1.256 . S
C123 C116 1.496 . S
H124 C107 0.929 . S
H125 C108 0.929 . S
H126 C109 0.929 . S
H127 C110 0.931 . S
H128 C118 0.929 . S
H129 C119 0.929 . S
H130 C120 0.931 . S
H131 C121 0.929 . S
Tb132 N161 2.617 . S
Tb132 N167 2.572 . S
Tb132 O176 2.465 1_554 S
Tb132 O177 2.387 . S
Tb132 O179 2.428 1_554 S
Tb132 O180 2.308 . S
Tb132 O184 2.349 1_554 S
Tb132 O187 2.393 . S
Tb132 C196 2.802 1_554 S
C133 N134 1.379 . S
C133 C136 1.416 . S
C133 C140 1.424 . S
N134 C133 1.379 . S
N134 C137 1.334 . S
N134 Tb143 2.617 . S
C135 C137 1.390 . S
C135 C138 1.339 . S
C135 H155 0.930 . S
C136 C133 1.416 . S
C136 C138 1.416 . S
C136 C142 1.448 . S
C137 N134 1.334 . S
C137 C135 1.390 . S
C137 H148 0.930 . S
C138 C135 1.339 . S
C138 C136 1.416 . S
C138 H159 0.930 . S
C139 C140 1.413 . S
C139 C141 1.427 . S
C139 C145 1.416 . S
C140 C133 1.424 . S
C140 C139 1.413 . S
C140 N144 1.361 . S
C141 C139 1.427 . S
C141 C142 1.328 . S
C141 H156 0.929 . S
C142 C136 1.448 . S
C142 C141 1.328 . S
C142 H157 0.930 . S
Tb143 N134 2.617 . S
Tb143 N144 2.572 . S
Tb143 O178 2.349 . S
Tb143 O181 2.393 . S
Tb143 O182 2.465 . S
Tb143 O183 2.387 . S
Tb143 O185 2.428 . S
Tb143 O186 2.308 . S
Tb143 C207 2.802 . S
N144 C140 1.361 . S
N144 Tb143 2.572 . S
N144 C146 1.340 . S
C145 C139 1.416 . S
C145 C147 1.332 . S
C145 H153 0.931 . S
C146 N144 1.340 . S
C146 C147 1.407 . S
C146 H152 0.930 . S
C147 C145 1.332 . S
C147 C146 1.407 . S
C147 H149 0.929 . S
H148 C137 0.930 . S
H149 C147 0.929 . S
H150 C165 0.930 . S
H151 C172 0.929 . S
H152 C146 0.930 . S
H153 C145 0.931 . S
H154 C168 0.930 . S
H155 C135 0.930 . S
H156 C141 0.929 . S
H157 C142 0.930 . S
H158 C163 0.930 . S
H159 C138 0.930 . S
H160 C171 0.931 . S
N161 Tb132 2.617 . S
N161 C162 1.379 . S
N161 C165 1.334 1_554 S
C162 N161 1.379 . S
C162 C164 1.416 . S
C162 C170 1.424 . S
C163 H158 0.930 . S
C163 C165 1.390 . S
C163 C166 1.339 1_556 S
C164 C162 1.416 . S
C164 C166 1.416 . S
C164 C197 1.448 . S
C165 H150 0.930 . S
C165 N161 1.334 1_556 S
C165 C163 1.390 . S
C166 C163 1.339 1_554 S
C166 C164 1.416 . S
C166 H173 0.930 . S
N167 Tb132 2.572 . S
N167 C168 1.340 . S
N167 C170 1.361 . S
C168 H154 0.930 . S
C168 N167 1.340 . S
C168 C172 1.407 . S
C169 C170 1.413 . S
C169 C171 1.416 . S
C169 C198 1.427 . S
C170 C162 1.424 . S
C170 N167 1.361 . S
C170 C169 1.413 . S
C171 H160 0.931 . S
C171 C169 1.416 . S
C171 C172 1.332 . S
C172 H151 0.929 . S
C172 C168 1.407 . S
C172 C171 1.332 . S
H173 C166 0.930 . S
H174 C197 0.930 . S
H175 C198 0.929 . S
O176 Tb132 2.465 1_556 S
O176 C196 1.264 . S
O177 Tb132 2.387 . S
O177 C188 1.264 . S
O178 Tb143 2.349 . S
O178 C188 1.243 . S
O179 Tb132 2.428 1_556 S
O179 C196 1.256 . S
O180 Tb132 2.308 . S
O180 C195 1.266 . S
O181 Tb143 2.393 . S
O181 C195 1.248 . S
O182 Tb143 2.465 . S
O182 C207 1.264 . S
O183 Tb143 2.387 . S
O183 C199 1.264 1_554 S
O184 Tb132 2.349 1_556 S
O184 C199 1.243 . S
O185 Tb143 2.428 . S
O185 C207 1.256 . S
O186 Tb143 2.308 . S
O186 C206 1.266 . S
O187 Tb132 2.393 . S
O187 C206 1.248 . S
C188 O177 1.264 . S
C188 O178 1.243 . S
C189 C192 1.399 . S
C189 C194 1.383 . S
C189 C196 1.496 . S
C190 C191 1.399 . S
C190 C194 1.389 . S
C191 C190 1.399 . S
C191 C193 1.380 . S
C191 H208 0.929 . S
C192 C189 1.399 . S
C192 C193 1.392 . S
C192 H209 0.929 . S
C193 C191 1.380 . S
C193 C192 1.392 . S
C193 H210 0.929 . S
C194 C189 1.383 . S
C194 C190 1.389 . S
C194 H211 0.931 . S
C195 O180 1.266 . S
C195 O181 1.248 . S
C196 Tb132 2.802 1_556 S
C196 O176 1.264 . S
C196 O179 1.256 . S
C196 C189 1.496 . S
C197 C164 1.448 . S
C197 H174 0.930 . S
C197 C198 1.328 . S
C198 C169 1.427 . S
C198 H175 0.929 . S
C198 C197 1.328 . S
C199 O183 1.264 1_556 S
C199 O184 1.243 . S
C200 C203 1.399 . S
C200 C204 1.383 . S
C200 C207 1.496 . S
C201 C202 1.399 . S
C201 C204 1.389 . S
C202 C201 1.399 . S
C202 C205 1.380 . S
C202 H212 0.929 . S
C203 C200 1.399 . S
C203 C205 1.392 . S
C203 H213 0.929 . S
C204 C200 1.383 . S
C204 C201 1.389 . S
C204 H214 0.931 . S
C205 C202 1.380 . S
C205 C203 1.392 . S
C205 H215 0.929 . S
C206 O186 1.266 . S
C206 O187 1.248 . S
C207 Tb143 2.802 . S
C207 O182 1.264 . S
C207 O185 1.256 . S
C207 C200 1.496 . S
H208 C191 0.929 . S
H209 C192 0.929 . S
H210 C193 0.929 . S
H211 C194 0.931 . S
H212 C202 0.929 . S
H213 C203 0.929 . S
H214 C204 0.931 . S
H215 C205 0.929 . S
C216 C217 1.363 . S
C216 C222 1.379 . S
C216 N224 1.356 . S
C217 C216 1.363 . S
C217 C223 1.363 . S
C218 C219 1.363 . S
C218 C223 1.379 . S
C218 N225 1.356 . S
C219 C218 1.363 . S
C219 C222 1.363 . S
N220 C222 1.356 . S
N220 H232 0.984 . S
N220 H233 0.985 . S
N221 C223 1.356 . S
N221 H226 0.984 . S
N221 H227 0.985 . S
C222 C216 1.379 . S
C222 C219 1.363 . S
C222 N220 1.356 . S
C223 C217 1.363 . S
C223 C218 1.379 . S
C223 N221 1.356 . S
N224 C216 1.356 . S
N224 H230 0.984 . S
N224 H231 0.984 . S
N225 C218 1.356 . S
N225 H228 0.984 . S
N225 H229 0.985 . S
H226 N221 0.984 . S
H227 N221 0.985 . S
H228 N225 0.984 . S
H229 N225 0.985 . S
H230 N224 0.984 . S
H231 N224 0.984 . S
H232 N220 0.984 . S
H233 N220 0.985 . S
C234 C235 1.363 . S
C234 C240 1.379 . S
C234 N242 1.356 . S
C235 C234 1.363 . S
C235 C241 1.363 . S
C236 C237 1.363 . S
C236 C241 1.379 . S
C236 N243 1.356 1_554 S
C237 C236 1.363 . S
C237 C240 1.363 . S
N238 C240 1.356 . S
N238 H250 0.984 . S
N238 H251 0.985 . S
N239 C241 1.356 1_556 S
N239 H244 0.984 . S
N239 H245 0.985 . S
C240 C234 1.379 . S
C240 C237 1.363 . S
C240 N238 1.356 . S
C241 C235 1.363 . S
C241 C236 1.379 . S
C241 N239 1.356 1_554 S
N242 C234 1.356 . S
N242 H248 0.984 . S
N242 H249 0.984 . S
N243 C236 1.356 1_556 S
N243 H246 0.984 . S
N243 H247 0.985 . S
H244 N239 0.984 . S
H245 N239 0.985 . S
H246 N243 0.984 . S
H247 N243 0.985 . S
H248 N242 0.984 . S
H249 N242 0.984 . S
H250 N238 0.984 . S
H251 N238 0.985 . S
C252 C253 1.363 . S
C252 C258 1.379 . S
C252 N260 1.356 . S
C253 C252 1.363 . S
C253 C259 1.363 . S
C254 C255 1.363 . S
C254 C259 1.379 . S
C254 N261 1.356 . S
C255 C254 1.363 . S
C255 C258 1.363 . S
N256 C258 1.356 . S
N256 H268 0.984 . S
N256 H269 0.985 . S
N257 C259 1.356 . S
N257 H262 0.984 . S
N257 H263 0.985 . S
C258 C252 1.379 . S
C258 C255 1.363 . S
C258 N256 1.356 . S
C259 C253 1.363 . S
C259 C254 1.379 . S
C259 N257 1.356 . S
N260 C252 1.356 . S
N260 H266 0.984 . S
N260 H267 0.984 . S
N261 C254 1.356 . S
N261 H264 0.984 . S
N261 H265 0.985 . S
H262 N257 0.984 . S
H263 N257 0.985 . S
H264 N261 0.984 . S
H265 N261 0.985 . S
H266 N260 0.984 . S
H267 N260 0.984 . S
H268 N256 0.984 . S
H269 N256 0.985 . S
C270 C271 1.363 . S
C270 C276 1.379 . S
C270 N278 1.356 . S
C271 C270 1.363 . S
C271 C277 1.363 . S
C272 C273 1.363 . S
C272 C277 1.379 . S
C272 N279 1.356 . S
C273 C272 1.363 . S
C273 C276 1.363 . S
N274 C276 1.359 . S
N274 H286 0.977 1_554 S
N274 H287 0.990 . S
N275 C277 1.356 . S
N275 H280 0.984 . S
N275 H281 0.985 . S
C276 C270 1.379 . S
C276 C273 1.363 . S
C276 N274 1.359 . S
C277 C271 1.363 . S
C277 C272 1.379 . S
C277 N275 1.356 . S
N278 C270 1.356 . S
N278 H284 0.984 1_554 S
N278 H285 0.984 . S
N279 C272 1.356 . S
N279 H282 0.984 . S
N279 H283 0.985 . S
H280 N275 0.984 . S
H281 N275 0.985 . S
H282 N279 0.984 . S
H283 N279 0.985 . S
H284 N278 0.984 1_556 S
H285 N278 0.984 . S
H286 N274 0.977 1_556 S
H287 N274 0.990 . S
C288 C289 1.363 . S
C288 C294 1.379 . S
C288 N296 1.356 . S
C289 C288 1.363 . S
C289 C295 1.363 . S
C290 C291 1.363 . S
C290 C295 1.379 . S
C290 N297 1.356 . S
C291 C290 1.363 . S
C291 C294 1.363 . S
N292 C294 1.356 . S
N292 H304 0.984 . S
N292 H305 0.985 . S
N293 C295 1.356 . S
N293 H298 0.984 . S
N293 H299 0.985 . S
C294 C288 1.379 . S
C294 C291 1.363 . S
C294 N292 1.356 . S
C295 C289 1.363 . S
C295 C290 1.379 . S
C295 N293 1.356 . S
N296 C288 1.356 . S
N296 H302 0.984 . S
N296 H303 0.984 . S
N297 C290 1.356 . S
N297 H300 0.984 1_565 S
N297 H301 0.985 1_565 S
H298 N293 0.984 . S
H299 N293 0.985 . S
H300 N297 0.984 1_545 S
H301 N297 0.985 1_545 S
H302 N296 0.984 . S
H303 N296 0.984 . S
H304 N292 0.984 . S
H305 N292 0.985 . S
C306 C307 1.363 . S
C306 C312 1.379 . S
C306 N314 1.356 . S
C307 C306 1.363 . S
C307 C313 1.363 . S
C308 C309 1.363 . S
C308 C313 1.379 . S
C308 N315 1.356 . S
C309 C308 1.363 . S
C309 C312 1.363 . S
N310 C312 1.356 . S
N310 H322 0.984 . S
N310 H323 0.985 . S
N311 C313 1.356 . S
N311 H316 0.984 . S
N311 H317 0.985 . S
C312 C306 1.379 . S
C312 C309 1.363 . S
C312 N310 1.356 . S
C313 C307 1.363 . S
C313 C308 1.379 . S
C313 N311 1.356 . S
N314 C306 1.356 . S
N314 H320 0.984 . S
N314 H321 0.984 . S
N315 C308 1.356 . S
N315 H318 0.984 . S
N315 H319 0.985 . S
H316 N311 0.984 . S
H317 N311 0.985 . S
H318 N315 0.984 . S
H319 N315 0.985 . S
H320 N314 0.984 . S
H321 N314 0.984 . S
H322 N310 0.984 . S
H323 N310 0.985 . S
C324 C325 1.363 . S
C324 C330 1.379 . S
C324 N332 1.356 . S
C325 C324 1.363 . S
C325 C331 1.363 . S
C326 C327 1.363 . S
C326 C331 1.379 . S
C326 N333 1.356 . S
C327 C326 1.363 . S
C327 C330 1.363 . S
N328 C330 1.356 1_565 S
N328 H340 0.984 . S
N328 H341 0.985 . S
N329 C331 1.356 . S
N329 H334 0.984 . S
N329 H335 0.985 . S
C330 C324 1.379 . S
C330 C327 1.363 . S
C330 N328 1.356 1_545 S
C331 C325 1.363 . S
C331 C326 1.379 . S
C331 N329 1.356 . S
N332 C324 1.356 . S
N332 H338 0.984 1_545 S
N332 H339 0.984 . S
N333 C326 1.356 . S
N333 H336 0.984 . S
N333 H337 0.985 . S
H334 N329 0.984 . S
H335 N329 0.985 . S
H336 N333 0.984 . S
H337 N333 0.985 . S
H338 N332 0.984 1_565 S
H339 N332 0.984 . S
H340 N328 0.984 . S
H341 N328 0.985 . S
C342 C343 1.363 . S
C342 C348 1.379 . S
C342 N350 1.356 . S
C343 C342 1.363 . S
C343 C349 1.363 . S
C344 C345 1.363 . S
C344 C349 1.379 . S
C344 N351 1.356 . S
C345 C344 1.363 . S
C345 C348 1.363 . S
N346 C348 1.356 . S
N346 H358 0.984 . S
N346 H359 0.985 . S
N347 C349 1.356 . S
N347 H352 0.984 . S
N347 H353 0.985 . S
C348 C342 1.379 . S
C348 C345 1.363 . S
C348 N346 1.356 . S
C349 C343 1.363 . S
C349 C344 1.379 . S
C349 N347 1.356 . S
N350 C342 1.356 . S
N350 H356 0.984 . S
N350 H357 0.984 . S
N351 C344 1.356 . S
N351 H354 0.984 . S
N351 H355 0.985 . S
H352 N347 0.984 . S
H353 N347 0.985 . S
H354 N351 0.984 . S
H355 N351 0.985 . S
H356 N350 0.984 . S
H357 N350 0.984 . S
H358 N346 0.984 . S
H359 N346 0.985 . S
C360 C361 1.363 . S
C360 C366 1.379 . S
C360 N368 1.356 . S
C361 C360 1.363 . S
C361 C367 1.363 . S
C362 C363 1.363 . S
C362 C367 1.379 . S
C362 N369 1.356 . S
C363 C362 1.363 . S
C363 C366 1.363 . S
N364 C366 1.356 . S
N364 H376 0.984 . S
N364 H377 0.985 . S
N365 C367 1.356 . S
N365 H370 0.984 . S
N365 H371 0.985 . S
C366 C360 1.379 . S
C366 C363 1.363 . S
C366 N364 1.356 . S
C367 C361 1.363 . S
C367 C362 1.379 . S
C367 N365 1.356 . S
N368 C360 1.356 . S
N368 H374 0.984 . S
N368 H375 0.984 . S
N369 C362 1.356 . S
N369 H372 0.984 . S
N369 H373 0.985 . S
H370 N365 0.984 . S
H371 N365 0.985 . S
H372 N369 0.984 . S
H373 N369 0.985 . S
H374 N368 0.984 . S
H375 N368 0.984 . S
H376 N364 0.984 . S
H377 N364 0.985 . S
C378 C379 1.363 1_554 S
C378 C384 1.379 1_554 S
C378 N386 1.356 . S
C379 C378 1.363 1_556 S
C379 C385 1.363 . S
C380 C381 1.363 . S
C380 C385 1.379 . S
C380 N387 1.356 . S
C381 C380 1.363 . S
C381 C384 1.363 . S
N382 C384 1.356 . S
N382 H394 0.984 1_546 S
N382 H395 0.985 . S
N383 C385 1.356 . S
N383 H388 0.984 . S
N383 H389 0.985 . S
C384 C378 1.379 1_556 S
C384 C381 1.363 . S
C384 N382 1.356 . S
C385 C379 1.363 . S
C385 C380 1.379 . S
C385 N383 1.356 . S
N386 C378 1.356 . S
N386 H392 0.984 . S
N386 H393 0.984 . S
N387 C380 1.356 . S
N387 H390 0.984 . S
N387 H391 0.985 . S
H388 N383 0.984 . S
H389 N383 0.985 . S
H390 N387 0.984 . S
H391 N387 0.985 . S
H392 N386 0.984 . S
H393 N386 0.984 . S
H394 N382 0.984 1_564 S
H395 N382 0.985 . S
C396 C397 1.363 . S
C396 C402 1.379 . S
C396 N404 1.356 . S
C397 C396 1.363 . S
C397 C403 1.363 . S
C398 C399 1.363 . S
C398 C403 1.379 . S
C398 N405 1.356 . S
C399 C398 1.363 . S
C399 C402 1.363 . S
N400 C402 1.356 . S
N400 H412 0.984 . S
N400 H413 0.985 . S
N401 C403 1.356 . S
N401 H406 0.984 . S
N401 H407 0.985 . S
C402 C396 1.379 . S
C402 C399 1.363 . S
C402 N400 1.356 . S
C403 C397 1.363 . S
C403 C398 1.379 . S
C403 N401 1.356 . S
N404 C396 1.356 . S
N404 H410 0.984 . S
N404 H411 0.984 . S
N405 C398 1.356 . S
N405 H408 0.984 . S
N405 H409 0.985 . S
H406 N401 0.984 . S
H407 N401 0.985 . S
H408 N405 0.984 . S
H409 N405 0.985 . S
H410 N404 0.984 . S
H411 N404 0.984 . S
H412 N400 0.984 . S
H413 N400 0.985 . S
C414 C415 1.363 . S
C414 C420 1.379 . S
C414 N422 1.356 . S
C415 C414 1.363 . S
C415 C421 1.363 . S
C416 C417 1.363 . S
C416 C421 1.379 . S
C416 N423 1.356 . S
C417 C416 1.363 . S
C417 C420 1.363 . S
N418 C420 1.356 . S
N418 H430 0.984 . S
N418 H431 0.985 . S
N419 C421 1.356 . S
N419 H424 0.984 . S
N419 H425 0.985 . S
C420 C414 1.379 . S
C420 C417 1.363 . S
C420 N418 1.356 . S
C421 C415 1.363 . S
C421 C416 1.379 . S
C421 N419 1.356 . S
N422 C414 1.356 . S
N422 H428 0.984 . S
N422 H429 0.984 . S
N423 C416 1.356 . S
N423 H426 0.984 . S
N423 H427 0.985 1_565 S
H424 N419 0.984 . S
H425 N419 0.985 . S
H426 N423 0.984 . S
H427 N423 0.985 1_545 S
H428 N422 0.984 . S
H429 N422 0.984 . S
H430 N418 0.984 . S
H431 N418 0.985 . S
C219 C111 1.634 . S
C217 C40 1.636 . S
C235 C4 1.642 . S
C237 C206 1.635 . S
C253 C16 1.630 . S
C255 C122 1.652 . S
C271 C28 1.600 . S
C273 C195 1.609 . S
C291 C106 1.408 . S
C289 C9 1.589 . S
C309 C199 1.688 . S
C307 C18 1.684 . S
C325 C33 1.624 . S
C327 C115 1.650 . S
C343 C45 1.591 . S
C345 C190 1.426 . S
C363 C201 1.396 . S
C361 C21 1.563 . S
C381 C117 1.362 . S
C379 C30 1.550 1_556 S
C399 C188 1.627 . S
C397 C42 1.613 . S
C415 C6 1.572 . S
C417 C104 1.600 . S
