# Generated by pormake.
# Topology zzz, (3,6)-cn, num edge types: 1
# Building blocks:
#     Node 0, Type 0, BuildingBlock: BELTOD_clean_linker_0, # of connection points: 3
#     Node 1, Type 0, BuildingBlock: BELTOD_clean_linker_0, # of connection points: 3
#     Node 2, Type 0, BuildingBlock: BELTOD_clean_linker_0, # of connection points: 3
#     Node 3, Type 0, BuildingBlock: BELTOD_clean_linker_0, # of connection points: 3
#     Node 4, Type 0, BuildingBlock: BELTOD_clean_linker_0, # of connection points: 3
#     Node 5, Type 0, BuildingBlock: BELTOD_clean_linker_0, # of connection points: 3
#     Node 6, Type 0, BuildingBlock: BELTOD_clean_linker_0, # of connection points: 3
#     Node 7, Type 0, BuildingBlock: BELTOD_clean_linker_0, # of connection points: 3
#     Node 8, Type 1, BuildingBlock: BETFEN_clean_sbu_0, # of connection points: 6
#     Node 9, Type 1, BuildingBlock: BETFEN_clean_sbu_0, # of connection points: 6
#     Node 10, Type 1, BuildingBlock: BETFEN_clean_sbu_0, # of connection points: 6
#     Node 11, Type 1, BuildingBlock: BETFEN_clean_sbu_0, # of connection points: 6
#     Edge 12, Type (0, 1), BuildingBlock: ZUJKAS_clean_linker_0, # of connection points: 2
#     Edge 13, Type (0, 1), BuildingBlock: ZUJKAS_clean_linker_0, # of connection points: 2
#     Edge 14, Type (0, 1), BuildingBlock: ZUJKAS_clean_linker_0, # of connection points: 2
#     Edge 15, Type (0, 1), BuildingBlock: ZUJKAS_clean_linker_0, # of connection points: 2
#     Edge 16, Type (0, 1), BuildingBlock: ZUJKAS_clean_linker_0, # of connection points: 2
#     Edge 17, Type (0, 1), BuildingBlock: ZUJKAS_clean_linker_0, # of connection points: 2
#     Edge 18, Type (0, 1), BuildingBlock: ZUJKAS_clean_linker_0, # of connection points: 2
#     Edge 19, Type (0, 1), BuildingBlock: ZUJKAS_clean_linker_0, # of connection points: 2
#     Edge 20, Type (0, 1), BuildingBlock: ZUJKAS_clean_linker_0, # of connection points: 2
#     Edge 21, Type (0, 1), BuildingBlock: ZUJKAS_clean_linker_0, # of connection points: 2
#     Edge 22, Type (0, 1), BuildingBlock: ZUJKAS_clean_linker_0, # of connection points: 2
#     Edge 23, Type (0, 1), BuildingBlock: ZUJKAS_clean_linker_0, # of connection points: 2
#     Edge 24, Type (0, 1), BuildingBlock: ZUJKAS_clean_linker_0, # of connection points: 2
#     Edge 25, Type (0, 1), BuildingBlock: ZUJKAS_clean_linker_0, # of connection points: 2
#     Edge 26, Type (0, 1), BuildingBlock: ZUJKAS_clean_linker_0, # of connection points: 2
#     Edge 27, Type (0, 1), BuildingBlock: ZUJKAS_clean_linker_0, # of connection points: 2
#     Edge 28, Type (0, 1), BuildingBlock: ZUJKAS_clean_linker_0, # of connection points: 2
#     Edge 29, Type (0, 1), BuildingBlock: ZUJKAS_clean_linker_0, # of connection points: 2
#     Edge 30, Type (0, 1), BuildingBlock: ZUJKAS_clean_linker_0, # of connection points: 2
#     Edge 31, Type (0, 1), BuildingBlock: ZUJKAS_clean_linker_0, # of connection points: 2
#     Edge 32, Type (0, 1), BuildingBlock: ZUJKAS_clean_linker_0, # of connection points: 2
#     Edge 33, Type (0, 1), BuildingBlock: ZUJKAS_clean_linker_0, # of connection points: 2
#     Edge 34, Type (0, 1), BuildingBlock: ZUJKAS_clean_linker_0, # of connection points: 2
#     Edge 35, Type (0, 1), BuildingBlock: ZUJKAS_clean_linker_0, # of connection points: 2
# Relax obj value: 0.401
# Max RMSD: 0.260
# Mean RMSD: 0.243
data_MOF--net-zzz--node1-BETFEN_clean_sbu_0--node2-BELTOD_clean_linker_0--edge1-ZUJKAS_clean_linker_0
_symmetry_space_group_name_H-M    P1
_symmetry_Int_Tables_number       1
_symmetry_cell_setting            triclinic
loop_
_symmetry_equiv_pos_as_xyz
'x, y, z'
_cell_length_a     71.226886
_cell_length_b     71.208659
_cell_length_c     21.447431
_cell_angle_alpha  90.001114
_cell_angle_beta   89.977835
_cell_angle_gamma 89.988066
loop_
_atom_site_label
_atom_site_type_symbol
_atom_site_fract_x
_atom_site_fract_y
_atom_site_fract_z
_atom_type_partial_charge
P0 P 0.72729 0.4724 0.33749 0.0
H1 H 0.73858 0.48219 0.46433 0.0
H2 H 0.76738 0.49587 0.50393 0.0
H3 H 0.78271 0.51259 0.31691 0.0
H4 H 0.75406 0.49798 0.27728 0.0
H5 H 0.69322 0.45454 0.29719 0.0
H6 H 0.6693 0.46254 0.22065 0.0
H7 H 0.69661 0.51578 0.18762 0.0
H8 H 0.72057 0.5077 0.26577 0.0
H9 H 0.75256 0.44268 0.37726 0.0
H10 H 0.73472 0.46757 0.20376 0.0
O11 O 0.71746 0.46088 0.3969 0.0
H12 H 0.77707 0.42527 0.32189 0.0
H13 H 0.7591 0.45034 0.14845 0.0
C14 C 0.74398 0.48917 0.36778 0.0
C15 C 0.74776 0.48936 0.43193 0.0
C16 C 0.76438 0.49725 0.45467 0.0
C17 C 0.77765 0.50516 0.41368 0.0
C18 C 0.77306 0.5063 0.34985 0.0
C19 C 0.75645 0.49827 0.32713 0.0
C20 C 0.70857 0.48058 0.28773 0.0
C21 C 0.69392 0.4681 0.2744 0.0
C22 C 0.68035 0.4726 0.23004 0.0
C23 C 0.68116 0.4897 0.19745 0.0
C24 C 0.69557 0.50252 0.21214 0.0
C25 C 0.70928 0.49792 0.25674 0.0
C26 C 0.74161 0.45615 0.29455 0.0
C27 C 0.75351 0.44391 0.32702 0.0
C28 C 0.76758 0.43409 0.29544 0.0
C29 C 0.77 0.43645 0.23085 0.0
C30 C 0.75739 0.44797 0.19802 0.0
C31 C 0.74342 0.45787 0.22971 0.0
P32 P 0.03104 0.72285 0.33466 0.0
H33 H 0.03948 0.73719 0.45905 0.0
H34 H 0.03132 0.7667 0.50982 0.0
H35 H 0.99044 0.77789 0.36618 0.0
H36 H 0.99879 0.74836 0.31493 0.0
H37 H 0.03028 0.68185 0.34467 0.0
H38 H 0.0186 0.65805 0.27336 0.0
H39 H 0.98814 0.70069 0.17185 0.0
H40 H 1.00049 0.72457 0.24219 0.0
H41 H 0.04657 0.76093 0.32592 0.0
H42 H 0.04193 0.71233 0.20648 0.0
O43 O 0.04775 0.7122 0.37625 0.0
H44 H 0.0557 0.77992 0.23722 0.0
H45 H 0.05127 0.7314 0.11703 0.0
C46 C 0.01961 0.74027 0.38329 0.0
C47 C 0.02824 0.74556 0.43946 0.0
C48 C 0.02373 0.7626 0.46821 0.0
C49 C 0.01041 0.77475 0.44158 0.0
C50 C 1.00069 0.76879 0.38803 0.0
C51 C 0.00536 0.75176 0.35888 0.0
C52 C 0.01626 0.7051 0.29927 0.0
C53 C 0.02056 0.68607 0.30852 0.0
C54 C 0.01383 0.67238 0.26741 0.0
C55 C 1.00265 0.67744 0.21597 0.0
C56 C 0.99699 0.69631 0.21023 0.0
C57 C 0.00375 0.71 0.25142 0.0
C58 C 0.04246 0.73544 0.27233 0.0
C59 C 0.04771 0.75423 0.28079 0.0
C60 C 0.05323 0.76508 0.22991 0.0
C61 C 0.05384 0.75724 0.16974 0.0
C62 C 0.0505 0.73791 0.1626 0.0
C63 C 0.04505 0.72704 0.21374 0.0
P64 P 0.78316 0.02524 0.32031 0.0
H65 H 0.77088 0.01268 0.44391 0.0
H66 H 0.74069 1.00082 0.47963 0.0
H67 H 0.72352 0.99254 0.28842 0.0
H68 H 0.75369 0.00486 0.25296 0.0
H69 H 0.82069 0.03829 0.2943 0.0
H70 H 0.84471 0.0288 0.22014 0.0
H71 H 0.81006 0.98212 0.16235 0.0
H72 H 0.78583 0.99194 0.23695 0.0
H73 H 0.761 0.05716 0.36167 0.0
H74 H 0.77698 0.03189 0.18678 0.0
O75 O 0.79318 0.03498 0.38279 0.0
H76 H 0.73778 0.0765 0.30755 0.0
H77 H 0.75373 0.05088 0.13273 0.0
C78 C 0.76466 0.00964 0.34566 0.0
C79 C 0.76093 0.0077 0.40956 0.0
C80 C 0.74355 1.0009 0.43004 0.0
C81 C 0.72949 0.99599 0.38692 0.0
C82 C 0.73388 0.99651 0.32292 0.0
C83 C 0.75129 0.00328 0.30253 0.0
C84 C 0.80159 0.01567 0.27202 0.0
C85 C 0.8184 0.02575 0.26673 0.0
C86 C 0.83218 0.02027 0.22422 0.0
C87 C 0.82943 0.0046 0.18536 0.0
C88 C 0.81261 0.99431 0.19132 0.0
C89 C 0.79879 0.99982 0.23431 0.0
C90 C 0.7709 0.04328 0.27822 0.0
C91 C 0.76 0.05627 0.31136 0.0
C92 C 0.74663 0.06719 0.28046 0.0
C93 C 0.74383 0.06514 0.21592 0.0
C94 C 0.75569 0.05301 0.1823 0.0
C95 C 0.76904 0.04209 0.21328 0.0
P96 P 0.47328 0.77854 0.32947 0.0
H97 H 0.48548 0.76647 0.45338 0.0
H98 H 0.49897 0.73686 0.48807 0.0
H99 H 0.51058 0.72185 0.29677 0.0
H100 H 0.49691 0.75166 0.26228 0.0
H101 H 0.45269 0.80379 0.24959 0.0
H102 H 0.46176 0.82842 0.17766 0.0
H103 H 0.52014 0.81912 0.22403 0.0
H104 H 0.51076 0.79342 0.2939 0.0
H105 H 0.4442 0.75438 0.38089 0.0
H106 H 0.46494 0.76958 0.19874 0.0
O107 O 0.46387 0.78928 0.39116 0.0
H108 H 0.42537 0.72927 0.33384 0.0
H109 H 0.44579 0.7451 0.15178 0.0
C110 C 0.49026 0.76139 0.35517 0.0
C111 C 0.49164 0.75722 0.41892 0.0
C112 C 0.49933 0.74016 0.43879 0.0
C113 C 0.50561 0.72681 0.39518 0.0
C114 C 0.50561 0.7317 0.33155 0.0
C115 C 0.49805 0.74887 0.31178 0.0
C116 C 0.48106 0.79649 0.27598 0.0
C117 C 0.46748 0.80689 0.24378 0.0
C118 C 0.47272 0.82123 0.20315 0.0
C119 C 0.49174 0.82604 0.19506 0.0
C120 C 0.50539 0.81571 0.22826 0.0
C121 C 0.50007 0.80105 0.26847 0.0
C122 C 0.45556 0.76422 0.29325 0.0
C123 C 0.44406 0.75288 0.33063 0.0
C124 C 0.43339 0.73852 0.30385 0.0
C125 C 0.43399 0.73543 0.23919 0.0
C126 C 0.44473 0.74747 0.20156 0.0
C127 C 0.45565 0.76155 0.22847 0.0
P128 P 0.28563 0.46233 0.0379 0.0
H129 H 0.27418 0.47093 0.90972 0.0
H130 H 0.24478 0.4834 0.86951 0.0
H131 H 0.22938 0.50127 0.05515 0.0
H132 H 0.25853 0.48809 0.09538 0.0
H133 H 0.32393 0.4494 0.05462 0.0
H134 H 0.34922 0.45874 0.12442 0.0
H135 H 0.31546 0.50498 0.19094 0.0
H136 H 0.29012 0.49557 0.12023 0.0
H137 H 0.25578 0.43625 0.00907 0.0
H138 H 0.28282 0.45751 0.17455 0.0
O139 O 0.29414 0.44899 0.98047 0.0
H140 H 0.22933 0.42562 0.07155 0.0
H141 H 0.25674 0.4463 0.23771 0.0
C142 C 0.26877 0.47867 0.00564 0.0
C143 C 0.26486 0.47816 0.94156 0.0
C144 C 0.2479 0.4853 0.91851 0.0
C145 C 0.23446 0.49308 0.95917 0.0
C146 C 0.2392 0.49505 0.02257 0.0
C147 C 0.25614 0.48787 0.04555 0.0
C148 C 0.30518 0.47192 0.08129 0.0
C149 C 0.32209 0.46185 0.08293 0.0
C150 C 0.33659 0.46721 0.12301 0.0
C151 C 0.3344 0.48263 0.16329 0.0
C152 C 0.31755 0.49297 0.16073 0.0
C153 C 0.30309 0.48769 0.11993 0.0
C154 C 0.27122 0.44779 0.08691 0.0
C155 C 0.25645 0.4378 0.05927 0.0
C156 C 0.24129 0.43171 0.09521 0.0
C157 C 0.24073 0.43545 0.15956 0.0
C158 C 0.25656 0.4436 0.18801 0.0
C159 C 0.27161 0.44989 0.15187 0.0
P160 P 0.04474 0.28881 0.02704 0.0
H161 H 0.0385 0.27763 0.89706 0.0
H162 H 0.02644 0.24855 0.85302 0.0
H163 H 0.00547 0.23243 0.03438 0.0
H164 H 0.01822 0.26133 0.07853 0.0
H165 H 0.05725 0.32725 0.04351 0.0
H166 H 0.04717 0.3526 0.11176 0.0
H167 H 0.99988 0.31917 0.17161 0.0
H168 H 0.01015 0.29367 0.10261 0.0
H169 H 0.07082 0.25822 0.0076 0.0
H170 H 0.04755 0.28803 0.16483 0.0
O171 O 0.05939 0.29703 0.97274 0.0
H172 H 0.08157 0.23338 0.07689 0.0
H173 H 0.05875 0.26353 0.2346 0.0
C174 C 0.0292 0.27184 0.99119 0.0
C175 C 0.03073 0.2682 0.92709 0.0
C176 C 0.02382 0.25143 0.90183 0.0
C177 C 0.01523 0.23788 0.94022 0.0
C178 C 0.01234 0.24232 0.00354 0.0
C179 C 0.0193 0.25909 0.02873 0.0
C180 C 0.0343 0.30862 0.06694 0.0
C181 C 0.04439 0.32551 0.06982 0.0
C182 C 0.0386 0.34006 0.10909 0.0
C183 C 0.0227 0.33797 0.1473 0.0
C184 C 0.01227 0.3212 0.1431 0.0
C185 C 0.01801 0.30666 0.10316 0.0
C186 C 0.05825 0.2749 0.08077 0.0
C187 C 0.06873 0.25982 0.05736 0.0
C188 C 0.07492 0.24561 0.0972 0.0
C189 C 0.07076 0.24632 0.16126 0.0
C190 C 0.06185 0.2624 0.18529 0.0
C191 C 0.05551 0.27652 0.14529 0.0
P192 P 0.22311 0.05384 0.02559 0.0
H193 H 0.23485 0.0495 0.89585 0.0
H194 H 0.26409 0.03758 0.8521 0.0
H195 H 0.27805 0.01257 0.02929 0.0
H196 H 0.2488 0.02482 0.07353 0.0
H197 H 0.1883 0.07075 0.06427 0.0
H198 H 0.16338 0.06125 0.13484 0.0
H199 H 0.19044 0.00747 0.16035 0.0
H200 H 0.21567 0.0173 0.08926 0.0
H201 H 0.24885 0.08462 1.00099 0.0
H202 H 0.23161 0.05136 0.15897 0.0
O203 O 0.21417 0.06827 0.97189 0.0
H204 H 0.2755 0.0966 0.06078 0.0
H205 H 0.25822 0.06294 0.21835 0.0
C206 C 0.2394 0.03795 0.98803 0.0
C207 C 0.24374 0.04082 0.92491 0.0
C208 C 0.26061 0.03417 0.89996 0.0
C209 C 0.27348 0.02439 0.93751 0.0
C210 C 0.26836 0.01999 0.99914 0.0
C211 C 0.2515 0.02683 0.02431 0.0
C212 C 0.20369 0.04464 0.07044 0.0
C213 C 0.18871 0.05673 0.08385 0.0
C214 C 0.1744 0.05125 0.12435 0.0
C215 C 0.17475 0.03351 0.1531 0.0
C216 C 0.18975 0.02126 0.13922 0.0
C217 C 0.20413 0.0268 0.09818 0.0
C218 C 0.2381 0.06731 0.07578 0.0
C219 C 0.25036 0.08048 0.04933 0.0
C220 C 0.26569 0.08717 0.08332 0.0
C221 C 0.26906 0.08062 0.14414 0.0
C222 C 0.2559 0.0685 0.17199 0.0
C223 C 0.24062 0.06182 0.13793 0.0
P224 P 0.4598 0.21835 0.03199 0.0
H225 H 0.46153 0.23014 0.90134 0.0
H226 H 0.47228 0.25941 0.85423 0.0
H227 H 0.49918 0.27482 0.027 0.0
H228 H 0.48807 0.24561 0.07457 0.0
H229 H 0.44797 0.17977 0.04981 0.0
H230 H 0.45916 0.15465 0.11687 0.0
H231 H 0.5074 0.1882 0.16662 0.0
H232 H 0.49604 0.21347 0.09861 0.0
H233 H 0.43282 0.24865 0.02195 0.0
H234 H 0.46107 0.21886 0.16998 0.0
O235 O 0.44368 0.21015 0.98249 0.0
H236 H 0.42315 0.27283 0.09605 0.0
H237 H 0.45127 0.24279 0.24399 0.0
C238 C 0.47412 0.23546 0.99151 0.0
C239 C 0.4703 0.23943 0.92868 0.0
C240 C 0.47629 0.25631 0.90185 0.0
C241 C 0.48635 0.26954 0.93715 0.0
C242 C 0.49154 0.26486 0.99849 0.0
C243 C 0.48536 0.24802 0.02557 0.0
C244 C 0.47127 0.19847 0.06823 0.0
C245 C 0.46129 0.18156 0.07337 0.0
C246 C 0.46771 0.16714 0.11202 0.0
C247 C 0.48417 0.16938 0.14738 0.0
C248 C 0.49459 0.18607 0.14035 0.0
C249 C 0.48822 0.20048 0.10093 0.0
C250 C 0.44778 0.23202 0.09012 0.0
C251 C 0.43633 0.24693 0.07076 0.0
C252 C 0.43078 0.26073 0.1132 0.0
C253 C 0.43667 0.2598 0.17564 0.0
C254 C 0.44676 0.24398 0.19591 0.0
C255 C 0.45235 0.23023 0.15343 0.0
Pr256 Pr 0.01404 1.0024 0.74248 0.0
Pr257 Pr 0.99317 0.01415 0.60518 0.0
C258 C 0.02097 0.98807 0.85577 0.0
C259 C 0.0189 0.96895 0.87979 0.0
C260 C 0.03061 0.96262 0.92776 0.0
C261 C 0.03118 0.94355 0.94286 0.0
C262 C 0.02017 0.93056 0.9096 0.0
C263 C 0.00786 0.9371 0.86331 0.0
C264 C 0.0072 0.95616 0.84863 0.0
C265 C 0.03973 0.01159 0.64704 0.0
C266 C 0.00273 0.96921 0.63585 0.0
C267 C 0.98879 0.02732 0.48902 0.0
C268 C 0.99851 0.04178 0.45154 0.0
C269 C 0.98993 0.0593 0.44199 0.0
C270 C 0.9998 0.07391 0.41365 0.0
C271 C 0.01846 0.07131 0.39411 0.0
C272 C 0.02678 0.05355 0.4011 0.0
C273 C 0.01685 0.03888 0.4291 0.0
C274 C 0.96707 0.00416 0.6977 0.0
C275 C 0.00482 0.04716 0.71363 0.0
O276 O 0.00542 0.99705 0.84247 0.0
O277 O 0.03392 0.98986 0.81289 0.0
O278 O 0.02216 0.0113 0.64546 0.0
O279 O 0.04511 0.00751 0.70335 0.0
O280 O 0.99907 0.98196 0.59231 0.0
O281 O 0.00669 0.9735 0.6947 0.0
O282 O 0.99811 0.01185 0.50136 0.0
O283 O 0.97903 0.03356 0.53661 0.0
O284 O 0.98467 0.00484 0.70154 0.0
O285 O 0.96207 0.00837 0.64097 0.0
O286 O 0.00827 0.03431 0.75692 0.0
O287 O 1.00117 0.04295 0.65429 0.0
H288 H 0.03991 0.97229 0.95161 0.0
H289 H 0.04091 0.93885 0.97841 0.0
H290 H 0.99908 0.92741 0.83751 0.0
H291 H 0.99811 0.96081 0.81122 0.0
H292 H 0.97577 0.0619 0.45834 0.0
H293 H 0.99305 0.08748 0.40923 0.0
H294 H 0.04103 0.05104 0.38545 0.0
H295 H 0.02369 0.02543 0.43434 0.0
Pr296 Pr 0.51089 0.00883 0.74251 0.0
Pr297 Pr 0.49436 0.98861 0.61081 0.0
C298 C 0.52571 0.0157 0.85517 0.0
C299 C 0.5413 0.02707 0.8792 0.0
C300 C 0.5407 0.03398 0.94028 0.0
C301 C 0.5558 0.04426 0.96415 0.0
C302 C 0.5718 0.04772 0.92728 0.0
C303 C 0.57208 0.04113 0.86543 0.0
C304 C 0.55694 0.03097 0.84154 0.0
C305 C 0.50542 0.03494 0.64528 0.0
C306 C 0.54082 0.99403 0.63026 0.0
C307 C 0.47864 0.98544 0.49785 0.0
C308 C 0.46572 0.99824 0.46597 0.0
C309 C 0.45743 0.9933 0.40916 0.0
C310 C 0.44379 0.00495 0.3825 0.0
C311 C 0.43835 0.02173 0.41236 0.0
C312 C 0.44728 0.02686 0.46825 0.0
C313 C 0.46065 0.01512 0.49511 0.0
C314 C 0.5006 0.9623 0.70637 0.0
C315 C 0.46501 0.00354 0.72199 0.0
O316 O 0.53047 1.0012 0.82088 0.0
O317 O 0.51123 0.025 0.83343 0.0
O318 O 0.50212 0.01762 0.64567 0.0
O319 O 0.51191 0.03973 0.6997 0.0
O320 O 0.52681 0.98927 0.59249 0.0
O321 O 0.53831 1.0006 0.68772 0.0
O322 O 0.49576 0.99175 0.50593 0.0
O323 O 0.47165 0.9774 0.54767 0.0
O324 O 0.50321 0.97975 0.7075 0.0
O325 O 0.49459 0.95749 0.65127 0.0
O326 O 0.47886 0.00427 0.76323 0.0
O327 O 0.46791 1.00114 0.66144 0.0
H328 H 0.52864 0.03125 0.96973 0.0
H329 H 0.55499 0.04938 0.01162 0.0
H330 H 0.58424 0.04328 0.83597 0.0
H331 H 0.55759 0.02587 0.79399 0.0
H332 H 0.46108 0.9802 0.38646 0.0
H333 H 0.43701 1.00046 0.33986 0.0
H334 H 0.44367 0.03979 0.492 0.0
H335 H 0.46671 0.01899 0.53959 0.0
Pr336 Pr 0.4993 0.50715 0.74498 0.0
Pr337 Pr 0.51887 0.49124 0.6105 0.0
C338 C 0.4937 0.52248 0.85751 0.0
C339 C 0.4834 0.53886 0.8818 0.0
C340 C 0.47115 0.53675 0.93256 0.0
C341 C 0.46131 0.55222 0.95599 0.0
C342 C 0.46375 0.57008 0.9293 0.0
C343 C 0.47584 0.57211 0.87799 0.0
C344 C 0.48549 0.55664 0.8542 0.0
C345 C 0.47279 0.50228 0.6489 0.0
C346 C 0.51298 0.5375 0.63159 0.0
C347 C 0.52159 0.47506 0.49813 0.0
C348 C 0.50895 0.46177 0.46712 0.0
C349 C 0.51558 0.44984 0.42023 0.0
C350 C 0.50394 0.43578 0.39607 0.0
C351 C 0.48537 0.43363 0.41791 0.0
C352 C 0.47869 0.44616 0.46352 0.0
C353 C 0.49049 0.45976 0.48877 0.0
C354 C 0.54537 0.49768 0.70542 0.0
C355 C 0.50451 0.46138 0.72215 0.0
O356 O 0.50855 0.52605 0.82323 0.0
O357 O 0.48345 0.50855 0.83641 0.0
O358 O 0.49013 0.49908 0.64785 0.0
O359 O 0.46818 0.50815 0.7043 0.0
O360 O 0.51752 0.52368 0.59274 0.0
O361 O 0.507 0.53473 0.68968 0.0
O362 O 0.515 0.49211 0.50596 0.0
O363 O 0.53005 0.46839 0.54763 0.0
O364 O 0.52785 0.49919 0.70717 0.0
O365 O 0.55031 0.49285 0.64909 0.0
O366 O 0.50367 0.47504 0.76412 0.0
O367 O 0.50686 0.46455 0.66164 0.0
H368 H 0.46927 0.52313 0.95427 0.0
H369 H 0.45216 0.55033 0.99584 0.0
H370 H 0.4778 0.58569 0.85615 0.0
H371 H 0.49462 0.55865 0.81436 0.0
H372 H 0.52993 0.45095 0.40391 0.0
H373 H 0.5098 0.4262 0.36205 0.0
H374 H 0.46445 0.44526 0.48094 0.0
H375 H 0.48538 0.46835 0.5267 0.0
Pr376 Pr 0.99817 0.49581 0.748 0.0
Pr377 Pr 0.01296 0.51597 0.62264 0.0
C378 C 0.98845 0.48239 0.86049 0.0
C379 C 0.97264 0.4714 0.88468 0.0
C380 C 0.97447 0.46145 0.94066 0.0
C381 C 0.95927 0.45128 0.96442 0.0
C382 C 0.942 0.45095 0.93251 0.0
C383 C 0.94043 0.46068 0.87564 0.0
C384 C 0.95564 0.47075 0.85183 0.0
C385 C 1.00084 0.4733 0.64182 0.0
C386 C 0.96674 0.5113 0.64798 0.0
C387 C 0.02577 0.51964 0.5057 0.0
C388 C 0.03992 0.50892 0.47102 0.0
C389 C 0.04047 0.50938 0.40574 0.0
C390 C 0.05369 0.49854 0.37339 0.0
C391 C 0.06628 0.48693 0.4061 0.0
C392 C 0.06555 0.48649 0.47149 0.0
C393 C 0.05258 0.49748 0.50361 0.0
C394 C 0.00488 0.54313 0.71435 0.0
C395 C 0.0441 0.50435 0.73026 0.0
O396 O 0.98443 0.49947 0.84195 0.0
O397 O 0.99985 0.47347 0.82281 0.0
O398 O 0.01269 0.48553 0.65828 0.0
O399 O 0.98731 0.47185 0.68218 0.0
O400 O 0.98043 0.51295 0.60646 0.0
O401 O 0.96999 0.50745 0.70742 0.0
O402 O 0.01039 0.51038 0.51921 0.0
O403 O 0.03219 0.52964 0.55241 0.0
O404 O 0.00322 0.52564 0.71799 0.0
O405 O 0.01071 0.54757 0.65876 0.0
O406 O 0.03008 0.50146 0.76968 0.0
O407 O 0.04125 0.50773 0.67042 0.0
H408 H 0.98759 0.46168 0.96621 0.0
H409 H 0.96103 0.44374 0.00788 0.0
H410 H 0.92729 0.461 0.8503 0.0
H411 H 0.95404 0.47826 0.80821 0.0
H412 H 0.03071 0.51807 0.37991 0.0
H413 H 0.05399 0.49912 0.32293 0.0
H414 H 0.07529 0.47794 0.49793 0.0
H415 H 0.05239 0.49696 0.55406 0.0
H416 H 0.17887 0.01523 0.26521 0.0
H417 H 0.15494 0.01009 0.3455 0.0
H418 H 0.11328 0.03579 0.2274 0.0
H419 H 0.13697 0.04071 0.14658 0.0
H420 H 0.11474 0.05084 0.34943 0.0
H421 H 0.11033 0.97296 0.35257 0.0
H422 H 0.13368 0.98235 0.35882 0.0
H423 H 0.12052 0.98582 0.28832 0.0
C424 C 0.16453 0.01939 0.25566 0.0
C425 C 0.15991 0.02846 0.19938 0.0
C426 C 0.15087 0.01648 0.30174 0.0
C427 C 0.13229 0.02249 0.29239 0.0
C428 C 0.12752 0.03109 0.23572 0.0
H429 H 0.03312 0.0039 0.52457 0.0
H430 H 0.05518 0.00688 0.4369 0.0
C431 C 0.14113 0.03395 0.18964 0.0
C432 C 0.11805 0.02084 0.34286 0.0
H433 H 0.0944 0.98923 0.43366 0.0
C434 C 0.11025 0.03736 0.36766 0.0
C435 C 0.11208 0.00325 0.36634 0.0
C436 C 0.11943 0.98505 0.33991 0.0
C437 C 0.09696 0.03677 0.41607 0.0
C438 C 0.09136 0.01922 0.44051 0.0
C439 C 0.09884 1.00267 0.41502 0.0
C440 C 0.07787 0.01783 0.4931 0.0
C441 C 0.08894 0.05489 0.44087 0.0
C442 C 0.08336 0.02296 0.55359 0.0
C443 C 0.07081 0.02119 0.60352 0.0
C444 C 0.05248 0.01457 0.5936 0.0
C445 C 0.04697 0.00957 0.53301 0.0
C446 C 0.05962 0.01106 0.48317 0.0
H447 H 0.09155 0.06686 0.40878 0.0
H448 H 0.07358 0.05354 0.4486 0.0
H449 H 0.09555 0.05813 0.48648 0.0
H450 H 0.09744 0.02807 0.56228 0.0
H451 H 0.07546 0.02495 0.64996 0.0
H452 H 0.48334 0.13096 0.13601 0.0
H453 H 0.48785 0.10755 0.21842 0.0
H454 H 0.50113 0.15164 0.3488 0.0
H455 H 0.4963 0.17516 0.26709 0.0
H456 H 0.51933 0.09971 0.29888 0.0
H457 H 0.45642 0.12349 0.43003 0.0
H458 H 0.4607 0.13008 0.34999 0.0
H459 H 0.47307 0.14166 0.41203 0.0
C460 C 0.4873 0.13568 0.18217 0.0
C461 C 0.48933 0.15497 0.19496 0.0
C462 C 0.48994 0.12227 0.22915 0.0
C463 C 0.49451 0.12786 0.29002 0.0
C464 C 0.49732 0.14703 0.30238 0.0
H465 H 0.50695 0.07303 0.6477 0.0
H466 H 0.50457 0.09485 0.55992 0.0
C467 C 0.49477 0.16044 0.25538 0.0
C468 C 0.49577 0.11374 0.34097 0.0
H469 H 0.47558 0.10068 0.4789 0.0
C470 C 0.50974 0.09985 0.33816 0.0
C471 C 0.48318 0.1139 0.39203 0.0
C472 C 0.46737 0.12796 0.39624 0.0
C473 C 0.51181 0.08646 0.38598 0.0
C474 C 0.49929 0.08671 0.43736 0.0
C475 C 0.48519 0.10049 0.43967 0.0
C476 C 0.50085 0.0732 0.49017 0.0
C477 C 0.52773 0.07253 0.38193 0.0
C478 C 0.4994 0.05373 0.4805 0.0
C479 C 0.50092 0.04123 0.53076 0.0
C480 C 0.50355 0.04794 0.59166 0.0
C481 C 0.50486 0.06741 0.60128 0.0
C482 C 0.50346 0.0799 0.55114 0.0
H483 H 0.53878 0.07724 0.34887 0.0
H484 H 0.53424 0.07024 0.42834 0.0
H485 H 0.52221 0.05887 0.36505 0.0
H486 H 0.49704 0.04818 0.43416 0.0
H487 H 0.50024 0.02634 0.52192 0.0
H488 H 0.37258 0.4836 0.1464 0.0
H489 H 0.3969 0.4877 0.22616 0.0
H490 H 0.35414 0.49543 0.36603 0.0
H491 H 0.32973 0.49117 0.28681 0.0
H492 H 0.40266 0.51909 0.31568 0.0
H493 H 0.38759 0.45038 0.42804 0.0
H494 H 0.38012 0.45591 0.34969 0.0
H495 H 0.36763 0.46537 0.41527 0.0
C496 C 0.36835 0.48624 0.19412 0.0
C497 C 0.3492 0.48698 0.21027 0.0
C498 C 0.38227 0.48864 0.23955 0.0
C499 C 0.37732 0.49163 0.30208 0.0
C500 C 0.35825 0.49294 0.3181 0.0
H501 H 0.43495 0.49895 0.65524 0.0
H502 H 0.41256 0.49678 0.56902 0.0
C503 C 0.34432 0.49068 0.27266 0.0
C504 C 0.39205 0.49288 0.35092 0.0
H505 H 0.40926 0.47024 0.47915 0.0
C506 C 0.4042 0.5084 0.35132 0.0
C507 C 0.39403 0.47887 0.39718 0.0
C508 C 0.38178 0.46159 0.3976 0.0
C509 C 0.41791 0.51058 0.39803 0.0
C510 C 0.41981 0.49661 0.44469 0.0
C511 C 0.40781 0.48096 0.44354 0.0
C512 C 0.43365 0.4982 0.49648 0.0
C513 C 0.42979 0.52812 0.39811 0.0
C514 C 0.45302 0.49967 0.48464 0.0
C515 C 0.46582 0.5011 0.53407 0.0
C516 C 0.45955 0.50064 0.59609 0.0
C517 C 0.4402 0.49919 0.60783 0.0
C518 C 0.4274 0.4979 0.55859 0.0
H519 H 0.42333 0.53949 0.36986 0.0
H520 H 0.43197 0.53339 0.44629 0.0
H521 H 0.44372 0.52487 0.37764 0.0
H522 H 0.45826 0.49962 0.43725 0.0
H523 H 0.48059 0.5027 0.5238 0.0
H524 H 0.01206 0.33317 0.26907 0.0
H525 H 0.00725 0.35739 0.34851 0.0
H526 H 0.01877 0.40039 0.21231 0.0
H527 H 0.02321 0.37628 0.13226 0.0
H528 H 0.03432 0.38394 0.38698 0.0
H529 H 0.97017 0.41893 0.29648 0.0
H530 H 0.97748 0.3959 0.27085 0.0
H531 H 0.98895 0.4165 0.24109 0.0
C532 C 0.01316 0.34778 0.25561 0.0
C533 C 0.01797 0.35275 0.19413 0.0
C534 C 0.01056 0.36162 0.30125 0.0
C535 C 0.01253 0.38072 0.28635 0.0
C536 C 0.01693 0.38577 0.22478 0.0
H537 H 0.03086 0.46992 0.56305 0.0
H538 H 0.03412 0.4487 0.47345 0.0
C539 C 0.01961 0.37194 0.17916 0.0
C540 C 0.0109 0.39526 0.33594 0.0
H541 H 0.98535 0.43346 0.38215 0.0
C542 C 0.02361 0.39478 0.38595 0.0
C543 C 0.99689 0.40935 0.33466 0.0
C544 C 0.98247 0.4102 0.28323 0.0
C545 C 0.02271 0.40797 0.43467 0.0
C546 C 0.00883 0.4222 0.43307 0.0
C547 C 0.99609 0.42266 0.38309 0.0
C548 C 0.00666 0.43606 0.48459 0.0
C549 C 0.03634 0.40625 0.48823 0.0
C550 C 0.98995 0.43653 0.51933 0.0
C551 C 0.98802 0.44883 0.56983 0.0
C552 C 0.00273 0.46099 0.58648 0.0
C553 C 0.01928 0.46083 0.55087 0.0
C554 C 0.02121 0.44855 0.50015 0.0
H555 H 0.04311 0.39219 0.48962 0.0
H556 H 0.04756 0.41694 0.48288 0.0
H557 H 0.02918 0.40874 0.53348 0.0
H558 H 0.97851 0.42709 0.50814 0.0
H559 H 0.97506 0.44867 0.59625 0.0
H560 H 0.86783 0.00531 0.19561 0.0
H561 H 0.89098 1.00184 0.11222 0.0
H562 H 0.84668 0.98928 0.98184 0.0
H563 H 0.82334 0.99344 0.06444 0.0
H564 H 0.9004 0.97289 0.03102 0.0
H565 H 0.87237 0.03436 0.90169 0.0
H566 H 0.86546 0.02905 0.98066 0.0
H567 H 0.85537 0.0163 0.91654 0.0
C568 C 0.86298 1.00182 0.14918 0.0
C569 C 0.84366 0.99993 0.13665 0.0
C570 C 0.87626 0.99971 0.10163 0.0
C571 C 0.87056 0.99569 0.04047 0.0
C572 C 0.85139 0.99278 0.02842 0.0
H573 H 0.93072 0.99324 0.687 0.0
H574 H 0.90758 0.98926 0.77051 0.0
C575 C 0.83806 0.99494 0.07594 0.0
C576 C 0.8846 0.99537 0.98909 0.0
H577 H 0.89675 0.0173 0.85323 0.0
C578 C 0.89961 0.98258 0.99209 0.0
C579 C 0.88363 0.0081 0.93848 0.0
C580 C 0.86846 0.02286 0.93419 0.0
C581 C 0.91351 0.98203 0.94545 0.0
C582 C 0.9125 0.99477 0.89492 0.0
C583 C 0.89745 0.00747 0.89181 0.0
C584 C 0.92703 0.99551 0.84515 0.0
C585 C 0.92901 0.96767 0.95016 0.0
C586 C 0.94567 1.00035 0.85924 0.0
C587 C 0.9589 1.00266 0.81147 0.0
C588 C 0.95374 1.00013 0.74889 0.0
C589 C 0.93514 0.99511 0.73493 0.0
C590 C 0.92191 0.99283 0.78257 0.0
H591 H 0.9252 0.95599 0.98208 0.0
H592 H 0.93243 0.96174 0.90363 0.0
H593 H 0.94183 0.97453 0.96875 0.0
H594 H 0.94983 0.00305 0.90697 0.0
H595 H 0.97286 0.00732 0.82326 0.0
H596 H 0.52283 0.829 0.11862 0.0
H597 H 0.52995 0.8538 0.04339 0.0
H598 H 0.47885 0.88247 0.0943 0.0
H599 H 0.4725 0.85882 0.17282 0.0
H600 H 0.51299 0.86292 0.94369 0.0
H601 H 0.51217 0.92632 0.08998 0.0
H602 H 0.51226 0.90309 0.12343 0.0
H603 H 0.49048 0.91404 0.1003 0.0
C604 C 0.51338 0.84086 0.11521 0.0
C605 C 0.49699 0.84171 0.15189 0.0
C606 C 0.5174 0.85499 0.07161 0.0
C607 C 0.50511 0.87027 0.06346 0.0
C608 C 0.48889 0.87122 0.10055 0.0
H609 H 0.4834 0.92877 0.72206 0.0
H610 H 0.48656 0.90688 0.80891 0.0
C611 C 0.48506 0.85735 0.14479 0.0
C612 C 0.50827 0.88436 0.01294 0.0
H613 H 0.50511 0.93123 0.98021 0.0
C614 C 0.51159 0.87788 0.95204 0.0
C615 C 0.50697 0.90398 0.02337 0.0
C616 C 0.50551 0.91223 0.088 0.0
C617 C 0.51261 0.89029 0.90122 0.0
C618 C 0.50938 0.90973 0.91088 0.0
C619 C 0.50713 0.91632 0.97219 0.0
C620 C 0.50748 0.92326 0.85808 0.0
C621 C 0.51726 0.88234 0.83783 0.0
C622 C 0.51745 0.94033 0.85777 0.0
C623 C 0.51517 0.95319 0.80878 0.0
C624 C 0.50304 0.94914 0.75903 0.0
C625 C 0.49304 0.93215 0.75947 0.0
C626 C 0.495 0.91952 0.80889 0.0
H627 H 0.52617 0.8696 0.842 0.0
H628 H 0.50409 0.87812 0.81406 0.0
H629 H 0.52472 0.89273 0.80824 0.0
H630 H 0.52708 0.94368 0.89523 0.0
H631 H 0.52314 0.9661 0.80924 0.0
H632 H 0.66171 0.52236 0.17352 0.0
H633 H 0.63736 0.52739 0.09396 0.0
H634 H 0.64543 0.47082 0.02744 0.0
H635 H 0.66953 0.4657 0.10641 0.0
H636 H 0.63776 0.52509 0.96462 0.0
H637 H 0.58933 0.47202 0.06263 0.0
H638 H 0.60942 0.4807 0.10505 0.0
H639 H 0.6122 0.46251 0.04746 0.0
C640 C 0.65835 0.51106 0.14162 0.0
C641 C 0.66732 0.49353 0.14697 0.0
C642 C 0.64441 0.51392 0.09636 0.0
C643 C 0.63923 0.49931 0.05578 0.0
C644 C 0.64876 0.48211 0.05943 0.0
H645 H 0.5835 0.49807 0.70114 0.0
H646 H 0.60541 0.50081 0.78836 0.0
C647 C 0.66256 0.47922 0.1046 0.0
C648 C 0.62392 0.50183 0.00934 0.0
H649 H 0.5832 0.48184 0.95777 0.0
C650 C 0.62571 0.51579 0.96349 0.0
C651 C 0.60797 0.48997 0.00856 0.0
C652 C 0.60448 0.47559 0.05896 0.0
C653 C 0.61245 0.51759 0.91521 0.0
C654 C 0.59721 0.50484 0.912 0.0
C655 C 0.59498 0.49148 0.95958 0.0
C656 C 0.58386 0.50449 0.85855 0.0
C657 C 0.61493 0.53316 0.86825 0.0
C658 C 0.56437 0.50517 0.86881 0.0
C659 C 0.55179 0.50331 0.81895 0.0
C660 C 0.55848 0.50079 0.75791 0.0
C661 C 0.57794 0.50023 0.74763 0.0
C662 C 0.5905 0.50197 0.79743 0.0
H663 H 0.62295 0.5451 0.88837 0.0
H664 H 0.62299 0.52776 0.82775 0.0
H665 H 0.60119 0.53846 0.8513 0.0
H666 H 0.55886 0.50684 0.91558 0.0
H667 H 0.53689 0.50332 0.82841 0.0
H668 H 0.99405 0.63977 0.22595 0.0
H669 H 0.99235 0.6166 0.14156 0.0
H670 H 1.00103 0.66051 0.00632 0.0
H671 H 0.00338 0.6836 0.08995 0.0
H672 H 0.96911 0.61352 0.03343 0.0
H673 H 0.04407 0.62356 0.97121 0.0
H674 H 0.03416 0.63219 0.04319 0.0
H675 H 0.03055 0.64485 0.97165 0.0
C676 C 0.99556 0.64452 0.17824 0.0
C677 C 0.99896 0.6636 0.16501 0.0
C678 C 0.99448 0.63125 0.13003 0.0
C679 C 0.99691 0.63676 0.06769 0.0
C680 C 0.99943 0.65588 0.05414 0.0
H681 H 0.00752 0.58125 0.70988 0.0
H682 H 0.00432 0.60354 0.79621 0.0
C683 C 1.00052 0.66912 0.10215 0.0
C684 C 0.99751 0.62254 0.01688 0.0
H685 H 0.0259 0.6049 0.90251 0.0
C686 C 0.98154 0.61155 0.00495 0.0
C687 C 0.01377 0.61992 0.9799 0.0
C688 C 0.03169 0.63061 0.99234 0.0
C689 C 0.98122 0.59841 0.95586 0.0
C690 C 0.99743 0.59598 0.91841 0.0
C691 C 0.01345 0.60683 0.93091 0.0
C692 C 0.99816 0.58238 0.86569 0.0
C693 C 0.96339 0.58762 0.94347 0.0
C694 C 0.99578 0.56302 0.87587 0.0
C695 C 0.99757 0.55025 0.82646 0.0
C696 C 1.00189 0.55659 0.76607 0.0
C697 C 0.00413 0.57595 0.75588 0.0
C698 C 1.00232 0.5887 0.80519 0.0
H699 H 0.951 0.59449 0.96523 0.0
H700 H 0.96082 0.58621 0.89262 0.0
H701 H 0.9647 0.57332 0.9635 0.0
H702 H 0.993 0.55773 0.9223 0.0
H703 H 0.99598 0.53542 0.8358 0.0
H704 H 0.09982 0.22077 0.16273 0.0
H705 H 0.09942 0.18948 0.21064 0.0
H706 H 0.0456 0.20167 0.29339 0.0
H707 H 0.04577 0.23263 0.24584 0.0
H708 H 0.06954 0.18071 0.37146 0.0
H709 H 0.06363 0.1506 0.13232 0.0
H710 H 0.08396 0.16474 0.14856 0.0
H711 H 0.06111 0.1754 0.14717 0.0
C712 C 0.08806 0.21687 0.19202 0.0
C713 C 0.07277 0.22916 0.20003 0.0
C714 C 0.08786 0.19901 0.21929 0.0
C715 C 0.07233 0.1932 0.2546 0.0
C716 C 0.05773 0.20591 0.26633 0.0
H717 H 0.00697 0.09762 0.30982 0.0
H718 H 0.02382 0.12581 0.27679 0.0
C719 C 0.05792 0.22369 0.23929 0.0
C720 C 0.06998 0.17342 0.27413 0.0
H721 H 0.05872 0.13022 0.21619 0.0
C722 C 0.06756 0.16953 0.33776 0.0
C723 C 0.06719 0.15899 0.22973 0.0
C724 C 0.06896 0.16254 0.16056 0.0
C725 C 0.06151 0.1518 0.35805 0.0
C726 C 0.0581 0.13757 0.31341 0.0
C727 C 0.06145 0.14118 0.25012 0.0
C728 C 0.04882 0.11973 0.33052 0.0
C729 C 0.05765 0.14879 0.42653 0.0
C730 C 0.05747 0.10682 0.37062 0.0
C731 C 0.04779 0.09077 0.38997 0.0
C732 C 0.02937 0.08736 0.36919 0.0
C733 C 0.02105 0.1 0.3272 0.0
C734 C 0.0307 0.11602 0.30801 0.0
H735 H 0.05816 0.16212 0.45341 0.0
H736 H 0.04365 0.14224 0.43335 0.0
H737 H 0.06836 0.13912 0.44609 0.0
H738 H 0.07154 0.10933 0.38786 0.0
H739 H 0.05446 0.08139 0.42291 0.0
H740 H 0.27621 0.08816 0.26738 0.0
H741 H 0.30665 0.08581 0.31993 0.0
H742 H 0.33378 0.07688 0.14258 0.0
H743 H 0.30361 0.0791 0.09003 0.0
H744 H 0.32585 0.05261 0.31263 0.0
H745 H 0.37151 0.11047 0.23077 0.0
H746 H 0.34624 0.11119 0.22378 0.0
H747 H 0.36009 0.09835 0.16801 0.0
C748 C 0.28875 0.0862 0.23952 0.0
C749 C 0.28749 0.08374 0.1746 0.0
C750 C 0.30611 0.08494 0.26953 0.0
C751 C 0.32248 0.08133 0.2351 0.0
C752 C 0.32142 0.08014 0.16994 0.0
H753 H 0.43001 0.03011 0.29039 0.0
H754 H 0.40217 0.04648 0.25106 0.0
C755 C 0.30409 0.0814 0.13993 0.0
C756 C 0.33995 0.07561 0.26724 0.0
H757 H 0.38722 0.08334 0.27321 0.0
C758 C 0.33922 0.05954 0.30502 0.0
C759 C 0.35738 0.08453 0.25642 0.0
C760 C 0.35886 0.1022 0.21798 0.0
C761 C 0.35554 0.0517 0.33035 0.0
C762 C 0.37303 0.0604 0.31861 0.0
C763 C 0.37376 0.07672 0.28201 0.0
C764 C 0.39071 0.05226 0.34251 0.0
C765 C 0.354 0.03368 0.36719 0.0
C766 C 0.39362 0.05051 0.40683 0.0
C767 C 0.40929 0.04094 0.42937 0.0
C768 C 0.42251 0.03315 0.38796 0.0
C769 C 0.41995 0.03567 0.32347 0.0
C770 C 0.40417 0.04517 0.30095 0.0
H771 H 0.34032 0.02655 0.35949 0.0
H772 H 0.36545 0.0238 0.35459 0.0
H773 H 0.35521 0.03689 0.41766 0.0
H774 H 0.38349 0.0561 0.43962 0.0
H775 H 0.41067 0.0391 0.47928 0.0
H776 H 0.46398 0.2751 0.24717 0.0
H777 H 0.46343 0.30498 0.3014 0.0
H778 H 0.40546 0.31288 0.2491 0.0
H779 H 0.40608 0.28282 0.19294 0.0
H780 H 0.42486 0.34298 0.22269 0.0
H781 H 0.44312 0.32319 0.46263 0.0
H782 H 0.46006 0.31301 0.4111 0.0
H783 H 0.43576 0.30599 0.40586 0.0
C784 C 0.4509 0.28286 0.24883 0.0
C785 C 0.435 0.27651 0.21637 0.0
C786 C 0.45059 0.29997 0.28009 0.0
C787 C 0.43428 0.31102 0.28064 0.0
C788 C 0.41814 0.3045 0.24979 0.0
H789 H 0.45938 0.41361 0.48558 0.0
H790 H 0.44148 0.38633 0.45295 0.0
C791 C 0.41851 0.28736 0.21778 0.0
C792 C 0.43509 0.3302 0.30731 0.0
H793 H 0.45412 0.35425 0.42901 0.0
C794 C 0.4308 0.34549 0.2685 0.0
C795 C 0.44231 0.33359 0.36766 0.0
C796 C 0.44534 0.31802 0.4143 0.0
C797 C 0.43509 0.36395 0.28638 0.0
C798 C 0.44454 0.36708 0.3435 0.0
C799 C 0.44729 0.35193 0.38448 0.0
C800 C 0.45309 0.38545 0.35972 0.0
C801 C 0.42971 0.3798 0.24325 0.0
C802 C 0.46538 0.39436 0.3179 0.0
C803 C 0.47522 0.41045 0.33571 0.0
C804 C 0.47346 0.41767 0.39649 0.0
C805 C 0.4609 0.40883 0.43795 0.0
C806 C 0.45074 0.39302 0.41959 0.0
H807 H 0.41658 0.37642 0.21764 0.0
H808 H 0.42764 0.39318 0.26894 0.0
H809 H 0.44095 0.38179 0.20801 0.0
H810 H 0.46792 0.38853 0.27206 0.0
H811 H 0.4845 0.41696 0.30208 0.0
H812 H 0.21388 0.40763 0.15204 0.0
H813 H 0.18196 0.40868 0.19513 0.0
H814 H 0.1948 0.46112 0.28613 0.0
H815 H 0.22634 0.46036 0.24317 0.0
H816 H 0.1736 0.43631 0.35991 0.0
H817 H 0.14341 0.44621 0.12252 0.0
H818 H 0.15747 0.42557 0.13511 0.0
H819 H 0.16823 0.44835 0.13774 0.0
C820 C 0.20994 0.41925 0.18187 0.0
C821 C 0.22268 0.43392 0.19401 0.0
C822 C 0.19172 0.41984 0.2063 0.0
C823 C 0.18599 0.43512 0.24299 0.0
C824 C 0.19898 0.44918 0.25798 0.0
H825 H 0.08981 0.49926 0.31475 0.0
H826 H 0.11713 0.48289 0.27211 0.0
C827 C 0.2171 0.44863 0.23368 0.0
C828 C 0.16623 0.43747 0.26278 0.0
H829 H 0.12297 0.44964 0.20741 0.0
C830 C 0.1624 0.43888 0.32674 0.0
C831 C 0.15178 0.44104 0.21909 0.0
C832 C 0.15533 0.44037 0.14973 0.0
C833 C 0.14472 0.44461 0.34831 0.0
C834 C 0.13038 0.44864 0.30458 0.0
C835 C 0.13397 0.44642 0.24068 0.0
C836 C 0.11238 0.45724 0.32401 0.0
C837 C 0.14193 0.44746 0.41748 0.0
C838 C 0.10027 0.44798 0.36544 0.0
C839 C 0.08473 0.45736 0.39014 0.0
C840 C 0.08093 0.47605 0.3731 0.0
C841 C 0.09236 0.48484 0.32844 0.0
C842 C 0.10798 0.47551 0.30419 0.0
H843 H 0.15543 0.44728 0.4434 0.0
H844 H 0.13477 0.46102 0.42684 0.0
H845 H 0.13299 0.43601 0.43613 0.0
H846 H 0.10319 0.43373 0.38018 0.0
H847 H 0.07593 0.45018 0.42379 0.0
H848 H 0.03279 0.75579 0.06374 0.0
H849 H 0.02869 0.7809 0.98765 0.0
H850 H 0.0723 0.81292 0.07799 0.0
H851 H 0.07698 0.78756 0.15283 0.0
H852 H 0.01608 0.81379 0.0316 0.0
H853 H 0.08096 0.82664 0.89732 0.0
H854 H 0.07653 0.8047 0.93705 0.0
H855 H 0.08588 0.82452 0.979 0.0
C856 C 0.04214 0.76776 0.06567 0.0
C857 C 0.05508 0.7698 0.11478 0.0
C858 C 0.03969 0.78216 0.02228 0.0
C859 C 0.05018 0.79877 0.02709 0.0
C860 C 0.06425 0.80011 0.07266 0.0
H861 H 0.02183 0.9124 0.0214 0.0
H862 H 0.02757 0.87896 0.03946 0.0
C863 C 0.06676 0.7857 0.11594 0.0
C864 C 0.04406 0.81586 0.9936 0.0
H865 H 0.06067 0.85381 0.91376 0.0
C866 C 0.0257 0.82231 0.00445 0.0
C867 C 0.05654 0.82693 0.95789 0.0
C868 C 0.07601 0.82023 0.9416 0.0
C869 C 0.01995 0.8401 0.98437 0.0
C870 C 0.03294 0.85177 0.95336 0.0
C871 C 0.05084 0.84486 0.9384 0.0
C872 C 0.02878 0.87174 0.9415 0.0
C873 C 1.00022 0.84655 0.99851 0.0
C874 C 0.02771 0.87865 0.88046 0.0
C875 C 0.02442 0.89774 0.87005 0.0
C876 C 0.0224 0.91018 0.92063 0.0
C877 C 0.02341 0.90314 0.98167 0.0
C878 C 0.02656 0.88407 0.99199 0.0
H879 H 0.99064 0.83447 0.00644 0.0
H880 H 1.00035 0.85522 0.04151 0.0
H881 H 0.99455 0.85526 0.95992 0.0
H882 H 0.02952 0.86932 0.84102 0.0
H883 H 0.02396 0.90285 0.82249 0.0
H884 H 0.74115 0.08172 0.10054 0.0
H885 H 0.7122 0.08925 0.04393 0.0
H886 H 0.67959 0.07311 0.20478 0.0
H887 H 0.7082 0.0658 0.26127 0.0
H888 H 0.68716 0.06339 0.01508 0.0
H889 H 0.65049 0.1181 0.14975 0.0
H890 H 0.67511 0.11304 0.16098 0.0
H891 H 0.65742 0.09937 0.20047 0.0
C892 C 0.72779 0.08026 0.12422 0.0
C893 C 0.72697 0.07321 0.18541 0.0
C894 C 0.71129 0.08462 0.09195 0.0
C895 C 0.69371 0.08203 0.12036 0.0
C896 C 0.69295 0.07584 0.18243 0.0
H897 H 0.58645 0.04333 0.0442 0.0
H898 H 0.61574 0.05614 0.08491 0.0
C899 C 0.70939 0.07159 0.21473 0.0
C900 C 0.67619 0.0828 0.08307 0.0
H901 H 0.63031 0.09654 0.09099 0.0
C902 C 0.67487 0.0711 0.03054 0.0
C903 C 0.66014 0.09284 0.10319 0.0
C904 C 0.66094 0.10669 0.15632 0.0
C905 C 0.65764 0.06803 1.00067 0.0
C906 C 0.64137 0.07699 0.0238 0.0
C907 C 0.64284 0.0896 0.07377 0.0
C908 C 0.62254 0.07164 1.00122 0.0
C909 C 0.65668 0.05428 0.9472 0.0
C910 C 0.6165 0.07654 0.94121 0.0
C911 C 0.59963 0.06937 0.91786 0.0
C912 C 0.5886 0.05711 0.95414 0.0
C913 C 0.59441 0.0529 0.01523 0.0
C914 C 0.6112 0.06015 0.03856 0.0
H915 H 0.67036 0.04724 0.93851 0.0
H916 H 0.64592 0.04337 0.95681 0.0
H917 H 0.65245 0.06178 0.90408 0.0
H918 H 0.62506 0.08551 0.91195 0.0
H919 H 0.5954 0.07316 0.87104 0.0
H920 H 0.41156 0.7319 0.13628 0.0
H921 H 0.40465 0.70282 0.07951 0.0
H922 H 0.43394 0.67112 0.22093 0.0
H923 H 0.43996 0.69986 0.27861 0.0
H924 H 0.42952 0.68341 0.02697 0.0
H925 H 0.39406 0.63459 0.18561 0.0
H926 H 0.39554 0.65938 0.20256 0.0
H927 H 0.41415 0.6436 0.22568 0.0
C928 C 0.41585 0.71859 0.15614 0.0
C929 C 0.42618 0.71805 0.21186 0.0
C930 C 0.41194 0.702 0.12376 0.0
C931 C 0.41856 0.68465 0.14613 0.0
C932 C 0.42806 0.68412 0.20351 0.0
H933 H 0.47981 0.6034 0.95914 0.0
H934 H 0.46482 0.63098 0.00445 0.0
C935 C 0.43163 0.70062 0.23641 0.0
C936 C 0.41863 0.66779 0.10535 0.0
H937 H 0.4166 0.61996 0.1119 0.0
C938 C 0.42615 0.6696 0.04506 0.0
C939 C 0.41384 0.64969 0.12763 0.0
C940 C 0.40374 0.64679 0.18868 0.0
C941 C 0.43063 0.65379 0.00916 0.0
C942 C 0.42821 0.6357 0.03512 0.0
C943 C 0.419 0.63384 0.09267 0.0
C944 C 0.43692 0.61886 0.00652 0.0
C945 C 0.43846 0.65673 0.94449 0.0
C946 C 0.42641 0.60253 0.99511 0.0
C947 C 0.43508 0.58656 0.97019 0.0
C948 C 0.45437 0.58675 0.95615 0.0
C949 C 0.46485 0.60302 0.9683 0.0
C950 C 0.45626 0.61883 0.99381 0.0
H951 H 0.43257 0.66965 0.92302 0.0
H952 H 0.45391 0.65858 0.94744 0.0
H953 H 0.43539 0.64462 0.9135 0.0
H954 H 0.41151 0.60218 0.00528 0.0
H955 H 0.42671 0.57416 0.96121 0.0
H956 H 0.80599 0.43779 0.27271 0.0
H957 H 0.8345 0.4311 0.21388 0.0
H958 H 0.80118 0.41217 0.05817 0.0
H959 H 0.77242 0.41913 0.1168 0.0
H960 H 0.8503 0.40045 0.15406 0.0
H961 H 0.82989 0.45632 0.98525 0.0
H962 H 0.81749 0.45273 0.05755 0.0
H963 H 0.81373 0.43711 0.99292 0.0
C964 C 0.8047 0.43174 0.22658 0.0
C965 C 0.78697 0.42912 0.19913 0.0
C966 C 0.82102 0.42797 0.19291 0.0
C967 C 0.81994 0.42149 0.13127 0.0
C968 C 0.80229 0.41756 0.10523 0.0
H969 H 0.91481 0.4305 0.87227 0.0
H970 H 0.8853 0.41878 0.91607 0.0
C971 C 0.78591 0.42149 0.13875 0.0
C972 C 0.83728 0.4207 0.09323 0.0
H973 H 0.85969 0.44308 0.9738 0.0
C974 C 0.85229 0.40955 0.11402 0.0
C975 C 0.83982 0.43261 0.04103 0.0
C976 C 0.82447 0.4455 0.01795 0.0
C977 C 0.86999 0.41053 0.08545 0.0
C978 C 0.87272 0.42308 0.03525 0.0
C979 C 0.85748 0.43344 0.01226 0.0
C980 C 0.89159 0.42744 0.01041 0.0
C981 C 0.88574 0.3985 0.11012 0.0
C982 C 0.90491 0.43607 0.04911 0.0
C983 C 0.92163 0.44301 0.0242 0.0
C984 C 0.92533 0.44151 0.95997 0.0
C985 C 0.91227 0.43215 0.92176 0.0
C986 C 0.89549 0.42529 0.94672 0.0
H987 H 0.88028 0.38584 0.13438 0.0
H988 H 0.89528 0.39398 0.07199 0.0
H989 H 0.89405 0.40674 0.14427 0.0
H990 H 0.90197 0.4383 0.09812 0.0
H991 H 0.93119 0.4504 0.05482 0.0
H992 H 1.00156 0.22775 0.82456 0.0
H993 H 0.99769 0.19598 0.78246 0.0
H994 H 0.01602 0.17261 0.95751 0.0
H995 H 0.02021 0.20414 0.99959 0.0
H996 H 0.02549 0.16825 0.76971 0.0
H997 H 0.96795 0.14307 0.92222 0.0
H998 H 0.97378 0.16764 0.91457 0.0
H999 H 0.9875 0.15265 0.96435 0.0
C1000 C 0.00469 0.21586 0.85427 0.0
C1001 C 0.01108 0.21862 0.91578 0.0
C1002 C 1.00242 0.19769 0.83013 0.0
C1003 C 0.00632 0.18187 0.86703 0.0
C1004 C 0.01249 0.18455 0.92854 0.0
H1005 H 0.01314 0.06161 0.82883 0.0
H1006 H 0.01316 0.09441 0.86149 0.0
C1007 C 0.01481 0.20267 0.95265 0.0
C1008 C 0.00487 0.16256 0.84058 0.0
H1009 H 0.98422 0.11977 0.86342 0.0
C1010 C 0.01632 0.15769 0.78971 0.0
C1011 C 0.99293 0.14876 0.86676 0.0
C1012 C 0.9797 0.15329 0.91961 0.0
C1013 C 0.01667 0.13927 0.76584 0.0
C1014 C 0.00496 0.12538 0.79276 0.0
C1015 C 0.99324 0.13037 0.84284 0.0
C1016 C 0.00512 0.10543 0.77141 0.0
C1017 C 0.03011 0.13469 0.7136 0.0
C1018 C 1.00049 0.10058 0.70977 0.0
C1019 C 1.00053 0.08172 0.69066 0.0
C1020 C 0.00507 0.06729 0.73296 0.0
C1021 C 0.00959 0.07225 0.79474 0.0
C1022 C 0.00958 0.09106 0.81367 0.0
H1023 H 0.04127 0.14549 0.70888 0.0
H1024 H 0.03685 0.12081 0.72116 0.0
H1025 H 0.02226 0.13412 0.66897 0.0
H1026 H 0.99661 0.11135 0.67654 0.0
H1027 H 0.99685 0.07848 0.64287 0.0
H1028 H 0.294 0.99163 0.94065 0.0
H1029 H 0.3263 0.98679 0.90371 0.0
H1030 H 0.32937 0.04511 0.84994 0.0
H1031 H 0.29701 0.04969 0.88402 0.0
H1032 H 0.34419 0.02529 0.76331 0.0
H1033 H 0.37421 1.00029 0.98644 0.0
H1034 H 0.35543 0.98564 0.95949 0.0
H1035 H 0.35076 0.00965 0.98098 0.0
C1036 C 0.30163 0.00336 0.92082 0.0
C1037 C 0.29294 0.02099 0.9148 0.0
C1038 C 0.32016 1.00065 0.90024 0.0
C1039 C 0.33054 0.01567 0.87496 0.0
C1040 C 0.32177 0.03326 0.86908 0.0
H1041 H 0.4523 0.0191 0.83123 0.0
H1042 H 0.41975 0.02207 0.86673 0.0
C1043 C 0.30322 0.03586 0.88846 0.0
C1044 C 0.35033 0.0132 0.85309 0.0
H1045 H 0.39393 0.99808 0.89731 0.0
C1046 C 0.35506 0.01939 0.79284 0.0
C1047 C 0.3647 0.00579 0.89167 0.0
C1048 C 0.36109 1.00015 0.95843 0.0
C1049 C 0.37357 0.01845 0.7702 0.0
C1050 C 0.38778 0.01031 0.80777 0.0
C1051 C 0.38308 0.00414 0.86808 0.0
C1052 C 0.40763 0.00842 0.78596 0.0
C1053 C 0.37771 0.02683 0.70701 0.0
C1054 C 0.41184 0.99955 0.72907 0.0
C1055 C 0.43041 0.99822 0.70808 0.0
C1056 C 0.44531 0.00523 0.7443 0.0
C1057 C 0.44117 0.01359 0.80211 0.0
C1058 C 0.42254 0.01526 0.82252 0.0
H1059 H 0.36718 0.03768 0.69415 0.0
H1060 H 0.39186 0.03335 0.70564 0.0
H1061 H 0.37708 0.01562 0.67115 0.0
H1062 H 0.40077 0.99355 0.70086 0.0
H1063 H 0.43311 0.9914 0.66382 0.0
H1064 H 0.46079 0.29258 0.88217 0.0
H1065 H 0.46518 0.32467 0.84512 0.0
H1066 H 0.52353 0.32238 0.89848 0.0
H1067 H 0.51892 0.29034 0.93818 0.0
H1068 H 0.50976 0.35476 0.9306 0.0
H1069 H 0.48782 0.34239 0.68731 0.0
H1070 H 0.46955 0.33575 0.74029 0.0
H1071 H 0.49166 0.32338 0.74131 0.0
C1072 C 0.47463 0.29882 0.88525 0.0
C1073 C 0.48959 0.28881 0.91224 0.0
C1074 C 0.47716 0.31719 0.86374 0.0
C1075 C 0.49482 0.3259 0.86718 0.0
C1076 C 0.50978 0.31598 0.89468 0.0
H1077 H 0.5165 0.42977 0.66158 0.0
H1078 H 0.51535 0.39731 0.69807 0.0
C1079 C 0.50717 0.29766 0.91728 0.0
C1080 C 0.49742 0.34556 0.84417 0.0
H1081 H 0.48853 0.37452 0.72049 0.0
C1082 C 0.50529 0.35902 0.88439 0.0
C1083 C 0.49194 0.35121 0.78343 0.0
C1084 C 0.48498 0.33736 0.73544 0.0
C1085 C 0.50739 0.37791 0.86629 0.0
C1086 C 0.50078 0.38379 0.80703 0.0
C1087 C 0.49334 0.37023 0.7663 0.0
C1088 C 0.50168 0.40378 0.78571 0.0
C1089 C 0.51708 0.39122 0.91058 0.0
C1090 C 0.4942 0.41841 0.82215 0.0
C1091 C 0.49517 0.4371 0.80181 0.0
C1092 C 0.50317 0.44156 0.74369 0.0
C1093 C 0.51019 0.42687 0.70651 0.0
C1094 C 0.50955 0.40825 0.7274 0.0
H1095 H 0.52665 0.38358 0.94272 0.0
H1096 H 0.52537 0.40196 0.8851 0.0
H1097 H 0.50639 0.39846 0.93952 0.0
H1098 H 0.48744 0.4154 0.86624 0.0
H1099 H 0.48942 0.44804 0.83129 0.0
H1100 H 0.20126 0.4864 0.02003 0.0
H1101 H 0.16937 0.49018 0.98033 0.0
H1102 H 0.19126 0.51186 0.80737 0.0
H1103 H 0.22333 0.50845 0.84707 0.0
H1104 H 0.14992 0.52247 0.93356 0.0
H1105 H 0.15819 0.46684 0.75381 0.0
H1106 H 0.1744 0.46957 0.81785 0.0
H1107 H 0.17553 0.48516 0.75213 0.0
C1108 C 0.19937 0.49236 0.97401 0.0
C1109 C 0.21499 0.49712 0.93682 0.0
C1110 C 0.18108 0.49437 0.95121 0.0
C1111 C 0.17792 0.50102 0.89055 0.0
C1112 C 0.19338 0.50635 0.8539 0.0
H1113 H 0.07654 0.5116 0.66556 0.0
H1114 H 0.10872 0.51156 0.70497 0.0
C1115 C 0.21171 0.5044 0.87673 0.0
C1116 C 0.15847 0.50198 0.86549 0.0
H1117 H 0.12944 0.48331 0.75479 0.0
C1118 C 0.14542 0.51392 0.89447 0.0
C1119 C 0.15262 0.49082 0.81447 0.0
C1120 C 0.16583 0.47724 0.7829 0.0
C1121 C 0.12676 0.51517 0.87334 0.0
C1122 C 0.12084 0.50384 0.82273 0.0
C1123 C 0.13394 0.49199 0.79355 0.0
C1124 C 0.10113 0.50399 0.79936 0.0
C1125 C 0.11369 0.52893 0.90465 0.0
C1126 C 0.08607 0.49948 0.83898 0.0
C1127 C 0.06759 0.49957 0.81668 0.0
C1128 C 0.06374 0.50398 0.75397 0.0
C1129 C 0.0789 0.50818 0.71416 0.0
C1130 C 0.09736 0.50816 0.73659 0.0
H1131 H 0.12156 0.54018 0.92929 0.0
H1132 H 0.10408 0.53557 0.87036 0.0
H1133 H 0.10507 0.52139 0.93973 0.0
H1134 H 0.08862 0.49572 0.88717 0.0
H1135 H 0.05633 0.49611 0.84861 0.0
H1136 H 0.97784 0.79409 0.46733 0.0
H1137 H 0.97484 0.82653 0.50484 0.0
H1138 H 0.03516 0.83209 0.50438 0.0
H1139 H 0.03817 0.79961 0.46949 0.0
H1140 H 0.02203 0.84756 0.60446 0.0
H1141 H 0.97956 0.87347 0.40597 0.0
H1142 H 0.96837 0.85465 0.44728 0.0
H1143 H 0.99006 0.85044 0.40637 0.0
C1144 C 0.99042 0.80227 0.47537 0.0
C1145 C 0.00824 0.79426 0.4657 0.0
C1146 C 0.98871 0.82088 0.49635 0.0
C1147 C 0.00477 0.83201 0.5064 0.0
C1148 C 0.02254 0.8239 0.49712 0.0
H1149 H 0.00848 0.95386 0.52041 0.0
H1150 H 0.00888 0.92059 0.49205 0.0
C1151 C 0.02425 0.80527 0.47727 0.0
C1152 C 0.00331 0.85203 0.52705 0.0
H1153 H 0.98398 0.89456 0.49011 0.0
C1154 C 0.01372 0.85783 0.5793 0.0
C1155 C 0.99269 0.8656 0.49394 0.0
C1156 C 0.9822 0.8608 0.43493 0.0
C1157 C 0.01399 0.87669 0.59899 0.0
C1158 C 0.00291 0.89016 0.56701 0.0
C1159 C 0.99238 0.88432 0.51506 0.0
C1160 C 1.00257 0.91046 0.58498 0.0
C1161 C 0.02675 0.88198 0.65238 0.0
C1162 C 0.99867 0.91606 0.64654 0.0
C1163 C 0.99886 0.9351 0.66311 0.0
C1164 C 1.00239 0.94904 0.61812 0.0
C1165 C 0.00569 0.94349 0.55617 0.0
C1166 C 0.0059 0.92443 0.53991 0.0
H1167 H 0.03837 0.87171 0.65803 0.0
H1168 H 0.03296 0.89613 0.64548 0.0
H1169 H 0.01857 0.88204 0.69642 0.0
H1170 H 0.99538 0.90573 0.68192 0.0
H1171 H 0.99598 0.9389 0.71105 0.0
H1172 H 0.71752 0.97606 0.48968 0.0
H1173 H 0.68547 0.9737 0.5305 0.0
H1174 H 0.66498 0.00579 0.37426 0.0
H1175 H 0.69692 0.00867 0.33413 0.0
H1176 H 0.65277 0.0194 0.48872 0.0
H1177 H 0.64031 0.94262 0.47062 0.0
H1178 H 0.66148 0.94908 0.51082 0.0
H1179 H 0.65905 0.95432 0.42928 0.0
C1180 C 0.70618 0.98249 0.46373 0.0
C1181 C 0.70985 0.99248 0.4084 0.0
C1182 C 0.68783 0.98099 0.48687 0.0
C1183 C 0.67277 0.98941 0.45512 0.0
C1184 C 0.67635 0.99907 0.39935 0.0
H1185 H 0.55258 0.97993 0.51756 0.0
H1186 H 0.58463 0.97852 0.47687 0.0
C1187 C 0.69464 1.00055 0.37615 0.0
C1188 C 0.65348 0.98925 0.48179 0.0
H1189 H 0.61736 0.96042 0.5251 0.0
C1190 C 0.64503 0.0065 0.49662 0.0
C1191 C 0.64332 0.97242 0.49161 0.0
C1192 C 0.65139 0.95354 0.47431 0.0
C1193 C 0.62679 0.0074 0.52145 0.0
C1194 C 0.61677 0.99056 0.53255 0.0
C1195 C 0.62513 0.9733 0.51712 0.0
C1196 C 0.59745 0.99069 0.55882 0.0
C1197 C 0.61824 0.02639 0.53451 0.0
C1198 C 0.59402 0.99771 0.61892 0.0
C1199 C 0.5757 0.99855 0.64248 0.0
C1200 C 0.56038 0.99234 0.6064 0.0
C1201 C 0.56396 0.98492 0.54668 0.0
C1202 C 0.5823 0.98405 0.52328 0.0
H1203 H 0.6259 0.03784 0.51018 0.0
H1204 H 0.60329 0.02677 0.51993 0.0
H1205 H 0.61885 0.02921 0.58535 0.0
H1206 H 0.60553 1.00264 0.64757 0.0
H1207 H 0.57357 0.00427 0.6887 0.0
H1208 H 0.4948 0.694 0.33946 0.0
H1209 H 0.49832 0.66202 0.37919 0.0
H1210 H 0.52874 0.68307 0.53814 0.0
H1211 H 0.52557 0.7152 0.49815 0.0
H1212 H 0.54404 0.64885 0.48102 0.0
H1213 H 0.46786 0.64415 0.53478 0.0
H1214 H 0.47348 0.65114 0.45641 0.0
H1215 H 0.47955 0.66623 0.52038 0.0
C1216 C 0.50262 0.69185 0.38215 0.0
C1217 C 0.50989 0.70723 0.41562 0.0
C1218 C 0.50443 0.67354 0.40515 0.0
C1219 C 0.51354 0.67019 0.46207 0.0
C1220 C 0.52156 0.68536 0.49429 0.0
H1221 H 0.50289 0.56996 0.69226 0.0
H1222 H 0.50411 0.60213 0.65261 0.0
C1223 C 0.51967 0.70372 0.47147 0.0
C1224 C 0.514 0.65096 0.48909 0.0
H1225 H 0.48571 0.61637 0.54716 0.0
C1226 C 0.53131 0.64174 0.49559 0.0
C1227 C 0.4974 0.64181 0.50885 0.0
C1228 C 0.47851 0.65134 0.50537 0.0
C1229 C 0.5324 0.62343 0.52016 0.0
C1230 C 0.51572 0.61408 0.53828 0.0
C1231 C 0.49847 0.62348 0.53289 0.0
C1232 C 0.5158 0.59454 0.56298 0.0
C1233 C 0.55141 0.61434 0.52728 0.0
C1234 C 0.52187 0.57951 0.5257 0.0
C1235 C 0.52116 0.56105 0.54815 0.0
C1236 C 0.51431 0.55719 0.60843 0.0
C1237 C 0.50832 0.57233 0.64573 0.0
C1238 C 0.50897 0.59077 0.62312 0.0
H1239 H 0.56292 0.62486 0.52614 0.0
H1240 H 0.55229 0.60636 0.57167 0.0
H1241 H 0.55366 0.60435 0.48827 0.0
H1242 H 0.52685 0.58202 0.47871 0.0
H1243 H 0.52584 0.54981 0.51789 0.0
H1244 H 0.78772 0.52084 0.52657 0.0
H1245 H 0.81944 0.52478 0.5686 0.0
H1246 H 0.84291 0.50508 0.39543 0.0
H1247 H 0.8114 0.50034 0.35371 0.0
H1248 H 0.84746 0.49226 0.57109 0.0
H1249 H 0.87187 0.55572 0.44341 0.0
H1250 H 0.84729 0.55092 0.45721 0.0
H1251 H 0.85985 0.53799 0.39881 0.0
C1252 C 0.79959 0.51737 0.4972 0.0
C1253 C 0.79685 0.5102 0.4366 0.0
C1254 C 0.81772 0.51974 0.52128 0.0
C1255 C 0.8335 0.51531 0.485 0.0
C1256 C 0.83091 0.50881 0.4239 0.0
H1257 H 0.95391 0.5119 0.52773 0.0
H1258 H 0.92144 0.51336 0.49174 0.0
C1259 C 0.81281 0.50624 0.39998 0.0
C1260 C 0.85264 0.51615 0.51224 0.0
H1261 H 0.89456 0.53922 0.50241 0.0
C1262 C 0.85775 0.50261 0.55662 0.0
C1263 C 0.86602 0.52954 0.49267 0.0
C1264 C 0.86107 0.54449 0.44567 0.0
C1265 C 0.87609 0.50177 0.58075 0.0
C1266 C 0.88955 0.51523 0.56138 0.0
C1267 C 0.88429 0.52893 0.51749 0.0
C1268 C 0.90933 0.5149 0.58417 0.0
C1269 C 0.88101 0.48596 0.62472 0.0
C1270 C 0.91348 0.5156 0.64821 0.0
C1271 C 0.93209 0.51454 0.66908 0.0
C1272 C 0.947 0.51312 0.62626 0.0
C1273 C 0.94283 0.513 0.56211 0.0
C1274 C 0.92422 0.51385 0.54138 0.0
H1275 H 0.87098 0.47408 0.62068 0.0
H1276 H 0.89539 0.48059 0.61565 0.0
H1277 H 0.88041 0.49119 0.67341 0.0
H1278 H 0.90231 0.51694 0.68219 0.0
H1279 H 0.93478 0.51485 0.71877 0.0
loop_
_geom_bond_atom_site_label_1
_geom_bond_atom_site_label_2
_geom_bond_distance
_geom_bond_site_symmetry_2
_ccdc_geom_bond_type
P0 O11 1.490 . S
P0 C14 1.812 . S
P0 C20 1.803 . S
P0 C26 1.819 . S
H1 C15 0.941 . S
H2 C16 0.939 . S
H3 C18 0.940 . S
H4 C19 0.940 . S
H5 C21 0.939 . S
H6 C22 0.942 . S
H7 C24 0.940 . S
H8 C25 0.939 . S
H9 C27 0.941 . S
H10 C31 0.939 . S
O11 P0 1.490 . S
H12 C28 0.939 . S
H13 C30 0.940 . S
C14 P0 1.812 . S
C14 C15 1.389 . S
C14 C19 1.391 . S
C15 H1 0.941 . S
C15 C14 1.389 . S
C15 C16 1.397 . S
C16 H2 0.939 . S
C16 C15 1.397 . S
C16 C17 1.378 . S
C17 C16 1.378 . S
C17 C18 1.378 . S
C18 H3 0.940 . S
C18 C17 1.378 . S
C18 C19 1.396 . S
C19 H4 0.940 . S
C19 C14 1.391 . S
C19 C18 1.396 . S
C20 P0 1.803 . S
C20 C21 1.378 . S
C20 C25 1.400 . S
C21 H5 0.939 . S
C21 C20 1.378 . S
C21 C22 1.361 . S
C22 H6 0.942 . S
C22 C21 1.361 . S
C22 C23 1.369 . S
C23 C22 1.369 . S
C23 C24 1.404 . S
C24 H7 0.940 . S
C24 C23 1.404 . S
C24 C25 1.389 . S
C25 H8 0.939 . S
C25 C20 1.400 . S
C25 C24 1.389 . S
C26 P0 1.819 . S
C26 C27 1.391 . S
C26 C31 1.391 . S
C27 H9 0.941 . S
C27 C26 1.391 . S
C27 C28 1.396 . S
C28 H12 0.939 . S
C28 C27 1.396 . S
C28 C29 1.397 . S
C29 C28 1.397 . S
C29 C30 1.385 . S
C30 H13 0.940 . S
C30 C29 1.385 . S
C30 C31 1.388 . S
C31 H10 0.939 . S
C31 C26 1.391 . S
C31 C30 1.388 . S
P32 O43 1.490 . S
P32 C46 1.812 . S
P32 C52 1.803 . S
P32 C58 1.819 . S
H33 C47 0.941 . S
H34 C48 0.939 . S
H35 C50 0.940 . S
H36 C51 0.963 . S
H37 C53 0.939 . S
H38 C54 0.942 . S
H39 C56 0.940 . S
H40 C57 0.972 . S
H41 C59 0.941 . S
H42 C63 0.922 1_655 S
O43 P32 1.490 . S
H44 C60 0.939 . S
H45 C62 0.940 . S
C46 P32 1.812 . S
C46 C47 1.389 . S
C46 C51 1.356 1_455 S
C47 H33 0.941 . S
C47 C46 1.389 . S
C47 C48 1.397 . S
C48 H34 0.939 . S
C48 C47 1.397 . S
C48 C49 1.378 . S
C49 C48 1.378 . S
C49 C50 1.378 1_455 S
C50 H35 0.940 . S
C50 C49 1.378 1_655 S
C50 C51 1.410 . S
C51 H36 0.963 . S
C51 C46 1.356 1_655 S
C51 C50 1.410 . S
C52 P32 1.803 . S
C52 C53 1.378 . S
C52 C57 1.349 1_455 S
C53 H37 0.939 . S
C53 C52 1.378 . S
C53 C54 1.361 . S
C54 H38 0.942 . S
C54 C53 1.361 . S
C54 C55 1.369 . S
C55 C54 1.369 . S
C55 C56 1.404 1_455 S
C56 H39 0.940 . S
C56 C55 1.404 1_655 S
C56 C57 1.410 . S
C57 H40 0.972 . S
C57 C52 1.349 1_655 S
C57 C56 1.410 . S
C58 P32 1.819 . S
C58 C59 1.391 . S
C58 C63 1.391 . S
C59 H41 0.941 . S
C59 C58 1.391 . S
C59 C60 1.396 . S
C60 H44 0.939 . S
C60 C59 1.396 . S
C60 C61 1.397 . S
C61 C60 1.397 . S
C61 C62 1.385 1_455 S
C62 H45 0.940 . S
C62 C61 1.385 1_655 S
C62 C63 1.388 1_655 S
C63 H42 0.922 1_455 S
C63 C58 1.391 . S
C63 C62 1.388 1_455 S
P64 O75 1.490 . S
P64 C78 1.812 . S
P64 C84 1.803 . S
P64 C90 1.819 . S
H65 C79 0.941 . S
H66 C80 0.939 . S
H67 C82 0.940 . S
H68 C83 0.959 . S
H69 C85 0.939 . S
H70 C86 0.942 . S
H71 C88 0.940 . S
H72 C89 0.969 . S
H73 C91 0.941 . S
H74 C95 0.924 1_565 S
O75 P64 1.490 . S
H76 C92 0.939 . S
H77 C94 0.940 . S
C78 P64 1.812 . S
C78 C79 1.389 . S
C78 C83 1.361 1_545 S
C79 H65 0.941 . S
C79 C78 1.389 . S
C79 C80 1.397 . S
C80 H66 0.939 . S
C80 C79 1.397 . S
C80 C81 1.378 . S
C81 C80 1.378 . S
C81 C82 1.378 1_545 S
C82 H67 0.940 . S
C82 C81 1.378 1_565 S
C82 C83 1.408 . S
C83 H68 0.959 . S
C83 C78 1.361 1_565 S
C83 C82 1.408 . S
C84 P64 1.803 . S
C84 C85 1.378 . S
C84 C89 1.354 1_545 S
C85 H69 0.939 . S
C85 C84 1.378 . S
C85 C86 1.361 . S
C86 H70 0.942 . S
C86 C85 1.361 . S
C86 C87 1.369 . S
C87 C86 1.369 . S
C87 C88 1.404 1_545 S
C88 H71 0.940 . S
C88 C87 1.404 1_565 S
C88 C89 1.408 . S
C89 H72 0.969 . S
C89 C84 1.354 1_565 S
C89 C88 1.408 . S
C90 P64 1.819 . S
C90 C91 1.391 . S
C90 C95 1.391 . S
C91 H73 0.941 . S
C91 C90 1.391 . S
C91 C92 1.396 . S
C92 H76 0.939 . S
C92 C91 1.396 . S
C92 C93 1.397 . S
C93 C92 1.397 . S
C93 C94 1.385 1_545 S
C94 H77 0.940 . S
C94 C93 1.385 1_565 S
C94 C95 1.388 1_565 S
C95 H74 0.924 1_545 S
C95 C90 1.391 . S
C95 C94 1.388 1_545 S
P96 O107 1.490 . S
P96 C110 1.812 . S
P96 C116 1.803 . S
P96 C122 1.819 . S
H97 C111 0.941 . S
H98 C112 0.939 . S
H99 C114 0.940 . S
H100 C115 0.940 . S
H101 C117 0.939 . S
H102 C118 0.942 . S
H103 C120 0.940 . S
H104 C121 0.939 . S
H105 C123 0.941 . S
H106 C127 0.939 . S
O107 P96 1.490 . S
H108 C124 0.939 . S
H109 C126 0.940 . S
C110 P96 1.812 . S
C110 C111 1.389 . S
C110 C115 1.391 . S
C111 H97 0.941 . S
C111 C110 1.389 . S
C111 C112 1.397 . S
C112 H98 0.939 . S
C112 C111 1.397 . S
C112 C113 1.378 . S
C113 C112 1.378 . S
C113 C114 1.378 . S
C114 H99 0.940 . S
C114 C113 1.378 . S
C114 C115 1.396 . S
C115 H100 0.940 . S
C115 C110 1.391 . S
C115 C114 1.396 . S
C116 P96 1.803 . S
C116 C117 1.378 . S
C116 C121 1.400 . S
C117 H101 0.939 . S
C117 C116 1.378 . S
C117 C118 1.361 . S
C118 H102 0.942 . S
C118 C117 1.361 . S
C118 C119 1.369 . S
C119 C118 1.369 . S
C119 C120 1.404 . S
C120 H103 0.940 . S
C120 C119 1.404 . S
C120 C121 1.389 . S
C121 H104 0.939 . S
C121 C116 1.400 . S
C121 C120 1.389 . S
C122 P96 1.819 . S
C122 C123 1.391 . S
C122 C127 1.391 . S
C123 H105 0.941 . S
C123 C122 1.391 . S
C123 C124 1.396 . S
C124 H108 0.939 . S
C124 C123 1.396 . S
C124 C125 1.397 . S
C125 C124 1.397 . S
C125 C126 1.385 . S
C126 H109 0.940 . S
C126 C125 1.385 . S
C126 C127 1.388 . S
C127 H106 0.939 . S
C127 C122 1.391 . S
C127 C126 1.388 . S
P128 O139 1.490 . S
P128 C142 1.812 1_554 S
P128 C148 1.803 . S
P128 C154 1.819 . S
H129 C143 0.941 . S
H130 C144 0.939 . S
H131 C146 0.940 . S
H132 C147 0.940 . S
H133 C149 0.939 . S
H134 C150 0.942 . S
H135 C152 0.940 . S
H136 C153 0.939 . S
H137 C155 0.941 . S
H138 C159 0.939 . S
O139 P128 1.490 . S
H140 C156 0.939 . S
H141 C158 0.940 . S
C142 P128 1.812 1_556 S
C142 C143 1.389 . S
C142 C147 1.391 . S
C143 H129 0.941 . S
C143 C142 1.389 . S
C143 C144 1.397 . S
C144 H130 0.939 . S
C144 C143 1.397 . S
C144 C145 1.378 . S
C145 C144 1.378 . S
C145 C146 1.378 . S
C146 H131 0.940 . S
C146 C145 1.378 . S
C146 C147 1.396 . S
C147 H132 0.940 . S
C147 C142 1.391 . S
C147 C146 1.396 . S
C148 P128 1.803 . S
C148 C149 1.378 . S
C148 C153 1.400 . S
C149 H133 0.939 . S
C149 C148 1.378 . S
C149 C150 1.361 . S
C150 H134 0.942 . S
C150 C149 1.361 . S
C150 C151 1.369 . S
C151 C150 1.369 . S
C151 C152 1.404 . S
C152 H135 0.940 . S
C152 C151 1.404 . S
C152 C153 1.389 . S
C153 H136 0.939 . S
C153 C148 1.400 . S
C153 C152 1.389 . S
C154 P128 1.819 . S
C154 C155 1.391 . S
C154 C159 1.391 . S
C155 H137 0.941 . S
C155 C154 1.391 . S
C155 C156 1.396 . S
C156 H140 0.939 . S
C156 C155 1.396 . S
C156 C157 1.397 . S
C157 C156 1.397 . S
C157 C158 1.385 . S
C158 H141 0.940 . S
C158 C157 1.385 . S
C158 C159 1.388 . S
C159 H138 0.939 . S
C159 C154 1.391 . S
C159 C158 1.388 . S
P160 O171 1.490 . S
P160 C174 1.812 1_554 S
P160 C180 1.803 . S
P160 C186 1.819 . S
H161 C175 0.941 . S
H162 C176 0.939 . S
H163 C178 0.940 . S
H164 C179 0.933 1_655 S
H165 C181 0.939 . S
H166 C182 0.942 . S
H167 C184 0.940 . S
H168 C185 0.942 1_655 S
H169 C187 0.941 . S
H170 C191 0.939 . S
O171 P160 1.490 . S
H172 C188 0.939 . S
H173 C190 0.940 . S
C174 P160 1.812 1_556 S
C174 C175 1.389 . S
C174 C179 1.402 . S
C175 H161 0.941 . S
C175 C174 1.389 . S
C175 C176 1.397 . S
C176 H162 0.939 . S
C176 C175 1.397 . S
C176 C177 1.378 . S
C177 C176 1.378 . S
C177 C178 1.378 1_455 S
C178 H163 0.940 . S
C178 C177 1.378 1_655 S
C178 C179 1.392 1_655 S
C179 H164 0.933 1_455 S
C179 C174 1.402 . S
C179 C178 1.392 1_455 S
C180 P160 1.803 . S
C180 C181 1.378 . S
C180 C185 1.396 . S
C181 H165 0.939 . S
C181 C180 1.378 . S
C181 C182 1.361 . S
C182 H166 0.942 . S
C182 C181 1.361 . S
C182 C183 1.369 . S
C183 C182 1.369 . S
C183 C184 1.404 1_455 S
C184 H167 0.940 . S
C184 C183 1.404 1_655 S
C184 C185 1.391 1_655 S
C185 H168 0.942 1_455 S
C185 C180 1.396 . S
C185 C184 1.391 1_455 S
C186 P160 1.819 . S
C186 C187 1.391 . S
C186 C191 1.391 . S
C187 H169 0.941 . S
C187 C186 1.391 . S
C187 C188 1.396 . S
C188 H172 0.939 . S
C188 C187 1.396 . S
C188 C189 1.397 . S
C189 C188 1.397 . S
C189 C190 1.385 1_455 S
C190 H173 0.940 . S
C190 C189 1.385 1_655 S
C190 C191 1.388 1_655 S
C191 H170 0.939 . S
C191 C186 1.391 . S
C191 C190 1.388 1_455 S
P192 O203 1.490 . S
P192 C206 1.812 1_554 S
P192 C212 1.803 . S
P192 C218 1.819 . S
H193 C207 0.941 . S
H194 C208 0.939 . S
H195 C210 0.940 . S
H196 C211 0.938 1_565 S
H197 C213 0.939 . S
H198 C214 0.942 . S
H199 C216 0.940 . S
H200 C217 0.939 . S
H201 C219 0.941 . S
H202 C223 0.941 1_565 S
O203 P192 1.490 . S
H204 C220 0.939 . S
H205 C222 0.940 . S
C206 P192 1.812 1_556 S
C206 C207 1.389 . S
C206 C211 1.394 . S
C207 H193 0.941 . S
C207 C206 1.389 . S
C207 C208 1.397 . S
C208 H194 0.939 . S
C208 C207 1.397 . S
C208 C209 1.378 . S
C209 C208 1.378 . S
C209 C210 1.378 1_545 S
C210 H195 0.940 . S
C210 C209 1.378 1_565 S
C210 C211 1.395 1_565 S
C211 H196 0.938 1_545 S
C211 C206 1.394 . S
C211 C210 1.395 1_545 S
C212 P192 1.803 . S
C212 C213 1.378 . S
C212 C217 1.401 1_545 S
C213 H197 0.939 . S
C213 C212 1.378 . S
C213 C214 1.361 . S
C214 H198 0.942 . S
C214 C213 1.361 . S
C214 C215 1.369 . S
C215 C214 1.369 . S
C215 C216 1.404 1_545 S
C216 H199 0.940 . S
C216 C215 1.404 1_565 S
C216 C217 1.389 . S
C217 H200 0.939 . S
C217 C212 1.401 1_565 S
C217 C216 1.389 . S
C218 P192 1.819 . S
C218 C219 1.391 . S
C218 C223 1.391 . S
C219 H201 0.941 . S
C219 C218 1.391 . S
C219 C220 1.396 . S
C220 H204 0.939 . S
C220 C219 1.396 . S
C220 C221 1.397 . S
C221 C220 1.397 . S
C221 C222 1.385 1_545 S
C222 H205 0.940 . S
C222 C221 1.385 1_565 S
C222 C223 1.388 1_565 S
C223 H202 0.941 1_545 S
C223 C218 1.391 . S
C223 C222 1.388 1_545 S
P224 O235 1.490 . S
P224 C238 1.812 1_554 S
P224 C244 1.803 . S
P224 C250 1.819 . S
H225 C239 0.941 . S
H226 C240 0.939 . S
H227 C242 0.940 . S
H228 C243 0.940 . S
H229 C245 0.939 . S
H230 C246 0.942 . S
H231 C248 0.940 . S
H232 C249 0.939 . S
H233 C251 0.941 . S
H234 C255 0.939 . S
O235 P224 1.490 . S
H236 C252 0.939 . S
H237 C254 0.940 . S
C238 P224 1.812 1_556 S
C238 C239 1.389 . S
C238 C243 1.391 . S
C239 H225 0.941 . S
C239 C238 1.389 . S
C239 C240 1.397 . S
C240 H226 0.939 . S
C240 C239 1.397 . S
C240 C241 1.378 . S
C241 C240 1.378 . S
C241 C242 1.378 . S
C242 H227 0.940 . S
C242 C241 1.378 . S
C242 C243 1.396 . S
C243 H228 0.940 . S
C243 C238 1.391 . S
C243 C242 1.396 . S
C244 P224 1.803 . S
C244 C245 1.378 . S
C244 C249 1.400 . S
C245 H229 0.939 . S
C245 C244 1.378 . S
C245 C246 1.361 . S
C246 H230 0.942 . S
C246 C245 1.361 . S
C246 C247 1.369 . S
C247 C246 1.369 . S
C247 C248 1.404 . S
C248 H231 0.940 . S
C248 C247 1.404 . S
C248 C249 1.389 . S
C249 H232 0.939 . S
C249 C244 1.400 . S
C249 C248 1.389 . S
C250 P224 1.819 . S
C250 C251 1.391 . S
C250 C255 1.391 . S
C251 H233 0.941 . S
C251 C250 1.391 . S
C251 C252 1.396 . S
C252 H236 0.939 . S
C252 C251 1.396 . S
C252 C253 1.397 . S
C253 C252 1.397 . S
C253 C254 1.385 . S
C254 H237 0.940 . S
C254 C253 1.385 . S
C254 C255 1.388 . S
C255 H234 0.939 . S
C255 C250 1.391 . S
C255 C254 1.388 . S
Pr256 C258 2.880 . S
Pr256 O276 2.562 . S
Pr256 O277 2.490 . S
Pr256 O278 2.695 1_565 S
Pr256 O279 2.512 . S
Pr256 O281 2.437 . S
Pr256 O284 2.436 1_455 S
Pr256 O286 2.438 1_565 S
Pr257 C267 2.880 . S
Pr257 O278 2.436 1_655 S
Pr257 O280 2.438 1_545 S
Pr257 O282 2.562 . S
Pr257 O283 2.490 . S
Pr257 O284 2.695 1_545 S
Pr257 O285 2.512 . S
Pr257 O287 2.437 . S
C258 Pr256 2.880 . S
C258 C259 1.491 . S
C258 O276 1.254 . S
C258 O277 1.225 . S
C259 C258 1.491 . S
C259 C260 1.392 . S
C259 C264 1.356 . S
C260 C259 1.392 . S
C260 C261 1.368 . S
C260 H288 0.929 . S
C261 C260 1.368 . S
C261 C262 1.386 . S
C261 H289 0.929 . S
C262 C261 1.386 . S
C262 C263 1.373 . S
C263 C262 1.373 . S
C263 C264 1.409 . S
C263 H290 0.931 1_455 S
C264 C259 1.356 . S
C264 C263 1.409 . S
C264 H291 0.930 1_455 S
C265 O278 1.254 1_565 S
C265 O279 1.276 . S
C266 O280 1.267 . S
C266 O281 1.278 1_655 S
C267 Pr257 2.880 . S
C267 C268 1.491 . S
C267 O282 1.254 . S
C267 O283 1.225 . S
C268 C267 1.491 . S
C268 C269 1.392 . S
C268 C273 1.356 . S
C269 C268 1.392 . S
C269 C270 1.368 . S
C269 H292 0.929 . S
C270 C269 1.368 . S
C270 C271 1.386 . S
C270 H293 0.929 . S
C271 C270 1.386 . S
C271 C272 1.373 . S
C272 C271 1.373 . S
C272 C273 1.409 . S
C272 H294 0.931 1_655 S
C273 C268 1.356 . S
C273 C272 1.409 . S
C273 H295 0.930 1_655 S
C274 O284 1.270 1_545 S
C274 O285 1.248 . S
C275 O286 1.267 . S
C275 O287 1.278 1_455 S
O276 Pr256 2.562 . S
O276 C258 1.254 . S
O277 Pr256 2.490 . S
O277 C258 1.225 . S
O278 Pr256 2.695 1_545 S
O278 Pr257 2.436 1_455 S
O278 C265 1.254 1_545 S
O279 Pr256 2.512 . S
O279 C265 1.276 . S
O280 Pr257 2.438 1_565 S
O280 C266 1.267 . S
O281 Pr256 2.437 . S
O281 C266 1.278 1_455 S
O282 Pr257 2.562 . S
O282 C267 1.254 . S
O283 Pr257 2.490 . S
O283 C267 1.225 . S
O284 Pr256 2.436 1_655 S
O284 Pr257 2.695 1_565 S
O284 C274 1.270 1_565 S
O285 Pr257 2.512 . S
O285 C274 1.248 . S
O286 Pr256 2.438 1_545 S
O286 C275 1.267 . S
O287 Pr257 2.437 . S
O287 C275 1.278 1_655 S
H288 C260 0.929 . S
H289 C261 0.929 . S
H290 C263 0.931 1_655 S
H291 C264 0.930 1_655 S
H292 C269 0.929 . S
H293 C270 0.929 . S
H294 C272 0.931 1_455 S
H295 C273 0.930 1_455 S
Pr296 C298 2.880 . S
Pr296 O316 2.562 . S
Pr296 O317 2.490 . S
Pr296 O318 2.695 . S
Pr296 O319 2.512 . S
Pr296 O321 2.437 . S
Pr296 O324 2.436 1_545 S
Pr296 O326 2.438 . S
Pr297 C307 2.880 . S
Pr297 O318 2.436 1_565 S
Pr297 O320 2.438 . S
Pr297 O322 2.562 . S
Pr297 O323 2.490 . S
Pr297 O324 2.695 . S
Pr297 O325 2.512 . S
Pr297 O327 2.437 . S
C298 Pr296 2.880 . S
C298 C299 1.491 . S
C298 O316 1.254 . S
C298 O317 1.225 . S
C299 C298 1.491 . S
C299 C300 1.392 . S
C299 C304 1.356 . S
C300 C299 1.392 . S
C300 C301 1.368 . S
C300 H328 0.929 . S
C301 C300 1.368 . S
C301 C302 1.386 . S
C301 H329 0.929 . S
C302 C301 1.386 . S
C302 C303 1.373 . S
C303 C302 1.373 . S
C303 C304 1.409 . S
C303 H330 0.931 1_545 S
C304 C299 1.356 . S
C304 C303 1.409 . S
C304 H331 0.930 1_545 S
C305 O318 1.270 . S
C305 O319 1.248 . S
C306 O320 1.267 . S
C306 O321 1.278 1_565 S
C307 Pr297 2.880 . S
C307 C308 1.491 . S
C307 O322 1.254 . S
C307 O323 1.225 . S
C308 C307 1.491 . S
C308 C309 1.392 . S
C308 C313 1.356 . S
C309 C308 1.392 . S
C309 C310 1.368 . S
C309 H332 0.929 . S
C310 C309 1.368 . S
C310 C311 1.386 . S
C310 H333 0.929 . S
C311 C310 1.386 . S
C311 C312 1.373 . S
C312 C311 1.373 . S
C312 C313 1.409 . S
C312 H334 0.931 1_565 S
C313 C308 1.356 . S
C313 C312 1.409 . S
C313 H335 0.930 1_565 S
C314 O324 1.270 . S
C314 O325 1.248 . S
C315 O326 1.267 . S
C315 O327 1.278 1_545 S
O316 Pr296 2.562 . S
O316 C298 1.254 . S
O317 Pr296 2.490 . S
O317 C298 1.225 . S
O318 Pr296 2.695 . S
O318 Pr297 2.436 1_545 S
O318 C305 1.270 . S
O319 Pr296 2.512 . S
O319 C305 1.248 . S
O320 Pr297 2.438 . S
O320 C306 1.267 . S
O321 Pr296 2.437 . S
O321 C306 1.278 1_545 S
O322 Pr297 2.562 . S
O322 C307 1.254 . S
O323 Pr297 2.490 . S
O323 C307 1.225 . S
O324 Pr296 2.436 1_565 S
O324 Pr297 2.695 . S
O324 C314 1.270 . S
O325 Pr297 2.512 . S
O325 C314 1.248 . S
O326 Pr296 2.438 . S
O326 C315 1.267 . S
O327 Pr297 2.437 . S
O327 C315 1.278 1_565 S
H328 C300 0.929 . S
H329 C301 0.929 . S
H330 C303 0.931 1_565 S
H331 C304 0.930 1_565 S
H332 C309 0.929 . S
H333 C310 0.929 . S
H334 C312 0.931 1_545 S
H335 C313 0.930 1_545 S
Pr336 C338 2.880 . S
Pr336 O356 2.562 . S
Pr336 O357 2.490 . S
Pr336 O358 2.695 . S
Pr336 O359 2.512 . S
Pr336 O361 2.437 . S
Pr336 O364 2.436 . S
Pr336 O366 2.438 . S
Pr337 C347 2.880 . S
Pr337 O358 2.436 . S
Pr337 O360 2.438 . S
Pr337 O362 2.562 . S
Pr337 O363 2.490 . S
Pr337 O364 2.695 . S
Pr337 O365 2.512 . S
Pr337 O367 2.437 . S
C338 Pr336 2.880 . S
C338 C339 1.491 . S
C338 O356 1.254 . S
C338 O357 1.225 . S
C339 C338 1.491 . S
C339 C340 1.392 . S
C339 C344 1.356 . S
C340 C339 1.392 . S
C340 C341 1.368 . S
C340 H368 0.929 . S
C341 C340 1.368 . S
C341 C342 1.386 . S
C341 H369 0.929 . S
C342 C341 1.386 . S
C342 C343 1.373 . S
C343 C342 1.373 . S
C343 C344 1.409 . S
C343 H370 0.931 . S
C344 C339 1.356 . S
C344 C343 1.409 . S
C344 H371 0.930 . S
C345 O358 1.270 . S
C345 O359 1.248 . S
C346 O360 1.267 . S
C346 O361 1.278 . S
C347 Pr337 2.880 . S
C347 C348 1.491 . S
C347 O362 1.254 . S
C347 O363 1.225 . S
C348 C347 1.491 . S
C348 C349 1.392 . S
C348 C353 1.356 . S
C349 C348 1.392 . S
C349 C350 1.368 . S
C349 H372 0.929 . S
C350 C349 1.368 . S
C350 C351 1.386 . S
C350 H373 0.929 . S
C351 C350 1.386 . S
C351 C352 1.373 . S
C352 C351 1.373 . S
C352 C353 1.409 . S
C352 H374 0.931 . S
C353 C348 1.356 . S
C353 C352 1.409 . S
C353 H375 0.930 . S
C354 O364 1.270 . S
C354 O365 1.248 . S
C355 O366 1.267 . S
C355 O367 1.278 . S
O356 Pr336 2.562 . S
O356 C338 1.254 . S
O357 Pr336 2.490 . S
O357 C338 1.225 . S
O358 Pr336 2.695 . S
O358 Pr337 2.436 . S
O358 C345 1.270 . S
O359 Pr336 2.512 . S
O359 C345 1.248 . S
O360 Pr337 2.438 . S
O360 C346 1.267 . S
O361 Pr336 2.437 . S
O361 C346 1.278 . S
O362 Pr337 2.562 . S
O362 C347 1.254 . S
O363 Pr337 2.490 . S
O363 C347 1.225 . S
O364 Pr336 2.436 . S
O364 Pr337 2.695 . S
O364 C354 1.270 . S
O365 Pr337 2.512 . S
O365 C354 1.248 . S
O366 Pr336 2.438 . S
O366 C355 1.267 . S
O367 Pr337 2.437 . S
O367 C355 1.278 . S
H368 C340 0.929 . S
H369 C341 0.929 . S
H370 C343 0.931 . S
H371 C344 0.930 . S
H372 C349 0.929 . S
H373 C350 0.929 . S
H374 C352 0.931 . S
H375 C353 0.930 . S
Pr376 C378 2.880 . S
Pr376 O396 2.562 . S
Pr376 O397 2.490 . S
Pr376 O398 2.695 1_655 S
Pr376 O399 2.512 . S
Pr376 O401 2.437 . S
Pr376 O404 2.436 . S
Pr376 O406 2.438 1_655 S
Pr377 C387 2.880 . S
Pr377 O398 2.436 . S
Pr377 O400 2.438 1_455 S
Pr377 O402 2.562 . S
Pr377 O403 2.490 . S
Pr377 O404 2.695 1_455 S
Pr377 O405 2.512 . S
Pr377 O407 2.437 . S
C378 Pr376 2.880 . S
C378 C379 1.491 . S
C378 O396 1.254 . S
C378 O397 1.225 . S
C379 C378 1.491 . S
C379 C380 1.392 . S
C379 C384 1.356 . S
C380 C379 1.392 . S
C380 C381 1.368 . S
C380 H408 0.929 . S
C381 C380 1.368 . S
C381 C382 1.386 . S
C381 H409 0.929 . S
C382 C381 1.386 . S
C382 C383 1.373 . S
C383 C382 1.373 . S
C383 C384 1.409 . S
C383 H410 0.931 . S
C384 C379 1.356 . S
C384 C383 1.409 . S
C384 H411 0.930 . S
C385 O398 1.255 1_655 S
C385 O399 1.276 . S
C386 O400 1.267 . S
C386 O401 1.278 . S
C387 Pr377 2.880 . S
C387 C388 1.491 . S
C387 O402 1.254 . S
C387 O403 1.225 . S
C388 C387 1.491 . S
C388 C389 1.392 . S
C388 C393 1.356 . S
C389 C388 1.392 . S
C389 C390 1.368 . S
C389 H412 0.929 . S
C390 C389 1.368 . S
C390 C391 1.386 . S
C390 H413 0.929 . S
C391 C390 1.386 . S
C391 C392 1.373 . S
C392 C391 1.373 . S
C392 C393 1.409 . S
C392 H414 0.931 . S
C393 C388 1.356 . S
C393 C392 1.409 . S
C393 H415 0.930 . S
C394 O404 1.270 1_455 S
C394 O405 1.248 . S
C395 O406 1.267 . S
C395 O407 1.278 . S
O396 Pr376 2.562 . S
O396 C378 1.254 . S
O397 Pr376 2.490 . S
O397 C378 1.225 . S
O398 Pr376 2.695 1_455 S
O398 Pr377 2.436 . S
O398 C385 1.255 1_455 S
O399 Pr376 2.512 . S
O399 C385 1.276 . S
O400 Pr377 2.438 1_655 S
O400 C386 1.267 . S
O401 Pr376 2.437 . S
O401 C386 1.278 . S
O402 Pr377 2.562 . S
O402 C387 1.254 . S
O403 Pr377 2.490 . S
O403 C387 1.225 . S
O404 Pr376 2.436 . S
O404 Pr377 2.695 1_655 S
O404 C394 1.270 1_655 S
O405 Pr377 2.512 . S
O405 C394 1.248 . S
O406 Pr376 2.438 1_455 S
O406 C395 1.267 . S
O407 Pr377 2.437 . S
O407 C395 1.278 . S
H408 C380 0.929 . S
H409 C381 0.929 . S
H410 C383 0.931 . S
H411 C384 0.930 . S
H412 C389 0.929 . S
H413 C390 0.929 . S
H414 C392 0.931 . S
H415 C393 0.930 . S
H416 C424 0.929 . S
H417 C426 0.930 . S
H418 C428 0.930 . S
H419 C431 0.929 . S
H420 C434 0.930 . S
H421 C436 0.960 . S
H422 C436 0.960 . S
H423 C436 0.960 . S
C424 H416 0.929 . S
C424 C425 1.376 1_565 S
C424 C426 1.384 . S
C425 C424 1.376 1_545 S
C425 C431 1.391 . S
C426 H417 0.930 . S
C426 C424 1.384 . S
C426 C427 1.371 1_565 S
C427 C426 1.371 1_545 S
C427 C428 1.400 . S
C427 C432 1.489 . S
C428 H418 0.930 . S
C428 C427 1.400 . S
C428 C431 1.386 . S
H429 C445 0.930 . S
H430 C446 0.931 . S
C431 H419 0.929 . S
C431 C425 1.391 . S
C431 C428 1.386 . S
C432 C427 1.489 . S
C432 C434 1.420 . S
C432 C435 1.379 1_545 S
H433 C439 0.930 . S
C434 H420 0.930 . S
C434 C432 1.420 . S
C434 C437 1.403 . S
C435 C432 1.379 1_565 S
C435 C436 1.524 . S
C435 C439 1.400 . S
C436 H421 0.960 . S
C436 H422 0.960 . S
C436 H423 0.960 . S
C436 C435 1.524 . S
C437 C434 1.403 . S
C437 C438 1.392 . S
C437 C441 1.495 . S
C438 C437 1.392 . S
C438 C439 1.385 1_545 S
C438 C440 1.478 . S
C439 H433 0.930 . S
C439 C435 1.400 . S
C439 C438 1.385 1_565 S
C440 C438 1.478 . S
C440 C442 1.381 1_545 S
C440 C446 1.383 . S
C441 C437 1.495 . S
C441 H447 0.959 . S
C441 H448 0.961 . S
C441 H449 0.960 . S
C442 C440 1.381 1_565 S
C442 C443 1.394 . S
C442 H450 0.930 . S
C443 C442 1.394 . S
C443 C444 1.383 1_565 S
C443 H451 0.929 . S
C444 C443 1.383 1_545 S
C444 C445 1.377 . S
C445 H429 0.930 . S
C445 C444 1.377 . S
C445 C446 1.379 . S
C446 H430 0.931 . S
C446 C440 1.383 . S
C446 C445 1.379 . S
H447 C441 0.959 . S
H448 C441 0.961 . S
H449 C441 0.960 . S
H450 C442 0.930 . S
H451 C443 0.929 . S
H452 C460 0.929 . S
H453 C462 0.930 . S
H454 C464 0.930 . S
H455 C467 0.929 . S
H456 C470 0.930 . S
H457 C472 0.960 . S
H458 C472 0.960 . S
H459 C472 0.960 . S
C460 H452 0.929 . S
C460 C461 1.377 . S
C460 C462 1.384 . S
C461 C460 1.377 . S
C461 C467 1.390 . S
C462 H453 0.930 . S
C462 C460 1.384 . S
C462 C463 1.372 . S
C463 C462 1.372 . S
C463 C464 1.400 . S
C463 C468 1.490 . S
C464 H454 0.930 . S
C464 C463 1.400 . S
C464 C467 1.386 . S
H465 C481 0.930 . S
H466 C482 0.931 . S
C467 H455 0.929 . S
C467 C461 1.390 . S
C467 C464 1.386 . S
C468 C463 1.490 . S
C468 C470 1.395 . S
C468 C471 1.403 . S
H469 C475 0.930 . S
C470 H456 0.930 . S
C470 C468 1.395 . S
C470 C473 1.403 . S
C471 C468 1.403 . S
C471 C472 1.524 . S
C471 C475 1.400 . S
C472 H457 0.960 . S
C472 H458 0.960 . S
C472 H459 0.960 . S
C472 C471 1.524 . S
C473 C470 1.403 . S
C473 C474 1.392 . S
C473 C477 1.495 . S
C474 C473 1.392 . S
C474 C475 1.385 . S
C474 C476 1.478 . S
C475 H469 0.930 . S
C475 C471 1.400 . S
C475 C474 1.385 . S
C476 C474 1.478 . S
C476 C478 1.381 . S
C476 C482 1.383 . S
C477 C473 1.495 . S
C477 H483 0.959 . S
C477 H484 0.961 . S
C477 H485 0.960 . S
C478 C476 1.381 . S
C478 C479 1.394 . S
C478 H486 0.930 . S
C479 C478 1.394 . S
C479 C480 1.383 . S
C479 H487 0.929 . S
C480 C479 1.383 . S
C480 C481 1.377 . S
C481 H465 0.930 . S
C481 C480 1.377 . S
C481 C482 1.379 . S
C482 H466 0.931 . S
C482 C476 1.383 . S
C482 C481 1.379 . S
H483 C477 0.959 . S
H484 C477 0.961 . S
H485 C477 0.960 . S
H486 C478 0.930 . S
H487 C479 0.929 . S
H488 C496 0.929 . S
H489 C498 0.930 . S
H490 C500 0.930 . S
H491 C503 0.929 . S
H492 C506 0.930 . S
H493 C508 0.960 . S
H494 C508 0.960 . S
H495 C508 0.960 . S
C496 H488 0.929 . S
C496 C497 1.377 . S
C496 C498 1.384 . S
C497 C496 1.377 . S
C497 C503 1.390 . S
C498 H489 0.930 . S
C498 C496 1.384 . S
C498 C499 1.372 . S
C499 C498 1.372 . S
C499 C500 1.400 . S
C499 C504 1.490 . S
C500 H490 0.930 . S
C500 C499 1.400 . S
C500 C503 1.386 . S
H501 C517 0.930 . S
H502 C518 0.931 . S
C503 H491 0.929 . S
C503 C497 1.390 . S
C503 C500 1.386 . S
C504 C499 1.490 . S
C504 C506 1.395 . S
C504 C507 1.403 . S
H505 C511 0.930 . S
C506 H492 0.930 . S
C506 C504 1.395 . S
C506 C509 1.403 . S
C507 C504 1.403 . S
C507 C508 1.524 . S
C507 C511 1.400 . S
C508 H493 0.960 . S
C508 H494 0.960 . S
C508 H495 0.960 . S
C508 C507 1.524 . S
C509 C506 1.403 . S
C509 C510 1.392 . S
C509 C513 1.495 . S
C510 C509 1.392 . S
C510 C511 1.385 . S
C510 C512 1.478 . S
C511 H505 0.930 . S
C511 C507 1.400 . S
C511 C510 1.385 . S
C512 C510 1.478 . S
C512 C514 1.381 . S
C512 C518 1.383 . S
C513 C509 1.495 . S
C513 H519 0.959 . S
C513 H520 0.961 . S
C513 H521 0.960 . S
C514 C512 1.381 . S
C514 C515 1.394 . S
C514 H522 0.930 . S
C515 C514 1.394 . S
C515 C516 1.383 . S
C515 H523 0.929 . S
C516 C515 1.383 . S
C516 C517 1.377 . S
C517 H501 0.930 . S
C517 C516 1.377 . S
C517 C518 1.379 . S
C518 H502 0.931 . S
C518 C512 1.383 . S
C518 C517 1.379 . S
H519 C513 0.959 . S
H520 C513 0.961 . S
H521 C513 0.960 . S
H522 C514 0.930 . S
H523 C515 0.929 . S
H524 C532 0.929 . S
H525 C534 0.930 . S
H526 C536 0.930 . S
H527 C539 0.929 . S
H528 C542 0.930 . S
H529 C544 0.960 . S
H530 C544 0.960 . S
H531 C544 0.960 . S
C532 H524 0.929 . S
C532 C533 1.354 1_655 S
C532 C534 1.384 . S
C533 C532 1.354 1_455 S
C533 C539 1.413 . S
C534 H525 0.930 . S
C534 C532 1.384 . S
C534 C535 1.379 . S
C535 C534 1.379 . S
C535 C536 1.393 1_655 S
C535 C540 1.490 . S
C536 H526 0.930 . S
C536 C535 1.393 1_455 S
C536 C539 1.386 . S
H537 C553 0.930 . S
H538 C554 0.931 . S
C539 H527 0.929 . S
C539 C533 1.413 . S
C539 C536 1.386 . S
C540 C535 1.490 . S
C540 C542 1.411 . S
C540 C543 1.388 1_655 S
H541 C547 0.930 . S
C542 H528 0.930 . S
C542 C540 1.411 . S
C542 C545 1.403 . S
C543 C540 1.388 1_455 S
C543 C544 1.524 . S
C543 C547 1.400 . S
C544 H529 0.960 . S
C544 H530 0.960 . S
C544 H531 0.960 . S
C544 C543 1.524 . S
C545 C542 1.403 . S
C545 C546 1.392 . S
C545 C549 1.495 . S
C546 C545 1.392 . S
C546 C547 1.385 1_655 S
C546 C548 1.478 . S
C547 H541 0.930 . S
C547 C543 1.400 . S
C547 C546 1.385 1_455 S
C548 C546 1.478 . S
C548 C550 1.381 . S
C548 C554 1.383 1_655 S
C549 C545 1.495 . S
C549 H555 0.959 . S
C549 H556 0.961 . S
C549 H557 0.960 . S
C550 C548 1.381 . S
C550 C551 1.394 . S
C550 H558 0.930 . S
C551 C550 1.394 . S
C551 C552 1.356 1_655 S
C551 H559 0.929 . S
C552 C551 1.356 1_455 S
C552 C553 1.403 . S
C553 H537 0.930 . S
C553 C552 1.403 . S
C553 C554 1.379 . S
C554 H538 0.931 . S
C554 C548 1.383 1_455 S
C554 C553 1.379 . S
H555 C549 0.959 . S
H556 C549 0.961 . S
H557 C549 0.960 . S
H558 C550 0.930 . S
H559 C551 0.929 . S
H560 C568 0.929 . S
H561 C570 0.930 . S
H562 C572 0.930 . S
H563 C575 0.929 . S
H564 C578 0.930 . S
H565 C580 0.960 . S
H566 C580 0.960 1_554 S
H567 C580 0.960 1_554 S
C568 H560 0.929 . S
C568 C569 1.378 1_545 S
C568 C570 1.384 . S
C569 C568 1.378 1_565 S
C569 C575 1.389 . S
C570 H561 0.930 . S
C570 C568 1.384 . S
C570 C571 1.374 1_545 S
C571 C570 1.374 1_565 S
C571 C572 1.398 . S
C571 C576 1.489 . S
C572 H562 0.930 . S
C572 C571 1.398 . S
C572 C575 1.386 . S
H573 C589 0.930 . S
H574 C590 0.931 . S
C575 H563 0.929 . S
C575 C569 1.389 . S
C575 C572 1.386 . S
C576 C571 1.489 . S
C576 C578 1.415 . S
C576 C579 1.384 1_565 S
H577 C583 0.930 . S
C578 H564 0.930 . S
C578 C576 1.415 . S
C578 C581 1.403 . S
C579 C576 1.384 1_545 S
C579 C580 1.524 1_554 S
C579 C583 1.400 1_554 S
C580 H565 0.960 . S
C580 H566 0.960 1_556 S
C580 H567 0.960 1_556 S
C580 C579 1.524 1_556 S
C581 C578 1.403 . S
C581 C582 1.392 1_554 S
C581 C585 1.495 . S
C582 C581 1.392 1_556 S
C582 C583 1.385 1_565 S
C582 C584 1.478 . S
C583 H577 0.930 . S
C583 C579 1.400 1_556 S
C583 C582 1.385 1_545 S
C584 C582 1.478 . S
C584 C586 1.381 1_565 S
C584 C590 1.383 . S
C585 C581 1.495 . S
C585 H591 0.959 . S
C585 H592 0.961 1_554 S
C585 H593 0.960 . S
C586 C584 1.381 1_545 S
C586 C587 1.394 . S
C586 H594 0.930 . S
C587 C586 1.394 . S
C587 C588 1.383 1_545 S
C587 H595 0.929 . S
C588 C587 1.383 1_565 S
C588 C589 1.377 . S
C589 H573 0.930 . S
C589 C588 1.377 . S
C589 C590 1.379 . S
C590 H574 0.931 . S
C590 C584 1.383 . S
C590 C589 1.379 . S
H591 C585 0.959 . S
H592 C585 0.961 1_556 S
H593 C585 0.960 . S
H594 C586 0.930 . S
H595 C587 0.929 . S
H596 C604 0.929 . S
H597 C606 0.930 . S
H598 C608 0.930 . S
H599 C611 0.929 . S
H600 C614 0.930 1_554 S
H601 C616 0.960 . S
H602 C616 0.960 . S
H603 C616 0.960 . S
C604 H596 0.929 . S
C604 C605 1.377 . S
C604 C606 1.384 . S
C605 C604 1.377 . S
C605 C611 1.390 . S
C606 H597 0.930 . S
C606 C604 1.384 . S
C606 C607 1.372 . S
C607 C606 1.372 . S
C607 C608 1.400 . S
C607 C612 1.490 . S
C608 H598 0.930 . S
C608 C607 1.400 . S
C608 C611 1.386 . S
H609 C625 0.930 . S
H610 C626 0.931 . S
C611 H599 0.929 . S
C611 C605 1.390 . S
C611 C608 1.386 . S
C612 C607 1.490 . S
C612 C614 1.395 1_554 S
C612 C615 1.403 . S
H613 C619 0.930 . S
C614 H600 0.930 1_556 S
C614 C612 1.395 1_556 S
C614 C617 1.403 . S
C615 C612 1.403 . S
C615 C616 1.524 . S
C615 C619 1.400 1_554 S
C616 H601 0.960 . S
C616 H602 0.960 . S
C616 H603 0.960 . S
C616 C615 1.524 . S
C617 C614 1.403 . S
C617 C618 1.392 . S
C617 C621 1.495 . S
C618 C617 1.392 . S
C618 C619 1.385 . S
C618 C620 1.478 . S
C619 H613 0.930 . S
C619 C615 1.400 1_556 S
C619 C618 1.385 . S
C620 C618 1.478 . S
C620 C622 1.381 . S
C620 C626 1.383 . S
C621 C617 1.495 . S
C621 H627 0.959 . S
C621 H628 0.961 . S
C621 H629 0.960 . S
C622 C620 1.381 . S
C622 C623 1.394 . S
C622 H630 0.930 . S
C623 C622 1.394 . S
C623 C624 1.383 . S
C623 H631 0.929 . S
C624 C623 1.383 . S
C624 C625 1.377 . S
C625 H609 0.930 . S
C625 C624 1.377 . S
C625 C626 1.379 . S
C626 H610 0.931 . S
C626 C620 1.383 . S
C626 C625 1.379 . S
H627 C621 0.959 . S
H628 C621 0.961 . S
H629 C621 0.960 . S
H630 C622 0.930 . S
H631 C623 0.929 . S
H632 C640 0.929 . S
H633 C642 0.930 . S
H634 C644 0.930 . S
H635 C647 0.929 . S
H636 C650 0.930 . S
H637 C652 0.960 . S
H638 C652 0.960 . S
H639 C652 0.960 . S
C640 H632 0.929 . S
C640 C641 1.377 . S
C640 C642 1.384 . S
C641 C640 1.377 . S
C641 C647 1.390 . S
C642 H633 0.930 . S
C642 C640 1.384 . S
C642 C643 1.372 . S
C643 C642 1.372 . S
C643 C644 1.400 . S
C643 C648 1.490 . S
C644 H634 0.930 . S
C644 C643 1.400 . S
C644 C647 1.386 . S
H645 C661 0.930 . S
H646 C662 0.931 . S
C647 H635 0.929 . S
C647 C641 1.390 . S
C647 C644 1.386 . S
C648 C643 1.490 . S
C648 C650 1.395 . S
C648 C651 1.403 . S
H649 C655 0.930 . S
C650 H636 0.930 . S
C650 C648 1.395 . S
C650 C653 1.403 1_554 S
C651 C648 1.403 . S
C651 C652 1.524 . S
C651 C655 1.400 1_554 S
C652 H637 0.960 . S
C652 H638 0.960 . S
C652 H639 0.960 . S
C652 C651 1.524 . S
C653 C650 1.403 1_556 S
C653 C654 1.392 . S
C653 C657 1.495 . S
C654 C653 1.392 . S
C654 C655 1.385 . S
C654 C656 1.478 . S
C655 H649 0.930 . S
C655 C651 1.400 1_556 S
C655 C654 1.385 . S
C656 C654 1.478 . S
C656 C658 1.381 . S
C656 C662 1.383 . S
C657 C653 1.495 . S
C657 H663 0.959 . S
C657 H664 0.961 . S
C657 H665 0.960 . S
C658 C656 1.381 . S
C658 C659 1.394 . S
C658 H666 0.930 . S
C659 C658 1.394 . S
C659 C660 1.383 . S
C659 H667 0.929 . S
C660 C659 1.383 . S
C660 C661 1.377 . S
C661 H645 0.930 . S
C661 C660 1.377 . S
C661 C662 1.379 . S
C662 H646 0.931 . S
C662 C656 1.383 . S
C662 C661 1.379 . S
H663 C657 0.959 . S
H664 C657 0.961 . S
H665 C657 0.960 . S
H666 C658 0.930 . S
H667 C659 0.929 . S
H668 C676 0.929 . S
H669 C678 0.930 . S
H670 C680 0.930 . S
H671 C683 0.929 . S
H672 C686 0.930 . S
H673 C688 0.960 . S
H674 C688 0.960 1_455 S
H675 C688 0.960 . S
C676 H668 0.929 . S
C676 C677 1.370 1_455 S
C676 C678 1.384 . S
C677 C676 1.370 1_655 S
C677 C683 1.397 . S
C678 H669 0.930 . S
C678 C676 1.384 . S
C678 C679 1.390 . S
C679 C678 1.390 . S
C679 C680 1.382 1_455 S
C679 C684 1.490 . S
C680 H670 0.930 . S
C680 C679 1.382 1_655 S
C680 C683 1.386 . S
H681 C697 0.930 . S
H682 C698 0.931 . S
C683 H671 0.929 . S
C683 C677 1.397 . S
C683 C680 1.386 . S
C684 C679 1.490 . S
C684 C686 1.399 . S
C684 C687 1.399 1_454 S
H685 C691 0.930 . S
C686 H672 0.930 . S
C686 C684 1.399 . S
C686 C689 1.403 . S
C687 C684 1.399 1_656 S
C687 C688 1.524 . S
C687 C691 1.400 . S
C688 H673 0.960 . S
C688 H674 0.960 1_655 S
C688 H675 0.960 . S
C688 C687 1.524 . S
C689 C686 1.403 . S
C689 C690 1.396 1_554 S
C689 C693 1.495 . S
C690 C689 1.396 1_556 S
C690 C691 1.382 1_455 S
C690 C692 1.477 1_455 S
C691 H685 0.930 . S
C691 C687 1.400 . S
C691 C690 1.382 1_655 S
C692 C690 1.477 1_655 S
C692 C694 1.375 1_655 S
C692 C698 1.389 . S
C693 C689 1.495 . S
C693 H699 0.959 . S
C693 H700 0.961 1_455 S
C693 H701 0.960 . S
C694 C692 1.375 1_455 S
C694 C695 1.394 . S
C694 H702 0.930 . S
C695 C694 1.394 . S
C695 C696 1.330 1_455 S
C695 H703 0.929 . S
C696 C695 1.330 1_655 S
C696 C697 1.430 . S
C697 H681 0.930 . S
C697 C696 1.430 . S
C697 C698 1.379 . S
C698 H682 0.931 . S
C698 C692 1.389 . S
C698 C697 1.379 . S
H699 C693 0.959 . S
H700 C693 0.961 1_655 S
H701 C693 0.960 . S
H702 C694 0.930 . S
H703 C695 0.929 . S
H704 C712 0.929 . S
H705 C714 0.930 . S
H706 C716 0.930 . S
H707 C719 0.929 . S
H708 C722 0.930 . S
H709 C724 0.960 . S
H710 C724 0.920 1_455 S
H711 C724 0.986 . S
C712 H704 0.929 . S
C712 C713 1.377 . S
C712 C714 1.384 . S
C713 C712 1.377 . S
C713 C719 1.390 1_455 S
C714 H705 0.930 . S
C714 C712 1.384 . S
C714 C715 1.372 1_455 S
C715 C714 1.372 1_655 S
C715 C716 1.400 . S
C715 C720 1.490 . S
C716 H706 0.930 . S
C716 C715 1.400 . S
C716 C719 1.386 . S
H717 C733 0.930 . S
H718 C734 0.931 . S
C719 H707 0.929 . S
C719 C713 1.390 1_655 S
C719 C716 1.386 . S
C720 C715 1.490 . S
C720 C722 1.395 . S
C720 C723 1.403 . S
H721 C727 0.930 . S
C722 H708 0.930 . S
C722 C720 1.395 . S
C722 C725 1.403 . S
C723 C720 1.403 . S
C723 C724 1.537 . S
C723 C727 1.400 . S
C724 H709 0.960 . S
C724 H710 0.920 1_655 S
C724 H711 0.986 . S
C724 C723 1.537 . S
C725 C722 1.403 . S
C725 C726 1.392 . S
C725 C729 1.495 . S
C726 C725 1.392 . S
C726 C727 1.385 . S
C726 C728 1.478 . S
C727 H721 0.930 . S
C727 C723 1.400 . S
C727 C726 1.385 . S
C728 C726 1.478 . S
C728 C730 1.381 . S
C728 C734 1.383 . S
C729 C725 1.495 . S
C729 H735 0.959 . S
C729 H736 0.961 . S
C729 H737 0.960 . S
C730 C728 1.381 . S
C730 C731 1.394 . S
C730 H738 0.943 . S
C731 C730 1.394 . S
C731 C732 1.383 . S
C731 H739 0.929 . S
C732 C731 1.383 . S
C732 C733 1.377 . S
C733 H717 0.930 . S
C733 C732 1.377 . S
C733 C734 1.379 . S
C734 H718 0.931 . S
C734 C728 1.383 . S
C734 C733 1.379 . S
H735 C729 0.959 . S
H736 C729 0.961 . S
H737 C729 0.960 . S
H738 C730 0.943 . S
H739 C731 0.929 . S
H740 C748 0.929 . S
H741 C750 0.930 . S
H742 C752 0.930 . S
H743 C755 0.929 . S
H744 C758 0.930 . S
H745 C760 0.960 . S
H746 C760 0.960 . S
H747 C760 0.960 . S
C748 H740 0.929 . S
C748 C749 1.377 . S
C748 C750 1.384 . S
C749 C748 1.377 . S
C749 C755 1.390 1_545 S
C750 H741 0.930 . S
C750 C748 1.384 . S
C750 C751 1.372 1_545 S
C751 C750 1.372 1_565 S
C751 C752 1.400 . S
C751 C756 1.490 . S
C752 H742 0.930 . S
C752 C751 1.400 . S
C752 C755 1.386 . S
H753 C769 0.930 . S
H754 C770 0.931 . S
C755 H743 0.929 . S
C755 C749 1.390 1_565 S
C755 C752 1.386 . S
C756 C751 1.490 . S
C756 C758 1.395 . S
C756 C759 1.403 . S
H757 C763 0.930 . S
C758 H744 0.930 . S
C758 C756 1.395 . S
C758 C761 1.403 . S
C759 C756 1.403 . S
C759 C760 1.524 1_565 S
C759 C763 1.400 . S
C760 H745 0.960 . S
C760 H746 0.960 . S
C760 H747 0.960 . S
C760 C759 1.524 1_545 S
C761 C758 1.403 . S
C761 C762 1.392 . S
C761 C765 1.495 . S
C762 C761 1.392 . S
C762 C763 1.385 . S
C762 C764 1.478 . S
C763 H757 0.930 . S
C763 C759 1.400 . S
C763 C762 1.385 . S
C764 C762 1.478 . S
C764 C766 1.381 . S
C764 C770 1.383 . S
C765 C761 1.495 . S
C765 H771 0.959 . S
C765 H772 0.961 . S
C765 H773 0.960 . S
C766 C764 1.381 . S
C766 C767 1.394 . S
C766 H774 0.930 . S
C767 C766 1.394 . S
C767 C768 1.383 . S
C767 H775 0.929 . S
C768 C767 1.383 . S
C768 C769 1.377 . S
C769 H753 0.930 . S
C769 C768 1.377 . S
C769 C770 1.379 . S
C770 H754 0.931 . S
C770 C764 1.383 . S
C770 C769 1.379 . S
H771 C765 0.959 . S
H772 C765 0.961 . S
H773 C765 0.960 . S
H774 C766 0.930 . S
H775 C767 0.929 . S
H776 C784 0.929 . S
H777 C786 0.930 . S
H778 C788 0.930 . S
H779 C791 0.929 . S
H780 C794 0.930 . S
H781 C796 0.960 . S
H782 C796 0.960 . S
H783 C796 0.960 . S
C784 H776 0.929 . S
C784 C785 1.377 . S
C784 C786 1.384 . S
C785 C784 1.377 . S
C785 C791 1.390 . S
C786 H777 0.930 . S
C786 C784 1.384 . S
C786 C787 1.372 . S
C787 C786 1.372 . S
C787 C788 1.400 . S
C787 C792 1.490 . S
C788 H778 0.930 . S
C788 C787 1.400 . S
C788 C791 1.386 . S
H789 C805 0.930 . S
H790 C806 0.931 . S
C791 H779 0.929 . S
C791 C785 1.390 . S
C791 C788 1.386 . S
C792 C787 1.490 . S
C792 C794 1.395 . S
C792 C795 1.403 . S
H793 C799 0.930 . S
C794 H780 0.930 . S
C794 C792 1.395 . S
C794 C797 1.403 . S
C795 C792 1.403 . S
C795 C796 1.524 . S
C795 C799 1.400 . S
C796 H781 0.960 . S
C796 H782 0.960 . S
C796 H783 0.960 . S
C796 C795 1.524 . S
C797 C794 1.403 . S
C797 C798 1.392 . S
C797 C801 1.495 . S
C798 C797 1.392 . S
C798 C799 1.385 . S
C798 C800 1.478 . S
C799 H793 0.930 . S
C799 C795 1.400 . S
C799 C798 1.385 . S
C800 C798 1.478 . S
C800 C802 1.381 . S
C800 C806 1.383 . S
C801 C797 1.495 . S
C801 H807 0.959 . S
C801 H808 0.961 . S
C801 H809 0.960 . S
C802 C800 1.381 . S
C802 C803 1.394 . S
C802 H810 0.930 . S
C803 C802 1.394 . S
C803 C804 1.383 . S
C803 H811 0.929 . S
C804 C803 1.383 . S
C804 C805 1.377 . S
C805 H789 0.930 . S
C805 C804 1.377 . S
C805 C806 1.379 . S
C806 H790 0.931 . S
C806 C800 1.383 . S
C806 C805 1.379 . S
H807 C801 0.959 . S
H808 C801 0.961 . S
H809 C801 0.960 . S
H810 C802 0.930 . S
H811 C803 0.929 . S
H812 C820 0.929 . S
H813 C822 0.930 . S
H814 C824 0.930 . S
H815 C827 0.929 . S
H816 C830 0.930 . S
H817 C832 0.960 . S
H818 C832 0.960 . S
H819 C832 0.960 . S
C820 H812 0.929 . S
C820 C821 1.377 . S
C820 C822 1.384 . S
C821 C820 1.377 . S
C821 C827 1.390 . S
C822 H813 0.930 . S
C822 C820 1.384 . S
C822 C823 1.372 . S
C823 C822 1.372 . S
C823 C824 1.400 . S
C823 C828 1.490 . S
C824 H814 0.930 . S
C824 C823 1.400 . S
C824 C827 1.386 . S
H825 C841 0.930 . S
H826 C842 0.931 . S
C827 H815 0.929 . S
C827 C821 1.390 . S
C827 C824 1.386 . S
C828 C823 1.490 . S
C828 C830 1.395 . S
C828 C831 1.403 . S
H829 C835 0.930 . S
C830 H816 0.930 . S
C830 C828 1.395 . S
C830 C833 1.403 . S
C831 C828 1.403 . S
C831 C832 1.524 . S
C831 C835 1.400 . S
C832 H817 0.960 . S
C832 H818 0.960 . S
C832 H819 0.960 . S
C832 C831 1.524 . S
C833 C830 1.403 . S
C833 C834 1.392 . S
C833 C837 1.495 . S
C834 C833 1.392 . S
C834 C835 1.385 . S
C834 C836 1.478 . S
C835 H829 0.930 . S
C835 C831 1.400 . S
C835 C834 1.385 . S
C836 C834 1.478 . S
C836 C838 1.381 . S
C836 C842 1.383 . S
C837 C833 1.495 . S
C837 H843 0.959 . S
C837 H844 0.961 . S
C837 H845 0.960 . S
C838 C836 1.381 . S
C838 C839 1.394 . S
C838 H846 0.930 . S
C839 C838 1.394 . S
C839 C840 1.383 . S
C839 H847 0.929 . S
C840 C839 1.383 . S
C840 C841 1.377 . S
C841 H825 0.930 . S
C841 C840 1.377 . S
C841 C842 1.379 . S
C842 H826 0.931 . S
C842 C836 1.383 . S
C842 C841 1.379 . S
H843 C837 0.959 . S
H844 C837 0.961 . S
H845 C837 0.960 . S
H846 C838 0.930 . S
H847 C839 0.929 . S
H848 C856 0.929 . S
H849 C858 0.930 . S
H850 C860 0.930 . S
H851 C863 0.929 . S
H852 C866 0.930 . S
H853 C868 0.960 . S
H854 C868 0.960 . S
H855 C868 0.960 1_554 S
C856 H848 0.929 . S
C856 C857 1.377 . S
C856 C858 1.384 . S
C857 C856 1.377 . S
C857 C863 1.390 1_655 S
C858 H849 0.930 . S
C858 C856 1.384 . S
C858 C859 1.372 1_655 S
C859 C858 1.372 1_455 S
C859 C860 1.400 . S
C859 C864 1.490 . S
C860 H850 0.930 . S
C860 C859 1.400 . S
C860 C863 1.386 . S
H861 C877 0.930 . S
H862 C878 0.931 . S
C863 H851 0.929 . S
C863 C857 1.390 1_455 S
C863 C860 1.386 . S
C864 C859 1.490 . S
C864 C866 1.395 1_455 S
C864 C867 1.403 . S
H865 C871 0.930 . S
C866 H852 0.930 . S
C866 C864 1.395 1_655 S
C866 C869 1.408 . S
C867 C864 1.403 . S
C867 C868 1.524 1_554 S
C867 C871 1.400 1_554 S
C868 H853 0.960 . S
C868 H854 0.960 . S
C868 H855 0.960 1_556 S
C868 C867 1.524 1_556 S
C869 C866 1.408 . S
C869 C870 1.371 1_654 S
C869 C873 1.513 . S
C870 C869 1.371 1_456 S
C870 C871 1.385 . S
C870 C872 1.478 . S
C871 H865 0.930 . S
C871 C867 1.400 1_556 S
C871 C870 1.385 . S
C872 C870 1.478 . S
C872 C874 1.381 . S
C872 C878 1.383 . S
C873 C869 1.513 . S
C873 H879 0.959 . S
C873 H880 0.961 . S
C873 H881 0.960 . S
C874 C872 1.381 . S
C874 C875 1.394 . S
C874 H882 0.930 1_455 S
C875 C874 1.394 . S
C875 C876 1.383 . S
C875 H883 0.929 . S
C876 C875 1.383 . S
C876 C877 1.377 . S
C877 H861 0.930 . S
C877 C876 1.377 . S
C877 C878 1.379 . S
C878 H862 0.931 . S
C878 C872 1.383 . S
C878 C877 1.379 . S
H879 C873 0.959 . S
H880 C873 0.961 . S
H881 C873 0.960 . S
H882 C874 0.930 1_655 S
H883 C875 0.929 . S
H884 C892 0.929 . S
H885 C894 0.930 . S
H886 C896 0.930 1_565 S
H887 C899 0.929 . S
H888 C902 0.958 . S
H889 C904 0.960 . S
H890 C904 0.960 . S
H891 C904 0.960 . S
C892 H884 0.929 . S
C892 C893 1.377 1_545 S
C892 C894 1.384 . S
C893 C892 1.377 1_565 S
C893 C899 1.390 . S
C894 H885 0.930 . S
C894 C892 1.384 . S
C894 C895 1.372 . S
C895 C894 1.372 . S
C895 C896 1.400 . S
C895 C900 1.490 . S
C896 H886 0.930 1_545 S
C896 C895 1.400 . S
C896 C899 1.386 1_545 S
H897 C913 0.930 . S
H898 C914 0.931 1_554 S
C899 H887 0.929 . S
C899 C893 1.390 . S
C899 C896 1.386 1_565 S
C900 C895 1.490 . S
C900 C902 1.373 1_544 S
C900 C903 1.403 . S
H901 C907 0.930 . S
C902 H888 0.958 . S
C902 C900 1.373 1_566 S
C902 C905 1.399 1_565 S
C903 C900 1.403 . S
C903 C904 1.524 . S
C903 C907 1.400 . S
C904 H889 0.960 . S
C904 H890 0.960 . S
C904 H891 0.960 . S
C904 C903 1.524 . S
C905 C902 1.399 1_545 S
C905 C906 1.392 . S
C905 C909 1.495 1_545 S
C906 C905 1.392 . S
C906 C907 1.385 1_556 S
C906 C908 1.478 . S
C907 H901 0.930 . S
C907 C903 1.400 . S
C907 C906 1.385 1_554 S
C908 C906 1.478 . S
C908 C910 1.381 . S
C908 C914 1.383 . S
C909 C905 1.495 1_565 S
C909 H915 0.959 . S
C909 H916 0.961 . S
C909 H917 0.960 . S
C910 C908 1.381 . S
C910 C911 1.394 . S
C910 H918 0.930 . S
C911 C910 1.394 . S
C911 C912 1.383 . S
C911 H919 0.929 . S
C912 C911 1.383 . S
C912 C913 1.377 . S
C913 H897 0.930 . S
C913 C912 1.377 . S
C913 C914 1.379 . S
C914 H898 0.931 1_556 S
C914 C908 1.383 . S
C914 C913 1.379 . S
H915 C909 0.959 . S
H916 C909 0.961 . S
H917 C909 0.960 . S
H918 C910 0.930 . S
H919 C911 0.929 . S
H920 C928 0.929 . S
H921 C930 0.930 . S
H922 C932 0.930 . S
H923 C935 0.929 . S
H924 C938 0.930 . S
H925 C940 0.960 . S
H926 C940 0.960 . S
H927 C940 0.960 . S
C928 H920 0.929 . S
C928 C929 1.377 . S
C928 C930 1.384 . S
C929 C928 1.377 . S
C929 C935 1.390 . S
C930 H921 0.930 . S
C930 C928 1.384 . S
C930 C931 1.372 . S
C931 C930 1.372 . S
C931 C932 1.400 . S
C931 C936 1.490 . S
C932 H922 0.930 . S
C932 C931 1.400 . S
C932 C935 1.386 . S
H933 C949 0.930 . S
H934 C950 0.931 . S
C935 H923 0.929 . S
C935 C929 1.390 . S
C935 C932 1.386 . S
C936 C931 1.490 . S
C936 C938 1.395 1_554 S
C936 C939 1.403 . S
H937 C943 0.930 . S
C938 H924 0.930 . S
C938 C936 1.395 1_556 S
C938 C941 1.403 . S
C939 C936 1.403 . S
C939 C940 1.524 . S
C939 C943 1.400 . S
C940 H925 0.960 . S
C940 H926 0.960 . S
C940 H927 0.960 . S
C940 C939 1.524 . S
C941 C938 1.403 . S
C941 C942 1.392 . S
C941 C945 1.495 . S
C942 C941 1.392 . S
C942 C943 1.385 1_556 S
C942 C944 1.478 . S
C943 H937 0.930 . S
C943 C939 1.400 . S
C943 C942 1.385 1_554 S
C944 C942 1.478 . S
C944 C946 1.381 . S
C944 C950 1.383 . S
C945 C941 1.495 . S
C945 H951 0.959 . S
C945 H952 0.961 . S
C945 H953 0.960 . S
C946 C944 1.381 . S
C946 C947 1.394 . S
C946 H954 0.930 . S
C947 C946 1.394 . S
C947 C948 1.383 . S
C947 H955 0.929 . S
C948 C947 1.383 . S
C948 C949 1.377 . S
C949 H933 0.930 . S
C949 C948 1.377 . S
C949 C950 1.379 . S
C950 H934 0.931 . S
C950 C944 1.383 . S
C950 C949 1.379 . S
H951 C945 0.959 . S
H952 C945 0.961 . S
H953 C945 0.960 . S
H954 C946 0.930 . S
H955 C947 0.929 . S
H956 C964 0.929 . S
H957 C966 0.930 . S
H958 C968 0.930 . S
H959 C971 0.929 . S
H960 C974 0.930 . S
H961 C976 0.960 . S
H962 C976 0.960 . S
H963 C976 0.960 . S
C964 H956 0.929 . S
C964 C965 1.377 . S
C964 C966 1.384 . S
C965 C964 1.377 . S
C965 C971 1.390 . S
C966 H957 0.930 . S
C966 C964 1.384 . S
C966 C967 1.372 . S
C967 C966 1.372 . S
C967 C968 1.400 . S
C967 C972 1.490 . S
C968 H958 0.930 . S
C968 C967 1.400 . S
C968 C971 1.386 . S
H969 C985 0.930 . S
H970 C986 0.931 . S
C971 H959 0.929 . S
C971 C965 1.390 . S
C971 C968 1.386 . S
C972 C967 1.490 . S
C972 C974 1.395 . S
C972 C975 1.403 . S
H973 C979 0.930 . S
C974 H960 0.930 . S
C974 C972 1.395 . S
C974 C977 1.403 . S
C975 C972 1.403 . S
C975 C976 1.524 . S
C975 C979 1.400 1_554 S
C976 H961 0.960 . S
C976 H962 0.960 . S
C976 H963 0.960 . S
C976 C975 1.524 . S
C977 C974 1.403 . S
C977 C978 1.392 1_554 S
C977 C981 1.495 . S
C978 C977 1.392 1_556 S
C978 C979 1.385 . S
C978 C980 1.478 . S
C979 H973 0.930 . S
C979 C975 1.400 1_556 S
C979 C978 1.385 . S
C980 C978 1.478 . S
C980 C982 1.381 . S
C980 C986 1.383 . S
C981 C977 1.495 . S
C981 H987 0.959 . S
C981 H988 0.961 1_554 S
C981 H989 0.960 . S
C982 C980 1.381 . S
C982 C983 1.394 . S
C982 H990 0.930 1_556 S
C983 C982 1.394 . S
C983 C984 1.383 . S
C983 H991 0.929 . S
C984 C983 1.383 . S
C984 C985 1.377 . S
C985 H969 0.930 . S
C985 C984 1.377 . S
C985 C986 1.379 . S
C986 H970 0.931 . S
C986 C980 1.383 . S
C986 C985 1.379 . S
H987 C981 0.959 . S
H988 C981 0.961 1_556 S
H989 C981 0.960 . S
H990 C982 0.930 1_554 S
H991 C983 0.929 . S
H992 C1000 0.929 . S
H993 C1002 0.930 . S
H994 C1004 0.930 . S
H995 C1007 0.929 . S
H996 C1010 0.930 . S
H997 C1012 0.960 . S
H998 C1012 0.960 . S
H999 C1012 0.960 . S
C1000 H992 0.929 . S
C1000 C1001 1.377 1_655 S
C1000 C1002 1.384 . S
C1001 C1000 1.377 1_455 S
C1001 C1007 1.390 . S
C1002 H993 0.930 . S
C1002 C1000 1.384 . S
C1002 C1003 1.372 1_655 S
C1003 C1002 1.372 1_455 S
C1003 C1004 1.400 . S
C1003 C1008 1.490 . S
C1004 H994 0.930 . S
C1004 C1003 1.400 . S
C1004 C1007 1.386 . S
H1005 C1021 0.930 . S
H1006 C1022 0.931 . S
C1007 H995 0.929 . S
C1007 C1001 1.390 . S
C1007 C1004 1.386 . S
C1008 C1003 1.490 . S
C1008 C1010 1.395 . S
C1008 C1011 1.403 1_455 S
H1009 C1015 0.930 . S
C1010 H996 0.930 . S
C1010 C1008 1.395 . S
C1010 C1013 1.403 . S
C1011 C1008 1.403 1_655 S
C1011 C1012 1.524 . S
C1011 C1015 1.400 . S
C1012 H997 0.960 . S
C1012 H998 0.960 . S
C1012 H999 0.960 . S
C1012 C1011 1.524 . S
C1013 C1010 1.403 . S
C1013 C1014 1.392 . S
C1013 C1017 1.495 . S
C1014 C1013 1.392 . S
C1014 C1015 1.385 1_455 S
C1014 C1016 1.478 . S
C1015 H1009 0.930 . S
C1015 C1011 1.400 . S
C1015 C1014 1.385 1_655 S
C1016 C1014 1.478 . S
C1016 C1018 1.381 . S
C1016 C1022 1.383 . S
C1017 C1013 1.495 . S
C1017 H1023 0.959 . S
C1017 H1024 0.961 . S
C1017 H1025 0.960 . S
C1018 C1016 1.381 . S
C1018 C1019 1.394 . S
C1018 H1026 0.930 1_455 S
C1019 C1018 1.394 . S
C1019 C1020 1.383 . S
C1019 H1027 0.929 1_455 S
C1020 C1019 1.383 . S
C1020 C1021 1.377 . S
C1021 H1005 0.930 . S
C1021 C1020 1.377 . S
C1021 C1022 1.379 . S
C1022 H1006 0.931 . S
C1022 C1016 1.383 . S
C1022 C1021 1.379 . S
H1023 C1017 0.959 . S
H1024 C1017 0.961 . S
H1025 C1017 0.960 . S
H1026 C1018 0.930 1_655 S
H1027 C1019 0.929 1_655 S
H1028 C1036 0.929 . S
H1029 C1038 0.930 . S
H1030 C1040 0.930 . S
H1031 C1043 0.929 . S
H1032 C1046 0.930 . S
H1033 C1048 0.960 . S
H1034 C1048 0.960 . S
H1035 C1048 0.960 . S
C1036 H1028 0.929 . S
C1036 C1037 1.377 1_565 S
C1036 C1038 1.384 . S
C1037 C1036 1.377 1_545 S
C1037 C1043 1.390 . S
C1038 H1029 0.930 . S
C1038 C1036 1.384 . S
C1038 C1039 1.372 1_565 S
C1039 C1038 1.372 1_545 S
C1039 C1040 1.400 . S
C1039 C1044 1.490 . S
C1040 H1030 0.930 . S
C1040 C1039 1.400 . S
C1040 C1043 1.386 . S
H1041 C1057 0.930 . S
H1042 C1058 0.931 . S
C1043 H1031 0.929 . S
C1043 C1037 1.390 . S
C1043 C1040 1.386 . S
C1044 C1039 1.490 . S
C1044 C1046 1.395 1_545 S
C1044 C1047 1.403 . S
H1045 C1051 0.930 . S
C1046 H1032 0.930 . S
C1046 C1044 1.395 1_565 S
C1046 C1049 1.403 . S
C1047 C1044 1.403 . S
C1047 C1048 1.524 . S
C1047 C1051 1.400 . S
C1048 H1033 0.960 . S
C1048 H1034 0.960 . S
C1048 H1035 0.960 . S
C1048 C1047 1.524 . S
C1049 C1046 1.403 . S
C1049 C1050 1.392 1_565 S
C1049 C1053 1.495 . S
C1050 C1049 1.392 1_545 S
C1050 C1051 1.385 . S
C1050 C1052 1.478 . S
C1051 H1045 0.930 . S
C1051 C1047 1.400 . S
C1051 C1050 1.385 . S
C1052 C1050 1.478 . S
C1052 C1054 1.381 1_545 S
C1052 C1058 1.383 . S
C1053 C1049 1.495 . S
C1053 H1059 0.959 . S
C1053 H1060 0.958 . S
C1053 H1061 0.960 . S
C1054 C1052 1.381 1_565 S
C1054 C1055 1.394 . S
C1054 H1062 0.930 . S
C1055 C1054 1.394 . S
C1055 C1056 1.383 1_565 S
C1055 H1063 0.929 . S
C1056 C1055 1.383 1_545 S
C1056 C1057 1.377 . S
C1057 H1041 0.930 . S
C1057 C1056 1.377 . S
C1057 C1058 1.379 . S
C1058 H1042 0.931 . S
C1058 C1052 1.383 . S
C1058 C1057 1.379 . S
H1059 C1053 0.959 . S
H1060 C1053 0.958 . S
H1061 C1053 0.960 . S
H1062 C1054 0.930 . S
H1063 C1055 0.929 . S
H1064 C1072 0.929 . S
H1065 C1074 0.930 . S
H1066 C1076 0.930 . S
H1067 C1079 0.929 . S
H1068 C1082 0.930 . S
H1069 C1084 0.960 . S
H1070 C1084 0.960 . S
H1071 C1084 0.960 . S
C1072 H1064 0.929 . S
C1072 C1073 1.377 . S
C1072 C1074 1.384 . S
C1073 C1072 1.377 . S
C1073 C1079 1.390 . S
C1074 H1065 0.930 . S
C1074 C1072 1.384 . S
C1074 C1075 1.372 . S
C1075 C1074 1.372 . S
C1075 C1076 1.400 . S
C1075 C1080 1.490 . S
C1076 H1066 0.930 . S
C1076 C1075 1.400 . S
C1076 C1079 1.386 . S
H1077 C1093 0.930 . S
H1078 C1094 0.931 . S
C1079 H1067 0.929 . S
C1079 C1073 1.390 . S
C1079 C1076 1.386 . S
C1080 C1075 1.490 . S
C1080 C1082 1.395 . S
C1080 C1083 1.403 . S
H1081 C1087 0.930 . S
C1082 H1068 0.930 . S
C1082 C1080 1.395 . S
C1082 C1085 1.403 . S
C1083 C1080 1.403 . S
C1083 C1084 1.524 . S
C1083 C1087 1.400 . S
C1084 H1069 0.960 . S
C1084 H1070 0.960 . S
C1084 H1071 0.960 . S
C1084 C1083 1.524 . S
C1085 C1082 1.403 . S
C1085 C1086 1.392 . S
C1085 C1089 1.495 . S
C1086 C1085 1.392 . S
C1086 C1087 1.385 . S
C1086 C1088 1.478 . S
C1087 H1081 0.930 . S
C1087 C1083 1.400 . S
C1087 C1086 1.385 . S
C1088 C1086 1.478 . S
C1088 C1090 1.381 . S
C1088 C1094 1.383 . S
C1089 C1085 1.495 . S
C1089 H1095 0.959 . S
C1089 H1096 0.961 . S
C1089 H1097 0.960 . S
C1090 C1088 1.381 . S
C1090 C1091 1.394 . S
C1090 H1098 0.930 . S
C1091 C1090 1.394 . S
C1091 C1092 1.383 . S
C1091 H1099 0.929 . S
C1092 C1091 1.383 . S
C1092 C1093 1.377 . S
C1093 H1077 0.930 . S
C1093 C1092 1.377 . S
C1093 C1094 1.379 . S
C1094 H1078 0.931 . S
C1094 C1088 1.383 . S
C1094 C1093 1.379 . S
H1095 C1089 0.959 . S
H1096 C1089 0.961 . S
H1097 C1089 0.960 . S
H1098 C1090 0.930 . S
H1099 C1091 0.929 . S
H1100 C1108 0.929 . S
H1101 C1110 0.930 . S
H1102 C1112 0.930 . S
H1103 C1115 0.929 . S
H1104 C1118 0.930 . S
H1105 C1120 0.960 . S
H1106 C1120 0.960 . S
H1107 C1120 0.960 . S
C1108 H1100 0.929 . S
C1108 C1109 1.377 . S
C1108 C1110 1.384 . S
C1109 C1108 1.377 . S
C1109 C1115 1.390 . S
C1110 H1101 0.930 . S
C1110 C1108 1.384 . S
C1110 C1111 1.372 . S
C1111 C1110 1.372 . S
C1111 C1112 1.400 . S
C1111 C1116 1.490 . S
C1112 H1102 0.930 . S
C1112 C1111 1.400 . S
C1112 C1115 1.386 . S
H1113 C1129 0.930 . S
H1114 C1130 0.931 . S
C1115 H1103 0.929 . S
C1115 C1109 1.390 . S
C1115 C1112 1.386 . S
C1116 C1111 1.490 . S
C1116 C1118 1.395 . S
C1116 C1119 1.403 . S
H1117 C1123 0.930 . S
C1118 H1104 0.930 . S
C1118 C1116 1.395 . S
C1118 C1121 1.403 . S
C1119 C1116 1.403 . S
C1119 C1120 1.524 . S
C1119 C1123 1.400 . S
C1120 H1105 0.960 . S
C1120 H1106 0.960 . S
C1120 H1107 0.960 . S
C1120 C1119 1.524 . S
C1121 C1118 1.403 . S
C1121 C1122 1.392 . S
C1121 C1125 1.495 . S
C1122 C1121 1.392 . S
C1122 C1123 1.385 . S
C1122 C1124 1.478 . S
C1123 H1117 0.930 . S
C1123 C1119 1.400 . S
C1123 C1122 1.385 . S
C1124 C1122 1.478 . S
C1124 C1126 1.381 . S
C1124 C1130 1.383 . S
C1125 C1121 1.495 . S
C1125 H1131 0.959 . S
C1125 H1132 0.961 . S
C1125 H1133 0.960 . S
C1126 C1124 1.381 . S
C1126 C1127 1.394 . S
C1126 H1134 0.930 . S
C1127 C1126 1.394 . S
C1127 C1128 1.383 . S
C1127 H1135 0.929 . S
C1128 C1127 1.383 . S
C1128 C1129 1.377 . S
C1129 H1113 0.930 . S
C1129 C1128 1.377 . S
C1129 C1130 1.379 . S
C1130 H1114 0.931 . S
C1130 C1124 1.383 . S
C1130 C1129 1.379 . S
H1131 C1125 0.959 . S
H1132 C1125 0.961 . S
H1133 C1125 0.960 . S
H1134 C1126 0.930 . S
H1135 C1127 0.929 . S
H1136 C1144 0.929 . S
H1137 C1146 0.930 . S
H1138 C1148 0.930 . S
H1139 C1151 0.929 . S
H1140 C1154 0.930 . S
H1141 C1156 0.960 . S
H1142 C1156 0.960 . S
H1143 C1156 0.960 1_455 S
C1144 H1136 0.929 . S
C1144 C1145 1.377 . S
C1144 C1146 1.384 . S
C1145 C1144 1.377 . S
C1145 C1151 1.390 1_655 S
C1146 H1137 0.930 . S
C1146 C1144 1.384 . S
C1146 C1147 1.372 . S
C1147 C1146 1.372 . S
C1147 C1148 1.400 1_655 S
C1147 C1152 1.490 . S
C1148 H1138 0.930 . S
C1148 C1147 1.400 1_455 S
C1148 C1151 1.386 . S
H1149 C1165 0.930 . S
H1150 C1166 0.931 . S
C1151 H1139 0.929 . S
C1151 C1145 1.390 1_455 S
C1151 C1148 1.386 . S
C1152 C1147 1.490 . S
C1152 C1154 1.395 . S
C1152 C1155 1.403 . S
H1153 C1159 0.930 . S
C1154 H1140 0.930 . S
C1154 C1152 1.395 . S
C1154 C1157 1.403 . S
C1155 C1152 1.403 . S
C1155 C1156 1.524 . S
C1155 C1159 1.400 . S
C1156 H1141 0.960 . S
C1156 H1142 0.960 . S
C1156 H1143 0.960 1_655 S
C1156 C1155 1.524 . S
C1157 C1154 1.403 . S
C1157 C1158 1.392 . S
C1157 C1161 1.495 . S
C1158 C1157 1.392 . S
C1158 C1159 1.385 . S
C1158 C1160 1.478 . S
C1159 H1153 0.930 . S
C1159 C1155 1.400 . S
C1159 C1158 1.385 . S
C1160 C1158 1.478 . S
C1160 C1162 1.381 . S
C1160 C1166 1.383 1_655 S
C1161 C1157 1.495 . S
C1161 H1167 0.959 . S
C1161 H1168 0.961 1_655 S
C1161 H1169 0.960 . S
C1162 C1160 1.381 . S
C1162 C1163 1.394 . S
C1162 H1170 0.930 . S
C1163 C1162 1.394 . S
C1163 C1164 1.383 . S
C1163 H1171 0.929 . S
C1164 C1163 1.383 . S
C1164 C1165 1.377 1_655 S
C1165 H1149 0.930 . S
C1165 C1164 1.377 1_455 S
C1165 C1166 1.379 . S
C1166 H1150 0.931 . S
C1166 C1160 1.383 1_455 S
C1166 C1165 1.379 . S
H1167 C1161 0.959 . S
H1168 C1161 0.961 1_455 S
H1169 C1161 0.960 . S
H1170 C1162 0.930 . S
H1171 C1163 0.929 . S
H1172 C1180 0.929 . S
H1173 C1182 0.930 . S
H1174 C1184 0.930 . S
H1175 C1187 0.929 . S
H1176 C1190 0.930 . S
H1177 C1192 0.960 . S
H1178 C1192 0.960 . S
H1179 C1192 0.960 . S
C1180 H1172 0.929 . S
C1180 C1181 1.377 . S
C1180 C1182 1.384 . S
C1181 C1180 1.377 . S
C1181 C1187 1.390 1_565 S
C1182 H1173 0.930 . S
C1182 C1180 1.384 . S
C1182 C1183 1.372 . S
C1183 C1182 1.372 . S
C1183 C1184 1.400 1_565 S
C1183 C1188 1.490 . S
C1184 H1174 0.930 . S
C1184 C1183 1.400 1_545 S
C1184 C1187 1.386 . S
H1185 C1201 0.930 . S
H1186 C1202 0.931 . S
C1187 H1175 0.929 . S
C1187 C1181 1.390 1_545 S
C1187 C1184 1.386 . S
C1188 C1183 1.490 . S
C1188 C1190 1.394 1_565 S
C1188 C1191 1.403 . S
H1189 C1195 0.930 . S
C1190 H1176 0.930 . S
C1190 C1188 1.394 1_545 S
C1190 C1193 1.403 1_545 S
C1191 C1188 1.403 . S
C1191 C1192 1.524 . S
C1191 C1195 1.400 . S
C1192 H1177 0.960 . S
C1192 H1178 0.960 . S
C1192 H1179 0.960 . S
C1192 C1191 1.524 . S
C1193 C1190 1.403 1_565 S
C1193 C1194 1.391 . S
C1193 C1197 1.497 1_565 S
C1194 C1193 1.391 . S
C1194 C1195 1.385 . S
C1194 C1196 1.478 . S
C1195 H1189 0.930 . S
C1195 C1191 1.400 . S
C1195 C1194 1.385 . S
C1196 C1194 1.478 . S
C1196 C1198 1.381 . S
C1196 C1202 1.383 1_565 S
C1197 C1193 1.497 1_545 S
C1197 H1203 0.959 . S
C1197 H1204 0.961 . S
C1197 H1205 0.960 1_545 S
C1198 C1196 1.381 . S
C1198 C1199 1.394 . S
C1198 H1206 0.930 . S
C1199 C1198 1.394 . S
C1199 C1200 1.383 . S
C1199 H1207 0.929 . S
C1200 C1199 1.383 . S
C1200 C1201 1.377 1_565 S
C1201 H1185 0.930 . S
C1201 C1200 1.377 1_545 S
C1201 C1202 1.379 . S
C1202 H1186 0.931 . S
C1202 C1196 1.383 1_545 S
C1202 C1201 1.379 . S
H1203 C1197 0.959 . S
H1204 C1197 0.961 . S
H1205 C1197 0.960 1_565 S
H1206 C1198 0.930 . S
H1207 C1199 0.929 . S
H1208 C1216 0.929 . S
H1209 C1218 0.930 . S
H1210 C1220 0.930 . S
H1211 C1223 0.929 . S
H1212 C1226 0.930 . S
H1213 C1228 0.960 . S
H1214 C1228 0.960 . S
H1215 C1228 0.960 . S
C1216 H1208 0.929 . S
C1216 C1217 1.377 . S
C1216 C1218 1.384 . S
C1217 C1216 1.377 . S
C1217 C1223 1.390 . S
C1218 H1209 0.930 . S
C1218 C1216 1.384 . S
C1218 C1219 1.372 . S
C1219 C1218 1.372 . S
C1219 C1220 1.400 . S
C1219 C1224 1.490 . S
C1220 H1210 0.930 . S
C1220 C1219 1.400 . S
C1220 C1223 1.386 . S
H1221 C1237 0.930 . S
H1222 C1238 0.931 . S
C1223 H1211 0.929 . S
C1223 C1217 1.390 . S
C1223 C1220 1.386 . S
C1224 C1219 1.490 . S
C1224 C1226 1.395 . S
C1224 C1227 1.403 . S
H1225 C1231 0.930 . S
C1226 H1212 0.930 . S
C1226 C1224 1.395 . S
C1226 C1229 1.403 . S
C1227 C1224 1.403 . S
C1227 C1228 1.524 . S
C1227 C1231 1.400 . S
C1228 H1213 0.960 . S
C1228 H1214 0.960 . S
C1228 H1215 0.960 . S
C1228 C1227 1.524 . S
C1229 C1226 1.403 . S
C1229 C1230 1.392 . S
C1229 C1233 1.495 . S
C1230 C1229 1.392 . S
C1230 C1231 1.385 . S
C1230 C1232 1.478 . S
C1231 H1225 0.930 . S
C1231 C1227 1.400 . S
C1231 C1230 1.385 . S
C1232 C1230 1.478 . S
C1232 C1234 1.381 . S
C1232 C1238 1.383 . S
C1233 C1229 1.495 . S
C1233 H1239 0.959 . S
C1233 H1240 0.961 . S
C1233 H1241 0.960 . S
C1234 C1232 1.381 . S
C1234 C1235 1.394 . S
C1234 H1242 0.930 . S
C1235 C1234 1.394 . S
C1235 C1236 1.383 . S
C1235 H1243 0.929 . S
C1236 C1235 1.383 . S
C1236 C1237 1.377 . S
C1237 H1221 0.930 . S
C1237 C1236 1.377 . S
C1237 C1238 1.379 . S
C1238 H1222 0.931 . S
C1238 C1232 1.383 . S
C1238 C1237 1.379 . S
H1239 C1233 0.959 . S
H1240 C1233 0.961 . S
H1241 C1233 0.960 . S
H1242 C1234 0.930 . S
H1243 C1235 0.929 . S
H1244 C1252 0.929 . S
H1245 C1254 0.930 . S
H1246 C1256 0.930 . S
H1247 C1259 0.929 . S
H1248 C1262 0.930 . S
H1249 C1264 0.960 . S
H1250 C1264 0.960 . S
H1251 C1264 0.960 . S
C1252 H1244 0.929 . S
C1252 C1253 1.377 . S
C1252 C1254 1.384 . S
C1253 C1252 1.377 . S
C1253 C1259 1.390 . S
C1254 H1245 0.930 . S
C1254 C1252 1.384 . S
C1254 C1255 1.372 . S
C1255 C1254 1.372 . S
C1255 C1256 1.400 . S
C1255 C1260 1.490 . S
C1256 H1246 0.930 . S
C1256 C1255 1.400 . S
C1256 C1259 1.386 . S
H1257 C1273 0.930 . S
H1258 C1274 0.931 . S
C1259 H1247 0.929 . S
C1259 C1253 1.390 . S
C1259 C1256 1.386 . S
C1260 C1255 1.490 . S
C1260 C1262 1.395 . S
C1260 C1263 1.403 . S
H1261 C1267 0.930 . S
C1262 H1248 0.930 . S
C1262 C1260 1.395 . S
C1262 C1265 1.403 . S
C1263 C1260 1.403 . S
C1263 C1264 1.524 . S
C1263 C1267 1.400 . S
C1264 H1249 0.960 . S
C1264 H1250 0.960 . S
C1264 H1251 0.960 . S
C1264 C1263 1.524 . S
C1265 C1262 1.403 . S
C1265 C1266 1.392 . S
C1265 C1269 1.495 . S
C1266 C1265 1.392 . S
C1266 C1267 1.385 . S
C1266 C1268 1.478 . S
C1267 H1261 0.930 . S
C1267 C1263 1.400 . S
C1267 C1266 1.385 . S
C1268 C1266 1.478 . S
C1268 C1270 1.381 . S
C1268 C1274 1.383 . S
C1269 C1265 1.495 . S
C1269 H1275 0.959 . S
C1269 H1276 0.961 . S
C1269 H1277 0.960 . S
C1270 C1268 1.381 . S
C1270 C1271 1.394 . S
C1270 H1278 0.930 . S
C1271 C1270 1.394 . S
C1271 C1272 1.383 . S
C1271 H1279 0.929 . S
C1272 C1271 1.383 . S
C1272 C1273 1.377 . S
C1273 H1257 0.930 . S
C1273 C1272 1.377 . S
C1273 C1274 1.379 . S
C1274 H1258 0.931 . S
C1274 C1268 1.383 . S
C1274 C1273 1.379 . S
H1275 C1269 0.959 . S
H1276 C1269 0.961 . S
H1277 C1269 0.960 . S
H1278 C1270 0.930 . S
H1279 C1271 0.929 . S
C425 C215 1.795 . S
C444 C265 1.891 1_545 S
C480 C305 1.891 . S
C461 C247 1.787 . S
C516 C345 1.891 . S
C497 C151 1.790 . S
C552 C385 1.885 1_455 S
C533 C183 1.802 . S
C588 C274 1.902 1_565 S
C569 C87 1.795 1_565 S
C605 C119 1.800 . S
C624 C314 1.899 . S
C641 C23 1.798 . S
C660 C354 1.902 . S
C677 C55 1.787 1_655 S
C696 C394 1.893 1_655 S
C732 C271 0.331 . S
C713 C189 0.215 . S
C768 C311 0.349 . S
C749 C221 0.218 . S
C804 C351 0.245 . S
C785 C253 0.250 . S
C821 C157 0.222 . S
C840 C391 0.215 . S
C857 C61 0.454 1_655 S
C876 C262 0.212 . S
C912 C302 0.225 . S
C893 C93 0.421 1_565 S
C948 C342 0.268 . S
C929 C125 0.421 . S
C965 C29 0.445 . S
C984 C382 0.375 . S
C1001 C177 2.231 . S
C1020 C275 2.467 . S
C1037 C209 2.224 . S
C1056 C315 2.459 . S
C1092 C355 2.458 . S
C1073 C241 2.225 . S
C1128 C395 2.452 . S
C1109 C145 2.218 . S
C1145 C49 2.246 1_655 S
C1164 C266 2.466 . S
C1200 C306 2.459 . S
C1181 C81 2.247 1_565 S
C1236 C346 2.473 . S
C1217 C113 2.239 . S
C1253 C17 2.250 . S
C1272 C386 2.457 . S
