# Generated by pormake.
# Topology zzz, (3,6)-cn, num edge types: 1
# Building blocks:
#     Node 0, Type 0, BuildingBlock: ESEHIV_clean_linker_0, # of connection points: 3
#     Node 1, Type 0, BuildingBlock: ESEHIV_clean_linker_0, # of connection points: 3
#     Node 2, Type 0, BuildingBlock: ESEHIV_clean_linker_0, # of connection points: 3
#     Node 3, Type 0, BuildingBlock: ESEHIV_clean_linker_0, # of connection points: 3
#     Node 4, Type 0, BuildingBlock: ESEHIV_clean_linker_0, # of connection points: 3
#     Node 5, Type 0, BuildingBlock: ESEHIV_clean_linker_0, # of connection points: 3
#     Node 6, Type 0, BuildingBlock: ESEHIV_clean_linker_0, # of connection points: 3
#     Node 7, Type 0, BuildingBlock: ESEHIV_clean_linker_0, # of connection points: 3
#     Node 8, Type 1, BuildingBlock: BETDAH_clean_sbu_0, # of connection points: 6
#     Node 9, Type 1, BuildingBlock: BETDAH_clean_sbu_0, # of connection points: 6
#     Node 10, Type 1, BuildingBlock: BETDAH_clean_sbu_0, # of connection points: 6
#     Node 11, Type 1, BuildingBlock: BETDAH_clean_sbu_0, # of connection points: 6
#     Edge 12, Type (0, 1), BuildingBlock: EZIPEK_clean_linker_0, # of connection points: 2
#     Edge 13, Type (0, 1), BuildingBlock: EZIPEK_clean_linker_0, # of connection points: 2
#     Edge 14, Type (0, 1), BuildingBlock: EZIPEK_clean_linker_0, # of connection points: 2
#     Edge 15, Type (0, 1), BuildingBlock: EZIPEK_clean_linker_0, # of connection points: 2
#     Edge 16, Type (0, 1), BuildingBlock: EZIPEK_clean_linker_0, # of connection points: 2
#     Edge 17, Type (0, 1), BuildingBlock: EZIPEK_clean_linker_0, # of connection points: 2
#     Edge 18, Type (0, 1), BuildingBlock: EZIPEK_clean_linker_0, # of connection points: 2
#     Edge 19, Type (0, 1), BuildingBlock: EZIPEK_clean_linker_0, # of connection points: 2
#     Edge 20, Type (0, 1), BuildingBlock: EZIPEK_clean_linker_0, # of connection points: 2
#     Edge 21, Type (0, 1), BuildingBlock: EZIPEK_clean_linker_0, # of connection points: 2
#     Edge 22, Type (0, 1), BuildingBlock: EZIPEK_clean_linker_0, # of connection points: 2
#     Edge 23, Type (0, 1), BuildingBlock: EZIPEK_clean_linker_0, # of connection points: 2
#     Edge 24, Type (0, 1), BuildingBlock: EZIPEK_clean_linker_0, # of connection points: 2
#     Edge 25, Type (0, 1), BuildingBlock: EZIPEK_clean_linker_0, # of connection points: 2
#     Edge 26, Type (0, 1), BuildingBlock: EZIPEK_clean_linker_0, # of connection points: 2
#     Edge 27, Type (0, 1), BuildingBlock: EZIPEK_clean_linker_0, # of connection points: 2
#     Edge 28, Type (0, 1), BuildingBlock: EZIPEK_clean_linker_0, # of connection points: 2
#     Edge 29, Type (0, 1), BuildingBlock: EZIPEK_clean_linker_0, # of connection points: 2
#     Edge 30, Type (0, 1), BuildingBlock: EZIPEK_clean_linker_0, # of connection points: 2
#     Edge 31, Type (0, 1), BuildingBlock: EZIPEK_clean_linker_0, # of connection points: 2
#     Edge 32, Type (0, 1), BuildingBlock: EZIPEK_clean_linker_0, # of connection points: 2
#     Edge 33, Type (0, 1), BuildingBlock: EZIPEK_clean_linker_0, # of connection points: 2
#     Edge 34, Type (0, 1), BuildingBlock: EZIPEK_clean_linker_0, # of connection points: 2
#     Edge 35, Type (0, 1), BuildingBlock: EZIPEK_clean_linker_0, # of connection points: 2
# Relax obj value: 0.629
# Max RMSD: 0.271
# Mean RMSD: 0.254
data_MOF--net-zzz--node1-BETDAH_clean_sbu_0--node2-ESEHIV_clean_linker_0--edge1-EZIPEK_clean_linker_0
_symmetry_space_group_name_H-M    P1
_symmetry_Int_Tables_number       1
_symmetry_cell_setting            triclinic
loop_
_symmetry_equiv_pos_as_xyz
'x, y, z'
_cell_length_a     32.740175
_cell_length_b     32.725158
_cell_length_c     10.673679
_cell_angle_alpha  89.332375
_cell_angle_beta   89.825832
_cell_angle_gamma 89.9589
loop_
_atom_site_label
_atom_site_type_symbol
_atom_site_fract_x
_atom_site_fract_y
_atom_site_fract_z
_atom_type_partial_charge
H0 H 0.8167 0.45052 0.27134 0.0
H1 H 0.69457 0.45612 0.1311 0.0
H2 H 0.7363 0.54792 0.38836 0.0
C3 C 0.78734 0.46589 0.2688 0.0
C4 C 0.78053 0.49944 0.34784 0.0
C5 C 0.75646 0.45051 0.1908 0.0
C6 C 0.71839 0.46919 0.18874 0.0
C7 C 0.71122 0.50597 0.24974 0.0
C8 C 0.74208 0.52071 0.33443 0.0
H9 H 0.08923 0.82635 0.2615 0.0
H10 H 0.0816 0.71397 0.06517 0.0
H11 H 0.99046 0.74222 0.34577 0.0
C12 C 0.07294 0.79805 0.24552 0.0
C13 C 0.03781 0.78891 0.31732 0.0
C14 C 0.08881 0.77066 0.15777 0.0
C15 C 0.06849 0.73441 0.1339 0.0
C16 C 0.03234 0.72354 0.19632 0.0
C17 C 0.0172 0.75077 0.29169 0.0
H18 H 0.69462 0.08366 0.23381 0.0
H19 H 0.80789 0.06633 0.04176 0.0
H20 H 0.77461 0.98435 0.34541 0.0
C21 C 0.72223 0.06575 0.22186 0.0
C22 C 0.72966 0.03201 0.30221 0.0
C23 C 0.7507 0.07828 0.1305 0.0
C24 C 0.78617 0.05585 0.11221 0.0
C25 C 0.79545 0.0216 0.18626 0.0
C26 C 0.76724 1.00984 0.28401 0.0
H27 H 0.4461 0.71099 0.2842 0.0
H28 H 0.5527 0.78223 0.38002 0.0
H29 H 0.46486 0.8279 0.11121 0.0
C30 C 0.46482 0.73819 0.27439 0.0
C31 C 0.4524 0.76896 0.19014 0.0
C32 C 0.49992 0.74243 0.34929 0.0
C33 C 0.52468 0.77829 0.328 0.0
C34 C 0.51246 0.809 0.23784 0.0
C35 C 0.47527 0.80438 0.17633 0.0
H36 H 0.22637 0.58581 0.13891 0.0
H37 H 0.33747 0.57869 0.35238 0.0
H38 H 0.27841 0.46905 0.22943 0.0
C39 C 0.25143 0.56854 0.1787 0.0
C40 C 0.24953 0.52596 0.16654 0.0
C41 C 0.28292 0.5887 0.24418 0.0
C42 C 0.31317 0.56459 0.30077 0.0
C43 C 0.31154 0.5218 0.30135 0.0
C44 C 0.27985 0.50208 0.23135 0.0
H45 H 0.93739 0.19548 0.3357 0.0
H46 H 0.95138 0.31211 0.5063 0.0
H47 H 0.03401 0.27663 0.21043 0.0
C48 C 0.95417 0.22392 0.34168 0.0
C49 C 0.98707 0.23136 0.25858 0.0
C50 C 0.94112 0.25327 0.42832 0.0
C51 C 0.96206 0.28988 0.43885 0.0
C52 C 0.9963 0.2986 0.36516 0.0
C53 C 1.00851 0.26957 0.27166 0.0
H54 H 0.33281 0.93911 0.38707 0.0
H55 H 0.21799 0.95673 0.56965 0.0
H56 H 0.25006 0.03285 0.25083 0.0
C57 C 0.30454 0.95626 0.39357 0.0
C58 C 0.29666 0.98824 0.30672 0.0
C59 C 0.27576 0.94461 0.48519 0.0
C60 C 0.23966 0.96634 0.49791 0.0
C61 C 0.2295 0.99827 0.41578 0.0
C62 C 0.25798 1.00905 0.31772 0.0
H63 H 0.57485 0.31218 0.28494 0.0
H64 H 0.46355 0.24425 0.23632 0.0
H65 H 0.56776 0.18796 0.41569 0.0
C66 C 0.55775 0.28394 0.29452 0.0
C67 C 0.57455 0.2509 0.36339 0.0
C68 C 0.51915 0.2813 0.23797 0.0
C69 C 0.495 0.24569 0.26682 0.0
C70 C 0.51222 0.21222 0.33775 0.0
C71 C 0.55348 0.21405 0.36979 0.0
Ho72 Ho 0.03961 0.99762 0.86914 0.0
Ho73 Ho 0.98139 0.02087 0.7134 0.0
C74 C 0.01257 0.93126 0.6557 0.0
C75 C 0.08931 0.96343 0.02497 0.0
C76 C 0.12237 0.93361 0.02087 0.0
C77 C 0.12856 0.9097 0.1271 0.0
C78 C 0.15778 0.87917 0.12773 0.0
C79 C 0.1781 0.86831 0.01578 0.0
C80 C 0.17389 0.89447 0.91055 0.0
C81 C 0.14628 0.92721 0.91337 0.0
C82 C 0.07587 0.03144 0.65783 0.0
C83 C 1.00875 0.08704 0.92612 0.0
C84 C 0.93174 0.0574 0.56229 0.0
C85 C 0.90132 0.08988 0.57398 0.0
C86 C 0.89572 0.11574 0.47165 0.0
C87 C 0.86933 0.14866 0.47881 0.0
C88 C 0.85211 0.16006 0.595 0.0
C89 C 0.85624 0.13277 0.6974 0.0
C90 C 0.88024 0.09744 0.68631 0.0
C91 C 0.94556 0.98673 0.92494 0.0
O92 O 0.02807 0.9358 0.76983 0.0
O93 O 0.99545 0.9636 0.60331 0.0
O94 O 0.09638 0.99849 0.97048 0.0
O95 O 0.05271 0.94937 1.00307 0.0
O96 O 0.08386 0.04068 0.77239 0.0
O97 O 0.04612 1.00661 0.66186 0.0
O98 O 0.9932 0.08258 0.81227 0.0
O99 O 0.02537 0.05466 0.97912 0.0
O100 O 0.92335 0.02284 0.6182 0.0
O101 O 0.96967 0.06867 0.57689 0.0
O102 O 0.93735 0.97756 0.81033 0.0
O103 O 0.97505 1.01186 0.92049 0.0
H104 H 0.10903 0.91325 0.20796 0.0
H105 H 0.16046 0.86146 0.21337 0.0
H106 H 0.18943 0.88777 0.82352 0.0
H107 H 0.14185 0.94579 0.82984 0.0
H108 H 0.91383 0.11189 0.38798 0.0
H109 H 0.8665 0.16726 0.3951 0.0
H110 H 0.84323 0.14012 0.78779 0.0
H111 H 0.88433 0.07757 0.76714 0.0
Ho112 Ho 0.52616 0.04318 0.87716 0.0
Ho113 Ho 0.50048 0.98277 0.73268 0.0
C114 C 0.58774 0.01476 0.65143 0.0
C115 C 0.56202 0.09607 0.01824 0.0
C116 C 0.59172 0.12896 1.0015 0.0
C117 C 0.60405 0.14157 0.88155 0.0
C118 C 0.63905 0.16544 0.86638 0.0
C119 C 0.66234 0.17672 0.97151 0.0
C120 C 0.645 0.16996 0.09189 0.0
C121 C 0.61045 0.14554 0.10649 0.0
C122 C 0.48507 0.07631 0.67321 0.0
C123 C 0.43882 1.01011 0.9585 0.0
C124 C 0.46416 0.92961 0.59485 0.0
C125 C 0.43486 0.89657 0.61445 0.0
C126 C 0.4139 0.88156 0.51143 0.0
C127 C 0.37951 0.85732 0.5296 0.0
C128 C 0.36476 0.84868 0.65206 0.0
C129 C 0.39013 0.85839 0.75403 0.0
C130 C 0.42484 0.88257 0.73523 0.0
C131 C 0.54191 0.94997 0.93572 0.0
O132 O 0.58561 0.03099 0.76489 0.0
O133 O 0.55433 0.99805 0.60683 0.0
O134 O 0.52676 0.10206 0.96536 0.0
O135 O 0.57572 0.05902 1.00158 0.0
O136 O 0.47964 0.08523 0.78945 0.0
O137 O 0.51113 0.0475 0.67162 0.0
O138 O 0.44111 0.99371 0.84555 0.0
O139 O 0.47187 0.02782 1.00215 0.0
O140 O 0.50005 0.92398 0.64405 0.0
O141 O 0.45031 0.96663 0.61125 0.0
O142 O 0.54764 0.94127 0.81943 0.0
O143 O 0.51553 0.97847 0.93753 0.0
H144 H 0.58813 0.13075 0.79985 0.0
H145 H 0.64984 0.17168 0.77218 0.0
H146 H 0.66019 0.17951 0.17654 0.0
H147 H 0.60011 0.13734 0.20004 0.0
H148 H 0.42217 0.89116 0.41714 0.0
H149 H 0.36225 0.84983 0.44684 0.0
H150 H 0.38096 0.851 0.84914 0.0
H151 H 0.44218 0.89259 0.81526 0.0
Ho152 Ho 0.47602 0.52811 0.88952 0.0
Ho153 Ho 0.53422 0.50279 0.73847 0.0
C154 C 0.51028 0.59376 0.6764 0.0
C155 C 0.42838 0.56721 0.04151 0.0
C156 C 0.40046 0.6022 0.03317 0.0
C157 C 0.38545 0.61656 0.91777 0.0
C158 C 0.36501 0.65412 0.91 0.0
C159 C 0.35964 0.67813 0.0176 0.0
C160 C 0.37138 0.66103 0.13452 0.0
C161 C 0.39164 0.62369 0.14184 0.0
C162 C 0.43872 0.49755 0.68016 0.0
C163 C 0.49806 0.43487 0.93805 0.0
C164 C 0.58612 0.46574 0.59547 0.0
C165 C 0.60644 0.42562 0.59788 0.0
C166 C 0.58305 0.38995 0.59389 0.0
C167 C 0.60186 0.35214 0.58924 0.0
C168 C 0.64482 0.34865 0.58652 0.0
C169 C 0.66837 0.38437 0.59069 0.0
C170 C 0.64931 0.42261 0.59902 0.0
C171 C 0.56813 0.53614 0.9518 0.0
O172 O 0.49225 0.58923 0.78759 0.0
O173 O 0.52652 0.56111 0.62612 0.0
O174 O 0.41765 0.53454 0.98185 0.0
O175 O 0.46711 0.57547 0.02731 0.0
O176 O 0.43083 0.48679 0.79448 0.0
O177 O 0.47015 0.52057 0.68136 0.0
O178 O 0.51505 0.44068 0.8262 0.0
O179 O 0.48595 0.46821 0.99571 0.0
O180 O 0.59689 0.49122 0.68175 0.0
O181 O 0.54675 0.46578 0.57724 0.0
O182 O 0.57689 0.54621 0.83728 0.0
O183 O 0.5389 0.51072 0.94642 0.0
H184 H 0.39135 0.59982 0.83301 0.0
H185 H 0.35593 0.66548 0.81867 0.0
H186 H 0.36832 0.67782 0.22042 0.0
H187 H 0.40261 0.6128 0.23197 0.0
H188 H 0.55003 0.39108 0.59139 0.0
H189 H 0.58216 0.32579 0.58291 0.0
H190 H 0.70124 0.38281 0.58486 0.0
H191 H 0.66802 0.44986 0.6024 0.0
Ho192 Ho 1.0018 0.48212 0.85154 0.0
Ho193 Ho 0.02664 0.53763 0.68611 0.0
C194 C 0.93342 0.51522 0.64874 0.0
C195 C 0.96442 0.43385 1.0057 0.0
C196 C 0.92499 0.41334 0.98825 0.0
C197 C 0.89136 0.43643 0.9494 0.0
C198 C 0.85425 0.41795 0.92795 0.0
C199 C 0.84852 0.37578 0.9518 0.0
C200 C 0.88289 0.35209 0.98449 0.0
C201 C 0.92109 0.3707 0.99988 0.0
C202 C 0.03061 0.44434 0.63832 0.0
C203 C 0.09467 0.50361 0.88566 0.0
C204 C 0.06538 0.58151 0.52204 0.0
C205 C 0.10506 0.60242 0.51231 0.0
C206 C 0.13889 0.581 0.46597 0.0
C207 C 0.17443 0.60168 0.43474 0.0
C208 C 0.17679 0.64418 0.44742 0.0
C209 C 0.14426 0.66565 0.50084 0.0
C210 C 0.10851 0.64468 0.53441 0.0
C211 C 1.00121 0.57778 0.89878 0.0
O212 O 0.9394 0.50031 0.76366 0.0
O213 O 0.96574 0.5292 0.58845 0.0
O214 O 0.99365 0.42156 0.93241 0.0
O215 O 0.96307 0.47368 0.01374 0.0
O216 O 0.0417 0.43611 0.75211 0.0
O217 O 1.00641 0.47457 0.64382 0.0
O218 O 0.08851 0.51557 0.76798 0.0
O219 O 0.06176 0.49387 0.95049 0.0
O220 O 0.03849 0.59657 0.59886 0.0
O221 O 0.06626 0.54166 0.52538 0.0
O222 O 0.99008 0.58637 0.78531 0.0
O223 O 0.02267 0.54536 0.89477 0.0
H224 H 0.89331 0.46919 0.93571 0.0
H225 H 0.82983 0.43802 0.89867 0.0
H226 H 0.88005 0.31955 1.00142 0.0
H227 H 0.94734 0.35197 0.02287 0.0
H228 H 0.13742 0.54851 0.44807 0.0
H229 H 0.19964 0.58465 0.39502 0.0
H230 H 0.1459 0.69847 0.51173 0.0
H231 H 0.0828 0.66192 0.56993 0.0
C232 C 0.1812 0.05241 0.50395 0.0
C233 C 0.18681 0.01572 0.43532 0.0
C234 C 0.11367 0.99944 0.47193 0.0
C235 C 0.11012 0.03141 0.5597 0.0
N236 N 0.13567 0.09658 0.6246 0.0
N237 N 0.1583 0.95163 0.37008 0.0
C238 C 0.14259 0.06049 0.565 0.0
C239 C 0.15271 0.98908 0.42174 0.0
N240 N 0.21377 0.07799 0.51791 0.0
N241 N 0.07953 0.98014 0.43 0.0
H242 H 0.18455 0.94379 0.32004 0.0
H243 H 0.13825 0.92758 0.38902 0.0
H244 H 0.0503 0.99112 0.44841 0.0
H245 H 0.08036 0.9577 0.36159 0.0
H246 H 0.21414 0.10301 0.57698 0.0
H247 H 0.24144 0.07337 0.47147 0.0
H248 H 0.15643 0.12055 0.62793 0.0
H249 H 0.10715 0.10405 0.6618 0.0
C250 C 0.47171 0.18239 0.52105 0.0
C251 C 0.48905 0.17716 0.40007 0.0
C252 C 0.49263 0.10244 0.44328 0.0
C253 C 0.47874 0.10838 0.56859 0.0
N254 N 0.43456 0.15098 0.69355 0.0
N255 N 0.50211 0.13099 0.23314 0.0
C256 C 0.46183 0.14743 0.59731 0.0
C257 C 0.49512 0.13667 0.35742 0.0
N258 N 0.46626 0.22086 0.5663 0.0
N259 N 0.50342 0.06422 0.40553 0.0
H260 H 0.50427 0.15554 0.17 0.0
H261 H 0.50062 0.10236 0.19222 0.0
H262 H 0.4959 0.038 0.45685 0.0
H263 H 0.5195 0.05858 0.32316 0.0
H264 H 0.4588 0.2265 0.65952 0.0
H265 H 0.47153 0.2471 0.51225 0.0
H266 H 0.41934 0.17815 0.71333 0.0
H267 H 0.42254 0.1256 0.74063 0.0
C268 C 0.38323 0.49604 0.35629 0.0
C269 C 0.34156 0.50123 0.39113 0.0
C270 C 0.36338 0.50599 0.61172 0.0
C271 C 0.40529 0.49869 0.5792 0.0
N272 N 0.45325 0.48012 0.41821 0.0
N273 N 0.29172 0.4996 0.55585 0.0
C274 C 0.41457 0.49161 0.45048 0.0
C275 C 0.33177 0.50164 0.52035 0.0
N276 N 0.39294 0.4965 0.23217 0.0
N277 N 0.35359 0.5214 0.72623 0.0
H278 H 0.26812 0.4971 0.49086 0.0
H279 H 0.28246 0.49593 0.64882 0.0
H280 H 0.37533 0.53056 0.79035 0.0
H281 H 0.32426 0.53092 0.75034 0.0
H282 H 0.4228 0.49767 0.199 0.0
H283 H 0.37058 0.49716 0.16261 0.0
H284 H 0.46193 0.47156 0.32847 0.0
H285 H 0.47635 0.47631 0.48405 0.0
C286 C 0.04944 0.34059 0.47998 0.0
C287 C 0.01645 0.33934 0.3936 0.0
C288 C 1.0044 0.4132 0.43208 0.0
C289 C 0.0317 0.41202 0.53543 0.0
N290 N 0.09332 0.38117 0.6142 0.0
N291 N 0.96188 0.37505 0.2888 0.0
C292 C 0.05826 0.37759 0.54617 0.0
C293 C 0.99446 0.37621 0.36811 0.0
N294 N 0.07053 0.30546 0.50543 0.0
N295 N 0.98977 0.44991 0.39001 0.0
H296 H 0.95446 0.34892 0.23884 0.0
H297 H 0.94087 0.39879 0.27916 0.0
H298 H 1.00044 0.47758 0.42424 0.0
H299 H 0.97204 0.45329 0.30973 0.0
H300 H 0.091 0.30221 0.57928 0.0
H301 H 0.06608 0.2787 0.45511 0.0
H302 H 0.11584 0.35876 0.61881 0.0
H303 H 0.1023 0.40877 0.65351 0.0
C304 C 0.87256 0.02702 0.17585 0.0
C305 C 0.83704 1.00257 0.15921 0.0
C306 C 0.87808 0.95879 0.01709 0.0
C307 C 0.91189 0.98624 0.02508 0.0
N308 N 0.94595 0.03289 0.16292 0.0
N309 N 0.80628 0.94416 0.06375 0.0
C310 C 0.9106 0.01617 0.11984 0.0
C311 C 0.84028 0.96746 0.08201 0.0
N312 N 0.86933 0.06329 0.23605 0.0
N313 N 0.88297 0.92343 0.95201 0.0
H314 H 0.77914 0.94903 0.11279 0.0
H315 H 0.80423 0.9211 0.99788 0.0
H316 H 0.91094 0.91517 0.91253 0.0
H317 H 0.86117 0.90041 0.94758 0.0
H318 H 0.89005 0.08675 0.21756 0.0
H319 H 0.84407 0.07119 0.29059 0.0
H320 H 0.94668 0.05349 0.23672 0.0
H321 H 0.97452 0.02136 0.13864 0.0
C322 C 0.52655 0.88501 0.23931 0.0
C323 C 0.53686 0.84584 0.19348 0.0
C324 C 0.56857 0.88018 1.01011 0.0
C325 C 0.54807 0.91746 0.03864 0.0
N326 N 0.51638 0.95777 0.19963 0.0
N327 N 0.56995 0.80625 0.03455 0.0
C328 C 0.53014 0.92073 0.15998 0.0
C329 C 0.55923 0.84362 0.07961 0.0
N330 N 0.5142 0.88799 0.36054 0.0
N331 N 0.59829 0.88001 0.9202 0.0
H332 H 0.56534 0.7793 0.08597 0.0
H333 H 0.58149 0.80201 0.94454 0.0
H334 H 0.60887 0.90685 0.87761 0.0
H335 H 0.61619 0.85448 0.90103 0.0
H336 H 0.5122 0.91588 0.40529 0.0
H337 H 0.51104 0.86235 0.41896 0.0
H338 H 0.49724 0.96147 0.27679 0.0
H339 H 0.52482 0.98508 0.15561 0.0
C340 C 0.67097 0.55719 0.11666 0.0
C341 C 0.67101 0.52657 0.21264 0.0
C342 C 0.59736 0.51424 0.16755 0.0
C343 C 0.59977 0.53907 0.05758 0.0
N344 N 0.63209 0.5987 0.9682 0.0
N345 N 0.63339 0.47559 0.32804 0.0
C346 C 0.63462 0.56499 0.04445 0.0
C347 C 0.63352 0.50588 0.23939 0.0
N348 N 0.70664 0.5768 0.08794 0.0
N349 N 0.56016 0.50064 0.20829 0.0
H350 H 0.65839 0.47037 0.38632 0.0
H351 H 0.60993 0.45428 0.33713 0.0
H352 H 0.53294 0.51012 0.16682 0.0
H353 H 0.55578 0.48499 0.29279 0.0
H354 H 0.71071 0.59495 1.00814 0.0
H355 H 0.73301 0.57327 0.14154 0.0
H356 H 0.65481 0.62084 0.96134 0.0
H357 H 0.60496 0.60734 0.92428 0.0
C358 C 0.04301 0.64812 0.1618 0.0
C359 C 0.01538 0.68168 0.15877 0.0
C360 C 0.97269 0.64055 0.01474 0.0
C361 C 1.005 0.61158 0.99713 0.0
N362 N 0.07668 0.5977 0.03543 0.0
N363 N 0.95359 0.70992 0.07287 0.0
C364 C 0.04151 0.61747 0.0675 0.0
C365 C 0.97976 0.67765 0.08375 0.0
N366 N 0.07311 0.64753 0.24946 0.0
N367 N 0.935 0.6326 0.96655 0.0
H368 H 0.95722 0.73659 0.12416 0.0
H369 H 0.92981 0.71097 1.00828 0.0
H370 H 0.92845 0.60578 0.91868 0.0
H371 H 0.90943 0.65054 0.98504 0.0
H372 H 0.09308 0.623 0.26099 0.0
H373 H 0.0753 0.67027 0.31679 0.0
H374 H 0.10475 0.60336 0.07759 0.0
H375 H 0.07968 0.58113 0.95377 0.0
C376 C 0.86487 0.24477 0.44158 0.0
C377 C 0.90338 0.2468 0.50299 0.0
C378 C 0.86944 0.22323 0.69325 0.0
C379 C 0.84092 0.20387 0.61634 0.0
N380 N 0.79261 0.22812 0.46637 0.0
N381 N 0.93963 0.24556 0.70207 0.0
C382 C 0.83169 0.22658 0.50785 0.0
C383 C 0.90482 0.23973 0.63497 0.0
N384 N 0.86118 0.25565 0.31879 0.0
N385 N 0.86247 0.22569 0.81819 0.0
H386 H 0.9666 0.25646 0.66193 0.0
H387 H 0.94178 0.23733 0.79657 0.0
H388 H 0.83638 0.21261 0.85861 0.0
H389 H 0.88025 0.24416 0.87533 0.0
H390 H 0.83641 0.24619 0.2655 0.0
H391 H 0.88414 0.27134 0.27019 0.0
H392 H 0.78378 0.24655 0.3909 0.0
H393 H 0.76933 0.213 0.51553 0.0
C394 C 0.28895 0.90789 0.69167 0.0
C395 C 0.2814 0.9067 0.56046 0.0
C396 C 0.29707 0.83374 0.56567 0.0
C397 C 0.31996 0.84154 0.67374 0.0
N398 N 0.29877 0.86446 0.87567 0.0
N399 N 0.26287 0.8625 0.38711 0.0
C400 C 0.30231 0.87131 0.75056 0.0
C401 C 0.27956 0.86771 0.50215 0.0
N402 N 0.28582 0.94316 0.75759 0.0
N403 N 0.29764 0.79586 0.51548 0.0
H404 H 0.24888 0.88603 0.3361 0.0
H405 H 0.24888 0.88603 0.3361 0.0
H406 H 0.31311 0.77182 0.5599 0.0
H407 H 0.28191 0.78919 0.4336 0.0
H408 H 0.29416 0.94474 0.85169 0.0
H409 H 0.27705 0.97084 0.71658 0.0
H410 H 0.28192 0.88387 0.93295 0.0
H411 H 0.30944 0.83729 0.91635 0.0
C412 C 0.64662 0.27559 0.37039 0.0
C413 C 0.61337 0.25653 0.43416 0.0
C414 C 0.6448 0.27599 0.63256 0.0
C415 C 0.66357 0.30786 0.56569 0.0
N416 N 0.70803 0.31696 0.39138 0.0
N417 N 0.58493 0.23324 0.63607 0.0
C418 C 0.67363 0.30007 0.4407 0.0
C419 C 0.61479 0.25279 0.56873 0.0
N420 N 0.64987 0.27305 0.24336 0.0
N421 N 0.65071 0.27358 0.75856 0.0
H422 H 0.56019 0.21829 0.5975 0.0
H423 H 0.58319 0.2339 0.73341 0.0
H424 H 0.67078 0.29364 0.80264 0.0
H425 H 0.63844 0.25067 0.81559 0.0
H426 H 0.66979 0.29104 0.19033 0.0
H427 H 0.63121 0.25368 0.19163 0.0
H428 H 0.71864 0.31104 0.30133 0.0
H429 H 0.72746 0.33392 0.44805 0.0
C430 C 0.28501 0.64682 0.39499 0.0
C431 C 0.27969 0.63396 0.26974 0.0
C432 C 0.21466 0.66897 0.26282 0.0
C433 C 0.2131 0.66456 0.39483 0.0
N434 N 0.24963 0.66234 0.58912 0.0
N435 N 0.25158 0.65659 0.07259 0.0
C436 C 0.24984 0.65937 0.46192 0.0
C437 C 0.25005 0.65566 0.19976 0.0
N438 N 0.3229 0.64811 0.44679 0.0
N439 N 0.18071 0.68002 0.19734 0.0
H440 H 0.2761 0.64433 0.02265 0.0
H441 H 0.2761 0.64433 0.02265 0.0
H442 H 0.15335 0.68719 0.2424 0.0
H443 H 0.18042 0.68184 0.09959 0.0
H444 H 0.32846 0.65961 0.53575 0.0
H445 H 0.349 0.64167 0.3946 0.0
H446 H 0.27447 0.65432 0.64508 0.0
H447 H 0.22353 0.67193 0.63717 0.0
C448 C 0.16497 0.78234 0.16674 0.0
C449 C 0.12844 0.77911 0.09454 0.0
C450 C 0.16686 0.80439 0.9146 0.0
C451 C 0.19181 0.82499 0.99938 0.0
N452 N 0.2353 0.80786 0.1696 0.0
N453 N 0.09769 0.78098 0.88677 0.0
C454 C 0.19891 0.80317 0.11123 0.0
C455 C 0.13051 0.78676 0.96278 0.0
N456 N 0.16582 0.76885 0.28812 0.0
N457 N 0.17679 0.80408 0.79104 0.0
H458 H 0.06961 0.77019 0.91897 0.0
H459 H 0.09795 0.78963 0.79259 0.0
H460 H 0.20338 0.81841 0.75854 0.0
H461 H 0.16097 0.78639 0.72679 0.0
H462 H 0.19042 0.77324 0.34796 0.0
H463 H 0.14132 0.75317 0.32876 0.0
H464 H 0.24274 0.79283 0.25262 0.0
H465 H 0.25837 0.82566 0.12866 0.0
C466 C 0.745 0.15503 0.12985 0.0
C467 C 0.74537 0.11767 0.0622 0.0
C468 C 0.72665 0.15687 0.87659 0.0
C469 C 0.70742 0.18459 0.95696 0.0
N470 N 0.73024 0.2284 0.11864 0.0
N471 N 0.74403 0.08557 0.85724 0.0
C472 C 0.72884 0.19043 0.06898 0.0
C473 C 0.73983 0.11931 0.92976 0.0
N474 N 0.75824 0.15608 0.25058 0.0
N475 N 0.73103 0.1662 0.75304 0.0
H476 H 0.75177 0.05692 0.89348 0.0
H477 H 0.7372 0.086 0.76189 0.0
H478 H 0.72012 0.19392 0.71669 0.0
H479 H 0.74853 0.14829 0.69308 0.0
H480 H 0.75361 0.18114 0.30782 0.0
H481 H 0.77302 0.13132 0.29311 0.0
H482 H 0.74607 0.23527 0.20009 0.0
H483 H 0.71729 0.25316 0.07044 0.0
C484 C 0.4152 0.75863 0.98524 0.0
C485 C 0.41435 0.76411 0.11767 0.0
C486 C 0.343 0.74327 0.1186 0.0
C487 C 0.35115 0.72318 1.0056 0.0
N488 N 0.37207 0.74745 0.80357 0.0
N489 N 0.37105 0.77421 0.30095 0.0
C490 C 0.3794 0.74349 0.92818 0.0
C491 C 0.37614 0.76143 0.18126 0.0
N492 N 0.44985 0.76464 0.91631 0.0
N493 N 0.30581 0.73939 0.17325 0.0
H494 H 0.39425 0.78793 0.35245 0.0
H495 H 0.39425 0.78793 0.35245 0.0
H496 H 0.2813 0.72777 0.12291 0.0
H497 H 0.29999 0.74935 0.26391 0.0
H498 H 0.45146 0.7576 0.82136 0.0
H499 H 0.47731 0.77428 0.95496 0.0
H500 H 0.39029 0.76561 0.74524 0.0
H501 H 0.34536 0.73578 0.76435 0.0
C502 C 0.75832 0.41506 0.97839 0.0
C503 C 0.76388 0.41398 0.11199 0.0
C504 C 0.79713 0.34788 0.0901 0.0
C505 C 0.80616 0.35929 0.96661 0.0
N506 N 0.77037 0.37877 0.78241 0.0
N507 N 0.77938 0.37248 0.29552 0.0
C508 C 0.77569 0.38262 0.90784 0.0
C509 C 0.77957 0.37765 0.16873 0.0
N510 N 0.74299 0.44875 0.91798 0.0
N511 N 0.8045 0.30904 0.12932 0.0
H512 H 0.76364 0.39219 0.3547 0.0
H513 H 0.79518 0.34886 0.34048 0.0
H514 H 0.81721 0.28761 0.06866 0.0
H515 H 0.79394 0.29809 0.21544 0.0
H516 H 0.74166 0.45152 0.82081 0.0
H517 H 0.73519 0.4757 0.96271 0.0
H518 H 0.7485 0.39514 0.73243 0.0
H519 H 0.78672 0.35687 0.7323 0.0
C520 C 0.96264 0.18391 0.08357 0.0
C521 C 0.99567 0.19867 0.15801 0.0
C522 C 0.03901 0.14472 0.06106 0.0
C523 C 1.00457 0.1269 1.00029 0.0
N524 N 0.93131 0.12603 0.97977 0.0
N525 N 0.06434 0.18683 0.23076 0.0
C526 C 0.96577 0.14571 0.01841 0.0
C527 C 0.03372 0.1775 0.14947 0.0
N528 N 0.92795 0.20685 0.07396 0.0
N529 N 0.07726 0.13101 0.03224 0.0
H530 H 0.0617 0.20964 0.29756 0.0
H531 H 0.09092 0.16952 0.23946 0.0
H532 H 0.08248 0.10797 0.96739 0.0
H533 H 0.10383 0.14519 0.06293 0.0
H534 H 0.90289 0.19837 0.02092 0.0
H535 H 0.92579 0.23627 0.10999 0.0
H536 H 0.90186 0.13549 1.00248 0.0
H537 H 0.93194 0.09761 0.93687 0.0
C538 C 0.3495 0.03496 0.19047 0.0
C539 C 0.3292 0.9965 0.20398 0.0
C540 C 0.38284 0.96666 0.06562 0.0
C541 C 0.40039 1.00575 0.04098 0.0
N542 N 0.39491 0.07861 0.06654 0.0
N543 N 0.3228 0.92776 0.12773 0.0
C544 C 0.38201 0.04029 0.09959 0.0
C545 C 0.34476 0.96314 0.13263 0.0
N546 N 0.33956 0.06602 0.26921 0.0
N547 N 0.40383 0.93236 0.03221 0.0
H548 H 0.29365 0.92496 0.1666 0.0
H549 H 0.33173 0.90272 0.07523 0.0
H550 H 0.43274 0.93356 0.99128 0.0
H551 H 0.39507 0.90291 0.05873 0.0
H552 H 0.35629 0.09301 0.27438 0.0
H553 H 0.31687 0.06344 0.33746 0.0
H554 H 0.38023 0.10513 0.09557 0.0
H555 H 0.41792 0.08385 1.00049 0.0
C556 C 0.48398 0.35102 0.20034 0.0
C557 C 0.50601 0.31707 0.15226 0.0
C558 C 0.51313 0.3559 0.95025 0.0
C559 C 0.49561 0.39191 1.0036 0.0
N560 N 0.44461 0.41207 0.15423 0.0
N561 N 0.5448 0.28914 0.98146 0.0
C562 C 0.47561 0.38632 0.12223 0.0
C563 C 0.52128 0.32016 0.027 0.0
N564 N 0.47211 0.35041 0.32309 0.0
N565 N 0.51751 0.35366 0.82334 0.0
H566 H 0.54947 0.26174 0.03034 0.0
H567 H 0.56186 0.29167 0.89917 0.0
H568 H 0.50454 0.37503 0.76256 0.0
H569 H 0.52721 0.32751 0.77723 0.0
H570 H 0.46099 0.37613 0.36877 0.0
H571 H 0.47621 0.32498 0.38159 0.0
H572 H 0.42651 0.40789 0.23379 0.0
H573 H 0.4324 0.4332 0.091 0.0
C574 C 0.18098 0.48708 0.13413 0.0
C575 C 0.2143 0.51015 0.08476 0.0
C576 C 0.16981 0.52996 0.9055 0.0
C577 C 0.13733 0.50393 0.94847 0.0
N578 N 0.12116 0.4466 0.08584 0.0
N579 N 0.24304 0.54196 0.90019 0.0
C580 C 0.14568 0.47914 0.05745 0.0
C581 C 0.20951 0.52718 0.96204 0.0
N582 N 0.18184 0.47392 0.25579 0.0
N583 N 0.16277 0.56004 0.81837 0.0
H584 H 0.27233 0.54011 0.9383 0.0
H585 H 0.2422 0.55169 0.80685 0.0
H586 H 0.134 0.56761 0.78457 0.0
H587 H 0.18482 0.58156 0.79273 0.0
H588 H 0.15651 0.46098 0.3004 0.0
H589 H 0.20664 0.47896 0.31455 0.0
H590 H 0.12755 0.42614 0.15878 0.0
H591 H 0.09804 0.4367 0.02663 0.0
C592 C 0.05787 0.83199 0.50704 0.0
C593 C 0.02681 0.81982 0.42123 0.0
C594 C 0.98354 0.87535 0.51011 0.0
C595 C 0.01694 0.89125 0.58102 0.0
N596 N 0.08936 0.88741 0.62174 0.0
N597 N 0.96118 0.83541 0.33145 0.0
C598 C 0.05499 0.87007 0.57321 0.0
C599 C 0.98981 0.84288 0.42093 0.0
N600 N 0.09057 0.80678 0.52554 0.0
N601 N 0.94519 0.89035 0.5304 0.0
H602 H 0.9644 0.81233 0.26569 0.0
H603 H 0.9359 0.85417 0.31633 0.0
H604 H 0.939 0.91261 0.59694 0.0
H605 H 0.91907 0.87765 0.49124 0.0
H606 H 0.11378 0.81285 0.58872 0.0
H607 H 0.09231 0.77777 0.4863 0.0
H608 H 0.11863 0.87587 0.60727 0.0
H609 H 0.08948 0.9159 0.66417 0.0
C610 C 0.68592 0.05643 0.48643 0.0
C611 C 0.69792 0.02372 0.40681 0.0
C612 C 0.64199 0.98258 0.50499 0.0
C613 C 0.62662 0.01738 0.57018 0.0
N614 N 0.62984 0.09047 0.5917 0.0
N615 N 0.68161 0.95688 0.32896 0.0
C616 C 0.6477 0.05508 0.55296 0.0
C617 C 0.67448 0.987 0.41367 0.0
N618 N 0.7113 0.08916 0.49903 0.0
N619 N 0.6264 0.94483 0.53242 0.0
H620 H 0.70457 0.95881 0.26133 0.0
H621 H 0.66259 0.93161 0.31918 0.0
H622 H 0.60379 0.94007 0.60003 0.0
H623 H 0.63875 0.9179 0.49754 0.0
H624 H 0.70526 0.11306 0.55976 0.0
H625 H 0.74035 0.09014 0.4587 0.0
H626 H 0.64167 0.11935 0.57134 0.0
H627 H 0.6005 0.09121 0.62951 0.0
C628 C 0.54243 0.68304 0.44982 0.0
C629 C 0.50722 0.70877 0.44935 0.0
C630 C 0.47348 0.65812 0.59162 0.0
C631 C 0.50989 0.63455 0.60295 0.0
N632 N 0.58229 0.6313 0.56078 0.0
N633 N 0.44348 0.72473 0.55106 0.0
C634 C 0.54533 0.6491 0.53735 0.0
C635 C 0.47435 0.69754 0.53109 0.0
N636 N 0.57237 0.68937 0.36255 0.0
N637 N 0.43709 0.64178 0.6297 0.0
H638 H 0.44411 0.75452 0.51509 0.0
H639 H 0.41971 0.719 0.61356 0.0
H640 H 0.4344 0.61188 0.66304 0.0
H641 H 0.40903 0.6558 0.61269 0.0
H642 H 0.59638 0.66898 0.34875 0.0
H643 H 0.57131 0.71308 0.29666 0.0
H644 H 0.60968 0.64277 0.52505 0.0
H645 H 0.58608 0.60781 0.62658 0.0
C646 C 0.8268 0.47767 0.53081 0.0
C647 C 0.81457 0.50882 0.44359 0.0
C648 C 0.87641 0.54772 0.51004 0.0
C649 C 0.89133 0.51382 0.58305 0.0
N650 N 0.88046 0.44317 0.64412 0.0
N651 N 0.8324 0.57214 0.34067 0.0
C652 C 0.86629 0.47814 0.58849 0.0
C653 C 0.8406 0.54363 0.43147 0.0
N654 N 0.8014 0.44598 0.55948 0.0
N655 N 0.89548 0.58465 0.5191 0.0
H656 H 0.80661 0.57068 0.28382 0.0
H657 H 0.8526 0.59546 0.31589 0.0
H658 H 0.92024 0.58947 0.57835 0.0
H659 H 0.88411 0.61142 0.47857 0.0
H660 H 0.77145 0.44377 0.52696 0.0
H661 H 0.77145 0.44377 0.52696 0.0
H662 H 0.86319 0.41637 0.64856 0.0
H663 H 0.91021 0.43991 0.67704 0.0
loop_
_geom_bond_atom_site_label_1
_geom_bond_atom_site_label_2
_geom_bond_distance
_geom_bond_site_symmetry_2
_ccdc_geom_bond_type
H0 C3 0.931 . S
H1 C6 0.928 . S
H2 C8 0.930 . S
C3 H0 0.931 . S
C3 C4 1.413 . S
C3 C5 1.360 . S
C4 C3 1.413 . S
C4 C8 1.429 . S
C5 C3 1.360 . S
C5 C6 1.372 . S
C6 H1 0.928 . S
C6 C5 1.372 . S
C6 C7 1.404 . S
C7 C6 1.404 . S
C7 C8 1.391 . S
C8 H2 0.930 . S
C8 C4 1.429 . S
C8 C7 1.391 . S
H9 C12 0.931 . S
H10 C15 0.928 . S
H11 C17 0.930 . S
C12 H9 0.931 . S
C12 C13 1.413 . S
C12 C14 1.360 . S
C13 C12 1.413 . S
C13 C17 1.429 1_655 S
C14 C12 1.360 . S
C14 C15 1.372 . S
C15 H10 0.928 . S
C15 C14 1.372 . S
C15 C16 1.404 . S
C16 C15 1.404 . S
C16 C17 1.390 1_655 S
C17 H11 0.930 . S
C17 C13 1.429 1_455 S
C17 C16 1.390 1_455 S
H18 C21 0.931 . S
H19 C24 0.928 . S
H20 C26 0.930 . S
C21 H18 0.931 . S
C21 C22 1.413 . S
C21 C23 1.360 . S
C22 C21 1.413 . S
C22 C26 1.429 1_565 S
C23 C21 1.360 . S
C23 C24 1.372 . S
C24 H19 0.928 . S
C24 C23 1.372 . S
C24 C25 1.404 . S
C25 C24 1.404 . S
C25 C26 1.390 1_565 S
C26 H20 0.930 . S
C26 C22 1.429 1_545 S
C26 C25 1.390 1_545 S
H27 C30 0.931 . S
H28 C33 0.928 . S
H29 C35 0.930 . S
C30 H27 0.931 . S
C30 C31 1.413 . S
C30 C32 1.360 . S
C31 C30 1.413 . S
C31 C35 1.429 . S
C32 C30 1.360 . S
C32 C33 1.372 . S
C33 H28 0.928 . S
C33 C32 1.372 . S
C33 C34 1.404 . S
C34 C33 1.404 . S
C34 C35 1.391 . S
C35 H29 0.930 . S
C35 C31 1.429 . S
C35 C34 1.391 . S
H36 C39 0.931 1_556 S
H37 C42 0.928 . S
H38 C44 0.930 . S
C39 H36 0.931 1_554 S
C39 C40 1.413 1_554 S
C39 C41 1.360 . S
C40 C39 1.413 1_556 S
C40 C44 1.429 . S
C41 C39 1.360 . S
C41 C42 1.372 . S
C42 H37 0.928 . S
C42 C41 1.372 . S
C42 C43 1.404 . S
C43 C42 1.404 . S
C43 C44 1.391 1_554 S
C44 H38 0.930 . S
C44 C40 1.429 . S
C44 C43 1.391 1_556 S
H45 C48 0.931 1_556 S
H46 C51 0.928 . S
H47 C53 0.930 . S
C48 H45 0.931 1_554 S
C48 C49 1.413 1_554 S
C48 C50 1.360 . S
C49 C48 1.413 1_556 S
C49 C53 1.429 1_655 S
C50 C48 1.360 . S
C50 C51 1.372 . S
C51 H46 0.928 . S
C51 C50 1.372 . S
C51 C52 1.404 . S
C52 C51 1.404 . S
C52 C53 1.391 1_654 S
C53 H47 0.930 . S
C53 C49 1.429 1_455 S
C53 C52 1.391 1_456 S
H54 C57 0.931 1_556 S
H55 C60 0.928 . S
H56 C62 0.930 . S
C57 H54 0.931 1_554 S
C57 C58 1.413 1_554 S
C57 C59 1.360 . S
C58 C57 1.413 1_556 S
C58 C62 1.429 1_565 S
C59 C57 1.360 . S
C59 C60 1.372 . S
C60 H55 0.928 . S
C60 C59 1.372 . S
C60 C61 1.404 . S
C61 C60 1.404 . S
C61 C62 1.391 1_564 S
C62 H56 0.930 . S
C62 C58 1.429 1_545 S
C62 C61 1.391 1_546 S
H63 C66 0.930 1_556 S
H64 C69 0.928 . S
H65 C71 0.930 . S
C66 H63 0.930 1_554 S
C66 C67 1.418 . S
C66 C68 1.357 1_554 S
C67 C66 1.418 . S
C67 C71 1.429 . S
C68 C66 1.357 1_556 S
C68 C69 1.372 . S
C69 H64 0.928 . S
C69 C68 1.372 . S
C69 C70 1.404 1_556 S
C70 C69 1.404 1_554 S
C70 C71 1.391 . S
C71 H65 0.930 . S
C71 C67 1.429 . S
C71 C70 1.391 . S
Ho72 C75 2.811 1_556 S
Ho72 O92 2.322 . S
Ho72 O94 2.378 . S
Ho72 O95 2.524 1_556 S
Ho72 O96 2.381 . S
Ho72 O97 2.669 1_565 S
Ho72 O99 2.346 1_565 S
Ho72 O103 2.305 1_455 S
Ho73 C84 2.811 . S
Ho73 O93 2.346 1_545 S
Ho73 O97 2.305 1_655 S
Ho73 O98 2.322 . S
Ho73 O100 2.378 . S
Ho73 O101 2.524 . S
Ho73 O102 2.381 . S
Ho73 O103 2.669 1_545 S
C74 O92 1.259 1_655 S
C74 O93 1.268 . S
C75 Ho72 2.811 1_554 S
C75 C76 1.488 . S
C75 O94 1.215 1_554 S
C75 O95 1.289 . S
C76 C75 1.488 . S
C76 C77 1.348 . S
C76 C81 1.413 . S
C77 C76 1.348 . S
C77 C78 1.442 . S
C77 H104 0.956 . S
C78 C77 1.442 . S
C78 C79 1.381 . S
C78 H105 0.931 . S
C79 C78 1.381 . S
C79 C80 1.321 . S
C80 C79 1.321 . S
C80 C81 1.403 . S
C80 H106 0.934 . S
C81 C76 1.413 . S
C81 C80 1.403 . S
C81 H107 0.930 . S
C82 O96 1.275 . S
C82 O97 1.256 1_565 S
C83 O98 1.259 1_455 S
C83 O99 1.268 . S
C84 Ho73 2.811 . S
C84 C85 1.488 . S
C84 O100 1.215 . S
C84 O101 1.289 . S
C85 C84 1.488 . S
C85 C86 1.348 . S
C85 C90 1.413 . S
C86 C85 1.348 . S
C86 C87 1.442 . S
C86 H108 0.950 . S
C87 C86 1.442 . S
C87 C88 1.381 . S
C87 H109 0.931 . S
C88 C87 1.381 . S
C88 C89 1.321 . S
C89 C88 1.321 . S
C89 C90 1.403 . S
C89 H110 0.934 . S
C90 C85 1.413 . S
C90 C89 1.403 . S
C90 H111 0.930 . S
C91 O102 1.275 . S
C91 O103 1.256 1_545 S
O92 Ho72 2.322 . S
O92 C74 1.259 1_455 S
O93 Ho73 2.346 1_565 S
O93 C74 1.268 . S
O94 Ho72 2.378 . S
O94 C75 1.215 1_556 S
O95 Ho72 2.524 1_554 S
O95 C75 1.289 . S
O96 Ho72 2.381 . S
O96 C82 1.275 . S
O97 Ho72 2.669 1_545 S
O97 Ho73 2.305 1_455 S
O97 C82 1.256 1_545 S
O98 Ho73 2.322 . S
O98 C83 1.259 1_655 S
O99 Ho72 2.346 1_545 S
O99 C83 1.268 . S
O100 Ho73 2.378 . S
O100 C84 1.215 . S
O101 Ho73 2.524 . S
O101 C84 1.289 . S
O102 Ho73 2.381 . S
O102 C91 1.275 . S
O103 Ho72 2.305 1_655 S
O103 Ho73 2.669 1_565 S
O103 C91 1.256 1_565 S
H104 C77 0.956 . S
H105 C78 0.931 . S
H106 C80 0.934 . S
H107 C81 0.930 . S
H108 C86 0.950 . S
H109 C87 0.931 . S
H110 C89 0.934 . S
H111 C90 0.930 . S
Ho112 C115 2.811 1_556 S
Ho112 O132 2.322 . S
Ho112 O134 2.378 . S
Ho112 O135 2.524 1_556 S
Ho112 O136 2.381 . S
Ho112 O137 2.669 . S
Ho112 O139 2.346 . S
Ho112 O143 2.305 1_545 S
Ho113 C124 2.811 . S
Ho113 O133 2.346 . S
Ho113 O137 2.305 1_565 S
Ho113 O138 2.322 . S
Ho113 O140 2.378 . S
Ho113 O141 2.524 . S
Ho113 O142 2.381 . S
Ho113 O143 2.669 . S
C114 O132 1.259 1_565 S
C114 O133 1.268 . S
C115 Ho112 2.811 1_554 S
C115 C116 1.488 . S
C115 O134 1.215 1_554 S
C115 O135 1.289 . S
C116 C115 1.488 . S
C116 C117 1.348 . S
C116 C121 1.413 . S
C117 C116 1.348 . S
C117 C118 1.442 . S
C117 H144 0.930 1_545 S
C118 C117 1.442 . S
C118 C119 1.381 . S
C118 H145 0.931 . S
C119 C118 1.381 . S
C119 C120 1.321 . S
C120 C119 1.321 . S
C120 C121 1.403 . S
C120 H146 0.934 . S
C121 C116 1.413 . S
C121 C120 1.403 . S
C121 H147 0.930 . S
C122 O136 1.275 . S
C122 O137 1.256 . S
C123 O138 1.259 1_545 S
C123 O139 1.268 . S
C124 Ho113 2.811 . S
C124 C125 1.488 . S
C124 O140 1.215 . S
C124 O141 1.289 . S
C125 C124 1.488 . S
C125 C126 1.348 . S
C125 C130 1.413 . S
C126 C125 1.348 . S
C126 C127 1.442 . S
C126 H148 0.930 1_565 S
C127 C126 1.442 . S
C127 C128 1.381 . S
C127 H149 0.931 . S
C128 C127 1.381 . S
C128 C129 1.321 . S
C129 C128 1.321 . S
C129 C130 1.403 . S
C129 H150 0.934 . S
C130 C125 1.413 . S
C130 C129 1.403 . S
C130 H151 0.930 . S
C131 O142 1.275 . S
C131 O143 1.256 . S
O132 Ho112 2.322 . S
O132 C114 1.259 1_545 S
O133 Ho113 2.346 . S
O133 C114 1.268 . S
O134 Ho112 2.378 . S
O134 C115 1.215 1_556 S
O135 Ho112 2.524 1_554 S
O135 C115 1.289 . S
O136 Ho112 2.381 . S
O136 C122 1.275 . S
O137 Ho112 2.669 . S
O137 Ho113 2.305 1_545 S
O137 C122 1.256 . S
O138 Ho113 2.322 . S
O138 C123 1.259 1_565 S
O139 Ho112 2.346 . S
O139 C123 1.268 . S
O140 Ho113 2.378 . S
O140 C124 1.215 . S
O141 Ho113 2.524 . S
O141 C124 1.289 . S
O142 Ho113 2.381 . S
O142 C131 1.275 . S
O143 Ho112 2.305 1_565 S
O143 Ho113 2.669 . S
O143 C131 1.256 . S
H144 C117 0.930 1_565 S
H145 C118 0.931 . S
H146 C120 0.934 . S
H147 C121 0.930 . S
H148 C126 0.930 1_545 S
H149 C127 0.931 . S
H150 C129 0.934 . S
H151 C130 0.930 . S
Ho152 C155 2.811 1_556 S
Ho152 O172 2.322 . S
Ho152 O174 2.378 . S
Ho152 O175 2.524 1_556 S
Ho152 O176 2.381 . S
Ho152 O177 2.669 . S
Ho152 O179 2.346 . S
Ho152 O183 2.305 . S
Ho153 C164 2.811 . S
Ho153 O173 2.346 . S
Ho153 O177 2.305 . S
Ho153 O178 2.322 . S
Ho153 O180 2.378 . S
Ho153 O181 2.524 . S
Ho153 O182 2.381 . S
Ho153 O183 2.669 . S
C154 O172 1.259 . S
C154 O173 1.268 . S
C155 Ho152 2.811 1_554 S
C155 C156 1.488 . S
C155 O174 1.215 1_554 S
C155 O175 1.289 . S
C156 C155 1.488 . S
C156 C157 1.348 . S
C156 C161 1.413 . S
C157 C156 1.348 . S
C157 C158 1.442 . S
C157 H184 0.930 . S
C158 C157 1.442 . S
C158 C159 1.381 . S
C158 H185 0.931 . S
C159 C158 1.381 . S
C159 C160 1.321 . S
C160 C159 1.321 . S
C160 C161 1.403 . S
C160 H186 0.934 . S
C161 C156 1.413 . S
C161 C160 1.403 . S
C161 H187 0.930 . S
C162 O176 1.275 . S
C162 O177 1.256 . S
C163 O178 1.259 . S
C163 O179 1.268 . S
C164 Ho153 2.811 . S
C164 C165 1.488 . S
C164 O180 1.215 . S
C164 O181 1.289 . S
C165 C164 1.488 . S
C165 C166 1.348 . S
C165 C170 1.413 . S
C166 C165 1.348 . S
C166 C167 1.442 . S
C166 H188 0.930 . S
C167 C166 1.442 . S
C167 C168 1.381 . S
C167 H189 0.931 . S
C168 C167 1.381 . S
C168 C169 1.321 . S
C169 C168 1.321 . S
C169 C170 1.403 . S
C169 H190 0.934 . S
C170 C165 1.413 . S
C170 C169 1.403 . S
C170 H191 0.930 . S
C171 O182 1.275 . S
C171 O183 1.256 . S
O172 Ho152 2.322 . S
O172 C154 1.259 . S
O173 Ho153 2.346 . S
O173 C154 1.268 . S
O174 Ho152 2.378 . S
O174 C155 1.215 1_556 S
O175 Ho152 2.524 1_554 S
O175 C155 1.289 . S
O176 Ho152 2.381 . S
O176 C162 1.275 . S
O177 Ho152 2.669 . S
O177 Ho153 2.305 . S
O177 C162 1.256 . S
O178 Ho153 2.322 . S
O178 C163 1.259 . S
O179 Ho152 2.346 . S
O179 C163 1.268 . S
O180 Ho153 2.378 . S
O180 C164 1.215 . S
O181 Ho153 2.524 . S
O181 C164 1.289 . S
O182 Ho153 2.381 . S
O182 C171 1.275 . S
O183 Ho152 2.305 . S
O183 Ho153 2.669 . S
O183 C171 1.256 . S
H184 C157 0.930 . S
H185 C158 0.931 . S
H186 C160 0.934 . S
H187 C161 0.930 . S
H188 C166 0.930 . S
H189 C167 0.931 . S
H190 C169 0.934 . S
H191 C170 0.930 . S
Ho192 C195 2.811 1_556 S
Ho192 O212 2.322 . S
Ho192 O214 2.378 . S
Ho192 O215 2.524 1_556 S
Ho192 O216 2.381 . S
Ho192 O217 2.669 1_655 S
Ho192 O219 2.346 1_655 S
Ho192 O223 2.305 . S
Ho193 C204 2.811 . S
Ho193 O213 2.346 1_455 S
Ho193 O217 2.305 . S
Ho193 O218 2.322 . S
Ho193 O220 2.378 . S
Ho193 O221 2.524 . S
Ho193 O222 2.381 . S
Ho193 O223 2.669 1_455 S
C194 O212 1.259 . S
C194 O213 1.268 . S
C195 Ho192 2.811 1_554 S
C195 C196 1.488 . S
C195 O214 1.215 1_554 S
C195 O215 1.289 . S
C196 C195 1.488 . S
C196 C197 1.348 . S
C196 C201 1.413 . S
C197 C196 1.348 . S
C197 C198 1.442 . S
C197 H224 0.930 . S
C198 C197 1.442 . S
C198 C199 1.381 . S
C198 H225 0.931 . S
C199 C198 1.381 . S
C199 C200 1.321 . S
C200 C199 1.321 . S
C200 C201 1.403 . S
C200 H226 0.934 . S
C201 C196 1.413 . S
C201 C200 1.403 . S
C201 H227 0.930 . S
C202 O216 1.274 . S
C202 O217 1.257 1_655 S
C203 O218 1.259 . S
C203 O219 1.268 . S
C204 Ho193 2.811 . S
C204 C205 1.488 . S
C204 O220 1.215 . S
C204 O221 1.289 . S
C205 C204 1.488 . S
C205 C206 1.348 . S
C205 C210 1.413 . S
C206 C205 1.348 . S
C206 C207 1.442 . S
C206 H228 0.930 . S
C207 C206 1.442 . S
C207 C208 1.381 . S
C207 H229 0.931 . S
C208 C207 1.381 . S
C208 C209 1.321 . S
C209 C208 1.321 . S
C209 C210 1.403 . S
C209 H230 0.934 . S
C210 C205 1.413 . S
C210 C209 1.403 . S
C210 H231 0.930 . S
C211 O222 1.277 . S
C211 O223 1.255 1_455 S
O212 Ho192 2.322 . S
O212 C194 1.259 . S
O213 Ho193 2.346 1_655 S
O213 C194 1.268 . S
O214 Ho192 2.378 . S
O214 C195 1.215 1_556 S
O215 Ho192 2.524 1_554 S
O215 C195 1.289 . S
O216 Ho192 2.381 . S
O216 C202 1.274 . S
O217 Ho192 2.669 1_455 S
O217 Ho193 2.305 . S
O217 C202 1.257 1_455 S
O218 Ho193 2.322 . S
O218 C203 1.259 . S
O219 Ho192 2.346 1_455 S
O219 C203 1.268 . S
O220 Ho193 2.378 . S
O220 C204 1.215 . S
O221 Ho193 2.524 . S
O221 C204 1.289 . S
O222 Ho193 2.381 . S
O222 C211 1.277 . S
O223 Ho192 2.305 . S
O223 Ho193 2.669 1_655 S
O223 C211 1.255 1_655 S
H224 C197 0.930 . S
H225 C198 0.931 . S
H226 C200 0.934 . S
H227 C201 0.930 . S
H228 C206 0.930 . S
H229 C207 0.931 . S
H230 C209 0.934 . S
H231 C210 0.930 . S
C232 C233 1.368 . S
C232 C238 1.379 . S
C232 N240 1.356 . S
C233 C232 1.368 . S
C233 C239 1.358 1_545 S
C234 C235 1.349 1_565 S
C234 C239 1.379 . S
C234 N241 1.356 . S
C235 C234 1.349 1_545 S
C235 C238 1.376 . S
N236 C238 1.356 . S
N236 H248 0.984 . S
N236 H249 0.985 . S
N237 C239 1.356 . S
N237 H242 0.984 . S
N237 H243 0.985 . S
C238 C232 1.379 . S
C238 C235 1.376 . S
C238 N236 1.356 . S
C239 C233 1.358 1_565 S
C239 C234 1.379 . S
C239 N237 1.356 . S
N240 C232 1.356 . S
N240 H246 0.984 . S
N240 H247 0.984 . S
N241 C234 1.356 . S
N241 H244 0.984 . S
N241 H245 0.985 . S
H242 N237 0.984 . S
H243 N237 0.985 . S
H244 N241 0.984 . S
H245 N241 0.985 . S
H246 N240 0.984 . S
H247 N240 0.984 . S
H248 N236 0.984 . S
H249 N236 0.985 . S
C250 C251 1.363 . S
C250 C256 1.379 . S
C250 N258 1.356 . S
C251 C250 1.363 . S
C251 C257 1.363 . S
C252 C253 1.363 . S
C252 C257 1.379 . S
C252 N259 1.356 . S
C253 C252 1.363 . S
C253 C256 1.363 . S
N254 C256 1.356 . S
N254 H266 0.984 . S
N254 H267 0.985 . S
N255 C257 1.356 . S
N255 H260 0.984 . S
N255 H261 0.985 . S
C256 C250 1.379 . S
C256 C253 1.363 . S
C256 N254 1.356 . S
C257 C251 1.363 . S
C257 C252 1.379 . S
C257 N255 1.356 . S
N258 C250 1.356 . S
N258 H264 0.984 . S
N258 H265 0.984 . S
N259 C252 1.356 . S
N259 H262 0.984 . S
N259 H263 0.985 . S
H260 N255 0.984 . S
H261 N255 0.985 . S
H262 N259 0.984 . S
H263 N259 0.985 . S
H264 N258 0.984 . S
H265 N258 0.984 . S
H266 N254 0.984 . S
H267 N254 0.985 . S
C268 C269 1.363 . S
C268 C274 1.379 . S
C268 N276 1.356 . S
C269 C268 1.363 . S
C269 C275 1.363 . S
C270 C271 1.363 . S
C270 C275 1.379 . S
C270 N277 1.356 . S
C271 C270 1.363 . S
C271 C274 1.363 . S
N272 C274 1.356 . S
N272 H284 0.984 . S
N272 H285 0.985 . S
N273 C275 1.356 . S
N273 H278 0.984 . S
N273 H279 0.985 . S
C274 C268 1.379 . S
C274 C271 1.363 . S
C274 N272 1.356 . S
C275 C269 1.363 . S
C275 C270 1.379 . S
C275 N273 1.356 . S
N276 C268 1.356 . S
N276 H282 0.984 . S
N276 H283 0.984 . S
N277 C270 1.356 . S
N277 H280 0.984 . S
N277 H281 0.985 . S
H278 N273 0.984 . S
H279 N273 0.985 . S
H280 N277 0.984 . S
H281 N277 0.985 . S
H282 N276 0.984 . S
H283 N276 0.984 . S
H284 N272 0.984 . S
H285 N272 0.985 . S
C286 C287 1.363 . S
C286 C292 1.379 . S
C286 N294 1.356 . S
C287 C286 1.363 . S
C287 C293 1.363 1_455 S
C288 C289 1.363 1_655 S
C288 C293 1.379 . S
C288 N295 1.356 . S
C289 C288 1.363 1_455 S
C289 C292 1.363 . S
N290 C292 1.356 . S
N290 H302 0.984 . S
N290 H303 0.985 . S
N291 C293 1.356 . S
N291 H296 0.984 . S
N291 H297 0.985 . S
C292 C286 1.379 . S
C292 C289 1.363 . S
C292 N290 1.356 . S
C293 C287 1.363 1_655 S
C293 C288 1.379 . S
C293 N291 1.356 . S
N294 C286 1.356 . S
N294 H300 0.984 . S
N294 H301 0.984 . S
N295 C288 1.356 . S
N295 H298 0.984 . S
N295 H299 0.985 . S
H296 N291 0.984 . S
H297 N291 0.985 . S
H298 N295 0.984 . S
H299 N295 0.985 . S
H300 N294 0.984 . S
H301 N294 0.984 . S
H302 N290 0.984 . S
H303 N290 0.985 . S
C304 C305 1.363 1_545 S
C304 C310 1.379 . S
C304 N312 1.356 . S
C305 C304 1.363 1_565 S
C305 C311 1.363 . S
C306 C307 1.372 . S
C306 C311 1.379 . S
C306 N313 1.356 . S
C307 C306 1.372 . S
C307 C310 1.354 1_565 S
N308 C310 1.356 . S
N308 H320 0.984 . S
N308 H321 0.985 1_554 S
N309 C311 1.356 . S
N309 H314 0.984 . S
N309 H315 0.985 . S
C310 C304 1.379 . S
C310 C307 1.354 1_545 S
C310 N308 1.356 . S
C311 C305 1.363 . S
C311 C306 1.379 . S
C311 N309 1.356 . S
N312 C304 1.356 . S
N312 H318 0.984 . S
N312 H319 0.984 . S
N313 C306 1.356 . S
N313 H316 0.984 . S
N313 H317 0.985 . S
H314 N309 0.984 . S
H315 N309 0.985 . S
H316 N313 0.984 . S
H317 N313 0.985 . S
H318 N312 0.984 . S
H319 N312 0.984 . S
H320 N308 0.984 . S
H321 N308 0.985 1_556 S
C322 C323 1.363 . S
C322 C328 1.379 . S
C322 N330 1.356 . S
C323 C322 1.363 . S
C323 C329 1.363 . S
C324 C325 1.363 . S
C324 C329 1.379 . S
C324 N331 1.356 . S
C325 C324 1.363 . S
C325 C328 1.363 . S
N326 C328 1.356 . S
N326 H338 0.984 . S
N326 H339 0.985 . S
N327 C329 1.356 . S
N327 H332 0.984 . S
N327 H333 0.985 . S
C328 C322 1.379 . S
C328 C325 1.363 . S
C328 N326 1.356 . S
C329 C323 1.363 . S
C329 C324 1.379 . S
C329 N327 1.356 . S
N330 C322 1.356 . S
N330 H336 0.984 . S
N330 H337 0.984 . S
N331 C324 1.356 . S
N331 H334 0.984 1_554 S
N331 H335 0.985 . S
H332 N327 0.984 . S
H333 N327 0.985 . S
H334 N331 0.984 1_556 S
H335 N331 0.985 . S
H336 N330 0.984 . S
H337 N330 0.984 . S
H338 N326 0.984 . S
H339 N326 0.985 . S
C340 C341 1.363 . S
C340 C346 1.379 . S
C340 N348 1.356 . S
C341 C340 1.363 . S
C341 C347 1.363 . S
C342 C343 1.363 . S
C342 C347 1.379 . S
C342 N349 1.356 . S
C343 C342 1.363 . S
C343 C346 1.363 . S
N344 C346 1.356 . S
N344 H356 0.984 . S
N344 H357 0.985 . S
N345 C347 1.356 . S
N345 H350 0.984 . S
N345 H351 0.985 . S
C346 C340 1.379 . S
C346 C343 1.363 . S
C346 N344 1.356 . S
C347 C341 1.363 . S
C347 C342 1.379 . S
C347 N345 1.356 . S
N348 C340 1.356 . S
N348 H354 0.984 . S
N348 H355 0.984 . S
N349 C342 1.356 . S
N349 H352 0.984 1_554 S
N349 H353 0.985 . S
H350 N345 0.984 . S
H351 N345 0.985 . S
H352 N349 0.984 1_556 S
H353 N349 0.985 . S
H354 N348 0.984 . S
H355 N348 0.984 . S
H356 N344 0.984 . S
H357 N344 0.985 . S
C358 C359 1.363 1_455 S
C358 C364 1.379 . S
C358 N366 1.356 . S
C359 C358 1.363 1_655 S
C359 C365 1.363 . S
C360 C361 1.363 . S
C360 C365 1.379 . S
C360 N367 1.356 . S
C361 C360 1.363 . S
C361 C364 1.363 1_655 S
N362 C364 1.356 . S
N362 H374 0.984 . S
N362 H375 0.985 1_554 S
N363 C365 1.356 . S
N363 H368 0.984 . S
N363 H369 0.985 . S
C364 C358 1.379 . S
C364 C361 1.363 1_455 S
C364 N362 1.356 . S
C365 C359 1.363 . S
C365 C360 1.379 . S
C365 N363 1.356 . S
N366 C358 1.356 . S
N366 H372 0.984 . S
N366 H373 0.984 . S
N367 C360 1.356 . S
N367 H370 0.984 . S
N367 H371 0.985 . S
H368 N363 0.984 . S
H369 N363 0.985 . S
H370 N367 0.984 . S
H371 N367 0.985 . S
H372 N366 0.984 . S
H373 N366 0.984 . S
H374 N362 0.984 . S
H375 N362 0.985 1_556 S
C376 C377 1.363 . S
C376 C382 1.379 . S
C376 N384 1.356 . S
C377 C376 1.363 . S
C377 C383 1.363 . S
C378 C379 1.363 . S
C378 C383 1.379 . S
C378 N385 1.356 . S
C379 C378 1.363 . S
C379 C382 1.363 . S
N380 C382 1.356 . S
N380 H392 0.984 . S
N380 H393 0.985 . S
N381 C383 1.356 1_455 S
N381 H386 0.984 . S
N381 H387 0.985 . S
C382 C376 1.379 . S
C382 C379 1.363 . S
C382 N380 1.356 . S
C383 C377 1.363 . S
C383 C378 1.379 . S
C383 N381 1.356 1_655 S
N384 C376 1.356 . S
N384 H390 0.984 1_554 S
N384 H391 0.983 1_554 S
N385 C378 1.356 . S
N385 H388 0.984 . S
N385 H389 0.985 . S
H386 N381 0.984 . S
H387 N381 0.985 . S
H388 N385 0.984 . S
H389 N385 0.985 . S
H390 N384 0.984 1_556 S
H391 N384 0.983 1_556 S
H392 N380 0.984 . S
H393 N380 0.985 . S
C394 C395 1.360 1_545 S
C394 C400 1.365 1_545 S
C394 N402 1.375 . S
C395 C394 1.360 1_565 S
C395 C401 1.363 . S
C396 C397 1.363 . S
C396 C401 1.379 . S
C396 N403 1.356 . S
C397 C396 1.363 . S
C397 C400 1.363 . S
N398 C400 1.356 . S
N398 H410 0.984 . S
N398 H411 0.985 . S
N399 C401 1.356 . S
N399 H404 0.984 . S
N399 H405 0.985 . S
C400 C394 1.365 1_565 S
C400 C397 1.363 . S
C400 N398 1.356 . S
C401 C395 1.363 . S
C401 C396 1.379 . S
C401 N399 1.356 . S
N402 C394 1.375 . S
N402 H408 0.984 . S
N402 H409 0.984 . S
N403 C396 1.356 . S
N403 H406 0.984 . S
N403 H407 0.985 . S
H404 N399 0.984 . S
H405 N399 0.985 . S
H406 N403 0.984 . S
H407 N403 0.985 . S
H408 N402 0.984 . S
H409 N402 0.984 . S
H410 N398 0.984 . S
H411 N398 0.985 . S
C412 C413 1.363 . S
C412 C418 1.379 . S
C412 N420 1.356 . S
C413 C412 1.363 . S
C413 C419 1.363 . S
C414 C415 1.363 . S
C414 C419 1.379 . S
C414 N421 1.356 . S
C415 C414 1.363 . S
C415 C418 1.363 . S
N416 C418 1.356 . S
N416 H428 0.984 . S
N416 H429 0.985 . S
N417 C419 1.356 . S
N417 H422 0.984 . S
N417 H423 0.985 . S
C418 C412 1.379 . S
C418 C415 1.363 . S
C418 N416 1.356 . S
C419 C413 1.363 . S
C419 C414 1.379 . S
C419 N417 1.356 . S
N420 C412 1.356 . S
N420 H426 0.984 1_554 S
N420 H427 0.984 1_554 S
N421 C414 1.356 . S
N421 H424 0.984 . S
N421 H425 0.985 . S
H422 N417 0.984 . S
H423 N417 0.985 . S
H424 N421 0.984 . S
H425 N421 0.985 . S
H426 N420 0.984 1_556 S
H427 N420 0.984 1_556 S
H428 N416 0.984 . S
H429 N416 0.985 . S
C430 C431 1.363 . S
C430 C436 1.379 . S
C430 N438 1.356 . S
C431 C430 1.363 . S
C431 C437 1.363 . S
C432 C433 1.363 . S
C432 C437 1.379 . S
C432 N439 1.356 . S
C433 C432 1.363 . S
C433 C436 1.363 . S
N434 C436 1.356 . S
N434 H446 0.984 . S
N434 H447 0.985 . S
N435 C437 1.356 . S
N435 H440 0.984 . S
N435 H441 0.985 . S
C436 C430 1.379 . S
C436 C433 1.363 . S
C436 N434 1.356 . S
C437 C431 1.363 . S
C437 C432 1.379 . S
C437 N435 1.356 . S
N438 C430 1.356 . S
N438 H444 0.984 . S
N438 H445 0.984 . S
N439 C432 1.356 . S
N439 H442 0.984 . S
N439 H443 0.985 . S
H440 N435 0.984 . S
H441 N435 0.985 . S
H442 N439 0.984 . S
H443 N439 0.985 . S
H444 N438 0.984 . S
H445 N438 0.984 . S
H446 N434 0.984 . S
H447 N434 0.985 . S
C448 C449 1.363 . S
C448 C454 1.379 . S
C448 N456 1.356 . S
C449 C448 1.363 . S
C449 C455 1.363 . S
C450 C451 1.363 . S
C450 C455 1.379 . S
C450 N457 1.356 . S
C451 C450 1.363 . S
C451 C454 1.363 . S
N452 C454 1.356 . S
N452 H464 0.984 . S
N452 H465 0.985 . S
N453 C455 1.356 1_655 S
N453 H458 0.984 . S
N453 H459 0.985 . S
C454 C448 1.379 . S
C454 C451 1.363 . S
C454 N452 1.356 . S
C455 C449 1.363 . S
C455 C450 1.379 . S
C455 N453 1.356 1_455 S
N456 C448 1.356 . S
N456 H462 0.984 . S
N456 H463 0.979 1_455 S
N457 C450 1.356 . S
N457 H460 0.984 . S
N457 H461 0.985 1_554 S
H458 N453 0.984 . S
H459 N453 0.985 . S
H460 N457 0.984 . S
H461 N457 0.985 1_556 S
H462 N456 0.984 . S
H463 N456 0.979 1_655 S
H464 N452 0.984 . S
H465 N452 0.985 . S
C466 C467 1.363 . S
C466 C472 1.379 . S
C466 N474 1.356 . S
C467 C466 1.363 . S
C467 C473 1.363 . S
C468 C469 1.363 . S
C468 C473 1.379 . S
C468 N475 1.356 . S
C469 C468 1.363 . S
C469 C472 1.363 . S
N470 C472 1.356 . S
N470 H482 0.984 . S
N470 H483 0.985 . S
N471 C473 1.356 1_565 S
N471 H476 0.984 . S
N471 H477 0.985 . S
C472 C466 1.379 . S
C472 C469 1.363 . S
C472 N470 1.356 . S
C473 C467 1.363 . S
C473 C468 1.379 . S
C473 N471 1.356 1_545 S
N474 C466 1.356 . S
N474 H480 0.984 . S
N474 H481 0.984 1_545 S
N475 C468 1.356 . S
N475 H478 0.984 . S
N475 H479 0.985 . S
H476 N471 0.984 . S
H477 N471 0.985 . S
H478 N475 0.984 . S
H479 N475 0.985 . S
H480 N474 0.984 . S
H481 N474 0.984 1_565 S
H482 N470 0.984 . S
H483 N470 0.985 . S
C484 C485 1.363 . S
C484 C490 1.379 . S
C484 N492 1.356 . S
C485 C484 1.363 . S
C485 C491 1.363 . S
C486 C487 1.363 . S
C486 C491 1.379 . S
C486 N493 1.356 . S
C487 C486 1.363 . S
C487 C490 1.363 . S
N488 C490 1.356 . S
N488 H500 0.984 . S
N488 H501 0.985 . S
N489 C491 1.356 . S
N489 H494 0.984 . S
N489 H495 0.985 . S
C490 C484 1.379 . S
C490 C487 1.363 . S
C490 N488 1.356 . S
C491 C485 1.363 . S
C491 C486 1.379 . S
C491 N489 1.356 . S
N492 C484 1.356 . S
N492 H498 0.984 . S
N492 H499 0.984 . S
N493 C486 1.356 . S
N493 H496 0.984 . S
N493 H497 0.985 . S
H494 N489 0.984 . S
H495 N489 0.985 . S
H496 N493 0.984 . S
H497 N493 0.985 . S
H498 N492 0.984 . S
H499 N492 0.984 . S
H500 N488 0.984 . S
H501 N488 0.985 . S
C502 C503 1.363 . S
C502 C508 1.379 . S
C502 N510 1.356 . S
C503 C502 1.363 . S
C503 C509 1.363 . S
C504 C505 1.363 . S
C504 C509 1.379 . S
C504 N511 1.356 . S
C505 C504 1.363 . S
C505 C508 1.363 . S
N506 C508 1.356 . S
N506 H518 0.984 . S
N506 H519 0.985 . S
N507 C509 1.356 . S
N507 H512 0.984 . S
N507 H513 0.985 . S
C508 C502 1.379 . S
C508 C505 1.363 . S
C508 N506 1.356 . S
C509 C503 1.363 . S
C509 C504 1.379 . S
C509 N507 1.356 . S
N510 C502 1.356 . S
N510 H516 0.984 . S
N510 H517 0.984 . S
N511 C504 1.356 . S
N511 H514 0.984 . S
N511 H515 0.985 . S
H512 N507 0.984 . S
H513 N507 0.985 . S
H514 N511 0.984 . S
H515 N511 0.985 . S
H516 N510 0.984 . S
H517 N510 0.984 . S
H518 N506 0.984 . S
H519 N506 0.985 . S
C520 C521 1.363 1_655 S
C520 C526 1.379 . S
C520 N528 1.356 . S
C521 C520 1.363 1_455 S
C521 C527 1.363 . S
C522 C523 1.363 . S
C522 C527 1.379 . S
C522 N529 1.356 . S
C523 C522 1.363 . S
C523 C526 1.363 1_455 S
N524 C526 1.356 . S
N524 H536 0.984 . S
N524 H537 0.985 . S
N525 C527 1.356 1_554 S
N525 H530 0.984 1_554 S
N525 H531 0.985 . S
C526 C520 1.379 . S
C526 C523 1.363 1_655 S
C526 N524 1.356 . S
C527 C521 1.363 . S
C527 C522 1.379 . S
C527 N525 1.356 1_556 S
N528 C520 1.356 . S
N528 H534 0.984 . S
N528 H535 0.984 . S
N529 C522 1.356 . S
N529 H532 0.984 . S
N529 H533 0.985 1_556 S
H530 N525 0.984 1_556 S
H531 N525 0.985 . S
H532 N529 0.984 . S
H533 N529 0.985 1_554 S
H534 N528 0.984 . S
H535 N528 0.984 . S
H536 N524 0.984 . S
H537 N524 0.985 . S
C538 C539 1.363 . S
C538 C544 1.379 . S
C538 N546 1.356 . S
C539 C538 1.363 . S
C539 C545 1.363 1_545 S
C540 C541 1.363 1_565 S
C540 C545 1.379 . S
C540 N547 1.356 . S
C541 C540 1.363 1_545 S
C541 C544 1.363 . S
N542 C544 1.356 . S
N542 H554 0.984 . S
N542 H555 0.985 . S
N543 C545 1.356 . S
N543 H548 0.984 . S
N543 H549 0.985 . S
C544 C538 1.379 . S
C544 C541 1.363 . S
C544 N542 1.356 . S
C545 C539 1.363 1_565 S
C545 C540 1.379 . S
C545 N543 1.356 . S
N546 C538 1.356 . S
N546 H552 0.984 . S
N546 H553 0.984 . S
N547 C540 1.356 . S
N547 H550 0.984 . S
N547 H551 0.985 . S
H548 N543 0.984 . S
H549 N543 0.985 . S
H550 N547 0.984 . S
H551 N547 0.985 . S
H552 N546 0.984 . S
H553 N546 0.984 . S
H554 N542 0.984 . S
H555 N542 0.985 . S
C556 C557 1.363 . S
C556 C562 1.379 . S
C556 N564 1.356 . S
C557 C556 1.363 . S
C557 C563 1.363 . S
C558 C559 1.363 . S
C558 C563 1.379 . S
C558 N565 1.356 . S
C559 C558 1.363 . S
C559 C562 1.363 . S
N560 C562 1.356 . S
N560 H572 0.984 1_556 S
N560 H573 0.985 . S
N561 C563 1.356 . S
N561 H566 0.984 . S
N561 H567 0.985 . S
C562 C556 1.379 . S
C562 C559 1.363 . S
C562 N560 1.356 . S
C563 C557 1.363 . S
C563 C558 1.379 . S
C563 N561 1.356 . S
N564 C556 1.356 . S
N564 H570 0.984 1_556 S
N564 H571 0.984 . S
N565 C558 1.356 . S
N565 H568 0.984 . S
N565 H569 0.985 . S
H566 N561 0.984 . S
H567 N561 0.985 . S
H568 N565 0.984 . S
H569 N565 0.985 . S
H570 N564 0.984 1_554 S
H571 N564 0.984 . S
H572 N560 0.984 1_554 S
H573 N560 0.985 . S
C574 C575 1.363 . S
C574 C580 1.379 . S
C574 N582 1.356 1_556 S
C575 C574 1.363 . S
C575 C581 1.363 . S
C576 C577 1.363 . S
C576 C581 1.379 . S
C576 N583 1.356 . S
C577 C576 1.363 . S
C577 C580 1.363 . S
N578 C580 1.356 1_554 S
N578 H590 0.984 . S
N578 H591 0.985 1_554 S
N579 C581 1.356 . S
N579 H584 0.984 . S
N579 H585 0.985 . S
C580 C574 1.379 . S
C580 C577 1.363 . S
C580 N578 1.356 1_556 S
C581 C575 1.363 . S
C581 C576 1.379 . S
C581 N579 1.356 . S
N582 C574 1.356 1_554 S
N582 H588 0.984 . S
N582 H589 0.984 1_554 S
N583 C576 1.356 . S
N583 H586 0.984 . S
N583 H587 0.985 . S
H584 N579 0.984 . S
H585 N579 0.985 . S
H586 N583 0.984 . S
H587 N583 0.985 . S
H588 N582 0.984 . S
H589 N582 0.984 1_556 S
H590 N578 0.984 . S
H591 N578 0.985 1_556 S
C592 C593 1.363 1_455 S
C592 C598 1.379 . S
C592 N600 1.356 . S
C593 C592 1.363 1_655 S
C593 C599 1.363 . S
C594 C595 1.363 . S
C594 C599 1.379 . S
C594 N601 1.356 . S
C595 C594 1.363 . S
C595 C598 1.363 1_655 S
N596 C598 1.356 . S
N596 H608 0.984 . S
N596 H609 0.985 . S
N597 C599 1.356 . S
N597 H602 0.984 . S
N597 H603 0.985 . S
C598 C592 1.379 . S
C598 C595 1.363 1_455 S
C598 N596 1.356 . S
C599 C593 1.363 . S
C599 C594 1.379 . S
C599 N597 1.356 . S
N600 C592 1.356 . S
N600 H606 0.984 . S
N600 H607 0.984 . S
N601 C594 1.356 . S
N601 H604 0.984 . S
N601 H605 0.985 . S
H602 N597 0.984 . S
H603 N597 0.985 . S
H604 N601 0.984 . S
H605 N601 0.985 . S
H606 N600 0.984 . S
H607 N600 0.984 . S
H608 N596 0.984 . S
H609 N596 0.985 . S
C610 C611 1.363 1_545 S
C610 C616 1.379 . S
C610 N618 1.356 . S
C611 C610 1.363 1_565 S
C611 C617 1.363 . S
C612 C613 1.363 . S
C612 C617 1.379 . S
C612 N619 1.356 . S
C613 C612 1.363 . S
C613 C616 1.363 1_565 S
N614 C616 1.356 . S
N614 H626 0.984 . S
N614 H627 0.985 . S
N615 C617 1.356 . S
N615 H620 0.984 . S
N615 H621 0.985 . S
C616 C610 1.379 . S
C616 C613 1.363 1_545 S
C616 N614 1.356 . S
C617 C611 1.363 . S
C617 C612 1.379 . S
C617 N615 1.356 . S
N618 C610 1.356 . S
N618 H624 0.984 . S
N618 H625 0.984 . S
N619 C612 1.356 . S
N619 H622 0.984 . S
N619 H623 0.985 . S
H620 N615 0.984 . S
H621 N615 0.985 . S
H622 N619 0.984 . S
H623 N619 0.985 . S
H624 N618 0.984 . S
H625 N618 0.984 . S
H626 N614 0.984 . S
H627 N614 0.985 . S
C628 C629 1.363 . S
C628 C634 1.379 . S
C628 N636 1.356 . S
C629 C628 1.363 . S
C629 C635 1.363 . S
C630 C631 1.363 . S
C630 C635 1.379 . S
C630 N637 1.356 . S
C631 C630 1.363 . S
C631 C634 1.363 . S
N632 C634 1.356 . S
N632 H644 0.984 . S
N632 H645 0.985 . S
N633 C635 1.356 . S
N633 H638 0.984 . S
N633 H639 0.985 . S
C634 C628 1.379 . S
C634 C631 1.363 . S
C634 N632 1.356 . S
C635 C629 1.363 . S
C635 C630 1.379 . S
C635 N633 1.356 . S
N636 C628 1.356 . S
N636 H642 0.984 . S
N636 H643 0.984 . S
N637 C630 1.356 . S
N637 H640 0.984 . S
N637 H641 0.985 . S
H638 N633 0.984 . S
H639 N633 0.985 . S
H640 N637 0.984 . S
H641 N637 0.985 . S
H642 N636 0.984 . S
H643 N636 0.984 . S
H644 N632 0.984 . S
H645 N632 0.985 . S
C646 C647 1.363 . S
C646 C652 1.379 . S
C646 N654 1.356 . S
C647 C646 1.363 . S
C647 C653 1.363 . S
C648 C649 1.363 . S
C648 C653 1.379 . S
C648 N655 1.356 . S
C649 C648 1.363 . S
C649 C652 1.363 . S
N650 C652 1.356 . S
N650 H662 0.984 . S
N650 H663 0.985 . S
N651 C653 1.356 . S
N651 H656 0.984 . S
N651 H657 0.985 . S
C652 C646 1.379 . S
C652 C649 1.363 . S
C652 N650 1.356 . S
C653 C647 1.363 . S
C653 C648 1.379 . S
C653 N651 1.356 . S
N654 C646 1.356 . S
N654 H660 0.984 . S
N654 H661 0.984 . S
N655 C648 1.356 . S
N655 H658 0.984 . S
N655 H659 0.985 . S
H656 N651 0.984 . S
H657 N651 0.985 . S
H658 N655 0.984 . S
H659 N655 0.985 . S
H660 N654 0.984 . S
H661 N654 0.984 . S
H662 N650 0.984 . S
H663 N650 0.985 . S
C233 C61 1.986 1_545 S
C235 C82 2.250 1_545 S
C253 C122 2.274 . S
C251 C70 2.027 . S
C271 C162 2.283 . S
C269 C43 2.027 . S
C289 C202 2.267 1_455 S
C287 C52 2.005 1_455 S
C307 C91 2.251 1_564 S
C305 C25 1.988 . S
C323 C34 2.032 . S
C325 C131 2.276 1_554 S
C341 C7 2.025 . S
C343 C171 2.283 1_554 S
C359 C16 2.004 . S
C361 C211 2.266 1_654 S
C379 C88 0.904 . S
C377 C50 0.950 . S
C397 C128 0.891 . S
C395 C59 0.929 . S
C415 C168 0.876 . S
C413 C67 0.917 . S
C431 C41 0.931 . S
C433 C208 0.883 . S
C449 C14 0.954 1_455 S
C451 C79 0.907 . S
C469 C119 0.891 . S
C467 C23 0.932 1_545 S
C487 C159 0.876 . S
C485 C31 0.914 . S
C503 C5 0.938 . S
C505 C199 0.889 . S
C521 C49 2.301 1_455 S
C523 C83 2.610 . S
C539 C58 2.251 1_545 S
C541 C123 2.560 . S
C559 C163 2.546 . S
C557 C68 2.236 . S
C577 C203 2.596 . S
C575 C40 2.284 . S
C593 C13 2.299 . S
C595 C74 2.616 . S
C613 C114 2.560 . S
C611 C22 2.250 . S
C631 C154 2.547 . S
C629 C32 2.244 . S
C647 C4 2.284 . S
C649 C194 2.599 . S
