# Generated by pormake.
# Topology rtl, (3,6)-cn, num edge types: 1
# Building blocks:
#     Node 0, Type 0, BuildingBlock: BETDIP_clean_linker_0, # of connection points: 3
#     Node 1, Type 0, BuildingBlock: BETDIP_clean_linker_0, # of connection points: 3
#     Node 2, Type 0, BuildingBlock: BETDIP_clean_linker_0, # of connection points: 3
#     Node 3, Type 0, BuildingBlock: BETDIP_clean_linker_0, # of connection points: 3
#     Node 4, Type 1, BuildingBlock: LEVNOQ01_clean_sbu_1, # of connection points: 6
#     Node 5, Type 1, BuildingBlock: LEVNOQ01_clean_sbu_1, # of connection points: 6
#     Edge 6, Type (0, 1), BuildingBlock: CIFDUS_clean_linker_0, # of connection points: 2
#     Edge 7, Type (0, 1), BuildingBlock: CIFDUS_clean_linker_0, # of connection points: 2
#     Edge 8, Type (0, 1), BuildingBlock: CIFDUS_clean_linker_0, # of connection points: 2
#     Edge 9, Type (0, 1), BuildingBlock: CIFDUS_clean_linker_0, # of connection points: 2
#     Edge 10, Type (0, 1), BuildingBlock: CIFDUS_clean_linker_0, # of connection points: 2
#     Edge 11, Type (0, 1), BuildingBlock: CIFDUS_clean_linker_0, # of connection points: 2
#     Edge 12, Type (0, 1), BuildingBlock: CIFDUS_clean_linker_0, # of connection points: 2
#     Edge 13, Type (0, 1), BuildingBlock: CIFDUS_clean_linker_0, # of connection points: 2
#     Edge 14, Type (0, 1), BuildingBlock: CIFDUS_clean_linker_0, # of connection points: 2
#     Edge 15, Type (0, 1), BuildingBlock: CIFDUS_clean_linker_0, # of connection points: 2
#     Edge 16, Type (0, 1), BuildingBlock: CIFDUS_clean_linker_0, # of connection points: 2
#     Edge 17, Type (0, 1), BuildingBlock: CIFDUS_clean_linker_0, # of connection points: 2
# Relax obj value: 0.018
# Max RMSD: 0.115
# Mean RMSD: 0.088
data_MOF--net-rtl--node1-LEVNOQ01_clean_sbu_1--node2-BETDIP_clean_linker_0--edge1-CIFDUS_clean_linker_0
_symmetry_space_group_name_H-M    P1
_symmetry_Int_Tables_number       1
_symmetry_cell_setting            triclinic
loop_
_symmetry_equiv_pos_as_xyz
'x, y, z'
_cell_length_a     31.740162
_cell_length_b     31.885395
_cell_length_c     19.421382
_cell_angle_alpha  91.075403
_cell_angle_beta   99.910547
_cell_angle_gamma 90.022458
loop_
_atom_site_label
_atom_site_type_symbol
_atom_site_fract_x
_atom_site_fract_y
_atom_site_fract_z
_atom_type_partial_charge
H0 H 0.18629 0.8216 0.95122 0.0
H1 H 0.20152 0.80584 0.17307 0.0
H2 H 0.11904 0.90239 0.07525 0.0
H3 H 0.25195 0.75902 0.1581 0.0
C4 C 0.24727 0.74983 0.10325 0.0
C5 C 0.17879 0.83161 0.00135 0.0
C6 C 0.15039 0.86492 0.00534 0.0
C7 C 0.19743 0.81024 0.06103 0.0
C8 C 0.18822 0.82267 0.12656 0.0
C9 C 0.16054 0.85652 0.13205 0.0
C10 C 0.14196 0.87764 0.07135 0.0
N11 N 0.22321 0.77507 0.05122 0.0
H12 H 0.74104 0.69155 0.73197 0.0
H13 H 0.69677 0.69984 0.51059 0.0
H14 H 0.64403 0.6068 0.62954 0.0
H15 H 0.7665 0.762 0.71323 0.0
C16 C 0.77824 0.75499 0.66498 0.0
C17 C 0.72028 0.68072 0.68482 0.0
C18 C 0.69184 0.64724 0.68798 0.0
C19 C 0.72261 0.69891 0.62003 0.0
C20 C 0.69521 0.6847 0.55954 0.0
C21 C 0.66595 0.65191 0.56202 0.0
C22 C 0.66552 0.63284 0.6265 0.0
N23 N 0.75395 0.72934 0.61189 0.0
H24 H 0.79176 0.22674 0.87562 0.0
H25 H 0.81975 0.20994 0.09758 0.0
H26 H 0.86979 0.12321 0.96051 0.0
H27 H 0.74673 0.27678 0.89993 0.0
C28 C 0.75454 0.28518 0.95503 0.0
C29 C 0.80666 0.20902 0.92012 0.0
C30 C 0.83076 0.17311 0.90944 0.0
C31 C 0.80274 0.22216 0.98821 0.0
C32 C 0.82245 0.19913 0.04524 0.0
C33 C 0.84636 0.16325 0.03586 0.0
C34 C 0.85051 0.15045 0.9678 0.0
N35 N 0.78079 0.25907 0.00296 0.0
H36 H 0.29291 0.29848 0.3827 0.0
H37 H 0.33255 0.31161 0.60491 0.0
H38 H 0.37871 0.39783 0.46648 0.0
H39 H 0.25817 0.24028 0.40795 0.0
C40 C 0.25395 0.24318 0.46209 0.0
C41 C 0.31102 0.31475 0.42756 0.0
C42 C 0.33676 0.34916 0.41703 0.0
C43 C 0.30885 0.30198 0.49587 0.0
C44 C 0.33351 0.323 0.55304 0.0
C45 C 0.35918 0.35775 0.54385 0.0
C46 C 0.35964 0.37095 0.47525 0.0
N47 N 0.28137 0.26932 0.51056 0.0
O48 O 0.9455 0.10349 0.57408 0.0
Mg49 Mg 0.00571 0.07442 0.59536 0.0
O50 O 0.94025 0.03723 0.59308 0.0
Mg51 Mg -0.00762 0.01084 0.52715 0.0
O52 O 0.04207 0.06874 0.5192 0.0
O53 O 0.04839 0.12072 0.6 0.0
O54 O 0.04131 0.98005 0.46205 0.0
O55 O 0.95161 0.04154 0.42784 0.0
Mg56 Mg 0.95063 0.95133 0.4299 0.0
O57 O 0.9484 0.95021 0.53498 0.0
O58 O 0.00593 0.92969 0.39763 0.0
O59 O 0.91157 -0.007 0.36645 0.0
O60 O 0.91717 0.90289 0.45436 0.0
C61 C 0.03782 0.0041 0.68695 0.0
C62 C 0.92512 0.07412 0.59567 0.0
C63 C 0.06051 0.10332 0.54639 0.0
C64 C 0.04028 0.94951 0.41835 0.0
C65 C 0.92256 0.03087 0.37667 0.0
C66 C 0.92527 0.91634 0.51831 0.0
O67 O 0.0245 0.04139 0.6901 0.0
O68 O 0.03332 0.98502 0.62789 0.0
O69 O 0.54716 0.50725 0.22406 0.0
Mg70 Mg 0.53446 0.46059 0.14382 0.0
O71 O 0.54048 0.55537 0.14341 0.0
Mg72 Mg 0.50463 0.51633 0.04847 0.0
O73 O 0.55902 0.46516 0.05308 0.0
O74 O 0.58689 0.4254 0.14408 0.0
O75 O 0.46893 0.47653 0.9544 0.0
O76 O 0.55489 0.54858 0.98481 0.0
Mg77 Mg 0.47665 0.56879 0.95474 0.0
O78 O 0.44926 0.56713 0.04337 0.0
O79 O 0.46779 0.52285 0.87244 0.0
O80 O 0.52742 0.61063 0.96348 0.0
O81 O 0.42194 0.60113 0.94544 0.0
C82 C 0.45038 0.44785 0.13498 0.0
C83 C 0.55093 0.54493 0.20695 0.0
C84 C 0.58673 0.43762 0.08115 0.0
C85 C 0.46155 0.48577 0.8901 0.0
C86 C 0.5592 0.58673 0.96792 0.0
C87 C 0.42076 0.59197 0.00938 0.0
O88 O 0.4808 0.4223 0.13827 0.0
O89 O 0.45569 0.485 0.11427 0.0
H90 H 0.20346 0.18065 0.39301 0.0
H91 H 0.22721 0.25181 0.58744 0.0
H92 H 0.17045 0.21424 0.62906 0.0
H93 H 0.11382 0.16269 0.61124 0.0
H94 H 0.08809 0.08886 0.42011 0.0
H95 H 0.14613 0.12564 0.3765 0.0
C96 C 0.19613 0.18771 0.44448 0.0
C97 C 0.21968 0.21901 0.48692 0.0
C98 C 0.16319 0.16557 0.46876 0.0
C99 C 0.20997 0.22784 0.55361 0.0
C100 C 0.17734 0.20639 0.57759 0.0
C101 C 0.1206 0.15449 0.5598 0.0
C102 C 0.09625 0.12333 0.5187 0.0
C103 C 0.15374 0.17544 0.53563 0.0
C104 C 0.10622 0.11283 0.45275 0.0
C105 C 0.13934 0.13393 0.42783 0.0
H106 H 0.31304 0.70713 0.17959 0.0
H107 H 0.23424 0.71144 0.97506 0.0
H108 H 0.27846 0.65863 0.93126 0.0
H109 H 0.34354 0.61745 0.94658 0.0
H110 H 0.42468 0.61244 0.14846 0.0
H111 H 0.3751 0.65844 0.1983 0.0
C112 C 0.30538 0.69596 0.12578 0.0
C113 C 0.27108 0.71384 0.08032 0.0
C114 C 0.33138 0.66561 0.1004 0.0
C115 C 0.26103 0.69892 0.01086 0.0
C116 C 0.28622 0.66857 0.98566 0.0
C117 C 0.35013 0.62598 0.00177 0.0
C118 C 0.38791 0.61232 0.0436 0.0
C119 C 0.32213 0.65275 0.02931 0.0
C120 C 0.39573 0.6228 0.11524 0.0
C121 C 0.36759 0.64932 0.14352 0.0
H122 H 0.80544 0.8348 0.70504 0.0
H123 H 0.83354 0.72662 0.58424 0.0
H124 H 0.88781 0.7662 0.53839 0.0
H125 H 0.91973 0.83311 0.51958 0.0
H126 H 0.88987 0.94405 0.63128 0.0
H127 H 0.84477 0.90198 0.69531 0.0
C128 C 0.82413 0.81992 0.66972 0.0
C129 C 0.81516 0.77811 0.64707 0.0
C130 C 0.85473 0.84342 0.64178 0.0
C131 C 0.83943 0.75896 0.60139 0.0
C132 C 0.87051 0.78153 0.57526 0.0
C133 C 0.904 0.84799 0.55901 0.0
C134 C 0.90757 0.89157 0.57027 0.0
C135 C 0.87728 0.82403 0.59311 0.0
C136 C 0.88761 0.91047 0.62199 0.0
C137 C 0.86148 0.88646 0.65788 0.0
H138 H 0.68671 0.32964 0.88865 0.0
H139 H 0.77284 0.32015 0.08572 0.0
H140 H 0.73064 0.3707 0.13917 0.0
H141 H 0.6653 0.41095 0.13441 0.0
H142 H 0.57755 0.42175 0.93993 0.0
H143 H 0.62468 0.37813 0.88051 0.0
C144 C 0.69643 0.33924 0.94294 0.0
C145 C 0.73219 0.32044 0.9835 0.0
C146 C 0.67168 0.36835 0.97389 0.0
C147 C 0.7449 0.33338 0.05361 0.0
C148 C 0.72085 0.36241 0.08434 0.0
C149 C 0.65677 0.40422 0.07875 0.0
C150 C 0.61786 0.41876 0.04171 0.0
C151 C 0.68353 0.37897 0.04565 0.0
C152 C 0.60743 0.41066 0.96945 0.0
C153 C 0.63419 0.38551 0.93569 0.0
H154 H 0.15887 0.93345 0.1954 0.0
H155 H 0.13124 0.80256 0.21925 0.0
H156 H 0.09797 0.81969 0.32041 0.0
H157 H 0.06713 0.87252 0.38976 0.0
H158 H 0.09349 0.0036 0.36716 0.0
H159 H 0.13787 0.98591 0.27908 0.0
C160 C 0.14616 0.90875 0.22367 0.0
C161 C 0.147 0.86688 0.19961 0.0
C162 C 0.12688 0.91888 0.2818 0.0
C163 C 0.131 0.83498 0.23693 0.0
C164 C 0.1118 0.84477 0.29454 0.0
C165 C 0.08375 0.89706 0.36703 0.0
C166 C 0.07698 0.9392 0.38414 0.0
C167 C 0.10828 0.88667 0.31582 0.0
C168 C 0.0986 0.9709 0.35492 0.0
C169 C 0.12344 0.96079 0.30394 0.0
H170 H 0.67376 0.68822 0.80233 0.0
H171 H 0.69425 0.56452 0.72175 0.0
H172 H 0.66142 0.53309 0.81362 0.0
H173 H 0.61341 0.54194 0.90015 0.0
H174 H 0.58919 0.66637 0.97461 0.0
H175 H 0.63757 0.69622 0.90364 0.0
C176 C 0.67256 0.65438 0.80673 0.0
C177 C 0.68581 0.62872 0.75508 0.0
C178 C 0.65216 0.63664 0.85803 0.0
C179 C 0.68382 0.58486 0.76081 0.0
C180 C 0.66478 0.56691 0.813 0.0
C181 C 0.61994 0.57538 0.90257 0.0
C182 C 0.59727 0.602 0.94149 0.0
C183 C 0.64671 0.59258 0.8595 0.0
C184 C 0.60588 0.64532 0.94413 0.0
C185 C 0.63342 0.66247 0.90335 0.0
H186 H 0.81175 0.13912 0.14723 0.0
H187 H 0.92888 0.13558 0.06293 0.0
H188 H 0.96424 0.09786 0.16537 0.0
H189 H 0.96094 0.0635 0.27706 0.0
H190 H 0.8428 0.0635 0.35768 0.0
H191 H 0.8088 0.10599 0.25957 0.0
C192 C 0.84512 0.13036 0.15165 0.0
C193 C 0.86767 0.13998 0.09761 0.0
C194 C 0.86507 0.1085 0.21037 0.0
C195 C 0.91072 0.12801 0.10347 0.0
C196 C 0.93102 0.10675 0.16221 0.0
C197 C 0.92803 0.07369 0.27354 0.0
C198 C 0.9044 0.06145 0.32456 0.0
C199 C 0.90845 0.09665 0.21578 0.0
C200 C 0.86151 0.07344 0.31918 0.0
C201 C 0.8421 0.09734 0.26297 0.0
H202 H 0.34302 0.36731 0.67846 0.0
H203 H 0.4366 0.39824 0.5494 0.0
H204 H 0.47603 0.44027 0.64438 0.0
H205 H 0.48282 0.47103 0.76299 0.0
H206 H 0.39567 0.43255 0.89726 0.0
H207 H 0.35594 0.38927 0.80214 0.0
C208 C 0.37249 0.38227 0.67097 0.0
C209 C 0.38561 0.38021 0.60508 0.0
C210 C 0.39653 0.40494 0.7272 0.0
C211 C 0.42408 0.40047 0.59773 0.0
C212 C 0.44725 0.4242 0.6526 0.0
C213 C 0.45546 0.45265 0.77147 0.0
C214 C 0.44187 0.45505 0.83649 0.0
C215 C 0.43343 0.4272 0.71716 0.0
C216 C 0.40672 0.43092 0.84751 0.0
C217 C 0.38388 0.40645 0.79304 0.0
H218 H 0.67904 0.64928 0.42526 0.0
H219 H 0.58406 0.62177 0.55337 0.0
H220 H 0.53918 0.58808 0.45392 0.0
H221 H 0.52945 0.56086 0.33298 0.0
H222 H 0.6195 0.59482 0.20097 0.0
H223 H 0.66298 0.63303 0.29897 0.0
C224 C 0.64815 0.63693 0.4315 0.0
C225 C 0.63607 0.63688 0.49812 0.0
C226 C 0.6214 0.61885 0.37315 0.0
C227 C 0.59555 0.62061 0.50403 0.0
C228 C 0.5694 0.60171 0.44682 0.0
C229 C 0.55812 0.57749 0.32554 0.0
C230 C 0.57157 0.57505 0.26051 0.0
C231 C 0.5825 0.59969 0.38165 0.0
C232 C 0.60855 0.59667 0.25078 0.0
C233 C 0.63354 0.61814 0.3069 0.0
H234 H 0.83165 0.09417 0.85239 0.0
H235 H 0.84703 0.22469 0.80633 0.0
H236 H 0.86921 0.20485 0.69636 0.0
H237 H 0.89464 0.15098 0.62279 0.0
H238 H 0.88561 0.02036 0.67313 0.0
H239 H 0.8499 0.03966 0.77096 0.0
C240 C 0.83961 0.11827 0.81806 0.0
C241 C 0.83817 0.16086 0.83821 0.0
C242 C 0.85366 0.10662 0.75568 0.0
C243 C 0.84758 0.1917 0.79224 0.0
C244 C 0.86061 0.18038 0.72943 0.0
C245 C 0.88405 0.12658 0.65414 0.0
C246 C 0.89351 0.08431 0.64134 0.0
C247 C 0.86518 0.13798 0.71189 0.0
C248 C 0.87903 0.05315 0.68203 0.0
C249 C 0.85894 0.06421 0.73844 0.0
H250 H 0.33435 0.42686 0.36002 0.0
H251 H 0.35683 0.2965 0.31591 0.0
H252 H 0.38744 0.31589 0.21387 0.0
H253 H 0.42002 0.3702 0.15199 0.0
H254 H 0.40029 0.50082 0.19826 0.0
H255 H 0.35579 0.48114 0.28372 0.0
C256 C 0.34507 0.40271 0.327 0.0
C257 C 0.34402 0.36036 0.34608 0.0
C258 C 0.36362 0.4142 0.26937 0.0
C259 C 0.35728 0.32928 0.30234 0.0
C260 C 0.37519 0.3404 0.24437 0.0
C261 C 0.40502 0.39436 0.17948 0.0
C262 C 0.41407 0.43686 0.16989 0.0
C263 C 0.38036 0.3828 0.22952 0.0
C264 C 0.39396 0.46788 0.20492 0.0
C265 C 0.36884 0.45662 0.25429 0.0
H266 H 0.13178 0.94777 0.98393 0.0
H267 H 0.11842 0.82642 0.87992 0.0
H268 H 0.08374 0.85858 0.77214 0.0
H269 H 0.05665 0.92121 0.70693 0.0
H270 H 0.06687 0.04194 0.813 0.0
H271 H 0.10251 0.00985 0.92022 0.0
C272 C 0.1209 0.92826 0.93797 0.0
C273 C 0.12823 0.88477 0.94018 0.0
C274 C 0.10023 0.94683 0.87624 0.0
C275 C 0.1142 0.86012 0.8796 0.0
C276 C 0.09399 0.87842 0.81789 0.0
C277 C 0.06674 0.94047 0.75348 0.0
C278 C 0.05917 0.9839 0.75172 0.0
C279 C 0.08694 0.92178 0.81548 0.0
C280 C 0.07217 0.00838 0.81276 0.0
C281 C 0.09266 -0.0099 0.87423 0.0
loop_
_geom_bond_atom_site_label_1
_geom_bond_atom_site_label_2
_geom_bond_distance
_geom_bond_site_symmetry_2
_ccdc_geom_bond_type
H0 C5 0.930 1_556 S
H1 C8 0.930 . S
H2 C10 0.930 . S
H3 C4 1.016 . S
C4 H3 1.016 . S
C4 N11 1.286 . S
C5 H0 0.930 1_554 S
C5 C6 1.397 . S
C5 C7 1.361 . S
C6 C5 1.397 . S
C6 C10 1.390 . S
C7 C5 1.361 . S
C7 C8 1.393 . S
C7 N11 1.413 . S
C8 H1 0.930 . S
C8 C7 1.393 . S
C8 C9 1.399 . S
C9 C8 1.399 . S
C9 C10 1.381 . S
C10 H2 0.930 . S
C10 C6 1.390 . S
C10 C9 1.381 . S
N11 C4 1.286 . S
N11 C7 1.413 . S
H12 C17 0.930 . S
H13 C20 0.930 . S
H14 C22 0.930 . S
H15 C16 1.016 . S
C16 H15 1.016 . S
C16 N23 1.286 . S
C17 H12 0.930 . S
C17 C18 1.397 . S
C17 C19 1.361 . S
C18 C17 1.397 . S
C18 C22 1.390 . S
C19 C17 1.361 . S
C19 C20 1.393 . S
C19 N23 1.413 . S
C20 H13 0.930 . S
C20 C19 1.393 . S
C20 C21 1.399 . S
C21 C20 1.399 . S
C21 C22 1.381 . S
C22 H14 0.930 . S
C22 C18 1.390 . S
C22 C21 1.381 . S
N23 C16 1.286 . S
N23 C19 1.413 . S
H24 C29 0.930 . S
H25 C32 0.930 . S
H26 C34 0.930 . S
H27 C28 1.016 . S
C28 H27 1.016 . S
C28 N35 1.286 1_554 S
C29 H24 0.930 . S
C29 C30 1.397 . S
C29 C31 1.361 . S
C30 C29 1.397 . S
C30 C34 1.390 1_556 S
C31 C29 1.361 . S
C31 C32 1.393 1_556 S
C31 N35 1.413 . S
C32 H25 0.930 . S
C32 C31 1.393 1_554 S
C32 C33 1.399 . S
C33 C32 1.399 . S
C33 C34 1.381 . S
C34 H26 0.930 . S
C34 C30 1.390 1_554 S
C34 C33 1.381 . S
N35 C28 1.286 1_556 S
N35 C31 1.413 . S
H36 C41 0.930 . S
H37 C44 0.930 . S
H38 C46 0.930 . S
H39 C40 1.016 . S
C40 H39 1.016 . S
C40 N47 1.286 . S
C41 H36 0.930 . S
C41 C42 1.397 . S
C41 C43 1.361 . S
C42 C41 1.397 . S
C42 C46 1.390 . S
C43 C41 1.361 . S
C43 C44 1.393 . S
C43 N47 1.413 . S
C44 H37 0.930 . S
C44 C43 1.393 . S
C44 C45 1.399 . S
C45 C44 1.399 . S
C45 C46 1.381 . S
C46 H38 0.930 . S
C46 C42 1.390 . S
C46 C45 1.381 . S
N47 C40 1.286 . S
N47 C43 1.413 . S
O48 Mg49 1.990 . S
O48 C62 1.253 1_455 S
Mg49 O48 1.990 . S
Mg49 O52 2.180 . S
Mg49 O53 2.117 . S
Mg49 O67 2.030 . S
O50 Mg51 2.072 1_655 S
O50 C62 1.260 . S
Mg51 O50 2.072 1_455 S
Mg51 O52 2.099 . S
Mg51 O54 2.079 1_545 S
Mg51 O55 2.072 1_455 S
Mg51 O57 2.099 1_445 S
Mg51 O68 2.079 1_545 S
O52 Mg49 2.180 . S
O52 Mg51 2.099 . S
O52 C63 1.279 . S
O53 Mg49 2.117 . S
O53 C63 1.250 . S
O54 Mg51 2.079 1_565 S
O54 C64 1.264 . S
O55 Mg51 2.072 1_655 S
O55 C65 1.260 . S
Mg56 O57 2.180 . S
Mg56 O58 2.030 1_655 S
Mg56 O59 1.990 1_565 S
Mg56 O60 2.117 . S
O57 Mg51 2.099 1_665 S
O57 Mg56 2.180 . S
O57 C66 1.279 . S
O58 Mg56 2.030 1_455 S
O58 C64 1.248 . S
O59 Mg56 1.990 1_545 S
O59 C65 1.253 . S
O60 Mg56 2.117 . S
O60 C66 1.250 . S
C61 O67 1.248 1_565 S
C61 O68 1.264 . S
C62 O48 1.253 1_655 S
C62 O50 1.260 . S
C63 O52 1.279 . S
C63 O53 1.250 . S
C64 O54 1.264 . S
C64 O58 1.248 . S
C65 O55 1.260 . S
C65 O59 1.253 . S
C66 O57 1.279 . S
C66 O60 1.250 . S
O67 Mg49 2.030 . S
O67 C61 1.248 1_545 S
O68 Mg51 2.079 1_565 S
O68 C61 1.264 . S
O69 Mg70 1.990 . S
O69 C83 1.253 . S
Mg70 O69 1.990 . S
Mg70 O73 2.180 . S
Mg70 O74 2.117 . S
Mg70 O88 2.030 . S
O71 Mg72 2.072 . S
O71 C83 1.260 . S
Mg72 O71 2.072 . S
Mg72 O73 2.099 . S
Mg72 O75 2.079 1_554 S
Mg72 O76 2.072 1_554 S
Mg72 O78 2.099 . S
Mg72 O89 2.079 . S
O73 Mg70 2.180 . S
O73 Mg72 2.099 . S
O73 C84 1.279 . S
O74 Mg70 2.117 . S
O74 C84 1.250 . S
O75 Mg72 2.079 1_556 S
O75 C85 1.264 . S
O76 Mg72 2.072 1_556 S
O76 C86 1.260 . S
Mg77 O78 2.180 1_556 S
Mg77 O79 2.030 . S
Mg77 O80 1.990 . S
Mg77 O81 2.117 . S
O78 Mg72 2.099 . S
O78 Mg77 2.180 1_554 S
O78 C87 1.279 . S
O79 Mg77 2.030 . S
O79 C85 1.248 . S
O80 Mg77 1.990 . S
O80 C86 1.253 . S
O81 Mg77 2.117 . S
O81 C87 1.250 1_556 S
C82 O88 1.248 . S
C82 O89 1.264 . S
C83 O69 1.253 . S
C83 O71 1.260 . S
C84 O73 1.279 . S
C84 O74 1.250 . S
C85 O75 1.264 . S
C85 O79 1.248 . S
C86 O76 1.260 . S
C86 O80 1.253 . S
C87 O78 1.279 . S
C87 O81 1.250 1_554 S
O88 Mg70 2.030 . S
O88 C82 1.248 . S
O89 Mg72 2.079 . S
O89 C82 1.264 . S
H90 C96 0.930 . S
H91 C99 0.930 . S
H92 C100 0.930 . S
H93 C101 0.930 . S
H94 C104 0.930 . S
H95 C105 0.930 . S
C96 H90 0.930 . S
C96 C97 1.355 . S
C96 C98 1.415 . S
C97 C96 1.355 . S
C97 C99 1.419 . S
C98 C96 1.415 . S
C98 C103 1.425 . S
C98 C105 1.409 . S
C99 H91 0.930 . S
C99 C97 1.419 . S
C99 C100 1.362 . S
C100 H92 0.930 . S
C100 C99 1.362 . S
C100 C103 1.409 . S
C101 H93 0.930 . S
C101 C102 1.355 . S
C101 C103 1.415 . S
C102 C101 1.355 . S
C102 C104 1.419 . S
C103 C98 1.425 . S
C103 C100 1.409 . S
C103 C101 1.415 . S
C104 H94 0.930 . S
C104 C102 1.419 . S
C104 C105 1.362 . S
C105 H95 0.930 . S
C105 C98 1.409 . S
C105 C104 1.362 . S
H106 C112 0.930 . S
H107 C115 0.930 . S
H108 C116 0.930 . S
H109 C117 0.930 . S
H110 C120 0.930 . S
H111 C121 0.930 . S
C112 H106 0.930 . S
C112 C113 1.355 . S
C112 C114 1.415 . S
C113 C112 1.355 . S
C113 C115 1.419 . S
C114 C112 1.415 . S
C114 C119 1.425 . S
C114 C121 1.409 . S
C115 H107 0.930 . S
C115 C113 1.419 . S
C115 C116 1.362 . S
C116 H108 0.930 . S
C116 C115 1.362 . S
C116 C119 1.409 . S
C117 H109 0.930 . S
C117 C118 1.355 . S
C117 C119 1.415 . S
C118 C117 1.355 . S
C118 C120 1.419 . S
C119 C114 1.425 . S
C119 C116 1.409 . S
C119 C117 1.415 . S
C120 H110 0.930 . S
C120 C118 1.419 . S
C120 C121 1.362 . S
C121 H111 0.930 . S
C121 C114 1.409 . S
C121 C120 1.362 . S
H122 C128 0.930 . S
H123 C131 0.930 . S
H124 C132 0.930 . S
H125 C133 0.930 . S
H126 C136 0.930 . S
H127 C137 0.930 . S
C128 H122 0.930 . S
C128 C129 1.355 . S
C128 C130 1.415 . S
C129 C128 1.355 . S
C129 C131 1.419 . S
C130 C128 1.415 . S
C130 C135 1.425 . S
C130 C137 1.409 . S
C131 H123 0.930 . S
C131 C129 1.419 . S
C131 C132 1.362 . S
C132 H124 0.930 . S
C132 C131 1.362 . S
C132 C135 1.409 . S
C133 H125 0.930 . S
C133 C134 1.355 . S
C133 C135 1.415 . S
C134 C133 1.355 . S
C134 C136 1.419 . S
C135 C130 1.425 . S
C135 C132 1.409 . S
C135 C133 1.415 . S
C136 H126 0.930 . S
C136 C134 1.419 . S
C136 C137 1.362 . S
C137 H127 0.930 . S
C137 C130 1.409 . S
C137 C136 1.362 . S
H138 C144 0.930 . S
H139 C147 0.930 . S
H140 C148 0.930 . S
H141 C149 0.930 . S
H142 C152 0.930 . S
H143 C153 0.930 . S
C144 H138 0.930 . S
C144 C145 1.355 1_556 S
C144 C146 1.415 1_556 S
C145 C144 1.355 1_554 S
C145 C147 1.419 . S
C146 C144 1.415 1_554 S
C146 C151 1.425 . S
C146 C153 1.409 1_554 S
C147 H139 0.930 . S
C147 C145 1.419 . S
C147 C148 1.362 . S
C148 H140 0.930 . S
C148 C147 1.362 . S
C148 C151 1.409 . S
C149 H141 0.930 . S
C149 C150 1.355 . S
C149 C151 1.415 . S
C150 C149 1.355 . S
C150 C152 1.419 1_554 S
C151 C146 1.425 . S
C151 C148 1.409 . S
C151 C149 1.415 . S
C152 H142 0.930 . S
C152 C150 1.419 1_556 S
C152 C153 1.362 . S
C153 H143 0.930 . S
C153 C146 1.409 1_556 S
C153 C152 1.362 . S
H154 C160 0.930 . S
H155 C163 0.930 . S
H156 C164 0.930 . S
H157 C165 0.930 . S
H158 C168 0.930 . S
H159 C169 0.930 . S
C160 H154 0.930 . S
C160 C161 1.355 . S
C160 C162 1.415 . S
C161 C160 1.355 . S
C161 C163 1.419 . S
C162 C160 1.415 . S
C162 C167 1.425 . S
C162 C169 1.409 . S
C163 H155 0.930 . S
C163 C161 1.419 . S
C163 C164 1.362 . S
C164 H156 0.930 . S
C164 C163 1.362 . S
C164 C167 1.409 . S
C165 H157 0.930 . S
C165 C166 1.355 . S
C165 C167 1.415 . S
C166 C165 1.355 . S
C166 C168 1.419 . S
C167 C162 1.425 . S
C167 C164 1.409 . S
C167 C165 1.415 . S
C168 H158 0.930 . S
C168 C166 1.419 . S
C168 C169 1.362 . S
C169 H159 0.930 . S
C169 C162 1.409 . S
C169 C168 1.362 . S
H170 C176 0.930 . S
H171 C179 0.930 . S
H172 C180 0.930 . S
H173 C181 0.930 . S
H174 C184 0.930 . S
H175 C185 0.930 . S
C176 H170 0.930 . S
C176 C177 1.355 . S
C176 C178 1.415 . S
C177 C176 1.355 . S
C177 C179 1.419 . S
C178 C176 1.415 . S
C178 C183 1.425 . S
C178 C185 1.409 . S
C179 H171 0.930 . S
C179 C177 1.419 . S
C179 C180 1.362 . S
C180 H172 0.930 . S
C180 C179 1.362 . S
C180 C183 1.409 . S
C181 H173 0.930 . S
C181 C182 1.355 . S
C181 C183 1.415 . S
C182 C181 1.355 . S
C182 C184 1.419 . S
C183 C178 1.425 . S
C183 C180 1.409 . S
C183 C181 1.415 . S
C184 H174 0.930 . S
C184 C182 1.419 . S
C184 C185 1.362 . S
C185 H175 0.930 . S
C185 C178 1.409 . S
C185 C184 1.362 . S
H186 C192 0.930 . S
H187 C195 0.930 . S
H188 C196 0.930 . S
H189 C197 0.930 . S
H190 C200 0.930 . S
H191 C201 0.930 . S
C192 H186 0.930 . S
C192 C193 1.355 . S
C192 C194 1.415 . S
C193 C192 1.355 . S
C193 C195 1.419 . S
C194 C192 1.415 . S
C194 C199 1.425 . S
C194 C201 1.409 . S
C195 H187 0.930 . S
C195 C193 1.419 . S
C195 C196 1.362 . S
C196 H188 0.930 . S
C196 C195 1.362 . S
C196 C199 1.409 . S
C197 H189 0.930 . S
C197 C198 1.355 . S
C197 C199 1.415 . S
C198 C197 1.355 . S
C198 C200 1.419 . S
C199 C194 1.425 . S
C199 C196 1.409 . S
C199 C197 1.415 . S
C200 H190 0.930 . S
C200 C198 1.419 . S
C200 C201 1.362 . S
C201 H191 0.930 . S
C201 C194 1.409 . S
C201 C200 1.362 . S
H202 C208 0.930 . S
H203 C211 0.930 . S
H204 C212 0.930 . S
H205 C213 0.930 . S
H206 C216 0.930 . S
H207 C217 0.930 . S
C208 H202 0.930 . S
C208 C209 1.355 . S
C208 C210 1.415 . S
C209 C208 1.355 . S
C209 C211 1.419 . S
C210 C208 1.415 . S
C210 C215 1.425 . S
C210 C217 1.409 . S
C211 H203 0.930 . S
C211 C209 1.419 . S
C211 C212 1.362 . S
C212 H204 0.930 . S
C212 C211 1.362 . S
C212 C215 1.409 . S
C213 H205 0.930 . S
C213 C214 1.355 . S
C213 C215 1.415 . S
C214 C213 1.355 . S
C214 C216 1.419 . S
C215 C210 1.425 . S
C215 C212 1.409 . S
C215 C213 1.415 . S
C216 H206 0.930 . S
C216 C214 1.419 . S
C216 C217 1.362 . S
C217 H207 0.930 . S
C217 C210 1.409 . S
C217 C216 1.362 . S
H218 C224 0.930 . S
H219 C227 0.930 . S
H220 C228 0.930 . S
H221 C229 0.930 . S
H222 C232 0.930 . S
H223 C233 0.930 . S
C224 H218 0.930 . S
C224 C225 1.355 . S
C224 C226 1.415 . S
C225 C224 1.355 . S
C225 C227 1.419 . S
C226 C224 1.415 . S
C226 C231 1.425 . S
C226 C233 1.409 . S
C227 H219 0.930 . S
C227 C225 1.419 . S
C227 C228 1.362 . S
C228 H220 0.930 . S
C228 C227 1.362 . S
C228 C231 1.409 . S
C229 H221 0.930 . S
C229 C230 1.355 . S
C229 C231 1.415 . S
C230 C229 1.355 . S
C230 C232 1.419 . S
C231 C226 1.425 . S
C231 C228 1.409 . S
C231 C229 1.415 . S
C232 H222 0.930 . S
C232 C230 1.419 . S
C232 C233 1.362 . S
C233 H223 0.930 . S
C233 C226 1.409 . S
C233 C232 1.362 . S
H234 C240 0.930 . S
H235 C243 0.930 . S
H236 C244 0.930 . S
H237 C245 0.930 . S
H238 C248 0.930 . S
H239 C249 0.930 . S
C240 H234 0.930 . S
C240 C241 1.355 . S
C240 C242 1.415 . S
C241 C240 1.355 . S
C241 C243 1.419 . S
C242 C240 1.415 . S
C242 C247 1.425 . S
C242 C249 1.409 . S
C243 H235 0.930 . S
C243 C241 1.419 . S
C243 C244 1.362 . S
C244 H236 0.930 . S
C244 C243 1.362 . S
C244 C247 1.409 . S
C245 H237 0.930 . S
C245 C246 1.355 . S
C245 C247 1.415 . S
C246 C245 1.355 . S
C246 C248 1.419 . S
C247 C242 1.425 . S
C247 C244 1.409 . S
C247 C245 1.415 . S
C248 H238 0.930 . S
C248 C246 1.419 . S
C248 C249 1.362 . S
C249 H239 0.930 . S
C249 C242 1.409 . S
C249 C248 1.362 . S
H250 C256 0.930 . S
H251 C259 0.930 . S
H252 C260 0.930 . S
H253 C261 0.930 . S
H254 C264 0.930 . S
H255 C265 0.930 . S
C256 H250 0.930 . S
C256 C257 1.355 . S
C256 C258 1.415 . S
C257 C256 1.355 . S
C257 C259 1.419 . S
C258 C256 1.415 . S
C258 C263 1.425 . S
C258 C265 1.409 . S
C259 H251 0.930 . S
C259 C257 1.419 . S
C259 C260 1.362 . S
C260 H252 0.930 . S
C260 C259 1.362 . S
C260 C263 1.409 . S
C261 H253 0.930 . S
C261 C262 1.355 . S
C261 C263 1.415 . S
C262 C261 1.355 . S
C262 C264 1.419 . S
C263 C258 1.425 . S
C263 C260 1.409 . S
C263 C261 1.415 . S
C264 H254 0.930 . S
C264 C262 1.419 . S
C264 C265 1.362 . S
C265 H255 0.930 . S
C265 C258 1.409 . S
C265 C264 1.362 . S
H266 C272 0.930 . S
H267 C275 0.930 . S
H268 C276 0.930 . S
H269 C277 0.930 . S
H270 C280 0.930 1_545 S
H271 C281 0.930 1_545 S
C272 H266 0.930 . S
C272 C273 1.355 . S
C272 C274 1.415 . S
C273 C272 1.355 . S
C273 C275 1.419 . S
C274 C272 1.415 . S
C274 C279 1.425 . S
C274 C281 1.409 . S
C275 H267 0.930 . S
C275 C273 1.419 . S
C275 C276 1.362 . S
C276 H268 0.930 . S
C276 C275 1.362 . S
C276 C279 1.409 . S
C277 H269 0.930 . S
C277 C278 1.355 . S
C277 C279 1.415 . S
C278 C277 1.355 . S
C278 C280 1.419 . S
C279 C274 1.425 . S
C279 C276 1.409 . S
C279 C277 1.415 . S
C280 H270 0.930 1_565 S
C280 C278 1.419 . S
C280 C281 1.362 . S
C281 H271 0.930 1_565 S
C281 C274 1.409 . S
C281 C280 1.362 . S
C102 C63 1.195 . S
C97 C40 1.466 . S
C113 C4 1.483 . S
C118 C87 1.304 . S
C129 C16 1.581 . S
C134 C66 1.354 . S
C145 C28 1.575 . S
C150 C84 1.369 . S
C166 C64 1.511 . S
C161 C9 1.484 . S
C182 C86 1.490 . S
C177 C18 1.602 . S
C193 C33 1.570 . S
C198 C65 1.515 . S
C209 C45 1.491 . S
C214 C85 1.435 . S
C230 C83 1.442 . S
C225 C21 1.527 . S
C246 C62 1.503 . S
C241 C30 1.525 . S
C262 C82 1.420 . S
C257 C42 1.463 . S
C273 C6 1.446 1_556 S
C278 C61 1.360 . S
