# Generated by pormake.
# Topology pts, (4,4)-cn, num edge types: 1
# Building blocks:
#     Node 0, Type 0, BuildingBlock: NAHDIM_clean_linker_0, # of connection points: 4
#     Node 1, Type 0, BuildingBlock: NAHDIM_clean_linker_0, # of connection points: 4
#     Node 2, Type 1, BuildingBlock: UXUYUI_clean_sbu_0, # of connection points: 4
#     Node 3, Type 1, BuildingBlock: UXUYUI_clean_sbu_0, # of connection points: 4
#     Edge 4, Type (0, 1), None
#     Edge 5, Type (0, 1), None
#     Edge 6, Type (0, 1), None
#     Edge 7, Type (0, 1), None
#     Edge 8, Type (0, 1), None
#     Edge 9, Type (0, 1), None
#     Edge 10, Type (0, 1), None
#     Edge 11, Type (0, 1), None
# Relax obj value: 0.022
# Max RMSD: 0.066
# Mean RMSD: 0.065
data_MOF--net-pts--node1-UXUYUI_clean_sbu_0--node2-NAHDIM_clean_linker_0--edge1-none
_symmetry_space_group_name_H-M    P1
_symmetry_Int_Tables_number       1
_symmetry_cell_setting            triclinic
loop_
_symmetry_equiv_pos_as_xyz
'x, y, z'
_cell_length_a     25.168124
_cell_length_b     25.178188
_cell_length_c     40.956886
_cell_angle_alpha  90.653875
_cell_angle_beta   89.408918
_cell_angle_gamma 89.985064
loop_
_atom_site_label
_atom_site_type_symbol
_atom_site_fract_x
_atom_site_fract_y
_atom_site_fract_z
_atom_type_partial_charge
C0 C 0.80597 0.12438 0.13975 0.0
C1 C 0.79104 0.08028 0.16377 0.0
C2 C 0.72622 0.02571 0.1334 0.0
C3 C 0.71777 0.97586 0.11907 0.0
C4 C 0.66971 0.96345 0.10369 0.0
C5 C 0.62954 0.00261 0.10182 0.0
C6 C 0.63738 0.05297 0.11669 0.0
C7 C 0.68534 0.06381 0.1327 0.0
C8 C 0.66217 0.90865 0.08915 0.0
C9 C 0.59533 0.09562 0.11528 0.0
C10 C 0.22815 0.86217 0.13062 0.0
C11 C 0.24973 0.91568 0.14253 0.0
C12 C 0.34576 0.92391 0.1407 0.0
C13 C 0.35221 0.97573 0.12918 0.0
C14 C 0.39893 0.99058 0.11264 0.0
C15 C 0.43948 0.9524 0.10707 0.0
C16 C 0.43379 0.90068 0.11987 0.0
C17 C 0.38716 0.88737 0.13701 0.0
C18 C 0.40449 0.04673 0.10057 0.0
C19 C 0.47627 0.85905 0.11463 0.0
C20 C 0.33098 0.93022 0.89932 0.0
C21 C 0.33817 0.98157 0.91217 0.0
C22 C 0.38584 0.99572 0.92755 0.0
C23 C 0.42681 0.9575 0.93034 0.0
C24 C 0.42005 0.90616 0.91655 0.0
C25 C 0.37242 0.89351 0.90075 0.0
C26 C 0.39232 0.05135 0.94101 0.0
C27 C 0.46287 0.86446 0.91877 0.0
C28 C 0.73695 0.11435 0.82864 0.0
C29 C 0.76991 0.08456 0.85393 0.0
C30 C 0.70406 0.02949 0.88318 0.0
C31 C 0.67611 0.07139 0.89857 0.0
C32 C 0.63194 0.0612 0.91882 0.0
C33 C 0.61647 0.00806 0.92464 0.0
C34 C 0.64549 0.96586 0.90992 0.0
C35 C 0.68848 0.97724 0.8891 0.0
C36 C 0.60152 0.10723 0.93378 0.0
C37 C 0.63084 0.90865 0.91588 0.0
C38 C 0.57976 0.99118 0.08382 0.0
C39 C 0.53427 0.97804 0.10189 0.0
C40 C 0.48646 0.96572 0.08645 0.0
C41 C 0.4838 0.96613 0.05195 0.0
C42 C 0.43682 0.95237 0.03557 0.0
C43 C 0.43427 0.9537 0.00169 0.0
C44 C 0.47861 0.96877 0.98279 0.0
C45 C 0.47619 0.97074 0.94832 0.0
C46 C 0.52145 0.98452 0.93025 0.0
C47 C 0.56946 0.99639 0.94563 0.0
C48 C 0.5724 0.99542 0.98011 0.0
C49 C 0.61987 0.00747 0.99642 0.0
C50 C 0.62224 0.00674 0.03035 0.0
C51 C 0.57752 0.99288 0.04931 0.0
C52 C 0.52935 0.98028 0.03336 0.0
C53 C 0.52674 0.98166 0.99873 0.0
C54 C 0.208 0.87557 0.90779 0.0
C55 C 0.23421 0.92682 0.89608 0.0
O56 O 0.77442 0.03513 0.1471 0.0
O57 O 0.7455 0.03716 0.86216 0.0
O58 O 0.28509 0.91519 0.88476 0.0
O59 O 0.29993 0.90825 0.15538 0.0
H60 H 0.7586 0.09482 0.18025 0.0
H61 H 0.77092 0.13707 0.12565 0.0
H62 H 0.83692 0.11046 0.12211 0.0
H63 H 0.82122 0.15965 0.15326 0.0
H64 H 0.74922 0.9465 0.11997 0.0
H65 H 0.69061 0.10231 0.14414 0.0
H66 H 0.62299 0.89225 0.09666 0.0
H67 H 0.69385 0.88071 0.09663 0.0
H68 H 0.66273 0.91106 0.06212 0.0
H69 H 0.60914 0.13407 0.12571 0.0
H70 H 0.55954 0.08272 0.12912 0.0
H71 H 0.58332 0.10185 0.08959 0.0
H72 H 0.25163 0.94212 0.12089 0.0
H73 H 0.188 0.8672 0.12004 0.0
H74 H 0.22568 0.83355 0.15104 0.0
H75 H 0.25493 0.84541 0.11139 0.0
H76 H 0.32066 0.00447 0.13311 0.0
H77 H 0.38193 0.84769 0.1465 0.0
H78 H 0.44426 0.06285 0.10675 0.0
H79 H 0.3735 0.07346 0.11112 0.0
H80 H 0.40096 0.04688 0.07358 0.0
H81 H 0.46446 0.81987 0.12457 0.0
H82 H 0.51344 0.87206 0.1267 0.0
H83 H 0.48513 0.8543 0.08814 0.0
H84 H 0.23537 0.95459 0.91742 0.0
H85 H 0.30685 0.01076 0.90987 0.0
H86 H 0.36672 0.85429 0.89019 0.0
H87 H 0.39351 0.05015 0.96807 0.0
H88 H 0.35933 0.07793 0.93378 0.0
H89 H 0.43051 0.06855 0.93236 0.0
H90 H 0.44916 0.82487 0.91007 0.0
H91 H 0.4765 0.86096 0.94436 0.0
H92 H 0.49751 0.87654 0.90363 0.0
H93 H 0.77427 0.11001 0.87614 0.0
H94 H 0.73059 0.08928 0.80653 0.0
H95 H 0.75763 0.15144 0.82138 0.0
H96 H 0.69746 0.12545 0.83883 0.0
H97 H 0.68792 0.11212 0.89467 0.0
H98 H 0.71033 0.94516 0.87727 0.0
H99 H 0.60612 0.10709 0.96069 0.0
H100 H 0.55849 0.10307 0.92858 0.0
H101 H 0.61549 0.14613 0.92448 0.0
H102 H 0.66159 0.88067 0.90636 0.0
H103 H 0.5928 0.89962 0.90356 0.0
H104 H 0.62497 0.90172 0.9424 0.0
H105 H 0.53614 0.97719 0.12834 0.0
H106 H 0.40138 0.9404 0.04874 0.0
H107 H 0.397 0.94276 0.99051 0.0
H108 H 0.51945 0.98545 0.90381 0.0
H109 H 0.65571 0.01792 0.98315 0.0
H110 H 0.65971 0.017 0.04152 0.0
H111 H 0.20552 0.84601 0.88749 0.0
H112 H 0.1673 0.8838 0.91736 0.0
H113 H 0.23174 0.85819 0.92774 0.0
C114 C 0.15748 0.24423 0.63523 0.0
C115 C 0.11668 0.26215 0.6612 0.0
C116 C 0.06189 0.32836 0.63282 0.0
C117 C 0.01115 0.3382 0.62078 0.0
C118 C 0.99901 0.38619 0.60549 0.0
C119 C 0.0392 0.42491 0.60149 0.0
C120 C 0.09054 0.41567 0.61401 0.0
C121 C 0.10127 0.3677 0.62986 0.0
C122 C 0.94335 0.39527 0.59336 0.0
C123 C 0.13424 0.45626 0.61028 0.0
C124 C 0.90163 0.82149 0.63642 0.0
C125 C 0.95675 0.80368 0.64726 0.0
C126 C 0.9667 0.70811 0.64412 0.0
C127 C 0.01737 0.70173 0.63016 0.0
C128 C 0.0305 0.65545 0.61243 0.0
C129 C 0.99163 0.61536 0.60809 0.0
C130 C 0.94095 0.62117 0.62306 0.0
C131 C 0.92944 0.66731 0.64136 0.0
C132 C 0.08564 0.64975 0.59798 0.0
C133 C 0.8986 0.57925 0.61911 0.0
C134 C 0.96202 0.72383 0.40156 0.0
C135 C 0.01383 0.7154 0.41272 0.0
C136 C 0.02771 0.66731 0.42746 0.0
C137 C 0.98881 0.62716 0.43128 0.0
C138 C 0.93702 0.63508 0.41908 0.0
C139 C 0.92458 0.68313 0.40392 0.0
C140 C 0.08379 0.65956 0.43918 0.0
C141 C 0.89462 0.59309 0.42241 0.0
C142 C 0.1357 0.3192 0.32337 0.0
C143 C 0.10832 0.2849 0.34934 0.0
C144 C 0.05508 0.34957 0.38163 0.0
C145 C 0.09792 0.37709 0.39573 0.0
C146 C 0.08902 0.42104 0.41656 0.0
C147 C 0.03631 0.43678 0.42422 0.0
C148 C 0.9932 0.40809 0.41086 0.0
C149 C 0.00325 0.36524 0.38949 0.0
C150 C 0.13596 0.45101 0.43012 0.0
C151 C 0.93642 0.42302 0.41883 0.0
C152 C 0.02768 0.47468 0.58377 0.0
C153 C 0.01608 0.52042 0.60217 0.0
C154 C 0.0034 0.56822 0.58706 0.0
C155 C 0.00202 0.57065 0.55257 0.0
C156 C 0.98794 0.61766 0.53656 0.0
C157 C 0.98767 0.61998 0.50266 0.0
C158 C 0.0013 0.57535 0.48337 0.0
C159 C 0.00179 0.57757 0.44887 0.0
C160 C 0.01411 0.53205 0.43045 0.0
C161 C 0.02601 0.48395 0.44551 0.0
C162 C 0.02656 0.4812 0.48001 0.0
C163 C 0.03871 0.43367 0.49602 0.0
C164 C 0.03961 0.43152 0.52995 0.0
C165 C 0.02748 0.4766 0.54924 0.0
C166 C 0.01466 0.52481 0.53362 0.0
C167 C 0.01431 0.52715 0.49897 0.0
C168 C 0.91104 0.84626 0.41437 0.0
C169 C 0.96047 0.82064 0.39889 0.0
O170 O 0.07079 0.2803 0.64658 0.0
O171 O 0.06141 0.30847 0.36005 0.0
O172 O 0.94721 0.77018 0.38773 0.0
O173 O 0.95302 0.7533 0.66041 0.0
H174 H 0.13418 0.29433 0.67653 0.0
H175 H 0.1698 0.27803 0.61977 0.0
H176 H 0.14052 0.21294 0.61908 0.0
H177 H 0.19354 0.22832 0.64713 0.0
H178 H 0.98091 0.30785 0.62339 0.0
H179 H 0.14057 0.3612 0.63942 0.0
H180 H 0.92844 0.43458 0.60195 0.0
H181 H 0.91531 0.36404 0.60169 0.0
H182 H 0.94372 0.39546 0.56626 0.0
H183 H 0.17293 0.44174 0.61946 0.0
H184 H 0.12328 0.49305 0.62395 0.0
H185 H 0.13906 0.46688 0.58417 0.0
H186 H 0.98313 0.80329 0.62522 0.0
H187 H 0.90371 0.86159 0.62542 0.0
H188 H 0.87348 0.82262 0.65751 0.0
H189 H 0.88613 0.79326 0.61778 0.0
H190 H 0.0466 0.73293 0.63326 0.0
H191 H 0.89064 0.67255 0.65267 0.0
H192 H 0.10201 0.60982 0.60325 0.0
H193 H 0.1133 0.68043 0.60757 0.0
H194 H 0.08378 0.65366 0.57106 0.0
H195 H 0.86003 0.59159 0.63025 0.0
H196 H 0.91171 0.54199 0.63081 0.0
H197 H 0.89251 0.57035 0.59279 0.0
H198 H 0.99109 0.81926 0.41829 0.0
H199 H 0.04357 0.74605 0.4096 0.0
H200 H 0.885 0.68977 0.39462 0.0
H201 H 0.08379 0.65839 0.46627 0.0
H202 H 0.11074 0.69193 0.43116 0.0
H203 H 0.09977 0.621 0.43 0.0
H204 H 0.85505 0.60742 0.41456 0.0
H205 H 0.89154 0.57988 0.44814 0.0
H206 H 0.90572 0.55802 0.40718 0.0
H207 H 0.13556 0.27986 0.37031 0.0
H208 H 0.10878 0.3263 0.30253 0.0
H209 H 0.1723 0.29916 0.31412 0.0
H210 H 0.14732 0.35831 0.33373 0.0
H211 H 0.13835 0.36514 0.39037 0.0
H212 H 0.97044 0.34368 0.37868 0.0
H213 H 0.13681 0.4467 0.45705 0.0
H214 H 0.13205 0.49401 0.42489 0.0
H215 H 0.17435 0.43649 0.41978 0.0
H216 H 0.90775 0.39273 0.40993 0.0
H217 H 0.92701 0.46145 0.40723 0.0
H218 H 0.93095 0.42825 0.44561 0.0
H219 H 0.01665 0.51872 0.62863 0.0
H220 H 0.97704 0.6533 0.55006 0.0
H221 H 0.97662 0.65731 0.49177 0.0
H222 H 0.01395 0.53395 0.40399 0.0
H223 H 0.04798 0.39761 0.48248 0.0
H224 H 0.04982 0.39397 0.54087 0.0
H225 H 0.87869 0.84932 0.39621 0.0
H226 H 0.92044 0.88665 0.42391 0.0
H227 H 0.89668 0.82179 0.43506 0.0
Li228 Li 0.05668 0.0676 0.28464 0.0
Li229 Li 0.02602 0.9764 0.29002 0.0
Li230 Li 0.08337 0.00065 0.24253 0.0
Li231 Li 0.98911 0.02725 0.24626 0.0
C232 C 0.15268 0.01295 0.29828 0.0
N233 N 0.25704 0.03404 0.31434 0.0
C234 C 0.1735 0.99421 0.3275 0.0
C235 C 0.18517 0.04184 0.27708 0.0
C236 C 0.22628 0.00546 0.33523 0.0
C237 C 0.23774 0.05223 0.28565 0.0
C238 C 0.95513 0.0331 0.32171 0.0
C239 C 0.88208 0.99107 0.34986 0.0
N240 N 0.90127 0.00937 0.3788 0.0
C241 C 0.97394 0.05184 0.35168 0.0
C242 C 0.90861 0.00284 0.3207 0.0
C243 C 0.94616 0.03934 0.38029 0.0
C244 C 0.04586 0.17545 0.29735 0.0
N245 N 0.07452 0.13241 0.30641 0.0
C246 C 0.1243 0.18554 0.344 0.0
C247 C 0.11278 0.13635 0.32954 0.0
C248 C 0.0956 0.23078 0.33489 0.0
C249 C 0.05579 0.22522 0.31129 0.0
H250 H 0.01548 0.17102 0.27902 0.0
H251 H 0.13442 0.10154 0.33684 0.0
C252 C 0.97737 0.88274 0.31478 0.0
N253 N 0.01047 0.92382 0.32191 0.0
C254 C 0.96142 0.84769 0.33918 0.0
C255 C 0.01573 0.89657 0.37748 0.0
C256 C 0.03025 0.9309 0.3524 0.0
C257 C 0.9804 0.85466 0.3711 0.0
H258 H 0.96215 0.87799 0.2904 0.0
H259 H 0.0558 0.96441 0.3575 0.0
C260 C 0.07267 0.10909 0.2158 0.0
N261 N 0.11329 0.18556 0.1745 0.0
C262 C 0.05087 0.1162 0.18489 0.0
C263 C 0.11463 0.14161 0.22585 0.0
C264 C 0.07212 0.15482 0.16431 0.0
C265 C 0.13473 0.17985 0.20459 0.0
C266 C 0.9889 0.92785 0.22141 0.0
C267 C 0.01095 0.91114 0.19155 0.0
C268 C 0.93524 0.91802 0.22813 0.0
C269 C 0.97874 0.88536 0.16876 0.0
C270 C 0.90434 0.8922 0.20468 0.0
N271 N 0.92655 0.87656 0.17572 0.0
C272 C 0.17391 0.94124 0.22236 0.0
C273 C 0.13713 0.99568 0.18151 0.0
C274 C 0.21202 0.92163 0.20027 0.0
N275 N 0.13755 0.97762 0.21265 0.0
C276 C 0.17445 0.97719 0.15866 0.0
C277 C 0.21259 0.93974 0.16793 0.0
H278 H 0.17267 0.92675 0.24711 0.0
H279 H 0.10681 0.02316 0.17409 0.0
C280 C 0.88535 0.06667 0.23565 0.0
N281 N 0.92781 0.04272 0.22091 0.0
C282 C 0.84022 0.07901 0.21761 0.0
C283 C 0.88327 0.04137 0.16965 0.0
C284 C 0.92768 0.03035 0.1885 0.0
C285 C 0.83879 0.06619 0.18415 0.0
H286 H 0.88668 0.07655 0.26139 0.0
H287 H 0.96218 0.01198 0.17723 0.0
O288 O 0.10098 0.00232 0.29046 0.0
O289 O 0.9828 0.04333 0.29358 0.0
O290 O 0.05171 0.07187 0.23643 0.0
O291 O 0.0198 0.95351 0.24391 0.0
H292 H 0.14916 0.97132 0.34408 0.0
H293 H 0.17023 0.05548 0.25406 0.0
H294 H 0.24282 0.99141 0.35783 0.0
H295 H 0.26327 0.07458 0.26944 0.0
H296 H 0.84632 0.96725 0.34949 0.0
H297 H 0.00999 0.07516 0.35288 0.0
H298 H 0.89355 0.98806 0.29769 0.0
H299 H 0.96046 0.05323 0.4037 0.0
H300 H 0.15533 0.1882 0.36206 0.0
H301 H 0.03288 0.25918 0.30356 0.0
H302 H 0.93356 0.81633 0.3333 0.0
H303 H 0.03061 0.90364 0.40186 0.0
H304 H 0.01816 0.0919 0.17672 0.0
H305 H 0.13132 0.13794 0.2499 0.0
H306 H 0.05581 0.16039 0.14026 0.0
H307 H 0.16724 0.20515 0.21208 0.0
H308 H 0.05246 0.91798 0.18601 0.0
H309 H 0.91737 0.9311 0.25096 0.0
H310 H 0.99525 0.87237 0.14552 0.0
H311 H 0.86266 0.88479 0.20945 0.0
H312 H 0.24 0.89182 0.20813 0.0
H313 H 0.17277 0.99111 0.13376 0.0
H314 H 0.8069 0.0985 0.22964 0.0
H315 H 0.8838 0.03104 0.1439 0.0
Li316 Li 0.98841 0.03882 0.78875 0.0
Li317 Li 0.07966 0.00755 0.79133 0.0
Li318 Li 0.0549 0.07178 0.74836 0.0
Li319 Li 0.02824 0.97753 0.74543 0.0
C320 C 0.04254 0.13252 0.80834 0.0
N321 N 0.02006 0.23406 0.83086 0.0
C322 C 0.06237 0.15019 0.83831 0.0
C323 C 0.01177 0.16674 0.7897 0.0
C324 C 0.05042 0.20159 0.84933 0.0
C325 C 0.00073 0.21785 0.80151 0.0
C326 C 0.02368 0.93164 0.81773 0.0
C327 C 0.06517 0.85343 0.83937 0.0
N328 N 0.04891 0.86823 0.86992 0.0
C329 C 0.00696 0.94589 0.84927 0.0
C330 C 0.05261 0.88485 0.81263 0.0
C331 C 0.02023 0.91333 0.87536 0.0
C332 C 0.88082 0.02581 0.80074 0.0
N333 N 0.92363 0.05344 0.8116 0.0
C334 C 0.86959 0.09978 0.85095 0.0
C335 C 0.91917 0.08934 0.83656 0.0
C336 C 0.8245 0.07241 0.83985 0.0
C337 C 0.83067 0.0347 0.81454 0.0
H338 H 0.88566 0.99737 0.78093 0.0
H339 H 0.9538 0.1102 0.84522 0.0
C340 C 0.17257 0.95387 0.81313 0.0
N341 N 0.13238 0.98731 0.82197 0.0
C342 C 0.20742 0.9348 0.8366 0.0
C343 C 0.16006 0.9865 0.8776 0.0
C344 C 0.12593 0.00423 0.85339 0.0
C345 C 0.20132 0.95114 0.86937 0.0
H346 H 0.17665 0.94071 0.78807 0.0
H347 H 0.09294 0.02989 0.85984 0.0
C348 C 0.94571 0.06414 0.72136 0.0
N349 N 0.86795 0.10825 0.68282 0.0
C350 C 0.93933 0.04682 0.68908 0.0
C351 C 0.91181 0.10342 0.73413 0.0
C352 C 0.90005 0.06978 0.66995 0.0
C353 C 0.87294 0.12533 0.71425 0.0
C354 C 0.12792 0.981 0.72046 0.0
C355 C 0.14543 0.00753 0.69256 0.0
C356 C 0.13726 0.92651 0.72328 0.0
C357 C 0.17157 0.97894 0.66775 0.0
C358 C 0.16348 0.89933 0.69793 0.0
N359 N 0.17992 0.92588 0.67091 0.0
C360 C 0.10794 0.16914 0.73406 0.0
C361 C 0.0577 0.13181 0.69089 0.0
C362 C 0.12179 0.21254 0.71475 0.0
N363 N 0.07575 0.13036 0.72202 0.0
C364 C 0.07043 0.17437 0.6708 0.0
C365 C 0.10235 0.21581 0.6828 0.0
H366 H 0.12262 0.16651 0.75871 0.0
H367 H 0.03382 0.09963 0.68153 0.0
C368 C 0.98257 0.87922 0.72694 0.0
N369 N 0.011 0.92127 0.71572 0.0
C370 C 0.96563 0.83944 0.70535 0.0
C371 C 0.00841 0.88651 0.66121 0.0
C372 C 0.02408 0.92551 0.68356 0.0
C373 C 0.97872 0.84279 0.67198 0.0
H374 H 0.97184 0.87732 0.75254 0.0
H375 H 0.04543 0.95999 0.67505 0.0
O376 O 0.05368 0.08213 0.79736 0.0
O377 O 0.01276 0.96398 0.79208 0.0
O378 O 0.98361 0.04141 0.74059 0.0
O379 O 0.10207 0.00838 0.74491 0.0
H380 H 0.08668 0.1245 0.85298 0.0
H381 H 0.99724 0.15428 0.76616 0.0
H382 H 0.06533 0.21568 0.87254 0.0
H383 H 0.97696 0.24469 0.78729 0.0
H384 H 0.08796 0.81735 0.83585 0.0
H385 H 0.98467 0.9821 0.8536 0.0
H386 H 0.06568 0.87324 0.78834 0.0
H387 H 0.00796 0.92406 0.89995 0.0
H388 H 0.86646 0.12915 0.8704 0.0
H389 H 0.79686 0.01284 0.80528 0.0
H390 H 0.23795 0.90661 0.82935 0.0
H391 H 0.15331 0.99899 0.90269 0.0
H392 H 0.96476 0.01638 0.67873 0.0
H393 H 0.91493 0.11671 0.7592 0.0
H394 H 0.89507 0.05695 0.64487 0.0
H395 H 0.84659 0.15579 0.72386 0.0
H396 H 0.13898 0.04975 0.69007 0.0
H397 H 0.1236 0.90525 0.74456 0.0
H398 H 0.18521 0.99895 0.64599 0.0
H399 H 0.17057 0.85709 0.69967 0.0
H400 H 0.14724 0.24327 0.72468 0.0
H401 H 0.05554 0.17492 0.64609 0.0
H402 H 0.94162 0.80707 0.71451 0.0
H403 H 0.01815 0.89117 0.63558 0.0
loop_
_geom_bond_atom_site_label_1
_geom_bond_atom_site_label_2
_geom_bond_distance
_geom_bond_site_symmetry_2
_ccdc_geom_bond_type
C0 C1 1.560 . S
C0 H61 0.959 . S
C0 H62 0.959 . S
C0 H63 0.960 . S
C1 C0 1.560 . S
C1 O56 1.426 . S
C1 H60 0.980 . S
C2 C3 1.407 1_545 S
C2 C7 1.418 . S
C2 O56 1.334 . S
C3 C2 1.407 1_565 S
C3 C4 1.360 . S
C3 H64 0.929 . S
C4 C3 1.360 . S
C4 C5 1.401 1_565 S
C4 C8 1.527 . S
C5 C4 1.401 1_545 S
C5 C6 1.405 . S
C5 C38 1.587 1_545 S
C6 C5 1.405 . S
C6 C7 1.332 . S
C6 C9 1.496 . S
C7 C2 1.418 . S
C7 C6 1.332 . S
C7 H65 0.929 . S
C8 C4 1.527 . S
C8 H66 0.959 . S
C8 H67 0.961 . S
C8 H68 0.961 . S
C9 C6 1.496 . S
C9 H69 0.960 . S
C9 H70 0.960 . S
C9 H71 0.961 . S
C10 C11 1.517 . S
C10 H73 0.961 1_565 S
C10 H74 0.960 . S
C10 H75 0.959 . S
C11 C10 1.517 . S
C11 O59 1.468 . S
C11 H72 0.980 1_565 S
C12 C13 1.332 1_565 S
C12 C17 1.367 . S
C12 O59 1.408 . S
C13 C12 1.332 1_545 S
C13 C14 1.411 . S
C13 H76 0.945 . S
C14 C13 1.411 . S
C14 C15 1.449 1_545 S
C14 C18 1.535 . S
C15 C14 1.449 1_565 S
C15 C16 1.384 . S
C15 C40 1.553 . S
C16 C15 1.384 . S
C16 C17 1.364 . S
C16 C19 1.450 . S
C17 C12 1.367 . S
C17 C16 1.364 . S
C17 H77 0.931 . S
C18 C14 1.535 . S
C18 H78 0.959 . S
C18 H79 0.961 . S
C18 H80 0.959 . S
C19 C16 1.450 . S
C19 H81 0.960 . S
C19 H82 0.960 . S
C19 H83 0.960 . S
C20 C21 1.309 1_565 S
C20 C25 1.304 . S
C20 O58 1.435 . S
C21 C20 1.309 1_545 S
C21 C22 1.476 . S
C21 H85 0.930 . S
C22 C21 1.476 . S
C22 C23 1.400 1_545 S
C22 C26 1.567 . S
C23 C22 1.400 1_565 S
C23 C24 1.373 . S
C23 C45 1.432 . S
C24 C23 1.373 . S
C24 C25 1.339 . S
C24 C27 1.530 . S
C25 C20 1.304 . S
C25 C24 1.339 . S
C25 H86 0.930 . S
C26 C22 1.567 . S
C26 H87 0.961 . S
C26 H88 0.960 . S
C26 H89 0.958 . S
C27 C24 1.530 . S
C27 H90 0.961 . S
C27 H91 0.960 . S
C27 H92 0.960 . S
C28 C29 1.530 . S
C28 H94 0.961 . S
C28 H95 0.961 . S
C28 H96 0.959 . S
C29 C28 1.530 . S
C29 O57 1.412 . S
C29 H93 0.980 . S
C30 C31 1.288 . S
C30 C35 1.377 1_545 S
C30 O57 1.393 . S
C31 C30 1.288 . S
C31 C32 1.369 . S
C31 H97 0.932 . S
C32 C31 1.369 . S
C32 C33 1.398 . S
C32 C36 1.527 . S
C33 C32 1.398 . S
C33 C34 1.380 1_545 S
C33 C47 1.497 . S
C34 C33 1.380 1_565 S
C34 C35 1.383 . S
C34 C37 1.603 . S
C35 C30 1.377 1_565 S
C35 C34 1.383 . S
C35 H98 0.929 . S
C36 C32 1.527 . S
C36 H99 0.961 . S
C36 H100 0.959 . S
C36 H101 0.959 . S
C37 C34 1.603 . S
C37 H102 0.960 . S
C37 H103 0.962 . S
C37 H104 0.961 . S
C38 C5 1.587 1_565 S
C38 C39 1.360 . S
C38 C51 1.412 . S
C39 C38 1.360 . S
C39 C40 1.365 . S
C39 H105 0.929 . S
C40 C15 1.553 . S
C40 C39 1.365 . S
C40 C41 1.404 . S
C41 C40 1.404 . S
C41 C42 1.395 . S
C41 C52 1.451 . S
C42 C41 1.395 . S
C42 C43 1.322 . S
C42 H106 0.930 . S
C43 C42 1.322 . S
C43 C44 1.459 1_554 S
C43 H107 0.929 1_554 S
C44 C43 1.459 1_556 S
C44 C45 1.445 . S
C44 C53 1.395 . S
C45 C23 1.432 . S
C45 C44 1.445 . S
C45 C46 1.370 . S
C46 C45 1.370 . S
C46 C47 1.438 1_565 S
C46 H108 0.930 . S
C47 C33 1.497 . S
C47 C46 1.438 1_545 S
C47 C48 1.360 1_545 S
C48 C47 1.360 1_565 S
C48 C49 1.401 1_565 S
C48 C53 1.446 . S
C49 C48 1.401 1_545 S
C49 C50 1.347 1_556 S
C49 H109 0.929 . S
C50 C49 1.347 1_554 S
C50 C51 1.455 1_545 S
C50 H110 0.930 . S
C51 C38 1.412 . S
C51 C50 1.455 1_565 S
C51 C52 1.331 . S
C52 C41 1.451 . S
C52 C51 1.331 . S
C52 C53 1.497 1_554 S
C53 C44 1.395 . S
C53 C48 1.446 . S
C53 C52 1.497 1_556 S
C54 C55 1.581 1_565 S
C54 H111 0.962 . S
C54 H112 0.959 . S
C54 H113 0.958 . S
C55 C54 1.581 1_545 S
C55 O58 1.457 1_545 S
C55 H84 0.981 . S
O56 C1 1.426 . S
O56 C2 1.334 . S
O57 C29 1.412 . S
O57 C30 1.393 . S
O58 C20 1.435 . S
O58 C55 1.457 1_565 S
O59 C11 1.468 . S
O59 C12 1.408 . S
H60 C1 0.980 . S
H61 C0 0.959 . S
H62 C0 0.959 . S
H63 C0 0.960 . S
H64 C3 0.929 . S
H65 C7 0.929 . S
H66 C8 0.959 . S
H67 C8 0.961 . S
H68 C8 0.961 . S
H69 C9 0.960 . S
H70 C9 0.960 . S
H71 C9 0.961 . S
H72 C11 0.980 1_545 S
H73 C10 0.961 1_545 S
H74 C10 0.960 . S
H75 C10 0.959 . S
H76 C13 0.945 . S
H77 C17 0.931 . S
H78 C18 0.959 . S
H79 C18 0.961 . S
H80 C18 0.959 . S
H81 C19 0.960 . S
H82 C19 0.960 . S
H83 C19 0.960 . S
H84 C55 0.981 . S
H85 C21 0.930 . S
H86 C25 0.930 . S
H87 C26 0.961 . S
H88 C26 0.960 . S
H89 C26 0.958 . S
H90 C27 0.961 . S
H91 C27 0.960 . S
H92 C27 0.960 . S
H93 C29 0.980 . S
H94 C28 0.961 . S
H95 C28 0.961 . S
H96 C28 0.959 . S
H97 C31 0.932 . S
H98 C35 0.929 . S
H99 C36 0.961 . S
H100 C36 0.959 . S
H101 C36 0.959 . S
H102 C37 0.960 . S
H103 C37 0.962 . S
H104 C37 0.961 . S
H105 C39 0.929 . S
H106 C42 0.930 . S
H107 C43 0.929 1_556 S
H108 C46 0.930 . S
H109 C49 0.929 . S
H110 C50 0.930 . S
H111 C54 0.962 . S
H112 C54 0.959 . S
H113 C54 0.958 . S
C114 C115 1.560 . S
C114 H175 0.959 . S
C114 H176 0.959 . S
C114 H177 0.960 . S
C115 C114 1.560 . S
C115 O170 1.426 . S
C115 H174 0.980 . S
C116 C117 1.407 . S
C116 C121 1.418 . S
C116 O170 1.334 . S
C117 C116 1.407 . S
C117 C118 1.360 1_455 S
C117 H178 0.929 1_455 S
C118 C117 1.360 1_655 S
C118 C119 1.401 1_655 S
C118 C122 1.527 . S
C119 C118 1.401 1_455 S
C119 C120 1.405 . S
C119 C152 1.587 . S
C120 C119 1.405 . S
C120 C121 1.332 . S
C120 C123 1.496 . S
C121 C116 1.418 . S
C121 C120 1.332 . S
C121 H179 0.929 . S
C122 C118 1.527 . S
C122 H180 0.959 . S
C122 H181 0.961 . S
C122 H182 0.961 . S
C123 C120 1.496 . S
C123 H183 0.960 . S
C123 H184 0.960 . S
C123 H185 0.961 . S
C124 C125 1.517 1_655 S
C124 H187 0.961 1_655 S
C124 H188 0.960 . S
C124 H189 0.959 . S
C125 C124 1.517 1_455 S
C125 O173 1.468 1_455 S
C125 H186 0.980 . S
C126 C127 1.349 1_655 S
C126 C131 1.367 . S
C126 O173 1.408 . S
C127 C126 1.349 1_455 S
C127 C128 1.407 . S
C127 H190 0.930 . S
C128 C127 1.407 . S
C128 C129 1.449 1_455 S
C128 C132 1.535 . S
C129 C128 1.449 1_655 S
C129 C130 1.384 . S
C129 C154 1.553 . S
C130 C129 1.384 . S
C130 C131 1.364 . S
C130 C133 1.450 . S
C131 C126 1.367 . S
C131 C130 1.364 . S
C131 H191 0.931 . S
C132 C128 1.535 . S
C132 H192 0.959 . S
C132 H193 0.961 . S
C132 H194 0.959 . S
C133 C130 1.450 . S
C133 H195 0.960 . S
C133 H196 0.960 . S
C133 H197 0.960 . S
C134 C135 1.309 1_655 S
C134 C139 1.304 . S
C134 O172 1.435 . S
C135 C134 1.309 1_455 S
C135 C136 1.476 . S
C135 H199 0.930 . S
C136 C135 1.476 . S
C136 C137 1.400 . S
C136 C140 1.567 . S
C137 C136 1.400 . S
C137 C138 1.373 1_455 S
C137 C159 1.432 . S
C138 C137 1.373 1_655 S
C138 C139 1.339 . S
C138 C141 1.530 . S
C139 C134 1.304 . S
C139 C138 1.339 . S
C139 H200 0.930 . S
C140 C136 1.567 . S
C140 H201 0.961 . S
C140 H202 0.960 . S
C140 H203 0.958 . S
C141 C138 1.530 . S
C141 H204 0.961 . S
C141 H205 0.960 . S
C141 H206 0.960 . S
C142 C143 1.530 . S
C142 H208 0.961 . S
C142 H209 0.961 . S
C142 H210 0.959 . S
C143 C142 1.530 . S
C143 O171 1.412 . S
C143 H207 0.980 . S
C144 C145 1.288 . S
C144 C149 1.377 . S
C144 O171 1.393 . S
C145 C144 1.288 . S
C145 C146 1.369 . S
C145 H211 0.932 . S
C146 C145 1.369 . S
C146 C147 1.398 . S
C146 C150 1.527 . S
C147 C146 1.398 . S
C147 C148 1.380 1_455 S
C147 C161 1.497 . S
C148 C147 1.380 1_655 S
C148 C149 1.383 1_655 S
C148 C151 1.603 . S
C149 C144 1.377 . S
C149 C148 1.383 1_455 S
C149 H212 0.929 1_455 S
C150 C146 1.527 . S
C150 H213 0.961 . S
C150 H214 0.959 . S
C150 H215 0.959 . S
C151 C148 1.603 . S
C151 H216 0.960 . S
C151 H217 0.962 . S
C151 H218 0.961 . S
C152 C119 1.587 . S
C152 C153 1.356 1_455 S
C152 C165 1.412 . S
C153 C152 1.356 1_655 S
C153 C154 1.368 . S
C153 H219 0.930 . S
C154 C129 1.553 . S
C154 C153 1.368 . S
C154 C155 1.404 . S
C155 C154 1.404 . S
C155 C156 1.395 . S
C155 C166 1.451 1_655 S
C156 C155 1.395 . S
C156 C157 1.322 . S
C156 H220 0.930 . S
C157 C156 1.322 . S
C157 C158 1.459 1_655 S
C157 H221 0.929 . S
C158 C157 1.459 1_455 S
C158 C159 1.445 . S
C158 C167 1.395 . S
C159 C137 1.432 . S
C159 C158 1.445 . S
C159 C160 1.370 . S
C160 C159 1.370 . S
C160 C161 1.438 . S
C160 H222 0.930 . S
C161 C147 1.497 . S
C161 C160 1.438 . S
C161 C162 1.360 . S
C162 C161 1.360 . S
C162 C163 1.401 . S
C162 C167 1.446 . S
C163 C162 1.401 . S
C163 C164 1.347 . S
C163 H223 0.929 . S
C164 C163 1.347 . S
C164 C165 1.455 . S
C164 H224 0.930 . S
C165 C152 1.412 . S
C165 C164 1.455 . S
C165 C166 1.331 . S
C166 C155 1.451 1_455 S
C166 C165 1.331 . S
C166 C167 1.497 . S
C167 C158 1.395 . S
C167 C162 1.446 . S
C167 C166 1.497 . S
C168 C169 1.582 1_655 S
C168 H225 0.962 1_655 S
C168 H226 0.959 . S
C168 H227 0.958 . S
C169 C168 1.582 1_455 S
C169 O172 1.458 1_455 S
C169 H198 0.980 . S
O170 C115 1.426 . S
O170 C116 1.334 . S
O171 C143 1.412 . S
O171 C144 1.393 . S
O172 C134 1.435 . S
O172 C169 1.458 1_655 S
O173 C125 1.468 1_655 S
O173 C126 1.408 . S
H174 C115 0.980 . S
H175 C114 0.959 . S
H176 C114 0.959 . S
H177 C114 0.960 . S
H178 C117 0.929 1_655 S
H179 C121 0.929 . S
H180 C122 0.959 . S
H181 C122 0.961 . S
H182 C122 0.961 . S
H183 C123 0.960 . S
H184 C123 0.960 . S
H185 C123 0.961 . S
H186 C125 0.980 . S
H187 C124 0.961 1_455 S
H188 C124 0.960 . S
H189 C124 0.959 . S
H190 C127 0.930 . S
H191 C131 0.931 . S
H192 C132 0.959 . S
H193 C132 0.961 . S
H194 C132 0.959 . S
H195 C133 0.960 . S
H196 C133 0.960 . S
H197 C133 0.960 . S
H198 C169 0.980 . S
H199 C135 0.930 . S
H200 C139 0.930 . S
H201 C140 0.961 . S
H202 C140 0.960 . S
H203 C140 0.958 . S
H204 C141 0.961 . S
H205 C141 0.960 . S
H206 C141 0.960 . S
H207 C143 0.980 . S
H208 C142 0.961 . S
H209 C142 0.961 . S
H210 C142 0.959 . S
H211 C145 0.932 . S
H212 C149 0.929 1_655 S
H213 C150 0.961 . S
H214 C150 0.959 . S
H215 C150 0.959 . S
H216 C151 0.960 . S
H217 C151 0.962 . S
H218 C151 0.961 . S
H219 C153 0.930 . S
H220 C156 0.930 . S
H221 C157 0.929 . S
H222 C160 0.930 . S
H223 C163 0.929 . S
H224 C164 0.930 . S
H225 C168 0.962 1_455 S
H226 C168 0.959 . S
H227 C168 0.958 . S
Li228 N245 1.990 . S
Li228 O288 1.956 . S
Li228 O289 1.970 1_455 S
Li228 O290 1.961 . S
Li229 N253 1.990 . S
Li229 O288 1.970 1_565 S
Li229 O289 1.956 1_465 S
Li229 O291 1.961 . S
Li230 N275 1.990 . S
Li230 O288 1.961 . S
Li230 O290 1.956 . S
Li230 O291 1.970 1_545 S
Li231 N281 1.990 . S
Li231 O289 1.961 . S
Li231 O290 1.970 1_655 S
Li231 O291 1.956 1_645 S
C232 C234 1.348 1_545 S
C232 C235 1.356 . S
C232 O288 1.325 . S
N233 C236 1.314 1_545 S
N233 C237 1.279 . S
C234 C232 1.348 1_565 S
C234 C236 1.353 . S
C234 H292 0.929 . S
C235 C232 1.356 . S
C235 C237 1.358 . S
C235 H293 0.930 . S
C236 N233 1.314 1_565 S
C236 C234 1.353 . S
C236 H294 0.930 . S
C237 N233 1.279 . S
C237 C235 1.358 . S
C237 H295 0.930 . S
C238 C241 1.348 . S
C238 C242 1.356 1_545 S
C238 O289 1.325 . S
C239 N240 1.279 1_565 S
C239 C242 1.358 . S
C239 H296 0.930 . S
N240 C239 1.279 1_545 S
N240 C243 1.314 . S
C241 C238 1.348 . S
C241 C243 1.353 . S
C241 H297 0.929 . S
C242 C238 1.356 1_565 S
C242 C239 1.358 . S
C242 H298 0.930 . S
C243 N240 1.314 . S
C243 C241 1.353 . S
C243 H299 0.930 . S
C244 N245 1.314 . S
C244 C249 1.353 . S
C244 H250 0.930 1_455 S
N245 Li228 1.990 . S
N245 C244 1.314 . S
N245 C247 1.279 . S
C246 C247 1.358 . S
C246 C248 1.356 . S
C246 H300 0.930 . S
C247 N245 1.279 . S
C247 C246 1.358 . S
C247 H251 0.930 . S
C248 C246 1.356 . S
C248 C249 1.348 . S
C249 C244 1.353 . S
C249 C248 1.348 . S
C249 H301 0.929 1_455 S
H250 C244 0.930 1_655 S
H251 C247 0.930 . S
C252 N253 1.314 . S
C252 C254 1.353 . S
C252 H258 0.930 . S
N253 Li229 1.990 . S
N253 C252 1.314 . S
N253 C256 1.280 1_455 S
C254 C252 1.353 . S
C254 C257 1.348 . S
C254 H302 0.929 . S
C255 C256 1.358 1_455 S
C255 C257 1.360 . S
C255 H303 0.926 1_455 S
C256 N253 1.280 1_655 S
C256 C255 1.358 1_655 S
C256 H259 0.929 . S
C257 C254 1.348 . S
C257 C255 1.360 . S
H258 C252 0.930 . S
H259 C256 0.929 . S
C260 C262 1.348 . S
C260 C263 1.356 . S
C260 O290 1.325 . S
N261 C264 1.314 . S
N261 C265 1.279 . S
C262 C260 1.348 . S
C262 C264 1.353 . S
C262 H304 0.929 1_455 S
C263 C260 1.356 . S
C263 C265 1.358 . S
C263 H305 0.930 . S
C264 N261 1.314 . S
C264 C262 1.353 . S
C264 H306 0.930 1_455 S
C265 N261 1.279 . S
C265 C263 1.358 . S
C265 H307 0.930 . S
C266 C267 1.348 . S
C266 C268 1.357 . S
C266 O291 1.325 . S
C267 C266 1.348 . S
C267 C269 1.353 . S
C267 H308 0.929 . S
C268 C266 1.357 . S
C268 C270 1.358 1_455 S
C268 H309 0.928 1_455 S
C269 C267 1.353 . S
C269 N271 1.314 . S
C269 H310 0.930 . S
C270 C268 1.358 1_655 S
C270 N271 1.278 1_655 S
C270 H311 0.932 . S
N271 C269 1.314 . S
N271 C270 1.278 1_455 S
C272 C274 1.353 . S
C272 N275 1.314 1_565 S
C272 H278 0.930 . S
C273 N275 1.279 . S
C273 C276 1.358 . S
C273 H279 0.930 . S
C274 C272 1.353 . S
C274 C277 1.348 1_565 S
C274 H312 0.929 . S
N275 Li230 1.990 . S
N275 C272 1.314 1_545 S
N275 C273 1.279 . S
C276 C273 1.358 . S
C276 C277 1.356 . S
C276 H313 0.930 . S
C277 C274 1.348 1_545 S
C277 C276 1.356 . S
H278 C272 0.930 . S
H279 C273 0.930 . S
C280 N281 1.314 . S
C280 C282 1.353 . S
C280 H286 0.930 . S
N281 Li231 1.990 . S
N281 C280 1.314 . S
N281 C284 1.279 1_545 S
C282 C280 1.353 . S
C282 C285 1.348 . S
C282 H314 0.929 . S
C283 C284 1.358 . S
C283 C285 1.356 1_565 S
C283 H315 0.930 . S
C284 N281 1.279 1_565 S
C284 C283 1.358 . S
C284 H287 0.930 . S
C285 C282 1.348 . S
C285 C283 1.356 1_545 S
H286 C280 0.930 . S
H287 C284 0.930 . S
O288 Li228 1.956 . S
O288 Li229 1.970 1_545 S
O288 Li230 1.961 . S
O288 C232 1.325 . S
O289 Li228 1.970 1_655 S
O289 Li229 1.956 1_645 S
O289 Li231 1.961 . S
O289 C238 1.325 . S
O290 Li228 1.961 . S
O290 Li230 1.956 . S
O290 Li231 1.970 1_455 S
O290 C260 1.325 . S
O291 Li229 1.961 . S
O291 Li230 1.970 1_565 S
O291 Li231 1.956 1_465 S
O291 C266 1.325 . S
H292 C234 0.929 . S
H293 C235 0.930 . S
H294 C236 0.930 . S
H295 C237 0.930 . S
H296 C239 0.930 . S
H297 C241 0.929 . S
H298 C242 0.930 . S
H299 C243 0.930 . S
H300 C246 0.930 . S
H301 C249 0.929 1_655 S
H302 C254 0.929 . S
H303 C255 0.926 1_655 S
H304 C262 0.929 1_655 S
H305 C263 0.930 . S
H306 C264 0.930 1_655 S
H307 C265 0.930 . S
H308 C267 0.929 . S
H309 C268 0.928 1_655 S
H310 C269 0.930 . S
H311 C270 0.932 . S
H312 C274 0.929 . S
H313 C276 0.930 . S
H314 C282 0.929 . S
H315 C283 0.930 . S
Li316 N333 1.990 . S
Li316 O376 1.956 1_655 S
Li316 O377 1.970 1_645 S
Li316 O378 1.961 . S
Li317 N341 1.990 . S
Li317 O376 1.970 . S
Li317 O377 1.956 1_545 S
Li317 O379 1.961 . S
Li318 N363 1.990 . S
Li318 O376 1.961 . S
Li318 O378 1.956 1_455 S
Li318 O379 1.970 . S
Li319 N369 1.990 . S
Li319 O377 1.961 . S
Li319 O378 1.970 1_465 S
Li319 O379 1.956 1_565 S
C320 C322 1.348 . S
C320 C323 1.356 1_455 S
C320 O376 1.325 . S
N321 C324 1.314 . S
N321 C325 1.279 1_455 S
C322 C320 1.348 . S
C322 C324 1.353 . S
C322 H380 0.929 . S
C323 C320 1.356 1_655 S
C323 C325 1.358 . S
C323 H381 0.930 . S
C324 N321 1.314 . S
C324 C322 1.353 . S
C324 H382 0.930 . S
C325 N321 1.279 1_655 S
C325 C323 1.358 . S
C325 H383 0.930 . S
C326 C329 1.338 1_455 S
C326 C330 1.356 . S
C326 O377 1.325 . S
C327 N328 1.279 . S
C327 C330 1.358 . S
C327 H384 0.930 . S
N328 C327 1.279 . S
N328 C331 1.314 . S
C329 C326 1.338 1_655 S
C329 C331 1.352 1_655 S
C329 H385 0.940 . S
C330 C326 1.356 . S
C330 C327 1.358 . S
C330 H386 0.930 . S
C331 N328 1.314 . S
C331 C329 1.352 1_455 S
C331 H387 0.930 1_455 S
C332 N333 1.314 1_565 S
C332 C337 1.353 . S
C332 H338 0.930 . S
N333 Li316 1.990 . S
N333 C332 1.314 1_545 S
N333 C335 1.279 . S
C334 C335 1.358 . S
C334 C336 1.356 . S
C334 H388 0.930 . S
C335 N333 1.279 . S
C335 C334 1.358 . S
C335 H339 0.930 . S
C336 C334 1.356 . S
C336 C337 1.348 1_545 S
C337 C332 1.353 . S
C337 C336 1.348 1_565 S
C337 H389 0.929 . S
H338 C332 0.930 . S
H339 C335 0.930 . S
C340 N341 1.314 . S
C340 C342 1.353 . S
C340 H346 0.930 . S
N341 Li317 1.990 . S
N341 C340 1.314 . S
N341 C344 1.279 1_545 S
C342 C340 1.353 . S
C342 C345 1.348 . S
C342 H390 0.929 . S
C343 C344 1.358 . S
C343 C345 1.356 1_565 S
C343 H391 0.930 . S
C344 N341 1.279 1_565 S
C344 C343 1.358 . S
C344 H347 0.930 . S
C345 C342 1.348 . S
C345 C343 1.356 1_545 S
H346 C340 0.930 . S
H347 C344 0.930 . S
C348 C350 1.348 1_545 S
C348 C351 1.356 . S
C348 O378 1.325 . S
N349 C352 1.314 1_545 S
N349 C353 1.279 . S
C350 C348 1.348 1_565 S
C350 C352 1.353 . S
C350 H392 0.929 . S
C351 C348 1.356 . S
C351 C353 1.358 . S
C351 H393 0.930 . S
C352 N349 1.314 1_565 S
C352 C350 1.353 . S
C352 H394 0.930 . S
C353 N349 1.279 . S
C353 C351 1.358 . S
C353 H395 0.930 . S
C354 C355 1.348 . S
C354 C356 1.356 1_545 S
C354 O379 1.325 . S
C355 C354 1.348 . S
C355 C357 1.353 . S
C355 H396 0.929 . S
C356 C354 1.356 1_565 S
C356 C358 1.358 . S
C356 H397 0.930 . S
C357 C355 1.353 . S
C357 N359 1.314 . S
C357 H398 0.930 . S
C358 C356 1.358 . S
C358 N359 1.279 1_565 S
C358 H399 0.930 . S
N359 C357 1.314 . S
N359 C358 1.279 1_545 S
C360 C362 1.353 . S
C360 N363 1.314 . S
C360 H366 0.930 . S
C361 N363 1.279 1_655 S
C361 C364 1.358 . S
C361 H367 0.930 . S
C362 C360 1.353 . S
C362 C365 1.348 . S
C362 H400 0.929 . S
N363 Li318 1.990 . S
N363 C360 1.314 . S
N363 C361 1.279 1_455 S
C364 C361 1.358 . S
C364 C365 1.356 1_655 S
C364 H401 0.930 . S
C365 C362 1.348 . S
C365 C364 1.356 1_455 S
H366 C360 0.930 . S
H367 C361 0.930 . S
C368 N369 1.314 . S
C368 C370 1.353 . S
C368 H374 0.930 1_455 S
N369 Li319 1.990 . S
N369 C368 1.314 . S
N369 C372 1.279 . S
C370 C368 1.353 . S
C370 C373 1.348 . S
C370 H402 0.929 1_455 S
C371 C372 1.358 . S
C371 C373 1.356 . S
C371 H403 0.930 . S
C372 N369 1.279 . S
C372 C371 1.358 . S
C372 H375 0.930 . S
C373 C370 1.348 . S
C373 C371 1.356 . S
H374 C368 0.930 1_655 S
H375 C372 0.930 . S
O376 Li316 1.956 1_455 S
O376 Li317 1.970 . S
O376 Li318 1.961 . S
O376 C320 1.325 . S
O377 Li316 1.970 1_465 S
O377 Li317 1.956 1_565 S
O377 Li319 1.961 . S
O377 C326 1.325 . S
O378 Li316 1.961 . S
O378 Li318 1.956 1_655 S
O378 Li319 1.970 1_645 S
O378 C348 1.325 . S
O379 Li317 1.961 . S
O379 Li318 1.970 . S
O379 Li319 1.956 1_545 S
O379 C354 1.325 . S
H380 C322 0.929 . S
H381 C323 0.930 . S
H382 C324 0.930 . S
H383 C325 0.930 . S
H384 C327 0.930 . S
H385 C329 0.940 . S
H386 C330 0.930 . S
H387 C331 0.930 1_655 S
H388 C334 0.930 . S
H389 C337 0.929 . S
H390 C342 0.929 . S
H391 C343 0.930 . S
H392 C350 0.929 . S
H393 C351 0.930 . S
H394 C352 0.930 . S
H395 C353 0.930 . S
H396 C355 0.929 . S
H397 C356 0.930 . S
H398 C357 0.930 . S
H399 C358 0.930 . S
H400 C362 0.929 . S
H401 C364 0.930 . S
H402 C370 0.929 1_655 S
H403 C371 0.930 . S
C277 C11 0.947 1_545 S
C365 C115 1.275 . S
C285 C1 1.204 . S
C373 C125 0.845 . S
C345 C55 1.178 . S
C248 C143 0.919 . S
C336 C29 0.890 . S
C169 C257 1.146 . S
