# Generated by pormake.
# Topology pyr, (3,6)-cn, num edge types: 1
# Building blocks:
#     Node 0, Type 0, BuildingBlock: MIDCAF_clean_linker_0, # of connection points: 3
#     Node 1, Type 0, BuildingBlock: MIDCAF_clean_linker_0, # of connection points: 3
#     Node 2, Type 0, BuildingBlock: MIDCAF_clean_linker_0, # of connection points: 3
#     Node 3, Type 0, BuildingBlock: MIDCAF_clean_linker_0, # of connection points: 3
#     Node 4, Type 0, BuildingBlock: MIDCAF_clean_linker_0, # of connection points: 3
#     Node 5, Type 0, BuildingBlock: MIDCAF_clean_linker_0, # of connection points: 3
#     Node 6, Type 0, BuildingBlock: MIDCAF_clean_linker_0, # of connection points: 3
#     Node 7, Type 0, BuildingBlock: MIDCAF_clean_linker_0, # of connection points: 3
#     Node 8, Type 1, BuildingBlock: PAMTUU_clean_sbu_0, # of connection points: 6
#     Node 9, Type 1, BuildingBlock: PAMTUU_clean_sbu_0, # of connection points: 6
#     Node 10, Type 1, BuildingBlock: PAMTUU_clean_sbu_0, # of connection points: 6
#     Node 11, Type 1, BuildingBlock: PAMTUU_clean_sbu_0, # of connection points: 6
#     Edge 12, Type (0, 1), BuildingBlock: KIFKEQ_clean_linker_1, # of connection points: 2
#     Edge 13, Type (0, 1), BuildingBlock: KIFKEQ_clean_linker_1, # of connection points: 2
#     Edge 14, Type (0, 1), BuildingBlock: KIFKEQ_clean_linker_1, # of connection points: 2
#     Edge 15, Type (0, 1), BuildingBlock: KIFKEQ_clean_linker_1, # of connection points: 2
#     Edge 16, Type (0, 1), BuildingBlock: KIFKEQ_clean_linker_1, # of connection points: 2
#     Edge 17, Type (0, 1), BuildingBlock: KIFKEQ_clean_linker_1, # of connection points: 2
#     Edge 18, Type (0, 1), BuildingBlock: KIFKEQ_clean_linker_1, # of connection points: 2
#     Edge 19, Type (0, 1), BuildingBlock: KIFKEQ_clean_linker_1, # of connection points: 2
#     Edge 20, Type (0, 1), BuildingBlock: KIFKEQ_clean_linker_1, # of connection points: 2
#     Edge 21, Type (0, 1), BuildingBlock: KIFKEQ_clean_linker_1, # of connection points: 2
#     Edge 22, Type (0, 1), BuildingBlock: KIFKEQ_clean_linker_1, # of connection points: 2
#     Edge 23, Type (0, 1), BuildingBlock: KIFKEQ_clean_linker_1, # of connection points: 2
#     Edge 24, Type (0, 1), BuildingBlock: KIFKEQ_clean_linker_1, # of connection points: 2
#     Edge 25, Type (0, 1), BuildingBlock: KIFKEQ_clean_linker_1, # of connection points: 2
#     Edge 26, Type (0, 1), BuildingBlock: KIFKEQ_clean_linker_1, # of connection points: 2
#     Edge 27, Type (0, 1), BuildingBlock: KIFKEQ_clean_linker_1, # of connection points: 2
#     Edge 28, Type (0, 1), BuildingBlock: KIFKEQ_clean_linker_1, # of connection points: 2
#     Edge 29, Type (0, 1), BuildingBlock: KIFKEQ_clean_linker_1, # of connection points: 2
#     Edge 30, Type (0, 1), BuildingBlock: KIFKEQ_clean_linker_1, # of connection points: 2
#     Edge 31, Type (0, 1), BuildingBlock: KIFKEQ_clean_linker_1, # of connection points: 2
#     Edge 32, Type (0, 1), BuildingBlock: KIFKEQ_clean_linker_1, # of connection points: 2
#     Edge 33, Type (0, 1), BuildingBlock: KIFKEQ_clean_linker_1, # of connection points: 2
#     Edge 34, Type (0, 1), BuildingBlock: KIFKEQ_clean_linker_1, # of connection points: 2
#     Edge 35, Type (0, 1), BuildingBlock: KIFKEQ_clean_linker_1, # of connection points: 2
# Relax obj value: 0.085
# Max RMSD: 0.124
# Mean RMSD: 0.052
data_MOF--net-pyr--node1-PAMTUU_clean_sbu_0--node2-MIDCAF_clean_linker_0--edge1-KIFKEQ_clean_linker_1
_symmetry_space_group_name_H-M    P1
_symmetry_Int_Tables_number       1
_symmetry_cell_setting            triclinic
loop_
_symmetry_equiv_pos_as_xyz
'x, y, z'
_cell_length_a     47.027322
_cell_length_b     47.848141
_cell_length_c     45.816631
_cell_angle_alpha  90.017389
_cell_angle_beta   89.478261
_cell_angle_gamma 100.27543
loop_
_atom_site_label
_atom_site_type_symbol
_atom_site_fract_x
_atom_site_fract_y
_atom_site_fract_z
_atom_type_partial_charge
C0 C 0.28188 0.27064 0.31796 0.0
C1 C 0.28921 0.24689 0.33206 0.0
C2 C 0.3136 0.23622 0.3223 0.0
C3 C 0.32897 0.24768 0.29757 0.0
H4 H 0.39636 0.23876 0.24117 0.0
H5 H 0.42718 0.20816 0.22002 0.0
H6 H 0.40417 0.23183 0.13352 0.0
H7 H 0.37396 0.26305 0.15462 0.0
H8 H 0.32108 0.29886 0.14808 0.0
H9 H 0.28809 0.32221 0.11973 0.0
H10 H 0.26558 0.36436 0.19776 0.0
H11 H 0.29845 0.34143 0.22586 0.0
H12 H 0.29012 0.29961 0.28219 0.0
H13 H 0.2635 0.27964 0.32534 0.0
H14 H 0.31972 0.21785 0.33264 0.0
H15 H 0.34668 0.23793 0.28974 0.0
N16 N 0.35307 0.26508 0.24087 0.0
N17 N 0.34864 0.28719 0.1958 0.0
N18 N 0.32022 0.29608 0.23589 0.0
C19 C 0.36149 0.26958 0.21255 0.0
C20 C 0.3282 0.3008 0.20754 0.0
C21 C 0.33244 0.27825 0.25273 0.0
C22 C 0.38244 0.25323 0.1996 0.0
C23 C 0.39807 0.23769 0.21762 0.0
C24 C 0.41566 0.22 0.2055 0.0
C25 C 0.41797 0.21728 0.17507 0.0
C26 C 0.40319 0.23362 0.15705 0.0
C27 C 0.38571 0.25147 0.16917 0.0
C28 C 0.31218 0.31811 0.18926 0.0
C29 C 0.30955 0.3136 0.15901 0.0
C30 C 0.29052 0.32679 0.14282 0.0
C31 C 0.27413 0.34499 0.15654 0.0
C32 C 0.27807 0.35067 0.18646 0.0
C33 C 0.29679 0.33734 0.20262 0.0
C34 C 0.32022 0.27002 0.28206 0.0
C35 C 0.29724 0.28213 0.29327 0.0
C36 C 0.11775 0.83214 0.70261 0.0
C37 C 0.11603 0.83121 0.67203 0.0
C38 C 0.12973 0.8117 0.65678 0.0
C39 C 0.14591 0.79448 0.6717 0.0
H40 H 0.21078 0.74693 0.65824 0.0
H41 H 0.24563 0.72335 0.6325 0.0
H42 H 0.27346 0.69405 0.71482 0.0
H43 H 0.23865 0.71721 0.74049 0.0
H44 H 0.23559 0.75801 0.79554 0.0
H45 H 0.25911 0.78265 0.83784 0.0
H46 H 0.20125 0.84313 0.8341 0.0
H47 H 0.17763 0.81871 0.79185 0.0
H48 H 0.13535 0.817 0.74101 0.0
H49 H 0.10775 0.84708 0.71506 0.0
H50 H 0.12844 0.81016 0.63323 0.0
H51 H 0.15693 0.78036 0.6592 0.0
N52 N 0.18367 0.76338 0.70348 0.0
N53 N 0.20969 0.75805 0.74598 0.0
N54 N 0.1751 0.78759 0.74627 0.0
C55 C 0.20391 0.75145 0.71755 0.0
C56 C 0.19538 0.77608 0.76053 0.0
C57 C 0.16891 0.78126 0.71788 0.0
C58 C 0.22206 0.73416 0.70146 0.0
C59 C 0.22397 0.73504 0.67081 0.0
C60 C 0.24407 0.72172 0.65606 0.0
C61 C 0.26239 0.707 0.67165 0.0
C62 C 0.25949 0.70501 0.70215 0.0
C63 C 0.23963 0.71847 0.71688 0.0
C64 C 0.20513 0.78674 0.78981 0.0
C65 C 0.22737 0.77615 0.8041 0.0
C66 C 0.24076 0.79014 0.82848 0.0
C67 C 0.23224 0.81501 0.8389 0.0
C68 C 0.20845 0.82419 0.8262 0.0
C69 C 0.19492 0.81011 0.802 0.0
C70 C 0.14876 0.79646 0.7022 0.0
C71 C 0.13385 0.81496 0.7175 0.0
C72 C 0.64527 0.27487 0.91833 0.0
C73 C 0.62215 0.25744 0.90431 0.0
C74 C 0.61153 0.26765 0.87845 0.0
C75 C 0.62411 0.29427 0.86673 0.0
H76 H 0.61331 0.35989 0.80604 0.0
H77 H 0.5943 0.38127 0.76375 0.0
H78 H 0.67225 0.44427 0.75865 0.0
H79 H 0.69138 0.42288 0.80084 0.0
H80 H 0.73724 0.42888 0.85587 0.0
H81 H 0.78078 0.45184 0.88129 0.0
H82 H 0.76869 0.3839 0.94466 0.0
H83 H 0.72532 0.36136 0.91987 0.0
H84 H 0.6756 0.31373 0.91834 0.0
H85 H 0.65369 0.26823 0.93861 0.0
H86 H 0.59386 0.25484 0.86691 0.0
H87 H 0.61562 0.30124 0.84663 0.0
N88 N 0.65175 0.35112 0.84431 0.0
N89 N 0.69017 0.39015 0.84663 0.0
N90 N 0.6865 0.35341 0.881 0.0
C91 C 0.66562 0.37657 0.83332 0.0
C92 C 0.70074 0.37868 0.87059 0.0
C93 C 0.66214 0.33936 0.86822 0.0
C94 C 0.65399 0.38954 0.80713 0.0
C95 C 0.62651 0.37827 0.79595 0.0
C96 C 0.61547 0.39068 0.77169 0.0
C97 C 0.63164 0.41461 0.75761 0.0
C98 C 0.65922 0.42572 0.76862 0.0
C99 C 0.67015 0.41349 0.79305 0.0
C100 C 0.72749 0.39319 0.88567 0.0
C101 C 0.74381 0.41887 0.87526 0.0
C102 C 0.76893 0.43198 0.88979 0.0
C103 C 0.77835 0.41986 0.91522 0.0
C104 C 0.76199 0.39422 0.92552 0.0
C105 C 0.73706 0.38113 0.91104 0.0
C106 C 0.64762 0.31138 0.88059 0.0
C107 C 0.65779 0.30127 0.90668 0.0
C108 C 0.77689 0.66159 0.42754 0.0
C109 C 0.76084 0.63608 0.41688 0.0
C110 C 0.77066 0.62433 0.39129 0.0
C111 C 0.79588 0.63774 0.37682 0.0
H112 H 0.84717 0.63551 0.30186 0.0
H113 H 0.86614 0.61391 0.25947 0.0
H114 H 0.94481 0.67595 0.26358 0.0
H115 H 0.92594 0.69758 0.30622 0.0
H116 H 0.91497 0.7612 0.34378 0.0
H117 H 0.93523 0.80742 0.36491 0.0
H118 H 0.89324 0.7809 0.44715 0.0
H119 H 0.87237 0.73567 0.42588 0.0
H120 H 0.81351 0.69465 0.42214 0.0
H121 H 0.76982 0.67157 0.44685 0.0
H122 H 0.75902 0.60456 0.38258 0.0
H123 H 0.80278 0.62806 0.35724 0.0
N124 N 0.84904 0.66722 0.34788 0.0
N125 N 0.88745 0.70623 0.3455 0.0
N126 N 0.85294 0.703 0.38321 0.0
C127 C 0.8735 0.68104 0.33428 0.0
C128 C 0.87722 0.7173 0.37009 0.0
C129 C 0.83861 0.6781 0.3724 0.0
C130 C 0.88496 0.66838 0.30771 0.0
C131 C 0.86851 0.64468 0.2938 0.0
C132 C 0.87934 0.63233 0.26927 0.0
C133 C 0.90706 0.64311 0.25798 0.0
C134 C 0.9235 0.66685 0.2718 0.0
C135 C 0.91256 0.6794 0.29621 0.0
C136 C 0.89177 0.74473 0.38296 0.0
C137 C 0.91021 0.76527 0.36639 0.0
C138 C 0.92189 0.79179 0.3786 0.0
C139 C 0.91563 0.79829 0.40776 0.0
C140 C 0.89795 0.77725 0.42444 0.0
C141 C 0.8861 0.75105 0.41221 0.0
C142 C 0.81188 0.66331 0.38753 0.0
C143 C 0.80198 0.67497 0.41312 0.0
C144 C 0.6187 0.82965 0.87338 0.0
C145 C 0.61545 0.82785 0.90387 0.0
C146 C 0.62775 0.80742 0.91898 0.0
C147 C 0.64406 0.79011 0.90408 0.0
H148 H 0.70683 0.74009 0.91836 0.0
H149 H 0.74016 0.71509 0.94409 0.0
H150 H 0.77017 0.68721 0.86148 0.0
H151 H 0.73679 0.71152 0.83595 0.0
H152 H 0.74654 0.7636 0.78866 0.0
H153 H 0.77048 0.78956 0.74726 0.0
H154 H 0.69773 0.83242 0.73667 0.0
H155 H 0.67409 0.80712 0.77891 0.0
H156 H 0.63767 0.81509 0.83512 0.0
H157 H 0.60978 0.84532 0.86107 0.0
H158 H 0.62526 0.8052 0.94244 0.0
H159 H 0.65397 0.77523 0.91653 0.0
N160 N 0.68221 0.75869 0.87272 0.0
N161 N 0.71012 0.75379 0.83096 0.0
N162 N 0.6766 0.78444 0.83021 0.0
C163 C 0.70267 0.74649 0.859 0.0
C164 C 0.6972 0.77269 0.81637 0.0
C165 C 0.66882 0.77749 0.85828 0.0
C166 C 0.71936 0.72806 0.87507 0.0
C167 C 0.72012 0.72812 0.90575 0.0
C168 C 0.73935 0.71399 0.92049 0.0
C169 C 0.75795 0.69933 0.90483 0.0
C170 C 0.75598 0.69804 0.87427 0.0
C171 C 0.73695 0.71222 0.85959 0.0
C172 C 0.70864 0.78372 0.78757 0.0
C173 C 0.7353 0.77812 0.77721 0.0
C174 C 0.74903 0.79293 0.75325 0.0
C175 C 0.73628 0.81349 0.7389 0.0
C176 C 0.70848 0.81726 0.7477 0.0
C177 C 0.69485 0.80263 0.77185 0.0
C178 C 0.64847 0.79291 0.87374 0.0
C179 C 0.63495 0.81239 0.85851 0.0
C180 C 0.82344 0.22358 0.25146 0.0
C181 C 0.7998 0.23342 0.2392 0.0
C182 C 0.79323 0.25948 0.24861 0.0
C183 C 0.80842 0.27415 0.27164 0.0
H184 H 0.8021 0.33606 0.33243 0.0
H185 H 0.7684 0.36083 0.35742 0.0
H186 H 0.79728 0.33449 0.44061 0.0
H187 H 0.83092 0.30895 0.41539 0.0
H188 H 0.87793 0.26631 0.41459 0.0
H189 H 0.9068 0.23602 0.43913 0.0
H190 H 0.93855 0.21218 0.35561 0.0
H191 H 0.90915 0.24177 0.33107 0.0
H192 H 0.85586 0.22927 0.28429 0.0
H193 H 0.82921 0.20374 0.24425 0.0
H194 H 0.77508 0.26754 0.23956 0.0
H195 H 0.8017 0.29333 0.27951 0.0
N196 N 0.82889 0.29387 0.32825 0.0
N197 N 0.8565 0.28979 0.36992 0.0
N198 N 0.86269 0.26354 0.32776 0.0
C199 C 0.83602 0.30162 0.35612 0.0
C200 C 0.87025 0.27101 0.35561 0.0
C201 C 0.84204 0.27485 0.3139 0.0
C202 C 0.81903 0.32023 0.37188 0.0
C203 C 0.80161 0.33576 0.35607 0.0
C204 C 0.78239 0.35022 0.37045 0.0
C205 C 0.78003 0.34956 0.40104 0.0
C206 C 0.79837 0.33512 0.41699 0.0
C207 C 0.8178 0.32069 0.40255 0.0
C208 C 0.89092 0.25619 0.37085 0.0
C209 C 0.89141 0.25496 0.40148 0.0
C210 C 0.90806 0.23762 0.41557 0.0
C211 C 0.92473 0.22135 0.39932 0.0
C212 C 0.92544 0.22388 0.36876 0.0
C213 C 0.90868 0.241 0.3547 0.0
C214 C 0.83053 0.26306 0.28561 0.0
C215 C 0.83876 0.23831 0.27434 0.0
C216 C 0.2711 0.61439 0.18569 0.0
C217 C 0.25661 0.62972 0.16618 0.0
C218 C 0.26781 0.65874 0.16192 0.0
C219 C 0.29295 0.67185 0.17603 0.0
H220 H 0.34941 0.74421 0.17395 0.0
H221 H 0.37084 0.78967 0.15292 0.0
H222 H 0.45003 0.78728 0.19896 0.0
H223 H 0.42849 0.74116 0.22016 0.0
H224 H 0.42689 0.68596 0.26746 0.0
H225 H 0.44721 0.66377 0.30829 0.0
H226 H 0.36637 0.60547 0.31948 0.0
H227 H 0.34663 0.62686 0.27795 0.0
H228 H 0.30701 0.61507 0.21456 0.0
H229 H 0.26339 0.59197 0.18944 0.0
H230 H 0.25704 0.67158 0.14777 0.0
H231 H 0.30074 0.6942 0.17188 0.0
N232 N 0.34845 0.69658 0.19917 0.0
N233 N 0.38556 0.69768 0.23324 0.0
N234 N 0.34721 0.65855 0.23162 0.0
C235 C 0.37357 0.71026 0.21084 0.0
C236 C 0.37241 0.67183 0.24393 0.0
C237 C 0.33511 0.6708 0.20915 0.0
C238 C 0.38714 0.73872 0.19887 0.0
C239 C 0.37141 0.7532 0.17978 0.0
C240 C 0.38366 0.77955 0.16778 0.0
C241 C 0.41217 0.79237 0.17424 0.0
C242 C 0.42806 0.77799 0.19331 0.0
C243 C 0.41564 0.75159 0.20563 0.0
C244 C 0.38504 0.6583 0.26913 0.0
C245 C 0.41344 0.66836 0.27857 0.0
C246 C 0.42508 0.65565 0.30229 0.0
C247 C 0.40861 0.63262 0.31764 0.0
C248 C 0.38015 0.62268 0.30815 0.0
C249 C 0.36866 0.63517 0.28426 0.0
C250 C 0.3077 0.65652 0.19519 0.0
C251 C 0.29626 0.62763 0.20006 0.0
C252 C 0.14365 0.28123 0.65781 0.0
C253 C 0.12136 0.26312 0.67266 0.0
C254 C 0.11078 0.27276 0.69901 0.0
C255 C 0.12275 0.29952 0.71049 0.0
H256 H 0.10893 0.36831 0.76839 0.0
H257 H 0.08962 0.39032 0.8103 0.0
H258 H 0.17232 0.4452 0.82166 0.0
H259 H 0.19113 0.42403 0.77904 0.0
H260 H 0.24159 0.42557 0.72763 0.0
H261 H 0.28659 0.44724 0.70325 0.0
H262 H 0.25971 0.3991 0.62534 0.0
H263 H 0.21567 0.37679 0.64998 0.0
H264 H 0.17282 0.32081 0.65698 0.0
H265 H 0.15193 0.27495 0.63715 0.0
H266 H 0.09371 0.25937 0.71113 0.0
H267 H 0.11446 0.30604 0.73104 0.0
N268 N 0.14932 0.35645 0.73254 0.0
N269 N 0.18789 0.39534 0.73041 0.0
N270 N 0.18413 0.35945 0.69517 0.0
C271 C 0.16325 0.38163 0.74377 0.0
C272 C 0.19836 0.38442 0.70596 0.0
C273 C 0.15978 0.34516 0.7082 0.0
C274 C 0.15162 0.39435 0.77013 0.0
C275 C 0.12303 0.38505 0.77984 0.0
C276 C 0.11197 0.39766 0.80411 0.0
C277 C 0.12926 0.41974 0.81968 0.0
C278 C 0.15799 0.42875 0.81009 0.0
C279 C 0.16892 0.41639 0.78563 0.0
C280 C 0.22507 0.39919 0.69093 0.0
C281 C 0.24531 0.41971 0.70527 0.0
C282 C 0.2711 0.43224 0.69118 0.0
C283 C 0.27715 0.42479 0.66229 0.0
C284 C 0.25639 0.4049 0.64779 0.0
C285 C 0.2309 0.39217 0.66193 0.0
C286 C 0.14556 0.31728 0.69586 0.0
C287 C 0.15556 0.30779 0.66921 0.0
Tb288 Tb 0.04962 0.03265 0.52262 0.0
Tb289 Tb 0.99003 0.02636 0.56175 0.0
C290 C 0.99706 0.98378 0.51052 0.0
C291 C 0.11543 0.06179 0.47945 0.0
C292 C 0.15419 0.10682 0.45363 0.0
C293 C 0.15478 0.07849 0.44575 0.0
C294 C 0.1356 0.05618 0.45862 0.0
C295 C 0.11439 0.08997 0.48717 0.0
C296 C 0.13368 0.11232 0.47441 0.0
C297 C 0.096 0.03808 0.49333 0.0
O298 O 0.02032 0.05429 0.49822 0.0
O299 O 0.99192 0.06464 0.53621 0.0
O300 O 0.02283 0.05668 0.58454 0.0
O301 O 0.0531 0.07249 0.54617 0.0
O302 O 0.94535 0.02602 0.56388 0.0
O303 O 0.96989 1.02207 0.60288 0.0
O304 O 1.00933 0.99001 0.57317 0.0
O305 O 0.05609 1.01023 0.56264 0.0
O306 O 0.02527 0.99086 0.51239 0.0
O307 O 0.97972 0.99867 0.52374 0.0
C308 C 1.00183 0.06899 0.50947 0.0
O309 O 0.09483 0.03876 0.52173 0.0
O310 O 0.0704 0.03123 0.48195 0.0
C311 C 0.04335 0.07575 0.57268 0.0
C312 C 0.92143 0.99913 0.60273 0.0
C313 C 0.87849 0.95666 0.62669 0.0
C314 C 0.87722 0.98555 0.63074 0.0
C315 C 0.89854 1.00658 0.61887 0.0
C316 C 0.92257 0.97038 0.59794 0.0
C317 C 0.90116 0.94924 0.60981 0.0
C318 C 0.94431 1.02171 0.592 0.0
C319 C 0.03716 0.99042 0.57539 0.0
H320 H 0.1699 0.07353 0.4294 0.0
H321 H 0.13654 0.03452 0.45235 0.0
H322 H 0.09886 0.09465 0.50324 0.0
H323 H 0.13279 0.13384 0.48115 0.0
H324 H 0.85978 0.99193 0.64323 0.0
H325 H 0.89735 0.02871 0.62263 0.0
H326 H 0.94021 0.96435 0.58548 0.0
H327 H 0.90279 0.92717 0.6065 0.0
Tb328 Tb 0.54679 0.02764 0.05633 0.0
Tb329 Tb 0.48725 1.02043 1.01821 0.0
C330 C 0.53512 0.98539 1.00366 0.0
C331 C 0.61311 0.05746 0.09798 0.0
C332 C 0.6518 0.10179 0.12423 0.0
C333 C 0.66213 0.08209 0.10607 0.0
C334 C 0.64294 0.06006 0.09315 0.0
C335 C 0.60261 0.07745 0.11564 0.0
C336 C 0.62186 0.09935 0.12883 0.0
C337 C 0.59356 0.03393 0.08409 0.0
O338 O 0.54963 0.0675 1.03276 0.0
O339 O 0.5194 0.05166 0.9949 0.0
O340 O 0.48806 0.05837 0.04403 0.0
O341 O 0.5175 0.04935 0.08124 0.0
O342 O 0.46717 1.01671 0.97746 0.0
O343 O 0.44217 1.01802 1.01718 0.0
O344 O 0.47728 0.992 0.05587 0.0
O345 O 0.52302 0.98571 0.06783 0.0
O346 O 0.55375 1.0053 1.01626 0.0
O347 O 0.50725 0.98463 1.00625 0.0
C348 C 0.53984 0.07082 1.00645 0.0
O349 O 0.56817 0.02588 0.09612 0.0
O350 O 0.59213 0.03524 0.05577 0.0
C351 C 0.49839 0.06335 0.07036 0.0
C352 C 0.4201 0.98922 0.97894 0.0
C353 C 0.37869 0.94482 0.9565 0.0
C354 C 0.36995 0.96751 0.97149 0.0
C355 C 0.39052 0.98961 0.98248 0.0
C356 C 0.42886 0.96595 0.96502 0.0
C357 C 0.40831 0.94403 0.95371 0.0
C358 C 0.44135 1.01358 0.98909 0.0
C359 C 0.49482 0.97776 0.0694 0.0
H360 H 0.68512 0.08329 0.10245 0.0
H361 H 0.6514 0.04489 0.07951 0.0
H362 H 0.57962 0.07609 0.11937 0.0
H363 H 0.61337 0.1144 0.14259 0.0
H364 H 0.34724 0.96871 0.97369 0.0
H365 H 0.38335 1.00733 0.99324 0.0
H366 H 0.45157 0.96492 0.96233 0.0
H367 H 0.41555 0.92663 0.94243 0.0
Tb368 Tb 0.52089 0.49648 0.52192 0.0
Tb369 Tb 0.51981 0.55547 0.55756 0.0
C370 C 0.49271 0.54524 0.49427 0.0
C371 C 0.55101 0.43845 0.48885 0.0
C372 C 0.60131 0.41731 0.47348 0.0
C373 C 0.57556 0.40899 0.45785 0.0
C374 C 0.55058 0.41947 0.46552 0.0
C375 C 0.57658 0.44659 0.50468 0.0
C376 C 0.60145 0.43599 0.49717 0.0
C377 C 0.5255 0.45117 0.49553 0.0
O378 O 0.55677 0.52728 0.5049 0.0
O379 O 0.56463 0.55885 0.54296 0.0
O380 O 0.53184 0.52519 0.5889 0.0
O381 O 0.552 0.49733 0.55722 0.0
O382 O 0.52624 0.60008 0.55919 0.0
O383 O 0.511 0.5748 0.59692 0.0
O384 O 0.47536 0.53283 0.55734 0.0
O385 O 0.48456 0.48772 0.55244 0.0
O386 O 0.49106 0.51759 0.49724 0.0
O387 O 0.50681 0.56324 0.5131 0.0
C388 C 0.57313 0.54828 0.51852 0.0
O389 O 0.51869 0.45227 0.52309 0.0
O390 O 0.52475 0.47513 0.48237 0.0
C391 C 0.54813 0.50602 0.58393 0.0
C392 C 0.49006 0.61459 0.58824 0.0
C393 C 0.43976 0.63765 0.5983 0.0
C394 C 0.46469 0.64648 0.61507 0.0
C395 C 0.48963 0.63495 0.61012 0.0
C396 C 0.46558 0.60636 0.57086 0.0
C397 C 0.44066 0.6178 0.57582 0.0
C398 C 0.51484 0.59999 0.58523 0.0
C399 C 0.46748 0.50529 0.56056 0.0
H400 H 0.57477 0.39445 0.43962 0.0
H401 H 0.53108 0.41313 0.45297 0.0
H402 H 0.57746 0.46155 0.52253 0.0
H403 H 0.62104 0.44311 0.50935 0.0
H404 H 0.46458 0.66149 0.63276 0.0
H405 H 0.50826 0.6413 0.6239 0.0
H406 H 0.4655 0.59054 0.55392 0.0
H407 H 0.42196 0.61083 0.5623 0.0
Tb408 Tb 0.01729 0.55682 1.02361 0.0
Tb409 Tb 0.01637 0.49735 0.05914 0.0
C410 C 0.04563 0.50804 0.99639 0.0
C411 C 0.98823 0.6153 0.99122 0.0
C412 C 0.93788 0.63612 0.97641 0.0
C413 C 0.96349 0.64397 0.95996 0.0
C414 C 0.98851 0.63363 0.96735 0.0
C415 C 0.96282 0.60774 1.00789 0.0
C416 C 0.93793 0.61817 1.00066 0.0
C417 C 0.0136 0.60241 0.99749 0.0
O418 O 0.98166 0.52636 1.00592 0.0
O419 O 0.97197 0.49492 0.04405 0.0
O420 O 1.00412 0.52742 0.09064 0.0
O421 O 0.98563 0.55611 0.05885 0.0
O422 O 1.00786 0.45271 0.06033 0.0
O423 O 0.02502 0.47695 0.0978 0.0
O424 O 0.06109 0.51943 0.06025 0.0
O425 O 0.05371 0.56503 0.05347 0.0
O426 O 0.04756 0.53568 0.99934 0.0
O427 O 0.03067 0.49005 1.01487 0.0
C428 C 0.96447 0.50556 1.01935 0.0
O429 O 0.02016 0.60109 1.02498 0.0
O430 O 0.01427 0.57849 0.98417 0.0
C431 C 0.98871 0.54721 0.08554 0.0
C432 C 0.04453 0.43669 0.08663 0.0
C433 C 0.09483 0.41277 0.09213 0.0
C434 C 0.07168 0.40573 0.11208 0.0
C435 C 0.04674 0.41767 0.10936 0.0
C436 C 0.06719 0.44314 0.06622 0.0
C437 C 0.09205 0.43122 0.06887 0.0
C438 C 0.02013 0.45199 0.08564 0.0
C439 C 0.06979 0.54699 0.06255 0.0
H440 H 0.96412 0.65793 0.94128 0.0
H441 H 1.00787 0.63951 0.95414 0.0
H442 H 0.96203 0.59326 1.02615 0.0
H443 H 0.91844 0.61142 1.01347 0.0
H444 H 0.07328 0.39188 0.13045 0.0
H445 H 0.02958 0.41274 0.12549 0.0
H446 H 0.06599 0.45802 0.04865 0.0
H447 H 0.10928 0.4368 0.05293 0.0
H448 H 0.30365 0.22391 0.38354 0.0
H449 H 0.23054 0.23377 0.3306 0.0
H450 H 0.27139 0.19309 0.41692 0.0
H451 H 0.19851 0.20284 0.36345 0.0
H452 H 0.14357 0.15854 0.43553 0.0
H453 H 0.1768 0.19628 0.41095 0.0
H454 H 0.24413 0.14562 0.41488 0.0
H455 H 0.21142 0.10863 0.44084 0.0
C456 C 0.28068 0.21968 0.3792 0.0
C457 C 0.26964 0.23125 0.35447 0.0
C458 C 0.26222 0.20198 0.39822 0.0
C459 C 0.23237 0.19535 0.39277 0.0
C460 C 0.22128 0.20784 0.36863 0.0
C461 C 0.23968 0.2256 0.34975 0.0
C462 C 0.16563 0.1557 0.43168 0.0
C463 C 0.17476 0.13045 0.43995 0.0
C464 C 0.1846 0.17722 0.41731 0.0
C465 C 0.21309 0.17393 0.41077 0.0
C466 C 0.22245 0.14903 0.41983 0.0
C467 C 0.20354 0.12759 0.43431 0.0
H468 H 0.25426 0.80017 0.89085 0.0
H469 H 0.25256 0.87135 0.83331 0.0
H470 H 0.28934 0.83057 0.92197 0.0
H471 H 0.28756 0.9013 0.86404 0.0
H472 H 0.37991 0.92755 0.90024 0.0
H473 H 0.34269 0.89507 0.87423 0.0
H474 H 0.29139 0.88124 0.95319 0.0
H475 H 0.32866 0.9142 0.97937 0.0
C476 C 0.26111 0.82232 0.88512 0.0
C477 C 0.25063 0.83348 0.85981 0.0
C478 C 0.28102 0.83963 0.90287 0.0
C479 C 0.29113 0.86809 0.89514 0.0
C480 C 0.28012 0.87935 0.87029 0.0
C481 C 0.25994 0.86228 0.8529 0.0
C482 C 0.36088 0.91729 0.91214 0.0
C483 C 0.35709 0.92332 0.94176 0.0
C484 C 0.33957 0.8989 0.89725 0.0
C485 C 0.31427 0.88588 0.91179 0.0
C486 C 0.31082 0.89105 0.94164 0.0
C487 C 0.33198 0.90991 0.95649 0.0
H488 H 0.6599 0.43556 0.70705 0.0
H489 H 0.57627 0.4242 0.74938 0.0
H490 H 0.64059 0.45785 0.66541 0.0
H491 H 0.55687 0.446 0.70759 0.0
H492 H 0.53954 0.51387 0.64251 0.0
H493 H 0.55985 0.49212 0.6837 0.0
H494 H 0.60719 0.44715 0.62415 0.0
H495 H 0.58692 0.46904 0.58279 0.0
C496 C 0.6374 0.43784 0.70756 0.0
C497 C 0.61973 0.42801 0.73178 0.0
C498 C 0.62623 0.45042 0.68348 0.0
C499 C 0.5971 0.45386 0.68297 0.0
C500 C 0.57946 0.44405 0.7072 0.0
C501 C 0.59055 0.43123 0.73113 0.0
C502 C 0.55436 0.49944 0.63808 0.0
C503 C 0.56152 0.49333 0.60913 0.0
C504 C 0.56589 0.48676 0.66182 0.0
C505 C 0.58515 0.46769 0.65745 0.0
C506 C 0.59265 0.46187 0.62849 0.0
C507 C 0.5809 0.47438 0.6047 0.0
H508 H 0.96191 0.63199 0.24964 0.0
H509 H 0.8789 0.62292 0.2078 0.0
H510 H 0.98089 0.60898 0.20803 0.0
H511 H 0.89775 0.59941 0.16639 0.0
H512 H 0.95176 0.58581 0.08396 0.0
H513 H 0.93204 0.60901 0.12507 0.0
H514 H 0.97593 0.56204 0.18508 0.0
H515 H 0.99577 0.53898 0.14411 0.0
C516 C 0.94771 0.62522 0.23152 0.0
C517 C 0.91882 0.62938 0.2322 0.0
C518 C 0.95853 0.61172 0.20774 0.0
C519 C 0.94087 0.60217 0.18378 0.0
C520 C 0.91207 0.60662 0.1843 0.0
C521 C 0.90117 0.61989 0.20821 0.0
C522 C 0.95712 0.58029 0.10591 0.0
C523 C 0.97542 0.56044 0.11058 0.0
C524 C 0.9457 0.59356 0.12954 0.0
C525 C 0.95244 0.58755 0.1585 0.0
C526 C 0.97055 0.56753 0.16313 0.0
C527 C 0.98177 0.55411 0.13955 0.0
H528 H 0.45235 0.22317 0.12598 0.0
H529 H 0.42035 0.16368 0.19475 0.0
H530 H 0.47479 0.18689 0.10212 0.0
H531 H 0.44328 0.12769 0.17112 0.0
H532 H 0.50729 0.07638 0.12846 0.0
H533 H 0.49147 0.11515 0.1556 0.0
H534 H 0.45334 0.14165 0.07724 0.0
H535 H 0.46896 0.10336 0.05028 0.0
C536 C 0.45021 0.20244 0.13609 0.0
C537 C 0.4343 0.1963 0.16214 0.0
C538 C 0.46315 0.18171 0.12248 0.0
C539 C 0.46061 0.15442 0.13469 0.0
C540 C 0.44584 0.14862 0.16137 0.0
C541 C 0.43274 0.1693 0.17491 0.0
C542 C 0.49559 0.09054 0.11707 0.0
C543 C 0.48925 0.08666 0.08725 0.0
C544 C 0.48651 0.11267 0.1326 0.0
C545 C 0.47134 0.1315 0.11847 0.0
C546 C 0.46535 0.12775 0.08863 0.0
C547 C 0.4741 0.10558 0.07325 0.0
H548 H 0.13468 0.86032 0.62212 0.0
H549 H 0.06575 0.84978 0.68639 0.0
H550 H 0.11425 0.89774 0.59866 0.0
H551 H 0.04606 0.88821 0.66367 0.0
H552 H 1.0049 0.94192 0.59831 0.0
H553 H 0.02245 0.90191 0.62041 0.0
H554 H 0.11038 0.94622 0.60973 0.0
H555 H 0.09297 0.98583 0.58708 0.0
C556 C 0.11496 0.86573 0.63106 0.0
C557 C 0.1019 0.85208 0.6562 0.0
C558 C 0.1035 0.88751 0.61786 0.0
C559 C 0.07875 0.89625 0.62952 0.0
C560 C 0.06509 0.88195 0.65407 0.0
C561 C 0.07653 0.8601 0.66725 0.0
C562 C 0.02798 0.94319 0.60084 0.0
C563 C 0.04754 0.96706 0.59084 0.0
C564 C 0.03802 0.92027 0.61356 0.0
C565 C 0.06783 0.92074 0.61659 0.0
C566 C 0.08731 0.9449 0.60716 0.0
C567 C 0.0773 0.96774 0.59439 0.0
H568 H 0.78752 0.42403 0.97444 0.0
H569 H 0.83024 0.44665 0.89178 0.0
H570 H 0.83147 0.44472 1.00001 0.0
H571 H 0.87426 0.46725 0.91733 0.0
H572 H 0.94025 0.52583 0.97147 0.0
H573 H 0.89543 0.50609 0.94721 0.0
H574 H 0.87979 0.43808 1.0105 0.0
H575 H 0.9246 0.45829 1.03529 0.0
C576 C 0.80633 0.43323 0.96164 0.0
C577 C 0.80516 0.43353 0.93091 0.0
C578 C 0.83166 0.44511 0.97638 0.0
C579 C 0.85666 0.4577 0.96089 0.0
C580 C 0.85541 0.45819 0.93015 0.0
C581 C 0.83006 0.44634 0.91541 0.0
C582 C 0.9273 0.50668 0.98036 0.0
C583 C 0.93627 0.49366 1.00541 0.0
C584 C 0.90156 0.4952 0.96623 0.0
C585 C 0.88387 0.47027 0.97661 0.0
C586 C 0.8926 0.45744 1.00194 0.0
C587 C 0.91842 0.46899 1.01615 0.0
H588 H 0.70953 0.61018 0.39292 0.0
H589 H 0.75079 0.6306 0.47597 0.0
H590 H 0.66505 0.58895 0.41813 0.0
H591 H 0.70629 0.60935 0.50119 0.0
H592 H 0.61181 0.59579 0.53512 0.0
H593 H 0.65727 0.61658 0.51099 0.0
H594 H 0.64457 0.54871 0.44766 0.0
H595 H 0.59918 0.52833 0.47127 0.0
C596 C 0.70926 0.60986 0.41655 0.0
C597 C 0.73384 0.62218 0.43233 0.0
C598 C 0.68369 0.59768 0.43107 0.0
C599 C 0.68196 0.59741 0.46178 0.0
C600 C 0.70661 0.60957 0.47756 0.0
C601 C 0.73218 0.62174 0.46304 0.0
C602 C 0.61878 0.58526 0.51613 0.0
C603 C 0.60163 0.56046 0.50511 0.0
C604 C 0.64494 0.59712 0.50232 0.0
C605 C 0.65458 0.58447 0.47718 0.0
C606 C 0.63764 0.55939 0.46657 0.0
C607 C 0.61158 0.54759 0.48031 0.0
H608 H 0.26163 0.3986 0.15882 0.0
H609 H 0.23423 0.31645 0.11911 0.0
H610 H 0.21926 0.41465 0.13936 0.0
H611 H 0.19223 0.3328 0.09881 0.0
H612 H 0.10224 0.35954 0.10885 0.0
H613 H 0.1475 0.34374 0.11987 0.0
H614 H 0.19509 0.42634 0.09561 0.0
H615 H 0.14985 0.44246 0.0857 0.0
C616 C 0.24678 0.38414 0.14551 0.0
C617 C 0.25115 0.3562 0.1407 0.0
C618 C 0.22261 0.3934 0.13415 0.0
C619 C 0.20223 0.37492 0.11772 0.0
C620 C 0.20733 0.34741 0.11172 0.0
C621 C 0.23158 0.33816 0.12304 0.0
C622 C 0.12236 0.37431 0.10587 0.0
C623 C 0.12239 0.40229 0.09654 0.0
C624 C 0.14834 0.36516 0.11183 0.0
C625 C 0.17492 0.38381 0.10865 0.0
C626 C 0.17497 0.41154 0.09854 0.0
C627 C 0.14903 0.42067 0.09257 0.0
H628 H 0.56498 0.23061 0.90698 0.0
H629 H 0.65092 0.2189 0.93 0.0
H630 H 0.54493 0.18517 0.93011 0.0
H631 H 0.63096 0.17388 0.95316 0.0
H632 H 0.58434 0.11311 1.02204 0.0
H633 H 0.60328 0.15698 0.99627 0.0
H634 H 0.54155 0.13326 0.92748 0.0
H635 H 0.52219 0.08921 0.95359 0.0
C636 C 0.57967 0.21829 0.91666 0.0
C637 C 0.60963 0.22881 0.91684 0.0
C638 C 0.56814 0.19217 0.92997 0.0
C639 C 0.58624 0.17587 0.94389 0.0
C640 C 0.61622 0.18606 0.94332 0.0
C641 C 0.62771 0.21201 0.93 0.0
C642 C 0.57475 0.11708 1.00139 0.0
C643 C 0.55171 0.09739 0.98995 0.0
C644 C 0.58578 0.1423 0.98647 0.0
C645 C 0.57412 0.14877 0.95962 0.0
C646 C 0.55096 0.12916 0.94818 0.0
C647 C 0.53998 0.10377 0.96309 0.0
H648 H 0.88882 0.82862 0.44721 0.0
H649 H 0.96846 0.83303 0.39826 0.0
H650 H 0.90826 0.873 0.47119 0.0
H651 H 0.9872 0.87861 0.42078 0.0
H652 H 0.02543 0.94243 0.49019 0.0
H653 H 1.00564 0.89891 0.46469 0.0
H654 H 0.92103 0.92234 0.467 0.0
H655 H 0.94077 0.96547 0.49371 0.0
C656 C 0.9105 0.83902 0.44144 0.0
C657 C 0.92711 0.82676 0.42093 0.0
C658 C 0.92153 0.86491 0.45494 0.0
C659 C 0.94945 0.87967 0.44816 0.0
C660 C 0.96581 0.86779 0.42708 0.0
C661 C 0.95486 0.84171 0.41376 0.0
C662 C 1.00259 0.9384 0.48522 0.0
C663 C 0.98473 0.95757 0.49409 0.0
C664 C 0.99121 0.91339 0.47032 0.0
C665 C 0.96163 0.90685 0.46352 0.0
C666 C 0.94381 0.92624 0.47216 0.0
C667 C 0.95517 0.95116 0.48737 0.0
H668 H 0.29945 0.73234 0.62925 0.0
H669 H 0.27858 0.65556 0.68053 0.0
H670 H 0.34103 0.71524 0.60811 0.0
H671 H 0.32053 0.63881 0.66001 0.0
H672 H 0.38513 0.60655 0.60085 0.0
H673 H 0.34055 0.62266 0.61469 0.0
H674 H 0.38823 0.70775 0.62653 0.0
H675 H 0.43274 0.69179 0.61183 0.0
C676 C 0.3035 0.71163 0.63567 0.0
C677 C 0.28579 0.69531 0.65661 0.0
C678 C 0.32749 0.70199 0.62383 0.0
C679 C 0.33418 0.67577 0.63253 0.0
C680 C 0.31585 0.65901 0.65268 0.0
C681 C 0.29196 0.6687 0.66462 0.0
C682 C 0.38603 0.6288 0.60591 0.0
C683 C 0.41248 0.64791 0.60525 0.0
C684 C 0.36053 0.63796 0.61412 0.0
C685 C 0.36087 0.66644 0.6218 0.0
C686 C 0.3872 0.68571 0.62048 0.0
C687 C 0.41274 0.67652 0.61236 0.0
H688 H 0.77423 0.80145 0.69653 0.0
H689 H 0.73773 0.8705 0.73348 0.0
H690 H 0.80788 0.83553 0.66753 0.0
H691 H 0.77016 0.90411 0.70357 0.0
H692 H 0.858 0.9569 0.68236 0.0
H693 H 0.82164 0.92167 0.70619 0.0
H694 H 0.81342 0.87089 0.62769 0.0
H695 H 0.85019 0.9064 0.60372 0.0
C696 C 0.77305 0.8238 0.69814 0.0
C697 C 0.7534 0.83321 0.71754 0.0
C698 C 0.79215 0.84328 0.68132 0.0
C699 C 0.79195 0.87254 0.68359 0.0
C700 C 0.77123 0.88174 0.70174 0.0
C701 C 0.75228 0.86236 0.71858 0.0
C702 C 0.84824 0.93838 0.67005 0.0
C703 C 0.85672 0.93458 0.64106 0.0
C704 C 0.82735 0.91819 0.68368 0.0
C705 C 0.81433 0.89367 0.66869 0.0
C706 C 0.82313 0.88953 0.63983 0.0
C707 C 0.84417 0.90982 0.62614 0.0
H708 H 0.77611 0.24757 0.18791 0.0
H709 H 0.77767 0.17765 0.24714 0.0
H710 H 0.73942 0.21723 0.15861 0.0
H711 H 0.74132 0.14759 0.21803 0.0
H712 H 0.65154 0.11572 0.18177 0.0
H713 H 0.68785 0.14899 0.20804 0.0
H714 H 0.73516 0.17052 0.12757 0.0
H715 H 0.69869 0.13719 0.10115 0.0
C716 C 0.7688 0.2257 0.19446 0.0
C717 C 0.77982 0.21488 0.21965 0.0
C718 C 0.74793 0.2084 0.17773 0.0
C719 C 0.73745 0.18022 0.18629 0.0
C720 C 0.74884 0.16934 0.21117 0.0
C721 C 0.76989 0.18644 0.2276 0.0
C722 C 0.66945 0.12787 0.16963 0.0
C723 C 0.67241 0.12384 0.13948 0.0
C724 C 0.6903 0.1467 0.18467 0.0
C725 C 0.71435 0.16207 0.1698 0.0
C726 C 0.71676 0.15892 0.13947 0.0
C727 C 0.69605 0.13979 0.12445 0.0
H728 H 0.44792 0.65803 0.35851 0.0
H729 H 0.39741 0.57649 0.33599 0.0
H730 H 0.46794 0.63653 0.39966 0.0
H731 H 0.41579 0.55542 0.37851 0.0
H732 H 0.4742 0.5188 0.44255 0.0
H733 H 0.45453 0.53933 0.40008 0.0
H734 H 0.45915 0.61872 0.44637 0.0
H735 H 0.47989 0.59853 0.48805 0.0
C736 C 0.44098 0.6355 0.36218 0.0
C737 C 0.42086 0.61923 0.34346 0.0
C738 C 0.45219 0.62313 0.38633 0.0
C739 C 0.4435 0.59405 0.39299 0.0
C740 C 0.42343 0.57775 0.37424 0.0
C741 C 0.41243 0.59007 0.3499 0.0
C742 C 0.47092 0.54061 0.44367 0.0
C743 C 0.47885 0.55696 0.4688 0.0
C744 C 0.45946 0.55246 0.41925 0.0
C745 C 0.45525 0.58097 0.4193 0.0
C746 C 0.46262 0.597 0.44483 0.0
C747 C 0.47437 0.58528 0.46903 0.0
H748 H 0.08947 0.39485 0.86084 0.0
H749 H 0.14206 0.47557 0.83806 0.0
H750 H 0.06982 0.41677 0.90234 0.0
H751 H 0.12403 0.49702 0.88091 0.0
H752 H 0.06487 0.53441 0.94466 0.0
H753 H 0.08482 0.5136 0.90216 0.0
H754 H 0.07962 0.43441 0.94902 0.0
H755 H 0.05856 0.45484 0.99072 0.0
C756 C 0.09694 0.41729 0.86457 0.0
C757 C 0.11748 0.43326 0.84573 0.0
C758 C 0.08596 0.42986 0.88886 0.0
C759 C 0.09535 0.4588 0.89544 0.0
C760 C 0.1159 0.4748 0.87661 0.0
C761 C 0.12667 0.46228 0.85212 0.0
C762 C 0.06813 0.5126 0.94589 0.0
C763 C 0.05991 0.49631 0.97112 0.0
C764 C 0.07972 0.50061 0.92149 0.0
C765 C 0.08376 0.47207 0.92175 0.0
C766 C 0.07624 0.45615 0.94742 0.0
C767 C 0.06433 0.468 0.97159 0.0
H768 H 0.56651 0.84807 0.8888 0.0
H769 H 0.63245 0.85522 0.95482 0.0
H770 H 0.54655 0.88621 0.91221 0.0
H771 H 0.61177 0.89239 0.97887 0.0
H772 H 0.59124 0.98061 0.99268 0.0
H773 H 0.60908 0.94154 0.96904 0.0
H774 H 0.5213 0.8985 0.95566 0.0
H775 H 0.50334 0.93794 0.97878 0.0
C776 C 0.57658 0.85759 0.90845 0.0
C777 C 0.60118 0.84868 0.91984 0.0
C778 C 0.56499 0.87927 0.92201 0.0
C779 C 0.57774 0.89253 0.94725 0.0
C780 C 0.60173 0.88296 0.95916 0.0
C781 C 0.61333 0.86133 0.94561 0.0
C782 C 0.5757 0.96291 0.98457 0.0
C783 C 0.54586 0.9624 0.98769 0.0
C784 C 0.58594 0.94038 0.97123 0.0
C785 C 0.56662 0.91674 0.96075 0.0
C786 C 0.53676 0.91647 0.96333 0.0
C787 C 0.52648 0.93906 0.97666 0.0
H788 H 0.95423 0.22735 0.45104 0.0
H789 H 0.92893 0.16779 0.38101 0.0
H790 H 0.97536 0.19144 0.47677 0.0
H791 H 0.9504 0.13219 0.40653 0.0
H792 H 1.01266 0.08228 0.4516 0.0
H793 H 0.99714 0.12059 0.42394 0.0
H794 H 0.95503 0.14602 0.50117 0.0
H795 H 0.97054 0.10819 0.52874 0.0
C796 C 0.95324 0.20667 0.44109 0.0
C797 C 0.93978 0.20047 0.414 0.0
C798 C 0.96539 0.18613 0.45579 0.0
C799 C 0.96444 0.15897 0.4437 0.0
C800 C 0.95181 0.15304 0.41623 0.0
C801 C 0.93954 0.17351 0.40159 0.0
C802 C 1.00015 0.0961 0.46265 0.0
C803 C 0.99275 0.09207 0.49234 0.0
C804 C 0.99122 0.11797 0.44681 0.0
C805 C 0.97498 0.13637 0.46044 0.0
C806 C 0.96788 0.13247 0.49016 0.0
C807 C 0.97658 0.11057 0.50589 0.0
H808 H 0.21229 0.58763 0.1855 0.0
H809 H 0.24043 0.63994 0.11015 0.0
H810 H 0.16835 0.56665 0.15976 0.0
H811 H 0.19631 0.61949 0.08492 0.0
H812 H 0.09882 0.60202 0.06429 0.0
H813 H 0.1441 0.6206 0.08873 0.0
H814 H 0.15051 0.53597 0.11717 0.0
H815 H 0.10507 0.51727 0.0927 0.0
C816 C 0.20936 0.59453 0.1634 0.0
C817 C 0.23004 0.61581 0.15017 0.0
C818 C 0.18405 0.5825 0.14864 0.0
C819 C 0.1786 0.59152 0.12031 0.0
C820 C 0.19948 0.61238 0.1069 0.0
C821 C 0.22483 0.62422 0.12151 0.0
C822 C 0.10989 0.58728 0.07561 0.0
C823 C 0.09818 0.5581 0.07642 0.0
C824 C 0.13599 0.59796 0.08956 0.0
C825 C 0.15104 0.57982 0.10498 0.0
C826 C 0.1394 0.55061 0.10575 0.0
C827 C 0.11341 0.53986 0.09151 0.0
H828 H 0.30903 0.47901 0.6667 0.0
H829 H 0.30907 0.3985 0.62395 0.0
H830 H 0.35474 0.49839 0.64266 0.0
H831 H 0.35341 0.41838 0.59846 0.0
H832 H 0.44811 0.45114 0.57993 0.0
H833 H 0.40297 0.43252 0.60495 0.0
H834 H 0.37697 0.51444 0.59773 0.0
H835 H 0.42286 0.53339 0.57368 0.0
C836 C 0.31868 0.4654 0.65218 0.0
C837 C 0.30509 0.4371 0.64737 0.0
C838 C 0.34478 0.47669 0.63799 0.0
C839 C 0.358 0.46006 0.61846 0.0
C840 C 0.34431 0.43183 0.61361 0.0
C841 C 0.31844 0.4205 0.62795 0.0
C842 C 0.43275 0.4652 0.58354 0.0
C843 C 0.43917 0.49377 0.57464 0.0
C844 C 0.40666 0.45445 0.59783 0.0
C845 C 0.386 0.47184 0.60338 0.0
C846 C 0.39239 0.50043 0.5943 0.0
C847 C 0.41867 0.51128 0.58024 0.0
H848 H 0.77546 0.6487 0.89414 0.0
H849 H 0.79312 0.72334 0.94873 0.0
H850 H 0.81812 0.63273 0.91319 0.0
H851 H 0.83564 0.70719 0.96794 0.0
H852 H 0.89842 0.65608 1.01136 0.0
H853 H 0.85265 0.66927 0.99684 0.0
H854 H 0.87067 0.65052 0.90704 0.0
H855 H 0.91598 0.6368 0.92159 0.0
C856 C 0.78831 0.66157 0.91038 0.0
C857 C 0.78106 0.68742 0.91971 0.0
C858 C 0.81275 0.65245 0.92124 0.0
C859 C 0.83043 0.66892 0.94174 0.0
C860 C 0.82234 0.69398 0.95226 0.0
C861 C 0.79792 0.70317 0.94132 0.0
C862 C 0.8925 0.6547 0.98855 0.0
C863 C 0.91078 0.64545 0.96759 0.0
C864 C 0.86641 0.66239 0.98024 0.0
C865 C 0.85799 0.66073 0.95085 0.0
C866 C 0.87638 0.65163 0.92991 0.0
C867 C 0.90251 0.64414 0.93818 0.0
H868 H 0.38674 0.83921 0.16657 0.0
H869 H 0.46675 0.80917 0.15097 0.0
H870 H 0.40652 0.88392 0.14253 0.0
H871 H 0.48648 0.85372 0.12633 0.0
H872 H 0.52337 0.94627 0.10526 0.0
H873 H 0.504 0.90276 0.1316 0.0
H874 H 0.41938 0.90492 0.09668 0.0
H875 H 0.43865 0.94899 0.0711 0.0
C876 C 0.40854 0.84206 0.15784 0.0
C877 C 0.42506 0.8204 0.16071 0.0
C878 C 0.41991 0.86778 0.14388 0.0
C879 C 0.44816 0.87268 0.13213 0.0
C880 C 0.46482 0.85111 0.13537 0.0
C881 C 0.45348 0.82543 0.14953 0.0
C882 C 0.50059 0.93756 0.10325 0.0
C883 C 0.48263 0.95135 0.086 0.0
C884 C 0.48945 0.91236 0.11827 0.0
C885 C 0.46001 0.89997 0.11641 0.0
C886 C 0.44204 0.91386 0.09919 0.0
C887 C 0.45315 0.93919 0.08431 0.0
H888 H 0.06481 0.23495 0.67123 0.0
H889 H 0.15152 0.22571 0.64667 0.0
H890 H 0.04602 0.18912 0.64861 0.0
H891 H 0.13282 0.18023 0.62408 0.0
H892 H 0.08723 0.11854 0.55609 0.0
H893 H 0.10538 0.16265 0.58149 0.0
H894 H 0.04438 0.13759 0.65179 0.0
H895 H 0.0258 0.09339 0.62607 0.0
C896 C 0.07991 0.22305 0.66133 0.0
C897 C 0.10969 0.23432 0.66053 0.0
C898 C 0.06913 0.19674 0.64833 0.0
C899 C 0.08784 0.18102 0.63419 0.0
C900 C 0.11766 0.19196 0.63415 0.0
C901 C 0.1284 0.21814 0.64714 0.0
C902 C 0.07768 0.12228 0.57701 0.0
C903 C 0.05503 0.10224 0.58899 0.0
C904 C 0.08824 0.14761 0.5917 0.0
C905 C 0.07646 0.15376 0.61881 0.0
C906 C 0.05381 0.13373 0.63085 0.0
C907 C 0.04329 0.10826 0.61617 0.0
H908 H 0.74447 0.32713 0.44603 0.0
H909 H 0.7629 0.40002 0.38881 0.0
H910 H 0.70226 0.34441 0.46531 0.0
H911 H 0.72052 0.41706 0.40787 0.0
H912 H 0.62284 0.41468 0.41828 0.0
H913 H 0.66773 0.39978 0.4033 0.0
H914 H 0.68614 0.38374 0.49332 0.0
H915 H 0.64082 0.39816 0.50831 0.0
C916 C 0.7399 0.34714 0.43802 0.0
C917 C 0.75692 0.36207 0.41569 0.0
C918 C 0.71564 0.35698 0.44899 0.0
C919 C 0.70786 0.38187 0.43779 0.0
C920 C 0.72564 0.39748 0.41648 0.0
C921 C 0.74993 0.38774 0.40561 0.0
C922 C 0.63632 0.40771 0.43485 0.0
C923 C 0.62827 0.40751 0.46445 0.0
C924 C 0.6622 0.39953 0.42631 0.0
C925 C 0.68056 0.39081 0.44717 0.0
C926 C 0.67239 0.39029 0.47677 0.0
C927 C 0.64656 0.3987 0.48534 0.0
loop_
_geom_bond_atom_site_label_1
_geom_bond_atom_site_label_2
_geom_bond_distance
_geom_bond_site_symmetry_2
_ccdc_geom_bond_type
C0 C1 1.384 . S
C0 H13 0.947 . S
C0 C35 1.382 . S
C1 C0 1.384 . S
C1 C2 1.378 . S
C2 C1 1.378 . S
C2 C3 1.378 . S
C2 H14 0.952 . S
C3 C2 1.378 . S
C3 H15 0.950 . S
C3 C34 1.383 . S
H4 C23 0.947 . S
H5 C24 0.946 . S
H6 C26 0.953 . S
H7 C27 0.945 . S
H8 C29 0.952 . S
H9 C30 0.949 . S
H10 C32 0.950 . S
H11 C33 0.948 . S
H12 C35 0.951 . S
H13 C0 0.947 . S
H14 C2 0.952 . S
H15 C3 0.950 . S
N16 C19 1.382 . S
N16 C21 1.363 . S
N17 C19 1.371 . S
N17 C20 1.372 . S
N18 C20 1.361 . S
N18 C21 1.377 . S
C19 N16 1.382 . S
C19 N17 1.371 . S
C19 C22 1.480 . S
C20 N17 1.372 . S
C20 N18 1.361 . S
C20 C28 1.457 . S
C21 N16 1.363 . S
C21 N18 1.377 . S
C21 C34 1.479 . S
C22 C19 1.480 . S
C22 C23 1.383 . S
C22 C27 1.385 . S
C23 H4 0.947 . S
C23 C22 1.383 . S
C23 C24 1.388 . S
C24 H5 0.946 . S
C24 C23 1.388 . S
C24 C25 1.384 . S
C25 C24 1.384 . S
C25 C26 1.377 . S
C26 H6 0.953 . S
C26 C25 1.377 . S
C26 C27 1.369 . S
C27 H7 0.945 . S
C27 C22 1.385 . S
C27 C26 1.369 . S
C28 C20 1.457 . S
C28 C29 1.372 . S
C28 C33 1.364 . S
C29 H8 0.952 . S
C29 C28 1.372 . S
C29 C30 1.389 . S
C30 H9 0.949 . S
C30 C29 1.389 . S
C30 C31 1.387 . S
C31 C30 1.387 . S
C31 C32 1.372 . S
C32 H10 0.950 . S
C32 C31 1.372 . S
C32 C33 1.379 . S
C33 H11 0.948 . S
C33 C28 1.364 . S
C33 C32 1.379 . S
C34 C3 1.383 . S
C34 C21 1.479 . S
C34 C35 1.398 . S
C35 C0 1.382 . S
C35 H12 0.951 . S
C35 C34 1.398 . S
C36 C37 1.384 . S
C36 H49 0.947 . S
C36 C71 1.382 . S
C37 C36 1.384 . S
C37 C38 1.378 . S
C38 C37 1.378 . S
C38 C39 1.378 . S
C38 H50 0.952 . S
C39 C38 1.378 . S
C39 H51 0.950 . S
C39 C70 1.383 . S
H40 C59 0.947 . S
H41 C60 0.946 . S
H42 C62 0.953 . S
H43 C63 0.945 . S
H44 C65 0.952 . S
H45 C66 0.949 . S
H46 C68 0.950 . S
H47 C69 0.948 . S
H48 C71 0.951 . S
H49 C36 0.947 . S
H50 C38 0.952 . S
H51 C39 0.950 . S
N52 C55 1.382 . S
N52 C57 1.363 . S
N53 C55 1.371 . S
N53 C56 1.372 . S
N54 C56 1.361 . S
N54 C57 1.377 . S
C55 N52 1.382 . S
C55 N53 1.371 . S
C55 C58 1.480 . S
C56 N53 1.372 . S
C56 N54 1.361 . S
C56 C64 1.457 . S
C57 N52 1.363 . S
C57 N54 1.377 . S
C57 C70 1.479 . S
C58 C55 1.480 . S
C58 C59 1.383 . S
C58 C63 1.385 . S
C59 H40 0.947 . S
C59 C58 1.383 . S
C59 C60 1.388 . S
C60 H41 0.946 . S
C60 C59 1.388 . S
C60 C61 1.384 . S
C61 C60 1.384 . S
C61 C62 1.377 . S
C62 H42 0.953 . S
C62 C61 1.377 . S
C62 C63 1.369 . S
C63 H43 0.945 . S
C63 C58 1.385 . S
C63 C62 1.369 . S
C64 C56 1.457 . S
C64 C65 1.372 . S
C64 C69 1.364 . S
C65 H44 0.952 . S
C65 C64 1.372 . S
C65 C66 1.389 . S
C66 H45 0.949 . S
C66 C65 1.389 . S
C66 C67 1.387 . S
C67 C66 1.387 . S
C67 C68 1.372 . S
C68 H46 0.950 . S
C68 C67 1.372 . S
C68 C69 1.379 . S
C69 H47 0.948 . S
C69 C64 1.364 . S
C69 C68 1.379 . S
C70 C39 1.383 . S
C70 C57 1.479 . S
C70 C71 1.398 . S
C71 C36 1.382 . S
C71 H48 0.951 . S
C71 C70 1.398 . S
C72 C73 1.384 . S
C72 H85 0.947 . S
C72 C107 1.382 . S
C73 C72 1.384 . S
C73 C74 1.378 . S
C74 C73 1.378 . S
C74 C75 1.378 . S
C74 H86 0.952 . S
C75 C74 1.378 . S
C75 H87 0.950 . S
C75 C106 1.383 . S
H76 C95 0.947 . S
H77 C96 0.946 . S
H78 C98 0.953 . S
H79 C99 0.945 . S
H80 C101 0.952 . S
H81 C102 0.949 . S
H82 C104 0.950 . S
H83 C105 0.948 . S
H84 C107 0.951 . S
H85 C72 0.947 . S
H86 C74 0.952 . S
H87 C75 0.950 . S
N88 C91 1.382 . S
N88 C93 1.363 . S
N89 C91 1.371 . S
N89 C92 1.372 . S
N90 C92 1.361 . S
N90 C93 1.377 . S
C91 N88 1.382 . S
C91 N89 1.371 . S
C91 C94 1.480 . S
C92 N89 1.372 . S
C92 N90 1.361 . S
C92 C100 1.457 . S
C93 N88 1.363 . S
C93 N90 1.377 . S
C93 C106 1.479 . S
C94 C91 1.480 . S
C94 C95 1.383 . S
C94 C99 1.385 . S
C95 H76 0.947 . S
C95 C94 1.383 . S
C95 C96 1.388 . S
C96 H77 0.946 . S
C96 C95 1.388 . S
C96 C97 1.384 . S
C97 C96 1.384 . S
C97 C98 1.377 . S
C98 H78 0.953 . S
C98 C97 1.377 . S
C98 C99 1.369 . S
C99 H79 0.945 . S
C99 C94 1.385 . S
C99 C98 1.369 . S
C100 C92 1.457 . S
C100 C101 1.372 . S
C100 C105 1.364 . S
C101 H80 0.952 . S
C101 C100 1.372 . S
C101 C102 1.389 . S
C102 H81 0.949 . S
C102 C101 1.389 . S
C102 C103 1.387 . S
C103 C102 1.387 . S
C103 C104 1.372 . S
C104 H82 0.950 . S
C104 C103 1.372 . S
C104 C105 1.379 . S
C105 H83 0.948 . S
C105 C100 1.364 . S
C105 C104 1.379 . S
C106 C75 1.383 . S
C106 C93 1.479 . S
C106 C107 1.398 . S
C107 C72 1.382 . S
C107 H84 0.951 . S
C107 C106 1.398 . S
C108 C109 1.384 . S
C108 H121 0.947 . S
C108 C143 1.382 . S
C109 C108 1.384 . S
C109 C110 1.378 . S
C110 C109 1.378 . S
C110 C111 1.378 . S
C110 H122 0.952 . S
C111 C110 1.378 . S
C111 H123 0.950 . S
C111 C142 1.383 . S
H112 C131 0.947 . S
H113 C132 0.946 . S
H114 C134 0.953 . S
H115 C135 0.945 . S
H116 C137 0.952 . S
H117 C138 0.949 . S
H118 C140 0.950 . S
H119 C141 0.948 . S
H120 C143 0.951 . S
H121 C108 0.947 . S
H122 C110 0.952 . S
H123 C111 0.950 . S
N124 C127 1.382 . S
N124 C129 1.363 . S
N125 C127 1.371 . S
N125 C128 1.372 . S
N126 C128 1.361 . S
N126 C129 1.377 . S
C127 N124 1.382 . S
C127 N125 1.371 . S
C127 C130 1.480 . S
C128 N125 1.372 . S
C128 N126 1.361 . S
C128 C136 1.457 . S
C129 N124 1.363 . S
C129 N126 1.377 . S
C129 C142 1.479 . S
C130 C127 1.480 . S
C130 C131 1.383 . S
C130 C135 1.385 . S
C131 H112 0.947 . S
C131 C130 1.383 . S
C131 C132 1.388 . S
C132 H113 0.946 . S
C132 C131 1.388 . S
C132 C133 1.384 . S
C133 C132 1.384 . S
C133 C134 1.377 . S
C134 H114 0.953 . S
C134 C133 1.377 . S
C134 C135 1.369 . S
C135 H115 0.945 . S
C135 C130 1.385 . S
C135 C134 1.369 . S
C136 C128 1.457 . S
C136 C137 1.372 . S
C136 C141 1.364 . S
C137 H116 0.952 . S
C137 C136 1.372 . S
C137 C138 1.389 . S
C138 H117 0.949 . S
C138 C137 1.389 . S
C138 C139 1.387 . S
C139 C138 1.387 . S
C139 C140 1.372 . S
C140 H118 0.950 . S
C140 C139 1.372 . S
C140 C141 1.379 . S
C141 H119 0.948 . S
C141 C136 1.364 . S
C141 C140 1.379 . S
C142 C111 1.383 . S
C142 C129 1.479 . S
C142 C143 1.398 . S
C143 C108 1.382 . S
C143 H120 0.951 . S
C143 C142 1.398 . S
C144 C145 1.384 . S
C144 H157 0.947 . S
C144 C179 1.382 . S
C145 C144 1.384 . S
C145 C146 1.378 . S
C146 C145 1.378 . S
C146 C147 1.378 . S
C146 H158 0.952 . S
C147 C146 1.378 . S
C147 H159 0.950 . S
C147 C178 1.383 . S
H148 C167 0.947 . S
H149 C168 0.946 . S
H150 C170 0.953 . S
H151 C171 0.945 . S
H152 C173 0.952 . S
H153 C174 0.949 . S
H154 C176 0.950 . S
H155 C177 0.948 . S
H156 C179 0.951 . S
H157 C144 0.947 . S
H158 C146 0.952 . S
H159 C147 0.950 . S
N160 C163 1.382 . S
N160 C165 1.363 . S
N161 C163 1.371 . S
N161 C164 1.372 . S
N162 C164 1.361 . S
N162 C165 1.377 . S
C163 N160 1.382 . S
C163 N161 1.371 . S
C163 C166 1.480 . S
C164 N161 1.372 . S
C164 N162 1.361 . S
C164 C172 1.457 . S
C165 N160 1.363 . S
C165 N162 1.377 . S
C165 C178 1.479 . S
C166 C163 1.480 . S
C166 C167 1.383 . S
C166 C171 1.385 . S
C167 H148 0.947 . S
C167 C166 1.383 . S
C167 C168 1.388 . S
C168 H149 0.946 . S
C168 C167 1.388 . S
C168 C169 1.384 . S
C169 C168 1.384 . S
C169 C170 1.377 . S
C170 H150 0.953 . S
C170 C169 1.377 . S
C170 C171 1.369 . S
C171 H151 0.945 . S
C171 C166 1.385 . S
C171 C170 1.369 . S
C172 C164 1.457 . S
C172 C173 1.372 . S
C172 C177 1.364 . S
C173 H152 0.952 . S
C173 C172 1.372 . S
C173 C174 1.389 . S
C174 H153 0.949 . S
C174 C173 1.389 . S
C174 C175 1.387 . S
C175 C174 1.387 . S
C175 C176 1.372 . S
C176 H154 0.950 . S
C176 C175 1.372 . S
C176 C177 1.379 . S
C177 H155 0.948 . S
C177 C172 1.364 . S
C177 C176 1.379 . S
C178 C147 1.383 . S
C178 C165 1.479 . S
C178 C179 1.398 . S
C179 C144 1.382 . S
C179 H156 0.951 . S
C179 C178 1.398 . S
C180 C181 1.384 . S
C180 H193 0.947 . S
C180 C215 1.382 . S
C181 C180 1.384 . S
C181 C182 1.378 . S
C182 C181 1.378 . S
C182 C183 1.378 . S
C182 H194 0.952 . S
C183 C182 1.378 . S
C183 H195 0.950 . S
C183 C214 1.383 . S
H184 C203 0.947 . S
H185 C204 0.946 . S
H186 C206 0.953 . S
H187 C207 0.945 . S
H188 C209 0.952 . S
H189 C210 0.949 . S
H190 C212 0.950 . S
H191 C213 0.948 . S
H192 C215 0.951 . S
H193 C180 0.947 . S
H194 C182 0.952 . S
H195 C183 0.950 . S
N196 C199 1.382 . S
N196 C201 1.363 . S
N197 C199 1.371 . S
N197 C200 1.372 . S
N198 C200 1.361 . S
N198 C201 1.377 . S
C199 N196 1.382 . S
C199 N197 1.371 . S
C199 C202 1.480 . S
C200 N197 1.372 . S
C200 N198 1.361 . S
C200 C208 1.457 . S
C201 N196 1.363 . S
C201 N198 1.377 . S
C201 C214 1.479 . S
C202 C199 1.480 . S
C202 C203 1.383 . S
C202 C207 1.385 . S
C203 H184 0.947 . S
C203 C202 1.383 . S
C203 C204 1.388 . S
C204 H185 0.946 . S
C204 C203 1.388 . S
C204 C205 1.384 . S
C205 C204 1.384 . S
C205 C206 1.377 . S
C206 H186 0.953 . S
C206 C205 1.377 . S
C206 C207 1.369 . S
C207 H187 0.945 . S
C207 C202 1.385 . S
C207 C206 1.369 . S
C208 C200 1.457 . S
C208 C209 1.372 . S
C208 C213 1.364 . S
C209 H188 0.952 . S
C209 C208 1.372 . S
C209 C210 1.389 . S
C210 H189 0.949 . S
C210 C209 1.389 . S
C210 C211 1.387 . S
C211 C210 1.387 . S
C211 C212 1.372 . S
C212 H190 0.950 . S
C212 C211 1.372 . S
C212 C213 1.379 . S
C213 H191 0.948 . S
C213 C208 1.364 . S
C213 C212 1.379 . S
C214 C183 1.383 . S
C214 C201 1.479 . S
C214 C215 1.398 . S
C215 C180 1.382 . S
C215 H192 0.951 . S
C215 C214 1.398 . S
C216 C217 1.384 . S
C216 H229 0.947 . S
C216 C251 1.382 . S
C217 C216 1.384 . S
C217 C218 1.378 . S
C218 C217 1.378 . S
C218 C219 1.378 . S
C218 H230 0.952 . S
C219 C218 1.378 . S
C219 H231 0.950 . S
C219 C250 1.383 . S
H220 C239 0.947 . S
H221 C240 0.946 . S
H222 C242 0.953 . S
H223 C243 0.945 . S
H224 C245 0.952 . S
H225 C246 0.949 . S
H226 C248 0.950 . S
H227 C249 0.948 . S
H228 C251 0.951 . S
H229 C216 0.947 . S
H230 C218 0.952 . S
H231 C219 0.950 . S
N232 C235 1.382 . S
N232 C237 1.363 . S
N233 C235 1.371 . S
N233 C236 1.372 . S
N234 C236 1.361 . S
N234 C237 1.377 . S
C235 N232 1.382 . S
C235 N233 1.371 . S
C235 C238 1.480 . S
C236 N233 1.372 . S
C236 N234 1.361 . S
C236 C244 1.457 . S
C237 N232 1.363 . S
C237 N234 1.377 . S
C237 C250 1.479 . S
C238 C235 1.480 . S
C238 C239 1.383 . S
C238 C243 1.385 . S
C239 H220 0.947 . S
C239 C238 1.383 . S
C239 C240 1.388 . S
C240 H221 0.946 . S
C240 C239 1.388 . S
C240 C241 1.384 . S
C241 C240 1.384 . S
C241 C242 1.377 . S
C242 H222 0.953 . S
C242 C241 1.377 . S
C242 C243 1.369 . S
C243 H223 0.945 . S
C243 C238 1.385 . S
C243 C242 1.369 . S
C244 C236 1.457 . S
C244 C245 1.372 . S
C244 C249 1.364 . S
C245 H224 0.952 . S
C245 C244 1.372 . S
C245 C246 1.389 . S
C246 H225 0.949 . S
C246 C245 1.389 . S
C246 C247 1.387 . S
C247 C246 1.387 . S
C247 C248 1.372 . S
C248 H226 0.950 . S
C248 C247 1.372 . S
C248 C249 1.379 . S
C249 H227 0.948 . S
C249 C244 1.364 . S
C249 C248 1.379 . S
C250 C219 1.383 . S
C250 C237 1.479 . S
C250 C251 1.398 . S
C251 C216 1.382 . S
C251 H228 0.951 . S
C251 C250 1.398 . S
C252 C253 1.384 . S
C252 H265 0.947 . S
C252 C287 1.382 . S
C253 C252 1.384 . S
C253 C254 1.378 . S
C254 C253 1.378 . S
C254 C255 1.378 . S
C254 H266 0.952 . S
C255 C254 1.378 . S
C255 H267 0.950 . S
C255 C286 1.383 . S
H256 C275 0.947 . S
H257 C276 0.946 . S
H258 C278 0.953 . S
H259 C279 0.945 . S
H260 C281 0.952 . S
H261 C282 0.949 . S
H262 C284 0.950 . S
H263 C285 0.948 . S
H264 C287 0.951 . S
H265 C252 0.947 . S
H266 C254 0.952 . S
H267 C255 0.950 . S
N268 C271 1.382 . S
N268 C273 1.363 . S
N269 C271 1.371 . S
N269 C272 1.372 . S
N270 C272 1.361 . S
N270 C273 1.377 . S
C271 N268 1.382 . S
C271 N269 1.371 . S
C271 C274 1.480 . S
C272 N269 1.372 . S
C272 N270 1.361 . S
C272 C280 1.457 . S
C273 N268 1.363 . S
C273 N270 1.377 . S
C273 C286 1.479 . S
C274 C271 1.480 . S
C274 C275 1.383 . S
C274 C279 1.385 . S
C275 H256 0.947 . S
C275 C274 1.383 . S
C275 C276 1.388 . S
C276 H257 0.946 . S
C276 C275 1.388 . S
C276 C277 1.384 . S
C277 C276 1.384 . S
C277 C278 1.377 . S
C278 H258 0.953 . S
C278 C277 1.377 . S
C278 C279 1.369 . S
C279 H259 0.945 . S
C279 C274 1.385 . S
C279 C278 1.369 . S
C280 C272 1.457 . S
C280 C281 1.372 . S
C280 C285 1.364 . S
C281 H260 0.952 . S
C281 C280 1.372 . S
C281 C282 1.389 . S
C282 H261 0.949 . S
C282 C281 1.389 . S
C282 C283 1.387 . S
C283 C282 1.387 . S
C283 C284 1.372 . S
C284 H262 0.950 . S
C284 C283 1.372 . S
C284 C285 1.379 . S
C285 H263 0.948 . S
C285 C280 1.364 . S
C285 C284 1.379 . S
C286 C255 1.383 . S
C286 C273 1.479 . S
C286 C287 1.398 . S
C287 C252 1.382 . S
C287 H264 0.951 . S
C287 C286 1.398 . S
Tb288 C297 2.764 . S
Tb288 O298 2.295 1_455 S
Tb288 O301 2.303 . S
Tb288 O305 2.322 1_545 S
Tb288 O306 2.349 1_545 S
Tb288 O309 2.415 . S
Tb288 O310 2.399 . S
Tb289 O299 2.322 . S
Tb289 O300 2.349 . S
Tb289 O302 2.415 1_545 S
Tb289 O303 2.399 1_545 S
Tb289 O304 2.325 1_645 S
Tb289 O307 2.303 1_545 S
Tb289 C318 2.764 1_545 S
C290 O306 1.261 1_655 S
C290 O307 1.257 . S
C291 C294 1.358 . S
C291 C295 1.332 . S
C291 C297 1.504 . S
C292 C293 1.373 . S
C292 C296 1.308 . S
C293 C292 1.373 . S
C293 C294 1.429 . S
C293 H320 0.932 . S
C294 C291 1.358 . S
C294 C293 1.429 . S
C294 H321 0.930 . S
C295 C291 1.332 . S
C295 C296 1.394 . S
C295 H322 0.932 . S
C296 C292 1.308 . S
C296 C295 1.394 . S
C296 H323 0.929 . S
C297 Tb288 2.764 . S
C297 C291 1.504 . S
C297 O309 1.239 . S
C297 O310 1.263 . S
O298 Tb288 2.295 1_655 S
O298 C308 1.266 . S
O299 Tb289 2.322 . S
O299 C308 1.257 . S
O300 Tb289 2.349 . S
O300 C311 1.261 1_655 S
O301 Tb288 2.303 . S
O301 C311 1.257 . S
O302 Tb289 2.415 1_565 S
O302 C318 1.239 . S
O303 Tb289 2.399 1_565 S
O303 C318 1.263 . S
O304 Tb289 2.325 1_465 S
O304 C319 1.236 . S
O305 Tb288 2.322 1_565 S
O305 C319 1.257 . S
O306 Tb288 2.349 1_565 S
O306 C290 1.261 1_455 S
O307 Tb289 2.303 1_565 S
O307 C290 1.257 . S
C308 O298 1.266 . S
C308 O299 1.257 . S
O309 Tb288 2.415 . S
O309 C297 1.239 . S
O310 Tb288 2.399 . S
O310 C297 1.263 . S
C311 O300 1.261 1_455 S
C311 O301 1.257 . S
C312 C315 1.358 . S
C312 C316 1.332 . S
C312 C318 1.504 . S
C313 C314 1.373 . S
C313 C317 1.308 . S
C314 C313 1.373 . S
C314 C315 1.429 . S
C314 H324 0.932 . S
C315 C312 1.358 . S
C315 C314 1.429 . S
C315 H325 0.930 . S
C316 C312 1.332 . S
C316 C317 1.394 . S
C316 H326 0.932 . S
C317 C313 1.308 . S
C317 C316 1.394 . S
C317 H327 0.929 . S
C318 Tb289 2.764 1_565 S
C318 O302 1.239 . S
C318 O303 1.263 . S
C318 C312 1.504 . S
C319 O304 1.236 . S
C319 O305 1.257 . S
H320 C293 0.932 . S
H321 C294 0.930 . S
H322 C295 0.932 . S
H323 C296 0.929 . S
H324 C314 0.932 . S
H325 C315 0.930 . S
H326 C316 0.932 . S
H327 C317 0.929 . S
Tb328 C337 2.764 . S
Tb328 O338 2.325 1_554 S
Tb328 O341 2.303 . S
Tb328 O345 2.322 1_545 S
Tb328 O346 2.366 1_545 S
Tb328 O349 2.415 . S
Tb328 O350 2.399 . S
Tb329 O339 2.324 1_565 S
Tb329 O340 2.351 1_566 S
Tb329 O342 2.413 . S
Tb329 O343 2.398 . S
Tb329 O344 2.323 1_556 S
Tb329 O347 2.302 . S
Tb329 C358 2.763 . S
C330 O346 1.240 1_556 S
C330 O347 1.257 . S
C331 C334 1.358 . S
C331 C335 1.332 . S
C331 C337 1.504 . S
C332 C333 1.373 . S
C332 C336 1.308 . S
C333 C332 1.373 . S
C333 C334 1.429 . S
C333 H360 0.932 . S
C334 C331 1.358 . S
C334 C333 1.429 . S
C334 H361 0.930 . S
C335 C331 1.332 . S
C335 C336 1.394 . S
C335 H362 0.932 . S
C336 C332 1.308 . S
C336 C335 1.394 . S
C336 H363 0.929 . S
C337 Tb328 2.764 . S
C337 C331 1.504 . S
C337 O349 1.239 . S
C337 O350 1.263 . S
O338 Tb328 2.325 1_556 S
O338 C348 1.236 . S
O339 Tb329 2.324 1_545 S
O339 C348 1.257 . S
O340 Tb329 2.351 1_544 S
O340 C351 1.261 . S
O341 Tb328 2.303 . S
O341 C351 1.257 . S
O342 Tb329 2.413 . S
O342 C358 1.239 . S
O343 Tb329 2.398 . S
O343 C358 1.263 . S
O344 Tb329 2.323 1_554 S
O344 C359 1.236 . S
O345 Tb328 2.322 1_565 S
O345 C359 1.257 . S
O346 Tb328 2.366 1_565 S
O346 C330 1.240 1_554 S
O347 Tb329 2.302 . S
O347 C330 1.257 . S
C348 O338 1.236 . S
C348 O339 1.257 . S
O349 Tb328 2.415 . S
O349 C337 1.239 . S
O350 Tb328 2.399 . S
O350 C337 1.263 . S
C351 O340 1.261 . S
C351 O341 1.257 . S
C352 C355 1.358 . S
C352 C356 1.332 . S
C352 C358 1.504 . S
C353 C354 1.373 . S
C353 C357 1.308 . S
C354 C353 1.373 . S
C354 C355 1.429 . S
C354 H364 0.932 . S
C355 C352 1.358 . S
C355 C354 1.429 . S
C355 H365 0.930 . S
C356 C352 1.332 . S
C356 C357 1.394 . S
C356 H366 0.932 . S
C357 C353 1.308 . S
C357 C356 1.394 . S
C357 H367 0.929 . S
C358 Tb329 2.763 . S
C358 O342 1.239 . S
C358 O343 1.263 . S
C358 C352 1.504 . S
C359 O344 1.236 . S
C359 O345 1.257 . S
H360 C333 0.932 . S
H361 C334 0.930 . S
H362 C335 0.932 . S
H363 C336 0.929 . S
H364 C354 0.932 . S
H365 C355 0.930 . S
H366 C356 0.932 . S
H367 C357 0.929 . S
Tb368 C377 2.764 . S
Tb368 O378 2.325 . S
Tb368 O381 2.303 . S
Tb368 O385 2.322 . S
Tb368 O386 2.349 . S
Tb368 O389 2.415 . S
Tb368 O390 2.399 . S
Tb369 O379 2.322 . S
Tb369 O380 2.349 . S
Tb369 O382 2.415 . S
Tb369 O383 2.399 . S
Tb369 O384 2.325 . S
Tb369 O387 2.303 . S
Tb369 C398 2.764 . S
C370 O386 1.261 . S
C370 O387 1.257 . S
C371 C374 1.358 . S
C371 C375 1.332 . S
C371 C377 1.504 . S
C372 C373 1.373 . S
C372 C376 1.308 . S
C373 C372 1.373 . S
C373 C374 1.429 . S
C373 H400 0.932 . S
C374 C371 1.358 . S
C374 C373 1.429 . S
C374 H401 0.930 . S
C375 C371 1.332 . S
C375 C376 1.394 . S
C375 H402 0.932 . S
C376 C372 1.308 . S
C376 C375 1.394 . S
C376 H403 0.929 . S
C377 Tb368 2.764 . S
C377 C371 1.504 . S
C377 O389 1.239 . S
C377 O390 1.263 . S
O378 Tb368 2.325 . S
O378 C388 1.236 . S
O379 Tb369 2.322 . S
O379 C388 1.257 . S
O380 Tb369 2.349 . S
O380 C391 1.261 . S
O381 Tb368 2.303 . S
O381 C391 1.257 . S
O382 Tb369 2.415 . S
O382 C398 1.239 . S
O383 Tb369 2.399 . S
O383 C398 1.263 . S
O384 Tb369 2.325 . S
O384 C399 1.236 . S
O385 Tb368 2.322 . S
O385 C399 1.257 . S
O386 Tb368 2.349 . S
O386 C370 1.261 . S
O387 Tb369 2.303 . S
O387 C370 1.257 . S
C388 O378 1.236 . S
C388 O379 1.257 . S
O389 Tb368 2.415 . S
O389 C377 1.239 . S
O390 Tb368 2.399 . S
O390 C377 1.263 . S
C391 O380 1.261 . S
C391 O381 1.257 . S
C392 C395 1.358 . S
C392 C396 1.332 . S
C392 C398 1.504 . S
C393 C394 1.373 . S
C393 C397 1.308 . S
C394 C393 1.373 . S
C394 C395 1.429 . S
C394 H404 0.932 . S
C395 C392 1.358 . S
C395 C394 1.429 . S
C395 H405 0.930 . S
C396 C392 1.332 . S
C396 C397 1.394 . S
C396 H406 0.932 . S
C397 C393 1.308 . S
C397 C396 1.394 . S
C397 H407 0.929 . S
C398 Tb369 2.764 . S
C398 O382 1.239 . S
C398 O383 1.263 . S
C398 C392 1.504 . S
C399 O384 1.236 . S
C399 O385 1.257 . S
H400 C373 0.932 . S
H401 C374 0.930 . S
H402 C375 0.932 . S
H403 C376 0.929 . S
H404 C394 0.932 . S
H405 C395 0.930 . S
H406 C396 0.932 . S
H407 C397 0.929 . S
Tb408 C417 2.764 1_455 S
Tb408 O418 2.325 1_455 S
Tb408 O421 2.303 1_456 S
Tb408 O425 2.322 1_556 S
Tb408 O426 2.349 . S
Tb408 O429 2.415 1_455 S
Tb408 O430 2.399 1_455 S
Tb409 O419 2.322 1_455 S
Tb409 O420 2.349 1_455 S
Tb409 O422 2.415 . S
Tb409 O423 2.399 . S
Tb409 O424 2.325 . S
Tb409 O427 2.303 1_554 S
Tb409 C438 2.764 . S
C410 O426 1.261 . S
C410 O427 1.257 . S
C411 C414 1.358 . S
C411 C415 1.332 . S
C411 C417 1.504 . S
C412 C413 1.373 . S
C412 C416 1.308 . S
C413 C412 1.373 . S
C413 C414 1.429 . S
C413 H440 0.932 . S
C414 C411 1.358 . S
C414 C413 1.429 . S
C414 H441 0.930 . S
C415 C411 1.332 . S
C415 C416 1.394 . S
C415 H442 0.932 . S
C416 C412 1.308 . S
C416 C415 1.394 . S
C416 H443 0.929 . S
C417 Tb408 2.764 1_655 S
C417 C411 1.504 . S
C417 O429 1.239 . S
C417 O430 1.263 . S
O418 Tb408 2.325 1_655 S
O418 C428 1.236 . S
O419 Tb409 2.322 1_655 S
O419 C428 1.257 1_554 S
O420 Tb409 2.349 1_655 S
O420 C431 1.261 . S
O421 Tb408 2.303 1_654 S
O421 C431 1.257 . S
O422 Tb409 2.415 . S
O422 C438 1.239 . S
O423 Tb409 2.399 . S
O423 C438 1.263 . S
O424 Tb409 2.325 . S
O424 C439 1.236 . S
O425 Tb408 2.322 1_554 S
O425 C439 1.257 . S
O426 Tb408 2.349 . S
O426 C410 1.261 . S
O427 Tb409 2.303 1_556 S
O427 C410 1.257 . S
C428 O418 1.236 . S
C428 O419 1.257 1_556 S
O429 Tb408 2.415 1_655 S
O429 C417 1.239 . S
O430 Tb408 2.399 1_655 S
O430 C417 1.263 . S
C431 O420 1.261 . S
C431 O421 1.257 . S
C432 C435 1.358 . S
C432 C436 1.332 . S
C432 C438 1.504 . S
C433 C434 1.373 . S
C433 C437 1.308 . S
C434 C433 1.373 . S
C434 C435 1.429 . S
C434 H444 0.932 . S
C435 C432 1.358 . S
C435 C434 1.429 . S
C435 H445 0.930 . S
C436 C432 1.332 . S
C436 C437 1.394 . S
C436 H446 0.932 . S
C437 C433 1.308 . S
C437 C436 1.394 . S
C437 H447 0.929 . S
C438 Tb409 2.764 . S
C438 O422 1.239 . S
C438 O423 1.263 . S
C438 C432 1.504 . S
C439 O424 1.236 . S
C439 O425 1.257 . S
H440 C413 0.932 . S
H441 C414 0.930 . S
H442 C415 0.932 . S
H443 C416 0.929 . S
H444 C434 0.932 . S
H445 C435 0.930 . S
H446 C436 0.932 . S
H447 C437 0.929 . S
H448 C456 0.950 . S
H449 C461 0.950 . S
H450 C458 0.950 . S
H451 C460 0.950 . S
H452 C462 0.950 . S
H453 C464 0.950 . S
H454 C466 0.950 . S
H455 C467 0.950 . S
C456 H448 0.950 . S
C456 C457 1.386 . S
C456 C458 1.391 . S
C457 C456 1.386 . S
C457 C461 1.393 . S
C458 H450 0.950 . S
C458 C456 1.391 . S
C458 C459 1.400 . S
C459 C458 1.400 . S
C459 C460 1.398 . S
C459 C465 1.491 . S
C460 H451 0.950 . S
C460 C459 1.398 . S
C460 C461 1.391 . S
C461 H449 0.950 . S
C461 C457 1.393 . S
C461 C460 1.391 . S
C462 H452 0.950 . S
C462 C463 1.386 . S
C462 C464 1.391 . S
C463 C462 1.386 . S
C463 C467 1.393 . S
C464 H453 0.950 . S
C464 C462 1.391 . S
C464 C465 1.400 . S
C465 C459 1.491 . S
C465 C464 1.400 . S
C465 C466 1.398 . S
C466 H454 0.950 . S
C466 C465 1.398 . S
C466 C467 1.391 . S
C467 H455 0.950 . S
C467 C463 1.393 . S
C467 C466 1.391 . S
H468 C476 0.950 . S
H469 C481 0.950 . S
H470 C478 0.950 . S
H471 C480 0.950 . S
H472 C482 0.950 . S
H473 C484 0.950 . S
H474 C486 0.950 . S
H475 C487 0.950 . S
C476 H468 0.950 . S
C476 C477 1.386 . S
C476 C478 1.391 . S
C477 C476 1.386 . S
C477 C481 1.393 . S
C478 H470 0.950 . S
C478 C476 1.391 . S
C478 C479 1.400 . S
C479 C478 1.400 . S
C479 C480 1.398 . S
C479 C485 1.491 . S
C480 H471 0.950 . S
C480 C479 1.398 . S
C480 C481 1.391 . S
C481 H469 0.950 . S
C481 C477 1.393 . S
C481 C480 1.391 . S
C482 H472 0.950 . S
C482 C483 1.386 . S
C482 C484 1.391 . S
C483 C482 1.386 . S
C483 C487 1.393 . S
C484 H473 0.950 . S
C484 C482 1.391 . S
C484 C485 1.400 . S
C485 C479 1.491 . S
C485 C484 1.400 . S
C485 C486 1.398 . S
C486 H474 0.950 . S
C486 C485 1.398 . S
C486 C487 1.391 . S
C487 H475 0.950 . S
C487 C483 1.393 . S
C487 C486 1.391 . S
H488 C496 0.950 . S
H489 C501 0.950 . S
H490 C498 0.950 . S
H491 C500 0.950 . S
H492 C502 0.950 . S
H493 C504 0.950 . S
H494 C506 0.950 . S
H495 C507 0.950 . S
C496 H488 0.950 . S
C496 C497 1.386 . S
C496 C498 1.391 . S
C497 C496 1.386 . S
C497 C501 1.393 . S
C498 H490 0.950 . S
C498 C496 1.391 . S
C498 C499 1.400 . S
C499 C498 1.400 . S
C499 C500 1.398 . S
C499 C505 1.491 . S
C500 H491 0.950 . S
C500 C499 1.398 . S
C500 C501 1.391 . S
C501 H489 0.950 . S
C501 C497 1.393 . S
C501 C500 1.391 . S
C502 H492 0.950 . S
C502 C503 1.386 . S
C502 C504 1.391 . S
C503 C502 1.386 . S
C503 C507 1.393 . S
C504 H493 0.950 . S
C504 C502 1.391 . S
C504 C505 1.400 . S
C505 C499 1.491 . S
C505 C504 1.400 . S
C505 C506 1.398 . S
C506 H494 0.950 . S
C506 C505 1.398 . S
C506 C507 1.391 . S
C507 H495 0.950 . S
C507 C503 1.393 . S
C507 C506 1.391 . S
H508 C516 0.950 . S
H509 C521 0.950 . S
H510 C518 0.950 . S
H511 C520 0.950 . S
H512 C522 0.950 . S
H513 C524 0.950 . S
H514 C526 0.950 . S
H515 C527 0.950 1_455 S
C516 H508 0.950 . S
C516 C517 1.386 . S
C516 C518 1.391 . S
C517 C516 1.386 . S
C517 C521 1.393 . S
C518 H510 0.950 . S
C518 C516 1.391 . S
C518 C519 1.400 . S
C519 C518 1.400 . S
C519 C520 1.398 . S
C519 C525 1.491 . S
C520 H511 0.950 . S
C520 C519 1.398 . S
C520 C521 1.391 . S
C521 H509 0.950 . S
C521 C517 1.393 . S
C521 C520 1.391 . S
C522 H512 0.950 . S
C522 C523 1.386 . S
C522 C524 1.391 . S
C523 C522 1.386 . S
C523 C527 1.393 . S
C524 H513 0.950 . S
C524 C522 1.391 . S
C524 C525 1.400 . S
C525 C519 1.491 . S
C525 C524 1.400 . S
C525 C526 1.398 . S
C526 H514 0.950 . S
C526 C525 1.398 . S
C526 C527 1.391 . S
C527 H515 0.950 1_655 S
C527 C523 1.393 . S
C527 C526 1.391 . S
H528 C536 0.950 . S
H529 C541 0.950 . S
H530 C538 0.950 . S
H531 C540 0.950 . S
H532 C542 0.950 . S
H533 C544 0.950 . S
H534 C546 0.950 . S
H535 C547 0.950 . S
C536 H528 0.950 . S
C536 C537 1.386 . S
C536 C538 1.391 . S
C537 C536 1.386 . S
C537 C541 1.393 . S
C538 H530 0.950 . S
C538 C536 1.391 . S
C538 C539 1.400 . S
C539 C538 1.400 . S
C539 C540 1.398 . S
C539 C545 1.491 . S
C540 H531 0.950 . S
C540 C539 1.398 . S
C540 C541 1.391 . S
C541 H529 0.950 . S
C541 C537 1.393 . S
C541 C540 1.391 . S
C542 H532 0.950 . S
C542 C543 1.386 . S
C542 C544 1.391 . S
C543 C542 1.386 . S
C543 C547 1.393 . S
C544 H533 0.950 . S
C544 C542 1.391 . S
C544 C545 1.400 . S
C545 C539 1.491 . S
C545 C544 1.400 . S
C545 C546 1.398 . S
C546 H534 0.950 . S
C546 C545 1.398 . S
C546 C547 1.391 . S
C547 H535 0.950 . S
C547 C543 1.393 . S
C547 C546 1.391 . S
H548 C556 0.950 . S
H549 C561 0.950 . S
H550 C558 0.950 . S
H551 C560 0.950 . S
H552 C562 0.950 . S
H553 C564 0.950 . S
H554 C566 0.950 . S
H555 C567 0.950 . S
C556 H548 0.950 . S
C556 C557 1.386 . S
C556 C558 1.391 . S
C557 C556 1.386 . S
C557 C561 1.393 . S
C558 H550 0.950 . S
C558 C556 1.391 . S
C558 C559 1.400 . S
C559 C558 1.400 . S
C559 C560 1.398 . S
C559 C565 1.491 . S
C560 H551 0.950 . S
C560 C559 1.398 . S
C560 C561 1.391 . S
C561 H549 0.950 . S
C561 C557 1.393 . S
C561 C560 1.391 . S
C562 H552 0.950 . S
C562 C563 1.386 . S
C562 C564 1.391 . S
C563 C562 1.386 . S
C563 C567 1.393 . S
C564 H553 0.950 . S
C564 C562 1.391 . S
C564 C565 1.400 . S
C565 C559 1.491 . S
C565 C564 1.400 . S
C565 C566 1.398 . S
C566 H554 0.950 . S
C566 C565 1.398 . S
C566 C567 1.391 . S
C567 H555 0.950 . S
C567 C563 1.393 . S
C567 C566 1.391 . S
H568 C576 0.950 . S
H569 C581 0.950 . S
H570 C578 0.950 . S
H571 C580 0.950 . S
H572 C582 0.950 . S
H573 C584 0.950 . S
H574 C586 0.950 . S
H575 C587 0.950 1_554 S
C576 H568 0.950 . S
C576 C577 1.386 . S
C576 C578 1.391 . S
C577 C576 1.386 . S
C577 C581 1.393 . S
C578 H570 0.950 . S
C578 C576 1.391 . S
C578 C579 1.400 . S
C579 C578 1.400 . S
C579 C580 1.398 . S
C579 C585 1.491 . S
C580 H571 0.950 . S
C580 C579 1.398 . S
C580 C581 1.391 . S
C581 H569 0.950 . S
C581 C577 1.393 . S
C581 C580 1.391 . S
C582 H572 0.950 . S
C582 C583 1.386 . S
C582 C584 1.391 . S
C583 C582 1.386 . S
C583 C587 1.393 . S
C584 H573 0.950 . S
C584 C582 1.391 . S
C584 C585 1.400 . S
C585 C579 1.491 . S
C585 C584 1.400 . S
C585 C586 1.398 . S
C586 H574 0.950 . S
C586 C585 1.398 . S
C586 C587 1.391 . S
C587 H575 0.950 1_556 S
C587 C583 1.393 . S
C587 C586 1.391 . S
H588 C596 0.950 . S
H589 C601 0.950 . S
H590 C598 0.950 . S
H591 C600 0.950 . S
H592 C602 0.950 . S
H593 C604 0.950 . S
H594 C606 0.950 . S
H595 C607 0.950 . S
C596 H588 0.950 . S
C596 C597 1.386 . S
C596 C598 1.391 . S
C597 C596 1.386 . S
C597 C601 1.393 . S
C598 H590 0.950 . S
C598 C596 1.391 . S
C598 C599 1.400 . S
C599 C598 1.400 . S
C599 C600 1.398 . S
C599 C605 1.491 . S
C600 H591 0.950 . S
C600 C599 1.398 . S
C600 C601 1.391 . S
C601 H589 0.950 . S
C601 C597 1.393 . S
C601 C600 1.391 . S
C602 H592 0.950 . S
C602 C603 1.386 . S
C602 C604 1.391 . S
C603 C602 1.386 . S
C603 C607 1.393 . S
C604 H593 0.950 . S
C604 C602 1.391 . S
C604 C605 1.400 . S
C605 C599 1.491 . S
C605 C604 1.400 . S
C605 C606 1.398 . S
C606 H594 0.950 . S
C606 C605 1.398 . S
C606 C607 1.391 . S
C607 H595 0.950 . S
C607 C603 1.393 . S
C607 C606 1.391 . S
H608 C616 0.950 . S
H609 C621 0.950 . S
H610 C618 0.950 . S
H611 C620 0.950 . S
H612 C622 0.950 . S
H613 C624 0.950 . S
H614 C626 0.950 . S
H615 C627 0.950 . S
C616 H608 0.950 . S
C616 C617 1.386 . S
C616 C618 1.391 . S
C617 C616 1.386 . S
C617 C621 1.393 . S
C618 H610 0.950 . S
C618 C616 1.391 . S
C618 C619 1.400 . S
C619 C618 1.400 . S
C619 C620 1.398 . S
C619 C625 1.491 . S
C620 H611 0.950 . S
C620 C619 1.398 . S
C620 C621 1.391 . S
C621 H609 0.950 . S
C621 C617 1.393 . S
C621 C620 1.391 . S
C622 H612 0.950 . S
C622 C623 1.386 . S
C622 C624 1.391 . S
C623 C622 1.386 . S
C623 C627 1.393 . S
C624 H613 0.950 . S
C624 C622 1.391 . S
C624 C625 1.400 . S
C625 C619 1.491 . S
C625 C624 1.400 . S
C625 C626 1.398 . S
C626 H614 0.950 . S
C626 C625 1.398 . S
C626 C627 1.391 . S
C627 H615 0.950 . S
C627 C623 1.393 . S
C627 C626 1.391 . S
H628 C636 0.950 . S
H629 C641 0.950 . S
H630 C638 0.950 . S
H631 C640 0.950 . S
H632 C642 0.950 . S
H633 C644 0.950 . S
H634 C646 0.950 . S
H635 C647 0.950 . S
C636 H628 0.950 . S
C636 C637 1.386 . S
C636 C638 1.391 . S
C637 C636 1.386 . S
C637 C641 1.393 . S
C638 H630 0.950 . S
C638 C636 1.391 . S
C638 C639 1.400 . S
C639 C638 1.400 . S
C639 C640 1.398 . S
C639 C645 1.491 . S
C640 H631 0.950 . S
C640 C639 1.398 . S
C640 C641 1.391 . S
C641 H629 0.950 . S
C641 C637 1.393 . S
C641 C640 1.391 . S
C642 H632 0.950 . S
C642 C643 1.386 . S
C642 C644 1.391 . S
C643 C642 1.386 . S
C643 C647 1.393 . S
C644 H633 0.950 . S
C644 C642 1.391 . S
C644 C645 1.400 . S
C645 C639 1.491 . S
C645 C644 1.400 . S
C645 C646 1.398 . S
C646 H634 0.950 . S
C646 C645 1.398 . S
C646 C647 1.391 . S
C647 H635 0.950 . S
C647 C643 1.393 . S
C647 C646 1.391 . S
H648 C656 0.950 . S
H649 C661 0.950 . S
H650 C658 0.950 . S
H651 C660 0.950 . S
H652 C662 0.950 1_455 S
H653 C664 0.950 . S
H654 C666 0.950 . S
H655 C667 0.950 . S
C656 H648 0.950 . S
C656 C657 1.386 . S
C656 C658 1.391 . S
C657 C656 1.386 . S
C657 C661 1.393 . S
C658 H650 0.950 . S
C658 C656 1.391 . S
C658 C659 1.400 . S
C659 C658 1.400 . S
C659 C660 1.398 . S
C659 C665 1.491 . S
C660 H651 0.950 . S
C660 C659 1.398 . S
C660 C661 1.391 . S
C661 H649 0.950 . S
C661 C657 1.393 . S
C661 C660 1.391 . S
C662 H652 0.950 1_655 S
C662 C663 1.386 . S
C662 C664 1.391 . S
C663 C662 1.386 . S
C663 C667 1.393 . S
C664 H653 0.950 . S
C664 C662 1.391 . S
C664 C665 1.400 . S
C665 C659 1.491 . S
C665 C664 1.400 . S
C665 C666 1.398 . S
C666 H654 0.950 . S
C666 C665 1.398 . S
C666 C667 1.391 . S
C667 H655 0.950 . S
C667 C663 1.393 . S
C667 C666 1.391 . S
H668 C676 0.950 . S
H669 C681 0.950 . S
H670 C678 0.950 . S
H671 C680 0.950 . S
H672 C682 0.950 . S
H673 C684 0.950 . S
H674 C686 0.950 . S
H675 C687 0.950 . S
C676 H668 0.950 . S
C676 C677 1.386 . S
C676 C678 1.391 . S
C677 C676 1.386 . S
C677 C681 1.393 . S
C678 H670 0.950 . S
C678 C676 1.391 . S
C678 C679 1.400 . S
C679 C678 1.400 . S
C679 C680 1.398 . S
C679 C685 1.491 . S
C680 H671 0.950 . S
C680 C679 1.398 . S
C680 C681 1.391 . S
C681 H669 0.950 . S
C681 C677 1.393 . S
C681 C680 1.391 . S
C682 H672 0.950 . S
C682 C683 1.386 . S
C682 C684 1.391 . S
C683 C682 1.386 . S
C683 C687 1.393 . S
C684 H673 0.950 . S
C684 C682 1.391 . S
C684 C685 1.400 . S
C685 C679 1.491 . S
C685 C684 1.400 . S
C685 C686 1.398 . S
C686 H674 0.950 . S
C686 C685 1.398 . S
C686 C687 1.391 . S
C687 H675 0.950 . S
C687 C683 1.393 . S
C687 C686 1.391 . S
H688 C696 0.950 . S
H689 C701 0.950 . S
H690 C698 0.950 . S
H691 C700 0.950 . S
H692 C702 0.950 . S
H693 C704 0.950 . S
H694 C706 0.950 . S
H695 C707 0.950 . S
C696 H688 0.950 . S
C696 C697 1.386 . S
C696 C698 1.391 . S
C697 C696 1.386 . S
C697 C701 1.393 . S
C698 H690 0.950 . S
C698 C696 1.391 . S
C698 C699 1.400 . S
C699 C698 1.400 . S
C699 C700 1.398 . S
C699 C705 1.491 . S
C700 H691 0.950 . S
C700 C699 1.398 . S
C700 C701 1.391 . S
C701 H689 0.950 . S
C701 C697 1.393 . S
C701 C700 1.391 . S
C702 H692 0.950 . S
C702 C703 1.386 . S
C702 C704 1.391 . S
C703 C702 1.386 . S
C703 C707 1.393 . S
C704 H693 0.950 . S
C704 C702 1.391 . S
C704 C705 1.400 . S
C705 C699 1.491 . S
C705 C704 1.400 . S
C705 C706 1.398 . S
C706 H694 0.950 . S
C706 C705 1.398 . S
C706 C707 1.391 . S
C707 H695 0.950 . S
C707 C703 1.393 . S
C707 C706 1.391 . S
H708 C716 0.950 . S
H709 C721 0.950 . S
H710 C718 0.950 . S
H711 C720 0.950 . S
H712 C722 0.950 . S
H713 C724 0.950 . S
H714 C726 0.950 . S
H715 C727 0.950 . S
C716 H708 0.950 . S
C716 C717 1.386 . S
C716 C718 1.391 . S
C717 C716 1.386 . S
C717 C721 1.393 . S
C718 H710 0.950 . S
C718 C716 1.391 . S
C718 C719 1.400 . S
C719 C718 1.400 . S
C719 C720 1.398 . S
C719 C725 1.491 . S
C720 H711 0.950 . S
C720 C719 1.398 . S
C720 C721 1.391 . S
C721 H709 0.950 . S
C721 C717 1.393 . S
C721 C720 1.391 . S
C722 H712 0.950 . S
C722 C723 1.386 . S
C722 C724 1.391 . S
C723 C722 1.386 . S
C723 C727 1.393 . S
C724 H713 0.950 . S
C724 C722 1.391 . S
C724 C725 1.400 . S
C725 C719 1.491 . S
C725 C724 1.400 . S
C725 C726 1.398 . S
C726 H714 0.950 . S
C726 C725 1.398 . S
C726 C727 1.391 . S
C727 H715 0.950 . S
C727 C723 1.393 . S
C727 C726 1.391 . S
H728 C736 0.950 . S
H729 C741 0.950 . S
H730 C738 0.950 . S
H731 C740 0.950 . S
H732 C742 0.950 . S
H733 C744 0.950 . S
H734 C746 0.950 . S
H735 C747 0.950 . S
C736 H728 0.950 . S
C736 C737 1.386 . S
C736 C738 1.391 . S
C737 C736 1.386 . S
C737 C741 1.393 . S
C738 H730 0.950 . S
C738 C736 1.391 . S
C738 C739 1.400 . S
C739 C738 1.400 . S
C739 C740 1.398 . S
C739 C745 1.491 . S
C740 H731 0.950 . S
C740 C739 1.398 . S
C740 C741 1.391 . S
C741 H729 0.950 . S
C741 C737 1.393 . S
C741 C740 1.391 . S
C742 H732 0.950 . S
C742 C743 1.386 . S
C742 C744 1.391 . S
C743 C742 1.386 . S
C743 C747 1.393 . S
C744 H733 0.950 . S
C744 C742 1.391 . S
C744 C745 1.400 . S
C745 C739 1.491 . S
C745 C744 1.400 . S
C745 C746 1.398 . S
C746 H734 0.950 . S
C746 C745 1.398 . S
C746 C747 1.391 . S
C747 H735 0.950 . S
C747 C743 1.393 . S
C747 C746 1.391 . S
H748 C756 0.950 . S
H749 C761 0.950 . S
H750 C758 0.950 . S
H751 C760 0.950 . S
H752 C762 0.950 . S
H753 C764 0.950 . S
H754 C766 0.950 . S
H755 C767 0.950 . S
C756 H748 0.950 . S
C756 C757 1.386 . S
C756 C758 1.391 . S
C757 C756 1.386 . S
C757 C761 1.393 . S
C758 H750 0.950 . S
C758 C756 1.391 . S
C758 C759 1.400 . S
C759 C758 1.400 . S
C759 C760 1.398 . S
C759 C765 1.491 . S
C760 H751 0.950 . S
C760 C759 1.398 . S
C760 C761 1.391 . S
C761 H749 0.950 . S
C761 C757 1.393 . S
C761 C760 1.391 . S
C762 H752 0.950 . S
C762 C763 1.386 . S
C762 C764 1.391 . S
C763 C762 1.386 . S
C763 C767 1.393 . S
C764 H753 0.950 . S
C764 C762 1.391 . S
C764 C765 1.400 . S
C765 C759 1.491 . S
C765 C764 1.400 . S
C765 C766 1.398 . S
C766 H754 0.950 . S
C766 C765 1.398 . S
C766 C767 1.391 . S
C767 H755 0.950 . S
C767 C763 1.393 . S
C767 C766 1.391 . S
H768 C776 0.950 . S
H769 C781 0.950 . S
H770 C778 0.950 . S
H771 C780 0.950 . S
H772 C782 0.950 . S
H773 C784 0.950 . S
H774 C786 0.950 . S
H775 C787 0.950 . S
C776 H768 0.950 . S
C776 C777 1.386 . S
C776 C778 1.391 . S
C777 C776 1.386 . S
C777 C781 1.393 . S
C778 H770 0.950 . S
C778 C776 1.391 . S
C778 C779 1.400 . S
C779 C778 1.400 . S
C779 C780 1.398 . S
C779 C785 1.491 . S
C780 H771 0.950 . S
C780 C779 1.398 . S
C780 C781 1.391 . S
C781 H769 0.950 . S
C781 C777 1.393 . S
C781 C780 1.391 . S
C782 H772 0.950 . S
C782 C783 1.386 . S
C782 C784 1.391 . S
C783 C782 1.386 . S
C783 C787 1.393 . S
C784 H773 0.950 . S
C784 C782 1.391 . S
C784 C785 1.400 . S
C785 C779 1.491 . S
C785 C784 1.400 . S
C785 C786 1.398 . S
C786 H774 0.950 . S
C786 C785 1.398 . S
C786 C787 1.391 . S
C787 H775 0.950 . S
C787 C783 1.393 . S
C787 C786 1.391 . S
H788 C796 0.950 . S
H789 C801 0.950 . S
H790 C798 0.950 . S
H791 C800 0.950 . S
H792 C802 0.950 . S
H793 C804 0.950 . S
H794 C806 0.950 . S
H795 C807 0.950 . S
C796 H788 0.950 . S
C796 C797 1.386 . S
C796 C798 1.391 . S
C797 C796 1.386 . S
C797 C801 1.393 . S
C798 H790 0.950 . S
C798 C796 1.391 . S
C798 C799 1.400 . S
C799 C798 1.400 . S
C799 C800 1.398 . S
C799 C805 1.491 . S
C800 H791 0.950 . S
C800 C799 1.398 . S
C800 C801 1.391 . S
C801 H789 0.950 . S
C801 C797 1.393 . S
C801 C800 1.391 . S
C802 H792 0.950 . S
C802 C803 1.386 . S
C802 C804 1.391 . S
C803 C802 1.386 . S
C803 C807 1.393 . S
C804 H793 0.950 . S
C804 C802 1.391 . S
C804 C805 1.400 . S
C805 C799 1.491 . S
C805 C804 1.400 . S
C805 C806 1.398 . S
C806 H794 0.950 . S
C806 C805 1.398 . S
C806 C807 1.391 . S
C807 H795 0.950 . S
C807 C803 1.393 . S
C807 C806 1.391 . S
H808 C816 0.950 . S
H809 C821 0.950 . S
H810 C818 0.950 . S
H811 C820 0.950 . S
H812 C822 0.950 1_556 S
H813 C824 0.950 . S
H814 C826 0.950 . S
H815 C827 0.950 . S
C816 H808 0.950 . S
C816 C817 1.386 . S
C816 C818 1.391 . S
C817 C816 1.386 . S
C817 C821 1.393 . S
C818 H810 0.950 . S
C818 C816 1.391 . S
C818 C819 1.400 . S
C819 C818 1.400 . S
C819 C820 1.398 . S
C819 C825 1.491 . S
C820 H811 0.950 . S
C820 C819 1.398 . S
C820 C821 1.391 . S
C821 H809 0.950 . S
C821 C817 1.393 . S
C821 C820 1.391 . S
C822 H812 0.950 1_554 S
C822 C823 1.386 . S
C822 C824 1.391 . S
C823 C822 1.386 . S
C823 C827 1.393 . S
C824 H813 0.950 . S
C824 C822 1.391 . S
C824 C825 1.400 . S
C825 C819 1.491 . S
C825 C824 1.400 . S
C825 C826 1.398 . S
C826 H814 0.950 . S
C826 C825 1.398 . S
C826 C827 1.391 . S
C827 H815 0.950 . S
C827 C823 1.393 . S
C827 C826 1.391 . S
H828 C836 0.950 . S
H829 C841 0.950 . S
H830 C838 0.950 . S
H831 C840 0.950 . S
H832 C842 0.950 . S
H833 C844 0.950 . S
H834 C846 0.950 . S
H835 C847 0.950 . S
C836 H828 0.950 . S
C836 C837 1.386 . S
C836 C838 1.391 . S
C837 C836 1.386 . S
C837 C841 1.393 . S
C838 H830 0.950 . S
C838 C836 1.391 . S
C838 C839 1.400 . S
C839 C838 1.400 . S
C839 C840 1.398 . S
C839 C845 1.491 . S
C840 H831 0.950 . S
C840 C839 1.398 . S
C840 C841 1.391 . S
C841 H829 0.950 . S
C841 C837 1.393 . S
C841 C840 1.391 . S
C842 H832 0.950 . S
C842 C843 1.386 . S
C842 C844 1.391 . S
C843 C842 1.386 . S
C843 C847 1.393 . S
C844 H833 0.950 . S
C844 C842 1.391 . S
C844 C845 1.400 . S
C845 C839 1.491 . S
C845 C844 1.400 . S
C845 C846 1.398 . S
C846 H834 0.950 . S
C846 C845 1.398 . S
C846 C847 1.391 . S
C847 H835 0.950 . S
C847 C843 1.393 . S
C847 C846 1.391 . S
H848 C856 0.950 . S
H849 C861 0.950 . S
H850 C858 0.950 . S
H851 C860 0.950 . S
H852 C862 0.950 . S
H853 C864 0.950 . S
H854 C866 0.950 . S
H855 C867 0.950 . S
C856 H848 0.950 . S
C856 C857 1.386 . S
C856 C858 1.391 . S
C857 C856 1.386 . S
C857 C861 1.393 . S
C858 H850 0.950 . S
C858 C856 1.391 . S
C858 C859 1.400 . S
C859 C858 1.400 . S
C859 C860 1.398 . S
C859 C865 1.491 . S
C860 H851 0.950 . S
C860 C859 1.398 . S
C860 C861 1.391 . S
C861 H849 0.950 . S
C861 C857 1.393 . S
C861 C860 1.391 . S
C862 H852 0.950 . S
C862 C863 1.386 . S
C862 C864 1.391 . S
C863 C862 1.386 . S
C863 C867 1.393 . S
C864 H853 0.950 . S
C864 C862 1.391 . S
C864 C865 1.400 . S
C865 C859 1.491 . S
C865 C864 1.400 . S
C865 C866 1.398 . S
C866 H854 0.950 . S
C866 C865 1.398 . S
C866 C867 1.391 . S
C867 H855 0.950 . S
C867 C863 1.393 . S
C867 C866 1.391 . S
H868 C876 0.950 . S
H869 C881 0.950 . S
H870 C878 0.950 . S
H871 C880 0.950 . S
H872 C882 0.950 . S
H873 C884 0.950 . S
H874 C886 0.950 . S
H875 C887 0.950 . S
C876 H868 0.950 . S
C876 C877 1.386 . S
C876 C878 1.391 . S
C877 C876 1.386 . S
C877 C881 1.393 . S
C878 H870 0.950 . S
C878 C876 1.391 . S
C878 C879 1.400 . S
C879 C878 1.400 . S
C879 C880 1.398 . S
C879 C885 1.491 . S
C880 H871 0.950 . S
C880 C879 1.398 . S
C880 C881 1.391 . S
C881 H869 0.950 . S
C881 C877 1.393 . S
C881 C880 1.391 . S
C882 H872 0.950 . S
C882 C883 1.386 . S
C882 C884 1.391 . S
C883 C882 1.386 . S
C883 C887 1.393 . S
C884 H873 0.950 . S
C884 C882 1.391 . S
C884 C885 1.400 . S
C885 C879 1.491 . S
C885 C884 1.400 . S
C885 C886 1.398 . S
C886 H874 0.950 . S
C886 C885 1.398 . S
C886 C887 1.391 . S
C887 H875 0.950 . S
C887 C883 1.393 . S
C887 C886 1.391 . S
H888 C896 0.950 . S
H889 C901 0.950 . S
H890 C898 0.950 . S
H891 C900 0.950 . S
H892 C902 0.950 . S
H893 C904 0.950 . S
H894 C906 0.950 . S
H895 C907 0.930 1_655 S
C896 H888 0.950 . S
C896 C897 1.386 . S
C896 C898 1.391 . S
C897 C896 1.386 . S
C897 C901 1.393 . S
C898 H890 0.950 . S
C898 C896 1.391 . S
C898 C899 1.400 . S
C899 C898 1.400 . S
C899 C900 1.398 . S
C899 C905 1.491 . S
C900 H891 0.950 . S
C900 C899 1.398 . S
C900 C901 1.391 . S
C901 H889 0.950 . S
C901 C897 1.393 . S
C901 C900 1.391 . S
C902 H892 0.950 . S
C902 C903 1.386 . S
C902 C904 1.391 . S
C903 C902 1.386 . S
C903 C907 1.393 . S
C904 H893 0.950 . S
C904 C902 1.391 . S
C904 C905 1.400 . S
C905 C899 1.491 . S
C905 C904 1.400 . S
C905 C906 1.398 . S
C906 H894 0.950 . S
C906 C905 1.398 . S
C906 C907 1.391 . S
C907 H895 0.930 1_455 S
C907 C903 1.393 . S
C907 C906 1.391 . S
H908 C916 0.950 . S
H909 C921 0.950 . S
H910 C918 0.950 . S
H911 C920 0.950 . S
H912 C922 0.950 . S
H913 C924 0.950 . S
H914 C926 0.950 . S
H915 C927 0.950 . S
C916 H908 0.950 . S
C916 C917 1.386 . S
C916 C918 1.391 . S
C917 C916 1.386 . S
C917 C921 1.393 . S
C918 H910 0.950 . S
C918 C916 1.391 . S
C918 C919 1.400 . S
C919 C918 1.400 . S
C919 C920 1.398 . S
C919 C925 1.491 . S
C920 H911 0.950 . S
C920 C919 1.398 . S
C920 C921 1.391 . S
C921 H909 0.950 . S
C921 C917 1.393 . S
C921 C920 1.391 . S
C922 H912 0.950 . S
C922 C923 1.386 . S
C922 C924 1.391 . S
C923 C922 1.386 . S
C923 C927 1.393 . S
C924 H913 0.950 . S
C924 C922 1.391 . S
C924 C925 1.400 . S
C925 C919 1.491 . S
C925 C924 1.400 . S
C925 C926 1.398 . S
C926 H914 0.950 . S
C926 C925 1.398 . S
C926 C927 1.391 . S
C927 H915 0.950 . S
C927 C923 1.393 . S
C927 C926 1.391 . S
C457 C1 0.933 . S
C463 C292 0.936 . S
C477 C67 1.212 . S
C483 C353 1.238 . S
C503 C391 2.485 . S
C497 C97 2.537 . S
C517 C133 2.352 . S
C523 C431 2.306 . S
C543 C351 1.282 . S
C537 C25 1.290 . S
C563 C319 2.136 . S
C557 C37 2.076 . S
C583 C428 1.736 . S
C577 C103 1.727 . S
C603 C388 1.842 . S
C597 C109 1.860 . S
C617 C31 1.108 . S
C623 C433 1.120 . S
C643 C348 2.380 . S
C637 C73 2.366 . S
C657 C139 2.197 . S
C663 C290 2.157 . S
C677 C61 1.536 . S
C683 C393 1.574 . S
C703 C313 0.935 . S
C697 C175 0.918 . S
C717 C181 1.199 . S
C723 C332 1.229 . S
C737 C247 2.581 . S
C743 C370 2.511 . S
C757 C277 2.339 . S
C763 C410 2.284 . S
C777 C145 1.244 . S
C783 C330 1.282 . S
C803 C308 2.137 . S
C797 C211 2.067 . S
C823 C439 1.722 . S
C817 C217 1.724 . S
C843 C399 1.868 . S
C837 C283 1.877 . S
C857 C169 1.043 . S
C863 C412 1.094 . S
C883 C359 2.389 . S
C877 C241 2.393 . S
C903 C311 2.144 . S
C897 C253 2.188 . S
C917 C205 1.570 . S
C923 C372 1.587 . S
