# Generated by pormake.
# Topology nom, (4,4)-cn, num edge types: 1
# Building blocks:
#     Node 0, Type 0, BuildingBlock: GIZVER_clean_linker_0, # of connection points: 4
#     Node 1, Type 0, BuildingBlock: GIZVER_clean_linker_0, # of connection points: 4
#     Node 2, Type 0, BuildingBlock: GIZVER_clean_linker_0, # of connection points: 4
#     Node 3, Type 0, BuildingBlock: GIZVER_clean_linker_0, # of connection points: 4
#     Node 4, Type 0, BuildingBlock: GIZVER_clean_linker_0, # of connection points: 4
#     Node 5, Type 0, BuildingBlock: GIZVER_clean_linker_0, # of connection points: 4
#     Node 6, Type 1, BuildingBlock: KUFVIS_clean_sbu_0, # of connection points: 4
#     Node 7, Type 1, BuildingBlock: KUFVIS_clean_sbu_0, # of connection points: 4
#     Node 8, Type 1, BuildingBlock: KUFVIS_clean_sbu_0, # of connection points: 4
#     Node 9, Type 1, BuildingBlock: KUFVIS_clean_sbu_0, # of connection points: 4
#     Node 10, Type 1, BuildingBlock: KUFVIS_clean_sbu_0, # of connection points: 4
#     Node 11, Type 1, BuildingBlock: KUFVIS_clean_sbu_0, # of connection points: 4
#     Edge 12, Type (0, 1), BuildingBlock: AJUNOK_clean_linker_0, # of connection points: 2
#     Edge 13, Type (0, 1), BuildingBlock: AJUNOK_clean_linker_0, # of connection points: 2
#     Edge 14, Type (0, 1), BuildingBlock: AJUNOK_clean_linker_0, # of connection points: 2
#     Edge 15, Type (0, 1), BuildingBlock: AJUNOK_clean_linker_0, # of connection points: 2
#     Edge 16, Type (0, 1), BuildingBlock: AJUNOK_clean_linker_0, # of connection points: 2
#     Edge 17, Type (0, 1), BuildingBlock: AJUNOK_clean_linker_0, # of connection points: 2
#     Edge 18, Type (0, 1), BuildingBlock: AJUNOK_clean_linker_0, # of connection points: 2
#     Edge 19, Type (0, 1), BuildingBlock: AJUNOK_clean_linker_0, # of connection points: 2
#     Edge 20, Type (0, 1), BuildingBlock: AJUNOK_clean_linker_0, # of connection points: 2
#     Edge 21, Type (0, 1), BuildingBlock: AJUNOK_clean_linker_0, # of connection points: 2
#     Edge 22, Type (0, 1), BuildingBlock: AJUNOK_clean_linker_0, # of connection points: 2
#     Edge 23, Type (0, 1), BuildingBlock: AJUNOK_clean_linker_0, # of connection points: 2
#     Edge 24, Type (0, 1), BuildingBlock: AJUNOK_clean_linker_0, # of connection points: 2
#     Edge 25, Type (0, 1), BuildingBlock: AJUNOK_clean_linker_0, # of connection points: 2
#     Edge 26, Type (0, 1), BuildingBlock: AJUNOK_clean_linker_0, # of connection points: 2
#     Edge 27, Type (0, 1), BuildingBlock: AJUNOK_clean_linker_0, # of connection points: 2
#     Edge 28, Type (0, 1), BuildingBlock: AJUNOK_clean_linker_0, # of connection points: 2
#     Edge 29, Type (0, 1), BuildingBlock: AJUNOK_clean_linker_0, # of connection points: 2
#     Edge 30, Type (0, 1), BuildingBlock: AJUNOK_clean_linker_0, # of connection points: 2
#     Edge 31, Type (0, 1), BuildingBlock: AJUNOK_clean_linker_0, # of connection points: 2
#     Edge 32, Type (0, 1), BuildingBlock: AJUNOK_clean_linker_0, # of connection points: 2
#     Edge 33, Type (0, 1), BuildingBlock: AJUNOK_clean_linker_0, # of connection points: 2
#     Edge 34, Type (0, 1), BuildingBlock: AJUNOK_clean_linker_0, # of connection points: 2
#     Edge 35, Type (0, 1), BuildingBlock: AJUNOK_clean_linker_0, # of connection points: 2
# Relax obj value: 0.005
# Max RMSD: 0.075
# Mean RMSD: 0.051
data_MOF--net-nom--node1-KUFVIS_clean_sbu_0--node2-GIZVER_clean_linker_0--edge1-AJUNOK_clean_linker_0
_symmetry_space_group_name_H-M    P1
_symmetry_Int_Tables_number       1
_symmetry_cell_setting            triclinic
loop_
_symmetry_equiv_pos_as_xyz
'x, y, z'
_cell_length_a     33.667701
_cell_length_b     33.976171
_cell_length_c     35.404627
_cell_angle_alpha  90.371163
_cell_angle_beta   90.38869
_cell_angle_gamma 120.22877
loop_
_atom_site_label
_atom_site_type_symbol
_atom_site_fract_x
_atom_site_fract_y
_atom_site_fract_z
_atom_type_partial_charge
H0 H 0.97847 0.59583 0.33686 0.0
H1 H 1.02544 0.57934 0.22824 0.0
H2 H 0.88415 0.4934 0.25956 0.0
H3 H 0.04737 0.65784 0.31117 0.0
H4 H 0.05984 0.65662 0.26264 0.0
H5 H 0.088 0.64227 0.35914 0.0
H6 H 0.1972 0.61929 0.32631 0.0
H7 H 0.11173 0.62991 0.24174 0.0
C8 C 0.97197 0.57746 0.3103 0.0
C9 C 0.92759 0.54101 0.30193 0.0
C10 C 1.00734 0.59193 0.2835 0.0
C11 C 0.99829 0.56827 0.24877 0.0
C12 C 0.95384 0.5322 0.23987 0.0
C13 C 0.91918 0.51907 0.26684 0.0
C14 C 0.05173 0.63678 0.28919 0.0
C15 C 0.09208 0.63094 0.29965 0.0
C16 C 0.10648 0.63525 0.33772 0.0
C17 C 0.14641 0.63398 0.34751 0.0
C18 C 0.16869 0.62385 0.3189 0.0
C19 C 0.15929 0.62621 0.28065 0.0
C20 C 0.11959 0.62797 0.27116 0.0
H21 H 0.44547 0.98463 0.51168 0.0
H22 H 0.45097 0.9963 0.39132 0.0
H23 H 0.48079 0.90132 0.44497 0.0
H24 H 0.41593 0.02852 0.47443 0.0
H25 H 0.43131 0.0423 0.4264 0.0
H26 H 0.47798 0.06448 0.52534 0.0
H27 H 0.56827 0.20618 0.50173 0.0
H28 H 0.50366 0.11121 0.41047 0.0
C29 C 0.45395 0.97562 0.48474 0.0
C30 C 0.45997 0.93752 0.48217 0.0
C31 C 0.45495 0.99962 0.45198 0.0
C32 C 0.45682 0.98184 0.41641 0.0
C33 C 0.4625 0.94361 0.41355 0.0
C34 C 0.4712 0.92705 0.4469 0.0
C35 C 0.44433 0.03793 0.45411 0.0
C36 C 0.485 0.08311 0.46675 0.0
C37 C 0.49513 0.09203 0.50562 0.0
C38 C 0.52604 0.13639 0.51877 0.0
C39 C 0.54728 0.17117 0.49219 0.0
C40 C 0.54219 0.1624 0.45333 0.0
C41 C 0.51003 0.11815 0.44048 0.0
H42 H 0.43765 0.51459 0.58202 0.0
H43 H 0.47621 0.4993 0.69457 0.0
H44 H 0.44089 0.60184 0.67164 0.0
H45 H 0.43204 0.44477 0.599 0.0
H46 H 0.42845 0.43241 0.64777 0.0
H47 H 0.50749 0.47631 0.56607 0.0
H48 H 0.57693 0.40788 0.60705 0.0
H49 H 0.49206 0.43156 0.68151 0.0
C50 C 0.44639 0.52689 0.61091 0.0
C51 C 0.43932 0.56235 0.62345 0.0
C52 C 0.45944 0.50369 0.63651 0.0
C53 C 0.46863 0.51849 0.67432 0.0
C54 C 0.46296 0.55461 0.68696 0.0
C55 C 0.4492 0.57678 0.66122 0.0
C56 C 0.45136 0.45691 0.62623 0.0
C57 C 0.49451 0.4538 0.6238 0.0
C58 C 0.51696 0.46142 0.58887 0.0
C59 C 0.54874 0.44671 0.58265 0.0
C60 C 0.55768 0.42497 0.61222 0.0
C61 C 0.54077 0.42272 0.64854 0.0
C62 C 0.50819 0.43639 0.65424 0.0
H63 H 0.93811 0.41043 0.74391 0.0
H64 H 1.01132 0.46724 0.84865 0.0
H65 H 0.86702 0.42048 0.84015 0.0
H66 H 1.01144 0.41987 0.75094 0.0
H67 H 1.02811 0.41827 0.79813 0.0
H68 H 0.04946 0.49108 0.71478 0.0
H69 H 0.18773 0.58321 0.75219 0.0
H70 H 0.09047 0.48534 0.82906 0.0
C71 C 0.93909 0.42261 0.77247 0.0
C72 C 0.89788 0.41417 0.78935 0.0
C73 C 0.98052 0.44221 0.79346 0.0
C74 C 0.98054 0.45497 0.8314 0.0
C75 C 0.93985 0.44852 0.84796 0.0
C76 C 0.89906 0.42888 0.82651 0.0
C77 C 1.02075 0.43908 0.77823 0.0
C78 C 0.06429 0.48449 0.77314 0.0
C79 C 0.07481 0.50516 0.73744 0.0
C80 C 0.11907 0.54172 0.73012 0.0
C81 C 0.15272 0.55752 0.75879 0.0
C82 C 0.14314 0.53711 0.79438 0.0
C83 C 0.09819 0.50179 0.80183 0.0
H84 H 0.66045 0.09578 0.0091 0.0
H85 H 0.58773 0.03352 0.90531 0.0
H86 H 0.6327 0.17387 0.92944 0.0
H87 H 0.65531 0.02597 -0.01374 0.0
H88 H 0.63426 1.00591 0.93963 0.0
H89 H 0.59652 1.01023 0.03855 0.0
H90 H 0.47933 0.87543 0.02988 0.0
H91 H 0.56392 0.93574 0.93301 0.0
C92 C 0.64397 0.09753 0.98327 0.0
C93 C 0.6468 0.1389 0.9732 0.0
C94 C 0.62231 0.05917 0.95898 0.0
C95 C 0.60277 0.06231 0.92477 0.0
C96 C 0.60568 0.10345 0.9143 0.0
C97 C 0.6273 0.14122 0.9388 0.0
C98 C 0.62617 1.01745 0.96649 0.0
C99 C 0.58277 0.979 0.98298 0.0
C100 C 0.57347 0.98074 0.02146 0.0
C101 C 0.53638 0.94321 0.03846 0.0
C102 C 0.50754 0.90472 0.01648 0.0
C103 C 0.51814 0.90076 0.97899 0.0
C104 C 0.55497 0.93867 0.96182 0.0
H105 H 0.64283 0.54841 0.08193 0.0
H106 H 0.61065 0.58092 0.19103 0.0
H107 H 0.64101 0.47324 0.1798 0.0
H108 H 0.64826 0.62054 0.09171 0.0
H109 H 0.65408 0.64069 0.139 0.0
H110 H 0.57121 0.58057 0.06044 0.0
H111 H 0.48536 0.63374 0.09619 0.0
H112 H 0.59115 0.64379 0.17015 0.0
C113 C 0.63602 0.54076 0.11165 0.0
C114 C 0.64065 0.50524 0.12746 0.0
C115 C 0.62555 0.56844 0.13454 0.0
C116 C 0.61778 0.55921 0.1732 0.0
C117 C 0.62247 0.52423 0.18937 0.0
C118 C 0.63387 0.49765 0.16644 0.0
C119 C 0.63088 0.61234 0.11955 0.0
C120 C 0.58579 0.61164 0.11581 0.0
C121 C 0.56066 0.59636 0.08174 0.0
C122 C 0.52438 0.60442 0.07421 0.0
C123 C 0.51136 0.62475 0.1024 0.0
C124 C 0.53377 0.63745 0.13751 0.0
C125 C 0.57166 0.63147 0.14399 0.0
Mn126 Mn 0.65445 0.41683 0.38925 0.0
Mn127 Mn 0.7014 0.52718 0.41724 0.0
C128 C 0.62091 0.43767 0.43619 0.0
C129 C 0.64025 0.34213 0.39306 0.0
C130 C 0.64868 0.49031 0.34393 0.0
O131 O 0.72088 0.44525 0.37063 0.0
O132 O 0.74791 0.51753 0.39132 0.0
C133 C 0.77084 0.53582 0.47354 0.0
N134 N 0.73238 0.53776 0.46488 0.0
C135 C 0.7315 0.56661 0.52697 0.0
C136 C 0.77119 0.56506 0.53649 0.0
C137 C 0.79082 0.54943 0.50969 0.0
C138 C 0.71334 0.55297 0.4904 0.0
H139 H 0.78638 0.52434 0.45292 0.0
C140 C 0.75325 0.48688 0.37471 0.0
O141 O 0.63274 0.35769 0.36218 0.0
O142 O 0.65991 0.37111 0.42075 0.0
N143 N 0.6595 0.54003 0.44326 0.0
C144 C 0.62103 0.53902 0.42968 0.0
C145 C 0.59592 0.55144 0.45357 0.0
C146 C 0.61089 0.56522 0.49099 0.0
C147 C 0.65094 0.56658 0.50416 0.0
C148 C 0.67442 0.55361 0.47911 0.0
H149 H 0.60938 0.52841 0.40095 0.0
O150 O 0.5963 0.40105 0.4161 0.0
O151 O 0.66413 0.46169 0.42771 0.0
O152 O 0.64003 0.44968 0.34834 0.0
O153 O 0.67094 0.5219 0.36819 0.0
C154 C 0.6683 0.57997 0.54123 0.0
C155 C 0.70872 0.58027 0.55255 0.0
H156 H 0.78654 0.57524 0.56442 0.0
H157 H 0.82135 0.54798 0.51687 0.0
H158 H 0.56506 0.55033 0.4432 0.0
H159 H 0.59135 0.57463 0.50937 0.0
H160 H 0.65081 0.59005 0.56127 0.0
H161 H 0.72171 0.59059 0.58113 0.0
Mn162 Mn 0.28626 0.68692 0.54421 0.0
Mn163 Mn 0.22731 0.57902 0.51005 0.0
C164 C 0.2299 0.66643 0.49729 0.0
C165 C 0.34927 0.7612 0.54255 0.0
C166 C 0.20712 0.60734 0.58575 0.0
O167 O 0.32566 0.65984 0.5623 0.0
O168 O 0.28501 0.59071 0.53482 0.0
C169 C 0.29381 0.59041 0.4508 0.0
N170 N 0.25023 0.57843 0.46093 0.0
C171 C 0.22321 0.55937 0.39666 0.0
C172 C 0.26772 0.57117 0.38555 0.0
C173 C 0.30323 0.58704 0.41272 0.0
C174 C 0.21609 0.56423 0.4349 0.0
H175 H 0.32118 0.60254 0.47161 0.0
C176 C 0.3193 0.6202 0.5544 0.0
O177 O 0.32479 0.74543 0.57273 0.0
O178 O 0.33822 0.73357 0.51387 0.0
N179 N 0.17046 0.56226 0.48477 0.0
C180 C 0.12927 0.55136 0.50028 0.0
C181 C 0.08992 0.53409 0.47702 0.0
C182 C 0.09314 0.52744 0.43821 0.0
C183 C 0.13567 0.53788 0.42304 0.0
C184 C 0.17364 0.5548 0.44763 0.0
H185 H 0.1264 0.55567 0.53019 0.0
O186 O 0.24294 0.70275 0.51778 0.0
O187 O 0.25083 0.64409 0.50447 0.0
O188 O 0.23737 0.64948 0.58326 0.0
O189 O 0.20109 0.57773 0.56037 0.0
C190 C 0.14184 0.53199 0.38452 0.0
C191 C 0.18563 0.54292 0.37133 0.0
H192 H 0.27505 0.56826 0.35627 0.0
H193 H 0.33773 0.59645 0.40433 0.0
H194 H 0.05715 0.52577 0.48901 0.0
H195 H 0.06276 0.51426 0.42035 0.0
H196 H 0.11319 0.51928 0.36477 0.0
H197 H 0.18995 0.53836 0.34166 0.0
Mn198 Mn 0.6137 0.25158 0.72236 0.0
Mn199 Mn 0.66098 0.18968 0.69231 0.0
C200 C 0.57965 0.19836 0.67398 0.0
C201 C 0.6031 0.31413 0.71861 0.0
C202 C 0.60959 0.17229 0.76595 0.0
O203 O 0.68017 0.28899 0.74193 0.0
O204 O 0.70831 0.24636 0.71781 0.0
C205 C 0.72538 0.25127 0.63483 0.0
N206 N 0.68925 0.20991 0.64425 0.0
C207 C 0.68403 0.18085 0.58111 0.0
C208 C 0.72125 0.2231 0.57077 0.0
C209 C 0.74198 0.25845 0.59775 0.0
C210 C 0.66935 0.17549 0.61861 0.0
H211 H 0.74137 0.27858 0.65544 0.0
C212 C 0.71332 0.28149 0.7358 0.0
O213 O 0.5932 0.2902 0.74912 0.0
O214 O 0.62134 0.30333 0.69122 0.0
N215 N 0.6182 0.1346 0.66638 0.0
C216 C 0.5798 0.0977 0.67991 0.0
C217 C 0.55325 0.06033 0.6558 0.0
C218 C 0.56652 0.06122 0.61814 0.0
C219 C 0.60624 0.09953 0.60489 0.0
C220 C 0.63148 0.13567 0.63027 0.0
H221 H 0.56928 0.09702 0.70875 0.0
O222 O 0.55521 0.21027 0.69402 0.0
O223 O 0.62272 0.21707 0.68347 0.0
O224 O 0.59909 0.2032 0.7623 0.0
O225 O 0.63291 0.16498 0.74157 0.0
C226 C 0.62099 0.10382 0.56722 0.0
C227 C 0.65994 0.14439 0.55536 0.0
H228 H 0.73381 0.22896 0.54209 0.0
H229 H 0.77058 0.29121 0.58994 0.0
H230 H 0.52247 0.03102 0.66616 0.0
H231 H 0.54567 0.03253 0.59953 0.0
H232 H 0.60211 0.07646 0.54694 0.0
H233 H 0.67042 0.14761 0.52616 0.0
Mn234 Mn 0.41028 0.64558 0.8953 0.0
Mn235 Mn 0.36253 0.53207 0.90698 0.0
C236 C 0.44477 0.61671 0.93406 0.0
C237 C 0.4243 0.71731 0.91421 0.0
C238 C 0.41746 0.58131 0.83833 0.0
O239 O 0.3444 0.62191 0.87677 0.0
O240 O 0.31733 0.54696 0.88486 0.0
C241 C 0.29498 0.51964 0.96563 0.0
N242 N 0.33098 0.51511 0.95402 0.0
C243 C 0.33218 0.48012 0.01257 0.0
C244 C 0.29494 0.48416 0.02505 0.0
C245 C 0.27629 0.50404 0.00148 0.0
C246 C 0.34898 0.49573 0.97636 0.0
H247 H 0.28068 0.53512 0.94771 0.0
C248 C 0.31209 0.58024 0.87471 0.0
O249 O 0.43158 0.70971 0.87966 0.0
O250 O 0.40455 0.68237 0.93619 0.0
N251 N 0.40247 0.5133 0.92872 0.0
C252 C 0.44067 0.51542 0.91372 0.0
C253 C 0.46483 0.49898 0.93454 0.0
C254 C 0.44931 0.48026 0.97038 0.0
C255 C 0.40969 0.47809 -0.01492 0.0
C256 C 0.38682 0.49471 0.96293 0.0
H257 H 0.45294 0.53009 0.8863 0.0
O258 O 0.46877 0.65661 0.91921 0.0
O259 O 0.40117 0.59455 0.92566 0.0
O260 O 0.42441 0.62055 0.8478 0.0
O261 O 0.39489 0.54597 0.85849 0.0
C262 C 0.39277 0.46132 0.02129 0.0
C263 C 0.35403 0.46231 0.03501 0.0
H264 H 0.28072 0.47259 0.05284 0.0
H265 H 0.24771 0.5075 0.01099 0.0
H266 H 0.4955 0.50098 0.92308 0.0
H267 H 0.46834 0.46809 -0.01347 0.0
H268 H 0.40978 0.44831 0.03908 0.0
H269 H 0.34181 0.45 0.06314 0.0
Mn270 Mn 0.80597 0.4156 0.05487 0.0
Mn271 Mn 0.8728 0.36975 0.07355 0.0
C272 C 0.8668 0.45089 0.09723 0.0
C273 C 0.74338 0.42576 0.06597 0.0
C274 C 0.88094 0.42196 0.00228 0.0
O275 O 0.76626 0.34996 0.036 0.0
O276 O 0.81294 0.32256 0.05114 0.0
C277 C 0.81727 0.30549 0.13347 0.0
N278 N 0.85791 0.34108 0.12173 0.0
C279 C 0.89392 0.34607 0.18192 0.0
C280 C 0.85254 0.30926 0.19455 0.0
C281 C 0.81405 0.28893 0.17023 0.0
C282 C 0.89526 0.36072 0.14482 0.0
H283 H 0.78752 0.28991 0.11495 0.0
C284 C 0.775 0.31745 0.03791 0.0
O285 O 0.76362 0.43496 0.03355 0.0
O286 O 0.7578 0.40833 0.09138 0.0
N287 N 0.93119 0.41164 0.0959 0.0
C288 C 0.96707 0.44942 0.08059 0.0
C289 C 1.00746 0.47527 0.10203 0.0
C290 C 1.01065 0.46188 0.13886 0.0
C291 C 0.97337 0.42273 0.15392 0.0
C292 C 0.93411 0.39813 0.13113 0.0
H293 H 0.96467 0.46007 0.05241 0.0
O294 O 0.8508 0.47392 0.08042 0.0
O295 O 0.84668 0.40768 0.08882 0.0
O296 O 0.84921 0.43046 0.01032 0.0
O297 O 0.89207 0.39892 0.0237 0.0
C298 C 0.97313 0.40795 0.19106 0.0
C299 C 0.93345 0.36963 0.20503 0.0
H300 H 0.84976 0.29669 0.22301 0.0
H301 H 0.78192 0.26069 0.17985 0.0
H302 H 0.03597 0.50559 0.09029 0.0
H303 H 0.04167 0.48221 0.15546 0.0
H304 H 1.00298 0.42632 0.20935 0.0
H305 H 0.93342 0.35909 0.23384 0.0
Mn306 Mn 0.41514 0.78863 0.22576 0.0
Mn307 Mn 0.52377 0.84509 0.26109 0.0
C308 C 0.4354 0.84364 0.27234 0.0
C309 C 0.34015 0.72657 0.22556 0.0
C310 C 0.49649 0.86824 0.18639 0.0
O311 O 0.44209 0.74984 0.20765 0.0
O312 O 0.51244 0.78853 0.23471 0.0
C313 C 0.5098 0.77657 0.31869 0.0
N314 N 0.52262 0.82027 0.30969 0.0
C315 C 0.53638 0.84347 0.3751 0.0
C316 C 0.52372 0.7988 0.38503 0.0
C317 C 0.51023 0.76519 0.3567 0.0
C318 C 0.53496 0.8527 0.33678 0.0
H319 H 0.49902 0.75052 0.29705 0.0
C320 C 0.48168 0.75506 0.21517 0.0
O321 O 0.35708 0.75171 0.19595 0.0
O322 O 0.36709 0.73653 0.25482 0.0
N323 N 0.54049 0.90054 0.28783 0.0
C324 C 0.553 0.94226 0.27341 0.0
C325 C 0.56875 0.98001 0.29792 0.0
C326 C 0.57199 0.9746 0.33692 0.0
C327 C 0.56003 0.93159 0.351 0.0
C328 C 0.5453 0.89541 0.32513 0.0
H329 H 0.55098 0.94673 0.24343 0.0
O330 O 0.39891 0.83108 0.2517 0.0
O331 O 0.45784 0.82247 0.26601 0.0
O332 O 0.45397 0.83806 0.18811 0.0
O333 O 0.52633 0.87323 0.21147 0.0
C334 C 0.56215 0.92321 0.38968 0.0
C335 C 0.54992 0.87907 0.40176 0.0
H336 H 0.52393 0.78988 0.41432 0.0
H337 H 0.50007 0.73056 0.36415 0.0
H338 H 0.57824 1.01316 0.28679 0.0
H339 H 0.58367 1.00368 0.35578 0.0
H340 H 0.57282 0.95038 0.4104 0.0
H341 H 0.5512 0.87293 0.4316 0.0
C342 C 0.21295 0.6811 0.23336 0.0
C343 C 0.198 0.64046 0.25358 0.0
C344 C 0.2584 0.70676 0.22075 0.0
C345 C 0.29061 0.69304 0.22841 0.0
H346 H 0.19105 0.69582 0.23071 0.0
H347 H 0.26945 0.73967 0.20825 0.0
S348 S 0.26604 0.58361 0.27025 0.0
N349 N 0.21652 0.58261 0.27207 0.0
N350 N 0.30278 0.6326 0.25077 0.0
C351 C 0.27498 0.6502 0.24449 0.0
C352 C 0.22834 0.62332 0.2562 0.0
C353 C 0.61678 0.23175 0.43751 0.0
C354 C 0.57005 0.20182 0.42811 0.0
C355 C 0.64062 0.27643 0.42396 0.0
C356 C 0.61932 0.29246 0.39927 0.0
H357 H 0.63391 0.22177 0.45813 0.0
H358 H 0.67515 0.29928 0.43446 0.0
S359 S 0.50019 0.22581 0.36099 0.0
N360 N 0.50508 0.19016 0.38952 0.0
N361 N 0.55063 0.27331 0.36225 0.0
C362 C 0.57434 0.26144 0.38633 0.0
C363 C 0.54957 0.2162 0.40102 0.0
C364 C 0.42457 0.62388 0.59993 0.0
C365 C 0.4122 0.57756 0.60057 0.0
C366 C 0.39496 0.63776 0.58449 0.0
C367 C 0.35176 0.60583 0.56905 0.0
H368 H 0.45688 0.64949 0.61249 0.0
H369 H 0.40576 0.67365 0.5852 0.0
S370 S 0.30276 0.48006 0.56442 0.0
N371 N 0.35351 0.49985 0.58485 0.0
N372 N 0.29852 0.52532 0.5553 0.0
C373 C 0.33959 0.55942 0.56874 0.0
C374 C 0.3696 0.54547 0.58455 0.0
C375 C 0.81679 0.39236 0.77152 0.0
C376 C 0.85244 0.3821 0.77185 0.0
C377 C 0.77188 0.35978 0.76004 0.0
C378 C 0.76082 0.31553 0.7487 0.0
H379 H 0.82357 0.42567 0.78076 0.0
H380 H 0.74571 0.36939 0.76014 0.0
S381 S 0.84171 0.27096 0.74672 0.0
N382 N 0.87342 0.32425 0.76129 0.0
N383 N 0.78977 0.26319 0.7396 0.0
C384 C 0.79644 0.30501 0.74895 0.0
C385 C 0.84199 0.33821 0.76049 0.0
C386 C 0.47485 0.84589 0.92501 0.0
C387 C 0.49543 0.85452 0.96118 0.0
C388 C 0.45122 0.80128 0.90967 0.0
C389 C 0.4468 0.76403 0.93038 0.0
H390 H 0.47652 0.87358 0.90877 0.0
H391 H 0.43593 0.79584 0.88172 0.0
S392 S 0.50051 0.76968 0.0237 0.0
N393 N 0.5146 0.82275 0.015 0.0
N394 N 0.46886 0.73956 -0.01281 0.0
C395 C 0.46842 0.77262 0.96601 0.0
C396 C 0.49312 0.81769 0.98111 0.0
C397 C 0.69705 0.50542 0.08105 0.0
C398 C 0.65971 0.48083 0.10539 0.0
C399 C 0.72188 0.48596 0.06617 0.0
C400 C 0.71101 0.44154 0.07569 0.0
H401 H 0.70918 0.54092 0.07525 0.0
H402 H 0.75175 0.50698 0.04918 0.0
S403 S 0.61168 0.35964 0.13204 0.0
N404 N 0.6086 0.40665 0.13283 0.0
N405 N 0.65749 0.37153 0.10692 0.0
C406 C 0.67221 0.41553 0.09784 0.0
C407 C 0.64599 0.43477 0.11209 0.0
C408 C 0.39633 0.88616 0.52514 0.0
C409 C 0.44063 0.90045 0.51102 0.0
C410 C 0.36836 0.84189 0.53885 0.0
C411 C 0.38334 0.81009 0.53849 0.0
H412 H 0.38111 0.90747 0.52208 0.0
H413 H 0.3333 0.83129 0.54652 0.0
S414 S 0.49984 0.83312 0.5143 0.0
N415 N 0.50153 0.8818 0.50637 0.0
N416 N 0.44733 0.79752 0.52909 0.0
C417 C 0.42888 0.82503 0.5284 0.0
C418 C 0.45804 0.87061 0.51575 0.0
C419 C 0.60365 0.41745 0.68097 0.0
C420 C 0.55629 0.40256 0.67829 0.0
C421 C 0.61926 0.39008 0.69705 0.0
C422 C 0.58829 0.34771 0.71243 0.0
H423 H 0.62847 0.44854 0.6672 0.0
H424 H 0.65544 0.40085 0.6953 0.0
S425 S 0.46188 0.29622 0.71823 0.0
N426 N 0.47917 0.34473 0.69602 0.0
N427 N 0.5089 0.29433 0.72825 0.0
C428 C 0.54151 0.3347 0.71389 0.0
C429 C 0.52538 0.36205 0.69651 0.0
C430 C 0.21758 0.59316 0.82657 0.0
C431 C 0.18229 0.54774 0.82052 0.0
C432 C 0.25875 0.60355 0.84521 0.0
C433 C 0.26638 0.56891 0.8586 0.0
H434 H 0.21395 0.62092 0.81565 0.0
H435 H 0.28527 0.63901 0.84808 0.0
S436 S 0.18338 0.44419 0.85182 0.0
N437 N 0.1571 0.46787 0.83047 0.0
N438 N 0.23317 0.48696 0.86653 0.0
C439 C 0.23024 0.52331 0.85435 0.0
C440 C 0.18858 0.51285 0.83513 0.0
C441 C 0.72175 0.19423 0.00418 0.0
C442 C 0.6763 0.18193 -0.00522 0.0
C443 C 0.75289 0.23771 0.01857 0.0
C444 C 0.74006 0.27099 0.02409 0.0
H445 H 0.73407 0.1708 -0.00123 0.0
H446 H 0.78777 0.24557 0.02438 0.0
S447 S 0.62317 0.2538 0.00801 0.0
N448 N 0.61862 0.20489 -0.00491 0.0
N449 N 0.67712 0.28682 0.02183 0.0
C450 C 0.69404 0.25841 0.01629 0.0
C451 C 0.66224 0.21393 0.00177 0.0
C452 C 0.55377 0.70664 0.17679 0.0
C453 C 0.52059 0.66285 0.16419 0.0
C454 C 0.5408 0.73556 0.19432 0.0
C455 C 0.49412 0.72197 0.19964 0.0
H456 H 0.58983 0.7197 0.17108 0.0
H457 H 0.56763 0.76964 0.20218 0.0
S458 S 0.39441 0.60785 0.17695 0.0
N459 N 0.43946 0.60512 0.16234 0.0
N460 N 0.41503 0.65969 0.19469 0.0
C461 C 0.46079 0.67722 0.18923 0.0
C462 C 0.47405 0.64762 0.17176 0.0
C463 C 0.85519 0.48253 0.33312 0.0
C464 C 0.88743 0.52874 0.32659 0.0
C465 C 0.81224 0.4692 0.34912 0.0
C466 C 0.7998 0.50158 0.35941 0.0
H467 H 0.86263 0.45628 0.32446 0.0
H468 H 0.78839 0.43319 0.35285 0.0
S469 S 0.87267 0.6273 0.34898 0.0
N470 N 0.90439 0.6069 0.33223 0.0
N471 N 0.82448 0.58255 0.36283 0.0
C472 C 0.83261 0.54816 0.35431 0.0
C473 C 0.87621 0.56156 0.33789 0.0
C474 C 0.1411 0.63769 0.41906 0.0
C475 C 0.16802 0.64727 0.38626 0.0
C476 C 0.16125 0.64618 0.45543 0.0
C477 C 0.20845 0.6623 0.46004 0.0
H478 H 0.10411 0.62186 0.41688 0.0
H479 H 0.13951 0.63781 0.47994 0.0
S480 S 0.29584 0.70437 0.3852 0.0
N481 N 0.24666 0.68581 0.36247 0.0
N482 N 0.28257 0.69456 0.43019 0.0
C483 C 0.23607 0.67514 0.42807 0.0
C484 C 0.21632 0.66932 0.39136 0.0
C485 C 0.58241 0.18377 0.56924 0.0
C486 C 0.53783 0.14824 0.55965 0.0
C487 C 0.59436 0.2002 0.60602 0.0
C488 C 0.56412 0.17921 0.63582 0.0
H489 H 0.60879 0.19984 0.54813 0.0
H490 H 0.62811 0.22956 0.61113 0.0
S491 S 0.44317 0.08588 0.62783 0.0
N492 N 0.46182 0.09452 0.58393 0.0
N493 N 0.48717 0.1223 0.65436 0.0
C494 C 0.51961 0.14344 0.62753 0.0
C495 C 0.50614 0.12807 0.58931 0.0
C496 C 0.43065 0.52502 0.75031 0.0
C497 C 0.46005 0.56222 0.72783 0.0
C498 C 0.41852 0.53161 0.78649 0.0
C499 C 0.43505 0.57569 0.80158 0.0
H500 H 0.41458 0.49059 0.73906 0.0
H501 H 0.3943 0.50178 0.80198 0.0
S502 S 0.51885 0.68412 0.75599 0.0
N503 N 0.50968 0.64426 0.72451 0.0
N504 N 0.48685 0.65703 0.79263 0.0
C505 C 0.46692 0.61312 0.78026 0.0
C506 C 0.4794 0.60628 0.74339 0.0
C507 C 0.94574 0.42592 0.91362 0.0
C508 C 0.93623 0.45272 0.88929 0.0
C509 C 0.93001 0.41827 0.95091 0.0
C510 C 0.904 0.437 0.96516 0.0
H511 H 0.9624 0.40794 0.90298 0.0
H512 H 0.93602 0.39531 0.96785 0.0
S513 S 0.87781 0.51685 0.91437 0.0
N514 N 0.90511 0.50309 0.88314 0.0
N515 N 0.87567 0.48925 0.95322 0.0
C516 C 0.89793 0.4672 0.94194 0.0
C517 C 0.91402 0.47492 0.90403 0.0
C518 C 0.48878 0.92322 0.09622 0.0
C519 C 0.53201 0.93859 0.07998 0.0
C520 C 0.47866 0.90314 0.13186 0.0
C521 C 0.51138 0.89766 0.15263 0.0
H522 H 0.46153 0.92356 0.08003 0.0
H523 H 0.44406 0.88964 0.1423 0.0
S524 S 0.63166 0.93786 0.12446 0.0
N525 N 0.60928 0.95132 0.08865 0.0
N526 N 0.5905 0.91408 0.15603 0.0
C527 C 0.55608 0.91674 0.13818 0.0
C528 C 0.56634 0.93714 0.10173 0.0
C529 C 0.59683 0.47463 0.24602 0.0
C530 C 0.62185 0.51851 0.23083 0.0
C531 C 0.60352 0.46638 0.28352 0.0
C532 C 0.63558 0.50172 0.30728 0.0
H533 H 0.57359 0.44604 0.22818 0.0
H534 H 0.58488 0.4316 0.29337 0.0
S535 S 0.70667 0.62367 0.28183 0.0
N536 N 0.67746 0.59834 0.24287 0.0
N537 N 0.68973 0.58316 0.31362 0.0
C538 C 0.65838 0.54641 0.29317 0.0
C539 C 0.65161 0.55473 0.25485 0.0
C540 C 0.46194 0.93934 0.34182 0.0
C541 C 0.45394 0.9174 0.37706 0.0
C542 C 0.45451 0.9152 0.30765 0.0
C543 C 0.44152 0.869 0.30759 0.0
H544 H 0.4751 0.97561 0.3403 0.0
H545 H 0.46093 0.9332 0.28122 0.0
S546 S 0.40801 0.7928 0.38973 0.0
N547 N 0.42248 0.84315 0.40771 0.0
N548 N 0.41607 0.80063 0.34392 0.0
C549 C 0.43166 0.84607 0.34183 0.0
C550 C 0.43624 0.86959 0.37643 0.0
C551 C 0.54393 0.4429 0.51134 0.0
C552 C 0.56973 0.44974 0.54485 0.0
C553 C 0.56081 0.4397 0.47598 0.0
C554 C 0.60394 0.44309 0.47289 0.0
H555 H 0.50971 0.43824 0.51237 0.0
H556 H 0.53987 0.43413 0.45094 0.0
S557 S 0.6835 0.45663 0.55121 0.0
N558 N 0.64196 0.46098 0.57153 0.0
N559 N 0.66971 0.44821 0.50592 0.0
C560 C 0.62953 0.44865 0.50585 0.0
C561 C 0.61361 0.45405 0.54154 0.0
C562 C 0.12902 0.52845 0.66217 0.0
C563 C 0.13353 0.55883 0.69125 0.0
C564 C 0.15131 0.54443 0.62757 0.0
C565 C 0.17909 0.59147 0.62071 0.0
H566 H 0.11036 0.49206 0.66696 0.0
H567 H 0.14825 0.51954 0.60673 0.0
S568 S 0.19587 0.68481 0.68624 0.0
N569 N 0.1633 0.6377 0.70982 0.0
N570 N 0.20509 0.66814 0.64496 0.0
C571 C 0.18118 0.62213 0.64884 0.0
C572 C 0.15848 0.60573 0.68402 0.0
C573 C 0.61542 0.10064 0.8449 0.0
C574 C 0.59502 0.11062 0.87514 0.0
C575 C 0.617 0.1181 0.80892 0.0
C576 C 0.59847 0.14649 0.80181 0.0
H577 H 0.63339 0.08212 0.84964 0.0
H578 H 0.6355 0.1115 0.78722 0.0
S579 S 0.53268 0.17449 0.87007 0.0
N580 N 0.54951 0.14423 0.89462 0.0
N581 N 0.5525 0.17748 0.82701 0.0
C582 C 0.57404 0.15299 0.83105 0.0
C583 C 0.57237 0.13499 0.8677 0.0
C584 C 0.45611 0.58451 0.03324 0.0
C585 C 0.50293 0.59754 0.03603 0.0
C586 C 0.43745 0.59006 -0.0002 0.0
C587 C 0.46357 0.60505 0.96688 0.0
H588 H 0.43433 0.57284 0.05784 0.0
H589 H 0.40277 0.58428 0.00021 0.0
S590 S 0.58624 0.63967 0.95719 0.0
N591 N 0.57483 0.62552 0.00199 0.0
N592 N 0.53756 0.63076 0.93792 0.0
C593 C 0.5094 0.61525 0.96823 0.0
C594 C 0.52936 0.61188 0.00289 0.0
C595 C 0.90669 0.46407 0.19855 0.0
C596 C 0.94046 0.51058 0.20155 0.0
C597 C 0.88366 0.445 0.16448 0.0
C598 C 0.89599 0.47036 0.13121 0.0
H599 H 0.89572 0.44276 0.22332 0.0
H600 H 0.85476 0.41051 0.16455 0.0
S601 S 0.98454 0.59202 0.12199 0.0
N602 N 0.98564 0.58136 0.16731 0.0
N603 N 0.9454 0.54346 0.10233 0.0
C604 C 0.93157 0.51595 0.13292 0.0
C605 C 0.95371 0.53629 0.16813 0.0
loop_
_geom_bond_atom_site_label_1
_geom_bond_atom_site_label_2
_geom_bond_distance
_geom_bond_site_symmetry_2
_ccdc_geom_bond_type
H0 C8 0.930 . S
H1 C11 0.930 . S
H2 C13 0.930 . S
H3 C14 0.970 1_655 S
H4 C14 0.970 . S
H5 C16 0.930 . S
H6 C18 0.930 . S
H7 C20 0.930 . S
C8 H0 0.930 . S
C8 C9 1.382 . S
C8 C10 1.426 . S
C9 C8 1.382 . S
C9 C13 1.389 . S
C10 C8 1.426 . S
C10 C11 1.375 . S
C10 C14 1.532 1_655 S
C11 H1 0.930 . S
C11 C10 1.375 . S
C11 C12 1.416 . S
C12 C11 1.416 . S
C12 C13 1.371 . S
C13 H2 0.930 . S
C13 C9 1.389 . S
C13 C12 1.371 . S
C14 H3 0.970 1_455 S
C14 H4 0.970 . S
C14 C10 1.532 1_455 S
C14 C15 1.499 . S
C15 C14 1.499 . S
C15 C16 1.370 . S
C15 C20 1.415 . S
C16 H5 0.930 . S
C16 C15 1.370 . S
C16 C17 1.407 . S
C17 C16 1.407 . S
C17 C18 1.365 . S
C18 H6 0.930 . S
C18 C17 1.365 . S
C18 C19 1.393 . S
C19 C18 1.393 . S
C19 C20 1.387 . S
C20 H7 0.930 . S
C20 C15 1.415 . S
C20 C19 1.387 . S
H21 C29 0.930 . S
H22 C32 0.930 . S
H23 C34 0.930 . S
H24 C35 0.970 . S
H25 C35 0.970 . S
H26 C37 0.930 . S
H27 C39 0.930 . S
H28 C41 0.930 . S
C29 H21 0.930 . S
C29 C30 1.382 . S
C29 C31 1.426 . S
C30 C29 1.382 . S
C30 C34 1.389 . S
C31 C29 1.426 . S
C31 C32 1.375 . S
C31 C35 1.532 1_565 S
C32 H22 0.930 . S
C32 C31 1.375 . S
C32 C33 1.416 . S
C33 C32 1.416 . S
C33 C34 1.371 . S
C34 H23 0.930 . S
C34 C30 1.389 . S
C34 C33 1.371 . S
C35 H24 0.970 . S
C35 H25 0.970 . S
C35 C31 1.532 1_545 S
C35 C36 1.499 . S
C36 C35 1.499 . S
C36 C37 1.370 . S
C36 C41 1.415 . S
C37 H26 0.930 . S
C37 C36 1.370 . S
C37 C38 1.407 . S
C38 C37 1.407 . S
C38 C39 1.365 . S
C39 H27 0.930 . S
C39 C38 1.365 . S
C39 C40 1.393 . S
C40 C39 1.393 . S
C40 C41 1.387 . S
C41 H28 0.930 . S
C41 C36 1.415 . S
C41 C40 1.387 . S
H42 C50 0.930 . S
H43 C53 0.930 . S
H44 C55 0.930 . S
H45 C56 0.970 . S
H46 C56 0.970 . S
H47 C58 0.930 . S
H48 C60 0.930 . S
H49 C62 0.930 . S
C50 H42 0.930 . S
C50 C51 1.382 . S
C50 C52 1.426 . S
C51 C50 1.382 . S
C51 C55 1.389 . S
C52 C50 1.426 . S
C52 C53 1.375 . S
C52 C56 1.532 . S
C53 H43 0.930 . S
C53 C52 1.375 . S
C53 C54 1.416 . S
C54 C53 1.416 . S
C54 C55 1.371 . S
C55 H44 0.930 . S
C55 C51 1.389 . S
C55 C54 1.371 . S
C56 H45 0.970 . S
C56 H46 0.970 . S
C56 C52 1.532 . S
C56 C57 1.499 . S
C57 C56 1.499 . S
C57 C58 1.370 . S
C57 C62 1.415 . S
C58 H47 0.930 . S
C58 C57 1.370 . S
C58 C59 1.407 . S
C59 C58 1.407 . S
C59 C60 1.365 . S
C60 H48 0.930 . S
C60 C59 1.365 . S
C60 C61 1.393 . S
C61 C60 1.393 . S
C61 C62 1.387 . S
C62 H49 0.930 . S
C62 C57 1.415 . S
C62 C61 1.387 . S
H63 C71 0.930 . S
H64 C74 0.930 . S
H65 C76 0.930 . S
H66 C77 0.970 . S
H67 C77 0.970 . S
H68 C79 0.930 . S
H69 C81 0.930 . S
H70 C83 0.930 . S
C71 H63 0.930 . S
C71 C72 1.382 . S
C71 C73 1.426 . S
C72 C71 1.382 . S
C72 C76 1.389 . S
C73 C71 1.426 . S
C73 C74 1.375 . S
C73 C77 1.532 1_655 S
C74 H64 0.930 . S
C74 C73 1.375 . S
C74 C75 1.416 . S
C75 C74 1.416 . S
C75 C76 1.371 . S
C76 H65 0.930 . S
C76 C72 1.389 . S
C76 C75 1.371 . S
C77 H66 0.970 . S
C77 H67 0.970 . S
C77 C73 1.532 1_455 S
C77 C78 1.499 . S
C78 C77 1.499 . S
C78 C79 1.370 . S
C78 C83 1.415 . S
C79 H68 0.930 . S
C79 C78 1.370 . S
C79 C80 1.407 . S
C80 C79 1.407 . S
C80 C81 1.365 . S
C81 H69 0.930 . S
C81 C80 1.365 . S
C81 C82 1.393 . S
C82 C81 1.393 . S
C82 C83 1.387 . S
C83 H70 0.930 . S
C83 C78 1.415 . S
C83 C82 1.387 . S
H84 C92 0.930 . S
H85 C95 0.930 . S
H86 C97 0.930 . S
H87 C98 0.970 1_554 S
H88 C98 0.970 . S
H89 C100 0.930 . S
H90 C102 0.930 . S
H91 C104 0.930 . S
C92 H84 0.930 . S
C92 C93 1.382 . S
C92 C94 1.426 1_554 S
C93 C92 1.382 . S
C93 C97 1.389 1_554 S
C94 C92 1.426 1_556 S
C94 C95 1.375 . S
C94 C98 1.532 . S
C95 H85 0.930 . S
C95 C94 1.375 . S
C95 C96 1.416 . S
C96 C95 1.416 . S
C96 C97 1.371 . S
C97 H86 0.930 . S
C97 C93 1.389 1_556 S
C97 C96 1.371 . S
C98 H87 0.970 1_556 S
C98 H88 0.970 . S
C98 C94 1.532 . S
C98 C99 1.499 1_546 S
C99 C98 1.499 1_564 S
C99 C100 1.370 . S
C99 C104 1.415 1_554 S
C100 H89 0.930 . S
C100 C99 1.370 . S
C100 C101 1.407 . S
C101 C100 1.407 . S
C101 C102 1.365 . S
C102 H90 0.930 . S
C102 C101 1.365 . S
C102 C103 1.393 1_554 S
C103 C102 1.393 1_556 S
C103 C104 1.387 . S
C104 H91 0.930 . S
C104 C99 1.415 1_556 S
C104 C103 1.387 . S
H105 C113 0.930 . S
H106 C116 0.930 . S
H107 C118 0.930 . S
H108 C119 0.970 . S
H109 C119 0.970 . S
H110 C121 0.930 . S
H111 C123 0.930 . S
H112 C125 0.930 . S
C113 H105 0.930 . S
C113 C114 1.382 . S
C113 C115 1.426 . S
C114 C113 1.382 . S
C114 C118 1.389 . S
C115 C113 1.426 . S
C115 C116 1.375 . S
C115 C119 1.532 . S
C116 H106 0.930 . S
C116 C115 1.375 . S
C116 C117 1.416 . S
C117 C116 1.416 . S
C117 C118 1.371 . S
C118 H107 0.930 . S
C118 C114 1.389 . S
C118 C117 1.371 . S
C119 H108 0.970 . S
C119 H109 0.970 . S
C119 C115 1.532 . S
C119 C120 1.499 . S
C120 C119 1.499 . S
C120 C121 1.370 . S
C120 C125 1.415 . S
C121 H110 0.930 . S
C121 C120 1.370 . S
C121 C122 1.407 . S
C122 C121 1.407 . S
C122 C123 1.365 . S
C123 H111 0.930 . S
C123 C122 1.365 . S
C123 C124 1.393 . S
C124 C123 1.393 . S
C124 C125 1.387 . S
C125 H112 0.930 . S
C125 C120 1.415 . S
C125 C124 1.387 . S
Mn126 O131 2.095 . S
Mn126 O141 2.162 . S
Mn126 O142 2.297 . S
Mn126 O150 2.385 . S
Mn126 O151 2.209 . S
Mn126 O152 2.094 . S
Mn127 O132 2.121 . S
Mn127 N134 2.257 . S
Mn127 N143 2.282 . S
Mn127 O151 2.215 . S
Mn127 O153 2.117 . S
C128 O150 1.234 . S
C128 O151 1.283 . S
C129 O141 1.281 . S
C129 O142 1.236 . S
C130 O152 1.240 . S
C130 O153 1.264 . S
O131 Mn126 2.095 . S
O131 C140 1.250 . S
O132 Mn127 2.121 . S
O132 C140 1.258 . S
C133 N134 1.326 . S
C133 C137 1.460 . S
C133 H139 0.929 . S
N134 Mn127 2.257 . S
N134 C133 1.326 . S
N134 C138 1.362 . S
C135 C136 1.258 . S
C135 C138 1.431 . S
C135 C155 1.449 . S
C136 C135 1.258 . S
C136 C137 1.477 . S
C136 H156 0.931 . S
C137 C133 1.460 . S
C137 C136 1.477 . S
C137 H157 0.930 . S
C138 N134 1.362 . S
C138 C135 1.431 . S
C138 C148 1.476 . S
H139 C133 0.929 . S
C140 O131 1.250 . S
C140 O132 1.258 . S
O141 Mn126 2.162 . S
O141 C129 1.281 . S
O142 Mn126 2.297 . S
O142 C129 1.236 . S
N143 Mn127 2.282 . S
N143 C144 1.328 . S
N143 C148 1.318 . S
C144 N143 1.328 . S
C144 C145 1.457 . S
C144 H149 0.929 . S
C145 C144 1.457 . S
C145 C146 1.291 . S
C145 H158 0.931 . S
C146 C145 1.291 . S
C146 C147 1.373 . S
C146 H159 0.929 . S
C147 C146 1.373 . S
C147 C148 1.396 . S
C147 C154 1.403 . S
C148 C138 1.476 . S
C148 N143 1.318 . S
C148 C147 1.396 . S
H149 C144 0.929 . S
O150 Mn126 2.385 . S
O150 C128 1.234 . S
O151 Mn126 2.209 . S
O151 Mn127 2.215 . S
O151 C128 1.283 . S
O152 Mn126 2.094 . S
O152 C130 1.240 . S
O153 Mn127 2.117 . S
O153 C130 1.264 . S
C154 C147 1.403 . S
C154 C155 1.399 . S
C154 H160 0.929 . S
C155 C135 1.449 . S
C155 C154 1.399 . S
C155 H161 0.930 . S
H156 C136 0.931 . S
H157 C137 0.930 . S
H158 C145 0.931 . S
H159 C146 0.929 . S
H160 C154 0.929 . S
H161 C155 0.930 . S
Mn162 O167 2.095 . S
Mn162 O177 2.162 . S
Mn162 O178 2.297 . S
Mn162 O186 2.385 . S
Mn162 O187 2.209 . S
Mn162 O188 2.094 . S
Mn163 O168 2.121 . S
Mn163 N170 2.257 . S
Mn163 N179 2.282 . S
Mn163 O187 2.215 . S
Mn163 O189 2.117 . S
C164 O186 1.234 . S
C164 O187 1.283 . S
C165 O177 1.281 . S
C165 O178 1.236 . S
C166 O188 1.240 . S
C166 O189 1.264 . S
O167 Mn162 2.095 . S
O167 C176 1.250 . S
O168 Mn163 2.121 . S
O168 C176 1.258 . S
C169 N170 1.326 . S
C169 C173 1.460 . S
C169 H175 0.929 . S
N170 Mn163 2.257 . S
N170 C169 1.326 . S
N170 C174 1.362 . S
C171 C172 1.258 . S
C171 C174 1.431 . S
C171 C191 1.449 . S
C172 C171 1.258 . S
C172 C173 1.477 . S
C172 H192 0.931 . S
C173 C169 1.460 . S
C173 C172 1.477 . S
C173 H193 0.930 . S
C174 N170 1.362 . S
C174 C171 1.431 . S
C174 C184 1.476 . S
H175 C169 0.929 . S
C176 O167 1.250 . S
C176 O168 1.258 . S
O177 Mn162 2.162 . S
O177 C165 1.281 . S
O178 Mn162 2.297 . S
O178 C165 1.236 . S
N179 Mn163 2.282 . S
N179 C180 1.328 . S
N179 C184 1.318 . S
C180 N179 1.328 . S
C180 C181 1.457 . S
C180 H185 0.929 . S
C181 C180 1.457 . S
C181 C182 1.291 . S
C181 H194 0.931 . S
C182 C181 1.291 . S
C182 C183 1.373 . S
C182 H195 0.929 . S
C183 C182 1.373 . S
C183 C184 1.396 . S
C183 C190 1.403 . S
C184 C174 1.476 . S
C184 N179 1.318 . S
C184 C183 1.396 . S
H185 C180 0.929 . S
O186 Mn162 2.385 . S
O186 C164 1.234 . S
O187 Mn162 2.209 . S
O187 Mn163 2.215 . S
O187 C164 1.283 . S
O188 Mn162 2.094 . S
O188 C166 1.240 . S
O189 Mn163 2.117 . S
O189 C166 1.264 . S
C190 C183 1.403 . S
C190 C191 1.399 . S
C190 H196 0.929 . S
C191 C171 1.449 . S
C191 C190 1.399 . S
C191 H197 0.930 . S
H192 C172 0.931 . S
H193 C173 0.930 . S
H194 C181 0.931 . S
H195 C182 0.929 . S
H196 C190 0.929 . S
H197 C191 0.930 . S
Mn198 O203 2.095 . S
Mn198 O213 2.162 . S
Mn198 O214 2.297 . S
Mn198 O222 2.385 . S
Mn198 O223 2.209 . S
Mn198 O224 2.094 . S
Mn199 O204 2.121 . S
Mn199 N206 2.257 . S
Mn199 N215 2.282 . S
Mn199 O223 2.215 . S
Mn199 O225 2.117 . S
C200 O222 1.234 . S
C200 O223 1.283 . S
C201 O213 1.281 . S
C201 O214 1.236 . S
C202 O224 1.240 . S
C202 O225 1.264 . S
O203 Mn198 2.095 . S
O203 C212 1.250 . S
O204 Mn199 2.121 . S
O204 C212 1.258 . S
C205 N206 1.326 . S
C205 C209 1.460 . S
C205 H211 0.929 . S
N206 Mn199 2.257 . S
N206 C205 1.326 . S
N206 C210 1.362 . S
C207 C208 1.258 . S
C207 C210 1.431 . S
C207 C227 1.449 . S
C208 C207 1.258 . S
C208 C209 1.477 . S
C208 H228 0.931 . S
C209 C205 1.460 . S
C209 C208 1.477 . S
C209 H229 0.930 . S
C210 N206 1.362 . S
C210 C207 1.431 . S
C210 C220 1.476 . S
H211 C205 0.929 . S
C212 O203 1.250 . S
C212 O204 1.258 . S
O213 Mn198 2.162 . S
O213 C201 1.281 . S
O214 Mn198 2.297 . S
O214 C201 1.236 . S
N215 Mn199 2.282 . S
N215 C216 1.328 . S
N215 C220 1.318 . S
C216 N215 1.328 . S
C216 C217 1.457 . S
C216 H221 0.929 . S
C217 C216 1.457 . S
C217 C218 1.291 . S
C217 H230 0.931 . S
C218 C217 1.291 . S
C218 C219 1.373 . S
C218 H231 0.929 . S
C219 C218 1.373 . S
C219 C220 1.396 . S
C219 C226 1.403 . S
C220 C210 1.476 . S
C220 N215 1.318 . S
C220 C219 1.396 . S
H221 C216 0.929 . S
O222 Mn198 2.385 . S
O222 C200 1.234 . S
O223 Mn198 2.209 . S
O223 Mn199 2.215 . S
O223 C200 1.283 . S
O224 Mn198 2.094 . S
O224 C202 1.240 . S
O225 Mn199 2.117 . S
O225 C202 1.264 . S
C226 C219 1.403 . S
C226 C227 1.399 . S
C226 H232 0.929 . S
C227 C207 1.449 . S
C227 C226 1.399 . S
C227 H233 0.930 . S
H228 C208 0.931 . S
H229 C209 0.930 . S
H230 C217 0.931 . S
H231 C218 0.929 . S
H232 C226 0.929 . S
H233 C227 0.930 . S
Mn234 O239 2.095 . S
Mn234 O249 2.162 . S
Mn234 O250 2.297 . S
Mn234 O258 2.385 . S
Mn234 O259 2.209 . S
Mn234 O260 2.094 . S
Mn235 O240 2.121 . S
Mn235 N242 2.257 . S
Mn235 N251 2.282 . S
Mn235 O259 2.215 . S
Mn235 O261 2.117 . S
C236 O258 1.234 . S
C236 O259 1.283 . S
C237 O249 1.281 . S
C237 O250 1.236 . S
C238 O260 1.240 . S
C238 O261 1.264 . S
O239 Mn234 2.095 . S
O239 C248 1.250 . S
O240 Mn235 2.121 . S
O240 C248 1.258 . S
C241 N242 1.326 . S
C241 C245 1.460 1_556 S
C241 H247 0.929 . S
N242 Mn235 2.257 . S
N242 C241 1.326 . S
N242 C246 1.362 . S
C243 C244 1.258 . S
C243 C246 1.431 1_554 S
C243 C263 1.449 . S
C244 C243 1.258 . S
C244 C245 1.477 . S
C244 H264 0.931 . S
C245 C241 1.460 1_554 S
C245 C244 1.477 . S
C245 H265 0.930 . S
C246 N242 1.362 . S
C246 C243 1.431 1_556 S
C246 C256 1.476 . S
H247 C241 0.929 . S
C248 O239 1.250 . S
C248 O240 1.258 . S
O249 Mn234 2.162 . S
O249 C237 1.281 . S
O250 Mn234 2.297 . S
O250 C237 1.236 . S
N251 Mn235 2.282 . S
N251 C252 1.328 . S
N251 C256 1.318 . S
C252 N251 1.328 . S
C252 C253 1.457 . S
C252 H257 0.929 . S
C253 C252 1.457 . S
C253 C254 1.291 . S
C253 H266 0.931 . S
C254 C253 1.291 . S
C254 C255 1.373 . S
C254 H267 0.929 . S
C255 C254 1.373 . S
C255 C256 1.396 . S
C255 C262 1.403 1_556 S
C256 C246 1.476 . S
C256 N251 1.318 . S
C256 C255 1.396 . S
H257 C252 0.929 . S
O258 Mn234 2.385 . S
O258 C236 1.234 . S
O259 Mn234 2.209 . S
O259 Mn235 2.215 . S
O259 C236 1.283 . S
O260 Mn234 2.094 . S
O260 C238 1.240 . S
O261 Mn235 2.117 . S
O261 C238 1.264 . S
C262 C255 1.403 1_554 S
C262 C263 1.399 . S
C262 H268 0.929 . S
C263 C243 1.449 . S
C263 C262 1.399 . S
C263 H269 0.930 . S
H264 C244 0.931 . S
H265 C245 0.930 . S
H266 C253 0.931 . S
H267 C254 0.929 . S
H268 C262 0.929 . S
H269 C263 0.930 . S
Mn270 O275 2.095 . S
Mn270 O285 2.162 . S
Mn270 O286 2.297 . S
Mn270 O294 2.385 . S
Mn270 O295 2.209 . S
Mn270 O296 2.094 . S
Mn271 O276 2.121 . S
Mn271 N278 2.257 . S
Mn271 N287 2.282 . S
Mn271 O295 2.215 . S
Mn271 O297 2.117 . S
C272 O294 1.234 . S
C272 O295 1.283 . S
C273 O285 1.281 . S
C273 O286 1.236 . S
C274 O296 1.240 . S
C274 O297 1.264 . S
O275 Mn270 2.095 . S
O275 C284 1.250 . S
O276 Mn271 2.121 . S
O276 C284 1.258 . S
C277 N278 1.326 . S
C277 C281 1.460 . S
C277 H283 0.929 . S
N278 Mn271 2.257 . S
N278 C277 1.326 . S
N278 C282 1.362 . S
C279 C280 1.258 . S
C279 C282 1.431 . S
C279 C299 1.449 . S
C280 C279 1.258 . S
C280 C281 1.477 . S
C280 H300 0.931 . S
C281 C277 1.460 . S
C281 C280 1.477 . S
C281 H301 0.930 . S
C282 N278 1.362 . S
C282 C279 1.431 . S
C282 C292 1.476 . S
H283 C277 0.929 . S
C284 O275 1.250 . S
C284 O276 1.258 . S
O285 Mn270 2.162 . S
O285 C273 1.281 . S
O286 Mn270 2.297 . S
O286 C273 1.236 . S
N287 Mn271 2.282 . S
N287 C288 1.328 . S
N287 C292 1.318 . S
C288 N287 1.328 . S
C288 C289 1.457 . S
C288 H293 0.929 . S
C289 C288 1.457 . S
C289 C290 1.291 . S
C289 H302 0.931 . S
C290 C289 1.291 . S
C290 C291 1.373 . S
C290 H303 0.929 . S
C291 C290 1.373 . S
C291 C292 1.396 . S
C291 C298 1.403 . S
C292 C282 1.476 . S
C292 N287 1.318 . S
C292 C291 1.396 . S
H293 C288 0.929 . S
O294 Mn270 2.385 . S
O294 C272 1.234 . S
O295 Mn270 2.209 . S
O295 Mn271 2.215 . S
O295 C272 1.283 . S
O296 Mn270 2.094 . S
O296 C274 1.240 . S
O297 Mn271 2.117 . S
O297 C274 1.264 . S
C298 C291 1.403 . S
C298 C299 1.399 . S
C298 H304 0.929 . S
C299 C279 1.449 . S
C299 C298 1.399 . S
C299 H305 0.930 . S
H300 C280 0.931 . S
H301 C281 0.930 . S
H302 C289 0.931 . S
H303 C290 0.929 . S
H304 C298 0.929 . S
H305 C299 0.930 . S
Mn306 O311 2.095 . S
Mn306 O321 2.162 . S
Mn306 O322 2.297 . S
Mn306 O330 2.385 . S
Mn306 O331 2.209 . S
Mn306 O332 2.094 . S
Mn307 O312 2.121 . S
Mn307 N314 2.257 . S
Mn307 N323 2.282 . S
Mn307 O331 2.215 . S
Mn307 O333 2.117 . S
C308 O330 1.234 . S
C308 O331 1.283 . S
C309 O321 1.281 . S
C309 O322 1.236 . S
C310 O332 1.240 . S
C310 O333 1.264 . S
O311 Mn306 2.095 . S
O311 C320 1.250 . S
O312 Mn307 2.121 . S
O312 C320 1.258 . S
C313 N314 1.326 . S
C313 C317 1.460 . S
C313 H319 0.929 . S
N314 Mn307 2.257 . S
N314 C313 1.326 . S
N314 C318 1.362 . S
C315 C316 1.258 . S
C315 C318 1.431 . S
C315 C335 1.449 . S
C316 C315 1.258 . S
C316 C317 1.477 . S
C316 H336 0.931 . S
C317 C313 1.460 . S
C317 C316 1.477 . S
C317 H337 0.930 . S
C318 N314 1.362 . S
C318 C315 1.431 . S
C318 C328 1.476 . S
H319 C313 0.929 . S
C320 O311 1.250 . S
C320 O312 1.258 . S
O321 Mn306 2.162 . S
O321 C309 1.281 . S
O322 Mn306 2.297 . S
O322 C309 1.236 . S
N323 Mn307 2.282 . S
N323 C324 1.328 . S
N323 C328 1.318 . S
C324 N323 1.328 . S
C324 C325 1.457 . S
C324 H329 0.929 . S
C325 C324 1.457 . S
C325 C326 1.291 . S
C325 H338 0.931 . S
C326 C325 1.291 . S
C326 C327 1.373 . S
C326 H339 0.929 . S
C327 C326 1.373 . S
C327 C328 1.396 . S
C327 C334 1.403 . S
C328 C318 1.476 . S
C328 N323 1.318 . S
C328 C327 1.396 . S
H329 C324 0.929 . S
O330 Mn306 2.385 . S
O330 C308 1.234 . S
O331 Mn306 2.209 . S
O331 Mn307 2.215 . S
O331 C308 1.283 . S
O332 Mn306 2.094 . S
O332 C310 1.240 . S
O333 Mn307 2.117 . S
O333 C310 1.264 . S
C334 C327 1.403 . S
C334 C335 1.399 . S
C334 H340 0.929 . S
C335 C315 1.449 . S
C335 C334 1.399 . S
C335 H341 0.930 . S
H336 C316 0.931 . S
H337 C317 0.930 . S
H338 C325 0.931 . S
H339 C326 0.929 . S
H340 C334 0.929 . S
H341 C335 0.930 . S
C342 C343 1.369 . S
C342 C344 1.419 . S
C342 H346 0.930 . S
C343 C342 1.369 . S
C343 C352 1.429 . S
C344 C342 1.419 . S
C344 C345 1.363 . S
C344 H347 0.929 . S
C345 C344 1.363 . S
C345 C351 1.428 . S
H346 C342 0.930 . S
H347 C344 0.929 . S
S348 N349 1.613 . S
S348 N350 1.610 . S
N349 S348 1.613 . S
N349 C352 1.350 . S
N350 S348 1.610 . S
N350 C351 1.351 . S
C351 C345 1.428 . S
C351 N350 1.351 . S
C351 C352 1.434 . S
C352 C343 1.429 . S
C352 N349 1.350 . S
C352 C351 1.434 . S
C353 C354 1.369 . S
C353 C355 1.419 . S
C353 H357 0.930 . S
C354 C353 1.369 . S
C354 C363 1.429 . S
C355 C353 1.419 . S
C355 C356 1.363 . S
C355 H358 0.929 . S
C356 C355 1.363 . S
C356 C362 1.428 . S
H357 C353 0.930 . S
H358 C355 0.929 . S
S359 N360 1.613 . S
S359 N361 1.610 . S
N360 S359 1.613 . S
N360 C363 1.350 . S
N361 S359 1.610 . S
N361 C362 1.351 . S
C362 C356 1.428 . S
C362 N361 1.351 . S
C362 C363 1.434 . S
C363 C354 1.429 . S
C363 N360 1.350 . S
C363 C362 1.434 . S
C364 C365 1.369 . S
C364 C366 1.419 . S
C364 H368 0.930 . S
C365 C364 1.369 . S
C365 C374 1.429 . S
C366 C364 1.419 . S
C366 C367 1.363 . S
C366 H369 0.929 . S
C367 C366 1.363 . S
C367 C373 1.428 . S
H368 C364 0.930 . S
H369 C366 0.929 . S
S370 N371 1.613 . S
S370 N372 1.610 . S
N371 S370 1.613 . S
N371 C374 1.350 . S
N372 S370 1.610 . S
N372 C373 1.351 . S
C373 C367 1.428 . S
C373 N372 1.351 . S
C373 C374 1.434 . S
C374 C365 1.429 . S
C374 N371 1.350 . S
C374 C373 1.434 . S
C375 C376 1.369 . S
C375 C377 1.419 . S
C375 H379 0.930 . S
C376 C375 1.369 . S
C376 C385 1.429 . S
C377 C375 1.419 . S
C377 C378 1.363 . S
C377 H380 0.929 . S
C378 C377 1.363 . S
C378 C384 1.428 . S
H379 C375 0.930 . S
H380 C377 0.929 . S
S381 N382 1.613 . S
S381 N383 1.610 . S
N382 S381 1.613 . S
N382 C385 1.350 . S
N383 S381 1.610 . S
N383 C384 1.351 . S
C384 C378 1.428 . S
C384 N383 1.351 . S
C384 C385 1.434 . S
C385 C376 1.429 . S
C385 N382 1.350 . S
C385 C384 1.434 . S
C386 C387 1.369 . S
C386 C388 1.419 . S
C386 H390 0.930 . S
C387 C386 1.369 . S
C387 C396 1.429 . S
C388 C386 1.419 . S
C388 C389 1.363 . S
C388 H391 0.929 . S
C389 C388 1.363 . S
C389 C395 1.428 . S
H390 C386 0.930 . S
H391 C388 0.929 . S
S392 N393 1.613 . S
S392 N394 1.610 . S
N393 S392 1.613 . S
N393 C396 1.350 1_554 S
N394 S392 1.610 . S
N394 C395 1.351 1_554 S
C395 C389 1.428 . S
C395 N394 1.351 1_556 S
C395 C396 1.434 . S
C396 C387 1.429 . S
C396 N393 1.350 1_556 S
C396 C395 1.434 . S
C397 C398 1.369 . S
C397 C399 1.419 . S
C397 H401 0.930 . S
C398 C397 1.369 . S
C398 C407 1.429 . S
C399 C397 1.419 . S
C399 C400 1.363 . S
C399 H402 0.929 . S
C400 C399 1.363 . S
C400 C406 1.428 . S
H401 C397 0.930 . S
H402 C399 0.929 . S
S403 N404 1.613 . S
S403 N405 1.610 . S
N404 S403 1.613 . S
N404 C407 1.350 . S
N405 S403 1.610 . S
N405 C406 1.351 . S
C406 C400 1.428 . S
C406 N405 1.351 . S
C406 C407 1.434 . S
C407 C398 1.429 . S
C407 N404 1.350 . S
C407 C406 1.434 . S
C408 C409 1.369 . S
C408 C410 1.419 . S
C408 H412 0.930 . S
C409 C408 1.369 . S
C409 C418 1.429 . S
C410 C408 1.419 . S
C410 C411 1.363 . S
C410 H413 0.929 . S
C411 C410 1.363 . S
C411 C417 1.428 . S
H412 C408 0.930 . S
H413 C410 0.929 . S
S414 N415 1.613 . S
S414 N416 1.610 . S
N415 S414 1.613 . S
N415 C418 1.350 . S
N416 S414 1.610 . S
N416 C417 1.351 . S
C417 C411 1.428 . S
C417 N416 1.351 . S
C417 C418 1.434 . S
C418 C409 1.429 . S
C418 N415 1.350 . S
C418 C417 1.434 . S
C419 C420 1.369 . S
C419 C421 1.419 . S
C419 H423 0.930 . S
C420 C419 1.369 . S
C420 C429 1.429 . S
C421 C419 1.419 . S
C421 C422 1.363 . S
C421 H424 0.929 . S
C422 C421 1.363 . S
C422 C428 1.428 . S
H423 C419 0.930 . S
H424 C421 0.929 . S
S425 N426 1.613 . S
S425 N427 1.610 . S
N426 S425 1.613 . S
N426 C429 1.350 . S
N427 S425 1.610 . S
N427 C428 1.351 . S
C428 C422 1.428 . S
C428 N427 1.351 . S
C428 C429 1.434 . S
C429 C420 1.429 . S
C429 N426 1.350 . S
C429 C428 1.434 . S
C430 C431 1.369 . S
C430 C432 1.419 . S
C430 H434 0.930 . S
C431 C430 1.369 . S
C431 C440 1.429 . S
C432 C430 1.419 . S
C432 C433 1.363 . S
C432 H435 0.929 . S
C433 C432 1.363 . S
C433 C439 1.428 . S
H434 C430 0.930 . S
H435 C432 0.929 . S
S436 N437 1.613 . S
S436 N438 1.610 . S
N437 S436 1.613 . S
N437 C440 1.350 . S
N438 S436 1.610 . S
N438 C439 1.351 . S
C439 C433 1.428 . S
C439 N438 1.351 . S
C439 C440 1.434 . S
C440 C431 1.429 . S
C440 N437 1.350 . S
C440 C439 1.434 . S
C441 C442 1.369 . S
C441 C443 1.419 . S
C441 H445 0.930 . S
C442 C441 1.369 . S
C442 C451 1.429 . S
C443 C441 1.419 . S
C443 C444 1.363 . S
C443 H446 0.929 . S
C444 C443 1.363 . S
C444 C450 1.428 . S
H445 C441 0.930 . S
H446 C443 0.929 . S
S447 N448 1.613 . S
S447 N449 1.610 . S
N448 S447 1.613 . S
N448 C451 1.350 1_556 S
N449 S447 1.610 . S
N449 C450 1.351 1_556 S
C450 C444 1.428 . S
C450 N449 1.351 1_554 S
C450 C451 1.434 . S
C451 C442 1.429 . S
C451 N448 1.350 1_554 S
C451 C450 1.434 . S
C452 C453 1.369 . S
C452 C454 1.419 . S
C452 H456 0.930 . S
C453 C452 1.369 . S
C453 C462 1.429 . S
C454 C452 1.419 . S
C454 C455 1.363 . S
C454 H457 0.929 . S
C455 C454 1.363 . S
C455 C461 1.428 . S
H456 C452 0.930 . S
H457 C454 0.929 . S
S458 N459 1.613 . S
S458 N460 1.610 . S
N459 S458 1.613 . S
N459 C462 1.350 . S
N460 S458 1.610 . S
N460 C461 1.351 . S
C461 C455 1.428 . S
C461 N460 1.351 . S
C461 C462 1.434 . S
C462 C453 1.429 . S
C462 N459 1.350 . S
C462 C461 1.434 . S
C463 C464 1.369 . S
C463 C465 1.419 . S
C463 H467 0.930 . S
C464 C463 1.369 . S
C464 C473 1.429 . S
C465 C463 1.419 . S
C465 C466 1.363 . S
C465 H468 0.929 . S
C466 C465 1.363 . S
C466 C472 1.428 . S
H467 C463 0.930 . S
H468 C465 0.929 . S
S469 N470 1.613 . S
S469 N471 1.610 . S
N470 S469 1.613 . S
N470 C473 1.350 . S
N471 S469 1.610 . S
N471 C472 1.351 . S
C472 C466 1.428 . S
C472 N471 1.351 . S
C472 C473 1.434 . S
C473 C464 1.429 . S
C473 N470 1.350 . S
C473 C472 1.434 . S
C474 C475 1.369 . S
C474 C476 1.419 . S
C474 H478 0.930 . S
C475 C474 1.369 . S
C475 C484 1.429 . S
C476 C474 1.419 . S
C476 C477 1.363 . S
C476 H479 0.929 . S
C477 C476 1.363 . S
C477 C483 1.428 . S
H478 C474 0.930 . S
H479 C476 0.929 . S
S480 N481 1.613 . S
S480 N482 1.610 . S
N481 S480 1.613 . S
N481 C484 1.350 . S
N482 S480 1.610 . S
N482 C483 1.351 . S
C483 C477 1.428 . S
C483 N482 1.351 . S
C483 C484 1.434 . S
C484 C475 1.429 . S
C484 N481 1.350 . S
C484 C483 1.434 . S
C485 C486 1.369 . S
C485 C487 1.419 . S
C485 H489 0.930 . S
C486 C485 1.369 . S
C486 C495 1.429 . S
C487 C485 1.419 . S
C487 C488 1.363 . S
C487 H490 0.929 . S
C488 C487 1.363 . S
C488 C494 1.428 . S
H489 C485 0.930 . S
H490 C487 0.929 . S
S491 N492 1.613 . S
S491 N493 1.610 . S
N492 S491 1.613 . S
N492 C495 1.350 . S
N493 S491 1.610 . S
N493 C494 1.351 . S
C494 C488 1.428 . S
C494 N493 1.351 . S
C494 C495 1.434 . S
C495 C486 1.429 . S
C495 N492 1.350 . S
C495 C494 1.434 . S
C496 C497 1.369 . S
C496 C498 1.419 . S
C496 H500 0.930 . S
C497 C496 1.369 . S
C497 C506 1.429 . S
C498 C496 1.419 . S
C498 C499 1.363 . S
C498 H501 0.929 . S
C499 C498 1.363 . S
C499 C505 1.428 . S
H500 C496 0.930 . S
H501 C498 0.929 . S
S502 N503 1.613 . S
S502 N504 1.610 . S
N503 S502 1.613 . S
N503 C506 1.350 . S
N504 S502 1.610 . S
N504 C505 1.351 . S
C505 C499 1.428 . S
C505 N504 1.351 . S
C505 C506 1.434 . S
C506 C497 1.429 . S
C506 N503 1.350 . S
C506 C505 1.434 . S
C507 C508 1.369 . S
C507 C509 1.419 . S
C507 H511 0.930 . S
C508 C507 1.369 . S
C508 C517 1.429 . S
C509 C507 1.419 . S
C509 C510 1.363 . S
C509 H512 0.929 . S
C510 C509 1.363 . S
C510 C516 1.428 . S
H511 C507 0.930 . S
H512 C509 0.929 . S
S513 N514 1.613 . S
S513 N515 1.610 . S
N514 S513 1.613 . S
N514 C517 1.350 . S
N515 S513 1.610 . S
N515 C516 1.351 . S
C516 C510 1.428 . S
C516 N515 1.351 . S
C516 C517 1.434 . S
C517 C508 1.429 . S
C517 N514 1.350 . S
C517 C516 1.434 . S
C518 C519 1.369 . S
C518 C520 1.419 . S
C518 H522 0.930 . S
C519 C518 1.369 . S
C519 C528 1.429 . S
C520 C518 1.419 . S
C520 C521 1.363 . S
C520 H523 0.929 . S
C521 C520 1.363 . S
C521 C527 1.428 . S
H522 C518 0.930 . S
H523 C520 0.929 . S
S524 N525 1.613 . S
S524 N526 1.610 . S
N525 S524 1.613 . S
N525 C528 1.350 . S
N526 S524 1.610 . S
N526 C527 1.351 . S
C527 C521 1.428 . S
C527 N526 1.351 . S
C527 C528 1.434 . S
C528 C519 1.429 . S
C528 N525 1.350 . S
C528 C527 1.434 . S
C529 C530 1.369 . S
C529 C531 1.419 . S
C529 H533 0.930 . S
C530 C529 1.369 . S
C530 C539 1.429 . S
C531 C529 1.419 . S
C531 C532 1.363 . S
C531 H534 0.929 . S
C532 C531 1.363 . S
C532 C538 1.428 . S
H533 C529 0.930 . S
H534 C531 0.929 . S
S535 N536 1.613 . S
S535 N537 1.610 . S
N536 S535 1.613 . S
N536 C539 1.350 . S
N537 S535 1.610 . S
N537 C538 1.351 . S
C538 C532 1.428 . S
C538 N537 1.351 . S
C538 C539 1.434 . S
C539 C530 1.429 . S
C539 N536 1.350 . S
C539 C538 1.434 . S
C540 C541 1.369 . S
C540 C542 1.419 . S
C540 H544 0.930 . S
C541 C540 1.369 . S
C541 C550 1.429 . S
C542 C540 1.419 . S
C542 C543 1.363 . S
C542 H545 0.929 . S
C543 C542 1.363 . S
C543 C549 1.428 . S
H544 C540 0.930 . S
H545 C542 0.929 . S
S546 N547 1.613 . S
S546 N548 1.610 . S
N547 S546 1.613 . S
N547 C550 1.350 . S
N548 S546 1.610 . S
N548 C549 1.351 . S
C549 C543 1.428 . S
C549 N548 1.351 . S
C549 C550 1.434 . S
C550 C541 1.429 . S
C550 N547 1.350 . S
C550 C549 1.434 . S
C551 C552 1.369 . S
C551 C553 1.419 . S
C551 H555 0.930 . S
C552 C551 1.369 . S
C552 C561 1.429 . S
C553 C551 1.419 . S
C553 C554 1.363 . S
C553 H556 0.929 . S
C554 C553 1.363 . S
C554 C560 1.428 . S
H555 C551 0.930 . S
H556 C553 0.929 . S
S557 N558 1.613 . S
S557 N559 1.610 . S
N558 S557 1.613 . S
N558 C561 1.350 . S
N559 S557 1.610 . S
N559 C560 1.351 . S
C560 C554 1.428 . S
C560 N559 1.351 . S
C560 C561 1.434 . S
C561 C552 1.429 . S
C561 N558 1.350 . S
C561 C560 1.434 . S
C562 C563 1.369 . S
C562 C564 1.419 . S
C562 H566 0.930 . S
C563 C562 1.369 . S
C563 C572 1.429 . S
C564 C562 1.419 . S
C564 C565 1.363 . S
C564 H567 0.929 . S
C565 C564 1.363 . S
C565 C571 1.428 . S
H566 C562 0.930 . S
H567 C564 0.929 . S
S568 N569 1.613 . S
S568 N570 1.610 . S
N569 S568 1.613 . S
N569 C572 1.350 . S
N570 S568 1.610 . S
N570 C571 1.351 . S
C571 C565 1.428 . S
C571 N570 1.351 . S
C571 C572 1.434 . S
C572 C563 1.429 . S
C572 N569 1.350 . S
C572 C571 1.434 . S
C573 C574 1.369 . S
C573 C575 1.419 . S
C573 H577 0.930 . S
C574 C573 1.369 . S
C574 C583 1.429 . S
C575 C573 1.419 . S
C575 C576 1.363 . S
C575 H578 0.929 . S
C576 C575 1.363 . S
C576 C582 1.428 . S
H577 C573 0.930 . S
H578 C575 0.929 . S
S579 N580 1.613 . S
S579 N581 1.610 . S
N580 S579 1.613 . S
N580 C583 1.350 . S
N581 S579 1.610 . S
N581 C582 1.351 . S
C582 C576 1.428 . S
C582 N581 1.351 . S
C582 C583 1.434 . S
C583 C574 1.429 . S
C583 N580 1.350 . S
C583 C582 1.434 . S
C584 C585 1.369 . S
C584 C586 1.419 . S
C584 H588 0.930 . S
C585 C584 1.369 . S
C585 C594 1.429 . S
C586 C584 1.419 . S
C586 C587 1.363 1_554 S
C586 H589 0.929 . S
C587 C586 1.363 1_556 S
C587 C593 1.428 1_556 S
H588 C584 0.930 . S
H589 C586 0.929 . S
S590 N591 1.613 . S
S590 N592 1.610 1_554 S
N591 S590 1.613 . S
N591 C594 1.350 . S
N592 S590 1.610 1_556 S
N592 C593 1.351 1_556 S
C593 C587 1.428 1_554 S
C593 N592 1.351 1_554 S
C593 C594 1.434 . S
C594 C585 1.429 . S
C594 N591 1.350 . S
C594 C593 1.434 . S
C595 C596 1.369 . S
C595 C597 1.419 . S
C595 H599 0.930 . S
C596 C595 1.369 . S
C596 C605 1.429 . S
C597 C595 1.419 . S
C597 C598 1.363 . S
C597 H600 0.929 . S
C598 C597 1.363 . S
C598 C604 1.428 . S
H599 C595 0.930 . S
H600 C597 0.929 . S
S601 N602 1.613 . S
S601 N603 1.610 . S
N602 S601 1.613 . S
N602 C605 1.350 . S
N603 S601 1.610 . S
N603 C604 1.351 . S
C604 C598 1.428 . S
C604 N603 1.351 . S
C604 C605 1.434 . S
C605 C596 1.429 . S
C605 N602 1.350 . S
C605 C604 1.434 . S
C345 C309 1.569 . S
C343 C19 1.480 . S
C354 C40 1.505 . S
C356 C129 1.600 . S
C365 C51 1.475 . S
C367 C176 1.556 . S
C376 C72 1.437 . S
C378 C212 1.504 . S
C389 C237 1.552 . S
C387 C103 1.454 . S
C398 C114 1.456 . S
C400 C273 1.565 . S
C409 C30 1.481 . S
C411 C165 1.600 . S
C420 C61 1.466 . S
C422 C201 1.553 . S
C431 C82 1.441 . S
C433 C248 1.488 . S
C444 C284 1.530 . S
C442 C93 1.449 . S
C455 C320 1.537 . S
C453 C124 1.479 . S
C466 C140 1.549 . S
C464 C9 1.469 . S
C475 C17 1.427 . S
C477 C164 1.507 . S
C486 C38 1.431 . S
C488 C200 1.509 . S
C499 C238 1.506 . S
C497 C54 1.427 . S
C508 C75 1.429 . S
C510 C274 1.514 1_556 S
C521 C310 1.484 . S
C519 C101 1.390 . S
C532 C130 1.475 . S
C530 C117 1.380 . S
C543 C308 1.492 . S
C541 C33 1.406 . S
C552 C59 1.427 . S
C554 C128 1.497 . S
C565 C166 1.500 . S
C563 C80 1.427 . S
C574 C96 1.423 . S
C576 C202 1.503 . S
C585 C122 1.458 . S
C587 C236 1.531 . S
C596 C12 1.453 . S
C598 C272 1.522 . S
