# Generated by pormake.
# Topology ctn, (3,4)-cn, num edge types: 1
# Building blocks:
#     Node 0, Type 0, BuildingBlock: KAKCAD_clean_linker_0, # of connection points: 3
#     Node 1, Type 0, BuildingBlock: KAKCAD_clean_linker_0, # of connection points: 3
#     Node 2, Type 0, BuildingBlock: KAKCAD_clean_linker_0, # of connection points: 3
#     Node 3, Type 0, BuildingBlock: KAKCAD_clean_linker_0, # of connection points: 3
#     Node 4, Type 0, BuildingBlock: KAKCAD_clean_linker_0, # of connection points: 3
#     Node 5, Type 0, BuildingBlock: KAKCAD_clean_linker_0, # of connection points: 3
#     Node 6, Type 0, BuildingBlock: KAKCAD_clean_linker_0, # of connection points: 3
#     Node 7, Type 0, BuildingBlock: KAKCAD_clean_linker_0, # of connection points: 3
#     Node 8, Type 0, BuildingBlock: KAKCAD_clean_linker_0, # of connection points: 3
#     Node 9, Type 0, BuildingBlock: KAKCAD_clean_linker_0, # of connection points: 3
#     Node 10, Type 0, BuildingBlock: KAKCAD_clean_linker_0, # of connection points: 3
#     Node 11, Type 0, BuildingBlock: KAKCAD_clean_linker_0, # of connection points: 3
#     Node 12, Type 0, BuildingBlock: KAKCAD_clean_linker_0, # of connection points: 3
#     Node 13, Type 0, BuildingBlock: KAKCAD_clean_linker_0, # of connection points: 3
#     Node 14, Type 0, BuildingBlock: KAKCAD_clean_linker_0, # of connection points: 3
#     Node 15, Type 0, BuildingBlock: KAKCAD_clean_linker_0, # of connection points: 3
#     Node 16, Type 1, BuildingBlock: QUQFOY_clean_sbu_1, # of connection points: 4
#     Node 17, Type 1, BuildingBlock: QUQFOY_clean_sbu_1, # of connection points: 4
#     Node 18, Type 1, BuildingBlock: QUQFOY_clean_sbu_1, # of connection points: 4
#     Node 19, Type 1, BuildingBlock: QUQFOY_clean_sbu_1, # of connection points: 4
#     Node 20, Type 1, BuildingBlock: QUQFOY_clean_sbu_1, # of connection points: 4
#     Node 21, Type 1, BuildingBlock: QUQFOY_clean_sbu_1, # of connection points: 4
#     Node 22, Type 1, BuildingBlock: QUQFOY_clean_sbu_1, # of connection points: 4
#     Node 23, Type 1, BuildingBlock: QUQFOY_clean_sbu_1, # of connection points: 4
#     Node 24, Type 1, BuildingBlock: QUQFOY_clean_sbu_1, # of connection points: 4
#     Node 25, Type 1, BuildingBlock: QUQFOY_clean_sbu_1, # of connection points: 4
#     Node 26, Type 1, BuildingBlock: QUQFOY_clean_sbu_1, # of connection points: 4
#     Node 27, Type 1, BuildingBlock: QUQFOY_clean_sbu_1, # of connection points: 4
#     Edge 28, Type (0, 1), BuildingBlock: EZIPEK_clean_linker_0, # of connection points: 2
#     Edge 29, Type (0, 1), BuildingBlock: EZIPEK_clean_linker_0, # of connection points: 2
#     Edge 30, Type (0, 1), BuildingBlock: EZIPEK_clean_linker_0, # of connection points: 2
#     Edge 31, Type (0, 1), BuildingBlock: EZIPEK_clean_linker_0, # of connection points: 2
#     Edge 32, Type (0, 1), BuildingBlock: EZIPEK_clean_linker_0, # of connection points: 2
#     Edge 33, Type (0, 1), BuildingBlock: EZIPEK_clean_linker_0, # of connection points: 2
#     Edge 34, Type (0, 1), BuildingBlock: EZIPEK_clean_linker_0, # of connection points: 2
#     Edge 35, Type (0, 1), BuildingBlock: EZIPEK_clean_linker_0, # of connection points: 2
#     Edge 36, Type (0, 1), BuildingBlock: EZIPEK_clean_linker_0, # of connection points: 2
#     Edge 37, Type (0, 1), BuildingBlock: EZIPEK_clean_linker_0, # of connection points: 2
#     Edge 38, Type (0, 1), BuildingBlock: EZIPEK_clean_linker_0, # of connection points: 2
#     Edge 39, Type (0, 1), BuildingBlock: EZIPEK_clean_linker_0, # of connection points: 2
#     Edge 40, Type (0, 1), BuildingBlock: EZIPEK_clean_linker_0, # of connection points: 2
#     Edge 41, Type (0, 1), BuildingBlock: EZIPEK_clean_linker_0, # of connection points: 2
#     Edge 42, Type (0, 1), BuildingBlock: EZIPEK_clean_linker_0, # of connection points: 2
#     Edge 43, Type (0, 1), BuildingBlock: EZIPEK_clean_linker_0, # of connection points: 2
#     Edge 44, Type (0, 1), BuildingBlock: EZIPEK_clean_linker_0, # of connection points: 2
#     Edge 45, Type (0, 1), BuildingBlock: EZIPEK_clean_linker_0, # of connection points: 2
#     Edge 46, Type (0, 1), BuildingBlock: EZIPEK_clean_linker_0, # of connection points: 2
#     Edge 47, Type (0, 1), BuildingBlock: EZIPEK_clean_linker_0, # of connection points: 2
#     Edge 48, Type (0, 1), BuildingBlock: EZIPEK_clean_linker_0, # of connection points: 2
#     Edge 49, Type (0, 1), BuildingBlock: EZIPEK_clean_linker_0, # of connection points: 2
#     Edge 50, Type (0, 1), BuildingBlock: EZIPEK_clean_linker_0, # of connection points: 2
#     Edge 51, Type (0, 1), BuildingBlock: EZIPEK_clean_linker_0, # of connection points: 2
#     Edge 52, Type (0, 1), BuildingBlock: EZIPEK_clean_linker_0, # of connection points: 2
#     Edge 53, Type (0, 1), BuildingBlock: EZIPEK_clean_linker_0, # of connection points: 2
#     Edge 54, Type (0, 1), BuildingBlock: EZIPEK_clean_linker_0, # of connection points: 2
#     Edge 55, Type (0, 1), BuildingBlock: EZIPEK_clean_linker_0, # of connection points: 2
#     Edge 56, Type (0, 1), BuildingBlock: EZIPEK_clean_linker_0, # of connection points: 2
#     Edge 57, Type (0, 1), BuildingBlock: EZIPEK_clean_linker_0, # of connection points: 2
#     Edge 58, Type (0, 1), BuildingBlock: EZIPEK_clean_linker_0, # of connection points: 2
#     Edge 59, Type (0, 1), BuildingBlock: EZIPEK_clean_linker_0, # of connection points: 2
#     Edge 60, Type (0, 1), BuildingBlock: EZIPEK_clean_linker_0, # of connection points: 2
#     Edge 61, Type (0, 1), BuildingBlock: EZIPEK_clean_linker_0, # of connection points: 2
#     Edge 62, Type (0, 1), BuildingBlock: EZIPEK_clean_linker_0, # of connection points: 2
#     Edge 63, Type (0, 1), BuildingBlock: EZIPEK_clean_linker_0, # of connection points: 2
#     Edge 64, Type (0, 1), BuildingBlock: EZIPEK_clean_linker_0, # of connection points: 2
#     Edge 65, Type (0, 1), BuildingBlock: EZIPEK_clean_linker_0, # of connection points: 2
#     Edge 66, Type (0, 1), BuildingBlock: EZIPEK_clean_linker_0, # of connection points: 2
#     Edge 67, Type (0, 1), BuildingBlock: EZIPEK_clean_linker_0, # of connection points: 2
#     Edge 68, Type (0, 1), BuildingBlock: EZIPEK_clean_linker_0, # of connection points: 2
#     Edge 69, Type (0, 1), BuildingBlock: EZIPEK_clean_linker_0, # of connection points: 2
#     Edge 70, Type (0, 1), BuildingBlock: EZIPEK_clean_linker_0, # of connection points: 2
#     Edge 71, Type (0, 1), BuildingBlock: EZIPEK_clean_linker_0, # of connection points: 2
#     Edge 72, Type (0, 1), BuildingBlock: EZIPEK_clean_linker_0, # of connection points: 2
#     Edge 73, Type (0, 1), BuildingBlock: EZIPEK_clean_linker_0, # of connection points: 2
#     Edge 74, Type (0, 1), BuildingBlock: EZIPEK_clean_linker_0, # of connection points: 2
#     Edge 75, Type (0, 1), BuildingBlock: EZIPEK_clean_linker_0, # of connection points: 2
# Relax obj value: 0.036
# Max RMSD: 0.146
# Mean RMSD: 0.065
data_MOF--net-ctn--node1-QUQFOY_clean_sbu_1--node2-KAKCAD_clean_linker_0--edge1-EZIPEK_clean_linker_0
_symmetry_space_group_name_H-M    P1
_symmetry_Int_Tables_number       1
_symmetry_cell_setting            triclinic
loop_
_symmetry_equiv_pos_as_xyz
'x, y, z'
_cell_length_a     52.835164
_cell_length_b     52.744064
_cell_length_c     52.793284
_cell_angle_alpha  93.137376
_cell_angle_beta   90.467469
_cell_angle_gamma 95.126296
loop_
_atom_site_label
_atom_site_type_symbol
_atom_site_fract_x
_atom_site_fract_y
_atom_site_fract_z
_atom_type_partial_charge
C0 C 0.02348 0.11969 0.96783 0.0
C1 C 0.01629 0.1437 0.97609 0.0
C2 C 0.02707 0.10135 0.98536 0.0
C3 C 0.02371 0.10681 0.01147 0.0
C4 C 0.01732 0.13124 0.01964 0.0
C5 C 0.01357 0.14947 0.00211 0.0
C6 C 0.02599 0.08686 0.03003 0.0
C7 C 0.04499 0.06986 0.02751 0.0
C8 C 0.04675 0.05052 0.04461 0.0
C9 C 0.02925 0.04847 0.06446 0.0
C10 C 0.01045 0.06552 0.06753 0.0
C11 C 0.00886 0.08457 0.05021 0.0
C12 C 0.99282 0.06362 0.08921 0.0
C13 C 0.9818 0.0397 0.09593 0.0
C14 C 0.98793 0.08554 0.10412 0.0
C15 C 0.9731 0.08344 0.12584 0.0
C16 C 0.96288 0.05943 0.13285 0.0
C17 C 0.06681 0.03247 0.04188 0.0
C18 C 0.07407 0.02333 0.01771 0.0
C19 C 0.0787 0.024 0.06347 0.0
C20 C 0.09717 0.0067 0.06093 0.0
C21 C 0.10443 0.9979 0.03679 0.0
C22 C 0.09281 0.0063 0.0152 0.0
C23 C 0.96693 0.03764 0.11757 0.0
H24 H 0.02569 0.11497 0.94779 0.0
H25 H 0.03175 0.08267 0.97839 0.0
H26 H 0.01509 0.13627 0.03961 0.0
H27 H 0.00818 0.16799 0.0088 0.0
H28 H 0.05877 0.07208 0.01254 0.0
H29 H 0.99384 0.09721 0.05214 0.0
H30 H 0.03032 0.03362 0.07771 0.0
H31 H 0.98495 0.02254 0.08461 0.0
H32 H 0.99634 0.10418 0.09951 0.0
H33 H 0.97016 0.10041 0.13756 0.0
H34 H 0.06507 0.02906 0.0007 0.0
H35 H 0.07397 0.03095 0.08236 0.0
H36 H 0.95911 0.01898 0.12278 0.0
H37 H 0.0982 -0.00043 0.99643 0.0
H38 H 0.1061 0.00045 0.07777 0.0
C39 C 0.35968 0.76345 0.26841 0.0
C40 C 0.37183 0.74259 0.27627 0.0
C41 C 0.33692 0.75951 0.2545 0.0
C42 C 0.32598 0.73463 0.24835 0.0
C43 C 0.33904 0.71381 0.25505 0.0
C44 C 0.36178 0.71777 0.26895 0.0
C45 C 0.29994 0.73042 0.2373 0.0
C46 C 0.29234 0.74485 0.21745 0.0
C47 C 0.26713 0.7418 0.20805 0.0
C48 C 0.24966 0.72391 0.21888 0.0
C49 C 0.25718 0.70896 0.23828 0.0
C50 C 0.28226 0.71245 0.24747 0.0
C51 C 0.23913 0.68905 0.24848 0.0
C52 C 0.23806 0.68568 0.27471 0.0
C53 C 0.2238 0.67239 0.23184 0.0
C54 C 0.20824 0.65234 0.24119 0.0
C55 C 0.20773 0.64873 0.26728 0.0
C56 C 0.25907 0.75697 0.18682 0.0
C57 C 0.27005 0.78197 0.18398 0.0
C58 C 0.24046 0.74648 0.169 0.0
C59 C 0.23316 0.76052 0.14893 0.0
C60 C 0.24491 0.78501 0.14571 0.0
C61 C 0.26325 0.7957 0.16348 0.0
C62 C 0.22245 0.66563 0.28405 0.0
H63 H 0.36721 0.78273 0.27404 0.0
H64 H 0.32722 0.7759 0.24977 0.0
H65 H 0.33125 0.69443 0.25023 0.0
H66 H 0.37098 0.70149 0.2749 0.0
H67 H 0.30631 0.75806 0.20908 0.0
H68 H 0.28803 0.70113 0.26267 0.0
H69 H 0.23 0.72175 0.21255 0.0
H70 H 0.24947 0.69841 0.28797 0.0
H71 H 0.22445 0.67436 0.21153 0.0
H72 H 0.19699 0.63932 0.22806 0.0
H73 H 0.28391 0.79105 0.19756 0.0
H74 H 0.23185 0.72718 0.17011 0.0
H75 H 0.22217 0.66301 0.30426 0.0
H76 H 0.27241 0.81467 0.16139 0.0
H77 H 0.21894 0.75196 0.1354 0.0
C78 C 0.99872 0.48461 0.16025 0.0
C79 C 0.02459 0.48072 0.1592 0.0
C80 C 0.98376 0.48192 0.13818 0.0
C81 C 0.99447 0.47536 0.11468 0.0
C82 C 0.02032 0.47082 0.11388 0.0
C83 C 0.03524 0.47343 0.13599 0.0
C84 C 0.97894 0.4739 0.09099 0.0
C85 C 0.96185 0.49226 0.08685 0.0
C86 C 0.94733 0.4912 0.06435 0.0
C87 C 0.95008 0.47147 0.04585 0.0
C88 C 0.96714 0.45305 0.04963 0.0
C89 C 0.98143 0.45437 0.07226 0.0
C90 C 0.97023 0.43252 0.02986 0.0
C91 C 0.94885 0.41934 0.01761 0.0
C92 C 0.99461 0.42596 0.02314 0.0
C93 C 0.99754 0.40661 0.00454 0.0
C94 C 0.97614 0.39344 0.99249 0.0
C95 C 0.92955 0.51086 0.05995 0.0
C96 C 0.93671 0.53681 0.06623 0.0
C97 C 0.90536 0.50381 0.0491 0.0
C98 C 0.88886 0.52231 0.04435 0.0
C99 C 0.89623 0.54814 0.05033 0.0
C100 C 0.92017 0.55531 0.06146 0.0
C101 C 0.95179 0.39989 0.99912 0.0
H102 H 0.99025 0.49023 0.17808 0.0
H103 H 0.96383 0.48511 0.1395 0.0
H104 H 0.0292 0.46599 0.09606 0.0
H105 H 0.05525 0.47049 0.13492 0.0
H106 H 0.95991 0.50749 0.10114 0.0
H107 H 0.99417 0.43983 0.07551 0.0
H108 H 0.93947 0.47088 0.02814 0.0
H109 H 0.92984 0.42383 0.02258 0.0
H110 H 0.01143 0.43599 0.03205 0.0
H111 H 0.01646 0.40188 -0.00048 0.0
H112 H 0.9553 0.54287 0.07435 0.0
H113 H 0.89915 0.48398 0.04437 0.0
H114 H 0.93509 0.38985 0.98997 0.0
H115 H 0.92611 0.57522 0.06614 0.0
H116 H 0.87038 0.5165 0.03581 0.0
C117 C 0.73234 0.73027 0.17384 0.0
C118 C 0.75774 0.72734 0.16785 0.0
C119 C 0.72639 0.74364 0.19624 0.0
C120 C 0.74582 0.75432 0.21296 0.0
C121 C 0.77119 0.75015 0.20747 0.0
C122 C 0.77711 0.73674 0.18506 0.0
C123 C 0.73983 0.77183 0.23459 0.0
C124 C 0.71856 0.76627 0.24979 0.0
C125 C 0.712 0.78391 0.26899 0.0
C126 C 0.72678 0.8073 0.27283 0.0
C127 C 0.74774 0.81336 0.25743 0.0
C128 C 0.75435 0.79535 0.23866 0.0
C129 C 0.7617 0.83908 0.25976 0.0
C130 C 0.76853 0.85203 0.23787 0.0
C131 C 0.768 0.85103 0.28373 0.0
C132 C 0.78113 0.87527 0.28573 0.0
C133 C 0.78809 0.88791 0.26381 0.0
C134 C 0.68847 0.7791 0.28364 0.0
C135 C 0.6652 0.77226 0.27092 0.0
C136 C 0.68876 0.7834 0.31016 0.0
C137 C 0.66606 0.78169 0.32362 0.0
C138 C 0.64274 0.77617 0.31068 0.0
C139 C 0.64249 0.77096 0.28433 0.0
C140 C 0.78166 0.87622 0.23989 0.0
H141 H 0.7172 0.72312 0.16066 0.0
H142 H 0.70672 0.74675 0.19981 0.0
H143 H 0.78651 0.75791 0.22015 0.0
H144 H 0.79681 0.73452 0.18067 0.0
H145 H 0.70704 0.7483 0.24664 0.0
H146 H 0.77042 0.80001 0.2266 0.0
H147 H 0.72107 0.82137 0.28688 0.0
H148 H 0.76352 0.84357 0.21914 0.0
H149 H 0.76312 0.84147 0.30091 0.0
H150 H 0.78608 0.8841 0.30434 0.0
H151 H 0.66447 0.76908 0.25047 0.0
H152 H 0.7065 0.78858 0.32036 0.0
H153 H 0.78692 0.8858 0.22281 0.0
H154 H 0.62465 0.76667 0.27406 0.0
H155 H 0.66657 0.78565 0.34398 0.0
C156 C 0.97656 0.02273 0.4211 0.0
C157 C 0.98381 0.02838 0.39643 0.0
C158 C 0.99496 0.01912 0.43936 0.0
C159 C 0.02089 0.02098 0.43318 0.0
C160 C 0.02805 0.0272 0.4085 0.0
C161 C 0.00963 0.03089 0.39027 0.0
C162 C 0.04034 0.01587 0.45225 0.0
C163 C 0.03579 0.99558 0.46827 0.0
C164 C 0.05394 0.9906 0.48653 0.0
C165 C 0.07697 0.00611 0.48846 0.0
C166 C 0.08198 0.02621 0.47235 0.0
C167 C 0.06357 0.03102 0.45436 0.0
C168 C 0.10653 0.04212 0.47433 0.0
C169 C 0.11663 0.05104 0.49822 0.0
C170 C 0.12017 0.04819 0.45238 0.0
C171 C 0.14357 0.06277 0.45432 0.0
C172 C 0.15353 0.0716 0.4782 0.0
C173 C 0.04889 0.96915 0.50344 0.0
C174 C 0.02446 0.9636 0.51324 0.0
C175 C 0.06837 0.95398 0.50984 0.0
C176 C 0.06347 0.93371 0.52559 0.0
C177 C 0.03897 0.9281 0.53488 0.0
C178 C 0.01953 0.94318 0.52873 0.0
C179 C 0.13995 0.0657 0.50012 0.0
H180 H 0.95665 0.02071 0.42605 0.0
H181 H 0.98887 0.01475 0.4583 0.0
H182 H 0.04782 0.0285 0.40307 0.0
H183 H 0.01543 0.03505 0.37119 0.0
H184 H 0.01831 0.98323 0.46606 0.0
H185 H 0.06713 0.04696 0.44237 0.0
H186 H 0.0911 0.00253 0.5025 0.0
H187 H 0.1064 0.04687 0.51541 0.0
H188 H 0.11293 0.04133 0.43377 0.0
H189 H 0.15393 0.06716 0.43725 0.0
H190 H 0.00915 0.97515 0.5091 0.0
H191 H 0.08731 0.95747 0.50236 0.0
H192 H 0.14744 0.07248 0.51868 0.0
H193 H 0.00055 0.93912 0.53594 0.0
H194 H 0.07863 0.92214 0.53019 0.0
C195 C 0.14663 0.75309 0.71129 0.0
C196 C 0.14133 0.77838 0.70858 0.0
C197 C 0.16783 0.74782 0.72543 0.0
C198 C 0.18393 0.76781 0.73711 0.0
C199 C 0.17928 0.79316 0.73311 0.0
C200 C 0.15812 0.7984 0.71894 0.0
C201 C 0.20387 0.76235 0.75547 0.0
C202 C 0.21961 0.74257 0.75041 0.0
C203 C 0.23751 0.73694 0.76861 0.0
C204 C 0.23927 0.75081 0.79209 0.0
C205 C 0.22323 0.77009 0.79765 0.0
C206 C 0.20588 0.776 0.77912 0.0
C207 C 0.22345 0.78302 0.82329 0.0
C208 C 0.22359 0.7687 0.84499 0.0
C209 C 0.22268 0.80959 0.82625 0.0
C210 C 0.22213 0.8216 0.85045 0.0
C211 C 0.22215 0.80719 0.87198 0.0
C212 C 0.25339 0.71549 0.76419 0.0
C213 C 0.24192 0.69064 0.75928 0.0
C214 C 0.27985 0.71936 0.76772 0.0
C215 C 0.29452 0.69859 0.76742 0.0
C216 C 0.28283 0.67365 0.76416 0.0
C217 C 0.25653 0.66982 0.75946 0.0
C218 C 0.22287 0.78071 0.86918 0.0
H219 H 0.13374 0.73745 0.70343 0.0
H220 H 0.1708 0.72813 0.72835 0.0
H221 H 0.19155 0.80893 0.74163 0.0
H222 H 0.15425 0.81802 0.71694 0.0
H223 H 0.21804 0.73166 0.73238 0.0
H224 H 0.19295 0.7904 0.78364 0.0
H225 H 0.25273 0.7461 0.80634 0.0
H226 H 0.2238 0.74816 0.84325 0.0
H227 H 0.22269 0.82107 0.80985 0.0
H228 H 0.2217 0.84211 0.85243 0.0
H229 H 0.22151 0.68725 0.75671 0.0
H230 H 0.28905 0.7384 0.77151 0.0
H231 H 0.22293 0.7694 0.8857 0.0
H232 H 0.24722 0.65069 0.75692 0.0
H233 H 0.3148 0.70187 0.77099 0.0
C234 C 0.92935 0.65627 0.53496 0.0
C235 C 0.95348 0.66423 0.54521 0.0
C236 C 0.92501 0.63252 0.52189 0.0
C237 C 0.94479 0.61649 0.51888 0.0
C238 C 0.96897 0.62468 0.52915 0.0
C239 C 0.97327 0.64839 0.54221 0.0
C240 C 0.94029 0.5913 0.50503 0.0
C241 C 0.95811 0.58317 0.48751 0.0
C242 C 0.95416 0.55928 0.47438 0.0
C243 C 0.93206 0.54347 0.47884 0.0
C244 C 0.91399 0.55138 0.49622 0.0
C245 C 0.91826 0.57527 0.50932 0.0
C246 C 0.89068 0.53461 0.50059 0.0
C247 C 0.87678 0.52239 0.4799 0.0
C248 C 0.88253 0.53019 0.52539 0.0
C249 C 0.86123 0.51328 0.5294 0.0
C250 C 0.84776 0.50079 0.50866 0.0
C251 C 0.97305 0.55097 0.45588 0.0
C252 C 0.98346 0.56791 0.4383 0.0
C253 C 0.98097 0.52619 0.45581 0.0
C254 C -0.00082 0.51862 0.43861 0.0
C255 C 0.00952 0.53567 0.42118 0.0
C256 C 0.00154 0.5603 0.42107 0.0
C257 C 0.85546 0.50564 0.48392 0.0
H258 H 0.91393 0.6684 0.53716 0.0
H259 H 0.90628 0.62682 0.51391 0.0
H260 H 0.98447 0.6126 0.52738 0.0
H261 H 0.99197 0.65433 0.55017 0.0
H262 H 0.97514 0.59549 0.48407 0.0
H263 H 0.9044 0.58137 0.52285 0.0
H264 H 0.92889 0.525 0.46872 0.0
H265 H 0.88247 0.52572 0.46061 0.0
H266 H 0.89304 0.53924 0.54165 0.0
H267 H 0.85555 0.50953 0.54861 0.0
H268 H 0.97748 0.58699 0.43774 0.0
H269 H 0.97342 0.51285 0.46933 0.0
H270 H 0.8452 0.49606 0.46774 0.0
H271 H 0.0094 0.57364 0.40768 0.0
H272 H 0.00531 0.49959 0.43895 0.0
C273 C 0.82506 0.76698 0.88902 0.0
C274 C 0.8022 0.75438 0.89679 0.0
C275 C 0.82498 0.78428 0.86991 0.0
C276 C 0.80206 0.78898 0.85794 0.0
C277 C 0.77921 0.77614 0.86578 0.0
C278 C 0.77928 0.7591 0.8851 0.0
C279 C 0.80203 0.8069 0.83714 0.0
C280 C 0.82166 0.80789 0.81932 0.0
C281 C 0.82196 0.82479 0.79967 0.0
C282 C 0.80229 0.8408 0.79783 0.0
C283 C 0.78241 0.83997 0.81529 0.0
C284 C 0.7824 0.82302 0.8349 0.0
C285 C 0.76178 0.857 0.81308 0.0
C286 C 0.76764 0.88299 0.80916 0.0
C287 C 0.73617 0.84744 0.81477 0.0
C288 C 0.7168 0.86363 0.81266 0.0
C289 C 0.72281 0.88965 0.8092 0.0
C290 C 0.84257 0.82536 0.78076 0.0
C291 C 0.85366 0.8487 0.77253 0.0
C292 C 0.85109 0.80248 0.77061 0.0
C293 C 0.87021 0.80291 0.75255 0.0
C294 C 0.88109 0.82619 0.74433 0.0
C295 C 0.87279 0.8491 0.75439 0.0
C296 C 0.74831 0.89919 0.80732 0.0
H297 H 0.84291 0.76353 0.89787 0.0
H298 H 0.84288 0.79412 0.86468 0.0
H299 H 0.76128 0.77893 0.85673 0.0
H300 H 0.76147 0.7494 0.89082 0.0
H301 H 0.83675 0.79539 0.82066 0.0
H302 H 0.7674 0.82291 0.84879 0.0
H303 H 0.80205 0.85347 0.78236 0.0
H304 H 0.78722 0.89088 0.80795 0.0
H305 H 0.73116 0.82742 0.81751 0.0
H306 H 0.69716 0.856 0.81406 0.0
H307 H 0.84765 0.86662 0.7802 0.0
H308 H 0.84266 0.78421 0.77627 0.0
H309 H 0.75324 0.91925 0.80469 0.0
H310 H 0.88102 0.8672 0.74811 0.0
H311 H 0.87635 0.78508 0.74476 0.0
C312 C 0.33858 0.28864 0.38982 0.0
C313 C 0.3162 0.27447 0.39662 0.0
C314 C 0.33804 0.30586 0.37066 0.0
C315 C 0.31514 0.30898 0.35783 0.0
C316 C 0.29275 0.2948 0.36492 0.0
C317 C 0.29328 0.27777 0.38419 0.0
C318 C 0.31466 0.32635 0.33662 0.0
C319 C 0.33448 0.32775 0.31906 0.0
C320 C 0.33382 0.34341 0.29843 0.0
C321 C 0.3131 0.35793 0.29547 0.0
C322 C 0.2931 0.35669 0.31281 0.0
C323 C 0.29403 0.34095 0.33333 0.0
C324 C 0.27122 0.37194 0.30974 0.0
C325 C 0.27521 0.39824 0.30656 0.0
C326 C 0.24624 0.36044 0.3109 0.0
C327 C 0.22559 0.37512 0.30944 0.0
C328 C 0.22968 0.40156 0.3073 0.0
C329 C 0.35418 0.34326 0.27933 0.0
C330 C 0.37981 0.34445 0.28704 0.0
C331 C 0.34799 0.3399 0.25334 0.0
C332 C 0.36697 0.33651 0.23553 0.0
C333 C 0.39237 0.33669 0.24346 0.0
C334 C 0.39879 0.34125 0.26921 0.0
C335 C 0.25458 0.41297 0.30551 0.0
H336 H 0.35643 0.28622 0.39924 0.0
H337 H 0.35556 0.31672 0.3659 0.0
H338 H 0.27489 0.29636 0.35518 0.0
H339 H 0.27587 0.26681 0.38913 0.0
H340 H 0.35 0.31581 0.32081 0.0
H341 H 0.27882 0.34046 0.34699 0.0
H342 H 0.31239 0.36998 0.27953 0.0
H343 H 0.2943 0.40752 0.30571 0.0
H344 H 0.24272 0.34013 0.3131 0.0
H345 H 0.20646 0.36602 0.31068 0.0
H346 H 0.38509 0.34724 0.30694 0.0
H347 H 0.32837 0.33866 0.24691 0.0
H348 H 0.25804 0.43336 0.3038 0.0
H349 H 0.41836 0.34134 0.27555 0.0
H350 H 0.36178 0.33284 0.21569 0.0
C351 C 0.48899 0.97855 0.66173 0.0
C352 C 0.51458 0.97359 0.66048 0.0
C353 C 0.47383 0.97629 0.63978 0.0
C354 C 0.48409 0.96908 0.61624 0.0
C355 C 0.50954 0.96318 0.61532 0.0
C356 C 0.52465 0.96539 0.63729 0.0
C357 C 0.46883 0.96904 0.59249 0.0
C358 C 0.4537 0.98907 0.58835 0.0
C359 C 0.4406 0.99016 0.56521 0.0
C360 C 0.44278 0.97086 0.54613 0.0
C361 C 0.45761 0.95061 0.55006 0.0
C362 C 0.47042 0.94974 0.57333 0.0
C363 C 0.46049 0.9308 0.52957 0.0
C364 C 0.45834 0.90486 0.53483 0.0
C365 C 0.4661 0.93775 0.50476 0.0
C366 C 0.46986 0.91913 0.48566 0.0
C367 C 0.46784 0.89331 0.49107 0.0
C368 C 0.42516 0.01173 0.56063 0.0
C369 C 0.43403 0.0369 0.56861 0.0
C370 C 0.40169 0.00735 0.54766 0.0
C371 C 0.3877 0.02767 0.54227 0.0
C372 C 0.39684 0.05272 0.54983 0.0
C373 C 0.41992 0.05723 0.56332 0.0
C374 C 0.46189 0.88624 0.51568 0.0
H375 H 0.48099 0.98494 0.67954 0.0
H376 H 0.4542 0.98058 0.64115 0.0
H377 H 0.51811 0.95787 0.59747 0.0
H378 H 0.54445 0.96167 0.63606 0.0
H379 H 0.45243 0.00408 0.60302 0.0
H380 H 0.48207 0.93424 0.57632 0.0
H381 H 0.43314 0.97169 0.52803 0.0
H382 H 0.45384 0.89899 0.55374 0.0
H383 H 0.46813 0.95762 0.50026 0.0
H384 H 0.47451 0.92481 0.46672 0.0
H385 H 0.45215 0.04097 0.57838 0.0
H386 H 0.39411 0.98818 0.54164 0.0
H387 H 0.46026 0.86633 0.52006 0.0
H388 H 0.4272 0.0765 0.56929 0.0
H389 H 0.36982 0.02389 0.53197 0.0
C390 C 0.23302 0.23949 0.6641 0.0
C391 C 0.25909 0.23945 0.65942 0.0
C392 C 0.22457 0.25269 0.68562 0.0
C393 C 0.24212 0.26611 0.70274 0.0
C394 C 0.26829 0.26484 0.69863 0.0
C395 C 0.27671 0.25159 0.67712 0.0
C396 C 0.23315 0.28345 0.72319 0.0
C397 C 0.21186 0.27602 0.73776 0.0
C398 C 0.20202 0.29338 0.75549 0.0
C399 C 0.21401 0.31831 0.75852 0.0
C400 C 0.23555 0.32583 0.74453 0.0
C401 C 0.24498 0.30829 0.72692 0.0
C402 C 0.24809 0.35211 0.74815 0.0
C403 C 0.25649 0.36574 0.72716 0.0
C404 C 0.25228 0.36352 0.77271 0.0
C405 C 0.26521 0.38774 0.77623 0.0
C406 C 0.27411 0.40092 0.75526 0.0
C407 C 0.17858 0.28622 0.77001 0.0
C408 C 0.15854 0.26979 0.7589 0.0
C409 C 0.17536 0.29713 0.7946 0.0
C410 C 0.15219 0.2933 0.80691 0.0
C411 C 0.13193 0.27788 0.79527 0.0
C412 C 0.13556 0.26539 0.77159 0.0
C413 C 0.26943 0.38996 0.7307 0.0
H414 H 0.21921 0.2302 0.65054 0.0
H415 H 0.20433 0.2535 0.68811 0.0
H416 H 0.28224 0.27474 0.71167 0.0
H417 H 0.29691 0.25163 0.67376 0.0
H418 H 0.20307 0.25668 0.73524 0.0
H419 H 0.26137 0.31417 0.71574 0.0
H420 H 0.2061 0.33232 0.77119 0.0
H421 H 0.25319 0.35762 0.708 0.0
H422 H 0.24622 0.35341 0.78924 0.0
H423 H 0.26886 0.39595 0.79531 0.0
H424 H 0.1601 0.26116 0.73997 0.0
H425 H 0.19056 0.30919 0.80419 0.0
H426 H 0.27626 0.39995 0.71435 0.0
H427 H 0.12016 0.25328 0.76238 0.0
H428 H 0.14985 0.30288 0.82532 0.0
C429 C 0.84728 0.27061 0.77037 0.0
C430 C 0.86068 0.25036 0.77769 0.0
C431 C 0.82476 0.26573 0.75619 0.0
C432 C 0.81531 0.24053 0.74919 0.0
C433 C 0.82944 0.22039 0.75568 0.0
C434 C 0.85193 0.22528 0.76985 0.0
C435 C 0.78996 0.23515 0.73677 0.0
C436 C 0.78256 0.24966 0.71692 0.0
C437 C 0.7581 0.24519 0.70583 0.0
C438 C 0.74113 0.22578 0.71497 0.0
C439 C 0.74848 0.21073 0.7344 0.0
C440 C 0.77285 0.21566 0.74526 0.0
C441 C 0.73111 0.1893 0.74293 0.0
C442 C 0.72923 0.18457 0.76886 0.0
C443 C 0.71728 0.17263 0.72508 0.0
C444 C 0.7024 0.15134 0.73294 0.0
C445 C 0.70114 0.14641 0.75875 0.0
C446 C 0.75054 0.26032 0.68437 0.0
C447 C 0.76011 0.28598 0.68283 0.0
C448 C 0.73422 0.24904 0.66484 0.0
C449 C 0.72804 0.26288 0.64419 0.0
C450 C 0.73864 0.28802 0.64223 0.0
C451 C 0.75446 0.29957 0.66184 0.0
C452 C 0.7144 0.16325 0.77669 0.0
H453 H 0.85384 0.29008 0.77636 0.0
H454 H 0.8142 0.2816 0.75163 0.0
H455 H 0.82284 0.20081 0.75021 0.0
H456 H 0.86214 0.20947 0.77533 0.0
H457 H 0.79621 0.264 0.70977 0.0
H458 H 0.77855 0.20422 0.76039 0.0
H459 H 0.722 0.22249 0.70725 0.0
H460 H 0.73938 0.19726 0.78307 0.0
H461 H 0.71857 0.17559 0.70497 0.0
H462 H 0.69224 0.13844 0.7189 0.0
H463 H 0.77214 0.29562 0.69773 0.0
H464 H 0.72674 0.22927 0.665 0.0
H465 H 0.7135 0.15969 0.79669 0.0
H466 H 0.76267 0.31904 0.66074 0.0
H467 H 0.71576 0.25368 0.62924 0.0
C468 C 0.51156 0.61875 0.47745 0.0
C469 C 0.52069 0.64401 0.48445 0.0
C470 C 0.51526 0.5992 0.49355 0.0
C471 C 0.5277 0.60476 0.51704 0.0
C472 C 0.5373 0.62988 0.52383 0.0
C473 C 0.53412 0.64935 0.50748 0.0
C474 C 0.5294 0.58459 0.53503 0.0
C475 C 0.5447 0.56463 0.52974 0.0
C476 C 0.54603 0.54515 0.54673 0.0
C477 C 0.53131 0.54564 0.56877 0.0
C478 C 0.51558 0.56535 0.57406 0.0
C479 C 0.51504 0.585 0.55723 0.0
C480 C 0.49935 0.56499 0.59686 0.0
C481 C 0.48587 0.54212 0.60337 0.0
C482 C 0.49722 0.58732 0.61226 0.0
C483 C 0.4822 0.58664 0.63396 0.0
C484 C 0.46906 0.56366 0.64043 0.0
C485 C 0.56308 0.52457 0.54177 0.0
C486 C 0.58774 0.53034 0.53265 0.0
C487 C 0.55509 0.49912 0.54666 0.0
C488 C 0.57147 0.47993 0.54262 0.0
C489 C 0.59603 0.48588 0.53358 0.0
C490 C 0.60406 0.51115 0.52861 0.0
C491 C 0.47083 0.54148 0.62496 0.0
H492 H 0.50111 0.6143 0.45979 0.0
H493 H 0.50766 0.5799 0.4881 0.0
H494 H 0.54697 0.63445 0.5419 0.0
H495 H 0.54131 0.66872 0.51316 0.0
H496 H 0.55552 0.56432 0.51238 0.0
H497 H 0.50281 0.6002 0.56092 0.0
H498 H 0.5325 0.53093 0.58218 0.0
H499 H 0.48682 0.52471 0.59167 0.0
H500 H 0.50752 0.60516 0.6078 0.0
H501 H 0.48103 0.60389 0.64584 0.0
H502 H 0.5946 0.54977 0.52908 0.0
H503 H 0.53613 0.49403 0.55344 0.0
H504 H 0.46074 0.52363 0.62975 0.0
H505 H 0.62304 0.51602 0.52172 0.0
H506 H 0.56504 0.46047 0.54652 0.0
C507 C 0.466 0.5051 0.91516 0.0
C508 C 0.47261 0.52452 0.89867 0.0
C509 C 0.4831 0.49933 0.93387 0.0
C510 C 0.50779 0.51197 0.93578 0.0
C511 C 0.51415 0.53158 0.91916 0.0
C512 C 0.49654 0.53823 0.90139 0.0
C513 C 0.52704 0.50432 0.95431 0.0
C514 C 0.52539 0.47952 0.96325 0.0
C515 C 0.54355 0.47227 0.98037 0.0
C516 C 0.56473 0.48935 0.98701 0.0
C517 C 0.56715 0.51403 0.9781 0.0
C518 C 0.54762 0.52163 0.96278 0.0
C519 C 0.59048 0.53152 0.98402 0.0
C520 C 0.60405 0.53048 0.00698 0.0
C521 C 0.60014 0.54854 0.96605 0.0
C522 C 0.62278 0.56384 0.97079 0.0
C523 C 0.63669 0.56191 0.99322 0.0
C524 C 0.53967 0.44755 0.99269 0.0
C525 C 0.51541 0.43906 0.00132 0.0
C526 C 0.56037 0.43357 0.99815 0.0
C527 C 0.55711 0.41248 0.0131 0.0
C528 C 0.53306 0.40486 0.02247 0.0
C529 C 0.51214 0.41786 0.01603 0.0
C530 C 0.62714 0.54519 0.01131 0.0
H531 H 0.44754 0.49436 0.91355 0.0
H532 H 0.47676 0.48481 0.94665 0.0
H533 H 0.53293 0.54155 0.91915 0.0
H534 H 0.50203 0.55339 0.88895 0.0
H535 H 0.5102 0.46549 0.95683 0.0
H536 H 0.54855 0.54123 0.95761 0.0
H537 H 0.57924 0.48341 -0.00063 0.0
H538 H 0.59702 0.51822 0.02162 0.0
H539 H 0.59066 0.54962 0.94794 0.0
H540 H 0.62987 0.57667 0.9566 0.0
H541 H 0.49913 0.44952 0.99779 0.0
H542 H 0.57922 0.4393 0.99143 0.0
H543 H 0.63757 0.54356 0.02882 0.0
H544 H 0.49347 0.41219 0.02326 0.0
H545 H 0.57341 0.40253 0.01791 0.0
C546 C 0.66118 0.25174 0.20912 0.0
C547 C 0.65709 0.27718 0.20535 0.0
C548 C 0.68262 0.24599 0.22257 0.0
C549 C 0.70018 0.26566 0.23255 0.0
C550 C 0.69682 0.29102 0.22731 0.0
C551 C 0.67545 0.29674 0.21371 0.0
C552 C 0.71996 0.26006 0.25097 0.0
C553 C 0.73472 0.23939 0.24657 0.0
C554 C 0.75204 0.23332 0.26515 0.0
C555 C 0.75414 0.24769 0.28836 0.0
C556 C 0.73897 0.26784 0.29329 0.0
C557 C 0.72231 0.2742 0.27433 0.0
C558 C 0.73879 0.28082 0.3189 0.0
C559 C 0.7378 0.26646 0.34063 0.0
C560 C 0.73812 0.30741 0.32178 0.0
C561 C 0.73619 0.31935 0.34587 0.0
C562 C 0.7348 0.30487 0.36738 0.0
C563 C 0.76658 0.21075 0.2616 0.0
C564 C 0.75379 0.18648 0.25653 0.0
C565 C 0.79293 0.21299 0.26618 0.0
C566 C 0.80611 0.19122 0.2668 0.0
C567 C 0.79301 0.16691 0.26334 0.0
C568 C 0.7669 0.16468 0.25758 0.0
C569 C 0.73579 0.27841 0.36469 0.0
H570 H 0.64714 0.23644 0.20274 0.0
H571 H 0.68462 0.22632 0.22649 0.0
H572 H 0.7102 0.3065 0.23462 0.0
H573 H 0.67257 0.31646 0.21085 0.0
H574 H 0.73271 0.22802 0.22881 0.0
H575 H 0.70994 0.28922 0.27834 0.0
H576 H 0.767 0.24258 0.30297 0.0
H577 H 0.73788 0.24591 0.33897 0.0
H578 H 0.73899 0.31894 0.3054 0.0
H579 H 0.73556 0.33984 0.34775 0.0
H580 H 0.73343 0.18433 0.25318 0.0
H581 H 0.80315 0.23154 0.27011 0.0
H582 H 0.73475 0.26704 0.38119 0.0
H583 H 0.75652 0.14605 0.25489 0.0
H584 H 0.82628 0.19327 0.27119 0.0
C585 C 0.47663 0.14085 0.0411 0.0
C586 C 0.47219 0.14257 0.06721 0.0
C587 C 0.473 0.11735 0.02758 0.0
C588 C 0.46492 0.0952 0.04002 0.0
C589 C 0.46037 0.09706 0.06623 0.0
C590 C 0.46402 0.12063 0.07976 0.0
C591 C 0.46101 0.07034 0.02546 0.0
C592 C 0.47841 0.06376 0.00683 0.0
C593 C 0.47404 0.0411 0.99167 0.0
C594 C 0.45222 0.0247 0.99556 0.0
C595 C 0.4346 0.03104 0.0141 0.0
C596 C 0.43924 0.05377 0.02916 0.0
C597 C 0.41053 0.01482 0.01652 0.0
C598 C 0.39643 0.00575 0.99469 0.0
C599 C 0.40121 0.00876 0.04053 0.0
C600 C 0.37829 0.99367 0.04261 0.0
C601 C 0.36437 0.98467 0.02072 0.0
C602 C 0.49144 0.03543 0.97074 0.0
C603 C 0.49935 0.05451 0.95423 0.0
C604 C 0.49979 0.01097 0.96676 0.0
C605 C 0.51589 0.00575 0.94663 0.0
C606 C 0.52354 0.02485 0.93012 0.0
C607 C 0.51523 0.04923 0.93405 0.0
C608 C 0.37352 0.9908 0.99679 0.0
H609 H 0.48289 0.15772 0.03122 0.0
H610 H 0.47623 0.11658 0.00733 0.0
H611 H 0.4543 0.08027 0.0763 0.0
H612 H 0.46062 0.12178 0.09999 0.0
H613 H 0.49541 0.07634 0.00403 0.0
H614 H 0.42526 0.05916 0.04289 0.0
H615 H 0.4486 0.00732 0.98365 0.0
H616 H 0.40296 0.01048 0.97598 0.0
H617 H 0.41179 0.01544 0.05763 0.0
H618 H 0.37144 0.9889 0.0612 0.0
H619 H 0.49291 0.07341 0.95668 0.0
H620 H 0.49404 0.996 0.97932 0.0
H621 H 0.36292 0.98394 0.97974 0.0
H622 H 0.521 0.06414 0.92141 0.0
H623 H 0.52229 0.98687 0.94383 0.0
O624 O 0.23399 0.8532 0.98892 0.0
Cd625 Cd 0.23938 0.87083 0.02462 0.0
Cd626 Cd 0.21632 0.90845 0.00158 0.0
O627 O 0.21188 0.8817 0.97173 0.0
O628 O 0.25337 0.84434 0.04446 0.0
O629 O 0.21707 0.86027 0.05381 0.0
C630 C 0.23406 0.84515 0.05907 0.0
C631 C 0.18249 0.9306 0.01499 0.0
C632 C 0.22187 0.86067 0.97025 0.0
C633 C 0.26994 0.92088 0.01908 0.0
O634 O 0.25161 0.9279 0.00633 0.0
O635 O 0.26821 0.89953 0.02915 0.0
O636 O 0.19366 0.9351 0.99389 0.0
O637 O 0.19009 0.9129 0.02841 0.0
O638 O 0.15313 0.54495 0.31292 0.0
Cd639 Cd 0.13385 0.51099 0.32162 0.0
Cd640 Cd 0.09777 0.52584 0.29031 0.0
O641 O 0.12427 0.5562 0.28628 0.0
O642 O 0.16035 0.49075 0.33477 0.0
O643 O 0.1381 0.47961 0.29942 0.0
C644 C 0.1559 0.47531 0.31514 0.0
C645 C 0.07889 0.50818 0.2529 0.0
C646 C 0.14568 0.56038 0.29745 0.0
C647 C 0.08357 0.51836 0.34452 0.0
O648 O 0.07674 0.5248 0.32286 0.0
O649 O 0.10565 0.51144 0.34823 0.0
O650 O 0.07282 0.52958 0.26288 0.0
O651 O 0.09557 0.49629 0.26439 0.0
O652 O 0.77703 0.69274 0.99513 0.0
Cd653 Cd 0.76269 0.67166 0.02391 0.0
Cd654 Cd 0.78912 0.63502 0.00312 0.0
O655 O 0.79732 0.66208 0.97657 0.0
O656 O 0.75164 0.69582 0.05074 0.0
O657 O 0.78138 0.66941 0.05675 0.0
C658 C 0.76751 0.68669 0.06571 0.0
C659 C 0.82218 0.61452 0.01958 0.0
C660 C 0.79035 0.68457 0.97708 0.0
C661 C 0.73255 0.62354 0.00745 0.0
O662 O 0.7537 0.61477 0.00251 0.0
O663 O 0.73171 0.64659 0.01532 0.0
O664 O 0.81345 0.60876 0.99693 0.0
O665 O 0.81255 0.63249 0.03287 0.0
O666 O 0.91571 0.02444 0.29468 0.0
Cd667 Cd 0.89369 0.02005 0.26213 0.0
Cd668 Cd 0.85935 0.03889 0.29327 0.0
O669 O 0.88784 0.04088 0.32035 0.0
O670 O 0.91823 0.01477 0.23439 0.0
O671 O 0.89453 0.04742 0.23703 0.0
C672 C 0.91151 0.03535 0.22527 0.0
C673 C 0.84142 0.07563 0.28324 0.0
C674 C 0.9097 0.03334 0.31643 0.0
C675 C 0.84656 0.98604 0.27093 0.0
O676 O 0.83953 0.00383 0.2857 0.0
O677 O 0.86733 0.98885 0.25903 0.0
O678 O 0.83452 0.06374 0.30314 0.0
O679 O 0.8586 0.06659 0.26897 0.0
O680 O 0.28919 0.20473 0.48941 0.0
Cd681 Cd 0.27588 0.1816 0.51748 0.0
Cd682 Cd 0.30384 0.14834 0.49298 0.0
O683 O 0.31474 0.17848 0.47111 0.0
O684 O 0.26134 0.20465 0.54335 0.0
O685 O 0.29339 0.18173 0.55146 0.0
C686 C 0.27748 0.19754 0.55933 0.0
C687 C 0.33344 0.12622 0.51291 0.0
C688 C 0.30517 0.19976 0.4724 0.0
C689 C 0.24798 0.13424 0.49413 0.0
O690 O 0.26907 0.12844 0.48523 0.0
O691 O 0.24661 0.15443 0.50806 0.0
O692 O 0.32915 0.12287 0.48882 0.0
O693 O 0.32162 0.14304 0.52566 0.0
O694 O 0.40645 0.52473 0.79605 0.0
Cd695 Cd 0.38723 0.52502 0.76216 0.0
Cd696 Cd 0.3544 0.54802 0.79096 0.0
O697 O 0.38329 0.5506 0.81795 0.0
O698 O 0.41288 0.5191 0.73573 0.0
O699 O 0.39304 0.55443 0.73968 0.0
C700 C 0.40931 0.54129 0.72802 0.0
C701 C 0.33604 0.58475 0.78138 0.0
C702 C 0.40239 0.5376 0.81641 0.0
C703 C 0.33773 0.49564 0.76827 0.0
O704 O 0.33292 0.5134 0.78428 0.0
O705 O 0.35813 0.49715 0.75572 0.0
O706 O 0.33002 0.57303 0.80159 0.0
O707 O 0.35278 0.57569 0.76656 0.0
O708 O 0.73755 0.35347 0.48377 0.0
Cd709 Cd 0.73885 0.37223 0.51914 0.0
Cd710 Cd 0.71127 0.4041 0.49472 0.0
O711 O 0.71097 0.377 0.46527 0.0
O712 O 0.75386 0.34834 0.54144 0.0
O713 O 0.71508 0.36033 0.54665 0.0
C714 C 0.73307 0.3473 0.55404 0.0
C715 C 0.67439 0.42065 0.50855 0.0
C716 C 0.72454 0.3583 0.46455 0.0
C717 C 0.76287 0.42482 0.51291 0.0
O718 O 0.74377 0.42836 0.49926 0.0
O719 O 0.76389 0.40426 0.52411 0.0
O720 O 0.68437 0.42659 0.48723 0.0
O721 O 0.68473 0.40425 0.52168 0.0
O722 O 0.65264 0.03945 0.80237 0.0
Cd723 Cd 0.6345 0.00606 0.81427 0.0
Cd724 Cd 0.59475 0.02063 0.78717 0.0
O725 O 0.62008 0.05144 0.78098 0.0
O726 O 0.66201 0.9869 0.82715 0.0
O727 O 0.63707 0.97283 0.79439 0.0
C728 C 0.65568 0.96955 0.80955 0.0
C729 C 0.57326 0.0023 0.75144 0.0
C730 C 0.64293 0.0553 0.78881 0.0
C731 C 0.58659 0.01375 0.84241 0.0
O732 O 0.57692 0.01924 0.82154 0.0
O733 O 0.60932 0.00787 0.84366 0.0
O734 O 0.56738 0.02355 0.76196 0.0
O735 O 0.5912 0.99092 0.76149 0.0
O736 O 0.97213 0.29072 0.9194 0.0
Cd737 Cd 0.97217 0.25815 0.89609 0.0
Cd738 Cd 0.99746 0.28962 0.8652 0.0
O739 O 0.99713 0.31542 0.89594 0.0
O740 O 0.96475 0.22956 0.91869 0.0
O741 O 0.00123 0.23633 0.89856 0.0
C742 C 0.98738 0.22328 0.91416 0.0
C743 C 0.03572 0.28256 0.84591 0.0
C744 C 0.9844 0.31203 0.91596 0.0
C745 C 0.94667 0.26626 0.84686 0.0
O746 O 0.96501 0.28284 0.84309 0.0
O747 O 0.94631 0.25323 0.86642 0.0
O748 O 0.02493 0.3032 0.8429 0.0
O749 O 0.0248 0.26583 0.86019 0.0
O750 O 0.4759 0.79074 0.42092 0.0
Cd751 Cd 0.47912 0.75738 0.39947 0.0
Cd752 Cd 0.50306 0.78955 0.36803 0.0
O753 O 0.4971 0.81713 0.39586 0.0
O754 O 0.46989 0.72984 0.42288 0.0
O755 O 0.50841 0.73698 0.40712 0.0
C756 C 0.49309 0.72419 0.42164 0.0
C757 C 0.54396 0.78392 0.35493 0.0
C758 C 0.48494 0.81306 0.41611 0.0
C759 C 0.45563 0.76059 0.3479 0.0
O760 O 0.47325 0.77775 0.34372 0.0
O761 O 0.45498 0.74932 0.36858 0.0
O762 O 0.53192 0.80227 0.34701 0.0
O763 O 0.53279 0.76879 0.37065 0.0
O764 O 0.97375 0.79931 0.67388 0.0
Cd765 Cd 0.00117 0.78627 0.65033 0.0
Cd766 Cd 0.97968 0.81441 0.61692 0.0
O767 O 0.95692 0.82371 0.64677 0.0
O768 O 0.02558 0.77191 0.67314 0.0
O769 O 0.03622 0.80436 0.64916 0.0
C770 C 0.04267 0.78857 0.66539 0.0
C771 C 0.00164 0.84639 0.59572 0.0
C772 C 0.95748 0.81457 0.6685 0.0
C773 C 0.97749 0.75873 0.60381 0.0
O774 O 0.97092 0.78001 0.59725 0.0
O775 O 0.99003 0.7571 0.62418 0.0
O776 O 0.97755 0.84097 0.59211 0.0
O777 O 0.01342 0.83369 0.61163 0.0
O778 O 0.48638 0.29589 0.17973 0.0
Cd779 Cd 0.51316 0.27969 0.15755 0.0
Cd780 Cd 0.48753 0.29866 0.11968 0.0
O781 O 0.46491 0.31088 0.14859 0.0
O782 O 0.53985 0.27116 0.18144 0.0
O783 O 0.5473 0.29791 0.1508 0.0
C784 C 0.55571 0.28583 0.16929 0.0
C785 C 0.50559 0.32817 0.09289 0.0
C786 C 0.46806 0.30759 0.172 0.0
C787 C 0.49009 0.24249 0.11716 0.0
O788 O 0.48213 0.26123 0.10636 0.0
O789 O 0.50261 0.24573 0.13786 0.0
O790 O 0.48192 0.31988 0.09065 0.0
O791 O 0.5192 0.31957 0.11041 0.0
C792 C 0.24534 0.8297 0.90933 0.0
C793 C 0.22198 0.82002 0.8976 0.0
C794 C 0.19868 0.83444 0.93489 0.0
C795 C 0.22183 0.8461 0.94558 0.0
N796 N 0.26665 0.85869 0.94146 0.0
N797 N 0.17617 0.81517 0.89739 0.0
C798 C 0.24507 0.84468 0.93247 0.0
C799 C 0.19854 0.82292 0.90988 0.0
N800 N 0.2678 0.82427 0.8985 0.0
N801 N 0.17704 0.8337 0.94897 0.0
H802 H 0.17538 0.806 0.87934 0.0
H803 H 0.15844 0.81929 0.90409 0.0
H804 H 0.17653 0.84198 0.96734 0.0
H805 H 0.16011 0.82323 0.94335 0.0
H806 H 0.28539 0.82824 0.90757 0.0
H807 H 0.26879 0.81392 0.88117 0.0
H808 H 0.28343 0.86072 0.93128 0.0
H809 H 0.26729 0.87019 0.9582 0.0
C810 C 0.05466 0.53867 0.40729 0.0
C811 C 0.02923 0.52821 0.40322 0.0
C812 C 0.04135 0.50646 0.36362 0.0
C813 C 0.06574 0.52007 0.36581 0.0
N814 N 0.0947 0.55199 0.3881 0.0
N815 N 0.99737 0.50399 0.37659 0.0
C816 C 0.07232 0.53674 0.38735 0.0
C817 C 0.02229 0.51241 0.38121 0.0
N818 N 0.06194 0.55028 0.43031 0.0
N819 N 0.03664 0.48745 0.34508 0.0
H820 H 0.98286 0.50772 0.38916 0.0
H821 H 0.99079 0.49491 0.35947 0.0
H822 H 0.05037 0.48231 0.33214 0.0
H823 H 0.02004 0.4752 0.34403 0.0
H824 H 0.08081 0.55597 0.43526 0.0
H825 H 0.04942 0.55204 0.44536 0.0
H826 H 0.09907 0.56653 0.40201 0.0
H827 H 0.10802 0.55178 0.37367 0.0
C828 C 0.79499 0.70974 0.91083 0.0
C829 C 0.80206 0.73591 0.91702 0.0
C830 C 0.80767 0.72652 0.96151 0.0
C831 C 0.79661 0.70129 0.95595 0.0
N832 N 0.77572 0.67005 0.92555 0.0
N833 N 0.81199 0.77008 0.94887 0.0
C834 C 0.78939 0.69305 0.93062 0.0
C835 C 0.80773 0.74457 0.94253 0.0
N836 N 0.79391 0.70075 0.88603 0.0
N837 N 0.81865 0.73305 0.98477 0.0
H838 H 0.81189 0.78401 0.9356 0.0
H839 H 0.81343 0.77755 0.96756 0.0
H840 H 0.81957 0.72008 0.9989 0.0
H841 H 0.82911 0.75047 0.98907 0.0
H842 H 0.79133 0.68141 0.88055 0.0
H843 H 0.79813 0.71242 0.87101 0.0
H844 H 0.76764 0.6645 0.90781 0.0
H845 H 0.77023 0.65747 0.93945 0.0
C846 C 0.95335 0.00713 0.36377 0.0
C847 C 0.96423 0.02993 0.37651 0.0
C848 C 0.93957 0.05536 0.34957 0.0
C849 C 0.92766 0.03247 0.33786 0.0
N850 N 0.91909 0.98673 0.33708 0.0
N851 N 0.96545 0.07543 0.38461 0.0
C852 C 0.93339 0.00837 0.34588 0.0
C853 C 0.95664 0.054 0.37033 0.0
N854 N 0.96256 0.98435 0.36829 0.0
N855 N 0.93529 0.07828 0.3402 0.0
H856 H 0.97838 0.07512 0.39961 0.0
H857 H 0.95862 0.09316 0.38286 0.0
H858 H 0.9227 0.07996 0.32518 0.0
H859 H 0.94546 0.09545 0.34603 0.0
H860 H 0.95749 0.96755 0.35745 0.0
H861 H 0.97681 0.98251 0.38168 0.0
H862 H 0.92053 0.9689 0.34426 0.0
H863 H 0.90405 0.98689 0.3242 0.0
C864 C 0.2675 0.20173 0.63072 0.0
C865 C 0.26768 0.22853 0.63483 0.0
C866 C 0.28137 0.23432 0.59115 0.0
C867 C 0.27737 0.20761 0.586 0.0
N868 N 0.26489 0.16559 0.60011 0.0
N869 N 0.27268 0.27064 0.6187 0.0
C870 C 0.27032 0.19113 0.60565 0.0
C871 C 0.2743 0.24496 0.61505 0.0
N872 N 0.26478 0.18651 0.65083 0.0
N873 N 0.29237 0.24941 0.57329 0.0
H874 H 0.26785 0.27932 0.63599 0.0
H875 H 0.2743 0.28317 0.60411 0.0
H876 H 0.29809 0.24208 0.55569 0.0
H877 H 0.2981 0.2687 0.57676 0.0
H878 H 0.26701 0.16707 0.64954 0.0
H879 H 0.26245 0.19377 0.66937 0.0
H880 H 0.25676 0.15308 0.61298 0.0
H881 H 0.26682 0.15703 0.58205 0.0
C882 C 0.46605 0.55826 0.68719 0.0
C883 C 0.45391 0.56229 0.66388 0.0
C884 C 0.41209 0.55527 0.68331 0.0
C885 C 0.42426 0.55138 0.70667 0.0
N886 N 0.46222 0.5554 0.73271 0.0
N887 N 0.41626 0.57035 0.64077 0.0
C888 C 0.4511 0.55483 0.70917 0.0
C889 C 0.42716 0.56272 0.66232 0.0
N890 N 0.49174 0.55669 0.68808 0.0
N891 N 0.3863 0.55045 0.68078 0.0
H892 H 0.42683 0.57565 0.62499 0.0
H893 H 0.39715 0.57354 0.63928 0.0
H894 H 0.37458 0.5451 0.69572 0.0
H895 H 0.37662 0.55002 0.66348 0.0
H896 H 0.50127 0.55069 0.7037 0.0
H897 H 0.50345 0.55983 0.67255 0.0
H898 H 0.48151 0.56032 0.73616 0.0
H899 H 0.45173 0.5533 0.74924 0.0
C900 C 0.74332 0.29298 0.59533 0.0
C901 C 0.73428 0.30199 0.6191 0.0
C902 C 0.7229 0.34089 0.60014 0.0
C903 C 0.73036 0.33099 0.57603 0.0
N904 N 0.74001 0.29429 0.54976 0.0
N905 N 0.70945 0.33125 0.64259 0.0
C906 C 0.73812 0.30595 0.57334 0.0
C907 C 0.72209 0.32491 0.62101 0.0
N908 N 0.75807 0.27296 0.5938 0.0
N909 N 0.71815 0.36588 0.60365 0.0
H910 H 0.70814 0.31975 0.65808 0.0
H911 H 0.6982 0.3465 0.64409 0.0
H912 H 0.71926 0.3786 0.58921 0.0
H913 H 0.71538 0.3746 0.62147 0.0
H914 H 0.76723 0.26748 0.57724 0.0
H915 H 0.76336 0.26346 0.60954 0.0
H916 H 0.7434 0.27519 0.54687 0.0
H917 H 0.73529 0.30282 0.53319 0.0
C918 C 0.5307 0.9624 0.70298 0.0
C919 C 0.53142 0.97938 0.68301 0.0
C920 C 0.56403 0.00775 0.70596 0.0
C921 C 0.5608 0.99263 0.72726 0.0
N922 N 0.53995 0.95658 0.7473 0.0
N923 N 0.54635 0.01973 0.66641 0.0
C924 C 0.54403 0.97003 0.72607 0.0
C925 C 0.54755 0.00241 0.68466 0.0
N926 N 0.51757 0.9389 0.69967 0.0
N927 N 0.58331 0.02687 0.7059 0.0
H928 H 0.53459 0.0166 0.65037 0.0
H929 H 0.55544 0.0381 0.66815 0.0
H930 H 0.59602 0.03107 0.7211 0.0
H931 H 0.58829 0.03686 0.68993 0.0
H932 H 0.51835 0.92465 0.71246 0.0
H933 H 0.50743 0.9329 0.68304 0.0
H934 H 0.52583 0.94163 0.74849 0.0
H935 H 0.54964 0.96145 0.76441 0.0
C936 C 0.87897 0.26089 0.82128 0.0
C937 C 0.88292 0.2552 0.79512 0.0
C938 C 0.92867 0.25511 0.80307 0.0
C939 C 0.9249 0.26285 0.82885 0.0
N940 N 0.89735 0.27846 0.86129 0.0
N941 N 0.91151 0.25091 0.76012 0.0
C942 C 0.90028 0.26723 0.83765 0.0
C943 C 0.9078 0.25351 0.78569 0.0
N944 N 0.85487 0.25945 0.83067 0.0
N945 N 0.95188 0.24823 0.79542 0.0
H946 H 0.8966 0.24948 0.74689 0.0
H947 H 0.9294 0.2523 0.75192 0.0
H948 H 0.96756 0.24883 0.80764 0.0
H949 H 0.95508 0.23986 0.77755 0.0
H950 H 0.85101 0.26053 0.85 0.0
H951 H 0.83866 0.25497 0.81932 0.0
H952 H 0.8802 0.28461 0.86766 0.0
H953 H 0.91255 0.28397 0.8737 0.0
C954 C 0.49719 0.86533 0.46834 0.0
C955 C 0.47246 0.87357 0.47103 0.0
C956 C 0.45598 0.84235 0.43747 0.0
C957 C 0.48087 0.83457 0.43428 0.0
N958 N 0.52577 0.84007 0.44412 0.0
N959 N 0.429 0.87286 0.45665 0.0
C960 C 0.50169 0.84658 0.4489 0.0
C961 C 0.45203 0.86291 0.45513 0.0
N962 N 0.51615 0.87493 0.48493 0.0
N963 N 0.43612 0.82984 0.42374 0.0
H964 H 0.42522 0.8874 0.46991 0.0
H965 H 0.41404 0.868 0.44387 0.0
H966 H 0.43847 0.81593 0.40935 0.0
H967 H 0.41712 0.8323 0.42722 0.0
H968 H 0.53379 0.86774 0.48609 0.0
H969 H 0.51381 0.88938 0.49879 0.0
H970 H 0.54212 0.85005 0.45191 0.0
H971 H 0.5297 0.8254 0.4311 0.0
C972 C 0.08568 0.28599 0.79511 0.0
C973 C 0.10652 0.2763 0.80733 0.0
C974 C 0.081 0.27044 0.84548 0.0
C975 C 0.05961 0.27817 0.83243 0.0
N976 N 0.04 0.28536 0.79225 0.0
N977 N 0.12192 0.25327 0.84168 0.0
C978 C 0.06145 0.28347 0.80642 0.0
C979 C 0.10349 0.26654 0.83175 0.0
N980 N 0.08914 0.29886 0.77344 0.0
N981 N 0.08055 0.26827 0.87116 0.0
H982 H 0.13841 0.24966 0.83189 0.0
H983 H 0.11962 0.24369 0.85837 0.0
H984 H 0.06495 0.27197 0.88226 0.0
H985 H 0.09659 0.26526 0.88181 0.0
H986 H 0.07493 0.30846 0.76539 0.0
H987 H 0.10677 0.30229 0.76497 0.0
H988 H 0.0403 0.28695 0.77266 0.0
H989 H 0.02173 0.28231 0.7995 0.0
C990 C 0.49896 0.68365 0.47805 0.0
C991 C 0.51475 0.66508 0.46842 0.0
C992 C 0.51561 0.68448 0.42722 0.0
C993 C 0.50193 0.70444 0.43773 0.0
N994 N 0.48722 0.7266 0.47535 0.0
N995 N 0.54266 0.65104 0.43559 0.0
C996 C 0.49555 0.7051 0.46381 0.0
C997 C 0.5245 0.66647 0.4435 0.0
N998 N 0.48631 0.68037 0.50029 0.0
N999 N 0.51905 0.68186 0.40161 0.0
H1000 H 0.54989 0.63789 0.44714 0.0
H1001 H 0.55225 0.65301 0.41855 0.0
H1002 H 0.51214 0.69406 0.38887 0.0
H1003 H 0.52661 0.66612 0.39278 0.0
H1004 H 0.47259 0.69213 0.5067 0.0
H1005 H 0.48749 0.66446 0.51099 0.0
H1006 H 0.48462 0.72878 0.49487 0.0
H1007 H 0.48579 0.74334 0.466 0.0
C1008 C 0.92668 0.83183 0.73099 0.0
C1009 C 0.90063 0.82623 0.72441 0.0
C1010 C 0.9118 0.81322 0.68108 0.0
C1011 C 0.93782 0.82015 0.6872 0.0
N1012 N 0.96967 0.84096 0.71614 0.0
N1013 N 0.86795 0.81742 0.6922 0.0
C1014 C 0.94517 0.83096 0.71164 0.0
C1015 C 0.89306 0.81884 0.69908 0.0
N1016 N 0.93381 0.83701 0.75582 0.0
N1017 N 0.90502 0.79981 0.65877 0.0
H1018 H 0.85366 0.82138 0.70497 0.0
H1019 H 0.86157 0.81473 0.67344 0.0
H1020 H 0.9181 0.79449 0.64525 0.0
H1021 H 0.8866 0.79182 0.65468 0.0
H1022 H 0.95263 0.83834 0.76213 0.0
H1023 H 0.92078 0.83816 0.77048 0.0
H1024 H 0.97562 0.85134 0.7328 0.0
H1025 H 0.98362 0.84095 0.70225 0.0
C1026 C 0.0269 0.8816 0.53915 0.0
C1027 C 0.03328 0.90619 0.55092 0.0
C1028 C 0.02456 0.88978 0.59287 0.0
C1029 C 0.01534 0.86601 0.58082 0.0
N1030 N 0.00829 0.83821 0.54318 0.0
N1031 N 0.03869 0.93443 0.58837 0.0
C1032 C 0.0169 0.86155 0.55413 0.0
C1033 C 0.03256 0.91042 0.57768 0.0
N1034 N 0.03053 0.87751 0.51367 0.0
N1035 N 0.02544 0.89259 0.61879 0.0
H1036 H 0.04579 0.94966 0.57792 0.0
H1037 H 0.03585 0.93974 0.60732 0.0
H1038 H 0.01874 0.87823 0.63047 0.0
H1039 H 0.03419 0.9085 0.62893 0.0
H1040 H 0.02868 0.85965 0.50414 0.0
H1041 H 0.037 0.89197 0.50198 0.0
H1042 H 0.00585 0.83434 0.52374 0.0
H1043 H 0.00271 0.82253 0.5537 0.0
C1044 C 0.11377 0.78231 0.67029 0.0
C1045 C 0.11686 0.78376 0.69704 0.0
C1046 C 0.07296 0.79449 0.70201 0.0
C1047 C 0.06888 0.78958 0.67558 0.0
N1048 N 0.08444 0.77673 0.63442 0.0
N1049 N 0.09898 0.78861 0.73881 0.0
C1050 C 0.08909 0.78321 0.65957 0.0
C1051 C 0.09639 0.78932 0.71306 0.0
N1052 N 0.13449 0.78034 0.65521 0.0
N1053 N 0.05461 0.8047 0.71644 0.0
H1054 H 0.1159 0.78516 0.74776 0.0
H1055 H 0.08385 0.7895 0.75124 0.0
H1056 H 0.03733 0.80908 0.70884 0.0
H1057 H 0.05741 0.81114 0.73534 0.0
H1058 H 0.13399 0.78181 0.63563 0.0
H1059 H 0.15275 0.77933 0.66254 0.0
H1060 H 0.09768 0.76907 0.62242 0.0
H1061 H 0.06668 0.7773 0.62583 0.0
C1062 C 0.9713 0.70987 0.54798 0.0
C1063 C 0.95808 0.68907 0.55959 0.0
C1064 C 0.95398 0.71559 0.59854 0.0
C1065 C 0.96988 0.73534 0.58803 0.0
N1066 N 0.9964 0.75053 0.55401 0.0
N1067 N 0.93943 0.67068 0.59672 0.0
C1068 C 0.97916 0.7324 0.563 0.0
C1069 C 0.95004 0.69153 0.58509 0.0
N1070 N 0.97593 0.7082 0.52253 0.0
N1071 N 0.94195 0.72014 0.62096 0.0
H1072 H 0.93593 0.65273 0.58741 0.0
H1073 H 0.93592 0.67066 0.6161 0.0
H1074 H 0.94401 0.73773 0.63117 0.0
H1075 H 0.92808 0.70735 0.62823 0.0
H1076 H 0.98308 0.72363 0.51244 0.0
H1077 H 0.97059 0.69187 0.51099 0.0
H1078 H 0.00598 0.74812 0.53702 0.0
H1079 H 0.00278 0.76726 0.56448 0.0
C1080 C 0.79087 0.93543 0.26096 0.0
C1081 C 0.80289 0.91316 0.26582 0.0
C1082 C 0.84268 0.93906 0.27642 0.0
C1083 C 0.83142 0.96104 0.26908 0.0
N1084 N 0.7961 0.97979 0.25057 0.0
N1085 N 0.8412 0.893 0.27376 0.0
C1086 C 0.80581 0.95917 0.26036 0.0
C1087 C 0.8291 0.91474 0.27228 0.0
N1088 N 0.76508 0.93398 0.25758 0.0
N1089 N 0.86587 0.94148 0.28845 0.0
H1090 H 0.8319 0.87476 0.27095 0.0
H1091 H 0.86085 0.89304 0.27557 0.0
H1092 H 0.87627 0.959 0.29246 0.0
H1093 H 0.87369 0.92642 0.29669 0.0
H1094 H 0.75489 0.94992 0.25668 0.0
H1095 H 0.75355 0.91687 0.25779 0.0
H1096 H 0.77846 0.97887 0.24146 0.0
H1097 H 0.80659 0.99741 0.24953 0.0
C1098 C 0.81478 0.13981 0.29282 0.0
C1099 C 0.80619 0.14383 0.26794 0.0
C1100 C 0.8193 0.10219 0.25312 0.0
C1101 C 0.83018 0.09945 0.27742 0.0
N1102 N 0.84389 0.11885 0.31834 0.0
N1103 N 0.80468 0.13124 0.22331 0.0
C1104 C 0.82956 0.11919 0.2967 0.0
C1105 C 0.8098 0.12573 0.24771 0.0
N1106 N 0.80801 0.15505 0.31298 0.0
N1107 N 0.8168 0.08199 0.23565 0.0
H1108 H 0.79784 0.14837 0.21865 0.0
H1109 H 0.80942 0.11988 0.2076 0.0
H1110 H 0.82268 0.06414 0.23908 0.0
H1111 H 0.80665 0.08221 0.21867 0.0
H1112 H 0.81158 0.15122 0.33176 0.0
H1113 H 0.79661 0.17001 0.31116 0.0
H1114 H 0.84601 0.13408 0.33184 0.0
H1115 H 0.8559 0.10465 0.3215 0.0
C1116 C 0.34027 0.94186 0.0151 0.0
C1117 C 0.34045 0.96809 0.02251 0.0
C1118 C 0.29494 0.96244 0.03133 0.0
C1119 C 0.29424 0.93702 0.02088 0.0
N1120 N 0.31537 0.90391 0.99835 0.0
N1121 N 0.31775 0.00446 0.03472 0.0
C1122 C 0.31669 0.927 0.01167 0.0
C1123 C 0.31774 0.97872 0.02992 0.0
N1124 N 0.36268 0.93107 0.01169 0.0
N1125 N 0.27412 0.97073 0.04332 0.0
H1126 H 0.33414 0.01698 0.03412 0.0
H1127 H 0.30124 0.01363 0.03738 0.0
H1128 H 0.2572 0.95919 0.04507 0.0
H1129 H 0.27433 0.98821 0.05354 0.0
H1130 H 0.36373 0.91149 0.00888 0.0
H1131 H 0.38039 0.94141 0.0141 0.0
H1132 H 0.33079 0.89703 0.98888 0.0
H1133 H 0.29838 0.89267 0.99456 0.0
C1134 C 0.20213 0.43074 0.28618 0.0
C1135 C 0.20805 0.4177 0.30795 0.0
C1136 C 0.17418 0.43719 0.33115 0.0
C1137 C 0.17142 0.45348 0.31102 0.0
N1138 N 0.18517 0.46794 0.27021 0.0
N1139 N 0.20191 0.41095 0.3525 0.0
C1140 C 0.18577 0.45067 0.28855 0.0
C1141 C 0.19452 0.42137 0.33078 0.0
N1142 N 0.212 0.4239 0.26321 0.0
N1143 N 0.15706 0.43656 0.35043 0.0
H1144 H 0.21705 0.39963 0.35331 0.0
H1145 H 0.19446 0.4154 0.37023 0.0
H1146 H 0.14152 0.44747 0.35091 0.0
H1147 H 0.15673 0.42331 0.36439 0.0
H1148 H 0.2064 0.43104 0.24623 0.0
H1149 H 0.22393 0.40924 0.26083 0.0
H1150 H 0.19748 0.46841 0.2549 0.0
H1151 H 0.17395 0.48323 0.27129 0.0
C1152 C 0.18 0.11303 0.47429 0.0
C1153 C 0.17828 0.0871 0.48043 0.0
C1154 C 0.22237 0.092 0.49583 0.0
C1155 C 0.22456 0.11748 0.48819 0.0
N1156 N 0.20757 0.15046 0.46502 0.0
N1157 N 0.19888 0.05033 0.49199 0.0
C1158 C 0.20398 0.12749 0.47589 0.0
C1159 C 0.19984 0.07608 0.48963 0.0
N1160 N 0.15859 0.1241 0.46783 0.0
N1161 N 0.2412 0.0834 0.51012 0.0
H1162 H 0.18264 0.03807 0.48763 0.0
H1163 H 0.21478 0.04086 0.49605 0.0
H1164 H 0.25788 0.09454 0.51544 0.0
H1165 H 0.23935 0.06596 0.51859 0.0
H1166 H 0.15826 0.14362 0.46598 0.0
H1167 H 0.14064 0.11412 0.46634 0.0
H1168 H 0.19398 0.15751 0.45356 0.0
H1169 H 0.22505 0.16138 0.46535 0.0
C1170 C 0.6629 0.125 0.77921 0.0
C1171 C 0.68647 0.12311 0.76694 0.0
C1172 C 0.68084 0.07657 0.76771 0.0
C1173 C 0.65834 0.0786 0.78189 0.0
N1174 N 0.63058 0.10481 0.80557 0.0
N1175 N 0.72039 0.09782 0.75373 0.0
C1176 C 0.65006 0.10285 0.78889 0.0
C1177 C 0.69621 0.09908 0.76244 0.0
N1178 N 0.65241 0.1478 0.78095 0.0
N1179 N 0.68693 0.05326 0.75824 0.0
H1180 H 0.73226 0.11391 0.7496 0.0
H1181 H 0.72948 0.08107 0.75272 0.0
H1182 H 0.67595 0.03629 0.76126 0.0
H1183 H 0.70156 0.05094 0.74545 0.0
H1184 H 0.63399 0.14973 0.78717 0.0
H1185 H 0.66131 0.16449 0.77415 0.0
H1186 H 0.62546 0.12214 0.81339 0.0
H1187 H 0.62104 0.08905 0.81354 0.0
C1188 C 0.39077 0.08977 0.52311 0.0
C1189 C 0.38226 0.07418 0.54297 0.0
C1190 C 0.3421 0.09404 0.5446 0.0
C1191 C 0.35102 0.11035 0.52541 0.0
N1192 N 0.38598 0.12824 0.50112 0.0
N1193 N 0.35289 0.06556 0.57676 0.0
C1194 C 0.37607 0.10962 0.51615 0.0
C1195 C 0.3589 0.0777 0.5551 0.0
N1196 N 0.41221 0.08488 0.51007 0.0
N1197 N 0.3172 0.09287 0.55167 0.0
H1198 H 0.36483 0.05345 0.58492 0.0
H1199 H 0.33734 0.06936 0.58788 0.0
H1200 H 0.304 0.10409 0.54421 0.0
H1201 H 0.30903 0.07921 0.56337 0.0
H1202 H 0.41765 0.09372 0.49355 0.0
H1203 H 0.42356 0.07052 0.51453 0.0
H1204 H 0.40496 0.13014 0.49579 0.0
H1205 H 0.37586 0.14335 0.4961 0.0
C1206 C 0.63397 0.46451 0.54696 0.0
C1207 C 0.61375 0.46583 0.52941 0.0
C1208 C 0.62993 0.43178 0.50246 0.0
C1209 C 0.65222 0.4335 0.51782 0.0
N1210 N 0.67682 0.45321 0.55361 0.0
N1211 N 0.59282 0.45201 0.48961 0.0
C1212 C 0.6545 0.45002 0.54004 0.0
C1213 C 0.61163 0.4496 0.50703 0.0
N1214 N 0.63344 0.47707 0.57028 0.0
N1215 N 0.62617 0.41281 0.48376 0.0
H1216 H 0.57882 0.46457 0.49246 0.0
H1217 H 0.59207 0.44285 0.47161 0.0
H1218 H 0.63913 0.39925 0.48025 0.0
H1219 H 0.60925 0.40899 0.47343 0.0
H1220 H 0.64629 0.47479 0.58486 0.0
H1221 H 0.6187 0.48797 0.57585 0.0
H1222 H 0.6806 0.46727 0.56811 0.0
H1223 H 0.69246 0.44316 0.54922 0.0
C1224 C 0.70791 0.31776 0.404 0.0
C1225 C 0.73223 0.31753 0.39282 0.0
C1226 C 0.7512 0.34487 0.42817 0.0
C1227 C 0.72724 0.34358 0.44028 0.0
N1228 N 0.68375 0.32567 0.44207 0.0
N1229 N 0.7777 0.32678 0.39591 0.0
C1230 C 0.70582 0.32914 0.42884 0.0
C1231 C 0.75411 0.32983 0.40544 0.0
N1232 N 0.68677 0.30774 0.39058 0.0
N1233 N 0.77083 0.36146 0.43763 0.0
H1234 H 0.78055 0.3162 0.37906 0.0
H1235 H 0.79451 0.3329 0.40573 0.0
H1236 H 0.76945 0.37324 0.45398 0.0
H1237 H 0.78778 0.3653 0.42807 0.0
H1238 H 0.6683 0.30986 0.3965 0.0
H1239 H 0.68762 0.29883 0.3725 0.0
H1240 H 0.66829 0.31318 0.43588 0.0
H1241 H 0.68163 0.33367 0.46036 0.0
C1242 C 0.56576 0.03122 0.90935 0.0
C1243 C 0.54048 0.01968 0.90863 0.0
C1244 C 0.54738 0.00037 0.86634 0.0
C1245 C 0.57129 0.01487 0.86567 0.0
N1246 N 0.60155 0.04752 0.88499 0.0
N1247 N 0.50578 0.99591 0.88532 0.0
C1248 C 0.58018 0.0311 0.88682 0.0
C1249 C 0.53088 0.00484 0.88686 0.0
N1250 N 0.57607 0.04202 0.93165 0.0
N1251 N 0.54078 0.98178 0.84779 0.0
H1252 H 0.49303 0.99874 0.89996 0.0
H1253 H 0.49714 0.98749 0.86876 0.0
H1254 H 0.55264 0.97755 0.83274 0.0
H1255 H 0.5247 0.96892 0.84866 0.0
H1256 H 0.59523 0.04842 0.93388 0.0
H1257 H 0.56605 0.04232 0.9486 0.0
H1258 H 0.60725 0.06167 0.89892 0.0
H1259 H 0.6123 0.04878 0.86856 0.0
C1260 C 0.31956 0.26295 0.44212 0.0
C1261 C 0.31664 0.25521 0.41602 0.0
C1262 C 0.30663 0.21097 0.42677 0.0
C1263 C 0.31108 0.21838 0.45283 0.0
N1264 N 0.32747 0.25029 0.48471 0.0
N1265 N 0.314 0.2214 0.38322 0.0
C1266 C 0.31931 0.24407 0.46033 0.0
C1267 C 0.31236 0.22903 0.40827 0.0
N1268 N 0.32148 0.28828 0.4496 0.0
N1269 N 0.29531 0.18727 0.41968 0.0
H1270 H 0.31835 0.23414 0.36912 0.0
H1271 H 0.31359 0.20232 0.37682 0.0
H1272 H 0.28963 0.17363 0.43252 0.0
H1273 H 0.28916 0.18202 0.40118 0.0
H1274 H 0.32076 0.29494 0.4685 0.0
H1275 H 0.32178 0.3027 0.43683 0.0
H1276 H 0.33596 0.26822 0.49066 0.0
H1277 H 0.32807 0.2368 0.4984 0.0
C1278 C 0.46287 0.52892 0.85234 0.0
C1279 C 0.45483 0.52982 0.87794 0.0
C1280 C 0.41154 0.53495 0.86345 0.0
C1281 C 0.42035 0.53713 0.8382 0.0
N1282 N 0.45658 0.54477 0.811 0.0
N1283 N 0.42289 0.54123 0.90796 0.0
C1284 C 0.44672 0.53682 0.83337 0.0
C1285 C 0.42959 0.53526 0.88357 0.0
N1286 N 0.48523 0.51934 0.84576 0.0
N1287 N 0.38619 0.53094 0.86834 0.0
H1288 H 0.43586 0.54268 0.92309 0.0
H1289 H 0.40524 0.54746 0.9126 0.0
H1290 H 0.37216 0.52859 0.85424 0.0
H1291 H 0.37934 0.52696 0.88629 0.0
H1292 H 0.49058 0.51641 0.82693 0.0
H1293 H 0.49693 0.51157 0.85871 0.0
H1294 H 0.47606 0.54661 0.80759 0.0
H1295 H 0.44572 0.55257 0.79733 0.0
C1296 C 0.76054 0.68955 0.13743 0.0
C1297 C 0.76398 0.7163 0.14251 0.0
C1298 C 0.7764 0.72217 0.09849 0.0
C1299 C 0.76928 0.69597 0.09261 0.0
N1300 N 0.75261 0.65468 0.10572 0.0
N1301 N 0.7731 0.75866 0.12775 0.0
C1302 C 0.76115 0.6795 0.11192 0.0
C1303 C 0.7716 0.7328 0.12306 0.0
N1304 N 0.75685 0.67382 0.15706 0.0
N1305 N 0.78819 0.73675 0.08064 0.0
H1306 H 0.77002 0.76728 0.14557 0.0
H1307 H 0.77556 0.77162 0.1136 0.0
H1308 H 0.79225 0.72938 0.06252 0.0
H1309 H 0.79613 0.75536 0.08449 0.0
H1310 H 0.75675 0.65406 0.15493 0.0
H1311 H 0.75609 0.68068 0.17593 0.0
H1312 H 0.74364 0.64259 0.11849 0.0
H1313 H 0.75283 0.64652 0.08729 0.0
C1314 C 0.96351 0.05546 0.17989 0.0
C1315 C 0.94932 0.05664 0.15712 0.0
C1316 C 0.90966 0.04571 0.17943 0.0
C1317 C 0.92386 0.04507 0.20229 0.0
N1318 N 0.96308 0.05531 0.22578 0.0
N1319 N 0.90905 0.05816 0.13582 0.0
C1320 C 0.95045 0.05179 0.20296 0.0
C1321 C 0.92239 0.05349 0.15712 0.0
N1322 N 0.98948 0.05685 0.17929 0.0
N1323 N 0.88434 0.03761 0.17872 0.0
H1324 H 0.91789 0.0636 0.11911 0.0
H1325 H 0.88941 0.05874 0.13531 0.0
H1326 H 0.87432 0.03189 0.19467 0.0
H1327 H 0.87358 0.03482 0.16203 0.0
H1328 H 0.00074 0.05301 0.19464 0.0
H1329 H -0.00016 0.06011 0.16287 0.0
H1330 H 0.98197 0.06273 0.22774 0.0
H1331 H 0.95399 0.05313 0.24311 0.0
C1332 C 0.22846 0.82313 0.12669 0.0
C1333 C 0.23874 0.79925 0.12325 0.0
C1334 C 0.23747 0.80303 0.07733 0.0
C1335 C 0.23204 0.8288 0.08107 0.0
N1336 N 0.22566 0.86466 0.11024 0.0
N1337 N 0.25709 0.7683 0.09508 0.0
C1338 C 0.22809 0.83921 0.10597 0.0
C1339 C 0.24419 0.78954 0.09849 0.0
N1340 N 0.2188 0.83033 0.14964 0.0
N1341 N 0.23581 0.79128 0.05357 0.0
H1342 H 0.26346 0.75833 0.11004 0.0
H1343 H 0.26374 0.7621 0.07748 0.0
H1344 H 0.22992 0.80033 0.03774 0.0
H1345 H 0.23742 0.77184 0.05017 0.0
H1346 H 0.20892 0.84646 0.1525 0.0
H1347 H 0.21838 0.81879 0.16509 0.0
H1348 H 0.22558 0.87351 0.12838 0.0
H1349 H 0.22606 0.87746 0.0959 0.0
C1350 C 0.05683 0.50909 0.18493 0.0
C1351 C 0.04081 0.48602 0.18224 0.0
C1352 C 0.05131 0.47601 0.22568 0.0
C1353 C 0.06791 0.4987 0.22799 0.0
N1354 N 0.09155 0.53326 0.2081 0.0
N1355 N 0.02663 0.44502 0.19757 0.0
C1356 C 0.07225 0.51412 0.20703 0.0
C1357 C 0.0393 0.46864 0.20187 0.0
N1358 N 0.05644 0.52675 0.16693 0.0
N1359 N 0.04602 0.46224 0.2465 0.0
H1360 H 0.01754 0.43914 0.18035 0.0
H1361 H 0.02694 0.43055 0.21019 0.0
H1362 H 0.05462 0.46694 0.26419 0.0
H1363 H 0.03186 0.44721 0.24673 0.0
H1364 H 0.06544 0.54513 0.16934 0.0
H1365 H 0.04543 0.52387 0.15036 0.0
H1366 H 0.09731 0.5435 0.19252 0.0
H1367 H 0.10354 0.5372 0.22391 0.0
C1368 C 0.38868 0.75321 0.32029 0.0
C1369 C 0.39349 0.74668 0.29447 0.0
C1370 C 0.43888 0.74633 0.30427 0.0
C1371 C 0.43432 0.75537 0.32949 0.0
N1372 N 0.4057 0.77248 0.36015 0.0
N1373 N 0.42315 0.74008 0.26084 0.0
C1374 C 0.40943 0.76014 0.33719 0.0
C1375 C 0.41862 0.74407 0.28613 0.0
N1376 N 0.36426 0.75217 0.32885 0.0
N1377 N 0.46231 0.73907 0.29791 0.0
H1378 H 0.40868 0.73804 0.24711 0.0
H1379 H 0.44131 0.74074 0.25324 0.0
H1380 H 0.4775 0.74024 0.31079 0.0
H1381 H 0.46613 0.72989 0.28059 0.0
H1382 H 0.35977 0.75393 0.348 0.0
H1383 H 0.34843 0.74723 0.31708 0.0
H1384 H 0.38836 0.77896 0.36549 0.0
H1385 H 0.42042 0.77856 0.37294 0.0
C1386 C 0.98657 0.34901 0.97986 0.0
C1387 C 0.97919 0.37286 0.97277 0.0
C1388 C 0.97384 0.35637 0.92861 0.0
C1389 C 0.98333 0.33326 0.93532 0.0
N1390 N 0.00355 0.30939 0.96624 0.0
N1391 N 0.97065 0.40109 0.93991 0.0
C1392 C 0.99106 0.33006 0.96066 0.0
C1393 C 0.97429 0.37711 0.94696 0.0
N1394 N 0.98846 0.34413 0.00494 0.0
N1395 N 0.96319 0.35813 0.90514 0.0
H1396 H 0.97087 0.4168 0.95283 0.0
H1397 H 0.96971 0.40584 0.92105 0.0
H1398 H 0.96186 0.34319 0.89128 0.0
H1399 H 0.9535 0.37353 0.90022 0.0
H1400 H 0.99101 0.32615 0.01123 0.0
H1401 H 0.9853 0.35751 0.01959 0.0
H1402 H 0.01195 0.3074 0.98384 0.0
H1403 H 0.00767 0.29535 0.95259 0.0
C1404 C 0.60167 0.75508 0.3262 0.0
C1405 C 0.61839 0.77747 0.32433 0.0
C1406 C 0.58843 0.80222 0.34795 0.0
C1407 C 0.57014 0.7808 0.34624 0.0
N1408 N 0.55811 0.73748 0.33033 0.0
N1409 N 0.62585 0.82336 0.32972 0.0
C1410 C 0.57644 0.75727 0.33465 0.0
C1411 C 0.61135 0.80134 0.3343 0.0
N1412 N 0.61001 0.73173 0.32023 0.0
N1413 N 0.58423 0.82318 0.36321 0.0
H1414 H 0.64253 0.82377 0.31927 0.0
H1415 H 0.62006 0.84142 0.33423 0.0
H1416 H 0.56803 0.82418 0.37425 0.0
H1417 H 0.59801 0.83833 0.36704 0.0
H1418 H 0.59949 0.71463 0.32363 0.0
H1419 H 0.62846 0.72947 0.31414 0.0
H1420 H 0.56113 0.72094 0.3195 0.0
H1421 H 0.53921 0.73841 0.33548 0.0
C1422 C 0.988 0.15913 0.94277 0.0
C1423 C 0.0107 0.16274 0.9576 0.0
C1424 C 0.01913 0.20592 0.94291 0.0
C1425 C 0.99706 0.20183 0.92713 0.0
N1426 N 0.96434 0.1725 0.90712 0.0
N1427 N 0.05084 0.18685 0.96726 0.0
C1428 C 0.98269 0.17776 0.92553 0.0
C1429 C 0.02725 0.18528 0.95616 0.0
N1430 N 0.9709 0.13857 0.946 0.0
N1431 N 0.03144 0.22979 0.94656 0.0
H1432 H 0.05738 0.17202 0.97708 0.0
H1433 H 0.06473 0.20176 0.96469 0.0
H1434 H 0.0259 0.24564 0.93773 0.0
H1435 H 0.04582 0.23437 0.96007 0.0
H1436 H 0.95278 0.13655 0.93782 0.0
H1437 H 0.97393 0.12449 0.95853 0.0
H1438 H 0.95495 0.15444 0.90344 0.0
H1439 H 0.96037 0.18554 0.89378 0.0
C1440 C 0.42645 0.34865 0.21231 0.0
C1441 C 0.41189 0.32953 0.22513 0.0
C1442 C 0.43277 0.29619 0.20151 0.0
C1443 C 0.4488 0.31533 0.19023 0.0
N1444 N 0.46341 0.35959 0.18672 0.0
N1445 N 0.40321 0.28545 0.2349 0.0
C1446 C 0.44629 0.34156 0.19605 0.0
C1447 C 0.41566 0.30338 0.2206 0.0
N1448 N 0.42096 0.37347 0.21537 0.0
N1449 N 0.43311 0.2712 0.19316 0.0
H1450 H 0.38986 0.28979 0.24855 0.0
H1451 H 0.40744 0.26653 0.23463 0.0
H1452 H 0.44525 0.26509 0.17905 0.0
H1453 H 0.41988 0.25672 0.19854 0.0
H1454 H 0.42895 0.38796 0.20454 0.0
H1455 H 0.407 0.37935 0.22767 0.0
H1456 H 0.46433 0.37888 0.19232 0.0
H1457 H 0.47808 0.35502 0.17466 0.0
C1458 C 0.5251 0.35874 0.03167 0.0
C1459 C 0.52984 0.38452 0.04076 0.0
C1460 C 0.5242 0.37226 0.08468 0.0
C1461 C 0.51664 0.34694 0.07536 0.0
N1462 N 0.51044 0.31522 0.0407 0.0
N1463 N 0.53424 0.41657 0.07523 0.0
C1464 C 0.51744 0.3399 0.04903 0.0
C1465 C 0.52983 0.39144 0.06714 0.0
N1466 N 0.52815 0.3524 0.00647 0.0
N1467 N 0.52575 0.37796 0.11028 0.0
H1468 H 0.53969 0.43096 0.06309 0.0
H1469 H 0.5315 0.42355 0.09372 0.0
H1470 H 0.52034 0.36486 0.12373 0.0
H1471 H 0.53375 0.39524 0.11848 0.0
H1472 H 0.52732 0.33379 0.99872 0.0
H1473 H 0.53318 0.36588 0.99324 0.0
H1474 H 0.50759 0.30918 0.02172 0.0
H1475 H 0.50667 0.30056 0.05299 0.0
C1476 C 0.61377 0.29217 0.21175 0.0
C1477 C 0.63233 0.28327 0.19498 0.0
C1478 C 0.60122 0.2788 0.15999 0.0
C1479 C 0.58288 0.28825 0.17669 0.0
N1480 N 0.57328 0.31013 0.21618 0.0
N1481 N 0.64578 0.27363 0.15234 0.0
C1482 C 0.58972 0.29695 0.20187 0.0
C1483 C 0.6267 0.27843 0.16877 0.0
N1484 N 0.61859 0.29476 0.2373 0.0
N1485 N 0.59403 0.26877 0.13632 0.0
H1486 H 0.66459 0.27311 0.15831 0.0
H1487 H 0.64342 0.27243 0.1327 0.0
H1488 H 0.57561 0.26871 0.1291 0.0
H1489 H 0.60586 0.25886 0.12446 0.0
H1490 H 0.60474 0.29825 0.25065 0.0
H1491 H 0.63593 0.29142 0.24547 0.0
H1492 H 0.57813 0.31916 0.23381 0.0
H1493 H 0.55562 0.31423 0.20928 0.0
C1494 C 0.45565 0.18174 0.0875 0.0
C1495 C 0.47654 0.16755 0.08137 0.0
C1496 C 0.5063 0.20309 0.09735 0.0
C1497 C 0.48538 0.2166 0.10514 0.0
N1498 N 0.44037 0.21723 0.11216 0.0
N1499 N 0.52131 0.16233 0.08447 0.0
C1500 C 0.46007 0.20551 0.10148 0.0
C1501 C 0.50176 0.17751 0.08755 0.0
N1502 N 0.4317 0.17286 0.0793 0.0
N1503 N 0.53037 0.21509 0.09817 0.0
H1504 H 0.5187 0.14349 0.07715 0.0
H1505 H 0.53971 0.16763 0.09119 0.0
H1506 H 0.53451 0.234 0.10481 0.0
H1507 H 0.54597 0.20708 0.09017 0.0
H1508 H 0.41617 0.18368 0.08065 0.0
H1509 H 0.42765 0.1553 0.06936 0.0
H1510 H 0.4218 0.20877 0.11243 0.0
H1511 H 0.44291 0.23455 0.1228 0.0
C1512 C 0.31578 0.42526 0.76665 0.0
C1513 C 0.28998 0.42544 0.75911 0.0
C1514 C 0.29553 0.47188 0.75659 0.0
C1515 C 0.32078 0.47179 0.76592 0.0
N1516 N 0.35314 0.44931 0.7852 0.0
N1517 N 0.2539 0.44873 0.75063 0.0
C1518 C 0.33041 0.44872 0.77247 0.0
C1519 C 0.27941 0.44873 0.75517 0.0
N1520 N 0.32653 0.40267 0.7675 0.0
N1521 N 0.28731 0.49382 0.74815 0.0
H1522 H 0.24163 0.43207 0.74919 0.0
H1523 H 0.24457 0.46528 0.75026 0.0
H1524 H 0.2986 0.51112 0.74891 0.0
H1525 H 0.27009 0.49452 0.73861 0.0
H1526 H 0.34596 0.40153 0.77002 0.0
H1527 H 0.31643 0.38497 0.76351 0.0
H1528 H 0.35981 0.43334 0.79285 0.0
H1529 H 0.36425 0.46618 0.79037 0.0
C1530 C 0.30784 0.64789 0.79227 0.0
C1531 C 0.29772 0.6515 0.76787 0.0
C1532 C 0.31207 0.61068 0.7521 0.0
C1533 C 0.32421 0.60833 0.77587 0.0
N1534 N 0.33924 0.62821 0.81616 0.0
N1535 N 0.29475 0.63909 0.72323 0.0
C1536 C 0.32377 0.628 0.79525 0.0
C1537 C 0.30126 0.63374 0.74733 0.0
N1538 N 0.30137 0.66268 0.81287 0.0
N1539 N 0.30956 0.59051 0.7346 0.0
H1540 H 0.28695 0.65588 0.71904 0.0
H1541 H 0.29927 0.62804 0.70722 0.0
H1542 H 0.31639 0.57297 0.73756 0.0
H1543 H 0.29854 0.59036 0.71812 0.0
H1544 H 0.30614 0.659 0.83142 0.0
H1545 H 0.28911 0.67702 0.81179 0.0
H1546 H 0.34142 0.64346 0.82964 0.0
H1547 H 0.35203 0.61455 0.81859 0.0
C1548 C 0.80224 0.48868 0.5196 0.0
C1549 C 0.82647 0.48129 0.51256 0.0
C1550 C 0.80894 0.437 0.50549 0.0
C1551 C 0.785 0.44402 0.51407 0.0
N1552 N 0.75999 0.47531 0.53419 0.0
N1553 N 0.85436 0.448 0.50476 0.0
C1554 C 0.78196 0.46954 0.5226 0.0
C1555 C 0.83028 0.45527 0.50745 0.0
N1556 N 0.79838 0.51395 0.5225 0.0
N1557 N 0.81106 0.4134 0.49401 0.0
H1558 H 0.87053 0.46092 0.50613 0.0
H1559 H 0.85843 0.42901 0.50364 0.0
H1560 H 0.79578 0.39956 0.49128 0.0
H1561 H 0.82745 0.40838 0.48491 0.0
H1562 H 0.78048 0.52052 0.52479 0.0
H1563 H 0.81287 0.5285 0.52075 0.0
H1564 H 0.75761 0.49305 0.54304 0.0
H1565 H 0.74489 0.46165 0.53705 0.0
C1566 C 0.69755 0.9186 0.78507 0.0
C1567 C 0.70258 0.90735 0.80817 0.0
C1568 C 0.67105 0.93196 0.82948 0.0
C1569 C 0.66934 0.94626 0.80765 0.0
N1570 N 0.68278 0.95493 0.76511 0.0
N1571 N 0.69623 0.9052 0.8533 0.0
C1572 C 0.6828 0.93987 0.78538 0.0
C1573 C 0.68972 0.91434 0.83063 0.0
N1574 N 0.70671 0.90878 0.76284 0.0
N1575 N 0.65445 0.93491 0.84893 0.0
H1576 H 0.70996 0.89237 0.8551 0.0
H1577 H 0.68954 0.91197 0.87067 0.0
H1578 H 0.6401 0.94726 0.84841 0.0
H1579 H 0.65318 0.92326 0.86425 0.0
H1580 H 0.70163 0.91455 0.74508 0.0
H1581 H 0.71751 0.89313 0.762 0.0
H1582 H 0.69461 0.95286 0.74959 0.0
H1583 H 0.67245 0.97082 0.76459 0.0
C1584 C 0.66536 0.59487 0.01847 0.0
C1585 C 0.66161 0.57702 0.9974 0.0
C1586 C 0.70365 0.59118 0.98168 0.0
C1587 C 0.70854 0.60681 0.00425 0.0
N1588 N 0.69617 0.61787 0.04721 0.0
N1589 N 0.67996 0.55356 0.96258 0.0
C1590 C 0.69002 0.60703 0.0236 0.0
C1591 C 0.68162 0.57373 0.98009 0.0
N1592 N 0.6453 0.60101 0.03304 0.0
N1593 N 0.71915 0.59382 0.96121 0.0
H1594 H 0.66451 0.53977 0.96138 0.0
H1595 H 0.69511 0.54909 0.95115 0.0
H1596 H 0.73472 0.6074 0.96086 0.0
H1597 H 0.71485 0.58446 0.94359 0.0
H1598 H 0.64677 0.61577 0.04708 0.0
H1599 H 0.6267 0.59324 0.0294 0.0
H1600 H 0.68388 0.61643 0.06251 0.0
H1601 H 0.71445 0.62568 0.0523 0.0
C1602 C 0.16835 0.62929 0.28741 0.0
C1603 C 0.19256 0.62641 0.27683 0.0
C1604 C 0.18605 0.58015 0.27967 0.0
C1605 C 0.16244 0.58313 0.29159 0.0
N1606 N 0.13326 0.61049 0.31145 0.0
N1607 N 0.22683 0.60023 0.26748 0.0
C1608 C 0.15418 0.60772 0.29681 0.0
C1609 C 0.20216 0.60215 0.27442 0.0
N1610 N 0.15859 0.65246 0.28774 0.0
N1611 N 0.19249 0.55636 0.27214 0.0
H1612 H 0.23916 0.61595 0.26322 0.0
H1613 H 0.23574 0.58343 0.26807 0.0
H1614 H 0.18111 0.53967 0.2753 0.0
H1615 H 0.20807 0.5532 0.26081 0.0
H1616 H 0.13989 0.65513 0.29252 0.0
H1617 H 0.16864 0.6688 0.28144 0.0
H1618 H 0.12778 0.6281 0.31808 0.0
H1619 H 0.12262 0.5951 0.31894 0.0
C1620 C 0.88293 0.58177 0.02242 0.0
C1621 C 0.87886 0.56765 0.04436 0.0
C1622 C 0.8381 0.58559 0.05129 0.0
C1623 C 0.8426 0.6004 0.02983 0.0
N1624 N 0.87169 0.61736 0.99878 0.0
N1625 N 0.8558 0.56015 0.0828 0.0
C1626 C 0.86579 0.59995 0.01656 0.0
C1627 C 0.85746 0.57091 0.05983 0.0
N1628 N 0.90256 0.57709 0.00662 0.0
N1629 N 0.81485 0.5843 0.06258 0.0
H1630 H 0.8696 0.54914 0.08953 0.0
H1631 H 0.84202 0.56399 0.09613 0.0
H1632 H 0.80003 0.59453 0.05685 0.0
H1633 H 0.80952 0.57153 0.07635 0.0
H1634 H 0.90471 0.58459 0.98884 0.0
H1635 H 0.91573 0.56414 0.01038 0.0
H1636 H 0.88938 0.61967 0.99023 0.0
H1637 H 0.85974 0.63125 0.99437 0.0
C1638 C 0.15046 0.98985 0.0356 0.0
C1639 C 0.12455 0.98006 0.03396 0.0
C1640 C 0.13697 0.93674 0.02483 0.0
C1641 C 0.16271 0.94692 0.02411 0.0
N1642 N 0.19478 0.98235 0.02956 0.0
N1643 N 0.09243 0.94488 0.02724 0.0
C1644 C 0.16969 0.97326 0.02991 0.0
C1645 C 0.11761 0.95362 0.02888 0.0
N1646 N 0.15656 0.01502 0.04274 0.0
N1647 N 0.13113 0.91096 0.02155 0.0
H1648 H 0.07784 0.95648 0.03133 0.0
H1649 H 0.0857 0.92648 0.02091 0.0
H1650 H 0.14472 0.8982 0.0175 0.0
H1651 H 0.11316 0.90182 0.02419 0.0
H1652 H 0.17491 0.02308 0.04685 0.0
H1653 H 0.143 0.02801 0.04587 0.0
H1654 H 0.20128 0.00157 0.03053 0.0
H1655 H 0.20951 0.97049 0.02761 0.0
loop_
_geom_bond_atom_site_label_1
_geom_bond_atom_site_label_2
_geom_bond_distance
_geom_bond_site_symmetry_2
_ccdc_geom_bond_type
C0 C1 1.386 . S
C0 C2 1.397 . S
C0 H24 0.931 . S
C1 C0 1.386 . S
C1 C5 1.397 . S
C2 C0 1.397 . S
C2 C3 1.384 . S
C2 H25 0.930 . S
C3 C2 1.384 . S
C3 C4 1.377 . S
C3 C6 1.481 . S
C4 C3 1.377 . S
C4 C5 1.389 . S
C4 H26 0.929 . S
C5 C1 1.397 . S
C5 C4 1.389 . S
C5 H27 0.931 . S
C6 C3 1.481 . S
C6 C7 1.387 . S
C6 C11 1.390 . S
C7 C6 1.387 . S
C7 C8 1.401 . S
C7 H28 0.930 . S
C8 C7 1.401 . S
C8 C9 1.376 . S
C8 C17 1.511 . S
C9 C8 1.376 . S
C9 C10 1.392 . S
C9 H30 0.931 . S
C10 C9 1.392 . S
C10 C11 1.361 . S
C10 C12 1.500 . S
C11 C6 1.390 . S
C11 C10 1.361 . S
C11 H29 0.931 . S
C12 C10 1.500 . S
C12 C13 1.371 . S
C12 C14 1.365 . S
C13 C12 1.371 . S
C13 C23 1.386 . S
C13 H31 0.931 . S
C14 C12 1.365 . S
C14 C15 1.409 . S
C14 H32 0.929 . S
C15 C14 1.409 . S
C15 C16 1.380 . S
C15 H33 0.930 . S
C16 C15 1.380 . S
C16 C23 1.357 . S
C17 C8 1.511 . S
C17 C18 1.341 . S
C17 C19 1.371 . S
C18 C17 1.341 . S
C18 C22 1.394 . S
C18 H34 0.930 . S
C19 C17 1.371 . S
C19 C20 1.392 . S
C19 H35 0.931 . S
C20 C19 1.392 . S
C20 C21 1.331 . S
C20 H38 0.932 . S
C21 C20 1.331 . S
C21 C22 1.336 . S
C22 C18 1.394 . S
C22 C21 1.336 . S
C22 H37 0.929 . S
C23 C13 1.386 . S
C23 C16 1.357 . S
C23 H36 0.928 . S
H24 C0 0.931 . S
H25 C2 0.930 . S
H26 C4 0.929 . S
H27 C5 0.931 . S
H28 C7 0.930 . S
H29 C11 0.931 . S
H30 C9 0.931 . S
H31 C13 0.931 . S
H32 C14 0.929 . S
H33 C15 0.930 . S
H34 C18 0.930 . S
H35 C19 0.931 . S
H36 C23 0.928 . S
H37 C22 0.929 . S
H38 C20 0.932 . S
C39 C40 1.386 . S
C39 C41 1.397 . S
C39 H63 0.931 . S
C40 C39 1.386 . S
C40 C44 1.397 . S
C41 C39 1.397 . S
C41 C42 1.384 . S
C41 H64 0.930 . S
C42 C41 1.384 . S
C42 C43 1.377 . S
C42 C45 1.481 . S
C43 C42 1.377 . S
C43 C44 1.389 . S
C43 H65 0.929 . S
C44 C40 1.397 . S
C44 C43 1.389 . S
C44 H66 0.931 . S
C45 C42 1.481 . S
C45 C46 1.387 . S
C45 C50 1.390 . S
C46 C45 1.387 . S
C46 C47 1.401 . S
C46 H67 0.930 . S
C47 C46 1.401 . S
C47 C48 1.376 . S
C47 C56 1.511 . S
C48 C47 1.376 . S
C48 C49 1.392 . S
C48 H69 0.931 . S
C49 C48 1.392 . S
C49 C50 1.361 . S
C49 C51 1.500 . S
C50 C45 1.390 . S
C50 C49 1.361 . S
C50 H68 0.931 . S
C51 C49 1.500 . S
C51 C52 1.371 . S
C51 C53 1.365 . S
C52 C51 1.371 . S
C52 C62 1.386 . S
C52 H70 0.931 . S
C53 C51 1.365 . S
C53 C54 1.409 . S
C53 H71 0.929 . S
C54 C53 1.409 . S
C54 C55 1.380 . S
C54 H72 0.930 . S
C55 C54 1.380 . S
C55 C62 1.357 . S
C56 C47 1.511 . S
C56 C57 1.341 . S
C56 C58 1.371 . S
C57 C56 1.341 . S
C57 C61 1.394 . S
C57 H73 0.930 . S
C58 C56 1.371 . S
C58 C59 1.392 . S
C58 H74 0.931 . S
C59 C58 1.392 . S
C59 C60 1.331 . S
C59 H77 0.932 . S
C60 C59 1.331 . S
C60 C61 1.336 . S
C61 C57 1.394 . S
C61 C60 1.336 . S
C61 H76 0.929 . S
C62 C52 1.386 . S
C62 C55 1.357 . S
C62 H75 0.928 . S
H63 C39 0.931 . S
H64 C41 0.930 . S
H65 C43 0.929 . S
H66 C44 0.931 . S
H67 C46 0.930 . S
H68 C50 0.931 . S
H69 C48 0.931 . S
H70 C52 0.931 . S
H71 C53 0.929 . S
H72 C54 0.930 . S
H73 C57 0.930 . S
H74 C58 0.931 . S
H75 C62 0.928 . S
H76 C61 0.929 . S
H77 C59 0.932 . S
C78 C79 1.386 . S
C78 C80 1.397 . S
C78 H102 0.931 . S
C79 C78 1.386 . S
C79 C83 1.397 . S
C80 C78 1.397 . S
C80 C81 1.384 . S
C80 H103 0.930 . S
C81 C80 1.384 . S
C81 C82 1.377 . S
C81 C84 1.481 . S
C82 C81 1.377 . S
C82 C83 1.389 . S
C82 H104 0.929 . S
C83 C79 1.397 . S
C83 C82 1.389 . S
C83 H105 0.931 . S
C84 C81 1.481 . S
C84 C85 1.387 . S
C84 C89 1.390 . S
C85 C84 1.387 . S
C85 C86 1.401 . S
C85 H106 0.930 . S
C86 C85 1.401 . S
C86 C87 1.376 . S
C86 C95 1.511 . S
C87 C86 1.376 . S
C87 C88 1.392 . S
C87 H108 0.931 . S
C88 C87 1.392 . S
C88 C89 1.361 . S
C88 C90 1.500 . S
C89 C84 1.390 . S
C89 C88 1.361 . S
C89 H107 0.931 . S
C90 C88 1.500 . S
C90 C91 1.371 . S
C90 C92 1.365 . S
C91 C90 1.371 . S
C91 C101 1.386 . S
C91 H109 0.931 . S
C92 C90 1.365 . S
C92 C93 1.409 . S
C92 H110 0.929 . S
C93 C92 1.409 . S
C93 C94 1.380 . S
C93 H111 0.930 . S
C94 C93 1.380 . S
C94 C101 1.357 . S
C95 C86 1.511 . S
C95 C96 1.341 . S
C95 C97 1.371 . S
C96 C95 1.341 . S
C96 C100 1.394 . S
C96 H112 0.930 . S
C97 C95 1.371 . S
C97 C98 1.392 . S
C97 H113 0.931 . S
C98 C97 1.392 . S
C98 C99 1.331 . S
C98 H116 0.932 . S
C99 C98 1.331 . S
C99 C100 1.336 . S
C100 C96 1.394 . S
C100 C99 1.336 . S
C100 H115 0.929 . S
C101 C91 1.386 . S
C101 C94 1.357 . S
C101 H114 0.928 . S
H102 C78 0.931 . S
H103 C80 0.930 . S
H104 C82 0.929 . S
H105 C83 0.931 . S
H106 C85 0.930 . S
H107 C89 0.931 . S
H108 C87 0.931 . S
H109 C91 0.931 . S
H110 C92 0.929 . S
H111 C93 0.930 . S
H112 C96 0.930 . S
H113 C97 0.931 . S
H114 C101 0.928 . S
H115 C100 0.929 . S
H116 C98 0.932 . S
C117 C118 1.386 . S
C117 C119 1.397 . S
C117 H141 0.931 . S
C118 C117 1.386 . S
C118 C122 1.397 . S
C119 C117 1.397 . S
C119 C120 1.384 . S
C119 H142 0.930 . S
C120 C119 1.384 . S
C120 C121 1.377 . S
C120 C123 1.481 . S
C121 C120 1.377 . S
C121 C122 1.389 . S
C121 H143 0.929 . S
C122 C118 1.397 . S
C122 C121 1.389 . S
C122 H144 0.931 . S
C123 C120 1.481 . S
C123 C124 1.387 . S
C123 C128 1.390 . S
C124 C123 1.387 . S
C124 C125 1.401 . S
C124 H145 0.930 . S
C125 C124 1.401 . S
C125 C126 1.376 . S
C125 C134 1.511 . S
C126 C125 1.376 . S
C126 C127 1.392 . S
C126 H147 0.931 . S
C127 C126 1.392 . S
C127 C128 1.361 . S
C127 C129 1.500 . S
C128 C123 1.390 . S
C128 C127 1.361 . S
C128 H146 0.931 . S
C129 C127 1.500 . S
C129 C130 1.371 . S
C129 C131 1.365 . S
C130 C129 1.371 . S
C130 C140 1.386 . S
C130 H148 0.931 . S
C131 C129 1.365 . S
C131 C132 1.409 . S
C131 H149 0.929 . S
C132 C131 1.409 . S
C132 C133 1.380 . S
C132 H150 0.930 . S
C133 C132 1.380 . S
C133 C140 1.357 . S
C134 C125 1.511 . S
C134 C135 1.341 . S
C134 C136 1.371 . S
C135 C134 1.341 . S
C135 C139 1.394 . S
C135 H151 0.930 . S
C136 C134 1.371 . S
C136 C137 1.392 . S
C136 H152 0.931 . S
C137 C136 1.392 . S
C137 C138 1.331 . S
C137 H155 0.932 . S
C138 C137 1.331 . S
C138 C139 1.336 . S
C139 C135 1.394 . S
C139 C138 1.336 . S
C139 H154 0.929 . S
C140 C130 1.386 . S
C140 C133 1.357 . S
C140 H153 0.928 . S
H141 C117 0.931 . S
H142 C119 0.930 . S
H143 C121 0.929 . S
H144 C122 0.931 . S
H145 C124 0.930 . S
H146 C128 0.931 . S
H147 C126 0.931 . S
H148 C130 0.931 . S
H149 C131 0.929 . S
H150 C132 0.930 . S
H151 C135 0.930 . S
H152 C136 0.931 . S
H153 C140 0.928 . S
H154 C139 0.929 . S
H155 C137 0.932 . S
C156 C157 1.391 . S
C156 C158 1.407 . S
C156 H180 0.915 1_455 S
C157 C156 1.391 . S
C157 C161 1.397 . S
C158 C156 1.407 . S
C158 C159 1.384 . S
C158 H181 0.930 . S
C159 C158 1.384 . S
C159 C160 1.377 . S
C159 C162 1.481 . S
C160 C159 1.377 . S
C160 C161 1.389 . S
C160 H182 0.929 . S
C161 C157 1.397 . S
C161 C160 1.389 . S
C161 H183 0.931 . S
C162 C159 1.481 . S
C162 C163 1.387 . S
C162 C167 1.390 . S
C163 C162 1.387 . S
C163 C164 1.401 . S
C163 H184 0.930 . S
C164 C163 1.401 . S
C164 C165 1.376 . S
C164 C173 1.511 . S
C165 C164 1.376 . S
C165 C166 1.392 . S
C165 H186 0.931 . S
C166 C165 1.392 . S
C166 C167 1.361 . S
C166 C168 1.500 . S
C167 C162 1.390 . S
C167 C166 1.361 . S
C167 H185 0.931 . S
C168 C166 1.500 . S
C168 C169 1.371 . S
C168 C170 1.365 . S
C169 C168 1.371 . S
C169 C179 1.386 1_565 S
C169 H187 0.931 . S
C170 C168 1.365 . S
C170 C171 1.409 1_565 S
C170 H188 0.929 . S
C171 C170 1.409 1_545 S
C171 C172 1.380 . S
C171 H189 0.930 . S
C172 C171 1.380 . S
C172 C179 1.357 . S
C173 C164 1.511 . S
C173 C174 1.341 . S
C173 C175 1.371 . S
C174 C173 1.341 . S
C174 C178 1.394 . S
C174 H190 0.930 . S
C175 C173 1.371 . S
C175 C176 1.392 . S
C175 H191 0.931 . S
C176 C175 1.392 . S
C176 C177 1.331 . S
C176 H194 0.932 . S
C177 C176 1.331 . S
C177 C178 1.336 . S
C178 C174 1.394 . S
C178 C177 1.336 . S
C178 H193 0.929 . S
C179 C169 1.386 1_545 S
C179 C172 1.357 . S
C179 H192 0.928 . S
H180 C156 0.915 1_655 S
H181 C158 0.930 . S
H182 C160 0.929 . S
H183 C161 0.931 . S
H184 C163 0.930 . S
H185 C167 0.931 . S
H186 C165 0.931 . S
H187 C169 0.931 . S
H188 C170 0.929 . S
H189 C171 0.930 . S
H190 C174 0.930 . S
H191 C175 0.931 . S
H192 C179 0.928 . S
H193 C178 0.929 . S
H194 C176 0.932 . S
C195 C196 1.386 . S
C195 C197 1.397 . S
C195 H219 0.931 . S
C196 C195 1.386 . S
C196 C200 1.397 . S
C197 C195 1.397 . S
C197 C198 1.384 . S
C197 H220 0.930 . S
C198 C197 1.384 . S
C198 C199 1.377 . S
C198 C201 1.481 . S
C199 C198 1.377 . S
C199 C200 1.389 . S
C199 H221 0.929 . S
C200 C196 1.397 . S
C200 C199 1.389 . S
C200 H222 0.931 . S
C201 C198 1.481 . S
C201 C202 1.387 . S
C201 C206 1.390 . S
C202 C201 1.387 . S
C202 C203 1.401 . S
C202 H223 0.930 . S
C203 C202 1.401 . S
C203 C204 1.376 . S
C203 C212 1.511 . S
C204 C203 1.376 . S
C204 C205 1.392 . S
C204 H225 0.931 . S
C205 C204 1.392 . S
C205 C206 1.361 . S
C205 C207 1.500 . S
C206 C201 1.390 . S
C206 C205 1.361 . S
C206 H224 0.931 . S
C207 C205 1.500 . S
C207 C208 1.371 . S
C207 C209 1.365 . S
C208 C207 1.371 . S
C208 C218 1.386 . S
C208 H226 0.931 . S
C209 C207 1.365 . S
C209 C210 1.409 . S
C209 H227 0.929 . S
C210 C209 1.409 . S
C210 C211 1.380 . S
C210 H228 0.930 . S
C211 C210 1.380 . S
C211 C218 1.357 . S
C212 C203 1.511 . S
C212 C213 1.341 . S
C212 C214 1.371 . S
C213 C212 1.341 . S
C213 C217 1.394 . S
C213 H229 0.930 . S
C214 C212 1.371 . S
C214 C215 1.392 . S
C214 H230 0.931 . S
C215 C214 1.392 . S
C215 C216 1.331 . S
C215 H233 0.932 . S
C216 C215 1.331 . S
C216 C217 1.336 . S
C217 C213 1.394 . S
C217 C216 1.336 . S
C217 H232 0.929 . S
C218 C208 1.386 . S
C218 C211 1.357 . S
C218 H231 0.928 . S
H219 C195 0.931 . S
H220 C197 0.930 . S
H221 C199 0.929 . S
H222 C200 0.931 . S
H223 C202 0.930 . S
H224 C206 0.931 . S
H225 C204 0.931 . S
H226 C208 0.931 . S
H227 C209 0.929 . S
H228 C210 0.930 . S
H229 C213 0.930 . S
H230 C214 0.931 . S
H231 C218 0.928 . S
H232 C217 0.929 . S
H233 C215 0.932 . S
C234 C235 1.386 . S
C234 C236 1.397 . S
C234 H258 0.931 . S
C235 C234 1.386 . S
C235 C239 1.397 . S
C236 C234 1.397 . S
C236 C237 1.384 . S
C236 H259 0.930 . S
C237 C236 1.384 . S
C237 C238 1.377 . S
C237 C240 1.481 . S
C238 C237 1.377 . S
C238 C239 1.389 . S
C238 H260 0.929 . S
C239 C235 1.397 . S
C239 C238 1.389 . S
C239 H261 0.931 . S
C240 C237 1.481 . S
C240 C241 1.387 . S
C240 C245 1.390 . S
C241 C240 1.387 . S
C241 C242 1.401 . S
C241 H262 0.930 . S
C242 C241 1.401 . S
C242 C243 1.376 . S
C242 C251 1.511 . S
C243 C242 1.376 . S
C243 C244 1.392 . S
C243 H264 0.931 . S
C244 C243 1.392 . S
C244 C245 1.361 . S
C244 C246 1.500 . S
C245 C240 1.390 . S
C245 C244 1.361 . S
C245 H263 0.931 . S
C246 C244 1.500 . S
C246 C247 1.371 . S
C246 C248 1.365 . S
C247 C246 1.371 . S
C247 C257 1.386 . S
C247 H265 0.931 . S
C248 C246 1.365 . S
C248 C249 1.409 . S
C248 H266 0.929 . S
C249 C248 1.409 . S
C249 C250 1.380 . S
C249 H267 0.930 . S
C250 C249 1.380 . S
C250 C257 1.357 . S
C251 C242 1.511 . S
C251 C252 1.341 . S
C251 C253 1.371 . S
C252 C251 1.341 . S
C252 C256 1.394 . S
C252 H268 0.930 . S
C253 C251 1.371 . S
C253 C254 1.392 . S
C253 H269 0.931 . S
C254 C253 1.392 . S
C254 C255 1.331 . S
C254 H272 0.932 . S
C255 C254 1.331 . S
C255 C256 1.336 . S
C256 C252 1.394 . S
C256 C255 1.336 . S
C256 H271 0.929 . S
C257 C247 1.386 . S
C257 C250 1.357 . S
C257 H270 0.928 . S
H258 C234 0.931 . S
H259 C236 0.930 . S
H260 C238 0.929 . S
H261 C239 0.931 . S
H262 C241 0.930 . S
H263 C245 0.931 . S
H264 C243 0.931 . S
H265 C247 0.931 . S
H266 C248 0.929 . S
H267 C249 0.930 . S
H268 C252 0.930 . S
H269 C253 0.931 . S
H270 C257 0.928 . S
H271 C256 0.929 . S
H272 C254 0.932 . S
C273 C274 1.386 . S
C273 C275 1.397 . S
C273 H297 0.931 . S
C274 C273 1.386 . S
C274 C278 1.397 . S
C275 C273 1.397 . S
C275 C276 1.384 . S
C275 H298 0.930 . S
C276 C275 1.384 . S
C276 C277 1.377 . S
C276 C279 1.481 . S
C277 C276 1.377 . S
C277 C278 1.389 . S
C277 H299 0.929 . S
C278 C274 1.397 . S
C278 C277 1.389 . S
C278 H300 0.931 . S
C279 C276 1.481 . S
C279 C280 1.387 . S
C279 C284 1.390 . S
C280 C279 1.387 . S
C280 C281 1.401 . S
C280 H301 0.930 . S
C281 C280 1.401 . S
C281 C282 1.376 . S
C281 C290 1.511 . S
C282 C281 1.376 . S
C282 C283 1.392 . S
C282 H303 0.931 . S
C283 C282 1.392 . S
C283 C284 1.361 . S
C283 C285 1.500 . S
C284 C279 1.390 . S
C284 C283 1.361 . S
C284 H302 0.931 . S
C285 C283 1.500 . S
C285 C286 1.371 . S
C285 C287 1.365 . S
C286 C285 1.371 . S
C286 C296 1.386 . S
C286 H304 0.931 . S
C287 C285 1.365 . S
C287 C288 1.409 . S
C287 H305 0.929 . S
C288 C287 1.409 . S
C288 C289 1.380 . S
C288 H306 0.930 . S
C289 C288 1.380 . S
C289 C296 1.357 . S
C290 C281 1.511 . S
C290 C291 1.341 . S
C290 C292 1.371 . S
C291 C290 1.341 . S
C291 C295 1.394 . S
C291 H307 0.930 . S
C292 C290 1.371 . S
C292 C293 1.392 . S
C292 H308 0.931 . S
C293 C292 1.392 . S
C293 C294 1.331 . S
C293 H311 0.932 . S
C294 C293 1.331 . S
C294 C295 1.336 . S
C295 C291 1.394 . S
C295 C294 1.336 . S
C295 H310 0.929 . S
C296 C286 1.386 . S
C296 C289 1.357 . S
C296 H309 0.928 . S
H297 C273 0.931 . S
H298 C275 0.930 . S
H299 C277 0.929 . S
H300 C278 0.931 . S
H301 C280 0.930 . S
H302 C284 0.931 . S
H303 C282 0.931 . S
H304 C286 0.931 . S
H305 C287 0.929 . S
H306 C288 0.930 . S
H307 C291 0.930 . S
H308 C292 0.931 . S
H309 C296 0.928 . S
H310 C295 0.929 . S
H311 C293 0.932 . S
C312 C313 1.386 . S
C312 C314 1.397 . S
C312 H336 0.931 . S
C313 C312 1.386 . S
C313 C317 1.397 . S
C314 C312 1.397 . S
C314 C315 1.384 . S
C314 H337 0.930 . S
C315 C314 1.384 . S
C315 C316 1.377 . S
C315 C318 1.481 . S
C316 C315 1.377 . S
C316 C317 1.389 . S
C316 H338 0.929 . S
C317 C313 1.397 . S
C317 C316 1.389 . S
C317 H339 0.931 . S
C318 C315 1.481 . S
C318 C319 1.387 . S
C318 C323 1.390 . S
C319 C318 1.387 . S
C319 C320 1.401 . S
C319 H340 0.930 . S
C320 C319 1.401 . S
C320 C321 1.376 . S
C320 C329 1.511 . S
C321 C320 1.376 . S
C321 C322 1.392 . S
C321 H342 0.931 . S
C322 C321 1.392 . S
C322 C323 1.361 . S
C322 C324 1.500 . S
C323 C318 1.390 . S
C323 C322 1.361 . S
C323 H341 0.931 . S
C324 C322 1.500 . S
C324 C325 1.371 . S
C324 C326 1.365 . S
C325 C324 1.371 . S
C325 C335 1.386 . S
C325 H343 0.931 . S
C326 C324 1.365 . S
C326 C327 1.409 . S
C326 H344 0.929 . S
C327 C326 1.409 . S
C327 C328 1.380 . S
C327 H345 0.930 . S
C328 C327 1.380 . S
C328 C335 1.357 . S
C329 C320 1.511 . S
C329 C330 1.341 . S
C329 C331 1.371 . S
C330 C329 1.341 . S
C330 C334 1.394 . S
C330 H346 0.930 . S
C331 C329 1.371 . S
C331 C332 1.392 . S
C331 H347 0.931 . S
C332 C331 1.392 . S
C332 C333 1.331 . S
C332 H350 0.932 . S
C333 C332 1.331 . S
C333 C334 1.336 . S
C334 C330 1.394 . S
C334 C333 1.336 . S
C334 H349 0.929 . S
C335 C325 1.386 . S
C335 C328 1.357 . S
C335 H348 0.928 . S
H336 C312 0.931 . S
H337 C314 0.930 . S
H338 C316 0.929 . S
H339 C317 0.931 . S
H340 C319 0.930 . S
H341 C323 0.931 . S
H342 C321 0.931 . S
H343 C325 0.931 . S
H344 C326 0.929 . S
H345 C327 0.930 . S
H346 C330 0.930 . S
H347 C331 0.931 . S
H348 C335 0.928 . S
H349 C334 0.929 . S
H350 C332 0.932 . S
C351 C352 1.386 . S
C351 C353 1.397 . S
C351 H375 0.931 . S
C352 C351 1.386 . S
C352 C356 1.397 . S
C353 C351 1.397 . S
C353 C354 1.384 . S
C353 H376 0.930 . S
C354 C353 1.384 . S
C354 C355 1.377 . S
C354 C357 1.481 . S
C355 C354 1.377 . S
C355 C356 1.389 . S
C355 H377 0.929 . S
C356 C352 1.397 . S
C356 C355 1.389 . S
C356 H378 0.931 . S
C357 C354 1.481 . S
C357 C358 1.387 . S
C357 C362 1.390 . S
C358 C357 1.387 . S
C358 C359 1.401 . S
C358 H379 0.930 . S
C359 C358 1.401 . S
C359 C360 1.376 . S
C359 C368 1.511 . S
C360 C359 1.376 . S
C360 C361 1.392 . S
C360 H381 0.931 . S
C361 C360 1.392 . S
C361 C362 1.361 . S
C361 C363 1.500 . S
C362 C357 1.390 . S
C362 C361 1.361 . S
C362 H380 0.931 . S
C363 C361 1.500 . S
C363 C364 1.371 . S
C363 C365 1.365 . S
C364 C363 1.371 . S
C364 C374 1.386 . S
C364 H382 0.931 . S
C365 C363 1.365 . S
C365 C366 1.409 . S
C365 H383 0.929 . S
C366 C365 1.409 . S
C366 C367 1.380 . S
C366 H384 0.930 . S
C367 C366 1.380 . S
C367 C374 1.357 . S
C368 C359 1.511 . S
C368 C369 1.341 . S
C368 C370 1.371 . S
C369 C368 1.341 . S
C369 C373 1.394 . S
C369 H385 0.930 . S
C370 C368 1.371 . S
C370 C371 1.392 . S
C370 H386 0.931 . S
C371 C370 1.392 . S
C371 C372 1.331 . S
C371 H389 0.932 . S
C372 C371 1.331 . S
C372 C373 1.336 . S
C373 C369 1.394 . S
C373 C372 1.336 . S
C373 H388 0.929 1_565 S
C374 C364 1.386 . S
C374 C367 1.357 . S
C374 H387 0.928 . S
H375 C351 0.931 . S
H376 C353 0.930 . S
H377 C355 0.929 . S
H378 C356 0.931 . S
H379 C358 0.930 . S
H380 C362 0.931 . S
H381 C360 0.931 . S
H382 C364 0.931 . S
H383 C365 0.929 . S
H384 C366 0.930 . S
H385 C369 0.930 . S
H386 C370 0.931 . S
H387 C374 0.928 . S
H388 C373 0.929 1_545 S
H389 C371 0.932 . S
C390 C391 1.386 . S
C390 C392 1.397 . S
C390 H414 0.931 . S
C391 C390 1.386 . S
C391 C395 1.397 . S
C392 C390 1.397 . S
C392 C393 1.384 . S
C392 H415 0.930 . S
C393 C392 1.384 . S
C393 C394 1.377 . S
C393 C396 1.481 . S
C394 C393 1.377 . S
C394 C395 1.389 . S
C394 H416 0.929 . S
C395 C391 1.397 . S
C395 C394 1.389 . S
C395 H417 0.931 . S
C396 C393 1.481 . S
C396 C397 1.387 . S
C396 C401 1.390 . S
C397 C396 1.387 . S
C397 C398 1.401 . S
C397 H418 0.930 . S
C398 C397 1.401 . S
C398 C399 1.376 . S
C398 C407 1.511 . S
C399 C398 1.376 . S
C399 C400 1.392 . S
C399 H420 0.931 . S
C400 C399 1.392 . S
C400 C401 1.361 . S
C400 C402 1.500 . S
C401 C396 1.390 . S
C401 C400 1.361 . S
C401 H419 0.931 . S
C402 C400 1.500 . S
C402 C403 1.371 . S
C402 C404 1.365 . S
C403 C402 1.371 . S
C403 C413 1.386 . S
C403 H421 0.931 . S
C404 C402 1.365 . S
C404 C405 1.409 . S
C404 H422 0.929 . S
C405 C404 1.409 . S
C405 C406 1.380 . S
C405 H423 0.930 . S
C406 C405 1.380 . S
C406 C413 1.357 . S
C407 C398 1.511 . S
C407 C408 1.341 . S
C407 C409 1.371 . S
C408 C407 1.341 . S
C408 C412 1.394 . S
C408 H424 0.930 . S
C409 C407 1.371 . S
C409 C410 1.392 . S
C409 H425 0.931 . S
C410 C409 1.392 . S
C410 C411 1.331 . S
C410 H428 0.932 . S
C411 C410 1.331 . S
C411 C412 1.336 . S
C412 C408 1.394 . S
C412 C411 1.336 . S
C412 H427 0.929 . S
C413 C403 1.386 . S
C413 C406 1.357 . S
C413 H426 0.928 . S
H414 C390 0.931 . S
H415 C392 0.930 . S
H416 C394 0.929 . S
H417 C395 0.931 . S
H418 C397 0.930 . S
H419 C401 0.931 . S
H420 C399 0.931 . S
H421 C403 0.931 . S
H422 C404 0.929 . S
H423 C405 0.930 . S
H424 C408 0.930 . S
H425 C409 0.931 . S
H426 C413 0.928 . S
H427 C412 0.929 . S
H428 C410 0.932 . S
C429 C430 1.386 . S
C429 C431 1.397 . S
C429 H453 0.931 . S
C430 C429 1.386 . S
C430 C434 1.397 . S
C431 C429 1.397 . S
C431 C432 1.384 . S
C431 H454 0.930 . S
C432 C431 1.384 . S
C432 C433 1.377 . S
C432 C435 1.481 . S
C433 C432 1.377 . S
C433 C434 1.389 . S
C433 H455 0.929 . S
C434 C430 1.397 . S
C434 C433 1.389 . S
C434 H456 0.931 . S
C435 C432 1.481 . S
C435 C436 1.387 . S
C435 C440 1.390 . S
C436 C435 1.387 . S
C436 C437 1.401 . S
C436 H457 0.930 . S
C437 C436 1.401 . S
C437 C438 1.376 . S
C437 C446 1.511 . S
C438 C437 1.376 . S
C438 C439 1.392 . S
C438 H459 0.931 . S
C439 C438 1.392 . S
C439 C440 1.361 . S
C439 C441 1.500 . S
C440 C435 1.390 . S
C440 C439 1.361 . S
C440 H458 0.931 . S
C441 C439 1.500 . S
C441 C442 1.371 . S
C441 C443 1.365 . S
C442 C441 1.371 . S
C442 C452 1.386 . S
C442 H460 0.931 . S
C443 C441 1.365 . S
C443 C444 1.409 . S
C443 H461 0.929 . S
C444 C443 1.409 . S
C444 C445 1.380 . S
C444 H462 0.930 . S
C445 C444 1.380 . S
C445 C452 1.357 . S
C446 C437 1.511 . S
C446 C447 1.341 . S
C446 C448 1.371 . S
C447 C446 1.341 . S
C447 C451 1.394 . S
C447 H463 0.930 . S
C448 C446 1.371 . S
C448 C449 1.392 . S
C448 H464 0.931 . S
C449 C448 1.392 . S
C449 C450 1.331 . S
C449 H467 0.932 . S
C450 C449 1.331 . S
C450 C451 1.336 . S
C451 C447 1.394 . S
C451 C450 1.336 . S
C451 H466 0.929 . S
C452 C442 1.386 . S
C452 C445 1.357 . S
C452 H465 0.928 . S
H453 C429 0.931 . S
H454 C431 0.930 . S
H455 C433 0.929 . S
H456 C434 0.931 . S
H457 C436 0.930 . S
H458 C440 0.931 . S
H459 C438 0.931 . S
H460 C442 0.931 . S
H461 C443 0.929 . S
H462 C444 0.930 . S
H463 C447 0.930 . S
H464 C448 0.931 . S
H465 C452 0.928 . S
H466 C451 0.929 . S
H467 C449 0.932 . S
C468 C469 1.386 . S
C468 C470 1.397 . S
C468 H492 0.931 . S
C469 C468 1.386 . S
C469 C473 1.397 . S
C470 C468 1.397 . S
C470 C471 1.384 . S
C470 H493 0.930 . S
C471 C470 1.384 . S
C471 C472 1.377 . S
C471 C474 1.481 . S
C472 C471 1.377 . S
C472 C473 1.389 . S
C472 H494 0.929 . S
C473 C469 1.397 . S
C473 C472 1.389 . S
C473 H495 0.931 . S
C474 C471 1.481 . S
C474 C475 1.387 . S
C474 C479 1.390 . S
C475 C474 1.387 . S
C475 C476 1.401 . S
C475 H496 0.930 . S
C476 C475 1.401 . S
C476 C477 1.376 . S
C476 C485 1.511 . S
C477 C476 1.376 . S
C477 C478 1.392 . S
C477 H498 0.931 . S
C478 C477 1.392 . S
C478 C479 1.361 . S
C478 C480 1.500 . S
C479 C474 1.390 . S
C479 C478 1.361 . S
C479 H497 0.931 . S
C480 C478 1.500 . S
C480 C481 1.371 . S
C480 C482 1.365 . S
C481 C480 1.371 . S
C481 C491 1.386 . S
C481 H499 0.931 . S
C482 C480 1.365 . S
C482 C483 1.409 . S
C482 H500 0.929 . S
C483 C482 1.409 . S
C483 C484 1.380 . S
C483 H501 0.930 . S
C484 C483 1.380 . S
C484 C491 1.357 . S
C485 C476 1.511 . S
C485 C486 1.341 . S
C485 C487 1.371 . S
C486 C485 1.341 . S
C486 C490 1.394 . S
C486 H502 0.930 . S
C487 C485 1.371 . S
C487 C488 1.392 . S
C487 H503 0.931 . S
C488 C487 1.392 . S
C488 C489 1.331 . S
C488 H506 0.932 . S
C489 C488 1.331 . S
C489 C490 1.336 . S
C490 C486 1.394 . S
C490 C489 1.336 . S
C490 H505 0.929 . S
C491 C481 1.386 . S
C491 C484 1.357 . S
C491 H504 0.928 . S
H492 C468 0.931 . S
H493 C470 0.930 . S
H494 C472 0.929 . S
H495 C473 0.931 . S
H496 C475 0.930 . S
H497 C479 0.931 . S
H498 C477 0.931 . S
H499 C481 0.931 . S
H500 C482 0.929 . S
H501 C483 0.930 . S
H502 C486 0.930 . S
H503 C487 0.931 . S
H504 C491 0.928 . S
H505 C490 0.929 . S
H506 C488 0.932 . S
C507 C508 1.386 . S
C507 C509 1.397 . S
C507 H531 0.931 . S
C508 C507 1.386 . S
C508 C512 1.397 . S
C509 C507 1.397 . S
C509 C510 1.384 . S
C509 H532 0.930 . S
C510 C509 1.384 . S
C510 C511 1.377 . S
C510 C513 1.481 . S
C511 C510 1.377 . S
C511 C512 1.389 . S
C511 H533 0.929 . S
C512 C508 1.397 . S
C512 C511 1.389 . S
C512 H534 0.931 . S
C513 C510 1.481 . S
C513 C514 1.387 . S
C513 C518 1.390 . S
C514 C513 1.387 . S
C514 C515 1.401 . S
C514 H535 0.930 . S
C515 C514 1.401 . S
C515 C516 1.376 . S
C515 C524 1.511 . S
C516 C515 1.376 . S
C516 C517 1.392 . S
C516 H537 0.931 . S
C517 C516 1.392 . S
C517 C518 1.361 . S
C517 C519 1.500 . S
C518 C513 1.390 . S
C518 C517 1.361 . S
C518 H536 0.931 . S
C519 C517 1.500 . S
C519 C520 1.371 . S
C519 C521 1.365 . S
C520 C519 1.371 . S
C520 C530 1.386 . S
C520 H538 0.931 . S
C521 C519 1.365 . S
C521 C522 1.409 . S
C521 H539 0.929 . S
C522 C521 1.409 . S
C522 C523 1.380 . S
C522 H540 0.930 . S
C523 C522 1.380 . S
C523 C530 1.357 . S
C524 C515 1.511 . S
C524 C525 1.341 . S
C524 C526 1.371 . S
C525 C524 1.341 . S
C525 C529 1.394 . S
C525 H541 0.930 . S
C526 C524 1.371 . S
C526 C527 1.392 . S
C526 H542 0.931 . S
C527 C526 1.392 . S
C527 C528 1.331 . S
C527 H545 0.932 . S
C528 C527 1.331 . S
C528 C529 1.336 . S
C529 C525 1.394 . S
C529 C528 1.336 . S
C529 H544 0.929 . S
C530 C520 1.386 . S
C530 C523 1.357 . S
C530 H543 0.928 . S
H531 C507 0.931 . S
H532 C509 0.930 . S
H533 C511 0.929 . S
H534 C512 0.931 . S
H535 C514 0.930 . S
H536 C518 0.931 . S
H537 C516 0.931 . S
H538 C520 0.931 . S
H539 C521 0.929 . S
H540 C522 0.930 . S
H541 C525 0.930 . S
H542 C526 0.931 . S
H543 C530 0.928 . S
H544 C529 0.929 . S
H545 C527 0.932 . S
C546 C547 1.386 . S
C546 C548 1.397 . S
C546 H570 0.931 . S
C547 C546 1.386 . S
C547 C551 1.397 . S
C548 C546 1.397 . S
C548 C549 1.384 . S
C548 H571 0.930 . S
C549 C548 1.384 . S
C549 C550 1.377 . S
C549 C552 1.481 . S
C550 C549 1.377 . S
C550 C551 1.389 . S
C550 H572 0.929 . S
C551 C547 1.397 . S
C551 C550 1.389 . S
C551 H573 0.931 . S
C552 C549 1.481 . S
C552 C553 1.387 . S
C552 C557 1.390 . S
C553 C552 1.387 . S
C553 C554 1.401 . S
C553 H574 0.930 . S
C554 C553 1.401 . S
C554 C555 1.376 . S
C554 C563 1.511 . S
C555 C554 1.376 . S
C555 C556 1.392 . S
C555 H576 0.931 . S
C556 C555 1.392 . S
C556 C557 1.361 . S
C556 C558 1.500 . S
C557 C552 1.390 . S
C557 C556 1.361 . S
C557 H575 0.931 . S
C558 C556 1.500 . S
C558 C559 1.371 . S
C558 C560 1.365 . S
C559 C558 1.371 . S
C559 C569 1.386 . S
C559 H577 0.931 . S
C560 C558 1.365 . S
C560 C561 1.409 . S
C560 H578 0.929 . S
C561 C560 1.409 . S
C561 C562 1.380 . S
C561 H579 0.930 . S
C562 C561 1.380 . S
C562 C569 1.357 . S
C563 C554 1.511 . S
C563 C564 1.341 . S
C563 C565 1.371 . S
C564 C563 1.341 . S
C564 C568 1.394 . S
C564 H580 0.930 . S
C565 C563 1.371 . S
C565 C566 1.392 . S
C565 H581 0.931 . S
C566 C565 1.392 . S
C566 C567 1.331 . S
C566 H584 0.932 . S
C567 C566 1.331 . S
C567 C568 1.336 . S
C568 C564 1.394 . S
C568 C567 1.336 . S
C568 H583 0.929 . S
C569 C559 1.386 . S
C569 C562 1.357 . S
C569 H582 0.928 . S
H570 C546 0.931 . S
H571 C548 0.930 . S
H572 C550 0.929 . S
H573 C551 0.931 . S
H574 C553 0.930 . S
H575 C557 0.931 . S
H576 C555 0.931 . S
H577 C559 0.931 . S
H578 C560 0.929 . S
H579 C561 0.930 . S
H580 C564 0.930 . S
H581 C565 0.931 . S
H582 C569 0.928 . S
H583 C568 0.929 . S
H584 C566 0.932 . S
C585 C586 1.386 1_556 S
C585 C587 1.397 . S
C585 H609 0.931 . S
C586 C585 1.386 1_554 S
C586 C590 1.397 . S
C587 C585 1.397 . S
C587 C588 1.384 . S
C587 H610 0.930 . S
C588 C587 1.384 . S
C588 C589 1.377 . S
C588 C591 1.481 . S
C589 C588 1.377 . S
C589 C590 1.389 1_556 S
C589 H611 0.929 1_556 S
C590 C586 1.397 . S
C590 C589 1.389 1_554 S
C590 H612 0.931 . S
C591 C588 1.481 . S
C591 C592 1.387 . S
C591 C596 1.390 . S
C592 C591 1.387 . S
C592 C593 1.401 . S
C592 H613 0.930 . S
C593 C592 1.401 . S
C593 C594 1.376 . S
C593 C602 1.511 . S
C594 C593 1.376 . S
C594 C595 1.392 . S
C594 H615 0.931 . S
C595 C594 1.392 . S
C595 C596 1.361 . S
C595 C597 1.500 . S
C596 C591 1.390 . S
C596 C595 1.361 . S
C596 H614 0.931 . S
C597 C595 1.500 . S
C597 C598 1.371 . S
C597 C599 1.365 . S
C598 C597 1.371 . S
C598 C608 1.386 . S
C598 H616 0.931 . S
C599 C597 1.365 . S
C599 C600 1.409 . S
C599 H617 0.929 . S
C600 C599 1.409 . S
C600 C601 1.380 . S
C600 H618 0.930 1_556 S
C601 C600 1.380 . S
C601 C608 1.357 . S
C602 C593 1.511 . S
C602 C603 1.341 . S
C602 C604 1.371 . S
C603 C602 1.341 . S
C603 C607 1.394 . S
C603 H619 0.930 . S
C604 C602 1.371 . S
C604 C605 1.392 . S
C604 H620 0.931 . S
C605 C604 1.392 . S
C605 C606 1.331 . S
C605 H623 0.932 . S
C606 C605 1.331 . S
C606 C607 1.336 . S
C607 C603 1.394 . S
C607 C606 1.336 . S
C607 H622 0.929 . S
C608 C598 1.386 . S
C608 C601 1.357 . S
C608 H621 0.928 . S
H609 C585 0.931 . S
H610 C587 0.930 . S
H611 C589 0.929 1_554 S
H612 C590 0.931 . S
H613 C592 0.930 . S
H614 C596 0.931 . S
H615 C594 0.931 . S
H616 C598 0.931 . S
H617 C599 0.929 . S
H618 C600 0.930 1_554 S
H619 C603 0.930 . S
H620 C604 0.931 . S
H621 C608 0.928 . S
H622 C607 0.929 . S
H623 C605 0.932 . S
O624 Cd625 2.223 . S
O624 C632 1.315 . S
Cd625 O624 2.223 . S
Cd625 O628 2.297 . S
Cd625 O629 2.439 . S
Cd625 O635 2.240 . S
Cd626 O627 2.240 . S
Cd626 O634 2.223 . S
Cd626 O636 2.297 . S
Cd626 O637 2.439 . S
O627 Cd626 2.240 . S
O627 C632 1.279 . S
O628 Cd625 2.297 . S
O628 C630 1.247 . S
O629 Cd625 2.439 . S
O629 C630 1.208 . S
C630 O628 1.247 . S
C630 O629 1.208 . S
C631 O636 1.247 . S
C631 O637 1.208 . S
C632 O624 1.315 . S
C632 O627 1.279 . S
C633 O634 1.315 . S
C633 O635 1.279 . S
O634 Cd626 2.223 . S
O634 C633 1.315 . S
O635 Cd625 2.240 . S
O635 C633 1.279 . S
O636 Cd626 2.297 . S
O636 C631 1.247 . S
O637 Cd626 2.439 . S
O637 C631 1.208 . S
O638 Cd639 2.223 . S
O638 C646 1.315 . S
Cd639 O638 2.223 . S
Cd639 O642 2.297 . S
Cd639 O643 2.439 . S
Cd639 O649 2.240 . S
Cd640 O641 2.240 . S
Cd640 O648 2.223 . S
Cd640 O650 2.297 . S
Cd640 O651 2.439 . S
O641 Cd640 2.240 . S
O641 C646 1.279 . S
O642 Cd639 2.297 . S
O642 C644 1.247 . S
O643 Cd639 2.439 . S
O643 C644 1.208 . S
C644 O642 1.247 . S
C644 O643 1.208 . S
C645 O650 1.247 . S
C645 O651 1.208 . S
C646 O638 1.315 . S
C646 O641 1.279 . S
C647 O648 1.315 . S
C647 O649 1.279 . S
O648 Cd640 2.223 . S
O648 C647 1.315 . S
O649 Cd639 2.240 . S
O649 C647 1.279 . S
O650 Cd640 2.297 . S
O650 C645 1.247 . S
O651 Cd640 2.439 . S
O651 C645 1.208 . S
O652 Cd653 2.223 1_556 S
O652 C660 1.315 . S
Cd653 O652 2.223 1_554 S
Cd653 O656 2.297 . S
Cd653 O657 2.439 . S
Cd653 O663 2.240 . S
Cd654 O655 2.240 . S
Cd654 O662 2.223 . S
Cd654 O664 2.290 1_556 S
Cd654 O665 2.439 1_556 S
O655 Cd654 2.240 . S
O655 C660 1.279 . S
O656 Cd653 2.297 . S
O656 C658 1.247 . S
O657 Cd653 2.439 . S
O657 C658 1.208 . S
C658 O656 1.247 . S
C658 O657 1.208 . S
C659 O664 1.266 . S
C659 O665 1.208 . S
C660 O652 1.315 . S
C660 O655 1.279 . S
C661 O662 1.315 . S
C661 O663 1.279 1_556 S
O662 Cd654 2.223 . S
O662 C661 1.315 . S
O663 Cd653 2.240 . S
O663 C661 1.279 1_554 S
O664 Cd654 2.290 1_554 S
O664 C659 1.266 . S
O665 Cd654 2.439 1_554 S
O665 C659 1.208 . S
O666 Cd667 2.223 . S
O666 C674 1.315 . S
Cd667 O666 2.223 . S
Cd667 O670 2.297 . S
Cd667 O671 2.439 . S
Cd667 O677 2.240 . S
Cd668 O669 2.240 . S
Cd668 O676 2.223 . S
Cd668 O678 2.297 . S
Cd668 O679 2.439 . S
O669 Cd668 2.240 . S
O669 C674 1.279 . S
O670 Cd667 2.297 . S
O670 C672 1.247 . S
O671 Cd667 2.439 . S
O671 C672 1.208 . S
C672 O670 1.247 . S
C672 O671 1.208 . S
C673 O678 1.247 . S
C673 O679 1.208 . S
C674 O666 1.315 . S
C674 O669 1.279 . S
C675 O676 1.315 . S
C675 O677 1.279 . S
O676 Cd668 2.223 . S
O676 C675 1.315 . S
O677 Cd667 2.240 . S
O677 C675 1.279 . S
O678 Cd668 2.297 . S
O678 C673 1.247 . S
O679 Cd668 2.439 . S
O679 C673 1.208 . S
O680 Cd681 2.223 . S
O680 C688 1.315 . S
Cd681 O680 2.223 . S
Cd681 O684 2.297 . S
Cd681 O685 2.439 . S
Cd681 O691 2.240 . S
Cd682 O683 2.240 . S
Cd682 O690 2.223 . S
Cd682 O692 2.297 . S
Cd682 O693 2.439 . S
O683 Cd682 2.240 . S
O683 C688 1.279 . S
O684 Cd681 2.297 . S
O684 C686 1.247 . S
O685 Cd681 2.439 . S
O685 C686 1.208 . S
C686 O684 1.247 . S
C686 O685 1.208 . S
C687 O692 1.247 . S
C687 O693 1.208 . S
C688 O680 1.315 . S
C688 O683 1.279 . S
C689 O690 1.315 . S
C689 O691 1.279 . S
O690 Cd682 2.223 . S
O690 C689 1.315 . S
O691 Cd681 2.240 . S
O691 C689 1.279 . S
O692 Cd682 2.297 . S
O692 C687 1.247 . S
O693 Cd682 2.439 . S
O693 C687 1.208 . S
O694 Cd695 2.223 . S
O694 C702 1.315 . S
Cd695 O694 2.223 . S
Cd695 O698 2.297 . S
Cd695 O699 2.439 . S
Cd695 O705 2.240 . S
Cd696 O697 2.240 . S
Cd696 O704 2.223 . S
Cd696 O706 2.297 . S
Cd696 O707 2.439 . S
O697 Cd696 2.240 . S
O697 C702 1.279 . S
O698 Cd695 2.297 . S
O698 C700 1.247 . S
O699 Cd695 2.439 . S
O699 C700 1.208 . S
C700 O698 1.247 . S
C700 O699 1.208 . S
C701 O706 1.247 . S
C701 O707 1.208 . S
C702 O694 1.315 . S
C702 O697 1.279 . S
C703 O704 1.315 . S
C703 O705 1.279 . S
O704 Cd696 2.223 . S
O704 C703 1.315 . S
O705 Cd695 2.240 . S
O705 C703 1.279 . S
O706 Cd696 2.297 . S
O706 C701 1.247 . S
O707 Cd696 2.439 . S
O707 C701 1.208 . S
O708 Cd709 2.223 . S
O708 C716 1.315 . S
Cd709 O708 2.223 . S
Cd709 O712 2.297 . S
Cd709 O713 2.439 . S
Cd709 O719 2.240 . S
Cd710 O711 2.240 . S
Cd710 O718 2.223 . S
Cd710 O720 2.297 . S
Cd710 O721 2.439 . S
O711 Cd710 2.240 . S
O711 C716 1.279 . S
O712 Cd709 2.297 . S
O712 C714 1.247 . S
O713 Cd709 2.439 . S
O713 C714 1.208 . S
C714 O712 1.247 . S
C714 O713 1.208 . S
C715 O720 1.247 . S
C715 O721 1.208 . S
C716 O708 1.315 . S
C716 O711 1.279 . S
C717 O718 1.315 . S
C717 O719 1.279 . S
O718 Cd710 2.223 . S
O718 C717 1.315 . S
O719 Cd709 2.240 . S
O719 C717 1.279 . S
O720 Cd710 2.297 . S
O720 C715 1.247 . S
O721 Cd710 2.439 . S
O721 C715 1.208 . S
O722 Cd723 2.223 1_545 S
O722 C730 1.315 . S
Cd723 O722 2.223 1_565 S
Cd723 O726 2.297 . S
Cd723 O727 2.439 . S
Cd723 O733 2.240 1_565 S
Cd724 O725 2.240 . S
Cd724 O732 2.223 . S
Cd724 O734 2.297 . S
Cd724 O735 2.439 1_545 S
O725 Cd724 2.240 . S
O725 C730 1.279 . S
O726 Cd723 2.297 . S
O726 C728 1.247 . S
O727 Cd723 2.439 . S
O727 C728 1.208 . S
C728 O726 1.247 . S
C728 O727 1.208 . S
C729 O734 1.247 1_565 S
C729 O735 1.208 . S
C730 O722 1.315 . S
C730 O725 1.279 . S
C731 O732 1.315 . S
C731 O733 1.279 . S
O732 Cd724 2.223 . S
O732 C731 1.315 . S
O733 Cd723 2.240 1_545 S
O733 C731 1.279 . S
O734 Cd724 2.297 . S
O734 C729 1.247 1_545 S
O735 Cd724 2.439 1_565 S
O735 C729 1.208 . S
O736 Cd737 2.223 . S
O736 C744 1.315 . S
Cd737 O736 2.223 . S
Cd737 O740 2.297 1_655 S
Cd737 O741 2.439 1_655 S
Cd737 O747 2.240 . S
Cd738 O739 2.240 . S
Cd738 O746 2.223 1_455 S
Cd738 O748 2.297 . S
Cd738 O749 2.439 . S
O739 Cd738 2.240 . S
O739 C744 1.279 1_455 S
O740 Cd737 2.297 1_455 S
O740 C742 1.247 . S
O741 Cd737 2.439 1_455 S
O741 C742 1.208 . S
C742 O740 1.247 . S
C742 O741 1.208 . S
C743 O748 1.247 . S
C743 O749 1.208 . S
C744 O736 1.315 . S
C744 O739 1.279 1_655 S
C745 O746 1.315 . S
C745 O747 1.279 . S
O746 Cd738 2.223 1_655 S
O746 C745 1.315 . S
O747 Cd737 2.240 . S
O747 C745 1.279 . S
O748 Cd738 2.297 . S
O748 C743 1.247 . S
O749 Cd738 2.439 . S
O749 C743 1.208 . S
O750 Cd751 2.223 . S
O750 C758 1.315 . S
Cd751 O750 2.223 . S
Cd751 O754 2.297 . S
Cd751 O755 2.439 . S
Cd751 O761 2.240 . S
Cd752 O753 2.240 . S
Cd752 O760 2.223 . S
Cd752 O762 2.297 . S
Cd752 O763 2.439 . S
O753 Cd752 2.240 . S
O753 C758 1.279 . S
O754 Cd751 2.297 . S
O754 C756 1.247 . S
O755 Cd751 2.439 . S
O755 C756 1.208 . S
C756 O754 1.247 . S
C756 O755 1.208 . S
C757 O762 1.247 . S
C757 O763 1.208 . S
C758 O750 1.315 . S
C758 O753 1.279 . S
C759 O760 1.315 . S
C759 O761 1.279 . S
O760 Cd752 2.223 . S
O760 C759 1.315 . S
O761 Cd751 2.240 . S
O761 C759 1.279 . S
O762 Cd752 2.297 . S
O762 C757 1.247 . S
O763 Cd752 2.439 . S
O763 C757 1.208 . S
O764 Cd765 2.223 1_655 S
O764 C772 1.315 . S
Cd765 O764 2.223 1_455 S
Cd765 O768 2.297 . S
Cd765 O769 2.439 . S
Cd765 O775 2.240 . S
Cd766 O767 2.240 . S
Cd766 O774 2.223 . S
Cd766 O776 2.297 1_655 S
Cd766 O777 2.439 1_655 S
O767 Cd766 2.240 . S
O767 C772 1.279 . S
O768 Cd765 2.297 . S
O768 C770 1.247 . S
O769 Cd765 2.439 . S
O769 C770 1.208 . S
C770 O768 1.247 . S
C770 O769 1.208 . S
C771 O776 1.247 . S
C771 O777 1.208 . S
C772 O764 1.315 . S
C772 O767 1.279 . S
C773 O774 1.315 . S
C773 O775 1.279 1_655 S
O774 Cd766 2.223 . S
O774 C773 1.315 . S
O775 Cd765 2.240 . S
O775 C773 1.279 1_455 S
O776 Cd766 2.297 1_455 S
O776 C771 1.247 . S
O777 Cd766 2.439 1_455 S
O777 C771 1.208 . S
O778 Cd779 2.223 . S
O778 C786 1.315 . S
Cd779 O778 2.223 . S
Cd779 O782 2.297 . S
Cd779 O783 2.439 . S
Cd779 O789 2.240 . S
Cd780 O781 2.240 . S
Cd780 O788 2.223 . S
Cd780 O790 2.297 . S
Cd780 O791 2.439 . S
O781 Cd780 2.240 . S
O781 C786 1.279 . S
O782 Cd779 2.297 . S
O782 C784 1.247 . S
O783 Cd779 2.439 . S
O783 C784 1.208 . S
C784 O782 1.247 . S
C784 O783 1.208 . S
C785 O790 1.247 . S
C785 O791 1.208 . S
C786 O778 1.315 . S
C786 O781 1.279 . S
C787 O788 1.315 . S
C787 O789 1.279 . S
O788 Cd780 2.223 . S
O788 C787 1.315 . S
O789 Cd779 2.240 . S
O789 C787 1.279 . S
O790 Cd780 2.297 . S
O790 C785 1.247 . S
O791 Cd780 2.439 . S
O791 C785 1.208 . S
C792 C793 1.363 . S
C792 C798 1.379 . S
C792 N800 1.356 . S
C793 C792 1.363 . S
C793 C799 1.363 . S
C794 C795 1.363 . S
C794 C799 1.379 . S
C794 N801 1.356 1_556 S
C795 C794 1.363 . S
C795 C798 1.363 . S
N796 C798 1.356 . S
N796 H808 0.984 . S
N796 H809 0.985 . S
N797 C799 1.356 . S
N797 H802 0.984 . S
N797 H803 0.985 . S
C798 C792 1.379 . S
C798 C795 1.363 . S
C798 N796 1.356 . S
C799 C793 1.363 . S
C799 C794 1.379 . S
C799 N797 1.356 . S
N800 C792 1.356 . S
N800 H806 0.984 . S
N800 H807 0.984 . S
N801 C794 1.356 1_554 S
N801 H804 0.984 . S
N801 H805 0.985 . S
H802 N797 0.984 . S
H803 N797 0.985 . S
H804 N801 0.984 . S
H805 N801 0.985 . S
H806 N800 0.984 . S
H807 N800 0.984 . S
H808 N796 0.984 . S
H809 N796 0.985 . S
C810 C811 1.363 . S
C810 C816 1.379 . S
C810 N818 1.356 . S
C811 C810 1.363 . S
C811 C817 1.363 . S
C812 C813 1.363 . S
C812 C817 1.379 . S
C812 N819 1.356 . S
C813 C812 1.363 . S
C813 C816 1.363 . S
N814 C816 1.356 . S
N814 H826 0.984 . S
N814 H827 0.985 . S
N815 C817 1.356 1_655 S
N815 H820 0.984 . S
N815 H821 0.985 . S
C816 C810 1.379 . S
C816 C813 1.363 . S
C816 N814 1.356 . S
C817 C811 1.363 . S
C817 C812 1.379 . S
C817 N815 1.356 1_455 S
N818 C810 1.356 . S
N818 H824 0.984 . S
N818 H825 0.984 . S
N819 C812 1.356 . S
N819 H822 0.984 . S
N819 H823 0.985 . S
H820 N815 0.984 . S
H821 N815 0.985 . S
H822 N819 0.984 . S
H823 N819 0.985 . S
H824 N818 0.984 . S
H825 N818 0.984 . S
H826 N814 0.984 . S
H827 N814 0.985 . S
C828 C829 1.363 . S
C828 C834 1.379 . S
C828 N836 1.356 . S
C829 C828 1.363 . S
C829 C835 1.363 . S
C830 C831 1.363 . S
C830 C835 1.379 . S
C830 N837 1.356 . S
C831 C830 1.363 . S
C831 C834 1.363 . S
N832 C834 1.356 . S
N832 H844 0.984 . S
N832 H845 0.985 . S
N833 C835 1.356 . S
N833 H838 0.984 . S
N833 H839 0.985 . S
C834 C828 1.379 . S
C834 C831 1.363 . S
C834 N832 1.356 . S
C835 C829 1.363 . S
C835 C830 1.379 . S
C835 N833 1.356 . S
N836 C828 1.356 . S
N836 H842 0.984 . S
N836 H843 0.984 . S
N837 C830 1.356 . S
N837 H840 0.984 . S
N837 H841 0.985 . S
H838 N833 0.984 . S
H839 N833 0.985 . S
H840 N837 0.984 . S
H841 N837 0.985 . S
H842 N836 0.984 . S
H843 N836 0.984 . S
H844 N832 0.984 . S
H845 N832 0.985 . S
C846 C847 1.363 . S
C846 C852 1.358 1_565 S
C846 N854 1.356 . S
C847 C846 1.363 . S
C847 C853 1.363 . S
C848 C849 1.363 . S
C848 C853 1.379 1_545 S
C848 N855 1.356 . S
C849 C848 1.363 . S
C849 C852 1.382 . S
N850 C852 1.366 . S
N850 H862 0.985 1_545 S
N850 H863 0.985 . S
N851 C853 1.356 1_455 S
N851 H856 0.984 . S
N851 H857 0.999 . S
C852 C846 1.358 1_545 S
C852 C849 1.382 . S
C852 N850 1.366 . S
C853 C847 1.363 . S
C853 C848 1.379 1_565 S
C853 N851 1.356 1_655 S
N854 C846 1.356 . S
N854 H860 0.984 . S
N854 H861 0.984 . S
N855 C848 1.356 . S
N855 H858 0.984 . S
N855 H859 0.985 . S
H856 N851 0.984 . S
H857 N851 0.999 . S
H858 N855 0.984 . S
H859 N855 0.985 . S
H860 N854 0.984 . S
H861 N854 0.984 . S
H862 N850 0.985 1_565 S
H863 N850 0.985 . S
C864 C865 1.363 . S
C864 C870 1.379 . S
C864 N872 1.356 . S
C865 C864 1.363 . S
C865 C871 1.363 . S
C866 C867 1.363 . S
C866 C871 1.379 . S
C866 N873 1.356 . S
C867 C866 1.363 . S
C867 C870 1.363 . S
N868 C870 1.356 . S
N868 H880 0.984 . S
N868 H881 0.985 . S
N869 C871 1.356 . S
N869 H874 0.984 . S
N869 H875 0.985 . S
C870 C864 1.379 . S
C870 C867 1.363 . S
C870 N868 1.356 . S
C871 C865 1.363 . S
C871 C866 1.379 . S
C871 N869 1.356 . S
N872 C864 1.356 . S
N872 H878 0.984 . S
N872 H879 0.984 . S
N873 C866 1.356 . S
N873 H876 0.984 . S
N873 H877 0.985 . S
H874 N869 0.984 . S
H875 N869 0.985 . S
H876 N873 0.984 . S
H877 N873 0.985 . S
H878 N872 0.984 . S
H879 N872 0.984 . S
H880 N868 0.984 . S
H881 N868 0.985 . S
C882 C883 1.363 . S
C882 C888 1.379 . S
C882 N890 1.356 . S
C883 C882 1.363 . S
C883 C889 1.363 . S
C884 C885 1.363 . S
C884 C889 1.379 . S
C884 N891 1.356 . S
C885 C884 1.363 . S
C885 C888 1.363 . S
N886 C888 1.356 . S
N886 H898 0.984 . S
N886 H899 0.985 . S
N887 C889 1.356 . S
N887 H892 0.984 . S
N887 H893 0.985 . S
C888 C882 1.379 . S
C888 C885 1.363 . S
C888 N886 1.356 . S
C889 C883 1.363 . S
C889 C884 1.379 . S
C889 N887 1.356 . S
N890 C882 1.356 . S
N890 H896 0.984 . S
N890 H897 0.984 . S
N891 C884 1.356 . S
N891 H894 0.984 . S
N891 H895 0.985 . S
H892 N887 0.984 . S
H893 N887 0.985 . S
H894 N891 0.984 . S
H895 N891 0.985 . S
H896 N890 0.984 . S
H897 N890 0.984 . S
H898 N886 0.984 . S
H899 N886 0.985 . S
C900 C901 1.363 . S
C900 C906 1.379 . S
C900 N908 1.356 . S
C901 C900 1.363 . S
C901 C907 1.363 . S
C902 C903 1.363 . S
C902 C907 1.379 . S
C902 N909 1.356 . S
C903 C902 1.363 . S
C903 C906 1.363 . S
N904 C906 1.356 . S
N904 H916 0.984 . S
N904 H917 0.985 . S
N905 C907 1.356 . S
N905 H910 0.984 . S
N905 H911 0.985 . S
C906 C900 1.379 . S
C906 C903 1.363 . S
C906 N904 1.356 . S
C907 C901 1.363 . S
C907 C902 1.379 . S
C907 N905 1.356 . S
N908 C900 1.356 . S
N908 H914 0.984 . S
N908 H915 0.984 . S
N909 C902 1.356 . S
N909 H912 0.984 . S
N909 H913 0.985 . S
H910 N905 0.984 . S
H911 N905 0.985 . S
H912 N909 0.984 . S
H913 N909 0.985 . S
H914 N908 0.984 . S
H915 N908 0.984 . S
H916 N904 0.984 . S
H917 N904 0.985 . S
C918 C919 1.363 . S
C918 C924 1.379 . S
C918 N926 1.356 . S
C919 C918 1.363 . S
C919 C925 1.363 . S
C920 C921 1.363 . S
C920 C925 1.379 . S
C920 N927 1.356 . S
C921 C920 1.363 . S
C921 C924 1.363 . S
N922 C924 1.356 . S
N922 H934 0.984 . S
N922 H935 0.985 . S
N923 C925 1.356 . S
N923 H928 0.984 . S
N923 H929 0.985 . S
C924 C918 1.379 . S
C924 C921 1.363 . S
C924 N922 1.356 . S
C925 C919 1.363 . S
C925 C920 1.379 . S
C925 N923 1.356 . S
N926 C918 1.356 . S
N926 H932 0.984 . S
N926 H933 0.984 . S
N927 C920 1.356 . S
N927 H930 0.984 . S
N927 H931 0.985 . S
H928 N923 0.984 . S
H929 N923 0.985 . S
H930 N927 0.984 . S
H931 N927 0.985 . S
H932 N926 0.984 . S
H933 N926 0.984 . S
H934 N922 0.984 . S
H935 N922 0.985 . S
C936 C937 1.363 . S
C936 C942 1.379 . S
C936 N944 1.356 . S
C937 C936 1.363 . S
C937 C943 1.363 . S
C938 C939 1.363 . S
C938 C943 1.379 . S
C938 N945 1.356 . S
C939 C938 1.363 . S
C939 C942 1.363 . S
N940 C942 1.356 . S
N940 H952 0.984 . S
N940 H953 0.985 . S
N941 C943 1.356 . S
N941 H946 0.984 . S
N941 H947 0.985 . S
C942 C936 1.379 . S
C942 C939 1.363 . S
C942 N940 1.356 . S
C943 C937 1.363 . S
C943 C938 1.379 . S
C943 N941 1.356 . S
N944 C936 1.356 . S
N944 H950 0.984 . S
N944 H951 0.984 . S
N945 C938 1.356 . S
N945 H948 0.984 . S
N945 H949 0.985 . S
H946 N941 0.984 . S
H947 N941 0.985 . S
H948 N945 0.984 . S
H949 N945 0.985 . S
H950 N944 0.984 . S
H951 N944 0.984 . S
H952 N940 0.984 . S
H953 N940 0.985 . S
C954 C955 1.363 . S
C954 C960 1.379 . S
C954 N962 1.356 . S
C955 C954 1.363 . S
C955 C961 1.363 . S
C956 C957 1.363 . S
C956 C961 1.379 . S
C956 N963 1.356 . S
C957 C956 1.363 . S
C957 C960 1.363 . S
N958 C960 1.356 . S
N958 H970 0.984 . S
N958 H971 0.985 . S
N959 C961 1.356 . S
N959 H964 0.984 . S
N959 H965 0.985 . S
C960 C954 1.379 . S
C960 C957 1.363 . S
C960 N958 1.356 . S
C961 C955 1.363 . S
C961 C956 1.379 . S
C961 N959 1.356 . S
N962 C954 1.356 . S
N962 H968 0.984 . S
N962 H969 0.984 . S
N963 C956 1.356 . S
N963 H966 0.984 . S
N963 H967 0.985 . S
H964 N959 0.984 . S
H965 N959 0.985 . S
H966 N963 0.984 . S
H967 N963 0.985 . S
H968 N962 0.984 . S
H969 N962 0.984 . S
H970 N958 0.984 . S
H971 N958 0.985 . S
C972 C973 1.363 . S
C972 C978 1.379 . S
C972 N980 1.356 . S
C973 C972 1.363 . S
C973 C979 1.363 . S
C974 C975 1.363 . S
C974 C979 1.379 . S
C974 N981 1.356 . S
C975 C974 1.363 . S
C975 C978 1.363 . S
N976 C978 1.356 . S
N976 H988 0.984 . S
N976 H989 0.985 . S
N977 C979 1.356 . S
N977 H982 0.984 . S
N977 H983 0.985 . S
C978 C972 1.379 . S
C978 C975 1.363 . S
C978 N976 1.356 . S
C979 C973 1.363 . S
C979 C974 1.379 . S
C979 N977 1.356 . S
N980 C972 1.356 . S
N980 H986 0.984 . S
N980 H987 0.984 . S
N981 C974 1.356 . S
N981 H984 0.984 . S
N981 H985 0.985 . S
H982 N977 0.984 . S
H983 N977 0.985 . S
H984 N981 0.984 . S
H985 N981 0.985 . S
H986 N980 0.984 . S
H987 N980 0.984 . S
H988 N976 0.984 . S
H989 N976 0.985 . S
C990 C991 1.363 . S
C990 C996 1.379 . S
C990 N998 1.356 . S
C991 C990 1.363 . S
C991 C997 1.363 . S
C992 C993 1.363 . S
C992 C997 1.379 . S
C992 N999 1.356 . S
C993 C992 1.363 . S
C993 C996 1.363 . S
N994 C996 1.356 . S
N994 H1006 0.984 . S
N994 H1007 0.985 . S
N995 C997 1.356 . S
N995 H1000 0.984 . S
N995 H1001 0.985 . S
C996 C990 1.379 . S
C996 C993 1.363 . S
C996 N994 1.356 . S
C997 C991 1.363 . S
C997 C992 1.379 . S
C997 N995 1.356 . S
N998 C990 1.356 . S
N998 H1004 0.984 . S
N998 H1005 0.984 . S
N999 C992 1.356 . S
N999 H1002 0.984 . S
N999 H1003 0.985 . S
H1000 N995 0.984 . S
H1001 N995 0.985 . S
H1002 N999 0.984 . S
H1003 N999 0.985 . S
H1004 N998 0.984 . S
H1005 N998 0.984 . S
H1006 N994 0.984 . S
H1007 N994 0.985 . S
C1008 C1009 1.363 . S
C1008 C1014 1.379 . S
C1008 N1016 1.356 . S
C1009 C1008 1.363 . S
C1009 C1015 1.363 . S
C1010 C1011 1.363 . S
C1010 C1015 1.379 . S
C1010 N1017 1.356 . S
C1011 C1010 1.363 . S
C1011 C1014 1.363 . S
N1012 C1014 1.356 . S
N1012 H1024 0.984 . S
N1012 H1025 0.985 . S
N1013 C1015 1.356 . S
N1013 H1018 0.984 . S
N1013 H1019 0.985 . S
C1014 C1008 1.379 . S
C1014 C1011 1.363 . S
C1014 N1012 1.356 . S
C1015 C1009 1.363 . S
C1015 C1010 1.379 . S
C1015 N1013 1.356 . S
N1016 C1008 1.356 . S
N1016 H1022 0.984 . S
N1016 H1023 0.984 . S
N1017 C1010 1.356 . S
N1017 H1020 0.984 . S
N1017 H1021 0.985 . S
H1018 N1013 0.984 . S
H1019 N1013 0.985 . S
H1020 N1017 0.984 . S
H1021 N1017 0.985 . S
H1022 N1016 0.984 . S
H1023 N1016 0.984 . S
H1024 N1012 0.984 . S
H1025 N1012 0.985 . S
C1026 C1027 1.363 . S
C1026 C1032 1.379 . S
C1026 N1034 1.356 . S
C1027 C1026 1.363 . S
C1027 C1033 1.363 . S
C1028 C1029 1.363 . S
C1028 C1033 1.379 . S
C1028 N1035 1.356 . S
C1029 C1028 1.363 . S
C1029 C1032 1.363 . S
N1030 C1032 1.356 . S
N1030 H1042 0.984 . S
N1030 H1043 0.985 . S
N1031 C1033 1.356 . S
N1031 H1036 0.984 . S
N1031 H1037 0.985 . S
C1032 C1026 1.379 . S
C1032 C1029 1.363 . S
C1032 N1030 1.356 . S
C1033 C1027 1.363 . S
C1033 C1028 1.379 . S
C1033 N1031 1.356 . S
N1034 C1026 1.356 . S
N1034 H1040 0.984 . S
N1034 H1041 0.984 . S
N1035 C1028 1.356 . S
N1035 H1038 0.984 . S
N1035 H1039 0.985 . S
H1036 N1031 0.984 . S
H1037 N1031 0.985 . S
H1038 N1035 0.984 . S
H1039 N1035 0.985 . S
H1040 N1034 0.984 . S
H1041 N1034 0.984 . S
H1042 N1030 0.984 . S
H1043 N1030 0.985 . S
C1044 C1045 1.363 . S
C1044 C1050 1.379 . S
C1044 N1052 1.356 . S
C1045 C1044 1.363 . S
C1045 C1051 1.363 . S
C1046 C1047 1.363 . S
C1046 C1051 1.379 . S
C1046 N1053 1.356 . S
C1047 C1046 1.363 . S
C1047 C1050 1.363 . S
N1048 C1050 1.356 . S
N1048 H1060 0.984 . S
N1048 H1061 0.985 . S
N1049 C1051 1.356 . S
N1049 H1054 0.984 . S
N1049 H1055 0.985 . S
C1050 C1044 1.379 . S
C1050 C1047 1.363 . S
C1050 N1048 1.356 . S
C1051 C1045 1.363 . S
C1051 C1046 1.379 . S
C1051 N1049 1.356 . S
N1052 C1044 1.356 . S
N1052 H1058 0.984 . S
N1052 H1059 0.984 . S
N1053 C1046 1.356 . S
N1053 H1056 0.984 . S
N1053 H1057 0.985 . S
H1054 N1049 0.984 . S
H1055 N1049 0.985 . S
H1056 N1053 0.984 . S
H1057 N1053 0.985 . S
H1058 N1052 0.984 . S
H1059 N1052 0.984 . S
H1060 N1048 0.984 . S
H1061 N1048 0.985 . S
C1062 C1063 1.363 . S
C1062 C1068 1.379 . S
C1062 N1070 1.356 . S
C1063 C1062 1.363 . S
C1063 C1069 1.363 . S
C1064 C1065 1.363 . S
C1064 C1069 1.379 . S
C1064 N1071 1.356 . S
C1065 C1064 1.363 . S
C1065 C1068 1.363 . S
N1066 C1068 1.356 . S
N1066 H1078 0.984 1_655 S
N1066 H1079 0.985 . S
N1067 C1069 1.356 . S
N1067 H1072 0.984 . S
N1067 H1073 0.985 . S
C1068 C1062 1.379 . S
C1068 C1065 1.363 . S
C1068 N1066 1.356 . S
C1069 C1063 1.363 . S
C1069 C1064 1.379 . S
C1069 N1067 1.356 . S
N1070 C1062 1.356 . S
N1070 H1076 0.984 . S
N1070 H1077 0.984 . S
N1071 C1064 1.356 . S
N1071 H1074 0.984 . S
N1071 H1075 0.985 . S
H1072 N1067 0.984 . S
H1073 N1067 0.985 . S
H1074 N1071 0.984 . S
H1075 N1071 0.985 . S
H1076 N1070 0.984 . S
H1077 N1070 0.984 . S
H1078 N1066 0.984 1_455 S
H1079 N1066 0.985 . S
C1080 C1081 1.363 . S
C1080 C1086 1.379 . S
C1080 N1088 1.356 . S
C1081 C1080 1.363 . S
C1081 C1087 1.363 . S
C1082 C1083 1.363 . S
C1082 C1087 1.379 . S
C1082 N1089 1.356 . S
C1083 C1082 1.363 . S
C1083 C1086 1.363 . S
N1084 C1086 1.356 1_545 S
N1084 H1096 0.984 . S
N1084 H1097 0.985 . S
N1085 C1087 1.356 . S
N1085 H1090 0.984 . S
N1085 H1091 0.985 . S
C1086 C1080 1.379 . S
C1086 C1083 1.363 . S
C1086 N1084 1.356 1_565 S
C1087 C1081 1.363 . S
C1087 C1082 1.379 . S
C1087 N1085 1.356 . S
N1088 C1080 1.356 . S
N1088 H1094 0.984 . S
N1088 H1095 0.984 . S
N1089 C1082 1.356 . S
N1089 H1092 0.984 . S
N1089 H1093 0.985 . S
H1090 N1085 0.984 . S
H1091 N1085 0.985 . S
H1092 N1089 0.984 . S
H1093 N1089 0.985 . S
H1094 N1088 0.984 . S
H1095 N1088 0.984 . S
H1096 N1084 0.984 . S
H1097 N1084 0.985 . S
C1098 C1099 1.363 . S
C1098 C1104 1.379 . S
C1098 N1106 1.356 . S
C1099 C1098 1.363 . S
C1099 C1105 1.363 . S
C1100 C1101 1.363 . S
C1100 C1105 1.379 . S
C1100 N1107 1.356 . S
C1101 C1100 1.363 . S
C1101 C1104 1.363 . S
N1102 C1104 1.356 . S
N1102 H1114 0.984 . S
N1102 H1115 0.985 . S
N1103 C1105 1.356 . S
N1103 H1108 0.984 . S
N1103 H1109 0.985 . S
C1104 C1098 1.379 . S
C1104 C1101 1.363 . S
C1104 N1102 1.356 . S
C1105 C1099 1.363 . S
C1105 C1100 1.379 . S
C1105 N1103 1.356 . S
N1106 C1098 1.356 . S
N1106 H1112 0.984 . S
N1106 H1113 0.984 . S
N1107 C1100 1.356 . S
N1107 H1110 0.984 . S
N1107 H1111 0.985 . S
H1108 N1103 0.984 . S
H1109 N1103 0.985 . S
H1110 N1107 0.984 . S
H1111 N1107 0.985 . S
H1112 N1106 0.984 . S
H1113 N1106 0.984 . S
H1114 N1102 0.984 . S
H1115 N1102 0.985 . S
C1116 C1117 1.363 1_565 S
C1116 C1122 1.379 . S
C1116 N1124 1.356 . S
C1117 C1116 1.363 1_545 S
C1117 C1123 1.363 1_556 S
C1118 C1119 1.363 . S
C1118 C1123 1.379 1_565 S
C1118 N1125 1.356 . S
C1119 C1118 1.363 . S
C1119 C1122 1.363 1_554 S
N1120 C1122 1.356 . S
N1120 H1132 0.984 . S
N1120 H1133 0.985 . S
N1121 C1123 1.356 . S
N1121 H1126 0.984 1_554 S
N1121 H1127 0.985 . S
C1122 C1116 1.379 . S
C1122 C1119 1.363 1_556 S
C1122 N1120 1.356 . S
C1123 C1117 1.363 1_554 S
C1123 C1118 1.379 1_545 S
C1123 N1121 1.356 . S
N1124 C1116 1.356 . S
N1124 H1130 0.984 . S
N1124 H1131 0.984 1_565 S
N1125 C1118 1.356 . S
N1125 H1128 0.984 . S
N1125 H1129 0.985 . S
H1126 N1121 0.984 1_556 S
H1127 N1121 0.985 . S
H1128 N1125 0.984 . S
H1129 N1125 0.985 . S
H1130 N1124 0.984 . S
H1131 N1124 0.984 1_545 S
H1132 N1120 0.984 . S
H1133 N1120 0.985 . S
C1134 C1135 1.363 . S
C1134 C1140 1.379 . S
C1134 N1142 1.356 . S
C1135 C1134 1.363 . S
C1135 C1141 1.363 . S
C1136 C1137 1.363 . S
C1136 C1141 1.379 . S
C1136 N1143 1.356 . S
C1137 C1136 1.363 . S
C1137 C1140 1.363 . S
N1138 C1140 1.356 . S
N1138 H1150 0.984 . S
N1138 H1151 0.985 . S
N1139 C1141 1.356 . S
N1139 H1144 0.984 . S
N1139 H1145 0.985 . S
C1140 C1134 1.379 . S
C1140 C1137 1.363 . S
C1140 N1138 1.356 . S
C1141 C1135 1.363 . S
C1141 C1136 1.379 . S
C1141 N1139 1.356 . S
N1142 C1134 1.356 . S
N1142 H1148 0.984 . S
N1142 H1149 0.984 . S
N1143 C1136 1.356 . S
N1143 H1146 0.984 . S
N1143 H1147 0.985 . S
H1144 N1139 0.984 . S
H1145 N1139 0.985 . S
H1146 N1143 0.984 . S
H1147 N1143 0.985 . S
H1148 N1142 0.984 . S
H1149 N1142 0.984 . S
H1150 N1138 0.984 . S
H1151 N1138 0.985 . S
C1152 C1153 1.363 . S
C1152 C1158 1.379 . S
C1152 N1160 1.356 . S
C1153 C1152 1.363 . S
C1153 C1159 1.363 . S
C1154 C1155 1.363 . S
C1154 C1159 1.379 . S
C1154 N1161 1.356 . S
C1155 C1154 1.363 . S
C1155 C1158 1.363 . S
N1156 C1158 1.356 . S
N1156 H1168 0.984 . S
N1156 H1169 0.985 . S
N1157 C1159 1.356 . S
N1157 H1162 0.984 . S
N1157 H1163 0.985 . S
C1158 C1152 1.379 . S
C1158 C1155 1.363 . S
C1158 N1156 1.356 . S
C1159 C1153 1.363 . S
C1159 C1154 1.379 . S
C1159 N1157 1.356 . S
N1160 C1152 1.356 . S
N1160 H1166 0.984 . S
N1160 H1167 0.984 . S
N1161 C1154 1.356 . S
N1161 H1164 0.984 . S
N1161 H1165 0.985 . S
H1162 N1157 0.984 . S
H1163 N1157 0.985 . S
H1164 N1161 0.984 . S
H1165 N1161 0.985 . S
H1166 N1160 0.984 . S
H1167 N1160 0.984 . S
H1168 N1156 0.984 . S
H1169 N1156 0.985 . S
C1170 C1171 1.363 . S
C1170 C1176 1.379 . S
C1170 N1178 1.356 . S
C1171 C1170 1.363 . S
C1171 C1177 1.363 . S
C1172 C1173 1.363 . S
C1172 C1177 1.379 . S
C1172 N1179 1.356 . S
C1173 C1172 1.363 . S
C1173 C1176 1.363 . S
N1174 C1176 1.356 . S
N1174 H1186 0.984 . S
N1174 H1187 0.985 . S
N1175 C1177 1.356 . S
N1175 H1180 0.984 . S
N1175 H1181 0.985 . S
C1176 C1170 1.379 . S
C1176 C1173 1.363 . S
C1176 N1174 1.356 . S
C1177 C1171 1.363 . S
C1177 C1172 1.379 . S
C1177 N1175 1.356 . S
N1178 C1170 1.356 . S
N1178 H1184 0.984 . S
N1178 H1185 0.984 . S
N1179 C1172 1.356 . S
N1179 H1182 0.984 . S
N1179 H1183 0.985 . S
H1180 N1175 0.984 . S
H1181 N1175 0.985 . S
H1182 N1179 0.984 . S
H1183 N1179 0.985 . S
H1184 N1178 0.984 . S
H1185 N1178 0.984 . S
H1186 N1174 0.984 . S
H1187 N1174 0.985 . S
C1188 C1189 1.363 . S
C1188 C1194 1.379 . S
C1188 N1196 1.356 . S
C1189 C1188 1.363 . S
C1189 C1195 1.363 . S
C1190 C1191 1.363 . S
C1190 C1195 1.379 . S
C1190 N1197 1.356 . S
C1191 C1190 1.363 . S
C1191 C1194 1.363 . S
N1192 C1194 1.356 . S
N1192 H1204 0.984 . S
N1192 H1205 0.985 . S
N1193 C1195 1.356 . S
N1193 H1198 0.984 . S
N1193 H1199 0.985 . S
C1194 C1188 1.379 . S
C1194 C1191 1.363 . S
C1194 N1192 1.356 . S
C1195 C1189 1.363 . S
C1195 C1190 1.379 . S
C1195 N1193 1.356 . S
N1196 C1188 1.356 . S
N1196 H1202 0.984 . S
N1196 H1203 0.984 1_545 S
N1197 C1190 1.356 . S
N1197 H1200 0.984 . S
N1197 H1201 0.985 . S
H1198 N1193 0.984 . S
H1199 N1193 0.985 . S
H1200 N1197 0.984 . S
H1201 N1197 0.985 . S
H1202 N1196 0.984 . S
H1203 N1196 0.984 1_565 S
H1204 N1192 0.984 . S
H1205 N1192 0.985 . S
C1206 C1207 1.363 . S
C1206 C1212 1.379 . S
C1206 N1214 1.356 . S
C1207 C1206 1.363 . S
C1207 C1213 1.363 . S
C1208 C1209 1.363 . S
C1208 C1213 1.379 . S
C1208 N1215 1.356 . S
C1209 C1208 1.363 . S
C1209 C1212 1.363 . S
N1210 C1212 1.356 . S
N1210 H1222 0.984 . S
N1210 H1223 0.985 . S
N1211 C1213 1.356 . S
N1211 H1216 0.984 . S
N1211 H1217 0.985 . S
C1212 C1206 1.379 . S
C1212 C1209 1.363 . S
C1212 N1210 1.356 . S
C1213 C1207 1.363 . S
C1213 C1208 1.379 . S
C1213 N1211 1.356 . S
N1214 C1206 1.356 . S
N1214 H1220 0.984 . S
N1214 H1221 0.984 . S
N1215 C1208 1.356 . S
N1215 H1218 0.984 . S
N1215 H1219 0.985 . S
H1216 N1211 0.984 . S
H1217 N1211 0.985 . S
H1218 N1215 0.984 . S
H1219 N1215 0.985 . S
H1220 N1214 0.984 . S
H1221 N1214 0.984 . S
H1222 N1210 0.984 . S
H1223 N1210 0.985 . S
C1224 C1225 1.363 . S
C1224 C1230 1.379 . S
C1224 N1232 1.356 . S
C1225 C1224 1.363 . S
C1225 C1231 1.363 . S
C1226 C1227 1.363 . S
C1226 C1231 1.379 . S
C1226 N1233 1.356 . S
C1227 C1226 1.363 . S
C1227 C1230 1.363 . S
N1228 C1230 1.356 . S
N1228 H1240 0.984 . S
N1228 H1241 0.985 . S
N1229 C1231 1.356 . S
N1229 H1234 0.984 . S
N1229 H1235 0.985 . S
C1230 C1224 1.379 . S
C1230 C1227 1.363 . S
C1230 N1228 1.356 . S
C1231 C1225 1.363 . S
C1231 C1226 1.379 . S
C1231 N1229 1.356 . S
N1232 C1224 1.356 . S
N1232 H1238 0.984 . S
N1232 H1239 0.984 . S
N1233 C1226 1.356 . S
N1233 H1236 0.984 . S
N1233 H1237 0.985 . S
H1234 N1229 0.984 . S
H1235 N1229 0.985 . S
H1236 N1233 0.984 . S
H1237 N1233 0.985 . S
H1238 N1232 0.984 . S
H1239 N1232 0.984 . S
H1240 N1228 0.984 . S
H1241 N1228 0.985 . S
C1242 C1243 1.363 . S
C1242 C1248 1.379 . S
C1242 N1250 1.356 . S
C1243 C1242 1.363 . S
C1243 C1249 1.363 . S
C1244 C1245 1.363 . S
C1244 C1249 1.379 . S
C1244 N1251 1.356 . S
C1245 C1244 1.363 . S
C1245 C1248 1.363 . S
N1246 C1248 1.356 . S
N1246 H1258 0.984 . S
N1246 H1259 0.985 . S
N1247 C1249 1.356 . S
N1247 H1252 0.984 . S
N1247 H1253 0.985 . S
C1248 C1242 1.379 . S
C1248 C1245 1.363 . S
C1248 N1246 1.356 . S
C1249 C1243 1.363 . S
C1249 C1244 1.379 . S
C1249 N1247 1.356 . S
N1250 C1242 1.356 . S
N1250 H1256 0.984 . S
N1250 H1257 0.984 . S
N1251 C1244 1.356 . S
N1251 H1254 0.984 . S
N1251 H1255 0.985 . S
H1252 N1247 0.984 . S
H1253 N1247 0.985 . S
H1254 N1251 0.984 . S
H1255 N1251 0.985 . S
H1256 N1250 0.984 . S
H1257 N1250 0.984 . S
H1258 N1246 0.984 . S
H1259 N1246 0.985 . S
C1260 C1261 1.363 . S
C1260 C1266 1.379 . S
C1260 N1268 1.356 . S
C1261 C1260 1.363 . S
C1261 C1267 1.363 . S
C1262 C1263 1.363 . S
C1262 C1267 1.379 . S
C1262 N1269 1.356 . S
C1263 C1262 1.363 . S
C1263 C1266 1.363 . S
N1264 C1266 1.356 . S
N1264 H1276 0.984 . S
N1264 H1277 0.985 . S
N1265 C1267 1.356 . S
N1265 H1270 0.984 . S
N1265 H1271 0.985 . S
C1266 C1260 1.379 . S
C1266 C1263 1.363 . S
C1266 N1264 1.356 . S
C1267 C1261 1.363 . S
C1267 C1262 1.379 . S
C1267 N1265 1.356 . S
N1268 C1260 1.356 . S
N1268 H1274 0.984 . S
N1268 H1275 0.984 . S
N1269 C1262 1.356 . S
N1269 H1272 0.984 . S
N1269 H1273 0.985 . S
H1270 N1265 0.984 . S
H1271 N1265 0.985 . S
H1272 N1269 0.984 . S
H1273 N1269 0.985 . S
H1274 N1268 0.984 . S
H1275 N1268 0.984 . S
H1276 N1264 0.984 . S
H1277 N1264 0.985 . S
C1278 C1279 1.363 . S
C1278 C1284 1.379 . S
C1278 N1286 1.356 . S
C1279 C1278 1.363 . S
C1279 C1285 1.363 . S
C1280 C1281 1.363 . S
C1280 C1285 1.379 . S
C1280 N1287 1.356 . S
C1281 C1280 1.363 . S
C1281 C1284 1.363 . S
N1282 C1284 1.356 . S
N1282 H1294 0.984 . S
N1282 H1295 0.985 . S
N1283 C1285 1.356 . S
N1283 H1288 0.984 . S
N1283 H1289 0.985 . S
C1284 C1278 1.379 . S
C1284 C1281 1.363 . S
C1284 N1282 1.356 . S
C1285 C1279 1.363 . S
C1285 C1280 1.379 . S
C1285 N1283 1.356 . S
N1286 C1278 1.356 . S
N1286 H1292 0.984 . S
N1286 H1293 0.984 . S
N1287 C1280 1.356 . S
N1287 H1290 0.984 . S
N1287 H1291 0.985 . S
H1288 N1283 0.984 . S
H1289 N1283 0.985 . S
H1290 N1287 0.984 . S
H1291 N1287 0.985 . S
H1292 N1286 0.984 . S
H1293 N1286 0.984 . S
H1294 N1282 0.984 . S
H1295 N1282 0.985 . S
C1296 C1297 1.363 . S
C1296 C1302 1.379 . S
C1296 N1304 1.356 . S
C1297 C1296 1.363 . S
C1297 C1303 1.363 . S
C1298 C1299 1.363 . S
C1298 C1303 1.379 . S
C1298 N1305 1.356 . S
C1299 C1298 1.363 . S
C1299 C1302 1.363 . S
N1300 C1302 1.356 . S
N1300 H1312 0.984 . S
N1300 H1313 0.985 . S
N1301 C1303 1.356 . S
N1301 H1306 0.984 . S
N1301 H1307 0.985 . S
C1302 C1296 1.379 . S
C1302 C1299 1.363 . S
C1302 N1300 1.356 . S
C1303 C1297 1.363 . S
C1303 C1298 1.379 . S
C1303 N1301 1.356 . S
N1304 C1296 1.356 . S
N1304 H1310 0.984 . S
N1304 H1311 0.984 . S
N1305 C1298 1.356 . S
N1305 H1308 0.984 . S
N1305 H1309 0.985 . S
H1306 N1301 0.984 . S
H1307 N1301 0.985 . S
H1308 N1305 0.984 . S
H1309 N1305 0.985 . S
H1310 N1304 0.984 . S
H1311 N1304 0.984 . S
H1312 N1300 0.984 . S
H1313 N1300 0.985 . S
C1314 C1315 1.363 . S
C1314 C1320 1.379 1_455 S
C1314 N1322 1.356 . S
C1315 C1314 1.363 . S
C1315 C1321 1.363 1_455 S
C1316 C1317 1.363 . S
C1316 C1321 1.379 . S
C1316 N1323 1.356 . S
C1317 C1316 1.363 . S
C1317 C1320 1.363 . S
N1318 C1320 1.356 . S
N1318 H1330 0.984 . S
N1318 H1331 0.985 . S
N1319 C1321 1.356 1_455 S
N1319 H1324 0.984 . S
N1319 H1325 0.985 1_455 S
C1320 C1314 1.379 1_655 S
C1320 C1317 1.363 . S
C1320 N1318 1.356 . S
C1321 C1315 1.363 1_655 S
C1321 C1316 1.379 . S
C1321 N1319 1.356 1_655 S
N1322 C1314 1.356 . S
N1322 H1328 0.984 . S
N1322 H1329 0.984 . S
N1323 C1316 1.356 . S
N1323 H1326 0.984 . S
N1323 H1327 0.985 . S
H1324 N1319 0.984 . S
H1325 N1319 0.985 1_655 S
H1326 N1323 0.984 . S
H1327 N1323 0.985 . S
H1328 N1322 0.984 . S
H1329 N1322 0.984 . S
H1330 N1318 0.984 . S
H1331 N1318 0.985 . S
C1332 C1333 1.363 . S
C1332 C1338 1.379 . S
C1332 N1340 1.356 . S
C1333 C1332 1.363 . S
C1333 C1339 1.363 . S
C1334 C1335 1.363 . S
C1334 C1339 1.379 . S
C1334 N1341 1.356 . S
C1335 C1334 1.363 . S
C1335 C1338 1.363 . S
N1336 C1338 1.356 . S
N1336 H1348 0.984 . S
N1336 H1349 0.985 . S
N1337 C1339 1.356 . S
N1337 H1342 0.984 . S
N1337 H1343 0.985 . S
C1338 C1332 1.379 . S
C1338 C1335 1.363 . S
C1338 N1336 1.356 . S
C1339 C1333 1.363 . S
C1339 C1334 1.379 . S
C1339 N1337 1.356 . S
N1340 C1332 1.356 . S
N1340 H1346 0.984 . S
N1340 H1347 0.984 . S
N1341 C1334 1.356 . S
N1341 H1344 0.984 . S
N1341 H1345 0.985 . S
H1342 N1337 0.984 . S
H1343 N1337 0.985 . S
H1344 N1341 0.984 . S
H1345 N1341 0.985 . S
H1346 N1340 0.984 . S
H1347 N1340 0.984 . S
H1348 N1336 0.984 . S
H1349 N1336 0.985 . S
C1350 C1351 1.363 1_455 S
C1350 C1356 1.379 . S
C1350 N1358 1.356 1_455 S
C1351 C1350 1.363 1_655 S
C1351 C1357 1.363 . S
C1352 C1353 1.363 . S
C1352 C1357 1.379 1_455 S
C1352 N1359 1.356 . S
C1353 C1352 1.363 . S
C1353 C1356 1.363 . S
N1354 C1356 1.356 . S
N1354 H1366 0.984 . S
N1354 H1367 0.985 . S
N1355 C1357 1.356 . S
N1355 H1360 0.984 . S
N1355 H1361 0.985 . S
C1356 C1350 1.379 . S
C1356 C1353 1.363 . S
C1356 N1354 1.356 . S
C1357 C1351 1.363 . S
C1357 C1352 1.379 1_655 S
C1357 N1355 1.356 . S
N1358 C1350 1.356 1_655 S
N1358 H1364 0.984 1_655 S
N1358 H1365 0.984 . S
N1359 C1352 1.356 . S
N1359 H1362 0.984 . S
N1359 H1363 0.985 . S
H1360 N1355 0.984 . S
H1361 N1355 0.985 . S
H1362 N1359 0.984 . S
H1363 N1359 0.985 . S
H1364 N1358 0.984 1_455 S
H1365 N1358 0.984 . S
H1366 N1354 0.984 . S
H1367 N1354 0.985 . S
C1368 C1369 1.363 . S
C1368 C1374 1.379 . S
C1368 N1376 1.356 . S
C1369 C1368 1.363 . S
C1369 C1375 1.363 . S
C1370 C1371 1.363 . S
C1370 C1375 1.379 . S
C1370 N1377 1.356 . S
C1371 C1370 1.363 . S
C1371 C1374 1.363 . S
N1372 C1374 1.356 . S
N1372 H1384 0.984 . S
N1372 H1385 0.985 . S
N1373 C1375 1.356 . S
N1373 H1378 0.984 . S
N1373 H1379 0.985 . S
C1374 C1368 1.379 . S
C1374 C1371 1.363 . S
C1374 N1372 1.356 . S
C1375 C1369 1.363 . S
C1375 C1370 1.379 . S
C1375 N1373 1.356 . S
N1376 C1368 1.356 . S
N1376 H1382 0.984 . S
N1376 H1383 0.984 . S
N1377 C1370 1.356 . S
N1377 H1380 0.984 . S
N1377 H1381 0.985 . S
H1378 N1373 0.984 . S
H1379 N1373 0.985 . S
H1380 N1377 0.984 . S
H1381 N1377 0.985 . S
H1382 N1376 0.984 . S
H1383 N1376 0.984 . S
H1384 N1372 0.984 . S
H1385 N1372 0.985 . S
C1386 C1387 1.363 . S
C1386 C1392 1.379 . S
C1386 N1394 1.356 1_556 S
C1387 C1386 1.363 . S
C1387 C1393 1.363 . S
C1388 C1389 1.363 . S
C1388 C1393 1.379 . S
C1388 N1395 1.356 . S
C1389 C1388 1.363 . S
C1389 C1392 1.363 . S
N1390 C1392 1.356 . S
N1390 H1402 0.984 . S
N1390 H1403 0.985 . S
N1391 C1393 1.356 . S
N1391 H1396 0.984 . S
N1391 H1397 0.985 . S
C1392 C1386 1.379 . S
C1392 C1389 1.363 . S
C1392 N1390 1.356 . S
C1393 C1387 1.363 . S
C1393 C1388 1.379 . S
C1393 N1391 1.356 . S
N1394 C1386 1.356 1_554 S
N1394 H1400 0.984 . S
N1394 H1401 0.984 . S
N1395 C1388 1.356 . S
N1395 H1398 0.984 . S
N1395 H1399 0.985 . S
H1396 N1391 0.984 . S
H1397 N1391 0.985 . S
H1398 N1395 0.984 . S
H1399 N1395 0.985 . S
H1400 N1394 0.984 . S
H1401 N1394 0.984 . S
H1402 N1390 0.984 . S
H1403 N1390 0.985 . S
C1404 C1405 1.363 . S
C1404 C1410 1.379 . S
C1404 N1412 1.356 . S
C1405 C1404 1.363 . S
C1405 C1411 1.363 . S
C1406 C1407 1.363 . S
C1406 C1411 1.379 . S
C1406 N1413 1.356 . S
C1407 C1406 1.363 . S
C1407 C1410 1.363 . S
N1408 C1410 1.356 . S
N1408 H1420 0.984 . S
N1408 H1421 0.985 . S
N1409 C1411 1.356 . S
N1409 H1414 0.984 . S
N1409 H1415 0.985 . S
C1410 C1404 1.379 . S
C1410 C1407 1.363 . S
C1410 N1408 1.356 . S
C1411 C1405 1.363 . S
C1411 C1406 1.379 . S
C1411 N1409 1.356 . S
N1412 C1404 1.356 . S
N1412 H1418 0.984 . S
N1412 H1419 0.984 . S
N1413 C1406 1.356 . S
N1413 H1416 0.984 . S
N1413 H1417 0.985 . S
H1414 N1409 0.984 . S
H1415 N1409 0.985 . S
H1416 N1413 0.984 . S
H1417 N1413 0.985 . S
H1418 N1412 0.984 . S
H1419 N1412 0.984 . S
H1420 N1408 0.984 . S
H1421 N1408 0.985 . S
C1422 C1423 1.363 . S
C1422 C1428 1.379 1_554 S
C1422 N1430 1.356 . S
C1423 C1422 1.363 . S
C1423 C1429 1.363 . S
C1424 C1425 1.363 . S
C1424 C1429 1.379 1_556 S
C1424 N1431 1.356 . S
C1425 C1424 1.363 . S
C1425 C1428 1.363 . S
N1426 C1428 1.356 . S
N1426 H1438 0.984 . S
N1426 H1439 0.985 . S
N1427 C1429 1.356 . S
N1427 H1432 0.984 . S
N1427 H1433 0.985 . S
C1428 C1422 1.379 1_556 S
C1428 C1425 1.363 . S
C1428 N1426 1.356 . S
C1429 C1423 1.363 . S
C1429 C1424 1.379 1_554 S
C1429 N1427 1.356 . S
N1430 C1422 1.356 . S
N1430 H1436 0.984 . S
N1430 H1437 0.984 . S
N1431 C1424 1.356 . S
N1431 H1434 0.984 . S
N1431 H1435 0.985 . S
H1432 N1427 0.984 . S
H1433 N1427 0.985 . S
H1434 N1431 0.984 . S
H1435 N1431 0.985 . S
H1436 N1430 0.984 . S
H1437 N1430 0.984 . S
H1438 N1426 0.984 . S
H1439 N1426 0.985 . S
C1440 C1441 1.363 . S
C1440 C1446 1.379 . S
C1440 N1448 1.356 . S
C1441 C1440 1.363 . S
C1441 C1447 1.363 . S
C1442 C1443 1.363 . S
C1442 C1447 1.379 . S
C1442 N1449 1.356 . S
C1443 C1442 1.363 . S
C1443 C1446 1.363 . S
N1444 C1446 1.356 . S
N1444 H1456 0.984 . S
N1444 H1457 0.985 . S
N1445 C1447 1.356 . S
N1445 H1450 0.984 . S
N1445 H1451 0.985 . S
C1446 C1440 1.379 . S
C1446 C1443 1.363 . S
C1446 N1444 1.356 . S
C1447 C1441 1.363 . S
C1447 C1442 1.379 . S
C1447 N1445 1.356 . S
N1448 C1440 1.356 . S
N1448 H1454 0.984 . S
N1448 H1455 0.984 . S
N1449 C1442 1.356 . S
N1449 H1452 0.984 . S
N1449 H1453 0.985 . S
H1450 N1445 0.984 . S
H1451 N1445 0.985 . S
H1452 N1449 0.984 . S
H1453 N1449 0.985 . S
H1454 N1448 0.984 . S
H1455 N1448 0.984 . S
H1456 N1444 0.984 . S
H1457 N1444 0.985 . S
C1458 C1459 1.363 . S
C1458 C1464 1.379 . S
C1458 N1466 1.356 1_554 S
C1459 C1458 1.363 . S
C1459 C1465 1.363 . S
C1460 C1461 1.363 . S
C1460 C1465 1.379 . S
C1460 N1467 1.356 . S
C1461 C1460 1.363 . S
C1461 C1464 1.363 . S
N1462 C1464 1.356 . S
N1462 H1474 0.984 . S
N1462 H1475 0.985 . S
N1463 C1465 1.356 . S
N1463 H1468 0.984 1_554 S
N1463 H1469 0.985 . S
C1464 C1458 1.379 . S
C1464 C1461 1.363 . S
C1464 N1462 1.356 . S
C1465 C1459 1.363 . S
C1465 C1460 1.379 . S
C1465 N1463 1.356 . S
N1466 C1458 1.356 1_556 S
N1466 H1472 0.984 . S
N1466 H1473 0.984 . S
N1467 C1460 1.356 . S
N1467 H1470 0.984 . S
N1467 H1471 0.985 . S
H1468 N1463 0.984 1_556 S
H1469 N1463 0.985 . S
H1470 N1467 0.984 . S
H1471 N1467 0.985 . S
H1472 N1466 0.984 . S
H1473 N1466 0.984 . S
H1474 N1462 0.984 . S
H1475 N1462 0.985 . S
C1476 C1477 1.363 . S
C1476 C1482 1.379 . S
C1476 N1484 1.356 . S
C1477 C1476 1.363 . S
C1477 C1483 1.363 . S
C1478 C1479 1.363 . S
C1478 C1483 1.379 . S
C1478 N1485 1.356 . S
C1479 C1478 1.363 . S
C1479 C1482 1.363 . S
N1480 C1482 1.356 . S
N1480 H1492 0.984 . S
N1480 H1493 0.985 . S
N1481 C1483 1.356 . S
N1481 H1486 0.984 . S
N1481 H1487 0.985 . S
C1482 C1476 1.379 . S
C1482 C1479 1.363 . S
C1482 N1480 1.356 . S
C1483 C1477 1.363 . S
C1483 C1478 1.379 . S
C1483 N1481 1.356 . S
N1484 C1476 1.356 . S
N1484 H1490 0.984 . S
N1484 H1491 0.984 . S
N1485 C1478 1.356 . S
N1485 H1488 0.984 . S
N1485 H1489 0.985 . S
H1486 N1481 0.984 . S
H1487 N1481 0.985 . S
H1488 N1485 0.984 . S
H1489 N1485 0.985 . S
H1490 N1484 0.984 . S
H1491 N1484 0.984 . S
H1492 N1480 0.984 . S
H1493 N1480 0.985 . S
C1494 C1495 1.363 . S
C1494 C1500 1.379 . S
C1494 N1502 1.356 . S
C1495 C1494 1.363 . S
C1495 C1501 1.363 . S
C1496 C1497 1.363 . S
C1496 C1501 1.379 . S
C1496 N1503 1.356 . S
C1497 C1496 1.363 . S
C1497 C1500 1.363 . S
N1498 C1500 1.356 . S
N1498 H1510 0.984 . S
N1498 H1511 0.985 . S
N1499 C1501 1.356 . S
N1499 H1504 0.984 1_554 S
N1499 H1505 0.980 1_554 S
C1500 C1494 1.379 . S
C1500 C1497 1.363 . S
C1500 N1498 1.356 . S
C1501 C1495 1.363 . S
C1501 C1496 1.379 . S
C1501 N1499 1.356 . S
N1502 C1494 1.356 . S
N1502 H1508 0.984 . S
N1502 H1509 0.984 . S
N1503 C1496 1.356 . S
N1503 H1506 0.984 . S
N1503 H1507 0.985 . S
H1504 N1499 0.984 1_556 S
H1505 N1499 0.980 1_556 S
H1506 N1503 0.984 . S
H1507 N1503 0.985 . S
H1508 N1502 0.984 . S
H1509 N1502 0.984 . S
H1510 N1498 0.984 . S
H1511 N1498 0.985 . S
C1512 C1513 1.363 . S
C1512 C1518 1.379 . S
C1512 N1520 1.356 . S
C1513 C1512 1.363 . S
C1513 C1519 1.363 . S
C1514 C1515 1.363 . S
C1514 C1519 1.379 . S
C1514 N1521 1.356 . S
C1515 C1514 1.363 . S
C1515 C1518 1.363 . S
N1516 C1518 1.356 . S
N1516 H1528 0.984 . S
N1516 H1529 0.985 . S
N1517 C1519 1.356 . S
N1517 H1522 0.984 . S
N1517 H1523 0.985 . S
C1518 C1512 1.379 . S
C1518 C1515 1.363 . S
C1518 N1516 1.356 . S
C1519 C1513 1.363 . S
C1519 C1514 1.379 . S
C1519 N1517 1.356 . S
N1520 C1512 1.356 . S
N1520 H1526 0.984 . S
N1520 H1527 0.984 . S
N1521 C1514 1.356 . S
N1521 H1524 0.984 . S
N1521 H1525 0.985 . S
H1522 N1517 0.984 . S
H1523 N1517 0.985 . S
H1524 N1521 0.984 . S
H1525 N1521 0.985 . S
H1526 N1520 0.984 . S
H1527 N1520 0.984 . S
H1528 N1516 0.984 . S
H1529 N1516 0.985 . S
C1530 C1531 1.363 . S
C1530 C1536 1.379 . S
C1530 N1538 1.356 . S
C1531 C1530 1.363 . S
C1531 C1537 1.363 . S
C1532 C1533 1.363 . S
C1532 C1537 1.379 . S
C1532 N1539 1.356 . S
C1533 C1532 1.363 . S
C1533 C1536 1.363 . S
N1534 C1536 1.356 . S
N1534 H1546 0.984 . S
N1534 H1547 0.985 . S
N1535 C1537 1.356 . S
N1535 H1540 0.984 . S
N1535 H1541 0.985 . S
C1536 C1530 1.379 . S
C1536 C1533 1.363 . S
C1536 N1534 1.356 . S
C1537 C1531 1.363 . S
C1537 C1532 1.379 . S
C1537 N1535 1.356 . S
N1538 C1530 1.356 . S
N1538 H1544 0.984 . S
N1538 H1545 0.984 . S
N1539 C1532 1.356 . S
N1539 H1542 0.984 . S
N1539 H1543 0.985 . S
H1540 N1535 0.984 . S
H1541 N1535 0.985 . S
H1542 N1539 0.984 . S
H1543 N1539 0.985 . S
H1544 N1538 0.984 . S
H1545 N1538 0.984 . S
H1546 N1534 0.984 . S
H1547 N1534 0.985 . S
C1548 C1549 1.363 . S
C1548 C1554 1.379 . S
C1548 N1556 1.356 . S
C1549 C1548 1.363 . S
C1549 C1555 1.363 . S
C1550 C1551 1.363 . S
C1550 C1555 1.379 . S
C1550 N1557 1.356 . S
C1551 C1550 1.363 . S
C1551 C1554 1.363 . S
N1552 C1554 1.356 . S
N1552 H1564 0.984 . S
N1552 H1565 0.985 . S
N1553 C1555 1.356 . S
N1553 H1558 0.984 . S
N1553 H1559 0.985 . S
C1554 C1548 1.379 . S
C1554 C1551 1.363 . S
C1554 N1552 1.356 . S
C1555 C1549 1.363 . S
C1555 C1550 1.379 . S
C1555 N1553 1.356 . S
N1556 C1548 1.356 . S
N1556 H1562 0.984 . S
N1556 H1563 0.984 . S
N1557 C1550 1.356 . S
N1557 H1560 0.984 . S
N1557 H1561 0.985 . S
H1558 N1553 0.984 . S
H1559 N1553 0.985 . S
H1560 N1557 0.984 . S
H1561 N1557 0.985 . S
H1562 N1556 0.984 . S
H1563 N1556 0.984 . S
H1564 N1552 0.984 . S
H1565 N1552 0.985 . S
C1566 C1567 1.363 . S
C1566 C1572 1.379 . S
C1566 N1574 1.356 . S
C1567 C1566 1.363 . S
C1567 C1573 1.363 . S
C1568 C1569 1.363 . S
C1568 C1573 1.379 . S
C1568 N1575 1.356 . S
C1569 C1568 1.363 . S
C1569 C1572 1.363 . S
N1570 C1572 1.356 . S
N1570 H1582 0.984 . S
N1570 H1583 0.985 . S
N1571 C1573 1.356 . S
N1571 H1576 0.984 . S
N1571 H1577 0.985 . S
C1572 C1566 1.379 . S
C1572 C1569 1.363 . S
C1572 N1570 1.356 . S
C1573 C1567 1.363 . S
C1573 C1568 1.379 . S
C1573 N1571 1.356 . S
N1574 C1566 1.356 . S
N1574 H1580 0.984 . S
N1574 H1581 0.984 . S
N1575 C1568 1.356 . S
N1575 H1578 0.984 . S
N1575 H1579 0.985 . S
H1576 N1571 0.984 . S
H1577 N1571 0.985 . S
H1578 N1575 0.984 . S
H1579 N1575 0.985 . S
H1580 N1574 0.984 . S
H1581 N1574 0.984 . S
H1582 N1570 0.984 . S
H1583 N1570 0.985 . S
C1584 C1585 1.363 . S
C1584 C1590 1.379 . S
C1584 N1592 1.356 . S
C1585 C1584 1.363 . S
C1585 C1591 1.363 . S
C1586 C1587 1.363 . S
C1586 C1591 1.379 . S
C1586 N1593 1.356 . S
C1587 C1586 1.363 . S
C1587 C1590 1.363 . S
N1588 C1590 1.356 1_554 S
N1588 H1600 0.984 . S
N1588 H1601 0.985 . S
N1589 C1591 1.356 . S
N1589 H1594 0.984 . S
N1589 H1595 0.985 . S
C1590 C1584 1.379 . S
C1590 C1587 1.363 . S
C1590 N1588 1.356 1_556 S
C1591 C1585 1.363 . S
C1591 C1586 1.379 . S
C1591 N1589 1.356 . S
N1592 C1584 1.356 . S
N1592 H1598 0.984 . S
N1592 H1599 0.984 . S
N1593 C1586 1.356 . S
N1593 H1596 0.984 . S
N1593 H1597 0.985 . S
H1594 N1589 0.984 . S
H1595 N1589 0.985 . S
H1596 N1593 0.984 . S
H1597 N1593 0.985 . S
H1598 N1592 0.984 . S
H1599 N1592 0.984 . S
H1600 N1588 0.984 . S
H1601 N1588 0.985 . S
C1602 C1603 1.363 . S
C1602 C1608 1.379 . S
C1602 N1610 1.356 . S
C1603 C1602 1.363 . S
C1603 C1609 1.363 . S
C1604 C1605 1.363 . S
C1604 C1609 1.379 . S
C1604 N1611 1.356 . S
C1605 C1604 1.363 . S
C1605 C1608 1.363 . S
N1606 C1608 1.356 . S
N1606 H1618 0.984 . S
N1606 H1619 0.985 . S
N1607 C1609 1.356 . S
N1607 H1612 0.984 . S
N1607 H1613 0.985 . S
C1608 C1602 1.379 . S
C1608 C1605 1.363 . S
C1608 N1606 1.356 . S
C1609 C1603 1.363 . S
C1609 C1604 1.379 . S
C1609 N1607 1.356 . S
N1610 C1602 1.356 . S
N1610 H1616 0.984 . S
N1610 H1617 0.984 . S
N1611 C1604 1.356 . S
N1611 H1614 0.984 . S
N1611 H1615 0.985 . S
H1612 N1607 0.984 . S
H1613 N1607 0.985 . S
H1614 N1611 0.984 . S
H1615 N1611 0.985 . S
H1616 N1610 0.984 . S
H1617 N1610 0.984 . S
H1618 N1606 0.984 . S
H1619 N1606 0.985 . S
C1620 C1621 1.363 . S
C1620 C1626 1.379 . S
C1620 N1628 1.356 . S
C1621 C1620 1.363 . S
C1621 C1627 1.363 . S
C1622 C1623 1.363 . S
C1622 C1627 1.379 . S
C1622 N1629 1.356 . S
C1623 C1622 1.363 . S
C1623 C1626 1.363 . S
N1624 C1626 1.356 . S
N1624 H1636 0.984 1_554 S
N1624 H1637 0.985 . S
N1625 C1627 1.356 . S
N1625 H1630 0.984 . S
N1625 H1631 0.985 . S
C1626 C1620 1.379 . S
C1626 C1623 1.363 . S
C1626 N1624 1.356 . S
C1627 C1621 1.363 . S
C1627 C1622 1.379 . S
C1627 N1625 1.356 . S
N1628 C1620 1.356 . S
N1628 H1634 0.984 . S
N1628 H1635 0.984 . S
N1629 C1622 1.356 . S
N1629 H1632 0.984 . S
N1629 H1633 0.985 . S
H1630 N1625 0.984 . S
H1631 N1625 0.985 . S
H1632 N1629 0.984 . S
H1633 N1629 0.985 . S
H1634 N1628 0.984 . S
H1635 N1628 0.984 . S
H1636 N1624 0.984 1_556 S
H1637 N1624 0.985 . S
C1638 C1639 1.363 . S
C1638 C1644 1.379 . S
C1638 N1646 1.356 . S
C1639 C1638 1.363 . S
C1639 C1645 1.363 . S
C1640 C1641 1.363 1_545 S
C1640 C1645 1.379 . S
C1640 N1647 1.356 1_545 S
C1641 C1640 1.363 1_565 S
C1641 C1644 1.363 1_565 S
N1642 C1644 1.356 1_565 S
N1642 H1654 0.984 1_565 S
N1642 H1655 0.985 . S
N1643 C1645 1.356 . S
N1643 H1648 0.984 . S
N1643 H1649 0.985 . S
C1644 C1638 1.379 . S
C1644 C1641 1.363 1_545 S
C1644 N1642 1.356 1_545 S
C1645 C1639 1.363 . S
C1645 C1640 1.379 . S
C1645 N1643 1.356 . S
N1646 C1638 1.356 . S
N1646 H1652 0.984 . S
N1646 H1653 0.984 . S
N1647 C1640 1.356 1_565 S
N1647 H1650 0.984 . S
N1647 H1651 0.985 . S
H1648 N1643 0.984 . S
H1649 N1643 0.985 . S
H1650 N1647 0.984 . S
H1651 N1647 0.985 . S
H1652 N1646 0.984 . S
H1653 N1646 0.984 . S
H1654 N1642 0.984 1_545 S
H1655 N1642 0.985 . S
C795 C632 1.601 1_556 S
C793 C211 1.599 . S
C813 C647 1.733 . S
C811 C255 1.791 1_455 S
C829 C274 1.682 . S
C831 C660 1.682 . S
C849 C674 1.623 . S
C847 C157 1.664 1_655 S
C867 C686 1.608 . S
C865 C391 1.686 . S
C885 C700 1.532 . S
C883 C484 1.465 . S
C901 C450 1.722 . S
C903 C714 1.687 . S
C921 C729 1.610 . S
C919 C352 1.577 . S
C937 C430 1.642 . S
C939 C745 1.640 . S
C957 C758 1.628 . S
C955 C367 1.632 . S
C973 C411 1.596 . S
C975 C743 1.538 . S
C993 C756 1.710 . S
C991 C469 1.620 . S
C1009 C294 1.790 . S
C1011 C772 1.790 . S
C1027 C177 1.654 . S
C1029 C771 1.683 . S
C1045 C196 1.703 . S
C1047 C770 1.635 . S
C1063 C235 1.687 . S
C1065 C773 1.651 . S
C1081 C133 1.678 . S
C1083 C675 1.679 1_565 S
C1099 C567 1.498 . S
C1101 C673 1.469 . S
C1119 C633 1.583 . S
C1117 C601 1.614 . S
C1137 C644 1.730 . S
C1135 C328 1.745 . S
C1153 C172 1.676 . S
C1155 C689 1.661 . S
C1173 C730 1.831 . S
C1171 C445 1.832 . S
C1191 C687 1.683 . S
C1189 C372 1.651 1_545 S
C1209 C715 1.665 . S
C1207 C489 1.599 . S
C1227 C716 1.601 . S
C1225 C562 1.599 . S
C1243 C606 1.791 . S
C1245 C731 1.733 . S
C1261 C313 1.682 . S
C1263 C688 1.682 . S
C1281 C702 1.623 . S
C1279 C508 1.664 . S
C1297 C118 1.686 . S
C1299 C658 1.608 . S
C1317 C672 1.532 . S
C1315 C16 1.465 . S
C1335 C630 1.687 . S
C1333 C60 1.722 . S
C1353 C645 1.610 . S
C1351 C79 1.577 . S
C1369 C40 1.642 . S
C1371 C759 1.640 . S
C1387 C94 1.632 1_556 S
C1389 C744 1.628 . S
C1405 C138 1.596 . S
C1407 C757 1.538 . S
C1423 C1 1.620 . S
C1425 C742 1.709 . S
C1443 C786 1.790 . S
C1441 C333 1.790 . S
C1461 C785 1.683 . S
C1459 C528 1.654 1_554 S
C1479 C784 1.634 . S
C1477 C547 1.703 . S
C1495 C586 1.687 . S
C1497 C787 1.651 . S
C1513 C406 1.678 . S
C1515 C703 1.679 . S
C1533 C701 1.469 . S
C1531 C216 1.497 . S
C1551 C717 1.583 . S
C1549 C250 1.614 . S
C1569 C728 1.730 . S
C1567 C289 1.745 . S
C1585 C523 1.676 . S
C1587 C661 1.661 . S
C1605 C646 1.831 . S
C1603 C55 1.832 . S
C1621 C99 1.651 . S
C1623 C659 1.683 . S
C1641 C631 1.665 . S
C1639 C21 1.599 . S
