# Generated by pormake.
# Topology rtl, (3,6)-cn, num edge types: 1
# Building blocks:
#     Node 0, Type 0, BuildingBlock: VETTIZ_charged_linker_0, # of connection points: 3
#     Node 1, Type 0, BuildingBlock: VETTIZ_charged_linker_0, # of connection points: 3
#     Node 2, Type 0, BuildingBlock: VETTIZ_charged_linker_0, # of connection points: 3
#     Node 3, Type 0, BuildingBlock: VETTIZ_charged_linker_0, # of connection points: 3
#     Node 4, Type 1, BuildingBlock: KUMBOL_clean_sbu_1, # of connection points: 6
#     Node 5, Type 1, BuildingBlock: KUMBOL_clean_sbu_1, # of connection points: 6
#     Edge 6, Type (0, 1), BuildingBlock: OJICUG_clean_linker_0, # of connection points: 2
#     Edge 7, Type (0, 1), BuildingBlock: OJICUG_clean_linker_0, # of connection points: 2
#     Edge 8, Type (0, 1), BuildingBlock: OJICUG_clean_linker_0, # of connection points: 2
#     Edge 9, Type (0, 1), BuildingBlock: OJICUG_clean_linker_0, # of connection points: 2
#     Edge 10, Type (0, 1), BuildingBlock: OJICUG_clean_linker_0, # of connection points: 2
#     Edge 11, Type (0, 1), BuildingBlock: OJICUG_clean_linker_0, # of connection points: 2
#     Edge 12, Type (0, 1), BuildingBlock: OJICUG_clean_linker_0, # of connection points: 2
#     Edge 13, Type (0, 1), BuildingBlock: OJICUG_clean_linker_0, # of connection points: 2
#     Edge 14, Type (0, 1), BuildingBlock: OJICUG_clean_linker_0, # of connection points: 2
#     Edge 15, Type (0, 1), BuildingBlock: OJICUG_clean_linker_0, # of connection points: 2
#     Edge 16, Type (0, 1), BuildingBlock: OJICUG_clean_linker_0, # of connection points: 2
#     Edge 17, Type (0, 1), BuildingBlock: OJICUG_clean_linker_0, # of connection points: 2
# Relax obj value: 0.018
# Max RMSD: 0.114
# Mean RMSD: 0.067
data_MOF--net-rtl--node1-KUMBOL_clean_sbu_1--node2-VETTIZ_charged_linker_0--edge1-OJICUG_clean_linker_0
_symmetry_space_group_name_H-M    P1
_symmetry_Int_Tables_number       1
_symmetry_cell_setting            triclinic
loop_
_symmetry_equiv_pos_as_xyz
'x, y, z'
_cell_length_a     30.758588
_cell_length_b     31.605635
_cell_length_c     28.272586
_cell_angle_alpha  77.219061
_cell_angle_beta   98.949072
_cell_angle_gamma 90.698256
loop_
_atom_site_label
_atom_site_type_symbol
_atom_site_fract_x
_atom_site_fract_y
_atom_site_fract_z
_atom_type_partial_charge
C0 C 0.16709 0.91246 0.84125 0.0
C1 C 0.13192 0.94261 0.83105 0.0
C2 C 0.11885 0.95828 0.8697 0.0
C3 C 0.17295 0.91038 0.92829 0.0
C4 C 0.18706 0.8969 0.88984 0.0
C5 C 0.22369 0.86345 0.90682 0.0
H6 H 0.33967 0.71557 0.08962 0.0
C7 C 0.19807 0.88481 0.9745 0.0
C8 C 0.22791 0.85746 0.96215 0.0
H9 H 0.35015 0.74652 0.93477 0.0
H10 H 0.29844 0.80552 0.92102 0.0
H11 H 0.34272 0.81962 0.09647 0.0
H12 H 0.23477 0.73251 0.08046 0.0
H13 H 0.2276 0.76129 0.12559 0.0
H14 H 0.27471 0.7254 0.13537 0.0
H15 H 0.33273 0.77601 0.146 0.0
H16 H 0.30468 0.82798 0.1341 0.0
C17 C 0.26559 0.88314 0.88703 0.0
C18 C 0.20784 0.82181 0.8895 0.0
C19 C 0.16105 0.90285 0.13734 0.0
C20 C 0.17592 0.88231 0.1865 0.0
C21 C 0.2071 0.84785 0.19677 0.0
C22 C 0.22398 0.83493 0.1585 0.0
C23 C 0.20926 0.8565 0.10949 0.0
C24 C 0.17798 0.8896 0.09977 0.0
C25 C 0.16489 0.90827 0.04584 0.0
C26 C 0.19453 0.88206 0.02453 0.0
C27 C 0.22047 0.8516 0.0618 0.0
C28 C 0.17616 0.95705 0.03527 0.0
C29 C 0.1155 0.89894 0.03168 0.0
C30 C 0.33107 0.73528 0.05282 0.0
C31 C 0.34806 0.72514 0.01293 0.0
C32 C 0.33639 0.75226 0.96586 0.0
C33 C 0.30648 0.78689 0.95788 0.0
C34 C 0.28793 0.79506 0.9973 0.0
C35 C 0.30135 0.77063 0.04416 0.0
C36 C 0.28008 0.78677 0.08174 0.0
C37 C 0.25067 0.82373 0.04919 0.0
C38 C 0.255 0.82763 0.99971 0.0
C39 C 0.31674 0.80328 0.11683 0.0
C40 C 0.25297 0.74965 0.10759 0.0
H41 H 0.12715 0.95462 0.94644 0.0
H42 H 0.17824 0.90055 0.81197 0.0
H43 H 0.17354 0.81463 0.89622 0.0
H44 H 0.22753 0.79252 0.90911 0.0
H45 H 0.20823 0.82575 0.84954 0.0
H46 H 0.26375 0.91924 0.87723 0.0
H47 H 0.27053 0.87207 0.85355 0.0
H48 H 0.29561 0.87519 0.9149 0.0
H49 H 0.13631 0.92871 0.12811 0.0
H50 H 0.21897 0.83145 0.23439 0.0
H51 H 0.24783 0.80871 0.16849 0.0
H52 H 0.20738 0.96266 0.05857 0.0
H53 H 0.14981 0.97698 0.04314 0.0
H54 H 0.18186 0.96972 0.99713 0.0
H55 H 0.10649 0.86744 0.05409 0.0
H56 H 0.10689 0.89557 0.99333 0.0
H57 H 0.09408 0.92462 0.0378 0.0
H58 H 0.09182 0.98164 0.86246 0.0
C59 C 0.13917 0.94226 0.91836 0.0
C60 C 0.64649 0.65463 0.79527 0.0
C61 C 0.61029 0.62731 0.80164 0.0
C62 C 0.58801 0.6124 0.76133 0.0
C63 C 0.63711 0.65169 0.70906 0.0
C64 C 0.65892 0.66697 0.74832 0.0
C65 C 0.69507 0.69751 0.73323 0.0
H66 H 0.79446 0.81069 0.54651 0.0
C67 C 0.65704 0.67063 0.66521 0.0
C68 C 0.69063 0.69829 0.67855 0.0
H69 H 0.83003 0.80817 0.70152 0.0
H70 H 0.77195 0.75783 0.71951 0.0
H71 H 0.79295 0.71145 0.56339 0.0
H72 H 0.68935 0.80716 0.53968 0.0
H73 H 0.67174 0.7697 0.50332 0.0
H74 H 0.72059 0.80025 0.49319 0.0
H75 H 0.77066 0.74118 0.50298 0.0
H76 H 0.74769 0.69064 0.53084 0.0
C77 C 0.73963 0.67715 0.76173 0.0
C78 C 0.68454 0.74235 0.7426 0.0
C79 C 0.60635 0.62149 0.50661 0.0
C80 C 0.61857 0.63299 0.45959 0.0
C81 C 0.64796 0.66731 0.44975 0.0
C82 C 0.66617 0.68852 0.48651 0.0
C83 C 0.65498 0.67541 0.53381 0.0
C84 C 0.62481 0.64309 0.54291 0.0
C85 C 0.61586 0.63435 0.59493 0.0
C86 C 0.64754 0.66512 0.61622 0.0
C87 C 0.6703 0.68896 0.58031 0.0
C88 C 0.62827 0.58621 0.61918 0.0
C89 C 0.56698 0.64697 0.59381 0.0
C90 C 0.79064 0.79921 0.58459 0.0
C91 C 0.8175 0.81407 0.62236 0.0
C92 C 0.80971 0.79829 0.67118 0.0
C93 C 0.77609 0.76864 0.68177 0.0
C94 C 0.75011 0.75395 0.64335 0.0
C95 C 0.75827 0.76888 0.59587 0.0
C96 C 0.73058 0.74739 0.55982 0.0
C97 C 0.70334 0.71793 0.59305 0.0
C98 C 0.71419 0.72216 0.64201 0.0
C99 C 0.76175 0.72148 0.53767 0.0
C100 C 0.70161 0.78277 0.52162 0.0
H101 H 0.58307 0.61137 0.68643 0.0
H102 H 0.66398 0.66666 0.82576 0.0
H103 H 0.64925 0.75148 0.72904 0.0
H104 H 0.70342 0.76868 0.72326 0.0
H105 H 0.69107 0.7419 0.78248 0.0
H106 H 0.74013 0.64137 0.7653 0.0
H107 H 0.74567 0.68339 0.79933 0.0
H108 H 0.76767 0.68896 0.74277 0.0
H109 H 0.58392 0.59532 0.51559 0.0
H110 H 0.65712 0.67769 0.41356 0.0
H111 H 0.68863 0.71402 0.47674 0.0
H112 H 0.65986 0.57696 0.6092 0.0
H113 H 0.60257 0.56434 0.60677 0.0
H114 H 0.63353 0.57937 0.65967 0.0
H115 H 0.5532 0.66983 0.55888 0.0
H116 H 0.56289 0.66447 0.6228 0.0
H117 H 0.54592 0.61799 0.59758 0.0
H118 H 0.56034 0.59107 0.76564 0.0
C119 C 0.60128 0.62424 0.71532 0.0
C120 C 0.85154 0.10581 0.24406 0.0
C121 C 0.88116 0.07036 0.25545 0.0
C122 C 0.89107 0.05157 0.21753 0.0
C123 C 0.84512 0.10641 0.15731 0.0
C124 C 0.83391 0.12308 0.19514 0.0
C125 C 0.80285 0.16144 0.17728 0.0
H126 H 0.67878 0.30009 0.99127 0.0
C127 C 0.8232 0.13416 0.11056 0.0
C128 C 0.79811 0.16607 0.12222 0.0
H129 H 0.69289 0.29301 0.14776 0.0
H130 H 0.74518 0.23468 0.16314 0.0
H131 H 0.78191 0.29417 0.99281 0.0
H132 H 0.68488 0.19469 0.99367 0.0
H133 H 0.7186 0.19309 0.94865 0.0
H134 H 0.68598 0.24107 0.94389 0.0
H135 H 0.74919 0.28674 0.93709 0.0
H136 H 0.80033 0.25683 0.9623 0.0
C137 C 0.82566 0.20107 0.19379 0.0
C138 C 0.75902 0.14881 0.19697 0.0
C139 C 0.86019 0.11311 0.94846 0.0
C140 C 0.85093 0.13786 0.89991 0.0
C141 C 0.82025 0.17291 0.88965 0.0
C142 C 0.8006 0.18389 0.92711 0.0
C143 C 0.81213 0.16014 0.97566 0.0
C144 C 0.84127 0.12521 0.98558 0.0
C145 C 0.85215 0.10541 0.03964 0.0
C146 C 0.82537 0.13467 0.06063 0.0
C147 C 0.80148 0.16642 0.02297 0.0
C148 C 0.90234 0.10929 0.05553 0.0
C149 C 0.83561 0.05828 0.04897 0.0
C150 C 0.69322 0.28603 0.02882 0.0
C151 C 0.6801 0.3005 0.06841 0.0
C152 C 0.70058 0.28157 0.11657 0.0
C153 C 0.73148 0.24771 0.12555 0.0
C154 C 0.74308 0.23265 0.08606 0.0
C155 C 0.72497 0.25226 0.03854 0.0
C156 C 0.74426 0.23347 1.00142 0.0
C157 C 0.77472 0.19777 0.0349 0.0
C158 C 0.77354 0.19763 0.0843 0.0
C159 C 0.77008 0.26949 0.97146 0.0
C160 C 0.70657 0.21466 0.96987 0.0
H161 H 0.88257 0.05447 0.14081 0.0
H162 H 0.84293 0.12042 0.27273 0.0
H163 H 0.75218 0.11388 0.19869 0.0
H164 H 0.72997 0.16622 0.17299 0.0
H165 H 0.76024 0.15434 0.2346 0.0
H166 H 0.86201 0.19878 0.19589 0.0
H167 H 0.81891 0.20324 0.23066 0.0
H168 H 0.81598 0.23218 0.1675 0.0
H169 H 0.88273 0.08542 0.95797 0.0
H170 H 0.81255 0.19306 0.85299 0.0
H171 H 0.77801 0.21115 0.91706 0.0
H172 H 0.91417 0.14091 0.03632 0.0
H173 H 0.92105 0.0831 0.04647 0.0
H174 H 0.91158 0.10865 0.09494 0.0
H175 H 0.80429 0.05581 0.02415 0.0
H176 H 0.82779 0.04675 0.08646 0.0
H177 H 0.86007 0.03559 0.04228 0.0
H178 H 0.91387 0.02411 0.2258 0.0
C179 C 0.87316 0.06945 0.16837 0.0
C180 C 0.35474 0.35739 0.29291 0.0
C181 C 0.38675 0.38934 0.28508 0.0
C182 C 0.40487 0.40865 0.3237 0.0
C183 C 0.36033 0.36399 0.37775 0.0
C184 C 0.34206 0.3451 0.33974 0.0
C185 C 0.30886 0.31138 0.35576 0.0
H186 H 0.208 0.1993 0.54226 0.0
C187 C 0.34146 0.34369 0.422 0.0
C188 C 0.31142 0.31242 0.40978 0.0
H189 H 0.18248 0.19065 0.38994 0.0
H190 H 0.23862 0.24352 0.37114 0.0
H191 H 0.31157 0.20326 0.553 0.0
H192 H 0.20841 0.3005 0.51946 0.0
H193 H 0.25096 0.31909 0.558 0.0
H194 H 0.22539 0.2685 0.58028 0.0
H195 H 0.28269 0.21543 0.599 0.0
H196 H 0.33145 0.24408 0.58331 0.0
C197 C 0.32459 0.26711 0.34912 0.0
C198 C 0.26318 0.32689 0.32591 0.0
C199 C 0.3856 0.39697 0.57956 0.0
C200 C 0.37408 0.38394 0.62686 0.0
C201 C 0.34768 0.34726 0.63709 0.0
C202 C 0.33145 0.32517 0.60053 0.0
C203 C 0.34168 0.3397 0.55299 0.0
C204 C 0.36921 0.37433 0.54342 0.0
C205 C 0.37771 0.38404 0.49114 0.0
C206 C 0.34931 0.35055 0.47056 0.0
C207 C 0.32811 0.32505 0.50688 0.0
C208 C 0.4275 0.37591 0.49175 0.0
C209 C 0.36095 0.43099 0.4665 0.0
C210 C 0.21388 0.20895 0.50462 0.0
C211 C 0.19022 0.19081 0.46762 0.0
C212 C 0.20025 0.2038 0.41942 0.0
C213 C 0.23267 0.23479 0.40844 0.0
C214 C 0.25526 0.25321 0.44595 0.0
C215 C 0.24549 0.24002 0.49303 0.0
C216 C 0.27097 0.26368 0.52832 0.0
C217 C 0.29779 0.29349 0.49493 0.0
C218 C 0.289 0.28724 0.44662 0.0
C219 C 0.30059 0.23012 0.56835 0.0
C220 C 0.23754 0.28914 0.54804 0.0
H221 H 0.40714 0.41214 0.39772 0.0
H222 H 0.34037 0.3422 0.26353 0.0
H223 H 0.25876 0.36258 0.32089 0.0
H224 H 0.23576 0.31258 0.34453 0.0
H225 H 0.25939 0.31948 0.28888 0.0
H226 H 0.36047 0.26192 0.36276 0.0
H227 H 0.3188 0.26558 0.30976 0.0
H228 H 0.30844 0.23943 0.3701 0.0
H229 H 0.40587 0.42492 0.57033 0.0
H230 H 0.33929 0.33565 0.67349 0.0
H231 H 0.31105 0.29796 0.61067 0.0
H232 H 0.4422 0.3519 0.52535 0.0
H233 H 0.44621 0.40628 0.49085 0.0
H234 H 0.43379 0.36157 0.46105 0.0
H235 H 0.32933 0.43784 0.47819 0.0
H236 H 0.35369 0.43692 0.42608 0.0
H237 H 0.38505 0.4551 0.47687 0.0
H238 H 0.42926 0.43351 0.31804 0.0
C239 C 0.39193 0.39617 0.3699 0.0
C240 C 0.90475 0.10827 0.46782 0.0
C241 C 0.83608 0.07152 0.45229 0.0
C242 C 0.87819 0.07287 0.48005 0.0
C243 C 0.82214 0.10492 0.41093 0.0
C244 C 0.89048 0.14234 0.42697 0.0
C245 C 0.84926 0.14022 0.3983 0.0
N246 N 0.94519 0.10874 0.49512 0.0
C247 C 0.9723 0.14291 0.48483 0.0
C248 C 0.91839 0.17724 0.41575 0.0
C249 C 0.95937 0.17762 0.44498 0.0
Gd250 Gd 0.04009 0.95765 0.52703 0.0
Gd251 Gd 0.9648 0.04848 0.56 0.0
N252 N 0.89286 0.04057 0.51988 0.0
C253 C 0.8087 0.03725 0.46772 0.0
C254 C 0.86443 0.00985 0.53775 0.0
C255 C 0.82257 0.00686 0.5113 0.0
H256 H 0.87301 0.9885 0.57319 0.0
H257 H 0.80068 0.98167 0.52515 0.0
H258 H 0.12773 0.01238 0.56745 0.0
H259 H 1.0038 0.14341 0.50754 0.0
H260 H 0.19335 0.99871 0.63126 0.0
H261 H 0.77611 0.03507 0.44749 0.0
H262 H 0.79011 0.10411 0.38892 0.0
H263 H 0.99119 0.86241 0.5309 0.0
H264 H 0.90863 0.20401 0.38465 0.0
H265 H 0.98106 0.20457 0.43677 0.0
H266 H 0.18593 0.84775 0.70762 0.0
H267 H 0.83794 0.16584 0.36646 0.0
H268 H 0.06467 0.76754 0.64675 0.0
H269 H 1.00074 0.78719 0.58052 0.0
N270 N 0.04776 0.88513 0.57007 0.0
C271 C 0.0837 0.87485 0.60538 0.0
C272 C 0.01849 0.85425 0.56049 0.0
C273 C 0.06037 0.8006 0.62535 0.0
C274 C 0.02417 0.81159 0.58811 0.0
C275 C 0.09083 0.83232 0.63427 0.0
H276 H 0.13378 0.79041 0.69383 0.0
N277 N 0.10451 0.94818 0.58563 0.0
C278 C 0.11321 0.90717 0.61307 0.0
C279 C 0.1793 0.9313 0.65676 0.0
C280 C 0.15049 0.89779 0.64992 0.0
C281 C 0.1334 0.98054 0.59081 0.0
C282 C 0.1709 0.97275 0.62677 0.0
O283 O 0.97253 0.0496 0.48162 0.0
O284 O 0.97572 0.97844 0.47719 0.0
O285 O 0.08967 0.96937 0.47934 0.0
O286 O 0.04791 0.91412 0.47868 0.0
O287 O 0.95141 0.97696 0.58844 0.0
O288 O 0.96884 0.94111 0.53046 0.0
O289 O 0.03832 0.95636 0.60712 0.0
O290 O 0.02864 0.02761 0.61042 0.0
O291 O 0.93308 0.04703 0.62421 0.0
O292 O 0.95444 0.10764 0.58383 0.0
O293 O 0.05647 0.02859 0.50233 0.0
O294 O 0.03554 0.06739 0.55628 0.0
C295 C 0.96292 0.01878 0.45776 0.0
C296 C 0.94756 0.94374 0.56684 0.0
C297 C 0.06956 0.95015 0.40383 0.0
C298 C 0.08769 0.94552 0.32404 0.0
C299 C 0.03164 0.99715 0.32941 0.0
C300 C 0.03911 0.9837 0.38035 0.0
C301 C 0.05571 0.97823 0.30135 0.0
C302 C 0.09389 0.93089 0.37558 0.0
C303 C 0.07761 0.93774 0.45783 0.0
C304 C 0.15759 0.85551 0.67895 0.0
C305 C 0.12786 0.82287 0.67113 0.0
H306 H 0.20824 0.92545 0.68478 0.0
C307 C 0.04105 0.98746 0.6315 0.0
C308 C 0.05965 0.06226 0.52304 0.0
C309 C 0.95918 0.09943 0.66919 0.0
C310 C 0.95193 0.11393 0.74922 0.0
C311 C 0.02268 0.12138 0.71978 0.0
C312 C 0.00398 0.10927 0.67676 0.0
C313 C 0.99694 0.12406 0.75556 0.0
C314 C 0.93336 0.10144 0.70558 0.0
C315 C 0.93905 0.08807 0.62297 0.0
H316 H 0.0077 0.02285 0.3117 0.0
H317 H 0.02194 1.00009 0.4017 0.0
H318 H 0.04962 0.98951 0.26178 0.0
H319 H 0.11852 0.90589 0.39368 0.0
H320 H 0.0572 0.12922 0.7252 0.0
H321 H 0.02445 0.10797 0.64917 0.0
H322 H 0.01231 0.13486 0.78781 0.0
H323 H 0.89895 0.09312 0.6998 0.0
C324 C 0.64977 0.5349 0.07907 0.0
C325 C 0.65463 0.6102 0.03678 0.0
C326 C 0.62988 0.57546 0.05839 0.0
C327 C 0.69962 0.60365 0.03627 0.0
C328 C 0.69492 0.52823 0.07866 0.0
C329 C 0.7197 0.56279 0.05711 0.0
N330 N 0.62488 0.50194 0.0992 0.0
C331 C 0.64328 0.46195 0.12097 0.0
C332 C 0.7138 0.48696 0.09982 0.0
C333 C 0.68789 0.45374 0.12123 0.0
Gd334 Gd 0.45633 0.48086 0.99775 0.0
Gd335 Gd 0.55027 0.5188 0.09523 0.0
N336 N 0.58586 0.58039 0.05777 0.0
C337 C 0.63329 0.65041 0.01599 0.0
C338 C 0.56519 0.61983 0.03908 0.0
C339 C 0.58846 0.65529 0.01746 0.0
H340 H 0.53076 0.62403 0.04048 0.0
H341 H 0.57183 0.68638 1.00198 0.0
H342 H 0.50143 0.37965 0.01427 0.0
H343 H 0.62364 0.43652 0.1387 0.0
H344 H 0.49 0.30577 0.05969 0.0
H345 H 0.65115 0.67791 0.99897 0.0
H346 H 0.71916 0.62994 0.01971 0.0
H347 H 0.36565 0.53817 0.99558 0.0
H348 H 0.74838 0.4805 0.10013 0.0
H349 H 0.7023 0.42187 0.13816 0.0
H350 H 0.3528 0.31637 0.11705 0.0
H351 H 0.75442 0.55825 0.05637 0.0
H352 H 0.27595 0.45393 0.07071 0.0
H353 H 0.29403 0.52675 0.02557 0.0
N354 N 0.38742 0.47273 0.02365 0.0
C355 C 0.37773 0.43215 0.0471 0.0
C356 C 0.35782 0.50637 0.01516 0.0
C357 C 0.30721 0.45873 0.05736 0.0
C358 C 0.31733 0.49993 0.032 0.0
C359 C 0.33751 0.42421 0.06519 0.0
H360 H 0.29849 0.3757 0.10546 0.0
N361 N 0.44747 0.40765 0.03642 0.0
C362 C 0.40891 0.39889 0.0544 0.0
C363 C 0.43031 0.32308 0.08251 0.0
C364 C 0.39979 0.35653 0.07888 0.0
C365 C 0.4748 0.37428 0.0353 0.0
C366 C 0.46748 0.33185 0.05961 0.0
O367 O 0.56352 0.53185 0.01668 0.0
O368 O 0.49629 0.53739 0.9655 0.0
O369 O 0.4525 0.44734 0.93797 0.0
O370 O 0.40602 0.49909 0.93334 0.0
O371 O 0.48675 0.55926 0.07346 0.0
O372 O 0.4517 0.552 0.99645 0.0
O373 O 0.44349 0.4842 0.07395 0.0
O374 O 0.50932 0.46103 0.12102 0.0
O375 O 0.5341 0.5553 0.14699 0.0
O376 O 0.59092 0.51162 0.16658 0.0
O377 O 0.52615 0.45397 0.00756 0.0
O378 O 0.54662 0.44913 0.08989 0.0
C379 C 0.53842 0.54581 0.9741 0.0
C380 C 0.45814 0.57238 0.03288 0.0
C381 C 0.42843 0.49072 0.85976 0.0
C382 C 0.42632 0.48237 0.77574 0.0
C383 C 0.45726 0.54691 0.80001 0.0
C384 C 0.44793 0.53119 0.84745 0.0
C385 C 0.4467 0.52261 0.76428 0.0
C386 C 0.41753 0.46653 0.8238 0.0
C387 C 0.42103 0.47251 0.91033 0.0
C388 C 0.3601 0.34863 0.09776 0.0
C389 C 0.32905 0.38237 0.09093 0.0
H390 H 0.42453 0.2901 0.10097 0.0
C391 C 0.46622 0.46294 0.11528 0.0
C392 C 0.55196 0.43795 0.04919 0.0
C393 C 0.55509 0.52268 0.23063 0.0
C394 C 0.5576 0.53385 0.31354 0.0
C395 C 0.5222 0.47051 0.29064 0.0
C396 C 0.53268 0.484 0.24336 0.0
C397 C 0.53436 0.49536 0.3256 0.0
C398 C 0.56753 0.54742 0.26569 0.0
C399 C 0.56621 0.53768 0.18121 0.0
H400 H 0.47251 0.57809 0.79084 0.0
H401 H 0.45587 0.55046 0.87455 0.0
H402 H 0.45363 0.53564 0.72751 0.0
H403 H 0.40269 0.43511 0.83344 0.0
H404 H 0.50513 0.44046 0.30035 0.0
H405 H 0.52375 0.46426 0.21689 0.0
H406 H 0.52659 0.48397 0.3623 0.0
H407 H 0.58492 0.57733 0.25563 0.0
C408 C 0.12885 0.16324 0.51507 0.0
C409 C 0.15533 0.15878 0.47992 0.0
H410 H 0.07888 0.13631 0.55692 0.0
C411 C 0.14918 0.12273 0.45829 0.0
H412 H 0.13189 0.19099 0.53189 0.0
C413 C 0.11794 0.09169 0.472 0.0
C414 C 0.09216 0.09577 0.5079 0.0
H415 H 0.1692 0.11787 0.43156 0.0
H416 H 0.11443 0.06422 0.45474 0.0
C417 C 0.09803 0.13199 0.52918 0.0
C418 C 0.37194 0.66205 0.9821 0.0
C419 C 0.37651 0.68589 0.01906 0.0
H420 H 0.39443 0.60884 0.95673 0.0
C421 C 0.40843 0.67202 0.06096 0.0
H422 H 0.34709 0.67101 0.94979 0.0
C423 C 0.43521 0.63532 0.06552 0.0
C424 C 0.43075 0.61185 0.02817 0.0
H425 H 0.41316 0.6898 0.08993 0.0
H426 H 0.45944 0.62547 0.09826 0.0
C427 C 0.39894 0.62592 0.98632 0.0
C428 C 0.87352 0.84652 0.56871 0.0
C429 C 0.85315 0.84564 0.61032 0.0
H430 H 0.91688 0.87896 0.52108 0.0
C431 C 0.86621 0.87621 0.63892 0.0
H432 H 0.86589 0.82293 0.54632 0.0
C433 C 0.89786 0.90702 0.62576 0.0
C434 C 0.91643 0.90901 0.58287 0.0
H435 H 0.85128 0.87728 0.67086 0.0
H436 H 0.90686 0.9301 0.64859 0.0
C437 C 0.9039 0.87823 0.55468 0.0
C438 C 0.64071 0.37023 0.01999 0.0
C439 C 0.64526 0.33482 0.06078 0.0
H440 H 0.60702 0.43081 0.98413 0.0
C441 C 0.617 0.33301 0.09588 0.0
H442 H 0.66199 0.37296 0.99241 0.0
C443 C 0.58683 0.36659 0.09184 0.0
C444 C 0.58307 0.4022 0.05182 0.0
H445 H 0.61823 0.30567 0.12688 0.0
H446 H 0.56613 0.36457 0.11994 0.0
C447 C 0.60949 0.40346 0.01532 0.0
C448 C 0.14345 0.86828 0.26505 0.0
C449 C 0.15856 0.89757 0.22617 0.0
H450 H 0.10879 0.86051 0.32678 0.0
C451 C 0.15405 0.94231 0.22307 0.0
H452 H 0.14644 0.83361 0.26828 0.0
C453 C 0.13262 0.95754 0.25616 0.0
C454 C 0.11514 0.92846 0.2933 0.0
H455 H 0.16625 0.96568 0.19422 0.0
H456 H 0.12887 0.99227 0.25202 0.0
C457 C 0.1219 0.88363 0.29844 0.0
C458 C 0.55053 0.62064 0.85278 0.0
C459 C 0.5948 0.61338 0.84956 0.0
H460 H 0.49856 0.60646 0.89569 0.0
C461 C 0.62183 0.58752 0.88992 0.0
H462 H 0.52916 0.6408 0.82223 0.0
C463 C 0.60394 0.56671 0.93147 0.0
C464 C 0.55883 0.57168 0.93323 0.0
H465 H 0.65603 0.58132 0.88811 0.0
H466 H 0.62494 0.54513 0.96109 0.0
C467 C 0.53287 0.60039 0.89442 0.0
C468 C 0.90259 0.0123 0.33194 0.0
C469 C 0.90371 0.05569 0.30644 0.0
H470 H 0.91987 0.96655 0.40078 0.0
C471 C 0.92547 0.08615 0.33038 0.0
H472 H 0.88598 0.9883 0.31402 0.0
C473 C 0.94518 0.07377 0.37921 0.0
C474 C 0.94265 0.03088 0.40562 0.0
H475 H 0.92736 0.11967 0.31117 0.0
H476 H 0.96261 0.0979 0.39618 0.0
C477 C 0.92176 1.0 0.38141 0.0
C478 C 0.43001 0.42731 0.66995 0.0
C479 C 0.38801 0.40913 0.66503 0.0
H480 H 0.47519 0.46457 0.70909 0.0
C481 C 0.35886 0.4156 0.69663 0.0
H482 H 0.45345 0.42256 0.6466 0.0
C483 C 0.37147 0.43918 0.73257 0.0
C484 C 0.41339 0.45724 0.73753 0.0
H485 H 0.32589 0.40301 0.69316 0.0
H486 H 0.34809 0.4439 0.75601 0.0
C487 C 0.44251 0.45127 0.70575 0.0
C488 C 0.55895 0.59308 0.41674 0.0
C489 C 0.60228 0.60825 0.42161 0.0
H490 H 0.51078 0.55772 0.37862 0.0
C491 C 0.63058 0.59855 0.3907 0.0
H492 H 0.53611 0.60038 0.43953 0.0
C493 C 0.61594 0.57453 0.35568 0.0
C494 C 0.57274 0.55932 0.35091 0.0
H495 H 0.66444 0.60878 0.39415 0.0
H496 H 0.63874 0.56718 0.33285 0.0
C497 C 0.54439 0.5687 0.38186 0.0
C498 C 0.85608 0.1373 0.81145 0.0
C499 C 0.87547 0.12906 0.86122 0.0
H500 H 0.86479 0.13998 0.73721 0.0
C501 C 0.91952 0.11386 0.87369 0.0
H502 H 0.82211 0.14836 0.80026 0.0
C503 C 0.94352 0.10758 0.83767 0.0
C504 C 0.92473 0.1173 0.78776 0.0
H505 H 0.9362 0.10778 0.91126 0.0
H506 H 0.97714 0.09544 0.84917 0.0
C507 C 0.88046 0.13178 0.7752 0.0
C508 C 0.38157 0.43701 0.2012 0.0
C509 C 0.40278 0.40283 0.23757 0.0
H510 H 0.38538 0.48328 0.13396 0.0
C511 C 0.44339 0.38654 0.23185 0.0
H512 H 0.35054 0.45047 0.20541 0.0
C513 C 0.46326 0.4051 0.19111 0.0
C514 C 0.44316 0.44073 0.15579 0.0
H515 H 0.46055 0.36059 0.25993 0.0
H516 H 0.49505 0.39246 0.18807 0.0
C517 C 0.4016 0.45583 0.16057 0.0
C518 C 0.0989 0.99864 0.75681 0.0
C519 C 0.10723 0.95495 0.78068 0.0
H520 H 0.07241 0.04337 0.6901 0.0
C521 C 0.09224 0.92236 0.75599 0.0
H522 H 0.11027 0.02431 0.77518 0.0
C523 C 0.06978 0.93312 0.7081 0.0
C524 C 0.06258 0.97678 0.68335 0.0
H525 H 0.09771 0.88839 0.7739 0.0
H526 H 0.05833 0.90706 0.69044 0.0
C527 C 0.07707 0.00949 0.70829 0.0
loop_
_geom_bond_atom_site_label_1
_geom_bond_atom_site_label_2
_geom_bond_distance
_geom_bond_site_symmetry_2
_ccdc_geom_bond_type
C0 C1 1.391 . S
C0 C4 1.391 . S
C0 H42 0.948 . S
C1 C0 1.391 . S
C1 C2 1.391 . S
C2 C1 1.391 . S
C2 H58 0.947 . S
C2 C59 1.392 . S
C3 C4 1.391 . S
C3 C7 1.397 . S
C3 C59 1.419 . S
C4 C0 1.391 . S
C4 C3 1.391 . S
C4 C5 1.399 . S
C5 C4 1.399 . S
C5 C8 1.396 . S
C5 C17 1.453 . S
C5 C18 1.684 . S
H6 C30 0.948 . S
C7 C3 1.397 . S
C7 C8 1.394 . S
C7 C26 1.723 1_556 S
C8 C5 1.396 . S
C8 C7 1.394 . S
C8 C38 1.723 1_556 S
H9 C32 0.947 . S
H10 C33 0.948 . S
H11 C39 0.982 . S
H12 C40 0.979 . S
H13 C40 0.980 . S
H14 C40 0.983 . S
H15 C39 0.979 . S
H16 C39 0.977 . S
C17 C5 1.453 . S
C17 H46 0.982 . S
C17 H47 0.979 . S
C17 H48 0.977 . S
C18 C5 1.684 . S
C18 H43 0.979 . S
C18 H44 0.980 . S
C18 H45 0.983 . S
C19 C20 1.391 . S
C19 C24 1.391 . S
C19 H49 0.948 . S
C20 C19 1.391 . S
C20 C21 1.391 . S
C21 C20 1.391 . S
C21 C22 1.392 . S
C21 H50 0.947 . S
C22 C21 1.392 . S
C22 C23 1.419 . S
C22 H51 0.948 . S
C23 C22 1.419 . S
C23 C24 1.391 . S
C23 C27 1.397 . S
C24 C19 1.391 . S
C24 C23 1.391 . S
C24 C25 1.399 . S
C25 C24 1.399 . S
C25 C26 1.396 . S
C25 C28 1.453 . S
C25 C29 1.684 . S
C26 C7 1.723 1_554 S
C26 C25 1.396 . S
C26 C27 1.394 . S
C27 C23 1.397 . S
C27 C26 1.394 . S
C27 C37 1.723 . S
C28 C25 1.453 . S
C28 H52 0.982 . S
C28 H53 0.979 . S
C28 H54 0.977 1_554 S
C29 C25 1.684 . S
C29 H55 0.979 . S
C29 H56 0.980 1_554 S
C29 H57 0.983 . S
C30 H6 0.948 . S
C30 C31 1.391 . S
C30 C35 1.391 . S
C31 C30 1.391 . S
C31 C32 1.391 1_554 S
C32 H9 0.947 . S
C32 C31 1.391 1_556 S
C32 C33 1.392 . S
C33 H10 0.948 . S
C33 C32 1.392 . S
C33 C34 1.419 1_556 S
C34 C33 1.419 1_554 S
C34 C35 1.391 . S
C34 C38 1.397 . S
C35 C30 1.391 . S
C35 C34 1.391 . S
C35 C36 1.399 . S
C36 C35 1.399 . S
C36 C37 1.396 . S
C36 C39 1.453 . S
C36 C40 1.684 . S
C37 C27 1.723 . S
C37 C36 1.396 . S
C37 C38 1.394 . S
C38 C8 1.723 1_554 S
C38 C34 1.397 . S
C38 C37 1.394 . S
C39 H11 0.982 . S
C39 H15 0.979 . S
C39 H16 0.977 . S
C39 C36 1.453 . S
C40 H12 0.979 . S
C40 H13 0.980 . S
C40 H14 0.983 . S
C40 C36 1.684 . S
H41 C59 0.948 . S
H42 C0 0.948 . S
H43 C18 0.979 . S
H44 C18 0.980 . S
H45 C18 0.983 . S
H46 C17 0.982 . S
H47 C17 0.979 . S
H48 C17 0.977 . S
H49 C19 0.948 . S
H50 C21 0.947 . S
H51 C22 0.948 . S
H52 C28 0.982 . S
H53 C28 0.979 . S
H54 C28 0.977 1_556 S
H55 C29 0.979 . S
H56 C29 0.980 1_556 S
H57 C29 0.983 . S
H58 C2 0.947 . S
C59 C2 1.392 . S
C59 C3 1.419 . S
C59 H41 0.948 . S
C60 C61 1.391 . S
C60 C64 1.391 . S
C60 H102 0.948 . S
C61 C60 1.391 . S
C61 C62 1.391 . S
C62 C61 1.391 . S
C62 H118 0.947 . S
C62 C119 1.392 . S
C63 C64 1.391 . S
C63 C67 1.397 . S
C63 C119 1.419 . S
C64 C60 1.391 . S
C64 C63 1.391 . S
C64 C65 1.399 . S
C65 C64 1.399 . S
C65 C68 1.396 . S
C65 C77 1.453 . S
C65 C78 1.684 . S
H66 C90 0.948 . S
C67 C63 1.397 . S
C67 C68 1.394 . S
C67 C86 1.723 . S
C68 C65 1.396 . S
C68 C67 1.394 . S
C68 C98 1.723 . S
H69 C92 0.947 . S
H70 C93 0.948 . S
H71 C99 0.982 . S
H72 C100 0.979 . S
H73 C100 0.980 . S
H74 C100 0.983 . S
H75 C99 0.979 . S
H76 C99 0.977 . S
C77 C65 1.453 . S
C77 H106 0.982 . S
C77 H107 0.979 . S
C77 H108 0.977 . S
C78 C65 1.684 . S
C78 H103 0.979 . S
C78 H104 0.980 . S
C78 H105 0.983 . S
C79 C80 1.391 . S
C79 C84 1.391 . S
C79 H109 0.948 . S
C80 C79 1.391 . S
C80 C81 1.391 . S
C81 C80 1.391 . S
C81 C82 1.392 . S
C81 H110 0.947 . S
C82 C81 1.392 . S
C82 C83 1.419 . S
C82 H111 0.948 . S
C83 C82 1.419 . S
C83 C84 1.391 . S
C83 C87 1.397 . S
C84 C79 1.391 . S
C84 C83 1.391 . S
C84 C85 1.399 . S
C85 C84 1.399 . S
C85 C86 1.396 . S
C85 C88 1.453 . S
C85 C89 1.684 . S
C86 C67 1.723 . S
C86 C85 1.396 . S
C86 C87 1.394 . S
C87 C83 1.397 . S
C87 C86 1.394 . S
C87 C97 1.723 . S
C88 C85 1.453 . S
C88 H112 0.982 . S
C88 H113 0.979 . S
C88 H114 0.977 . S
C89 C85 1.684 . S
C89 H115 0.979 . S
C89 H116 0.980 . S
C89 H117 0.983 . S
C90 H66 0.948 . S
C90 C91 1.391 . S
C90 C95 1.391 . S
C91 C90 1.391 . S
C91 C92 1.391 . S
C92 H69 0.947 . S
C92 C91 1.391 . S
C92 C93 1.392 . S
C93 H70 0.948 . S
C93 C92 1.392 . S
C93 C94 1.419 . S
C94 C93 1.419 . S
C94 C95 1.391 . S
C94 C98 1.397 . S
C95 C90 1.391 . S
C95 C94 1.391 . S
C95 C96 1.399 . S
C96 C95 1.399 . S
C96 C97 1.396 . S
C96 C99 1.453 . S
C96 C100 1.684 . S
C97 C87 1.723 . S
C97 C96 1.396 . S
C97 C98 1.394 . S
C98 C68 1.723 . S
C98 C94 1.397 . S
C98 C97 1.394 . S
C99 H71 0.982 . S
C99 H75 0.979 . S
C99 H76 0.977 . S
C99 C96 1.453 . S
C100 H72 0.979 . S
C100 H73 0.980 . S
C100 H74 0.983 . S
C100 C96 1.684 . S
H101 C119 0.948 . S
H102 C60 0.948 . S
H103 C78 0.979 . S
H104 C78 0.980 . S
H105 C78 0.983 . S
H106 C77 0.982 . S
H107 C77 0.979 . S
H108 C77 0.977 . S
H109 C79 0.948 . S
H110 C81 0.947 . S
H111 C82 0.948 . S
H112 C88 0.982 . S
H113 C88 0.979 . S
H114 C88 0.977 . S
H115 C89 0.979 . S
H116 C89 0.980 . S
H117 C89 0.983 . S
H118 C62 0.947 . S
C119 C62 1.392 . S
C119 C63 1.419 . S
C119 H101 0.948 . S
C120 C121 1.391 . S
C120 C124 1.391 . S
C120 H162 0.948 . S
C121 C120 1.391 . S
C121 C122 1.391 . S
C122 C121 1.391 . S
C122 H178 0.947 . S
C122 C179 1.392 . S
C123 C124 1.391 . S
C123 C127 1.397 . S
C123 C179 1.419 . S
C124 C120 1.391 . S
C124 C123 1.391 . S
C124 C125 1.399 . S
C125 C124 1.399 . S
C125 C128 1.396 . S
C125 C137 1.453 . S
C125 C138 1.684 . S
H126 C150 0.948 1_556 S
C127 C123 1.397 . S
C127 C128 1.394 . S
C127 C146 1.723 . S
C128 C125 1.396 . S
C128 C127 1.394 . S
C128 C158 1.723 . S
H129 C152 0.947 . S
H130 C153 0.948 . S
H131 C159 0.982 . S
H132 C160 0.979 . S
H133 C160 0.980 . S
H134 C160 0.983 . S
H135 C159 0.979 . S
H136 C159 0.977 . S
C137 C125 1.453 . S
C137 H166 0.982 . S
C137 H167 0.979 . S
C137 H168 0.977 . S
C138 C125 1.684 . S
C138 H163 0.979 . S
C138 H164 0.980 . S
C138 H165 0.983 . S
C139 C140 1.391 . S
C139 C144 1.391 . S
C139 H169 0.948 . S
C140 C139 1.391 . S
C140 C141 1.391 . S
C141 C140 1.391 . S
C141 C142 1.392 . S
C141 H170 0.947 . S
C142 C141 1.392 . S
C142 C143 1.419 . S
C142 H171 0.948 . S
C143 C142 1.419 . S
C143 C144 1.391 . S
C143 C147 1.397 1_556 S
C144 C139 1.391 . S
C144 C143 1.391 . S
C144 C145 1.399 1_556 S
C145 C144 1.399 1_554 S
C145 C146 1.396 . S
C145 C148 1.453 . S
C145 C149 1.684 . S
C146 C127 1.723 . S
C146 C145 1.396 . S
C146 C147 1.394 . S
C147 C143 1.397 1_554 S
C147 C146 1.394 . S
C147 C157 1.723 . S
C148 C145 1.453 . S
C148 H172 0.982 . S
C148 H173 0.979 . S
C148 H174 0.977 . S
C149 C145 1.684 . S
C149 H175 0.979 . S
C149 H176 0.980 . S
C149 H177 0.983 . S
C150 H126 0.948 1_554 S
C150 C151 1.391 . S
C150 C155 1.391 . S
C151 C150 1.391 . S
C151 C152 1.391 . S
C152 H129 0.947 . S
C152 C151 1.391 . S
C152 C153 1.392 . S
C153 H130 0.948 . S
C153 C152 1.392 . S
C153 C154 1.419 . S
C154 C153 1.419 . S
C154 C155 1.391 . S
C154 C158 1.397 . S
C155 C150 1.391 . S
C155 C154 1.391 . S
C155 C156 1.399 1_554 S
C156 C155 1.399 1_556 S
C156 C157 1.396 1_556 S
C156 C159 1.453 . S
C156 C160 1.684 . S
C157 C147 1.723 . S
C157 C156 1.396 1_554 S
C157 C158 1.394 . S
C158 C128 1.723 . S
C158 C154 1.397 . S
C158 C157 1.394 . S
C159 H131 0.982 . S
C159 H135 0.979 . S
C159 H136 0.977 . S
C159 C156 1.453 . S
C160 H132 0.979 . S
C160 H133 0.980 . S
C160 H134 0.983 . S
C160 C156 1.684 . S
H161 C179 0.948 . S
H162 C120 0.948 . S
H163 C138 0.979 . S
H164 C138 0.980 . S
H165 C138 0.983 . S
H166 C137 0.982 . S
H167 C137 0.979 . S
H168 C137 0.977 . S
H169 C139 0.948 . S
H170 C141 0.947 . S
H171 C142 0.948 . S
H172 C148 0.982 . S
H173 C148 0.979 . S
H174 C148 0.977 . S
H175 C149 0.979 . S
H176 C149 0.980 . S
H177 C149 0.983 . S
H178 C122 0.947 . S
C179 C122 1.392 . S
C179 C123 1.419 . S
C179 H161 0.948 . S
C180 C181 1.391 . S
C180 C184 1.391 . S
C180 H222 0.948 . S
C181 C180 1.391 . S
C181 C182 1.391 . S
C182 C181 1.391 . S
C182 H238 0.947 . S
C182 C239 1.392 . S
C183 C184 1.391 . S
C183 C187 1.397 . S
C183 C239 1.419 . S
C184 C180 1.391 . S
C184 C183 1.391 . S
C184 C185 1.399 . S
C185 C184 1.399 . S
C185 C188 1.396 . S
C185 C197 1.453 . S
C185 C198 1.684 . S
H186 C210 0.948 . S
C187 C183 1.397 . S
C187 C188 1.394 . S
C187 C206 1.723 . S
C188 C185 1.396 . S
C188 C187 1.394 . S
C188 C218 1.723 . S
H189 C212 0.947 . S
H190 C213 0.948 . S
H191 C219 0.982 . S
H192 C220 0.979 . S
H193 C220 0.980 . S
H194 C220 0.983 . S
H195 C219 0.979 . S
H196 C219 0.977 . S
C197 C185 1.453 . S
C197 H226 0.982 . S
C197 H227 0.979 . S
C197 H228 0.977 . S
C198 C185 1.684 . S
C198 H223 0.979 . S
C198 H224 0.980 . S
C198 H225 0.983 . S
C199 C200 1.391 . S
C199 C204 1.391 . S
C199 H229 0.948 . S
C200 C199 1.391 . S
C200 C201 1.391 . S
C201 C200 1.391 . S
C201 C202 1.392 . S
C201 H230 0.947 . S
C202 C201 1.392 . S
C202 C203 1.419 . S
C202 H231 0.948 . S
C203 C202 1.419 . S
C203 C204 1.391 . S
C203 C207 1.397 . S
C204 C199 1.391 . S
C204 C203 1.391 . S
C204 C205 1.399 . S
C205 C204 1.399 . S
C205 C206 1.396 . S
C205 C208 1.453 . S
C205 C209 1.684 . S
C206 C187 1.723 . S
C206 C205 1.396 . S
C206 C207 1.394 . S
C207 C203 1.397 . S
C207 C206 1.394 . S
C207 C217 1.723 . S
C208 C205 1.453 . S
C208 H232 0.982 . S
C208 H233 0.979 . S
C208 H234 0.977 . S
C209 C205 1.684 . S
C209 H235 0.979 . S
C209 H236 0.980 . S
C209 H237 0.983 . S
C210 H186 0.948 . S
C210 C211 1.391 . S
C210 C215 1.391 . S
C211 C210 1.391 . S
C211 C212 1.391 . S
C212 H189 0.947 . S
C212 C211 1.391 . S
C212 C213 1.392 . S
C213 H190 0.948 . S
C213 C212 1.392 . S
C213 C214 1.419 . S
C214 C213 1.419 . S
C214 C215 1.391 . S
C214 C218 1.397 . S
C215 C210 1.391 . S
C215 C214 1.391 . S
C215 C216 1.399 . S
C216 C215 1.399 . S
C216 C217 1.396 . S
C216 C219 1.453 . S
C216 C220 1.684 . S
C217 C207 1.723 . S
C217 C216 1.396 . S
C217 C218 1.394 . S
C218 C188 1.723 . S
C218 C214 1.397 . S
C218 C217 1.394 . S
C219 H191 0.982 . S
C219 H195 0.979 . S
C219 H196 0.977 . S
C219 C216 1.453 . S
C220 H192 0.979 . S
C220 H193 0.980 . S
C220 H194 0.983 . S
C220 C216 1.684 . S
H221 C239 0.948 . S
H222 C180 0.948 . S
H223 C198 0.979 . S
H224 C198 0.980 . S
H225 C198 0.983 . S
H226 C197 0.982 . S
H227 C197 0.979 . S
H228 C197 0.977 . S
H229 C199 0.948 . S
H230 C201 0.947 . S
H231 C202 0.948 . S
H232 C208 0.982 . S
H233 C208 0.979 . S
H234 C208 0.977 . S
H235 C209 0.979 . S
H236 C209 0.980 . S
H237 C209 0.983 . S
H238 C182 0.947 . S
C239 C182 1.392 . S
C239 C183 1.419 . S
C239 H221 0.948 . S
C240 C242 1.422 . S
C240 C244 1.415 . S
C240 N246 1.369 . S
C241 C242 1.421 . S
C241 C243 1.417 . S
C241 C253 1.422 . S
C242 C240 1.422 . S
C242 C241 1.421 . S
C242 N252 1.359 . S
C243 C241 1.417 . S
C243 C245 1.329 . S
C243 H262 0.930 . S
C244 C240 1.415 . S
C244 C245 1.437 . S
C244 C248 1.413 . S
C245 C243 1.329 . S
C245 C244 1.437 . S
C245 H267 0.929 . S
N246 C240 1.369 . S
N246 C247 1.338 . S
N246 Gd251 2.622 . S
C247 N246 1.338 . S
C247 C249 1.378 . S
C247 H259 0.929 1_655 S
C248 C244 1.413 . S
C248 C249 1.348 . S
C248 H264 0.931 . S
C249 C247 1.378 . S
C249 C248 1.348 . S
C249 H265 0.930 1_655 S
Gd250 N270 2.622 . S
Gd250 N277 2.570 . S
Gd250 O284 2.348 1_465 S
Gd250 O285 2.468 . S
Gd250 O286 2.427 . S
Gd250 O288 2.388 1_455 S
Gd250 O289 2.386 . S
Gd250 O293 2.307 1_565 S
Gd250 C303 2.805 . S
Gd251 N246 2.622 . S
Gd251 N252 2.570 . S
Gd251 O283 2.386 . S
Gd251 O287 2.307 1_545 S
Gd251 O290 2.353 1_655 S
Gd251 O291 2.468 . S
Gd251 O292 2.427 . S
Gd251 O294 2.388 1_655 S
Gd251 C315 2.805 . S
N252 C242 1.359 . S
N252 Gd251 2.570 . S
N252 C254 1.343 . S
C253 C241 1.422 . S
C253 C255 1.321 . S
C253 H261 0.931 . S
C254 N252 1.343 . S
C254 C255 1.390 . S
C254 H256 0.931 . S
C255 C253 1.321 . S
C255 C254 1.390 . S
C255 H257 0.930 . S
H256 C254 0.931 . S
H257 C255 0.930 . S
H258 C281 0.931 . S
H259 C247 0.929 1_455 S
H260 C282 0.930 . S
H261 C253 0.931 . S
H262 C243 0.930 . S
H263 C272 0.929 1_655 S
H264 C248 0.931 . S
H265 C249 0.930 1_455 S
H266 C304 0.930 . S
H267 C245 0.929 . S
H268 C273 0.931 . S
H269 C274 0.930 1_655 S
N270 Gd250 2.622 . S
N270 C271 1.369 . S
N270 C272 1.338 . S
C271 N270 1.369 . S
C271 C275 1.415 . S
C271 C278 1.422 . S
C272 H263 0.929 1_455 S
C272 N270 1.338 . S
C272 C274 1.378 . S
C273 H268 0.931 . S
C273 C274 1.348 . S
C273 C275 1.413 . S
C274 H269 0.930 1_455 S
C274 C272 1.378 . S
C274 C273 1.348 . S
C275 C271 1.415 . S
C275 C273 1.413 . S
C275 C305 1.437 . S
H276 C305 0.929 . S
N277 Gd250 2.570 . S
N277 C278 1.359 . S
N277 C281 1.343 . S
C278 C271 1.422 . S
C278 N277 1.359 . S
C278 C280 1.421 . S
C279 C280 1.422 . S
C279 C282 1.321 . S
C279 H306 0.931 . S
C280 C278 1.421 . S
C280 C279 1.422 . S
C280 C304 1.417 . S
C281 H258 0.931 . S
C281 N277 1.343 . S
C281 C282 1.390 . S
C282 H260 0.930 . S
C282 C279 1.321 . S
C282 C281 1.390 . S
O283 Gd251 2.386 . S
O283 C295 1.265 . S
O284 Gd250 2.348 1_645 S
O284 C295 1.250 . S
O285 Gd250 2.468 . S
O285 C303 1.263 . S
O286 Gd250 2.427 . S
O286 C303 1.252 . S
O287 Gd251 2.307 1_565 S
O287 C296 1.261 . S
O288 Gd250 2.388 1_655 S
O288 C296 1.252 . S
O289 Gd250 2.386 . S
O289 C307 1.265 . S
O290 Gd251 2.353 1_455 S
O290 C307 1.242 1_545 S
O291 Gd251 2.468 . S
O291 C315 1.263 . S
O292 Gd251 2.427 . S
O292 C315 1.252 . S
O293 Gd250 2.307 1_545 S
O293 C308 1.261 . S
O294 Gd251 2.388 1_455 S
O294 C308 1.252 . S
C295 O283 1.265 . S
C295 O284 1.250 . S
C296 O287 1.261 . S
C296 O288 1.252 . S
C297 C300 1.394 . S
C297 C302 1.370 . S
C297 C303 1.500 . S
C298 C301 1.383 . S
C298 C302 1.395 . S
C299 C300 1.396 . S
C299 C301 1.365 . S
C299 H316 0.929 . S
C300 C297 1.394 . S
C300 C299 1.396 . S
C300 H317 0.930 . S
C301 C298 1.383 . S
C301 C299 1.365 . S
C301 H318 0.931 . S
C302 C297 1.370 . S
C302 C298 1.395 . S
C302 H319 0.930 . S
C303 Gd250 2.805 . S
C303 O285 1.263 . S
C303 O286 1.252 . S
C303 C297 1.500 . S
C304 H266 0.930 . S
C304 C280 1.417 . S
C304 C305 1.329 . S
C305 C275 1.437 . S
C305 H276 0.929 . S
C305 C304 1.329 . S
H306 C279 0.931 . S
C307 O289 1.265 . S
C307 O290 1.242 1_565 S
C308 O293 1.261 . S
C308 O294 1.252 . S
C309 C312 1.394 . S
C309 C314 1.370 . S
C309 C315 1.500 . S
C310 C313 1.383 . S
C310 C314 1.395 . S
C311 C312 1.396 . S
C311 C313 1.365 . S
C311 H320 0.929 . S
C312 C309 1.394 . S
C312 C311 1.396 . S
C312 H321 0.930 . S
C313 C310 1.383 . S
C313 C311 1.365 . S
C313 H322 0.931 . S
C314 C309 1.370 . S
C314 C310 1.395 . S
C314 H323 0.930 . S
C315 Gd251 2.805 . S
C315 O291 1.263 . S
C315 O292 1.252 . S
C315 C309 1.500 . S
H316 C299 0.929 . S
H317 C300 0.930 . S
H318 C301 0.931 . S
H319 C302 0.930 . S
H320 C311 0.929 . S
H321 C312 0.930 . S
H322 C313 0.931 . S
H323 C314 0.930 . S
C324 C326 1.422 . S
C324 C328 1.415 . S
C324 N330 1.369 . S
C325 C326 1.421 . S
C325 C327 1.417 . S
C325 C337 1.422 . S
C326 C324 1.422 . S
C326 C325 1.421 . S
C326 N336 1.359 . S
C327 C325 1.417 . S
C327 C329 1.329 . S
C327 H346 0.930 . S
C328 C324 1.415 . S
C328 C329 1.437 . S
C328 C332 1.413 . S
C329 C327 1.329 . S
C329 C328 1.437 . S
C329 H351 0.929 . S
N330 C324 1.369 . S
N330 C331 1.338 . S
N330 Gd335 2.622 . S
C331 N330 1.338 . S
C331 C333 1.378 . S
C331 H343 0.929 . S
C332 C328 1.413 . S
C332 C333 1.348 . S
C332 H348 0.931 . S
C333 C331 1.378 . S
C333 C332 1.348 . S
C333 H349 0.930 . S
Gd334 N354 2.623 . S
Gd334 N361 2.570 1_556 S
Gd334 O368 2.353 . S
Gd334 O369 2.468 . S
Gd334 O370 2.427 . S
Gd334 O372 2.388 1_556 S
Gd334 O373 2.386 1_556 S
Gd334 O377 2.307 1_556 S
Gd334 C387 2.805 . S
Gd335 N330 2.622 . S
Gd335 N336 2.570 . S
Gd335 O367 2.386 . S
Gd335 O371 2.307 . S
Gd335 O374 2.353 . S
Gd335 O375 2.468 . S
Gd335 O376 2.427 . S
Gd335 O378 2.388 . S
Gd335 C399 2.805 . S
N336 C326 1.359 . S
N336 Gd335 2.570 . S
N336 C338 1.343 . S
C337 C325 1.422 . S
C337 C339 1.321 . S
C337 H345 0.931 . S
C338 N336 1.343 . S
C338 C339 1.390 . S
C338 H340 0.931 . S
C339 C337 1.321 . S
C339 C338 1.390 . S
C339 H341 0.930 . S
H340 C338 0.931 . S
H341 C339 0.930 . S
H342 C365 0.931 . S
H343 C331 0.929 . S
H344 C366 0.930 . S
H345 C337 0.931 . S
H346 C327 0.930 . S
H347 C356 0.929 . S
H348 C332 0.931 . S
H349 C333 0.930 . S
H350 C388 0.930 . S
H351 C329 0.929 . S
H352 C357 0.931 . S
H353 C358 0.930 . S
N354 Gd334 2.623 . S
N354 C355 1.368 1_556 S
N354 C356 1.337 . S
C355 N354 1.368 1_554 S
C355 C359 1.415 . S
C355 C362 1.422 . S
C356 H347 0.929 . S
C356 N354 1.337 . S
C356 C358 1.378 . S
C357 H352 0.931 . S
C357 C358 1.348 1_554 S
C357 C359 1.413 . S
C358 H353 0.930 . S
C358 C356 1.378 . S
C358 C357 1.348 1_556 S
C359 C355 1.415 . S
C359 C357 1.413 . S
C359 C389 1.437 . S
H360 C389 0.929 . S
N361 Gd334 2.570 1_554 S
N361 C362 1.359 . S
N361 C365 1.343 . S
C362 C355 1.422 . S
C362 N361 1.359 . S
C362 C364 1.421 . S
C363 C364 1.422 . S
C363 C366 1.321 . S
C363 H390 0.931 . S
C364 C362 1.421 . S
C364 C363 1.422 . S
C364 C388 1.417 . S
C365 H342 0.931 . S
C365 N361 1.343 . S
C365 C366 1.390 . S
C366 H344 0.930 . S
C366 C363 1.321 . S
C366 C365 1.390 . S
O367 Gd335 2.386 . S
O367 C379 1.265 1_554 S
O368 Gd334 2.353 . S
O368 C379 1.242 . S
O369 Gd334 2.468 . S
O369 C387 1.263 . S
O370 Gd334 2.427 . S
O370 C387 1.252 . S
O371 Gd335 2.307 . S
O371 C380 1.261 . S
O372 Gd334 2.388 1_554 S
O372 C380 1.252 . S
O373 Gd334 2.386 1_554 S
O373 C391 1.265 . S
O374 Gd335 2.353 . S
O374 C391 1.242 . S
O375 Gd335 2.468 . S
O375 C399 1.263 . S
O376 Gd335 2.427 . S
O376 C399 1.252 . S
O377 Gd334 2.307 1_554 S
O377 C392 1.261 . S
O378 Gd335 2.388 . S
O378 C392 1.252 . S
C379 O367 1.265 1_556 S
C379 O368 1.242 . S
C380 O371 1.261 . S
C380 O372 1.252 . S
C381 C384 1.394 . S
C381 C386 1.370 . S
C381 C387 1.500 . S
C382 C385 1.383 . S
C382 C386 1.395 . S
C383 C384 1.396 . S
C383 C385 1.365 . S
C383 H400 0.929 . S
C384 C381 1.394 . S
C384 C383 1.396 . S
C384 H401 0.930 . S
C385 C382 1.383 . S
C385 C383 1.365 . S
C385 H402 0.931 . S
C386 C381 1.370 . S
C386 C382 1.395 . S
C386 H403 0.930 . S
C387 Gd334 2.805 . S
C387 O369 1.263 . S
C387 O370 1.252 . S
C387 C381 1.500 . S
C388 H350 0.930 . S
C388 C364 1.417 . S
C388 C389 1.329 . S
C389 C359 1.437 . S
C389 H360 0.929 . S
C389 C388 1.329 . S
H390 C363 0.931 . S
C391 O373 1.265 . S
C391 O374 1.242 . S
C392 O377 1.261 . S
C392 O378 1.252 . S
C393 C396 1.394 . S
C393 C398 1.370 . S
C393 C399 1.500 . S
C394 C397 1.383 . S
C394 C398 1.395 . S
C395 C396 1.396 . S
C395 C397 1.365 . S
C395 H404 0.929 . S
C396 C393 1.394 . S
C396 C395 1.396 . S
C396 H405 0.930 . S
C397 C394 1.383 . S
C397 C395 1.365 . S
C397 H406 0.931 . S
C398 C393 1.370 . S
C398 C394 1.395 . S
C398 H407 0.930 . S
C399 Gd335 2.805 . S
C399 O375 1.263 . S
C399 O376 1.252 . S
C399 C393 1.500 . S
H400 C383 0.929 . S
H401 C384 0.930 . S
H402 C385 0.931 . S
H403 C386 0.930 . S
H404 C395 0.929 . S
H405 C396 0.930 . S
H406 C397 0.931 . S
H407 C398 0.930 . S
C408 C409 1.387 . S
C408 H412 0.950 . S
C408 C417 1.390 . S
C409 C408 1.387 . S
C409 C411 1.387 . S
H410 C417 0.950 . S
C411 C409 1.387 . S
C411 C413 1.390 . S
C411 H415 0.950 . S
H412 C408 0.950 . S
C413 C411 1.390 . S
C413 C414 1.387 . S
C413 H416 0.950 . S
C414 C413 1.387 . S
C414 C417 1.387 . S
H415 C411 0.950 . S
H416 C413 0.950 . S
C417 C408 1.390 . S
C417 H410 0.950 . S
C417 C414 1.387 . S
C418 C419 1.387 . S
C418 H422 0.950 1_554 S
C418 C427 1.390 . S
C419 C418 1.387 . S
C419 C421 1.387 . S
H420 C427 0.950 1_556 S
C421 C419 1.387 . S
C421 C423 1.390 . S
C421 H425 0.950 . S
H422 C418 0.950 1_556 S
C423 C421 1.390 . S
C423 C424 1.387 . S
C423 H426 0.950 . S
C424 C423 1.387 . S
C424 C427 1.387 . S
H425 C421 0.950 . S
H426 C423 0.950 . S
C427 C418 1.390 . S
C427 H420 0.950 1_554 S
C427 C424 1.387 . S
C428 C429 1.387 . S
C428 H432 0.950 . S
C428 C437 1.390 . S
C429 C428 1.387 . S
C429 C431 1.387 . S
H430 C437 0.950 . S
C431 C429 1.387 . S
C431 C433 1.390 . S
C431 H435 0.950 . S
H432 C428 0.950 . S
C433 C431 1.390 . S
C433 C434 1.387 . S
C433 H436 0.950 . S
C434 C433 1.387 . S
C434 C437 1.387 . S
H435 C431 0.950 . S
H436 C433 0.950 . S
C437 C428 1.390 . S
C437 H430 0.950 . S
C437 C434 1.387 . S
C438 C439 1.387 1_556 S
C438 H442 0.950 . S
C438 C447 1.390 . S
C439 C438 1.387 1_554 S
C439 C441 1.387 . S
H440 C447 0.950 . S
C441 C439 1.387 . S
C441 C443 1.390 . S
C441 H445 0.950 . S
H442 C438 0.950 . S
C443 C441 1.390 . S
C443 C444 1.387 . S
C443 H446 0.950 . S
C444 C443 1.387 . S
C444 C447 1.387 1_554 S
H445 C441 0.950 . S
H446 C443 0.950 . S
C447 C438 1.390 . S
C447 H440 0.950 . S
C447 C444 1.387 1_556 S
C448 C449 1.387 . S
C448 H452 0.950 . S
C448 C457 1.390 . S
C449 C448 1.387 . S
C449 C451 1.387 . S
H450 C457 0.950 . S
C451 C449 1.387 . S
C451 C453 1.390 . S
C451 H455 0.963 . S
H452 C448 0.950 . S
C453 C451 1.390 . S
C453 C454 1.387 . S
C453 H456 0.950 1_565 S
C454 C453 1.387 . S
C454 C457 1.387 . S
H455 C451 0.963 . S
H456 C453 0.950 1_545 S
C457 C448 1.390 . S
C457 H450 0.950 . S
C457 C454 1.387 . S
C458 C459 1.387 . S
C458 H462 0.950 . S
C458 C467 1.390 . S
C459 C458 1.387 . S
C459 C461 1.387 . S
H460 C467 0.950 . S
C461 C459 1.387 . S
C461 C463 1.390 . S
C461 H465 0.950 . S
H462 C458 0.950 . S
C463 C461 1.390 . S
C463 C464 1.387 . S
C463 H466 0.950 . S
C464 C463 1.387 . S
C464 C467 1.387 . S
H465 C461 0.950 . S
H466 C463 0.950 . S
C467 C458 1.390 . S
C467 H460 0.950 . S
C467 C464 1.387 . S
C468 C469 1.387 . S
C468 H472 0.950 1_545 S
C468 C477 1.390 . S
C469 C468 1.387 . S
C469 C471 1.387 . S
H470 C477 0.950 1_565 S
C471 C469 1.387 . S
C471 C473 1.390 . S
C471 H475 0.950 . S
H472 C468 0.950 1_565 S
C473 C471 1.390 . S
C473 C474 1.387 . S
C473 H476 0.950 . S
C474 C473 1.387 . S
C474 C477 1.387 . S
H475 C471 0.950 . S
H476 C473 0.950 . S
C477 C468 1.390 . S
C477 H470 0.950 1_545 S
C477 C474 1.387 . S
C478 C479 1.387 . S
C478 H482 0.950 . S
C478 C487 1.390 . S
C479 C478 1.387 . S
C479 C481 1.387 . S
H480 C487 0.950 . S
C481 C479 1.387 . S
C481 C483 1.390 . S
C481 H485 0.950 . S
H482 C478 0.950 . S
C483 C481 1.390 . S
C483 C484 1.387 . S
C483 H486 0.950 . S
C484 C483 1.387 . S
C484 C487 1.387 . S
H485 C481 0.950 . S
H486 C483 0.950 . S
C487 C478 1.390 . S
C487 H480 0.950 . S
C487 C484 1.387 . S
C488 C489 1.387 . S
C488 H492 0.950 . S
C488 C497 1.390 . S
C489 C488 1.387 . S
C489 C491 1.387 . S
H490 C497 0.950 . S
C491 C489 1.387 . S
C491 C493 1.390 . S
C491 H495 0.950 . S
H492 C488 0.950 . S
C493 C491 1.390 . S
C493 C494 1.387 . S
C493 H496 0.950 . S
C494 C493 1.387 . S
C494 C497 1.387 . S
H495 C491 0.950 . S
H496 C493 0.950 . S
C497 C488 1.390 . S
C497 H490 0.950 . S
C497 C494 1.387 . S
C498 C499 1.387 . S
C498 H502 0.950 . S
C498 C507 1.390 . S
C499 C498 1.387 . S
C499 C501 1.387 . S
H500 C507 0.950 . S
C501 C499 1.387 . S
C501 C503 1.390 . S
C501 H505 0.950 . S
H502 C498 0.950 . S
C503 C501 1.390 . S
C503 C504 1.387 . S
C503 H506 0.950 . S
C504 C503 1.387 . S
C504 C507 1.387 . S
H505 C501 0.950 . S
H506 C503 0.950 . S
C507 C498 1.390 . S
C507 H500 0.950 . S
C507 C504 1.387 . S
C508 C509 1.387 . S
C508 H512 0.950 . S
C508 C517 1.390 . S
C509 C508 1.387 . S
C509 C511 1.387 . S
H510 C517 0.950 . S
C511 C509 1.387 . S
C511 C513 1.390 . S
C511 H515 0.950 . S
H512 C508 0.950 . S
C513 C511 1.390 . S
C513 C514 1.387 . S
C513 H516 0.950 . S
C514 C513 1.387 . S
C514 C517 1.387 . S
H515 C511 0.950 . S
H516 C513 0.950 . S
C517 C508 1.390 . S
C517 H510 0.950 . S
C517 C514 1.387 . S
C518 C519 1.387 1_545 S
C518 H522 0.950 . S
C518 C527 1.390 . S
C519 C518 1.387 1_565 S
C519 C521 1.387 . S
H520 C527 0.950 . S
C521 C519 1.387 . S
C521 C523 1.390 . S
C521 H525 0.950 . S
H522 C518 0.950 . S
C523 C521 1.390 . S
C523 C524 1.387 . S
C523 H526 0.950 . S
C524 C523 1.387 . S
C524 C527 1.387 1_565 S
H525 C521 0.950 . S
H526 C523 0.950 . S
C527 C518 1.390 . S
C527 H520 0.950 . S
C527 C524 1.387 1_545 S
C414 C308 1.669 . S
C409 C211 1.643 . S
C419 C31 1.552 . S
C424 C380 1.661 . S
C429 C91 1.680 . S
C434 C296 1.668 . S
C439 C151 1.619 . S
C444 C392 1.661 . S
C454 C298 1.429 . S
C449 C20 1.516 . S
C464 C379 1.629 . S
C459 C61 1.571 . S
C469 C121 1.651 . S
C474 C295 1.667 . S
C479 C200 1.480 . S
C484 C382 1.406 . S
C494 C394 1.407 . S
C489 C80 1.502 . S
C504 C310 1.426 . S
C499 C140 1.551 . S
C514 C391 1.629 . S
C509 C181 1.533 . S
C519 C1 1.577 . S
C524 C307 1.667 . S
