# Generated by pormake.
# Topology pyr, (3,6)-cn, num edge types: 1
# Building blocks:
#     Node 0, Type 0, BuildingBlock: BETDAH_clean_linker_0, # of connection points: 3
#     Node 1, Type 0, BuildingBlock: BETDAH_clean_linker_0, # of connection points: 3
#     Node 2, Type 0, BuildingBlock: BETDAH_clean_linker_0, # of connection points: 3
#     Node 3, Type 0, BuildingBlock: BETDAH_clean_linker_0, # of connection points: 3
#     Node 4, Type 0, BuildingBlock: BETDAH_clean_linker_0, # of connection points: 3
#     Node 5, Type 0, BuildingBlock: BETDAH_clean_linker_0, # of connection points: 3
#     Node 6, Type 0, BuildingBlock: BETDAH_clean_linker_0, # of connection points: 3
#     Node 7, Type 0, BuildingBlock: BETDAH_clean_linker_0, # of connection points: 3
#     Node 8, Type 1, BuildingBlock: INOVEN_clean_sbu_0, # of connection points: 6
#     Node 9, Type 1, BuildingBlock: INOVEN_clean_sbu_0, # of connection points: 6
#     Node 10, Type 1, BuildingBlock: INOVEN_clean_sbu_0, # of connection points: 6
#     Node 11, Type 1, BuildingBlock: INOVEN_clean_sbu_0, # of connection points: 6
#     Edge 12, Type (0, 1), BuildingBlock: AJUNOK_clean_linker_0, # of connection points: 2
#     Edge 13, Type (0, 1), BuildingBlock: AJUNOK_clean_linker_0, # of connection points: 2
#     Edge 14, Type (0, 1), BuildingBlock: AJUNOK_clean_linker_0, # of connection points: 2
#     Edge 15, Type (0, 1), BuildingBlock: AJUNOK_clean_linker_0, # of connection points: 2
#     Edge 16, Type (0, 1), BuildingBlock: AJUNOK_clean_linker_0, # of connection points: 2
#     Edge 17, Type (0, 1), BuildingBlock: AJUNOK_clean_linker_0, # of connection points: 2
#     Edge 18, Type (0, 1), BuildingBlock: AJUNOK_clean_linker_0, # of connection points: 2
#     Edge 19, Type (0, 1), BuildingBlock: AJUNOK_clean_linker_0, # of connection points: 2
#     Edge 20, Type (0, 1), BuildingBlock: AJUNOK_clean_linker_0, # of connection points: 2
#     Edge 21, Type (0, 1), BuildingBlock: AJUNOK_clean_linker_0, # of connection points: 2
#     Edge 22, Type (0, 1), BuildingBlock: AJUNOK_clean_linker_0, # of connection points: 2
#     Edge 23, Type (0, 1), BuildingBlock: AJUNOK_clean_linker_0, # of connection points: 2
#     Edge 24, Type (0, 1), BuildingBlock: AJUNOK_clean_linker_0, # of connection points: 2
#     Edge 25, Type (0, 1), BuildingBlock: AJUNOK_clean_linker_0, # of connection points: 2
#     Edge 26, Type (0, 1), BuildingBlock: AJUNOK_clean_linker_0, # of connection points: 2
#     Edge 27, Type (0, 1), BuildingBlock: AJUNOK_clean_linker_0, # of connection points: 2
#     Edge 28, Type (0, 1), BuildingBlock: AJUNOK_clean_linker_0, # of connection points: 2
#     Edge 29, Type (0, 1), BuildingBlock: AJUNOK_clean_linker_0, # of connection points: 2
#     Edge 30, Type (0, 1), BuildingBlock: AJUNOK_clean_linker_0, # of connection points: 2
#     Edge 31, Type (0, 1), BuildingBlock: AJUNOK_clean_linker_0, # of connection points: 2
#     Edge 32, Type (0, 1), BuildingBlock: AJUNOK_clean_linker_0, # of connection points: 2
#     Edge 33, Type (0, 1), BuildingBlock: AJUNOK_clean_linker_0, # of connection points: 2
#     Edge 34, Type (0, 1), BuildingBlock: AJUNOK_clean_linker_0, # of connection points: 2
#     Edge 35, Type (0, 1), BuildingBlock: AJUNOK_clean_linker_0, # of connection points: 2
# Relax obj value: 0.204
# Max RMSD: 0.193
# Mean RMSD: 0.143
data_MOF--net-pyr--node1-INOVEN_clean_sbu_0--node2-BETDAH_clean_linker_0--edge1-AJUNOK_clean_linker_0
_symmetry_space_group_name_H-M    P1
_symmetry_Int_Tables_number       1
_symmetry_cell_setting            triclinic
loop_
_symmetry_equiv_pos_as_xyz
'x, y, z'
_cell_length_a     27.157459
_cell_length_b     30.139789
_cell_length_c     27.327214
_cell_angle_alpha  91.587274
_cell_angle_beta   89.470688
_cell_angle_gamma 109.83101
loop_
_atom_site_label
_atom_site_type_symbol
_atom_site_fract_x
_atom_site_fract_y
_atom_site_fract_z
_atom_type_partial_charge
H0 H 0.41795 0.29195 0.31876 0.0
H1 H 0.51121 0.37441 0.20385 0.0
H2 H 0.40426 0.42545 0.28557 0.0
C3 C 0.43163 0.32468 0.29907 0.0
C4 C 0.40788 0.35881 0.30738 0.0
C5 C 0.46922 0.33021 0.2622 0.0
C6 C 0.48441 0.37115 0.23428 0.0
C7 C 0.46024 0.40517 0.24172 0.0
C8 C 0.42316 0.39944 0.27943 0.0
N9 N 0.46823 0.44139 0.20728 0.0
C10 C 0.4271 0.45648 0.19465 0.0
H11 H 0.26323 0.84007 0.80413 0.0
H12 H 0.15025 0.90233 0.76007 0.0
H13 H 0.19558 0.8102 0.6603 0.0
C14 C 0.23494 0.84287 0.77771 0.0
C15 C 0.23193 0.82071 0.73157 0.0
C16 C 0.20528 0.87198 0.78855 0.0
C17 C 0.1724 0.87902 0.75248 0.0
C18 C 0.16834 0.85611 0.70644 0.0
C19 C 0.19762 0.82662 0.69637 0.0
N20 N 0.13673 0.86376 0.66903 0.0
C21 C 0.13598 0.90846 0.65924 0.0
H22 H 0.7494 0.38346 1.01378 0.0
H23 H 0.7505 0.48862 0.90864 0.0
H24 H 0.62238 0.35694 0.91241 0.0
C25 C 0.731 0.39503 0.98408 0.0
C26 C 0.68267 0.36444 0.96595 0.0
C27 C 0.75621 0.44019 0.9645 0.0
C28 C 0.73177 0.45465 0.92487 0.0
C29 C 0.68328 0.42426 0.90579 0.0
C30 C 0.65972 0.37977 0.92677 0.0
N31 N 0.65549 0.43524 0.86597 0.0
C32 C 0.66657 0.47493 0.83641 0.0
H33 H 0.85344 0.80654 0.52788 0.0
H34 H 0.95732 0.84354 0.40491 0.0
H35 H 0.8379 0.70593 0.40821 0.0
C36 C 0.86742 0.79663 0.49341 0.0
C37 C 0.84102 0.75166 0.47206 0.0
C38 C 0.90983 0.82998 0.47018 0.0
C39 C 0.92562 0.81777 0.42392 0.0
C40 C 0.90132 0.77276 0.40154 0.0
C41 C 0.85843 0.73975 0.42576 0.0
N42 N 0.91638 0.76587 0.35205 0.0
C43 C 0.92379 0.72632 0.32866 0.0
H44 H 0.76795 0.80643 0.92346 0.0
H45 H 0.64174 0.76543 1.02729 0.0
H46 H 0.64982 0.87106 0.92116 0.0
C47 C 0.7308 0.80807 0.93677 0.0
C48 C 0.71081 0.84065 0.91688 0.0
C49 C 0.70667 0.78112 0.97675 0.0
C50 C 0.66025 0.78545 0.99576 0.0
C51 C 0.63935 0.81774 0.97579 0.0
C52 C 0.66492 0.8454 0.93629 0.0
N53 N 0.59445 0.8238 0.99772 0.0
C54 C 0.58494 0.86624 0.99608 0.0
H55 H 0.87365 0.22319 0.47401 0.0
H56 H 0.95674 0.32781 0.58244 0.0
H57 H 0.87697 0.36588 0.46418 0.0
C58 C 0.88675 0.2592 0.48838 0.0
C59 C 0.87362 0.29351 0.46337 0.0
C60 C 0.91653 0.27085 0.53151 0.0
C61 C 0.93312 0.31776 0.54958 0.0
C62 C 0.9176 0.35171 0.5264 0.0
C63 C 0.88853 0.33963 0.48272 0.0
N64 N 0.92843 0.39685 0.54908 0.0
C65 C 0.8911 0.4188 0.54811 0.0
H66 H 0.34868 0.82887 0.1997 0.0
H67 H 0.35698 0.72696 0.30494 0.0
H68 H 0.46731 0.86815 0.3109 0.0
C69 C 0.36666 0.81998 0.23132 0.0
C70 C 0.41071 0.85472 0.25243 0.0
C71 C 0.34556 0.77383 0.24996 0.0
C72 C 0.37089 0.76222 0.29077 0.0
C73 C 0.41512 0.79645 0.31271 0.0
C74 C 0.43392 0.84208 0.29334 0.0
N75 N 0.4429 0.78815 0.35408 0.0
C76 C 0.43598 0.74767 0.38159 0.0
H77 H 0.25938 0.41071 0.69068 0.0
H78 H 0.27861 0.51295 0.80895 0.0
H79 H 0.16011 0.37536 0.81718 0.0
C80 C 0.2462 0.42116 0.72528 0.0
C81 C 0.20473 0.38804 0.74999 0.0
C82 C 0.27285 0.4666 0.7453 0.0
C83 C 0.25728 0.47898 0.79208 0.0
C84 C 0.21565 0.44639 0.81802 0.0
C85 C 0.19055 0.40097 0.79674 0.0
N86 N 0.20605 0.45381 0.8689 0.0
C87 C 0.18811 0.48825 0.89121 0.0
Gd88 Gd 0.06858 0.12913 0.56052 0.0
Gd89 Gd 0.04378 0.08827 0.66244 0.0
C90 C 0.10936 0.1976 0.65807 0.0
C91 C 0.08197 0.18083 0.48446 0.0
C92 C 0.12902 0.21248 0.46071 0.0
C93 C 0.17373 0.19945 0.4552 0.0
C94 C 0.1305 0.25708 0.4458 0.0
C95 C 0.22046 0.27462 0.41856 0.0
C96 C 0.176 0.28806 0.42493 0.0
C97 C 0.21886 0.2301 0.43409 0.0
C98 C 0.1368 0.08866 0.59329 0.0
C99 C 1.00376 1.019 0.56492 0.0
C100 C 1.02596 1.03965 0.74081 0.0
C101 C 0.97697 1.00891 0.76196 0.0
C102 C 0.93332 0.98679 0.73194 0.0
C103 C 0.97201 1.00552 0.81284 0.0
C104 C 0.87975 0.95917 0.80381 0.0
C105 C 0.92374 0.98072 0.83366 0.0
C106 C 0.88507 0.96172 0.75275 0.0
C107 C 0.97401 0.12553 0.62615 0.0
O108 O 0.09293 0.19352 0.61214 0.0
O109 O 0.10362 0.15929 0.68342 0.0
O110 O 0.07551 0.13579 0.48198 0.0
O111 O 0.07196 0.19489 0.52788 0.0
O112 O 0.12991 0.0953 0.54765 0.0
O113 O 0.11519 0.11238 0.61864 0.0
O114 O 1.01792 1.02298 0.61167 0.0
O115 O 1.01069 0.05728 0.53905 0.0
O116 O 1.0305 0.08417 0.74056 0.0
O117 O 0.04064 1.0248 0.69962 0.0
O118 O 0.98455 0.12578 0.67216 0.0
O119 O 0.99688 0.10174 0.60312 0.0
H120 H 0.17392 0.16554 0.46717 0.0
H121 H 0.0966 0.26801 0.45061 0.0
H122 H 0.17649 0.32247 0.414 0.0
H123 H 0.25235 0.21862 0.42921 0.0
H124 H 0.9363 0.98967 0.6925 0.0
H125 H 1.00523 1.02276 0.83646 0.0
H126 H 0.92081 0.9782 0.87312 0.0
H127 H 0.85175 0.94505 0.7291 0.0
Gd128 Gd 0.58726 0.11643 0.13147 0.0
Gd129 Gd 0.49066 0.10291 0.08211 0.0
C130 C 0.51872 0.17237 0.17782 0.0
C131 C 0.6831 0.1381 0.16041 0.0
C132 C 0.71167 0.16937 0.20037 0.0
C133 C 0.684 0.18533 0.23635 0.0
C134 C 0.76609 0.1818 0.20415 0.0
C135 C 0.76441 0.22322 0.28151 0.0
C136 C 0.79239 0.20859 0.24458 0.0
C137 C 0.71014 0.21205 0.27659 0.0
C138 C 0.5066 1.0451 0.17144 0.0
C139 C 0.55616 1.04256 1.04022 0.0
C140 C 0.39504 0.08695 1.05432 0.0
C141 C 0.35499 1.05001 1.0267 0.0
C142 C 0.31171 0.05946 1.00831 0.0
C143 C 0.36229 1.00725 1.01432 0.0
C144 C 0.28563 0.98535 0.96161 0.0
C145 C 0.3279 0.97515 0.9819 0.0
C146 C 0.2772 1.02733 0.97595 0.0
C147 C 0.57193 0.17575 1.04523 0.0
O148 O 0.56687 0.17222 0.17389 0.0
O149 O 0.48134 0.14356 0.15014 0.0
O150 O 0.6454 0.10059 0.17435 0.0
O151 O 0.66938 0.15878 0.12419 0.0
O152 O 0.54321 0.07668 0.19608 0.0
O153 O 0.5145 0.05279 0.12619 0.0
O154 O 0.50798 1.04215 1.04688 0.0
O155 O 0.5952 0.07512 0.06293 0.0
O156 O 0.43595 0.11066 1.02891 0.0
O157 O 0.40734 0.07577 0.09725 0.0
O158 O 0.53788 0.14363 1.01884 0.0
O159 O 0.56201 0.16687 0.08988 0.0
H160 H 0.64192 0.17583 0.23416 0.0
H161 H 0.78793 0.16964 0.17667 0.0
H162 H 0.83415 0.21609 0.24803 0.0
H163 H 0.68778 0.22292 0.3046 0.0
H164 H 0.3058 0.09251 1.01744 0.0
H165 H 0.3958 0.99968 1.02804 0.0
H166 H 0.33611 0.94363 0.97064 0.0
H167 H 0.24499 1.03601 0.96076 0.0
Gd168 Gd 0.54865 0.57145 0.5754 0.0
Gd169 Gd 0.5612 0.65128 0.6374 0.0
C170 C 0.60488 0.57692 0.68199 0.0
C171 C 0.5664 0.50461 0.52533 0.0
C172 C 0.61419 0.49225 0.52436 0.0
C173 C 0.61219 0.44626 0.51214 0.0
C174 C 0.66196 0.52623 0.53881 0.0
C175 C 0.70516 0.46803 0.53028 0.0
C176 C 0.70709 0.51427 0.54156 0.0
C177 C 0.65749 0.43422 0.51493 0.0
C178 C 0.45892 0.56235 0.62729 0.0
C179 C 0.50249 0.64493 0.5323 0.0
C180 C 0.54523 0.71934 0.68678 0.0
C181 C 0.49734 0.73136 0.69147 0.0
C182 C 0.50041 0.77838 0.69884 0.0
C183 C 0.44806 0.69588 0.68645 0.0
C184 C 0.40537 0.75417 0.69799 0.0
C185 C 0.4024 0.70719 0.69 0.0
C186 C 0.45466 0.78976 0.7019 0.0
C187 C 0.65101 0.65947 0.58606 0.0
O188 O 0.60309 0.5627 0.63551 0.0
O189 O 0.58488 0.60978 0.69432 0.0
O190 O 0.54107 0.49757 0.56681 0.0
O191 O 0.57127 0.5455 0.50724 0.0
O192 O 0.46033 0.54932 0.58181 0.0
O193 O 0.50522 0.57855 0.64351 0.0
O194 O 0.50475 0.65884 0.57886 0.0
O195 O 0.52283 0.61245 0.51928 0.0
O196 O 0.56666 0.72481 0.64343 0.0
O197 O 0.54317 0.67963 0.70614 0.0
O198 O 0.64946 0.67244 0.63148 0.0
O199 O 0.60482 0.64406 0.5695 0.0
H200 H 0.5756 0.41963 0.50111 0.0
H201 H 0.66418 0.56188 0.54891 0.0
H202 H 0.74321 0.54086 0.55378 0.0
H203 H 0.65526 0.39849 0.50528 0.0
H204 H 0.53809 0.8062 0.70215 0.0
H205 H 0.44488 0.65941 0.6797 0.0
H206 H 0.36479 0.67932 0.68623 0.0
H207 H 0.4577 0.82626 0.7081 0.0
Gd208 Gd 0.04845 0.55639 0.13947 0.0
Gd209 Gd 0.05328 0.64948 0.08229 0.0
C210 C 0.14965 0.65548 0.15345 0.0
C211 C 0.07158 0.48436 0.16575 0.0
C212 C 0.12113 0.47484 0.1629 0.0
C213 C 0.13273 0.44703 0.19821 0.0
C214 C 0.15972 0.49828 0.12894 0.0
C215 C 0.22178 0.46782 0.16713 0.0
C216 C 0.2096 0.49458 0.13088 0.0
C217 C 0.18272 0.44361 0.20039 0.0
C218 C 0.99686 0.60683 0.19213 0.0
C219 C 0.95368 0.55056 0.06533 0.0
C220 C 1.02942 0.72144 1.05814 0.0
C221 C 0.97852 0.72848 1.05596 0.0
C222 C 0.968 0.75272 1.01667 0.0
C223 C 0.9382 0.70638 0.08909 0.0
C224 C 0.87723 0.73161 1.04251 0.0
C225 C 0.88793 0.70842 0.0827 0.0
C226 C 0.91771 0.75412 1.00988 0.0
C227 C 0.10381 0.59859 1.02898 0.0
O228 O 0.12904 0.60911 0.15901 0.0
O229 O 0.12689 0.6795 0.12724 0.0
O230 O 0.07239 0.51906 0.1959 0.0
O231 O 0.04852 0.48547 0.12413 0.0
O232 O 0.99867 0.56607 0.20424 0.0
O233 O 1.01997 0.61596 0.15117 0.0
O234 O 0.97272 0.59729 0.06289 0.0
O235 O 0.97781 0.52642 0.08992 0.0
O236 O 1.03508 0.69046 1.02606 0.0
O237 O 0.04715 0.71757 0.10175 0.0
O238 O 0.10179 0.63926 1.01671 0.0
O239 O 0.08126 0.58945 0.07026 0.0
H240 H 0.10368 0.42929 0.22512 0.0
H241 H 0.15191 0.52084 0.10211 0.0
H242 H 0.23922 0.51418 0.10534 0.0
H243 H 0.1912 0.4227 0.22862 0.0
H244 H 0.99831 0.76934 0.99037 0.0
H245 H 0.94511 0.68639 0.11897 0.0
H246 H 0.85713 0.69071 0.1081 0.0
H247 H 0.91021 0.77249 0.97881 0.0
C248 C 0.36346 0.33144 0.38671 0.0
C249 C 0.36129 0.34757 0.33934 0.0
C250 C 0.3177 0.31091 0.41367 0.0
C251 C 0.26819 0.30538 0.39398 0.0
H252 H 0.40057 0.33271 0.40206 0.0
H253 H 0.32092 0.29722 0.4493 0.0
S254 S 0.24195 0.34504 0.27266 0.0
N255 N 0.30624 0.35971 0.27499 0.0
N256 N 0.22005 0.32052 0.32546 0.0
C257 C 0.26578 0.32412 0.34787 0.0
C258 C 0.31244 0.34532 0.32054 0.0
C259 C 0.23004 0.94887 0.83466 0.0
C260 C 0.21459 0.89942 0.83533 0.0
C261 C 0.24997 0.9764 0.87676 0.0
C262 C 0.25505 0.9554 0.92094 0.0
H263 H 0.23 0.96653 0.80066 0.0
H264 H 0.26455 1.01443 0.8738 0.0
S265 S 0.21122 0.82716 0.94376 0.0
N266 N 0.19917 0.83037 0.88506 0.0
N267 N 0.23654 0.88225 0.96443 0.0
C268 C 0.23597 0.90595 0.92298 0.0
C269 C 0.21571 0.87792 0.88011 0.0
C270 C 0.63763 0.54077 0.80876 0.0
C271 C 0.66041 0.50607 0.79794 0.0
C272 C 0.62182 0.56461 0.77128 0.0
C273 C 0.62735 0.55447 0.72104 0.0
H274 H 0.63008 0.54837 0.84651 0.0
H275 H 0.60333 0.59005 0.78199 0.0
S276 S 0.68704 0.46755 0.67336 0.0
N277 N 0.68941 0.46384 0.73345 0.0
N278 N 0.66004 0.50801 0.66339 0.0
C279 C 0.65169 0.52071 0.70998 0.0
C280 C 0.66798 0.49669 0.74822 0.0
C281 C 0.97128 0.71434 0.25305 0.0
C282 C 0.93965 0.69512 0.29388 0.0
C283 C 0.98839 0.68592 0.21938 0.0
C284 C 0.97451 0.63681 0.22478 0.0
H285 H 0.9836 0.75197 0.24737 0.0
H286 H 1.01389 0.70286 0.18981 0.0
S287 S 0.89075 0.56874 0.32478 0.0
N288 N 0.89424 0.62371 0.337 0.0
N289 N 0.92565 0.5704 0.27457 0.0
C290 C 0.94214 0.61723 0.26527 0.0
C291 C 0.92487 0.64621 0.29945 0.0
C292 C 0.44368 0.24837 0.22858 0.0
C293 C 0.48336 0.28893 0.24618 0.0
C294 C 0.45538 0.20975 0.2092 0.0
C295 C 0.50731 0.21009 0.20676 0.0
H296 H 0.40333 0.24714 0.22822 0.0
H297 H 0.42345 0.18011 0.19446 0.0
S298 S 0.62448 0.30584 0.25496 0.0
N299 N 0.57567 0.32605 0.26452 0.0
N300 N 0.59827 0.25302 0.2288 0.0
C301 C 0.54712 0.24954 0.22709 0.0
C302 C 0.53503 0.28919 0.2464 0.0
C303 C 0.14843 0.99286 0.67534 0.0
C304 C 0.1373 0.95384 0.64282 0.0
C305 C 0.14995 1.0371 0.6588 0.0
C306 C 0.14089 1.04347 0.60927 0.0
H307 H 0.15548 0.98908 0.71371 0.0
H308 H 0.15742 0.06627 0.68501 0.0
S309 S 0.11009 0.95091 0.51021 0.0
N310 N 0.11706 0.9235 0.55974 0.0
N311 N 0.12067 1.00616 0.52801 0.0
C312 C 0.13069 1.00439 0.57644 0.0
C313 C 0.12857 0.95958 0.59348 0.0
C314 C 0.84563 0.45028 0.99977 0.0
C315 C 0.80803 0.47077 0.98656 0.0
C316 C 0.89187 0.47607 1.0252 0.0
C317 C 0.90364 0.52408 1.03836 0.0
H318 H 0.83917 0.41354 0.99064 0.0
H319 H 0.91885 0.45808 1.03433 0.0
S320 S 0.81923 0.59547 1.01259 0.0
N321 N 0.78638 0.54269 0.98915 0.0
N322 N 0.87358 0.5914 1.03543 0.0
C323 C 0.86713 0.54553 1.02444 0.0
C324 C 0.81956 0.51899 0.99891 0.0
C325 C 0.74381 0.70329 0.47659 0.0
C326 C 0.79381 0.71963 0.49861 0.0
C327 C 0.69784 0.68187 0.50436 0.0
C328 C 0.69991 0.67619 0.55539 0.0
H329 H 0.73987 0.70934 0.43818 0.0
H330 H 0.66028 0.67167 0.48607 0.0
S331 S 0.82148 0.7064 0.62924 0.0
N332 N 0.84247 0.72342 0.57364 0.0
N333 N 0.75704 0.68412 0.62531 0.0
C334 C 0.74987 0.68974 0.57703 0.0
C335 C 0.79641 0.71114 0.54887 0.0
C336 C 0.35187 0.47732 0.2243 0.0
C337 C 0.3785 0.46424 0.18535 0.0
C338 C 0.30125 0.47863 0.21793 0.0
C339 C 0.27585 0.46726 0.17227 0.0
H340 H 0.3697 0.48553 0.26022 0.0
H341 H 0.28173 0.48844 0.24901 0.0
S342 S 0.32976 0.43108 1.05885 0.0
N343 N 0.37669 0.43987 0.09987 0.0
N344 N 0.2816 0.44292 0.08744 0.0
C345 C 0.30277 0.45513 0.13278 0.0
C346 C 0.35415 0.45342 0.13947 0.0
C347 C 0.63293 0.27636 0.95653 0.0
C348 C 0.65618 0.31629 0.98737 0.0
C349 C 0.60703 0.23124 0.97548 0.0
C350 C 0.60307 0.22357 1.02627 0.0
H351 H 0.63484 0.27989 0.91716 0.0
H352 H 0.58953 0.20211 0.94992 0.0
S353 S 0.656 0.31584 0.1234 0.0
N354 N 0.67209 0.34467 0.07192 0.0
N355 N 0.62497 0.26021 0.10715 0.0
C356 C 0.62661 0.26294 1.05759 0.0
C357 C 0.65269 0.30901 1.03832 0.0
C358 C 0.94271 0.91976 0.4687 0.0
C359 C 0.93603 0.87799 0.49409 0.0
C360 C 0.96417 0.96485 0.4917 0.0
C361 C 0.98032 0.97048 0.5412 0.0
H362 H 0.93021 0.91759 0.43092 0.0
H363 H 0.96789 0.99557 0.47037 0.0
S364 S 0.97578 0.87225 0.62277 0.0
N365 N 0.95046 0.84548 0.57073 0.0
N366 N 0.9905 0.92921 0.61377 0.0
C367 C 0.97498 0.92882 0.56657 0.0
C368 C 0.95299 0.88304 0.54316 0.0
C369 C 0.30616 0.81532 0.68053 0.0
C370 C 0.27036 0.79744 0.71865 0.0
C371 C 0.34912 0.80018 0.67318 0.0
C372 C 0.35721 0.76624 0.70331 0.0
H373 H 0.30243 0.84293 0.65785 0.0
H374 H 0.37687 0.81586 0.64448 0.0
S375 S 0.2727 0.70624 0.8059 0.0
N376 N 0.24418 0.74248 0.78518 0.0
N377 N 0.32474 0.71352 0.77103 0.0
C378 C 0.32038 0.7465 0.74005 0.0
C379 C 0.27699 0.76229 0.74786 0.0
C380 C 0.76225 0.85561 0.83954 0.0
C381 C 0.74321 0.87362 0.8808 0.0
C382 C 0.80444 0.88447 0.81253 0.0
C383 C 0.82915 0.93211 0.82627 0.0
H384 H 0.74661 0.81828 0.83009 0.0
H385 H 0.82003 0.86864 0.78285 0.0
S386 S 0.78932 0.99769 0.92694 0.0
N387 N 0.7485 0.94298 0.9309 0.0
N388 N 0.82766 0.99746 0.87972 0.0
C389 C 0.80779 0.95138 0.86495 0.0
C390 C 0.76467 0.92206 0.89227 0.0
C391 C 0.79648 0.24185 0.41638 0.0
C392 C 0.84367 0.28018 0.41728 0.0
C393 C 0.77023 0.22486 0.37234 0.0
C394 C 0.79054 0.24534 0.32761 0.0
H395 H 0.78036 0.22422 0.4499 0.0
H396 H 0.73477 0.19432 0.37312 0.0
S397 S 0.91127 0.34825 0.31072 0.0
N398 N 0.90859 0.33956 0.37027 0.0
N399 N 0.85902 0.30749 0.28708 0.0
C400 C 0.83683 0.28463 0.32815 0.0
C401 C 0.86339 0.30221 0.37315 0.0
C402 C 0.46803 0.68279 0.40693 0.0
C403 C 0.44408 0.7164 0.41901 0.0
C404 C 0.48478 0.65866 0.44353 0.0
C405 C 0.47904 0.66741 0.49407 0.0
H406 H 0.47564 0.67625 0.36891 0.0
H407 H 0.50414 0.6341 0.43193 0.0
S408 S 0.4166 0.75117 0.54492 0.0
N409 N 0.41388 0.75613 0.48502 0.0
N410 N 0.445 0.71143 0.55338 0.0
C411 C 0.45362 0.70011 0.50636 0.0
C412 C 0.43638 0.7244 0.46905 0.0
C413 C 0.18493 0.5654 0.9269 0.0
C414 C 0.1665 0.51574 0.92562 0.0
C415 C 0.1652 0.59139 0.96117 0.0
C416 C 0.1267 0.56911 0.99634 0.0
H417 H 0.21472 0.58439 0.90119 0.0
H418 H 0.18028 0.62954 0.95999 0.0
S419 S 0.064 0.43961 1.00688 0.0
N420 N 0.10683 0.44525 0.9621 0.0
N421 N 0.06953 0.49379 1.02519 0.0
C422 C 0.10802 0.51946 0.99512 0.0
C423 C 0.12797 0.49299 0.96021 0.0
C424 C 0.62114 0.95157 1.01309 0.0
C425 C 0.57876 0.9119 0.99839 0.0
C426 C 0.61447 0.99513 1.02264 0.0
C427 C 0.56503 1.00031 1.01801 0.0
H428 H 0.65918 0.94844 1.01933 0.0
H429 H 0.64774 1.0241 1.03641 0.0
S430 S 0.44351 0.90743 0.97338 0.0
N431 N 0.48749 0.88073 0.97451 0.0
N432 N 0.47439 0.96249 0.99181 0.0
C433 C 0.52327 0.9613 0.99963 0.0
C434 C 0.53024 0.91699 0.99011 0.0
C435 C 0.94516 0.20027 0.5296 0.0
C436 C 0.92968 0.2335 0.55709 0.0
C437 C 0.95672 0.164 0.55224 0.0
C438 C 0.95497 0.16039 0.60337 0.0
H439 H 0.94907 0.20258 0.49018 0.0
H440 H 0.96862 0.13942 0.52949 0.0
S441 S 0.91214 0.23541 0.69194 0.0
N442 N 0.90848 0.2576 0.63808 0.0
N443 N 0.93345 0.1909 0.6809 0.0
C444 C 0.93841 0.19251 0.63139 0.0
C445 C 0.92538 0.22891 0.60822 0.0
C446 C 0.28949 0.7397 0.17467 0.0
C447 C 0.29696 0.7391 0.22589 0.0
C448 C 0.2422 0.71255 0.15164 0.0
C449 C 0.20051 0.68194 0.1782 0.0
H450 H 0.3203 0.76192 0.15183 0.0
H451 H 0.23831 0.7155 0.11255 0.0
S452 S 0.19846 0.66471 0.31214 0.0
N453 N 0.25669 0.70427 0.30208 0.0
N454 N 0.16974 0.6512 0.2581 0.0
C455 C 0.20775 0.67908 0.22881 0.0
C456 C 0.25539 0.70787 0.25271 0.0
C457 C 0.36909 0.51743 0.73838 0.0
C458 C 0.31879 0.49867 0.7172 0.0
C459 C 0.41404 0.53984 0.70972 0.0
C460 C 0.41066 0.54424 0.65861 0.0
H461 H 0.37417 0.51268 0.77691 0.0
H462 H 0.45195 0.55199 0.72747 0.0
S463 S 0.28745 0.5076 0.58657 0.0
N464 N 0.26813 0.49119 0.64273 0.0
N465 N 0.35175 0.53233 0.5894 0.0
C466 C 0.36027 0.52817 0.63771 0.0
C467 C 0.31471 0.50571 0.66677 0.0
C468 C 0.75573 0.72496 0.97327 0.0
C469 C 0.73609 0.75491 1.00161 0.0
C470 C 0.79929 0.71427 0.98875 0.0
C471 C 0.82412 0.73261 1.03338 0.0
H472 H 0.74038 0.71339 0.93687 0.0
H473 H 0.81587 0.69425 0.96417 0.0
S474 S 0.78328 0.80667 0.12424 0.0
N475 N 0.74115 0.79832 0.07877 0.0
N476 N 0.82255 0.77717 0.10835 0.0
C477 C 0.80164 0.75837 0.06436 0.0
C478 C 0.75748 0.76965 1.0484 0.0
C479 C 0.48858 0.92675 0.23013 0.0
C480 C 0.43371 0.90368 0.23121 0.0
C481 C 0.51148 0.97217 0.21093 0.0
C482 C 0.48092 0.99666 0.19083 0.0
H483 H 0.51448 0.90943 0.2438 0.0
H484 H 0.55375 0.9881 0.21132 0.0
S485 S 0.33611 0.95483 0.18561 0.0
N486 N 0.34954 0.91161 0.212 0.0
N487 N 0.39318 0.99527 0.17359 0.0
C488 C 0.42637 0.97441 0.19105 0.0
C489 C 0.4027 0.92851 0.21166 0.0
C490 C 0.17053 0.2981 0.75329 0.0
C491 C 0.17812 0.33958 0.72698 0.0
C492 C 0.14883 0.25265 0.73098 0.0
C493 C 0.13334 0.24635 0.68129 0.0
H494 H 0.18249 0.30075 0.79126 0.0
H495 H 0.14429 0.22219 0.75299 0.0
S496 S 0.1416 0.34359 0.59687 0.0
N497 N 0.16574 0.37099 0.64896 0.0
N498 N 0.12581 0.28677 0.60718 0.0
C499 C 0.13992 0.28773 0.65491 0.0
C500 C 0.162 0.33381 0.67761 0.0
C501 C 0.84606 0.47182 0.51941 0.0
C502 C 0.84544 0.43257 0.54601 0.0
C503 C 0.80038 0.48318 0.51451 0.0
C504 C 0.75281 0.45521 0.53562 0.0
H505 H 0.88175 0.49348 0.50189 0.0
H506 H 0.80206 0.5136 0.49345 0.0
S507 S 0.7324 0.34937 0.61004 0.0
N508 N 0.79479 0.36621 0.59431 0.0
N509 N 0.70882 0.38744 0.58542 0.0
C510 C 0.75222 0.41602 0.56262 0.0
C511 C 0.7987 0.40472 0.56774 0.0
loop_
_geom_bond_atom_site_label_1
_geom_bond_atom_site_label_2
_geom_bond_distance
_geom_bond_site_symmetry_2
_ccdc_geom_bond_type
H0 C3 0.929 . S
H1 C6 0.929 . S
H2 C8 0.930 . S
C3 H0 0.929 . S
C3 C4 1.398 . S
C3 C5 1.396 . S
C4 C3 1.398 . S
C4 C8 1.407 . S
C5 C3 1.396 . S
C5 C6 1.394 . S
C6 H1 0.929 . S
C6 C5 1.394 . S
C6 C7 1.382 . S
C7 C6 1.382 . S
C7 C8 1.392 . S
C7 N9 1.420 . S
C8 H2 0.930 . S
C8 C4 1.407 . S
C8 C7 1.392 . S
N9 C7 1.420 . S
N9 C10 1.244 . S
C10 N9 1.244 . S
H11 C14 0.929 . S
H12 C17 0.929 . S
H13 C19 0.930 . S
C14 H11 0.929 . S
C14 C15 1.398 . S
C14 C16 1.396 . S
C15 C14 1.398 . S
C15 C19 1.407 . S
C16 C14 1.396 . S
C16 C17 1.394 . S
C17 H12 0.929 . S
C17 C16 1.394 . S
C17 C18 1.382 . S
C18 C17 1.382 . S
C18 C19 1.392 . S
C18 N20 1.420 . S
C19 H13 0.930 . S
C19 C15 1.407 . S
C19 C18 1.392 . S
N20 C18 1.420 . S
N20 C21 1.244 . S
C21 N20 1.244 . S
H22 C25 0.929 . S
H23 C28 0.929 . S
H24 C30 0.930 . S
C25 H22 0.929 . S
C25 C26 1.398 . S
C25 C27 1.396 . S
C26 C25 1.398 . S
C26 C30 1.407 . S
C27 C25 1.396 . S
C27 C28 1.394 . S
C28 H23 0.929 . S
C28 C27 1.394 . S
C28 C29 1.382 . S
C29 C28 1.382 . S
C29 C30 1.392 . S
C29 N31 1.420 . S
C30 H24 0.930 . S
C30 C26 1.407 . S
C30 C29 1.392 . S
N31 C29 1.420 . S
N31 C32 1.244 . S
C32 N31 1.244 . S
H33 C36 0.929 . S
H34 C39 0.929 . S
H35 C41 0.930 . S
C36 H33 0.929 . S
C36 C37 1.398 . S
C36 C38 1.396 . S
C37 C36 1.398 . S
C37 C41 1.407 . S
C38 C36 1.396 . S
C38 C39 1.394 . S
C39 H34 0.929 . S
C39 C38 1.394 . S
C39 C40 1.382 . S
C40 C39 1.382 . S
C40 C41 1.392 . S
C40 N42 1.420 . S
C41 H35 0.930 . S
C41 C37 1.407 . S
C41 C40 1.392 . S
N42 C40 1.420 . S
N42 C43 1.244 . S
C43 N42 1.244 . S
H44 C47 0.929 . S
H45 C50 0.929 . S
H46 C52 0.930 . S
C47 H44 0.929 . S
C47 C48 1.398 . S
C47 C49 1.396 . S
C48 C47 1.398 . S
C48 C52 1.407 . S
C49 C47 1.396 . S
C49 C50 1.394 . S
C50 H45 0.929 . S
C50 C49 1.394 . S
C50 C51 1.382 . S
C51 C50 1.382 . S
C51 C52 1.392 . S
C51 N53 1.420 . S
C52 H46 0.930 . S
C52 C48 1.407 . S
C52 C51 1.392 . S
N53 C51 1.420 . S
N53 C54 1.244 . S
C54 N53 1.244 . S
H55 C58 0.929 . S
H56 C61 0.929 . S
H57 C63 0.930 . S
C58 H55 0.929 . S
C58 C59 1.398 . S
C58 C60 1.396 . S
C59 C58 1.398 . S
C59 C63 1.407 . S
C60 C58 1.396 . S
C60 C61 1.394 . S
C61 H56 0.929 . S
C61 C60 1.394 . S
C61 C62 1.382 . S
C62 C61 1.382 . S
C62 C63 1.392 . S
C62 N64 1.420 . S
C63 H57 0.930 . S
C63 C59 1.407 . S
C63 C62 1.392 . S
N64 C62 1.420 . S
N64 C65 1.244 . S
C65 N64 1.244 . S
H66 C69 0.929 . S
H67 C72 0.929 . S
H68 C74 0.930 . S
C69 H66 0.929 . S
C69 C70 1.398 . S
C69 C71 1.396 . S
C70 C69 1.398 . S
C70 C74 1.407 . S
C71 C69 1.396 . S
C71 C72 1.394 . S
C72 H67 0.929 . S
C72 C71 1.394 . S
C72 C73 1.382 . S
C73 C72 1.382 . S
C73 C74 1.392 . S
C73 N75 1.420 . S
C74 H68 0.930 . S
C74 C70 1.407 . S
C74 C73 1.392 . S
N75 C73 1.420 . S
N75 C76 1.244 . S
C76 N75 1.244 . S
H77 C80 0.929 . S
H78 C83 0.929 . S
H79 C85 0.930 . S
C80 H77 0.929 . S
C80 C81 1.398 . S
C80 C82 1.396 . S
C81 C80 1.398 . S
C81 C85 1.407 . S
C82 C80 1.396 . S
C82 C83 1.394 . S
C83 H78 0.929 . S
C83 C82 1.394 . S
C83 C84 1.382 . S
C84 C83 1.382 . S
C84 C85 1.392 . S
C84 N86 1.420 . S
C85 H79 0.930 . S
C85 C81 1.407 . S
C85 C84 1.392 . S
N86 C84 1.420 . S
N86 C87 1.244 . S
C87 N86 1.244 . S
Gd88 C91 2.818 . S
Gd88 O108 2.377 . S
Gd88 O110 2.448 . S
Gd88 O111 2.506 . S
Gd88 O112 2.435 . S
Gd88 O113 2.717 . S
Gd88 O115 2.395 1_445 S
Gd88 O119 2.327 1_455 S
Gd89 C100 2.818 1_545 S
Gd89 O109 2.395 1_655 S
Gd89 O113 2.327 1_655 S
Gd89 O114 2.377 1_545 S
Gd89 O116 2.448 1_545 S
Gd89 O117 2.506 1_545 S
Gd89 O118 2.435 . S
Gd89 O119 2.717 . S
C90 O108 1.240 . S
C90 O109 1.240 . S
C91 Gd88 2.818 . S
C91 C92 1.510 . S
C91 O110 1.249 . S
C91 O111 1.252 . S
C92 C91 1.510 . S
C92 C93 1.404 . S
C92 C94 1.352 . S
C93 C92 1.404 . S
C93 C97 1.389 . S
C93 H120 0.930 . S
C94 C92 1.352 . S
C94 C96 1.374 . S
C94 H121 0.931 . S
C95 C96 1.359 . S
C95 C97 1.364 . S
C96 C94 1.374 . S
C96 C95 1.359 . S
C96 H122 0.931 . S
C97 C93 1.389 . S
C97 C95 1.364 . S
C97 H123 0.931 . S
C98 O112 1.256 1_565 S
C98 O113 1.257 1_565 S
C99 O114 1.240 . S
C99 O115 1.240 . S
C100 Gd89 2.818 1_565 S
C100 C101 1.510 . S
C100 O116 1.249 . S
C100 O117 1.252 . S
C101 C100 1.510 . S
C101 C102 1.404 . S
C101 C103 1.352 . S
C102 C101 1.404 . S
C102 C106 1.389 . S
C102 H124 0.930 . S
C103 C101 1.352 . S
C103 C105 1.374 . S
C103 H125 0.931 . S
C104 C105 1.359 . S
C104 C106 1.364 . S
C105 C103 1.374 . S
C105 C104 1.359 . S
C105 H126 0.931 . S
C106 C102 1.389 . S
C106 C104 1.364 . S
C106 H127 0.931 . S
C107 O118 1.256 . S
C107 O119 1.257 . S
O108 Gd88 2.377 . S
O108 C90 1.240 . S
O109 Gd89 2.395 1_455 S
O109 C90 1.240 . S
O110 Gd88 2.448 . S
O110 C91 1.249 . S
O111 Gd88 2.506 . S
O111 C91 1.252 . S
O112 Gd88 2.435 . S
O112 C98 1.256 1_545 S
O113 Gd88 2.717 . S
O113 Gd89 2.327 1_455 S
O113 C98 1.257 1_545 S
O114 Gd89 2.377 1_565 S
O114 C99 1.240 . S
O115 Gd88 2.395 1_665 S
O115 C99 1.240 . S
O116 Gd89 2.448 1_565 S
O116 C100 1.249 . S
O117 Gd89 2.506 1_565 S
O117 C100 1.252 . S
O118 Gd89 2.435 . S
O118 C107 1.256 . S
O119 Gd88 2.327 1_655 S
O119 Gd89 2.717 . S
O119 C107 1.257 . S
H120 C93 0.930 . S
H121 C94 0.931 . S
H122 C96 0.931 . S
H123 C97 0.931 . S
H124 C102 0.930 . S
H125 C103 0.931 . S
H126 C105 0.931 . S
H127 C106 0.931 . S
Gd128 C131 2.818 . S
Gd128 O148 2.377 . S
Gd128 O150 2.448 . S
Gd128 O151 2.506 . S
Gd128 O152 2.435 1_545 S
Gd128 O153 2.717 1_545 S
Gd128 O155 2.395 1_545 S
Gd128 O159 2.327 . S
Gd129 C140 2.818 1_544 S
Gd129 O149 2.395 . S
Gd129 O153 2.327 1_545 S
Gd129 O154 2.395 1_554 S
Gd129 O156 2.448 1_554 S
Gd129 O157 2.506 1_544 S
Gd129 O158 2.435 1_554 S
Gd129 O159 2.717 . S
C130 O148 1.240 . S
C130 O149 1.240 . S
C131 Gd128 2.818 . S
C131 C132 1.510 . S
C131 O150 1.249 . S
C131 O151 1.252 . S
C132 C131 1.510 . S
C132 C133 1.404 . S
C132 C134 1.352 . S
C133 C132 1.404 . S
C133 C137 1.389 . S
C133 H160 0.930 . S
C134 C132 1.352 . S
C134 C136 1.374 . S
C134 H161 0.931 . S
C135 C136 1.359 . S
C135 C137 1.364 . S
C136 C134 1.374 . S
C136 C135 1.359 . S
C136 H162 0.931 . S
C137 C133 1.389 . S
C137 C135 1.364 . S
C137 H163 0.931 . S
C138 O152 1.256 . S
C138 O153 1.257 . S
C139 O154 1.222 1_565 S
C139 O155 1.233 1_556 S
C140 Gd129 2.818 1_566 S
C140 C141 1.510 . S
C140 O156 1.249 1_565 S
C140 O157 1.252 . S
C141 C140 1.510 . S
C141 C142 1.404 . S
C141 C143 1.352 . S
C142 C141 1.404 . S
C142 C146 1.389 . S
C142 H164 0.947 . S
C143 C141 1.352 . S
C143 C145 1.374 . S
C143 H165 0.931 . S
C144 C145 1.359 . S
C144 C146 1.364 . S
C145 C143 1.374 . S
C145 C144 1.359 . S
C145 H166 0.931 . S
C146 C142 1.389 . S
C146 C144 1.364 . S
C146 H167 0.931 . S
C147 O158 1.256 1_554 S
C147 O159 1.257 . S
O148 Gd128 2.377 . S
O148 C130 1.240 . S
O149 Gd129 2.395 . S
O149 C130 1.240 . S
O150 Gd128 2.448 . S
O150 C131 1.249 . S
O151 Gd128 2.506 . S
O151 C131 1.252 . S
O152 Gd128 2.435 1_565 S
O152 C138 1.256 . S
O153 Gd128 2.717 1_565 S
O153 Gd129 2.327 1_565 S
O153 C138 1.257 . S
O154 Gd129 2.395 1_556 S
O154 C139 1.222 1_545 S
O155 Gd128 2.395 1_565 S
O155 C139 1.233 1_554 S
O156 Gd129 2.448 1_556 S
O156 C140 1.249 1_545 S
O157 Gd129 2.506 1_566 S
O157 C140 1.252 . S
O158 Gd129 2.435 1_556 S
O158 C147 1.256 1_556 S
O159 Gd128 2.327 . S
O159 Gd129 2.717 . S
O159 C147 1.257 . S
H160 C133 0.930 . S
H161 C134 0.931 . S
H162 C136 0.931 . S
H163 C137 0.931 . S
H164 C142 0.947 . S
H165 C143 0.931 . S
H166 C145 0.931 . S
H167 C146 0.931 . S
Gd168 C171 2.818 . S
Gd168 O188 2.377 . S
Gd168 O190 2.448 . S
Gd168 O191 2.506 . S
Gd168 O192 2.435 . S
Gd168 O193 2.717 . S
Gd168 O195 2.395 . S
Gd168 O199 2.327 . S
Gd169 C180 2.818 . S
Gd169 O189 2.395 . S
Gd169 O193 2.327 . S
Gd169 O194 2.377 . S
Gd169 O196 2.448 . S
Gd169 O197 2.506 . S
Gd169 O198 2.435 . S
Gd169 O199 2.717 . S
C170 O188 1.240 . S
C170 O189 1.240 . S
C171 Gd168 2.818 . S
C171 C172 1.510 . S
C171 O190 1.249 . S
C171 O191 1.252 . S
C172 C171 1.510 . S
C172 C173 1.404 . S
C172 C174 1.352 . S
C173 C172 1.404 . S
C173 C177 1.389 . S
C173 H200 0.930 . S
C174 C172 1.352 . S
C174 C176 1.374 . S
C174 H201 0.931 . S
C175 C176 1.359 . S
C175 C177 1.364 . S
C176 C174 1.374 . S
C176 C175 1.359 . S
C176 H202 0.931 . S
C177 C173 1.389 . S
C177 C175 1.364 . S
C177 H203 0.931 . S
C178 O192 1.256 . S
C178 O193 1.257 . S
C179 O194 1.240 . S
C179 O195 1.240 . S
C180 Gd169 2.818 . S
C180 C181 1.510 . S
C180 O196 1.249 . S
C180 O197 1.252 . S
C181 C180 1.510 . S
C181 C182 1.404 . S
C181 C183 1.352 . S
C182 C181 1.404 . S
C182 C186 1.389 . S
C182 H204 0.930 . S
C183 C181 1.352 . S
C183 C185 1.374 . S
C183 H205 0.931 . S
C184 C185 1.359 . S
C184 C186 1.364 . S
C185 C183 1.374 . S
C185 C184 1.359 . S
C185 H206 0.931 . S
C186 C182 1.389 . S
C186 C184 1.364 . S
C186 H207 0.931 . S
C187 O198 1.256 . S
C187 O199 1.257 . S
O188 Gd168 2.377 . S
O188 C170 1.240 . S
O189 Gd169 2.395 . S
O189 C170 1.240 . S
O190 Gd168 2.448 . S
O190 C171 1.249 . S
O191 Gd168 2.506 . S
O191 C171 1.252 . S
O192 Gd168 2.435 . S
O192 C178 1.256 . S
O193 Gd168 2.717 . S
O193 Gd169 2.327 . S
O193 C178 1.257 . S
O194 Gd169 2.377 . S
O194 C179 1.240 . S
O195 Gd168 2.395 . S
O195 C179 1.240 . S
O196 Gd169 2.448 . S
O196 C180 1.249 . S
O197 Gd169 2.506 . S
O197 C180 1.252 . S
O198 Gd169 2.435 . S
O198 C187 1.256 . S
O199 Gd168 2.327 . S
O199 Gd169 2.717 . S
O199 C187 1.257 . S
H200 C173 0.930 . S
H201 C174 0.931 . S
H202 C176 0.931 . S
H203 C177 0.931 . S
H204 C182 0.930 . S
H205 C183 0.931 . S
H206 C185 0.931 . S
H207 C186 0.931 . S
Gd208 C211 2.818 . S
Gd208 O228 2.377 . S
Gd208 O230 2.448 . S
Gd208 O231 2.506 . S
Gd208 O232 2.435 1_455 S
Gd208 O233 2.717 1_455 S
Gd208 O235 2.395 1_455 S
Gd208 O239 2.327 1_554 S
Gd209 C220 2.818 1_455 S
Gd209 O229 2.395 1_556 S
Gd209 O233 2.327 1_456 S
Gd209 O234 2.377 1_455 S
Gd209 O236 2.448 1_455 S
Gd209 O237 2.506 1_455 S
Gd209 O238 2.435 . S
Gd209 O239 2.717 . S
C210 O228 1.240 . S
C210 O229 1.240 . S
C211 Gd208 2.818 . S
C211 C212 1.510 . S
C211 O230 1.249 . S
C211 O231 1.252 . S
C212 C211 1.510 . S
C212 C213 1.404 . S
C212 C214 1.352 . S
C213 C212 1.404 . S
C213 C217 1.389 . S
C213 H240 0.930 . S
C214 C212 1.352 . S
C214 C216 1.374 . S
C214 H241 0.931 . S
C215 C216 1.359 . S
C215 C217 1.364 . S
C216 C214 1.374 . S
C216 C215 1.359 . S
C216 H242 0.931 . S
C217 C213 1.389 . S
C217 C215 1.364 . S
C217 H243 0.931 . S
C218 O232 1.256 . S
C218 O233 1.257 . S
C219 O234 1.240 . S
C219 O235 1.240 1_556 S
C220 Gd209 2.818 1_655 S
C220 C221 1.510 . S
C220 O236 1.249 . S
C220 O237 1.252 . S
C221 C220 1.510 . S
C221 C222 1.404 . S
C221 C223 1.352 . S
C222 C221 1.404 . S
C222 C226 1.389 . S
C222 H244 0.930 . S
C223 C221 1.352 . S
C223 C225 1.374 . S
C223 H245 0.931 . S
C224 C225 1.359 . S
C224 C226 1.364 . S
C225 C223 1.374 . S
C225 C224 1.359 . S
C225 H246 0.931 . S
C226 C222 1.389 . S
C226 C224 1.364 . S
C226 H247 0.931 . S
C227 O238 1.256 . S
C227 O239 1.257 . S
O228 Gd208 2.377 . S
O228 C210 1.240 . S
O229 Gd209 2.395 1_554 S
O229 C210 1.240 . S
O230 Gd208 2.448 . S
O230 C211 1.249 . S
O231 Gd208 2.506 . S
O231 C211 1.252 . S
O232 Gd208 2.435 1_655 S
O232 C218 1.256 . S
O233 Gd208 2.717 1_655 S
O233 Gd209 2.327 1_654 S
O233 C218 1.257 . S
O234 Gd209 2.377 1_655 S
O234 C219 1.240 . S
O235 Gd208 2.395 1_655 S
O235 C219 1.240 1_554 S
O236 Gd209 2.448 1_655 S
O236 C220 1.249 . S
O237 Gd209 2.506 1_655 S
O237 C220 1.252 . S
O238 Gd209 2.435 . S
O238 C227 1.256 . S
O239 Gd208 2.327 1_556 S
O239 Gd209 2.717 . S
O239 C227 1.257 . S
H240 C213 0.930 . S
H241 C214 0.931 . S
H242 C216 0.931 . S
H243 C217 0.931 . S
H244 C222 0.930 . S
H245 C223 0.931 . S
H246 C225 0.931 . S
H247 C226 0.931 . S
C248 C249 1.369 . S
C248 C250 1.419 . S
C248 H252 0.930 . S
C249 C248 1.369 . S
C249 C258 1.429 . S
C250 C248 1.419 . S
C250 C251 1.363 . S
C250 H253 0.929 . S
C251 C250 1.363 . S
C251 C257 1.428 . S
H252 C248 0.930 . S
H253 C250 0.929 . S
S254 N255 1.613 . S
S254 N256 1.610 . S
N255 S254 1.613 . S
N255 C258 1.350 . S
N256 S254 1.610 . S
N256 C257 1.351 . S
C257 C251 1.428 . S
C257 N256 1.351 . S
C257 C258 1.434 . S
C258 C249 1.429 . S
C258 N255 1.350 . S
C258 C257 1.434 . S
C259 C260 1.369 . S
C259 C261 1.419 . S
C259 H263 0.930 . S
C260 C259 1.369 . S
C260 C269 1.429 . S
C261 C259 1.419 . S
C261 C262 1.363 . S
C261 H264 0.929 . S
C262 C261 1.363 . S
C262 C268 1.428 . S
H263 C259 0.930 . S
H264 C261 0.929 . S
S265 N266 1.613 . S
S265 N267 1.610 . S
N266 S265 1.613 . S
N266 C269 1.350 . S
N267 S265 1.610 . S
N267 C268 1.351 . S
C268 C262 1.428 . S
C268 N267 1.351 . S
C268 C269 1.434 . S
C269 C260 1.429 . S
C269 N266 1.350 . S
C269 C268 1.434 . S
C270 C271 1.369 . S
C270 C272 1.419 . S
C270 H274 0.930 . S
C271 C270 1.369 . S
C271 C280 1.429 . S
C272 C270 1.419 . S
C272 C273 1.363 . S
C272 H275 0.929 . S
C273 C272 1.363 . S
C273 C279 1.428 . S
H274 C270 0.930 . S
H275 C272 0.929 . S
S276 N277 1.613 . S
S276 N278 1.610 . S
N277 S276 1.613 . S
N277 C280 1.350 . S
N278 S276 1.610 . S
N278 C279 1.351 . S
C279 C273 1.428 . S
C279 N278 1.351 . S
C279 C280 1.434 . S
C280 C271 1.429 . S
C280 N277 1.350 . S
C280 C279 1.434 . S
C281 C282 1.369 . S
C281 C283 1.419 . S
C281 H285 0.930 . S
C282 C281 1.369 . S
C282 C291 1.429 . S
C283 C281 1.419 . S
C283 C284 1.363 . S
C283 H286 0.929 1_655 S
C284 C283 1.363 . S
C284 C290 1.428 . S
H285 C281 0.930 . S
H286 C283 0.929 1_455 S
S287 N288 1.613 . S
S287 N289 1.610 . S
N288 S287 1.613 . S
N288 C291 1.350 . S
N289 S287 1.610 . S
N289 C290 1.351 . S
C290 C284 1.428 . S
C290 N289 1.351 . S
C290 C291 1.434 . S
C291 C282 1.429 . S
C291 N288 1.350 . S
C291 C290 1.434 . S
C292 C293 1.369 . S
C292 C294 1.419 . S
C292 H296 0.930 . S
C293 C292 1.369 . S
C293 C302 1.429 . S
C294 C292 1.419 . S
C294 C295 1.363 . S
C294 H297 0.929 . S
C295 C294 1.363 . S
C295 C301 1.428 . S
H296 C292 0.930 . S
H297 C294 0.929 . S
S298 N299 1.613 . S
S298 N300 1.610 . S
N299 S298 1.613 . S
N299 C302 1.350 . S
N300 S298 1.610 . S
N300 C301 1.351 . S
C301 C295 1.428 . S
C301 N300 1.351 . S
C301 C302 1.434 . S
C302 C293 1.429 . S
C302 N299 1.350 . S
C302 C301 1.434 . S
C303 C304 1.369 . S
C303 C305 1.419 . S
C303 H307 0.930 . S
C304 C303 1.369 . S
C304 C313 1.429 . S
C305 C303 1.419 . S
C305 C306 1.363 . S
C305 H308 0.929 1_565 S
C306 C305 1.363 . S
C306 C312 1.428 . S
H307 C303 0.930 . S
H308 C305 0.929 1_545 S
S309 N310 1.613 . S
S309 N311 1.610 . S
N310 S309 1.613 . S
N310 C313 1.350 . S
N311 S309 1.610 . S
N311 C312 1.351 . S
C312 C306 1.428 . S
C312 N311 1.351 . S
C312 C313 1.434 . S
C313 C304 1.429 . S
C313 N310 1.350 . S
C313 C312 1.434 . S
C314 C315 1.369 . S
C314 C316 1.419 . S
C314 H318 0.930 . S
C315 C314 1.369 . S
C315 C324 1.429 . S
C316 C314 1.419 . S
C316 C317 1.363 . S
C316 H319 0.929 . S
C317 C316 1.363 . S
C317 C323 1.428 . S
H318 C314 0.930 . S
H319 C316 0.929 . S
S320 N321 1.613 1_554 S
S320 N322 1.610 . S
N321 S320 1.613 1_556 S
N321 C324 1.350 . S
N322 S320 1.610 . S
N322 C323 1.351 1_554 S
C323 C317 1.428 . S
C323 N322 1.351 1_556 S
C323 C324 1.434 . S
C324 C315 1.429 . S
C324 N321 1.350 . S
C324 C323 1.434 . S
C325 C326 1.369 . S
C325 C327 1.419 . S
C325 H329 0.930 . S
C326 C325 1.369 . S
C326 C335 1.429 . S
C327 C325 1.419 . S
C327 C328 1.363 . S
C327 H330 0.929 . S
C328 C327 1.363 . S
C328 C334 1.428 . S
H329 C325 0.930 . S
H330 C327 0.929 . S
S331 N332 1.613 . S
S331 N333 1.610 . S
N332 S331 1.613 . S
N332 C335 1.350 . S
N333 S331 1.610 . S
N333 C334 1.351 . S
C334 C328 1.428 . S
C334 N333 1.351 . S
C334 C335 1.434 . S
C335 C326 1.429 . S
C335 N332 1.350 . S
C335 C334 1.434 . S
C336 C337 1.369 . S
C336 C338 1.419 . S
C336 H340 0.930 . S
C337 C336 1.369 . S
C337 C346 1.429 . S
C338 C336 1.419 . S
C338 C339 1.363 . S
C338 H341 0.929 . S
C339 C338 1.363 . S
C339 C345 1.428 . S
H340 C336 0.930 . S
H341 C338 0.929 . S
S342 N343 1.613 . S
S342 N344 1.610 . S
N343 S342 1.613 . S
N343 C346 1.350 . S
N344 S342 1.610 . S
N344 C345 1.351 . S
C345 C339 1.428 . S
C345 N344 1.351 . S
C345 C346 1.434 . S
C346 C337 1.429 . S
C346 N343 1.350 . S
C346 C345 1.434 . S
C347 C348 1.369 . S
C347 C349 1.419 . S
C347 H351 0.930 . S
C348 C347 1.369 . S
C348 C357 1.429 . S
C349 C347 1.419 . S
C349 C350 1.363 . S
C349 H352 0.929 . S
C350 C349 1.363 . S
C350 C356 1.428 1_556 S
H351 C347 0.930 . S
H352 C349 0.929 . S
S353 N354 1.613 . S
S353 N355 1.610 . S
N354 S353 1.613 . S
N354 C357 1.350 1_554 S
N355 S353 1.610 . S
N355 C356 1.351 . S
C356 C350 1.428 1_554 S
C356 N355 1.351 . S
C356 C357 1.434 1_554 S
C357 C348 1.429 . S
C357 N354 1.350 1_556 S
C357 C356 1.434 1_556 S
C358 C359 1.369 . S
C358 C360 1.419 . S
C358 H362 0.930 . S
C359 C358 1.369 . S
C359 C368 1.429 . S
C360 C358 1.419 . S
C360 C361 1.363 . S
C360 H363 0.929 . S
C361 C360 1.363 . S
C361 C367 1.428 . S
H362 C358 0.930 . S
H363 C360 0.929 . S
S364 N365 1.613 . S
S364 N366 1.610 . S
N365 S364 1.613 . S
N365 C368 1.350 . S
N366 S364 1.610 . S
N366 C367 1.351 . S
C367 C361 1.428 . S
C367 N366 1.351 . S
C367 C368 1.434 . S
C368 C359 1.429 . S
C368 N365 1.350 . S
C368 C367 1.434 . S
C369 C370 1.369 . S
C369 C371 1.419 . S
C369 H373 0.930 . S
C370 C369 1.369 . S
C370 C379 1.429 . S
C371 C369 1.419 . S
C371 C372 1.363 . S
C371 H374 0.929 . S
C372 C371 1.363 . S
C372 C378 1.428 . S
H373 C369 0.930 . S
H374 C371 0.929 . S
S375 N376 1.613 . S
S375 N377 1.610 . S
N376 S375 1.613 . S
N376 C379 1.350 . S
N377 S375 1.610 . S
N377 C378 1.351 . S
C378 C372 1.428 . S
C378 N377 1.351 . S
C378 C379 1.434 . S
C379 C370 1.429 . S
C379 N376 1.350 . S
C379 C378 1.434 . S
C380 C381 1.369 . S
C380 C382 1.419 . S
C380 H384 0.930 . S
C381 C380 1.369 . S
C381 C390 1.429 . S
C382 C380 1.419 . S
C382 C383 1.363 . S
C382 H385 0.929 . S
C383 C382 1.363 . S
C383 C389 1.428 . S
H384 C380 0.930 . S
H385 C382 0.929 . S
S386 N387 1.613 . S
S386 N388 1.610 . S
N387 S386 1.613 . S
N387 C390 1.350 . S
N388 S386 1.610 . S
N388 C389 1.351 . S
C389 C383 1.428 . S
C389 N388 1.351 . S
C389 C390 1.434 . S
C390 C381 1.429 . S
C390 N387 1.350 . S
C390 C389 1.434 . S
C391 C392 1.369 . S
C391 C393 1.419 . S
C391 H395 0.930 . S
C392 C391 1.369 . S
C392 C401 1.429 . S
C393 C391 1.419 . S
C393 C394 1.363 . S
C393 H396 0.929 . S
C394 C393 1.363 . S
C394 C400 1.428 . S
H395 C391 0.930 . S
H396 C393 0.929 . S
S397 N398 1.613 . S
S397 N399 1.610 . S
N398 S397 1.613 . S
N398 C401 1.350 . S
N399 S397 1.610 . S
N399 C400 1.351 . S
C400 C394 1.428 . S
C400 N399 1.351 . S
C400 C401 1.434 . S
C401 C392 1.429 . S
C401 N398 1.350 . S
C401 C400 1.434 . S
C402 C403 1.369 . S
C402 C404 1.419 . S
C402 H406 0.930 . S
C403 C402 1.369 . S
C403 C412 1.429 . S
C404 C402 1.419 . S
C404 C405 1.363 . S
C404 H407 0.929 . S
C405 C404 1.363 . S
C405 C411 1.428 . S
H406 C402 0.930 . S
H407 C404 0.929 . S
S408 N409 1.613 . S
S408 N410 1.610 . S
N409 S408 1.613 . S
N409 C412 1.350 . S
N410 S408 1.610 . S
N410 C411 1.351 . S
C411 C405 1.428 . S
C411 N410 1.351 . S
C411 C412 1.434 . S
C412 C403 1.429 . S
C412 N409 1.350 . S
C412 C411 1.434 . S
C413 C414 1.369 . S
C413 C415 1.419 . S
C413 H417 0.930 . S
C414 C413 1.369 . S
C414 C423 1.429 . S
C415 C413 1.419 . S
C415 C416 1.363 . S
C415 H418 0.929 . S
C416 C415 1.363 . S
C416 C422 1.428 . S
H417 C413 0.930 . S
H418 C415 0.929 . S
S419 N420 1.613 . S
S419 N421 1.610 . S
N420 S419 1.613 . S
N420 C423 1.350 . S
N421 S419 1.610 . S
N421 C422 1.351 . S
C422 C416 1.428 . S
C422 N421 1.351 . S
C422 C423 1.434 . S
C423 C414 1.429 . S
C423 N420 1.350 . S
C423 C422 1.434 . S
C424 C425 1.369 . S
C424 C426 1.419 . S
C424 H428 0.930 . S
C425 C424 1.369 . S
C425 C434 1.429 . S
C426 C424 1.419 . S
C426 C427 1.363 . S
C426 H429 0.929 . S
C427 C426 1.363 . S
C427 C433 1.428 . S
H428 C424 0.930 . S
H429 C426 0.929 . S
S430 N431 1.613 . S
S430 N432 1.610 . S
N431 S430 1.613 . S
N431 C434 1.350 . S
N432 S430 1.610 . S
N432 C433 1.351 . S
C433 C427 1.428 . S
C433 N432 1.351 . S
C433 C434 1.434 . S
C434 C425 1.429 . S
C434 N431 1.350 . S
C434 C433 1.434 . S
C435 C436 1.369 . S
C435 C437 1.419 . S
C435 H439 0.930 . S
C436 C435 1.369 . S
C436 C445 1.429 . S
C437 C435 1.419 . S
C437 C438 1.363 . S
C437 H440 0.929 . S
C438 C437 1.363 . S
C438 C444 1.428 . S
H439 C435 0.930 . S
H440 C437 0.929 . S
S441 N442 1.613 . S
S441 N443 1.610 . S
N442 S441 1.613 . S
N442 C445 1.350 . S
N443 S441 1.610 . S
N443 C444 1.351 . S
C444 C438 1.428 . S
C444 N443 1.351 . S
C444 C445 1.434 . S
C445 C436 1.429 . S
C445 N442 1.350 . S
C445 C444 1.434 . S
C446 C447 1.369 . S
C446 C448 1.419 . S
C446 H450 0.930 . S
C447 C446 1.369 . S
C447 C456 1.429 . S
C448 C446 1.419 . S
C448 C449 1.363 . S
C448 H451 0.929 . S
C449 C448 1.363 . S
C449 C455 1.428 . S
H450 C446 0.930 . S
H451 C448 0.929 . S
S452 N453 1.613 . S
S452 N454 1.610 . S
N453 S452 1.613 . S
N453 C456 1.350 . S
N454 S452 1.610 . S
N454 C455 1.351 . S
C455 C449 1.428 . S
C455 N454 1.351 . S
C455 C456 1.434 . S
C456 C447 1.429 . S
C456 N453 1.350 . S
C456 C455 1.434 . S
C457 C458 1.369 . S
C457 C459 1.419 . S
C457 H461 0.930 . S
C458 C457 1.369 . S
C458 C467 1.429 . S
C459 C457 1.419 . S
C459 C460 1.363 . S
C459 H462 0.929 . S
C460 C459 1.363 . S
C460 C466 1.428 . S
H461 C457 0.930 . S
H462 C459 0.929 . S
S463 N464 1.613 . S
S463 N465 1.610 . S
N464 S463 1.613 . S
N464 C467 1.350 . S
N465 S463 1.610 . S
N465 C466 1.351 . S
C466 C460 1.428 . S
C466 N465 1.351 . S
C466 C467 1.434 . S
C467 C458 1.429 . S
C467 N464 1.350 . S
C467 C466 1.434 . S
C468 C469 1.369 . S
C468 C470 1.419 . S
C468 H472 0.930 . S
C469 C468 1.369 . S
C469 C478 1.429 . S
C470 C468 1.419 . S
C470 C471 1.363 . S
C470 H473 0.929 . S
C471 C470 1.363 . S
C471 C477 1.428 . S
H472 C468 0.930 . S
H473 C470 0.929 . S
S474 N475 1.613 . S
S474 N476 1.610 . S
N475 S474 1.613 . S
N475 C478 1.350 . S
N476 S474 1.610 . S
N476 C477 1.351 . S
C477 C471 1.428 . S
C477 N476 1.351 . S
C477 C478 1.434 . S
C478 C469 1.429 . S
C478 N475 1.350 . S
C478 C477 1.434 . S
C479 C480 1.369 . S
C479 C481 1.419 . S
C479 H483 0.930 . S
C480 C479 1.369 . S
C480 C489 1.429 . S
C481 C479 1.419 . S
C481 C482 1.363 . S
C481 H484 0.929 . S
C482 C481 1.363 . S
C482 C488 1.428 . S
H483 C479 0.930 . S
H484 C481 0.929 . S
S485 N486 1.613 . S
S485 N487 1.610 . S
N486 S485 1.613 . S
N486 C489 1.350 . S
N487 S485 1.610 . S
N487 C488 1.351 . S
C488 C482 1.428 . S
C488 N487 1.351 . S
C488 C489 1.434 . S
C489 C480 1.429 . S
C489 N486 1.350 . S
C489 C488 1.434 . S
C490 C491 1.369 . S
C490 C492 1.419 . S
C490 H494 0.930 . S
C491 C490 1.369 . S
C491 C500 1.429 . S
C492 C490 1.419 . S
C492 C493 1.363 . S
C492 H495 0.929 . S
C493 C492 1.363 . S
C493 C499 1.428 . S
H494 C490 0.930 . S
H495 C492 0.929 . S
S496 N497 1.613 . S
S496 N498 1.610 . S
N497 S496 1.613 . S
N497 C500 1.350 . S
N498 S496 1.610 . S
N498 C499 1.351 . S
C499 C493 1.428 . S
C499 N498 1.351 . S
C499 C500 1.434 . S
C500 C491 1.429 . S
C500 N497 1.350 . S
C500 C499 1.434 . S
C501 C502 1.369 . S
C501 C503 1.419 . S
C501 H505 0.930 . S
C502 C501 1.369 . S
C502 C511 1.429 . S
C503 C501 1.419 . S
C503 C504 1.363 . S
C503 H506 0.929 . S
C504 C503 1.363 . S
C504 C510 1.428 . S
H505 C501 0.930 . S
H506 C503 0.929 . S
S507 N508 1.613 . S
S507 N509 1.610 . S
N508 S507 1.613 . S
N508 C511 1.350 . S
N509 S507 1.610 . S
N509 C510 1.351 . S
C510 C504 1.428 . S
C510 N509 1.351 . S
C510 C511 1.434 . S
C511 C502 1.429 . S
C511 N508 1.350 . S
C511 C510 1.434 . S
C249 C4 1.119 . S
C251 C95 1.159 . S
C260 C16 1.274 . S
C262 C144 1.293 . S
C273 C170 2.153 . S
C271 C32 2.181 . S
C282 C43 2.367 . S
C284 C218 2.314 . S
C295 C130 2.514 . S
C293 C5 2.351 . S
C306 C98 0.626 . S
C304 C21 0.667 . S
C317 C219 1.958 . S
C315 C27 2.000 . S
C328 C187 1.740 . S
C326 C37 1.734 . S
C337 C10 1.458 . S
C339 C215 1.485 . S
C350 C147 2.515 1_556 S
C348 C26 2.593 . S
C359 C38 2.134 . S
C361 C99 2.138 . S
C370 C15 1.368 . S
C372 C184 1.380 . S
C383 C104 1.239 . S
C381 C48 1.216 . S
C392 C59 1.178 . S
C394 C135 1.200 . S
C403 C76 2.480 . S
C405 C179 2.446 . S
C414 C87 2.230 . S
C416 C227 2.217 . S
C425 C54 1.902 . S
C427 C139 2.061 . S
C438 C107 1.356 . S
C436 C60 1.379 . S
C449 C210 1.854 . S
C447 C71 1.886 . S
C460 C178 1.696 . S
C458 C82 1.759 . S
C469 C49 1.665 . S
C471 C224 1.805 . S
C482 C138 2.041 . S
C480 C70 2.113 . S
C493 C90 2.520 . S
C491 C81 2.531 . S
C502 C65 1.112 . S
C504 C175 1.135 . S
