# Generated by pormake.
# Topology pyr, (3,6)-cn, num edge types: 1
# Building blocks:
#     Node 0, Type 0, BuildingBlock: INOVEN_clean_linker_0, # of connection points: 3
#     Node 1, Type 0, BuildingBlock: INOVEN_clean_linker_0, # of connection points: 3
#     Node 2, Type 0, BuildingBlock: INOVEN_clean_linker_0, # of connection points: 3
#     Node 3, Type 0, BuildingBlock: INOVEN_clean_linker_0, # of connection points: 3
#     Node 4, Type 0, BuildingBlock: INOVEN_clean_linker_0, # of connection points: 3
#     Node 5, Type 0, BuildingBlock: INOVEN_clean_linker_0, # of connection points: 3
#     Node 6, Type 0, BuildingBlock: INOVEN_clean_linker_0, # of connection points: 3
#     Node 7, Type 0, BuildingBlock: INOVEN_clean_linker_0, # of connection points: 3
#     Node 8, Type 1, BuildingBlock: MIDCAF_clean_sbu_0, # of connection points: 6
#     Node 9, Type 1, BuildingBlock: MIDCAF_clean_sbu_0, # of connection points: 6
#     Node 10, Type 1, BuildingBlock: MIDCAF_clean_sbu_0, # of connection points: 6
#     Node 11, Type 1, BuildingBlock: MIDCAF_clean_sbu_0, # of connection points: 6
#     Edge 12, Type (0, 1), BuildingBlock: KIFKEQ_clean_linker_1, # of connection points: 2
#     Edge 13, Type (0, 1), BuildingBlock: KIFKEQ_clean_linker_1, # of connection points: 2
#     Edge 14, Type (0, 1), BuildingBlock: KIFKEQ_clean_linker_1, # of connection points: 2
#     Edge 15, Type (0, 1), BuildingBlock: KIFKEQ_clean_linker_1, # of connection points: 2
#     Edge 16, Type (0, 1), BuildingBlock: KIFKEQ_clean_linker_1, # of connection points: 2
#     Edge 17, Type (0, 1), BuildingBlock: KIFKEQ_clean_linker_1, # of connection points: 2
#     Edge 18, Type (0, 1), BuildingBlock: KIFKEQ_clean_linker_1, # of connection points: 2
#     Edge 19, Type (0, 1), BuildingBlock: KIFKEQ_clean_linker_1, # of connection points: 2
#     Edge 20, Type (0, 1), BuildingBlock: KIFKEQ_clean_linker_1, # of connection points: 2
#     Edge 21, Type (0, 1), BuildingBlock: KIFKEQ_clean_linker_1, # of connection points: 2
#     Edge 22, Type (0, 1), BuildingBlock: KIFKEQ_clean_linker_1, # of connection points: 2
#     Edge 23, Type (0, 1), BuildingBlock: KIFKEQ_clean_linker_1, # of connection points: 2
#     Edge 24, Type (0, 1), BuildingBlock: KIFKEQ_clean_linker_1, # of connection points: 2
#     Edge 25, Type (0, 1), BuildingBlock: KIFKEQ_clean_linker_1, # of connection points: 2
#     Edge 26, Type (0, 1), BuildingBlock: KIFKEQ_clean_linker_1, # of connection points: 2
#     Edge 27, Type (0, 1), BuildingBlock: KIFKEQ_clean_linker_1, # of connection points: 2
#     Edge 28, Type (0, 1), BuildingBlock: KIFKEQ_clean_linker_1, # of connection points: 2
#     Edge 29, Type (0, 1), BuildingBlock: KIFKEQ_clean_linker_1, # of connection points: 2
#     Edge 30, Type (0, 1), BuildingBlock: KIFKEQ_clean_linker_1, # of connection points: 2
#     Edge 31, Type (0, 1), BuildingBlock: KIFKEQ_clean_linker_1, # of connection points: 2
#     Edge 32, Type (0, 1), BuildingBlock: KIFKEQ_clean_linker_1, # of connection points: 2
#     Edge 33, Type (0, 1), BuildingBlock: KIFKEQ_clean_linker_1, # of connection points: 2
#     Edge 34, Type (0, 1), BuildingBlock: KIFKEQ_clean_linker_1, # of connection points: 2
#     Edge 35, Type (0, 1), BuildingBlock: KIFKEQ_clean_linker_1, # of connection points: 2
# Relax obj value: 0.081
# Max RMSD: 0.176
# Mean RMSD: 0.131
data_MOF--net-pyr--node1-MIDCAF_clean_sbu_0--node2-INOVEN_clean_linker_0--edge1-KIFKEQ_clean_linker_1
_symmetry_space_group_name_H-M    P1
_symmetry_Int_Tables_number       1
_symmetry_cell_setting            triclinic
loop_
_symmetry_equiv_pos_as_xyz
'x, y, z'
_cell_length_a     34.866185
_cell_length_b     35.634339
_cell_length_c     36.996527
_cell_angle_alpha  90.405156
_cell_angle_beta   90.911599
_cell_angle_gamma 96.559967
loop_
_atom_site_label
_atom_site_type_symbol
_atom_site_fract_x
_atom_site_fract_y
_atom_site_fract_z
_atom_type_partial_charge
H0 H 0.19353 0.27885 0.30164 0.0
H1 H 0.25302 0.18096 0.2821 0.0
H2 H 0.26488 0.27509 0.20934 0.0
N3 N 0.21198 0.31343 0.24217 0.0
N4 N 0.22328 0.33104 0.21452 0.0
C5 C 0.21239 0.26335 0.28585 0.0
C6 C 0.22128 0.22749 0.29685 0.0
C7 C 0.22688 0.27994 0.254 0.0
C8 C 0.25303 0.26173 0.23354 0.0
C9 C 0.26349 0.22621 0.24403 0.0
C10 C 0.24693 0.20918 0.27539 0.0
H11 H 0.28102 0.76887 0.7114 0.0
H12 H 0.37156 0.78141 0.79283 0.0
H13 H 0.28161 0.85452 0.79363 0.0
N14 N 0.24478 0.82549 0.73304 0.0
N15 N 0.2341 0.85705 0.73977 0.0
C16 C 0.29428 0.78269 0.73541 0.0
C17 C 0.32846 0.77109 0.75014 0.0
C18 C 0.27744 0.81282 0.75071 0.0
C19 C 0.29424 0.83089 0.78199 0.0
C20 C 0.32802 0.81947 0.79763 0.0
C21 C 0.34499 0.78964 0.78143 0.0
H22 H 0.6941 0.26557 0.8256 0.0
H23 H 0.78868 0.26491 0.90174 0.0
H24 H 0.78987 0.35256 0.82262 0.0
N25 N 0.72118 0.32761 0.79164 0.0
N26 N 0.73371 0.35978 0.78102 0.0
C27 C 0.72257 0.27694 0.83536 0.0
C28 C 0.73919 0.2611 0.86576 0.0
C29 C 0.74093 0.30959 0.81934 0.0
C30 C 0.7766 0.32624 0.83363 0.0
C31 C 0.79377 0.3107 0.86374 0.0
C32 C 0.77547 0.27736 0.87872 0.0
H33 H 0.73827 0.71314 0.29214 0.0
H34 H 0.75289 0.79873 0.37543 0.0
H35 H 0.82454 0.80821 0.2816 0.0
N36 N 0.79571 0.74111 0.25199 0.0
N37 N 0.82256 0.75617 0.2332 0.0
C38 C 0.75204 0.74002 0.30237 0.0
C39 C 0.74083 0.75429 0.33561 0.0
C40 C 0.78209 0.75922 0.28281 0.0
C41 C 0.8008 0.79359 0.29634 0.0
C42 C 0.79042 0.80817 0.32979 0.0
C43 C 0.7599 0.78866 0.3489 0.0
H44 H 0.87724 0.95294 0.86332 0.0
H45 H 0.9602 0.87297 0.87546 0.0
H46 H 0.87408 0.8821 0.95644 0.0
N47 N 0.83926 0.93638 0.92248 0.0
N48 N 0.8221 0.92668 0.95085 0.0
C49 C 0.88943 0.93121 0.87862 0.0
C50 C 0.92168 0.91515 0.86567 0.0
C51 C 0.87207 0.91935 0.911 0.0
C52 C 0.88701 0.89066 0.93095 0.0
C53 C 0.91872 0.87333 0.9184 0.0
C54 C 0.9358 0.88586 0.88555 0.0
H55 H 0.60922 0.19917 0.37857 0.0
H56 H 0.67562 0.10534 0.3649 0.0
H57 H 0.69784 0.18083 0.45616 0.0
N58 N 0.64247 0.2258 0.43832 0.0
N59 N 0.65164 0.23313 0.47056 0.0
C60 C 0.63124 0.18224 0.38801 0.0
C61 C 0.63933 0.15061 0.36792 0.0
C62 C 0.65167 0.19298 0.41993 0.0
C63 C 0.68133 0.1722 0.43184 0.0
C64 C 0.69017 0.14057 0.41193 0.0
C65 C 0.66882 0.12969 0.38022 0.0
H66 H 0.45866 0.70124 0.17917 0.0
H67 H 0.36595 0.66843 0.10344 0.0
H68 H 0.39951 0.58858 0.18099 0.0
N69 N 0.45457 0.63762 0.21445 0.0
N70 N 0.45318 0.60596 0.2288 0.0
C71 C 0.43702 0.68001 0.16776 0.0
C72 C 0.41339 0.68902 0.13872 0.0
C73 C 0.43237 0.64401 0.18307 0.0
C74 C 0.40394 0.61629 0.16887 0.0
C75 C 0.38038 0.62477 0.13958 0.0
C76 C 0.38549 0.66111 0.12467 0.0
H77 H 0.07894 0.37692 0.65539 0.0
H78 H 0.18649 0.39794 0.5988 0.0
H79 H 0.15745 0.47573 0.68024 0.0
N80 N 0.08927 0.43682 0.69756 0.0
N81 N 0.0926 0.46884 0.71181 0.0
C82 C 0.10561 0.39452 0.6499 0.0
C83 C 0.131 0.38353 0.6236 0.0
C84 C 0.11459 0.42783 0.66996 0.0
C85 C 0.14968 0.45039 0.66414 0.0
C86 C 0.17594 0.4392 0.63913 0.0
C87 C 0.1664 0.40597 0.61871 0.0
Zn88 Zn 0.96764 0.08002 0.58082 0.0
Zn89 Zn 0.05163 0.99773 0.5003 0.0
Zn90 Zn 0.00856 0.03842 0.54033 0.0
C91 C 0.08325 0.07162 0.49177 0.0
C92 C 0.97517 0.98775 0.47225 0.0
O93 O 0.00885 0.01695 0.5972 0.0
O94 O 0.97785 0.05726 0.62809 0.0
C95 C 0.02584 0.1288 0.54932 0.0
O96 O 0.05448 0.07627 0.51225 0.0
O97 O 0.09041 0.03879 0.48338 0.0
O98 O 0.00863 0.97897 0.46635 0.0
O99 O 0.96932 0.0094 0.49914 0.0
O100 O 0.99633 0.12952 0.56851 0.0
O101 O 0.03532 0.09731 0.53707 0.0
O102 O 0.94816 0.03466 0.51787 0.0
O103 O 0.91661 0.0663 0.55708 0.0
C104 C 0.91674 0.04713 0.52827 0.0
O105 O 0.03459 0.99773 0.57662 0.0
O106 O 0.06701 0.96459 0.53945 0.0
C107 C 0.99562 0.02835 0.62729 0.0
C108 C 0.05654 0.97146 0.57111 0.0
Zn109 Zn 0.46466 0.07694 0.01261 0.0
Zn110 Zn 0.52282 0.9993 0.09584 0.0
Zn111 Zn 0.49669 0.03684 0.05367 0.0
C112 C 0.57433 0.00427 0.04114 0.0
C113 C 0.45832 0.95746 0.07854 0.0
O114 O 0.466 0.07595 0.08823 0.0
O115 O 0.42529 0.09215 0.04657 0.0
C116 C 0.54241 0.09738 0.00446 0.0
O117 O 0.55747 0.03434 0.03674 0.0
O118 O 0.56026 0.97943 0.06286 0.0
O119 O 0.47566 0.96573 0.10816 0.0
O120 O 0.46582 0.97874 0.05095 0.0
O121 O 0.51155 0.11277 0.00279 0.0
O122 O 0.54259 0.06498 0.01959 0.0
O123 O 0.4563 0.99767 0.01982 0.0
O124 O 0.44875 0.03711 0.97536 0.0
C125 C 0.44468 0.00384 0.98738 0.0
O126 O 0.49612 0.06452 0.10837 0.0
O127 O 0.54372 0.03663 0.13229 0.0
C128 C 0.43552 0.09154 0.07944 0.0
C129 C 0.52159 0.06212 0.13373 0.0
Zn130 Zn 0.57509 0.59712 0.60153 0.0
Zn131 Zn 0.48497 0.49658 0.52819 0.0
Zn132 Zn 0.52926 0.54736 0.56382 0.0
C133 C 0.53759 0.45646 0.55932 0.0
C134 C 0.52021 0.54458 0.47691 0.0
O135 O 0.49262 0.5772 0.60137 0.0
O136 O 0.53426 0.6224 0.62539 0.0
C137 C 0.59357 0.5261 0.62198 0.0
O138 O 0.55111 0.49067 0.56816 0.0
O139 O 0.5046 0.4498 0.54468 0.0
O140 O 0.50002 0.51301 0.47903 0.0
O141 O 0.53275 0.56272 0.50579 0.0
O142 O 0.59959 0.56044 0.63125 0.0
O143 O 0.5702 0.51585 0.59539 0.0
O144 O 0.5589 0.58818 0.52573 0.0
O145 O 0.60364 0.62114 0.55984 0.0
C146 C 0.58837 0.61335 0.52912 0.0
O147 O 0.46925 0.54809 0.58308 0.0
O148 O 0.43479 0.50875 0.54525 0.0
C149 C 0.50007 0.60656 0.62208 0.0
C150 C 0.43643 0.53184 0.57134 0.0
Zn151 Zn 0.07852 0.60401 0.99463 0.0
Zn152 Zn 0.98777 0.51948 0.08128 0.0
Zn153 Zn 0.03132 0.56088 0.03452 0.0
C154 C 0.06206 0.51512 0.10483 0.0
C155 C 0.9773 0.48528 0.01195 0.0
O156 O 0.01551 0.62018 0.03453 0.0
O157 O 0.06491 0.65432 0.00959 0.0
C158 C 0.12499 0.56756 0.03935 0.0
O159 O 0.06754 0.5338 0.0752 0.0
O160 O 0.02832 0.50769 0.11673 0.0
O161 O 0.96967 0.47957 0.04487 0.0
O162 O 0.99878 0.51526 0.0024 0.0
O163 O 0.1281 0.58701 0.01098 0.0
O164 O 0.09152 0.55734 0.05264 0.0
O165 O 0.02148 0.53888 0.97905 0.0
O166 O 0.05546 0.58363 0.94808 0.0
C167 C 0.03247 0.5536 0.94875 0.0
O168 O 0.99247 0.59804 0.05963 0.0
O169 O 0.95355 0.5589 0.09241 0.0
C170 C 0.03233 0.65246 0.0243 0.0
C171 C 0.96319 0.59165 0.0804 0.0
H172 H 0.15124 0.23854 0.32775 0.0
H173 H 0.24777 0.17335 0.34169 0.0
H174 H 0.12224 0.21058 0.38073 0.0
H175 H 0.21546 0.14068 0.39126 0.0
H176 H 0.16109 0.09041 0.48948 0.0
H177 H 0.19609 0.13352 0.4476 0.0
H178 H 0.08692 0.16277 0.40491 0.0
H179 H 0.05316 0.12293 0.44965 0.0
C180 C 0.16667 0.21831 0.34188 0.0
C181 C 0.20256 0.20889 0.32971 0.0
C182 C 0.14912 0.20118 0.37227 0.0
C183 C 0.16568 0.1725 0.39091 0.0
C184 C 0.20152 0.16294 0.37869 0.0
C185 C 0.2199 0.18124 0.34915 0.0
C186 C 0.14497 0.10734 0.47191 0.0
C187 C 0.10454 0.10372 0.47295 0.0
C188 C 0.16492 0.13155 0.44713 0.0
C189 C 0.14484 0.15142 0.42144 0.0
C190 C 0.10419 0.14886 0.42402 0.0
C191 C 0.08444 0.12582 0.44982 0.0
H192 H 0.4044 0.84521 0.80753 0.0
H193 H 0.29398 0.84181 0.85933 0.0
H194 H 0.43422 0.88516 0.85656 0.0
H195 H 0.32388 0.88218 0.90834 0.0
H196 H 0.40173 0.93621 0.00357 0.0
H197 H 0.37503 0.88655 0.96055 0.0
H198 H 0.42579 0.95261 0.87244 0.0
H199 H 0.45216 0.00154 0.91492 0.0
C200 C 0.38662 0.85242 0.82971 0.0
C201 C 0.34677 0.84051 0.82941 0.0
C202 C 0.40365 0.87551 0.85768 0.0
C203 C 0.38135 0.88698 0.88622 0.0
C204 C 0.34185 0.87363 0.88686 0.0
C205 C 0.32469 0.85083 0.85863 0.0
C206 C 0.40753 0.93969 0.97508 0.0
C207 C 0.42913 0.97265 0.96265 0.0
C208 C 0.39204 0.9115 0.95046 0.0
C209 C 0.39856 0.91559 0.91312 0.0
C210 C 0.42068 0.94833 0.90101 0.0
C211 C 0.43552 0.97654 0.92537 0.0
H212 H 0.75284 0.43081 0.76408 0.0
H213 H 0.6704 0.33407 0.73933 0.0
H214 H 0.71789 0.46957 0.72354 0.0
H215 H 0.63559 0.37274 0.69808 0.0
H216 H 0.619 0.45959 0.60014 0.0
H217 H 0.65111 0.41504 0.63694 0.0
H218 H 0.64718 0.48895 0.72936 0.0
H219 H 0.61314 0.53183 0.69307 0.0
C220 C 0.72745 0.4179 0.74953 0.0
C221 C 0.71416 0.37986 0.7549 0.0
C222 C 0.70744 0.43995 0.72654 0.0
C223 C 0.67398 0.42411 0.70798 0.0
C224 C 0.66139 0.3855 0.71211 0.0
C225 C 0.68117 0.36349 0.73571 0.0
C226 C 0.62342 0.46525 0.62849 0.0
C227 C 0.61245 0.49846 0.64372 0.0
C228 C 0.64237 0.44021 0.64948 0.0
C229 C 0.65154 0.44866 0.68595 0.0
C230 C 0.6406 0.48189 0.70123 0.0
C231 C 0.62118 0.50642 0.68041 0.0
H232 H 0.80613 0.68178 0.21614 0.0
H233 H 0.8749 0.78487 0.18634 0.0
H234 H 0.83873 0.64691 0.17201 0.0
H235 H 0.90695 0.75017 0.1403 0.0
H236 H 0.99023 0.66257 0.10455 0.0
H237 H 0.95305 0.7065 0.13614 0.0
H238 H 0.84796 0.63336 0.1116 0.0
H239 H 0.88559 0.58878 0.08229 0.0
C240 C 0.82766 0.69718 0.19942 0.0
C241 C 0.83804 0.73614 0.20453 0.0
C242 C 0.84629 0.6772 0.17377 0.0
C243 C 0.8755 0.69563 0.1522 0.0
C244 C 0.88495 0.7349 0.15661 0.0
C245 C 0.86647 0.75487 0.18267 0.0
C246 C 0.95909 0.65648 0.10538 0.0
C247 C 0.94072 0.62217 0.09161 0.0
C248 C 0.93768 0.68165 0.12339 0.0
C249 C 0.89746 0.67309 0.12735 0.0
C250 C 0.87896 0.64032 0.11034 0.0
C251 C 0.90042 0.6149 0.09319 0.0
H252 H 0.31965 0.18228 0.26636 0.0
H253 H 0.26824 0.22442 0.16999 0.0
H254 H 0.36156 0.14818 0.22895 0.0
H255 H 0.31145 0.19257 0.13303 0.0
H256 H 0.3598 0.10059 0.07266 0.0
H257 H 0.31965 0.1314 0.11361 0.0
H258 H 0.41597 0.15326 0.1887 0.0
H259 H 0.45622 0.12093 0.14753 0.0
C260 C 0.31726 0.18441 0.23725 0.0
C261 C 0.29027 0.20618 0.22137 0.0
C262 C 0.34173 0.16519 0.21577 0.0
C263 C 0.33989 0.16723 0.17781 0.0
C264 C 0.31336 0.18957 0.16208 0.0
C265 C 0.28884 0.20848 0.18344 0.0
C266 C 0.37256 0.11184 0.09794 0.0
C267 C 0.41142 0.10849 0.10663 0.0
C268 C 0.34948 0.12985 0.12143 0.0
C269 C 0.36456 0.14569 0.15431 0.0
C270 C 0.40322 0.14136 0.16369 0.0
C271 C 0.42638 0.12282 0.14012 0.0
H272 H 0.2191 0.92813 0.73742 0.0
H273 H 0.177 0.81578 0.70065 0.0
H274 H 0.16958 0.95394 0.70095 0.0
H275 H 0.12579 0.84077 0.66587 0.0
H276 H 0.08118 0.90206 0.56811 0.0
H277 H 0.11904 0.87262 0.61281 0.0
H278 H 0.10633 0.96382 0.68792 0.0
H279 H 0.07128 0.99491 0.64146 0.0
C280 C 0.19858 0.90898 0.722 0.0
C281 C 0.20224 0.87028 0.72131 0.0
C282 C 0.16989 0.92361 0.7013 0.0
C283 C 0.14357 0.89962 0.67992 0.0
C284 C 0.14603 0.8604 0.68105 0.0
C285 C 0.17526 0.84592 0.70118 0.0
C286 C 0.08599 0.9156 0.59436 0.0
C287 C 0.0727 0.95068 0.60132 0.0
C288 C 0.10752 0.89846 0.62032 0.0
C289 C 0.11613 0.91568 0.65429 0.0
C290 C 0.10094 0.94985 0.66197 0.0
C291 C 0.07988 0.96735 0.63562 0.0
H292 H 0.85747 0.35162 0.834 0.0
H293 H 0.80588 0.31961 0.93641 0.0
H294 H 0.90887 0.39205 0.86605 0.0
H295 H 0.85718 0.35877 0.9679 0.0
H296 H 0.96467 0.40964 0.02022 0.0
H297 H 0.92706 0.3639 0.98068 0.0
H298 H 0.9123 0.45214 0.90394 0.0
H299 H 0.95024 0.49805 0.94375 0.0
C300 C 0.85726 0.35284 0.86325 0.0
C301 C 0.82761 0.33205 0.88258 0.0
C302 C 0.88669 0.37593 0.88153 0.0
C303 C 0.88721 0.37832 0.91946 0.0
C304 C 0.85812 0.35689 0.93869 0.0
C305 C 0.82869 0.33421 0.92055 0.0
C306 C 0.95397 0.41912 0.99459 0.0
C307 C 0.96021 0.45734 0.98501 0.0
C308 C 0.93243 0.39297 0.972 0.0
C309 C 0.91629 0.40454 0.93948 0.0
C310 C 0.92461 0.44235 0.92874 0.0
C311 C 0.94636 0.46862 0.95144 0.0
H312 H 0.73727 0.67888 0.34935 0.0
H313 H 0.68147 0.77784 0.37442 0.0
H314 H 0.69617 0.6423 0.3922 0.0
H315 H 0.64061 0.74116 0.41789 0.0
H316 H 0.55574 0.65332 0.47646 0.0
H317 H 0.5883 0.68501 0.42459 0.0
H318 H 0.69573 0.64657 0.46004 0.0
H319 H 0.663 0.61472 0.51109 0.0
C320 C 0.71569 0.69265 0.36347 0.0
C321 C 0.71266 0.7313 0.35855 0.0
C322 C 0.69239 0.67176 0.38824 0.0
C323 C 0.6654 0.68895 0.40854 0.0
C324 C 0.66103 0.72713 0.40245 0.0
C325 C 0.6846 0.74817 0.37782 0.0
C326 C 0.58604 0.65101 0.47241 0.0
C327 C 0.60683 0.63114 0.4971 0.0
C328 C 0.60476 0.66946 0.44315 0.0
C329 C 0.64449 0.668 0.43815 0.0
C330 C 0.66499 0.64769 0.46283 0.0
C331 C 0.64639 0.6297 0.49214 0.0
H332 H 0.24851 0.37858 0.16246 0.0
H333 H 0.15652 0.35457 0.23827 0.0
H334 H 0.21621 0.43069 0.13782 0.0
H335 H 0.12333 0.40476 0.213 0.0
H336 H 0.07485 0.50731 0.17704 0.0
H337 H 0.11966 0.46876 0.20614 0.0
H338 H 0.16327 0.44194 0.10139 0.0
H339 H 0.11957 0.48193 0.07283 0.0
C340 C 0.22148 0.38469 0.1739 0.0
C341 C 0.20526 0.36272 0.20229 0.0
C342 C 0.20275 0.4143 0.15968 0.0
C343 C 0.16696 0.42225 0.17328 0.0
C344 C 0.15116 0.40039 0.20219 0.0
C345 C 0.17011 0.37123 0.21663 0.0
C346 C 0.09476 0.49387 0.16043 0.0
C347 C 0.0939 0.49779 0.12274 0.0
C348 C 0.1202 0.47136 0.17701 0.0
C349 C 0.14475 0.45133 0.15621 0.0
C350 C 0.14522 0.45699 0.11853 0.0
C351 C 0.12014 0.48002 0.10203 0.0
H352 H 0.6928 0.19782 0.84135 0.0
H353 H 0.73334 0.25794 0.93903 0.0
H354 H 0.64994 0.15395 0.87744 0.0
H355 H 0.69168 0.21383 0.97469 0.0
H356 H 0.56737 0.17154 0.01021 0.0
H357 H 0.6197 0.20691 0.97771 0.0
H358 H 0.64733 0.10357 0.92784 0.0
H359 H 0.59429 0.06799 0.96069 0.0
C360 C 0.69303 0.20132 0.87046 0.0
C361 C 0.7165 0.23142 0.88724 0.0
C362 C 0.66883 0.17601 0.89112 0.0
C363 C 0.66741 0.18062 0.92885 0.0
C364 C 0.692 0.20973 0.94565 0.0
C365 C 0.71617 0.23481 0.92515 0.0
C366 C 0.58508 0.15632 0.9928 0.0
C367 C 0.5773 0.11708 0.98827 0.0
C368 C 0.61509 0.1765 0.97428 0.0
C369 C 0.63769 0.15797 0.95033 0.0
C370 C 0.63031 0.11852 0.94612 0.0
C371 C 0.60039 0.09817 0.96516 0.0
H372 H 0.86881 0.82141 0.33146 0.0
H373 H 0.76691 0.86784 0.3681 0.0
H374 H 0.90928 0.87126 0.36293 0.0
H375 H 0.80791 0.91849 0.39992 0.0
H376 H 0.90027 0.96443 0.49015 0.0
H377 H 0.85201 0.92632 0.45243 0.0
H378 H 0.93007 0.93738 0.36253 0.0
H379 H 0.97836 0.97409 0.4005 0.0
C380 C 0.85499 0.84286 0.3455 0.0
C381 C 0.81458 0.84082 0.34689 0.0
C382 C 0.87828 0.87157 0.36365 0.0
C383 C 0.8619 0.8992 0.3837 0.0
C384 C 0.82143 0.89754 0.38486 0.0
C385 C 0.79799 0.8686 0.36662 0.0
C386 C 0.90659 0.95938 0.46208 0.0
C387 C 0.94315 0.97163 0.44832 0.0
C388 C 0.87899 0.9376 0.44044 0.0
C389 C 0.88753 0.92805 0.40467 0.0
C390 C 0.92297 0.94323 0.39025 0.0
C391 C 0.95057 0.96443 0.41192 0.0
H392 H 0.36401 0.71404 0.7812 0.0
H393 H 0.33756 0.76032 0.67735 0.0
H394 H 0.40028 0.66839 0.75133 0.0
H395 H 0.37366 0.71465 0.64756 0.0
H396 H 0.4253 0.61388 0.60068 0.0
H397 H 0.37854 0.64797 0.63264 0.0
H398 H 0.4612 0.67258 0.72027 0.0
H399 H 0.50691 0.63783 0.68894 0.0
C400 C 0.36583 0.71446 0.75201 0.0
C401 C 0.34802 0.74114 0.73179 0.0
C402 C 0.38656 0.6882 0.73485 0.0
C403 C 0.39009 0.68788 0.69699 0.0
C404 C 0.37113 0.71365 0.67668 0.0
C405 C 0.35043 0.73995 0.69384 0.0
C406 C 0.43282 0.62552 0.62728 0.0
C407 C 0.46954 0.62277 0.6425 0.0
C408 C 0.40633 0.64556 0.64537 0.0
C409 C 0.41607 0.66312 0.67908 0.0
C410 C 0.45238 0.65907 0.69468 0.0
C411 C 0.47875 0.63933 0.67658 0.0
H412 H 0.93393 0.98826 0.84294 0.0
H413 H 0.95217 0.87493 0.81096 0.0
H414 H 0.95881 0.01194 0.78594 0.0
H415 H 0.97993 0.89917 0.7543 0.0
H416 H 0.97418 0.95329 0.63894 0.0
H417 H 0.96241 0.92345 0.69775 0.0
H418 H 0.01248 0.02647 0.75086 0.0
H419 H 0.02154 0.05654 0.69227 0.0
C420 C 0.94352 0.96831 0.82381 0.0
C421 C 0.94041 0.92953 0.83157 0.0
C422 C 0.95862 0.98206 0.79115 0.0
C423 C 0.97182 0.95764 0.76522 0.0
C424 C 0.96978 0.91889 0.77332 0.0
C425 C 0.95424 0.905 0.80608 0.0
C426 C 0.9834 0.96907 0.66329 0.0
C427 C 0.99836 0.00724 0.66125 0.0
C428 C 0.97672 0.95203 0.69708 0.0
C429 C 0.98544 0.9728 0.72938 0.0
C430 C 0.00394 0.00992 0.72681 0.0
C431 C 0.00969 0.0271 0.69322 0.0
H432 H 0.56153 0.14814 0.35448 0.0
H433 H 0.66877 0.13156 0.30317 0.0
H434 H 0.52692 0.13538 0.29686 0.0
H435 H 0.63418 0.11808 0.24591 0.0
H436 H 0.57345 0.12371 0.14139 0.0
H437 H 0.59924 0.1502 0.1991 0.0
H438 H 0.50966 0.0809 0.2551 0.0
H439 H 0.4838 0.05494 0.19711 0.0
C440 C 0.5777 0.14178 0.33088 0.0
C441 C 0.61792 0.14082 0.33339 0.0
C442 C 0.55784 0.13437 0.29794 0.0
C443 C 0.57782 0.1262 0.26669 0.0
C444 C 0.618 0.12504 0.2693 0.0
C445 C 0.63778 0.13216 0.30224 0.0
C446 C 0.55823 0.11566 0.16596 0.0
C447 C 0.52634 0.08788 0.16495 0.0
C448 C 0.57336 0.13024 0.19903 0.0
C449 C 0.55701 0.11702 0.23173 0.0
C450 C 0.52289 0.09175 0.23043 0.0
C451 C 0.50782 0.07712 0.19726 0.0
H452 H 0.49522 0.6591 0.2713 0.0
H453 H 0.45607 0.54025 0.26055 0.0
H454 H 0.5234 0.64815 0.33076 0.0
H455 H 0.48376 0.5291 0.32004 0.0
H456 H 0.54907 0.51133 0.41916 0.0
H457 H 0.543 0.52965 0.356 0.0
H458 H 0.49535 0.63069 0.39004 0.0
H459 H 0.50175 0.61216 0.45313 0.0
C460 C 0.49316 0.63053 0.28147 0.0
C461 C 0.47343 0.60026 0.26152 0.0
C462 C 0.50917 0.62431 0.31553 0.0
C463 C 0.5059 0.58779 0.33012 0.0
C464 C 0.48742 0.5575 0.30939 0.0
C465 C 0.47133 0.56377 0.27549 0.0
C466 C 0.53864 0.53811 0.41303 0.0
C467 C 0.52643 0.56073 0.4408 0.0
C468 C 0.53484 0.54845 0.37695 0.0
C469 C 0.51819 0.58135 0.36799 0.0
C470 C 0.50867 0.60539 0.39601 0.0
C471 C 0.51257 0.595 0.43217 0.0
H472 H 0.09236 0.53685 0.73942 0.0
H473 H 0.04309 0.42117 0.75154 0.0
H474 H 0.06282 0.55385 0.79546 0.0
H475 H 0.01272 0.438 0.80781 0.0
H476 H 0.03693 0.48027 0.93003 0.0
H477 H 0.03874 0.45598 0.86818 0.0
H478 H 0.00498 0.5611 0.8277 0.0
H479 H 0.00491 0.58563 0.88938 0.0
C480 C 0.07426 0.51536 0.75379 0.0
C481 C 0.07004 0.47802 0.7414 0.0
C482 C 0.05705 0.52499 0.78574 0.0
C483 C 0.03522 0.49726 0.80613 0.0
C484 C 0.0295 0.45993 0.7928 0.0
C485 C 0.04671 0.45034 0.76057 0.0
C486 C 0.02858 0.4975 0.90788 0.0
C487 C 0.02132 0.53487 0.91411 0.0
C488 C 0.02951 0.48365 0.87245 0.0
C489 C 0.02298 0.50704 0.84297 0.0
C490 C 0.01117 0.54279 0.84978 0.0
C491 C 0.01085 0.55676 0.88503 0.0
H492 H 0.78116 0.9054 0.00784 0.0
H493 H 0.78764 0.98409 0.91956 0.0
H494 H 0.72104 0.92798 0.02724 0.0
H495 H 0.72722 0.00694 0.93897 0.0
H496 H 0.63513 0.05538 0.01939 0.0
H497 H 0.69694 0.04015 0.99492 0.0
H498 H 0.65477 0.92149 0.99685 0.0
H499 H 0.59367 0.93654 0.02031 0.0
C500 C 0.76971 0.92774 0.99283 0.0
C501 C 0.78869 0.94265 0.96224 0.0
C502 C 0.73535 0.9406 0.00375 0.0
C503 C 0.71924 0.96896 0.98435 0.0
C504 C 0.73903 0.98511 0.95441 0.0
C505 C 0.77343 0.9719 0.94325 0.0
C506 C 0.63884 0.02624 0.01349 0.0
C507 C 0.60961 0.99718 0.02168 0.0
C508 C 0.67422 0.01749 0.9998 0.0
C509 C 0.68084 0.97957 0.99461 0.0
C510 C 0.65082 0.95089 1.00125 0.0
C511 C 0.61576 0.95957 0.01459 0.0
H512 H 0.68771 0.06652 0.43151 0.0
H513 H 0.76581 0.16822 0.41844 0.0
H514 H 0.74157 0.03367 0.45414 0.0
H515 H 0.81967 0.13527 0.4399 0.0
H516 H 0.91316 0.05856 0.45559 0.0
H517 H 0.85663 0.07534 0.42157 0.0
H518 H 0.78549 0.04913 0.51442 0.0
H519 H 0.84204 0.03358 0.54865 0.0
C520 C 0.7165 0.08158 0.43302 0.0
C521 C 0.72274 0.11988 0.42354 0.0
C522 C 0.74721 0.06285 0.44584 0.0
C523 C 0.7848 0.08185 0.44838 0.0
C524 C 0.79111 0.1198 0.4377 0.0
C525 C 0.76032 0.13872 0.42576 0.0
C526 C 0.88516 0.05503 0.46821 0.0
C527 C 0.8819 0.04485 0.50473 0.0
C528 C 0.85293 0.06495 0.44888 0.0
C529 C 0.81682 0.06386 0.46553 0.0
C530 C 0.81292 0.05009 0.50089 0.0
C531 C 0.84524 0.04112 0.52045 0.0
H532 H 0.32658 0.58188 0.17963 0.0
H533 H 0.35954 0.60757 0.06982 0.0
H534 H 0.26426 0.55106 0.15781 0.0
H535 H 0.29709 0.57925 0.04811 0.0
H536 H 0.1842 0.53635 0.00927 0.0
H537 H 0.24775 0.53188 0.0363 0.0
H538 H 0.20912 0.57649 0.13684 0.0
H539 H 0.14503 0.5782 0.11017 0.0
C540 C 0.32091 0.58001 0.15076 0.0
C541 C 0.34753 0.59778 0.12642 0.0
C542 C 0.28499 0.56281 0.13826 0.0
C543 C 0.27502 0.56339 0.10124 0.0
C544 C 0.30339 0.57789 0.07677 0.0
C545 C 0.33926 0.59463 0.08922 0.0
C546 C 0.18926 0.54413 0.03745 0.0
C547 C 0.16027 0.55818 0.05761 0.0
C548 C 0.22564 0.54181 0.05294 0.0
C549 C 0.23415 0.5549 0.08849 0.0
C550 C 0.20389 0.56598 0.10948 0.0
C551 C 0.16716 0.56735 0.09419 0.0
H552 H 0.24574 0.41374 0.64776 0.0
H553 H 0.19203 0.51405 0.62343 0.0
H554 H 0.30944 0.44898 0.64021 0.0
H555 H 0.25605 0.54936 0.61504 0.0
H556 H 0.37077 0.54982 0.53992 0.0
H557 H 0.30604 0.53671 0.56431 0.0
H558 H 0.3552 0.50782 0.66683 0.0
H559 H 0.42031 0.52209 0.64249 0.0
C560 C 0.24772 0.44342 0.64098 0.0
C561 C 0.21423 0.46119 0.63574 0.0
C562 C 0.28406 0.4637 0.63718 0.0
C563 C 0.28755 0.50196 0.62746 0.0
C564 C 0.25403 0.51998 0.62287 0.0
C565 C 0.21759 0.49982 0.62745 0.0
C566 C 0.36769 0.54241 0.56817 0.0
C567 C 0.40018 0.53673 0.5894 0.0
C568 C 0.33072 0.53493 0.58213 0.0
C569 C 0.32576 0.5208 0.61725 0.0
C570 C 0.35842 0.51855 0.6396 0.0
C571 C 0.39555 0.5269 0.62582 0.0
H572 H 0.87799 0.8178 0.95867 0.0
H573 H 0.99405 0.85819 0.9268 0.0
H574 H 0.90271 0.76822 0.99376 0.0
H575 H 0.01828 0.8067 0.95903 0.0
H576 H 0.06262 0.72584 0.03295 0.0
H577 H 0.03319 0.78135 0.01386 0.0
H578 H 0.92674 0.71054 0.98886 0.0
H579 H 0.95577 0.65562 0.01022 0.0
C580 C 0.90882 0.8163 0.95913 0.0
C581 C 0.93389 0.84236 0.93967 0.0
C582 C 0.923 0.78733 0.97896 0.0
C583 C 0.96265 0.78308 0.97954 0.0
C584 C 0.98768 0.8092 0.96011 0.0
C585 C 0.97359 0.8385 0.94079 0.0
C586 C 0.0325 0.72246 0.02454 0.0
C587 C 0.01155 0.68641 0.02294 0.0
C588 C 0.01573 0.75421 0.01294 0.0
C589 C 0.97784 0.7506 0.9985 0.0
C590 C 0.95592 0.71481 0.99973 0.0
C591 C 0.97252 0.68313 0.01212 0.0
H592 H 0.40809 0.71251 0.06841 0.0
H593 H 0.42189 0.7543 0.17833 0.0
H594 H 0.40726 0.77716 0.0469 0.0
H595 H 0.42298 0.81849 0.15688 0.0
H596 H 0.46838 0.90206 0.03025 0.0
H597 H 0.4512 0.83467 0.04073 0.0
H598 H 0.38214 0.8613 0.13143 0.0
H599 H 0.40098 0.92843 0.12177 0.0
C600 C 0.41101 0.73548 0.08796 0.0
C601 C 0.41523 0.72827 0.1251 0.0
C602 C 0.41068 0.77247 0.07561 0.0
C603 C 0.41447 0.80298 0.10017 0.0
C604 C 0.41899 0.79566 0.13723 0.0
C605 C 0.41921 0.75882 0.14953 0.0
C606 C 0.44819 0.89335 0.05139 0.0
C607 C 0.43608 0.92011 0.07538 0.0
C608 C 0.43847 0.85477 0.05756 0.0
C609 C 0.4163 0.84265 0.08766 0.0
C610 C 0.4003 0.86974 0.10874 0.0
C611 C 0.41053 0.90815 0.10293 0.0
H612 H 0.17857 0.33134 0.60169 0.0
H613 H 0.06001 0.35569 0.59651 0.0
H614 H 0.16014 0.27142 0.57052 0.0
H615 H 0.0411 0.29494 0.56832 0.0
H616 H 0.00732 0.18991 0.51298 0.0
H617 H 0.03937 0.25417 0.51955 0.0
H618 H 0.12908 0.21216 0.58485 0.0
H619 H 0.09821 0.1479 0.5756 0.0
C620 C 0.14863 0.32414 0.59363 0.0
C621 C 0.12068 0.34821 0.60213 0.0
C622 C 0.13797 0.2895 0.57609 0.0
C623 C 0.09904 0.2779 0.567 0.0
C624 C 0.07147 0.30281 0.57422 0.0
C625 C 0.0822 0.33754 0.59121 0.0
C626 C 0.03479 0.19454 0.52736 0.0
C627 C 0.05043 0.16438 0.5439 0.0
C628 C 0.05291 0.23134 0.53167 0.0
C629 C 0.08618 0.23873 0.55384 0.0
C630 C 0.10362 0.20785 0.56754 0.0
C631 C 0.08598 0.17091 0.56232 0.0
H632 H 0.63506 0.29692 0.43721 0.0
H633 H 0.64599 0.24542 0.54146 0.0
H634 H 0.61416 0.3526 0.46605 0.0
H635 H 0.62424 0.30149 0.57072 0.0
H636 H 0.52384 0.38461 0.58493 0.0
H637 H 0.5582 0.33087 0.56796 0.0
H638 H 0.64044 0.40607 0.50932 0.0
H639 H 0.60621 0.45954 0.52641 0.0
C640 C 0.63315 0.29763 0.46638 0.0
C641 C 0.6418 0.26675 0.48724 0.0
C642 C 0.62147 0.32965 0.48293 0.0
C643 C 0.61768 0.33141 0.52065 0.0
C644 C 0.62689 0.3008 0.5416 0.0
C645 C 0.63936 0.26891 0.52499 0.0
C646 C 0.55009 0.38967 0.56957 0.0
C647 C 0.56291 0.42617 0.55756 0.0
C648 C 0.56973 0.35902 0.55984 0.0
C649 C 0.60186 0.36434 0.53719 0.0
C650 C 0.61568 0.40117 0.5267 0.0
C651 C 0.59633 0.43176 0.53669 0.0
loop_
_geom_bond_atom_site_label_1
_geom_bond_atom_site_label_2
_geom_bond_distance
_geom_bond_site_symmetry_2
_ccdc_geom_bond_type
H0 C5 0.929 . S
H1 C10 0.931 . S
H2 C8 0.930 . S
N3 N4 1.234 . S
N3 C7 1.453 . S
N4 N3 1.234 . S
C5 H0 0.929 . S
C5 C6 1.373 . S
C5 C7 1.368 . S
C6 C5 1.373 . S
C6 C10 1.397 . S
C7 N3 1.453 . S
C7 C5 1.368 . S
C7 C8 1.373 . S
C8 H2 0.930 . S
C8 C7 1.373 . S
C8 C9 1.371 . S
C9 C8 1.371 . S
C9 C10 1.383 . S
C10 H1 0.931 . S
C10 C6 1.397 . S
C10 C9 1.383 . S
H11 C16 0.929 . S
H12 C21 0.931 . S
H13 C19 0.930 . S
N14 N15 1.234 . S
N14 C18 1.453 . S
N15 N14 1.234 . S
C16 H11 0.929 . S
C16 C17 1.373 . S
C16 C18 1.368 . S
C17 C16 1.373 . S
C17 C21 1.397 . S
C18 N14 1.453 . S
C18 C16 1.368 . S
C18 C19 1.373 . S
C19 H13 0.930 . S
C19 C18 1.373 . S
C19 C20 1.371 . S
C20 C19 1.371 . S
C20 C21 1.383 . S
C21 H12 0.931 . S
C21 C17 1.397 . S
C21 C20 1.383 . S
H22 C27 0.929 . S
H23 C32 0.931 . S
H24 C30 0.930 . S
N25 N26 1.234 . S
N25 C29 1.453 . S
N26 N25 1.234 . S
C27 H22 0.929 . S
C27 C28 1.373 . S
C27 C29 1.368 . S
C28 C27 1.373 . S
C28 C32 1.397 . S
C29 N25 1.453 . S
C29 C27 1.368 . S
C29 C30 1.373 . S
C30 H24 0.930 . S
C30 C29 1.373 . S
C30 C31 1.371 . S
C31 C30 1.371 . S
C31 C32 1.383 . S
C32 H23 0.931 . S
C32 C28 1.397 . S
C32 C31 1.383 . S
H33 C38 0.929 . S
H34 C43 0.931 . S
H35 C41 0.930 . S
N36 N37 1.234 . S
N36 C40 1.453 . S
N37 N36 1.234 . S
C38 H33 0.929 . S
C38 C39 1.373 . S
C38 C40 1.368 . S
C39 C38 1.373 . S
C39 C43 1.397 . S
C40 N36 1.453 . S
C40 C38 1.368 . S
C40 C41 1.373 . S
C41 H35 0.930 . S
C41 C40 1.373 . S
C41 C42 1.371 . S
C42 C41 1.371 . S
C42 C43 1.383 . S
C43 H34 0.931 . S
C43 C39 1.397 . S
C43 C42 1.383 . S
H44 C49 0.929 1_545 S
H45 C54 0.931 . S
H46 C52 0.930 . S
N47 N48 1.234 1_545 S
N47 C51 1.453 1_545 S
N48 N47 1.234 1_565 S
C49 H44 0.929 1_565 S
C49 C50 1.373 . S
C49 C51 1.368 . S
C50 C49 1.373 . S
C50 C54 1.397 . S
C51 N47 1.453 1_565 S
C51 C49 1.368 . S
C51 C52 1.373 . S
C52 H46 0.930 . S
C52 C51 1.373 . S
C52 C53 1.371 . S
C53 C52 1.371 . S
C53 C54 1.383 . S
C54 H45 0.931 . S
C54 C50 1.397 . S
C54 C53 1.383 . S
H55 C60 0.929 . S
H56 C65 0.931 . S
H57 C63 0.930 . S
N58 N59 1.234 . S
N58 C62 1.453 . S
N59 N58 1.234 . S
C60 H55 0.929 . S
C60 C61 1.373 . S
C60 C62 1.368 . S
C61 C60 1.373 . S
C61 C65 1.397 . S
C62 N58 1.453 . S
C62 C60 1.368 . S
C62 C63 1.373 . S
C63 H57 0.930 . S
C63 C62 1.373 . S
C63 C64 1.371 . S
C64 C63 1.371 . S
C64 C65 1.383 . S
C65 H56 0.931 . S
C65 C61 1.397 . S
C65 C64 1.383 . S
H66 C71 0.929 . S
H67 C76 0.931 . S
H68 C74 0.930 . S
N69 N70 1.234 . S
N69 C73 1.453 . S
N70 N69 1.234 . S
C71 H66 0.929 . S
C71 C72 1.373 . S
C71 C73 1.368 . S
C72 C71 1.373 . S
C72 C76 1.397 . S
C73 N69 1.453 . S
C73 C71 1.368 . S
C73 C74 1.373 . S
C74 H68 0.930 . S
C74 C73 1.373 . S
C74 C75 1.371 . S
C75 C74 1.371 . S
C75 C76 1.383 . S
C76 H67 0.931 . S
C76 C72 1.397 . S
C76 C75 1.383 . S
H77 C82 0.929 . S
H78 C87 0.931 . S
H79 C85 0.930 . S
N80 N81 1.234 . S
N80 C84 1.453 . S
N81 N80 1.234 . S
C82 H77 0.929 . S
C82 C83 1.373 . S
C82 C84 1.368 . S
C83 C82 1.373 . S
C83 C87 1.397 . S
C84 N80 1.453 . S
C84 C82 1.368 . S
C84 C85 1.373 . S
C85 H79 0.930 . S
C85 C84 1.373 . S
C85 C86 1.371 . S
C86 C85 1.371 . S
C86 C87 1.383 . S
C87 H78 0.931 . S
C87 C83 1.397 . S
C87 C86 1.383 . S
Zn88 O94 1.920 . S
Zn88 O100 1.898 . S
Zn88 O103 1.905 . S
Zn89 O97 1.905 1_565 S
Zn89 O98 1.898 . S
Zn89 O106 1.920 . S
Zn90 O93 2.080 1_455 S
Zn90 O96 2.114 . S
Zn90 O99 2.120 1_445 S
Zn90 O101 2.120 . S
Zn90 O102 2.114 1_455 S
Zn90 O105 2.080 . S
C91 O96 1.166 . S
C91 O97 1.182 . S
C92 O98 1.167 1_655 S
C92 O99 1.299 . S
O93 Zn90 2.080 1_655 S
O93 C107 1.305 . S
O94 Zn88 1.920 . S
O94 C107 1.234 . S
C95 O100 1.167 1_455 S
C95 O101 1.299 . S
O96 Zn90 2.114 . S
O96 C91 1.166 . S
O97 Zn89 1.905 1_545 S
O97 C91 1.182 . S
O98 Zn89 1.898 . S
O98 C92 1.167 1_455 S
O99 Zn90 2.120 1_665 S
O99 C92 1.299 . S
O100 Zn88 1.898 . S
O100 C95 1.167 1_655 S
O101 Zn90 2.120 . S
O101 C95 1.299 . S
O102 Zn90 2.114 1_655 S
O102 C104 1.166 . S
O103 Zn88 1.905 . S
O103 C104 1.182 . S
C104 O102 1.166 . S
C104 O103 1.182 . S
O105 Zn90 2.080 . S
O105 C108 1.305 1_545 S
O106 Zn89 1.920 . S
O106 C108 1.234 . S
C107 O93 1.305 . S
C107 O94 1.234 . S
C108 O105 1.305 1_565 S
C108 O106 1.234 . S
Zn109 O115 1.920 . S
Zn109 O121 1.898 1_554 S
Zn109 O124 1.905 1_554 S
Zn110 O118 1.905 . S
Zn110 O119 1.898 . S
Zn110 O127 1.920 . S
Zn111 O114 2.080 . S
Zn111 O117 2.119 . S
Zn111 O120 2.120 1_545 S
Zn111 O122 2.120 . S
Zn111 O123 2.114 . S
Zn111 O126 2.080 . S
C112 O117 1.164 1_565 S
C112 O118 1.184 . S
C113 O119 1.167 . S
C113 O120 1.299 . S
O114 Zn111 2.080 . S
O114 C128 1.305 . S
O115 Zn109 1.920 . S
O115 C128 1.234 . S
C116 O121 1.167 1_554 S
C116 O122 1.299 . S
O117 Zn111 2.119 . S
O117 C112 1.164 1_545 S
O118 Zn110 1.905 . S
O118 C112 1.184 . S
O119 Zn110 1.898 . S
O119 C113 1.167 . S
O120 Zn111 2.120 1_565 S
O120 C113 1.299 . S
O121 Zn109 1.898 1_556 S
O121 C116 1.167 1_556 S
O122 Zn111 2.120 . S
O122 C116 1.299 . S
O123 Zn111 2.114 . S
O123 C125 1.167 1_554 S
O124 Zn109 1.905 1_556 S
O124 C125 1.180 . S
C125 O123 1.167 1_556 S
C125 O124 1.180 . S
O126 Zn111 2.080 . S
O126 C129 1.305 . S
O127 Zn110 1.920 . S
O127 C129 1.234 1_565 S
C128 O114 1.305 . S
C128 O115 1.234 . S
C129 O126 1.305 . S
C129 O127 1.234 1_545 S
Zn130 O136 1.920 . S
Zn130 O142 1.898 . S
Zn130 O145 1.905 . S
Zn131 O139 1.905 . S
Zn131 O140 1.898 . S
Zn131 O148 1.920 . S
Zn132 O135 2.080 . S
Zn132 O138 2.114 . S
Zn132 O141 2.120 . S
Zn132 O143 2.120 . S
Zn132 O144 2.114 . S
Zn132 O147 2.080 . S
C133 O138 1.166 . S
C133 O139 1.182 . S
C134 O140 1.167 . S
C134 O141 1.299 . S
O135 Zn132 2.080 . S
O135 C149 1.305 . S
O136 Zn130 1.920 . S
O136 C149 1.234 . S
C137 O142 1.167 . S
C137 O143 1.299 . S
O138 Zn132 2.114 . S
O138 C133 1.166 . S
O139 Zn131 1.905 . S
O139 C133 1.182 . S
O140 Zn131 1.898 . S
O140 C134 1.167 . S
O141 Zn132 2.120 . S
O141 C134 1.299 . S
O142 Zn130 1.898 . S
O142 C137 1.167 . S
O143 Zn132 2.120 . S
O143 C137 1.299 . S
O144 Zn132 2.114 . S
O144 C146 1.166 . S
O145 Zn130 1.905 . S
O145 C146 1.182 . S
C146 O144 1.166 . S
C146 O145 1.182 . S
O147 Zn132 2.080 . S
O147 C150 1.305 . S
O148 Zn131 1.920 . S
O148 C150 1.234 . S
C149 O135 1.305 . S
C149 O136 1.234 . S
C150 O147 1.305 . S
C150 O148 1.234 . S
Zn151 O157 1.920 . S
Zn151 O163 1.898 . S
Zn151 O166 1.905 . S
Zn152 O160 1.905 1_655 S
Zn152 O161 1.898 . S
Zn152 O169 1.920 . S
Zn153 O156 2.080 1_554 S
Zn153 O159 2.114 . S
Zn153 O162 2.120 1_454 S
Zn153 O164 2.120 . S
Zn153 O165 2.114 1_554 S
Zn153 O168 2.080 . S
C154 O159 1.166 . S
C154 O160 1.182 . S
C155 O161 1.167 1_556 S
C155 O162 1.299 . S
O156 Zn153 2.080 1_556 S
O156 C170 1.305 . S
O157 Zn151 1.920 . S
O157 C170 1.234 . S
C158 O163 1.167 1_554 S
C158 O164 1.299 . S
O159 Zn153 2.114 . S
O159 C154 1.166 . S
O160 Zn152 1.905 1_455 S
O160 C154 1.182 . S
O161 Zn152 1.898 . S
O161 C155 1.167 1_554 S
O162 Zn153 2.120 1_656 S
O162 C155 1.299 . S
O163 Zn151 1.898 . S
O163 C158 1.167 1_556 S
O164 Zn153 2.120 . S
O164 C158 1.299 . S
O165 Zn153 2.114 1_556 S
O165 C167 1.166 . S
O166 Zn151 1.905 . S
O166 C167 1.182 . S
C167 O165 1.166 . S
C167 O166 1.182 . S
O168 Zn153 2.080 . S
O168 C171 1.305 1_455 S
O169 Zn152 1.920 . S
O169 C171 1.234 . S
C170 O156 1.305 . S
C170 O157 1.234 . S
C171 O168 1.305 1_655 S
C171 O169 1.234 . S
H172 C180 0.950 . S
H173 C185 0.950 . S
H174 C182 0.950 . S
H175 C184 0.950 . S
H176 C186 0.950 . S
H177 C188 0.950 . S
H178 C190 0.950 . S
H179 C191 0.950 . S
C180 H172 0.950 . S
C180 C181 1.386 . S
C180 C182 1.391 . S
C181 C180 1.386 . S
C181 C185 1.393 . S
C182 H174 0.950 . S
C182 C180 1.391 . S
C182 C183 1.400 . S
C183 C182 1.400 . S
C183 C184 1.398 . S
C183 C189 1.491 . S
C184 H175 0.950 . S
C184 C183 1.398 . S
C184 C185 1.391 . S
C185 H173 0.950 . S
C185 C181 1.393 . S
C185 C184 1.391 . S
C186 H176 0.950 . S
C186 C187 1.386 . S
C186 C188 1.391 . S
C187 C186 1.386 . S
C187 C191 1.393 . S
C188 H177 0.950 . S
C188 C186 1.391 . S
C188 C189 1.400 . S
C189 C183 1.491 . S
C189 C188 1.400 . S
C189 C190 1.398 . S
C190 H178 0.950 . S
C190 C189 1.398 . S
C190 C191 1.391 . S
C191 H179 0.950 . S
C191 C187 1.393 . S
C191 C190 1.391 . S
H192 C200 0.950 . S
H193 C205 0.950 . S
H194 C202 0.950 . S
H195 C204 0.950 . S
H196 C206 0.950 . S
H197 C208 0.950 . S
H198 C210 0.950 . S
H199 C211 0.950 . S
C200 H192 0.950 . S
C200 C201 1.386 . S
C200 C202 1.391 . S
C201 C200 1.386 . S
C201 C205 1.393 . S
C202 H194 0.950 . S
C202 C200 1.391 . S
C202 C203 1.400 . S
C203 C202 1.400 . S
C203 C204 1.398 . S
C203 C209 1.491 . S
C204 H195 0.950 . S
C204 C203 1.398 . S
C204 C205 1.391 . S
C205 H193 0.950 . S
C205 C201 1.393 . S
C205 C204 1.391 . S
C206 H196 0.950 . S
C206 C207 1.386 . S
C206 C208 1.391 . S
C207 C206 1.386 . S
C207 C211 1.393 . S
C208 H197 0.950 . S
C208 C206 1.391 . S
C208 C209 1.400 . S
C209 C203 1.491 . S
C209 C208 1.400 . S
C209 C210 1.398 . S
C210 H198 0.950 . S
C210 C209 1.398 . S
C210 C211 1.391 . S
C211 H199 0.950 . S
C211 C207 1.393 . S
C211 C210 1.391 . S
H212 C220 0.950 . S
H213 C225 0.950 . S
H214 C222 0.950 . S
H215 C224 0.950 . S
H216 C226 0.950 . S
H217 C228 0.950 . S
H218 C230 0.950 . S
H219 C231 0.950 . S
C220 H212 0.950 . S
C220 C221 1.386 . S
C220 C222 1.391 . S
C221 C220 1.386 . S
C221 C225 1.393 . S
C222 H214 0.950 . S
C222 C220 1.391 . S
C222 C223 1.400 . S
C223 C222 1.400 . S
C223 C224 1.398 . S
C223 C229 1.491 . S
C224 H215 0.950 . S
C224 C223 1.398 . S
C224 C225 1.391 . S
C225 H213 0.950 . S
C225 C221 1.393 . S
C225 C224 1.391 . S
C226 H216 0.950 . S
C226 C227 1.386 . S
C226 C228 1.391 . S
C227 C226 1.386 . S
C227 C231 1.393 . S
C228 H217 0.950 . S
C228 C226 1.391 . S
C228 C229 1.400 . S
C229 C223 1.491 . S
C229 C228 1.400 . S
C229 C230 1.398 . S
C230 H218 0.950 . S
C230 C229 1.398 . S
C230 C231 1.391 . S
C231 H219 0.950 . S
C231 C227 1.393 . S
C231 C230 1.391 . S
H232 C240 0.950 . S
H233 C245 0.950 . S
H234 C242 0.950 . S
H235 C244 0.950 . S
H236 C246 0.950 1_455 S
H237 C248 0.950 . S
H238 C250 0.950 . S
H239 C251 0.950 . S
C240 H232 0.950 . S
C240 C241 1.386 . S
C240 C242 1.391 . S
C241 C240 1.386 . S
C241 C245 1.393 . S
C242 H234 0.950 . S
C242 C240 1.391 . S
C242 C243 1.400 . S
C243 C242 1.400 . S
C243 C244 1.398 . S
C243 C249 1.491 . S
C244 H235 0.950 . S
C244 C243 1.398 . S
C244 C245 1.391 . S
C245 H233 0.950 . S
C245 C241 1.393 . S
C245 C244 1.391 . S
C246 H236 0.950 1_655 S
C246 C247 1.386 . S
C246 C248 1.391 . S
C247 C246 1.386 . S
C247 C251 1.393 . S
C248 H237 0.950 . S
C248 C246 1.391 . S
C248 C249 1.400 . S
C249 C243 1.491 . S
C249 C248 1.400 . S
C249 C250 1.398 . S
C250 H238 0.950 . S
C250 C249 1.398 . S
C250 C251 1.391 . S
C251 H239 0.950 . S
C251 C247 1.393 . S
C251 C250 1.391 . S
H252 C260 0.950 . S
H253 C265 0.950 . S
H254 C262 0.950 . S
H255 C264 0.950 . S
H256 C266 0.950 . S
H257 C268 0.950 . S
H258 C270 0.950 . S
H259 C271 0.950 . S
C260 H252 0.950 . S
C260 C261 1.386 . S
C260 C262 1.391 . S
C261 C260 1.386 . S
C261 C265 1.393 . S
C262 H254 0.950 . S
C262 C260 1.391 . S
C262 C263 1.400 . S
C263 C262 1.400 . S
C263 C264 1.398 . S
C263 C269 1.491 . S
C264 H255 0.950 . S
C264 C263 1.398 . S
C264 C265 1.391 . S
C265 H253 0.950 . S
C265 C261 1.393 . S
C265 C264 1.391 . S
C266 H256 0.950 . S
C266 C267 1.386 . S
C266 C268 1.391 . S
C267 C266 1.386 . S
C267 C271 1.393 . S
C268 H257 0.950 . S
C268 C266 1.391 . S
C268 C269 1.400 . S
C269 C263 1.491 . S
C269 C268 1.400 . S
C269 C270 1.398 . S
C270 H258 0.950 . S
C270 C269 1.398 . S
C270 C271 1.391 . S
C271 H259 0.950 . S
C271 C267 1.393 . S
C271 C270 1.391 . S
H272 C280 0.950 . S
H273 C285 0.950 . S
H274 C282 0.950 . S
H275 C284 0.950 . S
H276 C286 0.949 . S
H277 C288 0.950 . S
H278 C290 0.950 . S
H279 C291 0.950 . S
C280 H272 0.950 . S
C280 C281 1.386 . S
C280 C282 1.391 . S
C281 C280 1.386 . S
C281 C285 1.393 . S
C282 H274 0.950 . S
C282 C280 1.391 . S
C282 C283 1.400 . S
C283 C282 1.400 . S
C283 C284 1.398 . S
C283 C289 1.491 . S
C284 H275 0.950 . S
C284 C283 1.398 . S
C284 C285 1.391 . S
C285 H273 0.950 . S
C285 C281 1.393 . S
C285 C284 1.391 . S
C286 H276 0.949 . S
C286 C287 1.386 . S
C286 C288 1.391 . S
C287 C286 1.386 . S
C287 C291 1.393 . S
C288 H277 0.950 . S
C288 C286 1.391 . S
C288 C289 1.400 . S
C289 C283 1.491 . S
C289 C288 1.400 . S
C289 C290 1.398 . S
C290 H278 0.950 . S
C290 C289 1.398 . S
C290 C291 1.391 . S
C291 H279 0.950 . S
C291 C287 1.393 . S
C291 C290 1.391 . S
H292 C300 0.950 . S
H293 C305 0.950 . S
H294 C302 0.950 . S
H295 C304 0.950 . S
H296 C306 0.950 1_554 S
H297 C308 0.950 . S
H298 C310 0.950 . S
H299 C311 0.950 . S
C300 H292 0.950 . S
C300 C301 1.386 . S
C300 C302 1.391 . S
C301 C300 1.386 . S
C301 C305 1.393 . S
C302 H294 0.950 . S
C302 C300 1.391 . S
C302 C303 1.400 . S
C303 C302 1.400 . S
C303 C304 1.398 . S
C303 C309 1.491 . S
C304 H295 0.950 . S
C304 C303 1.398 . S
C304 C305 1.391 . S
C305 H293 0.950 . S
C305 C301 1.393 . S
C305 C304 1.391 . S
C306 H296 0.950 1_556 S
C306 C307 1.386 . S
C306 C308 1.391 . S
C307 C306 1.386 . S
C307 C311 1.393 . S
C308 H297 0.950 . S
C308 C306 1.391 . S
C308 C309 1.400 . S
C309 C303 1.491 . S
C309 C308 1.400 . S
C309 C310 1.398 . S
C310 H298 0.950 . S
C310 C309 1.398 . S
C310 C311 1.391 . S
C311 H299 0.950 . S
C311 C307 1.393 . S
C311 C310 1.391 . S
H312 C320 0.950 . S
H313 C325 0.950 . S
H314 C322 0.950 . S
H315 C324 0.950 . S
H316 C326 0.950 . S
H317 C328 0.950 . S
H318 C330 0.950 . S
H319 C331 0.950 . S
C320 H312 0.950 . S
C320 C321 1.386 . S
C320 C322 1.391 . S
C321 C320 1.386 . S
C321 C325 1.393 . S
C322 H314 0.950 . S
C322 C320 1.391 . S
C322 C323 1.400 . S
C323 C322 1.400 . S
C323 C324 1.398 . S
C323 C329 1.491 . S
C324 H315 0.950 . S
C324 C323 1.398 . S
C324 C325 1.391 . S
C325 H313 0.950 . S
C325 C321 1.393 . S
C325 C324 1.391 . S
C326 H316 0.950 . S
C326 C327 1.386 . S
C326 C328 1.391 . S
C327 C326 1.386 . S
C327 C331 1.393 . S
C328 H317 0.950 . S
C328 C326 1.391 . S
C328 C329 1.400 . S
C329 C323 1.491 . S
C329 C328 1.400 . S
C329 C330 1.398 . S
C330 H318 0.950 . S
C330 C329 1.398 . S
C330 C331 1.391 . S
C331 H319 0.950 . S
C331 C327 1.393 . S
C331 C330 1.391 . S
H332 C340 0.950 . S
H333 C345 0.950 . S
H334 C342 0.950 . S
H335 C344 0.950 . S
H336 C346 0.950 . S
H337 C348 0.950 . S
H338 C350 0.950 . S
H339 C351 0.950 . S
C340 H332 0.950 . S
C340 C341 1.386 . S
C340 C342 1.391 . S
C341 C340 1.386 . S
C341 C345 1.393 . S
C342 H334 0.950 . S
C342 C340 1.391 . S
C342 C343 1.400 . S
C343 C342 1.400 . S
C343 C344 1.398 . S
C343 C349 1.491 . S
C344 H335 0.950 . S
C344 C343 1.398 . S
C344 C345 1.391 . S
C345 H333 0.950 . S
C345 C341 1.393 . S
C345 C344 1.391 . S
C346 H336 0.950 . S
C346 C347 1.386 . S
C346 C348 1.391 . S
C347 C346 1.386 . S
C347 C351 1.393 . S
C348 H337 0.950 . S
C348 C346 1.391 . S
C348 C349 1.400 . S
C349 C343 1.491 . S
C349 C348 1.400 . S
C349 C350 1.398 . S
C350 H338 0.950 . S
C350 C349 1.398 . S
C350 C351 1.391 . S
C351 H339 0.950 . S
C351 C347 1.393 . S
C351 C350 1.391 . S
H352 C360 0.950 . S
H353 C365 0.950 . S
H354 C362 0.950 . S
H355 C364 0.950 . S
H356 C366 0.950 . S
H357 C368 0.950 . S
H358 C370 0.950 . S
H359 C371 0.950 . S
C360 H352 0.950 . S
C360 C361 1.386 . S
C360 C362 1.391 . S
C361 C360 1.386 . S
C361 C365 1.393 . S
C362 H354 0.950 . S
C362 C360 1.391 . S
C362 C363 1.400 . S
C363 C362 1.400 . S
C363 C364 1.398 . S
C363 C369 1.491 . S
C364 H355 0.950 . S
C364 C363 1.398 . S
C364 C365 1.391 . S
C365 H353 0.950 . S
C365 C361 1.393 . S
C365 C364 1.391 . S
C366 H356 0.950 . S
C366 C367 1.386 . S
C366 C368 1.391 . S
C367 C366 1.386 . S
C367 C371 1.393 1_554 S
C368 H357 0.950 . S
C368 C366 1.391 . S
C368 C369 1.400 1_554 S
C369 C363 1.491 . S
C369 C368 1.400 1_556 S
C369 C370 1.398 . S
C370 H358 0.950 . S
C370 C369 1.398 . S
C370 C371 1.391 . S
C371 H359 0.950 . S
C371 C367 1.393 1_556 S
C371 C370 1.391 . S
H372 C380 0.950 . S
H373 C385 0.950 . S
H374 C382 0.950 . S
H375 C384 0.950 . S
H376 C386 0.950 . S
H377 C388 0.950 . S
H378 C390 0.950 . S
H379 C391 0.950 1_455 S
C380 H372 0.950 . S
C380 C381 1.386 . S
C380 C382 1.391 . S
C381 C380 1.386 . S
C381 C385 1.393 . S
C382 H374 0.950 . S
C382 C380 1.391 . S
C382 C383 1.400 . S
C383 C382 1.400 . S
C383 C384 1.398 . S
C383 C389 1.491 . S
C384 H375 0.950 . S
C384 C383 1.398 . S
C384 C385 1.391 . S
C385 H373 0.950 . S
C385 C381 1.393 . S
C385 C384 1.391 . S
C386 H376 0.950 . S
C386 C387 1.386 . S
C386 C388 1.391 . S
C387 C386 1.386 . S
C387 C391 1.393 . S
C388 H377 0.950 . S
C388 C386 1.391 . S
C388 C389 1.400 . S
C389 C383 1.491 . S
C389 C388 1.400 . S
C389 C390 1.398 . S
C390 H378 0.950 . S
C390 C389 1.398 . S
C390 C391 1.391 . S
C391 H379 0.950 1_655 S
C391 C387 1.393 . S
C391 C390 1.391 . S
H392 C400 0.950 . S
H393 C405 0.950 . S
H394 C402 0.950 . S
H395 C404 0.950 . S
H396 C406 0.950 . S
H397 C408 0.950 . S
H398 C410 0.950 . S
H399 C411 0.950 . S
C400 H392 0.950 . S
C400 C401 1.386 . S
C400 C402 1.391 . S
C401 C400 1.386 . S
C401 C405 1.393 . S
C402 H394 0.950 . S
C402 C400 1.391 . S
C402 C403 1.400 . S
C403 C402 1.400 . S
C403 C404 1.398 . S
C403 C409 1.491 . S
C404 H395 0.950 . S
C404 C403 1.398 . S
C404 C405 1.391 . S
C405 H393 0.950 . S
C405 C401 1.393 . S
C405 C404 1.391 . S
C406 H396 0.950 . S
C406 C407 1.386 . S
C406 C408 1.391 . S
C407 C406 1.386 . S
C407 C411 1.393 . S
C408 H397 0.950 . S
C408 C406 1.391 . S
C408 C409 1.400 . S
C409 C403 1.491 . S
C409 C408 1.400 . S
C409 C410 1.398 . S
C410 H398 0.950 . S
C410 C409 1.398 . S
C410 C411 1.391 . S
C411 H399 0.950 . S
C411 C407 1.393 . S
C411 C410 1.391 . S
H412 C420 0.950 . S
H413 C425 0.950 . S
H414 C422 0.950 . S
H415 C424 0.950 . S
H416 C426 0.950 . S
H417 C428 0.950 . S
H418 C430 0.950 . S
H419 C431 0.950 . S
C420 H412 0.950 . S
C420 C421 1.386 1_445 S
C420 C422 1.391 . S
C421 C420 1.386 1_665 S
C421 C425 1.393 . S
C422 H414 0.950 . S
C422 C420 1.391 . S
C422 C423 1.400 1_445 S
C423 C422 1.400 1_665 S
C423 C424 1.398 . S
C423 C429 1.491 1_565 S
C424 H415 0.950 . S
C424 C423 1.398 . S
C424 C425 1.391 . S
C425 H413 0.950 . S
C425 C421 1.393 . S
C425 C424 1.391 . S
C426 H416 0.950 . S
C426 C427 1.386 1_565 S
C426 C428 1.391 . S
C427 C426 1.386 1_545 S
C427 C431 1.393 1_655 S
C428 H417 0.950 . S
C428 C426 1.391 . S
C428 C429 1.400 1_565 S
C429 C423 1.491 1_545 S
C429 C428 1.400 1_545 S
C429 C430 1.398 1_655 S
C430 H418 0.950 . S
C430 C429 1.398 1_455 S
C430 C431 1.391 . S
C431 H419 0.950 . S
C431 C427 1.393 1_455 S
C431 C430 1.391 . S
H432 C440 0.950 . S
H433 C445 0.950 . S
H434 C442 0.950 . S
H435 C444 0.950 . S
H436 C446 0.950 . S
H437 C448 0.950 . S
H438 C450 0.950 . S
H439 C451 0.950 . S
C440 H432 0.950 . S
C440 C441 1.386 . S
C440 C442 1.391 . S
C441 C440 1.386 . S
C441 C445 1.393 . S
C442 H434 0.950 . S
C442 C440 1.391 . S
C442 C443 1.400 . S
C443 C442 1.400 . S
C443 C444 1.398 . S
C443 C449 1.491 . S
C444 H435 0.950 . S
C444 C443 1.398 . S
C444 C445 1.391 . S
C445 H433 0.950 . S
C445 C441 1.393 . S
C445 C444 1.391 . S
C446 H436 0.950 . S
C446 C447 1.386 . S
C446 C448 1.391 . S
C447 C446 1.386 . S
C447 C451 1.393 . S
C448 H437 0.950 . S
C448 C446 1.391 . S
C448 C449 1.400 . S
C449 C443 1.491 . S
C449 C448 1.400 . S
C449 C450 1.398 . S
C450 H438 0.950 . S
C450 C449 1.398 . S
C450 C451 1.391 . S
C451 H439 0.950 . S
C451 C447 1.393 . S
C451 C450 1.391 . S
H452 C460 0.950 . S
H453 C465 0.950 . S
H454 C462 0.950 . S
H455 C464 0.950 . S
H456 C466 0.950 . S
H457 C468 0.950 . S
H458 C470 0.950 . S
H459 C471 0.950 . S
C460 H452 0.950 . S
C460 C461 1.386 . S
C460 C462 1.391 . S
C461 C460 1.386 . S
C461 C465 1.393 . S
C462 H454 0.950 . S
C462 C460 1.391 . S
C462 C463 1.400 . S
C463 C462 1.400 . S
C463 C464 1.398 . S
C463 C469 1.491 . S
C464 H455 0.950 . S
C464 C463 1.398 . S
C464 C465 1.391 . S
C465 H453 0.950 . S
C465 C461 1.393 . S
C465 C464 1.391 . S
C466 H456 0.950 . S
C466 C467 1.386 . S
C466 C468 1.391 . S
C467 C466 1.386 . S
C467 C471 1.393 . S
C468 H457 0.950 . S
C468 C466 1.391 . S
C468 C469 1.400 . S
C469 C463 1.491 . S
C469 C468 1.400 . S
C469 C470 1.398 . S
C470 H458 0.950 . S
C470 C469 1.398 . S
C470 C471 1.391 . S
C471 H459 0.950 . S
C471 C467 1.393 . S
C471 C470 1.391 . S
H472 C480 0.950 . S
H473 C485 0.950 . S
H474 C482 0.950 . S
H475 C484 0.950 . S
H476 C486 0.950 . S
H477 C488 0.950 . S
H478 C490 0.950 . S
H479 C491 0.950 . S
C480 H472 0.950 . S
C480 C481 1.386 . S
C480 C482 1.391 . S
C481 C480 1.386 . S
C481 C485 1.393 . S
C482 H474 0.950 . S
C482 C480 1.391 . S
C482 C483 1.400 . S
C483 C482 1.400 . S
C483 C484 1.398 . S
C483 C489 1.491 . S
C484 H475 0.950 . S
C484 C483 1.398 . S
C484 C485 1.391 . S
C485 H473 0.950 . S
C485 C481 1.393 . S
C485 C484 1.391 . S
C486 H476 0.950 . S
C486 C487 1.386 . S
C486 C488 1.391 . S
C487 C486 1.386 . S
C487 C491 1.393 . S
C488 H477 0.950 . S
C488 C486 1.391 . S
C488 C489 1.400 . S
C489 C483 1.491 . S
C489 C488 1.400 . S
C489 C490 1.398 . S
C490 H478 0.950 . S
C490 C489 1.398 . S
C490 C491 1.391 . S
C491 H479 0.950 . S
C491 C487 1.393 . S
C491 C490 1.391 . S
H492 C500 0.950 . S
H493 C505 0.950 . S
H494 C502 0.950 . S
H495 C504 0.950 . S
H496 C506 0.950 . S
H497 C508 0.950 1_556 S
H498 C510 0.950 . S
H499 C511 0.950 . S
C500 H492 0.950 . S
C500 C501 1.372 1_554 S
C500 C502 1.391 . S
C501 C500 1.372 1_556 S
C501 C505 1.401 1_565 S
C502 H494 0.950 . S
C502 C500 1.391 . S
C502 C503 1.408 . S
C503 C502 1.408 . S
C503 C504 1.393 1_564 S
C503 C509 1.489 1_565 S
C504 H495 0.950 . S
C504 C503 1.393 1_546 S
C504 C505 1.391 . S
C505 H493 0.950 . S
C505 C501 1.401 1_545 S
C505 C504 1.391 . S
C506 H496 0.950 . S
C506 C507 1.386 . S
C506 C508 1.391 . S
C507 C506 1.386 . S
C507 C511 1.393 1_545 S
C508 H497 0.950 1_554 S
C508 C506 1.391 . S
C508 C509 1.400 . S
C509 C503 1.489 1_545 S
C509 C508 1.400 . S
C509 C510 1.398 1_545 S
C510 H498 0.950 . S
C510 C509 1.398 1_565 S
C510 C511 1.391 . S
C511 H499 0.950 . S
C511 C507 1.393 1_565 S
C511 C510 1.391 . S
H512 C520 0.950 . S
H513 C525 0.950 . S
H514 C522 0.950 . S
H515 C524 0.950 . S
H516 C526 0.950 . S
H517 C528 0.950 . S
H518 C530 0.950 . S
H519 C531 0.950 . S
C520 H512 0.950 . S
C520 C521 1.386 . S
C520 C522 1.391 . S
C521 C520 1.386 . S
C521 C525 1.393 . S
C522 H514 0.950 . S
C522 C520 1.391 . S
C522 C523 1.400 . S
C523 C522 1.400 . S
C523 C524 1.398 . S
C523 C529 1.491 . S
C524 H515 0.950 . S
C524 C523 1.398 . S
C524 C525 1.391 . S
C525 H513 0.950 . S
C525 C521 1.393 . S
C525 C524 1.391 . S
C526 H516 0.950 . S
C526 C527 1.386 . S
C526 C528 1.391 . S
C527 C526 1.386 . S
C527 C531 1.393 . S
C528 H517 0.950 . S
C528 C526 1.391 . S
C528 C529 1.400 . S
C529 C523 1.491 . S
C529 C528 1.400 . S
C529 C530 1.398 . S
C530 H518 0.950 . S
C530 C529 1.398 . S
C530 C531 1.391 . S
C531 H519 0.950 . S
C531 C527 1.393 . S
C531 C530 1.391 . S
H532 C540 0.950 . S
H533 C545 0.950 . S
H534 C542 0.950 . S
H535 C544 0.950 . S
H536 C546 0.950 1_556 S
H537 C548 0.950 . S
H538 C550 0.950 . S
H539 C551 0.950 . S
C540 H532 0.950 . S
C540 C541 1.386 . S
C540 C542 1.391 . S
C541 C540 1.386 . S
C541 C545 1.393 . S
C542 H534 0.950 . S
C542 C540 1.391 . S
C542 C543 1.400 . S
C543 C542 1.400 . S
C543 C544 1.398 . S
C543 C549 1.491 . S
C544 H535 0.950 . S
C544 C543 1.398 . S
C544 C545 1.391 . S
C545 H533 0.950 . S
C545 C541 1.393 . S
C545 C544 1.391 . S
C546 H536 0.950 1_554 S
C546 C547 1.386 . S
C546 C548 1.391 . S
C547 C546 1.386 . S
C547 C551 1.393 . S
C548 H537 0.950 . S
C548 C546 1.391 . S
C548 C549 1.400 . S
C549 C543 1.491 . S
C549 C548 1.400 . S
C549 C550 1.398 . S
C550 H538 0.950 . S
C550 C549 1.398 . S
C550 C551 1.391 . S
C551 H539 0.950 . S
C551 C547 1.393 . S
C551 C550 1.391 . S
H552 C560 0.950 . S
H553 C565 0.950 . S
H554 C562 0.950 . S
H555 C564 0.950 . S
H556 C566 0.950 . S
H557 C568 0.950 . S
H558 C570 0.950 . S
H559 C571 0.950 . S
C560 H552 0.950 . S
C560 C561 1.386 . S
C560 C562 1.391 . S
C561 C560 1.386 . S
C561 C565 1.393 . S
C562 H554 0.950 . S
C562 C560 1.391 . S
C562 C563 1.400 . S
C563 C562 1.400 . S
C563 C564 1.398 . S
C563 C569 1.491 . S
C564 H555 0.950 . S
C564 C563 1.398 . S
C564 C565 1.391 . S
C565 H553 0.950 . S
C565 C561 1.393 . S
C565 C564 1.391 . S
C566 H556 0.950 . S
C566 C567 1.386 . S
C566 C568 1.391 . S
C567 C566 1.386 . S
C567 C571 1.393 . S
C568 H557 0.950 . S
C568 C566 1.391 . S
C568 C569 1.400 . S
C569 C563 1.491 . S
C569 C568 1.400 . S
C569 C570 1.398 . S
C570 H558 0.950 . S
C570 C569 1.398 . S
C570 C571 1.391 . S
C571 H559 0.950 . S
C571 C567 1.393 . S
C571 C570 1.391 . S
H572 C580 0.950 . S
H573 C585 0.950 . S
H574 C582 0.950 . S
H575 C584 0.949 . S
H576 C586 0.950 . S
H577 C588 0.950 . S
H578 C590 0.950 . S
H579 C591 0.950 . S
C580 H572 0.950 . S
C580 C581 1.386 . S
C580 C582 1.391 . S
C581 C580 1.386 . S
C581 C585 1.393 1_655 S
C582 H574 0.950 . S
C582 C580 1.391 . S
C582 C583 1.400 . S
C583 C582 1.400 . S
C583 C584 1.398 1_655 S
C583 C589 1.491 1_655 S
C584 H575 0.949 . S
C584 C583 1.398 1_455 S
C584 C585 1.391 . S
C585 H573 0.950 . S
C585 C581 1.393 1_455 S
C585 C584 1.391 . S
C586 H576 0.950 . S
C586 C587 1.386 1_554 S
C586 C588 1.391 . S
C587 C586 1.386 1_556 S
C587 C591 1.393 1_455 S
C588 H577 0.950 . S
C588 C586 1.391 . S
C588 C589 1.400 1_554 S
C589 C583 1.491 1_455 S
C589 C588 1.400 1_556 S
C589 C590 1.398 1_455 S
C590 H578 0.950 . S
C590 C589 1.398 1_655 S
C590 C591 1.391 . S
C591 H579 0.950 . S
C591 C587 1.393 1_655 S
C591 C590 1.391 . S
H592 C600 0.950 . S
H593 C605 0.950 . S
H594 C602 0.950 . S
H595 C604 0.950 . S
H596 C606 0.950 . S
H597 C608 0.950 . S
H598 C610 0.950 . S
H599 C611 0.950 . S
C600 H592 0.950 . S
C600 C601 1.386 . S
C600 C602 1.391 . S
C601 C600 1.386 . S
C601 C605 1.393 . S
C602 H594 0.950 . S
C602 C600 1.391 . S
C602 C603 1.400 . S
C603 C602 1.400 . S
C603 C604 1.398 . S
C603 C609 1.491 . S
C604 H595 0.950 . S
C604 C603 1.398 . S
C604 C605 1.391 . S
C605 H593 0.950 . S
C605 C601 1.393 . S
C605 C604 1.391 . S
C606 H596 0.950 . S
C606 C607 1.386 . S
C606 C608 1.391 . S
C607 C606 1.386 . S
C607 C611 1.393 . S
C608 H597 0.950 . S
C608 C606 1.391 . S
C608 C609 1.400 . S
C609 C603 1.491 . S
C609 C608 1.400 . S
C609 C610 1.398 . S
C610 H598 0.950 . S
C610 C609 1.398 . S
C610 C611 1.391 . S
C611 H599 0.950 . S
C611 C607 1.393 . S
C611 C610 1.391 . S
H612 C620 0.950 . S
H613 C625 0.950 . S
H614 C622 0.950 . S
H615 C624 0.950 . S
H616 C626 0.950 . S
H617 C628 0.950 . S
H618 C630 0.950 . S
H619 C631 0.950 . S
C620 H612 0.950 . S
C620 C621 1.386 . S
C620 C622 1.391 . S
C621 C620 1.386 . S
C621 C625 1.393 . S
C622 H614 0.950 . S
C622 C620 1.391 . S
C622 C623 1.400 . S
C623 C622 1.400 . S
C623 C624 1.398 . S
C623 C629 1.491 . S
C624 H615 0.950 . S
C624 C623 1.398 . S
C624 C625 1.391 . S
C625 H613 0.950 . S
C625 C621 1.393 . S
C625 C624 1.391 . S
C626 H616 0.950 . S
C626 C627 1.386 . S
C626 C628 1.391 . S
C627 C626 1.386 . S
C627 C631 1.393 . S
C628 H617 0.950 . S
C628 C626 1.391 . S
C628 C629 1.400 . S
C629 C623 1.491 . S
C629 C628 1.400 . S
C629 C630 1.398 . S
C630 H618 0.950 . S
C630 C629 1.398 . S
C630 C631 1.391 . S
C631 H619 0.950 . S
C631 C627 1.393 . S
C631 C630 1.391 . S
H632 C640 0.950 . S
H633 C645 0.950 . S
H634 C642 0.950 . S
H635 C644 0.950 . S
H636 C646 0.950 . S
H637 C648 0.950 . S
H638 C650 0.950 . S
H639 C651 0.950 . S
C640 H632 0.950 . S
C640 C641 1.386 . S
C640 C642 1.391 . S
C641 C640 1.386 . S
C641 C645 1.393 . S
C642 H634 0.950 . S
C642 C640 1.391 . S
C642 C643 1.400 . S
C643 C642 1.400 . S
C643 C644 1.398 . S
C643 C649 1.491 . S
C644 H635 0.950 . S
C644 C643 1.398 . S
C644 C645 1.391 . S
C645 H633 0.950 . S
C645 C641 1.393 . S
C645 C644 1.391 . S
C646 H636 0.950 . S
C646 C647 1.386 . S
C646 C648 1.391 . S
C647 C646 1.386 . S
C647 C651 1.393 . S
C648 H637 0.950 . S
C648 C646 1.391 . S
C648 C649 1.400 . S
C649 C643 1.491 . S
C649 C648 1.400 . S
C649 C650 1.398 . S
C650 H638 0.950 . S
C650 C649 1.398 . S
C650 C651 1.391 . S
C651 H639 0.950 . S
C651 C647 1.393 . S
C651 C650 1.391 . S
C181 C6 1.715 . S
C187 C91 1.605 . S
C201 C20 1.818 . S
C207 C125 1.695 1_565 S
C227 C137 1.079 . S
C221 N26 1.115 . S
C241 N37 1.363 . S
C247 C171 1.243 . S
C267 C128 1.814 . S
C261 C9 1.965 . S
C287 C108 1.245 . S
C281 N15 1.321 . S
C307 C155 1.282 . S
C301 C31 1.407 . S
C327 C146 1.381 . S
C321 C39 1.430 . S
C341 N4 1.578 . S
C347 C154 1.487 . S
C367 C116 1.467 . S
C361 C28 1.606 . S
C381 C42 1.297 . S
C387 C92 1.195 . S
C401 C17 1.655 . S
C407 C149 1.541 . S
C427 C107 1.760 . S
C421 C50 1.894 . S
C441 C61 1.635 . S
C447 C129 1.529 . S
C461 N70 1.486 . S
C467 C134 1.417 . S
C481 N81 1.346 . S
C487 C167 1.283 . S
C501 N48 1.490 . S
C507 C112 1.411 1_545 S
C527 C104 1.797 . S
C521 C64 1.935 . S
C547 C158 1.443 . S
C541 C75 1.462 . S
C567 C150 1.369 . S
C561 C86 1.456 . S
C581 C53 1.817 . S
C587 C170 1.734 . S
C607 C113 1.256 . S
C601 C72 1.347 . S
C627 C95 1.544 . S
C621 C83 1.654 . S
C641 N59 1.575 . S
C647 C133 1.502 . S
