# Generated by pormake.
# Topology ftw, (4,12)-cn, num edge types: 1
# Building blocks:
#     Node 0, Type 0, BuildingBlock: NAHDIM_clean_linker_0, # of connection points: 4
#     Node 1, Type 0, BuildingBlock: NAHDIM_clean_linker_0, # of connection points: 4
#     Node 2, Type 0, BuildingBlock: NAHDIM_clean_linker_0, # of connection points: 4
#     Node 3, Type 1, BuildingBlock: QEWDON_clean_sbu_0, # of connection points: 12
#     Edge 4, Type (0, 1), BuildingBlock: EYOCIG_clean_linker_4, # of connection points: 2
#     Edge 5, Type (0, 1), BuildingBlock: EYOCIG_clean_linker_4, # of connection points: 2
#     Edge 6, Type (0, 1), BuildingBlock: EYOCIG_clean_linker_4, # of connection points: 2
#     Edge 7, Type (0, 1), BuildingBlock: EYOCIG_clean_linker_4, # of connection points: 2
#     Edge 8, Type (0, 1), BuildingBlock: EYOCIG_clean_linker_4, # of connection points: 2
#     Edge 9, Type (0, 1), BuildingBlock: EYOCIG_clean_linker_4, # of connection points: 2
#     Edge 10, Type (0, 1), BuildingBlock: EYOCIG_clean_linker_4, # of connection points: 2
#     Edge 11, Type (0, 1), BuildingBlock: EYOCIG_clean_linker_4, # of connection points: 2
#     Edge 12, Type (0, 1), BuildingBlock: EYOCIG_clean_linker_4, # of connection points: 2
#     Edge 13, Type (0, 1), BuildingBlock: EYOCIG_clean_linker_4, # of connection points: 2
#     Edge 14, Type (0, 1), BuildingBlock: EYOCIG_clean_linker_4, # of connection points: 2
#     Edge 15, Type (0, 1), BuildingBlock: EYOCIG_clean_linker_4, # of connection points: 2
# Relax obj value: 0.037
# Max RMSD: 0.108
# Mean RMSD: 0.083
data_MOF--net-ftw--node1-QEWDON_clean_sbu_0--node2-NAHDIM_clean_linker_0--edge1-EYOCIG_clean_linker_4
_symmetry_space_group_name_H-M    P1
_symmetry_Int_Tables_number       1
_symmetry_cell_setting            triclinic
loop_
_symmetry_equiv_pos_as_xyz
'x, y, z'
_cell_length_a     28.316309
_cell_length_b     27.812227
_cell_length_c     28.530255
_cell_angle_alpha  90.737565
_cell_angle_beta   89.035706
_cell_angle_gamma 90.136845
loop_
_atom_site_label
_atom_site_type_symbol
_atom_site_fract_x
_atom_site_fract_y
_atom_site_fract_z
_atom_type_partial_charge
C0 C 0.05547 0.67533 0.22375 0.0
C1 C 0.0146 0.70109 0.24924 0.0
C2 C 0.01833 0.67328 0.32835 0.0
C3 C 0.97308 0.65481 0.33719 0.0
C4 C 0.96647 0.61582 0.36725 0.0
C5 C 0.00612 0.59485 0.38847 0.0
C6 C 0.05166 0.61478 0.381 0.0
C7 C 0.05707 0.65438 0.3514 0.0
C8 C 0.91734 0.59615 0.37527 0.0
C9 C 0.09473 0.59314 0.40288 0.0
C10 C 0.95109 0.23367 0.31323 0.0
C11 C 0.98295 0.2655 0.28273 0.0
C12 C 0.00898 0.33142 0.33418 0.0
C13 C 0.04772 0.351 0.35728 0.0
C14 C 0.04386 0.39407 0.38307 0.0
C15 C -0.00021 0.41789 0.38617 0.0
C16 C 0.9603 0.39843 0.3629 0.0
C17 C 0.96523 0.35538 0.33708 0.0
C18 C 0.08688 0.41402 0.40714 0.0
C19 C 0.91283 0.42297 0.36569 0.0
C20 C 0.98458 0.32323 0.67882 0.0
C21 C 0.02657 0.34112 0.65848 0.0
C22 C 0.02824 0.38722 0.6391 0.0
C23 C 0.98673 0.41548 0.63846 0.0
C24 C 0.94463 0.39797 0.65952 0.0
C25 C 0.94433 0.35226 0.67991 0.0
C26 C 0.07425 0.40515 0.61816 0.0
C27 C 0.89966 0.42691 0.65922 0.0
C28 C 0.02626 0.79201 0.64446 0.0
C29 C 0.00788 0.77154 0.69081 0.0
C30 C 0.02033 0.68459 0.68237 0.0
C31 C 0.05753 0.65266 0.67368 0.0
C32 C 0.0496 0.60734 0.65312 0.0
C33 C 0.00298 0.59327 0.64214 0.0
C34 C 0.9648 0.62419 0.6536 0.0
C35 C 0.97385 0.66971 0.67339 0.0
C36 C 0.09117 0.57523 0.64151 0.0
C37 C 0.91458 0.60963 0.64358 0.0
C38 C 0.00029 0.55021 0.41582 0.0
C39 C -0.00017 0.50658 0.391 0.0
C40 C -0.00479 0.46292 0.41423 0.0
C41 C 0.98987 0.46251 0.46354 0.0
C42 C 0.98332 0.41929 0.4878 0.0
C43 C 0.98082 0.41899 0.53649 0.0
C44 C 0.98551 0.46182 0.56282 0.0
C45 C 0.98667 0.46143 0.61238 0.0
C46 C 0.9912 0.50475 0.63748 0.0
C47 C -0.00511 0.54867 0.61422 0.0
C48 C -0.00601 0.54964 0.56467 0.0
C49 C -0.00209 0.59314 0.54015 0.0
C50 C -0.00117 0.59358 0.49141 0.0
C51 C -0.0032 0.55049 0.46529 0.0
C52 C 0.99178 0.50638 0.48922 0.0
C53 C 0.98995 0.506 0.53896 0.0
C54 C 0.00835 0.21499 0.64673 0.0
C55 C 0.01347 0.24137 0.69375 0.0
O56 O 0.02542 0.7078 0.29597 0.0
O57 O 0.03083 0.72887 0.70005 0.0
O58 O 0.98105 0.27852 0.69751 0.0
O59 O 0.01556 0.28948 0.30995 0.0
H60 H 0.9818 0.67947 0.24513 0.0
H61 H 0.06081 0.63929 0.23912 0.0
H62 H 0.08877 0.69628 0.22714 0.0
H63 H 0.04761 0.6703 0.18596 0.0
H64 H 0.94312 0.67051 0.31995 0.0
H65 H 0.09183 0.66932 0.34437 0.0
H66 H 0.91473 0.55984 0.35888 0.0
H67 H 0.88984 0.61949 0.36018 0.0
H68 H 0.91007 0.59232 0.41342 0.0
H69 H 0.12778 0.61211 0.39251 0.0
H70 H 0.09786 0.5547 0.3923 0.0
H71 H 0.09097 0.59461 0.44165 0.0
H72 H 0.96125 0.2912 0.26283 0.0
H73 H 0.92497 0.21434 0.29119 0.0
H74 H 0.93129 0.25585 0.33947 0.0
H75 H 0.97242 0.20689 0.3322 0.0
H76 H 0.08123 0.3323 0.35493 0.0
H77 H 0.93465 0.34073 0.31973 0.0
H78 H 0.08133 0.41281 0.44571 0.0
H79 H 0.09236 0.45223 0.39755 0.0
H80 H 0.11939 0.39348 0.39786 0.0
H81 H 0.88495 0.40208 0.3475 0.0
H82 H 0.91558 0.45902 0.34957 0.0
H83 H 0.90194 0.42838 0.40296 0.0
H84 H 0.05017 0.25464 0.6977 0.0
H85 H 0.05825 0.31956 0.65722 0.0
H86 H 0.91214 0.33837 0.69582 0.0
H87 H 0.07256 0.40323 0.57934 0.0
H88 H 0.10483 0.38336 0.62927 0.0
H89 H 0.08045 0.44328 0.6284 0.0
H90 H 0.86953 0.40769 0.67603 0.0
H91 H 0.89037 0.43527 0.62254 0.0
H92 H 0.90508 0.46163 0.67803 0.0
H93 H 0.96906 0.76683 0.68929 0.0
H94 H 0.00868 0.82674 0.63711 0.0
H95 H 0.01852 0.76649 0.6153 0.0
H96 H 0.0651 0.79782 0.64554 0.0
H97 H 0.09318 0.66414 0.68154 0.0
H98 H 0.94443 0.69308 0.68195 0.0
H99 H 0.09334 0.5687 0.60305 0.0
H100 H 0.08621 0.53984 0.65848 0.0
H101 H 0.12515 0.59106 0.65314 0.0
H102 H 0.8885 0.63519 0.65927 0.0
H103 H 0.90737 0.57313 0.65737 0.0
H104 H 0.90953 0.60812 0.60508 0.0
H105 H 0.00401 0.50655 0.35311 0.0
H106 H 0.98037 0.38514 0.46941 0.0
H107 H 0.97594 0.38457 0.55319 0.0
H108 H -0.00699 0.50419 0.67541 0.0
H109 H 0.00064 0.62742 0.5583 0.0
H110 H 0.00207 0.62806 0.47446 0.0
H111 H 0.03373 0.18462 0.64389 0.0
H112 H 0.01593 0.24 0.61751 0.0
H113 H 0.97184 0.20083 0.64292 0.0
C114 C 0.70288 0.10986 0.76483 0.0
C115 C 0.70714 0.05564 0.75626 0.0
C116 C 0.67334 0.03359 0.68225 0.0
C117 C 0.66325 0.98527 0.67288 0.0
C118 C 0.62447 0.97221 0.64535 0.0
C119 C 0.59537 0.00854 0.62699 0.0
C120 C 0.60581 0.05754 0.63638 0.0
C121 C 0.64515 0.06948 0.66349 0.0
C122 C 0.61454 0.9197 0.63592 0.0
C123 C 0.57535 0.09729 0.61794 0.0
C124 C 0.31708 0.88393 0.78547 0.0
C125 C 0.31192 0.93073 0.75863 0.0
C126 C 0.34953 0.93388 0.68231 0.0
C127 C 0.36265 0.98219 0.67801 0.0
C128 C 0.40132 -0.00463 0.64949 0.0
C129 C 0.4278 0.95921 0.62557 0.0
C130 C 0.41424 0.91035 0.62974 0.0
C131 C 0.37453 0.89843 0.65739 0.0
C132 C 0.41414 0.04785 0.64533 0.0
C133 C 0.44227 0.87064 0.60592 0.0
C134 C 0.34581 0.96619 0.31824 0.0
C135 C 0.3551 0.01011 0.34137 0.0
C136 C 0.39626 0.01649 0.36757 0.0
C137 C 0.42856 0.97803 0.37137 0.0
C138 C 0.41952 0.93392 0.34791 0.0
C139 C 0.37855 0.92885 0.32117 0.0
C140 C 0.40543 0.06456 0.39095 0.0
C141 C 0.45303 0.89207 0.35132 0.0
C142 C 0.7908 0.08608 0.34113 0.0
C143 C 0.76755 0.04703 0.3112 0.0
C144 C 0.68212 0.04598 0.3243 0.0
C145 C 0.64713 0.07991 0.33488 0.0
C146 C 0.60574 0.06701 0.35948 0.0
C147 C 0.59877 0.0186 0.37271 0.0
C148 C 0.63323 0.98366 0.36039 0.0
C149 C 0.67465 -0.00227 0.33636 0.0
C150 C 0.56972 0.10521 0.37182 0.0
C151 C 0.62628 0.93149 0.37272 0.0
C152 C 0.5537 -0.00454 0.59845 0.0
C153 C 0.51197 0.98275 0.62209 0.0
C154 C 0.47065 0.97236 0.59773 0.0
C155 C 0.47069 0.97494 0.54821 0.0
C156 C 0.42951 0.96606 0.52259 0.0
C157 C 0.42995 0.96859 0.47389 0.0
C158 C 0.47147 0.98064 0.44889 0.0
C159 C 0.47202 0.9843 0.39944 0.0
C160 C 0.51408 -0.004 0.37574 0.0
C161 C 0.55577 0.00479 0.40007 0.0
C162 C 0.55573 0.00184 0.44956 0.0
C163 C 0.59681 0.01115 0.47524 0.0
C164 C 0.59636 0.00865 0.52392 0.0
C165 C 0.55473 -0.00295 0.5489 0.0
C166 C 0.51299 0.98704 0.52373 0.0
C167 C 0.51344 0.98965 0.47401 0.0
C168 C 0.23457 0.95231 0.33601 0.0
C169 C 0.26269 0.97964 0.29867 0.0
O170 O 0.7109 0.04549 0.70876 0.0
O171 O 0.72183 0.0607 0.30117 0.0
O172 O 0.30669 0.95867 0.29192 0.0
O173 O 0.31323 0.92081 0.71098 0.0
H174 H 0.67574 0.03737 0.77204 0.0
H175 H 0.66913 0.12318 0.75074 0.0
H176 H 0.73265 0.12924 0.74751 0.0
H177 H 0.70289 0.11826 0.80304 0.0
H178 H 0.68571 0.95788 0.68736 0.0
H179 H 0.65394 0.10683 0.67013 0.0
H180 H 0.58029 0.90968 0.65264 0.0
H181 H 0.64253 0.89604 0.64967 0.0
H182 H 0.61146 0.91306 0.59762 0.0
H183 H 0.58566 0.13318 0.632 0.0
H184 H 0.53769 0.09056 0.62726 0.0
H185 H 0.5784 0.09795 0.57913 0.0
H186 H 0.34121 0.95525 0.76902 0.0
H187 H 0.31643 0.89116 0.82389 0.0
H188 H 0.35135 0.86676 0.77594 0.0
H189 H 0.2881 0.85848 0.77672 0.0
H190 H 0.34254 0.00947 0.697 0.0
H191 H 0.36385 0.8612 0.66105 0.0
H192 H 0.44785 0.0548 0.66355 0.0
H193 H 0.38657 0.07174 0.66103 0.0
H194 H 0.41953 0.05733 0.60792 0.0
H195 H 0.43003 0.83439 0.61671 0.0
H196 H 0.4803 0.87442 0.61416 0.0
H197 H 0.43891 0.87333 0.56735 0.0
H198 H 0.2654 0.0179 0.30951 0.0
H199 H 0.33126 0.0401 0.3384 0.0
H200 H 0.37145 0.89525 0.30292 0.0
H201 H 0.40398 0.06049 0.42959 0.0
H202 H 0.37922 0.09217 0.38114 0.0
H203 H 0.44134 0.07766 0.38133 0.0
H204 H 0.43931 0.85912 0.33379 0.0
H205 H 0.45951 0.8841 0.38871 0.0
H206 H 0.48751 0.90166 0.33481 0.0
H207 H 0.7685 0.0128 0.33076 0.0
H208 H 0.82758 0.07578 0.34952 0.0
H209 H 0.77064 0.09079 0.37461 0.0
H210 H 0.79137 0.12097 0.32253 0.0
H211 H 0.65288 0.11689 0.32468 0.0
H212 H 0.70064 0.97087 0.32635 0.0
H213 H 0.56257 0.10563 0.41022 0.0
H214 H 0.53596 0.09673 0.35425 0.0
H215 H 0.58151 0.14164 0.3611 0.0
H216 H 0.6546 0.90815 0.35759 0.0
H217 H 0.59162 0.91857 0.35989 0.0
H218 H 0.62592 0.92774 0.41142 0.0
H219 H 0.51152 0.98136 0.6601 0.0
H220 H 0.39641 0.95708 0.53993 0.0
H221 H 0.39723 0.96116 0.45607 0.0
H222 H 0.51421 -0.00101 0.33785 0.0
H223 H 0.62983 0.0206 0.458 0.0
H224 H 0.62907 0.01608 0.54176 0.0
H225 H 0.19905 0.96861 0.34139 0.0
H226 H 0.25334 0.95411 0.36986 0.0
H227 H 0.2304 0.91391 0.32554 0.0
C228 C 0.74049 0.76781 0.90034 0.0
C229 C 0.72545 0.73852 0.94299 0.0
C230 C 0.66604 0.67579 0.94996 0.0
C231 C 0.65995 0.67744 0.99891 0.0
C232 C 0.62117 0.65479 0.02055 0.0
C233 C 0.58746 0.63086 0.99252 0.0
C234 C 0.59306 0.63016 0.94308 0.0
C235 C 0.63298 0.65172 0.92257 0.0
C236 C 0.61654 0.656 0.07334 0.0
C237 C 0.55704 0.60659 0.91178 0.0
C238 C 0.27255 0.75855 0.18317 0.0
C239 C 0.31353 0.75687 0.1477 0.0
C240 C 0.35114 0.69052 0.10621 0.0
C241 C 0.35126 0.67473 0.05958 0.0
C242 C 0.39041 0.65046 0.04012 0.0
C243 C 0.42953 0.64068 0.06868 0.0
C244 C 0.42937 0.65641 0.11604 0.0
C245 C 0.39004 0.68121 0.13435 0.0
C246 C 0.38959 0.63432 0.98944 0.0
C247 C 0.47014 0.64574 0.14761 0.0
C248 C 0.31861 0.36835 0.09556 0.0
C249 C 0.32781 0.37499 0.04752 0.0
C250 C 0.37414 0.38202 0.03082 0.0
C251 C 0.41172 0.3828 0.06288 0.0
C252 C 0.40307 0.37068 0.11023 0.0
C253 C 0.35641 0.36332 0.12594 0.0
C254 C 0.3825 0.3926 0.97961 0.0
C255 C 0.44259 0.36966 0.14496 0.0
C256 C 0.78591 0.32238 0.93028 0.0
C257 C 0.74616 0.31764 0.96679 0.0
C258 C 0.66146 0.33359 0.96416 0.0
C259 C 0.62429 0.34338 0.93428 0.0
C260 C 0.58172 0.36266 0.95173 0.0
C261 C 0.57638 0.37196 1.00039 0.0
C262 C 0.61259 0.35894 0.03124 0.0
C263 C 0.65484 0.33986 0.01284 0.0
C264 C 0.54355 0.37573 0.91795 0.0
C265 C 0.60762 0.3677 0.0834 0.0
C266 C 0.54708 0.60531 0.01475 0.0
C267 C 0.50873 0.6325 0.03144 0.0
C268 C 0.46865 0.6102 0.05042 0.0
C269 C 0.46597 0.55952 0.05184 0.0
C270 C 0.42555 0.53607 0.06951 0.0
C271 C 0.42253 0.48627 0.06914 0.0
C272 C 0.46003 0.45778 0.05158 0.0
C273 C 0.45654 0.40703 0.0495 0.0
C274 C 0.49481 0.37965 0.03293 0.0
C275 C 0.53665 0.40201 0.01795 0.0
C276 C 0.54039 0.45277 0.01885 0.0
C277 C 0.58178 0.47633 0.00341 0.0
C278 C 0.58441 0.52623 0.00279 0.0
C279 C 0.54574 0.55458 0.01747 0.0
C280 C 0.50457 0.53163 0.03506 0.0
C281 C 0.50176 0.48068 0.03537 0.0
C282 C 0.20446 0.41156 0.13443 0.0
C283 C 0.23494 0.38988 0.09495 0.0
O284 O 0.70343 0.69684 0.92806 0.0
O285 O 0.7032 0.31912 0.94461 0.0
O286 O 0.27408 0.36821 0.11404 0.0
O287 O 0.31248 0.71342 0.1237 0.0
H288 H 0.7008 0.76121 0.96453 0.0
H289 H 0.70897 0.77691 0.87958 0.0
H290 H 0.7655 0.74702 0.87752 0.0
H291 H 0.75771 0.80194 0.91155 0.0
H292 H 0.68585 0.69557 0.02035 0.0
H293 H 0.63805 0.6508 0.88482 0.0
H294 H 0.58528 0.67783 0.08391 0.0
H295 H 0.64819 0.67176 0.09022 0.0
H296 H 0.61087 0.61909 0.08676 0.0
H297 H 0.56182 0.61721 0.87459 0.0
H298 H 0.52065 0.61614 0.9236 0.0
H299 H 0.56058 0.56694 0.91362 0.0
H300 H 0.34704 0.76229 0.16679 0.0
H301 H 0.27232 0.79343 0.20265 0.0
H302 H 0.2764 0.72917 0.20883 0.0
H303 H 0.23819 0.75387 0.1653 0.0
H304 H 0.32072 0.68187 0.03838 0.0
H305 H 0.38912 0.69211 0.17092 0.0
H306 H 0.3886 0.59444 0.98749 0.0
H307 H 0.42231 0.64628 0.97096 0.0
H308 H 0.35853 0.64856 0.97086 0.0
H309 H 0.46502 0.6614 0.18335 0.0
H310 H 0.50336 0.6603 0.13212 0.0
H311 H 0.47445 0.60622 0.15053 0.0
H312 H 0.24535 0.41957 0.07111 0.0
H313 H 0.29888 0.3764 0.02325 0.0
H314 H 0.34905 0.3567 0.1627 0.0
H315 H 0.38863 0.43176 0.97542 0.0
H316 H 0.35184 0.38193 0.95799 0.0
H317 H 0.41446 0.3735 0.96618 0.0
H318 H 0.43126 0.35345 0.17872 0.0
H319 H 0.45492 0.40696 0.15195 0.0
H320 H 0.47301 0.349 0.13019 0.0
H321 H 0.74973 0.34812 0.99215 0.0
H322 H 0.82087 0.32163 0.94741 0.0
H323 H 0.78265 0.35716 0.9119 0.0
H324 H 0.78425 0.2927 0.90386 0.0
H325 H 0.62947 0.33769 0.89689 0.0
H326 H 0.68277 0.33098 0.03663 0.0
H327 H 0.5404 0.41547 0.91656 0.0
H328 H 0.50898 0.3613 0.9303 0.0
H329 H 0.55107 0.36174 0.88195 0.0
H330 H 0.63668 0.35098 0.10313 0.0
H331 H 0.57335 0.3532 0.09649 0.0
H332 H 0.60779 0.407 0.09072 0.0
H333 H 0.50996 0.67141 0.0294 0.0
H334 H 0.39543 0.5559 0.0833 0.0
H335 H 0.39021 0.47054 0.08277 0.0
H336 H 0.4919 0.34078 0.03133 0.0
H337 H 0.61256 0.45656 0.99115 0.0
H338 H 0.61707 0.54228 0.99033 0.0
H339 H 0.17291 0.42944 0.11994 0.0
H340 H 0.22518 0.43896 0.15399 0.0
H341 H 0.1927 0.38333 0.15932 0.0
Zn342 Zn 0.11387 0.10724 0.94952 0.0
Zn343 Zn 0.09244 0.10296 0.0613 0.0
O344 O 0.0988 0.06242 0.0032 0.0
H345 H 0.08496 0.03095 0.99872 0.0
C346 C 0.97178 0.11367 0.8873 0.0
O347 O 0.00039 0.11953 0.92263 0.0
Zn348 Zn 0.94195 0.90653 0.07125 0.0
Zn349 Zn 0.91394 0.90738 0.96114 0.0
O350 O 0.93703 0.94804 0.01457 0.0
H351 H 0.95661 0.97601 0.00958 0.0
Zn352 Zn 0.91067 0.07265 0.95998 0.0
O353 O 0.96024 0.07047 0.01018 0.0
Zn354 Zn 0.92263 0.07235 0.07048 0.0
H355 H 0.99152 0.05728 0.00542 0.0
Zn356 Zn 0.126 0.92919 0.95624 0.0
O357 O 0.07461 0.93001 0.00734 0.0
H358 H 0.04229 0.93975 0.00284 0.0
Zn359 Zn 0.11008 0.93599 0.06673 0.0
C360 C 0.06194 0.90313 0.88041 0.0
O361 O 0.03012 0.92154 0.90933 0.0
O362 O 0.13187 0.17583 0.97216 0.0
O363 O 0.11517 0.17077 0.04884 0.0
O364 O 0.89374 0.84141 0.98447 0.0
O365 O 0.91724 0.83836 0.05875 0.0
O366 O 0.85369 0.11086 0.98468 0.0
O367 O 0.8599 0.10613 0.06226 0.0
C368 C 0.13367 0.02975 0.11388 0.0
O369 O 0.19123 0.90664 0.97992 0.0
O370 O 0.17539 0.9103 0.05673 0.0
O371 O 0.86961 0.93925 0.9136 0.0
C372 C 0.12978 0.19422 0.01328 0.0
O373 O 0.15272 0.07586 0.895 0.0
C374 C 0.89785 0.98106 0.12398 0.0
O375 O 0.93219 0.0931 0.89344 0.0
C376 C 0.89801 0.81926 0.02287 0.0
O377 O 0.10517 0.90285 0.89149 0.0
C378 C 0.00158 0.11865 0.11374 0.0
O379 O 0.13077 0.07518 0.11349 0.0
O380 O 0.11218 0.00584 0.08271 0.0
C381 C 0.83868 0.12039 0.02597 0.0
O382 O 0.90336 0.93586 0.12485 0.0
O383 O 0.91698 0.00405 0.09062 0.0
C384 C 0.03514 0.88919 0.11664 0.0
O385 O 0.95763 0.11098 0.11823 0.0
O386 O 0.02404 0.1 0.07935 0.0
C387 C 0.2031 0.90085 0.02232 0.0
O388 O 0.07928 0.89653 0.11729 0.0
O389 O 0.0108 0.9096 0.08589 0.0
C390 C 0.88405 0.96888 0.88309 0.0
O391 O 0.92891 0.98062 0.88038 0.0
C392 C 0.13564 0.04273 0.86932 0.0
O393 O 0.09165 0.02891 0.87549 0.0
C394 C 0.02304 0.2095 0.21711 0.0
C395 C 0.00816 0.23566 0.24785 0.0
C396 C 0.02992 0.17729 0.17919 0.0
C397 C 0.02372 0.14999 0.14686 0.0
C398 C 0.81811 0.03198 0.23227 0.0
C399 C 0.79458 0.03982 0.26721 0.0
C400 C 0.84639 0.01948 0.19266 0.0
C401 C 0.87028 0.00469 0.16017 0.0
C402 C 0.00323 0.78444 0.206 0.0
C403 C 0.00661 0.74783 0.22772 0.0
C404 C 0.00553 0.82429 0.17613 0.0
C405 C 0.01487 0.85459 0.14772 0.0
C406 C 0.21426 0.98302 0.21915 0.0
C407 C 0.23713 0.97907 0.25421 0.0
C408 C 0.18606 0.99306 0.18004 0.0
C409 C 0.16155 0.00677 0.14872 0.0
C410 C 0.02561 0.83143 0.76224 0.0
C411 C 0.01717 0.80552 0.72928 0.0
C412 C 0.03678 0.85884 0.80247 0.0
C413 C 0.0475 0.87925 0.83822 0.0
C414 C 0.23253 0.97403 0.78782 0.0
C415 C 0.26723 0.95433 0.77187 0.0
C416 C 0.19502 -0.00285 0.8122 0.0
C417 C 0.16637 0.0167 0.83764 0.0
C418 C -0.00152 0.18264 0.7658 0.0
C419 C 0.00492 0.20808 0.73243 0.0
C420 C 0.99044 0.15596 0.80687 0.0
C421 C 0.98202 0.13669 0.84365 0.0
C422 C 0.78272 0.02274 0.80058 0.0
C423 C 0.74917 0.03736 0.77959 0.0
C424 C 0.82043 0.0054 0.82729 0.0
C425 C 0.85075 0.98969 0.85195 0.0
C426 C 0.18682 0.32144 0.04998 0.0
C427 C 0.20783 0.35375 0.06888 0.0
C428 C 0.16473 0.27989 0.03204 0.0
C429 C 0.14923 0.24109 0.02116 0.0
C430 C 0.29842 0.82454 0.0847 0.0
C431 C 0.30859 0.79547 0.11366 0.0
C432 C 0.27574 0.85491 0.05322 0.0
C433 C 0.24564 0.87605 0.03273 0.0
C434 C 0.75861 0.23385 0.00909 0.0
C435 C 0.75057 0.2719 0.99136 0.0
C436 C 0.77755 0.19029 0.02459 0.0
C437 C 0.80434 0.15769 0.03093 0.0
C438 C 0.80244 0.72837 0.99368 0.0
C439 C 0.76691 0.72732 0.97109 0.0
C440 C 0.84312 0.74575 0.01596 0.0
C441 C 0.8717 0.77559 0.02717 0.0
loop_
_geom_bond_atom_site_label_1
_geom_bond_atom_site_label_2
_geom_bond_distance
_geom_bond_site_symmetry_2
_ccdc_geom_bond_type
C0 C1 1.560 . S
C0 H61 0.959 . S
C0 H62 0.959 . S
C0 H63 0.960 . S
C1 C0 1.560 . S
C1 O56 1.426 . S
C1 H60 0.980 . S
C2 C3 1.406 1_455 S
C2 C7 1.418 . S
C2 O56 1.334 . S
C3 C2 1.406 1_655 S
C3 C4 1.360 . S
C3 H64 0.930 . S
C4 C3 1.360 . S
C4 C5 1.401 1_655 S
C4 C8 1.527 . S
C5 C4 1.401 1_455 S
C5 C6 1.405 . S
C5 C38 1.587 1_455 S
C6 C5 1.405 . S
C6 C7 1.332 . S
C6 C9 1.496 . S
C7 C2 1.418 . S
C7 C6 1.332 . S
C7 H65 0.929 . S
C8 C4 1.527 . S
C8 H66 0.959 . S
C8 H67 0.961 . S
C8 H68 0.961 . S
C9 C6 1.496 . S
C9 H69 0.960 . S
C9 H70 0.960 . S
C9 H71 0.961 . S
C10 C11 1.517 . S
C10 H73 0.961 1_655 S
C10 H74 0.960 . S
C10 H75 0.959 . S
C11 C10 1.517 . S
C11 O59 1.468 . S
C11 H72 0.980 1_655 S
C12 C13 1.349 1_655 S
C12 C17 1.367 . S
C12 O59 1.408 . S
C13 C12 1.349 1_455 S
C13 C14 1.407 . S
C13 H76 0.930 . S
C14 C13 1.407 . S
C14 C15 1.449 1_455 S
C14 C18 1.535 . S
C15 C14 1.449 1_655 S
C15 C16 1.384 . S
C15 C40 1.553 . S
C16 C15 1.384 . S
C16 C17 1.364 . S
C16 C19 1.450 . S
C17 C12 1.367 . S
C17 C16 1.364 . S
C17 H77 0.931 . S
C18 C14 1.535 . S
C18 H78 0.959 . S
C18 H79 0.961 . S
C18 H80 0.959 . S
C19 C16 1.450 . S
C19 H81 0.960 . S
C19 H82 0.960 . S
C19 H83 0.960 . S
C20 C21 1.309 1_655 S
C20 C25 1.304 . S
C20 O58 1.435 . S
C21 C20 1.309 1_455 S
C21 C22 1.476 . S
C21 H85 0.930 . S
C22 C21 1.476 . S
C22 C23 1.400 1_455 S
C22 C26 1.567 . S
C23 C22 1.400 1_655 S
C23 C24 1.373 . S
C23 C45 1.432 . S
C24 C23 1.373 . S
C24 C25 1.339 . S
C24 C27 1.530 . S
C25 C20 1.304 . S
C25 C24 1.339 . S
C25 H86 0.930 . S
C26 C22 1.567 . S
C26 H87 0.961 . S
C26 H88 0.960 . S
C26 H89 0.958 . S
C27 C24 1.530 . S
C27 H90 0.961 . S
C27 H91 0.960 . S
C27 H92 0.960 . S
C28 C29 1.530 . S
C28 H94 0.961 . S
C28 H95 0.961 . S
C28 H96 0.959 . S
C29 C28 1.530 . S
C29 O57 1.412 . S
C29 H93 0.980 . S
C30 C31 1.288 . S
C30 C35 1.381 . S
C30 O57 1.393 . S
C31 C30 1.288 . S
C31 C32 1.369 . S
C31 H97 0.932 . S
C32 C31 1.369 . S
C32 C33 1.398 . S
C32 C36 1.527 . S
C33 C32 1.398 . S
C33 C34 1.380 1_455 S
C33 C47 1.497 . S
C34 C33 1.380 1_655 S
C34 C35 1.381 1_655 S
C34 C37 1.603 . S
C35 C30 1.381 . S
C35 C34 1.381 1_455 S
C35 H98 0.926 1_455 S
C36 C32 1.527 . S
C36 H99 0.961 . S
C36 H100 0.959 . S
C36 H101 0.959 . S
C37 C34 1.603 . S
C37 H102 0.960 . S
C37 H103 0.962 . S
C37 H104 0.961 . S
C38 C5 1.587 1_655 S
C38 C39 1.360 . S
C38 C51 1.412 . S
C39 C38 1.360 . S
C39 C40 1.365 . S
C39 H105 0.929 . S
C40 C15 1.553 . S
C40 C39 1.365 . S
C40 C41 1.404 . S
C41 C40 1.404 . S
C41 C42 1.395 . S
C41 C52 1.451 . S
C42 C41 1.395 . S
C42 C43 1.322 . S
C42 H106 0.930 . S
C43 C42 1.322 . S
C43 C44 1.459 . S
C43 H107 0.929 . S
C44 C43 1.459 . S
C44 C45 1.445 . S
C44 C53 1.395 . S
C45 C23 1.432 . S
C45 C44 1.445 . S
C45 C46 1.370 1_655 S
C46 C45 1.370 1_455 S
C46 C47 1.438 . S
C46 H108 0.930 . S
C47 C33 1.497 . S
C47 C46 1.438 . S
C47 C48 1.360 . S
C48 C47 1.360 . S
C48 C49 1.401 . S
C48 C53 1.446 1_455 S
C49 C48 1.401 . S
C49 C50 1.347 . S
C49 H109 0.929 . S
C50 C49 1.347 . S
C50 C51 1.454 1_455 S
C50 H110 0.930 . S
C51 C38 1.412 . S
C51 C50 1.454 1_655 S
C51 C52 1.333 . S
C52 C41 1.451 . S
C52 C51 1.333 . S
C52 C53 1.497 . S
C53 C44 1.395 . S
C53 C48 1.446 1_655 S
C53 C52 1.497 . S
C54 C55 1.582 1_655 S
C54 H111 0.962 1_655 S
C54 H112 0.959 . S
C54 H113 0.958 . S
C55 C54 1.582 1_455 S
C55 O58 1.458 1_455 S
C55 H84 0.980 . S
O56 C1 1.426 . S
O56 C2 1.334 . S
O57 C29 1.412 . S
O57 C30 1.393 . S
O58 C20 1.435 . S
O58 C55 1.458 1_655 S
O59 C11 1.468 . S
O59 C12 1.408 . S
H60 C1 0.980 . S
H61 C0 0.959 . S
H62 C0 0.959 . S
H63 C0 0.960 . S
H64 C3 0.930 . S
H65 C7 0.929 . S
H66 C8 0.959 . S
H67 C8 0.961 . S
H68 C8 0.961 . S
H69 C9 0.960 . S
H70 C9 0.960 . S
H71 C9 0.961 . S
H72 C11 0.980 1_455 S
H73 C10 0.961 1_455 S
H74 C10 0.960 . S
H75 C10 0.959 . S
H76 C13 0.930 . S
H77 C17 0.931 . S
H78 C18 0.959 . S
H79 C18 0.961 . S
H80 C18 0.959 . S
H81 C19 0.960 . S
H82 C19 0.960 . S
H83 C19 0.960 . S
H84 C55 0.980 . S
H85 C21 0.930 . S
H86 C25 0.930 . S
H87 C26 0.961 . S
H88 C26 0.960 . S
H89 C26 0.958 . S
H90 C27 0.961 . S
H91 C27 0.960 . S
H92 C27 0.960 . S
H93 C29 0.980 . S
H94 C28 0.961 . S
H95 C28 0.961 . S
H96 C28 0.959 . S
H97 C31 0.932 . S
H98 C35 0.926 1_655 S
H99 C36 0.961 . S
H100 C36 0.959 . S
H101 C36 0.959 . S
H102 C37 0.960 . S
H103 C37 0.962 . S
H104 C37 0.961 . S
H105 C39 0.929 . S
H106 C42 0.930 . S
H107 C43 0.929 . S
H108 C46 0.930 . S
H109 C49 0.929 . S
H110 C50 0.930 . S
H111 C54 0.962 1_455 S
H112 C54 0.959 . S
H113 C54 0.958 . S
C114 C115 1.560 . S
C114 H175 0.959 . S
C114 H176 0.959 . S
C114 H177 0.960 . S
C115 C114 1.560 . S
C115 O170 1.426 . S
C115 H174 0.980 . S
C116 C117 1.407 1_545 S
C116 C121 1.418 . S
C116 O170 1.334 . S
C117 C116 1.407 1_565 S
C117 C118 1.360 . S
C117 H178 0.929 . S
C118 C117 1.360 . S
C118 C119 1.401 1_565 S
C118 C122 1.527 . S
C119 C118 1.401 1_545 S
C119 C120 1.405 . S
C119 C152 1.587 1_545 S
C120 C119 1.405 . S
C120 C121 1.332 . S
C120 C123 1.496 . S
C121 C116 1.418 . S
C121 C120 1.332 . S
C121 H179 0.929 . S
C122 C118 1.527 . S
C122 H180 0.959 . S
C122 H181 0.961 . S
C122 H182 0.961 . S
C123 C120 1.496 . S
C123 H183 0.960 . S
C123 H184 0.960 . S
C123 H185 0.961 . S
C124 C125 1.517 . S
C124 H187 0.952 1_565 S
C124 H188 0.960 . S
C124 H189 0.959 . S
C125 C124 1.517 . S
C125 O173 1.468 . S
C125 H186 0.980 1_565 S
C126 C127 1.336 1_565 S
C126 C131 1.367 . S
C126 O173 1.408 . S
C127 C126 1.336 1_545 S
C127 C128 1.410 . S
C127 H190 0.941 . S
C128 C127 1.410 . S
C128 C129 1.449 1_545 S
C128 C132 1.535 . S
C129 C128 1.449 1_565 S
C129 C130 1.384 . S
C129 C154 1.553 . S
C130 C129 1.384 . S
C130 C131 1.364 . S
C130 C133 1.450 . S
C131 C126 1.367 . S
C131 C130 1.364 . S
C131 H191 0.931 . S
C132 C128 1.535 . S
C132 H192 0.959 . S
C132 H193 0.961 . S
C132 H194 0.959 . S
C133 C130 1.450 . S
C133 H195 0.960 . S
C133 H196 0.960 . S
C133 H197 0.960 . S
C134 C135 1.309 1_565 S
C134 C139 1.304 . S
C134 O172 1.435 . S
C135 C134 1.309 1_545 S
C135 C136 1.476 . S
C135 H199 0.930 . S
C136 C135 1.476 . S
C136 C137 1.400 1_545 S
C136 C140 1.567 . S
C137 C136 1.400 1_565 S
C137 C138 1.373 . S
C137 C159 1.432 . S
C138 C137 1.373 . S
C138 C139 1.339 . S
C138 C141 1.530 . S
C139 C134 1.304 . S
C139 C138 1.339 . S
C139 H200 0.930 . S
C140 C136 1.567 . S
C140 H201 0.961 . S
C140 H202 0.960 . S
C140 H203 0.958 . S
C141 C138 1.530 . S
C141 H204 0.961 . S
C141 H205 0.960 . S
C141 H206 0.960 . S
C142 C143 1.530 . S
C142 H208 0.961 . S
C142 H209 0.961 . S
C142 H210 0.959 . S
C143 C142 1.530 . S
C143 O171 1.412 . S
C143 H207 0.980 . S
C144 C145 1.288 . S
C144 C149 1.377 1_545 S
C144 O171 1.393 . S
C145 C144 1.288 . S
C145 C146 1.369 . S
C145 H211 0.932 . S
C146 C145 1.369 . S
C146 C147 1.398 . S
C146 C150 1.527 . S
C147 C146 1.398 . S
C147 C148 1.380 1_545 S
C147 C161 1.497 . S
C148 C147 1.380 1_565 S
C148 C149 1.383 . S
C148 C151 1.603 . S
C149 C144 1.377 1_565 S
C149 C148 1.383 . S
C149 H212 0.929 . S
C150 C146 1.527 . S
C150 H213 0.961 . S
C150 H214 0.959 . S
C150 H215 0.959 . S
C151 C148 1.603 . S
C151 H216 0.960 . S
C151 H217 0.962 . S
C151 H218 0.961 . S
C152 C119 1.587 1_565 S
C152 C153 1.360 . S
C152 C165 1.412 . S
C153 C152 1.360 . S
C153 C154 1.365 . S
C153 H219 0.929 . S
C154 C129 1.553 . S
C154 C153 1.365 . S
C154 C155 1.404 . S
C155 C154 1.404 . S
C155 C156 1.395 . S
C155 C166 1.451 . S
C156 C155 1.395 . S
C156 C157 1.322 . S
C156 H220 0.930 . S
C157 C156 1.322 . S
C157 C158 1.459 . S
C157 H221 0.929 . S
C158 C157 1.459 . S
C158 C159 1.445 . S
C158 C167 1.395 . S
C159 C137 1.432 . S
C159 C158 1.445 . S
C159 C160 1.370 . S
C160 C159 1.370 . S
C160 C161 1.438 1_565 S
C160 H222 0.932 . S
C161 C147 1.497 . S
C161 C160 1.438 1_545 S
C161 C162 1.360 1_545 S
C162 C161 1.360 1_565 S
C162 C163 1.401 1_565 S
C162 C167 1.446 . S
C163 C162 1.401 1_545 S
C163 C164 1.347 . S
C163 H223 0.929 . S
C164 C163 1.347 . S
C164 C165 1.455 1_545 S
C164 H224 0.930 . S
C165 C152 1.412 . S
C165 C164 1.455 1_565 S
C165 C166 1.331 . S
C166 C155 1.451 . S
C166 C165 1.331 . S
C166 C167 1.497 . S
C167 C158 1.395 . S
C167 C162 1.446 . S
C167 C166 1.497 . S
C168 C169 1.582 1_565 S
C168 H225 0.962 . S
C168 H226 0.959 . S
C168 H227 0.958 . S
C169 C168 1.582 1_545 S
C169 O172 1.458 1_545 S
C169 H198 0.980 . S
O170 C115 1.426 . S
O170 C116 1.334 . S
O171 C143 1.412 . S
O171 C144 1.393 . S
O172 C134 1.435 . S
O172 C169 1.458 1_565 S
O173 C125 1.468 . S
O173 C126 1.408 . S
H174 C115 0.980 . S
H175 C114 0.959 . S
H176 C114 0.959 . S
H177 C114 0.960 . S
H178 C117 0.929 . S
H179 C121 0.929 . S
H180 C122 0.959 . S
H181 C122 0.961 . S
H182 C122 0.961 . S
H183 C123 0.960 . S
H184 C123 0.960 . S
H185 C123 0.961 . S
H186 C125 0.980 1_545 S
H187 C124 0.952 1_545 S
H188 C124 0.960 . S
H189 C124 0.959 . S
H190 C127 0.941 . S
H191 C131 0.931 . S
H192 C132 0.959 . S
H193 C132 0.961 . S
H194 C132 0.959 . S
H195 C133 0.960 . S
H196 C133 0.960 . S
H197 C133 0.960 . S
H198 C169 0.980 . S
H199 C135 0.930 . S
H200 C139 0.930 . S
H201 C140 0.961 . S
H202 C140 0.960 . S
H203 C140 0.958 . S
H204 C141 0.961 . S
H205 C141 0.960 . S
H206 C141 0.960 . S
H207 C143 0.980 . S
H208 C142 0.961 . S
H209 C142 0.961 . S
H210 C142 0.959 . S
H211 C145 0.932 . S
H212 C149 0.929 . S
H213 C150 0.961 . S
H214 C150 0.959 . S
H215 C150 0.959 . S
H216 C151 0.960 . S
H217 C151 0.962 . S
H218 C151 0.961 . S
H219 C153 0.929 . S
H220 C156 0.930 . S
H221 C157 0.929 . S
H222 C160 0.932 . S
H223 C163 0.929 . S
H224 C164 0.930 . S
H225 C168 0.962 . S
H226 C168 0.959 . S
H227 C168 0.958 . S
C228 C229 1.560 . S
C228 H289 0.959 . S
C228 H290 0.959 . S
C228 H291 0.960 . S
C229 C228 1.560 . S
C229 O284 1.426 . S
C229 H288 0.980 1_556 S
C230 C231 1.407 1_556 S
C230 C235 1.418 . S
C230 O284 1.334 . S
C231 C230 1.407 1_554 S
C231 C232 1.360 . S
C231 H292 0.929 . S
C232 C231 1.360 . S
C232 C233 1.401 . S
C232 C236 1.527 . S
C233 C232 1.401 . S
C233 C234 1.405 1_554 S
C233 C266 1.587 . S
C234 C233 1.405 1_556 S
C234 C235 1.332 . S
C234 C237 1.496 . S
C235 C230 1.418 . S
C235 C234 1.332 . S
C235 H293 0.929 . S
C236 C232 1.527 . S
C236 H294 0.959 . S
C236 H295 0.961 . S
C236 H296 0.961 . S
C237 C234 1.496 . S
C237 H297 0.960 . S
C237 H298 0.960 . S
C237 H299 0.961 . S
C238 C239 1.517 . S
C238 H301 0.961 . S
C238 H302 0.960 . S
C238 H303 0.959 . S
C239 C238 1.517 . S
C239 O287 1.468 . S
C239 H300 0.980 . S
C240 C241 1.349 . S
C240 C245 1.367 . S
C240 O287 1.408 . S
C241 C240 1.349 . S
C241 C242 1.407 . S
C241 H304 0.930 . S
C242 C241 1.407 . S
C242 C243 1.449 . S
C242 C246 1.535 1_554 S
C243 C242 1.449 . S
C243 C244 1.384 . S
C243 C268 1.553 . S
C244 C243 1.384 . S
C244 C245 1.364 . S
C244 C247 1.450 . S
C245 C240 1.367 . S
C245 C244 1.364 . S
C245 H305 0.931 . S
C246 C242 1.535 1_556 S
C246 H306 0.959 . S
C246 H307 0.961 . S
C246 H308 0.959 . S
C247 C244 1.450 . S
C247 H309 0.960 . S
C247 H310 0.960 . S
C247 H311 0.960 . S
C248 C249 1.309 . S
C248 C253 1.304 . S
C248 O286 1.435 . S
C249 C248 1.309 . S
C249 C250 1.476 . S
C249 H313 0.930 1_554 S
C250 C249 1.476 . S
C250 C251 1.400 . S
C250 C254 1.567 1_554 S
C251 C250 1.400 . S
C251 C252 1.373 . S
C251 C273 1.432 . S
C252 C251 1.373 . S
C252 C253 1.339 . S
C252 C255 1.530 . S
C253 C248 1.304 . S
C253 C252 1.339 . S
C253 H314 0.930 . S
C254 C250 1.567 1_556 S
C254 H315 0.961 . S
C254 H316 0.960 . S
C254 H317 0.958 . S
C255 C252 1.530 . S
C255 H318 0.961 . S
C255 H319 0.960 . S
C255 H320 0.960 . S
C256 C257 1.530 1_556 S
C256 H322 0.961 . S
C256 H323 0.961 . S
C256 H324 0.959 . S
C257 C256 1.530 1_554 S
C257 O285 1.412 1_554 S
C257 H321 0.980 . S
C258 C259 1.288 . S
C258 C263 1.377 1_556 S
C258 O285 1.393 . S
C259 C258 1.288 . S
C259 C260 1.369 . S
C259 H325 0.932 . S
C260 C259 1.369 . S
C260 C261 1.398 1_556 S
C260 C264 1.527 . S
C261 C260 1.398 1_554 S
C261 C262 1.380 . S
C261 C275 1.497 . S
C262 C261 1.380 . S
C262 C263 1.383 . S
C262 C265 1.603 . S
C263 C258 1.377 1_554 S
C263 C262 1.383 . S
C263 H326 0.929 . S
C264 C260 1.527 . S
C264 H327 0.961 . S
C264 H328 0.959 . S
C264 H329 0.959 . S
C265 C262 1.603 . S
C265 H330 0.960 . S
C265 H331 0.962 . S
C265 H332 0.961 . S
C266 C233 1.587 . S
C266 C267 1.360 . S
C266 C279 1.412 . S
C267 C266 1.360 . S
C267 C268 1.365 . S
C267 H333 0.929 . S
C268 C243 1.553 . S
C268 C267 1.365 . S
C268 C269 1.404 . S
C269 C268 1.404 . S
C269 C270 1.395 . S
C269 C280 1.451 . S
C270 C269 1.395 . S
C270 C271 1.322 . S
C270 H334 0.930 . S
C271 C270 1.322 . S
C271 C272 1.459 . S
C271 H335 0.929 . S
C272 C271 1.459 . S
C272 C273 1.445 . S
C272 C281 1.395 . S
C273 C251 1.432 . S
C273 C272 1.445 . S
C273 C274 1.370 . S
C274 C273 1.370 . S
C274 C275 1.438 . S
C274 H336 0.930 . S
C275 C261 1.497 . S
C275 C274 1.438 . S
C275 C276 1.360 . S
C276 C275 1.360 . S
C276 C277 1.401 . S
C276 C281 1.446 . S
C277 C276 1.401 . S
C277 C278 1.347 . S
C277 H337 0.929 . S
C278 C277 1.347 . S
C278 C279 1.455 . S
C278 H338 0.930 . S
C279 C266 1.412 . S
C279 C278 1.455 . S
C279 C280 1.331 . S
C280 C269 1.451 . S
C280 C279 1.331 . S
C280 C281 1.497 . S
C281 C272 1.395 . S
C281 C276 1.446 . S
C281 C280 1.497 . S
C282 C283 1.582 . S
C282 H339 0.962 . S
C282 H340 0.959 . S
C282 H341 0.958 . S
C283 C282 1.582 . S
C283 O286 1.458 . S
C283 H312 0.980 . S
O284 C229 1.426 . S
O284 C230 1.334 . S
O285 C257 1.412 1_556 S
O285 C258 1.393 . S
O286 C248 1.435 . S
O286 C283 1.458 . S
O287 C239 1.468 . S
O287 C240 1.408 . S
H288 C229 0.980 1_554 S
H289 C228 0.959 . S
H290 C228 0.959 . S
H291 C228 0.960 . S
H292 C231 0.929 . S
H293 C235 0.929 . S
H294 C236 0.959 . S
H295 C236 0.961 . S
H296 C236 0.961 . S
H297 C237 0.960 . S
H298 C237 0.960 . S
H299 C237 0.961 . S
H300 C239 0.980 . S
H301 C238 0.961 . S
H302 C238 0.960 . S
H303 C238 0.959 . S
H304 C241 0.930 . S
H305 C245 0.931 . S
H306 C246 0.959 . S
H307 C246 0.961 . S
H308 C246 0.959 . S
H309 C247 0.960 . S
H310 C247 0.960 . S
H311 C247 0.960 . S
H312 C283 0.980 . S
H313 C249 0.930 1_556 S
H314 C253 0.930 . S
H315 C254 0.961 . S
H316 C254 0.960 . S
H317 C254 0.958 . S
H318 C255 0.961 . S
H319 C255 0.960 . S
H320 C255 0.960 . S
H321 C257 0.980 . S
H322 C256 0.961 . S
H323 C256 0.961 . S
H324 C256 0.959 . S
H325 C259 0.932 . S
H326 C263 0.929 . S
H327 C264 0.961 . S
H328 C264 0.959 . S
H329 C264 0.959 . S
H330 C265 0.960 . S
H331 C265 0.962 . S
H332 C265 0.961 . S
H333 C267 0.929 . S
H334 C270 0.930 . S
H335 C271 0.929 . S
H336 C274 0.930 . S
H337 C277 0.929 . S
H338 C278 0.930 . S
H339 C282 0.962 . S
H340 C282 0.959 . S
H341 C282 0.958 . S
Zn342 O344 1.933 1_556 S
Zn342 O362 1.985 . S
Zn342 O373 1.955 . S
Zn343 O344 1.911 . S
Zn343 O363 1.970 . S
Zn343 O379 1.945 . S
Zn343 O386 1.981 . S
O344 Zn342 1.933 1_554 S
O344 Zn343 1.911 . S
O344 H345 0.841 . S
H345 O344 0.841 . S
C346 O347 1.246 . S
C346 O375 1.276 1_455 S
O347 C346 1.246 . S
Zn348 O350 1.911 . S
Zn348 O365 1.970 . S
Zn348 O382 1.945 . S
Zn348 O389 1.981 . S
Zn349 O350 1.933 1_556 S
Zn349 O364 1.985 . S
Zn349 O371 1.955 . S
O350 Zn348 1.911 . S
O350 Zn349 1.933 1_554 S
O350 H351 0.841 1_565 S
H351 O350 0.841 1_545 S
Zn352 O353 1.933 1_556 S
Zn352 O366 1.985 . S
Zn352 O375 1.955 . S
O353 Zn352 1.933 1_554 S
O353 Zn354 1.911 . S
O353 H355 0.841 1_655 S
Zn354 O353 1.911 . S
Zn354 O367 1.970 . S
Zn354 O383 1.981 . S
Zn354 O385 1.945 . S
H355 O353 0.841 1_455 S
Zn356 O357 1.933 1_556 S
Zn356 O369 1.985 . S
Zn356 O377 1.955 . S
O357 Zn356 1.933 1_554 S
O357 H358 0.841 . S
O357 Zn359 1.911 . S
H358 O357 0.841 . S
Zn359 O357 1.911 . S
Zn359 O370 1.970 . S
Zn359 O380 1.981 . S
Zn359 O388 1.945 . S
C360 O361 1.246 1_455 S
C360 O377 1.276 . S
O361 C360 1.246 1_655 S
O362 Zn342 1.985 . S
O362 C372 1.245 1_556 S
O363 Zn343 1.970 . S
O363 C372 1.263 . S
O364 Zn349 1.985 . S
O364 C376 1.245 1_556 S
O365 Zn348 1.970 . S
O365 C376 1.263 . S
O366 Zn352 1.985 . S
O366 C381 1.245 1_556 S
O367 Zn354 1.970 . S
O367 C381 1.263 . S
C368 O379 1.262 . S
C368 O380 1.245 1_545 S
O369 Zn356 1.985 . S
O369 C387 1.245 1_556 S
O370 Zn359 1.970 . S
O370 C387 1.263 . S
O371 Zn349 1.955 . S
O371 C390 1.276 1_565 S
C372 O362 1.245 1_554 S
C372 O363 1.263 . S
O373 Zn342 1.955 . S
O373 C392 1.276 . S
C374 O382 1.262 1_545 S
C374 O383 1.245 . S
O375 C346 1.276 1_655 S
O375 Zn352 1.955 . S
C376 O364 1.245 1_554 S
C376 O365 1.263 . S
O377 Zn356 1.955 . S
O377 C360 1.276 . S
C378 O385 1.262 1_455 S
C378 O386 1.245 . S
O379 Zn343 1.945 . S
O379 C368 1.262 . S
O380 Zn359 1.981 . S
O380 C368 1.245 1_565 S
C381 O366 1.245 1_554 S
C381 O367 1.263 . S
O382 Zn348 1.945 . S
O382 C374 1.262 1_565 S
O383 Zn354 1.981 . S
O383 C374 1.245 . S
C384 O388 1.262 . S
C384 O389 1.245 1_455 S
O385 Zn354 1.945 . S
O385 C378 1.262 1_655 S
O386 Zn343 1.981 . S
O386 C378 1.245 . S
C387 O369 1.245 1_554 S
C387 O370 1.263 . S
O388 Zn359 1.945 . S
O388 C384 1.262 . S
O389 Zn348 1.981 . S
O389 C384 1.245 1_655 S
C390 O371 1.276 1_545 S
C390 O391 1.246 . S
O391 C390 1.246 . S
C392 O373 1.276 . S
C392 O393 1.246 1_545 S
O393 C392 1.246 1_565 S
C394 C395 1.170 . S
C394 C396 1.380 . S
C395 C394 1.170 . S
C396 C394 1.380 . S
C396 C397 1.170 . S
C397 C396 1.170 . S
C398 C399 1.170 . S
C398 C400 1.380 . S
C399 C398 1.170 . S
C400 C398 1.380 . S
C400 C401 1.170 . S
C401 C400 1.170 . S
C402 C403 1.170 . S
C402 C404 1.380 . S
C403 C402 1.170 . S
C404 C402 1.380 . S
C404 C405 1.170 . S
C405 C404 1.170 . S
C406 C407 1.170 . S
C406 C408 1.380 . S
C407 C406 1.170 . S
C408 C406 1.380 . S
C408 C409 1.170 . S
C409 C408 1.170 . S
C410 C411 1.170 . S
C410 C412 1.380 . S
C411 C410 1.170 . S
C412 C410 1.380 . S
C412 C413 1.170 . S
C413 C412 1.170 . S
C414 C415 1.170 1_565 S
C414 C416 1.380 . S
C415 C414 1.170 1_545 S
C416 C414 1.380 . S
C416 C417 1.170 . S
C417 C416 1.170 . S
C418 C419 1.170 . S
C418 C420 1.380 . S
C419 C418 1.170 . S
C420 C418 1.380 . S
C420 C421 1.170 . S
C421 C420 1.170 . S
C422 C423 1.170 . S
C422 C424 1.380 . S
C423 C422 1.170 . S
C424 C422 1.380 . S
C424 C425 1.170 . S
C425 C424 1.170 . S
C426 C427 1.170 . S
C426 C428 1.380 . S
C427 C426 1.170 . S
C428 C426 1.380 . S
C428 C429 1.170 . S
C429 C428 1.170 . S
C430 C431 1.170 . S
C430 C432 1.380 . S
C431 C430 1.170 . S
C432 C430 1.380 . S
C432 C433 1.170 . S
C433 C432 1.170 . S
C434 C435 1.170 . S
C434 C436 1.380 . S
C435 C434 1.170 . S
C436 C434 1.380 . S
C436 C437 1.170 . S
C437 C436 1.170 . S
C438 C439 1.170 . S
C438 C440 1.380 . S
C439 C438 1.170 . S
C440 C438 1.380 . S
C440 C441 1.170 . S
C441 C440 1.170 . S
C397 C378 1.675 . S
C395 C11 1.043 1_455 S
C401 C374 1.586 . S
C399 C143 1.343 . S
C405 C384 1.392 . S
C403 C1 1.116 . S
C409 C368 1.735 . S
C407 C169 1.317 . S
C411 C29 1.385 . S
C413 C360 1.596 . S
C417 C392 1.839 1_565 S
C415 C125 1.087 1_545 S
C419 C55 1.480 . S
C421 C346 1.752 . S
C423 C115 1.239 . S
C425 C390 1.561 . S
C427 C283 0.906 . S
C429 C372 1.161 . S
C431 C239 0.732 . S
C433 C387 1.215 . S
C437 C381 1.056 . S
C435 C257 0.903 . S
C441 C376 0.915 . S
C439 C229 0.860 1_554 S
