# Generated by pormake.
# Topology nom, (4,4)-cn, num edge types: 1
# Building blocks:
#     Node 0, Type 0, BuildingBlock: KUFVIS_clean_linker_0, # of connection points: 4
#     Node 1, Type 0, BuildingBlock: KUFVIS_clean_linker_0, # of connection points: 4
#     Node 2, Type 0, BuildingBlock: KUFVIS_clean_linker_0, # of connection points: 4
#     Node 3, Type 0, BuildingBlock: KUFVIS_clean_linker_0, # of connection points: 4
#     Node 4, Type 0, BuildingBlock: KUFVIS_clean_linker_0, # of connection points: 4
#     Node 5, Type 0, BuildingBlock: KUFVIS_clean_linker_0, # of connection points: 4
#     Node 6, Type 1, BuildingBlock: AZAVOO_clean_sbu_0, # of connection points: 4
#     Node 7, Type 1, BuildingBlock: AZAVOO_clean_sbu_0, # of connection points: 4
#     Node 8, Type 1, BuildingBlock: AZAVOO_clean_sbu_0, # of connection points: 4
#     Node 9, Type 1, BuildingBlock: AZAVOO_clean_sbu_0, # of connection points: 4
#     Node 10, Type 1, BuildingBlock: AZAVOO_clean_sbu_0, # of connection points: 4
#     Node 11, Type 1, BuildingBlock: AZAVOO_clean_sbu_0, # of connection points: 4
#     Edge 12, Type (0, 1), BuildingBlock: EYOCIG_clean_linker_4, # of connection points: 2
#     Edge 13, Type (0, 1), BuildingBlock: EYOCIG_clean_linker_4, # of connection points: 2
#     Edge 14, Type (0, 1), BuildingBlock: EYOCIG_clean_linker_4, # of connection points: 2
#     Edge 15, Type (0, 1), BuildingBlock: EYOCIG_clean_linker_4, # of connection points: 2
#     Edge 16, Type (0, 1), BuildingBlock: EYOCIG_clean_linker_4, # of connection points: 2
#     Edge 17, Type (0, 1), BuildingBlock: EYOCIG_clean_linker_4, # of connection points: 2
#     Edge 18, Type (0, 1), BuildingBlock: EYOCIG_clean_linker_4, # of connection points: 2
#     Edge 19, Type (0, 1), BuildingBlock: EYOCIG_clean_linker_4, # of connection points: 2
#     Edge 20, Type (0, 1), BuildingBlock: EYOCIG_clean_linker_4, # of connection points: 2
#     Edge 21, Type (0, 1), BuildingBlock: EYOCIG_clean_linker_4, # of connection points: 2
#     Edge 22, Type (0, 1), BuildingBlock: EYOCIG_clean_linker_4, # of connection points: 2
#     Edge 23, Type (0, 1), BuildingBlock: EYOCIG_clean_linker_4, # of connection points: 2
#     Edge 24, Type (0, 1), BuildingBlock: EYOCIG_clean_linker_4, # of connection points: 2
#     Edge 25, Type (0, 1), BuildingBlock: EYOCIG_clean_linker_4, # of connection points: 2
#     Edge 26, Type (0, 1), BuildingBlock: EYOCIG_clean_linker_4, # of connection points: 2
#     Edge 27, Type (0, 1), BuildingBlock: EYOCIG_clean_linker_4, # of connection points: 2
#     Edge 28, Type (0, 1), BuildingBlock: EYOCIG_clean_linker_4, # of connection points: 2
#     Edge 29, Type (0, 1), BuildingBlock: EYOCIG_clean_linker_4, # of connection points: 2
#     Edge 30, Type (0, 1), BuildingBlock: EYOCIG_clean_linker_4, # of connection points: 2
#     Edge 31, Type (0, 1), BuildingBlock: EYOCIG_clean_linker_4, # of connection points: 2
#     Edge 32, Type (0, 1), BuildingBlock: EYOCIG_clean_linker_4, # of connection points: 2
#     Edge 33, Type (0, 1), BuildingBlock: EYOCIG_clean_linker_4, # of connection points: 2
#     Edge 34, Type (0, 1), BuildingBlock: EYOCIG_clean_linker_4, # of connection points: 2
#     Edge 35, Type (0, 1), BuildingBlock: EYOCIG_clean_linker_4, # of connection points: 2
# Relax obj value: 0.031
# Max RMSD: 0.161
# Mean RMSD: 0.095
data_MOF--net-nom--node1-AZAVOO_clean_sbu_0--node2-KUFVIS_clean_linker_0--edge1-EYOCIG_clean_linker_4
_symmetry_space_group_name_H-M    P1
_symmetry_Int_Tables_number       1
_symmetry_cell_setting            triclinic
loop_
_symmetry_equiv_pos_as_xyz
'x, y, z'
_cell_length_a     36.82862
_cell_length_b     37.320719
_cell_length_c     36.298279
_cell_angle_alpha  91.367322
_cell_angle_beta   91.614815
_cell_angle_gamma 120.02915
loop_
_atom_site_label
_atom_site_type_symbol
_atom_site_fract_x
_atom_site_fract_y
_atom_site_fract_z
_atom_type_partial_charge
H0 H 0.15111 0.59734 0.3394 0.0
H1 H 0.04933 0.56321 0.26034 0.0
H2 H 0.02519 0.51687 0.3707 0.0
H3 H 0.96576 0.51869 0.36017 0.0
H4 H 0.86375 0.45569 0.2799 0.0
H5 H 0.98974 0.50298 0.24631 0.0
C6 C 0.11762 0.58044 0.33236 0.0
C7 C 0.08952 0.5577 0.35894 0.0
C8 C 0.1031 0.58172 0.29684 0.0
C9 C 0.05986 0.56054 0.28775 0.0
C10 C 0.03066 0.53675 0.31414 0.0
C11 C 0.04628 0.53538 0.34989 0.0
C12 C 0.9843 0.51389 0.30461 0.0
C13 C 0.95516 0.50694 0.33204 0.0
C14 C 0.91192 0.48547 0.32316 0.0
C15 C 0.89726 0.47174 0.28678 0.0
C16 C 0.92531 0.47865 0.25914 0.0
C17 C 0.96862 0.49908 0.26799 0.0
H18 H 0.57281 0.15374 0.5033 0.0
H19 H 0.50787 0.05561 0.42111 0.0
H20 H 0.52624 0.02832 0.53332 0.0
H21 H 0.46507 0.96967 0.51895 0.0
H22 H 0.42994 0.87179 0.43724 0.0
H23 H 0.50997 0.99736 0.40821 0.0
C24 C 0.55654 0.12088 0.4956 0.0
C25 C 0.55025 0.0923 0.52222 0.0
C26 C 0.5419 0.10762 0.45924 0.0
C27 C 0.5202 0.06518 0.44926 0.0
C28 C 0.51391 0.03549 0.47568 0.0
C29 C 0.52963 0.04982 0.51237 0.0
C30 C 0.49083 0.99 0.46509 0.0
C31 C 0.46737 0.9602 0.49109 0.0
C32 C 0.44606 0.91776 0.48105 0.0
C33 C 0.4469 0.90465 0.445 0.0
C34 C 0.46932 0.93333 0.41882 0.0
C35 C 0.49174 0.97578 0.42877 0.0
H36 H 0.57018 0.42697 0.59588 0.0
H37 H 0.50796 0.46182 0.67472 0.0
H38 H 0.52433 0.50759 0.56416 0.0
H39 H 0.46425 0.50742 0.57572 0.0
H40 H 0.43209 0.57005 0.65774 0.0
H41 H 0.51237 0.52252 0.6889 0.0
C42 C 0.55428 0.44397 0.60277 0.0
C43 C 0.54776 0.46658 0.57604 0.0
C44 C 0.54059 0.44302 0.63829 0.0
C45 C 0.51957 0.46436 0.64728 0.0
C46 C 0.51325 0.48823 0.62089 0.0
C47 C 0.52785 0.48916 0.58502 0.0
C48 C 0.49145 0.51175 0.63085 0.0
C49 C 0.4676 0.51906 0.60396 0.0
C50 C 0.44691 0.54062 0.61361 0.0
C51 C 0.44883 0.55408 0.65021 0.0
C52 C 0.47181 0.54688 0.67726 0.0
C53 C 0.49367 0.52654 0.66762 0.0
H54 H 0.15383 0.56907 0.77539 0.0
H55 H 0.05984 0.50799 0.85421 0.0
H56 H 0.0245 0.52024 0.74221 0.0
H57 H 0.96714 0.46006 0.75374 0.0
H58 H 0.87252 0.42805 0.83265 0.0
H59 H 1.0014 0.5099 0.86653 0.0
C60 C 0.121 0.55305 0.78213 0.0
C61 C 0.09013 0.54508 0.75483 0.0
C62 C 0.10997 0.54043 0.81798 0.0
C63 C 0.06766 0.51897 0.82661 0.0
C64 C 0.03585 0.51109 0.79956 0.0
C65 C 0.04778 0.52483 0.76353 0.0
C66 C 0.99057 0.48833 0.8088 0.0
C67 C 0.95906 0.46368 0.7815 0.0
C68 C 0.91673 0.44273 0.79002 0.0
C69 C 0.90538 0.44491 0.82602 0.0
C70 C 0.93598 0.4685 0.85359 0.0
C71 C 0.97835 0.49069 0.845 0.0
H72 H 0.45582 0.88092 0.01041 0.0
H73 H 0.51811 0.97086 0.92936 0.0
H74 H 0.50083 0.00898 0.03817 0.0
H75 H 0.56197 0.06586 0.02639 0.0
H76 H 0.59432 0.15547 0.94358 0.0
H77 H 0.514 0.02679 0.91337 0.0
C78 C 0.4716 0.91299 0.0026 0.0
C79 C 0.47787 0.94417 0.02827 0.0
C80 C 0.48543 0.9227 0.96695 0.0
C81 C 0.50636 0.964 0.95683 0.0
C82 C 0.51248 0.99606 0.98221 0.0
C83 C 0.49757 0.98548 0.01812 0.0
C84 C 0.53468 0.04023 0.97143 0.0
C85 C 0.55865 0.07255 -0.00197 0.0
C86 C 0.57939 0.11387 -0.01196 0.0
C87 C 0.57757 0.12339 0.95133 0.0
C88 C 0.55461 0.09196 0.92446 0.0
C89 C 0.53266 0.05057 0.93444 0.0
H90 H 0.45109 0.60461 0.10752 0.0
H91 H 0.51188 0.56806 0.18814 0.0
H92 H 0.49747 0.52453 0.07391 0.0
H93 H 0.55746 0.52436 0.08967 0.0
H94 H 0.58713 0.45963 0.17017 0.0
H95 H 0.50623 0.50664 0.19823 0.0
C96 C 0.46666 0.5873 0.11441 0.0
C97 C 0.47368 0.56524 0.08667 0.0
C98 C 0.47975 0.58749 0.15091 0.0
C99 C 0.50055 0.56594 0.15986 0.0
C100 C 0.50733 0.54263 0.13245 0.0
C101 C 0.49343 0.54247 0.09561 0.0
C102 C 0.52891 0.51895 0.14251 0.0
C103 C 0.55352 0.51226 0.11699 0.0
C104 C 0.57386 0.49039 0.12693 0.0
C105 C 0.57086 0.47605 0.16244 0.0
C106 C 0.54711 0.4826 0.18809 0.0
C107 C 0.52559 0.50323 0.17814 0.0
Mg108 Mg 0.63036 0.37221 0.36165 0.0
O109 O 0.61734 0.40248 0.41187 0.0
O110 O 0.64593 0.47 0.40103 0.0
Mg111 Mg 0.67627 0.48284 0.34513 0.0
C112 C 0.62534 0.43908 0.42097 0.0
C113 C 0.59824 0.28023 0.37076 0.0
O114 O 0.5971 0.28283 0.33481 0.0
O115 O 0.69947 0.39986 0.37997 0.0
O116 O 0.72562 0.4656 0.36394 0.0
O117 O 0.57078 0.36165 0.33381 0.0
O118 O 0.63277 0.41788 0.32837 0.0
C119 C 0.73027 0.43628 0.37611 0.0
C120 C 0.59293 0.39823 0.32127 0.0
O121 O 0.61118 0.31266 0.39146 0.0
Mg122 Mg 0.27412 0.65094 0.57653 0.0
O123 O 0.22842 0.62058 0.52597 0.0
O124 O 0.19027 0.55274 0.53589 0.0
Mg125 Mg 0.21023 0.53988 0.59203 0.0
C126 C 0.19962 0.58382 0.51627 0.0
C127 C 0.33283 0.74361 0.56772 0.0
O128 O 0.33059 0.74093 0.60364 0.0
O129 O 0.31537 0.62457 0.55815 0.0
O130 O 0.27658 0.55855 0.57379 0.0
O131 O 0.22589 0.65999 0.60471 0.0
O132 O 0.23235 0.60445 0.60959 0.0
C133 C 0.31014 0.58838 0.5619 0.0
C134 C 0.21241 0.62353 0.61727 0.0
O135 O 0.31289 0.71104 0.54697 0.0
Mg136 Mg 0.63289 0.26935 0.74239 0.0
O137 O 0.6188 0.22499 0.69196 0.0
O138 O 0.65001 0.18798 0.70452 0.0
Mg139 Mg 0.68194 0.20701 0.76228 0.0
C140 C 0.62792 0.19714 0.68334 0.0
C141 C 0.601 0.3294 0.73098 0.0
O142 O 0.60382 0.32859 0.76702 0.0
O143 O 0.70075 0.31047 0.7268 0.0
O144 O 0.72934 0.27274 0.74506 0.0
O145 O 0.57519 0.22157 0.76839 0.0
O146 O 0.63801 0.22807 0.77674 0.0
C147 C 0.73237 0.30569 0.73239 0.0
C148 C 0.59862 0.20837 0.78279 0.0
O149 O 0.61126 0.3078 0.71094 0.0
Mg150 Mg 0.39501 0.65263 0.86346 0.0
O151 O 0.41014 0.62533 0.91411 0.0
O152 O 0.37939 0.55688 0.90222 0.0
Mg153 Mg 0.34748 0.54106 0.84427 0.0
C154 C 0.40135 0.58909 0.92317 0.0
C155 C 0.42718 0.74491 0.87494 0.0
O156 O 0.4254 0.74014 0.83889 0.0
O157 O 0.32707 0.62661 0.87933 0.0
O158 O 0.29926 0.55981 0.86125 0.0
O159 O 0.45263 0.66144 0.83665 0.0
O160 O 0.39019 0.60491 0.82903 0.0
C161 C 0.29574 0.59012 0.8738 0.0
C162 C 0.42937 0.62442 0.82222 0.0
O163 O 0.41615 0.71382 0.89476 0.0
Mg164 Mg 0.75196 0.396 0.03239 0.0
O165 O 0.79537 0.41148 0.08446 0.0
O166 O 0.83384 0.38105 0.07552 0.0
Mg167 Mg 0.81716 0.34861 0.01808 0.0
C168 C 0.82346 0.40301 0.09513 0.0
C169 C 0.69098 0.42869 0.0404 0.0
O170 O 0.69342 0.42673 0.00449 0.0
O171 O 0.71033 0.32911 0.04866 0.0
O172 O 0.74995 0.30144 0.03347 0.0
O173 O 0.80091 0.45237 0.0058 0.0
O174 O 0.79515 0.39057 0.00026 0.0
C175 C 0.71583 0.29814 0.04446 0.0
C176 C 0.81486 0.42912 -0.00699 0.0
O177 O 0.71155 0.41757 0.06124 0.0
Mg178 Mg 0.36942 0.75677 0.19867 0.0
O179 O 0.40188 0.80029 0.24981 0.0
O180 O 0.47014 0.83858 0.23824 0.0
Mg181 Mg 0.48119 0.82049 0.18077 0.0
C182 C 0.43939 0.8286 0.25894 0.0
C183 C 0.27661 0.69717 0.2083 0.0
O184 O 0.27893 0.69996 0.17239 0.0
O185 O 0.39668 0.71576 0.21398 0.0
O186 O 0.46305 0.75459 0.19728 0.0
O187 O 0.35906 0.80516 0.17371 0.0
O188 O 0.41525 0.79924 0.16564 0.0
C189 C 0.43322 0.72115 0.20909 0.0
C190 C 0.39567 0.81923 0.16027 0.0
O191 O 0.30969 0.71722 0.22894 0.0
C192 C 0.16412 0.62599 0.25292 0.0
C193 C 0.13371 0.60509 0.27037 0.0
C194 C 0.20275 0.65078 0.2365 0.0
C195 C 0.2366 0.67203 0.22387 0.0
C196 C 0.55912 0.16893 0.41545 0.0
C197 C 0.54958 0.13861 0.43288 0.0
C198 C 0.5724 0.20719 0.39898 0.0
C199 C 0.58425 0.24065 0.38631 0.0
C200 C 0.40031 0.55878 0.57044 0.0
C201 C 0.42241 0.54857 0.58683 0.0
C202 C 0.37173 0.57191 0.55996 0.0
C203 C 0.34567 0.58247 0.55965 0.0
C204 C 0.85195 0.39589 0.74478 0.0
C205 C 0.88412 0.41807 0.76246 0.0
C206 C 0.81031 0.36718 0.73271 0.0
C207 C 0.77369 0.34103 0.73131 0.0
C208 C 0.46792 0.85819 0.92328 0.0
C209 C 0.47729 0.88944 0.94114 0.0
C210 C 0.45443 0.81928 0.90558 0.0
C211 C 0.44197 0.78528 0.89168 0.0
C212 C 0.61934 0.47162 0.08442 0.0
C213 C 0.59806 0.48187 0.10133 0.0
C214 C 0.64435 0.45717 0.0683 0.0
C215 C 0.66571 0.44413 0.05579 0.0
C216 C 0.40247 0.85589 0.52401 0.0
C217 C 0.42308 0.88655 0.50706 0.0
C218 C 0.37811 0.81721 0.53993 0.0
C219 C 0.35734 0.78345 0.55229 0.0
C220 C 0.55894 0.39955 0.68335 0.0
C221 C 0.54903 0.42006 0.66509 0.0
C222 C 0.573 0.37517 0.70097 0.0
C223 C 0.5858 0.35423 0.71456 0.0
C224 C 0.17549 0.56007 0.86238 0.0
C225 C 0.14295 0.54932 0.84517 0.0
C226 C 0.21742 0.57355 0.87389 0.0
C227 C 0.25416 0.58406 0.87505 0.0
C228 C 0.62549 0.17955 0.03189 0.0
C229 C 0.60366 0.14724 0.0148 0.0
C230 C 0.65397 0.22093 0.04362 0.0
C231 C 0.68021 0.25716 0.04509 0.0
C232 C 0.46231 0.63217 0.19636 0.0
C233 C 0.47201 0.61082 0.17861 0.0
C234 C 0.44967 0.66025 0.20848 0.0
C235 C 0.43922 0.68608 0.20993 0.0
C236 C 0.85032 0.46744 0.36746 0.0
C237 C 0.88155 0.47766 0.3506 0.0
C238 C 0.80905 0.45401 0.3782 0.0
C239 C 0.77219 0.44294 0.37844 0.0
C240 C 0.12584 0.56263 0.42401 0.0
C241 C 0.10627 0.55836 0.39546 0.0
C242 C 0.15197 0.57037 0.45593 0.0
C243 C 0.17417 0.57732 0.48333 0.0
C244 C 0.57905 0.12639 0.58887 0.0
C245 C 0.56488 0.10777 0.55961 0.0
C246 C 0.59606 0.15145 0.62158 0.0
C247 C 0.6102 0.17277 0.64959 0.0
C248 C 0.46739 0.57337 0.74406 0.0
C249 C 0.4717 0.56009 0.71489 0.0
C250 C 0.45754 0.59074 0.77446 0.0
C251 C 0.44569 0.60698 0.79639 0.0
C252 C 0.90505 0.46517 0.91885 0.0
C253 C 0.9228 0.46911 0.89053 0.0
C254 C 0.87745 0.45598 0.94796 0.0
C255 C 0.84903 0.44478 0.96863 0.0
C256 C 0.44938 0.91416 0.09252 0.0
C257 C 0.46379 0.93241 0.06492 0.0
C258 C 0.43053 0.8849 0.1198 0.0
C259 C 0.41343 0.85512 0.13847 0.0
C260 C 0.55021 0.45298 0.25221 0.0
C261 C 0.54586 0.46793 0.22458 0.0
C262 C 0.56101 0.43355 0.27976 0.0
C263 C 0.57408 0.41615 0.29885 0.0
C264 C 0.46344 0.89935 0.3528 0.0
C265 C 0.46821 0.91796 0.38179 0.0
C266 C 0.45489 0.87425 0.32036 0.0
C267 C 0.44704 0.85298 0.29248 0.0
C268 C 0.57593 0.46095 0.51142 0.0
C269 C 0.56198 0.46573 0.53961 0.0
C270 C 0.5931 0.45271 0.48019 0.0
C271 C 0.60738 0.44549 0.45335 0.0
C272 C 0.121 0.57117 0.68997 0.0
C273 C 0.10306 0.55791 0.71804 0.0
C274 C 0.14907 0.58901 0.66137 0.0
C275 C 0.17782 0.60572 0.64115 0.0
C276 C 0.5594 0.12004 0.85786 0.0
C277 C 0.55467 0.10331 0.88677 0.0
C278 C 0.56982 0.14688 0.82829 0.0
C279 C 0.58201 0.17482 0.80739 0.0
C280 C 0.44778 0.5713 0.01956 0.0
C281 C 0.46047 0.56687 0.04919 0.0
C282 C 0.43206 0.57838 -0.01388 0.0
C283 C 0.41848 0.58421 0.95759 0.0
C284 C 0.89038 0.45137 0.19214 0.0
C285 C 0.90866 0.46466 0.2218 0.0
C286 C 0.86648 0.43494 0.15852 0.0
C287 C 0.84631 0.42081 0.12975 0.0
loop_
_geom_bond_atom_site_label_1
_geom_bond_atom_site_label_2
_geom_bond_distance
_geom_bond_site_symmetry_2
_ccdc_geom_bond_type
H0 C6 0.930 . S
H1 C9 0.931 . S
H2 C11 0.931 . S
H3 C13 0.930 . S
H4 C15 0.930 . S
H5 C17 0.931 . S
C6 H0 0.930 . S
C6 C7 1.380 . S
C6 C8 1.394 . S
C7 C6 1.380 . S
C7 C11 1.382 . S
C8 C6 1.394 . S
C8 C9 1.400 . S
C9 H1 0.931 . S
C9 C8 1.400 . S
C9 C10 1.375 . S
C10 C9 1.375 . S
C10 C11 1.415 . S
C10 C12 1.501 1_455 S
C11 H2 0.931 . S
C11 C7 1.382 . S
C11 C10 1.415 . S
C12 C10 1.501 1_655 S
C12 C13 1.384 . S
C12 C17 1.408 . S
C13 H3 0.930 . S
C13 C12 1.384 . S
C13 C14 1.389 . S
C14 C13 1.389 . S
C14 C15 1.405 . S
C15 H4 0.930 . S
C15 C14 1.405 . S
C15 C16 1.364 . S
C16 C15 1.364 . S
C16 C17 1.400 . S
C17 H5 0.931 . S
C17 C12 1.408 . S
C17 C16 1.400 . S
H18 C24 0.930 . S
H19 C27 0.931 . S
H20 C29 0.931 . S
H21 C31 0.930 . S
H22 C33 0.930 . S
H23 C35 0.931 . S
C24 H18 0.930 . S
C24 C25 1.380 . S
C24 C26 1.394 . S
C25 C24 1.380 . S
C25 C29 1.382 . S
C26 C24 1.394 . S
C26 C27 1.400 . S
C27 H19 0.931 . S
C27 C26 1.400 . S
C27 C28 1.375 . S
C28 C27 1.375 . S
C28 C29 1.415 . S
C28 C30 1.501 1_545 S
C29 H20 0.931 . S
C29 C25 1.382 . S
C29 C28 1.415 . S
C30 C28 1.501 1_565 S
C30 C31 1.384 . S
C30 C35 1.408 . S
C31 H21 0.930 . S
C31 C30 1.384 . S
C31 C32 1.389 . S
C32 C31 1.389 . S
C32 C33 1.405 . S
C33 H22 0.930 . S
C33 C32 1.405 . S
C33 C34 1.364 . S
C34 C33 1.364 . S
C34 C35 1.400 . S
C35 H23 0.931 . S
C35 C30 1.408 . S
C35 C34 1.400 . S
H36 C42 0.930 . S
H37 C45 0.931 . S
H38 C47 0.931 . S
H39 C49 0.930 . S
H40 C51 0.930 . S
H41 C53 0.931 . S
C42 H36 0.930 . S
C42 C43 1.380 . S
C42 C44 1.394 . S
C43 C42 1.380 . S
C43 C47 1.382 . S
C44 C42 1.394 . S
C44 C45 1.400 . S
C45 H37 0.931 . S
C45 C44 1.400 . S
C45 C46 1.375 . S
C46 C45 1.375 . S
C46 C47 1.415 . S
C46 C48 1.501 . S
C47 H38 0.931 . S
C47 C43 1.382 . S
C47 C46 1.415 . S
C48 C46 1.501 . S
C48 C49 1.384 . S
C48 C53 1.408 . S
C49 H39 0.930 . S
C49 C48 1.384 . S
C49 C50 1.389 . S
C50 C49 1.389 . S
C50 C51 1.405 . S
C51 H40 0.930 . S
C51 C50 1.405 . S
C51 C52 1.364 . S
C52 C51 1.364 . S
C52 C53 1.400 . S
C53 H41 0.931 . S
C53 C48 1.408 . S
C53 C52 1.400 . S
H54 C60 0.930 . S
H55 C63 0.931 . S
H56 C65 0.931 . S
H57 C67 0.930 . S
H58 C69 0.930 . S
H59 C71 0.931 . S
C60 H54 0.930 . S
C60 C61 1.380 . S
C60 C62 1.394 . S
C61 C60 1.380 . S
C61 C65 1.382 . S
C62 C60 1.394 . S
C62 C63 1.400 . S
C63 H55 0.931 . S
C63 C62 1.400 . S
C63 C64 1.375 . S
C64 C63 1.375 . S
C64 C65 1.415 . S
C64 C66 1.501 1_455 S
C65 H56 0.931 . S
C65 C61 1.382 . S
C65 C64 1.415 . S
C66 C64 1.501 1_655 S
C66 C67 1.384 . S
C66 C71 1.408 . S
C67 H57 0.930 . S
C67 C66 1.384 . S
C67 C68 1.389 . S
C68 C67 1.389 . S
C68 C69 1.405 . S
C69 H58 0.930 . S
C69 C68 1.405 . S
C69 C70 1.364 . S
C70 C69 1.364 . S
C70 C71 1.400 . S
C71 H59 0.931 . S
C71 C66 1.408 . S
C71 C70 1.400 . S
H72 C78 0.930 . S
H73 C81 0.931 . S
H74 C83 0.931 1_545 S
H75 C85 0.930 . S
H76 C87 0.930 . S
H77 C89 0.931 . S
C78 H72 0.930 . S
C78 C79 1.380 . S
C78 C80 1.394 1_554 S
C79 C78 1.380 . S
C79 C83 1.382 . S
C80 C78 1.394 1_556 S
C80 C81 1.400 . S
C81 H73 0.931 . S
C81 C80 1.400 . S
C81 C82 1.375 . S
C82 C81 1.375 . S
C82 C83 1.415 1_556 S
C82 C84 1.501 1_565 S
C83 H74 0.931 1_565 S
C83 C79 1.382 . S
C83 C82 1.415 1_554 S
C84 C82 1.501 1_545 S
C84 C85 1.384 1_556 S
C84 C89 1.408 . S
C85 H75 0.930 . S
C85 C84 1.384 1_554 S
C85 C86 1.389 1_554 S
C86 C85 1.389 1_556 S
C86 C87 1.406 . S
C87 H76 0.930 . S
C87 C86 1.406 . S
C87 C88 1.364 . S
C88 C87 1.364 . S
C88 C89 1.400 . S
C89 H77 0.931 . S
C89 C84 1.408 . S
C89 C88 1.400 . S
H90 C96 0.930 . S
H91 C99 0.931 . S
H92 C101 0.931 . S
H93 C103 0.930 . S
H94 C105 0.930 . S
H95 C107 0.931 . S
C96 H90 0.930 . S
C96 C97 1.380 . S
C96 C98 1.394 . S
C97 C96 1.380 . S
C97 C101 1.382 . S
C98 C96 1.394 . S
C98 C99 1.400 . S
C99 H91 0.931 . S
C99 C98 1.400 . S
C99 C100 1.375 . S
C100 C99 1.375 . S
C100 C101 1.415 . S
C100 C102 1.501 . S
C101 H92 0.931 . S
C101 C97 1.382 . S
C101 C100 1.415 . S
C102 C100 1.501 . S
C102 C103 1.384 . S
C102 C107 1.408 . S
C103 H93 0.930 . S
C103 C102 1.384 . S
C103 C104 1.389 . S
C104 C103 1.389 . S
C104 C105 1.405 . S
C105 H94 0.930 . S
C105 C104 1.405 . S
C105 C106 1.364 . S
C106 C105 1.364 . S
C106 C107 1.400 . S
C107 H95 0.931 . S
C107 C102 1.408 . S
C107 C106 1.400 . S
Mg108 O109 2.028 . S
Mg108 O115 1.986 . S
Mg108 O117 2.114 . S
Mg108 O118 2.251 . S
Mg108 O121 2.010 . S
O109 Mg108 2.028 . S
O109 C112 1.250 . S
O110 Mg111 2.028 . S
O110 C112 1.248 . S
Mg111 O110 2.028 . S
Mg111 O116 2.032 . S
Mg111 O118 2.079 . S
C112 O109 1.250 . S
C112 O110 1.248 . S
C113 O114 1.264 . S
C113 O121 1.249 . S
O114 C113 1.264 . S
O115 Mg108 1.986 . S
O115 C119 1.246 . S
O116 Mg111 2.032 . S
O116 C119 1.259 . S
O117 Mg108 2.114 . S
O117 C120 1.252 . S
O118 Mg108 2.251 . S
O118 Mg111 2.079 . S
O118 C120 1.273 . S
C119 O115 1.246 . S
C119 O116 1.259 . S
C120 O117 1.252 . S
C120 O118 1.273 . S
O121 Mg108 2.010 . S
O121 C113 1.249 . S
Mg122 O123 2.028 . S
Mg122 O129 1.986 . S
Mg122 O131 2.114 . S
Mg122 O132 2.251 . S
Mg122 O135 2.010 . S
O123 Mg122 2.028 . S
O123 C126 1.250 . S
O124 Mg125 2.028 . S
O124 C126 1.248 . S
Mg125 O124 2.028 . S
Mg125 O130 2.032 . S
Mg125 O132 2.079 . S
C126 O123 1.250 . S
C126 O124 1.248 . S
C127 O128 1.264 . S
C127 O135 1.249 . S
O128 C127 1.264 . S
O129 Mg122 1.986 . S
O129 C133 1.246 . S
O130 Mg125 2.032 . S
O130 C133 1.259 . S
O131 Mg122 2.114 . S
O131 C134 1.252 . S
O132 Mg122 2.251 . S
O132 Mg125 2.079 . S
O132 C134 1.273 . S
C133 O129 1.246 . S
C133 O130 1.259 . S
C134 O131 1.252 . S
C134 O132 1.273 . S
O135 Mg122 2.010 . S
O135 C127 1.249 . S
Mg136 O137 2.028 . S
Mg136 O143 1.986 . S
Mg136 O145 2.114 . S
Mg136 O146 2.251 . S
Mg136 O149 2.010 . S
O137 Mg136 2.028 . S
O137 C140 1.250 . S
O138 Mg139 2.028 . S
O138 C140 1.248 . S
Mg139 O138 2.028 . S
Mg139 O144 2.032 . S
Mg139 O146 2.079 . S
C140 O137 1.250 . S
C140 O138 1.248 . S
C141 O142 1.264 . S
C141 O149 1.249 . S
O142 C141 1.264 . S
O143 Mg136 1.986 . S
O143 C147 1.246 . S
O144 Mg139 2.032 . S
O144 C147 1.259 . S
O145 Mg136 2.114 . S
O145 C148 1.252 . S
O146 Mg136 2.251 . S
O146 Mg139 2.079 . S
O146 C148 1.273 . S
C147 O143 1.246 . S
C147 O144 1.259 . S
C148 O145 1.252 . S
C148 O146 1.273 . S
O149 Mg136 2.010 . S
O149 C141 1.249 . S
Mg150 O151 2.028 . S
Mg150 O157 1.986 . S
Mg150 O159 2.114 . S
Mg150 O160 2.251 . S
Mg150 O163 2.010 . S
O151 Mg150 2.028 . S
O151 C154 1.250 . S
O152 Mg153 2.028 . S
O152 C154 1.248 . S
Mg153 O152 2.028 . S
Mg153 O158 2.032 . S
Mg153 O160 2.079 . S
C154 O151 1.250 . S
C154 O152 1.248 . S
C155 O156 1.264 . S
C155 O163 1.249 . S
O156 C155 1.264 . S
O157 Mg150 1.986 . S
O157 C161 1.246 . S
O158 Mg153 2.032 . S
O158 C161 1.259 . S
O159 Mg150 2.114 . S
O159 C162 1.252 . S
O160 Mg150 2.251 . S
O160 Mg153 2.079 . S
O160 C162 1.273 . S
C161 O157 1.246 . S
C161 O158 1.259 . S
C162 O159 1.252 . S
C162 O160 1.273 . S
O163 Mg150 2.010 . S
O163 C155 1.249 . S
Mg164 O165 2.028 . S
Mg164 O171 1.986 . S
Mg164 O173 2.114 . S
Mg164 O174 2.251 . S
Mg164 O177 2.010 . S
O165 Mg164 2.028 . S
O165 C168 1.250 . S
O166 Mg167 2.028 . S
O166 C168 1.248 . S
Mg167 O166 2.028 . S
Mg167 O172 2.032 . S
Mg167 O174 2.079 . S
C168 O165 1.250 . S
C168 O166 1.248 . S
C169 O170 1.264 . S
C169 O177 1.249 . S
O170 C169 1.264 . S
O171 Mg164 1.986 . S
O171 C175 1.246 . S
O172 Mg167 2.032 . S
O172 C175 1.259 . S
O173 Mg164 2.114 . S
O173 C176 1.252 . S
O174 Mg164 2.251 . S
O174 Mg167 2.079 . S
O174 C176 1.273 . S
C175 O171 1.246 . S
C175 O172 1.259 . S
C176 O173 1.252 . S
C176 O174 1.273 . S
O177 Mg164 2.010 . S
O177 C169 1.249 . S
Mg178 O179 2.028 . S
Mg178 O185 1.986 . S
Mg178 O187 2.114 . S
Mg178 O188 2.251 . S
Mg178 O191 2.010 . S
O179 Mg178 2.028 . S
O179 C182 1.250 . S
O180 Mg181 2.028 . S
O180 C182 1.248 . S
Mg181 O180 2.028 . S
Mg181 O186 2.032 . S
Mg181 O188 2.079 . S
C182 O179 1.250 . S
C182 O180 1.248 . S
C183 O184 1.264 . S
C183 O191 1.249 . S
O184 C183 1.264 . S
O185 Mg178 1.986 . S
O185 C189 1.246 . S
O186 Mg181 2.032 . S
O186 C189 1.259 . S
O187 Mg178 2.114 . S
O187 C190 1.252 . S
O188 Mg178 2.251 . S
O188 Mg181 2.079 . S
O188 C190 1.273 . S
C189 O185 1.246 . S
C189 O186 1.259 . S
C190 O187 1.252 . S
C190 O188 1.273 . S
O191 Mg178 2.010 . S
O191 C183 1.249 . S
C192 C193 1.170 . S
C192 C194 1.380 . S
C193 C192 1.170 . S
C194 C192 1.380 . S
C194 C195 1.170 . S
C195 C194 1.170 . S
C196 C197 1.170 . S
C196 C198 1.380 . S
C197 C196 1.170 . S
C198 C196 1.380 . S
C198 C199 1.170 . S
C199 C198 1.170 . S
C200 C201 1.170 . S
C200 C202 1.380 . S
C201 C200 1.170 . S
C202 C200 1.380 . S
C202 C203 1.170 . S
C203 C202 1.170 . S
C204 C205 1.170 . S
C204 C206 1.380 . S
C205 C204 1.170 . S
C206 C204 1.380 . S
C206 C207 1.170 . S
C207 C206 1.170 . S
C208 C209 1.170 . S
C208 C210 1.380 . S
C209 C208 1.170 . S
C210 C208 1.380 . S
C210 C211 1.170 . S
C211 C210 1.170 . S
C212 C213 1.170 . S
C212 C214 1.380 . S
C213 C212 1.170 . S
C214 C212 1.380 . S
C214 C215 1.170 . S
C215 C214 1.170 . S
C216 C217 1.170 . S
C216 C218 1.380 . S
C217 C216 1.170 . S
C218 C216 1.380 . S
C218 C219 1.170 . S
C219 C218 1.170 . S
C220 C221 1.170 . S
C220 C222 1.380 . S
C221 C220 1.170 . S
C222 C220 1.380 . S
C222 C223 1.170 . S
C223 C222 1.170 . S
C224 C225 1.170 . S
C224 C226 1.380 . S
C225 C224 1.170 . S
C226 C224 1.380 . S
C226 C227 1.170 . S
C227 C226 1.170 . S
C228 C229 1.170 . S
C228 C230 1.380 . S
C229 C228 1.170 . S
C230 C228 1.380 . S
C230 C231 1.170 . S
C231 C230 1.170 . S
C232 C233 1.170 . S
C232 C234 1.380 . S
C233 C232 1.170 . S
C234 C232 1.380 . S
C234 C235 1.170 . S
C235 C234 1.170 . S
C236 C237 1.170 . S
C236 C238 1.380 . S
C237 C236 1.170 . S
C238 C236 1.380 . S
C238 C239 1.170 . S
C239 C238 1.170 . S
C240 C241 1.170 . S
C240 C242 1.380 . S
C241 C240 1.170 . S
C242 C240 1.380 . S
C242 C243 1.170 . S
C243 C242 1.170 . S
C244 C245 1.170 . S
C244 C246 1.380 . S
C245 C244 1.170 . S
C246 C244 1.380 . S
C246 C247 1.170 . S
C247 C246 1.170 . S
C248 C249 1.170 . S
C248 C250 1.380 . S
C249 C248 1.170 . S
C250 C248 1.380 . S
C250 C251 1.170 . S
C251 C250 1.170 . S
C252 C253 1.170 . S
C252 C254 1.380 . S
C253 C252 1.170 . S
C254 C252 1.380 . S
C254 C255 1.170 . S
C255 C254 1.170 . S
C256 C257 1.170 . S
C256 C258 1.380 . S
C257 C256 1.170 . S
C258 C256 1.380 . S
C258 C259 1.170 . S
C259 C258 1.170 . S
C260 C261 1.170 . S
C260 C262 1.380 . S
C261 C260 1.170 . S
C262 C260 1.380 . S
C262 C263 1.170 . S
C263 C262 1.170 . S
C264 C265 1.170 . S
C264 C266 1.380 . S
C265 C264 1.170 . S
C266 C264 1.380 . S
C266 C267 1.170 . S
C267 C266 1.170 . S
C268 C269 1.170 . S
C268 C270 1.380 . S
C269 C268 1.170 . S
C270 C268 1.380 . S
C270 C271 1.170 . S
C271 C270 1.170 . S
C272 C273 1.170 . S
C272 C274 1.380 . S
C273 C272 1.170 . S
C274 C272 1.380 . S
C274 C275 1.170 . S
C275 C274 1.170 . S
C276 C277 1.170 . S
C276 C278 1.380 . S
C277 C276 1.170 . S
C278 C276 1.380 . S
C278 C279 1.170 . S
C279 C278 1.170 . S
C280 C281 1.170 . S
C280 C282 1.380 . S
C281 C280 1.170 . S
C282 C280 1.380 . S
C282 C283 1.170 1_554 S
C283 C282 1.170 1_556 S
C284 C285 1.170 . S
C284 C286 1.380 . S
C285 C284 1.170 . S
C286 C284 1.380 . S
C286 C287 1.170 . S
C287 C286 1.170 . S
C195 C183 1.331 . S
C193 C8 1.466 . S
C197 C26 1.515 . S
C199 C113 1.307 . S
C201 C50 1.465 . S
C203 C133 1.521 . S
C205 C68 1.441 . S
C207 C147 1.469 . S
C211 C155 1.299 . S
C209 C80 1.434 . S
C213 C104 1.480 . S
C215 C169 1.247 . S
C217 C32 1.471 . S
C219 C127 1.342 . S
C221 C44 1.472 . S
C223 C141 1.234 . S
C225 C62 1.442 . S
C227 C161 1.464 . S
C231 C175 1.483 . S
C229 C86 1.429 1_554 S
C235 C189 1.485 . S
C233 C98 1.451 . S
C239 C119 1.520 . S
C237 C14 1.477 . S
C241 C7 1.417 . S
C243 C126 1.476 . S
C245 C25 1.432 . S
C247 C140 1.461 . S
C251 C162 1.489 . S
C249 C52 1.424 . S
C253 C70 1.417 . S
C255 C176 1.500 1_556 S
C259 C190 1.469 . S
C257 C79 1.386 . S
C263 C120 1.461 . S
C261 C106 1.391 . S
C267 C182 1.456 . S
C265 C34 1.417 . S
C269 C43 1.446 . S
C271 C112 1.469 . S
C275 C134 1.482 . S
C273 C61 1.425 . S
C277 C88 1.450 . S
C279 C148 1.476 . S
C281 C97 1.462 . S
C283 C154 1.510 . S
C285 C16 1.462 . S
C287 C168 1.503 . S
