# Generated by pormake.
# Topology tbo, (3,4)-cn, num edge types: 1
# Building blocks:
#     Node 0, Type 0, BuildingBlock: PAMTOO_clean_linker_0, # of connection points: 3
#     Node 1, Type 0, BuildingBlock: PAMTOO_clean_linker_0, # of connection points: 3
#     Node 2, Type 0, BuildingBlock: PAMTOO_clean_linker_0, # of connection points: 3
#     Node 3, Type 0, BuildingBlock: PAMTOO_clean_linker_0, # of connection points: 3
#     Node 4, Type 0, BuildingBlock: PAMTOO_clean_linker_0, # of connection points: 3
#     Node 5, Type 0, BuildingBlock: PAMTOO_clean_linker_0, # of connection points: 3
#     Node 6, Type 0, BuildingBlock: PAMTOO_clean_linker_0, # of connection points: 3
#     Node 7, Type 0, BuildingBlock: PAMTOO_clean_linker_0, # of connection points: 3
#     Node 8, Type 0, BuildingBlock: PAMTOO_clean_linker_0, # of connection points: 3
#     Node 9, Type 0, BuildingBlock: PAMTOO_clean_linker_0, # of connection points: 3
#     Node 10, Type 0, BuildingBlock: PAMTOO_clean_linker_0, # of connection points: 3
#     Node 11, Type 0, BuildingBlock: PAMTOO_clean_linker_0, # of connection points: 3
#     Node 12, Type 0, BuildingBlock: PAMTOO_clean_linker_0, # of connection points: 3
#     Node 13, Type 0, BuildingBlock: PAMTOO_clean_linker_0, # of connection points: 3
#     Node 14, Type 0, BuildingBlock: PAMTOO_clean_linker_0, # of connection points: 3
#     Node 15, Type 0, BuildingBlock: PAMTOO_clean_linker_0, # of connection points: 3
#     Node 16, Type 0, BuildingBlock: PAMTOO_clean_linker_0, # of connection points: 3
#     Node 17, Type 0, BuildingBlock: PAMTOO_clean_linker_0, # of connection points: 3
#     Node 18, Type 0, BuildingBlock: PAMTOO_clean_linker_0, # of connection points: 3
#     Node 19, Type 0, BuildingBlock: PAMTOO_clean_linker_0, # of connection points: 3
#     Node 20, Type 0, BuildingBlock: PAMTOO_clean_linker_0, # of connection points: 3
#     Node 21, Type 0, BuildingBlock: PAMTOO_clean_linker_0, # of connection points: 3
#     Node 22, Type 0, BuildingBlock: PAMTOO_clean_linker_0, # of connection points: 3
#     Node 23, Type 0, BuildingBlock: PAMTOO_clean_linker_0, # of connection points: 3
#     Node 24, Type 0, BuildingBlock: PAMTOO_clean_linker_0, # of connection points: 3
#     Node 25, Type 0, BuildingBlock: PAMTOO_clean_linker_0, # of connection points: 3
#     Node 26, Type 0, BuildingBlock: PAMTOO_clean_linker_0, # of connection points: 3
#     Node 27, Type 0, BuildingBlock: PAMTOO_clean_linker_0, # of connection points: 3
#     Node 28, Type 0, BuildingBlock: PAMTOO_clean_linker_0, # of connection points: 3
#     Node 29, Type 0, BuildingBlock: PAMTOO_clean_linker_0, # of connection points: 3
#     Node 30, Type 0, BuildingBlock: PAMTOO_clean_linker_0, # of connection points: 3
#     Node 31, Type 0, BuildingBlock: PAMTOO_clean_linker_0, # of connection points: 3
#     Node 32, Type 1, BuildingBlock: ESEHIV_clean_sbu_0, # of connection points: 4
#     Node 33, Type 1, BuildingBlock: ESEHIV_clean_sbu_0, # of connection points: 4
#     Node 34, Type 1, BuildingBlock: ESEHIV_clean_sbu_0, # of connection points: 4
#     Node 35, Type 1, BuildingBlock: ESEHIV_clean_sbu_0, # of connection points: 4
#     Node 36, Type 1, BuildingBlock: ESEHIV_clean_sbu_0, # of connection points: 4
#     Node 37, Type 1, BuildingBlock: ESEHIV_clean_sbu_0, # of connection points: 4
#     Node 38, Type 1, BuildingBlock: ESEHIV_clean_sbu_0, # of connection points: 4
#     Node 39, Type 1, BuildingBlock: ESEHIV_clean_sbu_0, # of connection points: 4
#     Node 40, Type 1, BuildingBlock: ESEHIV_clean_sbu_0, # of connection points: 4
#     Node 41, Type 1, BuildingBlock: ESEHIV_clean_sbu_0, # of connection points: 4
#     Node 42, Type 1, BuildingBlock: ESEHIV_clean_sbu_0, # of connection points: 4
#     Node 43, Type 1, BuildingBlock: ESEHIV_clean_sbu_0, # of connection points: 4
#     Node 44, Type 1, BuildingBlock: ESEHIV_clean_sbu_0, # of connection points: 4
#     Node 45, Type 1, BuildingBlock: ESEHIV_clean_sbu_0, # of connection points: 4
#     Node 46, Type 1, BuildingBlock: ESEHIV_clean_sbu_0, # of connection points: 4
#     Node 47, Type 1, BuildingBlock: ESEHIV_clean_sbu_0, # of connection points: 4
#     Node 48, Type 1, BuildingBlock: ESEHIV_clean_sbu_0, # of connection points: 4
#     Node 49, Type 1, BuildingBlock: ESEHIV_clean_sbu_0, # of connection points: 4
#     Node 50, Type 1, BuildingBlock: ESEHIV_clean_sbu_0, # of connection points: 4
#     Node 51, Type 1, BuildingBlock: ESEHIV_clean_sbu_0, # of connection points: 4
#     Node 52, Type 1, BuildingBlock: ESEHIV_clean_sbu_0, # of connection points: 4
#     Node 53, Type 1, BuildingBlock: ESEHIV_clean_sbu_0, # of connection points: 4
#     Node 54, Type 1, BuildingBlock: ESEHIV_clean_sbu_0, # of connection points: 4
#     Node 55, Type 1, BuildingBlock: ESEHIV_clean_sbu_0, # of connection points: 4
#     Edge 56, Type (0, 1), BuildingBlock: XIVTED_clean_linker_0, # of connection points: 2
#     Edge 57, Type (0, 1), BuildingBlock: XIVTED_clean_linker_0, # of connection points: 2
#     Edge 58, Type (0, 1), BuildingBlock: XIVTED_clean_linker_0, # of connection points: 2
#     Edge 59, Type (0, 1), BuildingBlock: XIVTED_clean_linker_0, # of connection points: 2
#     Edge 60, Type (0, 1), BuildingBlock: XIVTED_clean_linker_0, # of connection points: 2
#     Edge 61, Type (0, 1), BuildingBlock: XIVTED_clean_linker_0, # of connection points: 2
#     Edge 62, Type (0, 1), BuildingBlock: XIVTED_clean_linker_0, # of connection points: 2
#     Edge 63, Type (0, 1), BuildingBlock: XIVTED_clean_linker_0, # of connection points: 2
#     Edge 64, Type (0, 1), BuildingBlock: XIVTED_clean_linker_0, # of connection points: 2
#     Edge 65, Type (0, 1), BuildingBlock: XIVTED_clean_linker_0, # of connection points: 2
#     Edge 66, Type (0, 1), BuildingBlock: XIVTED_clean_linker_0, # of connection points: 2
#     Edge 67, Type (0, 1), BuildingBlock: XIVTED_clean_linker_0, # of connection points: 2
#     Edge 68, Type (0, 1), BuildingBlock: XIVTED_clean_linker_0, # of connection points: 2
#     Edge 69, Type (0, 1), BuildingBlock: XIVTED_clean_linker_0, # of connection points: 2
#     Edge 70, Type (0, 1), BuildingBlock: XIVTED_clean_linker_0, # of connection points: 2
#     Edge 71, Type (0, 1), BuildingBlock: XIVTED_clean_linker_0, # of connection points: 2
#     Edge 72, Type (0, 1), BuildingBlock: XIVTED_clean_linker_0, # of connection points: 2
#     Edge 73, Type (0, 1), BuildingBlock: XIVTED_clean_linker_0, # of connection points: 2
#     Edge 74, Type (0, 1), BuildingBlock: XIVTED_clean_linker_0, # of connection points: 2
#     Edge 75, Type (0, 1), BuildingBlock: XIVTED_clean_linker_0, # of connection points: 2
#     Edge 76, Type (0, 1), BuildingBlock: XIVTED_clean_linker_0, # of connection points: 2
#     Edge 77, Type (0, 1), BuildingBlock: XIVTED_clean_linker_0, # of connection points: 2
#     Edge 78, Type (0, 1), BuildingBlock: XIVTED_clean_linker_0, # of connection points: 2
#     Edge 79, Type (0, 1), BuildingBlock: XIVTED_clean_linker_0, # of connection points: 2
#     Edge 80, Type (0, 1), BuildingBlock: XIVTED_clean_linker_0, # of connection points: 2
#     Edge 81, Type (0, 1), BuildingBlock: XIVTED_clean_linker_0, # of connection points: 2
#     Edge 82, Type (0, 1), BuildingBlock: XIVTED_clean_linker_0, # of connection points: 2
#     Edge 83, Type (0, 1), BuildingBlock: XIVTED_clean_linker_0, # of connection points: 2
#     Edge 84, Type (0, 1), BuildingBlock: XIVTED_clean_linker_0, # of connection points: 2
#     Edge 85, Type (0, 1), BuildingBlock: XIVTED_clean_linker_0, # of connection points: 2
#     Edge 86, Type (0, 1), BuildingBlock: XIVTED_clean_linker_0, # of connection points: 2
#     Edge 87, Type (0, 1), BuildingBlock: XIVTED_clean_linker_0, # of connection points: 2
#     Edge 88, Type (0, 1), BuildingBlock: XIVTED_clean_linker_0, # of connection points: 2
#     Edge 89, Type (0, 1), BuildingBlock: XIVTED_clean_linker_0, # of connection points: 2
#     Edge 90, Type (0, 1), BuildingBlock: XIVTED_clean_linker_0, # of connection points: 2
#     Edge 91, Type (0, 1), BuildingBlock: XIVTED_clean_linker_0, # of connection points: 2
#     Edge 92, Type (0, 1), BuildingBlock: XIVTED_clean_linker_0, # of connection points: 2
#     Edge 93, Type (0, 1), BuildingBlock: XIVTED_clean_linker_0, # of connection points: 2
#     Edge 94, Type (0, 1), BuildingBlock: XIVTED_clean_linker_0, # of connection points: 2
#     Edge 95, Type (0, 1), BuildingBlock: XIVTED_clean_linker_0, # of connection points: 2
#     Edge 96, Type (0, 1), BuildingBlock: XIVTED_clean_linker_0, # of connection points: 2
#     Edge 97, Type (0, 1), BuildingBlock: XIVTED_clean_linker_0, # of connection points: 2
#     Edge 98, Type (0, 1), BuildingBlock: XIVTED_clean_linker_0, # of connection points: 2
#     Edge 99, Type (0, 1), BuildingBlock: XIVTED_clean_linker_0, # of connection points: 2
#     Edge 100, Type (0, 1), BuildingBlock: XIVTED_clean_linker_0, # of connection points: 2
#     Edge 101, Type (0, 1), BuildingBlock: XIVTED_clean_linker_0, # of connection points: 2
#     Edge 102, Type (0, 1), BuildingBlock: XIVTED_clean_linker_0, # of connection points: 2
#     Edge 103, Type (0, 1), BuildingBlock: XIVTED_clean_linker_0, # of connection points: 2
#     Edge 104, Type (0, 1), BuildingBlock: XIVTED_clean_linker_0, # of connection points: 2
#     Edge 105, Type (0, 1), BuildingBlock: XIVTED_clean_linker_0, # of connection points: 2
#     Edge 106, Type (0, 1), BuildingBlock: XIVTED_clean_linker_0, # of connection points: 2
#     Edge 107, Type (0, 1), BuildingBlock: XIVTED_clean_linker_0, # of connection points: 2
#     Edge 108, Type (0, 1), BuildingBlock: XIVTED_clean_linker_0, # of connection points: 2
#     Edge 109, Type (0, 1), BuildingBlock: XIVTED_clean_linker_0, # of connection points: 2
#     Edge 110, Type (0, 1), BuildingBlock: XIVTED_clean_linker_0, # of connection points: 2
#     Edge 111, Type (0, 1), BuildingBlock: XIVTED_clean_linker_0, # of connection points: 2
#     Edge 112, Type (0, 1), BuildingBlock: XIVTED_clean_linker_0, # of connection points: 2
#     Edge 113, Type (0, 1), BuildingBlock: XIVTED_clean_linker_0, # of connection points: 2
#     Edge 114, Type (0, 1), BuildingBlock: XIVTED_clean_linker_0, # of connection points: 2
#     Edge 115, Type (0, 1), BuildingBlock: XIVTED_clean_linker_0, # of connection points: 2
#     Edge 116, Type (0, 1), BuildingBlock: XIVTED_clean_linker_0, # of connection points: 2
#     Edge 117, Type (0, 1), BuildingBlock: XIVTED_clean_linker_0, # of connection points: 2
#     Edge 118, Type (0, 1), BuildingBlock: XIVTED_clean_linker_0, # of connection points: 2
#     Edge 119, Type (0, 1), BuildingBlock: XIVTED_clean_linker_0, # of connection points: 2
#     Edge 120, Type (0, 1), BuildingBlock: XIVTED_clean_linker_0, # of connection points: 2
#     Edge 121, Type (0, 1), BuildingBlock: XIVTED_clean_linker_0, # of connection points: 2
#     Edge 122, Type (0, 1), BuildingBlock: XIVTED_clean_linker_0, # of connection points: 2
#     Edge 123, Type (0, 1), BuildingBlock: XIVTED_clean_linker_0, # of connection points: 2
#     Edge 124, Type (0, 1), BuildingBlock: XIVTED_clean_linker_0, # of connection points: 2
#     Edge 125, Type (0, 1), BuildingBlock: XIVTED_clean_linker_0, # of connection points: 2
#     Edge 126, Type (0, 1), BuildingBlock: XIVTED_clean_linker_0, # of connection points: 2
#     Edge 127, Type (0, 1), BuildingBlock: XIVTED_clean_linker_0, # of connection points: 2
#     Edge 128, Type (0, 1), BuildingBlock: XIVTED_clean_linker_0, # of connection points: 2
#     Edge 129, Type (0, 1), BuildingBlock: XIVTED_clean_linker_0, # of connection points: 2
#     Edge 130, Type (0, 1), BuildingBlock: XIVTED_clean_linker_0, # of connection points: 2
#     Edge 131, Type (0, 1), BuildingBlock: XIVTED_clean_linker_0, # of connection points: 2
#     Edge 132, Type (0, 1), BuildingBlock: XIVTED_clean_linker_0, # of connection points: 2
#     Edge 133, Type (0, 1), BuildingBlock: XIVTED_clean_linker_0, # of connection points: 2
#     Edge 134, Type (0, 1), BuildingBlock: XIVTED_clean_linker_0, # of connection points: 2
#     Edge 135, Type (0, 1), BuildingBlock: XIVTED_clean_linker_0, # of connection points: 2
#     Edge 136, Type (0, 1), BuildingBlock: XIVTED_clean_linker_0, # of connection points: 2
#     Edge 137, Type (0, 1), BuildingBlock: XIVTED_clean_linker_0, # of connection points: 2
#     Edge 138, Type (0, 1), BuildingBlock: XIVTED_clean_linker_0, # of connection points: 2
#     Edge 139, Type (0, 1), BuildingBlock: XIVTED_clean_linker_0, # of connection points: 2
#     Edge 140, Type (0, 1), BuildingBlock: XIVTED_clean_linker_0, # of connection points: 2
#     Edge 141, Type (0, 1), BuildingBlock: XIVTED_clean_linker_0, # of connection points: 2
#     Edge 142, Type (0, 1), BuildingBlock: XIVTED_clean_linker_0, # of connection points: 2
#     Edge 143, Type (0, 1), BuildingBlock: XIVTED_clean_linker_0, # of connection points: 2
#     Edge 144, Type (0, 1), BuildingBlock: XIVTED_clean_linker_0, # of connection points: 2
#     Edge 145, Type (0, 1), BuildingBlock: XIVTED_clean_linker_0, # of connection points: 2
#     Edge 146, Type (0, 1), BuildingBlock: XIVTED_clean_linker_0, # of connection points: 2
#     Edge 147, Type (0, 1), BuildingBlock: XIVTED_clean_linker_0, # of connection points: 2
#     Edge 148, Type (0, 1), BuildingBlock: XIVTED_clean_linker_0, # of connection points: 2
#     Edge 149, Type (0, 1), BuildingBlock: XIVTED_clean_linker_0, # of connection points: 2
#     Edge 150, Type (0, 1), BuildingBlock: XIVTED_clean_linker_0, # of connection points: 2
#     Edge 151, Type (0, 1), BuildingBlock: XIVTED_clean_linker_0, # of connection points: 2
# Relax obj value: 0.022
# Max RMSD: 0.184
# Mean RMSD: 0.112
data_MOF--net-tbo--node1-ESEHIV_clean_sbu_0--node2-PAMTOO_clean_linker_0--edge1-XIVTED_clean_linker_0
_symmetry_space_group_name_H-M    P1
_symmetry_Int_Tables_number       1
_symmetry_cell_setting            triclinic
loop_
_symmetry_equiv_pos_as_xyz
'x, y, z'
_cell_length_a     71.210229
_cell_length_b     74.1604
_cell_length_c     73.857525
_cell_angle_alpha  90.414467
_cell_angle_beta   93.705621
_cell_angle_gamma 98.06652
loop_
_atom_site_label
_atom_site_type_symbol
_atom_site_fract_x
_atom_site_fract_y
_atom_site_fract_z
_atom_type_partial_charge
H0 H 0.16275 0.2058 0.21308 0.0
H1 H 0.17119 0.16354 0.25111 0.0
H2 H 0.20527 0.17088 0.20509 0.0
H3 H 0.19601 0.13309 0.2128 0.0
C4 C 0.19264 0.13361 0.22728 0.0
O5 O 0.19821 0.15119 0.23398 0.0
H6 H 0.177 0.12989 0.22788 0.0
C7 C 0.17002 0.19445 0.2172 0.0
C8 C 0.18461 0.1896 0.20693 0.0
C9 C 0.16521 0.1853 0.23322 0.0
C10 C 0.17484 0.17076 0.23884 0.0
C11 C 0.18911 0.16539 0.22856 0.0
C12 C 0.19414 0.17501 0.21283 0.0
H13 H 0.89608 0.20455 0.22212 0.0
H14 H 0.85064 0.20534 0.18068 0.0
H15 H 0.89694 0.24914 0.18503 0.0
H16 H 0.86004 0.26106 0.17521 0.0
C17 C 0.85245 0.24826 0.16873 0.0
O18 O 0.86516 0.23606 0.16683 0.0
H19 H 0.84105 0.24253 0.17755 0.0
C20 C 0.88957 0.21103 0.21069 0.0
C21 C 0.89856 0.22774 0.20454 0.0
C22 C 0.87218 0.20279 0.20228 0.0
C23 C 0.86408 0.21135 0.18736 0.0
C24 C 0.87299 0.22801 0.18122 0.0
C25 C 0.89014 0.23623 0.18986 0.0
H26 H 0.84413 0.85381 0.18851 0.0
H27 H 0.80194 0.89006 0.18349 0.0
H28 H 0.84536 0.89826 0.22682 0.0
H29 H 0.80723 0.90566 0.23739 0.0
C30 C 0.80142 0.90981 0.22396 0.0
O31 O 0.81538 0.91045 0.21165 0.0
H32 H 0.78913 0.89952 0.21925 0.0
C33 C 0.83821 0.86543 0.19344 0.0
C34 C 0.84694 0.87519 0.20896 0.0
C35 C 0.82214 0.8707 0.18391 0.0
C36 C 0.81436 0.88574 0.19048 0.0
C37 C 0.82254 0.89544 0.20608 0.0
C38 C 0.83883 0.89022 0.21519 0.0
H39 H 0.11867 0.85688 0.19887 0.0
H40 H 0.12486 0.82018 0.15504 0.0
H41 H 0.17022 0.86304 0.17058 0.0
H42 H 0.16545 0.85712 0.13087 0.0
C43 C 0.15732 0.84315 0.13068 0.0
O44 O 0.15871 0.8359 0.14778 0.0
H45 H 0.14222 0.84429 0.12647 0.0
C46 C 0.12701 0.85272 0.18822 0.0
C47 C 0.14537 0.86193 0.18621 0.0
C48 C 0.11955 0.83763 0.17713 0.0
C49 C 0.1305 0.83175 0.16376 0.0
C50 C 0.14863 0.8411 0.16128 0.0
C51 C 0.15615 0.85598 0.17262 0.0
H52 H 0.16507 0.90497 0.82922 0.0
H53 H 0.17627 0.8655 0.86972 0.0
H54 H 0.21197 0.91709 0.86909 0.0
H55 H 0.23441 0.88914 0.88301 0.0
C56 C 0.22223 0.87809 0.88377 0.0
O57 O 0.2058 0.88573 0.88551 0.0
H58 H 0.22103 0.86978 0.871 0.0
C59 C 0.17361 0.90076 0.84069 0.0
C60 C 0.18924 0.91287 0.84796 0.0
C61 C 0.16851 0.88369 0.8485 0.0
C62 C 0.17961 0.87871 0.86363 0.0
C63 C 0.19524 0.89072 0.87099 0.0
C64 C 0.19986 0.90788 0.86333 0.0
H65 H 0.18435 0.24979 0.91977 0.0
H66 H 0.1801 0.21913 0.86933 0.0
H67 H 0.21866 0.20708 0.91302 0.0
H68 H 0.23398 0.20857 0.87849 0.0
C69 C 0.22165 0.20175 0.86978 0.0
O70 O 0.20577 0.19852 0.87978 0.0
H71 H 0.21865 0.21099 0.85847 0.0
C72 C 0.18883 0.23938 0.91133 0.0
C73 C 0.20264 0.22901 0.91854 0.0
C74 C 0.18019 0.23579 0.89364 0.0
C75 C 0.18615 0.22196 0.88306 0.0
C76 C 0.20007 0.21176 0.89003 0.0
C77 C 0.20799 0.21512 0.90778 0.0
H78 H 0.82383 0.15546 0.88013 0.0
H79 H 0.86674 0.20222 0.88973 0.0
H80 H 0.87185 0.16431 0.84702 0.0
H81 H 0.90636 0.17505 0.86603 0.0
C82 C 0.90493 0.18902 0.87083 0.0
O83 O 0.88782 0.19378 0.86407 0.0
H84 H 0.90547 0.189 0.88593 0.0
C85 C 0.83697 0.16352 0.87668 0.0
C86 C 0.84702 0.15766 0.86248 0.0
C87 C 0.84375 0.17971 0.8865 0.0
C88 C 0.861 0.18991 0.88212 0.0
C89 C 0.87109 0.18416 0.86803 0.0
C90 C 0.86396 0.16832 0.85808 0.0
H91 H 0.79996 0.87445 0.88114 0.0
H92 H 0.84093 0.83723 0.88974 0.0
H93 H 0.84411 0.87286 0.84422 0.0
H94 H 0.8496 0.83478 0.83646 0.0
C95 C 0.85792 0.83203 0.84918 0.0
O96 O 0.85939 0.84688 0.86091 0.0
H97 H 0.85004 0.81992 0.85551 0.0
C98 C 0.81248 0.86903 0.87724 0.0
C99 C 0.82126 0.87568 0.86158 0.0
C100 C 0.81936 0.85523 0.88771 0.0
C101 C 0.83513 0.84769 0.88189 0.0
C102 C 0.84388 0.85389 0.86611 0.0
C103 C 0.83696 0.86788 0.85608 0.0
H104 H 0.16532 0.72737 0.67975 0.0
H105 H 0.16127 0.6843 0.71898 0.0
H106 H 0.20476 0.68809 0.68142 0.0
H107 H 0.18806 0.65038 0.68791 0.0
C108 C 0.18289 0.65217 0.70162 0.0
O109 O 0.1897 0.66952 0.70818 0.0
H110 H 0.16707 0.6503 0.70014 0.0
C111 C 0.1704 0.71549 0.68567 0.0
C112 C 0.18639 0.70905 0.67879 0.0
C113 C 0.16101 0.70664 0.70018 0.0
C114 C 0.1679 0.6912 0.70766 0.0
C115 C 0.1835 0.68453 0.70085 0.0
C116 C 0.19275 0.69349 0.68658 0.0
H117 H 0.89281 0.71543 0.70671 0.0
H118 H 0.83972 0.70153 0.67475 0.0
H119 H 0.8799 0.7467 0.65993 0.0
H120 H 0.83941 0.75231 0.65876 0.0
C121 C 0.83295 0.73887 0.65275 0.0
O122 O 0.84668 0.72761 0.65156 0.0
H123 H 0.82191 0.73269 0.66173 0.0
C124 C 0.88325 0.71762 0.69517 0.0
C125 C 0.88852 0.73207 0.68353 0.0
C126 C 0.86553 0.70654 0.69241 0.0
C127 C 0.85327 0.71004 0.67751 0.0
C128 C 0.85844 0.72452 0.66593 0.0
C129 C 0.87598 0.73558 0.669 0.0
H130 H 0.8748 0.36219 0.70531 0.0
H131 H 0.83553 0.40159 0.70137 0.0
H132 H 0.87773 0.40552 0.74536 0.0
H133 H 0.84027 0.41623 0.75457 0.0
C134 C 0.83582 0.42114 0.74099 0.0
O135 O 0.85034 0.42079 0.72947 0.0
H136 H 0.82299 0.41193 0.73546 0.0
C137 C 0.8694 0.37392 0.71071 0.0
C138 C 0.87842 0.38285 0.72667 0.0
C139 C 0.85392 0.3806 0.70123 0.0
C140 C 0.84747 0.39623 0.70812 0.0
C141 C 0.85613 0.40515 0.72384 0.0
C142 C 0.8714 0.39844 0.7331 0.0
H143 H 0.15554 0.38892 0.71068 0.0
H144 H 0.12919 0.35077 0.66916 0.0
H145 H 0.17799 0.38885 0.65793 0.0
H146 H 0.14659 0.38061 0.62671 0.0
C147 C 0.1418 0.36631 0.63058 0.0
O148 O 0.15324 0.3616 0.64504 0.0
H149 H 0.12679 0.36526 0.6343 0.0
C150 C 0.15493 0.38337 0.697 0.0
C151 C 0.16855 0.39059 0.68506 0.0
C152 C 0.14049 0.36912 0.69139 0.0
C153 C 0.14011 0.36182 0.67377 0.0
C154 C 0.15347 0.36908 0.66175 0.0
C155 C 0.16755 0.38353 0.66729 0.0
H156 H 0.18156 0.40681 0.35312 0.0
H157 H 0.19053 0.36501 0.39188 0.0
H158 H 0.23084 0.41326 0.39102 0.0
H159 H 0.25025 0.38301 0.4032 0.0
C160 C 0.23716 0.37308 0.40433 0.0
O161 O 0.22204 0.38239 0.40682 0.0
H162 H 0.23472 0.36474 0.39156 0.0
C163 C 0.19004 0.40159 0.36405 0.0
C164 C 0.20699 0.41218 0.37107 0.0
C165 C 0.18367 0.38462 0.3717 0.0
C166 C 0.19484 0.37816 0.38599 0.0
C167 C 0.21169 0.38855 0.39285 0.0
C168 C 0.21764 0.40549 0.38555 0.0
H169 H 0.15297 0.74038 0.38171 0.0
H170 H 0.1522 0.70293 0.33686 0.0
H171 H 0.19283 0.70173 0.38238 0.0
H172 H 0.2071 0.69866 0.34369 0.0
C173 C 0.19431 0.68974 0.33771 0.0
O174 O 0.18067 0.68711 0.35036 0.0
H175 H 0.18854 0.69674 0.32575 0.0
C176 C 0.15847 0.72912 0.37546 0.0
C177 C 0.17351 0.72169 0.38453 0.0
C178 C 0.15042 0.72243 0.35843 0.0
C179 C 0.15828 0.70845 0.34991 0.0
C180 C 0.17377 0.70116 0.35839 0.0
C181 C 0.18132 0.70779 0.37569 0.0
H182 H 0.8093 0.63491 0.36317 0.0
H183 H 0.84553 0.68631 0.37257 0.0
H184 H 0.86067 0.64722 0.33524 0.0
H185 H 0.89229 0.66603 0.35688 0.0
C186 C 0.88766 0.67966 0.35833 0.0
O187 O 0.87003 0.67972 0.34952 0.0
H188 H 0.88702 0.68265 0.37305 0.0
C189 C 0.82201 0.64416 0.36061 0.0
C190 C 0.83464 0.63893 0.34834 0.0
C191 C 0.82575 0.66125 0.36955 0.0
C192 C 0.84222 0.67311 0.36585 0.0
C193 C 0.8547 0.66798 0.35353 0.0
C194 C 0.85096 0.65095 0.34487 0.0
H195 H 0.81418 0.3604 0.4164 0.0
H196 H 0.85879 0.3266 0.41932 0.0
H197 H 0.85717 0.36633 0.37752 0.0
H198 H 0.86762 0.33086 0.36563 0.0
C199 C 0.87496 0.32694 0.37845 0.0
O200 O 0.87565 0.34079 0.39123 0.0
H201 H 0.86655 0.31432 0.38331 0.0
C202 C 0.82688 0.35638 0.41118 0.0
C203 C 0.8345 0.36524 0.3959 0.0
C204 C 0.83543 0.34238 0.41982 0.0
C205 C 0.85199 0.33736 0.41299 0.0
C206 C 0.85967 0.34583 0.39765 0.0
C207 C 0.85092 0.35971 0.38917 0.0
H208 H 0.67184 0.22309 0.70044 0.0
H209 H 0.66668 0.17768 0.73707 0.0
H210 H 0.70513 0.17931 0.69487 0.0
H211 H 0.6837 0.14387 0.70062 0.0
C212 C 0.68339 0.1442 0.71567 0.0
O213 O 0.69201 0.16099 0.72242 0.0
H214 H 0.66823 0.14204 0.719 0.0
C215 C 0.6756 0.21008 0.7048 0.0
C216 C 0.68939 0.20225 0.69561 0.0
C217 C 0.66742 0.20158 0.72012 0.0
C218 C 0.67291 0.18478 0.72566 0.0
C219 C 0.68645 0.17684 0.71657 0.0
C220 C 0.69468 0.18563 0.70173 0.0
H221 H 0.37632 0.21484 0.71806 0.0
H222 H 0.33739 0.22437 0.67325 0.0
H223 H 0.3899 0.26004 0.68256 0.0
H224 H 0.36193 0.28046 0.66409 0.0
C225 C 0.35063 0.26846 0.66316 0.0
O226 O 0.35892 0.25282 0.66166 0.0
H227 H 0.34273 0.26842 0.67571 0.0
C228 C 0.3726 0.22293 0.70657 0.0
C229 C 0.38532 0.23822 0.70183 0.0
C230 C 0.35522 0.21777 0.69645 0.0
C231 C 0.35078 0.2279 0.68116 0.0
C232 C 0.36341 0.24298 0.6762 0.0
C233 C 0.3806 0.24805 0.68642 0.0
H234 H 0.36498 0.87369 0.69808 0.0
H235 H 0.32545 0.91277 0.70008 0.0
H236 H 0.37161 0.91492 0.74032 0.0
H237 H 0.33496 0.92086 0.7533 0.0
C238 C 0.32975 0.92909 0.74197 0.0
O239 O 0.34255 0.9304 0.72857 0.0
H240 H 0.31575 0.92202 0.73639 0.0
C241 C 0.35998 0.88509 0.70456 0.0
C242 C 0.37024 0.89321 0.72025 0.0
C243 C 0.34378 0.89202 0.69686 0.0
C244 C 0.33798 0.90727 0.70532 0.0
C245 C 0.34807 0.9155 0.72085 0.0
C246 C 0.36411 0.90849 0.7282 0.0
H247 H 0.65041 0.84957 0.69986 0.0
H248 H 0.6305 0.80845 0.65893 0.0
H249 H 0.67377 0.85267 0.64757 0.0
H250 H 0.64494 0.84084 0.61718 0.0
C251 C 0.64286 0.82594 0.61971 0.0
O252 O 0.65374 0.82222 0.63497 0.0
H253 H 0.62754 0.82155 0.62169 0.0
C254 C 0.65107 0.84383 0.6864 0.0
C255 C 0.66355 0.85292 0.67448 0.0
C256 C 0.63892 0.8279 0.68092 0.0
C257 C 0.63957 0.82089 0.66331 0.0
C258 C 0.65223 0.82975 0.65139 0.0
C259 C 0.66404 0.84588 0.65687 0.0
H260 H 0.69244 0.90876 0.33678 0.0
H261 H 0.69491 0.86284 0.37214 0.0
H262 H 0.73819 0.90899 0.378 0.0
H263 H 0.75429 0.87637 0.38759 0.0
C264 C 0.74073 0.86694 0.38788 0.0
O265 O 0.72606 0.87688 0.39032 0.0
H266 H 0.73821 0.85927 0.37471 0.0
C267 C 0.69919 0.90219 0.34799 0.0
C268 C 0.71622 0.91099 0.35678 0.0
C269 C 0.69147 0.88454 0.35315 0.0
C270 C 0.70071 0.87621 0.36759 0.0
C271 C 0.71743 0.88503 0.37646 0.0
C272 C 0.72515 0.90233 0.37106 0.0
H273 H 0.63948 0.23793 0.39127 0.0
H274 H 0.6367 0.19658 0.34954 0.0
H275 H 0.6791 0.19886 0.39371 0.0
H276 H 0.69101 0.1931 0.35479 0.0
C277 C 0.67808 0.18366 0.34991 0.0
O278 O 0.66535 0.18163 0.3634 0.0
H279 H 0.67157 0.18998 0.33787 0.0
C280 C 0.6448 0.22627 0.38562 0.0
C281 C 0.66025 0.2194 0.39478 0.0
C282 C 0.63622 0.21837 0.36917 0.0
C283 C 0.64319 0.20311 0.36201 0.0
C284 C 0.65865 0.19615 0.37077 0.0
C285 C 0.66709 0.20426 0.38713 0.0
H286 H 0.30232 0.13736 0.42509 0.0
H287 H 0.34407 0.18347 0.41529 0.0
H288 H 0.33863 0.13595 0.38085 0.0
H289 H 0.37783 0.15202 0.39098 0.0
C290 C 0.37602 0.16669 0.39122 0.0
O291 O 0.35719 0.16853 0.38737 0.0
H292 H 0.38074 0.17228 0.40506 0.0
C293 C 0.31384 0.14373 0.41739 0.0
C294 C 0.31934 0.13438 0.40248 0.0
C295 C 0.32252 0.16144 0.4221 0.0
C296 C 0.33727 0.16975 0.41194 0.0
C297 C 0.34325 0.16036 0.39732 0.0
C298 C 0.33426 0.14278 0.39255 0.0
H299 H 0.31064 0.87069 0.40546 0.0
H300 H 0.35795 0.84011 0.40829 0.0
H301 H 0.35171 0.87681 0.36459 0.0
H302 H 0.3636 0.8421 0.35404 0.0
C303 C 0.37188 0.83915 0.36671 0.0
O304 O 0.37251 0.85349 0.37891 0.0
H305 H 0.36447 0.82648 0.37249 0.0
C306 C 0.32346 0.86725 0.39998 0.0
C307 C 0.32988 0.87561 0.38389 0.0
C308 C 0.33336 0.85426 0.40892 0.0
C309 C 0.34997 0.84988 0.40164 0.0
C310 C 0.35655 0.85804 0.38577 0.0
C311 C 0.34658 0.87088 0.37702 0.0
H312 H 0.65336 0.71239 0.1965 0.0
H313 H 0.6602 0.67305 0.23801 0.0
H314 H 0.69278 0.67376 0.19098 0.0
H315 H 0.67933 0.63631 0.20296 0.0
C316 C 0.67719 0.63931 0.2174 0.0
O317 O 0.68519 0.65708 0.22165 0.0
H318 H 0.66157 0.63767 0.21884 0.0
C319 C 0.65997 0.70093 0.2015 0.0
C320 C 0.67375 0.69416 0.19149 0.0
C321 C 0.65514 0.69354 0.21832 0.0
C322 C 0.66393 0.67894 0.22512 0.0
C323 C 0.67727 0.6716 0.21515 0.0
C324 C 0.68236 0.67941 0.19851 0.0
H325 H 0.38737 0.72303 0.21718 0.0
H326 H 0.34526 0.70962 0.17272 0.0
H327 H 0.3884 0.756 0.16961 0.0
H328 H 0.35249 0.76311 0.15469 0.0
C329 C 0.34528 0.74914 0.15106 0.0
O330 O 0.35835 0.73705 0.1528 0.0
H331 H 0.33386 0.74558 0.16056 0.0
C332 C 0.38119 0.72581 0.20387 0.0
C333 C 0.38955 0.74091 0.19446 0.0
C334 C 0.36525 0.71424 0.19626 0.0
C335 C 0.35778 0.71802 0.1788 0.0
C336 C 0.36612 0.73306 0.16923 0.0
C337 C 0.38218 0.7443 0.17696 0.0
H338 H 0.31472 0.4136 0.19668 0.0
H339 H 0.34898 0.37131 0.21025 0.0
H340 H 0.35321 0.4186 0.24455 0.0
H341 H 0.39059 0.40441 0.24425 0.0
C342 C 0.38509 0.39098 0.23773 0.0
O343 O 0.36569 0.38742 0.23956 0.0
H344 H 0.38809 0.39174 0.22313 0.0
C345 C 0.32506 0.40808 0.20564 0.0
C346 C 0.3331 0.4183 0.22115 0.0
C347 C 0.33078 0.39111 0.20131 0.0
C348 C 0.34465 0.38446 0.2129 0.0
C349 C 0.35278 0.39441 0.22832 0.0
C350 C 0.347 0.41122 0.23241 0.0
H351 H 0.64613 0.37045 0.20864 0.0
H352 H 0.63625 0.33491 0.16144 0.0
H353 H 0.68474 0.3762 0.16583 0.0
H354 H 0.66653 0.36909 0.12784 0.0
C355 C 0.66073 0.35452 0.12957 0.0
O356 O 0.6668 0.34881 0.14638 0.0
H357 H 0.64492 0.35322 0.12827 0.0
C358 C 0.65012 0.3662 0.19553 0.0
C359 C 0.66661 0.37533 0.18834 0.0
C360 C 0.6389 0.35156 0.18599 0.0
C361 C 0.64457 0.34607 0.16917 0.0
C362 C 0.66098 0.35499 0.16199 0.0
C363 C 0.67188 0.36964 0.17145 0.0
H364 H 0.68494 0.41344 0.84718 0.0
H365 H 0.68236 0.36593 0.88078 0.0
H366 H 0.73176 0.40604 0.88528 0.0
H367 H 0.74145 0.37117 0.88696 0.0
C368 C 0.72883 0.36334 0.89279 0.0
O369 O 0.71612 0.37496 0.89693 0.0
H370 H 0.72184 0.35299 0.88258 0.0
C371 C 0.6914 0.40551 0.85748 0.0
C372 C 0.70979 0.41175 0.8653 0.0
C373 C 0.68127 0.38905 0.86316 0.0
C374 C 0.68983 0.37874 0.87639 0.0
C375 C 0.70805 0.38484 0.88411 0.0
C376 C 0.71783 0.40135 0.87878 0.0
H377 H 0.66859 0.74043 0.89975 0.0
H378 H 0.65912 0.7093 0.84951 0.0
H379 H 0.70128 0.69714 0.88979 0.0
H380 H 0.70989 0.70116 0.84913 0.0
C381 C 0.69754 0.69092 0.84444 0.0
O382 O 0.68469 0.68813 0.85775 0.0
H383 H 0.69041 0.69635 0.83222 0.0
C384 C 0.67213 0.72993 0.89082 0.0
C385 C 0.68629 0.7194 0.89679 0.0
C386 C 0.66189 0.72634 0.87384 0.0
C387 C 0.66646 0.71223 0.86274 0.0
C388 C 0.68069 0.70184 0.86845 0.0
C389 C 0.69042 0.70535 0.88546 0.0
H390 H 0.30505 0.65266 0.85761 0.0
H391 H 0.34465 0.70166 0.86895 0.0
H392 H 0.35517 0.66441 0.82762 0.0
H393 H 0.38827 0.6784 0.84995 0.0
C394 C 0.38493 0.69218 0.85344 0.0
O395 O 0.36785 0.69487 0.84477 0.0
H396 H 0.38407 0.69303 0.86841 0.0
C397 C 0.31807 0.66143 0.85503 0.0
C398 C 0.32944 0.6565 0.8414 0.0
C399 C 0.32319 0.67791 0.86491 0.0
C400 C 0.34008 0.68915 0.86125 0.0
C401 C 0.35149 0.68418 0.84789 0.0
C402 C 0.34607 0.66809 0.83785 0.0
H403 H 0.30994 0.37518 0.90247 0.0
H404 H 0.35488 0.34263 0.91316 0.0
H405 H 0.35267 0.3733 0.86412 0.0
H406 H 0.36183 0.33585 0.86008 0.0
C407 C 0.37097 0.33504 0.87278 0.0
O408 O 0.37154 0.3509 0.88294 0.0
H409 H 0.36441 0.32326 0.88055 0.0
C410 C 0.32267 0.37017 0.8985 0.0
C411 C 0.33009 0.37574 0.88191 0.0
C412 C 0.33139 0.35831 0.91003 0.0
C413 C 0.34782 0.35171 0.90454 0.0
C414 C 0.35549 0.35709 0.88798 0.0
C415 C 0.34669 0.36922 0.87683 0.0
Cu416 Cu 0.25851 0.2905 0.06599 0.0
N417 N 0.25569 0.30774 0.04792 0.0
N418 N 0.26334 0.32256 0.02245 0.0
C419 C 0.26813 0.31048 0.03488 0.0
C420 C 0.24724 0.32789 0.02807 0.0
C421 C 0.2425 0.31865 0.04377 0.0
O422 O 0.266 0.27094 0.05128 0.0
C423 C 0.26991 0.3155 0.09299 0.0
O424 O 0.25296 0.31905 0.08729 0.0
H425 H 0.28054 0.3036 0.03457 0.0
H426 H 0.23022 0.31966 0.0514 0.0
N427 N 0.23648 0.28162 0.07778 0.0
N428 N 0.21895 0.26635 0.09853 0.0
C429 C 0.23662 0.27168 0.09302 0.0
C430 C 0.21808 0.28278 0.07341 0.0
C431 C 0.20726 0.27343 0.08615 0.0
C432 C 0.25425 0.25675 0.04676 0.0
O433 O 0.241 0.25096 0.05774 0.0
H434 H 0.24957 0.2681 0.09958 0.0
H435 H 0.21287 0.28971 0.0617 0.0
O436 O 0.27656 0.30265 0.08501 0.0
H437 H 0.23919 0.3374 0.02111 0.0
H438 H 0.19194 0.272 0.08617 0.0
Cu439 Cu 0.75947 0.26012 0.01922 0.0
N440 N 0.73583 0.26169 0.02802 0.0
N441 N 0.7144 0.27298 0.04393 0.0
C442 C 0.73298 0.27183 0.04248 0.0
C443 C 0.70514 0.26277 0.03002 0.0
C444 C 0.71844 0.25588 0.02017 0.0
O445 O 0.77781 0.25913 0.03958 0.0
C446 C 0.76084 0.29596 1.0048 0.0
O447 O 0.75322 0.30016 0.0197 0.0
H448 H 0.74446 0.27895 0.05122 0.0
H449 H 0.71573 0.24805 1.00762 0.0
N450 N 0.75888 0.23907 1.00531 0.0
N451 N 0.76739 0.22062 0.98424 0.0
C452 C 0.7701 0.23756 0.9916 0.0
C453 C 0.74864 0.22254 1.00679 0.0
C454 C 0.75389 0.21108 0.99378 0.0
C455 C 0.78622 0.27272 0.04889 0.0
O456 O 0.7835 0.28925 0.04422 0.0
H457 H 0.78046 0.24863 0.98751 0.0
H458 H 0.73828 0.21904 0.01674 0.0
O459 O 0.7657 0.28021 1.00298 0.0
H460 H 0.69 0.26133 0.02654 0.0
H461 H 0.7482 0.19687 0.99154 0.0
Cu462 Cu 0.74707 0.7828 0.04292 0.0
N463 N 0.74465 0.80047 0.0251 0.0
N464 N 0.75194 0.81581 0.99979 0.0
C465 C 0.75639 0.80285 0.01143 0.0
C466 C 0.73676 0.82195 1.00653 0.0
C467 C 0.73223 0.81241 0.02208 0.0
O468 O 0.75236 0.76255 0.02784 0.0
C469 C 0.76369 0.80829 0.06808 0.0
O470 O 0.74879 0.81539 0.06163 0.0
H471 H 0.76813 0.79522 0.01016 0.0
H472 H 0.72069 0.81404 0.0305 0.0
N473 N 0.72543 0.77566 0.0559 0.0
N474 N 0.70821 0.76229 0.0779 0.0
C475 C 0.72565 0.76607 0.07137 0.0
C476 C 0.70723 0.77818 0.05245 0.0
C477 C 0.69661 0.76999 0.06595 0.0
C478 C 0.73957 0.7491 0.02353 0.0
O479 O 0.72564 0.74493 0.03423 0.0
H480 H 0.73843 0.76165 0.07742 0.0
H481 H 0.702 0.78529 0.04087 0.0
O482 O 0.76677 0.79317 0.06131 0.0
H483 H 0.72924 0.83236 1.00049 0.0
H484 H 0.68148 0.76984 0.06681 0.0
Cu485 Cu 0.24897 0.76141 1.0027 0.0
N486 N 0.2265 0.76215 0.0141 0.0
N487 N 0.2071 0.77069 0.03414 0.0
C488 C 0.2253 0.77045 0.03014 0.0
C489 C 0.19644 0.76193 0.02008 0.0
C490 C 0.20847 0.75672 1.0077 0.0
O491 O 0.26938 0.76173 0.02162 0.0
C492 C 0.24731 0.79718 0.98898 0.0
O493 O 0.24096 0.80069 1.00474 0.0
H494 H 0.23765 0.77667 0.0384 0.0
H495 H 0.20438 0.75011 0.99466 0.0
N496 N 0.24754 0.74028 0.98852 0.0
N497 N 0.25388 0.72172 0.96645 0.0
C498 C 0.25789 0.73848 0.9742 0.0
C499 C 0.23651 0.72413 0.98994 0.0
C500 C 0.24046 0.7126 0.97636 0.0
C501 C 0.26834 0.74815 0.03215 0.0
O502 O 0.25419 0.73484 0.02922 0.0
H503 H 0.26836 0.74926 0.96973 0.0
H504 H 0.22632 0.72098 1.00011 0.0
O505 O 0.25254 0.78173 0.98615 0.0
H506 H 0.18109 0.76017 0.01838 0.0
H507 H 0.23377 0.6987 0.97385 0.0
Cu508 Cu 0.03764 0.27558 0.31506 0.0
N509 N 0.04804 0.25376 0.31304 0.0
N510 N 0.06617 0.23402 0.30273 0.0
C511 C 0.06444 0.25174 0.30552 0.0
C512 C 0.05029 0.22454 0.3088 0.0
C513 C 0.03917 0.23673 0.31516 0.0
O514 O 0.05837 0.29554 0.31898 0.0
C515 C 1.00578 0.26816 0.2917 0.0
O516 O 1.00046 0.2578 0.30531 0.0
H517 H 0.07429 0.26305 0.30106 0.0
H518 H 0.02513 0.23342 0.32006 0.0
N519 N 0.02147 0.27584 0.33431 0.0
N520 N 0.99736 0.28273 0.35005 0.0
C521 C 1.00784 0.28667 0.33555 0.0
C522 C 0.01971 0.26473 0.34859 0.0
C523 C 1.00493 0.26896 0.35831 0.0
C524 C 0.06773 0.29586 0.33428 0.0
O525 O 0.06291 0.28292 0.34585 0.0
H526 H 1.00546 0.29697 0.32569 0.0
H527 H 0.02823 0.25398 0.35145 0.0
O528 O 0.02219 0.27762 0.29269 0.0
H529 H 0.04669 0.20987 0.30817 0.0
H530 H 0.99977 0.26191 0.37017 0.0
Cu531 Cu 0.75635 0.05947 0.27729 0.0
N532 N 0.76802 0.07641 0.26136 0.0
N533 N 0.78717 0.09661 0.24629 0.0
C534 C 0.78487 0.08744 0.26197 0.0
C535 C 0.77122 0.09126 0.23567 0.0
C536 C 0.75952 0.07891 0.24497 0.0
O537 O 0.73521 0.07044 0.28702 0.0
C538 C 0.76504 0.03207 0.25532 0.0
O539 O 0.78071 0.04382 0.25615 0.0
H540 H 0.79527 0.08847 0.27343 0.0
H541 H 0.74571 0.07199 0.2401 0.0
N542 N 0.77154 0.05343 0.2974 0.0
N543 N 0.7754 0.03326 0.3193 0.0
C544 C 0.7718 0.03578 0.30146 0.0
C545 C 0.77575 0.06252 0.31336 0.0
C546 C 0.778 0.05008 0.3269 0.0
C547 C 0.74011 0.0865 0.29375 0.0
O548 O 0.7577 0.09428 0.29252 0.0
H549 H 0.76635 0.02471 0.29212 0.0
H550 H 0.77481 0.07676 0.31554 0.0
O551 O 0.75074 0.03626 0.2633 0.0
H552 H 0.76812 0.09613 0.22217 0.0
H553 H 0.77936 0.05297 0.34135 0.0
Cu554 Cu 0.99905 0.7941 0.27545 0.0
N555 N 0.98686 0.81505 0.27386 0.0
N556 N 0.96437 0.83267 0.26689 0.0
C557 C 0.96926 0.81573 0.26617 0.0
C558 C 0.97941 0.84304 0.27555 0.0
C559 C 0.99329 0.83216 0.27974 0.0
O560 O 0.98083 0.77408 0.2827 0.0
C561 C 1.00465 0.7953 0.23734 0.0
O562 O 0.98951 0.80358 0.23574 0.0
H563 H 0.96026 0.80401 0.26004 0.0
H564 H 1.00719 0.83651 0.28637 0.0
N565 N 0.0194 0.79615 0.2931 0.0
N566 N 0.04456 0.7882 0.30937 0.0
C567 C 0.0331 0.78525 0.29401 0.0
C568 C 0.0223 0.8064 0.30839 0.0
C569 C 0.0378 0.80155 0.31843 0.0
C570 C 0.97298 0.77675 0.29729 0.0
O571 O 0.97718 0.79266 0.30561 0.0
H572 H 0.034 0.77471 0.28402 0.0
H573 H 0.01334 0.81618 0.31234 0.0
O574 O 1.00982 0.78936 0.25271 0.0
H575 H 0.98053 0.85755 0.27814 0.0
H576 H 0.0434 0.80719 0.33156 0.0
Cu577 Cu 0.23592 0.99173 0.30741 0.0
N578 N 0.23457 1.00074 0.3308 0.0
N579 N 0.24426 0.01888 0.35475 0.0
C580 C 0.24836 0.01322 0.33832 0.0
C581 C 0.22712 0.00953 0.3578 0.0
C582 C 0.22122 0.99813 0.34299 0.0
O583 O 0.23975 0.01359 0.29206 0.0
C584 C 0.25017 0.96161 0.32021 0.0
O585 O 0.23281 0.95968 0.32566 0.0
H586 H 0.2608 0.01868 0.33138 0.0
H587 H 0.20802 0.98895 0.34113 0.0
N588 N 0.21333 0.97778 0.29831 0.0
N589 N 0.19403 0.95786 0.28034 0.0
C590 C 0.21219 0.96498 0.28513 0.0
C591 C 0.19527 0.9789 0.30201 0.0
C592 C 0.18333 0.96659 0.29096 0.0
C593 C 0.22791 0.02475 0.29457 0.0
O594 O 0.21497 0.02045 0.30628 0.0
H595 H 0.2245 0.96141 0.27883 0.0
H596 H 0.19102 0.98824 0.31173 0.0
O597 O 0.2555 0.97541 0.31051 0.0
H598 H 0.21934 0.01101 0.36971 0.0
H599 H 0.16797 0.96434 0.29076 0.0
Cu600 Cu 0.02072 0.78788 0.77693 0.0
N601 N 0.03159 0.76679 0.77197 0.0
N602 N 0.05166 0.74935 0.76067 0.0
C603 C 0.04899 0.76636 0.76579 0.0
C604 C 0.03524 0.73872 0.76402 0.0
C605 C 0.02295 0.74947 0.77089 0.0
O606 O 0.04124 0.80658 0.78545 0.0
C607 C 0.01022 0.78958 0.73918 0.0
O608 O 0.02616 0.78317 0.73672 0.0
H609 H 0.05915 0.77848 0.76442 0.0
H610 H 1.0084 0.74512 0.77403 0.0
N611 N 1.00254 0.78443 0.79448 0.0
N612 N 0.97754 0.78901 0.81022 0.0
C613 C 0.98883 0.79498 0.79677 0.0
C614 C 0.99987 0.77128 0.80687 0.0
C615 C 0.98455 0.77407 0.81658 0.0
C616 C 0.04951 0.80396 0.80081 0.0
O617 O 0.04328 0.78944 0.80993 0.0
H618 H 0.98727 0.80686 0.7887 0.0
H619 H 1.00837 0.76035 0.80862 0.0
O620 O 1.00673 0.79427 0.75507 0.0
H621 H 0.03185 0.72431 0.76092 0.0
H622 H 0.97882 0.76547 0.82726 0.0
Cu623 Cu 0.26506 0.07191 0.78037 0.0
N624 N 0.26463 0.0856 0.75937 0.0
N625 N 0.27318 0.10839 0.74064 0.0
C626 C 0.27549 0.10173 0.75747 0.0
C627 C 0.26031 0.09585 0.73157 0.0
C628 C 0.25502 0.08179 0.74321 0.0
O629 O 0.26934 0.09004 0.80015 0.0
C630 C 0.28897 0.04424 0.78918 0.0
O631 O 0.28253 0.04425 0.80545 0.0
H632 H 0.28536 0.10814 0.76815 0.0
H633 H 0.24511 0.06957 0.74005 0.0
N634 N 0.24161 0.0575 0.78245 0.0
N635 N 0.22125 0.03373 0.79058 0.0
C636 C 0.23896 0.03952 0.78567 0.0
C637 C 0.22484 0.06323 0.785 0.0
C638 C 0.21226 0.04858 0.79018 0.0
C639 C 0.26068 0.08881 0.81478 0.0
O640 O 0.2513 0.07305 0.81904 0.0
H641 H 0.25018 0.03108 0.78583 0.0
H642 H 0.2224 0.07729 0.78448 0.0
O643 O 0.28428 0.05583 0.77771 0.0
H644 H 0.2551 0.09674 0.71756 0.0
H645 H 0.19797 0.04898 0.79419 0.0
Cu646 Cu 0.02887 0.30764 0.80952 0.0
N647 N 0.01195 0.32513 0.80965 0.0
N648 N 0.98813 0.34029 0.79977 0.0
C649 C 0.99841 0.32677 0.7963 0.0
C650 C 0.99551 0.34736 0.81604 0.0
C651 C 0.01007 0.33795 0.82213 0.0
O652 O 0.01347 0.28452 0.81368 0.0
C653 C 0.04832 0.32616 0.78382 0.0
O654 O 0.04712 0.33873 0.79616 0.0
H655 H 0.9963 0.31829 0.78415 0.0
H656 H 0.01849 0.34019 0.83485 0.0
N657 N 0.04922 0.31044 0.82753 0.0
N658 N 0.07478 0.30339 0.84414 0.0
C659 C 0.06041 0.29754 0.83161 0.0
C660 C 0.05677 0.32506 0.83777 0.0
C661 C 0.07241 0.32075 0.84803 0.0
C662 C 1.00787 0.28343 0.82972 0.0
O663 O 0.01343 0.29715 0.84108 0.0
H664 H 0.05827 0.28427 0.82502 0.0
H665 H 0.05161 0.33808 0.83751 0.0
O666 O 0.04062 0.30991 0.7865 0.0
H667 H 0.99051 0.35835 0.82323 0.0
H668 H 0.08136 0.32986 0.85754 0.0
Cu669 Cu 0.75762 1.00348 0.76924 0.0
N670 N 0.78028 0.01857 0.78013 0.0
N671 N 0.7995 0.04091 0.79513 0.0
C672 C 0.78133 0.03413 0.78984 0.0
C673 C 0.81016 0.02898 0.78851 0.0
C674 C 0.79827 0.01526 0.77925 0.0
O675 O 0.74802 0.02623 0.75839 0.0
C676 C 0.76691 0.97874 0.79759 0.0
O677 O 0.76006 0.99086 0.80739 0.0
H678 H 0.76906 0.04043 0.79273 0.0
H679 H 0.8024 1.00364 0.77238 0.0
N680 N 0.7354 0.98812 0.75782 0.0
N681 N 0.71809 0.96639 0.74046 0.0
C682 C 0.7357 0.97337 0.74719 0.0
C683 C 0.71702 0.99052 0.75795 0.0
C684 C 0.70629 0.97713 0.74716 0.0
C685 C 0.73743 0.03506 0.76732 0.0
O686 O 0.73276 0.0292 0.7834 0.0
H687 H 0.74859 0.96809 0.74417 0.0
H688 H 0.71175 1.00125 0.76523 0.0
O689 O 0.7671 0.98092 0.7805 0.0
H690 H 0.82546 0.02992 0.79027 0.0
H691 H 0.691 0.9753 0.74462 0.0
Cu692 Cu 0.25494 0.7965 0.54722 0.0
N693 N 0.25574 0.81653 0.56321 0.0
N694 N 0.26645 0.83588 0.58633 0.0
C695 C 0.27069 0.82308 0.57473 0.0
C696 C 0.24813 0.83762 0.58175 0.0
C697 C 0.24153 0.8256 0.56762 0.0
O698 O 0.24942 0.77475 0.56217 0.0
C699 C 0.28131 0.79205 0.51998 0.0
O700 O 0.27181 0.77571 0.51696 0.0
H701 H 0.2843 0.81815 0.57493 0.0
H702 H 0.22714 0.82305 0.5616 0.0
N703 N 0.23514 0.79518 0.5289 0.0
N704 N 0.21815 0.78505 0.50327 0.0
C705 C 0.23022 0.78108 0.51706 0.0
C706 C 0.22568 0.80851 0.52243 0.0
C707 C 0.21506 0.80225 0.50673 0.0
C708 C 0.25758 0.77276 0.57779 0.0
O709 O 0.27336 0.7835 0.58276 0.0
H710 H 0.23591 0.76832 0.51818 0.0
H711 H 0.22726 0.82218 0.52805 0.0
O712 O 0.27812 0.80111 0.53393 0.0
H713 H 0.23979 0.84626 0.58875 0.0
H714 H 0.20669 0.81013 0.49794 0.0
Cu715 Cu 0.73942 0.7402 0.50113 0.0
N716 N 0.73897 0.71922 0.48708 0.0
N717 N 0.74695 0.70069 0.46578 0.0
C718 C 0.74955 0.71776 0.47285 0.0
C719 C 0.7342 0.69103 0.47604 0.0
C720 C 0.72929 0.70253 0.48918 0.0
O721 O 0.74654 0.76079 0.48564 0.0
C722 C 0.76713 0.75262 0.53003 0.0
O723 O 0.76681 0.76894 0.52336 0.0
H724 H 0.7594 0.72894 0.46817 0.0
H725 H 0.71955 0.69895 0.49966 0.0
N726 N 0.71553 0.74167 0.5094 0.0
N727 N 0.69361 0.75172 0.52561 0.0
C728 C 0.71232 0.75144 0.52399 0.0
C729 C 0.69827 0.73524 0.50162 0.0
C730 C 0.68465 0.74137 0.51167 0.0
C731 C 0.74233 0.77668 0.48829 0.0
O732 O 0.73401 0.78018 0.50301 0.0
H733 H 0.72359 0.7587 0.53289 0.0
H734 H 0.69579 0.72725 0.48917 0.0
O735 O 0.757 0.73897 0.52213 0.0
H736 H 0.72882 0.6767 0.47422 0.0
H737 H 0.66945 0.73915 0.50845 0.0
Cu738 Cu 0.75054 0.2851 0.55762 0.0
N739 N 0.72993 0.28577 0.54039 0.0
N740 N 0.71221 0.27865 0.51433 0.0
C741 C 0.72532 0.27353 0.52661 0.0
C742 C 0.70838 0.29475 0.52076 0.0
C743 C 0.71936 0.29914 0.5367 0.0
O744 O 0.77191 0.28488 0.54218 0.0
C745 C 0.75254 0.26168 0.58825 0.0
O746 O 0.7695 0.27094 0.59183 0.0
H747 H 0.73238 0.26166 0.52508 0.0
H748 H 0.72028 0.31171 0.54437 0.0
N749 N 0.75565 0.30569 0.57324 0.0
N750 N 0.77064 0.32485 0.59491 0.0
C751 C 0.77217 0.31121 0.58308 0.0
C752 C 0.74325 0.31616 0.5792 0.0
C753 C 0.75249 0.32809 0.59236 0.0
C754 C 0.77441 0.29916 0.53256 0.0
O755 O 0.76429 0.31228 0.53548 0.0
H756 H 0.7849 0.30494 0.58199 0.0
H757 H 0.72827 0.31456 0.57509 0.0
O758 O 0.7434 0.26431 0.5733 0.0
H759 H 0.69873 0.30309 0.51418 0.0
H760 H 0.74605 0.33769 0.6002 0.0
Cu761 Cu 0.2283 0.2601 0.53132 0.0
N762 N 0.20391 0.26159 0.53809 0.0
N763 N 0.18032 0.27448 0.54879 0.0
C764 C 0.19851 0.27701 0.54425 0.0
C765 C 0.17399 0.25668 0.54541 0.0
C766 C 0.18861 0.24875 0.53867 0.0
O767 O 0.24602 0.26639 0.55201 0.0
C768 C 0.23894 0.29342 0.51335 0.0
O769 O 0.24212 0.30072 0.52971 0.0
H770 H 0.20803 0.28971 0.54594 0.0
H771 H 0.18816 0.23463 0.5347 0.0
N772 N 0.23121 0.23696 0.52338 0.0
N773 N 0.2444 0.21606 0.50872 0.0
C774 C 0.24247 0.23383 0.51016 0.0
C775 C 0.22575 0.22066 0.53068 0.0
C776 C 0.23384 0.20767 0.52159 0.0
C777 C 0.26386 0.2682 0.55057 0.0
O778 O 0.27041 0.26672 0.53447 0.0
H779 H 0.25 0.24461 0.50252 0.0
H780 H 0.21721 0.21849 0.54227 0.0
O781 O 0.23335 0.27644 0.51147 0.0
H782 H 0.1599 0.24988 0.54772 0.0
H783 H 0.23241 0.19329 0.52453 0.0
Cu784 Cu 0.79216 0.56787 0.79872 0.0
N785 N 0.81225 0.58655 0.79603 0.0
N786 N 0.8291 0.61002 0.78295 0.0
C787 C 0.81366 0.59717 0.78136 0.0
C788 C 0.83779 0.60738 0.79932 0.0
C789 C 0.82725 0.59296 0.80744 0.0
O790 O 0.76971 0.58007 0.80088 0.0
C791 C 0.80787 0.54488 0.77666 0.0
O792 O 0.82304 0.55386 0.78535 0.0
H793 H 0.80349 0.59544 0.76972 0.0
H794 H 0.83016 0.5878 0.82082 0.0
N795 N 0.79495 0.55419 0.81952 0.0
N796 N 0.7866 0.53047 0.83719 0.0
C797 C 0.78058 0.54222 0.82503 0.0
C798 C 0.81074 0.54999 0.82855 0.0
C799 C 0.80561 0.53539 0.83956 0.0
C800 C 0.76991 0.58879 0.81589 0.0
O801 O 0.78416 0.58805 0.82796 0.0
H802 H 0.76627 0.54102 0.81879 0.0
H803 H 0.82508 0.55597 0.82617 0.0
O804 O 0.7917 0.5497 0.77922 0.0
H805 H 0.85052 0.6156 0.80519 0.0
H806 H 0.81526 0.52826 0.84775 0.0
Cu807 Cu 0.25667 0.50886 0.78128 0.0
N808 N 0.25517 0.49262 0.80059 0.0
N809 N 0.26303 0.47055 0.81899 0.0
C810 C 0.26789 0.48116 0.80474 0.0
C811 C 0.24658 0.47562 0.82398 0.0
C812 C 0.24179 0.48924 0.81264 0.0
O813 O 0.25694 0.49386 0.75973 0.0
C814 C 0.28621 0.53847 0.77626 0.0
O815 O 0.27969 0.53835 0.7592 0.0
H816 H 0.28027 0.4804 0.79716 0.0
H817 H 0.22941 0.49612 0.81311 0.0
N818 N 0.23587 0.522 0.77887 0.0
N819 N 0.21905 0.54428 0.77015 0.0
C820 C 0.23655 0.53952 0.77375 0.0
C821 C 0.21726 0.51547 0.77871 0.0
C822 C 0.20687 0.52916 0.77344 0.0
C823 C 0.24883 0.4969 0.74442 0.0
O824 O 0.24278 0.51266 0.74171 0.0
H825 H 0.24963 0.54843 0.77208 0.0
H826 H 0.21165 0.50147 0.78128 0.0
O827 O 0.27928 0.52609 0.7867 0.0
H828 H 0.23861 0.47001 0.83512 0.0
H829 H 0.19156 0.52772 0.77119 0.0
Cu830 Cu 0.28181 0.5631 0.28298 0.0
N831 N 0.28292 0.55022 0.30459 0.0
N832 N 0.27402 0.52776 0.32359 0.0
C833 C 0.27176 0.5343 0.30672 0.0
C834 C 0.2872 0.54014 0.33248 0.0
C835 C 0.29269 0.55399 0.32071 0.0
O836 O 0.28207 0.5439 0.26427 0.0
C837 C 0.26165 0.58734 0.2983 0.0
O838 O 0.27707 0.58798 0.30917 0.0
H839 H 0.26169 0.52797 0.29616 0.0
H840 H 0.30266 0.56613 0.32392 0.0
N841 N 0.30293 0.58086 0.28045 0.0
N842 N 0.32035 0.60521 0.26931 0.0
C843 C 0.30387 0.59368 0.26758 0.0
C844 C 0.31947 0.58432 0.29061 0.0
C845 C 0.3302 0.59939 0.28381 0.0
C846 C 0.29778 0.53727 0.26507 0.0
O847 O 0.31138 0.54454 0.27687 0.0
H848 H 0.29245 0.59477 0.25741 0.0
H849 H 0.32353 0.57645 0.30208 0.0
O850 O 0.25994 0.57673 0.28433 0.0
H851 H 0.29244 0.53933 0.34649 0.0
H852 H 0.34422 0.6055 0.28904 0.0
Cu853 Cu 0.75466 0.49538 0.2949 0.0
N854 N 0.75806 0.48346 0.31707 0.0
N855 N 0.7685 0.46402 0.33738 0.0
C856 C 0.76743 0.46896 0.31974 0.0
C857 C 0.75917 0.47588 0.34602 0.0
C858 C 0.75281 0.4878 0.33352 0.0
O859 O 0.74759 0.47661 0.27641 0.0
C860 C 0.79235 0.5144 0.30069 0.0
O861 O 0.7951 0.50239 0.3132 0.0
H862 H 0.7739 0.46263 0.30896 0.0
H863 H 0.74515 0.49902 0.33628 0.0
N864 N 0.73567 0.51068 0.29466 0.0
N865 N 0.72028 0.53417 0.28648 0.0
C866 C 0.73605 0.52611 0.28499 0.0
C867 C 0.71908 0.50885 0.30264 0.0
C868 C 0.7096 0.5233 0.29767 0.0
C869 C 0.74168 0.47954 0.26024 0.0
O870 O 0.74168 0.49638 0.25485 0.0
H871 H 0.74772 0.53121 0.27691 0.0
H872 H 0.71409 0.49764 0.3112 0.0
O873 O 0.77736 0.51184 0.29013 0.0
H874 H 0.75706 0.47608 0.36038 0.0
H875 H 0.69567 0.52531 0.30164 0.0
Cu876 Cu 0.53398 0.28857 0.80267 0.0
N877 N 0.51786 0.28804 0.82221 0.0
N878 N 0.49343 0.29433 0.83801 0.0
C879 C 0.50235 0.2967 0.82234 0.0
C880 C 0.50384 0.2837 0.8481 0.0
C881 C 0.51879 0.27987 0.83839 0.0
O882 O 0.51651 0.28604 0.78121 0.0
C883 C 0.56074 0.31354 0.82032 0.0
O884 O 0.55711 0.30119 0.83274 0.0
H885 H 0.49791 0.3048 0.81116 0.0
H886 H 0.52968 0.27187 0.84299 0.0
N887 N 0.54888 0.26943 0.80167 0.0
N888 N 0.57019 0.25261 0.79166 0.0
C889 C 0.56185 0.26784 0.78935 0.0
C890 C 0.54892 0.2546 0.81205 0.0
C891 C 0.56204 0.24429 0.80599 0.0
C892 C 0.50501 0.27126 0.78138 0.0
O893 O 0.50736 0.25977 0.79453 0.0
H894 H 0.56515 0.27778 0.77895 0.0
H895 H 0.53983 0.25125 0.82305 0.0
O896 O 0.55178 0.31114 0.80479 0.0
H897 H 0.50085 0.27885 0.86153 0.0
H898 H 0.56501 0.23142 0.81148 0.0
Cu899 Cu 0.51542 0.80658 0.79513 0.0
N900 N 0.53319 0.80677 0.81516 0.0
N901 N 0.55719 0.798 0.83259 0.0
C902 C 0.54577 0.79481 0.81722 0.0
C903 C 0.55147 0.81259 0.84054 0.0
C904 C 0.53663 0.81791 0.82981 0.0
O905 O 0.52894 0.80269 0.77385 0.0
C906 C 0.48556 0.78903 0.81239 0.0
O907 O 0.4897 0.80403 0.8223 0.0
H908 H 0.54671 0.78415 0.80737 0.0
H909 H 0.52889 0.82907 0.83254 0.0
N910 N 0.5045 0.82811 0.79213 0.0
N911 N 0.48406 0.84686 0.782 0.0
C912 C 0.48805 0.82953 0.78243 0.0
C913 C 0.51126 0.84511 0.79804 0.0
C914 C 0.4987 0.85666 0.79189 0.0
C915 C 0.54466 0.81307 0.77306 0.0
O916 O 0.54962 0.82574 0.78567 0.0
H917 H 0.47944 0.81804 0.7755 0.0
H918 H 0.52449 0.84891 0.80605 0.0
O919 O 0.49523 0.787 0.79882 0.0
H920 H 0.55738 0.81885 0.85332 0.0
H921 H 0.50032 0.87117 0.79459 0.0
Cu922 Cu 0.53357 0.79374 0.29625 0.0
N923 N 0.5193 0.79513 0.31667 0.0
N924 N 0.49585 0.80194 0.33328 0.0
C925 C 0.5049 0.80503 0.31781 0.0
C926 C 0.50521 0.78976 0.34233 0.0
C927 C 0.51961 0.78557 0.33206 0.0
O928 O 0.51645 0.79639 0.27501 0.0
C929 C 0.56863 0.80903 0.31099 0.0
O930 O 0.56548 0.79415 0.32053 0.0
H931 H 0.50086 0.81395 0.30716 0.0
H932 H 0.52918 0.77576 0.33528 0.0
N933 N 0.54194 0.77096 0.29377 0.0
N934 N 0.55839 0.74966 0.28387 0.0
C935 C 0.5574 0.76766 0.28532 0.0
C936 C 0.53292 0.75445 0.29788 0.0
C937 C 0.54299 0.74129 0.29171 0.0
C938 C 0.50046 0.78622 0.2751 0.0
O939 O 0.49724 0.77512 0.28867 0.0
H940 H 0.56729 0.77823 0.27967 0.0
H941 H 0.51967 0.75211 0.30444 0.0
O942 O 0.55595 0.81228 0.29895 0.0
H943 H 0.50147 0.78366 0.35511 0.0
H944 H 0.53917 0.72669 0.29272 0.0
Cu945 Cu 0.49437 0.27525 0.28451 0.0
N946 N 0.47855 0.25322 0.28723 0.0
N947 N 0.45833 0.23219 0.30027 0.0
C948 C 0.46654 0.24977 0.30051 0.0
C949 C 0.4655 0.22432 0.28619 0.0
C950 C 0.47802 0.2373 0.27824 0.0
O951 O 0.47919 0.29526 0.2866 0.0
C952 C 0.52719 0.26296 0.29737 0.0
O953 O 0.52244 0.25324 0.28242 0.0
H954 H 0.46419 0.25998 0.31033 0.0
H955 H 0.48669 0.23506 0.26717 0.0
N956 N 0.50365 0.27731 0.26143 0.0
N957 N 0.52313 0.28723 0.24002 0.0
C958 C 0.51919 0.28873 0.25753 0.0
C959 C 0.49735 0.26837 0.2458 0.0
C960 C 0.50948 0.27438 0.23256 0.0
C961 C 0.46396 0.29344 0.27619 0.0
O962 O 0.45973 0.27848 0.26625 0.0
H963 H 0.52771 0.29766 0.26751 0.0
H964 H 0.48487 0.25822 0.24412 0.0
O965 O 0.51653 0.27459 0.30176 0.0
H966 H 0.46258 0.21004 0.28236 0.0
H967 H 0.50825 0.26979 0.21853 0.0
H968 H 0.22043 0.20134 0.19583 0.0
H969 H 0.18353 0.24967 0.10607 0.0
H970 H 0.16111 0.20192 0.18013 0.0
H971 H 0.24229 0.25682 0.1268 0.0
H972 H 0.17526 0.23068 0.13196 0.0
H973 H 0.22885 0.21967 0.16931 0.0
C974 C 0.20916 0.20517 0.18674 0.0
C975 C 0.19001 0.20007 0.19033 0.0
C976 C 0.18997 0.23642 0.13082 0.0
C977 C 0.1996 0.22125 0.15988 0.0
C978 C 0.19475 0.2474 0.11599 0.0
C979 C 0.21373 0.25506 0.11397 0.0
C980 C 0.20421 0.23286 0.14384 0.0
C981 C 0.22751 0.2512 0.12742 0.0
C982 C 0.21399 0.21577 0.17165 0.0
C983 C 0.17606 0.20569 0.1781 0.0
N984 N 0.22249 0.24041 0.14167 0.0
N985 N 0.18112 0.21592 0.16348 0.0
H986 H 0.83165 0.22378 0.1449 0.0
H987 H 0.80604 0.2982 0.07277 0.0
H988 H 0.85264 0.28102 0.15123 0.0
H989 H 0.79218 0.24014 0.06367 0.0
H990 H 0.82298 0.29246 0.10161 0.0
H991 H 0.81658 0.22971 0.11519 0.0
C992 C 0.83309 0.23759 0.13993 0.0
C993 C 0.84341 0.25192 0.1504 0.0
C994 C 0.81631 0.28099 0.09324 0.0
C995 C 0.82619 0.2589 0.11657 0.0
C996 C 0.80665 0.28426 0.07676 0.0
C997 C 0.79762 0.26964 0.06578 0.0
C998 C 0.81684 0.26298 0.09881 0.0
C999 C 0.79889 0.25185 0.07167 0.0
C1000 C 0.82454 0.24099 0.12301 0.0
C1001 C 0.84483 0.2696 0.14351 0.0
N1002 N 0.80821 0.24904 0.0878 0.0
N1003 N 0.83627 0.27261 0.12702 0.0
H1004 H 0.81785 0.83383 0.17573 0.0
H1005 H 0.76797 0.84418 0.07698 0.0
H1006 H 0.80836 0.88529 0.15249 0.0
H1007 H 0.78518 0.79352 0.09526 0.0
H1008 H 0.78298 0.85919 0.10468 0.0
H1009 H 0.80596 0.81859 0.14689 0.0
C1010 C 0.81336 0.84198 0.16459 0.0
C1011 C 0.81414 0.86097 0.16668 0.0
C1012 C 0.78368 0.84483 0.10266 0.0
C1013 C 0.8003 0.84345 0.13356 0.0
C1014 C 0.77511 0.83622 0.08678 0.0
C1015 C 0.77529 0.81754 0.08378 0.0
C1016 C 0.79236 0.83469 0.11592 0.0
C1017 C 0.78482 0.80797 0.09697 0.0
C1018 C 0.80652 0.83321 0.14811 0.0
C1019 C 0.80777 0.87065 0.15175 0.0
N1020 N 0.79281 0.81662 0.11258 0.0
N1021 N 0.80114 0.8618 0.13592 0.0
H1022 H 0.13876 0.81256 0.11288 0.0
H1023 H 0.22662 0.79896 0.05431 0.0
H1024 H 0.19325 0.84635 0.11858 0.0
H1025 H 0.17249 0.76429 0.04839 0.0
H1026 H 0.21502 0.81538 0.07886 0.0
H1027 H 0.15112 0.79372 0.09023 0.0
C1028 C 0.15334 0.81596 0.1093 0.0
C1029 C 0.16493 0.83118 0.11724 0.0
C1030 C 0.20567 0.80413 0.07227 0.0
C1031 C 0.17923 0.80973 0.09158 0.0
C1032 C 0.21235 0.79461 0.05826 0.0
C1033 C 0.20055 0.78012 0.04917 0.0
C1034 C 0.18699 0.79925 0.0773 0.0
C1035 C 0.18203 0.77547 0.05481 0.0
C1036 C 0.16039 0.80524 0.09643 0.0
C1037 C 0.1838 0.83489 0.11249 0.0
N1038 N 0.17582 0.78503 0.06846 0.0
N1039 N 0.19033 0.82432 0.09988 0.0
H1040 H 0.22113 0.88615 0.92013 0.0
H1041 H 0.25525 0.79256 0.95353 0.0
H1042 H 0.23305 0.84397 0.88392 0.0
H1043 H 0.23594 0.83104 0.98971 0.0
H1044 H 0.24986 0.81257 0.92819 0.0
H1045 H 0.22866 0.86731 0.94607 0.0
C1046 C 0.22517 0.87284 0.91767 0.0
C1047 C 0.22605 0.86641 0.89988 0.0
C1048 C 0.24688 0.8167 0.94168 0.0
C1049 C 0.23513 0.84497 0.92941 0.0
C1050 C 0.25005 0.8053 0.9562 0.0
C1051 C 0.24598 0.81007 0.97382 0.0
C1052 C 0.23962 0.83304 0.94473 0.0
C1053 C 0.23924 0.82676 0.97638 0.0
C1054 C 0.22954 0.86213 0.93245 0.0
C1055 C 0.23185 0.84929 0.89742 0.0
N1056 N 0.23621 0.83761 0.962 0.0
N1057 N 0.23612 0.83916 0.91199 0.0
H1058 H 0.2069 0.20409 0.94513 0.0
H1059 H 0.26619 0.27542 0.01655 0.0
H1060 H 0.21866 0.26156 0.93471 0.0
H1061 H 0.23428 0.22497 0.03261 0.0
H1062 H 0.2547 0.26841 0.98496 0.0
H1063 H 0.22206 0.20969 0.97581 0.0
C1064 C 0.21273 0.21789 0.94929 0.0
C1065 C 0.21144 0.2324 0.93736 0.0
C1066 C 0.25041 0.25878 0.99539 0.0
C1067 C 0.22907 0.23886 0.97239 0.0
C1068 C 0.25713 0.26268 0.01343 0.0
C1069 C 0.25113 0.25084 0.02736 0.0
C1070 C 0.23785 0.24274 0.99113 0.0
C1071 C 0.23925 0.23455 0.02238 0.0
C1072 C 0.22135 0.22107 0.9668 0.0
C1073 C 0.21917 0.25001 0.94352 0.0
N1074 N 0.23297 0.23101 1.00473 0.0
N1075 N 0.22775 0.25274 0.96056 0.0
H1076 H 0.8368 0.21437 0.89369 0.0
H1077 H 0.7737 0.18588 0.97767 0.0
H1078 H 0.82541 0.15924 0.91263 0.0
H1079 H 0.78432 0.24063 0.95761 0.0
H1080 H 0.7922 0.17568 0.95378 0.0
H1081 H 0.81783 0.22424 0.91731 0.0
C1082 C 0.83043 0.20436 0.9029 0.0
C1083 C 0.8327 0.18595 0.90115 0.0
C1084 C 0.79046 0.18993 0.95461 0.0
C1085 C 0.81072 0.19711 0.92812 0.0
C1086 C 0.77978 0.19574 0.96818 0.0
C1087 C 0.77752 0.21418 0.96976 0.0
C1088 C 0.79892 0.20263 0.94248 0.0
C1089 C 0.78595 0.22636 0.95716 0.0
C1090 C 0.81947 0.20997 0.91631 0.0
C1091 C 0.82384 0.17353 0.91332 0.0
N1092 N 0.79627 0.22039 0.94411 0.0
N1093 N 0.81326 0.17934 0.92628 0.0
H1094 H 0.81306 0.82048 0.90159 0.0
H1095 H 0.75428 0.849 0.9839 0.0
H1096 H 0.8043 0.87578 0.91286 0.0
H1097 H 0.77133 0.79579 0.97842 0.0
H1098 H 0.77091 0.85854 0.9568 0.0
H1099 H 0.79683 0.81079 0.92887 0.0
C1100 C 0.80787 0.83063 0.9098 0.0
C1101 C 0.81003 0.84901 0.90469 0.0
C1102 C 0.77104 0.84478 0.96154 0.0
C1103 C 0.79106 0.83788 0.93595 0.0
C1104 C 0.76142 0.83929 0.97697 0.0
C1105 C 0.76142 0.82157 0.98358 0.0
C1106 C 0.78063 0.83244 0.95244 0.0
C1107 C 0.77114 0.80965 0.97405 0.0
C1108 C 0.79847 0.82505 0.92536 0.0
C1109 C 0.80269 0.86142 0.9159 0.0
N1110 N 0.78027 0.81527 0.959 0.0
N1111 N 0.79353 0.85563 0.93087 0.0
H1112 H 0.12736 0.18377 0.22357 0.0
H1113 H 0.10409 0.24594 0.30506 0.0
H1114 H 0.16927 0.20089 0.26722 0.0
H1115 H 0.0614 0.20565 0.27871 0.0
H1116 H 0.12854 0.23335 0.2887 0.0
H1117 H 0.10308 0.19524 0.24099 0.0
C1118 C 0.13138 0.18987 0.23688 0.0
C1119 C 0.15025 0.19127 0.24408 0.0
C1120 C 0.11381 0.22725 0.28657 0.0
C1121 C 0.12275 0.20484 0.26384 0.0
C1122 C 0.09989 0.23448 0.29581 0.0
C1123 C 0.08072 0.22677 0.2933 0.0
C1124 C 0.10846 0.2125 0.27437 0.0
C1125 C 0.07603 0.21187 0.28119 0.0
C1126 C 0.11756 0.19639 0.2468 0.0
C1127 C 0.15481 0.19942 0.26131 0.0
N1128 N 0.08974 0.20535 0.27206 0.0
N1129 N 0.14121 0.20607 0.27054 0.0
H1130 H 0.85477 0.17289 0.18275 0.0
H1131 H 0.80956 0.1217 0.2682 0.0
H1132 H 0.86689 0.19338 0.2377 0.0
H1133 H 0.80035 0.10151 0.21302 0.0
H1134 H 0.83298 0.14661 0.25816 0.0
H1135 H 0.83672 0.14544 0.19423 0.0
C1136 C 0.85364 0.17159 0.19725 0.0
C1137 C 0.86222 0.18552 0.20926 0.0
C1138 C 0.82595 0.13661 0.24829 0.0
C1139 C 0.84156 0.15402 0.2226 0.0
C1140 C 0.81271 0.12236 0.25405 0.0
C1141 C 0.80283 0.10972 0.24136 0.0
C1142 C 0.8293 0.13812 0.22975 0.0
C1143 C 0.80735 0.1112 0.22317 0.0
C1144 C 0.84341 0.15586 0.20384 0.0
C1145 C 0.86057 0.18294 0.22796 0.0
N1146 N 0.8201 0.12519 0.21791 0.0
N1147 N 0.85028 0.16757 0.23406 0.0
H1148 H 0.85888 0.87726 0.24554 0.0
H1149 H 0.94478 0.82056 0.23549 0.0
H1150 H 0.87607 0.86088 0.19355 0.0
H1151 H 0.94505 0.85853 0.27998 0.0
H1152 H 0.91627 0.83138 0.22167 0.0
H1153 H 0.88761 0.86739 0.26003 0.0
C1154 C 0.86862 0.87171 0.2371 0.0
C1155 C 0.86469 0.86977 0.21819 0.0
C1156 C 0.92255 0.83734 0.23447 0.0
C1157 C 0.89743 0.85799 0.23491 0.0
C1158 C 0.93873 0.83107 0.24242 0.0
C1159 C 0.94729 0.83866 0.25891 0.0
C1160 C 0.91459 0.85107 0.24321 0.0
C1161 C 0.93896 0.85243 0.2672 0.0
C1162 C 0.88499 0.86599 0.24545 0.0
C1163 C 0.87794 0.86221 0.20816 0.0
N1164 N 0.92299 0.85811 0.25934 0.0
N1165 N 0.89352 0.85648 0.21663 0.0
H1166 H 0.1273 0.88972 0.19783 0.0
H1167 H 0.21356 0.93219 0.26711 0.0
H1168 H 0.18119 0.86931 0.20308 0.0
H1169 H 0.15962 0.95252 0.26134 0.0
H1170 H 0.20244 0.90974 0.24306 0.0
H1171 H 0.13939 0.9135 0.22031 0.0
C1172 C 0.14171 0.89026 0.2037 0.0
C1173 C 0.1532 0.8774 0.19865 0.0
C1174 C 0.19305 0.91913 0.24704 0.0
C1175 C 0.1672 0.9047 0.22443 0.0
C1176 C 0.19942 0.93203 0.26074 0.0
C1177 C 0.18753 0.94434 0.26632 0.0
C1178 C 0.17463 0.91847 0.23879 0.0
C1179 C 0.16922 0.94322 0.25771 0.0
C1180 C 0.14862 0.90389 0.21652 0.0
C1181 C 0.17187 0.87899 0.20648 0.0
N1182 N 0.16335 0.93054 0.2444 0.0
N1183 N 0.17825 0.89231 0.21906 0.0
H1184 H 0.15545 0.87748 0.81281 0.0
H1185 H 0.06635 0.80504 0.83507 0.0
H1186 H 0.1422 0.86194 0.86728 0.0
H1187 H 0.07156 0.83073 0.78303 0.0
H1188 H 0.09538 0.82418 0.84662 0.0
H1189 H 0.12614 0.85871 0.80116 0.0
C1190 C 0.14638 0.87018 0.82235 0.0
C1191 C 0.15132 0.87142 0.8411 0.0
C1192 C 0.09015 0.8257 0.8327 0.0
C1193 C 0.11783 0.84967 0.82776 0.0
C1194 C 0.07357 0.81476 0.82607 0.0
C1195 C 0.06651 0.81629 0.80804 0.0
C1196 C 0.09992 0.83817 0.82118 0.0
C1197 C 0.07646 0.82916 0.79704 0.0
C1198 C 0.12967 0.85943 0.81566 0.0
C1199 C 0.13916 0.86128 0.85272 0.0
N1200 N 0.09274 0.83954 0.80375 0.0
N1201 N 0.12301 0.85086 0.84586 0.0
H1202 H 0.21814 0.16713 0.88459 0.0
H1203 H 0.27202 0.12443 0.80592 0.0
H1204 H 0.23903 0.1971 0.83851 0.0
H1205 H 0.24222 0.09172 0.84601 0.0
H1206 H 0.26312 0.15171 0.81987 0.0
H1207 H 0.22923 0.13983 0.87249 0.0
C1208 C 0.22481 0.1679 0.8718 0.0
C1209 C 0.2271 0.18428 0.86222 0.0
C1210 C 0.25863 0.13858 0.82571 0.0
C1211 C 0.24046 0.15326 0.84862 0.0
C1212 C 0.26385 0.12297 0.81782 0.0
C1213 C 0.25784 0.10566 0.82474 0.0
C1214 C 0.24735 0.137 0.84072 0.0
C1215 C 0.24716 0.10473 0.84017 0.0
C1216 C 0.23126 0.15234 0.86496 0.0
C1217 C 0.23652 0.18464 0.84607 0.0
N1218 N 0.2422 0.12013 0.84757 0.0
N1219 N 0.24278 0.16941 0.83978 0.0
H1220 H 0.91796 0.19173 0.83669 0.0
H1221 H 0.99817 0.27599 0.86406 0.0
H1222 H 0.92789 0.21629 0.89013 0.0
H1223 H 0.98671 0.2557 0.80895 0.0
H1224 H 0.97398 0.25242 0.87389 0.0
H1225 H 0.94414 0.21355 0.82621 0.0
C1226 C 0.92575 0.2017 0.84619 0.0
C1227 C 0.92098 0.20218 0.8643 0.0
C1228 C 0.97673 0.25301 0.85964 0.0
C1229 C 0.95072 0.22708 0.85253 0.0
C1230 C 0.99061 0.26649 0.85399 0.0
C1231 C 0.99438 0.26792 0.83561 0.0
C1232 C 0.96639 0.24079 0.84684 0.0
C1233 C 0.98422 0.25509 0.82325 0.0
C1234 C 0.94063 0.21411 0.84024 0.0
C1235 C 0.93126 0.2154 0.87609 0.0
N1236 N 0.97056 0.24209 0.82908 0.0
N1237 N 0.94566 0.22729 0.87001 0.0
H1238 H 0.81752 0.8806 0.82446 0.0
H1239 H 0.77011 0.97196 0.83387 0.0
H1240 H 0.8087 0.90595 0.87541 0.0
H1241 H 0.7822 0.95047 0.78211 0.0
H1242 H 0.78373 0.94726 0.84893 0.0
H1243 H 0.80468 0.90555 0.80842 0.0
C1244 C 0.81301 0.89142 0.8323 0.0
C1245 C 0.81408 0.891 0.85138 0.0
C1246 C 0.78344 0.94788 0.83427 0.0
C1247 C 0.79917 0.91956 0.83304 0.0
C1248 C 0.77559 0.96202 0.82562 0.0
C1249 C 0.77495 0.96336 0.80664 0.0
C1250 C 0.79075 0.93479 0.82396 0.0
C1251 C 0.78237 0.95 0.79676 0.0
C1252 C 0.80557 0.90563 0.82311 0.0
C1253 C 0.80783 0.90539 0.86073 0.0
N1254 N 0.78994 0.93627 0.80553 0.0
N1255 N 0.80065 0.91897 0.8515 0.0
H1256 H 0.19388 0.12809 0.26413 0.0
H1257 H 0.23905 0.03449 0.26006 0.0
H1258 H 0.21233 0.10692 0.21484 0.0
H1259 H 0.21593 0.05516 0.30726 0.0
H1260 H 0.23348 0.06252 0.24393 0.0
H1261 H 0.20584 0.10316 0.28086 0.0
C1262 C 0.20077 0.11836 0.2569 0.0
C1263 C 0.2023 0.11974 0.23812 0.0
C1264 C 0.22984 0.06096 0.25789 0.0
C1265 C 0.21572 0.09077 0.25709 0.0
C1266 C 0.23316 0.04502 0.26712 0.0
C1267 C 0.22783 0.04238 0.285 0.0
C1268 C 0.22129 0.07437 0.26668 0.0
C1269 C 0.22008 0.05646 0.29343 0.0
C1270 C 0.20752 0.10404 0.26641 0.0
C1271 C 0.21104 0.1065 0.22936 0.0
N1272 N 0.21698 0.07168 0.28422 0.0
N1273 N 0.21732 0.09255 0.23887 0.0
H1274 H 0.19596 0.91909 0.81252 0.0
H1275 H 0.20023 0.02677 0.81967 0.0
H1276 H 0.19364 0.9469 0.86361 0.0
H1277 H 0.22841 1.00097 0.77882 0.0
H1278 H 0.19226 0.99706 0.83385 0.0
H1279 H 0.20298 0.94865 0.7979 0.0
C1280 C 0.19697 0.93146 0.82063 0.0
C1281 C 0.19431 0.93065 0.83927 0.0
C1282 C 0.2001 0.99792 0.82173 0.0
C1283 C 0.20196 0.96436 0.82266 0.0
C1284 C 0.20446 0.01478 0.81354 0.0
C1285 C 0.21492 0.01623 0.79804 0.0
C1286 C 0.20597 0.98239 0.81414 0.0
C1287 C 0.22037 1.00036 0.79079 0.0
C1288 C 0.20099 0.94827 0.81232 0.0
C1289 C 0.19576 0.94701 0.84923 0.0
N1290 N 0.21576 0.98407 0.79885 0.0
N1291 N 0.19934 0.96325 0.84076 0.0
H1292 H 0.17763 0.27242 0.89756 0.0
H1293 H 0.07571 0.26661 0.84269 0.0
H1294 H 0.14727 0.22285 0.87312 0.0
H1295 H 0.10863 0.31716 0.86225 0.0
H1296 H 0.10127 0.25034 0.85448 0.0
H1297 H 0.15202 0.28885 0.88576 0.0
C1298 C 0.16557 0.26494 0.88979 0.0
C1299 C 0.16474 0.24615 0.88636 0.0
C1300 C 0.1029 0.26501 0.85618 0.0
C1301 C 0.13523 0.26502 0.87266 0.0
C1302 C 0.08827 0.27439 0.84935 0.0
C1303 C 0.0898 0.29345 0.85132 0.0
C1304 C 0.11931 0.27462 0.86519 0.0
C1305 C 0.1065 0.30253 0.86045 0.0
C1306 C 0.15097 0.27438 0.88295 0.0
C1307 C 0.14877 0.23734 0.87595 0.0
N1308 N 0.12051 0.29307 0.86701 0.0
N1309 N 0.1347 0.2468 0.86955 0.0
H1310 H 0.86806 0.13225 0.8505 0.0
H1311 H 0.77861 0.06133 0.8147 0.0
H1312 H 0.81019 0.14331 0.8518 0.0
H1313 H 0.83567 0.05904 0.79892 0.0
H1314 H 0.79004 0.0898 0.83096 0.0
H1315 H 0.85649 0.1038 0.83409 0.0
C1316 C 0.85293 0.12879 0.84722 0.0
C1317 C 0.8401 0.14029 0.8525 0.0
C1318 C 0.80001 0.08303 0.8239 0.0
C1319 C 0.82675 0.10747 0.83403 0.0
C1320 C 0.7935 0.06673 0.81451 0.0
C1321 C 0.80612 0.0576 0.80524 0.0
C1322 C 0.81933 0.09021 0.82423 0.0
C1323 C 0.82535 0.06532 0.80594 0.0
C1324 C 0.84634 0.11248 0.83794 0.0
C1325 C 0.8206 0.1348 0.84824 0.0
N1326 N 0.83135 0.08114 0.81528 0.0
N1327 N 0.81452 0.11877 0.83928 0.0
H1328 H 0.88232 0.81315 0.8694 0.0
H1329 H 0.95611 0.81156 0.79168 0.0
H1330 H 0.8776 0.84116 0.81879 0.0
H1331 H 0.9613 0.78405 0.84267 0.0
H1332 H 0.92835 0.82367 0.80191 0.0
H1333 H 0.91223 0.80373 0.86059 0.0
C1334 C 0.88771 0.81744 0.8565 0.0
C1335 C 0.87737 0.82778 0.84473 0.0
C1336 C 0.93559 0.81502 0.81089 0.0
C1337 C 0.91157 0.81699 0.83444 0.0
C1338 C 0.95158 0.80813 0.80507 0.0
C1339 C 0.96123 0.79663 0.81625 0.0
C1340 C 0.92905 0.81046 0.82806 0.0
C1341 C 0.95431 0.79259 0.83341 0.0
C1342 C 0.90474 0.81202 0.85142 0.0
C1343 C 0.88504 0.83307 0.8282 0.0
N1344 N 0.9387 0.79943 0.83873 0.0
N1345 N 0.90155 0.82751 0.8235 0.0
H1346 H 0.81746 0.94453 0.21357 0.0
H1347 H 0.74508 0.99858 0.2638 0.0
H1348 H 0.76992 0.91689 0.24049 0.0
H1349 H 0.78813 0.02356 0.22983 0.0
H1350 H 0.75248 0.96841 0.25471 0.0
H1351 H 0.8061 0.9735 0.21913 0.0
C1352 C 0.8045 0.94449 0.22048 0.0
C1353 C 0.79445 0.92812 0.2263 0.0
C1354 C 0.76009 0.98052 0.24907 0.0
C1355 C 0.78146 0.96156 0.23308 0.0
C1356 C 0.75573 0.99773 0.25412 0.0
C1357 C 0.76601 0.01365 0.2476 0.0
C1358 C 0.77486 0.97929 0.23747 0.0
C1359 C 0.7799 0.01169 0.23531 0.0
C1360 C 0.798 0.96111 0.22369 0.0
C1361 C 0.77796 0.92915 0.23556 0.0
N1362 N 0.784 0.99495 0.23081 0.0
N1363 N 0.77201 0.94553 0.23872 0.0
H1364 H 0.10979 0.8018 0.18518 0.0
H1365 H 1.00447 0.81641 0.2071 0.0
H1366 H 0.08625 0.8517 0.17622 0.0
H1367 H 0.03558 0.7775 0.23455 0.0
H1368 H 0.03058 0.82362 0.18726 0.0
H1369 H 0.07895 0.78746 0.19507 0.0
C1370 C 0.09797 0.80956 0.1849 0.0
C1371 C 0.10046 0.82794 0.18009 0.0
C1372 C 0.0315 0.81326 0.19741 0.0
C1373 C 0.06542 0.81176 0.19121 0.0
C1374 C 0.01656 0.80905 0.20869 0.0
C1375 C 0.01802 0.79659 0.22275 0.0
C1376 C 0.04789 0.80483 0.20013 0.0
C1377 C 0.03401 0.78742 0.22408 0.0
C1378 C 0.08047 0.80144 0.19059 0.0
C1379 C 0.08484 0.83752 0.18003 0.0
N1380 N 0.04846 0.79189 0.21306 0.0
N1381 N 0.06799 0.82935 0.18563 0.0
H1382 H 0.93245 0.21461 0.20814 0.0
H1383 H 0.01245 0.26041 0.25668 0.0
H1384 H 0.90503 0.26052 0.22225 0.0
H1385 H 0.96928 0.27424 0.29046 0.0
H1386 H 0.98793 0.25293 0.23162 0.0
H1387 H 0.96132 0.22832 0.22595 0.0
C1388 C 0.93268 0.22771 0.21481 0.0
C1389 C 0.91649 0.23652 0.21383 0.0
C1390 C 0.98396 0.2579 0.24444 0.0
C1391 C 0.94917 0.25218 0.23409 0.0
C1392 C 0.99791 0.26237 0.25859 0.0
C1393 C 0.99271 0.26788 0.27551 0.0
C1394 C 0.96488 0.25924 0.24736 0.0
C1395 C 0.97372 0.26998 0.27754 0.0
C1396 C 0.94915 0.2356 0.22477 0.0
C1397 C 0.91733 0.25341 0.22269 0.0
N1398 N 0.96043 0.26563 0.26361 0.0
N1399 N 0.9333 0.26054 0.2328 0.0
H1400 H 0.17122 0.72231 0.64704 0.0
H1401 H 0.27224 0.76224 0.61065 0.0
H1402 H 0.22489 0.71691 0.67553 0.0
H1403 H 0.22 0.75707 0.57685 0.0
H1404 H 0.25496 0.74646 0.63483 0.0
H1405 H 0.18846 0.73643 0.62182 0.0
C1406 C 0.18661 0.72419 0.64807 0.0
C1407 C 0.19656 0.71834 0.6635 0.0
C1408 C 0.24727 0.74862 0.62208 0.0
C1409 C 0.21645 0.73446 0.63454 0.0
C1410 C 0.25717 0.7576 0.6082 0.0
C1411 C 0.24763 0.76099 0.59158 0.0
C1412 C 0.22755 0.74314 0.61954 0.0
C1413 C 0.22802 0.75468 0.58933 0.0
C1414 C 0.19645 0.73212 0.63358 0.0
C1415 C 0.21655 0.72098 0.66389 0.0
N1416 N 0.21863 0.74624 0.60318 0.0
N1417 N 0.22577 0.72887 0.64973 0.0
H1418 H 0.83694 0.76909 0.63114 0.0
H1419 H 0.76849 0.72118 0.54898 0.0
H1420 H 0.80876 0.71378 0.63213 0.0
H1421 H 0.79053 0.7785 0.55076 0.0
H1422 H 0.78512 0.71771 0.57841 0.0
H1423 H 0.82189 0.77236 0.60076 0.0
C1424 C 0.82751 0.75767 0.62493 0.0
C1425 C 0.82383 0.74122 0.63415 0.0
C1426 C 0.78637 0.73104 0.57235 0.0
C1427 C 0.80678 0.74474 0.59942 0.0
C1428 C 0.77691 0.73303 0.5555 0.0
C1429 C 0.77806 0.75018 0.54738 0.0
C1430 C 0.79712 0.74629 0.58118 0.0
C1431 C 0.7892 0.76503 0.55651 0.0
C1432 C 0.81896 0.75951 0.60762 0.0
C1433 C 0.81176 0.72673 0.62547 0.0
N1434 N 0.79827 0.76275 0.57294 0.0
N1435 N 0.80363 0.72883 0.6086 0.0
H1436 H 0.84571 0.34383 0.69225 0.0
H1437 H 0.77599 0.35983 0.6069 0.0
H1438 H 0.84025 0.39698 0.67082 0.0
H1439 H 0.7968 0.30846 0.61486 0.0
H1440 H 0.79812 0.37317 0.63174 0.0
H1441 H 0.82712 0.32997 0.6652 0.0
C1442 C 0.84082 0.35261 0.68184 0.0
C1443 C 0.84435 0.37167 0.68411 0.0
C1444 C 0.79798 0.35901 0.628 0.0
C1445 C 0.82274 0.35584 0.65325 0.0
C1446 C 0.78529 0.35139 0.61386 0.0
C1447 C 0.78457 0.33303 0.60878 0.0
C1448 C 0.80988 0.34815 0.63746 0.0
C1449 C 0.79704 0.32271 0.61822 0.0
C1450 C 0.83012 0.34467 0.66643 0.0
C1451 C 0.83748 0.38226 0.67008 0.0
N1452 N 0.80904 0.33035 0.63224 0.0
N1453 N 0.8269 0.37424 0.65546 0.0
H1454 H 0.12413 0.33129 0.62598 0.0
H1455 H 0.18578 0.31084 0.54354 0.0
H1456 H 0.16315 0.3718 0.60097 0.0
H1457 H 0.15293 0.26884 0.57294 0.0
H1458 H 0.17292 0.33387 0.56083 0.0
H1459 H 0.1299 0.30882 0.60318 0.0
C1460 C 0.13359 0.33549 0.61541 0.0
C1461 C 0.14303 0.35338 0.61514 0.0
C1462 C 0.16837 0.31962 0.56341 0.0
C1463 C 0.14999 0.32785 0.58934 0.0
C1464 C 0.17576 0.30647 0.55359 0.0
C1465 C 0.17069 0.28791 0.55706 0.0
C1466 C 0.15584 0.3142 0.5769 0.0
C1467 C 0.15725 0.28299 0.56987 0.0
C1468 C 0.13696 0.32269 0.60249 0.0
C1469 C 0.15546 0.35817 0.60147 0.0
N1470 N 0.15046 0.29608 0.57951 0.0
N1471 N 0.15865 0.34544 0.58915 0.0
H1472 H 0.25292 0.38305 0.4383 0.0
H1473 H 0.23192 0.28254 0.47785 0.0
H1474 H 0.22627 0.33623 0.40669 0.0
H1475 H 0.2499 0.33036 0.5117 0.0
H1476 H 0.23308 0.30168 0.45118 0.0
H1477 H 0.25506 0.36365 0.46494 0.0
C1478 C 0.24774 0.36862 0.43699 0.0
C1479 C 0.23968 0.3611 0.42033 0.0
C1480 C 0.23683 0.308 0.46443 0.0
C1481 C 0.24183 0.33894 0.45058 0.0
C1482 C 0.2362 0.29707 0.47969 0.0
C1483 C 0.2407 0.30487 0.49708 0.0
C1484 C 0.24204 0.3269 0.46649 0.0
C1485 C 0.24623 0.32378 0.49857 0.0
C1486 C 0.24888 0.35759 0.45215 0.0
C1487 C 0.23282 0.34245 0.41928 0.0
N1488 N 0.24669 0.33417 0.48347 0.0
N1489 N 0.23408 0.33199 0.43421 0.0
H1490 H 0.15209 0.73073 0.41186 0.0
H1491 H 0.23795 0.7625 0.48535 0.0
H1492 H 0.21034 0.728 0.40047 0.0
H1493 H 0.18427 0.78317 0.48393 0.0
H1494 H 0.22745 0.74533 0.45701 0.0
H1495 H 0.16304 0.74515 0.44107 0.0
C1496 C 0.16724 0.73319 0.41543 0.0
C1497 C 0.18031 0.72849 0.40333 0.0
C1498 C 0.21796 0.75357 0.46296 0.0
C1499 C 0.19295 0.74475 0.43731 0.0
C1500 C 0.22387 0.76325 0.47919 0.0
C1501 C 0.21191 0.77425 0.48705 0.0
C1502 C 0.19983 0.75461 0.45469 0.0
C1503 C 0.19395 0.77495 0.4783 0.0
C1504 C 0.17345 0.74139 0.43222 0.0
C1505 C 0.19971 0.73143 0.40923 0.0
N1506 N 0.18843 0.76522 0.4627 0.0
N1507 N 0.20545 0.73945 0.42577 0.0
H1508 H 0.81384 0.69454 0.37354 0.0
H1509 H 0.75418 0.66615 0.45972 0.0
H1510 H 0.80767 0.64048 0.39564 0.0
H1511 H 0.7618 0.72031 0.43791 0.0
H1512 H 0.77202 0.6559 0.43533 0.0
H1513 H 0.79342 0.70374 0.39619 0.0
C1514 C 0.80822 0.6846 0.38319 0.0
C1515 C 0.8126 0.66674 0.38274 0.0
C1516 C 0.76973 0.67002 0.43586 0.0
C1517 C 0.78901 0.67715 0.40869 0.0
C1518 C 0.75944 0.67586 0.44973 0.0
C1519 C 0.75658 0.69417 0.45098 0.0
C1520 C 0.77719 0.68256 0.4231 0.0
C1521 C 0.76393 0.70616 0.43772 0.0
C1522 C 0.79647 0.68984 0.39607 0.0
C1523 C 0.80457 0.65436 0.39538 0.0
N1524 N 0.77392 0.70017 0.4244 0.0
N1525 N 0.79325 0.65982 0.40789 0.0
H1526 H 0.79779 0.33079 0.42434 0.0
H1527 H 0.81284 0.30104 0.528 0.0
H1528 H 0.85338 0.33235 0.45173 0.0
H1529 H 0.75842 0.30022 0.49873 0.0
H1530 H 0.8285 0.30923 0.49974 0.0
H1531 H 0.78361 0.3169 0.45095 0.0
C1532 C 0.80705 0.32825 0.43598 0.0
C1533 C 0.82682 0.33299 0.4358 0.0
C1534 C 0.81313 0.30692 0.49944 0.0
C1535 C 0.81059 0.31681 0.46655 0.0
C1536 C 0.80423 0.30206 0.51551 0.0
C1537 C 0.78435 0.29979 0.51557 0.0
C1538 C 0.802 0.30958 0.48345 0.0
C1539 C 0.77381 0.30172 0.49918 0.0
C1540 C 0.79893 0.32018 0.45119 0.0
C1541 C 0.83807 0.32892 0.45122 0.0
N1542 N 0.78272 0.30659 0.48388 0.0
N1543 N 0.8298 0.32122 0.46601 0.0
H1544 H 0.12876 0.68631 0.71157 0.0
H1545 H 0.08012 0.77102 0.74449 0.0
H1546 H 0.15447 0.74211 0.70625 0.0
H1547 H 0.06041 0.71491 0.75655 0.0
H1548 H 0.10642 0.7611 0.72917 0.0
H1549 H 0.10254 0.69691 0.72622 0.0
C1550 C 0.12897 0.70082 0.71351 0.0
C1551 C 0.14412 0.71328 0.70779 0.0
C1552 C 0.09631 0.75098 0.73519 0.0
C1553 C 0.11368 0.72563 0.72454 0.0
C1554 C 0.08126 0.75664 0.74408 0.0
C1555 C 0.06775 0.74384 0.75193 0.0
C1556 C 0.09796 0.73236 0.73399 0.0
C1557 C 0.07013 0.72536 0.75059 0.0
C1558 C 0.11388 0.70689 0.72186 0.0
C1559 C 0.14315 0.73196 0.71031 0.0
N1560 N 0.08482 0.72023 0.74181 0.0
N1561 N 0.12827 0.73755 0.71854 0.0
H1562 H 0.83006 0.69548 0.70449 0.0
H1563 H 0.8649 0.62552 0.77675 0.0
H1564 H 0.88786 0.68373 0.70999 0.0
H1565 H 0.80595 0.6263 0.75971 0.0
H1566 H 0.87392 0.6489 0.75437 0.0
H1567 H 0.82117 0.67179 0.72634 0.0
C1568 C 0.84087 0.68784 0.71012 0.0
C1569 C 0.85978 0.6917 0.70531 0.0
C1570 C 0.85902 0.64391 0.75552 0.0
C1571 C 0.8497 0.66475 0.73075 0.0
C1572 C 0.85387 0.63067 0.76836 0.0
C1573 C 0.83466 0.62392 0.77004 0.0
C1574 C 0.84483 0.6506 0.74445 0.0
C1575 C 0.82093 0.63094 0.7587 0.0
C1576 C 0.83579 0.67437 0.72272 0.0
C1577 C 0.87319 0.68151 0.71346 0.0
N1578 N 0.82627 0.64394 0.74645 0.0
N1579 N 0.86791 0.66858 0.72581 0.0
H1580 H 0.90982 0.40344 0.74395 0.0
H1581 H 0.96315 0.31959 0.77576 0.0
H1582 H 0.88614 0.34749 0.73186 0.0
H1583 H 0.97737 0.37405 0.79806 0.0
H1584 H 0.93677 0.32959 0.75721 0.0
H1585 H 0.9363 0.39295 0.76136 0.0
C1586 C 0.91003 0.38891 0.74501 0.0
C1587 C 0.89535 0.37639 0.73652 0.0
C1588 C 0.94567 0.33934 0.76617 0.0
C1589 C 0.92629 0.36422 0.75634 0.0
C1590 C 0.96083 0.33366 0.77671 0.0
C1591 C 0.97257 0.34597 0.78858 0.0
C1592 C 0.94229 0.35753 0.76729 0.0
C1593 C 0.96864 0.36401 0.78931 0.0
C1594 C 0.92532 0.38294 0.75493 0.0
C1595 C 0.89704 0.35774 0.73802 0.0
N1596 N 0.95396 0.36922 0.77881 0.0
N1597 N 0.91215 0.35224 0.74774 0.0
H1598 H 0.19223 0.3915 0.71561 0.0
H1599 H 0.22834 0.49708 0.71161 0.0
H1600 H 0.1794 0.42326 0.66893 0.0
H1601 H 0.25339 0.4611 0.74878 0.0
H1602 H 0.21167 0.47047 0.69463 0.0
H1603 H 0.21557 0.41689 0.72732 0.0
C1604 C 0.19444 0.40383 0.7078 0.0
C1605 C 0.1838 0.40539 0.69139 0.0
C1606 C 0.22109 0.46843 0.70632 0.0
C1607 C 0.2104 0.43458 0.70471 0.0
C1608 C 0.23065 0.48362 0.716 0.0
C1609 C 0.24207 0.48136 0.73182 0.0
C1610 C 0.22279 0.45087 0.71264 0.0
C1611 C 0.24458 0.46356 0.7368 0.0
C1612 C 0.20784 0.41829 0.71441 0.0
C1613 C 0.18735 0.42156 0.68166 0.0
N1614 N 0.23476 0.44903 0.72743 0.0
N1615 N 0.20017 0.43566 0.68859 0.0
H1616 H 0.16831 0.37787 0.33657 0.0
H1617 H 0.08491 0.30356 0.36788 0.0
H1618 H 0.15695 0.36644 0.39233 0.0
H1619 H 0.08709 0.32119 0.3124 0.0
H1620 H 0.11185 0.3265 0.37651 0.0
H1621 H 0.13898 0.35761 0.32684 0.0
C1622 C 0.15958 0.37126 0.34676 0.0
C1623 C 0.16527 0.37365 0.3653 0.0
C1624 C 0.10646 0.32548 0.36244 0.0
C1625 C 0.1319 0.35039 0.35428 0.0
C1626 C 0.09106 0.31229 0.35747 0.0
C1627 C 0.08375 0.31038 0.33936 0.0
C1628 C 0.11488 0.33685 0.34921 0.0
C1629 C 0.09228 0.32221 0.32652 0.0
C1630 C 0.1429 0.35965 0.34119 0.0
C1631 C 0.15343 0.36469 0.37789 0.0
N1632 N 0.10752 0.33489 0.33167 0.0
N1633 N 0.13745 0.35341 0.37215 0.0
H1634 H 0.20861 0.66386 0.35894 0.0
H1635 H 0.23689 0.60439 0.2757 0.0
H1636 H 0.19453 0.6754 0.30302 0.0
H1637 H 0.25423 0.59762 0.33196 0.0
H1638 H 0.21761 0.62766 0.28505 0.0
H1639 H 0.22179 0.63687 0.34907 0.0
C1640 C 0.20803 0.66052 0.34459 0.0
C1641 C 0.20032 0.67182 0.33183 0.0
C1642 C 0.22548 0.62089 0.29533 0.0
C1643 C 0.21574 0.64105 0.32025 0.0
C1644 C 0.23635 0.60751 0.28999 0.0
C1645 C 0.24729 0.59911 0.30304 0.0
C1646 C 0.22547 0.62574 0.31385 0.0
C1647 C 0.2462 0.60385 0.32138 0.0
C1648 C 0.21564 0.64516 0.33891 0.0
C1649 C 0.2002 0.66699 0.31334 0.0
N1650 N 0.23565 0.61681 0.32618 0.0
N1651 N 0.20787 0.65206 0.30811 0.0
H1652 H 0.89811 0.71523 0.36908 0.0
H1653 H 0.96298 0.74114 0.2857 0.0
H1654 H 0.90739 0.67635 0.32814 0.0
H1655 H 0.95386 0.77908 0.32779 0.0
H1656 H 0.94261 0.71714 0.30069 0.0
H1657 H 0.91878 0.73881 0.35399 0.0
C1658 C 0.90476 0.71167 0.35702 0.0
C1659 C 0.90148 0.69384 0.35002 0.0
C1660 C 0.94507 0.73074 0.3066 0.0
C1661 C 0.92474 0.7207 0.33241 0.0
C1662 C 0.95665 0.74444 0.29803 0.0
C1663 C 0.96014 0.76214 0.30551 0.0
C1664 C 0.93696 0.7348 0.32273 0.0
C1665 C 0.95161 0.76564 0.32153 0.0
C1666 C 0.91646 0.72511 0.34834 0.0
C1667 C 0.90995 0.68993 0.3341 0.0
N1668 N 0.94045 0.75211 0.32959 0.0
N1669 N 0.92124 0.70326 0.32581 0.0
H1670 H 0.81981 0.39299 0.41247 0.0
H1671 H 0.78079 0.43541 0.32014 0.0
H1672 H 0.8281 0.37194 0.35942 0.0
H1673 H 0.77872 0.45951 0.37325 0.0
H1674 H 0.79735 0.41176 0.33404 0.0
H1675 H 0.8039 0.41686 0.3982 0.0
C1676 C 0.81823 0.39331 0.3978 0.0
C1677 C 0.82528 0.38028 0.38718 0.0
C1678 C 0.79326 0.42225 0.34264 0.0
C1679 C 0.80703 0.40787 0.37062 0.0
C1680 C 0.78381 0.43588 0.33468 0.0
C1681 C 0.77819 0.4497 0.34542 0.0
C1682 C 0.79714 0.42226 0.36154 0.0
C1683 C 0.78243 0.44918 0.36429 0.0
C1684 C 0.8092 0.40706 0.38963 0.0
C1685 C 0.82305 0.38172 0.36819 0.0
N1686 N 0.79158 0.43576 0.37168 0.0
N1687 N 0.81407 0.39517 0.36055 0.0
H1688 H 0.21804 0.64081 0.70508 0.0
H1689 H 0.18582 0.55843 0.77136 0.0
H1690 H 0.1627 0.63111 0.72639 0.0
H1691 H 0.24154 0.56876 0.75061 0.0
H1692 H 0.17765 0.58586 0.75637 0.0
H1693 H 0.22765 0.61565 0.72327 0.0
C1694 C 0.20799 0.63344 0.71373 0.0
C1695 C 0.18951 0.63787 0.71408 0.0
C1696 C 0.19171 0.58218 0.75519 0.0
C1697 C 0.20028 0.60901 0.7349 0.0
C1698 C 0.19637 0.56643 0.76369 0.0
C1699 C 0.2144 0.56109 0.76227 0.0
C1700 C 0.20512 0.59274 0.74505 0.0
C1701 C 0.22754 0.57228 0.75232 0.0
C1702 C 0.21343 0.61906 0.72407 0.0
C1703 C 0.17703 0.628 0.7256 0.0
N1704 N 0.2226 0.58745 0.74405 0.0
N1705 N 0.18258 0.61396 0.73542 0.0
H1706 H 0.20933 0.42138 0.33528 0.0
H1707 H 0.26679 0.52057 0.35872 0.0
H1708 H 0.2209 0.44375 0.38958 0.0
H1709 H 0.25749 0.49757 0.30449 0.0
H1710 H 0.24863 0.49308 0.3701 0.0
H1711 H 0.22469 0.45013 0.32339 0.0
C1712 C 0.21486 0.43243 0.34466 0.0
C1713 C 0.21402 0.43013 0.36344 0.0
C1714 C 0.25052 0.49406 0.35569 0.0
C1715 C 0.23182 0.46291 0.35002 0.0
C1716 C 0.26104 0.50973 0.34921 0.0
C1717 C 0.2637 0.51145 0.33061 0.0
C1718 C 0.24262 0.47995 0.34351 0.0
C1719 C 0.25561 0.497 0.31889 0.0
C1720 C 0.22376 0.44878 0.3379 0.0
C1721 C 0.22154 0.44485 0.37502 0.0
N1722 N 0.24548 0.48187 0.32554 0.0
N1723 N 0.23021 0.46054 0.36814 0.0
H1724 H 0.11968 0.73071 0.37547 0.0
H1725 H 0.06767 0.77144 0.28879 0.0
H1726 H 0.14237 0.73143 0.32266 0.0
H1727 H 0.05582 0.7815 0.3442 0.0
H1728 H 0.09285 0.75395 0.29985 0.0
H1729 H 0.0938 0.74607 0.36308 0.0
C1730 C 0.11926 0.73412 0.36123 0.0
C1731 C 0.13351 0.73004 0.35019 0.0
C1732 C 0.08473 0.76002 0.30956 0.0
C1733 C 0.10351 0.74759 0.33577 0.0
C1734 C 0.07031 0.76994 0.30326 0.0
C1735 C 0.05962 0.77805 0.31558 0.0
C1736 C 0.08833 0.75797 0.32831 0.0
C1737 C 0.0638 0.77576 0.33419 0.0
C1738 C 0.1044 0.74289 0.35414 0.0
C1739 C 0.13176 0.73433 0.3317 0.0
N1740 N 0.07772 0.76591 0.33994 0.0
N1741 N 0.1171 0.74298 0.32508 0.0
H1742 H 0.8581 0.61292 0.34692 0.0
H1743 H 0.78381 0.54538 0.28403 0.0
H1744 H 0.80247 0.62451 0.32833 0.0
H1745 H 0.82479 0.52601 0.32212 0.0
H1746 H 0.79638 0.5766 0.29329 0.0
H1747 H 0.85102 0.58292 0.33169 0.0
C1748 C 0.84447 0.60915 0.33951 0.0
C1749 C 0.83074 0.62102 0.33896 0.0
C1750 C 0.8028 0.5655 0.29938 0.0
C1751 C 0.82277 0.58714 0.32134 0.0
C1752 C 0.79576 0.54766 0.29402 0.0
C1753 C 0.80303 0.53299 0.30257 0.0
C1754 C 0.81736 0.56874 0.31321 0.0
C1755 C 0.81859 0.53688 0.31534 0.0
C1756 C 0.84046 0.59211 0.33087 0.0
C1757 C 0.8133 0.6156 0.32923 0.0
N1758 N 0.82513 0.55442 0.32044 0.0
N1759 N 0.80981 0.59904 0.32075 0.0
H1760 H 0.89509 0.334 0.34801 0.0
H1761 H 0.98189 0.28198 0.38297 0.0
H1762 H 0.89952 0.31041 0.40096 0.0
H1763 H 0.97451 0.30159 0.32844 0.0
H1764 H 0.95318 0.29415 0.39056 0.0
H1765 H 0.92564 0.32455 0.34154 0.0
C1766 C 0.90262 0.32697 0.35834 0.0
C1767 C 0.89473 0.32289 0.37502 0.0
C1768 C 0.95789 0.29585 0.37695 0.0
C1769 C 0.92973 0.31189 0.3677 0.0
C1770 C 0.97429 0.2888 0.37255 0.0
C1771 C 0.98078 0.29061 0.35496 0.0
C1772 C 0.94775 0.30486 0.36373 0.0
C1773 C 0.97033 0.29993 0.34221 0.0
C1774 C 0.92003 0.32151 0.35463 0.0
C1775 C 0.90511 0.31378 0.38793 0.0
N1776 N 0.95438 0.30662 0.34682 0.0
N1777 N 0.922 0.3085 0.38398 0.0
H1778 H 0.86038 0.4533 0.74506 0.0
H1779 H 0.78078 0.51502 0.76777 0.0
H1780 H 0.80068 0.43233 0.7429 0.0
H1781 H 0.8401 0.53554 0.7638 0.0
H1782 H 0.78689 0.48512 0.75673 0.0
H1783 H 0.85263 0.48389 0.75056 0.0
C1784 C 0.84561 0.45521 0.74548 0.0
C1785 C 0.83114 0.44032 0.74312 0.0
C1786 C 0.79849 0.49626 0.75805 0.0
C1787 C 0.82208 0.47531 0.74989 0.0
C1788 C 0.79497 0.51337 0.76422 0.0
C1789 C 0.80997 0.5278 0.76682 0.0
C1790 C 0.81713 0.49362 0.75453 0.0
C1791 C 0.82812 0.5248 0.76217 0.0
C1792 C 0.84116 0.47267 0.74867 0.0
C1793 C 0.81225 0.4435 0.74433 0.0
N1794 N 0.8312 0.50809 0.75644 0.0
N1795 N 0.80826 0.46061 0.74767 0.0
H1796 H 0.12128 0.38921 0.71284 0.0
H1797 H 0.06281 0.30381 0.75972 0.0
H1798 H 0.12553 0.33364 0.6979 0.0
H1799 H 0.05926 0.3602 0.77192 0.0
H1800 H 0.08416 0.31375 0.73568 0.0
H1801 H 0.09723 0.3782 0.7336 0.0
C1802 C 0.11721 0.37465 0.71402 0.0
C1803 C 0.12557 0.36233 0.70378 0.0
C1804 C 0.07855 0.32388 0.74356 0.0
C1805 C 0.09778 0.34952 0.72747 0.0
C1806 C 0.06632 0.31822 0.7572 0.0
C1807 C 0.05941 0.3312 0.76794 0.0
C1808 C 0.08376 0.34261 0.74071 0.0
C1809 C 0.06442 0.34969 0.76415 0.0
C1810 C 0.10335 0.36835 0.72579 0.0
C1811 C 0.1194 0.34361 0.70554 0.0
N1812 N 0.07633 0.35481 0.75096 0.0
N1813 N 0.10594 0.33774 0.71727 0.0
H1814 H 0.89565 0.76866 0.69068 0.0
H1815 H 1.00737 0.7677 0.70887 0.0
H1816 H 0.92345 0.72126 0.68406 0.0
H1817 H 0.97644 0.80343 0.73792 0.0
H1818 H 0.97813 0.75626 0.69077 0.0
H1819 H 0.92671 0.78657 0.69966 0.0
C1820 C 0.90837 0.76216 0.69081 0.0
C1821 C 0.90714 0.74351 0.68682 0.0
C1822 C 0.97788 0.76688 0.70086 0.0
C1823 C 0.9424 0.76376 0.69672 0.0
C1824 C 0.99458 0.77354 0.71111 0.0
C1825 C 0.99427 0.78632 0.72517 0.0
C1826 C 0.96083 0.77321 0.70453 0.0
C1827 C 0.97725 0.79338 0.7274 0.0
C1828 C 0.92599 0.77232 0.69594 0.0
C1829 C 0.9239 0.7356 0.68722 0.0
N1830 N 0.96112 0.78656 0.71734 0.0
N1831 N 0.94087 0.74576 0.69214 0.0
H1832 H 0.72727 0.20744 0.68948 0.0
H1833 H 0.71444 0.24889 0.59012 0.0
H1834 H 0.67293 0.21763 0.66571 0.0
H1835 H 0.76868 0.25035 0.62011 0.0
H1836 H 0.69881 0.23452 0.61609 0.0
H1837 H 0.74241 0.22061 0.66292 0.0
C1838 C 0.71849 0.21245 0.67865 0.0
C1839 C 0.69875 0.21135 0.67985 0.0
C1840 C 0.71414 0.2379 0.61693 0.0
C1841 C 0.71609 0.22647 0.64917 0.0
C1842 C 0.72311 0.24596 0.60203 0.0
C1843 C 0.74297 0.25085 0.60286 0.0
C1844 C 0.72507 0.2345 0.63275 0.0
C1845 C 0.75337 0.24686 0.61879 0.0
C1846 C 0.72717 0.22002 0.66348 0.0
C1847 C 0.68819 0.2183 0.66543 0.0
N1848 N 0.74433 0.23895 0.63304 0.0
N1849 N 0.69696 0.22544 0.65066 0.0
H1850 H 0.31161 0.26236 0.66037 0.0
H1851 H 0.30283 0.2734 0.55269 0.0
H1852 H 0.35995 0.2773 0.62868 0.0
H1853 H 0.25475 0.26773 0.58599 0.0
H1854 H 0.32408 0.27472 0.58019 0.0
H1855 H 0.2905 0.26384 0.63307 0.0
C1856 C 0.31772 0.2661 0.64764 0.0
C1857 C 0.33746 0.26996 0.64671 0.0
C1858 C 0.30888 0.27331 0.58147 0.0
C1859 C 0.31354 0.27141 0.61543 0.0
C1860 C 0.29674 0.27255 0.56578 0.0
C1861 C 0.27697 0.27037 0.56703 0.0
C1862 C 0.30119 0.27173 0.59852 0.0
C1863 C 0.26989 0.26938 0.58435 0.0
C1864 C 0.30571 0.26694 0.63208 0.0
C1865 C 0.34476 0.27443 0.62989 0.0
N1866 N 0.28198 0.26995 0.5994 0.0
N1867 N 0.33279 0.275 0.61487 0.0
H1868 H 0.33748 0.85572 0.68597 0.0
H1869 H 0.26621 0.86966 0.60068 0.0
H1870 H 0.32518 0.90869 0.66902 0.0
H1871 H 0.2934 0.8215 0.60719 0.0
H1872 H 0.28547 0.88346 0.62729 0.0
H1873 H 0.31953 0.84228 0.65866 0.0
C1874 C 0.33119 0.86461 0.67653 0.0
C1875 C 0.33296 0.88348 0.68005 0.0
C1876 C 0.28729 0.8699 0.62285 0.0
C1877 C 0.31186 0.86792 0.64875 0.0
C1878 C 0.27624 0.862 0.6077 0.0
C1879 C 0.27822 0.84442 0.60162 0.0
C1880 C 0.30025 0.86008 0.63224 0.0
C1881 C 0.29155 0.83516 0.61122 0.0
C1882 C 0.32081 0.85685 0.66093 0.0
C1883 C 0.324 0.89407 0.66728 0.0
N1884 N 0.30193 0.84303 0.6261 0.0
N1885 N 0.31381 0.88616 0.65233 0.0
H1886 H 0.67337 0.83594 0.59967 0.0
H1887 H 0.65871 0.74436 0.53892 0.0
H1888 H 0.62676 0.79287 0.60471 0.0
H1889 H 0.70934 0.78399 0.54114 0.0
H1890 H 0.64505 0.76307 0.56076 0.0
H1891 H 0.68509 0.81827 0.57576 0.0
C1892 C 0.66548 0.82285 0.59549 0.0
C1893 C 0.64895 0.81594 0.60385 0.0
C1894 C 0.65915 0.76763 0.55646 0.0
C1895 C 0.66237 0.79546 0.57686 0.0
C1896 C 0.66691 0.757 0.54396 0.0
C1897 C 0.68526 0.76252 0.53835 0.0
C1898 C 0.66977 0.78397 0.56322 0.0
C1899 C 0.69532 0.779 0.54535 0.0
C1900 C 0.6722 0.81271 0.58196 0.0
C1901 C 0.63941 0.79874 0.59832 0.0
N1902 N 0.68744 0.78912 0.55739 0.0
N1903 N 0.64626 0.78907 0.58514 0.0
H1904 H 0.74125 0.87414 0.42443 0.0
H1905 H 0.75329 0.77241 0.4538 0.0
H1906 H 0.74478 0.83065 0.3863 0.0
H1907 H 0.73717 0.81252 0.49023 0.0
H1908 H 0.75456 0.79479 0.42962 0.0
H1909 H 0.74375 0.85281 0.4494 0.0
C1910 C 0.74247 0.86006 0.42136 0.0
C1911 C 0.74236 0.85399 0.40332 0.0
C1912 C 0.75085 0.79871 0.44293 0.0
C1913 C 0.74563 0.82966 0.43171 0.0
C1914 C 0.75021 0.78597 0.45678 0.0
C1915 C 0.745 0.79056 0.47405 0.0
C1916 C 0.74636 0.81621 0.4464 0.0
C1917 C 0.74114 0.80835 0.4771 0.0
C1918 C 0.74394 0.84792 0.43557 0.0
C1919 C 0.74446 0.83576 0.40003 0.0
N1920 N 0.74184 0.8205 0.46339 0.0
N1921 N 0.74594 0.82421 0.41409 0.0
H1922 H 0.66742 0.25593 0.40368 0.0
H1923 H 0.70997 0.24261 0.50531 0.0
H1924 H 0.67357 0.20319 0.42574 0.0
H1925 H 0.69842 0.29416 0.48382 0.0
H1926 H 0.69827 0.22797 0.47608 0.0
H1927 H 0.68021 0.27009 0.4326 0.0
C1928 C 0.67137 0.24726 0.41462 0.0
C1929 C 0.66916 0.22824 0.41219 0.0
C1930 C 0.69829 0.24249 0.47779 0.0
C1931 C 0.68419 0.24457 0.44558 0.0
C1932 C 0.70505 0.25089 0.49448 0.0
C1933 C 0.70517 0.26971 0.49719 0.0
C1934 C 0.69166 0.25295 0.46357 0.0
C1935 C 0.69839 0.27963 0.4826 0.0
C1936 C 0.67879 0.25542 0.43116 0.0
C1937 C 0.67507 0.21788 0.42685 0.0
N1938 N 0.69198 0.27116 0.46651 0.0
N1939 N 0.68222 0.22615 0.44289 0.0
H1940 H 0.3136 0.19612 0.42143 0.0
H1941 H 0.26073 0.18529 0.514 0.0
H1942 H 0.31352 0.14931 0.45578 0.0
H1943 H 0.25642 0.22925 0.47664 0.0
H1944 H 0.28238 0.17314 0.49428 0.0
H1945 H 0.29596 0.21035 0.44358 0.0
C1946 C 0.3102 0.189 0.43381 0.0
C1947 C 0.31486 0.17146 0.43672 0.0
C1948 C 0.27672 0.18548 0.49044 0.0
C1949 C 0.29436 0.18744 0.46192 0.0
C1950 C 0.26422 0.19233 0.50162 0.0
C1951 C 0.2567 0.20832 0.497 0.0
C1952 C 0.28174 0.19467 0.47451 0.0
C1953 C 0.26202 0.21703 0.4809 0.0
C1954 C 0.29995 0.19703 0.44636 0.0
C1955 C 0.30993 0.16276 0.45291 0.0
N1956 N 0.27418 0.21008 0.47025 0.0
N1957 N 0.29981 0.17077 0.46483 0.0
H1958 H 0.33103 0.81801 0.41716 0.0
H1959 H 0.29399 0.82864 0.51655 0.0
H1960 H 0.31978 0.86924 0.43894 0.0
H1961 H 0.29254 0.77684 0.48916 0.0
H1962 H 0.30725 0.84393 0.48995 0.0
H1963 H 0.32037 0.80302 0.44482 0.0
C1964 C 0.3264 0.82615 0.4278 0.0
C1965 C 0.32636 0.84498 0.42566 0.0
C1966 C 0.30418 0.82921 0.48983 0.0
C1967 C 0.31409 0.82778 0.45757 0.0
C1968 C 0.29676 0.82043 0.5051 0.0
C1969 C 0.29212 0.80135 0.50519 0.0
C1970 C 0.30718 0.81889 0.4745 0.0
C1971 C 0.29587 0.79153 0.48979 0.0
C1972 C 0.32023 0.81755 0.44359 0.0
C1973 C 0.31992 0.8547 0.43988 0.0
N1974 N 0.30312 0.80039 0.47512 0.0
N1975 N 0.31414 0.84603 0.45523 0.0
H1976 H 0.66415 0.20171 0.75707 0.0
H1977 H 0.57696 0.2597 0.7562 0.0
H1978 H 0.63911 0.22156 0.70767 0.0
H1979 H 0.59647 0.231 0.80274 0.0
H1980 H 0.60097 0.24819 0.73855 0.0
H1981 H 0.64087 0.21447 0.77415 0.0
C1982 C 0.65369 0.20863 0.74971 0.0
C1983 C 0.65359 0.21024 0.73073 0.0
C1984 C 0.59998 0.24443 0.75263 0.0
C1985 C 0.62682 0.22539 0.75055 0.0
C1986 C 0.58633 0.25109 0.76277 0.0
C1987 C 0.58455 0.2463 0.78105 0.0
C1988 C 0.61215 0.23301 0.76082 0.0
C1989 C 0.59705 0.2349 0.78869 0.0
C1990 C 0.64041 0.21605 0.75957 0.0
C1991 C 0.63991 0.21997 0.72224 0.0
N1992 N 0.61026 0.22873 0.7786 0.0
N1993 N 0.62709 0.22711 0.73217 0.0
H1994 H 0.33416 0.19056 0.67522 0.0
H1995 H 0.28834 0.1387 0.76011 0.0
H1996 H 0.34526 0.2093 0.73084 0.0
H1997 H 0.28095 0.11621 0.70565 0.0
H1998 H 0.3072 0.16578 0.74897 0.0
H1999 H 0.31259 0.16443 0.68543 0.0
C2000 C 0.33197 0.18924 0.68956 0.0
C2001 C 0.34166 0.20207 0.70221 0.0
C2002 C 0.30144 0.15496 0.73941 0.0
C2003 C 0.31706 0.17222 0.71398 0.0
C2004 C 0.29071 0.13941 0.7458 0.0
C2005 C 0.2832 0.125 0.73386 0.0
C2006 C 0.30476 0.15622 0.7209 0.0
C2007 C 0.28639 0.12698 0.71535 0.0
C2008 C 0.31973 0.17429 0.69538 0.0
C2009 C 0.33837 0.19961 0.72063 0.0
N2010 N 0.29703 0.14225 0.70945 0.0
N2011 N 0.3264 0.185 0.72593 0.0
H2012 H 0.3755 0.85737 0.72513 0.0
H2013 H 0.48065 0.88194 0.77281 0.0
H2014 H 0.40413 0.91225 0.73409 0.0
H2015 H 0.45015 0.82729 0.76951 0.0
H2016 H 0.45331 0.89296 0.75739 0.0
H2017 H 0.4033 0.84584 0.73963 0.0
C2018 C 0.38766 0.86701 0.73001 0.0
C2019 C 0.38736 0.88585 0.72841 0.0
C2020 C 0.45259 0.87854 0.76003 0.0
C2021 C 0.41929 0.87269 0.7452 0.0
C2022 C 0.46824 0.8722 0.76898 0.0
C2023 C 0.4679 0.85357 0.77265 0.0
C2024 C 0.43631 0.86625 0.75457 0.0
C2025 C 0.45132 0.84171 0.76691 0.0
C2026 C 0.4035 0.8604 0.7384 0.0
C2027 C 0.40353 0.89764 0.73522 0.0
N2028 N 0.43625 0.84824 0.7582 0.0
N2029 N 0.41876 0.89088 0.74327 0.0
H2030 H 0.6631 0.887 0.66096 0.0
H2031 H 0.73449 0.93559 0.74058 0.0
H2032 H 0.69037 0.85746 0.70264 0.0
H2033 H 0.68985 0.96126 0.71378 0.0
H2034 H 0.72418 0.90815 0.72178 0.0
H2035 H 0.67888 0.91576 0.67517 0.0
C2036 C 0.67279 0.88662 0.67284 0.0
C2037 C 0.67552 0.86998 0.68071 0.0
C2038 C 0.71675 0.91986 0.71994 0.0
C2039 C 0.69339 0.90253 0.69698 0.0
C2040 C 0.72267 0.9355 0.73058 0.0
C2041 C 0.71288 0.95061 0.72881 0.0
C2042 C 0.70114 0.91944 0.70725 0.0
C2043 C 0.69757 0.94978 0.71574 0.0
C2044 C 0.68162 0.90296 0.68101 0.0
C2045 C 0.68796 0.87009 0.69623 0.0
N2046 N 0.69214 0.93444 0.70544 0.0
N2047 N 0.69641 0.88613 0.70391 0.0
H2048 H 0.68536 0.84866 0.3429 0.0
H2049 H 0.57727 0.84583 0.30416 0.0
H2050 H 0.6581 0.8971 0.3411 0.0
H2051 H 0.60179 0.79964 0.32525 0.0
H2052 H 0.60785 0.86529 0.31195 0.0
H2053 H 0.65599 0.83105 0.33027 0.0
C2054 C 0.67317 0.85563 0.33985 0.0
C2055 C 0.67412 0.87435 0.34347 0.0
C2056 C 0.60646 0.85087 0.31474 0.0
C2057 C 0.64029 0.85415 0.32871 0.0
C2058 C 0.5891 0.83977 0.31024 0.0
C2059 C 0.58697 0.82112 0.31419 0.0
C2060 C 0.62179 0.84312 0.32288 0.0
C2061 C 0.6027 0.81397 0.32213 0.0
C2062 C 0.65639 0.84554 0.33256 0.0
C2063 C 0.65799 0.88268 0.33862 0.0
N2064 N 0.61937 0.82493 0.32616 0.0
N2065 N 0.64163 0.87249 0.33162 0.0
H2066 H 0.70587 0.16573 0.36594 0.0
H2067 H 0.70208 0.09025 0.28629 0.0
H2068 H 0.66357 0.16065 0.32113 0.0
H2069 H 0.74978 0.10583 0.32482 0.0
H2070 H 0.68424 0.11139 0.30186 0.0
H2071 H 0.71838 0.13908 0.35428 0.0
C2072 C 0.69906 0.15882 0.35377 0.0
C2073 C 0.68388 0.16558 0.34435 0.0
C2074 C 0.69851 0.10994 0.30703 0.0
C2075 C 0.69815 0.13504 0.33075 0.0
C2076 C 0.70861 0.09777 0.29824 0.0
C2077 C 0.72745 0.09634 0.30424 0.0
C2078 C 0.70728 0.12048 0.32203 0.0
C2079 C 0.73533 0.1066 0.31965 0.0
C2080 C 0.70624 0.14365 0.34704 0.0
C2081 C 0.67545 0.15598 0.3287 0.0
N2082 N 0.72529 0.11819 0.32792 0.0
N2083 N 0.68281 0.14133 0.32227 0.0
H2084 H 0.38058 0.15554 0.35657 0.0
H2085 H 0.45408 0.24345 0.33479 0.0
H2086 H 0.39773 0.20043 0.39414 0.0
H2087 H 0.43387 0.20057 0.29549 0.0
H2088 H 0.43342 0.22797 0.35654 0.0
H2089 H 0.39999 0.17176 0.3339 0.0
C2090 C 0.38853 0.16881 0.36 0.0
C2091 C 0.38788 0.17657 0.37727 0.0
C2092 C 0.43345 0.22196 0.34314 0.0
C2093 C 0.40992 0.19527 0.35149 0.0
C2094 C 0.4452 0.23088 0.33061 0.0
C2095 C 0.44579 0.22336 0.31317 0.0
C2096 C 0.42218 0.20534 0.3383 0.0
C2097 C 0.43413 0.2068 0.3088 0.0
C2098 C 0.39954 0.17807 0.3471 0.0
C2099 C 0.39811 0.1939 0.38104 0.0
N2100 N 0.42284 0.19835 0.32128 0.0
N2101 N 0.40879 0.20263 0.36829 0.0
H2102 H 0.34344 0.90735 0.36663 0.0
H2103 H 0.23934 0.92767 0.33249 0.0
H2104 H 0.29111 0.87377 0.37795 0.0
H2105 H 0.2898 0.96513 0.32349 0.0
H2106 H 0.2589 0.90702 0.34716 0.0
H2107 H 0.32498 0.92789 0.34946 0.0
C2108 C 0.32809 0.90423 0.3655 0.0
C2109 C 0.31888 0.88872 0.37388 0.0
C2110 C 0.26583 0.91968 0.34195 0.0
C2111 C 0.29762 0.91231 0.35414 0.0
C2112 C 0.25463 0.93154 0.33346 0.0
C2113 C 0.26287 0.9483 0.32677 0.0
C2114 C 0.28564 0.92446 0.34397 0.0
C2115 C 0.28281 0.95235 0.32837 0.0
C2116 C 0.31756 0.91603 0.35572 0.0
C2117 C 0.29892 0.88562 0.37204 0.0
N2118 N 0.29352 0.94058 0.33693 0.0
N2119 N 0.28906 0.89722 0.3624 0.0
H2120 H 0.70956 0.12548 0.70059 0.0
H2121 H 0.71508 0.05667 0.78357 0.0
H2122 H 0.67975 0.12871 0.74917 0.0
H2123 H 0.74379 0.05166 0.73447 0.0
H2124 H 0.70329 0.08382 0.77162 0.0
H2125 H 0.72367 0.09952 0.71322 0.0
C2126 C 0.70608 0.12074 0.71396 0.0
C2127 C 0.69329 0.12907 0.72378 0.0
C2128 C 0.71218 0.07684 0.76343 0.0
C2129 C 0.70938 0.09941 0.73836 0.0
C2130 C 0.71894 0.06126 0.77025 0.0
C2131 C 0.73043 0.05174 0.76001 0.0
C2132 C 0.71688 0.08309 0.74617 0.0
C2133 C 0.73495 0.0585 0.74285 0.0
C2134 C 0.71409 0.10592 0.72116 0.0
C2135 C 0.68941 0.12255 0.74111 0.0
N2136 N 0.72814 0.07371 0.73646 0.0
N2137 N 0.69731 0.10807 0.7478 0.0
H2138 H 0.75143 0.91926 0.34442 0.0
H2139 H 0.75111 0.0268 0.34596 0.0
H2140 H 0.702 0.94344 0.35658 0.0
H2141 H 0.78607 1.00087 0.31131 0.0
H2142 H 0.73674 0.99666 0.35571 0.0
H2143 H 0.76764 0.94947 0.33705 0.0
C2144 C 0.74399 0.93098 0.34541 0.0
C2145 C 0.72535 0.92895 0.35094 0.0
C2146 C 0.74776 0.9976 0.34618 0.0
C2147 C 0.7439 0.96346 0.34305 0.0
C2148 C 0.75615 0.01475 0.34085 0.0
C2149 C 0.76993 0.01623 0.32799 0.0
C2150 C 0.7534 0.98187 0.33876 0.0
C2151 C 0.77562 1.00021 0.32138 0.0
C2152 C 0.75323 0.94815 0.34127 0.0
C2153 C 0.71631 0.94449 0.35216 0.0
N2154 N 0.76734 0.98368 0.32683 0.0
N2155 N 0.72574 0.96117 0.34838 0.0
H2156 H 0.60622 0.23275 0.38315 0.0
H2157 H 0.55792 0.25027 0.28521 0.0
H2158 H 0.63005 0.22249 0.33243 0.0
H2159 H 0.53587 0.26749 0.33453 0.0
H2160 H 0.58471 0.2408 0.30283 0.0
H2161 H 0.58074 0.24593 0.36632 0.0
C2162 C 0.60621 0.23333 0.36851 0.0
C2163 C 0.62038 0.22634 0.35925 0.0
C2164 C 0.57416 0.24675 0.30991 0.0
C2165 C 0.59104 0.24136 0.33987 0.0
C2166 C 0.5588 0.2522 0.29982 0.0
C2167 C 0.54454 0.25963 0.30839 0.0
C2168 C 0.57537 0.24847 0.3289 0.0
C2169 C 0.54658 0.2619 0.32736 0.0
C2170 C 0.59158 0.24083 0.35891 0.0
C2171 C 0.61934 0.22732 0.34022 0.0
N2172 N 0.56162 0.25615 0.33702 0.0
N2173 N 0.60498 0.23461 0.33125 0.0
H2174 H 0.33362 0.10407 0.39081 0.0
H2175 H 0.23098 0.04403 0.37549 0.0
H2176 H 0.28094 0.12348 0.40149 0.0
H2177 H 0.28248 0.02733 0.35769 0.0
H2178 H 0.24973 0.07151 0.38927 0.0
H2179 H 0.31563 0.07443 0.38178 0.0
C2180 C 0.31829 0.10211 0.39123 0.0
C2181 C 0.3088 0.11627 0.39696 0.0
C2182 C 0.25695 0.06174 0.38248 0.0
C2183 C 0.28816 0.08238 0.38689 0.0
C2184 C 0.24627 0.046 0.37479 0.0
C2185 C 0.2552 0.03354 0.36528 0.0
C2186 C 0.27668 0.06496 0.38069 0.0
C2187 C 0.27504 0.03679 0.36463 0.0
C2188 C 0.30804 0.08517 0.3862 0.0
C2189 C 0.28892 0.11289 0.39746 0.0
N2190 N 0.28511 0.05225 0.37209 0.0
N2191 N 0.27928 0.09632 0.39247 0.0
H2192 H 0.39954 0.82762 0.38972 0.0
H2193 H 0.46961 0.81597 0.31098 0.0
H2194 H 0.38896 0.84296 0.33425 0.0
H2195 H 0.48267 0.80375 0.36707 0.0
H2196 H 0.44062 0.82676 0.31954 0.0
H2197 H 0.43053 0.81975 0.3821 0.0
C2198 C 0.40387 0.8295 0.37599 0.0
C2199 C 0.3917 0.83593 0.3626 0.0
C2200 C 0.44986 0.8218 0.33001 0.0
C2201 C 0.42699 0.82679 0.35368 0.0
C2202 C 0.46657 0.8157 0.32514 0.0
C2203 C 0.47881 0.80889 0.33829 0.0
C2204 C 0.44514 0.82109 0.3482 0.0
C2205 C 0.47367 0.80864 0.35638 0.0
C2206 C 0.42151 0.82496 0.37162 0.0
C2207 C 0.39791 0.83805 0.34498 0.0
N2208 N 0.45725 0.81459 0.36077 0.0
N2209 N 0.41503 0.83341 0.34102 0.0
H2210 H 0.32317 0.95944 0.72246 0.0
H2211 H 0.29982 0.01589 0.80923 0.0
H2212 H 0.32898 0.94067 0.77734 0.0
H2213 H 0.2996 0.03719 0.755 0.0
H2214 H 0.31197 0.98893 0.79802 0.0
H2215 H 0.31579 0.98854 0.73415 0.0
C2216 C 0.32319 0.96158 0.73699 0.0
C2217 C 0.32703 0.94775 0.74896 0.0
C2218 C 0.30943 0.99957 0.78859 0.0
C2219 C 0.31815 0.98084 0.76248 0.0
C2220 C 0.30253 0.01503 0.79501 0.0
C2221 C 0.29859 0.02888 0.78307 0.0
C2222 C 0.31232 0.9978 0.77004 0.0
C2223 C 0.30239 0.0269 0.76475 0.0
C2224 C 0.3189 0.97815 0.74367 0.0
C2225 C 0.32639 0.95106 0.76764 0.0
N2226 N 0.30887 0.01163 0.7588 0.0
N2227 N 0.32199 0.9672 0.77381 0.0
H2228 H 0.64619 0.81987 0.71635 0.0
H2229 H 0.53678 0.79904 0.7383 0.0
H2230 H 0.60066 0.81663 0.67448 0.0
H2231 H 0.5829 0.82121 0.77636 0.0
H2232 H 0.55988 0.79757 0.71503 0.0
H2233 H 0.62287 0.81154 0.73872 0.0
C2234 C 0.63126 0.81714 0.71185 0.0
C2235 C 0.62527 0.81928 0.69364 0.0
C2236 C 0.56486 0.80256 0.72856 0.0
C2237 C 0.59851 0.80989 0.71916 0.0
C2238 C 0.55175 0.80338 0.74179 0.0
C2239 C 0.55798 0.81051 0.75913 0.0
C2240 C 0.58424 0.80856 0.73295 0.0
C2241 C 0.57747 0.81591 0.76305 0.0
C2242 C 0.61796 0.81242 0.72461 0.0
C2243 C 0.60581 0.81521 0.68844 0.0
N2244 N 0.58988 0.81485 0.75007 0.0
N2245 N 0.59302 0.81098 0.70122 0.0
H2246 H 0.39061 0.23723 0.73887 0.0
H2247 H 0.49767 0.28651 0.748 0.0
H2248 H 0.42061 0.25324 0.69123 0.0
H2249 H 0.47333 0.24753 0.78614 0.0
H2250 H 0.46842 0.27937 0.72791 0.0
H2251 H 0.41986 0.2461 0.75757 0.0
C2252 C 0.40335 0.24245 0.73227 0.0
C2253 C 0.40311 0.24416 0.71334 0.0
C2254 C 0.46964 0.27242 0.74069 0.0
C2255 C 0.43667 0.2549 0.7349 0.0
C2256 C 0.48623 0.27651 0.75213 0.0
C2257 C 0.48796 0.26754 0.7687 0.0
C2258 C 0.45467 0.25962 0.74615 0.0
C2259 C 0.47273 0.25469 0.77344 0.0
C2260 C 0.42004 0.24765 0.74301 0.0
C2261 C 0.42005 0.25172 0.70575 0.0
N2262 N 0.45674 0.25122 0.7623 0.0
N2263 N 0.43618 0.25682 0.71656 0.0
H2264 H 0.70949 0.70276 0.17891 0.0
H2265 H 0.67262 0.74797 0.08719 0.0
H2266 H 0.6504 0.70559 0.16407 0.0
H2267 H 0.73189 0.75259 0.10581 0.0
H2268 H 0.66437 0.73077 0.11423 0.0
H2269 H 0.71803 0.71879 0.15102 0.0
C2270 C 0.69829 0.70657 0.16972 0.0
C2271 C 0.67918 0.70285 0.17397 0.0
C2272 C 0.6792 0.73555 0.11238 0.0
C2273 C 0.6889 0.72139 0.14197 0.0
C2274 C 0.68397 0.74551 0.09689 0.0
C2275 C 0.70307 0.75195 0.09396 0.0
C2276 C 0.69356 0.73179 0.12517 0.0
C2277 C 0.717 0.74788 0.10716 0.0
C2278 C 0.70319 0.71586 0.15385 0.0
C2279 C 0.66533 0.70836 0.16156 0.0
N2280 N 0.71198 0.73811 0.12209 0.0
N2281 N 0.67045 0.71731 0.14621 0.0
H2282 H 0.3485 0.77582 0.12517 0.0
H2283 H 0.271 0.7198 0.05502 0.0
H2284 H 0.32158 0.72111 0.13386 0.0
H2285 H 0.29632 0.77512 0.04608 0.0
H2286 H 0.2914 0.71938 0.0827 0.0
H2287 H 0.3316 0.77518 0.09511 0.0
C2288 C 0.33913 0.76362 0.12064 0.0
C2289 C 0.3363 0.74851 0.13198 0.0
C2290 C 0.29261 0.73161 0.07468 0.0
C2291 C 0.31689 0.74768 0.09771 0.0
C2292 C 0.28094 0.73187 0.05882 0.0
C2293 C 0.28184 0.74758 0.04822 0.0
C2294 C 0.30531 0.74719 0.08015 0.0
C2295 C 0.29511 0.76273 0.05384 0.0
C2296 C 0.32947 0.76326 0.10352 0.0
C2297 C 0.32407 0.73303 0.1255 0.0
N2298 N 0.30625 0.7622 0.06949 0.0
N2299 N 0.31474 0.73304 0.10885 0.0
H2300 H 0.29375 0.38715 0.18693 0.0
H2301 H 0.30652 0.31494 0.10852 0.0
H2302 H 0.34791 0.36979 0.17824 0.0
H2303 H 0.25631 0.34066 0.11353 0.0
H2304 H 0.32192 0.33338 0.13474 0.0
H2305 H 0.27976 0.36886 0.16065 0.0
C2306 C 0.3028 0.37965 0.17944 0.0
C2307 C 0.32212 0.38016 0.18493 0.0
C2308 C 0.30754 0.33494 0.13002 0.0
C2309 C 0.30595 0.35869 0.15474 0.0
C2310 C 0.29874 0.3244 0.11508 0.0
C2311 C 0.28008 0.32621 0.10873 0.0
C2312 C 0.29752 0.34725 0.13871 0.0
C2313 C 0.27071 0.33873 0.11781 0.0
C2314 C 0.29473 0.36905 0.16444 0.0
C2315 C 0.3329 0.36969 0.17476 0.0
N2316 N 0.27947 0.34865 0.13225 0.0
N2317 N 0.32469 0.35939 0.16021 0.0
H2318 H 0.64245 0.32276 0.11362 0.0
H2319 H 0.73204 0.30463 0.05959 0.0
H2320 H 0.69502 0.35952 0.11433 0.0
H2321 H 0.67868 0.2687 0.05574 0.0
H2322 H 0.71857 0.32467 0.07978 0.0
H2323 H 0.6551 0.30274 0.09228 0.0
C2324 C 0.65656 0.32669 0.10903 0.0
C2325 C 0.66761 0.34293 0.11535 0.0
C2326 C 0.70977 0.3124 0.07457 0.0
C2327 C 0.68234 0.32004 0.09139 0.0
C2328 C 0.71753 0.30082 0.06313 0.0
C2329 C 0.70653 0.28481 0.05607 0.0
C2330 C 0.69084 0.30801 0.07907 0.0
C2331 C 0.68763 0.28092 0.06081 0.0
C2332 C 0.66381 0.31527 0.09695 0.0
C2333 C 0.68598 0.34726 0.10946 0.0
N2334 N 0.68039 0.29242 0.07207 0.0
N2335 N 0.69277 0.33588 0.0978 0.0
H2336 H 0.73874 0.32913 0.89552 0.0
H2337 H 0.75168 0.33064 1.00342 0.0
H2338 H 0.73523 0.37698 0.92793 0.0
H2339 H 0.76846 0.2885 0.96988 0.0
H2340 H 0.74611 0.34819 0.97617 0.0
H2341 H 0.74977 0.31405 0.92276 0.0
C2342 C 0.74017 0.33639 0.90843 0.0
C2343 C 0.73546 0.35406 0.90961 0.0
C2344 C 0.75124 0.33521 0.97481 0.0
C2345 C 0.74835 0.33708 0.94077 0.0
C2346 C 0.75446 0.32519 0.99037 0.0
C2347 C 0.76039 0.308 0.98894 0.0
C2348 C 0.75376 0.32788 0.95769 0.0
C2349 C 0.76381 0.30165 0.97166 0.0
C2350 C 0.74659 0.32785 0.92394 0.0
C2351 C 0.73815 0.36312 0.92654 0.0
N2352 N 0.76021 0.31149 0.9567 0.0
N2353 N 0.74419 0.35445 0.94151 0.0
H2354 H 0.69166 0.69446 0.92309 0.0
H2355 H 0.75282 0.76609 0.99299 0.0
H2356 H 0.70393 0.75176 0.91205 0.0
H2357 H 0.71876 0.71734 0.01035 0.0
H2358 H 0.74165 0.75819 0.96149 0.0
H2359 H 0.70768 0.70017 0.95344 0.0
C2360 C 0.69787 0.70822 0.92701 0.0
C2361 C 0.69639 0.72268 0.91507 0.0
C2362 C 0.73687 0.7491 0.97219 0.0
C2363 C 0.71495 0.72925 0.94966 0.0
C2364 C 0.7434 0.75349 0.99018 0.0
C2365 C 0.73667 0.7424 1.0044 0.0
C2366 C 0.72377 0.73333 0.96832 0.0
C2367 C 0.72429 0.72631 0.99984 0.0
C2368 C 0.70695 0.71147 0.94433 0.0
C2369 C 0.7046 0.74026 0.9209 0.0
N2370 N 0.7182 0.72229 0.98223 0.0
N2371 N 0.71358 0.74305 0.93775 0.0
H2372 H 0.30478 0.65676 0.89065 0.0
H2373 H 0.269 0.74163 0.93891 0.0
H2374 H 0.31401 0.71189 0.87137 0.0
H2375 H 0.25805 0.68668 0.95835 0.0
H2376 H 0.28455 0.73054 0.91348 0.0
H2377 H 0.28634 0.6669 0.91471 0.0
C2378 C 0.30279 0.67095 0.89136 0.0
C2379 C 0.3111 0.68351 0.87904 0.0
C2380 C 0.27872 0.72086 0.92326 0.0
C2381 C 0.29018 0.69524 0.90663 0.0
C2382 C 0.26992 0.72722 0.93788 0.0
C2383 C 0.26234 0.71511 0.95092 0.0
C2384 C 0.28006 0.70221 0.92161 0.0
C2385 C 0.2636 0.6965 0.9486 0.0
C2386 C 0.29235 0.67675 0.90516 0.0
C2387 C 0.30819 0.70177 0.88075 0.0
N2388 N 0.27239 0.69063 0.93429 0.0
N2389 N 0.29806 0.70707 0.8943 0.0
H2390 H 0.32764 0.32473 0.92646 0.0
H2391 H 0.26426 0.35462 1.00452 0.0
H2392 H 0.31572 0.37969 0.93391 0.0
H2393 H 0.28503 0.30275 1.00337 0.0
H2394 H 0.28163 0.3635 0.97764 0.0
H2395 H 0.31144 0.31603 0.95405 0.0
C2396 C 0.32181 0.33502 0.93394 0.0
C2397 C 0.32295 0.35295 0.92763 0.0
C2398 C 0.28241 0.35018 0.98331 0.0
C2399 C 0.30401 0.34297 0.95915 0.0
C2400 C 0.27238 0.34506 0.9986 0.0
C2401 C 0.2732 0.32794 1.00636 0.0
C2402 C 0.29323 0.33802 0.97552 0.0
C2403 C 0.28414 0.31618 0.9981 0.0
C2404 C 0.31242 0.33 0.94965 0.0
C2405 C 0.31487 0.3656 0.93792 0.0
N2406 N 0.29364 0.32141 0.98317 0.0
N2407 N 0.3057 0.36036 0.95302 0.0
H2408 H 0.66069 0.71119 0.25124 0.0
H2409 H 0.55182 0.71945 0.26231 0.0
H2410 H 0.61744 0.69351 0.20889 0.0
H2411 H 0.59642 0.76041 0.28455 0.0
H2412 H 0.5755 0.70532 0.24649 0.0
H2413 H 0.63709 0.72502 0.26765 0.0
C2414 C 0.64618 0.71013 0.24551 0.0
C2415 C 0.64092 0.70124 0.22875 0.0
C2416 C 0.58008 0.71738 0.25486 0.0
C2417 C 0.61394 0.7167 0.24743 0.0
C2418 C 0.56663 0.72537 0.26395 0.0
C2419 C 0.57221 0.74111 0.27472 0.0
C2420 C 0.59934 0.72492 0.25691 0.0
C2421 C 0.59157 0.74836 0.27627 0.0
C2422 C 0.63279 0.71807 0.25479 0.0
C2423 C 0.622 0.70028 0.22179 0.0
N2424 N 0.60448 0.74011 0.26759 0.0
N2425 N 0.60914 0.70779 0.23122 0.0
H2426 H 0.36066 0.71267 0.23287 0.0
H2427 H 0.31161 0.60905 0.23333 0.0
H2428 H 0.34987 0.67973 0.18385 0.0
H2429 H 0.34176 0.637 0.28021 0.0
H2430 H 0.32122 0.63586 0.215 0.0
H2431 H 0.34927 0.68614 0.25041 0.0
C2432 C 0.35598 0.69985 0.22575 0.0
C2433 C 0.3566 0.69844 0.20681 0.0
C2434 C 0.32573 0.63609 0.22929 0.0
C2435 C 0.34307 0.66797 0.22694 0.0
C2436 C 0.32018 0.62085 0.23977 0.0
C2437 C 0.32594 0.6208 0.25831 0.0
C2438 C 0.33684 0.65148 0.23751 0.0
C2439 C 0.33719 0.63639 0.26594 0.0
C2440 C 0.34939 0.68471 0.23581 0.0
C2441 C 0.34964 0.68154 0.19838 0.0
N2442 N 0.34218 0.65112 0.25554 0.0
N2443 N 0.34321 0.66694 0.20851 0.0
H2444 H 0.37638 0.35387 0.23291 0.0
H2445 H 0.47107 0.32977 0.28726 0.0
H2446 H 0.41749 0.3945 0.26085 0.0
H2447 H 0.42855 0.29028 0.25933 0.0
H2448 H 0.45101 0.35356 0.27983 0.0
H2449 H 0.39461 0.33021 0.24437 0.0
C2450 C 0.38911 0.35776 0.2417 0.0
C2451 C 0.39523 0.37613 0.24619 0.0
C2452 C 0.44605 0.33964 0.27547 0.0
C2453 C 0.41655 0.34915 0.25908 0.0
C2454 C 0.45747 0.32605 0.27978 0.0
C2455 C 0.45159 0.30799 0.27383 0.0
C2456 C 0.42863 0.3351 0.26517 0.0
C2457 C 0.43382 0.30401 0.2641 0.0
C2458 C 0.39959 0.34427 0.24819 0.0
C2459 C 0.41211 0.38046 0.25728 0.0
N2460 N 0.42311 0.31739 0.26003 0.0
N2461 N 0.42219 0.36711 0.26331 0.0
H2462 H 0.6784 0.37654 0.22436 0.0
H2463 H 0.72779 0.48014 0.22468 0.0
H2464 H 0.68218 0.40846 0.1758 0.0
H2465 H 0.73485 0.44356 0.26905 0.0
H2466 H 0.71041 0.45457 0.2066 0.0
H2467 H 0.698 0.4016 0.24124 0.0
C2468 C 0.6833 0.38887 0.21727 0.0
C2469 C 0.67859 0.39046 0.19867 0.0
C2470 C 0.71591 0.45214 0.22025 0.0
C2471 C 0.70114 0.4192 0.21788 0.0
C2472 C 0.72584 0.46673 0.23058 0.0
C2473 C 0.73274 0.46403 0.24845 0.0
C2474 C 0.71269 0.43479 0.22792 0.0
C2475 C 0.72978 0.44633 0.25536 0.0
C2476 C 0.69461 0.40313 0.22688 0.0
C2477 C 0.68558 0.40665 0.19011 0.0
N2478 N 0.71986 0.43245 0.24514 0.0
N2479 N 0.69641 0.42045 0.19981 0.0
H2480 H 0.65026 0.3793 0.88223 0.0
H2481 H 0.58473 0.33342 0.7974 0.0
H2482 H 0.66771 0.38372 0.82745 0.0
H2483 H 0.57114 0.32879 0.85338 0.0
H2484 H 0.61284 0.35564 0.80681 0.0
H2485 H 0.61894 0.36476 0.8707 0.0
C2486 C 0.64738 0.37731 0.86771 0.0
C2487 C 0.66161 0.38249 0.85578 0.0
C2488 C 0.60351 0.34993 0.81695 0.0
C2489 C 0.62575 0.36556 0.84237 0.0
C2490 C 0.58744 0.33736 0.81157 0.0
C2491 C 0.57575 0.32913 0.82467 0.0
C2492 C 0.6077 0.3543 0.83549 0.0
C2493 C 0.57992 0.33461 0.84286 0.0
C2494 C 0.62948 0.369 0.86109 0.0
C2495 C 0.65708 0.37985 0.83707 0.0
N2496 N 0.59555 0.3467 0.84771 0.0
N2497 N 0.63959 0.3713 0.83092 0.0
H2498 H 0.69778 0.67414 0.81096 0.0
H2499 H 0.76163 0.60035 0.84896 0.0
H2500 H 0.71477 0.66845 0.86744 0.0
H2501 H 0.74588 0.60489 0.79197 0.0
H2502 H 0.74171 0.62323 0.85586 0.0
H2503 H 0.71264 0.64727 0.80366 0.0
C2504 C 0.70443 0.66706 0.82185 0.0
C2505 C 0.70493 0.67341 0.83987 0.0
C2506 C 0.74242 0.61919 0.84183 0.0
C2507 C 0.72215 0.64281 0.83161 0.0
C2508 C 0.75381 0.60606 0.83786 0.0
C2509 C 0.75557 0.60077 0.81982 0.0
C2510 C 0.73273 0.62737 0.82769 0.0
C2511 C 0.74493 0.60855 0.80606 0.0
C2512 C 0.71294 0.65176 0.81767 0.0
C2513 C 0.71393 0.66389 0.85342 0.0
N2514 N 0.73411 0.62163 0.81026 0.0
N2515 N 0.72221 0.64914 0.84901 0.0
H2516 H 0.39632 0.72611 0.86831 0.0
H2517 H 0.47404 0.75544 0.79625 0.0
H2518 H 0.40729 0.69092 0.82471 0.0
H2519 H 0.46256 0.78995 0.84036 0.0
H2520 H 0.44943 0.73171 0.80597 0.0
H2521 H 0.42048 0.74985 0.8579 0.0
C2522 C 0.40401 0.72339 0.85663 0.0
C2523 C 0.40023 0.7065 0.84756 0.0
C2524 C 0.45229 0.7445 0.81349 0.0
C2525 C 0.42757 0.73356 0.83534 0.0
C2526 C 0.46632 0.75805 0.80793 0.0
C2527 C 0.47039 0.77468 0.81753 0.0
C2528 C 0.4423 0.74765 0.82874 0.0
C2529 C 0.45995 0.77733 0.83256 0.0
C2530 C 0.41772 0.73691 0.85063 0.0
C2531 C 0.41014 0.70371 0.83223 0.0
N2532 N 0.44643 0.76396 0.83771 0.0
N2533 N 0.42344 0.71709 0.82661 0.0
H2534 H 0.29182 0.37494 0.87405 0.0
H2535 H 0.30093 0.46825 0.81898 0.0
H2536 H 0.34587 0.40572 0.86329 0.0
H2537 H 0.24825 0.44066 0.83721 0.0
H2538 H 0.31756 0.44441 0.83263 0.0
H2539 H 0.27569 0.39758 0.85798 0.0
C2540 C 0.30034 0.38647 0.86829 0.0
C2541 C 0.3203 0.3885 0.87029 0.0
C2542 C 0.30236 0.44358 0.83362 0.0
C2543 C 0.30176 0.4146 0.85162 0.0
C2544 C 0.29281 0.45715 0.82574 0.0
C2545 C 0.2731 0.45655 0.82694 0.0
C2546 C 0.29215 0.42916 0.84268 0.0
C2547 C 0.26345 0.44189 0.83611 0.0
C2548 C 0.29108 0.39941 0.85906 0.0
C2549 C 0.33049 0.40354 0.86208 0.0
N2550 N 0.27303 0.42883 0.84357 0.0
N2551 N 0.32112 0.41607 0.85322 0.0
H2552 H 0.66698 0.62753 0.25116 0.0
H2553 H 0.73507 0.54975 0.2561 0.0
H2554 H 0.70678 0.62021 0.21116 0.0
H2555 H 0.69448 0.55611 0.2958 0.0
H2556 H 0.72639 0.57665 0.2407 0.0
H2557 H 0.67846 0.60292 0.26894 0.0
C2558 C 0.67829 0.62084 0.24624 0.0
C2559 C 0.68578 0.62576 0.22957 0.0
C2560 C 0.71941 0.57221 0.25282 0.0
C2561 C 0.69898 0.59748 0.24977 0.0
C2562 C 0.72444 0.55681 0.26174 0.0
C2563 C 0.71552 0.55043 0.27738 0.0
C2564 C 0.7053 0.58147 0.25947 0.0
C2565 C 0.70162 0.56024 0.28371 0.0
C2566 C 0.68479 0.60674 0.25634 0.0
C2567 C 0.70051 0.61674 0.22387 0.0
N2568 N 0.69695 0.57517 0.27475 0.0
N2569 N 0.7065 0.60298 0.23385 0.0
H2570 H 0.74743 0.41829 0.85878 0.0
H2571 H 0.7488 0.52494 0.84196 0.0
H2572 H 0.69733 0.44487 0.85965 0.0
H2573 H 0.79889 0.49815 0.84509 0.0
H2574 H 0.72954 0.49594 0.84822 0.0
H2575 H 0.76622 0.44747 0.85293 0.0
C2576 C 0.74037 0.4303 0.85771 0.0
C2577 C 0.72079 0.42916 0.85987 0.0
C2578 C 0.74476 0.49644 0.84764 0.0
C2579 C 0.74228 0.46273 0.85311 0.0
C2580 C 0.75576 0.51298 0.84406 0.0
C2581 C 0.7755 0.51399 0.84293 0.0
C2582 C 0.75353 0.48074 0.85003 0.0
C2583 C 0.78379 0.4981 0.846 0.0
C2584 C 0.75112 0.44697 0.85437 0.0
C2585 C 0.71235 0.44511 0.85799 0.0
N2586 N 0.77275 0.48214 0.84928 0.0
N2587 N 0.72317 0.46127 0.8548 0.0
H2588 H 0.62783 0.71398 0.85497 0.0
H2589 H 0.58852 0.81023 0.85486 0.0
H2590 H 0.65985 0.76297 0.87915 0.0
H2591 H 0.56058 0.76265 0.82505 0.0
H2592 H 0.61398 0.79296 0.86524 0.0
H2593 H 0.60256 0.73142 0.84502 0.0
C2594 C 0.62968 0.72843 0.8581 0.0
C2595 C 0.6462 0.73695 0.86787 0.0
C2596 C 0.60228 0.78631 0.85641 0.0
C2597 C 0.61688 0.75708 0.8567 0.0
C2598 C 0.58765 0.79615 0.85056 0.0
C2599 C 0.5723 0.78795 0.83899 0.0
C2600 C 0.60157 0.76805 0.8508 0.0
C2601 C 0.57217 0.76967 0.83373 0.0
C2602 C 0.61512 0.73839 0.85249 0.0
C2603 C 0.64738 0.75569 0.87184 0.0
N2604 N 0.5865 0.76038 0.83968 0.0
N2605 N 0.63296 0.76509 0.86624 0.0
H2606 H 0.32908 0.65092 0.8047 0.0
H2607 H 0.30169 0.543 0.81106 0.0
H2608 H 0.31861 0.62258 0.85464 0.0
H2609 H 0.29581 0.57192 0.76093 0.0
H2610 H 0.31396 0.57174 0.82661 0.0
H2611 H 0.3219 0.62181 0.78802 0.0
C2612 C 0.32529 0.63855 0.81213 0.0
C2613 C 0.32435 0.63912 0.83106 0.0
C2614 C 0.31016 0.57178 0.81217 0.0
C2615 C 0.31635 0.60587 0.81213 0.0
C2616 C 0.30328 0.55536 0.80323 0.0
C2617 C 0.29746 0.55506 0.78468 0.0
C2618 C 0.31134 0.58807 0.80252 0.0
C2619 C 0.30003 0.5715 0.77525 0.0
C2620 C 0.32119 0.62198 0.80262 0.0
C2621 C 0.31927 0.62275 0.84004 0.0
N2622 N 0.30661 0.5874 0.78432 0.0
N2623 N 0.31552 0.60678 0.8305 0.0
H2624 H 0.40007 0.32572 0.89569 0.0
H2625 H 0.46636 0.30697 0.81543 0.0
H2626 H 0.38651 0.33617 0.83941 0.0
H2627 H 0.48123 0.29839 0.87199 0.0
H2628 H 0.43775 0.31867 0.82406 0.0
H2629 H 0.4305 0.3169 0.88753 0.0
C2630 C 0.40363 0.32637 0.88165 0.0
C2631 C 0.39073 0.33168 0.86823 0.0
C2632 C 0.4473 0.31427 0.8346 0.0
C2633 C 0.42545 0.32136 0.85867 0.0
C2634 C 0.46378 0.30763 0.82967 0.0
C2635 C 0.47644 0.30156 0.84293 0.0
C2636 C 0.44326 0.31492 0.85297 0.0
C2637 C 0.47192 0.30261 0.86118 0.0
C2638 C 0.42095 0.32125 0.87696 0.0
C2639 C 0.39602 0.33218 0.85021 0.0
N2640 N 0.45578 0.30909 0.86561 0.0
N2641 N 0.41286 0.32699 0.84596 0.0
H2642 H 0.3559 0.44963 0.23283 0.0
H2643 H 0.27186 0.50827 0.2504 0.0
H2644 H 0.29704 0.42852 0.21944 0.0
H2645 H 0.33174 0.52862 0.25634 0.0
H2646 H 0.27975 0.47943 0.23791 0.0
H2647 H 0.3465 0.47881 0.24098 0.0
C2648 C 0.34095 0.45109 0.23165 0.0
C2649 C 0.32728 0.43644 0.22554 0.0
C2650 C 0.29111 0.49034 0.24176 0.0
C2651 C 0.31624 0.47023 0.23486 0.0
C2652 C 0.28659 0.50685 0.24874 0.0
C2653 C 0.30115 0.52092 0.25451 0.0
C2654 C 0.3103 0.48793 0.24057 0.0
C2655 C 0.32 0.51817 0.25225 0.0
C2656 C 0.33555 0.46787 0.23622 0.0
C2657 C 0.30811 0.43942 0.22401 0.0
N2658 N 0.32398 0.5021 0.24564 0.0
N2659 N 0.30315 0.45589 0.22876 0.0
H2660 H 0.62529 0.31495 0.18422 0.0
H2661 H 0.54002 0.32171 0.24754 0.0
H2662 H 0.61256 0.36607 0.20521 0.0
H2663 H 0.54259 0.27501 0.21316 0.0
H2664 H 0.56804 0.33762 0.23402 0.0
H2665 H 0.5964 0.2995 0.19643 0.0
C2666 C 0.61639 0.32299 0.19126 0.0
C2667 C 0.62144 0.34192 0.1936 0.0
C2668 C 0.56242 0.32392 0.22936 0.0
C2669 C 0.58845 0.32414 0.20797 0.0
C2670 C 0.54651 0.31481 0.23714 0.0
C2671 C 0.53903 0.297 0.23148 0.0
C2672 C 0.5711 0.31508 0.21599 0.0
C2673 C 0.54783 0.28877 0.21779 0.0
C2674 C 0.59992 0.31411 0.1983 0.0
C2675 C 0.60948 0.35146 0.20327 0.0
N2676 N 0.5635 0.29783 0.2106 0.0
N2677 N 0.5936 0.34246 0.21013 0.0
H2678 H 0.38927 0.75903 0.22632 0.0
H2679 H 0.50216 0.78522 0.23795 0.0
H2680 H 0.42576 0.75076 0.1836 0.0
H2681 H 0.46369 0.78753 0.28034 0.0
H2682 H 0.47458 0.77882 0.2157 0.0
H2683 H 0.41634 0.77581 0.24395 0.0
C2684 C 0.40303 0.76098 0.2206 0.0
C2685 C 0.40541 0.75337 0.20365 0.0
C2686 C 0.47224 0.78113 0.22982 0.0
C2687 C 0.43666 0.77226 0.22387 0.0
C2688 C 0.48793 0.78492 0.24244 0.0
C2689 C 0.48506 0.78676 0.26093 0.0
C2690 C 0.45372 0.77933 0.23586 0.0
C2691 C 0.46644 0.78603 0.26619 0.0
C2692 C 0.41851 0.77054 0.23065 0.0
C2693 C 0.42345 0.75641 0.1967 0.0
N2694 N 0.45152 0.78224 0.25377 0.0
N2695 N 0.43852 0.76539 0.20699 0.0
loop_
_geom_bond_atom_site_label_1
_geom_bond_atom_site_label_2
_geom_bond_distance
_geom_bond_site_symmetry_2
_ccdc_geom_bond_type
H0 C7 0.929 . S
H1 C10 0.930 . S
H2 C12 0.929 . S
H3 C4 0.969 . S
C4 H3 0.969 . S
C4 O5 1.550 . S
C4 H6 0.973 . S
O5 C4 1.550 . S
O5 C11 1.412 . S
H6 C4 0.973 . S
C7 H0 0.929 . S
C7 C8 1.400 . S
C7 C9 1.364 . S
C8 C7 1.400 . S
C8 C12 1.377 . S
C9 C7 1.364 . S
C9 C10 1.374 . S
C10 H1 0.930 . S
C10 C9 1.374 . S
C10 C11 1.383 . S
C11 O5 1.412 . S
C11 C10 1.383 . S
C11 C12 1.394 . S
C12 H2 0.929 . S
C12 C8 1.377 . S
C12 C11 1.394 . S
H13 C20 0.929 . S
H14 C23 0.930 . S
H15 C25 0.929 . S
H16 C17 0.969 . S
C17 H16 0.969 . S
C17 O18 1.550 . S
C17 H19 0.973 . S
O18 C17 1.550 . S
O18 C24 1.412 . S
H19 C17 0.973 . S
C20 H13 0.929 . S
C20 C21 1.400 . S
C20 C22 1.364 . S
C21 C20 1.400 . S
C21 C25 1.377 . S
C22 C20 1.364 . S
C22 C23 1.374 . S
C23 H14 0.930 . S
C23 C22 1.374 . S
C23 C24 1.383 . S
C24 O18 1.412 . S
C24 C23 1.383 . S
C24 C25 1.394 . S
C25 H15 0.929 . S
C25 C21 1.377 . S
C25 C24 1.394 . S
H26 C33 0.929 . S
H27 C36 0.930 . S
H28 C38 0.929 . S
H29 C30 0.969 . S
C30 H29 0.969 . S
C30 O31 1.550 . S
C30 H32 0.973 . S
O31 C30 1.550 . S
O31 C37 1.412 . S
H32 C30 0.973 . S
C33 H26 0.929 . S
C33 C34 1.400 . S
C33 C35 1.364 . S
C34 C33 1.400 . S
C34 C38 1.377 . S
C35 C33 1.364 . S
C35 C36 1.374 . S
C36 H27 0.930 . S
C36 C35 1.374 . S
C36 C37 1.383 . S
C37 O31 1.412 . S
C37 C36 1.383 . S
C37 C38 1.394 . S
C38 H28 0.929 . S
C38 C34 1.377 . S
C38 C37 1.394 . S
H39 C46 0.929 . S
H40 C49 0.930 . S
H41 C51 0.929 . S
H42 C43 0.969 . S
C43 H42 0.969 . S
C43 O44 1.550 . S
C43 H45 0.973 . S
O44 C43 1.550 . S
O44 C50 1.412 . S
H45 C43 0.973 . S
C46 H39 0.929 . S
C46 C47 1.400 . S
C46 C48 1.364 . S
C47 C46 1.400 . S
C47 C51 1.377 . S
C48 C46 1.364 . S
C48 C49 1.374 . S
C49 H40 0.930 . S
C49 C48 1.374 . S
C49 C50 1.383 . S
C50 O44 1.412 . S
C50 C49 1.383 . S
C50 C51 1.394 . S
C51 H41 0.929 . S
C51 C47 1.377 . S
C51 C50 1.394 . S
H52 C59 0.929 . S
H53 C62 0.930 . S
H54 C64 0.929 . S
H55 C56 0.969 . S
C56 H55 0.969 . S
C56 O57 1.550 . S
C56 H58 0.973 . S
O57 C56 1.550 . S
O57 C63 1.412 . S
H58 C56 0.973 . S
C59 H52 0.929 . S
C59 C60 1.400 . S
C59 C61 1.364 . S
C60 C59 1.400 . S
C60 C64 1.377 . S
C61 C59 1.364 . S
C61 C62 1.374 . S
C62 H53 0.930 . S
C62 C61 1.374 . S
C62 C63 1.383 . S
C63 O57 1.412 . S
C63 C62 1.383 . S
C63 C64 1.394 . S
C64 H54 0.929 . S
C64 C60 1.377 . S
C64 C63 1.394 . S
H65 C72 0.929 . S
H66 C75 0.930 . S
H67 C77 0.929 . S
H68 C69 0.969 . S
C69 H68 0.969 . S
C69 O70 1.550 . S
C69 H71 0.973 . S
O70 C69 1.550 . S
O70 C76 1.412 . S
H71 C69 0.973 . S
C72 H65 0.929 . S
C72 C73 1.400 . S
C72 C74 1.364 . S
C73 C72 1.400 . S
C73 C77 1.377 . S
C74 C72 1.364 . S
C74 C75 1.374 . S
C75 H66 0.930 . S
C75 C74 1.374 . S
C75 C76 1.383 . S
C76 O70 1.412 . S
C76 C75 1.383 . S
C76 C77 1.394 . S
C77 H67 0.929 . S
C77 C73 1.377 . S
C77 C76 1.394 . S
H78 C85 0.929 . S
H79 C88 0.930 . S
H80 C90 0.929 . S
H81 C82 0.969 . S
C82 H81 0.969 . S
C82 O83 1.550 . S
C82 H84 0.973 . S
O83 C82 1.550 . S
O83 C89 1.412 . S
H84 C82 0.973 . S
C85 H78 0.929 . S
C85 C86 1.400 . S
C85 C87 1.364 . S
C86 C85 1.400 . S
C86 C90 1.377 . S
C87 C85 1.364 . S
C87 C88 1.374 . S
C88 H79 0.930 . S
C88 C87 1.374 . S
C88 C89 1.383 . S
C89 O83 1.412 . S
C89 C88 1.383 . S
C89 C90 1.394 . S
C90 H80 0.929 . S
C90 C86 1.377 . S
C90 C89 1.394 . S
H91 C98 0.929 . S
H92 C101 0.930 . S
H93 C103 0.929 . S
H94 C95 0.969 . S
C95 H94 0.969 . S
C95 O96 1.550 . S
C95 H97 0.973 . S
O96 C95 1.550 . S
O96 C102 1.412 . S
H97 C95 0.973 . S
C98 H91 0.929 . S
C98 C99 1.400 . S
C98 C100 1.364 . S
C99 C98 1.400 . S
C99 C103 1.377 . S
C100 C98 1.364 . S
C100 C101 1.374 . S
C101 H92 0.930 . S
C101 C100 1.374 . S
C101 C102 1.383 . S
C102 O96 1.412 . S
C102 C101 1.383 . S
C102 C103 1.394 . S
C103 H93 0.929 . S
C103 C99 1.377 . S
C103 C102 1.394 . S
H104 C111 0.929 . S
H105 C114 0.930 . S
H106 C116 0.929 . S
H107 C108 0.969 . S
C108 H107 0.969 . S
C108 O109 1.550 . S
C108 H110 0.973 . S
O109 C108 1.550 . S
O109 C115 1.412 . S
H110 C108 0.973 . S
C111 H104 0.929 . S
C111 C112 1.400 . S
C111 C113 1.364 . S
C112 C111 1.400 . S
C112 C116 1.377 . S
C113 C111 1.364 . S
C113 C114 1.374 . S
C114 H105 0.930 . S
C114 C113 1.374 . S
C114 C115 1.383 . S
C115 O109 1.412 . S
C115 C114 1.383 . S
C115 C116 1.394 . S
C116 H106 0.929 . S
C116 C112 1.377 . S
C116 C115 1.394 . S
H117 C124 0.929 . S
H118 C127 0.930 . S
H119 C129 0.929 . S
H120 C121 0.969 . S
C121 H120 0.969 . S
C121 O122 1.550 . S
C121 H123 0.973 . S
O122 C121 1.550 . S
O122 C128 1.412 . S
H123 C121 0.973 . S
C124 H117 0.929 . S
C124 C125 1.400 . S
C124 C126 1.364 . S
C125 C124 1.400 . S
C125 C129 1.377 . S
C126 C124 1.364 . S
C126 C127 1.374 . S
C127 H118 0.930 . S
C127 C126 1.374 . S
C127 C128 1.383 . S
C128 O122 1.412 . S
C128 C127 1.383 . S
C128 C129 1.394 . S
C129 H119 0.929 . S
C129 C125 1.377 . S
C129 C128 1.394 . S
H130 C137 0.929 . S
H131 C140 0.930 . S
H132 C142 0.929 . S
H133 C134 0.969 . S
C134 H133 0.969 . S
C134 O135 1.550 . S
C134 H136 0.973 . S
O135 C134 1.550 . S
O135 C141 1.412 . S
H136 C134 0.973 . S
C137 H130 0.929 . S
C137 C138 1.400 . S
C137 C139 1.364 . S
C138 C137 1.400 . S
C138 C142 1.377 . S
C139 C137 1.364 . S
C139 C140 1.374 . S
C140 H131 0.930 . S
C140 C139 1.374 . S
C140 C141 1.383 . S
C141 O135 1.412 . S
C141 C140 1.383 . S
C141 C142 1.394 . S
C142 H132 0.929 . S
C142 C138 1.377 . S
C142 C141 1.394 . S
H143 C150 0.929 . S
H144 C153 0.930 . S
H145 C155 0.929 . S
H146 C147 0.969 . S
C147 H146 0.969 . S
C147 O148 1.550 . S
C147 H149 0.973 . S
O148 C147 1.550 . S
O148 C154 1.412 . S
H149 C147 0.973 . S
C150 H143 0.929 . S
C150 C151 1.400 . S
C150 C152 1.364 . S
C151 C150 1.400 . S
C151 C155 1.377 . S
C152 C150 1.364 . S
C152 C153 1.374 . S
C153 H144 0.930 . S
C153 C152 1.374 . S
C153 C154 1.383 . S
C154 O148 1.412 . S
C154 C153 1.383 . S
C154 C155 1.394 . S
C155 H145 0.929 . S
C155 C151 1.377 . S
C155 C154 1.394 . S
H156 C163 0.929 . S
H157 C166 0.930 . S
H158 C168 0.929 . S
H159 C160 0.969 . S
C160 H159 0.969 . S
C160 O161 1.550 . S
C160 H162 0.973 . S
O161 C160 1.550 . S
O161 C167 1.412 . S
H162 C160 0.973 . S
C163 H156 0.929 . S
C163 C164 1.400 . S
C163 C165 1.364 . S
C164 C163 1.400 . S
C164 C168 1.377 . S
C165 C163 1.364 . S
C165 C166 1.374 . S
C166 H157 0.930 . S
C166 C165 1.374 . S
C166 C167 1.383 . S
C167 O161 1.412 . S
C167 C166 1.383 . S
C167 C168 1.394 . S
C168 H158 0.929 . S
C168 C164 1.377 . S
C168 C167 1.394 . S
H169 C176 0.929 . S
H170 C179 0.930 . S
H171 C181 0.929 . S
H172 C173 0.969 . S
C173 H172 0.969 . S
C173 O174 1.550 . S
C173 H175 0.973 . S
O174 C173 1.550 . S
O174 C180 1.412 . S
H175 C173 0.973 . S
C176 H169 0.929 . S
C176 C177 1.400 . S
C176 C178 1.364 . S
C177 C176 1.400 . S
C177 C181 1.377 . S
C178 C176 1.364 . S
C178 C179 1.374 . S
C179 H170 0.930 . S
C179 C178 1.374 . S
C179 C180 1.383 . S
C180 O174 1.412 . S
C180 C179 1.383 . S
C180 C181 1.394 . S
C181 H171 0.929 . S
C181 C177 1.377 . S
C181 C180 1.394 . S
H182 C189 0.929 . S
H183 C192 0.930 . S
H184 C194 0.929 . S
H185 C186 0.969 . S
C186 H185 0.969 . S
C186 O187 1.550 . S
C186 H188 0.973 . S
O187 C186 1.550 . S
O187 C193 1.412 . S
H188 C186 0.973 . S
C189 H182 0.929 . S
C189 C190 1.400 . S
C189 C191 1.364 . S
C190 C189 1.400 . S
C190 C194 1.377 . S
C191 C189 1.364 . S
C191 C192 1.374 . S
C192 H183 0.930 . S
C192 C191 1.374 . S
C192 C193 1.383 . S
C193 O187 1.412 . S
C193 C192 1.383 . S
C193 C194 1.394 . S
C194 H184 0.929 . S
C194 C190 1.377 . S
C194 C193 1.394 . S
H195 C202 0.929 . S
H196 C205 0.930 . S
H197 C207 0.929 . S
H198 C199 0.969 . S
C199 H198 0.969 . S
C199 O200 1.550 . S
C199 H201 0.973 . S
O200 C199 1.550 . S
O200 C206 1.412 . S
H201 C199 0.973 . S
C202 H195 0.929 . S
C202 C203 1.400 . S
C202 C204 1.364 . S
C203 C202 1.400 . S
C203 C207 1.377 . S
C204 C202 1.364 . S
C204 C205 1.374 . S
C205 H196 0.930 . S
C205 C204 1.374 . S
C205 C206 1.383 . S
C206 O200 1.412 . S
C206 C205 1.383 . S
C206 C207 1.394 . S
C207 H197 0.929 . S
C207 C203 1.377 . S
C207 C206 1.394 . S
H208 C215 0.929 . S
H209 C218 0.930 . S
H210 C220 0.929 . S
H211 C212 0.969 . S
C212 H211 0.969 . S
C212 O213 1.550 . S
C212 H214 0.973 . S
O213 C212 1.550 . S
O213 C219 1.412 . S
H214 C212 0.973 . S
C215 H208 0.929 . S
C215 C216 1.400 . S
C215 C217 1.364 . S
C216 C215 1.400 . S
C216 C220 1.377 . S
C217 C215 1.364 . S
C217 C218 1.374 . S
C218 H209 0.930 . S
C218 C217 1.374 . S
C218 C219 1.383 . S
C219 O213 1.412 . S
C219 C218 1.383 . S
C219 C220 1.394 . S
C220 H210 0.929 . S
C220 C216 1.377 . S
C220 C219 1.394 . S
H221 C228 0.929 . S
H222 C231 0.930 . S
H223 C233 0.929 . S
H224 C225 0.969 . S
C225 H224 0.969 . S
C225 O226 1.550 . S
C225 H227 0.973 . S
O226 C225 1.550 . S
O226 C232 1.412 . S
H227 C225 0.973 . S
C228 H221 0.929 . S
C228 C229 1.400 . S
C228 C230 1.364 . S
C229 C228 1.400 . S
C229 C233 1.377 . S
C230 C228 1.364 . S
C230 C231 1.374 . S
C231 H222 0.930 . S
C231 C230 1.374 . S
C231 C232 1.383 . S
C232 O226 1.412 . S
C232 C231 1.383 . S
C232 C233 1.394 . S
C233 H223 0.929 . S
C233 C229 1.377 . S
C233 C232 1.394 . S
H234 C241 0.929 . S
H235 C244 0.930 . S
H236 C246 0.929 . S
H237 C238 0.969 . S
C238 H237 0.969 . S
C238 O239 1.550 . S
C238 H240 0.973 . S
O239 C238 1.550 . S
O239 C245 1.412 . S
H240 C238 0.973 . S
C241 H234 0.929 . S
C241 C242 1.400 . S
C241 C243 1.364 . S
C242 C241 1.400 . S
C242 C246 1.377 . S
C243 C241 1.364 . S
C243 C244 1.374 . S
C244 H235 0.930 . S
C244 C243 1.374 . S
C244 C245 1.383 . S
C245 O239 1.412 . S
C245 C244 1.383 . S
C245 C246 1.394 . S
C246 H236 0.929 . S
C246 C242 1.377 . S
C246 C245 1.394 . S
H247 C254 0.929 . S
H248 C257 0.930 . S
H249 C259 0.929 . S
H250 C251 0.969 . S
C251 H250 0.969 . S
C251 O252 1.550 . S
C251 H253 0.973 . S
O252 C251 1.550 . S
O252 C258 1.412 . S
H253 C251 0.973 . S
C254 H247 0.929 . S
C254 C255 1.400 . S
C254 C256 1.364 . S
C255 C254 1.400 . S
C255 C259 1.377 . S
C256 C254 1.364 . S
C256 C257 1.374 . S
C257 H248 0.930 . S
C257 C256 1.374 . S
C257 C258 1.383 . S
C258 O252 1.412 . S
C258 C257 1.383 . S
C258 C259 1.394 . S
C259 H249 0.929 . S
C259 C255 1.377 . S
C259 C258 1.394 . S
H260 C267 0.929 . S
H261 C270 0.930 . S
H262 C272 0.929 . S
H263 C264 0.969 . S
C264 H263 0.969 . S
C264 O265 1.550 . S
C264 H266 0.973 . S
O265 C264 1.550 . S
O265 C271 1.412 . S
H266 C264 0.973 . S
C267 H260 0.929 . S
C267 C268 1.400 . S
C267 C269 1.364 . S
C268 C267 1.400 . S
C268 C272 1.377 . S
C269 C267 1.364 . S
C269 C270 1.374 . S
C270 H261 0.930 . S
C270 C269 1.374 . S
C270 C271 1.383 . S
C271 O265 1.412 . S
C271 C270 1.383 . S
C271 C272 1.394 . S
C272 H262 0.929 . S
C272 C268 1.377 . S
C272 C271 1.394 . S
H273 C280 0.929 . S
H274 C283 0.930 . S
H275 C285 0.929 . S
H276 C277 0.969 . S
C277 H276 0.969 . S
C277 O278 1.550 . S
C277 H279 0.973 . S
O278 C277 1.550 . S
O278 C284 1.412 . S
H279 C277 0.973 . S
C280 H273 0.929 . S
C280 C281 1.400 . S
C280 C282 1.364 . S
C281 C280 1.400 . S
C281 C285 1.377 . S
C282 C280 1.364 . S
C282 C283 1.374 . S
C283 H274 0.930 . S
C283 C282 1.374 . S
C283 C284 1.383 . S
C284 O278 1.412 . S
C284 C283 1.383 . S
C284 C285 1.394 . S
C285 H275 0.929 . S
C285 C281 1.377 . S
C285 C284 1.394 . S
H286 C293 0.929 . S
H287 C296 0.930 . S
H288 C298 0.929 . S
H289 C290 0.969 . S
C290 H289 0.969 . S
C290 O291 1.550 . S
C290 H292 0.973 . S
O291 C290 1.550 . S
O291 C297 1.412 . S
H292 C290 0.973 . S
C293 H286 0.929 . S
C293 C294 1.400 . S
C293 C295 1.364 . S
C294 C293 1.400 . S
C294 C298 1.377 . S
C295 C293 1.364 . S
C295 C296 1.374 . S
C296 H287 0.930 . S
C296 C295 1.374 . S
C296 C297 1.383 . S
C297 O291 1.412 . S
C297 C296 1.383 . S
C297 C298 1.394 . S
C298 H288 0.929 . S
C298 C294 1.377 . S
C298 C297 1.394 . S
H299 C306 0.929 . S
H300 C309 0.930 . S
H301 C311 0.929 . S
H302 C303 0.969 . S
C303 H302 0.969 . S
C303 O304 1.550 . S
C303 H305 0.973 . S
O304 C303 1.550 . S
O304 C310 1.412 . S
H305 C303 0.973 . S
C306 H299 0.929 . S
C306 C307 1.400 . S
C306 C308 1.364 . S
C307 C306 1.400 . S
C307 C311 1.377 . S
C308 C306 1.364 . S
C308 C309 1.374 . S
C309 H300 0.930 . S
C309 C308 1.374 . S
C309 C310 1.383 . S
C310 O304 1.412 . S
C310 C309 1.383 . S
C310 C311 1.394 . S
C311 H301 0.929 . S
C311 C307 1.377 . S
C311 C310 1.394 . S
H312 C319 0.929 . S
H313 C322 0.930 . S
H314 C324 0.929 . S
H315 C316 0.969 . S
C316 H315 0.969 . S
C316 O317 1.550 . S
C316 H318 0.973 . S
O317 C316 1.550 . S
O317 C323 1.412 . S
H318 C316 0.973 . S
C319 H312 0.929 . S
C319 C320 1.400 . S
C319 C321 1.364 . S
C320 C319 1.400 . S
C320 C324 1.377 . S
C321 C319 1.364 . S
C321 C322 1.374 . S
C322 H313 0.930 . S
C322 C321 1.374 . S
C322 C323 1.383 . S
C323 O317 1.412 . S
C323 C322 1.383 . S
C323 C324 1.394 . S
C324 H314 0.929 . S
C324 C320 1.377 . S
C324 C323 1.394 . S
H325 C332 0.929 . S
H326 C335 0.930 . S
H327 C337 0.929 . S
H328 C329 0.969 . S
C329 H328 0.969 . S
C329 O330 1.550 . S
C329 H331 0.973 . S
O330 C329 1.550 . S
O330 C336 1.412 . S
H331 C329 0.973 . S
C332 H325 0.929 . S
C332 C333 1.400 . S
C332 C334 1.364 . S
C333 C332 1.400 . S
C333 C337 1.377 . S
C334 C332 1.364 . S
C334 C335 1.374 . S
C335 H326 0.930 . S
C335 C334 1.374 . S
C335 C336 1.383 . S
C336 O330 1.412 . S
C336 C335 1.383 . S
C336 C337 1.394 . S
C337 H327 0.929 . S
C337 C333 1.377 . S
C337 C336 1.394 . S
H338 C345 0.929 . S
H339 C348 0.930 . S
H340 C350 0.929 . S
H341 C342 0.969 . S
C342 H341 0.969 . S
C342 O343 1.550 . S
C342 H344 0.973 . S
O343 C342 1.550 . S
O343 C349 1.412 . S
H344 C342 0.973 . S
C345 H338 0.929 . S
C345 C346 1.400 . S
C345 C347 1.364 . S
C346 C345 1.400 . S
C346 C350 1.377 . S
C347 C345 1.364 . S
C347 C348 1.374 . S
C348 H339 0.930 . S
C348 C347 1.374 . S
C348 C349 1.383 . S
C349 O343 1.412 . S
C349 C348 1.383 . S
C349 C350 1.394 . S
C350 H340 0.929 . S
C350 C346 1.377 . S
C350 C349 1.394 . S
H351 C358 0.929 . S
H352 C361 0.930 . S
H353 C363 0.929 . S
H354 C355 0.969 . S
C355 H354 0.969 . S
C355 O356 1.550 . S
C355 H357 0.973 . S
O356 C355 1.550 . S
O356 C362 1.412 . S
H357 C355 0.973 . S
C358 H351 0.929 . S
C358 C359 1.400 . S
C358 C360 1.364 . S
C359 C358 1.400 . S
C359 C363 1.377 . S
C360 C358 1.364 . S
C360 C361 1.374 . S
C361 H352 0.930 . S
C361 C360 1.374 . S
C361 C362 1.383 . S
C362 O356 1.412 . S
C362 C361 1.383 . S
C362 C363 1.394 . S
C363 H353 0.929 . S
C363 C359 1.377 . S
C363 C362 1.394 . S
H364 C371 0.929 . S
H365 C374 0.930 . S
H366 C376 0.929 . S
H367 C368 0.969 . S
C368 H367 0.969 . S
C368 O369 1.550 . S
C368 H370 0.973 . S
O369 C368 1.550 . S
O369 C375 1.412 . S
H370 C368 0.973 . S
C371 H364 0.929 . S
C371 C372 1.400 . S
C371 C373 1.364 . S
C372 C371 1.400 . S
C372 C376 1.377 . S
C373 C371 1.364 . S
C373 C374 1.374 . S
C374 H365 0.930 . S
C374 C373 1.374 . S
C374 C375 1.383 . S
C375 O369 1.412 . S
C375 C374 1.383 . S
C375 C376 1.394 . S
C376 H366 0.929 . S
C376 C372 1.377 . S
C376 C375 1.394 . S
H377 C384 0.929 . S
H378 C387 0.930 . S
H379 C389 0.929 . S
H380 C381 0.969 . S
C381 H380 0.969 . S
C381 O382 1.550 . S
C381 H383 0.973 . S
O382 C381 1.550 . S
O382 C388 1.412 . S
H383 C381 0.973 . S
C384 H377 0.929 . S
C384 C385 1.400 . S
C384 C386 1.364 . S
C385 C384 1.400 . S
C385 C389 1.377 . S
C386 C384 1.364 . S
C386 C387 1.374 . S
C387 H378 0.930 . S
C387 C386 1.374 . S
C387 C388 1.383 . S
C388 O382 1.412 . S
C388 C387 1.383 . S
C388 C389 1.394 . S
C389 H379 0.929 . S
C389 C385 1.377 . S
C389 C388 1.394 . S
H390 C397 0.929 . S
H391 C400 0.930 . S
H392 C402 0.929 . S
H393 C394 0.969 . S
C394 H393 0.969 . S
C394 O395 1.550 . S
C394 H396 0.973 . S
O395 C394 1.550 . S
O395 C401 1.412 . S
H396 C394 0.973 . S
C397 H390 0.929 . S
C397 C398 1.400 . S
C397 C399 1.364 . S
C398 C397 1.400 . S
C398 C402 1.377 . S
C399 C397 1.364 . S
C399 C400 1.374 . S
C400 H391 0.930 . S
C400 C399 1.374 . S
C400 C401 1.383 . S
C401 O395 1.412 . S
C401 C400 1.383 . S
C401 C402 1.394 . S
C402 H392 0.929 . S
C402 C398 1.377 . S
C402 C401 1.394 . S
H403 C410 0.929 . S
H404 C413 0.930 . S
H405 C415 0.929 . S
H406 C407 0.969 . S
C407 H406 0.969 . S
C407 O408 1.550 . S
C407 H409 0.973 . S
O408 C407 1.550 . S
O408 C414 1.412 . S
H409 C407 0.973 . S
C410 H403 0.929 . S
C410 C411 1.400 . S
C410 C412 1.364 . S
C411 C410 1.400 . S
C411 C415 1.377 . S
C412 C410 1.364 . S
C412 C413 1.374 . S
C413 H404 0.930 . S
C413 C412 1.374 . S
C413 C414 1.383 . S
C414 O408 1.412 . S
C414 C413 1.383 . S
C414 C415 1.394 . S
C415 H405 0.929 . S
C415 C411 1.377 . S
C415 C414 1.394 . S
Cu416 N417 1.999 . S
Cu416 O422 1.974 . S
Cu416 N427 1.985 . S
Cu416 O436 1.959 . S
N417 Cu416 1.999 . S
N417 C419 1.263 . S
N417 C421 1.389 . S
N418 C419 1.358 . S
N418 C420 1.400 . S
C419 N417 1.263 . S
C419 N418 1.358 . S
C419 H425 0.930 . S
C420 N418 1.400 . S
C420 C421 1.351 . S
C420 H437 0.930 . S
C421 N417 1.389 . S
C421 C420 1.351 . S
C421 H426 0.930 . S
O422 Cu416 1.974 . S
O422 C432 1.282 . S
C423 O424 1.261 . S
C423 O436 1.251 . S
O424 C423 1.261 . S
H425 C419 0.930 . S
H426 C421 0.930 . S
N427 Cu416 1.985 . S
N427 C429 1.335 . S
N427 C430 1.390 . S
N428 C429 1.345 . S
N428 C431 1.336 . S
C429 N427 1.335 . S
C429 N428 1.345 . S
C429 H434 0.930 . S
C430 N427 1.390 . S
C430 C431 1.346 . S
C430 H435 0.930 . S
C431 N428 1.336 . S
C431 C430 1.346 . S
C431 H438 0.929 . S
C432 O422 1.282 . S
C432 O433 1.216 . S
O433 C432 1.216 . S
H434 C429 0.930 . S
H435 C430 0.930 . S
O436 Cu416 1.959 . S
O436 C423 1.251 . S
H437 C420 0.930 . S
H438 C431 0.929 . S
Cu439 N440 1.999 . S
Cu439 O445 1.974 . S
Cu439 N450 1.985 . S
Cu439 O459 1.959 1_554 S
N440 Cu439 1.999 . S
N440 C442 1.263 . S
N440 C444 1.389 . S
N441 C442 1.358 . S
N441 C443 1.400 . S
C442 N440 1.263 . S
C442 N441 1.358 . S
C442 H448 0.930 . S
C443 N441 1.400 . S
C443 C444 1.351 . S
C443 H460 0.930 . S
C444 N440 1.389 . S
C444 C443 1.351 . S
C444 H449 0.930 . S
O445 Cu439 1.974 . S
O445 C455 1.282 . S
C446 O447 1.261 1_556 S
C446 O459 1.251 . S
O447 C446 1.261 1_554 S
H448 C442 0.930 . S
H449 C444 0.930 . S
N450 Cu439 1.985 . S
N450 C452 1.335 1_554 S
N450 C453 1.390 . S
N451 C452 1.345 . S
N451 C454 1.336 . S
C452 N450 1.335 1_556 S
C452 N451 1.345 . S
C452 H457 0.930 . S
C453 N450 1.390 . S
C453 C454 1.346 1_554 S
C453 H458 0.930 . S
C454 N451 1.336 . S
C454 C453 1.346 1_556 S
C454 H461 0.929 . S
C455 O445 1.282 . S
C455 O456 1.216 . S
O456 C455 1.216 . S
H457 C452 0.930 . S
H458 C453 0.930 . S
O459 Cu439 1.959 1_556 S
O459 C446 1.251 . S
H460 C443 0.930 . S
H461 C454 0.929 . S
Cu462 N463 1.999 . S
Cu462 O468 1.974 . S
Cu462 N473 1.985 . S
Cu462 O482 1.959 . S
N463 Cu462 1.999 . S
N463 C465 1.278 . S
N463 C467 1.389 . S
N464 C465 1.351 1_556 S
N464 C466 1.400 1_556 S
C465 N463 1.278 . S
C465 N464 1.351 1_554 S
C465 H471 0.923 1_554 S
C466 N464 1.400 1_554 S
C466 C467 1.351 . S
C466 H483 0.930 . S
C467 N463 1.389 . S
C467 C466 1.351 . S
C467 H472 0.930 . S
O468 Cu462 1.974 . S
O468 C478 1.282 . S
C469 O470 1.261 . S
C469 O482 1.251 . S
O470 C469 1.261 . S
H471 C465 0.923 1_556 S
H472 C467 0.930 . S
N473 Cu462 1.985 . S
N473 C475 1.335 . S
N473 C476 1.390 . S
N474 C475 1.345 . S
N474 C477 1.336 . S
C475 N473 1.335 . S
C475 N474 1.345 . S
C475 H480 0.930 . S
C476 N473 1.390 . S
C476 C477 1.346 . S
C476 H481 0.930 . S
C477 N474 1.336 . S
C477 C476 1.346 . S
C477 H484 0.929 . S
C478 O468 1.282 . S
C478 O479 1.216 . S
O479 C478 1.216 . S
H480 C475 0.930 . S
H481 C476 0.930 . S
O482 Cu462 1.959 . S
O482 C469 1.251 . S
H483 C466 0.930 . S
H484 C477 0.929 . S
Cu485 N486 1.999 1_556 S
Cu485 O491 1.974 1_556 S
Cu485 N496 1.985 . S
Cu485 O505 1.959 . S
N486 Cu485 1.999 1_554 S
N486 C488 1.263 . S
N486 C490 1.389 . S
N487 C488 1.358 . S
N487 C489 1.400 . S
C488 N486 1.263 . S
C488 N487 1.358 . S
C488 H494 0.930 . S
C489 N487 1.400 . S
C489 C490 1.351 . S
C489 H506 0.930 . S
C490 N486 1.389 . S
C490 C489 1.351 . S
C490 H495 0.955 . S
O491 Cu485 1.974 1_554 S
O491 C501 1.282 . S
C492 O493 1.261 . S
C492 O505 1.251 . S
O493 C492 1.261 . S
H494 C488 0.930 . S
H495 C490 0.955 . S
N496 Cu485 1.985 . S
N496 C498 1.335 . S
N496 C499 1.390 . S
N497 C498 1.345 . S
N497 C500 1.336 . S
C498 N496 1.335 . S
C498 N497 1.345 . S
C498 H503 0.930 . S
C499 N496 1.390 . S
C499 C500 1.346 . S
C499 H504 0.980 . S
C500 N497 1.336 . S
C500 C499 1.346 . S
C500 H507 0.929 . S
C501 O491 1.282 . S
C501 O502 1.216 . S
O502 C501 1.216 . S
H503 C498 0.930 . S
H504 C499 0.980 . S
O505 Cu485 1.959 . S
O505 C492 1.251 . S
H506 C489 0.930 . S
H507 C500 0.929 . S
Cu508 N509 1.999 . S
Cu508 O514 1.974 . S
Cu508 N519 1.946 1_455 S
Cu508 O528 1.959 1_455 S
N509 Cu508 1.999 . S
N509 C511 1.263 . S
N509 C513 1.389 . S
N510 C511 1.358 . S
N510 C512 1.400 . S
C511 N509 1.263 . S
C511 N510 1.358 . S
C511 H517 0.930 . S
C512 N510 1.400 . S
C512 C513 1.351 . S
C512 H529 0.930 . S
C513 N509 1.389 . S
C513 C512 1.351 . S
C513 H518 0.930 . S
O514 Cu508 1.974 . S
O514 C524 1.282 . S
C515 O516 1.261 . S
C515 O528 1.251 . S
O516 C515 1.261 . S
H517 C511 0.930 . S
H518 C513 0.930 . S
N519 Cu508 1.946 1_655 S
N519 C521 1.394 . S
N519 C522 1.380 1_655 S
N520 C521 1.345 . S
N520 C523 1.336 . S
C521 N519 1.394 . S
C521 N520 1.345 . S
C521 H526 0.930 . S
C522 N519 1.380 1_455 S
C522 C523 1.346 1_455 S
C522 H527 0.930 . S
C523 N520 1.336 . S
C523 C522 1.346 1_655 S
C523 H530 0.929 . S
C524 O514 1.282 . S
C524 O525 1.216 . S
O525 C524 1.216 . S
H526 C521 0.930 . S
H527 C522 0.930 . S
O528 Cu508 1.959 1_655 S
O528 C515 1.251 . S
H529 C512 0.930 . S
H530 C523 0.929 . S
Cu531 N532 1.999 . S
Cu531 O537 1.974 . S
Cu531 N542 1.985 . S
Cu531 O551 1.959 . S
N532 Cu531 1.999 . S
N532 C534 1.263 . S
N532 C536 1.389 . S
N533 C534 1.358 . S
N533 C535 1.400 . S
C534 N532 1.263 . S
C534 N533 1.358 . S
C534 H540 0.930 . S
C535 N533 1.400 . S
C535 C536 1.351 . S
C535 H552 0.930 . S
C536 N532 1.389 . S
C536 C535 1.351 . S
C536 H541 0.930 . S
O537 Cu531 1.974 . S
O537 C547 1.282 . S
C538 O539 1.261 . S
C538 O551 1.251 . S
O539 C538 1.261 . S
H540 C534 0.930 . S
H541 C536 0.930 . S
N542 Cu531 1.985 . S
N542 C544 1.335 1_545 S
N542 C545 1.390 . S
N543 C544 1.345 . S
N543 C546 1.336 . S
C544 N542 1.335 1_565 S
C544 N543 1.345 . S
C544 H549 0.930 . S
C545 N542 1.390 . S
C545 C546 1.346 1_545 S
C545 H550 0.930 . S
C546 N543 1.336 . S
C546 C545 1.346 1_565 S
C546 H553 0.929 . S
C547 O537 1.282 . S
C547 O548 1.216 . S
O548 C547 1.216 . S
H549 C544 0.930 . S
H550 C545 0.930 . S
O551 Cu531 1.959 . S
O551 C538 1.251 . S
H552 C535 0.930 . S
H553 C546 0.929 . S
Cu554 N555 1.988 1_455 S
Cu554 O560 1.961 1_455 S
Cu554 N565 1.996 . S
Cu554 O574 1.972 . S
N555 Cu554 1.988 1_655 S
N555 C557 1.263 . S
N555 C559 1.389 . S
N556 C557 1.358 . S
N556 C558 1.400 . S
C557 N555 1.263 . S
C557 N556 1.358 . S
C557 H563 0.930 . S
C558 N556 1.400 . S
C558 C559 1.351 . S
C558 H575 0.930 . S
C559 N555 1.389 . S
C559 C558 1.351 . S
C559 H564 0.930 . S
O560 Cu554 1.961 1_655 S
O560 C570 1.282 . S
C561 O562 1.261 . S
C561 O574 1.251 . S
O562 C561 1.261 . S
H563 C557 0.930 . S
H564 C559 0.930 . S
N565 Cu554 1.996 . S
N565 C567 1.335 . S
N565 C568 1.390 . S
N566 C567 1.345 . S
N566 C569 1.336 . S
C567 N565 1.335 . S
C567 N566 1.345 . S
C567 H572 0.930 . S
C568 N565 1.390 . S
C568 C569 1.346 . S
C568 H573 0.930 . S
C569 N566 1.336 . S
C569 C568 1.346 . S
C569 H576 0.929 . S
C570 O560 1.282 . S
C570 O571 1.216 . S
O571 C570 1.216 . S
H572 C567 0.930 . S
H573 C568 0.930 . S
O574 Cu554 1.972 . S
O574 C561 1.251 . S
H575 C558 0.930 . S
H576 C569 0.929 . S
Cu577 N578 2.036 . S
Cu577 O583 2.020 . S
Cu577 N588 1.951 1_545 S
Cu577 O597 1.914 1_545 S
N578 Cu577 2.036 . S
N578 C580 1.263 . S
N578 C582 1.389 . S
N579 C580 1.358 . S
N579 C581 1.400 . S
C580 N578 1.263 . S
C580 N579 1.358 . S
C580 H586 0.930 . S
C581 N579 1.400 . S
C581 C582 1.351 . S
C581 H598 0.930 . S
C582 N578 1.389 . S
C582 C581 1.351 . S
C582 H587 0.930 . S
O583 Cu577 2.020 . S
O583 C593 1.282 . S
C584 O585 1.261 . S
C584 O597 1.251 . S
O585 C584 1.261 . S
H586 C580 0.930 . S
H587 C582 0.930 . S
N588 Cu577 1.951 1_565 S
N588 C590 1.335 . S
N588 C591 1.390 . S
N589 C590 1.345 . S
N589 C592 1.336 . S
C590 N588 1.335 . S
C590 N589 1.345 . S
C590 H595 0.930 . S
C591 N588 1.390 . S
C591 C592 1.346 . S
C591 H596 0.930 . S
C592 N589 1.336 . S
C592 C591 1.346 . S
C592 H599 0.929 . S
C593 O583 1.282 . S
C593 O594 1.216 . S
O594 C593 1.216 . S
H595 C590 0.930 . S
H596 C591 0.930 . S
O597 Cu577 1.914 1_565 S
O597 C584 1.251 . S
H598 C581 0.930 . S
H599 C592 0.929 . S
Cu600 N601 1.999 . S
Cu600 O606 1.974 . S
Cu600 N611 2.013 . S
Cu600 O620 1.959 1_455 S
N601 Cu600 1.999 . S
N601 C603 1.263 . S
N601 C605 1.389 . S
N602 C603 1.358 . S
N602 C604 1.400 . S
C603 N601 1.263 . S
C603 N602 1.358 . S
C603 H609 0.930 . S
C604 N602 1.400 . S
C604 C605 1.351 . S
C604 H621 0.930 . S
C605 N601 1.389 . S
C605 C604 1.351 . S
C605 H610 0.930 . S
O606 Cu600 1.974 . S
O606 C616 1.282 . S
C607 O608 1.261 . S
C607 O620 1.251 . S
O608 C607 1.261 . S
H609 C603 0.930 . S
H610 C605 0.930 . S
N611 Cu600 2.013 . S
N611 C613 1.294 1_455 S
N611 C614 1.399 . S
N612 C613 1.345 . S
N612 C615 1.336 . S
C613 N611 1.294 1_655 S
C613 N612 1.345 . S
C613 H618 0.930 . S
C614 N611 1.399 . S
C614 C615 1.346 1_455 S
C614 H619 0.930 . S
C615 N612 1.336 . S
C615 C614 1.346 1_655 S
C615 H622 0.929 . S
C616 O606 1.282 . S
C616 O617 1.216 . S
O617 C616 1.216 . S
H618 C613 0.930 . S
H619 C614 0.930 . S
O620 Cu600 1.959 1_655 S
O620 C607 1.251 . S
H621 C604 0.930 . S
H622 C615 0.929 . S
Cu623 N624 1.999 . S
Cu623 O629 1.974 . S
Cu623 N634 1.985 . S
Cu623 O643 1.959 . S
N624 Cu623 1.999 . S
N624 C626 1.263 . S
N624 C628 1.389 . S
N625 C626 1.358 . S
N625 C627 1.400 . S
C626 N624 1.263 . S
C626 N625 1.358 . S
C626 H632 0.930 . S
C627 N625 1.400 . S
C627 C628 1.351 . S
C627 H644 0.930 . S
C628 N624 1.389 . S
C628 C627 1.351 . S
C628 H633 0.930 . S
O629 Cu623 1.974 . S
O629 C639 1.282 . S
C630 O631 1.261 . S
C630 O643 1.251 . S
O631 C630 1.261 . S
H632 C626 0.930 . S
H633 C628 0.930 . S
N634 Cu623 1.985 . S
N634 C636 1.335 . S
N634 C637 1.390 . S
N635 C636 1.345 . S
N635 C638 1.336 . S
C636 N634 1.335 . S
C636 N635 1.345 . S
C636 H641 0.930 . S
C637 N634 1.390 . S
C637 C638 1.346 . S
C637 H642 0.930 . S
C638 N635 1.336 . S
C638 C637 1.346 . S
C638 H645 0.929 . S
C639 O629 1.282 . S
C639 O640 1.216 . S
O640 C639 1.216 . S
H641 C636 0.930 . S
H642 C637 0.930 . S
O643 Cu623 1.959 . S
O643 C630 1.251 . S
H644 C627 0.930 . S
H645 C638 0.929 . S
Cu646 N647 1.999 . S
Cu646 O652 1.991 . S
Cu646 N657 1.985 . S
Cu646 O666 1.959 . S
N647 Cu646 1.999 . S
N647 C649 1.263 1_455 S
N647 C651 1.389 . S
N648 C649 1.358 . S
N648 C650 1.400 . S
C649 N647 1.263 1_655 S
C649 N648 1.358 . S
C649 H655 0.930 . S
C650 N648 1.400 . S
C650 C651 1.351 1_655 S
C650 H667 0.930 . S
C651 N647 1.389 . S
C651 C650 1.351 1_455 S
C651 H656 0.930 . S
O652 Cu646 1.991 . S
O652 C662 1.273 1_455 S
C653 O654 1.261 . S
C653 O666 1.251 . S
O654 C653 1.261 . S
H655 C649 0.930 . S
H656 C651 0.930 . S
N657 Cu646 1.985 . S
N657 C659 1.335 . S
N657 C660 1.390 . S
N658 C659 1.345 . S
N658 C661 1.336 . S
C659 N657 1.335 . S
C659 N658 1.345 . S
C659 H664 0.930 . S
C660 N657 1.390 . S
C660 C661 1.346 . S
C660 H665 0.930 . S
C661 N658 1.336 . S
C661 C660 1.346 . S
C661 H668 0.929 . S
C662 O652 1.273 1_655 S
C662 O663 1.216 1_655 S
O663 C662 1.216 1_455 S
H664 C659 0.930 . S
H665 C660 0.930 . S
O666 Cu646 1.959 . S
O666 C653 1.251 . S
H667 C650 0.930 . S
H668 C661 0.929 . S
Cu669 N670 1.999 . S
Cu669 O675 1.974 . S
Cu669 N680 1.985 1_545 S
Cu669 O689 1.976 . S
N670 Cu669 1.999 . S
N670 C672 1.263 . S
N670 C674 1.389 . S
N671 C672 1.358 . S
N671 C673 1.400 . S
C672 N670 1.263 . S
C672 N671 1.358 . S
C672 H678 0.930 . S
C673 N671 1.400 . S
C673 C674 1.351 . S
C673 H690 0.930 . S
C674 N670 1.389 . S
C674 C673 1.351 . S
C674 H679 0.930 . S
O675 Cu669 1.974 . S
O675 C685 1.282 . S
C676 O677 1.286 . S
C676 O689 1.244 1_565 S
O677 C676 1.286 . S
H678 C672 0.930 . S
H679 C674 0.930 . S
N680 Cu669 1.985 1_565 S
N680 C682 1.335 . S
N680 C683 1.392 . S
N681 C682 1.345 . S
N681 C684 1.336 . S
C682 N680 1.335 . S
C682 N681 1.345 . S
C682 H687 0.930 . S
C683 N680 1.392 . S
C683 C684 1.353 . S
C683 H688 0.923 1_565 S
C684 N681 1.336 . S
C684 C683 1.353 . S
C684 H691 0.929 . S
C685 O675 1.282 . S
C685 O686 1.216 . S
O686 C685 1.216 . S
H687 C682 0.930 . S
H688 C683 0.923 1_545 S
O689 Cu669 1.976 . S
O689 C676 1.244 1_545 S
H690 C673 0.930 . S
H691 C684 0.929 . S
Cu692 N693 1.999 . S
Cu692 O698 1.974 . S
Cu692 N703 1.985 . S
Cu692 O712 1.959 . S
N693 Cu692 1.999 . S
N693 C695 1.263 . S
N693 C697 1.389 . S
N694 C695 1.358 . S
N694 C696 1.400 . S
C695 N693 1.263 . S
C695 N694 1.358 . S
C695 H701 0.930 . S
C696 N694 1.400 . S
C696 C697 1.351 . S
C696 H713 0.930 . S
C697 N693 1.389 . S
C697 C696 1.351 . S
C697 H702 0.930 . S
O698 Cu692 1.974 . S
O698 C708 1.282 . S
C699 O700 1.261 . S
C699 O712 1.251 . S
O700 C699 1.261 . S
H701 C695 0.930 . S
H702 C697 0.930 . S
N703 Cu692 1.985 . S
N703 C705 1.335 . S
N703 C706 1.390 . S
N704 C705 1.345 . S
N704 C707 1.336 . S
C705 N703 1.335 . S
C705 N704 1.345 . S
C705 H710 0.930 . S
C706 N703 1.390 . S
C706 C707 1.346 . S
C706 H711 0.930 . S
C707 N704 1.336 . S
C707 C706 1.346 . S
C707 H714 0.929 . S
C708 O698 1.282 . S
C708 O709 1.216 . S
O709 C708 1.216 . S
H710 C705 0.930 . S
H711 C706 0.930 . S
O712 Cu692 1.959 . S
O712 C699 1.251 . S
H713 C696 0.930 . S
H714 C707 0.929 . S
Cu715 N716 1.999 . S
Cu715 O721 1.974 . S
Cu715 N726 1.985 . S
Cu715 O735 1.959 . S
N716 Cu715 1.999 . S
N716 C718 1.263 . S
N716 C720 1.389 . S
N717 C718 1.358 . S
N717 C719 1.400 . S
C718 N716 1.263 . S
C718 N717 1.358 . S
C718 H724 0.930 . S
C719 N717 1.400 . S
C719 C720 1.351 . S
C719 H736 0.930 . S
C720 N716 1.389 . S
C720 C719 1.351 . S
C720 H725 0.930 . S
O721 Cu715 1.974 . S
O721 C731 1.282 . S
C722 O723 1.261 . S
C722 O735 1.251 . S
O723 C722 1.261 . S
H724 C718 0.930 . S
H725 C720 0.930 . S
N726 Cu715 1.985 . S
N726 C728 1.335 . S
N726 C729 1.390 . S
N727 C728 1.345 . S
N727 C730 1.336 . S
C728 N726 1.335 . S
C728 N727 1.345 . S
C728 H733 0.930 . S
C729 N726 1.390 . S
C729 C730 1.346 . S
C729 H734 0.930 . S
C730 N727 1.336 . S
C730 C729 1.346 . S
C730 H737 0.929 . S
C731 O721 1.282 . S
C731 O732 1.216 . S
O732 C731 1.216 . S
H733 C728 0.930 . S
H734 C729 0.930 . S
O735 Cu715 1.959 . S
O735 C722 1.251 . S
H736 C719 0.930 . S
H737 C730 0.929 . S
Cu738 N739 1.999 . S
Cu738 O744 1.974 . S
Cu738 N749 1.985 . S
Cu738 O758 1.959 . S
N739 Cu738 1.999 . S
N739 C741 1.263 . S
N739 C743 1.389 . S
N740 C741 1.358 . S
N740 C742 1.400 . S
C741 N739 1.263 . S
C741 N740 1.358 . S
C741 H747 0.930 . S
C742 N740 1.400 . S
C742 C743 1.351 . S
C742 H759 0.930 . S
C743 N739 1.389 . S
C743 C742 1.351 . S
C743 H748 0.930 . S
O744 Cu738 1.974 . S
O744 C754 1.282 . S
C745 O746 1.261 . S
C745 O758 1.251 . S
O746 C745 1.261 . S
H747 C741 0.930 . S
H748 C743 0.930 . S
N749 Cu738 1.985 . S
N749 C751 1.335 . S
N749 C752 1.390 . S
N750 C751 1.345 . S
N750 C753 1.336 . S
C751 N749 1.335 . S
C751 N750 1.345 . S
C751 H756 0.930 . S
C752 N749 1.390 . S
C752 C753 1.346 . S
C752 H757 0.930 . S
C753 N750 1.336 . S
C753 C752 1.346 . S
C753 H760 0.929 . S
C754 O744 1.282 . S
C754 O755 1.216 . S
O755 C754 1.216 . S
H756 C751 0.930 . S
H757 C752 0.930 . S
O758 Cu738 1.959 . S
O758 C745 1.251 . S
H759 C742 0.930 . S
H760 C753 0.929 . S
Cu761 N762 1.999 . S
Cu761 O767 1.974 . S
Cu761 N772 1.985 . S
Cu761 O781 1.959 . S
N762 Cu761 1.999 . S
N762 C764 1.263 . S
N762 C766 1.389 . S
N763 C764 1.358 . S
N763 C765 1.400 . S
C764 N762 1.263 . S
C764 N763 1.358 . S
C764 H770 0.930 . S
C765 N763 1.400 . S
C765 C766 1.351 . S
C765 H782 0.930 . S
C766 N762 1.389 . S
C766 C765 1.351 . S
C766 H771 0.930 . S
O767 Cu761 1.974 . S
O767 C777 1.282 . S
C768 O769 1.261 . S
C768 O781 1.251 . S
O769 C768 1.261 . S
H770 C764 0.930 . S
H771 C766 0.930 . S
N772 Cu761 1.985 . S
N772 C774 1.335 . S
N772 C775 1.390 . S
N773 C774 1.345 . S
N773 C776 1.336 . S
C774 N772 1.335 . S
C774 N773 1.345 . S
C774 H779 0.930 . S
C775 N772 1.390 . S
C775 C776 1.346 . S
C775 H780 0.930 . S
C776 N773 1.336 . S
C776 C775 1.346 . S
C776 H783 0.929 . S
C777 O767 1.282 . S
C777 O778 1.216 . S
O778 C777 1.216 . S
H779 C774 0.930 . S
H780 C775 0.930 . S
O781 Cu761 1.959 . S
O781 C768 1.251 . S
H782 C765 0.930 . S
H783 C776 0.929 . S
Cu784 N785 1.999 . S
Cu784 O790 1.974 . S
Cu784 N795 1.985 . S
Cu784 O804 1.959 . S
N785 Cu784 1.999 . S
N785 C787 1.263 . S
N785 C789 1.389 . S
N786 C787 1.358 . S
N786 C788 1.400 . S
C787 N785 1.263 . S
C787 N786 1.358 . S
C787 H793 0.930 . S
C788 N786 1.400 . S
C788 C789 1.351 . S
C788 H805 0.930 . S
C789 N785 1.389 . S
C789 C788 1.351 . S
C789 H794 0.930 . S
O790 Cu784 1.974 . S
O790 C800 1.282 . S
C791 O792 1.261 . S
C791 O804 1.251 . S
O792 C791 1.261 . S
H793 C787 0.930 . S
H794 C789 0.930 . S
N795 Cu784 1.985 . S
N795 C797 1.335 . S
N795 C798 1.390 . S
N796 C797 1.345 . S
N796 C799 1.336 . S
C797 N795 1.335 . S
C797 N796 1.345 . S
C797 H802 0.930 . S
C798 N795 1.390 . S
C798 C799 1.346 . S
C798 H803 0.930 . S
C799 N796 1.336 . S
C799 C798 1.346 . S
C799 H806 0.929 . S
C800 O790 1.282 . S
C800 O801 1.216 . S
O801 C800 1.216 . S
H802 C797 0.930 . S
H803 C798 0.930 . S
O804 Cu784 1.959 . S
O804 C791 1.251 . S
H805 C788 0.930 . S
H806 C799 0.929 . S
Cu807 N808 1.999 . S
Cu807 O813 1.974 . S
Cu807 N818 1.985 . S
Cu807 O827 1.959 . S
N808 Cu807 1.999 . S
N808 C810 1.263 . S
N808 C812 1.389 . S
N809 C810 1.358 . S
N809 C811 1.400 . S
C810 N808 1.263 . S
C810 N809 1.358 . S
C810 H816 0.930 . S
C811 N809 1.400 . S
C811 C812 1.351 . S
C811 H828 0.930 . S
C812 N808 1.389 . S
C812 C811 1.351 . S
C812 H817 0.930 . S
O813 Cu807 1.974 . S
O813 C823 1.282 . S
C814 O815 1.261 . S
C814 O827 1.251 . S
O815 C814 1.261 . S
H816 C810 0.930 . S
H817 C812 0.930 . S
N818 Cu807 1.985 . S
N818 C820 1.335 . S
N818 C821 1.390 . S
N819 C820 1.345 . S
N819 C822 1.336 . S
C820 N818 1.335 . S
C820 N819 1.345 . S
C820 H825 0.930 . S
C821 N818 1.390 . S
C821 C822 1.346 . S
C821 H826 0.930 . S
C822 N819 1.336 . S
C822 C821 1.346 . S
C822 H829 0.929 . S
C823 O813 1.282 . S
C823 O824 1.216 . S
O824 C823 1.216 . S
H825 C820 0.930 . S
H826 C821 0.930 . S
O827 Cu807 1.959 . S
O827 C814 1.251 . S
H828 C811 0.930 . S
H829 C822 0.929 . S
Cu830 N831 1.999 . S
Cu830 O836 1.974 . S
Cu830 N841 1.985 . S
Cu830 O850 1.959 . S
N831 Cu830 1.999 . S
N831 C833 1.263 . S
N831 C835 1.389 . S
N832 C833 1.358 . S
N832 C834 1.400 . S
C833 N831 1.263 . S
C833 N832 1.358 . S
C833 H839 0.930 . S
C834 N832 1.400 . S
C834 C835 1.351 . S
C834 H851 0.930 . S
C835 N831 1.389 . S
C835 C834 1.351 . S
C835 H840 0.930 . S
O836 Cu830 1.974 . S
O836 C846 1.282 . S
C837 O838 1.261 . S
C837 O850 1.251 . S
O838 C837 1.261 . S
H839 C833 0.930 . S
H840 C835 0.930 . S
N841 Cu830 1.985 . S
N841 C843 1.335 . S
N841 C844 1.390 . S
N842 C843 1.345 . S
N842 C845 1.336 . S
C843 N841 1.335 . S
C843 N842 1.345 . S
C843 H848 0.930 . S
C844 N841 1.390 . S
C844 C845 1.346 . S
C844 H849 0.930 . S
C845 N842 1.336 . S
C845 C844 1.346 . S
C845 H852 0.929 . S
C846 O836 1.282 . S
C846 O847 1.216 . S
O847 C846 1.216 . S
H848 C843 0.930 . S
H849 C844 0.930 . S
O850 Cu830 1.959 . S
O850 C837 1.251 . S
H851 C834 0.930 . S
H852 C845 0.929 . S
Cu853 N854 1.999 . S
Cu853 O859 1.974 . S
Cu853 N864 1.985 . S
Cu853 O873 1.959 . S
N854 Cu853 1.999 . S
N854 C856 1.263 . S
N854 C858 1.389 . S
N855 C856 1.358 . S
N855 C857 1.400 . S
C856 N854 1.263 . S
C856 N855 1.358 . S
C856 H862 0.930 . S
C857 N855 1.400 . S
C857 C858 1.351 . S
C857 H874 0.930 . S
C858 N854 1.389 . S
C858 C857 1.351 . S
C858 H863 0.930 . S
O859 Cu853 1.974 . S
O859 C869 1.282 . S
C860 O861 1.261 . S
C860 O873 1.251 . S
O861 C860 1.261 . S
H862 C856 0.930 . S
H863 C858 0.930 . S
N864 Cu853 1.985 . S
N864 C866 1.335 . S
N864 C867 1.390 . S
N865 C866 1.345 . S
N865 C868 1.336 . S
C866 N864 1.335 . S
C866 N865 1.345 . S
C866 H871 0.930 . S
C867 N864 1.390 . S
C867 C868 1.346 . S
C867 H872 0.930 . S
C868 N865 1.336 . S
C868 C867 1.346 . S
C868 H875 0.929 . S
C869 O859 1.282 . S
C869 O870 1.216 . S
O870 C869 1.216 . S
H871 C866 0.930 . S
H872 C867 0.930 . S
O873 Cu853 1.959 . S
O873 C860 1.251 . S
H874 C857 0.930 . S
H875 C868 0.929 . S
Cu876 N877 1.999 . S
Cu876 O882 1.974 . S
Cu876 N887 1.985 . S
Cu876 O896 1.959 . S
N877 Cu876 1.999 . S
N877 C879 1.263 . S
N877 C881 1.389 . S
N878 C879 1.358 . S
N878 C880 1.400 . S
C879 N877 1.263 . S
C879 N878 1.358 . S
C879 H885 0.930 . S
C880 N878 1.400 . S
C880 C881 1.351 . S
C880 H897 0.930 . S
C881 N877 1.389 . S
C881 C880 1.351 . S
C881 H886 0.930 . S
O882 Cu876 1.974 . S
O882 C892 1.282 . S
C883 O884 1.261 . S
C883 O896 1.251 . S
O884 C883 1.261 . S
H885 C879 0.930 . S
H886 C881 0.930 . S
N887 Cu876 1.985 . S
N887 C889 1.335 . S
N887 C890 1.390 . S
N888 C889 1.345 . S
N888 C891 1.336 . S
C889 N887 1.335 . S
C889 N888 1.345 . S
C889 H894 0.930 . S
C890 N887 1.390 . S
C890 C891 1.346 . S
C890 H895 0.930 . S
C891 N888 1.336 . S
C891 C890 1.346 . S
C891 H898 0.929 . S
C892 O882 1.282 . S
C892 O893 1.216 . S
O893 C892 1.216 . S
H894 C889 0.930 . S
H895 C890 0.930 . S
O896 Cu876 1.959 . S
O896 C883 1.251 . S
H897 C880 0.930 . S
H898 C891 0.929 . S
Cu899 N900 1.999 . S
Cu899 O905 1.974 . S
Cu899 N910 1.985 . S
Cu899 O919 1.959 . S
N900 Cu899 1.999 . S
N900 C902 1.263 . S
N900 C904 1.389 . S
N901 C902 1.358 . S
N901 C903 1.400 . S
C902 N900 1.263 . S
C902 N901 1.358 . S
C902 H908 0.930 . S
C903 N901 1.400 . S
C903 C904 1.351 . S
C903 H920 0.930 . S
C904 N900 1.389 . S
C904 C903 1.351 . S
C904 H909 0.930 . S
O905 Cu899 1.974 . S
O905 C915 1.282 . S
C906 O907 1.261 . S
C906 O919 1.251 . S
O907 C906 1.261 . S
H908 C902 0.930 . S
H909 C904 0.930 . S
N910 Cu899 1.985 . S
N910 C912 1.335 . S
N910 C913 1.390 . S
N911 C912 1.345 . S
N911 C914 1.336 . S
C912 N910 1.335 . S
C912 N911 1.345 . S
C912 H917 0.930 . S
C913 N910 1.390 . S
C913 C914 1.346 . S
C913 H918 0.930 . S
C914 N911 1.336 . S
C914 C913 1.346 . S
C914 H921 0.929 . S
C915 O905 1.282 . S
C915 O916 1.216 . S
O916 C915 1.216 . S
H917 C912 0.930 . S
H918 C913 0.930 . S
O919 Cu899 1.959 . S
O919 C906 1.251 . S
H920 C903 0.930 . S
H921 C914 0.929 . S
Cu922 N923 1.999 . S
Cu922 O928 1.974 . S
Cu922 N933 1.985 . S
Cu922 O942 1.959 . S
N923 Cu922 1.999 . S
N923 C925 1.263 . S
N923 C927 1.389 . S
N924 C925 1.358 . S
N924 C926 1.400 . S
C925 N923 1.263 . S
C925 N924 1.358 . S
C925 H931 0.930 . S
C926 N924 1.400 . S
C926 C927 1.351 . S
C926 H943 0.930 . S
C927 N923 1.389 . S
C927 C926 1.351 . S
C927 H932 0.930 . S
O928 Cu922 1.974 . S
O928 C938 1.282 . S
C929 O930 1.261 . S
C929 O942 1.251 . S
O930 C929 1.261 . S
H931 C925 0.930 . S
H932 C927 0.930 . S
N933 Cu922 1.985 . S
N933 C935 1.335 . S
N933 C936 1.390 . S
N934 C935 1.345 . S
N934 C937 1.336 . S
C935 N933 1.335 . S
C935 N934 1.345 . S
C935 H940 0.930 . S
C936 N933 1.390 . S
C936 C937 1.346 . S
C936 H941 0.930 . S
C937 N934 1.336 . S
C937 C936 1.346 . S
C937 H944 0.929 . S
C938 O928 1.282 . S
C938 O939 1.216 . S
O939 C938 1.216 . S
H940 C935 0.930 . S
H941 C936 0.930 . S
O942 Cu922 1.959 . S
O942 C929 1.251 . S
H943 C926 0.930 . S
H944 C937 0.929 . S
Cu945 N946 1.999 . S
Cu945 O951 1.974 . S
Cu945 N956 1.985 . S
Cu945 O965 1.959 . S
N946 Cu945 1.999 . S
N946 C948 1.263 . S
N946 C950 1.389 . S
N947 C948 1.358 . S
N947 C949 1.400 . S
C948 N946 1.263 . S
C948 N947 1.358 . S
C948 H954 0.930 . S
C949 N947 1.400 . S
C949 C950 1.351 . S
C949 H966 0.930 . S
C950 N946 1.389 . S
C950 C949 1.351 . S
C950 H955 0.930 . S
O951 Cu945 1.974 . S
O951 C961 1.282 . S
C952 O953 1.261 . S
C952 O965 1.251 . S
O953 C952 1.261 . S
H954 C948 0.930 . S
H955 C950 0.930 . S
N956 Cu945 1.985 . S
N956 C958 1.335 . S
N956 C959 1.390 . S
N957 C958 1.345 . S
N957 C960 1.336 . S
C958 N956 1.335 . S
C958 N957 1.345 . S
C958 H963 0.930 . S
C959 N956 1.390 . S
C959 C960 1.346 . S
C959 H964 0.930 . S
C960 N957 1.336 . S
C960 C959 1.346 . S
C960 H967 0.929 . S
C961 O951 1.282 . S
C961 O962 1.216 . S
O962 C961 1.216 . S
H963 C958 0.930 . S
H964 C959 0.930 . S
O965 Cu945 1.959 . S
O965 C952 1.251 . S
H966 C949 0.930 . S
H967 C960 0.929 . S
H968 C974 0.930 . S
H969 C978 0.930 . S
H970 C983 0.929 . S
H971 C981 0.929 . S
H972 C976 0.929 . S
H973 C982 0.929 . S
C974 H968 0.930 . S
C974 C975 1.367 . S
C974 C982 1.378 . S
C975 C974 1.367 . S
C975 C983 1.433 . S
C976 H972 0.929 . S
C976 C978 1.378 . S
C976 C980 1.350 . S
C977 C980 1.463 . S
C977 C982 1.350 . S
C977 N985 1.427 . S
C978 H969 0.930 . S
C978 C976 1.378 . S
C978 C979 1.367 . S
C979 C978 1.367 . S
C979 C981 1.433 . S
C980 C976 1.350 . S
C980 C977 1.463 . S
C980 N984 1.427 . S
C981 H971 0.929 . S
C981 C979 1.433 . S
C981 N984 1.384 . S
C982 H973 0.929 . S
C982 C974 1.378 . S
C982 C977 1.350 . S
C983 H970 0.929 . S
C983 C975 1.433 . S
C983 N985 1.384 . S
N984 C980 1.427 . S
N984 C981 1.384 . S
N985 C977 1.427 . S
N985 C983 1.384 . S
H986 C992 0.930 . S
H987 C996 0.930 . S
H988 C1001 0.929 . S
H989 C999 0.929 . S
H990 C994 0.929 . S
H991 C1000 0.929 . S
C992 H986 0.930 . S
C992 C993 1.367 . S
C992 C1000 1.378 . S
C993 C992 1.367 . S
C993 C1001 1.433 . S
C994 H990 0.929 . S
C994 C996 1.378 . S
C994 C998 1.350 . S
C995 C998 1.463 . S
C995 C1000 1.350 . S
C995 N1003 1.427 . S
C996 H987 0.930 . S
C996 C994 1.378 . S
C996 C997 1.367 . S
C997 C996 1.367 . S
C997 C999 1.433 . S
C998 C994 1.350 . S
C998 C995 1.463 . S
C998 N1002 1.427 . S
C999 H989 0.929 . S
C999 C997 1.433 . S
C999 N1002 1.384 . S
C1000 H991 0.929 . S
C1000 C992 1.378 . S
C1000 C995 1.350 . S
C1001 H988 0.929 . S
C1001 C993 1.433 . S
C1001 N1003 1.384 . S
N1002 C998 1.427 . S
N1002 C999 1.384 . S
N1003 C995 1.427 . S
N1003 C1001 1.384 . S
H1004 C1010 0.930 . S
H1005 C1014 0.930 . S
H1006 C1019 0.929 . S
H1007 C1017 0.929 . S
H1008 C1012 0.929 . S
H1009 C1018 0.929 . S
C1010 H1004 0.930 . S
C1010 C1011 1.367 . S
C1010 C1018 1.378 . S
C1011 C1010 1.367 . S
C1011 C1019 1.433 . S
C1012 H1008 0.929 . S
C1012 C1014 1.378 . S
C1012 C1016 1.350 . S
C1013 C1016 1.463 . S
C1013 C1018 1.350 . S
C1013 N1021 1.427 . S
C1014 H1005 0.930 . S
C1014 C1012 1.378 . S
C1014 C1015 1.367 . S
C1015 C1014 1.367 . S
C1015 C1017 1.433 . S
C1016 C1012 1.350 . S
C1016 C1013 1.463 . S
C1016 N1020 1.427 . S
C1017 H1007 0.929 . S
C1017 C1015 1.433 . S
C1017 N1020 1.384 . S
C1018 H1009 0.929 . S
C1018 C1010 1.378 . S
C1018 C1013 1.350 . S
C1019 H1006 0.929 . S
C1019 C1011 1.433 . S
C1019 N1021 1.384 . S
N1020 C1016 1.427 . S
N1020 C1017 1.384 . S
N1021 C1013 1.427 . S
N1021 C1019 1.384 . S
H1022 C1028 0.930 . S
H1023 C1032 0.930 . S
H1024 C1037 0.929 . S
H1025 C1035 0.929 . S
H1026 C1030 0.929 . S
H1027 C1036 0.929 . S
C1028 H1022 0.930 . S
C1028 C1029 1.367 . S
C1028 C1036 1.378 . S
C1029 C1028 1.367 . S
C1029 C1037 1.433 . S
C1030 H1026 0.929 . S
C1030 C1032 1.378 . S
C1030 C1034 1.350 . S
C1031 C1034 1.463 . S
C1031 C1036 1.350 . S
C1031 N1039 1.427 . S
C1032 H1023 0.930 . S
C1032 C1030 1.378 . S
C1032 C1033 1.367 . S
C1033 C1032 1.367 . S
C1033 C1035 1.433 . S
C1034 C1030 1.350 . S
C1034 C1031 1.463 . S
C1034 N1038 1.427 . S
C1035 H1025 0.929 . S
C1035 C1033 1.433 . S
C1035 N1038 1.384 . S
C1036 H1027 0.929 . S
C1036 C1028 1.378 . S
C1036 C1031 1.350 . S
C1037 H1024 0.929 . S
C1037 C1029 1.433 . S
C1037 N1039 1.384 . S
N1038 C1034 1.427 . S
N1038 C1035 1.384 . S
N1039 C1031 1.427 . S
N1039 C1037 1.384 . S
H1040 C1046 0.930 . S
H1041 C1050 0.930 . S
H1042 C1055 0.929 . S
H1043 C1053 0.929 . S
H1044 C1048 0.929 . S
H1045 C1054 0.929 . S
C1046 H1040 0.930 . S
C1046 C1047 1.367 . S
C1046 C1054 1.378 . S
C1047 C1046 1.367 . S
C1047 C1055 1.433 . S
C1048 H1044 0.929 . S
C1048 C1050 1.378 . S
C1048 C1052 1.350 . S
C1049 C1052 1.463 . S
C1049 C1054 1.350 . S
C1049 N1057 1.427 . S
C1050 H1041 0.930 . S
C1050 C1048 1.378 . S
C1050 C1051 1.367 . S
C1051 C1050 1.367 . S
C1051 C1053 1.433 . S
C1052 C1048 1.350 . S
C1052 C1049 1.463 . S
C1052 N1056 1.427 . S
C1053 H1043 0.929 . S
C1053 C1051 1.433 . S
C1053 N1056 1.384 . S
C1054 H1045 0.929 . S
C1054 C1046 1.378 . S
C1054 C1049 1.350 . S
C1055 H1042 0.929 . S
C1055 C1047 1.433 . S
C1055 N1057 1.384 . S
N1056 C1052 1.427 . S
N1056 C1053 1.384 . S
N1057 C1049 1.427 . S
N1057 C1055 1.384 . S
H1058 C1064 0.930 . S
H1059 C1068 0.930 . S
H1060 C1073 0.929 . S
H1061 C1071 0.929 1_554 S
H1062 C1066 0.929 . S
H1063 C1072 0.929 . S
C1064 H1058 0.930 . S
C1064 C1065 1.367 . S
C1064 C1072 1.378 . S
C1065 C1064 1.367 . S
C1065 C1073 1.433 . S
C1066 H1062 0.929 . S
C1066 C1068 1.378 . S
C1066 C1070 1.350 . S
C1067 C1070 1.463 . S
C1067 C1072 1.350 . S
C1067 N1075 1.427 . S
C1068 H1059 0.930 . S
C1068 C1066 1.378 . S
C1068 C1069 1.367 . S
C1069 C1068 1.367 . S
C1069 C1071 1.433 . S
C1070 C1066 1.350 . S
C1070 C1067 1.463 . S
C1070 N1074 1.427 . S
C1071 H1061 0.929 1_556 S
C1071 C1069 1.433 . S
C1071 N1074 1.384 . S
C1072 H1063 0.929 . S
C1072 C1064 1.378 . S
C1072 C1067 1.350 . S
C1073 H1060 0.929 . S
C1073 C1065 1.433 . S
C1073 N1075 1.384 . S
N1074 C1070 1.427 . S
N1074 C1071 1.384 . S
N1075 C1067 1.427 . S
N1075 C1073 1.384 . S
H1076 C1082 0.930 . S
H1077 C1086 0.930 . S
H1078 C1091 0.929 . S
H1079 C1089 0.929 . S
H1080 C1084 0.929 . S
H1081 C1090 0.929 . S
C1082 H1076 0.930 . S
C1082 C1083 1.367 . S
C1082 C1090 1.378 . S
C1083 C1082 1.367 . S
C1083 C1091 1.433 . S
C1084 H1080 0.929 . S
C1084 C1086 1.378 . S
C1084 C1088 1.350 . S
C1085 C1088 1.463 . S
C1085 C1090 1.350 . S
C1085 N1093 1.427 . S
C1086 H1077 0.930 . S
C1086 C1084 1.378 . S
C1086 C1087 1.367 . S
C1087 C1086 1.367 . S
C1087 C1089 1.433 . S
C1088 C1084 1.350 . S
C1088 C1085 1.463 . S
C1088 N1092 1.427 . S
C1089 H1079 0.929 . S
C1089 C1087 1.433 . S
C1089 N1092 1.384 . S
C1090 H1081 0.929 . S
C1090 C1082 1.378 . S
C1090 C1085 1.350 . S
C1091 H1078 0.929 . S
C1091 C1083 1.433 . S
C1091 N1093 1.384 . S
N1092 C1088 1.427 . S
N1092 C1089 1.384 . S
N1093 C1085 1.427 . S
N1093 C1091 1.384 . S
H1094 C1100 0.930 . S
H1095 C1104 0.930 . S
H1096 C1109 0.929 . S
H1097 C1107 0.929 . S
H1098 C1102 0.929 . S
H1099 C1108 0.929 . S
C1100 H1094 0.930 . S
C1100 C1101 1.367 . S
C1100 C1108 1.378 . S
C1101 C1100 1.367 . S
C1101 C1109 1.433 . S
C1102 H1098 0.929 . S
C1102 C1104 1.378 . S
C1102 C1106 1.350 . S
C1103 C1106 1.463 . S
C1103 C1108 1.350 . S
C1103 N1111 1.427 . S
C1104 H1095 0.930 . S
C1104 C1102 1.378 . S
C1104 C1105 1.367 . S
C1105 C1104 1.367 . S
C1105 C1107 1.433 . S
C1106 C1102 1.350 . S
C1106 C1103 1.463 . S
C1106 N1110 1.427 . S
C1107 H1097 0.929 . S
C1107 C1105 1.433 . S
C1107 N1110 1.384 . S
C1108 H1099 0.929 . S
C1108 C1100 1.378 . S
C1108 C1103 1.350 . S
C1109 H1096 0.929 . S
C1109 C1101 1.433 . S
C1109 N1111 1.384 . S
N1110 C1106 1.427 . S
N1110 C1107 1.384 . S
N1111 C1103 1.427 . S
N1111 C1109 1.384 . S
H1112 C1118 0.930 . S
H1113 C1122 0.930 . S
H1114 C1127 0.929 . S
H1115 C1125 0.929 . S
H1116 C1120 0.929 . S
H1117 C1126 0.929 . S
C1118 H1112 0.930 . S
C1118 C1119 1.367 . S
C1118 C1126 1.378 . S
C1119 C1118 1.367 . S
C1119 C1127 1.433 . S
C1120 H1116 0.929 . S
C1120 C1122 1.378 . S
C1120 C1124 1.350 . S
C1121 C1124 1.463 . S
C1121 C1126 1.350 . S
C1121 N1129 1.427 . S
C1122 H1113 0.930 . S
C1122 C1120 1.378 . S
C1122 C1123 1.367 . S
C1123 C1122 1.367 . S
C1123 C1125 1.433 . S
C1124 C1120 1.350 . S
C1124 C1121 1.463 . S
C1124 N1128 1.427 . S
C1125 H1115 0.929 . S
C1125 C1123 1.433 . S
C1125 N1128 1.384 . S
C1126 H1117 0.929 . S
C1126 C1118 1.378 . S
C1126 C1121 1.350 . S
C1127 H1114 0.929 . S
C1127 C1119 1.433 . S
C1127 N1129 1.384 . S
N1128 C1124 1.427 . S
N1128 C1125 1.384 . S
N1129 C1121 1.427 . S
N1129 C1127 1.384 . S
H1130 C1136 0.930 . S
H1131 C1140 0.930 . S
H1132 C1145 0.929 . S
H1133 C1143 0.929 . S
H1134 C1138 0.929 . S
H1135 C1144 0.929 . S
C1136 H1130 0.930 . S
C1136 C1137 1.367 . S
C1136 C1144 1.378 . S
C1137 C1136 1.367 . S
C1137 C1145 1.433 . S
C1138 H1134 0.929 . S
C1138 C1140 1.378 . S
C1138 C1142 1.350 . S
C1139 C1142 1.463 . S
C1139 C1144 1.350 . S
C1139 N1147 1.427 . S
C1140 H1131 0.930 . S
C1140 C1138 1.378 . S
C1140 C1141 1.367 . S
C1141 C1140 1.367 . S
C1141 C1143 1.433 . S
C1142 C1138 1.350 . S
C1142 C1139 1.463 . S
C1142 N1146 1.427 . S
C1143 H1133 0.929 . S
C1143 C1141 1.433 . S
C1143 N1146 1.384 . S
C1144 H1135 0.929 . S
C1144 C1136 1.378 . S
C1144 C1139 1.350 . S
C1145 H1132 0.929 . S
C1145 C1137 1.433 . S
C1145 N1147 1.384 . S
N1146 C1142 1.427 . S
N1146 C1143 1.384 . S
N1147 C1139 1.427 . S
N1147 C1145 1.384 . S
H1148 C1154 0.930 . S
H1149 C1158 0.930 . S
H1150 C1163 0.929 . S
H1151 C1161 0.929 . S
H1152 C1156 0.929 . S
H1153 C1162 0.929 . S
C1154 H1148 0.930 . S
C1154 C1155 1.367 . S
C1154 C1162 1.378 . S
C1155 C1154 1.367 . S
C1155 C1163 1.433 . S
C1156 H1152 0.929 . S
C1156 C1158 1.378 . S
C1156 C1160 1.350 . S
C1157 C1160 1.463 . S
C1157 C1162 1.350 . S
C1157 N1165 1.427 . S
C1158 H1149 0.930 . S
C1158 C1156 1.378 . S
C1158 C1159 1.367 . S
C1159 C1158 1.367 . S
C1159 C1161 1.433 . S
C1160 C1156 1.350 . S
C1160 C1157 1.463 . S
C1160 N1164 1.427 . S
C1161 H1151 0.929 . S
C1161 C1159 1.433 . S
C1161 N1164 1.384 . S
C1162 H1153 0.929 . S
C1162 C1154 1.378 . S
C1162 C1157 1.350 . S
C1163 H1150 0.929 . S
C1163 C1155 1.433 . S
C1163 N1165 1.384 . S
N1164 C1160 1.427 . S
N1164 C1161 1.384 . S
N1165 C1157 1.427 . S
N1165 C1163 1.384 . S
H1166 C1172 0.930 . S
H1167 C1176 0.930 . S
H1168 C1181 0.929 . S
H1169 C1179 0.929 . S
H1170 C1174 0.929 . S
H1171 C1180 0.929 . S
C1172 H1166 0.930 . S
C1172 C1173 1.367 . S
C1172 C1180 1.378 . S
C1173 C1172 1.367 . S
C1173 C1181 1.433 . S
C1174 H1170 0.929 . S
C1174 C1176 1.378 . S
C1174 C1178 1.350 . S
C1175 C1178 1.463 . S
C1175 C1180 1.350 . S
C1175 N1183 1.427 . S
C1176 H1167 0.930 . S
C1176 C1174 1.378 . S
C1176 C1177 1.367 . S
C1177 C1176 1.367 . S
C1177 C1179 1.433 . S
C1178 C1174 1.350 . S
C1178 C1175 1.463 . S
C1178 N1182 1.427 . S
C1179 H1169 0.929 . S
C1179 C1177 1.433 . S
C1179 N1182 1.384 . S
C1180 H1171 0.929 . S
C1180 C1172 1.378 . S
C1180 C1175 1.350 . S
C1181 H1168 0.929 . S
C1181 C1173 1.433 . S
C1181 N1183 1.384 . S
N1182 C1178 1.427 . S
N1182 C1179 1.384 . S
N1183 C1175 1.427 . S
N1183 C1181 1.384 . S
H1184 C1190 0.930 . S
H1185 C1194 0.930 . S
H1186 C1199 0.929 . S
H1187 C1197 0.929 . S
H1188 C1192 0.929 . S
H1189 C1198 0.929 . S
C1190 H1184 0.930 . S
C1190 C1191 1.367 . S
C1190 C1198 1.378 . S
C1191 C1190 1.367 . S
C1191 C1199 1.433 . S
C1192 H1188 0.929 . S
C1192 C1194 1.378 . S
C1192 C1196 1.350 . S
C1193 C1196 1.463 . S
C1193 C1198 1.350 . S
C1193 N1201 1.427 . S
C1194 H1185 0.930 . S
C1194 C1192 1.378 . S
C1194 C1195 1.367 . S
C1195 C1194 1.367 . S
C1195 C1197 1.433 . S
C1196 C1192 1.350 . S
C1196 C1193 1.463 . S
C1196 N1200 1.427 . S
C1197 H1187 0.929 . S
C1197 C1195 1.433 . S
C1197 N1200 1.384 . S
C1198 H1189 0.929 . S
C1198 C1190 1.378 . S
C1198 C1193 1.350 . S
C1199 H1186 0.929 . S
C1199 C1191 1.433 . S
C1199 N1201 1.384 . S
N1200 C1196 1.427 . S
N1200 C1197 1.384 . S
N1201 C1193 1.427 . S
N1201 C1199 1.384 . S
H1202 C1208 0.930 . S
H1203 C1212 0.930 . S
H1204 C1217 0.929 . S
H1205 C1215 0.929 . S
H1206 C1210 0.929 . S
H1207 C1216 0.929 . S
C1208 H1202 0.930 . S
C1208 C1209 1.367 . S
C1208 C1216 1.378 . S
C1209 C1208 1.367 . S
C1209 C1217 1.433 . S
C1210 H1206 0.929 . S
C1210 C1212 1.378 . S
C1210 C1214 1.350 . S
C1211 C1214 1.463 . S
C1211 C1216 1.350 . S
C1211 N1219 1.427 . S
C1212 H1203 0.930 . S
C1212 C1210 1.378 . S
C1212 C1213 1.367 . S
C1213 C1212 1.367 . S
C1213 C1215 1.433 . S
C1214 C1210 1.350 . S
C1214 C1211 1.463 . S
C1214 N1218 1.427 . S
C1215 H1205 0.929 . S
C1215 C1213 1.433 . S
C1215 N1218 1.384 . S
C1216 H1207 0.929 . S
C1216 C1208 1.378 . S
C1216 C1211 1.350 . S
C1217 H1204 0.929 . S
C1217 C1209 1.433 . S
C1217 N1219 1.384 . S
N1218 C1214 1.427 . S
N1218 C1215 1.384 . S
N1219 C1211 1.427 . S
N1219 C1217 1.384 . S
H1220 C1226 0.930 . S
H1221 C1230 0.930 . S
H1222 C1235 0.929 . S
H1223 C1233 0.929 . S
H1224 C1228 0.929 . S
H1225 C1234 0.929 . S
C1226 H1220 0.930 . S
C1226 C1227 1.367 . S
C1226 C1234 1.378 . S
C1227 C1226 1.367 . S
C1227 C1235 1.433 . S
C1228 H1224 0.929 . S
C1228 C1230 1.378 . S
C1228 C1232 1.350 . S
C1229 C1232 1.463 . S
C1229 C1234 1.350 . S
C1229 N1237 1.427 . S
C1230 H1221 0.930 . S
C1230 C1228 1.378 . S
C1230 C1231 1.367 . S
C1231 C1230 1.367 . S
C1231 C1233 1.433 . S
C1232 C1228 1.350 . S
C1232 C1229 1.463 . S
C1232 N1236 1.427 . S
C1233 H1223 0.929 . S
C1233 C1231 1.433 . S
C1233 N1236 1.384 . S
C1234 H1225 0.929 . S
C1234 C1226 1.378 . S
C1234 C1229 1.350 . S
C1235 H1222 0.929 . S
C1235 C1227 1.433 . S
C1235 N1237 1.384 . S
N1236 C1232 1.427 . S
N1236 C1233 1.384 . S
N1237 C1229 1.427 . S
N1237 C1235 1.384 . S
H1238 C1244 0.930 . S
H1239 C1248 0.930 . S
H1240 C1253 0.929 . S
H1241 C1251 0.929 . S
H1242 C1246 0.929 . S
H1243 C1252 0.929 . S
C1244 H1238 0.930 . S
C1244 C1245 1.367 . S
C1244 C1252 1.378 . S
C1245 C1244 1.367 . S
C1245 C1253 1.433 . S
C1246 H1242 0.929 . S
C1246 C1248 1.378 . S
C1246 C1250 1.350 . S
C1247 C1250 1.463 . S
C1247 C1252 1.350 . S
C1247 N1255 1.427 . S
C1248 H1239 0.930 . S
C1248 C1246 1.378 . S
C1248 C1249 1.367 . S
C1249 C1248 1.367 . S
C1249 C1251 1.433 . S
C1250 C1246 1.350 . S
C1250 C1247 1.463 . S
C1250 N1254 1.427 . S
C1251 H1241 0.929 . S
C1251 C1249 1.433 . S
C1251 N1254 1.384 . S
C1252 H1243 0.929 . S
C1252 C1244 1.378 . S
C1252 C1247 1.350 . S
C1253 H1240 0.929 . S
C1253 C1245 1.433 . S
C1253 N1255 1.384 . S
N1254 C1250 1.427 . S
N1254 C1251 1.384 . S
N1255 C1247 1.427 . S
N1255 C1253 1.384 . S
H1256 C1262 0.930 . S
H1257 C1266 0.930 . S
H1258 C1271 0.929 . S
H1259 C1269 0.929 . S
H1260 C1264 0.929 . S
H1261 C1270 0.929 . S
C1262 H1256 0.930 . S
C1262 C1263 1.367 . S
C1262 C1270 1.378 . S
C1263 C1262 1.367 . S
C1263 C1271 1.433 . S
C1264 H1260 0.929 . S
C1264 C1266 1.378 . S
C1264 C1268 1.350 . S
C1265 C1268 1.463 . S
C1265 C1270 1.350 . S
C1265 N1273 1.427 . S
C1266 H1257 0.930 . S
C1266 C1264 1.378 . S
C1266 C1267 1.367 . S
C1267 C1266 1.367 . S
C1267 C1269 1.433 . S
C1268 C1264 1.350 . S
C1268 C1265 1.463 . S
C1268 N1272 1.427 . S
C1269 H1259 0.929 . S
C1269 C1267 1.433 . S
C1269 N1272 1.384 . S
C1270 H1261 0.929 . S
C1270 C1262 1.378 . S
C1270 C1265 1.350 . S
C1271 H1258 0.929 . S
C1271 C1263 1.433 . S
C1271 N1273 1.384 . S
N1272 C1268 1.427 . S
N1272 C1269 1.384 . S
N1273 C1265 1.427 . S
N1273 C1271 1.384 . S
H1274 C1280 0.930 . S
H1275 C1284 0.930 . S
H1276 C1289 0.929 . S
H1277 C1287 0.929 . S
H1278 C1282 0.929 . S
H1279 C1288 0.929 . S
C1280 H1274 0.930 . S
C1280 C1281 1.367 . S
C1280 C1288 1.378 . S
C1281 C1280 1.367 . S
C1281 C1289 1.433 . S
C1282 H1278 0.929 . S
C1282 C1284 1.378 . S
C1282 C1286 1.350 . S
C1283 C1286 1.463 . S
C1283 C1288 1.350 . S
C1283 N1291 1.427 . S
C1284 H1275 0.930 . S
C1284 C1282 1.378 . S
C1284 C1285 1.367 . S
C1285 C1284 1.367 . S
C1285 C1287 1.433 . S
C1286 C1282 1.350 . S
C1286 C1283 1.463 . S
C1286 N1290 1.427 . S
C1287 H1277 0.929 . S
C1287 C1285 1.433 . S
C1287 N1290 1.384 . S
C1288 H1279 0.929 . S
C1288 C1280 1.378 . S
C1288 C1283 1.350 . S
C1289 H1276 0.929 . S
C1289 C1281 1.433 . S
C1289 N1291 1.384 . S
N1290 C1286 1.427 . S
N1290 C1287 1.384 . S
N1291 C1283 1.427 . S
N1291 C1289 1.384 . S
H1292 C1298 0.930 . S
H1293 C1302 0.930 . S
H1294 C1307 0.929 . S
H1295 C1305 0.929 . S
H1296 C1300 0.929 . S
H1297 C1306 0.929 . S
C1298 H1292 0.930 . S
C1298 C1299 1.367 . S
C1298 C1306 1.378 . S
C1299 C1298 1.367 . S
C1299 C1307 1.433 . S
C1300 H1296 0.929 . S
C1300 C1302 1.378 . S
C1300 C1304 1.350 . S
C1301 C1304 1.463 . S
C1301 C1306 1.350 . S
C1301 N1309 1.427 . S
C1302 H1293 0.930 . S
C1302 C1300 1.378 . S
C1302 C1303 1.367 . S
C1303 C1302 1.367 . S
C1303 C1305 1.433 . S
C1304 C1300 1.350 . S
C1304 C1301 1.463 . S
C1304 N1308 1.427 . S
C1305 H1295 0.929 . S
C1305 C1303 1.433 . S
C1305 N1308 1.384 . S
C1306 H1297 0.929 . S
C1306 C1298 1.378 . S
C1306 C1301 1.350 . S
C1307 H1294 0.929 . S
C1307 C1299 1.433 . S
C1307 N1309 1.384 . S
N1308 C1304 1.427 . S
N1308 C1305 1.384 . S
N1309 C1301 1.427 . S
N1309 C1307 1.384 . S
H1310 C1316 0.930 . S
H1311 C1320 0.930 . S
H1312 C1325 0.929 . S
H1313 C1323 0.929 . S
H1314 C1318 0.929 . S
H1315 C1324 0.929 . S
C1316 H1310 0.930 . S
C1316 C1317 1.367 . S
C1316 C1324 1.378 . S
C1317 C1316 1.367 . S
C1317 C1325 1.433 . S
C1318 H1314 0.929 . S
C1318 C1320 1.378 . S
C1318 C1322 1.350 . S
C1319 C1322 1.463 . S
C1319 C1324 1.350 . S
C1319 N1327 1.427 . S
C1320 H1311 0.930 . S
C1320 C1318 1.378 . S
C1320 C1321 1.367 . S
C1321 C1320 1.367 . S
C1321 C1323 1.433 . S
C1322 C1318 1.350 . S
C1322 C1319 1.463 . S
C1322 N1326 1.427 . S
C1323 H1313 0.929 . S
C1323 C1321 1.433 . S
C1323 N1326 1.384 . S
C1324 H1315 0.929 . S
C1324 C1316 1.378 . S
C1324 C1319 1.350 . S
C1325 H1312 0.929 . S
C1325 C1317 1.433 . S
C1325 N1327 1.384 . S
N1326 C1322 1.427 . S
N1326 C1323 1.384 . S
N1327 C1319 1.427 . S
N1327 C1325 1.384 . S
H1328 C1334 0.930 . S
H1329 C1338 0.930 . S
H1330 C1343 0.929 . S
H1331 C1341 0.929 . S
H1332 C1336 0.929 . S
H1333 C1342 0.929 . S
C1334 H1328 0.930 . S
C1334 C1335 1.367 . S
C1334 C1342 1.378 . S
C1335 C1334 1.367 . S
C1335 C1343 1.433 . S
C1336 H1332 0.929 . S
C1336 C1338 1.378 . S
C1336 C1340 1.350 . S
C1337 C1340 1.463 . S
C1337 C1342 1.350 . S
C1337 N1345 1.427 . S
C1338 H1329 0.930 . S
C1338 C1336 1.378 . S
C1338 C1339 1.367 . S
C1339 C1338 1.367 . S
C1339 C1341 1.433 . S
C1340 C1336 1.350 . S
C1340 C1337 1.463 . S
C1340 N1344 1.427 . S
C1341 H1331 0.929 . S
C1341 C1339 1.433 . S
C1341 N1344 1.384 . S
C1342 H1333 0.929 . S
C1342 C1334 1.378 . S
C1342 C1337 1.350 . S
C1343 H1330 0.929 . S
C1343 C1335 1.433 . S
C1343 N1345 1.384 . S
N1344 C1340 1.427 . S
N1344 C1341 1.384 . S
N1345 C1337 1.427 . S
N1345 C1343 1.384 . S
H1346 C1352 0.930 . S
H1347 C1356 0.930 . S
H1348 C1361 0.929 . S
H1349 C1359 0.933 1_545 S
H1350 C1354 0.929 . S
H1351 C1360 0.929 . S
C1352 H1346 0.930 . S
C1352 C1353 1.367 . S
C1352 C1360 1.378 . S
C1353 C1352 1.367 . S
C1353 C1361 1.433 . S
C1354 H1350 0.929 . S
C1354 C1356 1.378 . S
C1354 C1358 1.350 . S
C1355 C1358 1.463 . S
C1355 C1360 1.350 . S
C1355 N1363 1.427 . S
C1356 H1347 0.930 . S
C1356 C1354 1.378 . S
C1356 C1357 1.367 . S
C1357 C1356 1.367 . S
C1357 C1359 1.432 . S
C1358 C1354 1.350 . S
C1358 C1355 1.463 . S
C1358 N1362 1.427 . S
C1359 H1349 0.933 1_565 S
C1359 C1357 1.432 . S
C1359 N1362 1.380 . S
C1360 H1351 0.929 . S
C1360 C1352 1.378 . S
C1360 C1355 1.350 . S
C1361 H1348 0.929 . S
C1361 C1353 1.433 . S
C1361 N1363 1.384 . S
N1362 C1358 1.427 . S
N1362 C1359 1.380 . S
N1363 C1355 1.427 . S
N1363 C1361 1.384 . S
H1364 C1370 0.930 . S
H1365 C1374 0.930 . S
H1366 C1379 0.929 . S
H1367 C1377 0.929 . S
H1368 C1372 0.929 . S
H1369 C1378 0.929 . S
C1370 H1364 0.930 . S
C1370 C1371 1.367 . S
C1370 C1378 1.378 . S
C1371 C1370 1.367 . S
C1371 C1379 1.433 . S
C1372 H1368 0.929 . S
C1372 C1374 1.378 . S
C1372 C1376 1.350 . S
C1373 C1376 1.463 . S
C1373 C1378 1.350 . S
C1373 N1381 1.427 . S
C1374 H1365 0.930 . S
C1374 C1372 1.378 . S
C1374 C1375 1.367 . S
C1375 C1374 1.367 . S
C1375 C1377 1.433 . S
C1376 C1372 1.350 . S
C1376 C1373 1.463 . S
C1376 N1380 1.427 . S
C1377 H1367 0.929 . S
C1377 C1375 1.433 . S
C1377 N1380 1.384 . S
C1378 H1369 0.929 . S
C1378 C1370 1.378 . S
C1378 C1373 1.350 . S
C1379 H1366 0.929 . S
C1379 C1371 1.433 . S
C1379 N1381 1.384 . S
N1380 C1376 1.427 . S
N1380 C1377 1.384 . S
N1381 C1373 1.427 . S
N1381 C1379 1.384 . S
H1382 C1388 0.930 . S
H1383 C1392 0.930 . S
H1384 C1397 0.929 . S
H1385 C1395 0.929 . S
H1386 C1390 0.929 . S
H1387 C1396 0.929 . S
C1388 H1382 0.930 . S
C1388 C1389 1.367 . S
C1388 C1396 1.378 . S
C1389 C1388 1.367 . S
C1389 C1397 1.433 . S
C1390 H1386 0.929 . S
C1390 C1392 1.378 . S
C1390 C1394 1.350 . S
C1391 C1394 1.463 . S
C1391 C1396 1.350 . S
C1391 N1399 1.427 . S
C1392 H1383 0.930 . S
C1392 C1390 1.378 . S
C1392 C1393 1.367 . S
C1393 C1392 1.367 . S
C1393 C1395 1.433 . S
C1394 C1390 1.350 . S
C1394 C1391 1.463 . S
C1394 N1398 1.427 . S
C1395 H1385 0.929 . S
C1395 C1393 1.433 . S
C1395 N1398 1.384 . S
C1396 H1387 0.929 . S
C1396 C1388 1.378 . S
C1396 C1391 1.350 . S
C1397 H1384 0.929 . S
C1397 C1389 1.433 . S
C1397 N1399 1.384 . S
N1398 C1394 1.427 . S
N1398 C1395 1.384 . S
N1399 C1391 1.427 . S
N1399 C1397 1.384 . S
H1400 C1406 0.930 . S
H1401 C1410 0.930 . S
H1402 C1415 0.929 . S
H1403 C1413 0.929 . S
H1404 C1408 0.929 . S
H1405 C1414 0.929 . S
C1406 H1400 0.930 . S
C1406 C1407 1.367 . S
C1406 C1414 1.378 . S
C1407 C1406 1.367 . S
C1407 C1415 1.433 . S
C1408 H1404 0.929 . S
C1408 C1410 1.378 . S
C1408 C1412 1.350 . S
C1409 C1412 1.463 . S
C1409 C1414 1.350 . S
C1409 N1417 1.427 . S
C1410 H1401 0.930 . S
C1410 C1408 1.378 . S
C1410 C1411 1.367 . S
C1411 C1410 1.367 . S
C1411 C1413 1.433 . S
C1412 C1408 1.350 . S
C1412 C1409 1.463 . S
C1412 N1416 1.427 . S
C1413 H1403 0.929 . S
C1413 C1411 1.433 . S
C1413 N1416 1.384 . S
C1414 H1405 0.929 . S
C1414 C1406 1.378 . S
C1414 C1409 1.350 . S
C1415 H1402 0.929 . S
C1415 C1407 1.433 . S
C1415 N1417 1.384 . S
N1416 C1412 1.427 . S
N1416 C1413 1.384 . S
N1417 C1409 1.427 . S
N1417 C1415 1.384 . S
H1418 C1424 0.930 . S
H1419 C1428 0.930 . S
H1420 C1433 0.929 . S
H1421 C1431 0.929 . S
H1422 C1426 0.929 . S
H1423 C1432 0.929 . S
C1424 H1418 0.930 . S
C1424 C1425 1.367 . S
C1424 C1432 1.378 . S
C1425 C1424 1.367 . S
C1425 C1433 1.433 . S
C1426 H1422 0.929 . S
C1426 C1428 1.378 . S
C1426 C1430 1.350 . S
C1427 C1430 1.463 . S
C1427 C1432 1.350 . S
C1427 N1435 1.427 . S
C1428 H1419 0.930 . S
C1428 C1426 1.378 . S
C1428 C1429 1.367 . S
C1429 C1428 1.367 . S
C1429 C1431 1.433 . S
C1430 C1426 1.350 . S
C1430 C1427 1.463 . S
C1430 N1434 1.427 . S
C1431 H1421 0.929 . S
C1431 C1429 1.433 . S
C1431 N1434 1.384 . S
C1432 H1423 0.929 . S
C1432 C1424 1.378 . S
C1432 C1427 1.350 . S
C1433 H1420 0.929 . S
C1433 C1425 1.433 . S
C1433 N1435 1.384 . S
N1434 C1430 1.427 . S
N1434 C1431 1.384 . S
N1435 C1427 1.427 . S
N1435 C1433 1.384 . S
H1436 C1442 0.930 . S
H1437 C1446 0.930 . S
H1438 C1451 0.929 . S
H1439 C1449 0.929 . S
H1440 C1444 0.929 . S
H1441 C1450 0.929 . S
C1442 H1436 0.930 . S
C1442 C1443 1.367 . S
C1442 C1450 1.378 . S
C1443 C1442 1.367 . S
C1443 C1451 1.433 . S
C1444 H1440 0.929 . S
C1444 C1446 1.378 . S
C1444 C1448 1.350 . S
C1445 C1448 1.463 . S
C1445 C1450 1.350 . S
C1445 N1453 1.427 . S
C1446 H1437 0.930 . S
C1446 C1444 1.378 . S
C1446 C1447 1.367 . S
C1447 C1446 1.367 . S
C1447 C1449 1.433 . S
C1448 C1444 1.350 . S
C1448 C1445 1.463 . S
C1448 N1452 1.427 . S
C1449 H1439 0.929 . S
C1449 C1447 1.433 . S
C1449 N1452 1.384 . S
C1450 H1441 0.929 . S
C1450 C1442 1.378 . S
C1450 C1445 1.350 . S
C1451 H1438 0.929 . S
C1451 C1443 1.433 . S
C1451 N1453 1.384 . S
N1452 C1448 1.427 . S
N1452 C1449 1.384 . S
N1453 C1445 1.427 . S
N1453 C1451 1.384 . S
H1454 C1460 0.930 . S
H1455 C1464 0.930 . S
H1456 C1469 0.929 . S
H1457 C1467 0.929 . S
H1458 C1462 0.929 . S
H1459 C1468 0.929 . S
C1460 H1454 0.930 . S
C1460 C1461 1.367 . S
C1460 C1468 1.378 . S
C1461 C1460 1.367 . S
C1461 C1469 1.433 . S
C1462 H1458 0.929 . S
C1462 C1464 1.378 . S
C1462 C1466 1.350 . S
C1463 C1466 1.463 . S
C1463 C1468 1.350 . S
C1463 N1471 1.427 . S
C1464 H1455 0.930 . S
C1464 C1462 1.378 . S
C1464 C1465 1.367 . S
C1465 C1464 1.367 . S
C1465 C1467 1.433 . S
C1466 C1462 1.350 . S
C1466 C1463 1.463 . S
C1466 N1470 1.427 . S
C1467 H1457 0.929 . S
C1467 C1465 1.433 . S
C1467 N1470 1.384 . S
C1468 H1459 0.929 . S
C1468 C1460 1.378 . S
C1468 C1463 1.350 . S
C1469 H1456 0.929 . S
C1469 C1461 1.433 . S
C1469 N1471 1.384 . S
N1470 C1466 1.427 . S
N1470 C1467 1.384 . S
N1471 C1463 1.427 . S
N1471 C1469 1.384 . S
H1472 C1478 0.930 . S
H1473 C1482 0.930 . S
H1474 C1487 0.929 . S
H1475 C1485 0.929 . S
H1476 C1480 0.929 . S
H1477 C1486 0.929 . S
C1478 H1472 0.930 . S
C1478 C1479 1.367 . S
C1478 C1486 1.378 . S
C1479 C1478 1.367 . S
C1479 C1487 1.433 . S
C1480 H1476 0.929 . S
C1480 C1482 1.378 . S
C1480 C1484 1.350 . S
C1481 C1484 1.463 . S
C1481 C1486 1.350 . S
C1481 N1489 1.427 . S
C1482 H1473 0.930 . S
C1482 C1480 1.378 . S
C1482 C1483 1.367 . S
C1483 C1482 1.367 . S
C1483 C1485 1.433 . S
C1484 C1480 1.350 . S
C1484 C1481 1.463 . S
C1484 N1488 1.427 . S
C1485 H1475 0.929 . S
C1485 C1483 1.433 . S
C1485 N1488 1.384 . S
C1486 H1477 0.929 . S
C1486 C1478 1.378 . S
C1486 C1481 1.350 . S
C1487 H1474 0.929 . S
C1487 C1479 1.433 . S
C1487 N1489 1.384 . S
N1488 C1484 1.427 . S
N1488 C1485 1.384 . S
N1489 C1481 1.427 . S
N1489 C1487 1.384 . S
H1490 C1496 0.930 . S
H1491 C1500 0.930 . S
H1492 C1505 0.929 . S
H1493 C1503 0.929 . S
H1494 C1498 0.929 . S
H1495 C1504 0.929 . S
C1496 H1490 0.930 . S
C1496 C1497 1.367 . S
C1496 C1504 1.378 . S
C1497 C1496 1.367 . S
C1497 C1505 1.433 . S
C1498 H1494 0.929 . S
C1498 C1500 1.378 . S
C1498 C1502 1.350 . S
C1499 C1502 1.463 . S
C1499 C1504 1.350 . S
C1499 N1507 1.427 . S
C1500 H1491 0.930 . S
C1500 C1498 1.378 . S
C1500 C1501 1.367 . S
C1501 C1500 1.367 . S
C1501 C1503 1.433 . S
C1502 C1498 1.350 . S
C1502 C1499 1.463 . S
C1502 N1506 1.427 . S
C1503 H1493 0.929 . S
C1503 C1501 1.433 . S
C1503 N1506 1.384 . S
C1504 H1495 0.929 . S
C1504 C1496 1.378 . S
C1504 C1499 1.350 . S
C1505 H1492 0.929 . S
C1505 C1497 1.433 . S
C1505 N1507 1.384 . S
N1506 C1502 1.427 . S
N1506 C1503 1.384 . S
N1507 C1499 1.427 . S
N1507 C1505 1.384 . S
H1508 C1514 0.930 . S
H1509 C1518 0.930 . S
H1510 C1523 0.929 . S
H1511 C1521 0.929 . S
H1512 C1516 0.929 . S
H1513 C1522 0.929 . S
C1514 H1508 0.930 . S
C1514 C1515 1.367 . S
C1514 C1522 1.378 . S
C1515 C1514 1.367 . S
C1515 C1523 1.433 . S
C1516 H1512 0.929 . S
C1516 C1518 1.378 . S
C1516 C1520 1.350 . S
C1517 C1520 1.463 . S
C1517 C1522 1.350 . S
C1517 N1525 1.427 . S
C1518 H1509 0.930 . S
C1518 C1516 1.378 . S
C1518 C1519 1.367 . S
C1519 C1518 1.367 . S
C1519 C1521 1.433 . S
C1520 C1516 1.350 . S
C1520 C1517 1.463 . S
C1520 N1524 1.427 . S
C1521 H1511 0.929 . S
C1521 C1519 1.433 . S
C1521 N1524 1.384 . S
C1522 H1513 0.929 . S
C1522 C1514 1.378 . S
C1522 C1517 1.350 . S
C1523 H1510 0.929 . S
C1523 C1515 1.433 . S
C1523 N1525 1.384 . S
N1524 C1520 1.427 . S
N1524 C1521 1.384 . S
N1525 C1517 1.427 . S
N1525 C1523 1.384 . S
H1526 C1532 0.930 . S
H1527 C1536 0.930 . S
H1528 C1541 0.929 . S
H1529 C1539 0.929 . S
H1530 C1534 0.929 . S
H1531 C1540 0.929 . S
C1532 H1526 0.930 . S
C1532 C1533 1.367 . S
C1532 C1540 1.378 . S
C1533 C1532 1.367 . S
C1533 C1541 1.433 . S
C1534 H1530 0.929 . S
C1534 C1536 1.378 . S
C1534 C1538 1.350 . S
C1535 C1538 1.463 . S
C1535 C1540 1.350 . S
C1535 N1543 1.427 . S
C1536 H1527 0.930 . S
C1536 C1534 1.378 . S
C1536 C1537 1.367 . S
C1537 C1536 1.367 . S
C1537 C1539 1.433 . S
C1538 C1534 1.350 . S
C1538 C1535 1.463 . S
C1538 N1542 1.427 . S
C1539 H1529 0.929 . S
C1539 C1537 1.433 . S
C1539 N1542 1.384 . S
C1540 H1531 0.929 . S
C1540 C1532 1.378 . S
C1540 C1535 1.350 . S
C1541 H1528 0.929 . S
C1541 C1533 1.433 . S
C1541 N1543 1.384 . S
N1542 C1538 1.427 . S
N1542 C1539 1.384 . S
N1543 C1535 1.427 . S
N1543 C1541 1.384 . S
H1544 C1550 0.930 . S
H1545 C1554 0.930 . S
H1546 C1559 0.929 . S
H1547 C1557 0.929 . S
H1548 C1552 0.929 . S
H1549 C1558 0.929 . S
C1550 H1544 0.930 . S
C1550 C1551 1.367 . S
C1550 C1558 1.378 . S
C1551 C1550 1.367 . S
C1551 C1559 1.433 . S
C1552 H1548 0.929 . S
C1552 C1554 1.378 . S
C1552 C1556 1.350 . S
C1553 C1556 1.463 . S
C1553 C1558 1.350 . S
C1553 N1561 1.427 . S
C1554 H1545 0.930 . S
C1554 C1552 1.378 . S
C1554 C1555 1.367 . S
C1555 C1554 1.367 . S
C1555 C1557 1.433 . S
C1556 C1552 1.350 . S
C1556 C1553 1.463 . S
C1556 N1560 1.427 . S
C1557 H1547 0.929 . S
C1557 C1555 1.433 . S
C1557 N1560 1.384 . S
C1558 H1549 0.929 . S
C1558 C1550 1.378 . S
C1558 C1553 1.350 . S
C1559 H1546 0.929 . S
C1559 C1551 1.433 . S
C1559 N1561 1.384 . S
N1560 C1556 1.427 . S
N1560 C1557 1.384 . S
N1561 C1553 1.427 . S
N1561 C1559 1.384 . S
H1562 C1568 0.930 . S
H1563 C1572 0.930 . S
H1564 C1577 0.929 . S
H1565 C1575 0.929 . S
H1566 C1570 0.929 . S
H1567 C1576 0.929 . S
C1568 H1562 0.930 . S
C1568 C1569 1.367 . S
C1568 C1576 1.378 . S
C1569 C1568 1.367 . S
C1569 C1577 1.433 . S
C1570 H1566 0.929 . S
C1570 C1572 1.378 . S
C1570 C1574 1.350 . S
C1571 C1574 1.463 . S
C1571 C1576 1.350 . S
C1571 N1579 1.427 . S
C1572 H1563 0.930 . S
C1572 C1570 1.378 . S
C1572 C1573 1.367 . S
C1573 C1572 1.367 . S
C1573 C1575 1.433 . S
C1574 C1570 1.350 . S
C1574 C1571 1.463 . S
C1574 N1578 1.427 . S
C1575 H1565 0.929 . S
C1575 C1573 1.433 . S
C1575 N1578 1.384 . S
C1576 H1567 0.929 . S
C1576 C1568 1.378 . S
C1576 C1571 1.350 . S
C1577 H1564 0.929 . S
C1577 C1569 1.433 . S
C1577 N1579 1.384 . S
N1578 C1574 1.427 . S
N1578 C1575 1.384 . S
N1579 C1571 1.427 . S
N1579 C1577 1.384 . S
H1580 C1586 0.930 . S
H1581 C1590 0.930 . S
H1582 C1595 0.929 . S
H1583 C1593 0.929 . S
H1584 C1588 0.929 . S
H1585 C1594 0.929 . S
C1586 H1580 0.930 . S
C1586 C1587 1.367 . S
C1586 C1594 1.378 . S
C1587 C1586 1.367 . S
C1587 C1595 1.433 . S
C1588 H1584 0.929 . S
C1588 C1590 1.378 . S
C1588 C1592 1.350 . S
C1589 C1592 1.463 . S
C1589 C1594 1.350 . S
C1589 N1597 1.427 . S
C1590 H1581 0.930 . S
C1590 C1588 1.378 . S
C1590 C1591 1.367 . S
C1591 C1590 1.367 . S
C1591 C1593 1.433 . S
C1592 C1588 1.350 . S
C1592 C1589 1.463 . S
C1592 N1596 1.427 . S
C1593 H1583 0.929 . S
C1593 C1591 1.433 . S
C1593 N1596 1.384 . S
C1594 H1585 0.929 . S
C1594 C1586 1.378 . S
C1594 C1589 1.350 . S
C1595 H1582 0.929 . S
C1595 C1587 1.433 . S
C1595 N1597 1.384 . S
N1596 C1592 1.427 . S
N1596 C1593 1.384 . S
N1597 C1589 1.427 . S
N1597 C1595 1.384 . S
H1598 C1604 0.930 . S
H1599 C1608 0.930 . S
H1600 C1613 0.929 . S
H1601 C1611 0.929 . S
H1602 C1606 0.929 . S
H1603 C1612 0.929 . S
C1604 H1598 0.930 . S
C1604 C1605 1.367 . S
C1604 C1612 1.378 . S
C1605 C1604 1.367 . S
C1605 C1613 1.433 . S
C1606 H1602 0.929 . S
C1606 C1608 1.378 . S
C1606 C1610 1.350 . S
C1607 C1610 1.463 . S
C1607 C1612 1.350 . S
C1607 N1615 1.427 . S
C1608 H1599 0.930 . S
C1608 C1606 1.378 . S
C1608 C1609 1.367 . S
C1609 C1608 1.367 . S
C1609 C1611 1.433 . S
C1610 C1606 1.350 . S
C1610 C1607 1.463 . S
C1610 N1614 1.427 . S
C1611 H1601 0.929 . S
C1611 C1609 1.433 . S
C1611 N1614 1.384 . S
C1612 H1603 0.929 . S
C1612 C1604 1.378 . S
C1612 C1607 1.350 . S
C1613 H1600 0.929 . S
C1613 C1605 1.433 . S
C1613 N1615 1.384 . S
N1614 C1610 1.427 . S
N1614 C1611 1.384 . S
N1615 C1607 1.427 . S
N1615 C1613 1.384 . S
H1616 C1622 0.930 . S
H1617 C1626 0.930 . S
H1618 C1631 0.929 . S
H1619 C1629 0.929 . S
H1620 C1624 0.929 . S
H1621 C1630 0.929 . S
C1622 H1616 0.930 . S
C1622 C1623 1.367 . S
C1622 C1630 1.378 . S
C1623 C1622 1.367 . S
C1623 C1631 1.433 . S
C1624 H1620 0.929 . S
C1624 C1626 1.378 . S
C1624 C1628 1.350 . S
C1625 C1628 1.463 . S
C1625 C1630 1.350 . S
C1625 N1633 1.427 . S
C1626 H1617 0.930 . S
C1626 C1624 1.378 . S
C1626 C1627 1.367 . S
C1627 C1626 1.367 . S
C1627 C1629 1.433 . S
C1628 C1624 1.350 . S
C1628 C1625 1.463 . S
C1628 N1632 1.427 . S
C1629 H1619 0.929 . S
C1629 C1627 1.433 . S
C1629 N1632 1.384 . S
C1630 H1621 0.929 . S
C1630 C1622 1.378 . S
C1630 C1625 1.350 . S
C1631 H1618 0.929 . S
C1631 C1623 1.433 . S
C1631 N1633 1.384 . S
N1632 C1628 1.427 . S
N1632 C1629 1.384 . S
N1633 C1625 1.427 . S
N1633 C1631 1.384 . S
H1634 C1640 0.930 . S
H1635 C1644 0.930 . S
H1636 C1649 0.929 . S
H1637 C1647 0.929 . S
H1638 C1642 0.929 . S
H1639 C1648 0.929 . S
C1640 H1634 0.930 . S
C1640 C1641 1.367 . S
C1640 C1648 1.378 . S
C1641 C1640 1.367 . S
C1641 C1649 1.433 . S
C1642 H1638 0.929 . S
C1642 C1644 1.378 . S
C1642 C1646 1.350 . S
C1643 C1646 1.463 . S
C1643 C1648 1.350 . S
C1643 N1651 1.427 . S
C1644 H1635 0.930 . S
C1644 C1642 1.378 . S
C1644 C1645 1.367 . S
C1645 C1644 1.367 . S
C1645 C1647 1.433 . S
C1646 C1642 1.350 . S
C1646 C1643 1.463 . S
C1646 N1650 1.427 . S
C1647 H1637 0.929 . S
C1647 C1645 1.433 . S
C1647 N1650 1.384 . S
C1648 H1639 0.929 . S
C1648 C1640 1.378 . S
C1648 C1643 1.350 . S
C1649 H1636 0.929 . S
C1649 C1641 1.433 . S
C1649 N1651 1.384 . S
N1650 C1646 1.427 . S
N1650 C1647 1.384 . S
N1651 C1643 1.427 . S
N1651 C1649 1.384 . S
H1652 C1658 0.930 . S
H1653 C1662 0.930 . S
H1654 C1667 0.929 . S
H1655 C1665 0.929 . S
H1656 C1660 0.929 . S
H1657 C1666 0.929 . S
C1658 H1652 0.930 . S
C1658 C1659 1.367 . S
C1658 C1666 1.378 . S
C1659 C1658 1.367 . S
C1659 C1667 1.433 . S
C1660 H1656 0.929 . S
C1660 C1662 1.378 . S
C1660 C1664 1.350 . S
C1661 C1664 1.463 . S
C1661 C1666 1.350 . S
C1661 N1669 1.427 . S
C1662 H1653 0.930 . S
C1662 C1660 1.378 . S
C1662 C1663 1.367 . S
C1663 C1662 1.367 . S
C1663 C1665 1.433 . S
C1664 C1660 1.350 . S
C1664 C1661 1.463 . S
C1664 N1668 1.427 . S
C1665 H1655 0.929 . S
C1665 C1663 1.433 . S
C1665 N1668 1.384 . S
C1666 H1657 0.929 . S
C1666 C1658 1.378 . S
C1666 C1661 1.350 . S
C1667 H1654 0.929 . S
C1667 C1659 1.433 . S
C1667 N1669 1.384 . S
N1668 C1664 1.427 . S
N1668 C1665 1.384 . S
N1669 C1661 1.427 . S
N1669 C1667 1.384 . S
H1670 C1676 0.930 . S
H1671 C1680 0.930 . S
H1672 C1685 0.929 . S
H1673 C1683 0.929 . S
H1674 C1678 0.929 . S
H1675 C1684 0.929 . S
C1676 H1670 0.930 . S
C1676 C1677 1.367 . S
C1676 C1684 1.378 . S
C1677 C1676 1.367 . S
C1677 C1685 1.433 . S
C1678 H1674 0.929 . S
C1678 C1680 1.378 . S
C1678 C1682 1.350 . S
C1679 C1682 1.463 . S
C1679 C1684 1.350 . S
C1679 N1687 1.427 . S
C1680 H1671 0.930 . S
C1680 C1678 1.378 . S
C1680 C1681 1.367 . S
C1681 C1680 1.367 . S
C1681 C1683 1.433 . S
C1682 C1678 1.350 . S
C1682 C1679 1.463 . S
C1682 N1686 1.427 . S
C1683 H1673 0.929 . S
C1683 C1681 1.433 . S
C1683 N1686 1.384 . S
C1684 H1675 0.929 . S
C1684 C1676 1.378 . S
C1684 C1679 1.350 . S
C1685 H1672 0.929 . S
C1685 C1677 1.433 . S
C1685 N1687 1.384 . S
N1686 C1682 1.427 . S
N1686 C1683 1.384 . S
N1687 C1679 1.427 . S
N1687 C1685 1.384 . S
H1688 C1694 0.930 . S
H1689 C1698 0.930 . S
H1690 C1703 0.929 . S
H1691 C1701 0.929 . S
H1692 C1696 0.929 . S
H1693 C1702 0.929 . S
C1694 H1688 0.930 . S
C1694 C1695 1.367 . S
C1694 C1702 1.378 . S
C1695 C1694 1.367 . S
C1695 C1703 1.433 . S
C1696 H1692 0.929 . S
C1696 C1698 1.378 . S
C1696 C1700 1.350 . S
C1697 C1700 1.463 . S
C1697 C1702 1.350 . S
C1697 N1705 1.427 . S
C1698 H1689 0.930 . S
C1698 C1696 1.378 . S
C1698 C1699 1.367 . S
C1699 C1698 1.367 . S
C1699 C1701 1.433 . S
C1700 C1696 1.350 . S
C1700 C1697 1.463 . S
C1700 N1704 1.427 . S
C1701 H1691 0.929 . S
C1701 C1699 1.433 . S
C1701 N1704 1.384 . S
C1702 H1693 0.929 . S
C1702 C1694 1.378 . S
C1702 C1697 1.350 . S
C1703 H1690 0.929 . S
C1703 C1695 1.433 . S
C1703 N1705 1.384 . S
N1704 C1700 1.427 . S
N1704 C1701 1.384 . S
N1705 C1697 1.427 . S
N1705 C1703 1.384 . S
H1706 C1712 0.930 . S
H1707 C1716 0.930 . S
H1708 C1721 0.929 . S
H1709 C1719 0.929 . S
H1710 C1714 0.929 . S
H1711 C1720 0.929 . S
C1712 H1706 0.930 . S
C1712 C1713 1.367 . S
C1712 C1720 1.378 . S
C1713 C1712 1.367 . S
C1713 C1721 1.433 . S
C1714 H1710 0.929 . S
C1714 C1716 1.378 . S
C1714 C1718 1.350 . S
C1715 C1718 1.463 . S
C1715 C1720 1.350 . S
C1715 N1723 1.427 . S
C1716 H1707 0.930 . S
C1716 C1714 1.378 . S
C1716 C1717 1.367 . S
C1717 C1716 1.367 . S
C1717 C1719 1.433 . S
C1718 C1714 1.350 . S
C1718 C1715 1.463 . S
C1718 N1722 1.427 . S
C1719 H1709 0.929 . S
C1719 C1717 1.433 . S
C1719 N1722 1.384 . S
C1720 H1711 0.929 . S
C1720 C1712 1.378 . S
C1720 C1715 1.350 . S
C1721 H1708 0.929 . S
C1721 C1713 1.433 . S
C1721 N1723 1.384 . S
N1722 C1718 1.427 . S
N1722 C1719 1.384 . S
N1723 C1715 1.427 . S
N1723 C1721 1.384 . S
H1724 C1730 0.930 . S
H1725 C1734 0.930 . S
H1726 C1739 0.929 . S
H1727 C1737 0.929 . S
H1728 C1732 0.929 . S
H1729 C1738 0.929 . S
C1730 H1724 0.930 . S
C1730 C1731 1.367 . S
C1730 C1738 1.378 . S
C1731 C1730 1.367 . S
C1731 C1739 1.433 . S
C1732 H1728 0.929 . S
C1732 C1734 1.378 . S
C1732 C1736 1.350 . S
C1733 C1736 1.463 . S
C1733 C1738 1.350 . S
C1733 N1741 1.427 . S
C1734 H1725 0.930 . S
C1734 C1732 1.378 . S
C1734 C1735 1.367 . S
C1735 C1734 1.367 . S
C1735 C1737 1.433 . S
C1736 C1732 1.350 . S
C1736 C1733 1.463 . S
C1736 N1740 1.427 . S
C1737 H1727 0.929 . S
C1737 C1735 1.433 . S
C1737 N1740 1.384 . S
C1738 H1729 0.929 . S
C1738 C1730 1.378 . S
C1738 C1733 1.350 . S
C1739 H1726 0.929 . S
C1739 C1731 1.433 . S
C1739 N1741 1.384 . S
N1740 C1736 1.427 . S
N1740 C1737 1.384 . S
N1741 C1733 1.427 . S
N1741 C1739 1.384 . S
H1742 C1748 0.930 . S
H1743 C1752 0.930 . S
H1744 C1757 0.929 . S
H1745 C1755 0.929 . S
H1746 C1750 0.929 . S
H1747 C1756 0.929 . S
C1748 H1742 0.930 . S
C1748 C1749 1.367 . S
C1748 C1756 1.378 . S
C1749 C1748 1.367 . S
C1749 C1757 1.433 . S
C1750 H1746 0.929 . S
C1750 C1752 1.378 . S
C1750 C1754 1.350 . S
C1751 C1754 1.463 . S
C1751 C1756 1.350 . S
C1751 N1759 1.427 . S
C1752 H1743 0.930 . S
C1752 C1750 1.378 . S
C1752 C1753 1.367 . S
C1753 C1752 1.367 . S
C1753 C1755 1.433 . S
C1754 C1750 1.350 . S
C1754 C1751 1.463 . S
C1754 N1758 1.427 . S
C1755 H1745 0.929 . S
C1755 C1753 1.433 . S
C1755 N1758 1.384 . S
C1756 H1747 0.929 . S
C1756 C1748 1.378 . S
C1756 C1751 1.350 . S
C1757 H1744 0.929 . S
C1757 C1749 1.433 . S
C1757 N1759 1.384 . S
N1758 C1754 1.427 . S
N1758 C1755 1.384 . S
N1759 C1751 1.427 . S
N1759 C1757 1.384 . S
H1760 C1766 0.930 . S
H1761 C1770 0.930 . S
H1762 C1775 0.929 . S
H1763 C1773 0.929 . S
H1764 C1768 0.929 . S
H1765 C1774 0.929 . S
C1766 H1760 0.930 . S
C1766 C1767 1.367 . S
C1766 C1774 1.378 . S
C1767 C1766 1.367 . S
C1767 C1775 1.433 . S
C1768 H1764 0.929 . S
C1768 C1770 1.378 . S
C1768 C1772 1.350 . S
C1769 C1772 1.463 . S
C1769 C1774 1.350 . S
C1769 N1777 1.427 . S
C1770 H1761 0.930 . S
C1770 C1768 1.378 . S
C1770 C1771 1.367 . S
C1771 C1770 1.367 . S
C1771 C1773 1.433 . S
C1772 C1768 1.350 . S
C1772 C1769 1.463 . S
C1772 N1776 1.427 . S
C1773 H1763 0.929 . S
C1773 C1771 1.433 . S
C1773 N1776 1.384 . S
C1774 H1765 0.929 . S
C1774 C1766 1.378 . S
C1774 C1769 1.350 . S
C1775 H1762 0.929 . S
C1775 C1767 1.433 . S
C1775 N1777 1.384 . S
N1776 C1772 1.427 . S
N1776 C1773 1.384 . S
N1777 C1769 1.427 . S
N1777 C1775 1.384 . S
H1778 C1784 0.930 . S
H1779 C1788 0.930 . S
H1780 C1793 0.929 . S
H1781 C1791 0.929 . S
H1782 C1786 0.929 . S
H1783 C1792 0.929 . S
C1784 H1778 0.930 . S
C1784 C1785 1.367 . S
C1784 C1792 1.378 . S
C1785 C1784 1.367 . S
C1785 C1793 1.433 . S
C1786 H1782 0.929 . S
C1786 C1788 1.378 . S
C1786 C1790 1.350 . S
C1787 C1790 1.463 . S
C1787 C1792 1.350 . S
C1787 N1795 1.427 . S
C1788 H1779 0.930 . S
C1788 C1786 1.378 . S
C1788 C1789 1.367 . S
C1789 C1788 1.367 . S
C1789 C1791 1.433 . S
C1790 C1786 1.350 . S
C1790 C1787 1.463 . S
C1790 N1794 1.427 . S
C1791 H1781 0.929 . S
C1791 C1789 1.433 . S
C1791 N1794 1.384 . S
C1792 H1783 0.929 . S
C1792 C1784 1.378 . S
C1792 C1787 1.350 . S
C1793 H1780 0.929 . S
C1793 C1785 1.433 . S
C1793 N1795 1.384 . S
N1794 C1790 1.427 . S
N1794 C1791 1.384 . S
N1795 C1787 1.427 . S
N1795 C1793 1.384 . S
H1796 C1802 0.930 . S
H1797 C1806 0.930 . S
H1798 C1811 0.929 . S
H1799 C1809 0.929 . S
H1800 C1804 0.929 . S
H1801 C1810 0.929 . S
C1802 H1796 0.930 . S
C1802 C1803 1.367 . S
C1802 C1810 1.378 . S
C1803 C1802 1.367 . S
C1803 C1811 1.433 . S
C1804 H1800 0.929 . S
C1804 C1806 1.378 . S
C1804 C1808 1.350 . S
C1805 C1808 1.463 . S
C1805 C1810 1.350 . S
C1805 N1813 1.427 . S
C1806 H1797 0.930 . S
C1806 C1804 1.378 . S
C1806 C1807 1.367 . S
C1807 C1806 1.367 . S
C1807 C1809 1.433 . S
C1808 C1804 1.350 . S
C1808 C1805 1.463 . S
C1808 N1812 1.427 . S
C1809 H1799 0.929 . S
C1809 C1807 1.433 . S
C1809 N1812 1.384 . S
C1810 H1801 0.929 . S
C1810 C1802 1.378 . S
C1810 C1805 1.350 . S
C1811 H1798 0.929 . S
C1811 C1803 1.433 . S
C1811 N1813 1.384 . S
N1812 C1808 1.427 . S
N1812 C1809 1.384 . S
N1813 C1805 1.427 . S
N1813 C1811 1.384 . S
H1814 C1820 0.930 . S
H1815 C1824 0.930 . S
H1816 C1829 0.929 . S
H1817 C1827 0.929 . S
H1818 C1822 0.929 . S
H1819 C1828 0.929 . S
C1820 H1814 0.930 . S
C1820 C1821 1.367 . S
C1820 C1828 1.378 . S
C1821 C1820 1.367 . S
C1821 C1829 1.433 . S
C1822 H1818 0.929 . S
C1822 C1824 1.378 . S
C1822 C1826 1.350 . S
C1823 C1826 1.463 . S
C1823 C1828 1.350 . S
C1823 N1831 1.427 . S
C1824 H1815 0.930 . S
C1824 C1822 1.378 . S
C1824 C1825 1.367 . S
C1825 C1824 1.367 . S
C1825 C1827 1.433 . S
C1826 C1822 1.350 . S
C1826 C1823 1.463 . S
C1826 N1830 1.427 . S
C1827 H1817 0.929 . S
C1827 C1825 1.433 . S
C1827 N1830 1.384 . S
C1828 H1819 0.929 . S
C1828 C1820 1.378 . S
C1828 C1823 1.350 . S
C1829 H1816 0.929 . S
C1829 C1821 1.433 . S
C1829 N1831 1.384 . S
N1830 C1826 1.427 . S
N1830 C1827 1.384 . S
N1831 C1823 1.427 . S
N1831 C1829 1.384 . S
H1832 C1838 0.930 . S
H1833 C1842 0.930 . S
H1834 C1847 0.929 . S
H1835 C1845 0.929 . S
H1836 C1840 0.929 . S
H1837 C1846 0.929 . S
C1838 H1832 0.930 . S
C1838 C1839 1.367 . S
C1838 C1846 1.378 . S
C1839 C1838 1.367 . S
C1839 C1847 1.433 . S
C1840 H1836 0.929 . S
C1840 C1842 1.378 . S
C1840 C1844 1.350 . S
C1841 C1844 1.463 . S
C1841 C1846 1.350 . S
C1841 N1849 1.427 . S
C1842 H1833 0.930 . S
C1842 C1840 1.378 . S
C1842 C1843 1.367 . S
C1843 C1842 1.367 . S
C1843 C1845 1.433 . S
C1844 C1840 1.350 . S
C1844 C1841 1.463 . S
C1844 N1848 1.427 . S
C1845 H1835 0.929 . S
C1845 C1843 1.433 . S
C1845 N1848 1.384 . S
C1846 H1837 0.929 . S
C1846 C1838 1.378 . S
C1846 C1841 1.350 . S
C1847 H1834 0.929 . S
C1847 C1839 1.433 . S
C1847 N1849 1.384 . S
N1848 C1844 1.427 . S
N1848 C1845 1.384 . S
N1849 C1841 1.427 . S
N1849 C1847 1.384 . S
H1850 C1856 0.930 . S
H1851 C1860 0.930 . S
H1852 C1865 0.929 . S
H1853 C1863 0.929 . S
H1854 C1858 0.929 . S
H1855 C1864 0.929 . S
C1856 H1850 0.930 . S
C1856 C1857 1.367 . S
C1856 C1864 1.378 . S
C1857 C1856 1.367 . S
C1857 C1865 1.433 . S
C1858 H1854 0.929 . S
C1858 C1860 1.378 . S
C1858 C1862 1.350 . S
C1859 C1862 1.463 . S
C1859 C1864 1.350 . S
C1859 N1867 1.427 . S
C1860 H1851 0.930 . S
C1860 C1858 1.378 . S
C1860 C1861 1.367 . S
C1861 C1860 1.367 . S
C1861 C1863 1.433 . S
C1862 C1858 1.350 . S
C1862 C1859 1.463 . S
C1862 N1866 1.427 . S
C1863 H1853 0.929 . S
C1863 C1861 1.433 . S
C1863 N1866 1.384 . S
C1864 H1855 0.929 . S
C1864 C1856 1.378 . S
C1864 C1859 1.350 . S
C1865 H1852 0.929 . S
C1865 C1857 1.433 . S
C1865 N1867 1.384 . S
N1866 C1862 1.427 . S
N1866 C1863 1.384 . S
N1867 C1859 1.427 . S
N1867 C1865 1.384 . S
H1868 C1874 0.930 . S
H1869 C1878 0.930 . S
H1870 C1883 0.929 . S
H1871 C1881 0.929 . S
H1872 C1876 0.929 . S
H1873 C1882 0.929 . S
C1874 H1868 0.930 . S
C1874 C1875 1.367 . S
C1874 C1882 1.378 . S
C1875 C1874 1.367 . S
C1875 C1883 1.433 . S
C1876 H1872 0.929 . S
C1876 C1878 1.378 . S
C1876 C1880 1.350 . S
C1877 C1880 1.463 . S
C1877 C1882 1.350 . S
C1877 N1885 1.427 . S
C1878 H1869 0.930 . S
C1878 C1876 1.378 . S
C1878 C1879 1.367 . S
C1879 C1878 1.367 . S
C1879 C1881 1.433 . S
C1880 C1876 1.350 . S
C1880 C1877 1.463 . S
C1880 N1884 1.427 . S
C1881 H1871 0.929 . S
C1881 C1879 1.433 . S
C1881 N1884 1.384 . S
C1882 H1873 0.929 . S
C1882 C1874 1.378 . S
C1882 C1877 1.350 . S
C1883 H1870 0.929 . S
C1883 C1875 1.433 . S
C1883 N1885 1.384 . S
N1884 C1880 1.427 . S
N1884 C1881 1.384 . S
N1885 C1877 1.427 . S
N1885 C1883 1.384 . S
H1886 C1892 0.930 . S
H1887 C1896 0.930 . S
H1888 C1901 0.929 . S
H1889 C1899 0.929 . S
H1890 C1894 0.929 . S
H1891 C1900 0.929 . S
C1892 H1886 0.930 . S
C1892 C1893 1.367 . S
C1892 C1900 1.378 . S
C1893 C1892 1.367 . S
C1893 C1901 1.433 . S
C1894 H1890 0.929 . S
C1894 C1896 1.378 . S
C1894 C1898 1.350 . S
C1895 C1898 1.463 . S
C1895 C1900 1.350 . S
C1895 N1903 1.427 . S
C1896 H1887 0.930 . S
C1896 C1894 1.378 . S
C1896 C1897 1.367 . S
C1897 C1896 1.367 . S
C1897 C1899 1.433 . S
C1898 C1894 1.350 . S
C1898 C1895 1.463 . S
C1898 N1902 1.427 . S
C1899 H1889 0.929 . S
C1899 C1897 1.433 . S
C1899 N1902 1.384 . S
C1900 H1891 0.929 . S
C1900 C1892 1.378 . S
C1900 C1895 1.350 . S
C1901 H1888 0.929 . S
C1901 C1893 1.433 . S
C1901 N1903 1.384 . S
N1902 C1898 1.427 . S
N1902 C1899 1.384 . S
N1903 C1895 1.427 . S
N1903 C1901 1.384 . S
H1904 C1910 0.930 . S
H1905 C1914 0.930 . S
H1906 C1919 0.929 . S
H1907 C1917 0.929 . S
H1908 C1912 0.929 . S
H1909 C1918 0.929 . S
C1910 H1904 0.930 . S
C1910 C1911 1.367 . S
C1910 C1918 1.378 . S
C1911 C1910 1.367 . S
C1911 C1919 1.433 . S
C1912 H1908 0.929 . S
C1912 C1914 1.378 . S
C1912 C1916 1.350 . S
C1913 C1916 1.463 . S
C1913 C1918 1.350 . S
C1913 N1921 1.427 . S
C1914 H1905 0.930 . S
C1914 C1912 1.378 . S
C1914 C1915 1.367 . S
C1915 C1914 1.367 . S
C1915 C1917 1.433 . S
C1916 C1912 1.350 . S
C1916 C1913 1.463 . S
C1916 N1920 1.427 . S
C1917 H1907 0.929 . S
C1917 C1915 1.433 . S
C1917 N1920 1.384 . S
C1918 H1909 0.929 . S
C1918 C1910 1.378 . S
C1918 C1913 1.350 . S
C1919 H1906 0.929 . S
C1919 C1911 1.433 . S
C1919 N1921 1.384 . S
N1920 C1916 1.427 . S
N1920 C1917 1.384 . S
N1921 C1913 1.427 . S
N1921 C1919 1.384 . S
H1922 C1928 0.930 . S
H1923 C1932 0.930 . S
H1924 C1937 0.929 . S
H1925 C1935 0.929 . S
H1926 C1930 0.929 . S
H1927 C1936 0.929 . S
C1928 H1922 0.930 . S
C1928 C1929 1.367 . S
C1928 C1936 1.378 . S
C1929 C1928 1.367 . S
C1929 C1937 1.433 . S
C1930 H1926 0.929 . S
C1930 C1932 1.378 . S
C1930 C1934 1.350 . S
C1931 C1934 1.463 . S
C1931 C1936 1.350 . S
C1931 N1939 1.427 . S
C1932 H1923 0.930 . S
C1932 C1930 1.378 . S
C1932 C1933 1.367 . S
C1933 C1932 1.367 . S
C1933 C1935 1.433 . S
C1934 C1930 1.350 . S
C1934 C1931 1.463 . S
C1934 N1938 1.427 . S
C1935 H1925 0.929 . S
C1935 C1933 1.433 . S
C1935 N1938 1.384 . S
C1936 H1927 0.929 . S
C1936 C1928 1.378 . S
C1936 C1931 1.350 . S
C1937 H1924 0.929 . S
C1937 C1929 1.433 . S
C1937 N1939 1.384 . S
N1938 C1934 1.427 . S
N1938 C1935 1.384 . S
N1939 C1931 1.427 . S
N1939 C1937 1.384 . S
H1940 C1946 0.930 . S
H1941 C1950 0.930 . S
H1942 C1955 0.929 . S
H1943 C1953 0.929 . S
H1944 C1948 0.929 . S
H1945 C1954 0.929 . S
C1946 H1940 0.930 . S
C1946 C1947 1.367 . S
C1946 C1954 1.378 . S
C1947 C1946 1.367 . S
C1947 C1955 1.433 . S
C1948 H1944 0.929 . S
C1948 C1950 1.378 . S
C1948 C1952 1.350 . S
C1949 C1952 1.463 . S
C1949 C1954 1.350 . S
C1949 N1957 1.427 . S
C1950 H1941 0.930 . S
C1950 C1948 1.378 . S
C1950 C1951 1.367 . S
C1951 C1950 1.367 . S
C1951 C1953 1.433 . S
C1952 C1948 1.350 . S
C1952 C1949 1.463 . S
C1952 N1956 1.427 . S
C1953 H1943 0.929 . S
C1953 C1951 1.433 . S
C1953 N1956 1.384 . S
C1954 H1945 0.929 . S
C1954 C1946 1.378 . S
C1954 C1949 1.350 . S
C1955 H1942 0.929 . S
C1955 C1947 1.433 . S
C1955 N1957 1.384 . S
N1956 C1952 1.427 . S
N1956 C1953 1.384 . S
N1957 C1949 1.427 . S
N1957 C1955 1.384 . S
H1958 C1964 0.930 . S
H1959 C1968 0.930 . S
H1960 C1973 0.929 . S
H1961 C1971 0.929 . S
H1962 C1966 0.929 . S
H1963 C1972 0.929 . S
C1964 H1958 0.930 . S
C1964 C1965 1.367 . S
C1964 C1972 1.378 . S
C1965 C1964 1.367 . S
C1965 C1973 1.433 . S
C1966 H1962 0.929 . S
C1966 C1968 1.378 . S
C1966 C1970 1.350 . S
C1967 C1970 1.463 . S
C1967 C1972 1.350 . S
C1967 N1975 1.427 . S
C1968 H1959 0.930 . S
C1968 C1966 1.378 . S
C1968 C1969 1.367 . S
C1969 C1968 1.367 . S
C1969 C1971 1.433 . S
C1970 C1966 1.350 . S
C1970 C1967 1.463 . S
C1970 N1974 1.427 . S
C1971 H1961 0.929 . S
C1971 C1969 1.433 . S
C1971 N1974 1.384 . S
C1972 H1963 0.929 . S
C1972 C1964 1.378 . S
C1972 C1967 1.350 . S
C1973 H1960 0.929 . S
C1973 C1965 1.433 . S
C1973 N1975 1.384 . S
N1974 C1970 1.427 . S
N1974 C1971 1.384 . S
N1975 C1967 1.427 . S
N1975 C1973 1.384 . S
H1976 C1982 0.930 . S
H1977 C1986 0.930 . S
H1978 C1991 0.929 . S
H1979 C1989 0.929 . S
H1980 C1984 0.929 . S
H1981 C1990 0.929 . S
C1982 H1976 0.930 . S
C1982 C1983 1.367 . S
C1982 C1990 1.378 . S
C1983 C1982 1.367 . S
C1983 C1991 1.433 . S
C1984 H1980 0.929 . S
C1984 C1986 1.378 . S
C1984 C1988 1.350 . S
C1985 C1988 1.463 . S
C1985 C1990 1.350 . S
C1985 N1993 1.427 . S
C1986 H1977 0.930 . S
C1986 C1984 1.378 . S
C1986 C1987 1.367 . S
C1987 C1986 1.367 . S
C1987 C1989 1.433 . S
C1988 C1984 1.350 . S
C1988 C1985 1.463 . S
C1988 N1992 1.427 . S
C1989 H1979 0.929 . S
C1989 C1987 1.433 . S
C1989 N1992 1.384 . S
C1990 H1981 0.929 . S
C1990 C1982 1.378 . S
C1990 C1985 1.350 . S
C1991 H1978 0.929 . S
C1991 C1983 1.433 . S
C1991 N1993 1.384 . S
N1992 C1988 1.427 . S
N1992 C1989 1.384 . S
N1993 C1985 1.427 . S
N1993 C1991 1.384 . S
H1994 C2000 0.930 . S
H1995 C2004 0.930 . S
H1996 C2009 0.929 . S
H1997 C2007 0.929 . S
H1998 C2002 0.929 . S
H1999 C2008 0.929 . S
C2000 H1994 0.930 . S
C2000 C2001 1.367 . S
C2000 C2008 1.378 . S
C2001 C2000 1.367 . S
C2001 C2009 1.433 . S
C2002 H1998 0.929 . S
C2002 C2004 1.378 . S
C2002 C2006 1.350 . S
C2003 C2006 1.463 . S
C2003 C2008 1.350 . S
C2003 N2011 1.427 . S
C2004 H1995 0.930 . S
C2004 C2002 1.378 . S
C2004 C2005 1.367 . S
C2005 C2004 1.367 . S
C2005 C2007 1.433 . S
C2006 C2002 1.350 . S
C2006 C2003 1.463 . S
C2006 N2010 1.427 . S
C2007 H1997 0.929 . S
C2007 C2005 1.433 . S
C2007 N2010 1.384 . S
C2008 H1999 0.929 . S
C2008 C2000 1.378 . S
C2008 C2003 1.350 . S
C2009 H1996 0.929 . S
C2009 C2001 1.433 . S
C2009 N2011 1.384 . S
N2010 C2006 1.427 . S
N2010 C2007 1.384 . S
N2011 C2003 1.427 . S
N2011 C2009 1.384 . S
H2012 C2018 0.930 . S
H2013 C2022 0.930 . S
H2014 C2027 0.929 . S
H2015 C2025 0.929 . S
H2016 C2020 0.929 . S
H2017 C2026 0.929 . S
C2018 H2012 0.930 . S
C2018 C2019 1.367 . S
C2018 C2026 1.378 . S
C2019 C2018 1.367 . S
C2019 C2027 1.433 . S
C2020 H2016 0.929 . S
C2020 C2022 1.378 . S
C2020 C2024 1.350 . S
C2021 C2024 1.463 . S
C2021 C2026 1.350 . S
C2021 N2029 1.427 . S
C2022 H2013 0.930 . S
C2022 C2020 1.378 . S
C2022 C2023 1.367 . S
C2023 C2022 1.367 . S
C2023 C2025 1.433 . S
C2024 C2020 1.350 . S
C2024 C2021 1.463 . S
C2024 N2028 1.427 . S
C2025 H2015 0.929 . S
C2025 C2023 1.433 . S
C2025 N2028 1.384 . S
C2026 H2017 0.929 . S
C2026 C2018 1.378 . S
C2026 C2021 1.350 . S
C2027 H2014 0.929 . S
C2027 C2019 1.433 . S
C2027 N2029 1.384 . S
N2028 C2024 1.427 . S
N2028 C2025 1.384 . S
N2029 C2021 1.427 . S
N2029 C2027 1.384 . S
H2030 C2036 0.930 . S
H2031 C2040 0.930 . S
H2032 C2045 0.929 . S
H2033 C2043 0.929 . S
H2034 C2038 0.929 . S
H2035 C2044 0.929 . S
C2036 H2030 0.930 . S
C2036 C2037 1.367 . S
C2036 C2044 1.378 . S
C2037 C2036 1.367 . S
C2037 C2045 1.433 . S
C2038 H2034 0.929 . S
C2038 C2040 1.378 . S
C2038 C2042 1.350 . S
C2039 C2042 1.463 . S
C2039 C2044 1.350 . S
C2039 N2047 1.427 . S
C2040 H2031 0.930 . S
C2040 C2038 1.378 . S
C2040 C2041 1.367 . S
C2041 C2040 1.367 . S
C2041 C2043 1.433 . S
C2042 C2038 1.350 . S
C2042 C2039 1.463 . S
C2042 N2046 1.427 . S
C2043 H2033 0.929 . S
C2043 C2041 1.433 . S
C2043 N2046 1.384 . S
C2044 H2035 0.929 . S
C2044 C2036 1.378 . S
C2044 C2039 1.350 . S
C2045 H2032 0.929 . S
C2045 C2037 1.433 . S
C2045 N2047 1.384 . S
N2046 C2042 1.427 . S
N2046 C2043 1.384 . S
N2047 C2039 1.427 . S
N2047 C2045 1.384 . S
H2048 C2054 0.930 . S
H2049 C2058 0.930 . S
H2050 C2063 0.929 . S
H2051 C2061 0.929 . S
H2052 C2056 0.929 . S
H2053 C2062 0.929 . S
C2054 H2048 0.930 . S
C2054 C2055 1.367 . S
C2054 C2062 1.378 . S
C2055 C2054 1.367 . S
C2055 C2063 1.433 . S
C2056 H2052 0.929 . S
C2056 C2058 1.378 . S
C2056 C2060 1.350 . S
C2057 C2060 1.463 . S
C2057 C2062 1.350 . S
C2057 N2065 1.427 . S
C2058 H2049 0.930 . S
C2058 C2056 1.378 . S
C2058 C2059 1.367 . S
C2059 C2058 1.367 . S
C2059 C2061 1.433 . S
C2060 C2056 1.350 . S
C2060 C2057 1.463 . S
C2060 N2064 1.427 . S
C2061 H2051 0.929 . S
C2061 C2059 1.433 . S
C2061 N2064 1.384 . S
C2062 H2053 0.929 . S
C2062 C2054 1.378 . S
C2062 C2057 1.350 . S
C2063 H2050 0.929 . S
C2063 C2055 1.433 . S
C2063 N2065 1.384 . S
N2064 C2060 1.427 . S
N2064 C2061 1.384 . S
N2065 C2057 1.427 . S
N2065 C2063 1.384 . S
H2066 C2072 0.930 . S
H2067 C2076 0.930 . S
H2068 C2081 0.929 . S
H2069 C2079 0.929 . S
H2070 C2074 0.929 . S
H2071 C2080 0.929 . S
C2072 H2066 0.930 . S
C2072 C2073 1.367 . S
C2072 C2080 1.378 . S
C2073 C2072 1.367 . S
C2073 C2081 1.433 . S
C2074 H2070 0.929 . S
C2074 C2076 1.378 . S
C2074 C2078 1.350 . S
C2075 C2078 1.463 . S
C2075 C2080 1.350 . S
C2075 N2083 1.427 . S
C2076 H2067 0.930 . S
C2076 C2074 1.378 . S
C2076 C2077 1.367 . S
C2077 C2076 1.367 . S
C2077 C2079 1.433 . S
C2078 C2074 1.350 . S
C2078 C2075 1.463 . S
C2078 N2082 1.427 . S
C2079 H2069 0.929 . S
C2079 C2077 1.433 . S
C2079 N2082 1.384 . S
C2080 H2071 0.929 . S
C2080 C2072 1.378 . S
C2080 C2075 1.350 . S
C2081 H2068 0.929 . S
C2081 C2073 1.433 . S
C2081 N2083 1.384 . S
N2082 C2078 1.427 . S
N2082 C2079 1.384 . S
N2083 C2075 1.427 . S
N2083 C2081 1.384 . S
H2084 C2090 0.930 . S
H2085 C2094 0.930 . S
H2086 C2099 0.929 . S
H2087 C2097 0.929 . S
H2088 C2092 0.929 . S
H2089 C2098 0.929 . S
C2090 H2084 0.930 . S
C2090 C2091 1.367 . S
C2090 C2098 1.378 . S
C2091 C2090 1.367 . S
C2091 C2099 1.433 . S
C2092 H2088 0.929 . S
C2092 C2094 1.378 . S
C2092 C2096 1.350 . S
C2093 C2096 1.463 . S
C2093 C2098 1.350 . S
C2093 N2101 1.427 . S
C2094 H2085 0.930 . S
C2094 C2092 1.378 . S
C2094 C2095 1.367 . S
C2095 C2094 1.367 . S
C2095 C2097 1.433 . S
C2096 C2092 1.350 . S
C2096 C2093 1.463 . S
C2096 N2100 1.427 . S
C2097 H2087 0.929 . S
C2097 C2095 1.433 . S
C2097 N2100 1.384 . S
C2098 H2089 0.929 . S
C2098 C2090 1.378 . S
C2098 C2093 1.350 . S
C2099 H2086 0.929 . S
C2099 C2091 1.433 . S
C2099 N2101 1.384 . S
N2100 C2096 1.427 . S
N2100 C2097 1.384 . S
N2101 C2093 1.427 . S
N2101 C2099 1.384 . S
H2102 C2108 0.930 . S
H2103 C2112 0.930 . S
H2104 C2117 0.929 . S
H2105 C2115 0.929 . S
H2106 C2110 0.929 . S
H2107 C2116 0.929 . S
C2108 H2102 0.930 . S
C2108 C2109 1.367 . S
C2108 C2116 1.378 . S
C2109 C2108 1.367 . S
C2109 C2117 1.433 . S
C2110 H2106 0.929 . S
C2110 C2112 1.378 . S
C2110 C2114 1.350 . S
C2111 C2114 1.463 . S
C2111 C2116 1.350 . S
C2111 N2119 1.427 . S
C2112 H2103 0.930 . S
C2112 C2110 1.378 . S
C2112 C2113 1.367 . S
C2113 C2112 1.367 . S
C2113 C2115 1.433 . S
C2114 C2110 1.350 . S
C2114 C2111 1.463 . S
C2114 N2118 1.427 . S
C2115 H2105 0.929 . S
C2115 C2113 1.433 . S
C2115 N2118 1.384 . S
C2116 H2107 0.929 . S
C2116 C2108 1.378 . S
C2116 C2111 1.350 . S
C2117 H2104 0.929 . S
C2117 C2109 1.433 . S
C2117 N2119 1.384 . S
N2118 C2114 1.427 . S
N2118 C2115 1.384 . S
N2119 C2111 1.427 . S
N2119 C2117 1.384 . S
H2120 C2126 0.930 . S
H2121 C2130 0.930 . S
H2122 C2135 0.929 . S
H2123 C2133 0.929 . S
H2124 C2128 0.929 . S
H2125 C2134 0.929 . S
C2126 H2120 0.930 . S
C2126 C2127 1.367 . S
C2126 C2134 1.378 . S
C2127 C2126 1.367 . S
C2127 C2135 1.433 . S
C2128 H2124 0.929 . S
C2128 C2130 1.378 . S
C2128 C2132 1.350 . S
C2129 C2132 1.463 . S
C2129 C2134 1.350 . S
C2129 N2137 1.427 . S
C2130 H2121 0.930 . S
C2130 C2128 1.378 . S
C2130 C2131 1.367 . S
C2131 C2130 1.367 . S
C2131 C2133 1.433 . S
C2132 C2128 1.350 . S
C2132 C2129 1.463 . S
C2132 N2136 1.427 . S
C2133 H2123 0.929 . S
C2133 C2131 1.433 . S
C2133 N2136 1.384 . S
C2134 H2125 0.929 . S
C2134 C2126 1.378 . S
C2134 C2129 1.350 . S
C2135 H2122 0.929 . S
C2135 C2127 1.433 . S
C2135 N2137 1.384 . S
N2136 C2132 1.427 . S
N2136 C2133 1.384 . S
N2137 C2129 1.427 . S
N2137 C2135 1.384 . S
H2138 C2144 0.930 . S
H2139 C2148 0.930 . S
H2140 C2153 0.929 . S
H2141 C2151 0.929 . S
H2142 C2146 0.929 . S
H2143 C2152 0.929 . S
C2144 H2138 0.930 . S
C2144 C2145 1.367 . S
C2144 C2152 1.378 . S
C2145 C2144 1.367 . S
C2145 C2153 1.433 . S
C2146 H2142 0.929 . S
C2146 C2148 1.378 . S
C2146 C2150 1.350 . S
C2147 C2150 1.463 . S
C2147 C2152 1.350 . S
C2147 N2155 1.427 . S
C2148 H2139 0.930 . S
C2148 C2146 1.378 . S
C2148 C2149 1.367 . S
C2149 C2148 1.367 . S
C2149 C2151 1.433 . S
C2150 C2146 1.350 . S
C2150 C2147 1.463 . S
C2150 N2154 1.427 . S
C2151 H2141 0.929 . S
C2151 C2149 1.433 . S
C2151 N2154 1.384 . S
C2152 H2143 0.929 . S
C2152 C2144 1.378 . S
C2152 C2147 1.350 . S
C2153 H2140 0.929 . S
C2153 C2145 1.433 . S
C2153 N2155 1.384 . S
N2154 C2150 1.427 . S
N2154 C2151 1.384 . S
N2155 C2147 1.427 . S
N2155 C2153 1.384 . S
H2156 C2162 0.930 . S
H2157 C2166 0.930 . S
H2158 C2171 0.929 . S
H2159 C2169 0.929 . S
H2160 C2164 0.929 . S
H2161 C2170 0.929 . S
C2162 H2156 0.930 . S
C2162 C2163 1.367 . S
C2162 C2170 1.378 . S
C2163 C2162 1.367 . S
C2163 C2171 1.433 . S
C2164 H2160 0.929 . S
C2164 C2166 1.378 . S
C2164 C2168 1.350 . S
C2165 C2168 1.463 . S
C2165 C2170 1.350 . S
C2165 N2173 1.427 . S
C2166 H2157 0.930 . S
C2166 C2164 1.378 . S
C2166 C2167 1.367 . S
C2167 C2166 1.367 . S
C2167 C2169 1.433 . S
C2168 C2164 1.350 . S
C2168 C2165 1.463 . S
C2168 N2172 1.427 . S
C2169 H2159 0.929 . S
C2169 C2167 1.433 . S
C2169 N2172 1.384 . S
C2170 H2161 0.929 . S
C2170 C2162 1.378 . S
C2170 C2165 1.350 . S
C2171 H2158 0.929 . S
C2171 C2163 1.433 . S
C2171 N2173 1.384 . S
N2172 C2168 1.427 . S
N2172 C2169 1.384 . S
N2173 C2165 1.427 . S
N2173 C2171 1.384 . S
H2174 C2180 0.930 . S
H2175 C2184 0.930 . S
H2176 C2189 0.929 . S
H2177 C2187 0.929 . S
H2178 C2182 0.929 . S
H2179 C2188 0.929 . S
C2180 H2174 0.930 . S
C2180 C2181 1.367 . S
C2180 C2188 1.378 . S
C2181 C2180 1.367 . S
C2181 C2189 1.433 . S
C2182 H2178 0.929 . S
C2182 C2184 1.378 . S
C2182 C2186 1.350 . S
C2183 C2186 1.463 . S
C2183 C2188 1.350 . S
C2183 N2191 1.427 . S
C2184 H2175 0.930 . S
C2184 C2182 1.378 . S
C2184 C2185 1.367 . S
C2185 C2184 1.367 . S
C2185 C2187 1.433 . S
C2186 C2182 1.350 . S
C2186 C2183 1.463 . S
C2186 N2190 1.427 . S
C2187 H2177 0.929 . S
C2187 C2185 1.433 . S
C2187 N2190 1.384 . S
C2188 H2179 0.929 . S
C2188 C2180 1.378 . S
C2188 C2183 1.350 . S
C2189 H2176 0.929 . S
C2189 C2181 1.433 . S
C2189 N2191 1.384 . S
N2190 C2186 1.427 . S
N2190 C2187 1.384 . S
N2191 C2183 1.427 . S
N2191 C2189 1.384 . S
H2192 C2198 0.930 . S
H2193 C2202 0.930 . S
H2194 C2207 0.929 . S
H2195 C2205 0.929 . S
H2196 C2200 0.929 . S
H2197 C2206 0.929 . S
C2198 H2192 0.930 . S
C2198 C2199 1.367 . S
C2198 C2206 1.378 . S
C2199 C2198 1.367 . S
C2199 C2207 1.433 . S
C2200 H2196 0.929 . S
C2200 C2202 1.378 . S
C2200 C2204 1.350 . S
C2201 C2204 1.463 . S
C2201 C2206 1.350 . S
C2201 N2209 1.427 . S
C2202 H2193 0.930 . S
C2202 C2200 1.378 . S
C2202 C2203 1.367 . S
C2203 C2202 1.367 . S
C2203 C2205 1.433 . S
C2204 C2200 1.350 . S
C2204 C2201 1.463 . S
C2204 N2208 1.427 . S
C2205 H2195 0.929 . S
C2205 C2203 1.433 . S
C2205 N2208 1.384 . S
C2206 H2197 0.929 . S
C2206 C2198 1.378 . S
C2206 C2201 1.350 . S
C2207 H2194 0.929 . S
C2207 C2199 1.433 . S
C2207 N2209 1.384 . S
N2208 C2204 1.427 . S
N2208 C2205 1.384 . S
N2209 C2201 1.427 . S
N2209 C2207 1.384 . S
H2210 C2216 0.930 . S
H2211 C2220 0.930 . S
H2212 C2225 0.929 . S
H2213 C2223 0.929 . S
H2214 C2218 0.929 . S
H2215 C2224 0.929 . S
C2216 H2210 0.930 . S
C2216 C2217 1.367 . S
C2216 C2224 1.378 . S
C2217 C2216 1.367 . S
C2217 C2225 1.433 . S
C2218 H2214 0.929 . S
C2218 C2220 1.378 . S
C2218 C2222 1.350 . S
C2219 C2222 1.463 . S
C2219 C2224 1.350 . S
C2219 N2227 1.427 . S
C2220 H2211 0.930 . S
C2220 C2218 1.378 . S
C2220 C2221 1.367 1_565 S
C2221 C2220 1.367 1_545 S
C2221 C2223 1.433 . S
C2222 C2218 1.350 . S
C2222 C2219 1.463 . S
C2222 N2226 1.427 1_565 S
C2223 H2213 0.929 . S
C2223 C2221 1.433 . S
C2223 N2226 1.384 . S
C2224 H2215 0.929 . S
C2224 C2216 1.378 . S
C2224 C2219 1.350 . S
C2225 H2212 0.929 . S
C2225 C2217 1.433 . S
C2225 N2227 1.384 . S
N2226 C2222 1.427 1_545 S
N2226 C2223 1.384 . S
N2227 C2219 1.427 . S
N2227 C2225 1.384 . S
H2228 C2234 0.930 . S
H2229 C2238 0.930 . S
H2230 C2243 0.929 . S
H2231 C2241 0.929 . S
H2232 C2236 0.929 . S
H2233 C2242 0.929 . S
C2234 H2228 0.930 . S
C2234 C2235 1.367 . S
C2234 C2242 1.378 . S
C2235 C2234 1.367 . S
C2235 C2243 1.433 . S
C2236 H2232 0.929 . S
C2236 C2238 1.378 . S
C2236 C2240 1.350 . S
C2237 C2240 1.463 . S
C2237 C2242 1.350 . S
C2237 N2245 1.427 . S
C2238 H2229 0.930 . S
C2238 C2236 1.378 . S
C2238 C2239 1.367 . S
C2239 C2238 1.367 . S
C2239 C2241 1.433 . S
C2240 C2236 1.350 . S
C2240 C2237 1.463 . S
C2240 N2244 1.427 . S
C2241 H2231 0.929 . S
C2241 C2239 1.433 . S
C2241 N2244 1.384 . S
C2242 H2233 0.929 . S
C2242 C2234 1.378 . S
C2242 C2237 1.350 . S
C2243 H2230 0.929 . S
C2243 C2235 1.433 . S
C2243 N2245 1.384 . S
N2244 C2240 1.427 . S
N2244 C2241 1.384 . S
N2245 C2237 1.427 . S
N2245 C2243 1.384 . S
H2246 C2252 0.930 . S
H2247 C2256 0.930 . S
H2248 C2261 0.929 . S
H2249 C2259 0.929 . S
H2250 C2254 0.929 . S
H2251 C2260 0.929 . S
C2252 H2246 0.930 . S
C2252 C2253 1.367 . S
C2252 C2260 1.378 . S
C2253 C2252 1.367 . S
C2253 C2261 1.433 . S
C2254 H2250 0.929 . S
C2254 C2256 1.378 . S
C2254 C2258 1.350 . S
C2255 C2258 1.463 . S
C2255 C2260 1.350 . S
C2255 N2263 1.427 . S
C2256 H2247 0.930 . S
C2256 C2254 1.378 . S
C2256 C2257 1.367 . S
C2257 C2256 1.367 . S
C2257 C2259 1.433 . S
C2258 C2254 1.350 . S
C2258 C2255 1.463 . S
C2258 N2262 1.427 . S
C2259 H2249 0.929 . S
C2259 C2257 1.433 . S
C2259 N2262 1.384 . S
C2260 H2251 0.929 . S
C2260 C2252 1.378 . S
C2260 C2255 1.350 . S
C2261 H2248 0.929 . S
C2261 C2253 1.433 . S
C2261 N2263 1.384 . S
N2262 C2258 1.427 . S
N2262 C2259 1.384 . S
N2263 C2255 1.427 . S
N2263 C2261 1.384 . S
H2264 C2270 0.930 . S
H2265 C2274 0.930 . S
H2266 C2279 0.929 . S
H2267 C2277 0.929 . S
H2268 C2272 0.929 . S
H2269 C2278 0.929 . S
C2270 H2264 0.930 . S
C2270 C2271 1.367 . S
C2270 C2278 1.378 . S
C2271 C2270 1.367 . S
C2271 C2279 1.433 . S
C2272 H2268 0.929 . S
C2272 C2274 1.378 . S
C2272 C2276 1.350 . S
C2273 C2276 1.463 . S
C2273 C2278 1.350 . S
C2273 N2281 1.427 . S
C2274 H2265 0.930 . S
C2274 C2272 1.378 . S
C2274 C2275 1.367 . S
C2275 C2274 1.367 . S
C2275 C2277 1.433 . S
C2276 C2272 1.350 . S
C2276 C2273 1.463 . S
C2276 N2280 1.427 . S
C2277 H2267 0.929 . S
C2277 C2275 1.433 . S
C2277 N2280 1.384 . S
C2278 H2269 0.929 . S
C2278 C2270 1.378 . S
C2278 C2273 1.350 . S
C2279 H2266 0.929 . S
C2279 C2271 1.433 . S
C2279 N2281 1.384 . S
N2280 C2276 1.427 . S
N2280 C2277 1.384 . S
N2281 C2273 1.427 . S
N2281 C2279 1.384 . S
H2282 C2288 0.930 . S
H2283 C2292 0.930 . S
H2284 C2297 0.929 . S
H2285 C2295 0.929 . S
H2286 C2290 0.929 . S
H2287 C2296 0.929 . S
C2288 H2282 0.930 . S
C2288 C2289 1.367 . S
C2288 C2296 1.378 . S
C2289 C2288 1.367 . S
C2289 C2297 1.433 . S
C2290 H2286 0.929 . S
C2290 C2292 1.378 . S
C2290 C2294 1.350 . S
C2291 C2294 1.463 . S
C2291 C2296 1.350 . S
C2291 N2299 1.427 . S
C2292 H2283 0.930 . S
C2292 C2290 1.378 . S
C2292 C2293 1.367 . S
C2293 C2292 1.367 . S
C2293 C2295 1.433 . S
C2294 C2290 1.350 . S
C2294 C2291 1.463 . S
C2294 N2298 1.427 . S
C2295 H2285 0.929 . S
C2295 C2293 1.433 . S
C2295 N2298 1.384 . S
C2296 H2287 0.929 . S
C2296 C2288 1.378 . S
C2296 C2291 1.350 . S
C2297 H2284 0.929 . S
C2297 C2289 1.433 . S
C2297 N2299 1.384 . S
N2298 C2294 1.427 . S
N2298 C2295 1.384 . S
N2299 C2291 1.427 . S
N2299 C2297 1.384 . S
H2300 C2306 0.930 . S
H2301 C2310 0.930 . S
H2302 C2315 0.929 . S
H2303 C2313 0.929 . S
H2304 C2308 0.929 . S
H2305 C2314 0.929 . S
C2306 H2300 0.930 . S
C2306 C2307 1.367 . S
C2306 C2314 1.378 . S
C2307 C2306 1.367 . S
C2307 C2315 1.433 . S
C2308 H2304 0.929 . S
C2308 C2310 1.378 . S
C2308 C2312 1.350 . S
C2309 C2312 1.463 . S
C2309 C2314 1.350 . S
C2309 N2317 1.427 . S
C2310 H2301 0.930 . S
C2310 C2308 1.378 . S
C2310 C2311 1.367 . S
C2311 C2310 1.367 . S
C2311 C2313 1.433 . S
C2312 C2308 1.350 . S
C2312 C2309 1.463 . S
C2312 N2316 1.427 . S
C2313 H2303 0.929 . S
C2313 C2311 1.433 . S
C2313 N2316 1.384 . S
C2314 H2305 0.929 . S
C2314 C2306 1.378 . S
C2314 C2309 1.350 . S
C2315 H2302 0.929 . S
C2315 C2307 1.433 . S
C2315 N2317 1.384 . S
N2316 C2312 1.427 . S
N2316 C2313 1.384 . S
N2317 C2309 1.427 . S
N2317 C2315 1.384 . S
H2318 C2324 0.930 . S
H2319 C2328 0.930 . S
H2320 C2333 0.929 . S
H2321 C2331 0.929 . S
H2322 C2326 0.929 . S
H2323 C2332 0.929 . S
C2324 H2318 0.930 . S
C2324 C2325 1.367 . S
C2324 C2332 1.378 . S
C2325 C2324 1.367 . S
C2325 C2333 1.433 . S
C2326 H2322 0.929 . S
C2326 C2328 1.378 . S
C2326 C2330 1.350 . S
C2327 C2330 1.463 . S
C2327 C2332 1.350 . S
C2327 N2335 1.427 . S
C2328 H2319 0.930 . S
C2328 C2326 1.378 . S
C2328 C2329 1.367 . S
C2329 C2328 1.367 . S
C2329 C2331 1.433 . S
C2330 C2326 1.350 . S
C2330 C2327 1.463 . S
C2330 N2334 1.427 . S
C2331 H2321 0.929 . S
C2331 C2329 1.433 . S
C2331 N2334 1.384 . S
C2332 H2323 0.929 . S
C2332 C2324 1.378 . S
C2332 C2327 1.350 . S
C2333 H2320 0.929 . S
C2333 C2325 1.433 . S
C2333 N2335 1.384 . S
N2334 C2330 1.427 . S
N2334 C2331 1.384 . S
N2335 C2327 1.427 . S
N2335 C2333 1.384 . S
H2336 C2342 0.930 . S
H2337 C2346 0.930 . S
H2338 C2351 0.929 . S
H2339 C2349 0.929 . S
H2340 C2344 0.929 . S
H2341 C2350 0.929 . S
C2342 H2336 0.930 . S
C2342 C2343 1.367 . S
C2342 C2350 1.378 . S
C2343 C2342 1.367 . S
C2343 C2351 1.433 . S
C2344 H2340 0.929 . S
C2344 C2346 1.378 . S
C2344 C2348 1.350 . S
C2345 C2348 1.463 . S
C2345 C2350 1.350 . S
C2345 N2353 1.427 . S
C2346 H2337 0.930 . S
C2346 C2344 1.378 . S
C2346 C2347 1.367 . S
C2347 C2346 1.367 . S
C2347 C2349 1.433 . S
C2348 C2344 1.350 . S
C2348 C2345 1.463 . S
C2348 N2352 1.427 . S
C2349 H2339 0.929 . S
C2349 C2347 1.433 . S
C2349 N2352 1.384 . S
C2350 H2341 0.929 . S
C2350 C2342 1.378 . S
C2350 C2345 1.350 . S
C2351 H2338 0.929 . S
C2351 C2343 1.433 . S
C2351 N2353 1.384 . S
N2352 C2348 1.427 . S
N2352 C2349 1.384 . S
N2353 C2345 1.427 . S
N2353 C2351 1.384 . S
H2354 C2360 0.930 . S
H2355 C2364 0.930 . S
H2356 C2369 0.929 . S
H2357 C2367 0.929 . S
H2358 C2362 0.929 . S
H2359 C2368 0.929 . S
C2360 H2354 0.930 . S
C2360 C2361 1.367 . S
C2360 C2368 1.378 . S
C2361 C2360 1.367 . S
C2361 C2369 1.433 . S
C2362 H2358 0.929 . S
C2362 C2364 1.378 . S
C2362 C2366 1.350 . S
C2363 C2366 1.463 . S
C2363 C2368 1.350 . S
C2363 N2371 1.427 . S
C2364 H2355 0.930 . S
C2364 C2362 1.378 . S
C2364 C2365 1.367 . S
C2365 C2364 1.367 . S
C2365 C2367 1.433 . S
C2366 C2362 1.350 . S
C2366 C2363 1.463 . S
C2366 N2370 1.427 . S
C2367 H2357 0.929 . S
C2367 C2365 1.433 . S
C2367 N2370 1.384 . S
C2368 H2359 0.929 . S
C2368 C2360 1.378 . S
C2368 C2363 1.350 . S
C2369 H2356 0.929 . S
C2369 C2361 1.433 . S
C2369 N2371 1.384 . S
N2370 C2366 1.427 . S
N2370 C2367 1.384 . S
N2371 C2363 1.427 . S
N2371 C2369 1.384 . S
H2372 C2378 0.930 . S
H2373 C2382 0.930 . S
H2374 C2387 0.929 . S
H2375 C2385 0.929 . S
H2376 C2380 0.929 . S
H2377 C2386 0.929 . S
C2378 H2372 0.930 . S
C2378 C2379 1.367 . S
C2378 C2386 1.378 . S
C2379 C2378 1.367 . S
C2379 C2387 1.433 . S
C2380 H2376 0.929 . S
C2380 C2382 1.378 . S
C2380 C2384 1.350 . S
C2381 C2384 1.463 . S
C2381 C2386 1.350 . S
C2381 N2389 1.427 . S
C2382 H2373 0.930 . S
C2382 C2380 1.378 . S
C2382 C2383 1.367 . S
C2383 C2382 1.367 . S
C2383 C2385 1.433 . S
C2384 C2380 1.350 . S
C2384 C2381 1.463 . S
C2384 N2388 1.427 . S
C2385 H2375 0.929 . S
C2385 C2383 1.433 . S
C2385 N2388 1.384 . S
C2386 H2377 0.929 . S
C2386 C2378 1.378 . S
C2386 C2381 1.350 . S
C2387 H2374 0.929 . S
C2387 C2379 1.433 . S
C2387 N2389 1.384 . S
N2388 C2384 1.427 . S
N2388 C2385 1.384 . S
N2389 C2381 1.427 . S
N2389 C2387 1.384 . S
H2390 C2396 0.930 . S
H2391 C2400 0.930 . S
H2392 C2405 0.929 . S
H2393 C2403 0.929 . S
H2394 C2398 0.929 . S
H2395 C2404 0.929 . S
C2396 H2390 0.930 . S
C2396 C2397 1.367 . S
C2396 C2404 1.378 . S
C2397 C2396 1.367 . S
C2397 C2405 1.433 . S
C2398 H2394 0.929 . S
C2398 C2400 1.378 . S
C2398 C2402 1.350 . S
C2399 C2402 1.463 . S
C2399 C2404 1.350 . S
C2399 N2407 1.427 . S
C2400 H2391 0.930 . S
C2400 C2398 1.378 . S
C2400 C2401 1.367 . S
C2401 C2400 1.367 . S
C2401 C2403 1.433 . S
C2402 C2398 1.350 . S
C2402 C2399 1.463 . S
C2402 N2406 1.427 . S
C2403 H2393 0.929 . S
C2403 C2401 1.433 . S
C2403 N2406 1.384 . S
C2404 H2395 0.929 . S
C2404 C2396 1.378 . S
C2404 C2399 1.350 . S
C2405 H2392 0.929 . S
C2405 C2397 1.433 . S
C2405 N2407 1.384 . S
N2406 C2402 1.427 . S
N2406 C2403 1.384 . S
N2407 C2399 1.427 . S
N2407 C2405 1.384 . S
H2408 C2414 0.930 . S
H2409 C2418 0.930 . S
H2410 C2423 0.929 . S
H2411 C2421 0.929 . S
H2412 C2416 0.929 . S
H2413 C2422 0.929 . S
C2414 H2408 0.930 . S
C2414 C2415 1.367 . S
C2414 C2422 1.378 . S
C2415 C2414 1.367 . S
C2415 C2423 1.433 . S
C2416 H2412 0.929 . S
C2416 C2418 1.378 . S
C2416 C2420 1.350 . S
C2417 C2420 1.463 . S
C2417 C2422 1.350 . S
C2417 N2425 1.427 . S
C2418 H2409 0.930 . S
C2418 C2416 1.378 . S
C2418 C2419 1.367 . S
C2419 C2418 1.367 . S
C2419 C2421 1.433 . S
C2420 C2416 1.350 . S
C2420 C2417 1.463 . S
C2420 N2424 1.427 . S
C2421 H2411 0.929 . S
C2421 C2419 1.433 . S
C2421 N2424 1.384 . S
C2422 H2413 0.929 . S
C2422 C2414 1.378 . S
C2422 C2417 1.350 . S
C2423 H2410 0.929 . S
C2423 C2415 1.433 . S
C2423 N2425 1.384 . S
N2424 C2420 1.427 . S
N2424 C2421 1.384 . S
N2425 C2417 1.427 . S
N2425 C2423 1.384 . S
H2426 C2432 0.930 . S
H2427 C2436 0.930 . S
H2428 C2441 0.929 . S
H2429 C2439 0.929 . S
H2430 C2434 0.929 . S
H2431 C2440 0.929 . S
C2432 H2426 0.930 . S
C2432 C2433 1.367 . S
C2432 C2440 1.378 . S
C2433 C2432 1.367 . S
C2433 C2441 1.433 . S
C2434 H2430 0.929 . S
C2434 C2436 1.378 . S
C2434 C2438 1.350 . S
C2435 C2438 1.463 . S
C2435 C2440 1.350 . S
C2435 N2443 1.427 . S
C2436 H2427 0.930 . S
C2436 C2434 1.378 . S
C2436 C2437 1.367 . S
C2437 C2436 1.367 . S
C2437 C2439 1.433 . S
C2438 C2434 1.350 . S
C2438 C2435 1.463 . S
C2438 N2442 1.427 . S
C2439 H2429 0.929 . S
C2439 C2437 1.433 . S
C2439 N2442 1.384 . S
C2440 H2431 0.929 . S
C2440 C2432 1.378 . S
C2440 C2435 1.350 . S
C2441 H2428 0.929 . S
C2441 C2433 1.433 . S
C2441 N2443 1.384 . S
N2442 C2438 1.427 . S
N2442 C2439 1.384 . S
N2443 C2435 1.427 . S
N2443 C2441 1.384 . S
H2444 C2450 0.930 . S
H2445 C2454 0.930 . S
H2446 C2459 0.929 . S
H2447 C2457 0.929 . S
H2448 C2452 0.929 . S
H2449 C2458 0.929 . S
C2450 H2444 0.930 . S
C2450 C2451 1.367 . S
C2450 C2458 1.378 . S
C2451 C2450 1.367 . S
C2451 C2459 1.433 . S
C2452 H2448 0.929 . S
C2452 C2454 1.378 . S
C2452 C2456 1.350 . S
C2453 C2456 1.463 . S
C2453 C2458 1.350 . S
C2453 N2461 1.427 . S
C2454 H2445 0.930 . S
C2454 C2452 1.378 . S
C2454 C2455 1.367 . S
C2455 C2454 1.367 . S
C2455 C2457 1.433 . S
C2456 C2452 1.350 . S
C2456 C2453 1.463 . S
C2456 N2460 1.427 . S
C2457 H2447 0.929 . S
C2457 C2455 1.433 . S
C2457 N2460 1.384 . S
C2458 H2449 0.929 . S
C2458 C2450 1.378 . S
C2458 C2453 1.350 . S
C2459 H2446 0.929 . S
C2459 C2451 1.433 . S
C2459 N2461 1.384 . S
N2460 C2456 1.427 . S
N2460 C2457 1.384 . S
N2461 C2453 1.427 . S
N2461 C2459 1.384 . S
H2462 C2468 0.930 . S
H2463 C2472 0.930 . S
H2464 C2477 0.929 . S
H2465 C2475 0.929 . S
H2466 C2470 0.929 . S
H2467 C2476 0.929 . S
C2468 H2462 0.930 . S
C2468 C2469 1.367 . S
C2468 C2476 1.378 . S
C2469 C2468 1.367 . S
C2469 C2477 1.433 . S
C2470 H2466 0.929 . S
C2470 C2472 1.378 . S
C2470 C2474 1.350 . S
C2471 C2474 1.463 . S
C2471 C2476 1.350 . S
C2471 N2479 1.427 . S
C2472 H2463 0.930 . S
C2472 C2470 1.378 . S
C2472 C2473 1.367 . S
C2473 C2472 1.367 . S
C2473 C2475 1.433 . S
C2474 C2470 1.350 . S
C2474 C2471 1.463 . S
C2474 N2478 1.427 . S
C2475 H2465 0.929 . S
C2475 C2473 1.433 . S
C2475 N2478 1.384 . S
C2476 H2467 0.929 . S
C2476 C2468 1.378 . S
C2476 C2471 1.350 . S
C2477 H2464 0.929 . S
C2477 C2469 1.433 . S
C2477 N2479 1.384 . S
N2478 C2474 1.427 . S
N2478 C2475 1.384 . S
N2479 C2471 1.427 . S
N2479 C2477 1.384 . S
H2480 C2486 0.930 . S
H2481 C2490 0.930 . S
H2482 C2495 0.929 . S
H2483 C2493 0.929 . S
H2484 C2488 0.929 . S
H2485 C2494 0.929 . S
C2486 H2480 0.930 . S
C2486 C2487 1.367 . S
C2486 C2494 1.378 . S
C2487 C2486 1.367 . S
C2487 C2495 1.433 . S
C2488 H2484 0.929 . S
C2488 C2490 1.378 . S
C2488 C2492 1.350 . S
C2489 C2492 1.463 . S
C2489 C2494 1.350 . S
C2489 N2497 1.427 . S
C2490 H2481 0.930 . S
C2490 C2488 1.378 . S
C2490 C2491 1.367 . S
C2491 C2490 1.367 . S
C2491 C2493 1.433 . S
C2492 C2488 1.350 . S
C2492 C2489 1.463 . S
C2492 N2496 1.427 . S
C2493 H2483 0.929 . S
C2493 C2491 1.433 . S
C2493 N2496 1.384 . S
C2494 H2485 0.929 . S
C2494 C2486 1.378 . S
C2494 C2489 1.350 . S
C2495 H2482 0.929 . S
C2495 C2487 1.433 . S
C2495 N2497 1.384 . S
N2496 C2492 1.427 . S
N2496 C2493 1.384 . S
N2497 C2489 1.427 . S
N2497 C2495 1.384 . S
H2498 C2504 0.930 . S
H2499 C2508 0.930 . S
H2500 C2513 0.929 . S
H2501 C2511 0.929 . S
H2502 C2506 0.929 . S
H2503 C2512 0.929 . S
C2504 H2498 0.930 . S
C2504 C2505 1.367 . S
C2504 C2512 1.378 . S
C2505 C2504 1.367 . S
C2505 C2513 1.433 . S
C2506 H2502 0.929 . S
C2506 C2508 1.378 . S
C2506 C2510 1.350 . S
C2507 C2510 1.463 . S
C2507 C2512 1.350 . S
C2507 N2515 1.427 . S
C2508 H2499 0.930 . S
C2508 C2506 1.378 . S
C2508 C2509 1.367 . S
C2509 C2508 1.367 . S
C2509 C2511 1.433 . S
C2510 C2506 1.350 . S
C2510 C2507 1.463 . S
C2510 N2514 1.427 . S
C2511 H2501 0.929 . S
C2511 C2509 1.433 . S
C2511 N2514 1.384 . S
C2512 H2503 0.929 . S
C2512 C2504 1.378 . S
C2512 C2507 1.350 . S
C2513 H2500 0.929 . S
C2513 C2505 1.433 . S
C2513 N2515 1.384 . S
N2514 C2510 1.427 . S
N2514 C2511 1.384 . S
N2515 C2507 1.427 . S
N2515 C2513 1.384 . S
H2516 C2522 0.930 . S
H2517 C2526 0.930 . S
H2518 C2531 0.929 . S
H2519 C2529 0.929 . S
H2520 C2524 0.929 . S
H2521 C2530 0.929 . S
C2522 H2516 0.930 . S
C2522 C2523 1.367 . S
C2522 C2530 1.378 . S
C2523 C2522 1.367 . S
C2523 C2531 1.433 . S
C2524 H2520 0.929 . S
C2524 C2526 1.378 . S
C2524 C2528 1.350 . S
C2525 C2528 1.463 . S
C2525 C2530 1.350 . S
C2525 N2533 1.427 . S
C2526 H2517 0.930 . S
C2526 C2524 1.378 . S
C2526 C2527 1.367 . S
C2527 C2526 1.367 . S
C2527 C2529 1.433 . S
C2528 C2524 1.350 . S
C2528 C2525 1.463 . S
C2528 N2532 1.427 . S
C2529 H2519 0.929 . S
C2529 C2527 1.433 . S
C2529 N2532 1.384 . S
C2530 H2521 0.929 . S
C2530 C2522 1.378 . S
C2530 C2525 1.350 . S
C2531 H2518 0.929 . S
C2531 C2523 1.433 . S
C2531 N2533 1.384 . S
N2532 C2528 1.427 . S
N2532 C2529 1.384 . S
N2533 C2525 1.427 . S
N2533 C2531 1.384 . S
H2534 C2540 0.930 . S
H2535 C2544 0.930 . S
H2536 C2549 0.929 . S
H2537 C2547 0.929 . S
H2538 C2542 0.929 . S
H2539 C2548 0.929 . S
C2540 H2534 0.930 . S
C2540 C2541 1.367 . S
C2540 C2548 1.378 . S
C2541 C2540 1.367 . S
C2541 C2549 1.433 . S
C2542 H2538 0.929 . S
C2542 C2544 1.378 . S
C2542 C2546 1.350 . S
C2543 C2546 1.463 . S
C2543 C2548 1.350 . S
C2543 N2551 1.427 . S
C2544 H2535 0.930 . S
C2544 C2542 1.378 . S
C2544 C2545 1.367 . S
C2545 C2544 1.367 . S
C2545 C2547 1.433 . S
C2546 C2542 1.350 . S
C2546 C2543 1.463 . S
C2546 N2550 1.427 . S
C2547 H2537 0.929 . S
C2547 C2545 1.433 . S
C2547 N2550 1.384 . S
C2548 H2539 0.929 . S
C2548 C2540 1.378 . S
C2548 C2543 1.350 . S
C2549 H2536 0.929 . S
C2549 C2541 1.433 . S
C2549 N2551 1.384 . S
N2550 C2546 1.427 . S
N2550 C2547 1.384 . S
N2551 C2543 1.427 . S
N2551 C2549 1.384 . S
H2552 C2558 0.930 . S
H2553 C2562 0.930 . S
H2554 C2567 0.929 . S
H2555 C2565 0.929 . S
H2556 C2560 0.929 . S
H2557 C2566 0.929 . S
C2558 H2552 0.930 . S
C2558 C2559 1.367 . S
C2558 C2566 1.378 . S
C2559 C2558 1.367 . S
C2559 C2567 1.433 . S
C2560 H2556 0.929 . S
C2560 C2562 1.378 . S
C2560 C2564 1.350 . S
C2561 C2564 1.463 . S
C2561 C2566 1.350 . S
C2561 N2569 1.427 . S
C2562 H2553 0.930 . S
C2562 C2560 1.378 . S
C2562 C2563 1.367 . S
C2563 C2562 1.367 . S
C2563 C2565 1.433 . S
C2564 C2560 1.350 . S
C2564 C2561 1.463 . S
C2564 N2568 1.427 . S
C2565 H2555 0.929 . S
C2565 C2563 1.433 . S
C2565 N2568 1.384 . S
C2566 H2557 0.929 . S
C2566 C2558 1.378 . S
C2566 C2561 1.350 . S
C2567 H2554 0.929 . S
C2567 C2559 1.433 . S
C2567 N2569 1.384 . S
N2568 C2564 1.427 . S
N2568 C2565 1.384 . S
N2569 C2561 1.427 . S
N2569 C2567 1.384 . S
H2570 C2576 0.930 . S
H2571 C2580 0.930 . S
H2572 C2585 0.929 . S
H2573 C2583 0.929 . S
H2574 C2578 0.929 . S
H2575 C2584 0.929 . S
C2576 H2570 0.930 . S
C2576 C2577 1.367 . S
C2576 C2584 1.378 . S
C2577 C2576 1.367 . S
C2577 C2585 1.433 . S
C2578 H2574 0.929 . S
C2578 C2580 1.378 . S
C2578 C2582 1.350 . S
C2579 C2582 1.463 . S
C2579 C2584 1.350 . S
C2579 N2587 1.427 . S
C2580 H2571 0.930 . S
C2580 C2578 1.378 . S
C2580 C2581 1.367 . S
C2581 C2580 1.367 . S
C2581 C2583 1.433 . S
C2582 C2578 1.350 . S
C2582 C2579 1.463 . S
C2582 N2586 1.427 . S
C2583 H2573 0.929 . S
C2583 C2581 1.433 . S
C2583 N2586 1.384 . S
C2584 H2575 0.929 . S
C2584 C2576 1.378 . S
C2584 C2579 1.350 . S
C2585 H2572 0.929 . S
C2585 C2577 1.433 . S
C2585 N2587 1.384 . S
N2586 C2582 1.427 . S
N2586 C2583 1.384 . S
N2587 C2579 1.427 . S
N2587 C2585 1.384 . S
H2588 C2594 0.930 . S
H2589 C2598 0.930 . S
H2590 C2603 0.929 . S
H2591 C2601 0.929 . S
H2592 C2596 0.929 . S
H2593 C2602 0.929 . S
C2594 H2588 0.930 . S
C2594 C2595 1.367 . S
C2594 C2602 1.378 . S
C2595 C2594 1.367 . S
C2595 C2603 1.433 . S
C2596 H2592 0.929 . S
C2596 C2598 1.378 . S
C2596 C2600 1.350 . S
C2597 C2600 1.463 . S
C2597 C2602 1.350 . S
C2597 N2605 1.427 . S
C2598 H2589 0.930 . S
C2598 C2596 1.378 . S
C2598 C2599 1.367 . S
C2599 C2598 1.367 . S
C2599 C2601 1.433 . S
C2600 C2596 1.350 . S
C2600 C2597 1.463 . S
C2600 N2604 1.427 . S
C2601 H2591 0.929 . S
C2601 C2599 1.433 . S
C2601 N2604 1.384 . S
C2602 H2593 0.929 . S
C2602 C2594 1.378 . S
C2602 C2597 1.350 . S
C2603 H2590 0.929 . S
C2603 C2595 1.433 . S
C2603 N2605 1.384 . S
N2604 C2600 1.427 . S
N2604 C2601 1.384 . S
N2605 C2597 1.427 . S
N2605 C2603 1.384 . S
H2606 C2612 0.930 . S
H2607 C2616 0.930 . S
H2608 C2621 0.929 . S
H2609 C2619 0.929 . S
H2610 C2614 0.929 . S
H2611 C2620 0.929 . S
C2612 H2606 0.930 . S
C2612 C2613 1.367 . S
C2612 C2620 1.378 . S
C2613 C2612 1.367 . S
C2613 C2621 1.433 . S
C2614 H2610 0.929 . S
C2614 C2616 1.378 . S
C2614 C2618 1.350 . S
C2615 C2618 1.463 . S
C2615 C2620 1.350 . S
C2615 N2623 1.427 . S
C2616 H2607 0.930 . S
C2616 C2614 1.378 . S
C2616 C2617 1.367 . S
C2617 C2616 1.367 . S
C2617 C2619 1.433 . S
C2618 C2614 1.350 . S
C2618 C2615 1.463 . S
C2618 N2622 1.427 . S
C2619 H2609 0.929 . S
C2619 C2617 1.433 . S
C2619 N2622 1.384 . S
C2620 H2611 0.929 . S
C2620 C2612 1.378 . S
C2620 C2615 1.350 . S
C2621 H2608 0.929 . S
C2621 C2613 1.433 . S
C2621 N2623 1.384 . S
N2622 C2618 1.427 . S
N2622 C2619 1.384 . S
N2623 C2615 1.427 . S
N2623 C2621 1.384 . S
H2624 C2630 0.930 . S
H2625 C2634 0.930 . S
H2626 C2639 0.929 . S
H2627 C2637 0.929 . S
H2628 C2632 0.929 . S
H2629 C2638 0.929 . S
C2630 H2624 0.930 . S
C2630 C2631 1.367 . S
C2630 C2638 1.378 . S
C2631 C2630 1.367 . S
C2631 C2639 1.433 . S
C2632 H2628 0.929 . S
C2632 C2634 1.378 . S
C2632 C2636 1.350 . S
C2633 C2636 1.463 . S
C2633 C2638 1.350 . S
C2633 N2641 1.427 . S
C2634 H2625 0.930 . S
C2634 C2632 1.378 . S
C2634 C2635 1.367 . S
C2635 C2634 1.367 . S
C2635 C2637 1.433 . S
C2636 C2632 1.350 . S
C2636 C2633 1.463 . S
C2636 N2640 1.427 . S
C2637 H2627 0.929 . S
C2637 C2635 1.433 . S
C2637 N2640 1.384 . S
C2638 H2629 0.929 . S
C2638 C2630 1.378 . S
C2638 C2633 1.350 . S
C2639 H2626 0.929 . S
C2639 C2631 1.433 . S
C2639 N2641 1.384 . S
N2640 C2636 1.427 . S
N2640 C2637 1.384 . S
N2641 C2633 1.427 . S
N2641 C2639 1.384 . S
H2642 C2648 0.930 . S
H2643 C2652 0.930 . S
H2644 C2657 0.929 . S
H2645 C2655 0.929 . S
H2646 C2650 0.929 . S
H2647 C2656 0.929 . S
C2648 H2642 0.930 . S
C2648 C2649 1.367 . S
C2648 C2656 1.378 . S
C2649 C2648 1.367 . S
C2649 C2657 1.433 . S
C2650 H2646 0.929 . S
C2650 C2652 1.378 . S
C2650 C2654 1.350 . S
C2651 C2654 1.463 . S
C2651 C2656 1.350 . S
C2651 N2659 1.427 . S
C2652 H2643 0.930 . S
C2652 C2650 1.378 . S
C2652 C2653 1.367 . S
C2653 C2652 1.367 . S
C2653 C2655 1.433 . S
C2654 C2650 1.350 . S
C2654 C2651 1.463 . S
C2654 N2658 1.427 . S
C2655 H2645 0.929 . S
C2655 C2653 1.433 . S
C2655 N2658 1.384 . S
C2656 H2647 0.929 . S
C2656 C2648 1.378 . S
C2656 C2651 1.350 . S
C2657 H2644 0.929 . S
C2657 C2649 1.433 . S
C2657 N2659 1.384 . S
N2658 C2654 1.427 . S
N2658 C2655 1.384 . S
N2659 C2651 1.427 . S
N2659 C2657 1.384 . S
H2660 C2666 0.930 . S
H2661 C2670 0.930 . S
H2662 C2675 0.929 . S
H2663 C2673 0.929 . S
H2664 C2668 0.929 . S
H2665 C2674 0.929 . S
C2666 H2660 0.930 . S
C2666 C2667 1.367 . S
C2666 C2674 1.378 . S
C2667 C2666 1.367 . S
C2667 C2675 1.433 . S
C2668 H2664 0.929 . S
C2668 C2670 1.378 . S
C2668 C2672 1.350 . S
C2669 C2672 1.463 . S
C2669 C2674 1.350 . S
C2669 N2677 1.427 . S
C2670 H2661 0.930 . S
C2670 C2668 1.378 . S
C2670 C2671 1.367 . S
C2671 C2670 1.367 . S
C2671 C2673 1.433 . S
C2672 C2668 1.350 . S
C2672 C2669 1.463 . S
C2672 N2676 1.427 . S
C2673 H2663 0.929 . S
C2673 C2671 1.433 . S
C2673 N2676 1.384 . S
C2674 H2665 0.929 . S
C2674 C2666 1.378 . S
C2674 C2669 1.350 . S
C2675 H2662 0.929 . S
C2675 C2667 1.433 . S
C2675 N2677 1.384 . S
N2676 C2672 1.427 . S
N2676 C2673 1.384 . S
N2677 C2669 1.427 . S
N2677 C2675 1.384 . S
H2678 C2684 0.930 . S
H2679 C2688 0.930 . S
H2680 C2693 0.929 . S
H2681 C2691 0.929 . S
H2682 C2686 0.929 . S
H2683 C2692 0.929 . S
C2684 H2678 0.930 . S
C2684 C2685 1.367 . S
C2684 C2692 1.378 . S
C2685 C2684 1.367 . S
C2685 C2693 1.433 . S
C2686 H2682 0.929 . S
C2686 C2688 1.378 . S
C2686 C2690 1.350 . S
C2687 C2690 1.463 . S
C2687 C2692 1.350 . S
C2687 N2695 1.427 . S
C2688 H2679 0.930 . S
C2688 C2686 1.378 . S
C2688 C2689 1.367 . S
C2689 C2688 1.367 . S
C2689 C2691 1.433 . S
C2690 C2686 1.350 . S
C2690 C2687 1.463 . S
C2690 N2694 1.427 . S
C2691 H2681 0.929 . S
C2691 C2689 1.433 . S
C2691 N2694 1.384 . S
C2692 H2683 0.929 . S
C2692 C2684 1.378 . S
C2692 C2687 1.350 . S
C2693 H2680 0.929 . S
C2693 C2685 1.433 . S
C2693 N2695 1.384 . S
N2694 C2690 1.427 . S
N2694 C2691 1.384 . S
N2695 C2687 1.427 . S
N2695 C2693 1.384 . S
C979 N428 1.826 . S
C975 C8 1.876 . S
C997 C455 1.029 . S
C993 C17 1.006 . S
C1011 C35 1.879 . S
C1015 C469 1.868 . S
C1033 N487 1.449 . S
C1029 C43 1.353 . S
C1047 C56 1.169 . S
C1051 C492 1.215 . S
C1065 C73 1.759 . S
C1069 C432 1.762 1_556 S
C1083 C87 1.471 . S
C1087 N451 1.426 . S
C1105 N464 1.717 . S
C1101 C100 1.754 . S
C1123 N510 1.679 . S
C1119 C9 1.670 . S
C1137 C22 1.420 . S
C1141 N533 1.385 . S
C1155 C34 1.855 . S
C1159 N556 1.809 . S
C1177 N589 1.532 . S
C1173 C47 1.555 . S
C1191 C61 1.387 . S
C1195 C616 1.366 . S
C1213 C639 1.585 . S
C1209 C69 1.542 . S
C1227 C82 1.215 . S
C1231 C662 1.258 . S
C1249 C676 1.874 . S
C1245 C99 1.890 . S
C1263 C4 1.738 . S
C1267 C593 1.835 . S
C1281 C60 1.494 . S
C1285 N635 1.477 1_565 S
C1303 N658 1.685 . S
C1299 C74 1.735 . S
C1317 C86 1.408 . S
C1321 N671 1.339 . S
C1339 N612 1.761 . S
C1335 C95 1.800 . S
C1357 C538 1.458 1_565 S
C1353 C30 1.390 . S
C1371 C48 1.211 . S
C1375 C561 1.226 . S
C1393 C515 1.458 . S
C1389 C21 1.459 . S
C1411 C708 1.832 . S
C1407 C112 1.847 . S
C1425 C121 1.125 . S
C1429 C722 1.154 . S
C1443 C139 1.706 . S
C1447 N750 1.644 . S
C1465 N763 1.476 . S
C1461 C147 1.375 . S
C1479 C160 1.149 . S
C1483 C768 1.194 . S
C1497 C177 1.713 . S
C1501 N704 1.668 . S
C1515 C191 1.498 . S
C1519 N717 1.503 . S
C1533 C204 1.777 . S
C1537 C754 1.780 . S
C1555 N602 1.835 . S
C1551 C113 1.838 . S
C1569 C126 1.486 . S
C1573 N786 1.433 . S
C1591 N648 1.662 . S
C1587 C138 1.698 . S
C1605 C151 1.524 . S
C1609 C823 1.484 . S
C1623 C165 1.258 . S
C1627 C524 1.255 . S
C1645 C837 1.695 . S
C1641 C173 1.640 . S
C1659 C186 1.263 . S
C1663 C570 1.304 . S
C1681 N855 1.801 . S
C1677 C203 1.809 . S
C1695 C108 1.687 . S
C1699 N819 1.708 . S
C1717 N832 1.406 . S
C1713 C164 1.432 . S
C1731 C178 1.842 . S
C1735 N566 1.801 . S
C1753 C860 1.399 . S
C1749 C190 1.417 . S
C1767 C199 1.703 . S
C1771 N520 1.668 . S
C1785 C134 1.288 . S
C1789 C791 1.335 . S
C1803 C152 1.264 . S
C1807 C653 1.279 . S
C1821 C125 1.551 . S
C1825 C607 1.537 . S
C1839 C216 1.931 . S
C1843 C745 1.927 . S
C1861 C777 1.078 . S
C1857 C225 1.059 . S
C1875 C243 1.891 . S
C1879 N694 1.865 . S
C1893 C251 1.355 . S
C1897 N727 1.396 . S
C1911 C264 1.189 . S
C1915 C731 1.207 . S
C1929 C281 1.559 . S
C1933 N740 1.539 . S
C1951 N773 1.387 . S
C1947 C295 1.437 . S
C1965 C308 1.781 . S
C1969 C699 1.795 . S
C1987 N888 1.784 . S
C1983 C217 1.841 . S
C2001 C230 1.397 . S
C2005 N625 1.351 . S
C2023 N911 1.713 . S
C2019 C242 1.769 . S
C2037 C255 1.558 . S
C2041 N681 1.540 . S
C2055 C269 1.361 . S
C2059 C929 1.362 . S
C2073 C277 1.522 . S
C2077 C547 1.570 . S
C2095 N947 1.266 . S
C2091 C290 1.233 . S
C2109 C307 1.904 . S
C2113 C584 1.895 . S
C2131 C685 1.842 . S
C2127 C212 1.754 . S
C2149 N543 1.449 . S
C2145 C268 1.471 . S
C2163 C282 1.769 . S
C2167 C952 1.787 . S
C2181 C294 1.435 . S
C2185 N579 1.354 . S
C2203 N924 1.816 . S
C2199 C303 1.799 . S
C2221 C630 1.489 . S
C2217 C238 1.439 . S
C2239 C915 1.248 . S
C2235 C256 1.222 . S
C2257 C892 1.462 . S
C2253 C229 1.480 . S
C2271 C320 1.768 . S
C2275 N474 1.719 . S
C2289 C329 1.105 . S
C2293 C501 1.119 . S
C2311 C423 1.982 . S
C2307 C347 1.972 . S
C2329 N441 1.455 . S
C2325 C355 1.331 . S
C2347 C446 1.170 . S
C2343 C368 1.118 . S
C2365 C478 1.622 1_556 S
C2361 C385 1.622 . S
C2383 N497 1.437 . S
C2379 C399 1.467 . S
C2397 C412 1.802 . S
C2401 N418 1.757 1_556 S
C2415 C321 1.711 . S
C2419 N934 1.665 . S
C2437 N842 1.424 . S
C2433 C334 1.452 . S
C2455 C961 1.756 . S
C2451 C342 1.726 . S
C2473 C869 1.375 . S
C2469 C359 1.413 . S
C2487 C373 1.402 . S
C2491 C883 1.401 . S
C2509 C800 1.502 . S
C2505 C381 1.464 . S
C2527 C906 1.348 . S
C2523 C394 1.301 . S
C2541 C411 1.840 . S
C2545 N809 1.822 . S
C2563 N865 1.657 . S
C2559 C316 1.633 . S
C2581 N796 1.478 . S
C2577 C372 1.500 . S
C2599 N901 1.772 . S
C2595 C386 1.795 . S
C2613 C398 1.372 . S
C2617 C814 1.364 . S
C2631 C407 1.772 . S
C2635 N878 1.794 . S
C2649 C346 1.707 . S
C2653 C846 1.699 . S
C2667 C360 1.215 . S
C2671 N957 1.185 . S
C2689 C938 1.531 . S
C2685 C333 1.554 . S
