# Generated by pormake.
# Topology anh, (6,3)-cn, num edge types: 1
# Building blocks:
#     Node 0, Type 0, BuildingBlock: CUKXOW_clean_sbu_0, # of connection points: 6
#     Node 1, Type 0, BuildingBlock: CUKXOW_clean_sbu_0, # of connection points: 6
#     Node 2, Type 0, BuildingBlock: CUKXOW_clean_sbu_0, # of connection points: 6
#     Node 3, Type 1, BuildingBlock: PAMTOO_clean_linker_0, # of connection points: 3
#     Node 4, Type 1, BuildingBlock: PAMTOO_clean_linker_0, # of connection points: 3
#     Node 5, Type 1, BuildingBlock: PAMTOO_clean_linker_0, # of connection points: 3
#     Node 6, Type 1, BuildingBlock: PAMTOO_clean_linker_0, # of connection points: 3
#     Node 7, Type 1, BuildingBlock: PAMTOO_clean_linker_0, # of connection points: 3
#     Node 8, Type 1, BuildingBlock: PAMTOO_clean_linker_0, # of connection points: 3
#     Edge 9, Type (0, 1), BuildingBlock: TEMPAE_clean_linker_10, # of connection points: 2
#     Edge 10, Type (0, 1), BuildingBlock: TEMPAE_clean_linker_10, # of connection points: 2
#     Edge 11, Type (0, 1), BuildingBlock: TEMPAE_clean_linker_10, # of connection points: 2
#     Edge 12, Type (0, 1), BuildingBlock: TEMPAE_clean_linker_10, # of connection points: 2
#     Edge 13, Type (0, 1), BuildingBlock: TEMPAE_clean_linker_10, # of connection points: 2
#     Edge 14, Type (0, 1), BuildingBlock: TEMPAE_clean_linker_10, # of connection points: 2
#     Edge 15, Type (0, 1), BuildingBlock: TEMPAE_clean_linker_10, # of connection points: 2
#     Edge 16, Type (0, 1), BuildingBlock: TEMPAE_clean_linker_10, # of connection points: 2
#     Edge 17, Type (0, 1), BuildingBlock: TEMPAE_clean_linker_10, # of connection points: 2
#     Edge 18, Type (0, 1), BuildingBlock: TEMPAE_clean_linker_10, # of connection points: 2
#     Edge 19, Type (0, 1), BuildingBlock: TEMPAE_clean_linker_10, # of connection points: 2
#     Edge 20, Type (0, 1), BuildingBlock: TEMPAE_clean_linker_10, # of connection points: 2
#     Edge 21, Type (0, 1), BuildingBlock: TEMPAE_clean_linker_10, # of connection points: 2
#     Edge 22, Type (0, 1), BuildingBlock: TEMPAE_clean_linker_10, # of connection points: 2
#     Edge 23, Type (0, 1), BuildingBlock: TEMPAE_clean_linker_10, # of connection points: 2
#     Edge 24, Type (0, 1), BuildingBlock: TEMPAE_clean_linker_10, # of connection points: 2
#     Edge 25, Type (0, 1), BuildingBlock: TEMPAE_clean_linker_10, # of connection points: 2
#     Edge 26, Type (0, 1), BuildingBlock: TEMPAE_clean_linker_10, # of connection points: 2
# Relax obj value: 0.106
# Max RMSD: 0.156
# Mean RMSD: 0.125
data_MOF--net-anh--node1-CUKXOW_clean_sbu_0--node2-PAMTOO_clean_linker_0--edge1-TEMPAE_clean_linker_10
_symmetry_space_group_name_H-M    P1
_symmetry_Int_Tables_number       1
_symmetry_cell_setting            triclinic
loop_
_symmetry_equiv_pos_as_xyz
'x, y, z'
_cell_length_a     29.334759
_cell_length_b     28.488291
_cell_length_c     48.595421
_cell_angle_alpha  91.621487
_cell_angle_beta   92.06489
_cell_angle_gamma 112.99299
loop_
_atom_site_label
_atom_site_type_symbol
_atom_site_fract_x
_atom_site_fract_y
_atom_site_fract_z
_atom_type_partial_charge
Tb0 Tb 0.10253 0.53878 0.15658 0.0
C1 C 0.07481 0.49238 0.2153 0.0
Tb2 Tb 0.03784 0.42303 0.16006 0.0
O3 O 0.03793 0.552 0.14007 0.0
O4 O 1.0276 0.49267 0.16593 0.0
O5 O 0.10089 0.53268 0.20122 0.0
C6 C 0.95423 0.33987 0.16045 0.0
O7 O 0.04536 0.44759 0.20344 0.0
C8 C 0.13355 0.43827 0.15692 0.0
C9 C 0.07387 0.46866 0.10266 0.0
O10 O 0.9941 0.34837 0.17586 0.0
O11 O 0.96196 0.3777 0.14445 0.0
O12 O 0.09764 0.39368 0.15887 0.0
O13 O 0.11312 0.47001 0.15679 0.0
O14 O 0.03904 0.4328 0.11577 0.0
O15 O 0.10758 0.51025 0.11538 0.0
C16 C 0.17774 0.63053 0.16029 0.0
O17 O 0.13517 0.62 0.14738 0.0
O18 O 0.17769 0.5896 0.17125 0.0
C19 C 1.00478 0.51243 0.15056 0.0
Tb20 Tb 0.51416 0.99644 0.50527 0.0
C21 C 0.56064 0.03267 0.44841 0.0
Tb22 Tb 0.62637 0.0716 0.50404 0.0
O23 O 0.48212 0.05526 0.5079 0.0
O24 O 0.55672 0.07438 0.50619 0.0
O25 O 0.52675 0.99548 0.46139 0.0
C26 C 0.71342 0.14691 0.49718 0.0
O27 O 0.59867 0.07021 0.46151 0.0
C28 C 0.60813 0.97449 0.51073 0.0
C29 C 0.57745 0.04511 0.56105 0.0
O30 O 0.69733 0.10226 0.4845 0.0
O31 O 0.68049 0.14918 0.51371 0.0
O32 O 0.64848 0.01181 0.52002 0.0
O33 O 0.58287 0.99256 0.49639 0.0
O34 O 0.61286 0.07905 0.54725 0.0
O35 O 0.53896 1.00679 0.54881 0.0
C36 C 0.43571 0.9094 0.50758 0.0
O37 O 0.4778 0.92057 0.52121 0.0
O38 O 0.43764 0.94741 0.49281 0.0
C39 C 0.52486 0.09346 0.50731 0.0
Tb40 Tb 0.56225 0.54338 0.82715 0.0
C41 C 0.60713 0.55854 0.88705 0.0
Tb42 Tb 0.67154 0.57581 0.83536 0.0
O43 O 0.54968 0.47121 0.84612 0.0
O44 O 0.61223 0.50585 0.82375 0.0
O45 O 0.57132 0.56294 0.87124 0.0
C46 C 0.76367 0.58092 0.83815 0.0
O47 O 0.64674 0.55477 0.8766 0.0
C48 C 0.64084 0.65026 0.84352 0.0
C49 C 0.62693 0.56495 0.77475 0.0
O50 O 0.72614 0.54619 0.8489 0.0
O51 O 0.74946 0.61313 0.82585 0.0
O52 O 0.67981 0.64805 0.85588 0.0
O53 O 0.62381 0.61398 0.82562 0.0
O54 O 0.66587 0.56802 0.79051 0.0
O55 O 0.58427 0.5602 0.7851 0.0
C56 C 0.46937 0.5229 0.80975 0.0
O57 O 0.49638 0.49915 0.8015 0.0
O58 O 0.49452 0.55851 0.82823 0.0
C59 C 0.59074 0.46905 0.83874 0.0
H60 H 0.64701 0.08926 0.24664 0.0
H61 H 0.50668 0.96352 0.23041 0.0
H62 H 0.59388 0.0359 0.16296 0.0
H63 H 0.48019 0.98278 0.14447 0.0
C64 C 0.47221 0.96909 0.16565 0.0
O65 O 0.51271 0.96181 0.1769 0.0
H66 H 0.46468 0.99889 0.17776 0.0
C67 C 0.61891 0.06369 0.232 0.0
C68 C 0.62585 0.06808 0.20355 0.0
C69 C 0.57598 0.02648 0.24186 0.0
C70 C 0.53979 0.99281 0.22308 0.0
C71 C 0.54667 0.99602 0.19474 0.0
C72 C 0.58943 0.03358 0.18498 0.0
H73 H 0.60221 0.64345 0.57492 0.0
H74 H 0.6124 0.49965 0.55567 0.0
H75 H 0.57153 0.57898 0.49175 0.0
H76 H 0.52493 0.45739 0.47832 0.0
C77 C 0.54106 0.45388 0.49883 0.0
O78 O 0.58557 0.49541 0.50378 0.0
H79 H 0.5136 0.45351 0.51419 0.0
C80 C 0.5994 0.61328 0.56003 0.0
C81 C 0.58599 0.61686 0.53236 0.0
C82 C 0.6091 0.57136 0.56877 0.0
C83 C 0.60482 0.53217 0.54941 0.0
C84 C 0.59079 0.53455 0.52183 0.0
C85 C 0.58208 0.57723 0.51317 0.0
H86 H 0.0335 0.50701 0.9004 0.0
H87 H 0.11605 0.41322 0.88599 0.0
H88 H 0.08586 0.49534 0.82005 0.0
H89 H 0.0864 0.40199 0.8009 0.0
C90 C 0.1139 0.39717 0.81572 0.0
O91 O 0.13155 0.4375 0.83488 0.0
H92 H 0.09583 0.36065 0.82615 0.0
C93 C 0.0529 0.4914 0.8867 0.0
C94 C 0.05629 0.50444 0.85899 0.0
C95 C 0.07405 0.45837 0.89684 0.0
C96 C 0.09891 0.43838 0.87874 0.0
C97 C 0.10298 0.45194 0.85121 0.0
C98 C 0.08189 0.48485 0.84136 0.0
H99 H 1.01475 0.42119 0.41266 0.0
H100 H 0.14958 0.54944 0.43573 0.0
H101 H 0.06005 0.46069 0.49854 0.0
H102 H 0.11857 0.56859 0.5219 0.0
C103 C 0.13401 0.57979 0.50141 0.0
O104 O 0.14085 0.53881 0.48916 0.0
H105 H 0.10705 0.59034 0.48898 0.0
C106 C 0.04074 0.44535 0.42866 0.0
C107 C 0.03175 0.4357 0.45655 0.0
C108 C 0.08306 0.48621 0.42115 0.0
C109 C 0.11706 0.51757 0.44153 0.0
C110 C 0.10877 0.5079 0.46941 0.0
C111 C 0.06646 0.46693 0.47688 0.0
H112 H 0.61706 0.96449 0.76226 0.0
H113 H 0.63552 0.12025 0.77944 0.0
H114 H 0.64474 0.02733 0.84569 0.0
H115 H 0.61549 0.11737 0.86836 0.0
C116 C 0.6127 0.126 0.84635 0.0
O117 O 0.64957 0.11791 0.83263 0.0
H118 H 0.5751 0.0997 0.8381 0.0
C119 C 0.6242 0.99644 0.7768 0.0
C120 C 0.631 0.99019 0.80499 0.0
C121 C 0.62572 0.04307 0.76722 0.0
C122 C 0.63355 0.08371 0.78636 0.0
C123 C 0.64027 0.07791 0.81455 0.0
C124 C 0.63885 0.03121 0.82387 0.0
H125 H 0.66825 0.48916 0.08578 0.0
H126 H 0.53016 0.50268 0.09962 0.0
H127 H 0.61272 0.47418 0.16764 0.0
H128 H 0.48706 0.42754 0.17367 0.0
C129 C 0.48476 0.44617 0.15418 0.0
O130 O 0.52943 0.48794 0.15188 0.0
H131 H 0.47936 0.41692 0.13729 0.0
C132 C 0.6399 0.48778 0.09984 0.0
C133 C 0.64645 0.48008 0.12796 0.0
C134 C 0.59849 0.49611 0.08958 0.0
C135 C 0.56223 0.4963 0.10748 0.0
C136 C 0.56619 0.48736 0.13544 0.0
C137 C 0.60891 0.47998 0.1459 0.0
C138 C 0.22529 0.49592 0.15339 0.0
C139 C 0.18767 0.44733 0.15594 0.0
C140 C 0.27601 0.50301 0.15284 0.0
C141 C 0.28984 0.46046 0.15456 0.0
C142 C 0.25172 0.41138 0.15687 0.0
C143 C 0.20169 0.40555 0.15759 0.0
C144 C 0.31482 0.55613 0.15043 0.0
C145 C 0.26375 0.36459 0.15866 0.0
C146 C 0.41185 0.45786 0.12907 0.0
C147 C 0.43912 0.46021 0.15385 0.0
C148 C 0.36465 0.46071 0.12887 0.0
C149 C 0.34365 0.46632 0.15405 0.0
C150 C 0.37255 0.472 0.17899 0.0
C151 C 0.4196 0.46892 0.17858 0.0
C152 C 0.33601 0.45473 0.10169 0.0
C153 C 0.35258 0.47852 0.20637 0.0
H154 H 0.21518 0.52842 0.15172 0.0
H155 H 0.17323 0.36772 0.15947 0.0
H156 H 0.34273 0.56566 0.16794 0.0
H157 H 0.33473 0.55798 0.13125 0.0
H158 H 0.29859 0.58544 0.15016 0.0
H159 H 0.23008 0.32906 0.16015 0.0
H160 H 0.28338 0.36054 0.14022 0.0
H161 H 0.28896 0.36872 0.17697 0.0
H162 H 0.42641 0.45117 0.10983 0.0
H163 H 0.44017 0.47084 0.19786 0.0
H164 H 0.3211 0.48489 0.1001 0.0
H165 H 0.30391 0.41739 0.10039 0.0
H166 H 0.35917 0.45649 0.08385 0.0
H167 H 0.33786 0.50893 0.20564 0.0
H168 H 0.38129 0.48824 0.22351 0.0
H169 H 0.32138 0.44255 0.21092 0.0
C170 C 0.79331 0.18222 0.4741 0.0
C171 C 0.7612 0.18882 0.49301 0.0
C172 C 0.83835 0.22229 0.46927 0.0
C173 C 0.85137 0.26988 0.48379 0.0
C174 C 0.81935 0.27644 0.50326 0.0
C175 C 0.77445 0.23571 0.50761 0.0
C176 C 0.8715 0.21402 0.44825 0.0
C177 C 0.83213 0.32665 0.51914 0.0
C178 C 0.98629 0.3617 0.48533 0.0
C179 C 0.98546 0.39401 0.46425 0.0
C180 C 0.94272 0.32148 0.49225 0.0
C181 C 0.89748 0.31342 0.47764 0.0
C182 C 0.89631 0.34628 0.45659 0.0
C183 C 0.94029 0.38631 0.45024 0.0
C184 C 0.94518 0.28719 0.51489 0.0
C185 C 0.8487 0.33884 0.44057 0.0
H186 H 0.78298 0.14586 0.46283 0.0
H187 H 0.74952 0.24073 0.52226 0.0
H188 H 0.87556 0.24016 0.43116 0.0
H189 H 0.90909 0.22312 0.45778 0.0
H190 H 0.85675 0.17417 0.43946 0.0
H191 H 0.80419 0.32476 0.53438 0.0
H192 H 0.86893 0.33831 0.53017 0.0
H193 H 0.83464 0.35689 0.50466 0.0
H194 H 1.02118 0.36727 0.49607 0.0
H195 H 0.93928 0.41179 0.4343 0.0
H196 H 0.93411 0.24756 0.50632 0.0
H197 H 0.9187 0.28629 0.5308 0.0
H198 H 0.98292 0.29981 0.52496 0.0
H199 H 0.83342 0.30063 0.42975 0.0
H200 H 0.85407 0.36822 0.42507 0.0
H201 H 0.82056 0.34026 0.45484 0.0
C202 C 0.59577 0.70145 0.82414 0.0
C203 C 0.63187 0.69775 0.84261 0.0
C204 C 0.5917 0.74847 0.82055 0.0
C205 C 0.62474 0.79272 0.83567 0.0
C206 C 0.65938 0.78846 0.85545 0.0
C207 C 0.66236 0.74095 0.85876 0.0
C208 C 0.55383 0.75128 0.79951 0.0
C209 C 0.69536 0.83462 0.87194 0.0
C210 C 0.65916 0.91837 0.80056 0.0
C211 C 0.63095 0.94091 0.81416 0.0
C212 C 0.65769 0.87045 0.80759 0.0
C213 C 0.6269 0.84408 0.82863 0.0
C214 C 0.59875 0.8669 0.84272 0.0
C215 C 0.60136 0.91531 0.83542 0.0
C216 C 0.68891 0.84791 0.79233 0.0
C217 C 0.56525 0.83976 0.8651 0.0
H218 H 0.57188 0.668 0.81178 0.0
H219 H 0.69008 0.73814 0.87324 0.0
H220 H 0.53288 0.77265 0.80839 0.0
H221 H 0.573 0.77225 0.78162 0.0
H222 H 0.52714 0.71282 0.79196 0.0
H223 H 0.71635 0.82409 0.88843 0.0
H224 H 0.72224 0.86033 0.85801 0.0
H225 H 0.67553 0.85652 0.88149 0.0
H226 H 0.68249 0.93838 0.78432 0.0
H227 H 0.57923 0.93254 0.8458 0.0
H228 H 0.66471 0.81127 0.78156 0.0
H229 H 0.71414 0.83954 0.80712 0.0
H230 H 0.71157 0.87381 0.77687 0.0
H231 H 0.53645 0.80332 0.85649 0.0
H232 H 0.54661 0.86313 0.87446 0.0
H233 H 0.58684 0.83008 0.88157 0.0
C234 C 0.91623 0.46367 0.16511 0.0
C235 C 0.95016 0.50185 0.14981 0.0
C236 C 0.86511 0.45529 0.16453 0.0
C237 C 0.84704 0.48596 0.14841 0.0
C238 C 0.88134 0.52434 0.13291 0.0
C239 C 0.93191 0.53167 0.13379 0.0
C240 C 0.83041 0.4134 0.18112 0.0
C241 C 0.86456 0.55778 0.11512 0.0
C242 C 0.71146 0.44331 0.12132 0.0
C243 C 0.69376 0.47412 0.13728 0.0
C244 C 0.7599 0.44467 0.12569 0.0
C245 C 0.79245 0.47757 0.14674 0.0
C246 C 0.77378 0.50629 0.16414 0.0
C247 C 0.72495 0.50427 0.15924 0.0
C248 C 0.77715 0.41297 0.10657 0.0
C249 C 0.80637 0.54134 0.18712 0.0
H250 H 0.92963 0.44041 0.17765 0.0
H251 H 0.95743 0.56123 0.12182 0.0
H252 H 0.8102 0.42912 0.19509 0.0
H253 H 0.80227 0.38406 0.16713 0.0
H254 H 0.85024 0.39449 0.19361 0.0
H255 H 0.8956 0.58617 0.10446 0.0
H256 H 0.83605 0.53382 0.09934 0.0
H257 H 0.84719 0.5785 0.12791 0.0
H258 H 0.68784 0.41934 0.10446 0.0
H259 H 0.71225 0.52851 0.17167 0.0
H260 H 0.79498 0.39153 0.1185 0.0
H261 H 0.80537 0.43847 0.09319 0.0
H262 H 0.74623 0.3854 0.09319 0.0
H263 H 0.82465 0.52106 0.19966 0.0
H264 H 0.78518 0.55633 0.20084 0.0
H265 H 0.83606 0.57412 0.17824 0.0
C266 C 0.39764 0.81886 0.52058 0.0
C267 C 0.39281 0.86057 0.50819 0.0
C268 C 0.35717 0.77175 0.52072 0.0
C269 C 0.31093 0.76671 0.50837 0.0
C270 C 0.3059 0.80899 0.49604 0.0
C271 C 0.34709 0.85543 0.49598 0.0
C272 C 0.36401 0.72728 0.53373 0.0
C273 C 0.25711 0.80509 0.48276 0.0
C274 C 0.21583 0.63724 0.48331 0.0
C275 C 0.18224 0.62579 0.50437 0.0
C276 C 0.25881 0.68221 0.48483 0.0
C277 C 0.26787 0.717 0.50772 0.0
C278 C 0.23427 0.70557 0.52915 0.0
C279 C 0.19167 0.66012 0.52714 0.0
C280 C 0.29378 0.69314 0.46156 0.0
C281 C 0.24259 0.74202 0.55376 0.0
H282 H 0.43325 0.82285 0.52983 0.0
H283 H 0.34346 0.88781 0.48641 0.0
H284 H 0.33697 0.71212 0.54991 0.0
H285 H 0.35669 0.69593 0.51795 0.0
H286 H 0.40203 0.73794 0.54309 0.0
H287 H 0.25918 0.84193 0.47468 0.0
H288 H 0.24558 0.77591 0.46549 0.0
H289 H 0.22777 0.79259 0.49791 0.0
H290 H 0.20829 0.61136 0.46544 0.0
H291 H 0.1652 0.65177 0.54316 0.0
H292 H 0.33213 0.70178 0.46977 0.0
H293 H 0.29428 0.72729 0.45094 0.0
H294 H 0.28301 0.66064 0.44613 0.0
H295 H 0.27985 0.7512 0.56377 0.0
H296 H 0.2143 0.72626 0.5693 0.0
H297 H 0.24141 0.77838 0.54693 0.0
C298 C 0.64254 0.41899 0.82833 0.0
C299 C 0.60186 0.42294 0.84093 0.0
C300 C 0.65059 0.37342 0.82887 0.0
C301 C 0.61686 0.33092 0.84207 0.0
C302 C 0.57657 0.33543 0.85544 0.0
C303 C 0.56975 0.38141 0.85481 0.0
C304 C 0.69437 0.37036 0.81473 0.0
C305 C 0.53975 0.29118 0.8698 0.0
C306 C 0.5953 0.19405 0.82142 0.0
C307 C 0.61806 0.18051 0.8439 0.0
C308 C 0.5967 0.24375 0.81987 0.0
C309 C 0.62193 0.28083 0.84119 0.0
C310 C 0.64752 0.26803 0.86309 0.0
C311 C 0.64535 0.21795 0.86415 0.0
C312 C 0.56913 0.25583 0.7961 0.0
C313 C 0.6753 0.30655 0.88604 0.0
H314 H 0.66752 0.45115 0.81765 0.0
H315 H 0.53841 0.38441 0.86472 0.0
H316 H 0.71565 0.35539 0.82877 0.0
H317 H 0.68105 0.3434 0.79649 0.0
H318 H 0.71973 0.40808 0.80783 0.0
H319 H 0.51129 0.30142 0.87988 0.0
H320 H 0.52066 0.25884 0.85467 0.0
H321 H 0.55927 0.2776 0.88568 0.0
H322 H 0.57505 0.16522 0.8055 0.0
H323 H 0.66377 0.20761 0.88125 0.0
H324 H 0.59355 0.29107 0.78645 0.0
H325 H 0.53714 0.26292 0.80383 0.0
H326 H 0.55508 0.22426 0.78005 0.0
H327 H 0.70021 0.34279 0.87746 0.0
H328 H 0.69772 0.29239 0.89982 0.0
H329 H 0.64854 0.31536 0.8986 0.0
C330 C 0.63059 0.90469 0.52857 0.0
C331 C 0.5985 0.91957 0.51239 0.0
C332 C 0.6236 0.85312 0.52971 0.0
C333 C 0.58341 0.81528 0.51431 0.0
C334 C 0.55039 0.83004 0.4982 0.0
C335 C 0.5585 0.88208 0.49732 0.0
C336 C 0.65941 0.83916 0.5474 0.0
C337 C 0.50666 0.79094 0.48184 0.0
C338 C 0.60176 0.69125 0.50207 0.0
C339 C 0.57755 0.66304 0.52421 0.0
C340 C 0.60146 0.73976 0.49752 0.0
C341 C 0.57629 0.76045 0.5155 0.0
C342 C 0.54884 0.73047 0.53662 0.0
C343 C 0.54982 0.68225 0.5407 0.0
C344 C 0.63067 0.77017 0.47453 0.0
C345 C 0.52115 0.75061 0.55617 0.0
H346 H 0.66152 0.93351 0.54028 0.0
H347 H 0.53379 0.89345 0.48461 0.0
H348 H 0.63908 0.81226 0.56307 0.0
H349 H 0.6776 0.81948 0.53448 0.0
H350 H 0.68861 0.87307 0.55819 0.0
H351 H 0.48431 0.8086 0.47049 0.0
H352 H 0.51977 0.76951 0.46683 0.0
H353 H 0.48225 0.76285 0.4958 0.0
H354 H 0.62333 0.67674 0.48929 0.0
H355 H 0.53035 0.66026 0.55759 0.0
H356 H 0.66383 0.8026 0.48342 0.0
H357 H 0.60807 0.78641 0.46235 0.0
H358 H 0.64317 0.74669 0.46044 0.0
H359 H 0.54813 0.77986 0.57071 0.0
H360 H 0.49523 0.71993 0.56834 0.0
H361 H 0.49983 0.76928 0.54482 0.0
C362 C 0.82405 0.54549 0.85383 0.0
C363 C 0.81389 0.58165 0.8388 0.0
C364 C 0.87077 0.54334 0.85386 0.0
C365 C 0.9081 0.57817 0.83831 0.0
C366 C 0.89838 0.61555 0.82348 0.0
C367 C 0.85106 0.61684 0.8239 0.0
C368 C 0.87977 0.50307 0.87018 0.0
C369 C 0.93724 0.65304 0.80662 0.0
C370 C 1.02891 0.57667 0.86428 0.0
C371 C 1.02932 0.53499 0.84841 0.0
C372 C 0.99262 0.59617 0.85903 0.0
C373 C 0.95642 0.57339 0.83738 0.0
C374 C 0.96115 0.53639 0.81895 0.0
C375 C 0.99762 0.51736 0.82478 0.0
C376 C 0.9894 0.63648 0.87879 0.0
C377 C 0.92387 0.51208 0.79522 0.0
H378 H 0.79522 0.51837 0.8654 0.0
H379 H 0.84293 0.64474 0.8122 0.0
H380 H 0.88871 0.47687 0.8561 0.0
H381 H 0.91193 0.52124 0.88509 0.0
H382 H 0.84711 0.48 0.88177 0.0
H383 H 0.92662 0.68464 0.80015 0.0
H384 H 0.97356 0.66951 0.81835 0.0
H385 H 0.94228 0.63292 0.78783 0.0
H386 H 0.0545 0.59136 0.8821 0.0
H387 H 0.99812 0.48543 0.81229 0.0
H388 H 0.96109 0.61787 0.8939 0.0
H389 H 0.97786 0.66392 0.86777 0.0
H390 H 1.02535 0.65783 0.89035 0.0
H391 H 0.88959 0.48343 0.8032 0.0
H392 H 0.93824 0.49241 0.77983 0.0
H393 H 0.91367 0.54095 0.78476 0.0
C394 C 0.2165 0.72207 0.14849 0.0
C395 C 0.22017 0.68038 0.16154 0.0
C396 C 0.25703 0.76938 0.14911 0.0
C397 C 0.30218 0.77499 0.16313 0.0
C398 C 0.30593 0.73292 0.17641 0.0
C399 C 0.26483 0.68609 0.17544 0.0
C400 C 0.25162 0.81329 0.13467 0.0
C401 C 0.35341 0.7373 0.19152 0.0
C402 C 0.42082 0.88244 0.1436 0.0
C403 C 0.42761 0.91933 0.16475 0.0
C404 C 0.38013 0.83528 0.14279 0.0
C405 C 0.34561 0.82478 0.16375 0.0
C406 C 0.35271 0.8618 0.18536 0.0
C407 C 0.39388 0.90853 0.1857 0.0
C408 C 0.37414 0.79665 0.11957 0.0
C409 C 0.31683 0.85201 0.2081 0.0
H410 H 0.18199 0.71764 0.13767 0.0
H411 H 0.26776 0.65379 0.18547 0.0
H412 H 0.25937 0.84603 0.14958 0.0
H413 H 0.27911 0.82639 0.11854 0.0
H414 H 0.21393 0.80279 0.12487 0.0
H415 H 0.35018 0.70101 0.20081 0.0
H416 H 0.38407 0.7484 0.17717 0.0
H417 H 0.36383 0.76769 0.20814 0.0
H418 H 0.4475 0.8906 0.12769 0.0
H419 H 0.39973 0.93679 0.20232 0.0
H420 H 0.33811 0.78718 0.10802 0.0
H421 H 0.37378 0.76074 0.12803 0.0
H422 H 0.40431 0.81068 0.10494 0.0
H423 H 0.27904 0.84409 0.19921 0.0
H424 H 0.3275 0.88484 0.22331 0.0
H425 H 0.31494 0.81775 0.2191 0.0
C426 C 0.57967 0.18614 0.50326 0.0
C427 C 0.53277 0.14813 0.50696 0.0
C428 C 0.58664 0.2379 0.50239 0.0
C429 C 0.54547 0.25181 0.50488 0.0
C430 C 0.49802 0.21337 0.50863 0.0
C431 C 0.49233 0.16215 0.50969 0.0
C432 C 0.6379 0.27756 0.49854 0.0
C433 C 0.45299 0.22623 0.51119 0.0
C434 C 0.55733 0.3864 0.52538 0.0
C435 C 0.54842 0.40422 0.49998 0.0
C436 C 0.55905 0.33788 0.52715 0.0
C437 C 0.55117 0.30615 0.50295 0.0
C438 C 0.54421 0.32493 0.4771 0.0
C439 C 0.54315 0.37379 0.47593 0.0
C440 C 0.56718 0.31973 0.55507 0.0
C441 C 0.53548 0.29245 0.4508 0.0
H442 H 0.61075 0.17538 0.50066 0.0
H443 H 0.45591 0.13288 0.51246 0.0
H444 H 0.63825 0.29638 0.47883 0.0
H445 H 0.64835 0.30766 0.51532 0.0
H446 H 0.66639 0.26087 0.49832 0.0
H447 H 0.4188 0.19196 0.5142 0.0
H448 H 0.45897 0.25385 0.52886 0.0
H449 H 0.44707 0.24467 0.49236 0.0
H450 H 0.56129 0.40979 0.54399 0.0
H451 H 0.53644 0.38751 0.45624 0.0
H452 H 0.59653 0.30432 0.55447 0.0
H453 H 0.53262 0.28829 0.56076 0.0
H454 H 0.57789 0.35073 0.57141 0.0
H455 H 0.56492 0.27741 0.44892 0.0
H456 H 0.53456 0.31396 0.43222 0.0
H457 H 0.49961 0.25913 0.45129 0.0
C458 C 0.3954 0.46949 0.7803 0.0
C459 C 0.41659 0.50666 0.8017 0.0
C460 C 0.34395 0.44747 0.77497 0.0
C461 C 0.31335 0.46264 0.79176 0.0
C462 C 0.33491 0.50256 0.81226 0.0
C463 C 0.38652 0.52435 0.81689 0.0
C464 C 0.32239 0.40595 0.75256 0.0
C465 C 0.30337 0.52001 0.83051 0.0
C466 C 0.17735 0.43376 0.78098 0.0
C467 C 0.15823 0.39805 0.80119 0.0
C468 C 0.22763 0.45157 0.77526 0.0
C469 C 0.25901 0.43346 0.79041 0.0
C470 C 0.23852 0.39294 0.80834 0.0
C471 C 0.18815 0.37572 0.81356 0.0
C472 C 0.24794 0.49384 0.75547 0.0
C473 C 0.27073 0.37216 0.82464 0.0
H474 H 0.41889 0.45623 0.76833 0.0
H475 H 0.40309 0.55328 0.83333 0.0
H476 H 0.30731 0.36827 0.762 0.0
H477 H 0.29138 0.41042 0.74073 0.0
H478 H 0.35076 0.40582 0.73804 0.0
H479 H 0.32597 0.55364 0.84417 0.0
H480 H 0.2766 0.53002 0.81779 0.0
H481 H 0.28161 0.48848 0.84359 0.0
H482 H 0.15421 0.45144 0.7717 0.0
H483 H 0.17337 0.34861 0.82943 0.0
H484 H 0.27749 0.48925 0.74344 0.0
H485 H 0.26452 0.53103 0.76728 0.0
H486 H 0.21835 0.49514 0.74096 0.0
H487 H 0.29726 0.36484 0.81124 0.0
H488 H 0.24841 0.33621 0.83451 0.0
H489 H 0.29266 0.40081 0.84106 0.0
C490 C 0.86378 0.296 0.14801 0.0
C491 C 0.90592 0.29733 0.16311 0.0
C492 C 0.81677 0.25813 0.15203 0.0
C493 C 0.81195 0.22094 0.1717 0.0
C494 C 0.85468 0.22156 0.18654 0.0
C495 C 0.90119 0.25977 0.18204 0.0
C496 C 0.77218 0.25887 0.13584 0.0
C497 C 0.85105 0.18285 0.20785 0.0
C498 C 0.69045 0.15747 0.20642 0.0
C499 C 0.67146 0.10836 0.19363 0.0
C500 C 0.73549 0.19482 0.19897 0.0
C501 C 0.7621 0.18304 0.17801 0.0
C502 C 0.74225 0.13427 0.16422 0.0
C503 C 0.69723 0.09742 0.17226 0.0
C504 C 0.75534 0.24641 0.21417 0.0
C505 C 0.76932 0.12054 0.14155 0.0
H506 H 0.86734 0.3253 0.13349 0.0
H507 H 0.93375 0.2609 0.19379 0.0
H508 H 0.75032 0.22068 0.1259 0.0
H509 H 0.74763 0.26802 0.14998 0.0
H510 H 0.78273 0.28753 0.11969 0.0
H511 H 0.88799 0.18732 0.21679 0.0
H512 H 0.8283 0.18689 0.2248 0.0
H513 H 0.83224 0.14359 0.19856 0.0
H514 H 0.67025 0.16661 0.22254 0.0
H515 H 0.68304 0.05952 0.16239 0.0
H516 H 0.76324 0.27721 0.19936 0.0
H517 H 0.79084 0.25245 0.22553 0.0
H518 H 0.7291 0.25023 0.22912 0.0
H519 H 0.77853 0.14957 0.12564 0.0
H520 H 0.74722 0.08245 0.13149 0.0
H521 H 0.80481 0.12037 0.15013 0.0
C522 C 0.09377 0.50454 0.05645 0.0
C523 C 0.07538 0.46183 0.0726 0.0
C524 C 0.09348 0.49886 0.02771 0.0
C525 C 0.07554 0.44922 0.01496 0.0
C526 C 0.0584 0.40592 0.03126 0.0
C527 C 0.05787 0.41275 0.05994 0.0
C528 C 0.11109 0.54598 0.01095 0.0
C529 C 0.0403 0.3525 0.0184 0.0
C530 C 1.02927 0.44158 0.9407 0.0
C531 C 0.07196 0.4475 0.9266 0.0
C532 C 1.02932 0.44013 0.96947 0.0
C533 C 0.07268 0.44312 0.98445 0.0
C534 C 0.11459 0.44498 0.97025 0.0
C535 C 0.11394 0.4477 0.94146 0.0
C536 C 0.984 0.43858 0.98387 0.0
C537 C 0.16104 0.44687 0.98555 0.0
H538 H 0.10705 0.54251 0.06623 0.0
H539 H 0.04416 0.37967 0.07248 0.0
H540 H 0.14192 0.54653 -0.00176 0.0
H541 H 0.08051 0.54537 -0.00338 0.0
H542 H 0.12404 0.58177 0.02409 0.0
H543 H 0.03149 0.32307 0.03412 0.0
H544 H 1.00651 0.3447 0.005 0.0
H545 H 0.06881 0.34869 0.00515 0.0
H546 H 0.9962 0.43992 0.92928 0.0
H547 H 0.14717 0.45244 0.9308 0.0
H548 H 0.99309 0.47487 0.99611 0.0
H549 H 0.97223 0.40727 -0.00156 0.0
H550 H 0.9523 0.43318 0.96914 0.0
H551 H 0.17997 0.4847 -0.00352 0.0
H552 H 0.18737 0.4407 0.97146 0.0
H553 H 0.1517 0.41759 0.00132 0.0
C554 C 0.53326 0.98405 0.40309 0.0
C555 C 0.55765 0.03074 0.41794 0.0
C556 C 0.5333 0.98104 0.3742 0.0
C557 C 0.55744 0.02597 0.35986 0.0
C558 C 0.58066 0.07347 0.37472 0.0
C559 C 0.58095 0.0752 0.40361 0.0
C560 C 0.50897 0.92957 0.35912 0.0
C561 C 0.60598 0.12237 0.36012 0.0
C562 C 0.60635 0.01847 0.28936 0.0
C563 C 0.56947 0.02306 0.27187 0.0
C564 C 0.60214 0.01789 0.31801 0.0
C565 C 0.56053 0.02313 0.32942 0.0
C566 C 0.52287 0.02721 0.31177 0.0
C567 C 0.52757 0.02659 0.28311 0.0
C568 C 0.64256 0.01236 0.33609 0.0
C569 C 0.47842 0.03375 0.32319 0.0
H570 H 0.51551 0.94949 0.41408 0.0
H571 H 0.59951 0.11144 0.415 0.0
H572 H 0.48124 0.9304 0.34322 0.0
H573 H 0.5373 0.92033 0.34829 0.0
H574 H 0.49026 0.89856 0.37323 0.0
H575 H 0.61928 0.15651 0.37454 0.0
H576 H 0.6382 0.12087 0.34943 0.0
H577 H 0.58016 0.12692 0.34418 0.0
H578 H 0.63856 0.01536 0.28056 0.0
H579 H 0.49927 0.03051 0.2695 0.0
H580 H 0.62635 0.98012 0.34982 0.0
H581 H 0.66126 0.04743 0.34946 0.0
H582 H 0.67093 1.00565 0.32389 0.0
H583 H 0.45876 1.00195 0.3366 0.0
H584 H 0.45182 0.03507 0.30667 0.0
H585 H 0.49081 0.06964 0.33616 0.0
C586 C 0.59468 0.57606 0.72832 0.0
C587 C 0.63049 0.56663 0.74449 0.0
C588 C 0.59605 0.57618 0.69956 0.0
C589 C 0.63387 0.56608 0.68656 0.0
C590 C 0.67036 0.5568 0.70271 0.0
C591 C 0.66843 0.5575 0.73157 0.0
C592 C 0.55678 0.58693 0.68309 0.0
C593 C 0.71092 0.5454 0.68948 0.0
C594 C 0.59933 0.52205 0.61163 0.0
C595 C 0.62156 0.56804 0.59837 0.0
C596 C 0.60571 0.52009 0.64027 0.0
C597 C 0.63456 0.56529 0.656 0.0
C598 C 0.65941 0.61111 0.64256 0.0
C599 C 0.65285 0.61184 0.61388 0.0
C600 C 0.57911 0.47033 0.65385 0.0
C601 C 0.69047 0.66012 0.6586 0.0
H602 H 0.56544 0.58353 0.73815 0.0
H603 H 0.69605 0.54989 0.74395 0.0
H604 H 0.57448 0.62012 0.67017 0.0
H605 H 0.53533 0.55367 0.66897 0.0
H606 H 0.53054 0.5951 0.69642 0.0
H607 H 0.73698 0.5399 0.70496 0.0
H608 H 0.69434 0.51035 0.67587 0.0
H609 H 0.73224 0.57699 0.67634 0.0
H610 H 0.57494 0.48807 0.59985 0.0
H611 H 0.67113 0.64723 0.60367 0.0
H612 H 0.54803 0.47272 0.66535 0.0
H613 H 0.6045 0.46286 0.66893 0.0
H614 H 0.56383 0.4375 0.63859 0.0
H615 H 0.66605 0.6732 0.67082 0.0
H616 H 0.71148 0.691 0.64492 0.0
H617 H 0.71708 0.65385 0.67334 0.0
C618 C 0.61965 0.09139 0.60537 0.0
C619 C 0.58197 0.04934 0.5916 0.0
C620 C 0.62629 0.09433 0.63421 0.0
C621 C 0.59466 0.05418 0.64965 0.0
C622 C 0.55568 0.01237 0.63597 0.0
C623 C 0.54973 0.0105 0.60713 0.0
C624 C 0.66812 0.13966 0.64808 0.0
C625 C 0.52127 0.96873 0.65174 0.0
C626 C 0.64357 0.02888 0.71847 0.0
C627 C 0.61975 0.04888 0.73719 0.0
C628 C 0.63618 0.03102 0.68997 0.0
C629 C 0.6044 0.05403 0.67988 0.0
C630 C 0.58123 0.07555 0.69862 0.0
C631 C 0.58918 0.07271 0.72711 0.0
C632 C 0.66177 1.00785 0.67066 0.0
C633 C 0.54724 0.10054 0.68858 0.0
H634 H 0.64456 0.12182 0.59363 0.0
H635 H 0.52047 0.97786 0.59675 0.0
H636 H 0.65393 0.15701 0.66468 0.0
H637 H 0.69587 0.12697 0.65786 0.0
H638 H 0.68708 0.16941 0.63336 0.0
H639 H 0.49098 0.94061 0.63823 0.0
H640 H 0.5426 0.94867 0.66183 0.0
H641 H 0.50455 0.98341 0.66827 0.0
H642 H 0.66799 0.01129 0.72615 0.0
H643 H 0.57044 0.08793 0.74148 0.0
H644 H 0.68456 0.03692 0.65662 0.0
H645 H 0.63371 0.97651 0.65765 0.0
H646 H 0.68611 0.99231 0.68186 0.0
H647 H 0.56655 0.13075 0.67421 0.0
H648 H 0.53415 0.11777 0.70579 0.0
H649 H 0.51447 0.07188 0.67697 0.0
C650 C 0.6449 0.57033 0.93475 0.0
C651 C 0.60224 0.55496 0.91714 0.0
C652 C 0.64154 0.56313 0.96314 0.0
C653 C 0.59437 0.53884 0.97411 0.0
C654 C 0.55103 0.52436 0.95653 0.0
C655 C 0.55548 0.53312 0.92823 0.0
C656 C 0.68862 0.58019 0.98126 0.0
C657 C 0.50015 0.49759 0.96739 0.0
C658 C 0.59673 0.47081 0.03983 0.0
C659 C 0.59377 0.50546 0.06 0.0
C660 C 0.5948 0.48025 0.01172 0.0
C661 C 0.59096 0.52603 0.00366 0.0
C662 C 0.58712 0.56077 0.02398 0.0
C663 C 0.58809 0.54979 0.05195 0.0
C664 C 0.59805 0.44177 0.99069 0.0
C665 C 0.58394 0.61039 0.01625 0.0
H666 H 0.68112 0.58766 0.92626 0.0
H667 H 0.52245 0.52084 0.91461 0.0
H668 H 0.68636 0.60418 -0.00087 0.0
H669 H 0.69337 0.5464 0.98953 0.0
H670 H 0.72199 0.60227 0.96993 0.0
H671 H 0.47011 0.49175 0.95143 0.0
H672 H 0.49639 0.4598 0.97476 0.0
H673 H 0.49501 0.51981 0.98525 0.0
H674 H 0.60069 0.43631 0.04612 0.0
H675 H 0.58612 0.5767 0.06762 0.0
H676 H 0.63316 0.45864 0.97995 0.0
H677 H 0.56713 0.43159 0.97484 0.0
H678 H 0.59678 0.4063 0.0002 0.0
H679 H 0.61865 0.63474 0.00675 0.0
H680 H 0.5783 0.63186 0.03435 0.0
H681 H 0.55305 0.60314 0.0007 0.0
C682 C 0.04068 0.46324 0.26092 0.0
C683 C 0.07806 0.49753 0.24572 0.0
C684 C 0.04416 0.46596 0.28979 0.0
C685 C 0.08642 0.50343 0.30381 0.0
C686 C 0.12401 0.53863 0.28863 0.0
C687 C 0.11921 0.53549 0.25971 0.0
C688 C 1.0029 0.42822 0.30529 0.0
C689 C 0.1698 0.57871 0.3029 0.0
C690 C 0.07151 0.52889 0.37926 0.0
C691 C 0.09039 0.49625 0.39182 0.0
C692 C 0.07185 0.53336 0.35059 0.0
C693 C 0.09157 0.50441 0.33435 0.0
C694 C 0.1126 0.47301 0.34724 0.0
C695 C 0.11146 0.46907 0.37593 0.0
C696 C 0.04885 0.56697 0.33758 0.0
C697 C 0.13423 0.44182 0.33065 0.0
H698 H 1.00856 0.43412 0.25024 0.0
H699 H 0.14837 0.56192 0.24805 0.0
H700 H 1.01734 0.40404 0.31736 0.0
H701 H 0.98855 0.44878 0.32014 0.0
H702 H 0.97157 0.40296 0.29132 0.0
H703 H 0.19478 0.60437 0.28815 0.0
H704 H 0.15922 0.60217 0.31798 0.0
H705 H 0.19067 0.55996 0.31461 0.0
H706 H 0.05484 0.5494 0.39179 0.0
H707 H 0.12562 0.44357 0.38589 0.0
H708 H 1.01462 0.54288 0.32529 0.0
H709 H 0.07454 0.5929 0.32325 0.0
H710 H 0.03915 0.5903 0.35321 0.0
H711 H 0.10425 0.4118 0.3179 0.0
H712 H 0.15312 0.42311 0.34395 0.0
H713 H 0.1612 0.4663 0.31635 0.0
loop_
_geom_bond_atom_site_label_1
_geom_bond_atom_site_label_2
_geom_bond_distance
_geom_bond_site_symmetry_2
_ccdc_geom_bond_type
Tb0 O3 2.453 1_455 S
Tb0 O4 2.596 1_455 S
Tb0 O5 2.374 . S
Tb0 O13 2.343 . S
Tb0 O15 2.353 . S
Tb0 O17 2.427 . S
Tb0 O18 2.513 . S
C1 O5 1.251 1_655 S
C1 O7 1.263 . S
Tb2 O4 2.343 . S
Tb2 O7 2.353 . S
Tb2 O10 2.427 . S
Tb2 O11 2.513 . S
Tb2 O12 2.453 1_655 S
Tb2 O13 2.596 1_655 S
Tb2 O14 2.374 . S
O3 Tb0 2.453 1_655 S
O3 C19 1.245 . S
O4 Tb0 2.596 1_655 S
O4 Tb2 2.343 . S
O4 C19 1.259 . S
O5 Tb0 2.374 . S
O5 C1 1.251 1_455 S
C6 O10 1.275 . S
C6 O11 1.246 . S
O7 C1 1.263 . S
O7 Tb2 2.353 . S
C8 O12 1.245 . S
C8 O13 1.259 . S
C9 O14 1.250 1_455 S
C9 O15 1.263 . S
O10 Tb2 2.427 . S
O10 C6 1.275 . S
O11 Tb2 2.513 . S
O11 C6 1.246 . S
O12 Tb2 2.453 1_455 S
O12 C8 1.245 . S
O13 Tb0 2.343 . S
O13 Tb2 2.596 1_455 S
O13 C8 1.259 . S
O14 Tb2 2.374 . S
O14 C9 1.250 1_655 S
O15 Tb0 2.353 . S
O15 C9 1.263 . S
C16 O17 1.275 . S
C16 O18 1.246 . S
O17 Tb0 2.427 . S
O17 C16 1.275 . S
O18 Tb0 2.513 . S
O18 C16 1.246 . S
C19 O3 1.245 . S
C19 O4 1.259 . S
Tb20 O23 2.453 1_565 S
Tb20 O24 2.596 1_565 S
Tb20 O25 2.374 1_565 S
Tb20 O33 2.343 . S
Tb20 O35 2.353 1_565 S
Tb20 O37 2.427 . S
Tb20 O38 2.513 . S
C21 O25 1.251 . S
C21 O27 1.263 . S
Tb22 O24 2.343 . S
Tb22 O27 2.353 . S
Tb22 O30 2.427 . S
Tb22 O31 2.513 . S
Tb22 O32 2.453 1_545 S
Tb22 O33 2.596 1_545 S
Tb22 O34 2.374 . S
O23 Tb20 2.453 1_545 S
O23 C39 1.245 . S
O24 Tb20 2.596 1_545 S
O24 Tb22 2.343 . S
O24 C39 1.259 . S
O25 Tb20 2.374 1_545 S
O25 C21 1.251 . S
C26 O30 1.275 . S
C26 O31 1.246 . S
O27 C21 1.263 . S
O27 Tb22 2.353 . S
C28 O32 1.245 . S
C28 O33 1.259 . S
C29 O34 1.250 . S
C29 O35 1.263 . S
O30 Tb22 2.427 . S
O30 C26 1.275 . S
O31 Tb22 2.513 . S
O31 C26 1.246 . S
O32 Tb22 2.453 1_565 S
O32 C28 1.245 . S
O33 Tb20 2.343 . S
O33 Tb22 2.596 1_565 S
O33 C28 1.259 . S
O34 Tb22 2.374 . S
O34 C29 1.250 . S
O35 Tb20 2.353 1_545 S
O35 C29 1.263 . S
C36 O37 1.275 . S
C36 O38 1.246 . S
O37 Tb20 2.427 . S
O37 C36 1.275 . S
O38 Tb20 2.513 . S
O38 C36 1.246 . S
C39 O23 1.245 . S
C39 O24 1.259 . S
Tb40 O43 2.453 . S
Tb40 O44 2.596 . S
Tb40 O45 2.374 . S
Tb40 O53 2.343 . S
Tb40 O55 2.353 . S
Tb40 O57 2.427 . S
Tb40 O58 2.513 . S
C41 O45 1.251 . S
C41 O47 1.263 . S
Tb42 O44 2.343 . S
Tb42 O47 2.353 . S
Tb42 O50 2.427 . S
Tb42 O51 2.513 . S
Tb42 O52 2.453 . S
Tb42 O53 2.596 . S
Tb42 O54 2.374 . S
O43 Tb40 2.453 . S
O43 C59 1.245 . S
O44 Tb40 2.596 . S
O44 Tb42 2.343 . S
O44 C59 1.259 . S
O45 Tb40 2.374 . S
O45 C41 1.251 . S
C46 O50 1.275 . S
C46 O51 1.246 . S
O47 C41 1.263 . S
O47 Tb42 2.353 . S
C48 O52 1.245 . S
C48 O53 1.259 . S
C49 O54 1.250 . S
C49 O55 1.263 . S
O50 Tb42 2.427 . S
O50 C46 1.275 . S
O51 Tb42 2.513 . S
O51 C46 1.246 . S
O52 Tb42 2.453 . S
O52 C48 1.245 . S
O53 Tb40 2.343 . S
O53 Tb42 2.596 . S
O53 C48 1.259 . S
O54 Tb42 2.374 . S
O54 C49 1.250 . S
O55 Tb40 2.353 . S
O55 C49 1.263 . S
C56 O57 1.275 . S
C56 O58 1.246 . S
O57 Tb40 2.427 . S
O57 C56 1.275 . S
O58 Tb40 2.513 . S
O58 C56 1.246 . S
C59 O43 1.245 . S
C59 O44 1.259 . S
H60 C67 0.929 . S
H61 C70 0.930 . S
H62 C72 0.929 . S
H63 C64 0.969 . S
C64 H63 0.969 . S
C64 O65 1.550 . S
C64 H66 0.973 . S
O65 C64 1.550 . S
O65 C71 1.412 . S
H66 C64 0.973 . S
C67 H60 0.929 . S
C67 C68 1.400 . S
C67 C69 1.364 . S
C68 C67 1.400 . S
C68 C72 1.377 . S
C69 C67 1.364 . S
C69 C70 1.374 1_545 S
C70 H61 0.930 . S
C70 C69 1.374 1_565 S
C70 C71 1.383 . S
C71 O65 1.412 . S
C71 C70 1.383 . S
C71 C72 1.394 1_565 S
C72 H62 0.929 . S
C72 C68 1.377 . S
C72 C71 1.394 1_545 S
H73 C80 0.929 . S
H74 C83 0.930 . S
H75 C85 0.929 . S
H76 C77 0.969 . S
C77 H76 0.969 . S
C77 O78 1.550 . S
C77 H79 0.973 . S
O78 C77 1.550 . S
O78 C84 1.412 . S
H79 C77 0.973 . S
C80 H73 0.929 . S
C80 C81 1.400 . S
C80 C82 1.364 . S
C81 C80 1.400 . S
C81 C85 1.377 . S
C82 C80 1.364 . S
C82 C83 1.374 . S
C83 H74 0.930 . S
C83 C82 1.374 . S
C83 C84 1.383 . S
C84 O78 1.412 . S
C84 C83 1.383 . S
C84 C85 1.394 . S
C85 H75 0.929 . S
C85 C81 1.377 . S
C85 C84 1.394 . S
H86 C93 0.929 . S
H87 C96 0.930 . S
H88 C98 0.929 . S
H89 C90 0.969 . S
C90 H89 0.969 . S
C90 O91 1.550 . S
C90 H92 0.973 . S
O91 C90 1.550 . S
O91 C97 1.412 . S
H92 C90 0.973 . S
C93 H86 0.929 . S
C93 C94 1.400 . S
C93 C95 1.364 . S
C94 C93 1.400 . S
C94 C98 1.377 . S
C95 C93 1.364 . S
C95 C96 1.374 . S
C96 H87 0.930 . S
C96 C95 1.374 . S
C96 C97 1.383 . S
C97 O91 1.412 . S
C97 C96 1.383 . S
C97 C98 1.394 . S
C98 H88 0.929 . S
C98 C94 1.377 . S
C98 C97 1.394 . S
H99 C106 0.929 . S
H100 C109 0.930 . S
H101 C111 0.929 . S
H102 C103 0.969 . S
C103 H102 0.969 . S
C103 O104 1.550 . S
C103 H105 0.973 . S
O104 C103 1.550 . S
O104 C110 1.412 . S
H105 C103 0.973 . S
C106 H99 0.929 . S
C106 C107 1.400 . S
C106 C108 1.364 1_655 S
C107 C106 1.400 . S
C107 C111 1.377 1_655 S
C108 C106 1.364 1_455 S
C108 C109 1.374 . S
C109 H100 0.930 . S
C109 C108 1.374 . S
C109 C110 1.383 . S
C110 O104 1.412 . S
C110 C109 1.383 . S
C110 C111 1.394 . S
C111 H101 0.929 . S
C111 C107 1.377 1_455 S
C111 C110 1.394 . S
H112 C119 0.929 . S
H113 C122 0.930 . S
H114 C124 0.929 . S
H115 C116 0.969 . S
C116 H115 0.969 . S
C116 O117 1.550 . S
C116 H118 0.973 . S
O117 C116 1.550 . S
O117 C123 1.412 . S
H118 C116 0.973 . S
C119 H112 0.929 . S
C119 C120 1.400 . S
C119 C121 1.364 1_565 S
C120 C119 1.400 . S
C120 C124 1.377 . S
C121 C119 1.364 1_545 S
C121 C122 1.374 . S
C122 H113 0.930 . S
C122 C121 1.374 . S
C122 C123 1.383 . S
C123 O117 1.412 . S
C123 C122 1.383 . S
C123 C124 1.394 1_545 S
C124 H114 0.929 . S
C124 C120 1.377 . S
C124 C123 1.394 1_565 S
H125 C132 0.929 . S
H126 C135 0.930 . S
H127 C137 0.929 . S
H128 C129 0.969 . S
C129 H128 0.969 . S
C129 O130 1.550 . S
C129 H131 0.973 . S
O130 C129 1.550 . S
O130 C136 1.412 . S
H131 C129 0.973 . S
C132 H125 0.929 . S
C132 C133 1.400 . S
C132 C134 1.364 . S
C133 C132 1.400 . S
C133 C137 1.377 . S
C134 C132 1.364 . S
C134 C135 1.374 . S
C135 H126 0.930 . S
C135 C134 1.374 . S
C135 C136 1.383 . S
C136 O130 1.412 . S
C136 C135 1.383 . S
C136 C137 1.394 . S
C137 H127 0.929 . S
C137 C133 1.377 . S
C137 C136 1.394 . S
C138 C139 1.391 . S
C138 C140 1.394 . S
C138 H154 0.931 . S
C139 C138 1.391 . S
C139 C143 1.376 . S
C140 C138 1.394 . S
C140 C141 1.369 . S
C140 C144 1.531 . S
C141 C140 1.369 . S
C141 C142 1.410 . S
C141 C149 1.503 . S
C142 C141 1.410 . S
C142 C143 1.392 . S
C142 C145 1.511 . S
C143 C139 1.376 . S
C143 C142 1.392 . S
C143 H155 0.929 . S
C144 C140 1.531 . S
C144 H156 0.960 . S
C144 H157 0.962 . S
C144 H158 0.960 . S
C145 C142 1.511 . S
C145 H159 0.961 . S
C145 H160 0.961 . S
C145 H161 0.961 . S
C146 C147 1.370 . S
C146 C148 1.363 . S
C146 H162 0.931 . S
C147 C146 1.370 . S
C147 C151 1.408 . S
C148 C146 1.363 . S
C148 C149 1.370 . S
C148 C152 1.524 . S
C149 C141 1.503 . S
C149 C148 1.370 . S
C149 C150 1.403 . S
C150 C149 1.403 . S
C150 C151 1.404 . S
C150 C153 1.539 . S
C151 C147 1.408 . S
C151 C150 1.404 . S
C151 H163 0.930 . S
C152 C148 1.524 . S
C152 H164 0.956 . S
C152 H165 0.961 . S
C152 H166 0.961 . S
C153 C150 1.539 . S
C153 H167 0.958 . S
C153 H168 0.961 . S
C153 H169 0.960 . S
H154 C138 0.931 . S
H155 C143 0.929 . S
H156 C144 0.960 . S
H157 C144 0.962 . S
H158 C144 0.960 . S
H159 C145 0.961 . S
H160 C145 0.961 . S
H161 C145 0.961 . S
H162 C146 0.931 . S
H163 C151 0.930 . S
H164 C152 0.956 . S
H165 C152 0.961 . S
H166 C152 0.961 . S
H167 C153 0.958 . S
H168 C153 0.961 . S
H169 C153 0.960 . S
C170 C171 1.391 . S
C170 C172 1.394 . S
C170 H186 0.931 . S
C171 C170 1.391 . S
C171 C175 1.376 . S
C172 C170 1.394 . S
C172 C173 1.369 . S
C172 C176 1.531 . S
C173 C172 1.369 . S
C173 C174 1.410 . S
C173 C181 1.503 . S
C174 C173 1.410 . S
C174 C175 1.392 . S
C174 C177 1.511 . S
C175 C171 1.376 . S
C175 C174 1.392 . S
C175 H187 0.929 . S
C176 C172 1.531 . S
C176 H188 0.960 . S
C176 H189 0.962 . S
C176 H190 0.960 . S
C177 C174 1.511 . S
C177 H191 0.961 . S
C177 H192 0.961 . S
C177 H193 0.961 . S
C178 C179 1.370 . S
C178 C180 1.363 . S
C178 H194 0.931 . S
C179 C178 1.370 . S
C179 C183 1.408 . S
C180 C178 1.363 . S
C180 C181 1.370 . S
C180 C184 1.524 . S
C181 C173 1.503 . S
C181 C180 1.370 . S
C181 C182 1.403 . S
C182 C181 1.403 . S
C182 C183 1.404 . S
C182 C185 1.539 . S
C183 C179 1.408 . S
C183 C182 1.404 . S
C183 H195 0.930 . S
C184 C180 1.524 . S
C184 H196 0.956 . S
C184 H197 0.961 . S
C184 H198 0.961 . S
C185 C182 1.539 . S
C185 H199 0.958 . S
C185 H200 0.961 . S
C185 H201 0.960 . S
H186 C170 0.931 . S
H187 C175 0.929 . S
H188 C176 0.960 . S
H189 C176 0.962 . S
H190 C176 0.960 . S
H191 C177 0.961 . S
H192 C177 0.961 . S
H193 C177 0.961 . S
H194 C178 0.931 . S
H195 C183 0.930 . S
H196 C184 0.956 . S
H197 C184 0.961 . S
H198 C184 0.961 . S
H199 C185 0.958 . S
H200 C185 0.961 . S
H201 C185 0.960 . S
C202 C203 1.391 . S
C202 C204 1.394 . S
C202 H218 0.931 . S
C203 C202 1.391 . S
C203 C207 1.376 . S
C204 C202 1.394 . S
C204 C205 1.369 . S
C204 C208 1.531 . S
C205 C204 1.369 . S
C205 C206 1.410 . S
C205 C213 1.503 . S
C206 C205 1.410 . S
C206 C207 1.392 . S
C206 C209 1.511 . S
C207 C203 1.376 . S
C207 C206 1.392 . S
C207 H219 0.929 . S
C208 C204 1.531 . S
C208 H220 0.960 . S
C208 H221 0.962 . S
C208 H222 0.960 . S
C209 C206 1.511 . S
C209 H223 0.961 . S
C209 H224 0.961 . S
C209 H225 0.961 . S
C210 C211 1.370 . S
C210 C212 1.363 . S
C210 H226 0.931 . S
C211 C210 1.370 . S
C211 C215 1.408 . S
C212 C210 1.363 . S
C212 C213 1.370 . S
C212 C216 1.524 . S
C213 C205 1.503 . S
C213 C212 1.370 . S
C213 C214 1.403 . S
C214 C213 1.403 . S
C214 C215 1.404 . S
C214 C217 1.539 . S
C215 C211 1.408 . S
C215 C214 1.404 . S
C215 H227 0.930 . S
C216 C212 1.524 . S
C216 H228 0.956 . S
C216 H229 0.961 . S
C216 H230 0.961 . S
C217 C214 1.539 . S
C217 H231 0.958 . S
C217 H232 0.961 . S
C217 H233 0.960 . S
H218 C202 0.931 . S
H219 C207 0.929 . S
H220 C208 0.960 . S
H221 C208 0.962 . S
H222 C208 0.960 . S
H223 C209 0.961 . S
H224 C209 0.961 . S
H225 C209 0.961 . S
H226 C210 0.931 . S
H227 C215 0.930 . S
H228 C216 0.956 . S
H229 C216 0.961 . S
H230 C216 0.961 . S
H231 C217 0.958 . S
H232 C217 0.961 . S
H233 C217 0.960 . S
C234 C235 1.391 . S
C234 C236 1.394 . S
C234 H250 0.931 . S
C235 C234 1.391 . S
C235 C239 1.376 . S
C236 C234 1.394 . S
C236 C237 1.369 . S
C236 C240 1.531 . S
C237 C236 1.369 . S
C237 C238 1.410 . S
C237 C245 1.503 . S
C238 C237 1.410 . S
C238 C239 1.392 . S
C238 C241 1.511 . S
C239 C235 1.376 . S
C239 C238 1.392 . S
C239 H251 0.929 . S
C240 C236 1.531 . S
C240 H252 0.960 . S
C240 H253 0.962 . S
C240 H254 0.960 . S
C241 C238 1.511 . S
C241 H255 0.961 . S
C241 H256 0.961 . S
C241 H257 0.961 . S
C242 C243 1.370 . S
C242 C244 1.363 . S
C242 H258 0.931 . S
C243 C242 1.370 . S
C243 C247 1.408 . S
C244 C242 1.363 . S
C244 C245 1.370 . S
C244 C248 1.524 . S
C245 C237 1.503 . S
C245 C244 1.370 . S
C245 C246 1.403 . S
C246 C245 1.403 . S
C246 C247 1.404 . S
C246 C249 1.539 . S
C247 C243 1.408 . S
C247 C246 1.404 . S
C247 H259 0.930 . S
C248 C244 1.524 . S
C248 H260 0.956 . S
C248 H261 0.961 . S
C248 H262 0.961 . S
C249 C246 1.539 . S
C249 H263 0.958 . S
C249 H264 0.961 . S
C249 H265 0.960 . S
H250 C234 0.931 . S
H251 C239 0.929 . S
H252 C240 0.960 . S
H253 C240 0.962 . S
H254 C240 0.960 . S
H255 C241 0.961 . S
H256 C241 0.961 . S
H257 C241 0.961 . S
H258 C242 0.931 . S
H259 C247 0.930 . S
H260 C248 0.956 . S
H261 C248 0.961 . S
H262 C248 0.961 . S
H263 C249 0.958 . S
H264 C249 0.961 . S
H265 C249 0.960 . S
C266 C267 1.391 . S
C266 C268 1.394 . S
C266 H282 0.931 . S
C267 C266 1.391 . S
C267 C271 1.376 . S
C268 C266 1.394 . S
C268 C269 1.369 . S
C268 C272 1.531 . S
C269 C268 1.369 . S
C269 C270 1.410 . S
C269 C277 1.503 . S
C270 C269 1.410 . S
C270 C271 1.392 . S
C270 C273 1.511 . S
C271 C267 1.376 . S
C271 C270 1.392 . S
C271 H283 0.929 . S
C272 C268 1.531 . S
C272 H284 0.960 . S
C272 H285 0.962 . S
C272 H286 0.960 . S
C273 C270 1.511 . S
C273 H287 0.961 . S
C273 H288 0.961 . S
C273 H289 0.961 . S
C274 C275 1.370 . S
C274 C276 1.363 . S
C274 H290 0.931 . S
C275 C274 1.370 . S
C275 C279 1.408 . S
C276 C274 1.363 . S
C276 C277 1.370 . S
C276 C280 1.524 . S
C277 C269 1.503 . S
C277 C276 1.370 . S
C277 C278 1.403 . S
C278 C277 1.403 . S
C278 C279 1.404 . S
C278 C281 1.539 . S
C279 C275 1.408 . S
C279 C278 1.404 . S
C279 H291 0.930 . S
C280 C276 1.524 . S
C280 H292 0.956 . S
C280 H293 0.961 . S
C280 H294 0.961 . S
C281 C278 1.539 . S
C281 H295 0.958 . S
C281 H296 0.961 . S
C281 H297 0.960 . S
H282 C266 0.931 . S
H283 C271 0.929 . S
H284 C272 0.960 . S
H285 C272 0.962 . S
H286 C272 0.960 . S
H287 C273 0.961 . S
H288 C273 0.961 . S
H289 C273 0.961 . S
H290 C274 0.931 . S
H291 C279 0.930 . S
H292 C280 0.956 . S
H293 C280 0.961 . S
H294 C280 0.961 . S
H295 C281 0.958 . S
H296 C281 0.961 . S
H297 C281 0.960 . S
C298 C299 1.391 . S
C298 C300 1.394 . S
C298 H314 0.931 . S
C299 C298 1.391 . S
C299 C303 1.376 . S
C300 C298 1.394 . S
C300 C301 1.369 . S
C300 C304 1.531 . S
C301 C300 1.369 . S
C301 C302 1.410 . S
C301 C309 1.503 . S
C302 C301 1.410 . S
C302 C303 1.392 . S
C302 C305 1.511 . S
C303 C299 1.376 . S
C303 C302 1.392 . S
C303 H315 0.929 . S
C304 C300 1.531 . S
C304 H316 0.960 . S
C304 H317 0.962 . S
C304 H318 0.960 . S
C305 C302 1.511 . S
C305 H319 0.961 . S
C305 H320 0.961 . S
C305 H321 0.961 . S
C306 C307 1.370 . S
C306 C308 1.363 . S
C306 H322 0.931 . S
C307 C306 1.370 . S
C307 C311 1.408 . S
C308 C306 1.363 . S
C308 C309 1.370 . S
C308 C312 1.524 . S
C309 C301 1.503 . S
C309 C308 1.370 . S
C309 C310 1.403 . S
C310 C309 1.403 . S
C310 C311 1.404 . S
C310 C313 1.539 . S
C311 C307 1.408 . S
C311 C310 1.404 . S
C311 H323 0.930 . S
C312 C308 1.524 . S
C312 H324 0.956 . S
C312 H325 0.961 . S
C312 H326 0.961 . S
C313 C310 1.539 . S
C313 H327 0.958 . S
C313 H328 0.961 . S
C313 H329 0.960 . S
H314 C298 0.931 . S
H315 C303 0.929 . S
H316 C304 0.960 . S
H317 C304 0.962 . S
H318 C304 0.960 . S
H319 C305 0.961 . S
H320 C305 0.961 . S
H321 C305 0.961 . S
H322 C306 0.931 . S
H323 C311 0.930 . S
H324 C312 0.956 . S
H325 C312 0.961 . S
H326 C312 0.961 . S
H327 C313 0.958 . S
H328 C313 0.961 . S
H329 C313 0.960 . S
C330 C331 1.391 . S
C330 C332 1.394 . S
C330 H346 0.931 . S
C331 C330 1.391 . S
C331 C335 1.376 . S
C332 C330 1.394 . S
C332 C333 1.369 . S
C332 C336 1.531 . S
C333 C332 1.369 . S
C333 C334 1.410 . S
C333 C341 1.503 . S
C334 C333 1.410 . S
C334 C335 1.392 . S
C334 C337 1.511 . S
C335 C331 1.376 . S
C335 C334 1.392 . S
C335 H347 0.929 . S
C336 C332 1.531 . S
C336 H348 0.960 . S
C336 H349 0.962 . S
C336 H350 0.960 . S
C337 C334 1.511 . S
C337 H351 0.961 . S
C337 H352 0.961 . S
C337 H353 0.961 . S
C338 C339 1.370 . S
C338 C340 1.363 . S
C338 H354 0.931 . S
C339 C338 1.370 . S
C339 C343 1.408 . S
C340 C338 1.363 . S
C340 C341 1.370 . S
C340 C344 1.524 . S
C341 C333 1.503 . S
C341 C340 1.370 . S
C341 C342 1.403 . S
C342 C341 1.403 . S
C342 C343 1.404 . S
C342 C345 1.539 . S
C343 C339 1.408 . S
C343 C342 1.404 . S
C343 H355 0.930 . S
C344 C340 1.524 . S
C344 H356 0.956 . S
C344 H357 0.961 . S
C344 H358 0.961 . S
C345 C342 1.539 . S
C345 H359 0.958 . S
C345 H360 0.961 . S
C345 H361 0.960 . S
H346 C330 0.931 . S
H347 C335 0.929 . S
H348 C336 0.960 . S
H349 C336 0.962 . S
H350 C336 0.960 . S
H351 C337 0.961 . S
H352 C337 0.961 . S
H353 C337 0.961 . S
H354 C338 0.931 . S
H355 C343 0.930 . S
H356 C344 0.956 . S
H357 C344 0.961 . S
H358 C344 0.961 . S
H359 C345 0.958 . S
H360 C345 0.961 . S
H361 C345 0.960 . S
C362 C363 1.391 . S
C362 C364 1.394 . S
C362 H378 0.931 . S
C363 C362 1.391 . S
C363 C367 1.376 . S
C364 C362 1.394 . S
C364 C365 1.369 . S
C364 C368 1.531 . S
C365 C364 1.369 . S
C365 C366 1.410 . S
C365 C373 1.503 . S
C366 C365 1.410 . S
C366 C367 1.392 . S
C366 C369 1.511 . S
C367 C363 1.376 . S
C367 C366 1.392 . S
C367 H379 0.929 . S
C368 C364 1.531 . S
C368 H380 0.960 . S
C368 H381 0.962 . S
C368 H382 0.960 . S
C369 C366 1.511 . S
C369 H383 0.961 . S
C369 H384 0.961 . S
C369 H385 0.961 . S
C370 C371 1.370 . S
C370 C372 1.363 . S
C370 H386 0.936 . S
C371 C370 1.370 . S
C371 C375 1.408 . S
C372 C370 1.363 . S
C372 C373 1.370 . S
C372 C376 1.524 . S
C373 C365 1.503 . S
C373 C372 1.370 . S
C373 C374 1.403 . S
C374 C373 1.403 . S
C374 C375 1.404 . S
C374 C377 1.539 . S
C375 C371 1.408 . S
C375 C374 1.404 . S
C375 H387 0.930 . S
C376 C372 1.524 . S
C376 H388 0.956 . S
C376 H389 0.961 . S
C376 H390 0.961 . S
C377 C374 1.539 . S
C377 H391 0.958 . S
C377 H392 0.961 . S
C377 H393 0.960 . S
H378 C362 0.931 . S
H379 C367 0.929 . S
H380 C368 0.960 . S
H381 C368 0.962 . S
H382 C368 0.960 . S
H383 C369 0.961 . S
H384 C369 0.961 . S
H385 C369 0.961 . S
H386 C370 0.936 . S
H387 C375 0.930 . S
H388 C376 0.956 . S
H389 C376 0.961 . S
H390 C376 0.961 . S
H391 C377 0.958 . S
H392 C377 0.961 . S
H393 C377 0.960 . S
C394 C395 1.391 . S
C394 C396 1.394 . S
C394 H410 0.931 . S
C395 C394 1.391 . S
C395 C399 1.376 . S
C396 C394 1.394 . S
C396 C397 1.369 . S
C396 C400 1.531 . S
C397 C396 1.369 . S
C397 C398 1.410 . S
C397 C405 1.503 . S
C398 C397 1.410 . S
C398 C399 1.392 . S
C398 C401 1.511 . S
C399 C395 1.376 . S
C399 C398 1.392 . S
C399 H411 0.929 . S
C400 C396 1.531 . S
C400 H412 0.960 . S
C400 H413 0.962 . S
C400 H414 0.960 . S
C401 C398 1.511 . S
C401 H415 0.961 . S
C401 H416 0.961 . S
C401 H417 0.961 . S
C402 C403 1.370 . S
C402 C404 1.363 . S
C402 H418 0.931 . S
C403 C402 1.370 . S
C403 C407 1.408 . S
C404 C402 1.363 . S
C404 C405 1.370 . S
C404 C408 1.524 . S
C405 C397 1.503 . S
C405 C404 1.370 . S
C405 C406 1.403 . S
C406 C405 1.403 . S
C406 C407 1.404 . S
C406 C409 1.539 . S
C407 C403 1.408 . S
C407 C406 1.404 . S
C407 H419 0.930 . S
C408 C404 1.524 . S
C408 H420 0.956 . S
C408 H421 0.961 . S
C408 H422 0.961 . S
C409 C406 1.539 . S
C409 H423 0.958 . S
C409 H424 0.961 . S
C409 H425 0.960 . S
H410 C394 0.931 . S
H411 C399 0.929 . S
H412 C400 0.960 . S
H413 C400 0.962 . S
H414 C400 0.960 . S
H415 C401 0.961 . S
H416 C401 0.961 . S
H417 C401 0.961 . S
H418 C402 0.931 . S
H419 C407 0.930 . S
H420 C408 0.956 . S
H421 C408 0.961 . S
H422 C408 0.961 . S
H423 C409 0.958 . S
H424 C409 0.961 . S
H425 C409 0.960 . S
C426 C427 1.391 . S
C426 C428 1.394 . S
C426 H442 0.931 . S
C427 C426 1.391 . S
C427 C431 1.376 . S
C428 C426 1.394 . S
C428 C429 1.369 . S
C428 C432 1.531 . S
C429 C428 1.369 . S
C429 C430 1.410 . S
C429 C437 1.503 . S
C430 C429 1.410 . S
C430 C431 1.392 . S
C430 C433 1.511 . S
C431 C427 1.376 . S
C431 C430 1.392 . S
C431 H443 0.929 . S
C432 C428 1.531 . S
C432 H444 0.960 . S
C432 H445 0.962 . S
C432 H446 0.960 . S
C433 C430 1.511 . S
C433 H447 0.961 . S
C433 H448 0.961 . S
C433 H449 0.961 . S
C434 C435 1.370 . S
C434 C436 1.363 . S
C434 H450 0.931 . S
C435 C434 1.370 . S
C435 C439 1.408 . S
C436 C434 1.363 . S
C436 C437 1.370 . S
C436 C440 1.524 . S
C437 C429 1.503 . S
C437 C436 1.370 . S
C437 C438 1.403 . S
C438 C437 1.403 . S
C438 C439 1.404 . S
C438 C441 1.539 . S
C439 C435 1.408 . S
C439 C438 1.404 . S
C439 H451 0.930 . S
C440 C436 1.524 . S
C440 H452 0.956 . S
C440 H453 0.961 . S
C440 H454 0.961 . S
C441 C438 1.539 . S
C441 H455 0.958 . S
C441 H456 0.961 . S
C441 H457 0.960 . S
H442 C426 0.931 . S
H443 C431 0.929 . S
H444 C432 0.960 . S
H445 C432 0.962 . S
H446 C432 0.960 . S
H447 C433 0.961 . S
H448 C433 0.961 . S
H449 C433 0.961 . S
H450 C434 0.931 . S
H451 C439 0.930 . S
H452 C440 0.956 . S
H453 C440 0.961 . S
H454 C440 0.961 . S
H455 C441 0.958 . S
H456 C441 0.961 . S
H457 C441 0.960 . S
C458 C459 1.391 . S
C458 C460 1.394 . S
C458 H474 0.931 . S
C459 C458 1.391 . S
C459 C463 1.376 . S
C460 C458 1.394 . S
C460 C461 1.369 . S
C460 C464 1.531 . S
C461 C460 1.369 . S
C461 C462 1.410 . S
C461 C469 1.503 . S
C462 C461 1.410 . S
C462 C463 1.392 . S
C462 C465 1.511 . S
C463 C459 1.376 . S
C463 C462 1.392 . S
C463 H475 0.929 . S
C464 C460 1.531 . S
C464 H476 0.960 . S
C464 H477 0.962 . S
C464 H478 0.960 . S
C465 C462 1.511 . S
C465 H479 0.961 . S
C465 H480 0.961 . S
C465 H481 0.961 . S
C466 C467 1.370 . S
C466 C468 1.363 . S
C466 H482 0.931 . S
C467 C466 1.370 . S
C467 C471 1.408 . S
C468 C466 1.363 . S
C468 C469 1.370 . S
C468 C472 1.524 . S
C469 C461 1.503 . S
C469 C468 1.370 . S
C469 C470 1.403 . S
C470 C469 1.403 . S
C470 C471 1.404 . S
C470 C473 1.539 . S
C471 C467 1.408 . S
C471 C470 1.404 . S
C471 H483 0.930 . S
C472 C468 1.524 . S
C472 H484 0.956 . S
C472 H485 0.961 . S
C472 H486 0.961 . S
C473 C470 1.539 . S
C473 H487 0.958 . S
C473 H488 0.961 . S
C473 H489 0.960 . S
H474 C458 0.931 . S
H475 C463 0.929 . S
H476 C464 0.960 . S
H477 C464 0.962 . S
H478 C464 0.960 . S
H479 C465 0.961 . S
H480 C465 0.961 . S
H481 C465 0.961 . S
H482 C466 0.931 . S
H483 C471 0.930 . S
H484 C472 0.956 . S
H485 C472 0.961 . S
H486 C472 0.961 . S
H487 C473 0.958 . S
H488 C473 0.961 . S
H489 C473 0.960 . S
C490 C491 1.391 . S
C490 C492 1.394 . S
C490 H506 0.931 . S
C491 C490 1.391 . S
C491 C495 1.376 . S
C492 C490 1.394 . S
C492 C493 1.369 . S
C492 C496 1.531 . S
C493 C492 1.369 . S
C493 C494 1.410 . S
C493 C501 1.503 . S
C494 C493 1.410 . S
C494 C495 1.392 . S
C494 C497 1.511 . S
C495 C491 1.376 . S
C495 C494 1.392 . S
C495 H507 0.929 . S
C496 C492 1.531 . S
C496 H508 0.960 . S
C496 H509 0.962 . S
C496 H510 0.960 . S
C497 C494 1.511 . S
C497 H511 0.961 . S
C497 H512 0.961 . S
C497 H513 0.961 . S
C498 C499 1.370 . S
C498 C500 1.363 . S
C498 H514 0.931 . S
C499 C498 1.370 . S
C499 C503 1.408 . S
C500 C498 1.363 . S
C500 C501 1.370 . S
C500 C504 1.524 . S
C501 C493 1.503 . S
C501 C500 1.370 . S
C501 C502 1.403 . S
C502 C501 1.403 . S
C502 C503 1.404 . S
C502 C505 1.539 . S
C503 C499 1.408 . S
C503 C502 1.404 . S
C503 H515 0.930 . S
C504 C500 1.524 . S
C504 H516 0.956 . S
C504 H517 0.961 . S
C504 H518 0.961 . S
C505 C502 1.539 . S
C505 H519 0.958 . S
C505 H520 0.961 . S
C505 H521 0.960 . S
H506 C490 0.931 . S
H507 C495 0.929 . S
H508 C496 0.960 . S
H509 C496 0.962 . S
H510 C496 0.960 . S
H511 C497 0.961 . S
H512 C497 0.961 . S
H513 C497 0.961 . S
H514 C498 0.931 . S
H515 C503 0.930 . S
H516 C504 0.956 . S
H517 C504 0.961 . S
H518 C504 0.961 . S
H519 C505 0.958 . S
H520 C505 0.961 . S
H521 C505 0.960 . S
C522 C523 1.391 . S
C522 C524 1.394 . S
C522 H538 0.931 . S
C523 C522 1.391 . S
C523 C527 1.376 . S
C524 C522 1.394 . S
C524 C525 1.369 . S
C524 C528 1.531 . S
C525 C524 1.369 . S
C525 C526 1.410 . S
C525 C533 1.503 1_554 S
C526 C525 1.410 . S
C526 C527 1.392 . S
C526 C529 1.511 . S
C527 C523 1.376 . S
C527 C526 1.392 . S
C527 H539 0.929 . S
C528 C524 1.531 . S
C528 H540 0.960 . S
C528 H541 0.962 . S
C528 H542 0.960 . S
C529 C526 1.511 . S
C529 H543 0.961 . S
C529 H544 0.933 1_554 S
C529 H545 0.961 . S
C530 C531 1.370 . S
C530 C532 1.363 . S
C530 H546 0.931 1_455 S
C531 C530 1.370 . S
C531 C535 1.408 . S
C532 C530 1.363 . S
C532 C533 1.370 . S
C532 C536 1.524 1_455 S
C533 C525 1.503 1_556 S
C533 C532 1.370 . S
C533 C534 1.403 . S
C534 C533 1.403 . S
C534 C535 1.404 . S
C534 C537 1.539 1_556 S
C535 C531 1.408 . S
C535 C534 1.404 . S
C535 H547 0.930 . S
C536 C532 1.524 1_655 S
C536 H548 0.956 . S
C536 H549 0.961 . S
C536 H550 0.961 . S
C537 C534 1.539 1_554 S
C537 H551 0.958 . S
C537 H552 0.961 1_554 S
C537 H553 0.960 . S
H538 C522 0.931 . S
H539 C527 0.929 . S
H540 C528 0.960 . S
H541 C528 0.962 . S
H542 C528 0.960 . S
H543 C529 0.961 . S
H544 C529 0.933 1_556 S
H545 C529 0.961 . S
H546 C530 0.931 1_655 S
H547 C535 0.930 . S
H548 C536 0.956 . S
H549 C536 0.961 . S
H550 C536 0.961 . S
H551 C537 0.958 . S
H552 C537 0.961 1_556 S
H553 C537 0.960 . S
C554 C555 1.391 1_565 S
C554 C556 1.394 . S
C554 H570 0.931 . S
C555 C554 1.391 1_545 S
C555 C559 1.376 . S
C556 C554 1.394 . S
C556 C557 1.369 1_565 S
C556 C560 1.531 . S
C557 C556 1.369 1_545 S
C557 C558 1.410 . S
C557 C565 1.503 . S
C558 C557 1.410 . S
C558 C559 1.392 . S
C558 C561 1.511 . S
C559 C555 1.376 . S
C559 C558 1.392 . S
C559 H571 0.929 . S
C560 C556 1.531 . S
C560 H572 0.960 . S
C560 H573 0.962 . S
C560 H574 0.960 . S
C561 C558 1.511 . S
C561 H575 0.961 . S
C561 H576 0.961 . S
C561 H577 0.961 . S
C562 C563 1.370 . S
C562 C564 1.363 . S
C562 H578 0.931 . S
C563 C562 1.370 . S
C563 C567 1.408 . S
C564 C562 1.363 . S
C564 C565 1.370 . S
C564 C568 1.524 . S
C565 C557 1.503 . S
C565 C564 1.370 . S
C565 C566 1.403 . S
C566 C565 1.403 . S
C566 C567 1.404 . S
C566 C569 1.539 . S
C567 C563 1.408 . S
C567 C566 1.404 . S
C567 H579 0.930 . S
C568 C564 1.524 . S
C568 H580 0.956 1_545 S
C568 H581 0.961 . S
C568 H582 0.961 . S
C569 C566 1.539 . S
C569 H583 0.958 . S
C569 H584 0.961 . S
C569 H585 0.960 . S
H570 C554 0.931 . S
H571 C559 0.929 . S
H572 C560 0.960 . S
H573 C560 0.962 . S
H574 C560 0.960 . S
H575 C561 0.961 . S
H576 C561 0.961 . S
H577 C561 0.961 . S
H578 C562 0.931 . S
H579 C567 0.930 . S
H580 C568 0.956 1_565 S
H581 C568 0.961 . S
H582 C568 0.961 . S
H583 C569 0.958 . S
H584 C569 0.961 . S
H585 C569 0.960 . S
C586 C587 1.391 . S
C586 C588 1.394 . S
C586 H602 0.931 . S
C587 C586 1.391 . S
C587 C591 1.376 . S
C588 C586 1.394 . S
C588 C589 1.369 . S
C588 C592 1.531 . S
C589 C588 1.369 . S
C589 C590 1.410 . S
C589 C597 1.503 . S
C590 C589 1.410 . S
C590 C591 1.392 . S
C590 C593 1.511 . S
C591 C587 1.376 . S
C591 C590 1.392 . S
C591 H603 0.929 . S
C592 C588 1.531 . S
C592 H604 0.960 . S
C592 H605 0.962 . S
C592 H606 0.960 . S
C593 C590 1.511 . S
C593 H607 0.961 . S
C593 H608 0.961 . S
C593 H609 0.961 . S
C594 C595 1.370 . S
C594 C596 1.363 . S
C594 H610 0.931 . S
C595 C594 1.370 . S
C595 C599 1.408 . S
C596 C594 1.363 . S
C596 C597 1.370 . S
C596 C600 1.524 . S
C597 C589 1.503 . S
C597 C596 1.370 . S
C597 C598 1.403 . S
C598 C597 1.403 . S
C598 C599 1.404 . S
C598 C601 1.539 . S
C599 C595 1.408 . S
C599 C598 1.404 . S
C599 H611 0.930 . S
C600 C596 1.524 . S
C600 H612 0.956 . S
C600 H613 0.961 . S
C600 H614 0.961 . S
C601 C598 1.539 . S
C601 H615 0.958 . S
C601 H616 0.961 . S
C601 H617 0.960 . S
H602 C586 0.931 . S
H603 C591 0.929 . S
H604 C592 0.960 . S
H605 C592 0.962 . S
H606 C592 0.960 . S
H607 C593 0.961 . S
H608 C593 0.961 . S
H609 C593 0.961 . S
H610 C594 0.931 . S
H611 C599 0.930 . S
H612 C600 0.956 . S
H613 C600 0.961 . S
H614 C600 0.961 . S
H615 C601 0.958 . S
H616 C601 0.961 . S
H617 C601 0.960 . S
C618 C619 1.391 . S
C618 C620 1.394 . S
C618 H634 0.931 . S
C619 C618 1.391 . S
C619 C623 1.376 1_545 S
C620 C618 1.394 . S
C620 C621 1.369 . S
C620 C624 1.531 . S
C621 C620 1.369 . S
C621 C622 1.410 1_545 S
C621 C629 1.503 . S
C622 C621 1.410 1_565 S
C622 C623 1.392 . S
C622 C625 1.511 . S
C623 C619 1.376 1_565 S
C623 C622 1.392 . S
C623 H635 0.929 . S
C624 C620 1.531 . S
C624 H636 0.960 . S
C624 H637 0.962 . S
C624 H638 0.960 . S
C625 C622 1.511 . S
C625 H639 0.961 . S
C625 H640 0.961 . S
C625 H641 0.961 1_565 S
C626 C627 1.370 1_565 S
C626 C628 1.363 . S
C626 H642 0.931 . S
C627 C626 1.370 1_545 S
C627 C631 1.408 . S
C628 C626 1.363 . S
C628 C629 1.370 1_565 S
C628 C632 1.524 . S
C629 C621 1.503 . S
C629 C628 1.370 1_545 S
C629 C630 1.403 . S
C630 C629 1.403 . S
C630 C631 1.404 . S
C630 C633 1.539 . S
C631 C627 1.408 . S
C631 C630 1.404 . S
C631 H643 0.930 . S
C632 C628 1.524 . S
C632 H644 0.956 . S
C632 H645 0.961 . S
C632 H646 0.961 . S
C633 C630 1.539 . S
C633 H647 0.958 . S
C633 H648 0.961 . S
C633 H649 0.960 . S
H634 C618 0.931 . S
H635 C623 0.929 . S
H636 C624 0.960 . S
H637 C624 0.962 . S
H638 C624 0.960 . S
H639 C625 0.961 . S
H640 C625 0.961 . S
H641 C625 0.961 1_545 S
H642 C626 0.931 . S
H643 C631 0.930 . S
H644 C632 0.956 . S
H645 C632 0.961 . S
H646 C632 0.961 . S
H647 C633 0.958 . S
H648 C633 0.961 . S
H649 C633 0.960 . S
C650 C651 1.391 . S
C650 C652 1.394 . S
C650 H666 0.931 . S
C651 C650 1.391 . S
C651 C655 1.376 . S
C652 C650 1.394 . S
C652 C653 1.369 . S
C652 C656 1.531 . S
C653 C652 1.369 . S
C653 C654 1.410 . S
C653 C661 1.503 1_556 S
C654 C653 1.410 . S
C654 C655 1.392 . S
C654 C657 1.511 . S
C655 C651 1.376 . S
C655 C654 1.392 . S
C655 H667 0.929 . S
C656 C652 1.531 . S
C656 H668 0.960 1_556 S
C656 H669 0.962 . S
C656 H670 0.960 . S
C657 C654 1.511 . S
C657 H671 0.961 . S
C657 H672 0.961 . S
C657 H673 0.961 . S
C658 C659 1.370 . S
C658 C660 1.363 . S
C658 H674 0.931 . S
C659 C658 1.370 . S
C659 C663 1.408 . S
C660 C658 1.363 . S
C660 C661 1.370 . S
C660 C664 1.524 1_554 S
C661 C653 1.503 1_554 S
C661 C660 1.370 . S
C661 C662 1.403 . S
C662 C661 1.403 . S
C662 C663 1.404 . S
C662 C665 1.539 . S
C663 C659 1.408 . S
C663 C662 1.404 . S
C663 H675 0.930 . S
C664 C660 1.524 1_556 S
C664 H676 0.956 . S
C664 H677 0.961 . S
C664 H678 0.962 1_556 S
C665 C662 1.539 . S
C665 H679 0.958 . S
C665 H680 0.961 . S
C665 H681 0.960 . S
H666 C650 0.931 . S
H667 C655 0.929 . S
H668 C656 0.960 1_554 S
H669 C656 0.962 . S
H670 C656 0.960 . S
H671 C657 0.961 . S
H672 C657 0.961 . S
H673 C657 0.961 . S
H674 C658 0.931 . S
H675 C663 0.930 . S
H676 C664 0.956 . S
H677 C664 0.961 . S
H678 C664 0.962 1_554 S
H679 C665 0.958 . S
H680 C665 0.961 . S
H681 C665 0.960 . S
C682 C683 1.391 . S
C682 C684 1.394 . S
C682 H698 0.931 . S
C683 C682 1.391 . S
C683 C687 1.376 1_655 S
C684 C682 1.394 . S
C684 C685 1.369 . S
C684 C688 1.531 . S
C685 C684 1.369 . S
C685 C686 1.409 1_655 S
C685 C693 1.503 1_655 S
C686 C685 1.409 1_455 S
C686 C687 1.392 . S
C686 C689 1.511 . S
C687 C683 1.376 1_455 S
C687 C686 1.392 . S
C687 H699 0.929 . S
C688 C684 1.531 . S
C688 H700 0.960 . S
C688 H701 0.962 . S
C688 H702 0.960 . S
C689 C686 1.511 . S
C689 H703 0.961 . S
C689 H704 0.961 . S
C689 H705 0.961 . S
C690 C691 1.370 1_655 S
C690 C692 1.363 . S
C690 H706 0.931 . S
C691 C690 1.370 1_455 S
C691 C695 1.408 . S
C692 C690 1.363 . S
C692 C693 1.370 1_655 S
C692 C696 1.524 . S
C693 C685 1.503 1_455 S
C693 C692 1.370 1_455 S
C693 C694 1.403 . S
C694 C693 1.403 . S
C694 C695 1.404 . S
C694 C697 1.539 . S
C695 C691 1.408 . S
C695 C694 1.404 . S
C695 H707 0.930 . S
C696 C692 1.524 . S
C696 H708 0.956 . S
C696 H709 0.961 . S
C696 H710 0.961 . S
C697 C694 1.539 . S
C697 H711 0.958 . S
C697 H712 0.961 . S
C697 H713 0.960 . S
H698 C682 0.931 . S
H699 C687 0.929 . S
H700 C688 0.960 . S
H701 C688 0.962 . S
H702 C688 0.960 . S
H703 C689 0.961 . S
H704 C689 0.961 . S
H705 C689 0.961 . S
H706 C690 0.931 . S
H707 C695 0.930 . S
H708 C696 0.956 . S
H709 C696 0.961 . S
H710 C696 0.961 . S
H711 C697 0.958 . S
H712 C697 0.961 . S
H713 C697 0.960 . S
C139 C8 1.991 . S
C147 C129 1.944 . S
C171 C26 1.284 . S
C179 C107 1.274 . S
C203 C48 1.480 . S
C211 C120 1.505 . S
C235 C19 1.714 . S
C243 C133 1.760 . S
C275 C103 1.479 . S
C267 C36 1.510 . S
C307 C116 1.614 . S
C299 C59 1.653 . S
C331 C28 1.492 . S
C339 C81 1.492 . S
C363 C46 1.114 . S
C371 C94 1.108 1_655 S
C395 C16 1.503 . S
C403 C64 1.414 . S
C435 C77 1.607 . S
C427 C39 1.657 . S
C467 C90 1.043 . S
C459 C56 1.034 . S
C491 C6 1.308 . S
C499 C68 1.310 . S
C531 C95 1.495 . S
C523 C9 1.485 . S
C555 C21 1.531 . S
C563 C69 1.553 . S
C587 C49 1.575 . S
C595 C82 1.590 . S
C627 C121 1.553 . S
C619 C29 1.492 . S
C659 C134 1.626 . S
C651 C41 1.587 . S
C683 C1 1.531 . S
C691 C108 1.575 . S
