# Generated by pormake.
# Topology nom, (4,4)-cn, num edge types: 1
# Building blocks:
#     Node 0, Type 0, BuildingBlock: MIFKUJ_clean_linker_1, # of connection points: 4
#     Node 1, Type 0, BuildingBlock: MIFKUJ_clean_linker_1, # of connection points: 4
#     Node 2, Type 0, BuildingBlock: MIFKUJ_clean_linker_1, # of connection points: 4
#     Node 3, Type 0, BuildingBlock: MIFKUJ_clean_linker_1, # of connection points: 4
#     Node 4, Type 0, BuildingBlock: MIFKUJ_clean_linker_1, # of connection points: 4
#     Node 5, Type 0, BuildingBlock: MIFKUJ_clean_linker_1, # of connection points: 4
#     Node 6, Type 1, BuildingBlock: KUFVIS_clean_sbu_0, # of connection points: 4
#     Node 7, Type 1, BuildingBlock: KUFVIS_clean_sbu_0, # of connection points: 4
#     Node 8, Type 1, BuildingBlock: KUFVIS_clean_sbu_0, # of connection points: 4
#     Node 9, Type 1, BuildingBlock: KUFVIS_clean_sbu_0, # of connection points: 4
#     Node 10, Type 1, BuildingBlock: KUFVIS_clean_sbu_0, # of connection points: 4
#     Node 11, Type 1, BuildingBlock: KUFVIS_clean_sbu_0, # of connection points: 4
#     Edge 12, Type (0, 1), None
#     Edge 13, Type (0, 1), None
#     Edge 14, Type (0, 1), None
#     Edge 15, Type (0, 1), None
#     Edge 16, Type (0, 1), None
#     Edge 17, Type (0, 1), None
#     Edge 18, Type (0, 1), None
#     Edge 19, Type (0, 1), None
#     Edge 20, Type (0, 1), None
#     Edge 21, Type (0, 1), None
#     Edge 22, Type (0, 1), None
#     Edge 23, Type (0, 1), None
#     Edge 24, Type (0, 1), None
#     Edge 25, Type (0, 1), None
#     Edge 26, Type (0, 1), None
#     Edge 27, Type (0, 1), None
#     Edge 28, Type (0, 1), None
#     Edge 29, Type (0, 1), None
#     Edge 30, Type (0, 1), None
#     Edge 31, Type (0, 1), None
#     Edge 32, Type (0, 1), None
#     Edge 33, Type (0, 1), None
#     Edge 34, Type (0, 1), None
#     Edge 35, Type (0, 1), None
# Relax obj value: 0.002
# Max RMSD: 0.103
# Mean RMSD: 0.062
data_MOF--net-nom--node1-KUFVIS_clean_sbu_0--node2-MIFKUJ_clean_linker_1--edge1-none
_symmetry_space_group_name_H-M    P1
_symmetry_Int_Tables_number       1
_symmetry_cell_setting            triclinic
loop_
_symmetry_equiv_pos_as_xyz
'x, y, z'
_cell_length_a     28.3603
_cell_length_b     28.659713
_cell_length_c     30.07915
_cell_angle_alpha  90.671612
_cell_angle_beta   90.86075
_cell_angle_gamma 120.10108
loop_
_atom_site_label
_atom_site_type_symbol
_atom_site_fract_x
_atom_site_fract_y
_atom_site_fract_z
_atom_type_partial_charge
H0 H 0.88082 0.42175 0.27944 0.0
H1 H 0.81951 0.39198 0.21454 0.0
H2 H 0.9279 0.53896 0.1483 0.0
H3 H 0.98654 0.57211 0.21512 0.0
H4 H 0.04776 0.55028 0.25025 0.0
H5 H 0.88684 0.41918 0.38065 0.0
H6 H 0.79588 0.39728 0.40589 0.0
H7 H 0.81554 0.54114 0.34432 0.0
H8 H 0.90508 0.56186 0.31826 0.0
H9 H 0.04543 0.59875 0.44096 0.0
H10 H 0.10383 0.62458 0.50774 0.0
H11 H 0.21062 0.58149 0.44141 0.0
H12 H 0.14855 0.54835 0.37678 0.0
H13 H 0.98306 0.51626 0.40487 0.0
H14 H 0.1466 0.66281 0.3541 0.0
H15 H 0.24197 0.72 0.3344 0.0
H16 H 0.22445 0.60274 0.23471 0.0
H17 H 0.13006 0.54283 0.25702 0.0
C18 C 0.93882 0.49945 0.2527 0.0
C19 C 0.89103 0.44861 0.25173 0.0
C20 C 0.85669 0.43077 0.2141 0.0
C21 C 0.871 0.4619 0.17582 0.0
C22 C 0.91728 0.51349 0.17705 0.0
C23 C 0.95085 0.53218 0.21519 0.0
C24 C 0.97746 0.51739 0.29171 0.0
C25 C 0.03375 0.54339 0.28415 0.0
C26 C 0.95945 0.50898 0.33604 0.0
C27 C 0.90244 0.49198 0.34739 0.0
C28 C 0.87093 0.44532 0.37196 0.0
C29 C 0.81908 0.43278 0.38618 0.0
C30 C 0.79896 0.46768 0.37717 0.0
C31 C 0.83022 0.51369 0.35186 0.0
C32 C 0.88123 0.52545 0.33679 0.0
C33 C 0.09181 0.57079 0.40348 0.0
C34 C 0.0804 0.59306 0.441 0.0
C35 C 0.11396 0.60832 0.47911 0.0
C36 C 0.15994 0.60226 0.48028 0.0
C37 C 0.1735 0.58346 0.44206 0.0
C38 C 0.13873 0.56592 0.40463 0.0
C39 C 0.05411 0.55235 0.3638 0.0
C40 C 0.99767 0.52424 0.37113 0.0
C41 C 0.07252 0.563 0.31933 0.0
C42 C 0.13106 0.59761 0.30797 0.0
C43 C 0.16344 0.64831 0.32902 0.0
C44 C 0.21782 0.6812 0.31755 0.0
C45 C 0.24017 0.6653 0.28335 0.0
C46 C 0.20788 0.6155 0.26136 0.0
C47 C 0.154 0.58153 0.27402 0.0
H48 H 0.37316 0.89117 0.46846 0.0
H49 H 0.31755 0.79656 0.48863 0.0
H50 H 0.43836 0.81741 0.58768 0.0
H51 H 0.49667 0.91103 0.56497 0.0
H52 H 0.48738 0.9906 0.57199 0.0
H53 H 0.43615 0.99209 0.38069 0.0
H54 H 0.41219 0.93432 0.31409 0.0
H55 H 0.45975 0.83221 0.38183 0.0
H56 H 0.49132 0.89385 0.44615 0.0
H57 H 0.60741 0.13781 0.42644 0.0
H58 H 0.64289 0.23214 0.40591 0.0
H59 H 0.54018 0.24708 0.50239 0.0
H60 H 0.50108 0.15183 0.52032 0.0
H61 H 0.51841 0.05544 0.41757 0.0
H62 H 0.61948 0.1536 0.54525 0.0
H63 H 0.64886 0.21416 0.61024 0.0
H64 H 0.49843 0.10802 0.67447 0.0
H65 H 0.46519 0.05127 0.60711 0.0
C66 C 0.43993 0.90846 0.51439 0.0
C67 C 0.38875 0.87528 0.49354 0.0
C68 C 0.35676 0.82131 0.50528 0.0
C69 C 0.37408 0.80009 0.53947 0.0
C70 C 0.42445 0.83309 0.56111 0.0
C71 C 0.4575 0.88658 0.54821 0.0
C72 C 0.47358 0.96665 0.50295 0.0
C73 C 0.49375 1.00477 0.53815 0.0
C74 C 0.48343 0.98519 0.45857 0.0
C75 C 0.46608 0.94797 0.4189 0.0
C76 C 0.44321 0.9583 0.381 0.0
C77 C 0.42907 0.92511 0.34298 0.0
C78 C 0.43688 0.8806 0.34227 0.0
C79 C 0.45646 0.86822 0.38079 0.0
C80 C 0.47297 0.90268 0.4181 0.0
C81 C 0.55195 0.1374 0.47558 0.0
C82 C 0.5921 0.1611 0.44307 0.0
C83 C 0.61274 0.21504 0.43153 0.0
C84 C 0.59484 0.24669 0.45323 0.0
C85 C 0.55529 0.22352 0.48591 0.0
C86 C 0.53315 0.16913 0.49626 0.0
C87 C 0.52845 0.07922 0.48663 0.0
C88 C 0.51111 0.04116 0.45137 0.0
C89 C 0.52057 0.06059 0.53095 0.0
C90 C 0.5398 0.09753 0.57074 0.0
C91 C 0.59199 0.14367 0.57267 0.0
C92 C 0.60956 0.1775 0.61036 0.0
C93 C 0.57724 0.16361 0.64811 0.0
C94 C 0.52481 0.11833 0.6462 0.0
C95 C 0.5061 0.08579 0.60777 0.0
H96 H 0.49862 0.62434 0.72574 0.0
H97 H 0.46398 0.64482 0.79303 0.0
H98 H 0.38674 0.47678 0.82829 0.0
H99 H 0.42094 0.45697 0.76137 0.0
H100 H 0.52024 0.48949 0.74011 0.0
H101 H 0.4945 0.63189 0.61719 0.0
H102 H 0.42425 0.65305 0.59249 0.0
H103 H 0.29967 0.50164 0.64401 0.0
H104 H 0.36957 0.48148 0.66929 0.0
H105 H 0.47288 0.45376 0.54799 0.0
H106 H 0.50348 0.4268 0.48202 0.0
H107 H 0.65418 0.46771 0.55064 0.0
H108 H 0.62695 0.50104 0.61472 0.0
H109 H 0.49455 0.53558 0.58683 0.0
H110 H 0.50835 0.38506 0.63284 0.0
H111 H 0.54375 0.32571 0.65297 0.0
H112 H 0.64374 0.43797 0.75727 0.0
H113 H 0.61217 0.49997 0.73473 0.0
C114 C 0.46247 0.53914 0.73858 0.0
C115 C 0.47371 0.59195 0.74784 0.0
C116 C 0.45414 0.60363 0.78645 0.0
C117 C 0.42282 0.56258 0.81636 0.0
C118 C 0.41084 0.50959 0.80628 0.0
C119 C 0.43049 0.49809 0.76796 0.0
C120 C 0.48599 0.52666 0.69952 0.0
C121 C 0.5153 0.49985 0.70645 0.0
C122 C 0.47767 0.53866 0.65577 0.0
C123 C 0.43716 0.55537 0.64537 0.0
C124 C 0.4521 0.60394 0.62389 0.0
C125 C 0.41206 0.61598 0.60993 0.0
C126 C 0.35658 0.57884 0.6162 0.0
C127 C 0.34208 0.53089 0.63857 0.0
C128 C 0.38198 0.51947 0.65327 0.0
C129 C 0.54756 0.48 0.58677 0.0
C130 C 0.51333 0.45871 0.54862 0.0
C131 C 0.53051 0.4428 0.51097 0.0
C132 C 0.58213 0.44758 0.5107 0.0
C133 C 0.61534 0.46636 0.54929 0.0
C134 C 0.59913 0.4842 0.58636 0.0
C135 C 0.5286 0.49686 0.62677 0.0
C136 C 0.50085 0.52565 0.62026 0.0
C137 C 0.53528 0.48314 0.67086 0.0
C138 C 0.55843 0.44785 0.68146 0.0
C139 C 0.53926 0.39803 0.65902 0.0
C140 C 0.55906 0.36388 0.67077 0.0
C141 C 0.59635 0.37769 0.7065 0.0
C142 C 0.61498 0.42677 0.72956 0.0
C143 C 0.59683 0.46197 0.71669 0.0
H144 H 0.13992 0.6302 0.76748 0.0
H145 H 0.19564 0.64877 0.70122 0.0
H146 H 0.09636 0.48162 0.65893 0.0
H147 H 0.04186 0.46366 0.72472 0.0
H148 H 0.97715 0.49528 0.75125 0.0
H149 H 0.15555 0.63877 0.87132 0.0
H150 H 0.2459 0.65672 0.89735 0.0
H151 H 0.20839 0.49957 0.84732 0.0
H152 H 0.11933 0.48271 0.8204 0.0
H153 H 0.99382 0.44018 0.92976 0.0
H154 H 0.93983 0.40434 0.99581 0.0
H155 H 0.83875 0.4706 0.95535 0.0
H156 H 0.89379 0.50691 0.889 0.0
H157 H 0.0569 0.53717 0.90424 0.0
H158 H 0.91633 0.37991 0.83452 0.0
H159 H 0.82636 0.30704 0.81005 0.0
H160 H 0.78589 0.4245 0.76205 0.0
H161 H 0.87704 0.49748 0.78569 0.0
C162 C 0.08646 0.54555 0.75105 0.0
C163 C 0.13051 0.59761 0.74395 0.0
C164 C 0.16222 0.60821 0.70597 0.0
C165 C 0.15061 0.56681 0.67452 0.0
C166 C 0.10676 0.51469 0.6822 0.0
C167 C 0.07515 0.50429 0.71985 0.0
C168 C 0.0517 0.53354 0.7907 0.0
C169 C 0.99471 0.50577 0.78468 0.0
C170 C 0.07404 0.54437 0.83442 0.0
C171 C 0.13132 0.55975 0.84357 0.0
C172 C 0.16759 0.60896 0.86501 0.0
C173 C 0.21892 0.61902 0.87989 0.0
C174 C 0.23372 0.57925 0.87466 0.0
C175 C 0.19779 0.53069 0.85208 0.0
C176 C 0.1472 0.52122 0.83635 0.0
C177 C 0.94809 0.47645 0.90443 0.0
C178 C 0.96019 0.44723 0.93512 0.0
C179 C 0.92895 0.42647 0.97288 0.0
C180 C 0.8848 0.43458 0.98111 0.0
C181 C 0.87247 0.46366 0.95018 0.0
C182 C 0.90375 0.48427 0.91212 0.0
C183 C 0.98248 0.49892 0.86477 0.0
C184 C 0.03934 0.52927 0.87079 0.0
C185 C 0.96008 0.48625 0.82108 0.0
C186 C 0.90294 0.44389 0.81213 0.0
C187 C 0.8877 0.38995 0.81942 0.0
C188 C 0.83651 0.34842 0.80518 0.0
C189 C 0.79932 0.36018 0.78401 0.0
C190 C 0.81373 0.41439 0.77851 0.0
C191 C 0.86559 0.45601 0.79194 0.0
H192 H 0.66332 0.12321 0.99241 0.0
H193 H 0.73508 0.21359 0.01601 0.0
H194 H 0.61271 0.25182 0.05696 0.0
H195 H 0.54087 0.16033 0.03425 0.0
H196 H 0.5457 0.06129 0.07204 0.0
H197 H 0.60342 0.04763 0.89437 0.0
H198 H 0.63932 0.10173 0.82864 0.0
H199 H 0.56854 0.19851 0.86824 0.0
H200 H 0.53219 0.14331 0.93436 0.0
H201 H 0.41191 0.90149 0.92962 0.0
H202 H 0.3807 0.80745 0.9074 0.0
H203 H 0.49313 0.80318 1.003 0.0
H204 H 0.52776 0.89794 0.02251 0.0
H205 H 0.50348 0.98389 0.91872 0.0
H206 H 0.4072 0.90271 0.05776 0.0
H207 H 0.38924 0.84707 0.12381 0.0
H208 H 0.55976 0.9417 0.16281 0.0
H209 H 0.57706 0.99597 0.09735 0.0
C210 C 0.59701 0.13542 0.01149 0.0
C211 C 0.652 0.15136 1.00589 0.0
C212 C 0.69288 0.20284 0.01954 0.0
C213 C 0.67943 0.23962 0.0384 0.0
C214 C 0.62417 0.22436 0.04224 0.0
C215 C 0.58319 0.17225 0.02942 0.0
C216 C 0.55506 0.07855 1.00238 0.0
C217 C 0.53514 0.04405 0.03858 0.0
C218 C 0.5425 0.05674 0.95871 0.0
C219 C 0.565 0.09125 0.91928 0.0
C220 C 0.59547 0.08039 0.88892 0.0
C221 C 0.61624 0.11171 0.85134 0.0
C222 C 0.60687 0.15468 0.84295 0.0
C223 C 0.57653 0.16578 0.87358 0.0
C224 C 0.5559 0.13439 0.91148 0.0
C225 C 0.47129 0.90679 0.97874 0.0
C226 C 0.4298 0.88036 0.94597 0.0
C227 C 0.41195 0.82682 0.93325 0.0
C228 C 0.43438 0.79861 0.95394 0.0
C229 C 0.47487 0.8243 0.98718 0.0
C230 C 0.49405 0.87825 0.99877 0.0
C231 C 0.49463 0.96545 0.98853 0.0
C232 C 0.5115 1.00053 0.95237 0.0
C233 C 0.50606 0.98763 0.03247 0.0
C234 C 0.49347 0.95376 0.07261 0.0
C235 C 0.44057 0.91124 0.08063 0.0
C236 C 0.43039 0.87946 0.11841 0.0
C237 C 0.47299 0.88965 0.14877 0.0
C238 C 0.52578 0.93231 0.14036 0.0
C239 C 0.53578 0.96387 0.10294 0.0
H240 H 0.49319 0.41978 0.24636 0.0
H241 H 0.52984 0.40147 0.31431 0.0
H242 H 0.67905 0.55384 0.30197 0.0
H243 H 0.64285 0.57083 0.23342 0.0
H244 H 0.51416 0.5512 0.24007 0.0
H245 H 0.54734 0.40662 0.17994 0.0
H246 H 0.60945 0.37455 0.15823 0.0
H247 H 0.68781 0.50664 0.06794 0.0
H248 H 0.62944 0.54102 0.0921 0.0
H249 H 0.56056 0.5924 0.05055 0.0
H250 H 0.52998 0.61992 0.98457 0.0
H251 H 0.38406 0.58879 0.05147 0.0
H252 H 0.41139 0.55597 0.11572 0.0
H253 H 0.52984 0.50618 0.08355 0.0
H254 H 0.56064 0.6696 0.15724 0.0
H255 H 0.54218 0.74065 0.18147 0.0
H256 H 0.39004 0.62043 0.23642 0.0
H257 H 0.40978 0.54945 0.21335 0.0
C258 C 0.5658 0.49616 0.23458 0.0
C259 C 0.53424 0.44856 0.25788 0.0
C260 C 0.55516 0.43822 0.29664 0.0
C261 C 0.60722 0.4763 0.31348 0.0
C262 C 0.63872 0.52385 0.28987 0.0
C263 C 0.6183 0.53349 0.25062 0.0
C264 C 0.54188 0.51009 0.19657 0.0
C265 C 0.51689 0.54072 0.20578 0.0
C266 C 0.54875 0.49935 0.15179 0.0
C267 C 0.58416 0.47708 0.13856 0.0
C268 C 0.57871 0.42952 0.1564 0.0
C269 C 0.6136 0.41065 0.14339 0.0
C270 C 0.65306 0.43793 0.11116 0.0
C271 C 0.65729 0.48436 0.0924 0.0
C272 C 0.62383 0.50407 0.10634 0.0
C273 C 0.4882 0.57142 0.08842 0.0
C274 C 0.52143 0.59045 0.05096 0.0
C275 C 0.50422 0.60645 0.01331 0.0
C276 C 0.45356 0.60377 0.01246 0.0
C277 C 0.4221 0.58854 0.05075 0.0
C278 C 0.43852 0.57119 0.08798 0.0
C279 C 0.5046 0.54967 0.12669 0.0
C280 C 0.5269 0.51659 0.11778 0.0
C281 C 0.50035 0.56253 0.17147 0.0
C282 C 0.4865 0.60441 0.18345 0.0
C283 C 0.52316 0.65855 0.17424 0.0
C284 C 0.51261 0.69903 0.18814 0.0
C285 C 0.46462 0.68597 0.21069 0.0
C286 C 0.4271 0.63152 0.21875 0.0
C287 C 0.43841 0.59108 0.20585 0.0
Mn288 Mn 0.63158 0.38894 0.42261 0.0
Mn289 Mn 0.69887 0.52467 0.43766 0.0
C290 C 0.59946 0.42866 0.47182 0.0
C291 C 0.61403 0.3026 0.44007 0.0
C292 C 0.62797 0.46806 0.35638 0.0
O293 O 0.7069 0.41161 0.39845 0.0
O294 O 0.74779 0.5017 0.41079 0.0
C295 C 0.77896 0.53488 0.50689 0.0
N296 N 0.7384 0.54404 0.49315 0.0
C297 C 0.7443 0.59082 0.56182 0.0
C298 C 0.7864 0.58221 0.57661 0.0
C299 C 0.80372 0.55402 0.54905 0.0
C300 C 0.72151 0.57123 0.51934 0.0
H301 H 0.79222 0.51307 0.48585 0.0
C302 C 0.7479 0.45937 0.39666 0.0
O303 O 0.60188 0.31297 0.40109 0.0
O304 O 0.63836 0.3426 0.46842 0.0
N305 N 0.65634 0.55235 0.46349 0.0
C306 C 0.61209 0.55293 0.44587 0.0
C307 C 0.58793 0.57726 0.47018 0.0
C308 C 0.60974 0.60106 0.51214 0.0
C309 C 0.6556 0.60038 0.52939 0.0
C310 C 0.67813 0.57582 0.50354 0.0
H311 H 0.59508 0.5345 0.41371 0.0
O312 O 0.56669 0.38146 0.45409 0.0
O313 O 0.64995 0.45177 0.45965 0.0
O314 O 0.61333 0.42013 0.36809 0.0
O315 O 0.65952 0.50985 0.38 0.0
C316 C 0.67878 0.62159 0.57181 0.0
C317 C 0.72308 0.61679 0.58802 0.0
H318 H 0.80529 0.59649 0.60925 0.0
H319 H 0.83596 0.54694 0.56034 0.0
H320 H 0.55243 0.57744 0.45671 0.0
H321 H 0.59057 0.61918 0.53103 0.0
H322 H 0.66211 0.64064 0.59263 0.0
H323 H 0.73987 0.63233 0.62103 0.0
Mn324 Mn 0.26856 0.65792 0.57032 0.0
Mn325 Mn 0.19816 0.52275 0.55258 0.0
C326 C 0.1962 0.61969 0.51987 0.0
C327 C 0.33793 0.74432 0.55327 0.0
C328 C 0.18284 0.57698 0.63352 0.0
O329 O 0.32127 0.6352 0.59467 0.0
O330 O 0.26983 0.54526 0.58231 0.0
C331 C 0.2702 0.5149 0.48634 0.0
N332 N 0.21985 0.50498 0.49806 0.0
C333 C 0.18038 0.45958 0.42797 0.0
C334 C 0.23176 0.46899 0.41528 0.0
C335 C 0.27686 0.49686 0.44456 0.0
C336 C 0.17613 0.47809 0.47018 0.0
H337 H 0.30499 0.53647 0.50869 0.0
C338 C 0.31337 0.58732 0.5968 0.0
O339 O 0.31629 0.73392 0.59222 0.0
O340 O 0.32131 0.70434 0.52506 0.0
N341 N 0.12824 0.49528 0.52386 0.0
C342 C 0.08271 0.49385 0.53955 0.0
C343 C 0.03454 0.46967 0.51335 0.0
C344 C 0.03352 0.4468 0.47154 0.0
C345 C 0.08073 0.44827 0.4563 0.0
C346 C 0.12749 0.47268 0.48397 0.0
H347 H 0.08332 0.51154 0.5716 0.0
O348 O 0.21109 0.66622 0.53859 0.0
O349 O 0.22329 0.59616 0.53188 0.0
O350 O 0.21895 0.62517 0.62422 0.0
O351 O 0.1718 0.53628 0.60861 0.0
C352 C 0.08375 0.42813 0.41413 0.0
C353 C 0.13355 0.43381 0.39997 0.0
H354 H 0.23717 0.45554 0.38293 0.0
H355 H 0.31669 0.50455 0.43488 0.0
H356 H 0.99833 0.46887 0.52527 0.0
H357 H 0.99649 0.4288 0.45119 0.0
H358 H 0.04833 0.40925 0.39194 0.0
H359 H 0.13562 0.41911 0.36713 0.0
Mn360 Mn 0.63058 0.27048 0.73798 0.0
Mn361 Mn 0.69734 0.20191 0.7218 0.0
C362 C 0.59629 0.19908 0.68783 0.0
C363 C 0.61376 0.33959 0.72025 0.0
C364 C 0.62817 0.18649 0.80198 0.0
O365 O 0.70625 0.32259 0.76305 0.0
O366 O 0.74699 0.27333 0.75103 0.0
C367 C 0.77597 0.27271 0.65541 0.0
N368 N 0.73578 0.22297 0.66735 0.0
C369 C 0.74051 0.18342 0.59772 0.0
C370 C 0.78222 0.23416 0.58481 0.0
C371 C 0.79994 0.279 0.61376 0.0
C372 C 0.71854 0.1795 0.63982 0.0
H373 H 0.78955 0.30729 0.6775 0.0
C374 C 0.74742 0.31592 0.76531 0.0
O375 O 0.6023 0.31783 0.7591 0.0
O376 O 0.63664 0.32275 0.69239 0.0
N377 N 0.65446 0.13245 0.69354 0.0
C378 C 0.61048 0.08756 0.70928 0.0
C379 C 0.58588 0.03977 0.68332 0.0
C380 C 0.60699 0.03848 0.64166 0.0
C381 C 0.65258 0.08505 0.62635 0.0
C382 C 0.67556 0.13146 0.65378 0.0
H383 H 0.59393 0.0884 0.74118 0.0
O384 O 0.56429 0.21374 0.70581 0.0
O385 O 0.64743 0.22603 0.70031 0.0
O386 O 0.61458 0.22141 0.79192 0.0
O387 O 0.65859 0.17623 0.77783 0.0
C388 C 0.67496 0.08776 0.5843 0.0
C389 C 0.71889 0.1369 0.57 0.0
H390 H 0.80048 0.2393 0.55255 0.0
H391 H 0.83189 0.31835 0.60392 0.0
H392 H 0.55057 1.00407 0.69528 0.0
H393 H 0.58747 1.00174 0.62149 0.0
H394 H 0.65792 0.05258 0.5623 0.0
H395 H 0.73504 0.13873 0.53725 0.0
Mn396 Mn 0.40151 0.65724 0.92272 0.0
Mn397 Mn 0.33389 0.52277 0.93838 0.0
C398 C 0.43514 0.62045 0.97299 0.0
C399 C 0.41758 0.74312 0.94029 0.0
C400 C 0.40292 0.57417 0.85813 0.0
O401 O 0.3263 0.63401 0.89689 0.0
O402 O 0.28452 0.54469 0.90948 0.0
C403 C 0.25629 0.51795 1.00541 0.0
N404 N 0.29604 0.50736 0.9931 0.0
C405 C 0.29189 0.46506 0.06272 0.0
C406 C 0.25063 0.4752 0.07604 0.0
C407 C 0.23285 0.50186 0.04729 0.0
C408 C 0.31346 0.48171 0.02049 0.0
H409 H 0.24266 0.53859 0.98345 0.0
C410 C 0.28483 0.58664 0.89469 0.0
O411 O 0.42996 0.73212 0.90169 0.0
O412 O 0.39472 0.70423 0.96815 0.0
N413 N 0.37652 0.49597 0.9661 0.0
C414 C 0.41951 0.49309 0.94963 0.0
C415 C 0.44362 0.46944 0.97504 0.0
C416 C 0.42301 0.44861 0.0169 0.0
C417 C 0.37845 0.45164 0.03299 0.0
C418 C 0.35588 0.47537 1.00606 0.0
H419 H 0.43555 0.50911 0.91749 0.0
O420 O 0.46746 0.66669 0.95553 0.0
O421 O 0.3842 0.59671 0.96004 0.0
O422 O 0.4177 0.62293 0.86889 0.0
O423 O 0.37205 0.53415 0.88199 0.0
C424 C 0.35654 0.43346 0.07522 0.0
C425 C 0.31334 0.44022 0.09009 0.0
H426 H 0.23272 0.46321 0.10844 0.0
H427 H 0.20124 0.51009 0.05744 0.0
H428 H 0.47812 0.46743 0.96247 0.0
H429 H 0.44206 0.43089 0.0366 0.0
H430 H 0.37334 0.41521 0.09687 0.0
H431 H 0.29751 0.42698 0.12295 0.0
Mn432 Mn 0.76483 0.40704 0.08397 0.0
Mn433 Mn 0.8373 0.34458 0.10252 0.0
C434 C 0.83528 0.44225 0.136 0.0
C435 C 0.69256 0.42104 0.09902 0.0
C436 C 0.85265 0.41297 0.02199 0.0
O437 O 0.71519 0.33207 0.05736 0.0
O438 O 0.76596 0.29352 0.07293 0.0
C439 C 0.76669 0.26622 0.16899 0.0
N440 N 0.8165 0.30699 0.15725 0.0
C441 C 0.85658 0.30467 0.2277 0.0
C442 C 0.80578 0.2624 0.24043 0.0
C443 C 0.76064 0.24318 0.21098 0.0
C444 C 0.86024 0.32575 0.18531 0.0
H445 H 0.73186 0.25147 0.1465 0.0
C446 C 0.72298 0.2919 0.05684 0.0
O447 O 0.71719 0.43425 0.06131 0.0
O448 O 0.70818 0.39735 0.12726 0.0
N449 N 0.90691 0.38905 0.13125 0.0
C450 C 0.95181 0.43293 0.11536 0.0
C451 C 0.99993 0.45857 0.14159 0.0
C452 C 1.00153 0.43862 0.18368 0.0
C453 C 0.95496 0.39313 0.19915 0.0
C454 C 0.90825 0.36905 0.17143 0.0
H455 H 0.95077 0.44855 0.08309 0.0
O456 O 0.81924 0.47287 0.11778 0.0
O457 O 0.80993 0.39182 0.12301 0.0
O458 O 0.81701 0.42592 0.03179 0.0
O459 O 0.86295 0.3827 0.04613 0.0
C460 C 0.95255 0.37174 0.24155 0.0
C461 C 0.90338 0.32758 0.25583 0.0
H462 H 0.80083 0.2448 0.27292 0.0
H463 H 0.72124 0.21078 0.22067 0.0
H464 H 0.03563 0.49378 0.12949 0.0
H465 H 0.03852 0.4589 0.20403 0.0
H466 H 0.98794 0.38968 0.2638 0.0
H467 H 0.90176 0.31215 0.28881 0.0
Mn468 Mn 0.3828 0.77233 0.25304 0.0
Mn469 Mn 0.51927 0.84411 0.27106 0.0
C470 C 0.42007 0.84436 0.30295 0.0
C471 C 0.29628 0.70235 0.26987 0.0
C472 C 0.46341 0.8575 0.18962 0.0
O473 O 0.40734 0.72119 0.22959 0.0
O474 O 0.49807 0.773 0.24232 0.0
C475 C 0.52907 0.77478 0.33848 0.0
N476 N 0.53795 0.82405 0.3261 0.0
C477 C 0.58328 0.86457 0.39606 0.0
C478 C 0.57498 0.81433 0.40943 0.0
C479 C 0.54766 0.76924 0.38055 0.0
C480 C 0.56432 0.86776 0.35359 0.0
H481 H 0.50792 0.73999 0.31645 0.0
C482 C 0.45589 0.7294 0.22817 0.0
O483 O 0.30645 0.72367 0.23085 0.0
O484 O 0.3366 0.71987 0.29837 0.0
N485 N 0.54565 0.91346 0.29898 0.0
C486 C 0.54592 0.95775 0.28266 0.0
C487 C 0.5693 1.00568 0.30842 0.0
C488 C 0.59257 1.00772 0.35047 0.0
C489 C 0.59229 0.96179 0.36638 0.0
C490 C 0.56864 0.91522 0.33912 0.0
H491 H 0.52791 0.95635 0.25043 0.0
O492 O 0.37282 0.82845 0.28407 0.0
O493 O 0.44479 0.8183 0.29151 0.0
O494 O 0.41496 0.82134 0.19899 0.0
O495 O 0.5048 0.8689 0.21448 0.0
C496 C 0.61288 0.95984 0.40881 0.0
C497 C 0.60836 0.91127 0.42365 0.0
H498 H 0.58883 0.80977 0.44199 0.0
H499 H 0.54081 0.73027 0.39074 0.0
H500 H 0.56918 0.04089 0.29598 0.0
H501 H 0.60992 0.04456 0.37048 0.0
H502 H 0.6312 0.99516 0.43069 0.0
H503 H 0.6234 0.91001 0.45667 0.0
loop_
_geom_bond_atom_site_label_1
_geom_bond_atom_site_label_2
_geom_bond_distance
_geom_bond_site_symmetry_2
_ccdc_geom_bond_type
H0 C19 0.949 . S
H1 C20 0.950 . S
H2 C22 0.950 . S
H3 C23 0.950 . S
H4 C25 0.950 . S
H5 C28 0.950 . S
H6 C29 0.950 . S
H7 C31 0.951 . S
H8 C32 0.949 . S
H9 C34 0.949 . S
H10 C35 0.950 . S
H11 C37 0.950 . S
H12 C38 0.950 . S
H13 C40 0.950 . S
H14 C43 0.950 . S
H15 C44 0.950 . S
H16 C46 0.951 . S
H17 C47 0.949 . S
C18 C19 1.376 . S
C18 C23 1.386 . S
C18 C24 1.483 . S
C19 H0 0.949 . S
C19 C18 1.376 . S
C19 C20 1.397 . S
C20 H1 0.950 . S
C20 C19 1.397 . S
C20 C21 1.391 . S
C21 C20 1.391 . S
C21 C22 1.405 . S
C22 H2 0.950 . S
C22 C21 1.405 . S
C22 C23 1.367 . S
C23 H3 0.950 . S
C23 C18 1.386 . S
C23 C22 1.367 . S
C24 C18 1.483 . S
C24 C25 1.382 1_655 S
C24 C26 1.403 . S
C25 H4 0.950 . S
C25 C24 1.382 1_455 S
C25 C41 1.411 . S
C26 C24 1.403 . S
C26 C27 1.489 . S
C26 C40 1.411 . S
C27 C26 1.489 . S
C27 C28 1.383 . S
C27 C32 1.382 . S
C28 H5 0.950 . S
C28 C27 1.383 . S
C28 C29 1.395 . S
C29 H6 0.950 . S
C29 C28 1.395 . S
C29 C30 1.288 . S
C30 C29 1.288 . S
C30 C31 1.392 . S
C31 H7 0.951 . S
C31 C30 1.392 . S
C31 C32 1.392 . S
C32 H8 0.949 . S
C32 C27 1.382 . S
C32 C31 1.392 . S
C33 C34 1.376 . S
C33 C38 1.386 . S
C33 C39 1.483 . S
C34 H9 0.949 . S
C34 C33 1.376 . S
C34 C35 1.397 . S
C35 H10 0.950 . S
C35 C34 1.397 . S
C35 C36 1.391 . S
C36 C35 1.391 . S
C36 C37 1.405 . S
C37 H11 0.950 . S
C37 C36 1.405 . S
C37 C38 1.367 . S
C38 H12 0.950 . S
C38 C33 1.386 . S
C38 C37 1.367 . S
C39 C33 1.483 . S
C39 C40 1.382 1_455 S
C39 C41 1.403 . S
C40 H13 0.950 . S
C40 C26 1.411 . S
C40 C39 1.382 1_655 S
C41 C25 1.411 . S
C41 C39 1.403 . S
C41 C42 1.489 . S
C42 C41 1.489 . S
C42 C43 1.383 . S
C42 C47 1.382 . S
C43 H14 0.950 . S
C43 C42 1.383 . S
C43 C44 1.395 . S
C44 H15 0.950 . S
C44 C43 1.395 . S
C44 C45 1.288 . S
C45 C44 1.288 . S
C45 C46 1.392 . S
C46 H16 0.951 . S
C46 C45 1.392 . S
C46 C47 1.392 . S
C47 H17 0.949 . S
C47 C42 1.382 . S
C47 C46 1.392 . S
H48 C67 0.949 . S
H49 C68 0.950 . S
H50 C70 0.950 . S
H51 C71 0.950 . S
H52 C73 0.950 . S
H53 C76 0.950 . S
H54 C77 0.950 . S
H55 C79 0.951 . S
H56 C80 0.949 . S
H57 C82 0.949 . S
H58 C83 0.950 . S
H59 C85 0.950 . S
H60 C86 0.950 . S
H61 C88 0.950 . S
H62 C91 0.950 . S
H63 C92 0.950 . S
H64 C94 0.951 . S
H65 C95 0.949 . S
C66 C67 1.376 . S
C66 C71 1.386 . S
C66 C72 1.483 . S
C67 H48 0.949 . S
C67 C66 1.376 . S
C67 C68 1.397 . S
C68 H49 0.950 . S
C68 C67 1.397 . S
C68 C69 1.391 . S
C69 C68 1.391 . S
C69 C70 1.405 . S
C70 H50 0.950 . S
C70 C69 1.405 . S
C70 C71 1.367 . S
C71 H51 0.950 . S
C71 C66 1.386 . S
C71 C70 1.367 . S
C72 C66 1.483 . S
C72 C73 1.382 . S
C72 C74 1.403 . S
C73 H52 0.950 . S
C73 C72 1.382 . S
C73 C89 1.411 1_565 S
C74 C72 1.403 . S
C74 C75 1.489 . S
C74 C88 1.411 1_565 S
C75 C74 1.489 . S
C75 C76 1.383 . S
C75 C80 1.382 . S
C76 H53 0.950 . S
C76 C75 1.383 . S
C76 C77 1.395 . S
C77 H54 0.950 . S
C77 C76 1.395 . S
C77 C78 1.288 . S
C78 C77 1.288 . S
C78 C79 1.392 . S
C79 H55 0.951 . S
C79 C78 1.392 . S
C79 C80 1.392 . S
C80 H56 0.949 . S
C80 C75 1.382 . S
C80 C79 1.392 . S
C81 C82 1.376 . S
C81 C86 1.386 . S
C81 C87 1.483 . S
C82 H57 0.949 . S
C82 C81 1.376 . S
C82 C83 1.397 . S
C83 H58 0.950 . S
C83 C82 1.397 . S
C83 C84 1.391 . S
C84 C83 1.391 . S
C84 C85 1.405 . S
C85 H59 0.950 . S
C85 C84 1.405 . S
C85 C86 1.367 . S
C86 H60 0.950 . S
C86 C81 1.386 . S
C86 C85 1.367 . S
C87 C81 1.483 . S
C87 C88 1.382 . S
C87 C89 1.403 . S
C88 H61 0.950 . S
C88 C74 1.411 1_545 S
C88 C87 1.382 . S
C89 C73 1.411 1_545 S
C89 C87 1.403 . S
C89 C90 1.489 . S
C90 C89 1.489 . S
C90 C91 1.383 . S
C90 C95 1.382 . S
C91 H62 0.950 . S
C91 C90 1.383 . S
C91 C92 1.395 . S
C92 H63 0.950 . S
C92 C91 1.395 . S
C92 C93 1.288 . S
C93 C92 1.288 . S
C93 C94 1.392 . S
C94 H64 0.951 . S
C94 C93 1.392 . S
C94 C95 1.392 . S
C95 H65 0.949 . S
C95 C90 1.382 . S
C95 C94 1.392 . S
H96 C115 0.949 . S
H97 C116 0.950 . S
H98 C118 0.950 . S
H99 C119 0.950 . S
H100 C121 0.950 . S
H101 C124 0.950 . S
H102 C125 0.950 . S
H103 C127 0.951 . S
H104 C128 0.949 . S
H105 C130 0.949 . S
H106 C131 0.950 . S
H107 C133 0.950 . S
H108 C134 0.950 . S
H109 C136 0.950 . S
H110 C139 0.950 . S
H111 C140 0.950 . S
H112 C142 0.951 . S
H113 C143 0.949 . S
C114 C115 1.376 . S
C114 C119 1.386 . S
C114 C120 1.483 . S
C115 H96 0.949 . S
C115 C114 1.376 . S
C115 C116 1.397 . S
C116 H97 0.950 . S
C116 C115 1.397 . S
C116 C117 1.391 . S
C117 C116 1.391 . S
C117 C118 1.405 . S
C118 H98 0.950 . S
C118 C117 1.405 . S
C118 C119 1.367 . S
C119 H99 0.950 . S
C119 C114 1.386 . S
C119 C118 1.367 . S
C120 C114 1.483 . S
C120 C121 1.382 . S
C120 C122 1.403 . S
C121 H100 0.950 . S
C121 C120 1.382 . S
C121 C137 1.411 . S
C122 C120 1.403 . S
C122 C123 1.489 . S
C122 C136 1.411 . S
C123 C122 1.489 . S
C123 C124 1.383 . S
C123 C128 1.382 . S
C124 H101 0.950 . S
C124 C123 1.383 . S
C124 C125 1.395 . S
C125 H102 0.950 . S
C125 C124 1.395 . S
C125 C126 1.288 . S
C126 C125 1.288 . S
C126 C127 1.392 . S
C127 H103 0.951 . S
C127 C126 1.392 . S
C127 C128 1.392 . S
C128 H104 0.949 . S
C128 C123 1.382 . S
C128 C127 1.392 . S
C129 C130 1.376 . S
C129 C134 1.386 . S
C129 C135 1.483 . S
C130 H105 0.949 . S
C130 C129 1.376 . S
C130 C131 1.397 . S
C131 H106 0.950 . S
C131 C130 1.397 . S
C131 C132 1.391 . S
C132 C131 1.391 . S
C132 C133 1.405 . S
C133 H107 0.950 . S
C133 C132 1.405 . S
C133 C134 1.367 . S
C134 H108 0.950 . S
C134 C129 1.386 . S
C134 C133 1.367 . S
C135 C129 1.483 . S
C135 C136 1.382 . S
C135 C137 1.403 . S
C136 H109 0.950 . S
C136 C122 1.411 . S
C136 C135 1.382 . S
C137 C121 1.411 . S
C137 C135 1.403 . S
C137 C138 1.489 . S
C138 C137 1.489 . S
C138 C139 1.383 . S
C138 C143 1.382 . S
C139 H110 0.950 . S
C139 C138 1.383 . S
C139 C140 1.395 . S
C140 H111 0.950 . S
C140 C139 1.395 . S
C140 C141 1.288 . S
C141 C140 1.288 . S
C141 C142 1.392 . S
C142 H112 0.951 . S
C142 C141 1.392 . S
C142 C143 1.392 . S
C143 H113 0.949 . S
C143 C138 1.382 . S
C143 C142 1.392 . S
H144 C163 0.949 . S
H145 C164 0.950 . S
H146 C166 0.950 . S
H147 C167 0.950 . S
H148 C169 0.950 . S
H149 C172 0.950 . S
H150 C173 0.950 . S
H151 C175 0.951 . S
H152 C176 0.949 . S
H153 C178 0.949 . S
H154 C179 0.950 . S
H155 C181 0.950 . S
H156 C182 0.950 . S
H157 C184 0.950 . S
H158 C187 0.950 . S
H159 C188 0.950 . S
H160 C190 0.951 . S
H161 C191 0.949 . S
C162 C163 1.376 . S
C162 C167 1.386 . S
C162 C168 1.483 . S
C163 H144 0.949 . S
C163 C162 1.376 . S
C163 C164 1.397 . S
C164 H145 0.950 . S
C164 C163 1.397 . S
C164 C165 1.391 . S
C165 C164 1.391 . S
C165 C166 1.405 . S
C166 H146 0.950 . S
C166 C165 1.405 . S
C166 C167 1.367 . S
C167 H147 0.950 . S
C167 C162 1.386 . S
C167 C166 1.367 . S
C168 C162 1.483 . S
C168 C169 1.382 1_455 S
C168 C170 1.403 . S
C169 H148 0.950 . S
C169 C168 1.382 1_655 S
C169 C185 1.411 . S
C170 C168 1.403 . S
C170 C171 1.489 . S
C170 C184 1.411 . S
C171 C170 1.489 . S
C171 C172 1.383 . S
C171 C176 1.382 . S
C172 H149 0.950 . S
C172 C171 1.383 . S
C172 C173 1.395 . S
C173 H150 0.950 . S
C173 C172 1.395 . S
C173 C174 1.288 . S
C174 C173 1.288 . S
C174 C175 1.392 . S
C175 H151 0.951 . S
C175 C174 1.392 . S
C175 C176 1.392 . S
C176 H152 0.949 . S
C176 C171 1.382 . S
C176 C175 1.392 . S
C177 C178 1.376 . S
C177 C182 1.386 . S
C177 C183 1.483 . S
C178 H153 0.949 . S
C178 C177 1.376 . S
C178 C179 1.397 . S
C179 H154 0.950 . S
C179 C178 1.397 . S
C179 C180 1.391 . S
C180 C179 1.391 . S
C180 C181 1.405 . S
C181 H155 0.950 . S
C181 C180 1.405 . S
C181 C182 1.367 . S
C182 H156 0.950 . S
C182 C177 1.386 . S
C182 C181 1.367 . S
C183 C177 1.483 . S
C183 C184 1.382 1_655 S
C183 C185 1.403 . S
C184 H157 0.950 . S
C184 C170 1.411 . S
C184 C183 1.382 1_455 S
C185 C169 1.411 . S
C185 C183 1.403 . S
C185 C186 1.489 . S
C186 C185 1.489 . S
C186 C187 1.383 . S
C186 C191 1.382 . S
C187 H158 0.950 . S
C187 C186 1.383 . S
C187 C188 1.395 . S
C188 H159 0.950 . S
C188 C187 1.395 . S
C188 C189 1.288 . S
C189 C188 1.288 . S
C189 C190 1.392 . S
C190 H160 0.951 . S
C190 C189 1.392 . S
C190 C191 1.392 . S
C191 H161 0.949 . S
C191 C186 1.382 . S
C191 C190 1.392 . S
H192 C211 0.949 . S
H193 C212 0.950 . S
H194 C214 0.950 . S
H195 C215 0.950 1_556 S
H196 C217 0.950 . S
H197 C220 0.950 . S
H198 C221 0.950 . S
H199 C223 0.951 . S
H200 C224 0.949 . S
H201 C226 0.949 . S
H202 C227 0.950 . S
H203 C229 0.950 . S
H204 C230 0.940 1_554 S
H205 C232 0.956 . S
H206 C235 0.950 . S
H207 C236 0.950 . S
H208 C238 0.951 . S
H209 C239 0.949 . S
C210 C211 1.376 . S
C210 C215 1.386 . S
C210 C216 1.483 . S
C211 H192 0.949 . S
C211 C210 1.376 . S
C211 C212 1.397 . S
C212 H193 0.950 . S
C212 C211 1.397 . S
C212 C213 1.391 . S
C213 C212 1.391 . S
C213 C214 1.405 . S
C214 H194 0.950 . S
C214 C213 1.405 . S
C214 C215 1.367 . S
C215 H195 0.950 1_554 S
C215 C210 1.386 . S
C215 C214 1.367 . S
C216 C210 1.483 . S
C216 C217 1.382 . S
C216 C218 1.403 1_554 S
C217 H196 0.950 . S
C217 C216 1.382 . S
C217 C233 1.411 1_545 S
C218 C216 1.403 1_556 S
C218 C219 1.489 . S
C218 C232 1.390 1_545 S
C219 C218 1.489 . S
C219 C220 1.383 . S
C219 C224 1.382 . S
C220 H197 0.950 . S
C220 C219 1.383 . S
C220 C221 1.395 . S
C221 H198 0.950 . S
C221 C220 1.395 . S
C221 C222 1.288 . S
C222 C221 1.288 . S
C222 C223 1.392 . S
C223 H199 0.951 . S
C223 C222 1.392 . S
C223 C224 1.392 . S
C224 H200 0.949 . S
C224 C219 1.382 . S
C224 C223 1.392 . S
C225 C226 1.376 . S
C225 C230 1.386 . S
C225 C231 1.483 . S
C226 H201 0.949 . S
C226 C225 1.376 . S
C226 C227 1.397 . S
C227 H202 0.950 . S
C227 C226 1.397 . S
C227 C228 1.391 . S
C228 C227 1.391 . S
C228 C229 1.405 . S
C229 H203 0.950 . S
C229 C228 1.405 . S
C229 C230 1.367 . S
C230 H204 0.940 1_556 S
C230 C225 1.386 . S
C230 C229 1.367 . S
C231 C225 1.483 . S
C231 C232 1.398 . S
C231 C233 1.403 1_556 S
C232 H205 0.956 . S
C232 C218 1.390 1_565 S
C232 C231 1.398 . S
C233 C217 1.411 1_565 S
C233 C231 1.403 1_554 S
C233 C234 1.489 . S
C234 C233 1.489 . S
C234 C235 1.383 . S
C234 C239 1.382 . S
C235 H206 0.950 . S
C235 C234 1.383 . S
C235 C236 1.395 . S
C236 H207 0.950 . S
C236 C235 1.395 . S
C236 C237 1.288 . S
C237 C236 1.288 . S
C237 C238 1.392 . S
C238 H208 0.951 . S
C238 C237 1.392 . S
C238 C239 1.392 . S
C239 H209 0.949 . S
C239 C234 1.382 . S
C239 C238 1.392 . S
H240 C259 0.949 . S
H241 C260 0.950 . S
H242 C262 0.950 . S
H243 C263 0.950 . S
H244 C265 0.950 . S
H245 C268 0.950 . S
H246 C269 0.950 . S
H247 C271 0.951 . S
H248 C272 0.949 . S
H249 C274 0.949 . S
H250 C275 0.950 . S
H251 C277 0.950 . S
H252 C278 0.950 . S
H253 C280 0.950 . S
H254 C283 0.950 . S
H255 C284 0.950 . S
H256 C286 0.951 . S
H257 C287 0.949 . S
C258 C259 1.376 . S
C258 C263 1.386 . S
C258 C264 1.483 . S
C259 H240 0.949 . S
C259 C258 1.376 . S
C259 C260 1.397 . S
C260 H241 0.950 . S
C260 C259 1.397 . S
C260 C261 1.391 . S
C261 C260 1.391 . S
C261 C262 1.405 . S
C262 H242 0.950 . S
C262 C261 1.405 . S
C262 C263 1.367 . S
C263 H243 0.950 . S
C263 C258 1.386 . S
C263 C262 1.367 . S
C264 C258 1.483 . S
C264 C265 1.382 . S
C264 C266 1.403 . S
C265 H244 0.950 . S
C265 C264 1.382 . S
C265 C281 1.411 . S
C266 C264 1.403 . S
C266 C267 1.489 . S
C266 C280 1.411 . S
C267 C266 1.489 . S
C267 C268 1.383 . S
C267 C272 1.382 . S
C268 H245 0.950 . S
C268 C267 1.383 . S
C268 C269 1.395 . S
C269 H246 0.950 . S
C269 C268 1.395 . S
C269 C270 1.288 . S
C270 C269 1.288 . S
C270 C271 1.392 . S
C271 H247 0.951 . S
C271 C270 1.392 . S
C271 C272 1.392 . S
C272 H248 0.949 . S
C272 C267 1.382 . S
C272 C271 1.392 . S
C273 C274 1.376 . S
C273 C278 1.386 . S
C273 C279 1.483 . S
C274 H249 0.949 . S
C274 C273 1.376 . S
C274 C275 1.397 . S
C275 H250 0.950 . S
C275 C274 1.397 . S
C275 C276 1.391 . S
C276 C275 1.391 . S
C276 C277 1.405 . S
C277 H251 0.950 . S
C277 C276 1.405 . S
C277 C278 1.367 . S
C278 H252 0.950 . S
C278 C273 1.386 . S
C278 C277 1.367 . S
C279 C273 1.483 . S
C279 C280 1.382 . S
C279 C281 1.403 . S
C280 H253 0.950 . S
C280 C266 1.411 . S
C280 C279 1.382 . S
C281 C265 1.411 . S
C281 C279 1.403 . S
C281 C282 1.489 . S
C282 C281 1.489 . S
C282 C283 1.383 . S
C282 C287 1.382 . S
C283 H254 0.950 . S
C283 C282 1.383 . S
C283 C284 1.395 . S
C284 H255 0.950 . S
C284 C283 1.395 . S
C284 C285 1.288 . S
C285 C284 1.288 . S
C285 C286 1.392 . S
C286 H256 0.951 . S
C286 C285 1.392 . S
C286 C287 1.392 . S
C287 H257 0.949 . S
C287 C282 1.382 . S
C287 C286 1.392 . S
Mn288 O293 2.095 . S
Mn288 O303 2.162 . S
Mn288 O304 2.297 . S
Mn288 O312 2.385 . S
Mn288 O313 2.209 . S
Mn288 O314 2.094 . S
Mn289 O294 2.121 . S
Mn289 N296 2.257 . S
Mn289 N305 2.282 . S
Mn289 O313 2.215 . S
Mn289 O315 2.117 . S
C290 O312 1.234 . S
C290 O313 1.283 . S
C291 O303 1.281 . S
C291 O304 1.236 . S
C292 O314 1.240 . S
C292 O315 1.264 . S
O293 Mn288 2.095 . S
O293 C302 1.250 . S
O294 Mn289 2.121 . S
O294 C302 1.258 . S
C295 N296 1.326 . S
C295 C299 1.460 . S
C295 H301 0.929 . S
N296 Mn289 2.257 . S
N296 C295 1.326 . S
N296 C300 1.362 . S
C297 C298 1.258 . S
C297 C300 1.431 . S
C297 C317 1.449 . S
C298 C297 1.258 . S
C298 C299 1.477 . S
C298 H318 0.931 . S
C299 C295 1.460 . S
C299 C298 1.477 . S
C299 H319 0.930 . S
C300 N296 1.362 . S
C300 C297 1.431 . S
C300 C310 1.476 . S
H301 C295 0.929 . S
C302 O293 1.250 . S
C302 O294 1.258 . S
O303 Mn288 2.162 . S
O303 C291 1.281 . S
O304 Mn288 2.297 . S
O304 C291 1.236 . S
N305 Mn289 2.282 . S
N305 C306 1.328 . S
N305 C310 1.318 . S
C306 N305 1.328 . S
C306 C307 1.457 . S
C306 H311 0.929 . S
C307 C306 1.457 . S
C307 C308 1.291 . S
C307 H320 0.931 . S
C308 C307 1.291 . S
C308 C309 1.373 . S
C308 H321 0.929 . S
C309 C308 1.373 . S
C309 C310 1.396 . S
C309 C316 1.403 . S
C310 C300 1.476 . S
C310 N305 1.318 . S
C310 C309 1.396 . S
H311 C306 0.929 . S
O312 Mn288 2.385 . S
O312 C290 1.234 . S
O313 Mn288 2.209 . S
O313 Mn289 2.215 . S
O313 C290 1.283 . S
O314 Mn288 2.094 . S
O314 C292 1.240 . S
O315 Mn289 2.117 . S
O315 C292 1.264 . S
C316 C309 1.403 . S
C316 C317 1.399 . S
C316 H322 0.929 . S
C317 C297 1.449 . S
C317 C316 1.399 . S
C317 H323 0.930 . S
H318 C298 0.931 . S
H319 C299 0.930 . S
H320 C307 0.931 . S
H321 C308 0.929 . S
H322 C316 0.929 . S
H323 C317 0.930 . S
Mn324 O329 2.095 . S
Mn324 O339 2.162 . S
Mn324 O340 2.297 . S
Mn324 O348 2.385 . S
Mn324 O349 2.209 . S
Mn324 O350 2.094 . S
Mn325 O330 2.121 . S
Mn325 N332 2.257 . S
Mn325 N341 2.282 . S
Mn325 O349 2.215 . S
Mn325 O351 2.117 . S
C326 O348 1.234 . S
C326 O349 1.283 . S
C327 O339 1.281 . S
C327 O340 1.236 . S
C328 O350 1.240 . S
C328 O351 1.264 . S
O329 Mn324 2.095 . S
O329 C338 1.250 . S
O330 Mn325 2.121 . S
O330 C338 1.258 . S
C331 N332 1.326 . S
C331 C335 1.460 . S
C331 H337 0.929 . S
N332 Mn325 2.257 . S
N332 C331 1.326 . S
N332 C336 1.362 . S
C333 C334 1.258 . S
C333 C336 1.431 . S
C333 C353 1.449 . S
C334 C333 1.258 . S
C334 C335 1.477 . S
C334 H354 0.931 . S
C335 C331 1.460 . S
C335 C334 1.477 . S
C335 H355 0.930 . S
C336 N332 1.362 . S
C336 C333 1.431 . S
C336 C346 1.476 . S
H337 C331 0.929 . S
C338 O329 1.250 . S
C338 O330 1.258 . S
O339 Mn324 2.162 . S
O339 C327 1.281 . S
O340 Mn324 2.297 . S
O340 C327 1.236 . S
N341 Mn325 2.282 . S
N341 C342 1.328 . S
N341 C346 1.318 . S
C342 N341 1.328 . S
C342 C343 1.457 . S
C342 H347 0.929 . S
C343 C342 1.457 . S
C343 C344 1.291 . S
C343 H356 0.931 1_455 S
C344 C343 1.291 . S
C344 C345 1.374 . S
C344 H357 0.928 1_455 S
C345 C344 1.374 . S
C345 C346 1.396 . S
C345 C352 1.403 . S
C346 C336 1.476 . S
C346 N341 1.318 . S
C346 C345 1.396 . S
H347 C342 0.929 . S
O348 Mn324 2.385 . S
O348 C326 1.234 . S
O349 Mn324 2.209 . S
O349 Mn325 2.215 . S
O349 C326 1.283 . S
O350 Mn324 2.094 . S
O350 C328 1.240 . S
O351 Mn325 2.117 . S
O351 C328 1.264 . S
C352 C345 1.403 . S
C352 C353 1.399 . S
C352 H358 0.929 1_455 S
C353 C333 1.449 . S
C353 C352 1.399 . S
C353 H359 0.930 . S
H354 C334 0.931 . S
H355 C335 0.930 . S
H356 C343 0.931 1_655 S
H357 C344 0.928 1_655 S
H358 C352 0.929 1_655 S
H359 C353 0.930 . S
Mn360 O365 2.095 . S
Mn360 O375 2.162 . S
Mn360 O376 2.297 . S
Mn360 O384 2.385 . S
Mn360 O385 2.209 . S
Mn360 O386 2.094 . S
Mn361 O366 2.121 . S
Mn361 N368 2.257 . S
Mn361 N377 2.282 . S
Mn361 O385 2.215 . S
Mn361 O387 2.117 . S
C362 O384 1.234 . S
C362 O385 1.283 . S
C363 O375 1.281 . S
C363 O376 1.236 . S
C364 O386 1.240 . S
C364 O387 1.264 . S
O365 Mn360 2.095 . S
O365 C374 1.250 . S
O366 Mn361 2.121 . S
O366 C374 1.258 . S
C367 N368 1.326 . S
C367 C371 1.460 . S
C367 H373 0.929 . S
N368 Mn361 2.257 . S
N368 C367 1.326 . S
N368 C372 1.362 . S
C369 C370 1.258 . S
C369 C372 1.431 . S
C369 C389 1.449 . S
C370 C369 1.258 . S
C370 C371 1.477 . S
C370 H390 0.931 . S
C371 C367 1.460 . S
C371 C370 1.477 . S
C371 H391 0.930 . S
C372 N368 1.362 . S
C372 C369 1.431 . S
C372 C382 1.476 . S
H373 C367 0.929 . S
C374 O365 1.250 . S
C374 O366 1.258 . S
O375 Mn360 2.162 . S
O375 C363 1.281 . S
O376 Mn360 2.297 . S
O376 C363 1.236 . S
N377 Mn361 2.282 . S
N377 C378 1.328 . S
N377 C382 1.318 . S
C378 N377 1.328 . S
C378 C379 1.457 . S
C378 H383 0.929 . S
C379 C378 1.457 . S
C379 C380 1.291 . S
C379 H392 0.931 1_545 S
C380 C379 1.291 . S
C380 C381 1.373 . S
C380 H393 0.929 1_545 S
C381 C380 1.373 . S
C381 C382 1.396 . S
C381 C388 1.403 . S
C382 C372 1.476 . S
C382 N377 1.318 . S
C382 C381 1.396 . S
H383 C378 0.929 . S
O384 Mn360 2.385 . S
O384 C362 1.234 . S
O385 Mn360 2.209 . S
O385 Mn361 2.215 . S
O385 C362 1.283 . S
O386 Mn360 2.094 . S
O386 C364 1.240 . S
O387 Mn361 2.117 . S
O387 C364 1.264 . S
C388 C381 1.403 . S
C388 C389 1.399 . S
C388 H394 0.929 1_545 S
C389 C369 1.449 . S
C389 C388 1.399 . S
C389 H395 0.930 . S
H390 C370 0.931 . S
H391 C371 0.930 . S
H392 C379 0.931 1_565 S
H393 C380 0.929 1_565 S
H394 C388 0.929 1_565 S
H395 C389 0.930 . S
Mn396 O401 2.095 . S
Mn396 O411 2.162 . S
Mn396 O412 2.297 . S
Mn396 O420 2.385 . S
Mn396 O421 2.209 . S
Mn396 O422 2.094 . S
Mn397 O402 2.121 . S
Mn397 N404 2.257 . S
Mn397 N413 2.282 . S
Mn397 O421 2.215 . S
Mn397 O423 2.117 . S
C398 O420 1.234 . S
C398 O421 1.283 . S
C399 O411 1.281 . S
C399 O412 1.236 . S
C400 O422 1.240 . S
C400 O423 1.264 . S
O401 Mn396 2.095 . S
O401 C410 1.250 . S
O402 Mn397 2.121 . S
O402 C410 1.258 . S
C403 N404 1.326 . S
C403 C407 1.460 1_556 S
C403 H409 0.929 . S
N404 Mn397 2.257 . S
N404 C403 1.326 . S
N404 C408 1.362 . S
C405 C406 1.258 . S
C405 C408 1.431 1_554 S
C405 C425 1.449 . S
C406 C405 1.258 . S
C406 C407 1.477 . S
C406 H426 0.931 . S
C407 C403 1.460 1_554 S
C407 C406 1.477 . S
C407 H427 0.930 . S
C408 N404 1.362 . S
C408 C405 1.431 1_556 S
C408 C418 1.476 . S
H409 C403 0.929 . S
C410 O401 1.250 . S
C410 O402 1.258 . S
O411 Mn396 2.162 . S
O411 C399 1.281 . S
O412 Mn396 2.297 . S
O412 C399 1.236 . S
N413 Mn397 2.282 . S
N413 C414 1.328 . S
N413 C418 1.318 . S
C414 N413 1.328 . S
C414 C415 1.457 . S
C414 H419 0.929 . S
C415 C414 1.457 . S
C415 C416 1.291 . S
C415 H428 0.931 . S
C416 C415 1.291 . S
C416 C417 1.373 . S
C416 H429 0.929 . S
C417 C416 1.373 . S
C417 C418 1.396 . S
C417 C424 1.403 1_556 S
C418 C408 1.476 . S
C418 N413 1.318 . S
C418 C417 1.396 . S
H419 C414 0.929 . S
O420 Mn396 2.385 . S
O420 C398 1.234 . S
O421 Mn396 2.209 . S
O421 Mn397 2.215 . S
O421 C398 1.283 . S
O422 Mn396 2.094 . S
O422 C400 1.240 . S
O423 Mn397 2.117 . S
O423 C400 1.264 . S
C424 C417 1.403 1_554 S
C424 C425 1.399 . S
C424 H430 0.929 . S
C425 C405 1.449 . S
C425 C424 1.399 . S
C425 H431 0.930 . S
H426 C406 0.931 . S
H427 C407 0.930 . S
H428 C415 0.931 . S
H429 C416 0.929 . S
H430 C424 0.929 . S
H431 C425 0.930 . S
Mn432 O437 2.095 . S
Mn432 O447 2.162 . S
Mn432 O448 2.297 . S
Mn432 O456 2.385 . S
Mn432 O457 2.209 . S
Mn432 O458 2.094 . S
Mn433 O438 2.121 . S
Mn433 N440 2.257 . S
Mn433 N449 2.282 . S
Mn433 O457 2.215 . S
Mn433 O459 2.117 . S
C434 O456 1.234 . S
C434 O457 1.283 . S
C435 O447 1.281 . S
C435 O448 1.236 . S
C436 O458 1.240 . S
C436 O459 1.264 . S
O437 Mn432 2.095 . S
O437 C446 1.250 . S
O438 Mn433 2.121 . S
O438 C446 1.258 . S
C439 N440 1.326 . S
C439 C443 1.460 . S
C439 H445 0.929 . S
N440 Mn433 2.257 . S
N440 C439 1.326 . S
N440 C444 1.362 . S
C441 C442 1.258 . S
C441 C444 1.431 . S
C441 C461 1.449 . S
C442 C441 1.258 . S
C442 C443 1.477 . S
C442 H462 0.931 . S
C443 C439 1.460 . S
C443 C442 1.477 . S
C443 H463 0.930 . S
C444 N440 1.362 . S
C444 C441 1.431 . S
C444 C454 1.476 . S
H445 C439 0.929 . S
C446 O437 1.250 . S
C446 O438 1.258 . S
O447 Mn432 2.162 . S
O447 C435 1.281 . S
O448 Mn432 2.297 . S
O448 C435 1.236 . S
N449 Mn433 2.282 . S
N449 C450 1.328 . S
N449 C454 1.318 . S
C450 N449 1.328 . S
C450 C451 1.457 . S
C450 H455 0.929 . S
C451 C450 1.457 . S
C451 C452 1.291 1_655 S
C451 H464 0.931 1_655 S
C452 C451 1.291 1_455 S
C452 C453 1.373 1_455 S
C452 H465 0.929 . S
C453 C452 1.373 1_655 S
C453 C454 1.396 . S
C453 C460 1.403 . S
C454 C444 1.476 . S
C454 N449 1.318 . S
C454 C453 1.396 . S
H455 C450 0.929 . S
O456 Mn432 2.385 . S
O456 C434 1.234 . S
O457 Mn432 2.209 . S
O457 Mn433 2.215 . S
O457 C434 1.283 . S
O458 Mn432 2.094 . S
O458 C436 1.240 . S
O459 Mn433 2.117 . S
O459 C436 1.264 . S
C460 C453 1.403 . S
C460 C461 1.399 . S
C460 H466 0.929 1_655 S
C461 C441 1.449 . S
C461 C460 1.399 . S
C461 H467 0.930 . S
H462 C442 0.931 . S
H463 C443 0.930 . S
H464 C451 0.931 1_455 S
H465 C452 0.929 . S
H466 C460 0.929 1_455 S
H467 C461 0.930 . S
Mn468 O473 2.095 . S
Mn468 O483 2.162 . S
Mn468 O484 2.297 . S
Mn468 O492 2.385 . S
Mn468 O493 2.209 . S
Mn468 O494 2.094 . S
Mn469 O474 2.121 . S
Mn469 N476 2.257 . S
Mn469 N485 2.282 . S
Mn469 O493 2.215 . S
Mn469 O495 2.117 . S
C470 O492 1.234 . S
C470 O493 1.283 . S
C471 O483 1.281 . S
C471 O484 1.236 . S
C472 O494 1.240 . S
C472 O495 1.264 . S
O473 Mn468 2.095 . S
O473 C482 1.250 . S
O474 Mn469 2.121 . S
O474 C482 1.258 . S
C475 N476 1.326 . S
C475 C479 1.460 . S
C475 H481 0.929 . S
N476 Mn469 2.257 . S
N476 C475 1.326 . S
N476 C480 1.362 . S
C477 C478 1.258 . S
C477 C480 1.431 . S
C477 C497 1.449 . S
C478 C477 1.258 . S
C478 C479 1.477 . S
C478 H498 0.931 . S
C479 C475 1.460 . S
C479 C478 1.477 . S
C479 H499 0.930 . S
C480 N476 1.362 . S
C480 C477 1.431 . S
C480 C490 1.476 . S
H481 C475 0.929 . S
C482 O473 1.250 . S
C482 O474 1.258 . S
O483 Mn468 2.162 . S
O483 C471 1.281 . S
O484 Mn468 2.297 . S
O484 C471 1.236 . S
N485 Mn469 2.282 . S
N485 C486 1.328 . S
N485 C490 1.318 . S
C486 N485 1.328 . S
C486 C487 1.457 1_565 S
C486 H491 0.929 . S
C487 C486 1.457 1_545 S
C487 C488 1.291 . S
C487 H500 0.931 . S
C488 C487 1.291 . S
C488 C489 1.373 1_545 S
C488 H501 0.929 . S
C489 C488 1.373 1_565 S
C489 C490 1.396 . S
C489 C496 1.403 . S
C490 C480 1.476 . S
C490 N485 1.318 . S
C490 C489 1.396 . S
H491 C486 0.929 . S
O492 Mn468 2.385 . S
O492 C470 1.234 . S
O493 Mn468 2.209 . S
O493 Mn469 2.215 . S
O493 C470 1.283 . S
O494 Mn468 2.094 . S
O494 C472 1.240 . S
O495 Mn469 2.117 . S
O495 C472 1.264 . S
C496 C489 1.403 . S
C496 C497 1.399 . S
C496 H502 0.929 1_565 S
C497 C477 1.449 . S
C497 C496 1.399 . S
C497 H503 0.930 . S
H498 C478 0.931 . S
H499 C479 0.930 . S
H500 C487 0.931 . S
H501 C488 0.929 . S
H502 C496 0.929 1_545 S
H503 C497 0.930 . S
C471 C45 1.946 . S
C84 C291 1.988 . S
C126 C338 1.979 . S
C189 C374 2.016 . S
C399 C228 1.851 . S
C270 C435 1.743 . S
C69 C327 1.897 . S
C141 C363 1.909 . S
C174 C410 1.803 . S
C446 C213 1.994 . S
C482 C285 2.154 . S
C302 C30 1.988 . S
C36 C326 1.482 . S
C93 C362 1.475 . S
C400 C117 1.511 . S
C180 C436 1.516 1_556 S
C472 C237 1.438 . S
C292 C261 1.425 . S
C470 C78 1.451 . S
C132 C290 1.466 . S
C328 C165 1.479 . S
C222 C364 1.485 . S
C276 C398 1.553 1_554 S
C21 C434 1.528 . S
