# Generated by pormake.
# Topology zzz, (3,6)-cn, num edge types: 1
# Building blocks:
#     Node 0, Type 0, BuildingBlock: CUQRIR_clean_linker_1, # of connection points: 3
#     Node 1, Type 0, BuildingBlock: CUQRIR_clean_linker_1, # of connection points: 3
#     Node 2, Type 0, BuildingBlock: CUQRIR_clean_linker_1, # of connection points: 3
#     Node 3, Type 0, BuildingBlock: CUQRIR_clean_linker_1, # of connection points: 3
#     Node 4, Type 0, BuildingBlock: CUQRIR_clean_linker_1, # of connection points: 3
#     Node 5, Type 0, BuildingBlock: CUQRIR_clean_linker_1, # of connection points: 3
#     Node 6, Type 0, BuildingBlock: CUQRIR_clean_linker_1, # of connection points: 3
#     Node 7, Type 0, BuildingBlock: CUQRIR_clean_linker_1, # of connection points: 3
#     Node 8, Type 1, BuildingBlock: KUMBOL_clean_sbu_0, # of connection points: 6
#     Node 9, Type 1, BuildingBlock: KUMBOL_clean_sbu_0, # of connection points: 6
#     Node 10, Type 1, BuildingBlock: KUMBOL_clean_sbu_0, # of connection points: 6
#     Node 11, Type 1, BuildingBlock: KUMBOL_clean_sbu_0, # of connection points: 6
#     Edge 12, Type (0, 1), BuildingBlock: ZUJKAS_clean_linker_0, # of connection points: 2
#     Edge 13, Type (0, 1), BuildingBlock: ZUJKAS_clean_linker_0, # of connection points: 2
#     Edge 14, Type (0, 1), BuildingBlock: ZUJKAS_clean_linker_0, # of connection points: 2
#     Edge 15, Type (0, 1), BuildingBlock: ZUJKAS_clean_linker_0, # of connection points: 2
#     Edge 16, Type (0, 1), BuildingBlock: ZUJKAS_clean_linker_0, # of connection points: 2
#     Edge 17, Type (0, 1), BuildingBlock: ZUJKAS_clean_linker_0, # of connection points: 2
#     Edge 18, Type (0, 1), BuildingBlock: ZUJKAS_clean_linker_0, # of connection points: 2
#     Edge 19, Type (0, 1), BuildingBlock: ZUJKAS_clean_linker_0, # of connection points: 2
#     Edge 20, Type (0, 1), BuildingBlock: ZUJKAS_clean_linker_0, # of connection points: 2
#     Edge 21, Type (0, 1), BuildingBlock: ZUJKAS_clean_linker_0, # of connection points: 2
#     Edge 22, Type (0, 1), BuildingBlock: ZUJKAS_clean_linker_0, # of connection points: 2
#     Edge 23, Type (0, 1), BuildingBlock: ZUJKAS_clean_linker_0, # of connection points: 2
#     Edge 24, Type (0, 1), BuildingBlock: ZUJKAS_clean_linker_0, # of connection points: 2
#     Edge 25, Type (0, 1), BuildingBlock: ZUJKAS_clean_linker_0, # of connection points: 2
#     Edge 26, Type (0, 1), BuildingBlock: ZUJKAS_clean_linker_0, # of connection points: 2
#     Edge 27, Type (0, 1), BuildingBlock: ZUJKAS_clean_linker_0, # of connection points: 2
#     Edge 28, Type (0, 1), BuildingBlock: ZUJKAS_clean_linker_0, # of connection points: 2
#     Edge 29, Type (0, 1), BuildingBlock: ZUJKAS_clean_linker_0, # of connection points: 2
#     Edge 30, Type (0, 1), BuildingBlock: ZUJKAS_clean_linker_0, # of connection points: 2
#     Edge 31, Type (0, 1), BuildingBlock: ZUJKAS_clean_linker_0, # of connection points: 2
#     Edge 32, Type (0, 1), BuildingBlock: ZUJKAS_clean_linker_0, # of connection points: 2
#     Edge 33, Type (0, 1), BuildingBlock: ZUJKAS_clean_linker_0, # of connection points: 2
#     Edge 34, Type (0, 1), BuildingBlock: ZUJKAS_clean_linker_0, # of connection points: 2
#     Edge 35, Type (0, 1), BuildingBlock: ZUJKAS_clean_linker_0, # of connection points: 2
# Relax obj value: 0.164
# Max RMSD: 0.154
# Mean RMSD: 0.116
data_MOF--net-zzz--node1-KUMBOL_clean_sbu_0--node2-CUQRIR_clean_linker_1--edge1-ZUJKAS_clean_linker_0
_symmetry_space_group_name_H-M    P1
_symmetry_Int_Tables_number       1
_symmetry_cell_setting            triclinic
loop_
_symmetry_equiv_pos_as_xyz
'x, y, z'
_cell_length_a     62.925482
_cell_length_b     62.809363
_cell_length_c     17.55627
_cell_angle_alpha  90.819825
_cell_angle_beta   89.94655
_cell_angle_gamma 89.989222
loop_
_atom_site_label
_atom_site_type_symbol
_atom_site_fract_x
_atom_site_fract_y
_atom_site_fract_z
_atom_type_partial_charge
C0 C 0.74744 0.51849 0.23089 0.0
N1 N 0.76601 0.52887 0.24629 0.0
N2 N 0.73427 0.53069 0.18756 0.0
C3 C 0.74251 0.4963 0.25562 0.0
C4 C 0.74571 0.54874 0.17693 0.0
N5 N 0.76472 0.54766 0.21271 0.0
C6 C 0.73855 0.56705 0.12881 0.0
H7 H 0.74869 0.48489 0.21213 0.0
H8 H 0.72509 0.49396 0.26082 0.0
H9 H 0.75037 0.49289 0.31067 0.0
H10 H 0.72611 0.57615 0.16001 0.0
H11 H 0.73146 0.56095 0.07489 0.0
H12 H 0.75171 0.57813 0.11573 0.0
C13 C 1.00634 0.75836 0.21063 0.0
N14 N 0.99602 0.7774 0.21999 0.0
N15 N 0.99716 0.74621 0.15416 0.0
C16 C 0.02577 0.75203 0.25399 0.0
C17 C 0.98094 0.75864 0.13006 0.0
N18 N 0.98021 0.77729 0.16975 0.0
C19 C 0.96689 0.75327 0.06314 0.0
H20 H 0.04003 0.75791 0.22355 0.0
H21 H 0.02692 0.73445 0.25769 0.0
H22 H 0.0256 0.75928 0.31201 0.0
H23 H 0.95058 0.75946 0.07214 0.0
H24 H 0.96602 0.73582 0.05301 0.0
H25 H 0.9735 0.76083 0.01153 0.0
C26 C 0.7709 0.99782 0.22493 0.0
N27 N 0.74972 0.99355 0.21604 0.0
N28 N 0.78203 0.9928 0.16006 0.0
C29 C 0.78076 1.00631 0.29678 0.0
C30 C 0.76681 0.9857 0.11161 0.0
N31 N 0.74749 0.98592 0.14546 0.0
C32 C 0.77055 0.98056 0.02844 0.0
H33 H 0.77974 0.02395 0.29696 0.0
H34 H 0.79775 1.0017 0.30012 0.0
H35 H 0.77205 1.00044 0.3473 0.0
H36 H 0.77269 0.96311 0.02141 0.0
H37 H 0.78496 0.98862 0.00667 0.0
H38 H 0.75679 0.98544 0.99329 0.0
C39 C 0.51752 0.78358 0.21418 0.0
N40 N 0.52626 0.76403 0.22396 0.0
N41 N 0.52865 0.79473 0.16149 0.0
C42 C 0.49837 0.79179 0.25606 0.0
C43 C 0.54422 0.78108 0.13911 0.0
N44 N 0.54283 0.76258 0.17724 0.0
C45 C 0.55962 0.7852 0.07537 0.0
H46 H 0.48391 0.78704 0.22395 0.0
H47 H 0.49876 0.80943 0.26067 0.0
H48 H 0.49742 0.78481 0.31368 0.0
H49 H 0.55193 0.79463 0.03006 0.0
H50 H 0.56591 0.77017 0.05027 0.0
H51 H 0.57317 0.7946 0.09824 0.0
C52 C 0.28255 0.50437 0.07889 0.0
N53 N 0.26252 0.49632 0.07194 0.0
N54 N 0.29353 0.49432 0.13518 0.0
C55 C 0.29133 0.52186 0.03106 0.0
C56 C 0.2792 0.48018 0.16247 0.0
N57 N 0.26066 0.4813 0.12387 0.0
C58 C 0.28275 0.46652 0.23102 0.0
H59 H 0.30882 0.52024 0.02501 0.0
H60 H 0.28787 0.53737 0.05948 0.0
H61 H 0.28372 0.52178 0.97406 0.0
H62 H 0.26752 0.46184 0.25787 0.0
H63 H 0.29275 0.475 0.27374 0.0
H64 H 0.29123 0.45181 0.21282 0.0
C65 C 0.02529 0.273 0.11051 0.0
N66 N 0.03498 0.25371 0.09912 0.0
N67 N 0.03571 0.28497 0.16471 0.0
C68 C 1.0062 0.2804 0.06739 0.0
C69 C 0.05185 0.272 0.18614 0.0
N70 N 0.05144 0.25334 0.14651 0.0
C71 C 0.06694 0.2768 0.25063 0.0
H72 H 1.00617 0.29801 0.06298 0.0
H73 H 0.99168 0.27553 0.09851 0.0
H74 H 1.00577 0.27299 0.00965 0.0
H75 H 0.05959 0.28771 0.29335 0.0
H76 H 0.08134 0.28457 0.22739 0.0
H77 H 0.07193 0.262 0.27938 0.0
C78 C 0.25556 0.03651 0.06789 0.0
N79 N 0.27469 0.0459 0.05333 0.0
N80 N 0.24407 0.0482 0.1198 0.0
C81 C 0.24875 0.01532 0.03608 0.0
C82 C 0.25697 0.06502 0.13531 0.0
N83 N 0.27537 0.06361 0.09557 0.0
C84 C 0.25155 0.08313 0.18892 0.0
H85 H 0.23732 0.01795 0.98906 0.0
H86 H 0.24053 1.00601 0.08056 0.0
H87 H 0.26251 1.00616 0.0134 0.0
H88 H 0.25686 0.07913 0.24723 0.0
H89 H 0.23415 0.08596 0.19017 0.0
H90 H 0.25981 0.09791 0.17169 0.0
C91 C 0.47918 0.25216 0.02322 0.0
N92 N 0.47752 0.27372 0.02539 0.0
N93 N 0.47498 0.24385 0.09305 0.0
C94 C 0.48485 0.23935 0.95342 0.0
C95 C 0.47105 0.26129 0.13747 0.0
N96 N 0.47242 0.27921 0.09624 0.0
C97 C 0.4669 0.26093 0.22186 0.0
H98 H 0.47739 0.22336 0.95517 0.0
H99 H 0.50235 0.23732 0.95128 0.0
H100 H 0.47979 0.24771 0.90121 0.0
H101 H 0.47585 0.2478 0.24877 0.0
H102 H 0.44969 0.25828 0.2316 0.0
H103 H 0.47134 0.27625 0.24969 0.0
Gd104 Gd 0.99708 0.02462 0.57254 0.0
Gd105 Gd 0.03244 0.00998 0.72635 0.0
C106 C 0.05933 0.05918 0.89653 0.0
C107 C 0.09698 0.05848 0.86618 0.0
C108 C 0.07239 0.035 0.7988 0.0
C109 C 0.05563 0.04335 0.84005 0.0
C110 C 0.09335 0.04207 0.81263 0.0
C111 C 0.07998 0.06705 0.908 0.0
C112 C 0.04227 0.06621 0.94123 0.0
C113 C 0.02235 0.05694 0.93101 0.0
N114 N 0.0359 0.03526 0.82766 0.0
C115 C 0.0195 0.04125 0.8746 0.0
H116 H 1.00388 0.03469 0.86805 0.0
C117 C 0.08473 1.00855 0.71262 0.0
N118 N 0.06834 0.01912 0.74795 0.0
C119 C 0.10577 0.01496 0.7244 0.0
C120 C 0.11008 0.03201 0.7738 0.0
H121 H 0.08148 0.99553 0.67343 0.0
H122 H 0.08305 0.07936 0.95048 0.0
H123 H 0.0222 0.99645 0.43443 0.0
H124 H 0.04442 0.07839 0.98489 0.0
H125 H 0.0091 0.06197 0.96624 0.0
H126 H 0.11293 0.06428 0.877 0.0
H127 H 0.94986 0.04489 0.62422 0.0
H128 H 0.97744 0.95476 0.32689 0.0
H129 H 0.01411 0.96859 0.33964 0.0
H130 H 0.91102 0.97634 0.43709 0.0
H131 H 0.1186 1.00684 0.69495 0.0
H132 H 0.12639 0.03697 0.78287 0.0
H133 H 0.93899 0.95752 0.3647 0.0
H134 H 0.91179 0.0369 0.60714 0.0
N135 N 0.99057 0.99836 0.47762 0.0
C136 C 0.98091 0.96708 0.3689 0.0
C137 C 1.00159 0.97486 0.37579 0.0
C138 C 0.96478 0.97594 0.41412 0.0
C139 C 0.97017 0.99196 0.46791 0.0
C140 C 1.00609 0.99078 0.42988 0.0
N141 N 0.96034 0.01886 0.55479 0.0
C142 C 0.95451 1.00258 0.50789 0.0
C143 C 0.92364 0.02707 0.57905 0.0
C144 C 0.91744 0.00973 0.53365 0.0
C145 C 0.94526 0.03158 0.5884 0.0
C146 C 0.93292 0.99744 0.49634 0.0
H147 H 0.90068 1.00629 0.52633 0.0
O148 O 0.98597 0.05552 0.53529 0.0
O149 O 0.01716 0.03716 0.66896 0.0
O150 O 0.99768 0.01163 0.76724 0.0
O151 O 0.97643 1.00784 0.65929 0.0
O152 O 0.98752 0.05045 0.65734 0.0
O153 O 0.00846 0.03777 0.46622 0.0
O154 O 0.05019 0.9834 0.77177 0.0
O155 O 0.01272 0.99731 0.6295 0.0
O156 O 0.03149 0.02211 0.53064 0.0
O157 O 0.05224 0.02753 0.63818 0.0
O158 O 0.04296 0.98537 0.63814 0.0
O159 O 0.0183 0.98949 0.81165 0.0
C160 C 1.00478 0.0513 0.69645 0.0
C161 C 0.92749 0.98068 0.44619 0.0
C162 C 0.94342 0.96995 0.40506 0.0
C163 C 1.00032 0.05639 0.4818 0.0
C164 C 0.01579 0.07407 0.48715 0.0
C165 C 0.01539 0.08834 0.54971 0.0
C166 C 0.03258 0.07529 0.43438 0.0
C167 C 0.04912 0.09005 0.44548 0.0
C168 C 0.03188 0.10284 0.56119 0.0
C169 C 0.04876 0.10357 0.50994 0.0
C170 C 0.97897 1.00776 0.73431 0.0
C171 C 0.0254 0.98358 0.60118 0.0
C172 C 0.03359 0.97556 0.80549 0.0
C173 C 0.0272 0.95378 0.78154 0.0
C174 C 0.03881 0.94257 0.72533 0.0
C175 C 0.00827 0.94491 0.80929 0.0
C176 C 1.00038 0.92556 0.77891 0.0
C177 C 0.0309 0.92372 0.69382 0.0
C178 C 0.01165 0.91549 0.71908 0.0
C179 C 0.04988 0.02714 0.56313 0.0
H180 H 1.00258 0.0881 0.59083 0.0
H181 H 0.03291 0.06465 0.38521 0.0
H182 H 0.0315 0.11363 0.6098 0.0
H183 H 0.06107 0.1154 0.51889 0.0
H184 H 0.05367 0.94868 0.70347 0.0
H185 H 0.99988 0.95309 0.85496 0.0
H186 H 0.03961 0.91558 0.64887 0.0
H187 H 1.00578 0.90105 0.69215 0.0
Gd188 Gd 0.49908 0.99672 0.52624 0.0
Gd189 Gd 0.51563 0.03393 0.6717 0.0
C190 C 0.50308 0.03588 0.92846 0.0
C191 C 0.46882 0.05346 0.93692 0.0
C192 C 0.48592 0.0481 0.81334 0.0
C193 C 0.50271 0.038 0.84846 0.0
C194 C 0.46904 0.05646 0.85783 0.0
C195 C 0.48581 0.04319 0.97218 0.0
C196 C 0.52107 0.02703 0.96247 0.0
C197 C 0.53843 0.02122 0.91729 0.0
N198 N 0.51928 0.03132 0.80499 0.0
C199 C 0.53739 0.02376 0.83846 0.0
H200 H 0.55086 0.01909 0.8039 0.0
C201 C 0.47158 0.06325 0.70246 0.0
N202 N 0.48657 0.05068 0.73649 0.0
C203 C 0.4546 0.07179 0.74425 0.0
C204 C 0.4531 0.06808 0.82198 0.0
H205 H 0.4717 0.06634 0.64257 0.0
H206 H 0.48572 0.04148 0.03352 0.0
H207 H 0.51917 0.03171 0.39377 0.0
H208 H 0.52194 0.02512 0.02364 0.0
H209 H 0.5526 0.01475 0.94309 0.0
H210 H 0.45585 0.05953 0.97159 0.0
H211 H 0.5004 0.94523 0.58796 0.0
H212 H 0.568 1.00006 0.271 0.0
H213 H 0.54518 0.03137 0.29262 0.0
H214 H 0.57558 0.93343 0.39473 0.0
H215 H 0.44253 0.0811 0.71609 0.0
H216 H 0.43986 0.07467 0.85404 0.0
H217 H 0.57971 0.96397 0.31113 0.0
H218 H 0.52389 0.91442 0.5798 0.0
N219 N 0.52635 1.00037 0.43374 0.0
C220 C 0.55663 1.00003 0.31732 0.0
C221 C 0.54367 0.01768 0.32898 0.0
C222 C 0.55474 0.98258 0.36523 0.0
C223 C 0.53911 0.98303 0.4233 0.0
C224 C 0.52864 0.01764 0.38745 0.0
N225 N 0.52042 0.96551 0.52182 0.0
C226 C 0.53648 0.96548 0.46984 0.0
C227 C 0.52797 0.92882 0.54997 0.0
C228 C 0.54562 0.92923 0.5024 0.0
C229 C 0.51502 0.94679 0.55641 0.0
C230 C 0.54957 0.94732 0.4593 0.0
H231 H 0.55536 0.91508 0.49604 0.0
O232 O 0.47517 0.97192 0.51295 0.0
O233 O 0.48863 0.0133 0.63403 0.0
O234 O 0.51758 1.00153 0.7273 0.0
O235 O 0.50056 0.97935 0.63937 0.0
O236 O 0.46682 0.01185 0.54705 0.0
O237 O 0.48774 0.98791 0.41403 0.0
O238 O 0.52978 0.05953 0.60703 0.0
O239 O 0.5266 0.01619 0.56659 0.0
O240 O 0.49182 0.02891 0.47664 0.0
O241 O 0.49954 0.05226 0.57732 0.0
O242 O 0.54559 0.01421 0.66163 0.0
O243 O 0.53699 0.05681 0.72608 0.0
C244 C 0.4696 0.01793 0.61672 0.0
C245 C 0.56549 0.94724 0.40343 0.0
C246 C 0.56785 0.96467 0.35584 0.0
C247 C 0.47302 0.9754 0.44036 0.0
C248 C 0.4513 0.97982 0.41453 0.0
C249 C 0.43572 0.96392 0.41743 0.0
C250 C 0.44576 1.00033 0.39062 0.0
C251 C 0.42483 1.00506 0.37004 0.0
C252 C 0.41479 0.96851 0.39689 0.0
C253 C 0.40932 0.98897 0.37347 0.0
C254 C 0.50971 0.98283 0.70637 0.0
C255 C 0.5442 0.00886 0.59073 0.0
C256 C 0.54223 0.06555 0.66204 0.0
C257 C 0.56497 0.06597 0.64205 0.0
C258 C 0.57209 0.07868 0.58214 0.0
C259 C 0.57912 0.0517 0.6758 0.0
C260 C 0.5999 0.04911 0.64787 0.0
C261 C 0.59296 0.07678 0.55561 0.0
C262 C 0.60678 0.06195 0.58768 0.0
C263 C 0.49303 0.04831 0.50672 0.0
H264 H 0.43971 0.94805 0.43623 0.0
H265 H 0.45763 0.01282 0.38942 0.0
H266 H 0.40278 0.9562 0.39919 0.0
H267 H 0.39305 0.9921 0.35696 0.0
H268 H 0.56134 0.08962 0.55459 0.0
H269 H 0.57379 0.04226 0.72319 0.0
H270 H 0.5983 0.08644 0.50875 0.0
H271 H 0.62262 0.06024 0.56428 0.0
Gd272 Gd 0.49804 0.5275 0.7257 0.0
Gd273 Gd 0.53328 0.51286 0.57437 0.0
C274 C 0.59883 0.4831 0.60836 0.0
C275 C 0.62047 0.51415 0.63683 0.0
C276 C 0.58223 0.51783 0.62086 0.0
C277 C 0.58055 0.49616 0.60636 0.0
C278 C 0.60222 0.52698 0.63744 0.0
C279 C 0.61874 0.49222 0.62358 0.0
C280 C 0.59669 0.46133 0.59262 0.0
C281 C 0.57687 0.45316 0.57237 0.0
N282 N 0.56121 0.48792 0.58855 0.0
C283 C 0.55938 0.46679 0.56866 0.0
H284 H 0.54443 0.46043 0.54827 0.0
C285 C 0.56547 0.55134 0.63472 0.0
N286 N 0.56438 0.52997 0.61896 0.0
C287 C 0.58486 0.561 0.6528 0.0
C288 C 0.60336 0.54881 0.65357 0.0
H289 H 0.55145 0.56111 0.63476 0.0
H290 H 0.63297 0.48249 0.6242 0.0
H291 H 0.4663 0.55591 0.60633 0.0
H292 H 0.61033 0.4508 0.59394 0.0
H293 H 0.57515 0.43645 0.55769 0.0
H294 H 0.63602 0.52103 0.64679 0.0
H295 H 0.49895 0.49652 0.88283 0.0
H296 H 0.40255 0.53546 0.63934 0.0
H297 H 0.42861 0.55878 0.57628 0.0
H298 H 0.40777 0.48181 0.82728 0.0
H299 H 0.58552 0.57788 0.66573 0.0
H300 H 0.61839 0.55637 0.66702 0.0
H301 H 0.39516 0.50566 0.72731 0.0
H302 H 0.47467 0.47319 0.95221 0.0
N303 N 0.46242 0.53062 0.68545 0.0
C304 C 0.41931 0.5337 0.65143 0.0
C305 C 0.43394 0.54707 0.61668 0.0
C306 C 0.42633 0.51867 0.70352 0.0
C307 C 0.44821 0.51771 0.72083 0.0
C308 C 0.45549 0.5454 0.63461 0.0
N309 N 0.47605 0.50522 0.79899 0.0
C310 C 0.45524 0.50451 0.77851 0.0
C311 C 0.46906 0.48171 0.90297 0.0
C312 C 0.44795 0.47981 0.87991 0.0
C313 C 0.48284 0.4949 0.86286 0.0
C314 C 0.44066 0.49167 0.81835 0.0
H315 H 0.43724 0.46976 0.91172 0.0
O316 O 0.48078 0.54584 0.8116 0.0
O317 O 0.53255 0.52446 0.69387 0.0
O318 O 0.52474 0.48234 0.63764 0.0
O319 O 0.49631 0.49154 0.71704 0.0
O320 O 0.52332 0.51092 0.79474 0.0
O321 O 0.51385 0.55244 0.79153 0.0
O322 O 0.53879 0.53181 0.47289 0.0
O323 O 0.49944 0.52121 0.60042 0.0
O324 O 0.50091 0.55685 0.65104 0.0
O325 O 0.52378 0.54704 0.55214 0.0
O326 O 0.50439 0.49463 0.53243 0.0
O327 O 0.54412 0.49792 0.46965 0.0
C328 C 0.53932 0.51415 0.75084 0.0
C329 C 0.41913 0.49169 0.79771 0.0
C330 C 0.41196 0.50526 0.7408 0.0
C331 C 0.4977 0.55552 0.83634 0.0
C332 C 0.50213 0.55483 0.91888 0.0
C333 C 0.48951 0.54284 0.96863 0.0
C334 C 0.5193 0.56654 0.94841 0.0
C335 C 0.52382 0.56665 0.02687 0.0
C336 C 0.49401 0.54272 0.04651 0.0
C337 C 0.51088 0.55473 0.07571 0.0
C338 C 0.50929 0.47736 0.68577 0.0
C339 C 0.48993 0.50653 0.56334 0.0
C340 C 0.5436 0.51534 0.4308 0.0
C341 C 0.53407 0.51386 0.3545 0.0
C342 C 0.54219 0.52639 0.29593 0.0
C343 C 0.51894 0.49814 0.33741 0.0
C344 C 0.51335 0.4934 0.26143 0.0
C345 C 0.5358 0.52271 0.22078 0.0
C346 C 0.52164 0.50621 0.20326 0.0
C347 C 0.51159 0.56116 0.5879 0.0
H348 H 0.47608 0.53373 0.94775 0.0
H349 H 0.5287 0.57619 0.9103 0.0
H350 H 0.48417 0.53354 0.08456 0.0
H351 H 0.51363 0.55492 0.13652 0.0
H352 H 0.55402 0.53852 0.30798 0.0
H353 H 0.51245 0.48878 0.3832 0.0
H354 H 0.54262 0.53205 0.17556 0.0
H355 H 0.51807 0.50289 0.14396 0.0
Gd356 Gd 0.00812 0.49886 0.73774 0.0
Gd357 Gd 0.02185 0.53228 0.58153 0.0
C358 C 0.01472 0.60425 0.60848 0.0
C359 C 0.98566 0.61164 0.52187 0.0
C360 C 0.99884 0.57543 0.53477 0.0
C361 C 0.0134 0.58237 0.5893 0.0
C362 C 0.98542 0.59018 0.49853 0.0
C363 C 1.00027 0.61866 0.57678 0.0
C364 C 0.03122 0.61123 0.65592 0.0
C365 C 0.04651 0.59674 0.6798 0.0
N366 N 0.02749 0.56814 0.61819 0.0
C367 C 0.04463 0.57525 0.65918 0.0
H368 H 0.05672 0.56455 0.67846 0.0
C369 C 0.98815 0.54808 0.44879 0.0
N370 N 0.99915 0.55464 0.51226 0.0
C371 C 0.97466 0.56213 0.41118 0.0
C372 C 0.9729 0.58315 0.43726 0.0
H373 H 0.98938 0.53185 0.42823 0.0
H374 H 1.00087 0.63544 0.59189 0.0
H375 H 0.97244 0.46854 0.63202 0.0
H376 H 0.03278 0.62789 0.67189 0.0
H377 H 0.05979 0.60208 0.71425 0.0
H378 H 0.97523 0.62311 0.49549 0.0
H379 H 0.04543 0.49782 0.87616 0.0
H380 H 0.98782 0.40349 0.66158 0.0
H381 H 0.96532 0.43132 0.60558 0.0
H382 H 0.04619 0.40459 0.83388 0.0
H383 H 0.96556 0.55671 0.36233 0.0
H384 H 0.96246 0.59401 0.40788 0.0
H385 H 0.01855 0.39377 0.74274 0.0
H386 H 0.06683 0.4715 0.94409 0.0
N387 N 0.99951 0.46314 0.70308 0.0
C388 C 0.99134 0.4201 0.67306 0.0
C389 C 0.9785 0.43575 0.64208 0.0
C390 C 0.00821 0.426 0.72035 0.0
C391 C 0.01185 0.44788 0.73549 0.0
C392 C 0.98264 0.45718 0.65826 0.0
N393 N 0.02993 0.47492 0.80467 0.0
C394 C 0.02749 0.45393 0.78725 0.0
C395 C 0.05584 0.46632 0.9002 0.0
C396 C 0.05422 0.44482 0.8806 0.0
C397 C 0.0434 0.48119 0.86214 0.0
C398 C 0.03975 0.43833 0.82444 0.0
H399 H 0.06388 0.43331 0.91026 0.0
O400 O 0.99586 0.48699 0.8449 0.0
O401 O 0.01139 0.53301 0.70339 0.0
O402 O 0.05138 0.52848 0.65684 0.0
O403 O 0.04416 0.49763 0.72329 0.0
O404 O 0.02468 0.52484 0.80609 0.0
O405 O 0.98095 0.51409 0.79343 0.0
O406 O 0.03795 0.54871 0.49002 0.0
O407 O 0.01896 0.49819 0.6166 0.0
O408 O 0.97831 0.50306 0.66364 0.0
O409 O 0.98571 0.53249 0.58906 0.0
O410 O 1.00656 0.50582 0.51174 0.0
O411 O 0.04687 0.5165 0.51572 0.0
C412 C 0.02066 0.54061 0.76225 0.0
C413 C 0.03678 0.41672 0.80643 0.0
C414 C 0.02103 0.41057 0.75459 0.0
C415 C 0.98263 0.50271 0.8544 0.0
C416 C 0.98396 0.51464 0.92747 0.0
C417 C 1.00349 0.51735 0.96518 0.0
C418 C 0.96565 0.52395 0.9591 0.0
C419 C 0.96684 0.53598 0.02737 0.0
C420 C 1.00481 0.52946 0.0322 0.0
C421 C 0.98661 0.53881 0.06317 0.0
C422 C 0.05763 0.51235 0.6996 0.0
C423 C 0.0101 0.49027 0.55737 0.0
C424 C 0.04817 0.53184 0.46705 0.0
C425 C 0.04625 0.52575 0.3856 0.0
C426 C 0.03245 0.5366 0.33639 0.0
C427 C 0.05868 0.509 0.35617 0.0
C428 C 0.05763 0.50328 0.27853 0.0
C429 C 0.03088 0.53052 0.25977 0.0
C430 C 0.04349 0.51403 0.23069 0.0
C431 C 0.97222 0.51831 0.61649 0.0
H432 H 0.01777 0.51018 0.94308 0.0
H433 H 0.95052 0.52196 0.93034 0.0
H434 H 0.01997 0.53148 0.06049 0.0
H435 H 0.98791 0.54783 0.11602 0.0
H436 H 0.02306 0.54994 0.35657 0.0
H437 H 0.06988 0.50104 0.39309 0.0
H438 H 0.02019 0.53893 0.22243 0.0
H439 H 0.04257 0.50996 0.17059 0.0
H440 H 0.20517 0.03983 0.05727 0.0
H441 H 0.17106 0.03627 0.12594 0.0
H442 H 0.20405 0.04251 0.33998 0.0
H443 H 0.23791 0.04548 0.27182 0.0
H444 H 0.15757 1.00652 0.24819 0.0
H445 H 0.15792 0.09083 0.34653 0.0
H446 H 0.17407 0.08135 0.26794 0.0
H447 H 0.18208 0.07642 0.36425 0.0
C448 C 0.20512 0.04004 0.11893 0.0
C449 C 0.22428 0.04317 0.15897 0.0
C450 C 0.1856 0.03817 0.15829 0.0
C451 C 0.18476 0.03959 0.23853 0.0
C452 C 0.20403 0.04182 0.27829 0.0
H453 H 0.08981 0.04194 0.60307 0.0
H454 H 0.12146 0.04487 0.52251 0.0
C455 C 0.22345 0.04348 0.23919 0.0
C456 C 0.16396 0.03895 0.28131 0.0
H457 H 0.13209 0.06834 0.40185 0.0
C458 C 0.15191 0.02011 0.2812 0.0
C459 C 0.15645 0.05658 0.32506 0.0
C460 C 0.16815 0.07754 0.32577 0.0
C461 C 0.13314 0.01819 0.32516 0.0
C462 C 0.12566 0.0358 0.36946 0.0
C463 C 0.1376 0.05475 0.36852 0.0
C464 C 0.10588 0.03472 0.41829 0.0
C465 C 0.12197 0.99693 0.32592 0.0
C466 C 0.0861 0.02868 0.38725 0.0
C467 C 0.06798 0.02667 0.43374 0.0
C468 C 0.06894 0.0308 0.51288 0.0
C469 C 0.08847 0.03791 0.54317 0.0
C470 C 0.10664 0.03979 0.4967 0.0
H471 H 0.13271 0.98377 0.30769 0.0
H472 H 0.11574 0.99338 0.38354 0.0
H473 H 0.1084 0.99726 0.28564 0.0
H474 H 0.08465 0.02541 0.32679 0.0
H475 H 0.05324 0.02158 0.40746 0.0
H476 H 0.44373 0.22315 0.16684 0.0
H477 H 0.44597 0.18828 0.227 0.0
H478 H 0.50867 0.1794 0.13224 0.0
H479 H 0.50678 0.21492 0.07551 0.0
H480 H 0.45056 0.14814 0.18234 0.0
H481 H 0.52128 0.17098 0.35282 0.0
H482 H 0.50663 0.18997 0.29765 0.0
H483 H 0.52563 0.17252 0.2521 0.0
C484 C 0.45797 0.21371 0.15889 0.0
C485 C 0.47519 0.22189 0.1174 0.0
C486 C 0.45922 0.1937 0.19297 0.0
C487 C 0.47772 0.18126 0.18616 0.0
C488 C 0.49445 0.18885 0.14052 0.0
H489 H 0.48325 0.0489 0.35323 0.0
H490 H 0.47886 0.08006 0.27255 0.0
C491 C 0.49326 0.20902 0.10699 0.0
C492 C 0.47958 0.16086 0.22925 0.0
H493 H 0.50981 0.13535 0.36176 0.0
C494 C 0.46354 0.14536 0.22155 0.0
C495 C 0.4963 0.1572 0.2816 0.0
C496 C 0.51332 0.17361 0.29728 0.0
C497 C 0.46371 0.12651 0.26444 0.0
C498 C 0.4807 0.12264 0.31549 0.0
C499 C 0.49679 0.1381 0.32267 0.0
C500 C 0.48191 0.10324 0.36447 0.0
C501 C 0.44529 0.11131 0.25584 0.0
C502 C 0.48523 0.10558 0.44335 0.0
C503 C 0.48812 0.08779 0.48944 0.0
C504 C 0.48767 0.067 0.45828 0.0
C505 C 0.48366 0.06459 0.37961 0.0
C506 C 0.481 0.08248 0.33322 0.0
H507 H 0.43072 0.11961 0.23638 0.0
H508 H 0.44939 0.09907 0.21211 0.0
H509 H 0.44167 0.1032 0.31006 0.0
H510 H 0.48594 0.1213 0.4694 0.0
H511 H 0.49116 0.09045 0.54952 0.0
H512 H 0.31005 0.53112 0.19343 0.0
H513 H 0.34424 0.53548 0.26032 0.0
H514 H 0.35894 0.46949 0.21456 0.0
H515 H 0.32505 0.46536 0.14705 0.0
H516 H 0.35724 0.51555 0.38876 0.0
H517 H 0.41506 0.49675 0.15995 0.0
H518 H 0.38748 0.50245 0.14054 0.0
H519 H 0.39535 0.4764 0.1712 0.0
C520 C 0.32088 0.51776 0.1959 0.0
C521 C 0.31492 0.49795 0.16424 0.0
C522 C 0.34039 0.52017 0.23477 0.0
C523 C 0.35456 0.5029 0.24225 0.0
C524 C 0.34875 0.48326 0.20869 0.0
H525 H 0.45486 0.48127 0.58087 0.0
H526 H 0.42189 0.48135 0.50527 0.0
C527 C 0.32926 0.48085 0.17027 0.0
C528 C 0.37453 0.50493 0.28956 0.0
H529 H 0.4286 0.49722 0.28715 0.0
C530 C 0.37281 0.51156 0.36619 0.0
C531 C 0.39509 0.49999 0.26076 0.0
C532 C 0.39846 0.4937 0.17842 0.0
C533 C 0.39072 0.51289 0.4146 0.0
C534 C 0.41116 0.50744 0.38656 0.0
C535 C 0.41301 0.50124 0.30947 0.0
C536 C 0.43075 0.50821 0.43619 0.0
C537 C 0.3878 0.52087 0.49504 0.0
C538 C 0.4469 0.52327 0.42344 0.0
C539 C 0.46562 0.52342 0.46754 0.0
C540 C 0.46876 0.50844 0.5254 0.0
C541 C 0.45269 0.49333 0.53804 0.0
C542 C 0.43385 0.49335 0.49458 0.0
H543 H 0.37108 0.52541 0.5076 0.0
H544 H 0.3927 0.5084 0.53555 0.0
H545 H 0.39808 0.53501 0.50433 0.0
H546 H 0.44512 0.53481 0.37865 0.0
H547 H 0.47795 0.53489 0.455 0.0
H548 H 0.99932 0.29993 0.23175 0.0
H549 H 0.99426 0.33451 0.2979 0.0
H550 H 0.05809 0.35258 0.23749 0.0
H551 H 0.06284 0.3184 0.17049 0.0
H552 H 0.01442 0.35192 0.42072 0.0
H553 H 0.0273 0.40577 0.17868 0.0
H554 H 0.02331 0.37751 0.16543 0.0
H555 H 0.04905 0.38774 0.1917 0.0
C556 C 0.01204 0.31152 0.23102 0.0
C557 C 0.03141 0.30639 0.19488 0.0
C558 C 0.00926 0.33129 0.26966 0.0
C559 C 0.02567 0.34664 0.27269 0.0
C560 C 0.04489 0.34154 0.23533 0.0
H561 H 0.03754 0.45706 0.59687 0.0
H562 H 0.04133 0.42203 0.53261 0.0
C563 C 0.04766 0.32185 0.19702 0.0
C564 C 0.02313 0.36751 0.31692 0.0
H565 H 0.02742 0.4219 0.30226 0.0
C566 C 0.01731 0.36717 0.39452 0.0
C567 C 0.02656 0.38774 0.28366 0.0
C568 C 0.03169 0.3898 0.20015 0.0
C569 C 0.0152 0.3861 0.4391 0.0
C570 C 0.01914 0.40625 0.40631 0.0
C571 C 0.02467 0.40662 0.32853 0.0
C572 C 0.01636 0.42714 0.44996 0.0
C573 C 1.00778 0.38451 0.52035 0.0
C574 C 1.00117 0.44203 0.42595 0.0
C575 C 0.99886 0.4619 0.46319 0.0
C576 C 0.0117 0.46781 0.52583 0.0
C577 C 0.02697 0.45296 0.55031 0.0
C578 C 0.02917 0.43287 0.51317 0.0
H579 H 1.00323 0.36801 0.53542 0.0
H580 H 0.02058 0.38989 0.55954 0.0
H581 H 0.99385 0.39509 0.5293 0.0
H582 H 0.99107 0.43834 0.37759 0.0
H583 H 0.98709 0.47291 0.44191 0.0
H584 H 0.80624 0.02863 0.15178 0.0
H585 H 0.84131 0.03158 0.08997 0.0
H586 H 0.84278 0.96345 0.05668 0.0
H587 H 0.80823 0.96063 0.12029 0.0
H588 H 0.88163 0.97666 0.08656 0.0
H589 H 0.84894 0.0289 0.86384 0.0
H590 H 0.84656 0.0401 0.95801 0.0
H591 H 0.83226 0.01616 0.93319 0.0
C592 C 0.81444 0.01429 0.13346 0.0
C593 C 0.80454 0.99438 0.14166 0.0
C594 C 0.83433 0.01597 0.09657 0.0
C595 C 0.84471 0.99779 0.06602 0.0
C596 C 0.83532 0.97781 0.07873 0.0
H597 H 0.93809 0.9964 0.69243 0.0
H598 H 0.90643 0.99376 0.77289 0.0
C599 C 0.81557 0.97615 0.11574 0.0
C600 C 0.86478 0.99938 0.01864 0.0
H601 H 0.88597 0.02246 0.85946 0.0
C602 C 0.88252 0.98676 0.03708 0.0
C603 C 0.86611 0.0121 0.95247 0.0
C604 C 0.8474 0.02491 0.92506 0.0
C605 C 0.90131 0.98667 0.99254 0.0
C606 C 0.90289 0.99996 0.92797 0.0
C607 C 0.88508 0.0124 0.90907 0.0
C608 C 0.92263 1.00103 0.87881 0.0
C609 C 0.91903 0.97172 0.014 0.0
C610 C 0.94264 1.00598 0.91032 0.0
C611 C 0.96086 1.00755 0.86405 0.0
C612 C 0.95972 1.00458 0.78432 0.0
C613 C 0.93973 0.99929 0.75302 0.0
C614 C 0.9215 0.99769 0.79935 0.0
H615 H 0.91304 0.95817 0.04788 0.0
H616 H 0.92728 0.96526 0.96276 0.0
H617 H 0.9308 0.9805 0.04946 0.0
H618 H 0.94416 0.00906 0.97089 0.0
H619 H 0.97582 0.01142 0.89113 0.0
H620 H 0.49362 0.80757 0.08541 0.0
H621 H 0.48945 0.84097 0.01495 0.0
H622 H 0.55058 0.86214 0.09719 0.0
H623 H 0.55486 0.82857 0.16538 0.0
H624 H 0.4885 0.88306 0.05018 0.0
H625 H 0.55953 0.86689 0.87209 0.0
H626 H 0.54832 0.84718 0.93402 0.0
H627 H 0.56554 0.86762 0.97189 0.0
C628 C 0.50593 0.81958 0.08919 0.0
C629 C 0.52456 0.81556 0.1306 0.0
C630 C 0.50364 0.8386 0.04868 0.0
C631 C 0.51995 0.85397 0.0488 0.0
C632 C 0.53803 0.85038 0.09392 0.0
H633 H 0.53802 0.97645 0.82303 0.0
H634 H 0.53994 0.94603 0.9091 0.0
C635 C 0.54039 0.83131 0.13363 0.0
C636 C 0.51835 0.87343 1.00049 0.0
H637 H 0.5441 0.90123 0.86143 0.0
C638 C 0.50064 0.88695 0.00877 0.0
C639 C 0.5341 0.87861 0.94581 0.0
C640 C 0.55282 0.86421 0.92973 0.0
C641 C 0.49847 0.90554 0.96521 0.0
C642 C 0.51434 0.91079 0.9114 0.0
C643 C 0.53203 0.89734 0.90312 0.0
C644 C 0.51259 0.9298 0.86142 0.0
C645 C 0.47934 0.91962 0.97775 0.0
C646 C 0.49664 0.93086 0.80568 0.0
C647 C 0.49558 0.94817 0.75622 0.0
C648 C 0.51043 0.96491 0.76126 0.0
C649 C 0.52623 0.96397 0.81785 0.0
C650 C 0.5274 0.94652 0.86692 0.0
H651 H 0.47107 0.91605 0.03203 0.0
H652 H 0.48401 0.93668 0.97828 0.0
H653 H 0.46793 0.91706 0.93033 0.0
H654 H 0.48518 0.91809 0.79954 0.0
H655 H 0.48307 0.94844 0.71395 0.0
H656 H 0.69777 0.55306 0.20412 0.0
H657 H 0.6648 0.54865 0.1316 0.0
H658 H 0.69081 0.49276 0.02068 0.0
H659 H 0.72424 0.49781 0.09164 0.0
H660 H 0.67317 0.51744 0.91782 0.0
H661 H 0.61464 0.51061 0.1508 0.0
H662 H 0.62995 0.53456 0.15972 0.0
H663 H 0.64288 0.50908 0.16748 0.0
C664 C 0.69634 0.53968 0.16495 0.0
C665 C 0.71365 0.52575 0.15397 0.0
C666 C 0.67732 0.53701 0.12379 0.0
C667 C 0.67485 0.52014 0.07082 0.0
C668 C 0.69203 0.50586 0.06122 0.0
H669 H 0.56712 0.48151 0.77641 0.0
H670 H 0.60036 0.48265 0.85058 0.0
C671 C 0.71112 0.50859 0.10238 0.0
C672 C 0.6551 0.51832 0.02198 0.0
H673 H 0.60047 0.518 0.02708 0.0
C674 C 0.65733 0.5173 0.94219 0.0
C675 C 0.63416 0.51822 0.05261 0.0
C676 C 0.63023 0.51796 0.13735 0.0
C677 C 0.63954 0.51666 0.8931 0.0
C678 C 0.6187 0.51704 0.9235 0.0
C679 C 0.61636 0.51786 1.00317 0.0
C680 C 0.59924 0.51656 0.87341 0.0
C681 C 0.64303 0.51619 0.80847 0.0
C682 C 0.58753 0.53523 0.85999 0.0
C683 C 0.56874 0.53464 0.8163 0.0
C684 C 0.56113 0.51536 0.78471 0.0
C685 C 0.57285 0.49669 0.79808 0.0
C686 C 0.59179 0.49732 0.84097 0.0
H687 H 0.66013 0.51684 0.79292 0.0
H688 H 0.63606 0.50138 0.78398 0.0
H689 H 0.63476 0.52997 0.78294 0.0
H690 H 0.59275 0.55027 0.88447 0.0
H691 H 0.55975 0.54919 0.80938 0.0
H692 H 0.01274 0.73913 0.01233 0.0
H693 H 0.01704 0.70473 0.94569 0.0
H694 H 0.99924 0.67224 0.15073 0.0
H695 H 0.99455 0.70686 0.21663 0.0
H696 H 0.04131 0.67036 0.9599 0.0
H697 H 0.9581 0.64491 1.00455 0.0
H698 H 0.96704 0.67157 0.02678 0.0
H699 H 0.97197 0.65027 0.09197 0.0
C700 C 0.01014 0.72461 0.0435 0.0
C701 C 1.00355 0.72581 0.12019 0.0
C702 C 0.01246 0.70484 0.00517 0.0
C703 C 0.00804 0.68551 0.04186 0.0
C704 C 1.00226 0.68669 0.11966 0.0
H705 H 0.04612 0.55868 0.8696 0.0
H706 H 0.04294 0.59328 0.93427 0.0
C707 C 0.99995 0.70653 0.15806 0.0
C708 C 0.00942 0.6644 0.99838 0.0
H709 H 0.98143 0.6191 0.95008 0.0
C710 C 0.02814 0.65923 0.958 0.0
C711 C 0.99224 0.6497 0.99362 0.0
C712 C 0.97112 0.65443 0.03084 0.0
C713 C 0.03031 0.64002 0.91525 0.0
C714 C 0.01343 0.62497 0.91276 0.0
C715 C 0.99454 0.6303 0.95179 0.0
C716 C 0.01529 0.60358 0.87157 0.0
C717 C 0.05066 0.63629 0.87159 0.0
C718 C 1.00052 0.59701 0.81529 0.0
C719 C 1.00233 0.57693 0.77789 0.0
C720 C 0.01896 0.56281 0.79574 0.0
C721 C 0.03339 0.56926 0.85294 0.0
C722 C 0.03164 0.58922 0.88996 0.0
H723 H 0.05907 0.65146 0.86021 0.0
H724 H 0.06141 0.62617 0.90565 0.0
H725 H 0.04753 0.62805 0.81644 0.0
H726 H 0.98759 0.60747 0.79995 0.0
H727 H 0.99056 0.57236 0.73577 0.0
H728 H 0.03669 0.21558 0.19041 0.0
H729 H 0.05717 0.18303 0.2102 0.0
H730 H 0.11509 0.21653 0.15785 0.0
H731 H 0.09422 0.2493 0.13569 0.0
H732 H 0.09581 0.16395 0.09144 0.0
H733 H 0.11343 0.18686 0.39151 0.0
H734 H 0.08926 0.19746 0.35225 0.0
H735 H 0.11444 0.20561 0.31436 0.0
C736 C 0.05375 0.21588 0.18247 0.0
C737 C 0.06397 0.23471 0.16146 0.0
C738 C 0.06541 0.19738 0.19336 0.0
C739 C 0.08754 0.19742 0.18444 0.0
C740 C 0.09796 0.21624 0.16398 0.0
H741 H 0.09246 0.09238 0.46011 0.0
H742 H 0.11599 0.11178 0.3742 0.0
C743 C 0.08616 0.23486 0.15229 0.0
C744 C 0.09914 0.17784 0.20368 0.0
H745 H 0.10666 0.15014 0.3657 0.0
C746 C 0.0991 0.16087 0.15087 0.0
C747 C 0.10432 0.17399 0.28031 0.0
C748 C 0.10557 0.19194 0.33811 0.0
C749 C 0.10081 0.13975 0.1754 0.0
C750 C 0.1016 0.13577 0.2545 0.0
C751 C 0.10548 0.15292 0.30505 0.0
C752 C 0.09202 0.11628 0.28737 0.0
C753 C 0.09998 0.12192 0.11711 0.0
C754 C 0.07137 0.11053 0.26422 0.0
C755 C 0.05811 0.0992 0.31261 0.0
C756 C 0.06513 0.09378 0.3855 0.0
C757 C 0.08662 0.09678 0.40445 0.0
C758 C 0.10008 0.1078 0.35525 0.0
H759 H 0.10992 0.12593 0.067 0.0
H760 H 0.10558 0.10663 0.14094 0.0
H761 H 0.08345 0.1199 0.09637 0.0
H762 H 0.06438 0.11709 0.21337 0.0
H763 H 0.0416 0.09709 0.29668 0.0
H764 H 0.29869 0.0872 0.99799 0.0
H765 H 0.33446 0.10172 0.02261 0.0
H766 H 0.33086 0.07892 0.2534 0.0
H767 H 0.2953 0.06546 0.22913 0.0
H768 H 0.35394 0.11515 0.24986 0.0
H769 H 0.38263 0.06178 0.01435 0.0
H770 H 0.36707 0.08506 0.99478 0.0
H771 H 0.35475 0.06222 0.03671 0.0
C772 C 0.30552 0.08598 0.05433 0.0
C773 C 0.29447 0.07534 0.11197 0.0
C774 C 0.32592 0.09414 0.06834 0.0
C775 C 0.3356 0.09118 0.13959 0.0
C776 C 0.3238 0.08169 0.19813 0.0
H777 H 0.3905 0.02907 0.41052 0.0
H778 H 0.37841 0.0617 0.35185 0.0
C779 C 0.30347 0.07392 0.18447 0.0
C780 C 0.35873 0.09432 0.15262 0.0
H781 H 0.40189 0.06244 0.1268 0.0
C782 C 0.36488 0.10432 0.22132 0.0
C783 C 0.3737 0.08129 0.11364 0.0
C784 C 0.3694 0.07197 0.03562 0.0
C785 C 0.38311 0.09763 0.2601 0.0
C786 C 0.39527 0.08075 0.22876 0.0
C787 C 0.39194 0.07469 0.15251 0.0
C788 C 0.40588 0.06503 0.27808 0.0
C789 C 0.38769 0.10689 0.33799 0.0
C790 C 0.42546 0.05595 0.25702 0.0
C791 C 0.43219 0.03697 0.28983 0.0
C792 C 0.41932 0.02663 0.34348 0.0
C793 C 0.40052 0.0365 0.3683 0.0
C794 C 0.39386 0.05547 0.33588 0.0
H795 H 0.38597 0.12449 0.33717 0.0
H796 H 0.37587 0.10079 0.37929 0.0
H797 H 0.4039 0.10283 0.35795 0.0
H798 H 0.43482 0.06274 0.21165 0.0
H799 H 0.44681 0.02971 0.26966 0.0
H800 H 0.43946 0.30558 0.07688 0.0
H801 H 0.43963 0.34437 0.09899 0.0
H802 H 0.50269 0.33992 0.19405 0.0
H803 H 0.50237 0.30122 0.17118 0.0
H804 H 0.44543 0.371 0.22464 0.0
H805 H 0.50974 0.37967 0.01385 0.0
H806 H 0.49881 0.35394 0.03547 0.0
H807 H 0.51939 0.36528 0.09416 0.0
C808 C 0.45303 0.31301 0.10429 0.0
C809 C 0.47083 0.30079 0.12312 0.0
C810 C 0.4532 0.33502 0.11657 0.0
C811 C 0.47138 0.34501 0.14643 0.0
C812 C 0.48869 0.33253 0.16946 0.0
H813 H 0.51545 0.45546 0.33557 0.0
H814 H 0.49922 0.42191 0.30012 0.0
C815 C 0.48845 0.31054 0.15738 0.0
C816 C 0.47271 0.36849 0.15071 0.0
H817 H 0.50395 0.41031 0.0995 0.0
C818 C 0.45797 0.37967 0.19618 0.0
C819 C 0.48893 0.3798 0.11253 0.0
C820 C 0.50493 0.36899 0.06075 0.0
C821 C 0.46004 0.40167 0.20902 0.0
C822 C 0.47703 0.41262 0.17476 0.0
C823 C 0.49084 0.40177 0.12518 0.0
C824 C 0.48331 0.43406 0.20088 0.0
C825 C 0.44484 0.41299 0.26224 0.0
C826 C 0.47936 0.45212 0.15707 0.0
C827 C 0.48821 0.47179 0.17842 0.0
C828 C 0.50147 0.47347 0.24294 0.0
C829 C 0.50486 0.45521 0.28706 0.0
C830 C 0.49573 0.43583 0.26657 0.0
H831 H 0.43046 0.40329 0.27366 0.0
H832 H 0.45297 0.41636 0.3172 0.0
H833 H 0.43993 0.42848 0.23807 0.0
H834 H 0.46992 0.45088 0.10563 0.0
H835 H 0.48506 0.4855 0.14348 0.0
H836 H 0.24576 0.44162 0.09553 0.0
H837 H 0.20914 0.4291 0.11996 0.0
H838 H 0.1942 0.49015 0.22302 0.0
H839 H 0.23058 0.50211 0.20014 0.0
H840 H 0.17842 0.45625 0.30391 0.0
H841 H 0.1583 0.45023 0.99532 0.0
H842 H 0.17824 0.43243 0.03123 0.0
H843 H 0.18358 0.46039 0.0275 0.0
C844 C 0.2346 0.45196 0.12498 0.0
C845 C 0.24063 0.47265 0.14686 0.0
C846 C 0.21378 0.44497 0.13819 0.0
C847 C 0.19896 0.45876 0.17288 0.0
C848 C 0.20541 0.47919 0.1967 0.0
H849 H 0.08413 0.51 0.16 0.0
H850 H 0.11602 0.48984 0.1282 0.0
C851 C 0.22607 0.48603 0.18388 0.0
C852 C 0.17633 0.45301 0.18222 0.0
H853 H 0.12997 0.45171 0.08184 0.0
C854 C 0.16773 0.45464 0.25572 0.0
C855 C 0.16259 0.45073 0.11894 0.0
C856 C 0.17101 0.44844 0.03866 0.0
C857 C 0.1458 0.45676 0.2673 0.0
C858 C 0.13204 0.45633 0.20335 0.0
C859 C 0.14055 0.45216 0.13057 0.0
C860 C 0.11006 0.46475 0.209 0.0
C861 C 0.13799 0.46175 0.34703 0.0
C862 C 0.09535 0.45669 0.2615 0.0
C863 C 0.07729 0.46856 0.28115 0.0
C864 C 0.0734 0.48821 0.24646 0.0
C865 C 0.08678 0.4949 0.18755 0.0
C866 C 0.10502 0.48333 0.16926 0.0
H867 H 0.15124 0.46462 0.38768 0.0
H868 H 0.12767 0.47609 0.34742 0.0
H869 H 0.12857 0.44813 0.36825 0.0
H870 H 0.09854 0.44201 0.29097 0.0
H871 H 0.06695 0.46295 0.32599 0.0
H872 H 0.99733 0.81282 0.11613 0.0
H873 H 0.97877 0.84478 0.07546 0.0
H874 H 0.91856 0.81575 0.12991 0.0
H875 H 0.93757 0.78369 0.17364 0.0
H876 H 0.92198 0.83188 0.97878 0.0
H877 H 0.94666 0.89346 0.18529 0.0
H878 H 0.96874 0.87622 0.16539 0.0
H879 H 0.94518 0.86555 0.20928 0.0
C880 C 0.98018 0.8135 0.12081 0.0
C881 C 0.96879 0.79601 0.14749 0.0
C882 C 0.96957 0.83175 0.09831 0.0
C883 C 0.9473 0.83283 0.10151 0.0
C884 C 0.93576 0.81534 0.12839 0.0
H885 H 0.96456 0.94401 0.84505 0.0
H886 H 0.93764 0.92598 0.92193 0.0
C887 C 0.94653 0.79706 0.15231 0.0
C888 C 0.93682 0.85124 0.06607 0.0
H889 H 0.95003 0.90333 0.04759 0.0
C890 C 0.92703 0.8478 0.99523 0.0
C891 C 0.94249 0.87217 0.08845 0.0
C892 C 0.95112 0.87707 0.16682 0.0
C893 C 0.92704 0.86386 0.94057 0.0
C894 C 0.93738 0.88332 0.95759 0.0
C895 C 0.94274 0.88813 0.03349 0.0
C896 C 0.94966 0.89433 0.89804 0.0
C897 C 0.91877 0.85886 0.86184 0.0
C898 C 0.96526 0.88252 0.85898 0.0
C899 C 0.98101 0.89268 0.8177 0.0
C900 C 0.98153 0.915 0.81341 0.0
C901 C 0.96501 0.92682 0.84838 0.0
C902 C 0.94936 0.91656 0.89133 0.0
H903 H 0.90407 0.84912 0.86518 0.0
H904 H 0.91537 0.8736 0.82982 0.0
H905 H 0.93079 0.84934 0.82991 0.0
H906 H 0.96634 0.86542 0.86542 0.0
H907 H 0.99358 0.88291 0.79368 0.0
H908 H 0.71653 0.01476 0.13096 0.0
H909 H 0.68593 0.01222 0.04592 0.0
H910 H 0.7038 0.9479 0.98402 0.0
H911 H 0.73448 0.95052 0.07058 0.0
H912 H 0.70088 0.97408 0.86168 0.0
H913 H 0.62862 0.98282 0.037 0.0
H914 H 0.64793 1.00242 0.06468 0.0
H915 H 0.65377 0.97457 0.07656 0.0
C916 C 0.71338 0.99985 0.1014 0.0
C917 C 0.72763 0.98283 0.10677 0.0
C918 C 0.69592 0.99834 0.05305 0.0
C919 C 0.69246 0.97976 0.00942 0.0
C920 C 0.70611 0.96228 0.0178 0.0
H921 H 0.58921 0.00957 0.70011 0.0
H922 H 0.61115 0.98559 0.77394 0.0
C923 C 0.72355 0.96377 0.06674 0.0
C924 C 0.67684 0.98028 0.94689 0.0
H925 H 0.62699 0.99828 0.9095 0.0
C926 C 0.6845 0.97871 0.87187 0.0
C927 C 0.65542 0.98591 0.96011 0.0
C928 C 0.64592 0.98629 0.03905 0.0
C929 C 0.67189 0.98485 0.81025 0.0
C930 C 0.65134 0.99301 0.82458 0.0
C931 C 0.64293 0.99238 0.89867 0.0
C932 C 0.63945 1.00497 0.76673 0.0
C933 C 0.68104 0.98354 0.73094 0.0
C934 C 0.64825 0.02359 0.73656 0.0
C935 C 0.63571 0.03746 0.69443 0.0
C936 C 0.61409 0.03301 0.68236 0.0
C937 C 0.60571 0.0137 0.70904 0.0
C938 C 0.61825 0.99984 0.75093 0.0
H939 H 0.69265 0.97026 0.72569 0.0
H940 H 0.6684 0.98124 0.68748 0.0
H941 H 0.68964 0.99854 0.71883 0.0
H942 H 0.66447 0.0281 0.7496 0.0
H943 H 0.64266 0.05224 0.67552 0.0
H944 H 0.58366 0.75112 0.20279 0.0
H945 H 0.59953 0.71575 0.17517 0.0
H946 H 0.53963 0.69468 0.08104 0.0
H947 H 0.52422 0.72968 0.10789 0.0
H948 H 0.58627 0.67607 0.22981 0.0
H949 H 0.58187 0.67562 0.91765 0.0
H950 H 0.5815 0.70004 0.97349 0.0
H951 H 0.55724 0.68553 0.95524 0.0
C952 C 0.57423 0.73888 0.17493 0.0
C953 C 0.55291 0.74283 0.1565 0.0
C954 C 0.58318 0.71881 0.15944 0.0
C955 C 0.57089 0.70278 0.12439 0.0
C956 C 0.54961 0.70699 0.10596 0.0
H957 H 0.52165 0.59259 0.15235 0.0
H958 H 0.54502 0.62213 0.18361 0.0
C959 C 0.54075 0.72684 0.12161 0.0
C960 C 0.57909 0.68096 0.11128 0.0
H961 H 0.5727 0.64149 0.97893 0.0
C962 C 0.58403 0.66847 0.17456 0.0
C963 C 0.57737 0.67112 0.0387 0.0
C964 C 0.57447 0.68389 0.96737 0.0
C965 C 0.58368 0.64613 0.16889 0.0
C966 C 0.57785 0.63638 0.09891 0.0
C967 C 0.57652 0.64888 0.03342 0.0
C968 C 0.56811 0.61489 0.09518 0.0
C969 C 0.5883 0.63315 0.23851 0.0
C970 C 0.57348 0.60051 0.03629 0.0
C971 C 0.55989 0.58361 0.01772 0.0
C972 C 0.54066 0.58092 0.0575 0.0
C973 C 0.53638 0.5941 0.12094 0.0
C974 C 0.54992 0.61098 0.13935 0.0
H975 H 0.5998 0.64151 0.27645 0.0
H976 H 0.57347 0.63075 0.27144 0.0
H977 H 0.59478 0.61726 0.22246 0.0
H978 H 0.58736 0.60325 1.00121 0.0
H979 H 0.56378 0.57342 0.96938 0.0
H980 H 0.78436 0.56961 0.32487 0.0
H981 H 0.82089 0.58325 0.31835 0.0
H982 H 0.82203 0.56907 0.07701 0.0
H983 H 0.78577 0.5557 0.08423 0.0
H984 H 0.85092 0.55608 0.2858 0.0
H985 H 0.85879 0.62078 0.08096 0.0
H986 H 0.83355 0.61427 0.12407 0.0
H987 H 0.84243 0.6005 0.03882 0.0
C988 C 0.79219 0.57055 0.27006 0.0
C989 C 0.78244 0.56187 0.20485 0.0
C990 C 0.81299 0.57824 0.26631 0.0
C991 C 0.82418 0.57743 0.19704 0.0
C992 C 0.81362 0.57052 0.13066 0.0
H993 H 0.9292 0.51586 0.04992 0.0
H994 H 0.89707 0.53035 0.1091 0.0
C995 C 0.79288 0.56284 0.13458 0.0
C996 C 0.84766 0.57897 0.19588 0.0
H997 H 0.88788 0.59384 0.07787 0.0
C998 C 0.8591 0.5649 0.24194 0.0
C999 C 0.85858 0.5908 0.14021 0.0
C1000 C 0.84764 0.6076 0.09396 0.0
C1001 C 0.88053 0.56041 0.22734 0.0
C1002 C 0.89058 0.57006 0.16468 0.0
C1003 C 0.87995 0.58605 0.12477 0.0
C1004 C 0.91057 0.56146 0.13262 0.0
C1005 C 0.89176 0.5444 0.27632 0.0
C1006 C 0.92861 0.57434 0.12475 0.0
C1007 C 0.947 0.56609 0.09059 0.0
C1008 C 0.94742 0.54497 0.06274 0.0
C1009 C 0.92924 0.53223 0.07023 0.0
C1010 C 0.911 0.5404 0.10488 0.0
H1011 H 0.88576 0.54525 0.33577 0.0
H1012 H 0.8885 0.52812 0.25386 0.0
H1013 H 0.90922 0.54699 0.27696 0.0
H1014 H 0.92844 0.59072 0.14494 0.0
H1015 H 0.96078 0.57628 0.08495 0.0
H1016 H 0.99803 0.2309 0.08604 0.0
H1017 H 0.9932 0.19678 0.01636 0.0
H1018 H 0.05667 0.20184 0.9264 0.0
H1019 H 0.06127 0.23587 0.99463 0.0
H1020 H 0.99717 0.18393 0.85674 0.0
H1021 H 0.05763 0.14357 0.03296 0.0
H1022 H 0.04618 0.16892 0.06003 0.0
H1023 H 0.06665 0.16756 0.98876 0.0
C1024 C 0.01066 0.22504 0.04947 0.0
C1025 C 0.02999 0.2363 0.04564 0.0
C1026 C 0.00803 0.20533 0.01027 0.0
C1027 C 0.02474 0.19621 0.96696 0.0
C1028 C 0.04362 0.20804 0.96029 0.0
H1029 H 0.04314 0.07344 0.71388 0.0
H1030 H 0.04857 0.10811 0.77931 0.0
C1031 C 0.04616 0.22772 0.99869 0.0
C1032 C 0.02272 0.17434 0.92974 0.0
H1033 H 0.04418 0.12391 0.92718 0.0
C1034 C 1.0074 0.17083 0.8726 0.0
C1035 C 0.03613 0.15701 0.94915 0.0
C1036 C 0.05247 0.15929 0.01149 0.0
C1037 C 1.00537 0.15092 0.83406 0.0
C1038 C 0.01858 0.13347 0.85411 0.0
C1039 C 0.03399 0.13702 0.91108 0.0
C1040 C 0.01604 0.11143 0.81831 0.0
C1041 C 0.98938 0.14904 0.77034 0.0
C1042 C 0.99626 0.101 0.81998 0.0
C1043 C 0.99321 0.08124 0.78292 0.0
C1044 C 0.0099 0.07079 0.74406 0.0
C1045 C 0.02999 0.08073 0.74438 0.0
C1046 C 0.03305 0.10071 0.78149 0.0
H1047 H 0.98567 0.16483 0.74586 0.0
H1048 H 0.99522 0.13837 0.72389 0.0
H1049 H 0.97436 0.14237 0.79299 0.0
H1050 H 0.98293 0.1083 0.84937 0.0
H1051 H 0.97751 0.07417 0.78387 0.0
H1052 H 0.31062 0.02752 0.10556 0.0
H1053 H 0.34378 0.02126 0.03438 0.0
H1054 H 0.31298 0.04158 0.82858 0.0
H1055 H 0.27991 0.04793 0.90054 0.0
H1056 H 0.35746 0.9973 0.91554 0.0
H1057 H 0.36231 0.08176 0.83433 0.0
H1058 H 0.34149 0.07214 0.89536 0.0
H1059 H 0.33944 0.06897 0.79365 0.0
C1060 C 0.31084 0.03008 0.04471 0.0
C1061 C 0.29256 0.03793 0.00844 0.0
C1062 C 0.32987 0.02664 1.00391 0.0
C1063 C 0.33136 0.03143 0.92587 0.0
C1064 C 0.31269 0.03825 0.88889 0.0
H1065 H 0.43099 0.03367 0.57987 0.0
H1066 H 0.39882 0.03638 0.65722 0.0
C1067 C 0.29361 0.04156 0.92971 0.0
C1068 C 0.35245 0.0299 0.8843 0.0
H1069 H 0.3876 0.05831 0.77586 0.0
C1070 C 0.36405 0.0107 0.88529 0.0
C1071 C 0.36141 0.04729 0.84453 0.0
C1072 C 0.35062 0.06874 0.84248 0.0
C1073 C 0.38362 1.00819 0.84598 0.0
C1074 C 0.39253 0.02557 0.80585 0.0
C1075 C 0.38107 0.04486 0.80608 0.0
C1076 C 0.41292 0.02391 0.75975 0.0
C1077 C 0.39407 0.98657 0.84551 0.0
C1078 C 0.43216 0.01617 0.79052 0.0
C1079 C 0.45077 0.01439 0.74544 0.0
C1080 C 0.45081 0.02084 0.66891 0.0
C1081 C 0.43169 0.02877 0.63875 0.0
C1082 C 0.41317 0.03037 0.68329 0.0
H1083 H 0.38257 0.97377 0.85935 0.0
H1084 H 0.40131 0.98283 0.7892 0.0
H1085 H 0.40678 0.98639 0.88925 0.0
H1086 H 0.4329 0.01155 0.84958 0.0
H1087 H 0.46504 1.00784 0.7703 0.0
H1088 H 0.5147 0.29332 0.99875 0.0
H1089 H 0.51971 0.32612 0.92593 0.0
H1090 H 0.45433 0.32307 0.85335 0.0
H1091 H 0.4495 0.29028 0.92668 0.0
H1092 H 0.51369 0.33805 0.77114 0.0
H1093 H 0.45862 0.38036 0.96732 0.0
H1094 H 0.46467 0.35253 0.97748 0.0
H1095 H 0.44554 0.36079 0.90841 0.0
C1096 C 0.50172 0.29925 0.96461 0.0
C1097 C 0.48188 0.28903 0.96659 0.0
C1098 C 0.50448 0.3181 0.92366 0.0
C1099 C 0.48733 0.32734 0.88475 0.0
C1100 C 0.46777 0.31646 0.88338 0.0
H1101 H 0.47192 0.45641 0.7082 0.0
H1102 H 0.46666 0.41963 0.7479 0.0
C1103 C 0.46507 0.29756 0.92421 0.0
C1104 C 0.4897 0.34888 0.84985 0.0
H1105 H 0.47283 0.40052 0.86569 0.0
C1106 C 0.50471 0.35173 0.79157 0.0
C1107 C 0.47775 0.36676 0.87531 0.0
C1108 C 0.46086 0.36503 0.93596 0.0
C1109 C 0.50795 0.37174 0.75769 0.0
C1110 C 0.49676 0.3899 0.78572 0.0
C1111 C 0.48163 0.38691 0.84383 0.0
C1112 C 0.50022 0.41207 0.75608 0.0
C1113 C 0.52278 0.3728 0.69026 0.0
C1114 C 0.5208 0.42055 0.74654 0.0
C1115 C 0.52378 0.44143 0.72077 0.0
C1116 C 0.50628 0.45471 0.70695 0.0
C1117 C 0.48574 0.44651 0.71795 0.0
C1118 C 0.48275 0.42544 0.74115 0.0
H1119 H 0.5235 0.35728 0.65919 0.0
H1120 H 0.51779 0.3852 0.64955 0.0
H1121 H 0.53908 0.37647 0.71063 0.0
H1122 H 0.53467 0.41123 0.76064 0.0
H1123 H 0.53981 0.44747 0.71459 0.0
H1124 H 0.2379 0.53191 0.07523 0.0
H1125 H 0.20382 0.53681 0.00808 0.0
H1126 H 0.21315 0.47692 0.89 0.0
H1127 H 0.24695 0.47209 0.95766 0.0
H1128 H 0.19686 0.50959 0.79398 0.0
H1129 H 0.15006 0.50084 0.05872 0.0
H1130 H 0.16703 0.52384 0.06039 0.0
H1131 H 0.17854 0.49772 0.05697 0.0
C1132 C 0.23296 0.52021 0.03296 0.0
C1133 C 0.24541 0.5019 0.02007 0.0
C1134 C 0.2133 0.52281 0.99541 0.0
C1135 C 0.20562 0.50716 0.94391 0.0
C1136 C 0.21855 0.48931 0.92891 0.0
H1137 H 0.07872 0.4788 0.76524 0.0
H1138 H 0.11386 0.47848 0.82486 0.0
C1139 C 0.23802 0.48663 0.96699 0.0
C1140 C 0.18396 0.50886 0.90743 0.0
H1141 H 0.13044 0.50929 0.94631 0.0
C1142 C 0.18237 0.50965 0.82749 0.0
C1143 C 0.16484 0.50869 0.95051 0.0
C1144 C 0.16512 0.50752 0.0363 0.0
C1145 C 0.16248 0.51052 0.79 0.0
C1146 C 0.1434 0.51045 0.833 0.0
C1147 C 0.14495 0.50945 0.91289 0.0
C1148 C 0.12177 0.51086 0.7959 0.0
C1149 C 0.16193 0.51108 0.70421 0.0
C1150 C 0.1142 0.52911 0.75889 0.0
C1151 C 0.09373 0.52949 0.72592 0.0
C1152 C 0.0802 0.5116 0.72882 0.0
C1153 C 0.08818 0.49316 0.76384 0.0
C1154 C 0.10847 0.49288 0.79764 0.0
H1155 H 0.17777 0.50783 0.67856 0.0
H1156 H 0.15038 0.49922 0.68158 0.0
H1157 H 0.15661 0.52707 0.68596 0.0
H1158 H 0.12401 0.54325 0.75652 0.0
H1159 H 0.08842 0.54399 0.69941 0.0
H1160 H 0.03275 0.80056 0.23321 0.0
H1161 H 0.03733 0.83496 0.30088 0.0
H1162 H 0.97296 0.83103 0.38345 0.0
H1163 H 0.96871 0.79666 0.31757 0.0
H1164 H 0.01676 0.87242 0.28019 0.0
H1165 H 1.00165 0.84889 0.57764 0.0
H1166 H 1.00643 0.82956 0.50255 0.0
H1167 H 0.98051 0.84129 0.51447 0.0
C1168 C 0.01989 0.80667 0.26816 0.0
C1169 C 1.00051 0.79547 0.27127 0.0
C1170 C 0.02237 0.82658 0.30616 0.0
C1171 C 1.00563 0.83585 0.34904 0.0
C1172 C 0.98644 0.82435 0.35314 0.0
H1173 H 0.98751 0.96038 0.59265 0.0
H1174 H 0.98181 0.92538 0.52988 0.0
C1175 C 0.98398 0.80456 0.31522 0.0
C1176 C 1.00769 0.8579 0.38555 0.0
H1177 H 1.00165 0.88612 0.55376 0.0
C1178 C 0.01361 0.87526 0.3402 0.0
C1179 C 1.00336 0.86214 0.46391 0.0
C1180 C 0.99783 0.84447 0.51769 0.0
C1181 C 0.01506 0.89633 0.37008 0.0
C1182 C 0.01088 0.90055 0.44848 0.0
C1183 C 1.0048 0.88324 0.49378 0.0
C1184 C 0.01377 0.92248 0.48491 0.0
C1185 C 0.02056 0.91403 0.31642 0.0
C1186 C 0.03358 0.93285 0.48186 0.0
C1187 C 0.0368 0.9528 0.51759 0.0
C1188 C 0.02033 0.96335 0.55746 0.0
C1189 C 1.00043 0.95308 0.56097 0.0
C1190 C 0.99723 0.9329 0.52544 0.0
H1191 H 0.0171 0.90953 0.25626 0.0
H1192 H 0.01158 0.92872 0.33104 0.0
H1193 H 0.03778 0.9176 0.3208 0.0
H1194 H 0.04687 0.92524 0.4533 0.0
H1195 H 0.05244 0.95994 0.51481 0.0
H1196 H 0.73699 0.02894 0.29693 0.0
H1197 H 0.70322 0.03344 0.36749 0.0
H1198 H 0.68784 0.96767 0.32246 0.0
H1199 H 0.72154 0.96312 0.2538 0.0
H1200 H 0.6559 1.00347 0.27533 0.0
H1201 H 0.68024 1.00642 0.57975 0.0
H1202 H 0.69701 0.01722 0.50649 0.0
H1203 H 0.69409 0.98895 0.51372 0.0
C1204 C 0.72673 0.0153 0.30443 0.0
C1205 C 0.73213 0.99559 0.2702 0.0
C1206 C 0.7073 0.01791 0.34427 0.0
C1207 C 0.6928 1.00088 0.35081 0.0
C1208 C 0.6986 0.98107 0.31885 0.0
H1209 H 0.57453 0.97784 0.59915 0.0
H1210 H 0.61002 0.97704 0.5404 0.0
C1211 C 0.71797 0.97845 0.27972 0.0
C1212 C 0.67094 1.00383 0.38507 0.0
H1213 H 0.64351 1.0061 0.55431 0.0
C1214 C 0.65324 1.00431 0.33635 0.0
C1215 C 0.66725 1.00482 0.4647 0.0
C1216 C 0.68556 1.00436 0.5198 0.0
C1217 C 0.63219 1.00549 0.36462 0.0
C1218 C 0.62834 1.00601 0.44442 0.0
C1219 C 0.64614 1.0057 0.49325 0.0
C1220 C 0.60609 1.00623 0.47801 0.0
C1221 C 0.61417 1.00517 0.30844 0.0
C1222 C 0.5916 0.02281 0.46314 0.0
C1223 C 0.5712 0.02322 0.49678 0.0
C1224 C 0.56449 1.00693 0.54565 0.0
C1225 C 0.57892 0.99035 0.56033 0.0
C1226 C 0.59935 0.98999 0.52709 0.0
H1227 H 0.61944 1.00045 0.25018 0.0
H1228 H 0.60188 0.99386 0.32736 0.0
H1229 H 0.60692 0.02123 0.30568 0.0
H1230 H 0.5963 0.0359 0.42744 0.0
H1231 H 0.56091 0.0367 0.4866 0.0
H1232 H 0.55007 0.74711 0.33393 0.0
H1233 H 0.54359 0.71368 0.40044 0.0
H1234 H 0.48247 0.70823 0.29109 0.0
H1235 H 0.48904 0.74203 0.22491 0.0
H1236 H 0.48182 0.69351 0.44296 0.0
H1237 H 0.54697 0.6579 0.27655 0.0
H1238 H 0.55707 0.67947 0.33416 0.0
H1239 H 0.5379 0.68455 0.26033 0.0
C1240 C 0.535 0.73906 0.326 0.0
C1241 C 0.51999 0.74721 0.27497 0.0
C1242 C 0.53136 0.71986 0.3634 0.0
C1243 C 0.51268 0.70814 0.35 0.0
C1244 C 0.49702 0.71691 0.30245 0.0
H1245 H 0.51472 0.57127 0.4375 0.0
H1246 H 0.51244 0.6063 0.37966 0.0
C1247 C 0.50067 0.73628 0.26508 0.0
C1248 C 0.51048 0.68615 0.3812 0.0
H1249 H 0.53592 0.63809 0.38615 0.0
C1250 C 0.49355 0.68132 0.43027 0.0
C1251 C 0.52535 0.66993 0.36304 0.0
C1252 C 0.5427 0.67318 0.305 0.0
C1253 C 0.49156 0.66103 0.46352 0.0
C1254 C 0.50736 0.64524 0.44957 0.0
C1255 C 0.5239 0.65003 0.39854 0.0
C1256 C 0.50709 0.6236 0.48564 0.0
C1257 C 0.4722 0.65668 0.51156 0.0
C1258 C 0.50471 0.62118 0.56495 0.0
C1259 C 0.5055 0.60092 0.59809 0.0
C1260 C 0.50938 0.58261 0.55313 0.0
C1261 C 0.51185 0.58502 0.47404 0.0
C1262 C 0.51056 0.60515 0.4408 0.0
H1263 H 0.45864 0.66694 0.49492 0.0
H1264 H 0.46716 0.63978 0.50656 0.0
H1265 H 0.4759 0.66035 0.57211 0.0
H1266 H 0.50277 0.635 0.60181 0.0
H1267 H 0.50378 0.59967 0.65926 0.0
H1268 H 0.80384 0.51824 0.18339 0.0
H1269 H 0.83798 0.51487 0.24938 0.0
H1270 H 0.80579 0.5209 0.46551 0.0
H1271 H 0.7717 0.52509 0.39847 0.0
H1272 H 0.83944 0.54592 0.46623 0.0
H1273 H 0.86689 0.46771 0.35655 0.0
H1274 H 0.8612 0.48585 0.28136 0.0
H1275 H 0.84006 0.47696 0.34248 0.0
C1276 C 0.80401 0.51811 0.24504 0.0
C1277 C 0.78494 0.52138 0.28565 0.0
C1278 C 0.82361 0.5162 0.28306 0.0
C1279 C 0.8248 0.51722 0.36322 0.0
C1280 C 0.80558 0.51988 0.40389 0.0
H1281 H 0.94094 0.48709 0.62423 0.0
H1282 H 0.90558 0.48701 0.5661 0.0
C1283 C 0.78597 0.52194 0.36567 0.0
C1284 C 0.84601 0.51685 0.40418 0.0
H1285 H 0.8929 0.48923 0.41979 0.0
C1286 C 0.851 0.53337 0.45632 0.0
C1287 C 0.86138 0.50055 0.39238 0.0
C1288 C 0.85706 0.48166 0.34074 0.0
C1289 C 0.87065 0.5342 0.49552 0.0
C1290 C 0.88631 0.51828 0.48179 0.0
C1291 C 0.8812 0.50159 0.43057 0.0
C1292 C 0.90796 0.51864 0.5196 0.0
C1293 C 0.87423 0.55205 0.55244 0.0
C1294 C 0.92149 0.53641 0.51402 0.0
C1295 C 0.94179 0.53652 0.54788 0.0
C1296 C 0.94961 0.5187 0.58712 0.0
C1297 C 0.9359 0.50105 0.59389 0.0
C1298 C 0.91551 0.50097 0.56025 0.0
H1299 H 0.85895 0.55868 0.57391 0.0
H1300 H 0.88372 0.54663 0.60179 0.0
H1301 H 0.88298 0.56512 0.52435 0.0
H1302 H 0.91652 0.55021 0.48237 0.0
H1303 H 0.9514 0.55069 0.54306 0.0
loop_
_geom_bond_atom_site_label_1
_geom_bond_atom_site_label_2
_geom_bond_distance
_geom_bond_site_symmetry_2
_ccdc_geom_bond_type
C0 N1 1.317 . S
C0 N2 1.348 . S
C0 C3 1.485 . S
N1 C0 1.317 . S
N1 N5 1.370 . S
N2 C0 1.348 . S
N2 C4 1.346 . S
C3 C0 1.485 . S
C3 H7 0.960 . S
C3 H8 0.961 . S
C3 H9 0.960 . S
C4 N2 1.346 . S
C4 N5 1.307 . S
C4 C6 1.486 . S
N5 N1 1.370 . S
N5 C4 1.307 . S
C6 C4 1.486 . S
C6 H10 0.960 . S
C6 H11 0.960 . S
C6 H12 0.959 . S
H7 C3 0.960 . S
H8 C3 0.961 . S
H9 C3 0.960 . S
H10 C6 0.960 . S
H11 C6 0.960 . S
H12 C6 0.959 . S
C13 N14 1.317 . S
C13 N15 1.348 . S
C13 C16 1.485 . S
N14 C13 1.317 . S
N14 N18 1.370 . S
N15 C13 1.348 . S
N15 C17 1.346 . S
C16 C13 1.485 . S
C16 H20 0.960 . S
C16 H21 0.961 . S
C16 H22 0.960 . S
C17 N15 1.346 . S
C17 N18 1.307 . S
C17 C19 1.486 . S
N18 N14 1.370 . S
N18 C17 1.307 . S
C19 C17 1.486 . S
C19 H23 0.960 . S
C19 H24 0.960 . S
C19 H25 0.959 . S
H20 C16 0.960 . S
H21 C16 0.961 . S
H22 C16 0.960 . S
H23 C19 0.960 . S
H24 C19 0.960 . S
H25 C19 0.959 . S
C26 N27 1.317 . S
C26 N28 1.348 . S
C26 C29 1.485 . S
N27 C26 1.317 . S
N27 N31 1.370 . S
N28 C26 1.348 . S
N28 C30 1.346 . S
C29 C26 1.485 . S
C29 H33 0.960 . S
C29 H34 0.961 . S
C29 H35 0.960 . S
C30 N28 1.346 . S
C30 N31 1.307 . S
C30 C32 1.486 . S
N31 N27 1.370 . S
N31 C30 1.307 . S
C32 C30 1.486 . S
C32 H36 0.960 . S
C32 H37 0.960 . S
C32 H38 0.959 . S
H33 C29 0.960 . S
H34 C29 0.961 . S
H35 C29 0.960 . S
H36 C32 0.960 . S
H37 C32 0.960 . S
H38 C32 0.959 . S
C39 N40 1.317 . S
C39 N41 1.348 . S
C39 C42 1.485 . S
N40 C39 1.317 . S
N40 N44 1.370 . S
N41 C39 1.348 . S
N41 C43 1.346 . S
C42 C39 1.485 . S
C42 H46 0.960 . S
C42 H47 0.961 . S
C42 H48 0.960 . S
C43 N41 1.346 . S
C43 N44 1.307 . S
C43 C45 1.486 . S
N44 N40 1.370 . S
N44 C43 1.307 . S
C45 C43 1.486 . S
C45 H49 0.960 . S
C45 H50 0.960 . S
C45 H51 0.959 . S
H46 C42 0.960 . S
H47 C42 0.961 . S
H48 C42 0.960 . S
H49 C45 0.960 . S
H50 C45 0.960 . S
H51 C45 0.959 . S
C52 N53 1.317 . S
C52 N54 1.348 1_556 S
C52 C55 1.485 . S
N53 C52 1.317 . S
N53 N57 1.370 1_556 S
N54 C52 1.348 1_554 S
N54 C56 1.346 . S
C55 C52 1.485 . S
C55 H59 0.960 . S
C55 H60 0.961 . S
C55 H61 0.960 . S
C56 N54 1.346 . S
C56 N57 1.307 . S
C56 C58 1.486 . S
N57 N53 1.370 1_554 S
N57 C56 1.307 . S
C58 C56 1.486 . S
C58 H62 0.960 . S
C58 H63 0.960 . S
C58 H64 0.959 . S
H59 C55 0.960 . S
H60 C55 0.961 . S
H61 C55 0.960 . S
H62 C58 0.960 . S
H63 C58 0.960 . S
H64 C58 0.959 . S
C65 N66 1.317 . S
C65 N67 1.348 1_556 S
C65 C68 1.485 . S
N66 C65 1.317 . S
N66 N70 1.370 1_556 S
N67 C65 1.348 1_554 S
N67 C69 1.346 . S
C68 C65 1.485 . S
C68 H72 0.960 . S
C68 H73 0.961 . S
C68 H74 0.960 . S
C69 N67 1.346 . S
C69 N70 1.307 . S
C69 C71 1.486 . S
N70 N66 1.370 1_554 S
N70 C69 1.307 . S
C71 C69 1.486 . S
C71 H75 0.960 . S
C71 H76 0.960 . S
C71 H77 0.959 . S
H72 C68 0.960 . S
H73 C68 0.961 . S
H74 C68 0.960 . S
H75 C71 0.960 . S
H76 C71 0.960 . S
H77 C71 0.959 . S
C78 N79 1.317 . S
C78 N80 1.348 1_556 S
C78 C81 1.485 . S
N79 C78 1.317 . S
N79 N83 1.370 1_556 S
N80 C78 1.348 1_554 S
N80 C82 1.346 . S
C81 C78 1.485 . S
C81 H85 0.960 . S
C81 H86 0.961 . S
C81 H87 0.960 . S
C82 N80 1.346 . S
C82 N83 1.307 . S
C82 C84 1.486 . S
N83 N79 1.370 1_554 S
N83 C82 1.307 . S
C84 C82 1.486 . S
C84 H88 0.960 . S
C84 H89 0.960 . S
C84 H90 0.959 . S
H85 C81 0.960 . S
H86 C81 0.961 . S
H87 C81 0.960 . S
H88 C84 0.960 . S
H89 C84 0.960 . S
H90 C84 0.959 . S
C91 N92 1.317 . S
C91 N93 1.348 1_556 S
C91 C94 1.485 . S
N92 C91 1.317 . S
N92 N96 1.370 1_556 S
N93 C91 1.348 1_554 S
N93 C95 1.346 . S
C94 C91 1.485 . S
C94 H98 0.960 . S
C94 H99 0.961 . S
C94 H100 0.960 . S
C95 N93 1.346 . S
C95 N96 1.307 . S
C95 C97 1.486 . S
N96 N92 1.370 1_554 S
N96 C95 1.307 . S
C97 C95 1.486 . S
C97 H101 0.960 . S
C97 H102 0.960 . S
C97 H103 0.959 . S
H98 C94 0.960 . S
H99 C94 0.961 . S
H100 C94 0.960 . S
H101 C97 0.960 . S
H102 C97 0.960 . S
H103 C97 0.959 . S
Gd104 N135 2.661 . S
Gd104 N141 2.601 . S
Gd104 O148 2.545 . S
Gd104 O149 2.606 1_655 S
Gd104 O151 2.429 . S
Gd104 O152 2.545 1_655 S
Gd104 O153 2.412 . S
Gd104 O155 2.362 1_545 S
Gd104 O156 2.324 1_655 S
Gd104 C163 2.828 . S
Gd105 N114 2.661 1_565 S
Gd105 N118 2.590 1_565 S
Gd105 O149 2.362 1_565 S
Gd105 O150 2.324 1_455 S
Gd105 O154 2.545 . S
Gd105 O155 2.606 1_455 S
Gd105 O157 2.429 . S
Gd105 O158 2.545 . S
Gd105 O159 2.412 . S
Gd105 C172 2.828 . S
C106 C109 1.417 . S
C106 C111 1.431 . S
C106 C112 1.412 . S
C107 C110 1.437 . S
C107 C111 1.317 . S
C107 H126 0.929 . S
C108 C109 1.426 . S
C108 C110 1.413 . S
C108 N118 1.385 . S
C109 C106 1.417 . S
C109 C108 1.426 . S
C109 N114 1.350 . S
C110 C107 1.437 . S
C110 C108 1.413 . S
C110 C120 1.391 . S
C111 C106 1.431 . S
C111 C107 1.317 . S
C111 H122 0.930 1_556 S
C112 C106 1.412 . S
C112 C113 1.355 . S
C112 H124 0.930 1_556 S
C113 C112 1.355 . S
C113 C115 1.402 . S
C113 H125 0.930 1_455 S
N114 Gd105 2.661 1_545 S
N114 C109 1.350 . S
N114 C115 1.307 . S
C115 C113 1.402 . S
C115 N114 1.307 . S
C115 H116 0.930 1_455 S
H116 C115 0.930 1_655 S
C117 N118 1.316 1_565 S
C117 C119 1.394 . S
C117 H121 0.930 . S
N118 Gd105 2.590 1_545 S
N118 C108 1.385 . S
N118 C117 1.316 1_545 S
C119 C117 1.394 . S
C119 C120 1.359 1_565 S
C119 H131 0.930 . S
C120 C110 1.391 . S
C120 C119 1.359 1_545 S
C120 H132 0.929 . S
H121 C117 0.930 . S
H122 C111 0.930 1_554 S
H123 C140 0.930 . S
H124 C112 0.930 1_554 S
H125 C113 0.930 1_655 S
H126 C107 0.929 . S
H127 C145 0.930 . S
H128 C136 0.930 . S
H129 C137 0.930 . S
H130 C161 0.929 . S
H131 C119 0.930 . S
H132 C120 0.929 . S
H133 C162 0.930 . S
H134 C143 0.930 . S
N135 Gd104 2.661 . S
N135 C139 1.350 1_545 S
N135 C140 1.307 1_645 S
C136 H128 0.930 . S
C136 C137 1.355 1_655 S
C136 C138 1.412 . S
C137 H129 0.930 . S
C137 C136 1.355 1_455 S
C137 C140 1.402 . S
C138 C136 1.412 . S
C138 C139 1.417 . S
C138 C162 1.431 . S
C139 N135 1.350 1_565 S
C139 C138 1.417 . S
C139 C142 1.426 1_565 S
C140 H123 0.930 . S
C140 N135 1.307 1_465 S
C140 C137 1.402 . S
N141 Gd104 2.601 . S
N141 C142 1.359 . S
N141 C145 1.334 . S
C142 C139 1.426 1_545 S
C142 N141 1.359 . S
C142 C146 1.413 . S
C143 H134 0.930 . S
C143 C144 1.359 . S
C143 C145 1.394 . S
C144 C143 1.359 . S
C144 C146 1.391 . S
C144 H147 0.929 . S
C145 H127 0.930 . S
C145 N141 1.334 . S
C145 C143 1.394 . S
C146 C142 1.413 . S
C146 C144 1.391 . S
C146 C161 1.437 1_545 S
H147 C144 0.929 . S
O148 Gd104 2.545 . S
O148 C163 1.258 . S
O149 Gd104 2.606 1_455 S
O149 Gd105 2.362 1_545 S
O149 C160 1.284 . S
O150 Gd105 2.324 1_655 S
O150 C170 1.254 1_565 S
O151 Gd104 2.429 . S
O151 C170 1.268 . S
O152 Gd104 2.545 1_455 S
O152 C160 1.250 . S
O153 Gd104 2.412 . S
O153 C163 1.252 . S
O154 Gd105 2.545 . S
O154 C172 1.258 . S
O155 Gd104 2.362 1_565 S
O155 Gd105 2.606 1_655 S
O155 C171 1.284 . S
O156 Gd104 2.324 1_455 S
O156 C179 1.254 . S
O157 Gd105 2.429 . S
O157 C179 1.268 1_565 S
O158 Gd105 2.545 . S
O158 C171 1.250 1_455 S
O159 Gd105 2.412 . S
O159 C172 1.252 . S
C160 O149 1.284 . S
C160 O152 1.250 . S
C161 H130 0.929 . S
C161 C146 1.437 1_565 S
C161 C162 1.317 . S
C162 H133 0.930 . S
C162 C138 1.431 . S
C162 C161 1.317 . S
C163 Gd104 2.828 . S
C163 O148 1.258 . S
C163 O153 1.252 . S
C163 C164 1.497 . S
C164 C163 1.497 . S
C164 C165 1.395 . S
C164 C166 1.380 . S
C165 C164 1.395 . S
C165 C168 1.398 . S
C165 H180 0.930 . S
C166 C164 1.380 . S
C166 C167 1.391 . S
C166 H181 0.930 1_655 S
C167 C166 1.391 . S
C167 C169 1.387 . S
C168 C165 1.398 . S
C168 C169 1.380 . S
C168 H182 0.930 . S
C169 C167 1.387 . S
C169 C168 1.380 . S
C169 H183 0.930 . S
C170 O150 1.254 1_545 S
C170 O151 1.268 . S
C171 O155 1.284 . S
C171 O158 1.250 1_655 S
C172 Gd105 2.828 . S
C172 O154 1.258 . S
C172 O159 1.252 . S
C172 C173 1.497 . S
C173 C172 1.497 . S
C173 C174 1.395 . S
C173 C175 1.380 . S
C174 C173 1.395 . S
C174 C177 1.398 . S
C174 H184 0.930 . S
C175 C173 1.380 . S
C175 C176 1.391 . S
C175 H185 0.886 1_455 S
C176 C175 1.391 . S
C176 C178 1.387 . S
C177 C174 1.398 . S
C177 C178 1.380 . S
C177 H186 0.930 . S
C178 C176 1.387 . S
C178 C177 1.380 . S
C178 H187 0.930 . S
C179 O156 1.254 . S
C179 O157 1.268 1_545 S
H180 C165 0.930 . S
H181 C166 0.930 1_455 S
H182 C168 0.930 . S
H183 C169 0.930 . S
H184 C174 0.930 . S
H185 C175 0.886 1_655 S
H186 C177 0.930 . S
H187 C178 0.930 . S
Gd188 N219 2.661 . S
Gd188 N225 2.601 . S
Gd188 O232 2.545 . S
Gd188 O233 2.606 1_565 S
Gd188 O235 2.429 . S
Gd188 O236 2.545 1_565 S
Gd188 O237 2.412 1_565 S
Gd188 O239 2.367 . S
Gd188 O240 2.324 1_565 S
Gd188 C247 2.828 . S
Gd189 N198 2.661 . S
Gd189 N202 2.601 . S
Gd189 O233 2.362 . S
Gd189 O234 2.324 1_545 S
Gd189 O238 2.545 . S
Gd189 O239 2.589 1_545 S
Gd189 O241 2.429 . S
Gd189 O242 2.545 . S
Gd189 O243 2.412 . S
Gd189 C256 2.828 . S
C190 C193 1.417 . S
C190 C195 1.431 . S
C190 C196 1.412 . S
C191 C194 1.437 . S
C191 C195 1.317 . S
C191 H210 0.929 . S
C192 C193 1.426 . S
C192 C194 1.413 . S
C192 N202 1.359 . S
C193 C190 1.417 . S
C193 C192 1.426 . S
C193 N198 1.350 . S
C194 C191 1.437 . S
C194 C192 1.413 . S
C194 C204 1.391 . S
C195 C190 1.431 . S
C195 C191 1.317 . S
C195 H206 0.930 1_556 S
C196 C190 1.412 . S
C196 C197 1.355 . S
C196 H208 0.930 1_556 S
C197 C196 1.355 . S
C197 C199 1.402 . S
C197 H209 0.930 1_545 S
N198 Gd189 2.661 . S
N198 C193 1.350 . S
N198 C199 1.307 . S
C199 C197 1.402 . S
C199 N198 1.307 . S
C199 H200 0.930 1_545 S
H200 C199 0.930 1_565 S
C201 N202 1.334 . S
C201 C203 1.394 . S
C201 H205 0.930 . S
N202 Gd189 2.601 . S
N202 C192 1.359 . S
N202 C201 1.334 . S
C203 C201 1.394 . S
C203 C204 1.359 . S
C203 H215 0.930 . S
C204 C194 1.391 . S
C204 C203 1.359 . S
C204 H216 0.929 . S
H205 C201 0.930 . S
H206 C195 0.930 1_554 S
H207 C224 0.930 . S
H208 C196 0.930 1_554 S
H209 C197 0.930 1_565 S
H210 C191 0.929 . S
H211 C229 0.930 . S
H212 C220 0.930 . S
H213 C221 0.930 . S
H214 C245 0.929 . S
H215 C203 0.930 . S
H216 C204 0.929 . S
H217 C246 0.930 . S
H218 C227 0.930 . S
N219 Gd188 2.661 . S
N219 C223 1.350 . S
N219 C224 1.307 1_565 S
C220 H212 0.930 . S
C220 C221 1.355 1_565 S
C220 C222 1.412 . S
C221 H213 0.930 . S
C221 C220 1.355 1_545 S
C221 C224 1.402 . S
C222 C220 1.412 . S
C222 C223 1.417 . S
C222 C246 1.431 . S
C223 N219 1.350 . S
C223 C222 1.417 . S
C223 C226 1.426 . S
C224 H207 0.930 . S
C224 N219 1.307 1_545 S
C224 C221 1.402 . S
N225 Gd188 2.601 . S
N225 C226 1.359 . S
N225 C229 1.334 . S
C226 C223 1.426 . S
C226 N225 1.359 . S
C226 C230 1.413 . S
C227 H218 0.930 . S
C227 C228 1.359 . S
C227 C229 1.394 . S
C228 C227 1.359 . S
C228 C230 1.391 . S
C228 H231 0.929 . S
C229 H211 0.930 . S
C229 N225 1.334 . S
C229 C227 1.394 . S
C230 C226 1.413 . S
C230 C228 1.391 . S
C230 C245 1.437 . S
H231 C228 0.929 . S
O232 Gd188 2.545 . S
O232 C247 1.258 . S
O233 Gd188 2.606 1_545 S
O233 Gd189 2.362 . S
O233 C244 1.284 . S
O234 Gd189 2.324 1_565 S
O234 C254 1.254 . S
O235 Gd188 2.429 . S
O235 C254 1.268 . S
O236 Gd188 2.545 1_545 S
O236 C244 1.250 . S
O237 Gd188 2.412 1_545 S
O237 C247 1.252 1_545 S
O238 Gd189 2.545 . S
O238 C256 1.258 . S
O239 Gd188 2.367 . S
O239 Gd189 2.589 1_565 S
O239 C255 1.284 . S
O240 Gd188 2.324 1_545 S
O240 C263 1.254 . S
O241 Gd189 2.429 . S
O241 C263 1.268 . S
O242 Gd189 2.545 . S
O242 C255 1.254 1_545 S
O243 Gd189 2.412 . S
O243 C256 1.252 . S
C244 O233 1.284 . S
C244 O236 1.250 . S
C245 H214 0.929 . S
C245 C230 1.437 . S
C245 C246 1.317 . S
C246 H217 0.930 . S
C246 C222 1.431 . S
C246 C245 1.317 . S
C247 Gd188 2.828 . S
C247 O232 1.258 . S
C247 O237 1.252 1_565 S
C247 C248 1.497 . S
C248 C247 1.497 . S
C248 C249 1.395 . S
C248 C250 1.344 1_565 S
C249 C248 1.395 . S
C249 C252 1.398 . S
C249 H264 0.930 . S
C250 C248 1.344 1_545 S
C250 C251 1.387 1_545 S
C250 H265 0.971 . S
C251 C250 1.387 1_565 S
C251 C253 1.431 . S
C252 C249 1.398 . S
C252 C253 1.380 . S
C252 H266 0.930 . S
C253 C251 1.431 . S
C253 C252 1.380 . S
C253 H267 0.930 . S
C254 O234 1.254 . S
C254 O235 1.268 . S
C255 O239 1.284 . S
C255 O242 1.254 1_565 S
C256 Gd189 2.828 . S
C256 O238 1.258 . S
C256 O243 1.252 . S
C256 C257 1.497 . S
C257 C256 1.497 . S
C257 C258 1.395 . S
C257 C259 1.380 . S
C258 C257 1.395 . S
C258 C261 1.398 . S
C258 H268 0.930 . S
C259 C257 1.380 . S
C259 C260 1.391 . S
C259 H269 0.930 . S
C260 C259 1.391 . S
C260 C262 1.387 . S
C261 C258 1.398 . S
C261 C262 1.380 . S
C261 H270 0.930 . S
C262 C260 1.387 . S
C262 C261 1.380 . S
C262 H271 0.930 . S
C263 O240 1.254 . S
C263 O241 1.268 . S
H264 C249 0.930 . S
H265 C250 0.971 . S
H266 C252 0.930 . S
H267 C253 0.930 . S
H268 C258 0.930 . S
H269 C259 0.930 . S
H270 C261 0.930 . S
H271 C262 0.930 . S
Gd272 N303 2.661 . S
Gd272 N309 2.601 . S
Gd272 O316 2.545 . S
Gd272 O317 2.606 . S
Gd272 O319 2.429 . S
Gd272 O320 2.545 . S
Gd272 O321 2.412 . S
Gd272 O323 2.362 . S
Gd272 O324 2.324 . S
Gd272 C331 2.828 . S
Gd273 N282 2.661 . S
Gd273 N286 2.601 . S
Gd273 O317 2.362 . S
Gd273 O318 2.324 . S
Gd273 O322 2.545 . S
Gd273 O323 2.606 . S
Gd273 O325 2.429 . S
Gd273 O326 2.545 . S
Gd273 O327 2.412 . S
Gd273 C340 2.828 . S
C274 C277 1.417 . S
C274 C279 1.431 . S
C274 C280 1.412 . S
C275 C278 1.437 . S
C275 C279 1.317 . S
C275 H294 0.929 . S
C276 C277 1.426 . S
C276 C278 1.413 . S
C276 N286 1.359 . S
C277 C274 1.417 . S
C277 C276 1.426 . S
C277 N282 1.350 . S
C278 C275 1.437 . S
C278 C276 1.413 . S
C278 C288 1.391 . S
C279 C274 1.431 . S
C279 C275 1.317 . S
C279 H290 0.930 . S
C280 C274 1.412 . S
C280 C281 1.355 . S
C280 H292 0.930 . S
C281 C280 1.355 . S
C281 C283 1.402 . S
C281 H293 0.930 . S
N282 Gd273 2.661 . S
N282 C277 1.350 . S
N282 C283 1.307 . S
C283 C281 1.402 . S
C283 N282 1.307 . S
C283 H284 0.930 . S
H284 C283 0.930 . S
C285 N286 1.334 . S
C285 C287 1.394 . S
C285 H289 0.930 . S
N286 Gd273 2.601 . S
N286 C276 1.359 . S
N286 C285 1.334 . S
C287 C285 1.394 . S
C287 C288 1.359 . S
C287 H299 0.930 . S
C288 C278 1.391 . S
C288 C287 1.359 . S
C288 H300 0.929 . S
H289 C285 0.930 . S
H290 C279 0.930 . S
H291 C308 0.930 . S
H292 C280 0.930 . S
H293 C281 0.930 . S
H294 C275 0.929 . S
H295 C313 0.930 . S
H296 C304 0.930 . S
H297 C305 0.930 . S
H298 C329 0.929 . S
H299 C287 0.930 . S
H300 C288 0.929 . S
H301 C330 0.930 . S
H302 C311 0.930 . S
N303 Gd272 2.661 . S
N303 C307 1.350 . S
N303 C308 1.307 . S
C304 H296 0.930 . S
C304 C305 1.355 . S
C304 C306 1.412 . S
C305 H297 0.930 . S
C305 C304 1.355 . S
C305 C308 1.402 . S
C306 C304 1.412 . S
C306 C307 1.417 . S
C306 C330 1.431 . S
C307 N303 1.350 . S
C307 C306 1.417 . S
C307 C310 1.426 . S
C308 H291 0.930 . S
C308 N303 1.307 . S
C308 C305 1.402 . S
N309 Gd272 2.601 . S
N309 C310 1.359 . S
N309 C313 1.334 . S
C310 C307 1.426 . S
C310 N309 1.359 . S
C310 C314 1.413 . S
C311 H302 0.930 . S
C311 C312 1.359 . S
C311 C313 1.394 . S
C312 C311 1.359 . S
C312 C314 1.391 . S
C312 H315 0.929 . S
C313 H295 0.930 . S
C313 N309 1.334 . S
C313 C311 1.394 . S
C314 C310 1.413 . S
C314 C312 1.391 . S
C314 C329 1.437 . S
H315 C312 0.929 . S
O316 Gd272 2.545 . S
O316 C331 1.258 . S
O317 Gd272 2.606 . S
O317 Gd273 2.362 . S
O317 C328 1.284 . S
O318 Gd273 2.324 . S
O318 C338 1.254 . S
O319 Gd272 2.429 . S
O319 C338 1.268 . S
O320 Gd272 2.545 . S
O320 C328 1.250 . S
O321 Gd272 2.412 . S
O321 C331 1.252 . S
O322 Gd273 2.545 . S
O322 C340 1.258 . S
O323 Gd272 2.362 . S
O323 Gd273 2.606 . S
O323 C339 1.284 . S
O324 Gd272 2.324 . S
O324 C347 1.254 . S
O325 Gd273 2.429 . S
O325 C347 1.268 . S
O326 Gd273 2.545 . S
O326 C339 1.250 . S
O327 Gd273 2.412 . S
O327 C340 1.252 . S
C328 O317 1.284 . S
C328 O320 1.250 . S
C329 H298 0.929 . S
C329 C314 1.437 . S
C329 C330 1.317 . S
C330 H301 0.930 . S
C330 C306 1.431 . S
C330 C329 1.317 . S
C331 Gd272 2.828 . S
C331 O316 1.258 . S
C331 O321 1.252 . S
C331 C332 1.497 . S
C332 C331 1.497 . S
C332 C333 1.395 . S
C332 C334 1.380 . S
C333 C332 1.395 . S
C333 C336 1.398 1_556 S
C333 H348 0.930 . S
C334 C332 1.380 . S
C334 C335 1.391 . S
C334 H349 0.930 . S
C335 C334 1.391 . S
C335 C337 1.387 1_556 S
C336 C333 1.398 1_554 S
C336 C337 1.380 . S
C336 H350 0.930 . S
C337 C335 1.387 1_554 S
C337 C336 1.380 . S
C337 H351 0.930 . S
C338 O318 1.254 . S
C338 O319 1.268 . S
C339 O323 1.284 . S
C339 O326 1.250 . S
C340 Gd273 2.828 . S
C340 O322 1.258 . S
C340 O327 1.252 . S
C340 C341 1.497 . S
C341 C340 1.497 . S
C341 C342 1.395 . S
C341 C343 1.380 . S
C342 C341 1.395 . S
C342 C345 1.398 . S
C342 H352 0.930 . S
C343 C341 1.380 . S
C343 C344 1.391 . S
C343 H353 0.930 . S
C344 C343 1.391 . S
C344 C346 1.387 . S
C345 C342 1.398 . S
C345 C346 1.380 . S
C345 H354 0.930 . S
C346 C344 1.387 . S
C346 C345 1.380 . S
C346 H355 0.930 . S
C347 O324 1.254 . S
C347 O325 1.268 . S
H348 C333 0.930 . S
H349 C334 0.930 . S
H350 C336 0.930 . S
H351 C337 0.930 . S
H352 C342 0.930 . S
H353 C343 0.930 . S
H354 C345 0.930 . S
H355 C346 0.930 . S
Gd356 N387 2.661 . S
Gd356 N393 2.601 . S
Gd356 O400 2.545 . S
Gd356 O401 2.606 1_655 S
Gd356 O403 2.429 1_655 S
Gd356 O404 2.545 . S
Gd356 O405 2.412 . S
Gd356 O407 2.362 1_655 S
Gd356 O408 2.324 . S
Gd356 C415 2.828 . S
Gd357 N366 2.661 . S
Gd357 N370 2.601 . S
Gd357 O401 2.362 . S
Gd357 O402 2.324 . S
Gd357 O406 2.545 . S
Gd357 O407 2.606 . S
Gd357 O409 2.429 1_455 S
Gd357 O410 2.545 . S
Gd357 O411 2.412 . S
Gd357 C424 2.828 . S
C358 C361 1.417 . S
C358 C363 1.431 . S
C358 C364 1.412 . S
C359 C362 1.437 . S
C359 C363 1.317 . S
C359 H378 0.929 . S
C360 C361 1.426 . S
C360 C362 1.413 . S
C360 N370 1.359 . S
C361 C358 1.417 . S
C361 C360 1.426 . S
C361 N366 1.350 . S
C362 C359 1.437 . S
C362 C360 1.413 . S
C362 C372 1.391 . S
C363 C358 1.431 . S
C363 C359 1.317 . S
C363 H374 0.930 . S
C364 C358 1.412 . S
C364 C365 1.355 . S
C364 H376 0.930 . S
C365 C364 1.355 . S
C365 C367 1.402 . S
C365 H377 0.930 . S
N366 Gd357 2.661 . S
N366 C361 1.350 . S
N366 C367 1.307 . S
C367 C365 1.402 . S
C367 N366 1.307 . S
C367 H368 0.930 . S
H368 C367 0.930 . S
C369 N370 1.334 . S
C369 C371 1.394 1_455 S
C369 H373 0.930 1_455 S
N370 Gd357 2.601 . S
N370 C360 1.359 . S
N370 C369 1.334 . S
C371 C369 1.394 1_655 S
C371 C372 1.358 1_655 S
C371 H383 0.931 . S
C372 C362 1.391 . S
C372 C371 1.358 1_455 S
C372 H384 0.929 . S
H373 C369 0.930 1_655 S
H374 C363 0.930 . S
H375 C392 0.930 . S
H376 C364 0.930 . S
H377 C365 0.930 . S
H378 C359 0.929 . S
H379 C397 0.930 . S
H380 C388 0.930 . S
H381 C389 0.930 . S
H382 C413 0.929 . S
H383 C371 0.931 . S
H384 C372 0.929 . S
H385 C414 0.930 . S
H386 C395 0.930 . S
N387 Gd356 2.661 . S
N387 C391 1.350 . S
N387 C392 1.307 . S
C388 H380 0.930 . S
C388 C389 1.355 . S
C388 C390 1.412 . S
C389 H381 0.930 . S
C389 C388 1.355 . S
C389 C392 1.402 . S
C390 C388 1.412 . S
C390 C391 1.417 . S
C390 C414 1.431 . S
C391 N387 1.350 . S
C391 C390 1.417 . S
C391 C394 1.426 . S
C392 H375 0.930 . S
C392 N387 1.307 . S
C392 C389 1.402 . S
N393 Gd356 2.601 . S
N393 C394 1.359 . S
N393 C397 1.334 1_655 S
C394 C391 1.426 . S
C394 N393 1.359 . S
C394 C398 1.413 . S
C395 H386 0.930 . S
C395 C396 1.359 . S
C395 C397 1.394 . S
C396 C395 1.359 . S
C396 C398 1.391 1_455 S
C396 H399 0.929 . S
C397 H379 0.930 . S
C397 N393 1.334 1_455 S
C397 C395 1.394 . S
C398 C394 1.413 . S
C398 C396 1.391 1_655 S
C398 C413 1.437 . S
H399 C396 0.929 . S
O400 Gd356 2.545 . S
O400 C415 1.258 . S
O401 Gd356 2.606 1_455 S
O401 Gd357 2.362 . S
O401 C412 1.284 1_455 S
O402 Gd357 2.324 . S
O402 C422 1.254 . S
O403 Gd356 2.429 1_455 S
O403 C422 1.268 . S
O404 Gd356 2.545 . S
O404 C412 1.250 . S
O405 Gd356 2.412 . S
O405 C415 1.252 . S
O406 Gd357 2.545 . S
O406 C424 1.258 . S
O407 Gd356 2.362 1_455 S
O407 Gd357 2.606 . S
O407 C423 1.284 . S
O408 Gd356 2.324 . S
O408 C431 1.254 . S
O409 Gd357 2.429 1_655 S
O409 C431 1.268 . S
O410 Gd357 2.545 . S
O410 C423 1.250 . S
O411 Gd357 2.412 . S
O411 C424 1.252 . S
C412 O401 1.284 1_655 S
C412 O404 1.250 . S
C413 H382 0.929 . S
C413 C398 1.437 . S
C413 C414 1.317 . S
C414 H385 0.930 . S
C414 C390 1.431 . S
C414 C413 1.317 . S
C415 Gd356 2.828 . S
C415 O400 1.258 . S
C415 O405 1.252 . S
C415 C416 1.497 . S
C416 C415 1.497 . S
C416 C417 1.395 . S
C416 C418 1.380 . S
C417 C416 1.395 . S
C417 C420 1.398 1_556 S
C417 H432 0.930 . S
C418 C416 1.380 . S
C418 C419 1.391 . S
C418 H433 0.930 . S
C419 C418 1.391 . S
C419 C421 1.387 1_556 S
C420 C417 1.398 1_554 S
C420 C421 1.380 . S
C420 H434 0.930 . S
C421 C419 1.387 1_554 S
C421 C420 1.380 . S
C421 H435 0.930 . S
C422 O402 1.254 . S
C422 O403 1.268 . S
C423 O407 1.284 . S
C423 O410 1.250 . S
C424 Gd357 2.828 . S
C424 O406 1.258 . S
C424 O411 1.252 . S
C424 C425 1.497 . S
C425 C424 1.497 . S
C425 C426 1.395 . S
C425 C427 1.380 . S
C426 C425 1.395 . S
C426 C429 1.398 . S
C426 H436 0.930 . S
C427 C425 1.380 . S
C427 C428 1.391 . S
C427 H437 0.930 . S
C428 C427 1.391 . S
C428 C430 1.387 . S
C429 C426 1.398 . S
C429 C430 1.380 . S
C429 H438 0.930 . S
C430 C428 1.387 . S
C430 C429 1.380 . S
C430 H439 0.930 . S
C431 O408 1.254 . S
C431 O409 1.268 . S
H432 C417 0.930 . S
H433 C418 0.930 . S
H434 C420 0.930 . S
H435 C421 0.930 . S
H436 C426 0.930 . S
H437 C427 0.930 . S
H438 C429 0.930 . S
H439 C430 0.930 . S
H440 C448 0.929 . S
H441 C450 0.930 . S
H442 C452 0.930 . S
H443 C455 0.929 . S
H444 C458 0.930 . S
H445 C460 0.960 . S
H446 C460 0.960 . S
H447 C460 0.960 . S
C448 H440 0.929 . S
C448 C449 1.377 . S
C448 C450 1.384 . S
C449 C448 1.377 . S
C449 C455 1.390 . S
C450 H441 0.930 . S
C450 C448 1.384 . S
C450 C451 1.372 . S
C451 C450 1.372 . S
C451 C452 1.400 . S
C451 C456 1.490 . S
C452 H442 0.930 . S
C452 C451 1.400 . S
C452 C455 1.386 . S
H453 C469 0.912 1_565 S
H454 C470 0.931 . S
C455 H443 0.929 . S
C455 C449 1.390 . S
C455 C452 1.386 . S
C456 C451 1.490 . S
C456 C458 1.395 . S
C456 C459 1.403 . S
H457 C463 0.930 . S
C458 H444 0.930 . S
C458 C456 1.395 . S
C458 C461 1.403 . S
C459 C456 1.403 . S
C459 C460 1.524 . S
C459 C463 1.400 . S
C460 H445 0.960 . S
C460 H446 0.960 . S
C460 H447 0.960 . S
C460 C459 1.524 . S
C461 C458 1.403 . S
C461 C462 1.392 . S
C461 C465 1.495 . S
C462 C461 1.392 . S
C462 C463 1.385 . S
C462 C464 1.478 . S
C463 H457 0.930 . S
C463 C459 1.400 . S
C463 C462 1.385 . S
C464 C462 1.478 . S
C464 C466 1.381 . S
C464 C470 1.383 . S
C465 C461 1.495 . S
C465 H471 0.959 . S
C465 H472 0.961 . S
C465 H473 0.960 . S
C466 C464 1.381 . S
C466 C467 1.394 . S
C466 H474 0.930 . S
C467 C466 1.394 . S
C467 C468 1.383 . S
C467 H475 0.929 . S
C468 C467 1.383 . S
C468 C469 1.377 . S
C469 H453 0.912 1_545 S
C469 C468 1.377 . S
C469 C470 1.379 . S
C470 H454 0.931 . S
C470 C464 1.383 . S
C470 C469 1.379 . S
H471 C465 0.959 . S
H472 C465 0.961 . S
H473 C465 0.960 . S
H474 C466 0.930 . S
H475 C467 0.929 . S
H476 C484 0.929 . S
H477 C486 0.930 . S
H478 C488 0.930 . S
H479 C491 0.929 . S
H480 C494 0.930 . S
H481 C496 0.960 . S
H482 C496 0.960 . S
H483 C496 0.960 . S
C484 H476 0.929 . S
C484 C485 1.377 . S
C484 C486 1.384 . S
C485 C484 1.377 . S
C485 C491 1.390 . S
C486 H477 0.930 . S
C486 C484 1.384 . S
C486 C487 1.372 . S
C487 C486 1.372 . S
C487 C488 1.400 . S
C487 C492 1.490 . S
C488 H478 0.930 . S
C488 C487 1.400 . S
C488 C491 1.386 . S
H489 C505 0.930 . S
H490 C506 0.931 . S
C491 H479 0.929 . S
C491 C485 1.390 . S
C491 C488 1.386 . S
C492 C487 1.490 . S
C492 C494 1.395 . S
C492 C495 1.403 . S
H493 C499 0.930 . S
C494 H480 0.930 . S
C494 C492 1.395 . S
C494 C497 1.403 . S
C495 C492 1.403 . S
C495 C496 1.524 . S
C495 C499 1.400 . S
C496 H481 0.960 . S
C496 H482 0.960 . S
C496 H483 0.960 . S
C496 C495 1.524 . S
C497 C494 1.403 . S
C497 C498 1.392 . S
C497 C501 1.495 . S
C498 C497 1.392 . S
C498 C499 1.385 . S
C498 C500 1.478 . S
C499 H493 0.930 . S
C499 C495 1.400 . S
C499 C498 1.385 . S
C500 C498 1.478 . S
C500 C502 1.381 . S
C500 C506 1.383 . S
C501 C497 1.495 . S
C501 H507 0.959 . S
C501 H508 0.961 . S
C501 H509 0.960 . S
C502 C500 1.381 . S
C502 C503 1.394 . S
C502 H510 0.930 . S
C503 C502 1.394 . S
C503 C504 1.383 . S
C503 H511 0.929 . S
C504 C503 1.383 . S
C504 C505 1.377 . S
C505 H489 0.930 . S
C505 C504 1.377 . S
C505 C506 1.379 . S
C506 H490 0.931 . S
C506 C500 1.383 . S
C506 C505 1.379 . S
H507 C501 0.959 . S
H508 C501 0.961 . S
H509 C501 0.960 . S
H510 C502 0.930 . S
H511 C503 0.929 . S
H512 C520 0.929 . S
H513 C522 0.930 . S
H514 C524 0.930 . S
H515 C527 0.929 . S
H516 C530 0.930 . S
H517 C532 0.960 . S
H518 C532 0.960 . S
H519 C532 0.960 . S
C520 H512 0.929 . S
C520 C521 1.377 . S
C520 C522 1.384 . S
C521 C520 1.377 . S
C521 C527 1.390 . S
C522 H513 0.930 . S
C522 C520 1.384 . S
C522 C523 1.372 . S
C523 C522 1.372 . S
C523 C524 1.400 . S
C523 C528 1.490 . S
C524 H514 0.930 . S
C524 C523 1.400 . S
C524 C527 1.386 . S
H525 C541 0.930 . S
H526 C542 0.931 . S
C527 H515 0.929 . S
C527 C521 1.390 . S
C527 C524 1.386 . S
C528 C523 1.490 . S
C528 C530 1.395 . S
C528 C531 1.403 . S
H529 C535 0.930 . S
C530 H516 0.930 . S
C530 C528 1.395 . S
C530 C533 1.403 . S
C531 C528 1.403 . S
C531 C532 1.524 . S
C531 C535 1.400 . S
C532 H517 0.960 . S
C532 H518 0.960 . S
C532 H519 0.960 . S
C532 C531 1.524 . S
C533 C530 1.403 . S
C533 C534 1.392 . S
C533 C537 1.495 . S
C534 C533 1.392 . S
C534 C535 1.385 . S
C534 C536 1.478 . S
C535 H529 0.930 . S
C535 C531 1.400 . S
C535 C534 1.385 . S
C536 C534 1.478 . S
C536 C538 1.381 . S
C536 C542 1.383 . S
C537 C533 1.495 . S
C537 H543 0.959 . S
C537 H544 0.961 . S
C537 H545 0.960 . S
C538 C536 1.381 . S
C538 C539 1.394 . S
C538 H546 0.930 . S
C539 C538 1.394 . S
C539 C540 1.383 . S
C539 H547 0.929 . S
C540 C539 1.383 . S
C540 C541 1.377 . S
C541 H525 0.930 . S
C541 C540 1.377 . S
C541 C542 1.379 . S
C542 H526 0.931 . S
C542 C536 1.383 . S
C542 C541 1.379 . S
H543 C537 0.959 . S
H544 C537 0.961 . S
H545 C537 0.960 . S
H546 C538 0.930 . S
H547 C539 0.929 . S
H548 C556 0.929 . S
H549 C558 0.930 . S
H550 C560 0.930 . S
H551 C563 0.929 . S
H552 C566 0.930 . S
H553 C568 0.960 . S
H554 C568 0.960 . S
H555 C568 0.960 . S
C556 H548 0.929 . S
C556 C557 1.377 . S
C556 C558 1.384 . S
C557 C556 1.377 . S
C557 C563 1.390 . S
C558 H549 0.930 . S
C558 C556 1.384 . S
C558 C559 1.372 . S
C559 C558 1.372 . S
C559 C560 1.400 . S
C559 C564 1.490 . S
C560 H550 0.930 . S
C560 C559 1.400 . S
C560 C563 1.386 . S
H561 C577 0.930 . S
H562 C578 0.931 . S
C563 H551 0.929 . S
C563 C557 1.390 . S
C563 C560 1.386 . S
C564 C559 1.490 . S
C564 C566 1.395 . S
C564 C567 1.403 . S
H565 C571 0.930 . S
C566 H552 0.930 . S
C566 C564 1.395 . S
C566 C569 1.403 . S
C567 C564 1.403 . S
C567 C568 1.524 . S
C567 C571 1.400 . S
C568 H553 0.960 . S
C568 H554 0.960 . S
C568 H555 0.960 . S
C568 C567 1.524 . S
C569 C566 1.403 . S
C569 C570 1.392 . S
C569 C573 1.495 1_455 S
C570 C569 1.392 . S
C570 C571 1.385 . S
C570 C572 1.478 . S
C571 H565 0.930 . S
C571 C567 1.400 . S
C571 C570 1.385 . S
C572 C570 1.478 . S
C572 C574 1.381 . S
C572 C578 1.383 . S
C573 C569 1.495 1_655 S
C573 H579 0.959 . S
C573 H580 0.961 . S
C573 H581 0.960 . S
C574 C572 1.381 . S
C574 C575 1.394 . S
C574 H582 0.930 . S
C575 C574 1.394 . S
C575 C576 1.383 . S
C575 H583 0.929 . S
C576 C575 1.383 . S
C576 C577 1.377 . S
C577 H561 0.930 . S
C577 C576 1.377 . S
C577 C578 1.379 . S
C578 H562 0.931 . S
C578 C572 1.383 . S
C578 C577 1.379 . S
H579 C573 0.959 . S
H580 C573 0.961 . S
H581 C573 0.960 . S
H582 C574 0.930 . S
H583 C575 0.929 . S
H584 C592 0.929 . S
H585 C594 0.930 . S
H586 C596 0.930 . S
H587 C599 0.929 . S
H588 C602 0.930 . S
H589 C604 0.960 . S
H590 C604 0.960 . S
H591 C604 0.960 . S
C592 H584 0.929 . S
C592 C593 1.377 . S
C592 C594 1.384 . S
C593 C592 1.377 . S
C593 C599 1.390 . S
C594 H585 0.930 . S
C594 C592 1.384 . S
C594 C595 1.372 . S
C595 C594 1.372 . S
C595 C596 1.400 . S
C595 C600 1.490 . S
C596 H586 0.930 . S
C596 C595 1.400 . S
C596 C599 1.386 . S
H597 C613 0.930 . S
H598 C614 0.931 . S
C599 H587 0.929 . S
C599 C593 1.390 . S
C599 C596 1.386 . S
C600 C595 1.490 . S
C600 C602 1.395 . S
C600 C603 1.403 1_554 S
H601 C607 0.930 . S
C602 H588 0.930 . S
C602 C600 1.395 . S
C602 C605 1.403 . S
C603 C600 1.403 1_556 S
C603 C604 1.524 . S
C603 C607 1.400 . S
C604 H589 0.960 . S
C604 H590 0.960 . S
C604 H591 0.960 . S
C604 C603 1.524 . S
C605 C602 1.403 . S
C605 C606 1.392 1_554 S
C605 C609 1.495 . S
C606 C605 1.392 1_556 S
C606 C607 1.385 . S
C606 C608 1.478 . S
C607 H601 0.930 . S
C607 C603 1.400 . S
C607 C606 1.385 . S
C608 C606 1.478 . S
C608 C610 1.381 1_565 S
C608 C614 1.383 . S
C609 C605 1.495 . S
C609 H615 0.959 . S
C609 H616 0.961 . S
C609 H617 0.960 . S
C610 C608 1.381 1_545 S
C610 C611 1.394 . S
C610 H618 0.930 . S
C611 C610 1.394 . S
C611 C612 1.383 1_545 S
C611 H619 0.929 . S
C612 C611 1.383 1_565 S
C612 C613 1.377 . S
C613 H597 0.930 . S
C613 C612 1.377 . S
C613 C614 1.379 . S
C614 H598 0.931 . S
C614 C608 1.383 . S
C614 C613 1.379 . S
H615 C609 0.959 . S
H616 C609 0.961 . S
H617 C609 0.960 . S
H618 C610 0.930 . S
H619 C611 0.929 . S
H620 C628 0.929 . S
H621 C630 0.930 . S
H622 C632 0.930 . S
H623 C635 0.929 . S
H624 C638 0.930 1_554 S
H625 C640 0.960 1_556 S
H626 C640 0.960 1_556 S
H627 C640 0.960 . S
C628 H620 0.929 . S
C628 C629 1.377 . S
C628 C630 1.384 . S
C629 C628 1.377 . S
C629 C635 1.390 . S
C630 H621 0.930 . S
C630 C628 1.384 . S
C630 C631 1.372 . S
C631 C630 1.372 . S
C631 C632 1.400 . S
C631 C636 1.490 . S
C632 H622 0.930 . S
C632 C631 1.400 . S
C632 C635 1.386 . S
H633 C649 0.930 . S
H634 C650 0.931 . S
C635 H623 0.929 . S
C635 C629 1.390 . S
C635 C632 1.386 . S
C636 C631 1.490 . S
C636 C638 1.395 1_554 S
C636 C639 1.403 1_554 S
H637 C643 0.930 . S
C638 H624 0.930 1_556 S
C638 C636 1.395 1_556 S
C638 C641 1.403 . S
C639 C636 1.403 1_556 S
C639 C640 1.524 1_556 S
C639 C643 1.400 . S
C640 H625 0.960 1_554 S
C640 H626 0.960 1_554 S
C640 H627 0.960 . S
C640 C639 1.524 1_554 S
C641 C638 1.403 . S
C641 C642 1.392 . S
C641 C645 1.495 . S
C642 C641 1.392 . S
C642 C643 1.385 . S
C642 C644 1.478 . S
C643 H637 0.930 . S
C643 C639 1.400 . S
C643 C642 1.385 . S
C644 C642 1.478 . S
C644 C646 1.381 . S
C644 C650 1.383 . S
C645 C641 1.495 . S
C645 H651 0.959 . S
C645 H652 0.961 . S
C645 H653 0.960 . S
C646 C644 1.381 . S
C646 C647 1.394 . S
C646 H654 0.930 . S
C647 C646 1.394 . S
C647 C648 1.383 . S
C647 H655 0.929 . S
C648 C647 1.383 . S
C648 C649 1.377 . S
C649 H633 0.930 . S
C649 C648 1.377 . S
C649 C650 1.379 . S
C650 H634 0.931 . S
C650 C644 1.383 . S
C650 C649 1.379 . S
H651 C645 0.959 . S
H652 C645 0.961 . S
H653 C645 0.960 . S
H654 C646 0.930 . S
H655 C647 0.929 . S
H656 C664 0.929 . S
H657 C666 0.930 . S
H658 C668 0.930 . S
H659 C671 0.929 . S
H660 C674 0.930 . S
H661 C676 0.960 . S
H662 C676 0.960 . S
H663 C676 0.960 . S
C664 H656 0.929 . S
C664 C665 1.377 . S
C664 C666 1.384 . S
C665 C664 1.377 . S
C665 C671 1.390 . S
C666 H657 0.930 . S
C666 C664 1.384 . S
C666 C667 1.372 . S
C667 C666 1.372 . S
C667 C668 1.400 . S
C667 C672 1.490 . S
C668 H658 0.930 . S
C668 C667 1.400 . S
C668 C671 1.386 . S
H669 C685 0.930 . S
H670 C686 0.931 . S
C671 H659 0.929 . S
C671 C665 1.390 . S
C671 C668 1.386 . S
C672 C667 1.490 . S
C672 C674 1.395 1_554 S
C672 C675 1.403 . S
H673 C679 0.930 . S
C674 H660 0.930 . S
C674 C672 1.395 1_556 S
C674 C677 1.403 . S
C675 C672 1.403 . S
C675 C676 1.524 . S
C675 C679 1.400 1_554 S
C676 H661 0.960 . S
C676 H662 0.960 . S
C676 H663 0.960 . S
C676 C675 1.524 . S
C677 C674 1.403 . S
C677 C678 1.392 . S
C677 C681 1.495 . S
C678 C677 1.392 . S
C678 C679 1.385 . S
C678 C680 1.478 . S
C679 H673 0.930 . S
C679 C675 1.400 1_556 S
C679 C678 1.385 . S
C680 C678 1.478 . S
C680 C682 1.381 . S
C680 C686 1.383 . S
C681 C677 1.495 . S
C681 H687 0.959 . S
C681 H688 0.961 . S
C681 H689 0.960 . S
C682 C680 1.381 . S
C682 C683 1.394 . S
C682 H690 0.930 . S
C683 C682 1.394 . S
C683 C684 1.383 . S
C683 H691 0.929 . S
C684 C683 1.383 . S
C684 C685 1.377 . S
C685 H669 0.930 . S
C685 C684 1.377 . S
C685 C686 1.379 . S
C686 H670 0.931 . S
C686 C680 1.383 . S
C686 C685 1.379 . S
H687 C681 0.959 . S
H688 C681 0.961 . S
H689 C681 0.960 . S
H690 C682 0.930 . S
H691 C683 0.929 . S
H692 C700 0.929 . S
H693 C702 0.930 . S
H694 C704 0.930 . S
H695 C707 0.929 . S
H696 C710 0.914 1_455 S
H697 C712 0.960 . S
H698 C712 0.960 . S
H699 C712 0.960 1_554 S
C700 H692 0.929 . S
C700 C701 1.377 . S
C700 C702 1.384 . S
C701 C700 1.377 . S
C701 C707 1.390 . S
C702 H693 0.930 . S
C702 C700 1.384 . S
C702 C703 1.372 . S
C703 C702 1.372 . S
C703 C704 1.400 . S
C703 C708 1.490 . S
C704 H694 0.930 . S
C704 C703 1.400 . S
C704 C707 1.386 . S
H705 C721 0.930 . S
H706 C722 0.931 . S
C707 H695 0.929 . S
C707 C701 1.390 . S
C707 C704 1.386 . S
C708 C703 1.490 . S
C708 C710 1.395 . S
C708 C711 1.403 1_554 S
H709 C715 0.930 . S
C710 H696 0.914 1_655 S
C710 C708 1.395 . S
C710 C713 1.403 1_554 S
C711 C708 1.403 1_556 S
C711 C712 1.524 . S
C711 C715 1.400 . S
C712 H697 0.960 . S
C712 H698 0.960 . S
C712 H699 0.960 1_556 S
C712 C711 1.524 . S
C713 C710 1.403 1_556 S
C713 C714 1.392 . S
C713 C717 1.495 1_655 S
C714 C713 1.392 . S
C714 C715 1.385 . S
C714 C716 1.478 . S
C715 H709 0.930 . S
C715 C711 1.400 . S
C715 C714 1.385 . S
C716 C714 1.478 . S
C716 C718 1.381 . S
C716 C722 1.383 . S
C717 C713 1.495 1_455 S
C717 H723 0.960 . S
C717 H724 0.961 . S
C717 H725 0.960 . S
C718 C716 1.381 . S
C718 C719 1.390 1_655 S
C718 H726 0.930 1_655 S
C719 C718 1.390 1_455 S
C719 C720 1.369 1_455 S
C719 H727 0.949 . S
C720 C719 1.369 1_655 S
C720 C721 1.377 . S
C721 H705 0.930 . S
C721 C720 1.377 . S
C721 C722 1.379 . S
C722 H706 0.931 . S
C722 C716 1.383 . S
C722 C721 1.379 . S
H723 C717 0.960 . S
H724 C717 0.961 . S
H725 C717 0.960 . S
H726 C718 0.930 1_455 S
H727 C719 0.949 . S
H728 C736 0.929 . S
H729 C738 0.930 . S
H730 C740 0.930 . S
H731 C743 0.929 . S
H732 C746 0.930 . S
H733 C748 0.960 . S
H734 C748 0.960 . S
H735 C748 0.960 . S
C736 H728 0.929 . S
C736 C737 1.377 . S
C736 C738 1.384 . S
C737 C736 1.377 . S
C737 C743 1.390 . S
C738 H729 0.930 . S
C738 C736 1.384 . S
C738 C739 1.372 . S
C739 C738 1.372 . S
C739 C740 1.400 . S
C739 C744 1.490 . S
C740 H730 0.930 . S
C740 C739 1.400 . S
C740 C743 1.386 . S
H741 C757 0.930 . S
H742 C758 0.931 . S
C743 H731 0.929 . S
C743 C737 1.390 . S
C743 C740 1.386 . S
C744 C739 1.490 . S
C744 C746 1.395 . S
C744 C747 1.403 . S
H745 C751 0.930 . S
C746 H732 0.930 . S
C746 C744 1.395 . S
C746 C749 1.403 . S
C747 C744 1.403 . S
C747 C748 1.524 . S
C747 C751 1.400 . S
C748 H733 0.960 . S
C748 H734 0.960 . S
C748 H735 0.960 . S
C748 C747 1.524 . S
C749 C746 1.403 . S
C749 C750 1.392 . S
C749 C753 1.495 . S
C750 C749 1.392 . S
C750 C751 1.385 . S
C750 C752 1.478 . S
C751 H745 0.930 . S
C751 C747 1.400 . S
C751 C750 1.385 . S
C752 C750 1.478 . S
C752 C754 1.381 1_455 S
C752 C758 1.383 . S
C753 C749 1.495 . S
C753 H759 0.959 . S
C753 H760 0.961 . S
C753 H761 0.960 . S
C754 C752 1.381 1_655 S
C754 C755 1.394 . S
C754 H762 0.930 . S
C755 C754 1.394 . S
C755 C756 1.383 1_655 S
C755 H763 0.929 . S
C756 C755 1.383 1_455 S
C756 C757 1.377 . S
C757 H741 0.930 . S
C757 C756 1.377 . S
C757 C758 1.379 . S
C758 H742 0.931 . S
C758 C752 1.383 . S
C758 C757 1.379 . S
H759 C753 0.959 . S
H760 C753 0.961 . S
H761 C753 0.960 . S
H762 C754 0.930 . S
H763 C755 0.929 . S
H764 C772 0.929 1_556 S
H765 C774 0.930 . S
H766 C776 0.930 . S
H767 C779 0.929 . S
H768 C782 0.930 . S
H769 C784 0.960 1_565 S
H770 C784 0.960 . S
H771 C784 0.960 . S
C772 H764 0.929 1_554 S
C772 C773 1.377 . S
C772 C774 1.384 . S
C773 C772 1.377 . S
C773 C779 1.390 . S
C774 H765 0.930 . S
C774 C772 1.384 . S
C774 C775 1.372 . S
C775 C774 1.372 . S
C775 C776 1.400 . S
C775 C780 1.490 . S
C776 H766 0.930 . S
C776 C775 1.400 . S
C776 C779 1.386 . S
H777 C793 0.930 1_565 S
H778 C794 0.931 . S
C779 H767 0.929 . S
C779 C773 1.390 . S
C779 C776 1.386 . S
C780 C775 1.490 . S
C780 C782 1.395 . S
C780 C783 1.403 . S
H781 C787 0.930 . S
C782 H768 0.930 . S
C782 C780 1.395 . S
C782 C785 1.403 . S
C783 C780 1.403 . S
C783 C784 1.524 . S
C783 C787 1.400 . S
C784 H769 0.960 1_545 S
C784 H770 0.960 . S
C784 H771 0.960 . S
C784 C783 1.524 . S
C785 C782 1.403 . S
C785 C786 1.392 . S
C785 C789 1.495 . S
C786 C785 1.392 . S
C786 C787 1.385 . S
C786 C788 1.478 . S
C787 H781 0.930 . S
C787 C783 1.400 . S
C787 C786 1.385 . S
C788 C786 1.478 . S
C788 C790 1.381 . S
C788 C794 1.383 . S
C789 C785 1.495 . S
C789 H795 0.959 . S
C789 H796 0.961 . S
C789 H797 0.960 . S
C790 C788 1.381 . S
C790 C791 1.394 . S
C790 H798 0.930 . S
C791 C790 1.394 . S
C791 C792 1.383 . S
C791 H799 0.929 . S
C792 C791 1.383 . S
C792 C793 1.377 . S
C793 H777 0.930 1_545 S
C793 C792 1.377 . S
C793 C794 1.379 . S
C794 H778 0.931 . S
C794 C788 1.383 . S
C794 C793 1.379 . S
H795 C789 0.959 . S
H796 C789 0.961 . S
H797 C789 0.960 . S
H798 C790 0.930 . S
H799 C791 0.929 . S
H800 C808 0.929 . S
H801 C810 0.930 . S
H802 C812 0.930 . S
H803 C815 0.929 . S
H804 C818 0.930 . S
H805 C820 0.960 . S
H806 C820 0.960 . S
H807 C820 0.960 . S
C808 H800 0.929 . S
C808 C809 1.377 . S
C808 C810 1.384 . S
C809 C808 1.377 . S
C809 C815 1.390 . S
C810 H801 0.930 . S
C810 C808 1.384 . S
C810 C811 1.372 . S
C811 C810 1.372 . S
C811 C812 1.400 . S
C811 C816 1.490 . S
C812 H802 0.930 . S
C812 C811 1.400 . S
C812 C815 1.386 . S
H813 C829 0.930 . S
H814 C830 0.931 . S
C815 H803 0.929 . S
C815 C809 1.390 . S
C815 C812 1.386 . S
C816 C811 1.490 . S
C816 C818 1.395 . S
C816 C819 1.403 . S
H817 C823 0.930 . S
C818 H804 0.930 . S
C818 C816 1.395 . S
C818 C821 1.403 . S
C819 C816 1.403 . S
C819 C820 1.524 . S
C819 C823 1.400 . S
C820 H805 0.960 . S
C820 H806 0.960 . S
C820 H807 0.960 . S
C820 C819 1.524 . S
C821 C818 1.403 . S
C821 C822 1.392 . S
C821 C825 1.495 . S
C822 C821 1.392 . S
C822 C823 1.385 . S
C822 C824 1.478 . S
C823 H817 0.930 . S
C823 C819 1.400 . S
C823 C822 1.385 . S
C824 C822 1.478 . S
C824 C826 1.381 . S
C824 C830 1.383 . S
C825 C821 1.495 . S
C825 H831 0.959 . S
C825 H832 0.961 . S
C825 H833 0.960 . S
C826 C824 1.381 . S
C826 C827 1.394 . S
C826 H834 0.930 . S
C827 C826 1.394 . S
C827 C828 1.383 . S
C827 H835 0.929 . S
C828 C827 1.383 . S
C828 C829 1.377 . S
C829 H813 0.930 . S
C829 C828 1.377 . S
C829 C830 1.379 . S
C830 H814 0.931 . S
C830 C824 1.383 . S
C830 C829 1.379 . S
H831 C825 0.959 . S
H832 C825 0.961 . S
H833 C825 0.960 . S
H834 C826 0.930 . S
H835 C827 0.929 . S
H836 C844 0.929 . S
H837 C846 0.930 . S
H838 C848 0.930 . S
H839 C851 0.929 1_556 S
H840 C854 0.930 . S
H841 C856 0.960 . S
H842 C856 0.960 . S
H843 C856 0.960 . S
C844 H836 0.929 . S
C844 C845 1.377 . S
C844 C846 1.384 . S
C845 C844 1.377 . S
C845 C851 1.390 . S
C846 H837 0.930 . S
C846 C844 1.384 . S
C846 C847 1.372 . S
C847 C846 1.372 . S
C847 C848 1.400 . S
C847 C852 1.490 . S
C848 H838 0.930 . S
C848 C847 1.400 . S
C848 C851 1.386 . S
H849 C865 0.930 . S
H850 C866 0.931 . S
C851 H839 0.929 1_554 S
C851 C845 1.390 . S
C851 C848 1.386 . S
C852 C847 1.490 . S
C852 C854 1.395 . S
C852 C855 1.403 . S
H853 C859 0.930 . S
C854 H840 0.930 . S
C854 C852 1.395 . S
C854 C857 1.403 . S
C855 C852 1.403 . S
C855 C856 1.524 . S
C855 C859 1.400 . S
C856 H841 0.960 . S
C856 H842 0.960 . S
C856 H843 0.960 . S
C856 C855 1.524 . S
C857 C854 1.403 . S
C857 C858 1.392 . S
C857 C861 1.495 . S
C858 C857 1.392 . S
C858 C859 1.385 . S
C858 C860 1.478 . S
C859 H853 0.930 . S
C859 C855 1.400 . S
C859 C858 1.385 . S
C860 C858 1.478 . S
C860 C862 1.381 . S
C860 C866 1.383 . S
C861 C857 1.495 . S
C861 H867 0.959 . S
C861 H868 0.961 . S
C861 H869 0.960 . S
C862 C860 1.381 . S
C862 C863 1.394 . S
C862 H870 0.930 . S
C863 C862 1.394 . S
C863 C864 1.383 . S
C863 H871 0.929 . S
C864 C863 1.383 . S
C864 C865 1.377 . S
C865 H849 0.930 . S
C865 C864 1.377 . S
C865 C866 1.379 . S
C866 H850 0.931 . S
C866 C860 1.383 . S
C866 C865 1.379 . S
H867 C861 0.959 . S
H868 C861 0.961 . S
H869 C861 0.960 . S
H870 C862 0.930 . S
H871 C863 0.929 . S
H872 C880 0.929 . S
H873 C882 0.930 . S
H874 C884 0.930 . S
H875 C887 0.929 . S
H876 C890 0.933 1_455 S
H877 C892 0.960 . S
H878 C892 0.960 . S
H879 C892 0.960 . S
C880 H872 0.929 . S
C880 C881 1.377 . S
C880 C882 1.384 . S
C881 C880 1.377 . S
C881 C887 1.390 . S
C882 H873 0.930 . S
C882 C880 1.384 . S
C882 C883 1.372 . S
C883 C882 1.372 . S
C883 C884 1.400 . S
C883 C888 1.490 . S
C884 H874 0.930 . S
C884 C883 1.400 . S
C884 C887 1.386 . S
H885 C901 0.930 . S
H886 C902 0.931 . S
C887 H875 0.929 . S
C887 C881 1.390 . S
C887 C884 1.386 . S
C888 C883 1.490 . S
C888 C890 1.395 . S
C888 C891 1.403 . S
H889 C895 0.930 . S
C890 H876 0.933 1_655 S
C890 C888 1.395 . S
C890 C893 1.392 1_655 S
C891 C888 1.403 . S
C891 C892 1.524 . S
C891 C895 1.400 . S
C892 H877 0.960 . S
C892 H878 0.960 . S
C892 H879 0.960 . S
C892 C891 1.524 . S
C893 C890 1.392 1_455 S
C893 C894 1.376 1_455 S
C893 C897 1.522 1_554 S
C894 C893 1.376 1_655 S
C894 C895 1.385 . S
C894 C896 1.478 1_554 S
C895 H889 0.930 . S
C895 C891 1.400 . S
C895 C894 1.385 . S
C896 C894 1.478 1_556 S
C896 C898 1.381 1_656 S
C896 C902 1.383 . S
C897 C893 1.522 1_556 S
C897 H903 0.959 1_556 S
C897 H904 0.961 . S
C897 H905 0.960 1_556 S
C898 C896 1.381 1_454 S
C898 C899 1.394 1_554 S
C898 H906 0.930 . S
C899 C898 1.394 1_556 S
C899 C900 1.383 . S
C899 H907 0.929 . S
C900 C899 1.383 . S
C900 C901 1.377 1_455 S
C901 H885 0.930 . S
C901 C900 1.377 1_655 S
C901 C902 1.379 . S
C902 H886 0.931 . S
C902 C896 1.383 . S
C902 C901 1.379 . S
H903 C897 0.959 1_554 S
H904 C897 0.961 . S
H905 C897 0.960 1_554 S
H906 C898 0.930 . S
H907 C899 0.929 . S
H908 C916 0.929 . S
H909 C918 0.930 . S
H910 C920 0.930 . S
H911 C923 0.929 . S
H912 C926 0.930 . S
H913 C928 0.960 . S
H914 C928 0.960 . S
H915 C928 0.960 . S
C916 H908 0.929 . S
C916 C917 1.377 . S
C916 C918 1.384 . S
C917 C916 1.377 . S
C917 C923 1.390 . S
C918 H909 0.930 . S
C918 C916 1.384 . S
C918 C919 1.372 . S
C919 C918 1.372 . S
C919 C920 1.400 . S
C919 C924 1.490 . S
C920 H910 0.930 . S
C920 C919 1.400 . S
C920 C923 1.386 . S
H921 C937 0.930 . S
H922 C938 0.931 . S
C923 H911 0.929 . S
C923 C917 1.390 . S
C923 C920 1.386 . S
C924 C919 1.490 . S
C924 C926 1.395 . S
C924 C927 1.403 . S
H925 C931 0.930 . S
C926 H912 0.930 . S
C926 C924 1.395 . S
C926 C929 1.403 1_565 S
C927 C924 1.403 . S
C927 C928 1.524 . S
C927 C931 1.400 . S
C928 H913 0.960 . S
C928 H914 0.960 . S
C928 H915 0.960 . S
C928 C927 1.524 . S
C929 C926 1.403 1_545 S
C929 C930 1.392 1_545 S
C929 C933 1.495 1_554 S
C930 C929 1.392 1_565 S
C930 C931 1.385 . S
C930 C932 1.485 1_554 S
C931 H925 0.930 . S
C931 C927 1.400 . S
C931 C930 1.385 . S
C932 C930 1.485 1_556 S
C932 C934 1.357 1_565 S
C932 C938 1.400 . S
C933 C929 1.495 1_556 S
C933 H939 0.959 . S
C933 H940 0.961 . S
C933 H941 0.960 . S
C934 C932 1.357 1_545 S
C934 C935 1.394 . S
C934 H942 0.930 1_556 S
C935 C934 1.394 . S
C935 C936 1.383 . S
C935 H943 0.929 . S
C936 C935 1.383 . S
C936 C937 1.377 1_545 S
C937 H921 0.930 . S
C937 C936 1.377 1_565 S
C937 C938 1.379 . S
C938 H922 0.931 . S
C938 C932 1.400 . S
C938 C937 1.379 . S
H939 C933 0.959 . S
H940 C933 0.961 . S
H941 C933 0.960 . S
H942 C934 0.930 1_554 S
H943 C935 0.929 . S
H944 C952 0.929 . S
H945 C954 0.930 . S
H946 C956 0.930 . S
H947 C959 0.929 . S
H948 C962 0.930 . S
H949 C964 0.960 . S
H950 C964 0.960 . S
H951 C964 0.960 . S
C952 H944 0.929 . S
C952 C953 1.377 . S
C952 C954 1.384 . S
C953 C952 1.377 . S
C953 C959 1.390 . S
C954 H945 0.930 . S
C954 C952 1.384 . S
C954 C955 1.372 . S
C955 C954 1.372 . S
C955 C956 1.400 . S
C955 C960 1.490 . S
C956 H946 0.930 . S
C956 C955 1.400 . S
C956 C959 1.386 . S
H957 C973 0.930 1_554 S
H958 C974 0.931 . S
C959 H947 0.929 . S
C959 C953 1.390 . S
C959 C956 1.386 . S
C960 C955 1.490 . S
C960 C962 1.395 . S
C960 C963 1.403 . S
H961 C967 0.930 . S
C962 H948 0.930 . S
C962 C960 1.395 . S
C962 C965 1.403 . S
C963 C960 1.403 . S
C963 C964 1.524 . S
C963 C967 1.400 . S
C964 H949 0.960 . S
C964 H950 0.960 . S
C964 H951 0.960 . S
C964 C963 1.524 . S
C965 C962 1.403 . S
C965 C966 1.392 . S
C965 C969 1.495 . S
C966 C965 1.392 . S
C966 C967 1.385 . S
C966 C968 1.478 1_554 S
C967 H961 0.930 . S
C967 C963 1.400 . S
C967 C966 1.385 . S
C968 C966 1.478 1_556 S
C968 C970 1.381 . S
C968 C974 1.383 1_556 S
C969 C965 1.495 . S
C969 H975 0.959 . S
C969 H976 0.961 . S
C969 H977 0.960 . S
C970 C968 1.381 . S
C970 C971 1.394 . S
C970 H978 0.930 . S
C971 C970 1.394 . S
C971 C972 1.383 . S
C971 H979 0.929 . S
C972 C971 1.383 . S
C972 C973 1.377 . S
C973 H957 0.930 1_556 S
C973 C972 1.377 . S
C973 C974 1.379 1_556 S
C974 H958 0.931 . S
C974 C968 1.383 1_554 S
C974 C973 1.379 1_554 S
H975 C969 0.959 . S
H976 C969 0.961 . S
H977 C969 0.960 . S
H978 C970 0.930 . S
H979 C971 0.929 . S
H980 C988 0.929 . S
H981 C990 0.930 . S
H982 C992 0.930 . S
H983 C995 0.929 . S
H984 C998 0.930 . S
H985 C1000 0.960 . S
H986 C1000 0.960 . S
H987 C1000 0.960 . S
C988 H980 0.929 . S
C988 C989 1.377 . S
C988 C990 1.384 . S
C989 C988 1.377 . S
C989 C995 1.390 . S
C990 H981 0.930 . S
C990 C988 1.384 . S
C990 C991 1.372 . S
C991 C990 1.372 . S
C991 C992 1.400 . S
C991 C996 1.490 . S
C992 H982 0.930 . S
C992 C991 1.400 . S
C992 C995 1.386 . S
H993 C1009 0.930 . S
H994 C1010 0.931 . S
C995 H983 0.929 . S
C995 C989 1.390 . S
C995 C992 1.386 . S
C996 C991 1.490 . S
C996 C998 1.395 . S
C996 C999 1.403 . S
H997 C1003 0.930 . S
C998 H984 0.930 . S
C998 C996 1.395 . S
C998 C1001 1.403 . S
C999 C996 1.403 . S
C999 C1000 1.524 1_554 S
C999 C1003 1.400 1_554 S
C1000 H985 0.960 . S
C1000 H986 0.960 . S
C1000 H987 0.960 . S
C1000 C999 1.524 1_556 S
C1001 C998 1.403 . S
C1001 C1002 1.392 . S
C1001 C1005 1.495 . S
C1002 C1001 1.392 . S
C1002 C1003 1.385 1_554 S
C1002 C1004 1.478 . S
C1003 H997 0.930 . S
C1003 C999 1.400 1_556 S
C1003 C1002 1.385 1_556 S
C1004 C1002 1.478 . S
C1004 C1006 1.381 . S
C1004 C1010 1.383 1_554 S
C1005 C1001 1.495 . S
C1005 H1011 0.959 . S
C1005 H1012 0.961 . S
C1005 H1013 0.960 . S
C1006 C1004 1.381 . S
C1006 C1007 1.394 1_554 S
C1006 H1014 0.930 . S
C1007 C1006 1.394 1_556 S
C1007 C1008 1.383 . S
C1007 H1015 0.929 . S
C1008 C1007 1.383 . S
C1008 C1009 1.377 . S
C1009 H993 0.930 . S
C1009 C1008 1.377 . S
C1009 C1010 1.379 . S
C1010 H994 0.931 . S
C1010 C1004 1.383 1_556 S
C1010 C1009 1.379 . S
H1011 C1005 0.959 . S
H1012 C1005 0.961 . S
H1013 C1005 0.960 . S
H1014 C1006 0.930 . S
H1015 C1007 0.929 . S
H1016 C1024 0.929 . S
H1017 C1026 0.930 . S
H1018 C1028 0.930 . S
H1019 C1031 0.929 . S
H1020 C1034 0.930 . S
H1021 C1036 0.960 . S
H1022 C1036 0.960 . S
H1023 C1036 0.960 . S
C1024 H1016 0.929 . S
C1024 C1025 1.377 . S
C1024 C1026 1.384 . S
C1025 C1024 1.377 . S
C1025 C1031 1.390 . S
C1026 H1017 0.930 . S
C1026 C1024 1.384 . S
C1026 C1027 1.372 . S
C1027 C1026 1.372 . S
C1027 C1028 1.400 . S
C1027 C1032 1.490 . S
C1028 H1018 0.930 . S
C1028 C1027 1.400 . S
C1028 C1031 1.386 . S
H1029 C1045 0.930 . S
H1030 C1046 0.931 . S
C1031 H1019 0.929 . S
C1031 C1025 1.390 . S
C1031 C1028 1.386 . S
C1032 C1027 1.490 . S
C1032 C1034 1.395 . S
C1032 C1035 1.403 . S
H1033 C1039 0.930 . S
C1034 H1020 0.930 . S
C1034 C1032 1.395 . S
C1034 C1037 1.403 . S
C1035 C1032 1.403 . S
C1035 C1036 1.524 . S
C1035 C1039 1.400 . S
C1036 H1021 0.960 . S
C1036 H1022 0.960 . S
C1036 H1023 0.960 . S
C1036 C1035 1.524 . S
C1037 C1034 1.403 . S
C1037 C1038 1.392 . S
C1037 C1041 1.495 . S
C1038 C1037 1.392 . S
C1038 C1039 1.385 . S
C1038 C1040 1.478 . S
C1039 H1033 0.930 . S
C1039 C1035 1.400 . S
C1039 C1038 1.385 . S
C1040 C1038 1.478 . S
C1040 C1042 1.381 . S
C1040 C1046 1.383 . S
C1041 C1037 1.495 . S
C1041 H1047 0.959 1_455 S
C1041 H1048 0.961 . S
C1041 H1049 0.960 1_455 S
C1042 C1040 1.381 . S
C1042 C1043 1.394 . S
C1042 H1050 0.930 . S
C1043 C1042 1.394 . S
C1043 C1044 1.383 . S
C1043 H1051 0.929 1_455 S
C1044 C1043 1.383 . S
C1044 C1045 1.377 . S
C1045 H1029 0.930 . S
C1045 C1044 1.377 . S
C1045 C1046 1.379 . S
C1046 H1030 0.931 . S
C1046 C1040 1.383 . S
C1046 C1045 1.379 . S
H1047 C1041 0.959 1_655 S
H1048 C1041 0.961 . S
H1049 C1041 0.960 1_655 S
H1050 C1042 0.930 . S
H1051 C1043 0.929 1_655 S
H1052 C1060 0.929 1_554 S
H1053 C1062 0.930 . S
H1054 C1064 0.930 . S
H1055 C1067 0.929 . S
H1056 C1070 0.930 . S
H1057 C1072 0.960 . S
H1058 C1072 0.960 . S
H1059 C1072 0.960 . S
C1060 H1052 0.929 1_556 S
C1060 C1061 1.377 . S
C1060 C1062 1.384 . S
C1061 C1060 1.377 . S
C1061 C1067 1.390 . S
C1062 H1053 0.930 . S
C1062 C1060 1.384 . S
C1062 C1063 1.372 . S
C1063 C1062 1.372 . S
C1063 C1064 1.400 . S
C1063 C1068 1.490 . S
C1064 H1054 0.930 . S
C1064 C1063 1.400 . S
C1064 C1067 1.386 . S
H1065 C1081 0.930 . S
H1066 C1082 0.931 . S
C1067 H1055 0.929 . S
C1067 C1061 1.390 . S
C1067 C1064 1.386 . S
C1068 C1063 1.490 . S
C1068 C1070 1.395 . S
C1068 C1071 1.403 . S
H1069 C1075 0.930 . S
C1070 H1056 0.930 . S
C1070 C1068 1.395 . S
C1070 C1073 1.403 . S
C1071 C1068 1.403 . S
C1071 C1072 1.524 . S
C1071 C1075 1.400 . S
C1072 H1057 0.960 . S
C1072 H1058 0.960 . S
C1072 H1059 0.960 . S
C1072 C1071 1.524 . S
C1073 C1070 1.403 . S
C1073 C1074 1.392 . S
C1073 C1077 1.495 1_545 S
C1074 C1073 1.392 . S
C1074 C1075 1.385 . S
C1074 C1076 1.478 . S
C1075 H1069 0.930 . S
C1075 C1071 1.400 . S
C1075 C1074 1.385 . S
C1076 C1074 1.478 . S
C1076 C1078 1.381 . S
C1076 C1082 1.383 . S
C1077 C1073 1.495 1_565 S
C1077 H1083 0.959 . S
C1077 H1084 0.961 . S
C1077 H1085 0.955 1_565 S
C1078 C1076 1.381 . S
C1078 C1079 1.394 . S
C1078 H1086 0.930 . S
C1079 C1078 1.394 . S
C1079 C1080 1.383 . S
C1079 H1087 0.929 . S
C1080 C1079 1.383 . S
C1080 C1081 1.377 . S
C1081 H1065 0.930 . S
C1081 C1080 1.377 . S
C1081 C1082 1.379 . S
C1082 H1066 0.931 . S
C1082 C1076 1.383 . S
C1082 C1081 1.379 . S
H1083 C1077 0.959 . S
H1084 C1077 0.961 . S
H1085 C1077 0.955 1_545 S
H1086 C1078 0.930 . S
H1087 C1079 0.929 . S
H1088 C1096 0.929 . S
H1089 C1098 0.930 . S
H1090 C1100 0.930 . S
H1091 C1103 0.929 . S
H1092 C1106 0.930 . S
H1093 C1108 0.960 . S
H1094 C1108 0.960 . S
H1095 C1108 0.960 . S
C1096 H1088 0.929 . S
C1096 C1097 1.377 . S
C1096 C1098 1.384 . S
C1097 C1096 1.377 . S
C1097 C1103 1.390 . S
C1098 H1089 0.930 . S
C1098 C1096 1.384 . S
C1098 C1099 1.372 . S
C1099 C1098 1.372 . S
C1099 C1100 1.400 . S
C1099 C1104 1.490 . S
C1100 H1090 0.930 . S
C1100 C1099 1.400 . S
C1100 C1103 1.386 . S
H1101 C1117 0.930 . S
H1102 C1118 0.931 . S
C1103 H1091 0.929 . S
C1103 C1097 1.390 . S
C1103 C1100 1.386 . S
C1104 C1099 1.490 . S
C1104 C1106 1.395 . S
C1104 C1107 1.403 . S
H1105 C1111 0.930 . S
C1106 H1092 0.930 . S
C1106 C1104 1.395 . S
C1106 C1109 1.403 . S
C1107 C1104 1.403 . S
C1107 C1108 1.524 . S
C1107 C1111 1.400 . S
C1108 H1093 0.960 . S
C1108 H1094 0.960 . S
C1108 H1095 0.960 . S
C1108 C1107 1.524 . S
C1109 C1106 1.403 . S
C1109 C1110 1.392 . S
C1109 C1113 1.495 . S
C1110 C1109 1.392 . S
C1110 C1111 1.385 . S
C1110 C1112 1.478 . S
C1111 H1105 0.930 . S
C1111 C1107 1.400 . S
C1111 C1110 1.385 . S
C1112 C1110 1.478 . S
C1112 C1114 1.381 . S
C1112 C1118 1.383 . S
C1113 C1109 1.495 . S
C1113 H1119 0.959 . S
C1113 H1120 0.961 . S
C1113 H1121 0.960 . S
C1114 C1112 1.381 . S
C1114 C1115 1.394 . S
C1114 H1122 0.930 . S
C1115 C1114 1.394 . S
C1115 C1116 1.383 . S
C1115 H1123 0.929 . S
C1116 C1115 1.383 . S
C1116 C1117 1.377 . S
C1117 H1101 0.930 . S
C1117 C1116 1.377 . S
C1117 C1118 1.379 . S
C1118 H1102 0.931 . S
C1118 C1112 1.383 . S
C1118 C1117 1.379 . S
H1119 C1113 0.959 . S
H1120 C1113 0.961 . S
H1121 C1113 0.960 . S
H1122 C1114 0.930 . S
H1123 C1115 0.929 . S
H1124 C1132 0.929 . S
H1125 C1134 0.930 . S
H1126 C1136 0.930 . S
H1127 C1139 0.929 . S
H1128 C1142 0.930 . S
H1129 C1144 0.961 . S
H1130 C1144 0.960 1_554 S
H1131 C1144 0.960 . S
C1132 H1124 0.929 . S
C1132 C1133 1.377 . S
C1132 C1134 1.384 . S
C1133 C1132 1.377 . S
C1133 C1139 1.390 . S
C1134 H1125 0.930 . S
C1134 C1132 1.384 . S
C1134 C1135 1.372 . S
C1135 C1134 1.372 . S
C1135 C1136 1.400 . S
C1135 C1140 1.490 . S
C1136 H1126 0.930 . S
C1136 C1135 1.400 . S
C1136 C1139 1.386 . S
H1137 C1153 0.930 . S
H1138 C1154 0.931 . S
C1139 H1127 0.929 . S
C1139 C1133 1.390 . S
C1139 C1136 1.386 . S
C1140 C1135 1.490 . S
C1140 C1142 1.395 . S
C1140 C1143 1.403 . S
H1141 C1147 0.930 . S
C1142 H1128 0.930 . S
C1142 C1140 1.395 . S
C1142 C1145 1.403 . S
C1143 C1140 1.403 . S
C1143 C1144 1.524 . S
C1143 C1147 1.400 . S
C1144 H1129 0.961 . S
C1144 H1130 0.960 1_556 S
C1144 H1131 0.960 . S
C1144 C1143 1.524 . S
C1145 C1142 1.403 . S
C1145 C1146 1.392 . S
C1145 C1149 1.495 . S
C1146 C1145 1.392 . S
C1146 C1147 1.385 . S
C1146 C1148 1.478 . S
C1147 H1141 0.930 . S
C1147 C1143 1.400 . S
C1147 C1146 1.385 . S
C1148 C1146 1.478 . S
C1148 C1150 1.381 . S
C1148 C1154 1.383 . S
C1149 C1145 1.495 . S
C1149 H1155 0.959 . S
C1149 H1156 0.961 . S
C1149 H1157 0.960 . S
C1150 C1148 1.381 . S
C1150 C1151 1.394 . S
C1150 H1158 0.930 . S
C1151 C1150 1.394 . S
C1151 C1152 1.383 . S
C1151 H1159 0.929 . S
C1152 C1151 1.383 . S
C1152 C1153 1.377 . S
C1153 H1137 0.930 . S
C1153 C1152 1.377 . S
C1153 C1154 1.379 . S
C1154 H1138 0.931 . S
C1154 C1148 1.383 . S
C1154 C1153 1.379 . S
H1155 C1149 0.959 . S
H1156 C1149 0.961 . S
H1157 C1149 0.960 . S
H1158 C1150 0.930 . S
H1159 C1151 0.929 . S
H1160 C1168 0.929 . S
H1161 C1170 0.930 . S
H1162 C1172 0.930 . S
H1163 C1175 0.929 . S
H1164 C1178 0.930 . S
H1165 C1180 0.960 . S
H1166 C1180 0.960 . S
H1167 C1180 0.960 . S
C1168 H1160 0.929 . S
C1168 C1169 1.377 . S
C1168 C1170 1.384 . S
C1169 C1168 1.377 . S
C1169 C1175 1.390 . S
C1170 H1161 0.930 . S
C1170 C1168 1.384 . S
C1170 C1171 1.372 . S
C1171 C1170 1.372 . S
C1171 C1172 1.400 . S
C1171 C1176 1.490 . S
C1172 H1162 0.930 . S
C1172 C1171 1.400 . S
C1172 C1175 1.386 . S
H1173 C1189 0.930 . S
H1174 C1190 0.931 . S
C1175 H1163 0.929 . S
C1175 C1169 1.390 . S
C1175 C1172 1.386 . S
C1176 C1171 1.490 . S
C1176 C1178 1.395 . S
C1176 C1179 1.403 . S
H1177 C1183 0.930 . S
C1178 H1164 0.930 . S
C1178 C1176 1.395 . S
C1178 C1181 1.403 . S
C1179 C1176 1.403 . S
C1179 C1180 1.524 . S
C1179 C1183 1.400 . S
C1180 H1165 0.960 . S
C1180 H1166 0.960 . S
C1180 H1167 0.960 . S
C1180 C1179 1.524 . S
C1181 C1178 1.403 . S
C1181 C1182 1.392 . S
C1181 C1185 1.495 1_655 S
C1182 C1181 1.392 . S
C1182 C1183 1.385 . S
C1182 C1184 1.478 . S
C1183 H1177 0.930 . S
C1183 C1179 1.400 . S
C1183 C1182 1.385 . S
C1184 C1182 1.478 . S
C1184 C1186 1.381 . S
C1184 C1190 1.383 . S
C1185 C1181 1.495 1_455 S
C1185 H1191 0.959 . S
C1185 H1192 0.961 . S
C1185 H1193 0.960 . S
C1186 C1184 1.381 . S
C1186 C1187 1.394 1_655 S
C1186 H1194 0.930 1_655 S
C1187 C1186 1.394 1_455 S
C1187 C1188 1.383 1_455 S
C1187 H1195 0.929 . S
C1188 C1187 1.383 1_655 S
C1188 C1189 1.377 . S
C1189 H1173 0.930 . S
C1189 C1188 1.377 . S
C1189 C1190 1.379 . S
C1190 H1174 0.931 . S
C1190 C1184 1.383 . S
C1190 C1189 1.379 . S
H1191 C1185 0.959 . S
H1192 C1185 0.961 . S
H1193 C1185 0.960 . S
H1194 C1186 0.930 1_455 S
H1195 C1187 0.929 . S
H1196 C1204 0.929 . S
H1197 C1206 0.930 . S
H1198 C1208 0.930 . S
H1199 C1211 0.929 . S
H1200 C1214 0.930 . S
H1201 C1216 0.960 1_545 S
H1202 C1216 0.960 1_545 S
H1203 C1216 0.960 . S
C1204 H1196 0.929 . S
C1204 C1205 1.377 . S
C1204 C1206 1.384 . S
C1205 C1204 1.377 . S
C1205 C1211 1.390 . S
C1206 H1197 0.930 . S
C1206 C1204 1.384 . S
C1206 C1207 1.372 . S
C1207 C1206 1.372 . S
C1207 C1208 1.400 . S
C1207 C1212 1.490 . S
C1208 H1198 0.930 . S
C1208 C1207 1.400 . S
C1208 C1211 1.386 . S
H1209 C1225 0.930 . S
H1210 C1226 0.931 . S
C1211 H1199 0.929 . S
C1211 C1205 1.390 . S
C1211 C1208 1.386 . S
C1212 C1207 1.490 . S
C1212 C1214 1.395 . S
C1212 C1215 1.403 . S
H1213 C1219 0.930 . S
C1214 H1200 0.930 . S
C1214 C1212 1.395 . S
C1214 C1217 1.403 . S
C1215 C1212 1.403 . S
C1215 C1216 1.524 . S
C1215 C1219 1.400 . S
C1216 H1201 0.960 1_565 S
C1216 H1202 0.960 1_565 S
C1216 H1203 0.960 . S
C1216 C1215 1.524 . S
C1217 C1214 1.403 . S
C1217 C1218 1.392 . S
C1217 C1221 1.495 . S
C1218 C1217 1.392 . S
C1218 C1219 1.385 . S
C1218 C1220 1.478 . S
C1219 H1213 0.930 . S
C1219 C1215 1.400 . S
C1219 C1218 1.385 . S
C1220 C1218 1.478 . S
C1220 C1222 1.381 . S
C1220 C1226 1.383 . S
C1221 C1217 1.495 . S
C1221 H1227 0.959 . S
C1221 H1228 0.961 . S
C1221 H1229 0.960 . S
C1222 C1220 1.381 . S
C1222 C1223 1.394 . S
C1222 H1230 0.930 . S
C1223 C1222 1.394 . S
C1223 C1224 1.383 . S
C1223 H1231 0.929 1_565 S
C1224 C1223 1.383 . S
C1224 C1225 1.377 . S
C1225 H1209 0.930 . S
C1225 C1224 1.377 . S
C1225 C1226 1.379 . S
C1226 H1210 0.931 . S
C1226 C1220 1.383 . S
C1226 C1225 1.379 . S
H1227 C1221 0.959 . S
H1228 C1221 0.961 . S
H1229 C1221 0.960 . S
H1230 C1222 0.930 . S
H1231 C1223 0.929 1_545 S
H1232 C1240 0.929 . S
H1233 C1242 0.930 . S
H1234 C1244 0.930 . S
H1235 C1247 0.929 . S
H1236 C1250 0.930 . S
H1237 C1252 0.960 . S
H1238 C1252 0.960 . S
H1239 C1252 0.960 . S
C1240 H1232 0.929 . S
C1240 C1241 1.377 . S
C1240 C1242 1.384 . S
C1241 C1240 1.377 . S
C1241 C1247 1.390 . S
C1242 H1233 0.930 . S
C1242 C1240 1.384 . S
C1242 C1243 1.372 . S
C1243 C1242 1.372 . S
C1243 C1244 1.400 . S
C1243 C1248 1.490 . S
C1244 H1234 0.930 . S
C1244 C1243 1.400 . S
C1244 C1247 1.386 . S
H1245 C1261 0.930 . S
H1246 C1262 0.931 . S
C1247 H1235 0.929 . S
C1247 C1241 1.390 . S
C1247 C1244 1.386 . S
C1248 C1243 1.490 . S
C1248 C1250 1.395 . S
C1248 C1251 1.403 . S
H1249 C1255 0.930 . S
C1250 H1236 0.930 . S
C1250 C1248 1.395 . S
C1250 C1253 1.403 . S
C1251 C1248 1.403 . S
C1251 C1252 1.524 . S
C1251 C1255 1.400 . S
C1252 H1237 0.960 . S
C1252 H1238 0.960 . S
C1252 H1239 0.960 . S
C1252 C1251 1.524 . S
C1253 C1250 1.403 . S
C1253 C1254 1.392 . S
C1253 C1257 1.495 . S
C1254 C1253 1.392 . S
C1254 C1255 1.385 . S
C1254 C1256 1.478 . S
C1255 H1249 0.930 . S
C1255 C1251 1.400 . S
C1255 C1254 1.385 . S
C1256 C1254 1.478 . S
C1256 C1258 1.381 . S
C1256 C1262 1.383 . S
C1257 C1253 1.495 . S
C1257 H1263 0.959 . S
C1257 H1264 0.961 . S
C1257 H1265 0.960 . S
C1258 C1256 1.381 . S
C1258 C1259 1.394 . S
C1258 H1266 0.930 . S
C1259 C1258 1.394 . S
C1259 C1260 1.383 . S
C1259 H1267 0.929 . S
C1260 C1259 1.383 . S
C1260 C1261 1.377 . S
C1261 H1245 0.930 . S
C1261 C1260 1.377 . S
C1261 C1262 1.379 . S
C1262 H1246 0.931 . S
C1262 C1256 1.383 . S
C1262 C1261 1.379 . S
H1263 C1257 0.959 . S
H1264 C1257 0.961 . S
H1265 C1257 0.960 . S
H1266 C1258 0.930 . S
H1267 C1259 0.929 . S
H1268 C1276 0.929 . S
H1269 C1278 0.930 . S
H1270 C1280 0.930 . S
H1271 C1283 0.929 . S
H1272 C1286 0.930 . S
H1273 C1288 0.960 . S
H1274 C1288 0.960 . S
H1275 C1288 0.960 . S
C1276 H1268 0.929 . S
C1276 C1277 1.377 . S
C1276 C1278 1.384 . S
C1277 C1276 1.377 . S
C1277 C1283 1.390 . S
C1278 H1269 0.930 . S
C1278 C1276 1.384 . S
C1278 C1279 1.372 . S
C1279 C1278 1.372 . S
C1279 C1280 1.400 . S
C1279 C1284 1.490 . S
C1280 H1270 0.930 . S
C1280 C1279 1.400 . S
C1280 C1283 1.386 . S
H1281 C1297 0.930 . S
H1282 C1298 0.931 . S
C1283 H1271 0.929 . S
C1283 C1277 1.390 . S
C1283 C1280 1.386 . S
C1284 C1279 1.490 . S
C1284 C1286 1.395 . S
C1284 C1287 1.403 . S
H1285 C1291 0.930 . S
C1286 H1272 0.930 . S
C1286 C1284 1.395 . S
C1286 C1289 1.403 . S
C1287 C1284 1.403 . S
C1287 C1288 1.524 . S
C1287 C1291 1.400 . S
C1288 H1273 0.960 . S
C1288 H1274 0.960 . S
C1288 H1275 0.960 . S
C1288 C1287 1.524 . S
C1289 C1286 1.403 . S
C1289 C1290 1.392 . S
C1289 C1293 1.495 . S
C1290 C1289 1.392 . S
C1290 C1291 1.385 . S
C1290 C1292 1.478 . S
C1291 H1285 0.930 . S
C1291 C1287 1.400 . S
C1291 C1290 1.385 . S
C1292 C1290 1.478 . S
C1292 C1294 1.381 . S
C1292 C1298 1.383 . S
C1293 C1289 1.495 . S
C1293 H1299 0.959 . S
C1293 H1300 0.961 . S
C1293 H1301 0.960 . S
C1294 C1292 1.381 . S
C1294 C1295 1.394 . S
C1294 H1302 0.930 . S
C1295 C1294 1.394 . S
C1295 C1296 1.383 . S
C1295 H1303 0.929 . S
C1296 C1295 1.383 . S
C1296 C1297 1.377 . S
C1297 H1281 0.930 . S
C1297 C1296 1.377 . S
C1297 C1298 1.379 . S
C1298 H1282 0.931 . S
C1298 C1292 1.383 . S
C1298 C1297 1.379 . S
H1299 C1293 0.959 . S
H1300 C1293 0.961 . S
H1301 C1293 0.960 . S
H1302 C1294 0.930 . S
H1303 C1295 0.929 . S
C449 N80 1.845 . S
C468 C179 1.829 . S
C504 C263 1.886 . S
C485 N93 1.863 . S
C540 C339 1.923 . S
C521 N54 1.977 . S
C576 C423 1.876 . S
C557 N67 1.959 . S
C612 C170 1.837 1_565 S
C593 N28 1.851 . S
C629 N41 1.875 . S
C648 C254 1.859 . S
C665 N2 1.992 . S
C684 C328 1.900 . S
C701 N15 1.962 . S
C720 C412 1.871 . S
C756 C167 0.494 1_455 S
C737 N70 0.398 . S
C792 C251 0.539 1_545 S
C773 N83 0.382 . S
C828 C344 0.579 . S
C809 N96 0.354 . S
C845 N57 0.390 . S
C864 C428 0.533 . S
C881 N18 0.408 . S
C900 C176 0.428 . S
C936 C260 0.452 . S
C917 N31 0.371 . S
C972 C335 0.499 . S
C953 N44 0.334 . S
C989 N5 0.381 . S
C1008 C419 0.394 . S
C1025 N66 2.001 . S
C1044 C160 1.921 . S
C1061 N79 1.973 . S
C1080 C244 1.904 . S
C1116 C338 1.896 . S
C1097 N92 1.864 . S
C1152 C422 1.933 . S
C1133 N53 1.894 . S
C1169 N14 2.026 . S
C1188 C171 1.946 . S
C1224 C255 1.940 . S
C1205 N27 1.988 . S
C1260 C347 1.898 . S
C1241 N40 1.886 . S
C1277 N1 1.915 . S
C1296 C431 1.930 . S
