# Generated by pormake.
# Topology pto, (3,4)-cn, num edge types: 1
# Building blocks:
#     Node 0, Type 0, BuildingBlock: WUSLED_clean_sbu_0, # of connection points: 3
#     Node 1, Type 0, BuildingBlock: WUSLED_clean_sbu_0, # of connection points: 3
#     Node 2, Type 0, BuildingBlock: WUSLED_clean_sbu_0, # of connection points: 3
#     Node 3, Type 0, BuildingBlock: WUSLED_clean_sbu_0, # of connection points: 3
#     Node 4, Type 0, BuildingBlock: WUSLED_clean_sbu_0, # of connection points: 3
#     Node 5, Type 0, BuildingBlock: WUSLED_clean_sbu_0, # of connection points: 3
#     Node 6, Type 0, BuildingBlock: WUSLED_clean_sbu_0, # of connection points: 3
#     Node 7, Type 0, BuildingBlock: WUSLED_clean_sbu_0, # of connection points: 3
#     Node 8, Type 1, BuildingBlock: AZAVOO_clean_linker_0, # of connection points: 4
#     Node 9, Type 1, BuildingBlock: AZAVOO_clean_linker_0, # of connection points: 4
#     Node 10, Type 1, BuildingBlock: AZAVOO_clean_linker_0, # of connection points: 4
#     Node 11, Type 1, BuildingBlock: AZAVOO_clean_linker_0, # of connection points: 4
#     Node 12, Type 1, BuildingBlock: AZAVOO_clean_linker_0, # of connection points: 4
#     Node 13, Type 1, BuildingBlock: AZAVOO_clean_linker_0, # of connection points: 4
#     Edge 14, Type (0, 1), BuildingBlock: XUDNAN_clean_linker_2, # of connection points: 2
#     Edge 15, Type (0, 1), BuildingBlock: XUDNAN_clean_linker_2, # of connection points: 2
#     Edge 16, Type (0, 1), BuildingBlock: XUDNAN_clean_linker_2, # of connection points: 2
#     Edge 17, Type (0, 1), BuildingBlock: XUDNAN_clean_linker_2, # of connection points: 2
#     Edge 18, Type (0, 1), BuildingBlock: XUDNAN_clean_linker_2, # of connection points: 2
#     Edge 19, Type (0, 1), BuildingBlock: XUDNAN_clean_linker_2, # of connection points: 2
#     Edge 20, Type (0, 1), BuildingBlock: XUDNAN_clean_linker_2, # of connection points: 2
#     Edge 21, Type (0, 1), BuildingBlock: XUDNAN_clean_linker_2, # of connection points: 2
#     Edge 22, Type (0, 1), BuildingBlock: XUDNAN_clean_linker_2, # of connection points: 2
#     Edge 23, Type (0, 1), BuildingBlock: XUDNAN_clean_linker_2, # of connection points: 2
#     Edge 24, Type (0, 1), BuildingBlock: XUDNAN_clean_linker_2, # of connection points: 2
#     Edge 25, Type (0, 1), BuildingBlock: XUDNAN_clean_linker_2, # of connection points: 2
#     Edge 26, Type (0, 1), BuildingBlock: XUDNAN_clean_linker_2, # of connection points: 2
#     Edge 27, Type (0, 1), BuildingBlock: XUDNAN_clean_linker_2, # of connection points: 2
#     Edge 28, Type (0, 1), BuildingBlock: XUDNAN_clean_linker_2, # of connection points: 2
#     Edge 29, Type (0, 1), BuildingBlock: XUDNAN_clean_linker_2, # of connection points: 2
#     Edge 30, Type (0, 1), BuildingBlock: XUDNAN_clean_linker_2, # of connection points: 2
#     Edge 31, Type (0, 1), BuildingBlock: XUDNAN_clean_linker_2, # of connection points: 2
#     Edge 32, Type (0, 1), BuildingBlock: XUDNAN_clean_linker_2, # of connection points: 2
#     Edge 33, Type (0, 1), BuildingBlock: XUDNAN_clean_linker_2, # of connection points: 2
#     Edge 34, Type (0, 1), BuildingBlock: XUDNAN_clean_linker_2, # of connection points: 2
#     Edge 35, Type (0, 1), BuildingBlock: XUDNAN_clean_linker_2, # of connection points: 2
#     Edge 36, Type (0, 1), BuildingBlock: XUDNAN_clean_linker_2, # of connection points: 2
#     Edge 37, Type (0, 1), BuildingBlock: XUDNAN_clean_linker_2, # of connection points: 2
# Relax obj value: 0.054
# Max RMSD: 0.243
# Mean RMSD: 0.095
data_MOF--net-pto--node1-WUSLED_clean_sbu_0--node2-AZAVOO_clean_linker_0--edge1-XUDNAN_clean_linker_2
_symmetry_space_group_name_H-M    P1
_symmetry_Int_Tables_number       1
_symmetry_cell_setting            triclinic
loop_
_symmetry_equiv_pos_as_xyz
'x, y, z'
_cell_length_a     60.772601
_cell_length_b     60.519147
_cell_length_c     60.173428
_cell_angle_alpha  88.845783
_cell_angle_beta   90.033587
_cell_angle_gamma 91.843345
loop_
_atom_site_label
_atom_site_type_symbol
_atom_site_fract_x
_atom_site_fract_y
_atom_site_fract_z
_atom_type_partial_charge
C0 C 0.25669 0.25777 0.29926 0.0
C1 C 0.27673 0.247 0.29797 0.0
C2 C 0.26408 0.21985 0.32599 0.0
C3 C 0.28043 0.22829 0.31127 0.0
C4 C 0.2441 0.23091 0.32738 0.0
C5 C 0.24046 0.2497 0.31412 0.0
U6 U 0.2699 0.29135 0.24694 0.0
O7 O 0.24806 0.30552 0.2216 0.0
O8 O 0.27076 0.32721 0.24015 0.0
C9 C 0.25419 0.32596 0.22612 0.0
C10 C 0.25221 0.27668 0.2844 0.0
C11 C 0.23609 0.34083 0.23041 0.0
C12 C 0.20752 0.35375 0.25468 0.0
C13 C 0.2252 0.34008 0.25096 0.0
C14 C 0.2115 0.36918 0.21737 0.0
C15 C 0.20032 0.36834 0.23786 0.0
C16 C 0.22923 0.35551 0.21369 0.0
C17 C 0.31702 0.27174 0.21038 0.0
C18 C 0.32204 0.27882 0.17077 0.0
C19 C 0.35181 0.26407 0.19274 0.0
C20 C 0.33863 0.26442 0.21174 0.0
C21 C 0.34356 0.27095 0.17198 0.0
C22 C 0.3089 0.27929 0.18983 0.0
C23 C 0.30299 0.2703 0.23031 0.0
O24 O 0.2677 0.29235 0.2834 0.0
O25 O 0.24445 0.27133 0.26478 0.0
O26 O 0.28225 0.26445 0.22699 0.0
O27 O 0.30561 0.28641 0.2445 0.0
H28 H 0.28943 0.25294 0.28649 0.0
H29 H 0.29613 0.22043 0.31 0.0
H30 H 0.23104 0.22472 0.33828 0.0
H31 H 0.22482 0.25771 0.31518 0.0
H32 H 0.19952 0.35291 0.27076 0.0
H33 H 0.23029 0.32881 0.26407 0.0
H34 H 0.20624 0.38 0.20398 0.0
H35 H 0.23742 0.35621 0.19769 0.0
H36 H 0.31533 0.28447 0.15506 0.0
H37 H 0.36822 0.2577 0.19419 0.0
H38 H 0.34515 0.2585 0.22745 0.0
H39 H 0.2923 0.28517 0.18845 0.0
C40 C 0.24639 0.82731 0.73402 0.0
C41 C 0.2665 0.83934 0.7346 0.0
C42 C 0.25417 0.86365 0.70455 0.0
C43 C 0.27038 0.85731 0.71996 0.0
C44 C 0.23397 0.85161 0.70425 0.0
C45 C 0.23016 0.83361 0.71884 0.0
U46 U 0.25885 0.79195 0.78585 0.0
O47 O 0.23597 0.77384 0.80859 0.0
O48 O 0.26019 0.75584 0.7896 0.0
C49 C 0.24305 0.75444 0.80292 0.0
C50 C 0.24219 0.80799 0.74883 0.0
C51 C 0.22595 0.73792 0.79689 0.0
C52 C 0.20002 0.72236 0.77025 0.0
C53 C 0.21548 0.73887 0.77613 0.0
C54 C 0.20505 0.7041 0.80602 0.0
C55 C 0.19476 0.70468 0.78506 0.0
C56 C 0.22052 0.72057 0.81184 0.0
C57 C 0.30482 0.80761 0.8258 0.0
C58 C 0.31249 0.78389 0.85775 0.0
C59 C 0.33678 0.81538 0.84897 0.0
C60 C 0.32352 0.82074 0.83074 0.0
C61 C 0.33157 0.79673 0.86256 0.0
C62 C 0.29926 0.78926 0.83951 0.0
C63 C 0.29174 0.81256 0.80585 0.0
O64 O 0.25768 0.79331 0.74935 0.0
O65 O 0.23439 0.81223 0.76861 0.0
O66 O 0.27099 0.81689 0.80942 0.0
O67 O 0.29439 0.79903 0.78932 0.0
H68 H 0.27925 0.83471 0.74623 0.0
H69 H 0.28622 0.866 0.7205 0.0
H70 H 0.22099 0.85621 0.6929 0.0
H71 H 0.2145 0.82455 0.71823 0.0
H72 H 0.1922 0.72344 0.7541 0.0
H73 H 0.21945 0.75223 0.7644 0.0
H74 H 0.20159 0.69059 0.81771 0.0
H75 H 0.22851 0.71957 0.82792 0.0
H76 H 0.30781 0.76961 0.86802 0.0
H77 H 0.35148 0.82546 0.852 0.0
H78 H 0.3281 0.8349 0.82025 0.0
H79 H 0.28485 0.77893 0.83593 0.0
C80 C 0.71756 0.79107 0.24621 0.0
C81 C 0.72073 0.79189 0.22307 0.0
C82 C 0.68099 0.79233 0.21718 0.0
C83 C 0.70259 0.79252 0.20868 0.0
C84 C 0.67799 0.79088 0.24035 0.0
C85 C 0.69607 0.79033 0.25467 0.0
U86 U 0.77451 0.77417 0.26861 0.0
O87 O 0.78406 0.76731 0.30326 0.0
O88 O 0.80029 0.79472 0.28452 0.0
C89 C 0.79815 0.78422 0.30376 0.0
C90 C 0.73614 0.79194 0.26203 0.0
C91 C 0.79693 0.79814 0.32338 0.0
C92 C 0.77848 0.82482 0.34589 0.0
C93 C 0.77916 0.81191 0.32684 0.0
C94 C 0.81328 0.81027 0.35801 0.0
C95 C 0.7955 0.82404 0.36175 0.0
C96 C 0.81396 0.79745 0.33902 0.0
C97 C 0.81104 0.73305 0.2433 0.0
C98 C 0.84294 0.72262 0.26493 0.0
C99 C 0.83615 0.70626 0.22904 0.0
C100 C 0.81723 0.71875 0.22653 0.0
C101 C 0.84898 0.70781 0.24847 0.0
C102 C 0.82419 0.73513 0.26235 0.0
C103 C 0.79057 0.7453 0.24161 0.0
O104 O 0.73874 0.77408 0.27442 0.0
O105 O 0.75483 0.80107 0.25485 0.0
O106 O 0.79328 0.76678 0.23848 0.0
O107 O 0.77598 0.74001 0.2571 0.0
H108 H 0.73717 0.79242 0.2161 0.0
H109 H 0.70552 0.79377 0.19095 0.0
H110 H 0.66162 0.79023 0.24749 0.0
H111 H 0.69324 0.78961 0.27245 0.0
H112 H 0.76449 0.83515 0.34836 0.0
H113 H 0.76585 0.81258 0.31489 0.0
H114 H 0.82685 0.80957 0.36965 0.0
H115 H 0.82784 0.78697 0.33653 0.0
H116 H 0.85266 0.72443 0.27993 0.0
H117 H 0.84035 0.6949 0.21615 0.0
H118 H 0.80725 0.71696 0.21171 0.0
H119 H 0.81973 0.74619 0.27543 0.0
C120 C 0.82149 0.14461 0.78237 0.0
C121 C 0.82609 0.15407 0.76131 0.0
C122 C 0.82923 0.11747 0.74585 0.0
C123 C 0.82978 0.14061 0.74318 0.0
C124 C 0.82528 0.10806 0.76708 0.0
C125 C 0.82134 0.12154 0.78517 0.0
U126 U 0.83022 0.19727 0.81532 0.0
O127 O 0.80632 0.21925 0.82978 0.0
O128 O 0.82983 0.20241 0.85149 0.0
C129 C 0.8124 0.2147 0.85028 0.0
C130 C 0.81634 0.15851 0.80137 0.0
C131 C 0.79447 0.20876 0.86589 0.0
C132 C 0.75823 0.19234 0.87374 0.0
C133 C 0.77584 0.19632 0.8591 0.0
C134 C 0.77809 0.21233 0.90236 0.0
C135 C 0.75909 0.20051 0.89544 0.0
C136 C 0.79559 0.21648 0.88766 0.0
C137 C 0.87193 0.24177 0.79735 0.0
C138 C 0.86945 0.28026 0.80755 0.0
C139 C 0.90476 0.26575 0.79774 0.0
C140 C 0.89465 0.24503 0.79416 0.0
C141 C 0.89228 0.28364 0.80449 0.0
C142 C 0.85942 0.25952 0.80418 0.0
C143 C 0.86154 0.21973 0.79414 0.0
O144 O 0.83202 0.16092 0.81627 0.0
O145 O 0.80652 0.17702 0.79643 0.0
O146 O 0.84081 0.21956 0.78786 0.0
O147 O 0.86553 0.20495 0.80982 0.0
H148 H 0.82656 0.17185 0.75878 0.0
H149 H 0.83306 0.14829 0.72706 0.0
H150 H 0.82465 0.09027 0.76955 0.0
H151 H 0.81788 0.11395 0.80131 0.0
H152 H 0.74388 0.18299 0.86806 0.0
H153 H 0.77473 0.19005 0.84239 0.0
H154 H 0.77912 0.21901 0.91891 0.0
H155 H 0.80984 0.22611 0.89317 0.0
H156 H 0.85923 0.29368 0.81236 0.0
H157 H 0.92241 0.26764 0.79554 0.0
H158 H 0.90461 0.23148 0.78908 0.0
H159 H 0.84186 0.25739 0.80694 0.0
C160 C 0.834 0.71509 0.78372 0.0
C161 C 0.85218 0.72443 0.77216 0.0
C162 C 0.87162 0.69002 0.77657 0.0
C163 C 0.87085 0.71205 0.76872 0.0
C164 C 0.8533 0.68078 0.78816 0.0
C165 C 0.83468 0.69323 0.79171 0.0
U166 U 0.7977 0.76217 0.76634 0.0
O167 O 0.76163 0.76359 0.76375 0.0
O168 O 0.77979 0.78591 0.78604 0.0
C169 C 0.76041 0.77842 0.77932 0.0
C170 C 0.81405 0.72777 0.78688 0.0
C171 C 0.74432 0.77328 0.79704 0.0
C172 C 0.73431 0.75531 0.83221 0.0
C173 C 0.74967 0.75964 0.81525 0.0
C174 C 0.70802 0.77793 0.81274 0.0
C175 C 0.7133 0.76446 0.8312 0.0
C176 C 0.72342 0.7823 0.79584 0.0
C177 C 0.81475 0.79949 0.71742 0.0
C178 C 0.78969 0.82517 0.70017 0.0
C179 C 0.82882 0.82874 0.69259 0.0
C180 C 0.83243 0.81044 0.70653 0.0
C181 C 0.8074 0.83636 0.68925 0.0
C182 C 0.79335 0.80699 0.71421 0.0
C183 C 0.81884 0.78062 0.73243 0.0
O184 O 0.81737 0.74818 0.79354 0.0
O185 O 0.79943 0.72608 0.77085 0.0
O186 O 0.80508 0.76354 0.73059 0.0
O187 O 0.82303 0.78573 0.75316 0.0
H188 H 0.8519 0.74128 0.76575 0.0
H189 H 0.88473 0.71981 0.76 0.0
H190 H 0.85315 0.66377 0.79412 0.0
H191 H 0.8207 0.68571 0.80049 0.0
H192 H 0.73904 0.7451 0.84629 0.0
H193 H 0.76577 0.75252 0.81642 0.0
H194 H 0.6919 0.78494 0.81122 0.0
H195 H 0.719 0.79278 0.78182 0.0
H196 H 0.77296 0.83035 0.69776 0.0
H197 H 0.84287 0.83713 0.68475 0.0
H198 H 0.84908 0.80496 0.70897 0.0
H199 H 0.77948 0.79879 0.72257 0.0
C200 C 0.67522 0.2792 0.26865 0.0
C201 C 0.67073 0.29876 0.25684 0.0
C202 C 0.64072 0.27977 0.23739 0.0
C203 C 0.65351 0.29908 0.24139 0.0
C204 C 0.64507 0.26035 0.24961 0.0
C205 C 0.66216 0.2601 0.26512 0.0
U206 U 0.73134 0.30058 0.28924 0.0
O207 O 0.74561 0.29928 0.32294 0.0
O208 O 0.76129 0.28224 0.29557 0.0
C209 C 0.76074 0.28548 0.31708 0.0
C210 C 0.69434 0.27787 0.28347 0.0
C211 C 0.76234 0.26533 0.3309 0.0
C212 C 0.75287 0.2265 0.33755 0.0
C213 C 0.74952 0.24635 0.32601 0.0
C214 C 0.781 0.24469 0.35989 0.0
C215 C 0.76894 0.22538 0.35432 0.0
C216 C 0.77778 0.26452 0.34816 0.0
C217 C 0.76118 0.3503 0.26412 0.0
C218 C 0.80067 0.35407 0.26966 0.0
C219 C 0.7816 0.38208 0.24849 0.0
C220 C 0.76162 0.37033 0.252 0.0
C221 C 0.80136 0.37374 0.25685 0.0
C222 C 0.78074 0.34251 0.27336 0.0
C223 C 0.74085 0.33658 0.26579 0.0
O224 O 0.71283 0.27335 0.2735 0.0
O225 O 0.69667 0.29352 0.29825 0.0
O226 O 0.73055 0.33685 0.28501 0.0
O227 O 0.74268 0.31656 0.2581 0.0
H228 H 0.68083 0.31361 0.2592 0.0
H229 H 0.6507 0.31421 0.23205 0.0
H230 H 0.63535 0.2453 0.24705 0.0
H231 H 0.66549 0.24484 0.27405 0.0
H232 H 0.74316 0.21191 0.33313 0.0
H233 H 0.73739 0.24672 0.31281 0.0
H234 H 0.79356 0.24425 0.37267 0.0
H235 H 0.7878 0.27904 0.35214 0.0
H236 H 0.81563 0.34744 0.27652 0.0
H237 H 0.78173 0.39718 0.23851 0.0
H238 H 0.74666 0.37653 0.24474 0.0
H239 H 0.78068 0.3271 0.28285 0.0
C240 C 0.26564 0.23792 0.71356 0.0
C241 C 0.28508 0.22603 0.71422 0.0
C242 C 0.2683 0.19763 0.69095 0.0
C243 C 0.28645 0.20619 0.70293 0.0
C244 C 0.24887 0.20971 0.69023 0.0
C245 C 0.24757 0.22968 0.70145 0.0
U246 U 0.28465 0.27254 0.76166 0.0
O247 O 0.29181 0.3083 0.76457 0.0
O248 O 0.26672 0.29173 0.78593 0.0
C249 C 0.27633 0.31059 0.77954 0.0
C250 C 0.26388 0.25832 0.72627 0.0
C251 C 0.26213 0.3298 0.77655 0.0
C252 C 0.22616 0.34635 0.7771 0.0
C253 C 0.23904 0.32758 0.77712 0.0
C254 C 0.25918 0.36978 0.77505 0.0
C255 C 0.2361 0.36769 0.77652 0.0
C256 C 0.27202 0.35105 0.77516 0.0
C257 C 0.32867 0.24995 0.7998 0.0
C258 C 0.34412 0.27203 0.82959 0.0
C259 C 0.35194 0.23309 0.82773 0.0
C260 C 0.33911 0.2314 0.80851 0.0
C261 C 0.35452 0.25341 0.83857 0.0
C262 C 0.33124 0.2703 0.81041 0.0
C263 C 0.31448 0.24775 0.78016 0.0
O264 O 0.25601 0.25546 0.7465 0.0
O265 O 0.28121 0.27191 0.72531 0.0
O266 O 0.31885 0.26183 0.76371 0.0
O267 O 0.29335 0.24539 0.78451 0.0
H268 H 0.2992 0.23203 0.72361 0.0
H269 H 0.30179 0.19758 0.70356 0.0
H270 H 0.23448 0.2035 0.68142 0.0
H271 H 0.23236 0.23854 0.70092 0.0
H272 H 0.20845 0.34412 0.77843 0.0
H273 H 0.23091 0.31141 0.77826 0.0
H274 H 0.26737 0.38593 0.77418 0.0
H275 H 0.28979 0.35319 0.77476 0.0
H276 H 0.34599 0.28799 0.83733 0.0
H277 H 0.35944 0.21837 0.83435 0.0
H278 H 0.33713 0.21554 0.80059 0.0
H279 H 0.3232 0.28479 0.80392 0.0
C280 C 0.22917 0.73532 0.28378 0.0
C281 C 0.23727 0.71774 0.27164 0.0
C282 C 0.20157 0.69837 0.27409 0.0
C283 C 0.22362 0.69938 0.26695 0.0
C284 C 0.19337 0.71628 0.28572 0.0
C285 C 0.2071 0.73456 0.29058 0.0
U286 U 0.27881 0.77351 0.2716 0.0
O287 O 0.28347 0.80951 0.27531 0.0
O288 O 0.30463 0.78672 0.29365 0.0
C289 C 0.29913 0.80734 0.29019 0.0
C290 C 0.24361 0.75436 0.28958 0.0
C291 C 0.29755 0.82089 0.31011 0.0
C292 C 0.28504 0.82667 0.34791 0.0
C293 C 0.28485 0.81399 0.32863 0.0
C294 C 0.31012 0.85339 0.33 0.0
C295 C 0.29802 0.84632 0.34891 0.0
C296 C 0.30989 0.84078 0.31084 0.0
C297 C 0.31308 0.76462 0.21969 0.0
C298 C 0.34785 0.78455 0.21286 0.0
C299 C 0.33131 0.76222 0.18395 0.0
C300 C 0.31374 0.75639 0.19812 0.0
C301 C 0.3486 0.77639 0.19113 0.0
C302 C 0.33022 0.77877 0.22699 0.0
C303 C 0.29434 0.75855 0.23427 0.0
O304 O 0.26378 0.7496 0.29547 0.0
O305 O 0.24278 0.77161 0.27603 0.0
O306 O 0.27883 0.77315 0.23502 0.0
O307 O 0.29944 0.75038 0.25394 0.0
H308 H 0.2542 0.71811 0.26598 0.0
H309 H 0.23032 0.68596 0.25772 0.0
H310 H 0.17651 0.7159 0.29157 0.0
H311 H 0.20054 0.74801 0.29989 0.0
H312 H 0.27559 0.82077 0.36221 0.0
H313 H 0.27518 0.79864 0.32832 0.0
H314 H 0.31992 0.86865 0.33004 0.0
H315 H 0.3197 0.84641 0.29666 0.0
H316 H 0.36099 0.79526 0.21906 0.0
H317 H 0.33114 0.7559 0.16724 0.0
H318 H 0.30057 0.74555 0.19218 0.0
H319 H 0.32996 0.78531 0.24362 0.0
H320 H 0.02207 0.38334 0.25793 0.0
H321 H 0.87965 0.59054 0.21149 0.0
H322 H 0.04505 0.50158 0.27751 0.0
H323 H 0.075 0.47584 0.28121 0.0
H324 H 0.09184 0.4875 0.21212 0.0
H325 H 0.06197 0.51373 0.20874 0.0
H326 H 1.00104 0.47593 0.27038 0.0
H327 H 1.00703 0.43611 0.2713 0.0
H328 H 0.03322 0.44096 0.2045 0.0
H329 H 0.02691 0.48071 0.20374 0.0
H330 H 0.95866 0.507 0.26755 0.0
H331 H 0.92731 0.48055 0.26721 0.0
H332 H 0.9458 0.46062 0.20143 0.0
H333 H 0.97696 0.48737 0.20178 0.0
H334 H 0.96565 0.55587 0.27005 0.0
H335 H 0.93091 0.57514 0.26839 0.0
H336 H 0.9241 0.55854 0.1991 0.0
H337 H 0.95908 0.53958 0.20092 0.0
H338 H 0.0121 0.57872 0.27276 0.0
H339 H 0.99227 0.61251 0.27859 0.0
H340 H 0.96981 0.61107 0.21035 0.0
H341 H 0.99138 0.5787 0.2043 0.0
H342 H 0.05345 0.54518 0.27635 0.0
H343 H 0.08665 0.56834 0.28182 0.0
H344 H 0.07789 0.59841 0.21688 0.0
H345 H 0.04498 0.57451 0.21112 0.0
O346 O 0.01953 0.39903 0.25709 0.0
O347 O 0.03289 0.40244 0.22275 0.0
O348 O 0.89756 0.59073 0.24836 0.0
O349 O 0.893 0.58229 0.21282 0.0
C350 C 0.0297 0.51972 0.23941 0.0
C351 C 1.01095 0.50548 0.23694 0.0
C352 C 0.98977 0.51425 0.23554 0.0
C353 C 0.98736 0.5373 0.23597 0.0
C354 C 1.0062 0.55175 0.23739 0.0
C355 C 0.02741 0.54293 0.23965 0.0
C356 C 0.05139 0.50955 0.24288 0.0
C357 C 0.05574 0.49923 0.26341 0.0
C358 C 0.07266 0.4843 0.26539 0.0
C359 C 0.08548 0.47928 0.24683 0.0
C360 C 0.08228 0.49105 0.22673 0.0
C361 C 0.0653 0.50611 0.22478 0.0
C362 C 0.01353 0.48114 0.237 0.0
C363 C 1.00788 0.4683 0.25591 0.0
C364 C 0.0114 0.44559 0.25641 0.0
C365 C 0.02067 0.43536 0.238 0.0
C366 C 0.02608 0.44831 0.21898 0.0
C367 C 0.0225 0.471 0.21848 0.0
C368 C 0.97005 0.49912 0.23468 0.0
C369 C 0.95572 0.49717 0.25293 0.0
C370 C 0.93784 0.48209 0.2527 0.0
C371 C 0.93415 0.46852 0.2343 0.0
C372 C 0.94837 0.47074 0.21591 0.0
C373 C 0.96611 0.48601 0.21605 0.0
C374 C 0.96494 0.54649 0.23556 0.0
C375 C 0.95652 0.55626 0.25458 0.0
C376 C 0.9367 0.56728 0.25358 0.0
C377 C 0.92482 0.56856 0.23355 0.0
C378 C 0.9329 0.55798 0.21475 0.0
C379 C 0.95279 0.54702 0.21576 0.0
C380 C 1.00274 0.57594 0.23825 0.0
C381 C 1.00396 0.58647 0.25875 0.0
C382 C 0.99211 0.60554 0.26216 0.0
C383 C 0.97842 0.61399 0.24529 0.0
C384 C 0.9799 0.60515 0.22389 0.0
C385 C 0.99231 0.58651 0.22033 0.0
C386 C 0.047 0.55781 0.24316 0.0
C387 C 0.05882 0.55653 0.26316 0.0
C388 C 0.07772 0.56982 0.26631 0.0
C389 C 0.0849 0.58501 0.2497 0.0
C390 C 0.07266 0.58683 0.22995 0.0
C391 C 0.05393 0.57321 0.22664 0.0
C392 C 0.02475 0.4113 0.23872 0.0
C393 C 0.9043 0.58116 0.23213 0.0
H394 H 0.09438 0.37419 0.8236 0.0
H395 H 0.88718 0.51195 0.7734 0.0
H396 H 0.08425 0.49569 0.8213 0.0
H397 H 0.12131 0.48101 0.82004 0.0
H398 H 0.11727 0.4788 0.74844 0.0
H399 H 0.08024 0.4937 0.74988 0.0
H400 H 0.0506 0.45866 0.8289 0.0
H401 H 0.0683 0.42305 0.83349 0.0
H402 H 0.07155 0.41748 0.76202 0.0
H403 H 0.05368 0.45301 0.75772 0.0
H404 H 1.00399 0.46651 0.83061 0.0
H405 H 0.98042 0.43358 0.83764 0.0
H406 H 0.97613 0.42306 0.76682 0.0
H407 H 1.00057 0.45544 0.7602 0.0
H408 H 0.98604 0.52009 0.82153 0.0
H409 H 0.94629 0.52535 0.82297 0.0
H410 H 0.93966 0.49887 0.75699 0.0
H411 H 0.97946 0.49392 0.75571 0.0
H412 H 0.02047 0.55672 0.8124 0.0
H413 H 0.99948 0.5904 0.80682 0.0
H414 H 0.98339 0.57021 0.7401 0.0
H415 H 1.00449 0.53685 0.7458 0.0
H416 H 0.07486 0.53879 0.81388 0.0
H417 H 0.10027 0.57056 0.80857 0.0
H418 H 0.077 0.57866 0.74104 0.0
H419 H 0.05246 0.54614 0.74626 0.0
O420 O 0.087 0.38801 0.82143 0.0
O421 O 0.0882 0.38592 0.78459 0.0
O422 O 0.90724 0.52367 0.80711 0.0
O423 O 0.90291 0.50998 0.77331 0.0
C424 C 0.0557 0.49924 0.78682 0.0
C425 C 0.04151 0.48053 0.79026 0.0
C426 C 0.01857 0.48292 0.79083 0.0
C427 C 1.0097 0.50396 0.78758 0.0
C428 C 0.02383 0.52268 0.78375 0.0
C429 C 0.04692 0.52042 0.78368 0.0
C430 C 0.07971 0.49593 0.78567 0.0
C431 C 0.09173 0.49282 0.80532 0.0
C432 C 0.11282 0.48436 0.80456 0.0
C433 C 0.12206 0.47862 0.78414 0.0
C434 C 0.11045 0.48294 0.76439 0.0
C435 C 0.08945 0.49166 0.76516 0.0
C436 C 0.05084 0.45829 0.793 0.0
C437 C 0.05495 0.44957 0.81429 0.0
C438 C 0.06514 0.4293 0.81684 0.0
C439 C 0.0714 0.41745 0.79812 0.0
C440 C 0.06695 0.42618 0.77679 0.0
C441 C 0.05671 0.44641 0.77428 0.0
C442 C 1.00385 0.4633 0.79493 0.0
C443 C 0.99793 0.45702 0.81668 0.0
C444 C 0.98434 0.43829 0.82061 0.0
C445 C 0.97628 0.42563 0.8028 0.0
C446 C 0.98228 0.43216 0.78097 0.0
C447 C 0.99606 0.45075 0.7771 0.0
C448 C 0.98553 0.50652 0.78858 0.0
C449 C 0.97593 0.5154 0.80744 0.0
C450 C 0.95325 0.51839 0.80821 0.0
C451 C 0.93978 0.51251 0.79009 0.0
C452 C 0.94953 0.50354 0.77123 0.0
C453 C 0.97223 0.50061 0.77048 0.0
C454 C 0.01403 0.54447 0.77946 0.0
C455 C 0.01277 0.55988 0.79646 0.0
C456 C 1.00064 0.57895 0.7933 0.0
C457 C 0.98973 0.58292 0.77304 0.0
C458 C 0.99181 0.56779 0.75579 0.0
C459 C 1.0038 0.54872 0.75901 0.0
C460 C 0.06188 0.54009 0.78044 0.0
C461 C 0.07538 0.54737 0.79791 0.0
C462 C 0.08971 0.5657 0.79489 0.0
C463 C 0.0907 0.57727 0.77436 0.0
C464 C 0.07693 0.57001 0.75696 0.0
C465 C 0.06273 0.55154 0.75995 0.0
C466 C 0.08268 0.39617 0.80087 0.0
C467 C 0.91569 0.51575 0.79077 0.0
H468 H 0.25861 0.99376 0.36375 0.0
H469 H 0.286 0.17236 0.54637 0.0
H470 H 0.23899 0.9839 0.47779 0.0
H471 H 0.24743 0.95061 0.45802 0.0
H472 H 0.30931 0.9474 0.49345 0.0
H473 H 0.30167 0.98211 0.51116 0.0
H474 H 0.23755 0.02815 0.4511 0.0
H475 H 0.24029 0.01588 0.41272 0.0
H476 H 0.30669 0.99531 0.42555 0.0
H477 H 0.30385 1.00799 0.46376 0.0
H478 H 0.23506 0.07485 0.47326 0.0
H479 H 0.23724 0.10214 0.44259 0.0
H480 H 0.30539 0.08681 0.43225 0.0
H481 H 0.30307 0.0597 0.46298 0.0
H482 H 0.23081 0.07988 0.5185 0.0
H483 H 0.23065 0.11834 0.53036 0.0
H484 H 0.30178 0.12166 0.52728 0.0
H485 H 0.30165 0.08316 0.51545 0.0
H486 H 0.23139 0.04941 0.55345 0.0
H487 H 0.23223 0.07078 0.58775 0.0
H488 H 0.30315 0.0686 0.58872 0.0
H489 H 0.30224 0.04801 0.55408 0.0
H490 H 0.23396 0.98942 0.53923 0.0
H491 H 0.23412 0.96516 0.57246 0.0
H492 H 0.30284 0.98253 0.58283 0.0
H493 H 0.30247 1.00663 0.54973 0.0
O494 O 0.25799 0.99878 0.3789 0.0
O495 O 0.29199 0.98831 0.38642 0.0
O496 O 0.24898 0.15514 0.54135 0.0
O497 O 0.28557 0.15735 0.54111 0.0
C498 C 0.26815 1.00953 0.50122 0.0
C499 C 0.26846 0.02568 0.48372 0.0
C500 C 0.26748 0.04838 0.48855 0.0
C501 C 0.26635 0.05501 0.51079 0.0
C502 C 0.2666 0.03909 0.52828 0.0
C503 C 0.26755 0.01633 0.52359 0.0
C504 C 0.26987 0.98577 0.49563 0.0
C505 C 0.25417 0.97572 0.48163 0.0
C506 C 0.25904 0.95649 0.47036 0.0
C507 C 0.27945 0.94646 0.47349 0.0
C508 C 0.29384 0.95507 0.4898 0.0
C509 C 0.28927 0.97472 0.50046 0.0
C510 C 0.27046 0.01889 0.46021 0.0
C511 C 0.25272 0.02115 0.44552 0.0
C512 C 0.25431 0.01405 0.42364 0.0
C513 C 0.27369 1.00454 0.41609 0.0
C514 C 0.29152 1.00253 0.43084 0.0
C515 C 0.28994 1.00973 0.45267 0.0
C516 C 0.26889 0.06531 0.47032 0.0
C517 C 0.25049 0.07756 0.46448 0.0
C518 C 0.25178 0.09314 0.44701 0.0
C519 C 0.27148 0.09657 0.43497 0.0
C520 C 0.28992 0.08435 0.44102 0.0
C521 C 0.28865 0.06892 0.45859 0.0
C522 C 0.26623 0.07886 0.51605 0.0
C523 C 0.2463 0.08905 0.52017 0.0
C524 C 0.24628 0.11098 0.52701 0.0
C525 C 0.26622 0.12306 0.52984 0.0
C526 C 0.28615 0.11283 0.5253 0.0
C527 C 0.28613 0.0909 0.51845 0.0
C528 C 0.26673 0.0469 0.55149 0.0
C529 C 0.24704 0.053 0.56145 0.0
C530 C 0.24755 0.06533 0.58086 0.0
C531 C 0.26775 0.07131 0.59077 0.0
C532 C 0.28736 0.06399 0.5815 0.0
C533 C 0.28686 0.05209 0.56185 0.0
C534 C 0.26814 0.99992 0.54222 0.0
C535 C 0.24908 0.98774 0.54857 0.0
C536 C 0.24923 0.97388 0.5675 0.0
C537 C 0.26844 0.97212 0.58042 0.0
C538 C 0.28767 0.98384 0.5735 0.0
C539 C 0.28752 0.99755 0.55456 0.0
C540 C 0.2752 0.99671 0.39294 0.0
C541 C 0.26631 0.14614 0.53774 0.0
H542 H 0.50329 0.79103 0.86746 0.0
H543 H 0.67007 0.75016 0.05373 0.0
H544 H 0.49311 0.81577 0.98119 0.0
H545 H 0.45807 0.81437 0.96153 0.0
H546 H 0.44063 0.75272 0.99573 0.0
H547 H 0.47646 0.75365 0.01424 0.0
H548 H 0.53728 0.80912 0.95644 0.0
H549 H 0.5264 0.80725 0.91735 0.0
H550 H 0.49202 0.74476 0.93097 0.0
H551 H 0.50329 0.74669 0.96995 0.0
H552 H 0.58316 0.80548 0.9825 0.0
H553 H 0.61195 0.79827 0.9554 0.0
H554 H 0.58207 0.73365 0.94412 0.0
H555 H 0.55395 0.74071 0.97189 0.0
H556 H 0.58271 0.81177 0.03427 0.0
H557 H 0.62058 0.80866 0.0475 0.0
H558 H 0.61841 0.73928 0.03147 0.0
H559 H 0.58042 0.74257 0.01859 0.0
H560 H 0.54033 0.81808 0.06123 0.0
H561 H 0.55903 0.82198 0.09708 0.0
H562 H 0.57259 0.75231 0.09763 0.0
H563 H 0.55395 0.74863 0.06177 0.0
H564 H 0.49053 0.81871 0.03541 0.0
H565 H 0.46225 0.82244 0.06393 0.0
H566 H 0.47676 0.75754 0.09031 0.0
H567 H 0.50435 0.75366 0.06123 0.0
O568 O 0.5076 0.79132 0.88295 0.0
O569 O 0.49011 0.75928 0.89084 0.0
O570 O 0.65534 0.78757 0.05658 0.0
O571 O 0.65521 0.75191 0.04831 0.0
C572 C 0.51081 0.78284 1.00616 0.0
C573 C 0.5272 0.77958 0.98987 0.0
C574 C 0.54944 0.77765 0.99621 0.0
C575 C 0.55538 0.77907 0.01881 0.0
C576 C 0.53903 0.78181 0.0352 0.0
C577 C 0.51669 0.78361 0.02893 0.0
C578 C 0.48749 0.78468 0.99894 0.0
C579 C 0.48151 0.80219 0.98476 0.0
C580 C 0.46135 0.80139 0.97359 0.0
C581 C 0.44653 0.78322 0.97669 0.0
C582 C 0.45183 0.76667 0.99245 0.0
C583 C 0.47218 0.76733 1.00335 0.0
C584 C 0.52104 0.77807 0.96601 0.0
C585 C 0.52753 0.79498 0.9509 0.0
C586 C 0.52122 0.7939 0.92861 0.0
C587 C 0.50829 0.77588 0.92104 0.0
C588 C 0.50196 0.75888 0.93625 0.0
C589 C 0.50834 0.75995 0.95851 0.0
C590 C 0.5665 0.7736 0.97919 0.0
C591 C 0.58292 0.78976 0.97419 0.0
C592 C 0.59923 0.78566 0.95857 0.0
C593 C 0.59936 0.76535 0.94758 0.0
C594 C 0.58269 0.74932 0.9525 0.0
C595 C 0.56648 0.75339 0.96821 0.0
C596 C 0.57884 0.7774 0.0255 0.0
C597 C 0.59047 0.79594 0.03358 0.0
C598 C 0.61209 0.79411 0.04113 0.0
C599 C 0.62251 0.77369 0.0406 0.0
C600 C 0.61088 0.75523 0.03214 0.0
C601 C 0.58922 0.75707 0.02468 0.0
C602 C 0.54586 0.78311 0.05888 0.0
C603 C 0.54679 0.80357 0.06942 0.0
C604 C 0.55755 0.80575 0.08986 0.0
C605 C 0.56757 0.7875 0.10004 0.0
C606 C 0.56541 0.76675 0.09002 0.0
C607 C 0.55457 0.76457 0.06967 0.0
C608 C 0.49952 0.78593 0.04624 0.0
C609 C 0.48747 0.80526 0.04728 0.0
C610 C 0.47146 0.80743 0.06372 0.0
C611 C 0.46724 0.79031 0.07949 0.0
C612 C 0.47935 0.77093 0.0783 0.0
C613 C 0.49528 0.76876 0.06181 0.0
C614 C 0.50142 0.77491 0.8974 0.0
C615 C 0.64534 0.77158 0.04898 0.0
H616 H 0.77118 0.01158 0.36896 0.0
H617 H 0.8595 0.15936 0.55117 0.0
H618 H 0.77061 0.98586 0.48351 0.0
H619 H 0.76669 0.95015 0.46514 0.0
H620 H 0.83256 0.93441 0.48569 0.0
H621 H 0.83657 0.97033 0.50352 0.0
H622 H 0.77224 0.03321 0.46327 0.0
H623 H 0.76585 0.02711 0.42368 0.0
H624 H 0.82859 0.99569 0.41932 0.0
H625 H 0.8349 1.00219 0.45886 0.0
H626 H 0.781 0.07514 0.49578 0.0
H627 H 0.77638 0.10519 0.46851 0.0
H628 H 0.83388 0.0846 0.43326 0.0
H629 H 0.83871 0.05483 0.46093 0.0
H630 H 0.78985 0.07228 0.54378 0.0
H631 H 0.79845 0.10924 0.55777 0.0
H632 H 0.86175 0.10911 0.52496 0.0
H633 H 0.85303 0.07201 0.51133 0.0
H634 H 0.78471 0.03109 0.56607 0.0
H635 H 0.79071 0.04076 0.60508 0.0
H636 H 0.86091 0.04417 0.59375 0.0
H637 H 0.85475 0.03486 0.55462 0.0
H638 H 0.77317 0.98643 0.53988 0.0
H639 H 0.76861 0.95798 0.56923 0.0
H640 H 0.83916 0.95788 0.57813 0.0
H641 H 0.84355 0.98635 0.54869 0.0
O642 O 0.7741 0.01393 0.38458 0.0
O643 O 0.80632 0.99759 0.3833 0.0
O644 O 0.823 0.14393 0.56254 0.0
O645 O 0.85568 0.14476 0.54586 0.0
C646 C 0.80752 1.00354 0.50309 0.0
C647 C 0.80783 0.0218 0.48798 0.0
C648 C 0.81162 0.04348 0.49582 0.0
C649 C 0.81585 0.04681 0.5186 0.0
C650 C 0.81549 0.02861 0.53365 0.0
C651 C 0.81101 1.00704 0.52597 0.0
C652 C 0.80393 0.98075 0.49474 0.0
C653 C 0.78411 0.97461 0.4842 0.0
C654 C 0.78192 0.95428 0.47368 0.0
C655 C 0.79936 0.93959 0.47391 0.0
C656 C 0.81879 0.94534 0.4854 0.0
C657 C 0.82109 0.96581 0.49563 0.0
C658 C 0.80404 0.01819 0.4639 0.0
C659 C 0.78463 0.02513 0.45369 0.0
C660 C 0.781 0.02157 0.4311 0.0
C661 C 0.79671 1.0109 0.41833 0.0
C662 C 0.81616 1.00395 0.42866 0.0
C663 C 0.81979 1.00761 0.45124 0.0
C664 C 0.81015 0.06278 0.4803 0.0
C665 C 0.79285 0.07739 0.48242 0.0
C666 C 0.79023 0.09452 0.46686 0.0
C667 C 0.80471 0.09712 0.44874 0.0
C668 C 0.82236 0.0828 0.44696 0.0
C669 C 0.82516 0.06586 0.46272 0.0
C670 C 0.82089 0.06943 0.5267 0.0
C671 C 0.80561 0.08022 0.53976 0.0
C672 C 0.81054 0.10135 0.54766 0.0
C673 C 0.83082 0.11212 0.54252 0.0
C674 C 0.84601 0.10129 0.52926 0.0
C675 C 0.84106 0.08013 0.52142 0.0
C676 C 0.81931 0.03235 0.55762 0.0
C677 C 0.80137 0.0337 0.57211 0.0
C678 C 0.80481 0.0393 0.59426 0.0
C679 C 0.82626 0.04324 0.60232 0.0
C680 C 0.84424 0.04106 0.58795 0.0
C681 C 0.84076 0.03581 0.56568 0.0
C682 C 0.80867 0.98838 0.54221 0.0
C683 C 0.78763 0.98004 0.548 0.0
C684 C 0.78506 0.96395 0.56483 0.0
C685 C 0.80353 0.95583 0.57602 0.0
C686 C 0.82466 0.96373 0.56967 0.0
C687 C 0.8272 0.97999 0.55296 0.0
C688 C 0.79275 1.00703 0.39436 0.0
C689 C 0.83618 0.13455 0.55094 0.0
H690 H 0.53211 0.23073 0.86612 0.0
H691 H 0.65502 0.21245 0.10062 0.0
H692 H 0.49675 0.27441 0.99432 0.0
H693 H 0.46454 0.27984 0.97064 0.0
H694 H 0.4619 0.21006 0.95659 0.0
H695 H 0.49408 0.20476 0.98044 0.0
H696 H 0.53274 0.26086 0.95784 0.0
H697 H 0.53167 0.25473 0.91779 0.0
H698 H 0.54187 0.18511 0.92989 0.0
H699 H 0.54264 0.19144 0.96994 0.0
H700 H 0.58219 0.25151 0.97252 0.0
H701 H 0.61753 0.2415 0.95657 0.0
H702 H 0.61442 0.17984 0.99406 0.0
H703 H 0.57894 0.18982 1.00966 0.0
H704 H 0.59217 0.26319 0.02553 0.0
H705 H 0.62625 0.26219 0.04724 0.0
H706 H 0.60443 0.19961 0.07696 0.0
H707 H 0.57054 0.20078 0.05505 0.0
H708 H 0.54923 0.28031 0.05187 0.0
H709 H 0.55804 0.29061 0.09006 0.0
H710 H 0.54189 0.22382 0.11255 0.0
H711 H 0.53258 0.21377 0.0742 0.0
H712 H 0.50587 0.2789 0.04406 0.0
H713 H 0.4718 0.28475 0.06468 0.0
H714 H 0.45042 0.21731 0.05253 0.0
H715 H 0.48467 0.21145 0.03241 0.0
O716 O 0.53267 0.23278 0.88202 0.0
O717 O 0.53824 0.19718 0.88909 0.0
O718 O 0.65243 0.24521 0.07568 0.0
O719 O 0.64182 0.21315 0.09163 0.0
C720 C 0.51837 0.23643 1.002 0.0
C721 C 0.53787 0.23037 0.99109 0.0
C722 C 0.55757 0.2282 1.00332 0.0
C723 C 0.558 0.2331 0.02614 0.0
C724 C 0.53869 0.2396 0.03691 0.0
C725 C 0.5187 0.24063 0.02505 0.0
C726 C 0.49779 0.23921 0.98904 0.0
C727 C 0.489 0.26025 0.98639 0.0
C728 C 0.47062 0.26331 0.97288 0.0
C729 C 0.46076 0.24539 0.96168 0.0
C730 C 0.46932 0.22423 0.96477 0.0
C731 C 0.48762 0.22115 0.97843 0.0
C732 C 0.53773 0.22659 0.96677 0.0
C733 C 0.5347 0.24429 0.9518 0.0
C734 C 0.53413 0.24075 0.92893 0.0
C735 C 0.53666 0.21942 0.92063 0.0
C736 C 0.53985 0.20174 0.93572 0.0
C737 C 0.54036 0.20531 0.95859 0.0
C738 C 0.57805 0.22141 0.99227 0.0
C739 C 0.58899 0.23569 0.97699 0.0
C740 C 0.60912 0.22995 0.9679 0.0
C741 C 0.61874 0.20993 0.97417 0.0
C742 C 0.60749 0.19547 0.98913 0.0
C743 C 0.58725 0.20111 0.998 0.0
C744 C 0.57893 0.23209 0.0388 0.0
C745 C 0.59487 0.24925 0.03667 0.0
C746 C 0.61427 0.24865 0.04911 0.0
C747 C 0.61804 0.23084 0.06389 0.0
C748 C 0.60205 0.21358 0.06579 0.0
C749 C 0.58268 0.21421 0.05332 0.0
C750 C 0.54009 0.24638 0.06038 0.0
C751 C 0.54694 0.2681 0.06516 0.0
C752 C 0.55197 0.27393 0.08693 0.0
C753 C 0.55065 0.25799 0.1042 0.0
C754 C 0.54306 0.23639 0.09949 0.0
C755 C 0.53763 0.23067 0.07771 0.0
C756 C 0.49788 0.24466 0.03699 0.0
C757 C 0.49393 0.26534 0.04607 0.0
C758 C 0.47447 0.26867 0.05775 0.0
C759 C 0.45849 0.25147 0.0602 0.0
C760 C 0.46235 0.23092 0.05072 0.0
C761 C 0.4819 0.22753 0.03931 0.0
C762 C 0.53593 0.2157 0.89633 0.0
C763 C 0.63849 0.23024 0.07736 0.0
H764 H 0.1944 0.4117 0.22457 0.0
H765 H 0.16192 0.35606 0.25918 0.0
H766 H 0.12955 0.3786 0.2655 0.0
H767 H 0.17405 0.45428 0.2591 0.0
H768 H 0.17038 0.47376 0.23645 0.0
H769 H 0.19124 0.45338 0.23475 0.0
H770 H 0.17443 0.43961 0.19775 0.0
H771 H 0.15353 0.45996 0.19932 0.0
H772 H 0.14573 0.43113 0.19679 0.0
H773 H 0.10063 0.4067 0.2678 0.0
H774 H 0.07672 0.43877 0.26594 0.0
H775 H 0.1275 0.47651 0.22967 0.0
C776 C 0.18043 0.4042 0.23334 0.0
C777 C 0.18082 0.3821 0.24151 0.0
C778 C 0.16224 0.37304 0.25311 0.0
C779 C 0.14369 0.38566 0.25666 0.0
C780 C 0.14389 0.40734 0.24846 0.0
C781 C 0.16172 0.41657 0.23702 0.0
C782 C 0.15758 0.44028 0.2299 0.0
C783 C 0.17431 0.45637 0.2407 0.0
C784 C 0.15783 0.44289 0.20443 0.0
C785 C 0.13464 0.4429 0.23917 0.0
C786 C 0.12711 0.42367 0.24981 0.0
C787 C 0.1064 0.4219 0.25965 0.0
C788 C 0.09301 0.44029 0.25866 0.0
C789 C 0.10036 0.46028 0.24797 0.0
C790 C 0.12144 0.46148 0.23798 0.0
H791 H 0.16249 0.68362 0.81049 0.0
H792 H 0.19215 0.68426 0.74486 0.0
H793 H 0.16768 0.6528 0.73442 0.0
H794 H 0.15765 0.62528 0.81722 0.0
H795 H 0.13159 0.62534 0.83149 0.0
H796 H 0.15048 0.64876 0.83338 0.0
H797 H 0.12024 0.67465 0.81891 0.0
H798 H 0.10122 0.6513 0.81705 0.0
H799 H 0.10665 0.66879 0.79295 0.0
H800 H 0.14154 0.61985 0.73188 0.0
H801 H 0.1151 0.5884 0.73713 0.0
H802 H 0.10196 0.60972 0.80419 0.0
C803 C 0.16382 0.67718 0.7939 0.0
C804 C 0.17922 0.68647 0.77847 0.0
C805 C 0.18028 0.67765 0.75686 0.0
C806 C 0.16652 0.6597 0.75082 0.0
C807 C 0.15171 0.6508 0.76651 0.0
C808 C 0.15018 0.65932 0.78757 0.0
C809 C 0.13321 0.64642 0.80147 0.0
C810 C 0.14388 0.63582 0.82211 0.0
C811 C 0.11421 0.66117 0.80797 0.0
C812 C 0.1257 0.6291 0.78506 0.0
C813 C 0.13651 0.63196 0.76497 0.0
C814 C 0.13277 0.61761 0.74746 0.0
C815 C 0.11761 0.59984 0.75057 0.0
C816 C 0.10629 0.59656 0.77104 0.0
C817 C 0.11042 0.61156 0.7884 0.0
H818 H 0.88219 0.69841 0.21918 0.0
H819 H 0.85862 0.68447 0.28624 0.0
H820 H 0.89019 0.66069 0.29318 0.0
H821 H 0.90143 0.64379 0.20896 0.0
H822 H 0.92524 0.65354 0.19335 0.0
H823 H 0.90088 0.66971 0.19368 0.0
H824 H 0.92409 0.70336 0.20767 0.0
H825 H 0.94847 0.68719 0.20752 0.0
H826 H 0.94028 0.70047 0.23262 0.0
H827 H 0.92293 0.63715 0.29241 0.0
H828 H 0.9551 0.61535 0.28426 0.0
H829 H 0.95944 0.64613 0.21838 0.0
C830 C 0.88368 0.69029 0.23528 0.0
C831 C 0.86802 0.6934 0.25223 0.0
C832 C 0.87059 0.68259 0.27313 0.0
C833 C 0.88841 0.66898 0.27721 0.0
C834 C 0.90363 0.66641 0.26026 0.0
C835 C 0.90153 0.67675 0.23972 0.0
C836 C 0.92023 0.67098 0.2244 0.0
C837 C 0.91141 0.65878 0.20389 0.0
C838 C 0.93409 0.69174 0.21766 0.0
C839 C 0.93305 0.65573 0.23954 0.0
C840 C 0.9231 0.6533 0.26009 0.0
C841 C 0.93114 0.63923 0.27651 0.0
C842 C 0.94972 0.62709 0.27176 0.0
C843 C 0.96037 0.62919 0.25077 0.0
C844 C 0.95191 0.64402 0.2346 0.0
H845 H 0.92616 0.30434 0.78085 0.0
H846 H 0.88261 0.31308 0.837 0.0
H847 H 0.89919 0.35025 0.84256 0.0
H848 H 0.97402 0.33172 0.80558 0.0
H849 H 0.98339 0.34385 0.77953 0.0
H850 H 0.96796 0.31793 0.77991 0.0
H851 H 0.93961 0.33453 0.75259 0.0
H852 H 0.95487 0.36053 0.75224 0.0
H853 H 0.92613 0.35953 0.7597 0.0
H854 H 0.91971 0.38695 0.84132 0.0
H855 H 0.94368 0.41998 0.83425 0.0
H856 H 0.97559 0.38621 0.78063 0.0
C857 C 0.92027 0.31389 0.79452 0.0
C858 C 0.90291 0.30574 0.80836 0.0
C859 C 0.89555 0.31904 0.82585 0.0
C860 C 0.90498 0.34015 0.82927 0.0
C861 C 0.92191 0.34769 0.81521 0.0
C862 C 0.92962 0.33491 0.7983 0.0
C863 C 0.94809 0.34687 0.78561 0.0
C864 C 0.96964 0.33435 0.7878 0.0
C865 C 0.94179 0.35058 0.76109 0.0
C866 C 0.94941 0.36845 0.79791 0.0
C867 C 0.93414 0.36861 0.81488 0.0
C868 C 0.93191 0.38693 0.82823 0.0
C869 C 0.94572 0.40558 0.82416 0.0
C870 C 0.96168 0.40575 0.80696 0.0
C871 C 0.96346 0.38681 0.79375 0.0
H872 H 0.25163 0.21046 0.36933 0.0
H873 H 0.28433 0.18244 0.31277 0.0
H874 H 0.29023 0.14827 0.33464 0.0
H875 H 0.28587 0.18686 0.41179 0.0
H876 H 0.2635 0.18162 0.43104 0.0
H877 H 0.26226 0.20416 0.41111 0.0
H878 H 0.22498 0.18831 0.39652 0.0
H879 H 0.22611 0.16572 0.4164 0.0
H880 H 0.2231 0.16018 0.38722 0.0
H881 H 0.2924 0.11701 0.36247 0.0
H882 H 0.29022 0.09061 0.3943 0.0
H883 H 0.25545 0.13854 0.43251 0.0
C884 C 0.25991 0.1971 0.36146 0.0
C885 C 0.26764 0.19927 0.33932 0.0
C886 C 0.27861 0.18142 0.32981 0.0
C887 C 0.28192 0.16185 0.34205 0.0
C888 C 0.2741 0.1603 0.36379 0.0
C889 C 0.26328 0.17741 0.37342 0.0
C890 C 0.25633 0.17139 0.39702 0.0
C891 C 0.26767 0.18693 0.41372 0.0
C892 C 0.23113 0.1714 0.39942 0.0
C893 C 0.26485 0.1482 0.3991 0.0
C894 C 0.27513 0.14216 0.37977 0.0
C895 C 0.28443 0.12156 0.37772 0.0
C896 C 0.28322 0.10673 0.39591 0.0
C897 C 0.27271 0.11253 0.41589 0.0
C898 C 0.2634 0.13356 0.4174 0.0
H899 H 0.35358 0.8236 0.89236 0.0
H900 H 0.34382 0.7549 0.8742 0.0
H901 H 0.36982 0.74382 0.90351 0.0
H902 H 0.4109 0.82139 0.90182 0.0
H903 H 0.41118 0.8397 0.92509 0.0
H904 H 0.3904 0.84214 0.90394 0.0
H905 H 0.35992 0.83746 0.93393 0.0
H906 H 0.38064 0.83499 0.95519 0.0
H907 H 0.3596 0.81357 0.95232 0.0
H908 H 0.39901 0.7404 0.93256 0.0
H909 H 0.42928 0.74478 0.95939 0.0
H910 H 0.41963 0.81562 0.95974 0.0
C911 C 0.35683 0.80621 0.8946 0.0
C912 C 0.34649 0.79012 0.88102 0.0
C913 C 0.35116 0.76752 0.88462 0.0
C914 C 0.36601 0.76105 0.90117 0.0
C915 C 0.37602 0.77734 0.91412 0.0
C916 C 0.37158 0.79944 0.91111 0.0
C917 C 0.38526 0.81369 0.9267 0.0
C918 C 0.40033 0.8302 0.9136 0.0
C919 C 0.37047 0.82563 0.943 0.0
C920 C 0.39844 0.79617 0.93857 0.0
C921 C 0.39273 0.77532 0.93115 0.0
C922 C 0.40337 0.75661 0.9388 0.0
C923 C 0.42047 0.75928 0.95425 0.0
C924 C 0.42683 0.78053 0.96204 0.0
C925 C 0.41533 0.79914 0.95419 0.0
H926 H 0.78358 0.86731 0.36537 0.0
H927 H 0.80652 0.81135 0.40416 0.0
H928 H 0.80828 0.83436 0.43753 0.0
H929 H 0.81724 0.90809 0.39063 0.0
H930 H 0.79683 0.92905 0.39021 0.0
H931 H 0.79608 0.90788 0.36962 0.0
H932 H 0.75589 0.89709 0.38072 0.0
H933 H 0.75652 0.91831 0.40132 0.0
H934 H 0.74956 0.89008 0.40931 0.0
H935 H 0.80992 0.86398 0.46609 0.0
H936 H 0.81038 0.89812 0.48804 0.0
H937 H 0.7855 0.9345 0.431 0.0
C938 C 0.78855 0.85977 0.38097 0.0
C939 C 0.79498 0.83753 0.38211 0.0
C940 C 0.8018 0.82843 0.40279 0.0
C941 C 0.80271 0.84131 0.42189 0.0
C942 C 0.79661 0.86325 0.4201 0.0
C943 C 0.78953 0.8724 0.40022 0.0
C944 C 0.78467 0.89663 0.40264 0.0
C945 C 0.7996 0.91127 0.38737 0.0
C946 C 0.7602 0.90076 0.39824 0.0
C947 C 0.79042 0.89973 0.4269 0.0
C948 C 0.79723 0.88027 0.43668 0.0
C949 C 0.80439 0.87927 0.45868 0.0
C950 C 0.80469 0.89872 0.47098 0.0
C951 C 0.79779 0.91884 0.46126 0.0
C952 C 0.79042 0.91923 0.43899 0.0
H953 H 0.71592 0.2074 0.88547 0.0
H954 H 0.75898 0.18804 0.93948 0.0
H955 H 0.72714 0.18605 0.96513 0.0
H956 H 0.68353 0.24247 0.91633 0.0
H957 H 0.65801 0.23528 0.90259 0.0
H958 H 0.6837 0.23311 0.88807 0.0
H959 H 0.67437 0.19192 0.88019 0.0
H960 H 0.64855 0.19399 0.89459 0.0
H961 H 0.66758 0.17317 0.903 0.0
H962 H 0.69098 0.18797 0.98515 0.0
H963 H 0.65338 0.19485 0.99842 0.0
H964 H 0.63413 0.2135 0.93136 0.0
C965 C 0.71856 0.20226 0.90258 0.0
C966 C 0.73986 0.19771 0.91049 0.0
C967 C 0.74277 0.19163 0.93313 0.0
C968 C 0.7248 0.19035 0.94776 0.0
C969 C 0.70405 0.19523 0.93948 0.0
C970 C 0.70084 0.20106 0.91742 0.0
C971 C 0.67715 0.2068 0.913 0.0
C972 C 0.67552 0.23084 0.9045 0.0
C973 C 0.66627 0.19049 0.89673 0.0
C974 C 0.66762 0.20376 0.93612 0.0
C975 C 0.68332 0.19677 0.9511 0.0
C976 C 0.6785 0.19326 0.97355 0.0
C977 C 0.65711 0.19712 0.98091 0.0
C978 C 0.64088 0.20464 0.9659 0.0
C979 C 0.64624 0.20785 0.94321 0.0
H980 H 0.24194 0.86742 0.66052 0.0
H981 H 0.2757 0.90319 0.71303 0.0
H982 H 0.28304 0.93458 0.68701 0.0
H983 H 0.27723 0.88582 0.6159 0.0
H984 H 0.25527 0.88817 0.59593 0.0
H985 H 0.2527 0.86842 0.61865 0.0
H986 H 0.21616 0.88565 0.63055 0.0
H987 H 0.2186 0.90544 0.60785 0.0
H988 H 0.21568 0.91484 0.6359 0.0
H989 H 0.28692 0.96201 0.6553 0.0
H990 H 0.28668 0.9838 0.6202 0.0
H991 H 0.24979 0.93058 0.58841 0.0
C992 C 0.25067 0.88192 0.66666 0.0
C993 C 0.25831 0.88273 0.68888 0.0
C994 C 0.26998 0.90196 0.69604 0.0
C995 C 0.27411 0.91996 0.68141 0.0
C996 C 0.26639 0.91856 0.65967 0.0
C997 C 0.25487 0.90008 0.65231 0.0
C998 C 0.2484 0.9028 0.62809 0.0
C999 C 0.25904 0.88526 0.6138 0.0
C1000 C 0.22321 0.90215 0.62545 0.0
C1001 C 0.25814 0.9257 0.62296 0.0
C1002 C 0.26847 0.93447 0.64141 0.0
C1003 C 0.2789 0.9553 0.64074 0.0
C1004 C 0.27879 0.96749 0.62068 0.0
C1005 C 0.26832 0.95887 0.60151 0.0
C1006 C 0.25778 0.9377 0.6028 0.0
H1007 H 0.67396 0.77279 0.17658 0.0
H1008 H 0.64419 0.81644 0.22357 0.0
H1009 H 0.61172 0.81927 0.19924 0.0
H1010 H 0.65515 0.80131 0.12702 0.0
H1011 H 0.65045 0.77627 0.11177 0.0
H1012 H 0.67131 0.77745 0.13302 0.0
H1013 H 0.65298 0.74318 0.15284 0.0
H1014 H 0.632 0.74199 0.13169 0.0
H1015 H 0.62433 0.74368 0.16053 0.0
H1016 H 0.58246 0.81762 0.16975 0.0
H1017 H 0.55871 0.81176 0.13687 0.0
H1018 H 0.60786 0.77001 0.10869 0.0
C1019 C 0.66071 0.78308 0.18169 0.0
C1020 C 0.66162 0.79424 0.20214 0.0
C1021 C 0.64375 0.80737 0.20823 0.0
C1022 C 0.62527 0.80922 0.19445 0.0
C1023 C 0.62485 0.7979 0.17454 0.0
C1024 C 0.64211 0.78515 0.1681 0.0
C1025 C 0.63754 0.77478 0.14578 0.0
C1026 C 0.65463 0.78295 0.12837 0.0
C1027 C 0.63666 0.7494 0.14785 0.0
C1028 C 0.61502 0.78368 0.14072 0.0
C1029 C 0.60799 0.79699 0.15751 0.0
C1030 C 0.58779 0.80724 0.15648 0.0
C1031 C 0.57445 0.80388 0.13772 0.0
C1032 C 0.58135 0.79035 0.12026 0.0
C1033 C 0.60192 0.78013 0.12192 0.0
H1034 H 0.80895 0.12105 0.70552 0.0
H1035 H 0.85555 0.08174 0.74234 0.0
H1036 H 0.86004 0.05814 0.70957 0.0
H1037 H 0.78248 0.07598 0.67717 0.0
H1038 H 0.77868 0.09162 0.65172 0.0
H1039 H 0.77957 0.10551 0.67791 0.0
H1040 H 0.81131 0.13149 0.66326 0.0
H1041 H 0.81048 0.11772 0.637 0.0
H1042 H 0.83588 0.11972 0.65243 0.0
H1043 H 0.86009 0.03961 0.6721 0.0
H1044 H 0.85416 0.02646 0.63371 0.0
H1045 H 0.80654 0.07731 0.62242 0.0
C1046 C 0.82023 0.10757 0.70662 0.0
C1047 C 0.83204 0.10326 0.72636 0.0
C1048 C 0.84632 0.08523 0.72735 0.0
C1049 C 0.84902 0.07183 0.70883 0.0
C1050 C 0.83714 0.07658 0.68957 0.0
C1051 C 0.82292 0.09394 0.68843 0.0
C1052 C 0.81171 0.09534 0.66602 0.0
C1053 C 0.78662 0.0919 0.66836 0.0
C1054 C 0.81771 0.11737 0.65397 0.0
C1055 C 0.82186 0.07608 0.65467 0.0
C1056 C 0.83663 0.06554 0.66842 0.0
C1057 C 0.84846 0.04764 0.66125 0.0
C1058 C 0.84505 0.04033 0.63947 0.0
C1059 C 0.82976 0.05076 0.62532 0.0
C1060 C 0.81806 0.06883 0.63308 0.0
H1061 H 0.38752 0.28163 0.16622 0.0
H1062 H 0.33008 0.25501 0.1318 0.0
H1063 H 0.35286 0.24907 0.09861 0.0
H1064 H 0.41319 0.30951 0.11776 0.0
H1065 H 0.44066 0.30296 0.12641 0.0
H1066 H 0.41953 0.3065 0.14691 0.0
H1067 H 0.42684 0.26758 0.16355 0.0
H1068 H 0.44794 0.26392 0.1431 0.0
H1069 H 0.42539 0.24396 0.14576 0.0
H1070 H 0.38237 0.24337 0.07026 0.0
H1071 H 0.41636 0.23966 0.04826 0.0
H1072 H 0.45449 0.27021 0.10102 0.0
C1073 C 0.37972 0.27468 0.15164 0.0
C1074 C 0.357 0.26886 0.15156 0.0
C1075 C 0.34738 0.25991 0.13213 0.0
C1076 C 0.3602 0.25637 0.11323 0.0
C1077 C 0.38259 0.26203 0.11397 0.0
C1078 C 0.39224 0.27116 0.13261 0.0
C1079 C 0.41677 0.2752 0.12932 0.0
C1080 C 0.42289 0.30002 0.13015 0.0
C1081 C 0.43 0.26187 0.14644 0.0
C1082 C 0.41947 0.26649 0.1061 0.0
C1083 C 0.39955 0.25902 0.09752 0.0
C1084 C 0.39803 0.24936 0.07672 0.0
C1085 C 0.41741 0.24722 0.0644 0.0
C1086 C 0.43799 0.25475 0.0729 0.0
C1087 C 0.43893 0.26466 0.09395 0.0
H1088 H 0.89077 0.65976 0.80475 0.0
H1089 H 0.89683 0.68967 0.73872 0.0
H1090 H 0.92914 0.66723 0.73154 0.0
H1091 H 0.94891 0.65523 0.81595 0.0
H1092 H 0.94563 0.62873 0.82998 0.0
H1093 H 0.92366 0.64801 0.83046 0.0
H1094 H 0.8968 0.61837 0.81418 0.0
H1095 H 0.91865 0.59899 0.81379 0.0
H1096 H 0.90379 0.60523 0.78862 0.0
H1097 H 0.95991 0.64048 0.73093 0.0
H1098 H 0.98646 0.61081 0.73679 0.0
H1099 H 0.95957 0.59764 0.8027 0.0
C1100 C 0.89881 0.66158 0.78874 0.0
C1101 C 0.89128 0.67664 0.77237 0.0
C1102 C 0.90249 0.67859 0.75172 0.0
C1103 C 0.92081 0.66583 0.74742 0.0
C1104 C 0.92774 0.65114 0.76391 0.0
C1105 C 0.91706 0.64891 0.78413 0.0
C1106 C 0.92735 0.63137 0.79873 0.0
C1107 C 0.93696 0.64145 0.82004 0.0
C1108 C 0.91065 0.61237 0.80414 0.0
C1109 C 0.94538 0.62397 0.78349 0.0
C1110 C 0.94539 0.63564 0.76351 0.0
C1111 C 0.96012 0.63128 0.74654 0.0
C1112 C 0.97506 0.61436 0.74998 0.0
C1113 C 0.97515 0.60199 0.77022 0.0
C1114 C 0.96021 0.60709 0.78722 0.0
H1115 H 0.81349 0.41771 0.2604 0.0
H1116 H 0.83762 0.35434 0.24065 0.0
H1117 H 0.87377 0.37199 0.23152 0.0
H1118 H 0.84268 0.45136 0.21851 0.0
H1119 H 0.84859 0.47381 0.23704 0.0
H1120 H 0.82427 0.45641 0.2412 0.0
H1121 H 0.83656 0.44769 0.28159 0.0
H1122 H 0.86091 0.46505 0.27756 0.0
H1123 H 0.86337 0.43664 0.28651 0.0
H1124 H 0.90721 0.39623 0.22476 0.0
H1125 H 0.93658 0.42535 0.22256 0.0
H1126 H 0.89124 0.47299 0.24742 0.0
C1127 C 0.82637 0.40765 0.25397 0.0
C1128 C 0.82284 0.38468 0.25122 0.0
C1129 C 0.8401 0.37193 0.24305 0.0
C1130 C 0.86062 0.38182 0.2377 0.0
C1131 C 0.86364 0.40446 0.24073 0.0
C1132 C 0.84707 0.41723 0.24878 0.0
C1133 C 0.85498 0.44106 0.25127 0.0
C1134 C 0.84185 0.45657 0.2361 0.0
C1135 C 0.85389 0.44801 0.27568 0.0
C1136 C 0.87858 0.43963 0.24344 0.0
C1137 C 0.88315 0.4184 0.23725 0.0
C1138 C 0.90383 0.41294 0.2295 0.0
C1139 C 0.92036 0.42959 0.22819 0.0
C1140 C 0.91615 0.4514 0.23476 0.0
C1141 C 0.89494 0.45643 0.24241 0.0
H1142 H 0.19576 0.37584 0.75754 0.0
H1143 H 0.24567 0.40452 0.80091 0.0
H1144 H 0.22297 0.43711 0.80573 0.0
H1145 H 0.17927 0.42713 0.73103 0.0
H1146 H 0.15052 0.41891 0.7303 0.0
H1147 H 0.17121 0.39829 0.72921 0.0
H1148 H 0.15363 0.37794 0.7635 0.0
H1149 H 0.13286 0.39844 0.76456 0.0
H1150 H 0.14957 0.39295 0.78867 0.0
H1151 H 0.19391 0.46561 0.80771 0.0
H1152 H 0.16058 0.48807 0.80621 0.0
H1153 H 0.12965 0.44078 0.76183 0.0
C1154 C 0.20195 0.38897 0.76803 0.0
C1155 C 0.22263 0.38764 0.77868 0.0
C1156 C 0.23011 0.4053 0.79219 0.0
C1157 C 0.21727 0.42385 0.79515 0.0
C1158 C 0.19697 0.42456 0.7845 0.0
C1159 C 0.18934 0.40761 0.77118 0.0
C1160 C 0.16661 0.41217 0.76217 0.0
C1161 C 0.16693 0.41425 0.73666 0.0
C1162 C 0.14968 0.39431 0.77021 0.0
C1163 C 0.1626 0.43421 0.77267 0.0
C1164 C 0.1803 0.44109 0.78547 0.0
C1165 C 0.18002 0.4605 0.79756 0.0
C1166 C 0.16105 0.47311 0.79667 0.0
C1167 C 0.14271 0.46629 0.78369 0.0
C1168 C 0.14364 0.44667 0.77144 0.0
H1169 H 0.15869 0.69626 0.25928 0.0
H1170 H 0.21247 0.65525 0.28027 0.0
H1171 H 0.18886 0.62179 0.27502 0.0
H1172 H 0.11558 0.66424 0.28573 0.0
H1173 H 0.09596 0.66808 0.26362 0.0
H1174 H 0.11731 0.6888 0.26827 0.0
H1175 H 0.13011 0.68584 0.2274 0.0
H1176 H 0.10879 0.66509 0.22262 0.0
H1177 H 0.13711 0.65927 0.2169 0.0
H1178 H 0.15893 0.593 0.26961 0.0
H1179 H 0.12496 0.57057 0.26281 0.0
H1180 H 0.09077 0.63 0.2443 0.0
C1181 C 0.16548 0.68023 0.26274 0.0
C1182 C 0.18744 0.67834 0.27015 0.0
C1183 C 0.19579 0.65706 0.27433 0.0
C1184 C 0.18248 0.63798 0.27149 0.0
C1185 C 0.16089 0.64042 0.26427 0.0
C1186 C 0.15247 0.66097 0.25978 0.0
C1187 C 0.12865 0.65896 0.25234 0.0
C1188 C 0.11348 0.67071 0.26845 0.0
C1189 C 0.12602 0.66782 0.22839 0.0
C1190 C 0.12492 0.63409 0.25369 0.0
C1191 C 0.14374 0.62373 0.26064 0.0
C1192 C 0.14415 0.6009 0.26398 0.0
C1193 C 0.12479 0.58832 0.26018 0.0
C1194 C 0.10534 0.59857 0.25297 0.0
C1195 C 0.10551 0.62174 0.24952 0.0
H1196 H 0.82778 0.84799 0.64962 0.0
H1197 H 0.7784 0.86943 0.69595 0.0
H1198 H 0.77163 0.9018 0.67168 0.0
H1199 H 0.85043 0.90246 0.63641 0.0
H1200 H 0.8553 0.89649 0.60764 0.0
H1201 H 0.85586 0.87462 0.62836 0.0
H1202 H 0.82626 0.85231 0.6064 0.0
H1203 H 0.82557 0.87413 0.58564 0.0
H1204 H 0.80057 0.86487 0.59951 0.0
H1205 H 0.77007 0.93176 0.64242 0.0
H1206 H 0.77472 0.95795 0.61061 0.0
H1207 H 0.82599 0.9178 0.584 0.0
C1208 C 0.81568 0.85956 0.65481 0.0
C1209 C 0.80353 0.85601 0.67468 0.0
C1210 C 0.78763 0.8715 0.68063 0.0
C1211 C 0.78376 0.89004 0.66702 0.0
C1212 C 0.79599 0.89297 0.64757 0.0
C1213 C 0.8117 0.87824 0.6415 0.0
C1214 C 0.82276 0.8854 0.61985 0.0
C1215 C 0.84756 0.89002 0.62328 0.0
C1216 C 0.81853 0.86815 0.60179 0.0
C1217 C 0.81085 0.90649 0.61474 0.0
C1218 C 0.79538 0.91048 0.63088 0.0
C1219 C 0.78213 0.92882 0.62968 0.0
C1220 C 0.7848 0.94352 0.61151 0.0
C1221 C 0.80067 0.93985 0.59486 0.0
C1222 C 0.81385 0.92109 0.59658 0.0
H1223 H 0.63344 0.24841 0.20589 0.0
H1224 H 0.60971 0.31083 0.22886 0.0
H1225 H 0.58214 0.3109 0.19857 0.0
H1226 H 0.62901 0.2609 0.14843 0.0
H1227 H 0.62057 0.23324 0.14089 0.0
H1228 H 0.63744 0.23757 0.16509 0.0
H1229 H 0.60852 0.21588 0.18937 0.0
H1230 H 0.59153 0.21152 0.16521 0.0
H1231 H 0.58036 0.22438 0.18931 0.0
H1232 H 0.55855 0.30501 0.16454 0.0
H1233 H 0.54117 0.29387 0.12907 0.0
H1234 H 0.58012 0.2351 0.12899 0.0
C1235 C 0.62217 0.26189 0.20481 0.0
C1236 C 0.62359 0.27955 0.21981 0.0
C1237 C 0.60895 0.29719 0.21747 0.0
C1238 C 0.59317 0.2973 0.20042 0.0
C1239 C 0.59229 0.27965 0.18587 0.0
C1240 C 0.60643 0.26229 0.18789 0.0
C1241 C 0.60286 0.24587 0.16948 0.0
C1242 C 0.6237 0.24432 0.15513 0.0
C1243 C 0.59537 0.22307 0.17891 0.0
C1244 C 0.58454 0.25674 0.15671 0.0
C1245 C 0.57864 0.27619 0.16643 0.0
C1246 C 0.56288 0.2897 0.15692 0.0
C1247 C 0.55313 0.28328 0.13681 0.0
C1248 C 0.55912 0.26352 0.12653 0.0
C1249 C 0.57483 0.25 0.13681 0.0
H1250 H 0.25093 0.186 0.65029 0.0
H1251 H 0.28859 0.16028 0.70589 0.0
H1252 H 0.2918 0.1249 0.68676 0.0
H1253 H 0.22022 0.13487 0.63944 0.0
H1254 H 0.22063 0.13917 0.60971 0.0
H1255 H 0.22123 0.16256 0.62778 0.0
H1256 H 0.25705 0.17763 0.60869 0.0
H1257 H 0.25652 0.15429 0.59059 0.0
H1258 H 0.28051 0.16022 0.60732 0.0
H1259 H 0.29228 0.09278 0.66094 0.0
H1260 H 0.2889 0.06588 0.63052 0.0
H1261 H 0.24938 0.11173 0.59278 0.0
C1262 C 0.25961 0.17286 0.65861 0.0
C1263 C 0.26963 0.17607 0.67958 0.0
C1264 C 0.28112 0.15846 0.68967 0.0
C1265 C 0.2829 0.1382 0.67901 0.0
C1266 C 0.27295 0.13568 0.65833 0.0
C1267 C 0.26144 0.15248 0.64827 0.0
C1268 C 0.25243 0.14553 0.62589 0.0
C1269 C 0.22712 0.14553 0.62571 0.0
C1270 C 0.26222 0.1603 0.60701 0.0
C1271 C 0.26075 0.12226 0.62493 0.0
C1272 C 0.27264 0.11691 0.64376 0.0
C1273 C 0.2828 0.09667 0.64622 0.0
C1274 C 0.28083 0.08153 0.62892 0.0
C1275 C 0.26862 0.08667 0.60958 0.0
C1276 C 0.25837 0.10723 0.60767 0.0
H1277 H 0.3696 0.75026 0.16133 0.0
H1278 H 0.36963 0.81708 0.1863 0.0
H1279 H 0.40024 0.82777 0.16096 0.0
H1280 H 0.42811 0.74696 0.15437 0.0
H1281 H 0.42598 0.73157 0.12908 0.0
H1282 H 0.40439 0.72902 0.14956 0.0
H1283 H 0.37576 0.74021 0.11979 0.0
H1284 H 0.39725 0.74274 0.09922 0.0
H1285 H 0.37994 0.76576 0.10421 0.0
H1286 H 0.43069 0.83129 0.13255 0.0
H1287 H 0.45868 0.82733 0.10331 0.0
H1288 H 0.43765 0.75862 0.09587 0.0
C1289 C 0.3759 0.76719 0.16139 0.0
C1290 C 0.36718 0.7828 0.17592 0.0
C1291 C 0.37621 0.80471 0.17563 0.0
C1292 C 0.39352 0.81099 0.16118 0.0
C1293 C 0.40164 0.79521 0.14706 0.0
C1294 C 0.39312 0.77377 0.14704 0.0
C1295 C 0.40467 0.76003 0.1301 0.0
C1296 C 0.41649 0.74076 0.14146 0.0
C1297 C 0.38843 0.7517 0.11227 0.0
C1298 C 0.42097 0.77712 0.12053 0.0
C1299 C 0.419 0.79729 0.13056 0.0
C1300 C 0.43232 0.81559 0.12451 0.0
C1301 C 0.44808 0.81321 0.10777 0.0
C1302 C 0.45038 0.79268 0.09718 0.0
C1303 C 0.43655 0.77446 0.10376 0.0
H1304 H 0.77421 0.21571 0.39881 0.0
H1305 H 0.77553 0.18658 0.33354 0.0
H1306 H 0.78536 0.15079 0.35061 0.0
H1307 H 0.81987 0.18686 0.42202 0.0
H1308 H 0.80764 0.18313 0.44917 0.0
H1309 H 0.80067 0.20653 0.4319 0.0
H1310 H 0.7593 0.19518 0.43507 0.0
H1311 H 0.76614 0.17179 0.45242 0.0
H1312 H 0.75022 0.1677 0.42747 0.0
H1313 H 0.79605 0.11861 0.37444 0.0
H1314 H 0.80449 0.09119 0.40396 0.0
H1315 H 0.79546 0.14083 0.4539 0.0
C1316 C 0.7766 0.20178 0.38816 0.0
C1317 C 0.77408 0.20384 0.36488 0.0
C1318 C 0.77714 0.18524 0.35144 0.0
C1319 C 0.78286 0.16491 0.36096 0.0
C1320 C 0.78532 0.16343 0.38394 0.0
C1321 C 0.7821 0.18127 0.39741 0.0
C1322 C 0.78536 0.17507 0.42168 0.0
C1323 C 0.80453 0.18871 0.43178 0.0
C1324 C 0.76398 0.17758 0.43494 0.0
C1325 C 0.79101 0.151 0.41971 0.0
C1326 C 0.79105 0.14468 0.39777 0.0
C1327 C 0.79605 0.12333 0.3917 0.0
C1328 C 0.80096 0.10793 0.40853 0.0
C1329 C 0.80066 0.11394 0.43115 0.0
C1330 C 0.79567 0.13578 0.43674 0.0
H1331 H 0.39368 0.23379 0.84827 0.0
H1332 H 0.34523 0.27671 0.87592 0.0
H1333 H 0.36706 0.27936 0.91041 0.0
H1334 H 0.40436 0.20345 0.89901 0.0
H1335 H 0.43334 0.20125 0.89343 0.0
H1336 H 0.4141 0.20307 0.87073 0.0
H1337 H 0.43608 0.2371 0.85452 0.0
H1338 H 0.4554 0.23535 0.87714 0.0
H1339 H 0.4414 0.26072 0.87174 0.0
H1340 H 0.39418 0.27725 0.94199 0.0
H1341 H 0.42466 0.27049 0.96826 0.0
H1342 H 0.45489 0.22847 0.92013 0.0
C1343 C 0.38753 0.24361 0.86163 0.0
C1344 C 0.36773 0.25509 0.85932 0.0
C1345 C 0.3605 0.26803 0.87712 0.0
C1346 C 0.3727 0.26952 0.89686 0.0
C1347 C 0.39209 0.25793 0.89857 0.0
C1348 C 0.39946 0.24522 0.88144 0.0
C1349 C 0.42082 0.23439 0.8875 0.0
C1350 C 0.41797 0.20904 0.88768 0.0
C1351 C 0.43953 0.24238 0.87179 0.0
C1352 C 0.4243 0.24297 0.91073 0.0
C1353 C 0.40757 0.25655 0.9168 0.0
C1354 C 0.40737 0.26663 0.93742 0.0
C1355 C 0.42477 0.26278 0.95218 0.0
C1356 C 0.44209 0.24891 0.94626 0.0
C1357 C 0.44171 0.23887 0.92526 0.0
H1358 H 0.26468 0.85735 0.37751 0.0
H1359 H 0.33526 0.86459 0.3672 0.0
H1360 H 0.33835 0.88837 0.39985 0.0
H1361 H 0.25627 0.91201 0.39314 0.0
H1362 H 0.23588 0.90526 0.41415 0.0
H1363 H 0.23922 0.88719 0.39108 0.0
H1364 H 0.24557 0.85435 0.41838 0.0
H1365 H 0.24218 0.87234 0.44156 0.0
H1366 H 0.26682 0.85676 0.43919 0.0
H1367 H 0.33356 0.91413 0.43077 0.0
H1368 H 0.32149 0.93986 0.45878 0.0
H1369 H 0.25415 0.91434 0.45169 0.0
C1370 C 0.28082 0.86358 0.38241 0.0
C1371 C 0.29971 0.85922 0.36967 0.0
C1372 C 0.32051 0.86798 0.37646 0.0
C1373 C 0.32247 0.88136 0.3951 0.0
C1374 C 0.30352 0.88572 0.407 0.0
C1375 C 0.2831 0.877 0.4011 0.0
C1376 C 0.26527 0.88526 0.41621 0.0
C1377 C 0.24816 0.8982 0.40284 0.0
C1378 C 0.25432 0.86603 0.42963 0.0
C1379 C 0.27884 0.90039 0.4311 0.0
C1380 C 0.30086 0.90025 0.42552 0.0
C1381 C 0.31644 0.91399 0.43571 0.0
C1382 C 0.30935 0.92847 0.45188 0.0
C1383 C 0.28682 0.92908 0.45803 0.0
C1384 C 0.27148 0.91447 0.44758 0.0
H1385 H 0.68475 0.79357 0.84928 0.0
H1386 H 0.70491 0.72545 0.85424 0.0
H1387 H 0.67823 0.71836 0.88467 0.0
H1388 H 0.67664 0.80166 0.90732 0.0
H1389 H 0.65274 0.81821 0.90351 0.0
H1390 H 0.67353 0.81801 0.8822 0.0
H1391 H 0.64401 0.80617 0.85331 0.0
H1392 H 0.62311 0.80643 0.87451 0.0
H1393 H 0.62684 0.78182 0.85875 0.0
H1394 H 0.64949 0.71875 0.91473 0.0
H1395 H 0.62057 0.72648 0.94198 0.0
H1396 H 0.61808 0.79391 0.91622 0.0
C1397 C 0.68343 0.77708 0.85657 0.0
C1398 C 0.69702 0.76008 0.84936 0.0
C1399 C 0.69495 0.73884 0.85967 0.0
C1400 C 0.67974 0.73461 0.87688 0.0
C1401 C 0.66666 0.75175 0.88357 0.0
C1402 C 0.6683 0.77254 0.8737 0.0
C1403 C 0.65227 0.78807 0.88394 0.0
C1404 C 0.66453 0.80764 0.8949 0.0
C1405 C 0.63557 0.79609 0.8666 0.0
C1406 C 0.64138 0.77277 0.90116 0.0
C1407 C 0.64992 0.7519 0.90069 0.0
C1408 C 0.64258 0.73499 0.91516 0.0
C1409 C 0.62603 0.73952 0.93049 0.0
C1410 C 0.61692 0.76078 0.93122 0.0
C1411 C 0.62481 0.77756 0.91629 0.0
loop_
_geom_bond_atom_site_label_1
_geom_bond_atom_site_label_2
_geom_bond_distance
_geom_bond_site_symmetry_2
_ccdc_geom_bond_type
C0 C1 1.264 . S
C0 C5 1.479 . S
C0 C10 1.465 . S
C1 C0 1.264 . S
C1 C3 1.339 . S
C1 H28 0.931 . S
C2 C3 1.395 . S
C2 C4 1.320 . S
C3 C1 1.339 . S
C3 C2 1.395 . S
C3 H29 0.929 . S
C4 C2 1.320 . S
C4 C5 1.405 . S
C4 H30 0.930 . S
C5 C0 1.479 . S
C5 C4 1.405 . S
C5 H31 0.931 . S
U6 O7 2.454 . S
U6 O8 2.458 . S
U6 C9 2.984 . S
U6 C10 2.847 . S
U6 C23 2.882 . S
U6 O24 2.441 . S
U6 O25 2.420 . S
U6 O26 2.455 . S
U6 O27 2.449 . S
O7 U6 2.454 . S
O7 C9 1.353 . S
O8 U6 2.458 . S
O8 C9 1.286 . S
C9 U6 2.984 . S
C9 O7 1.353 . S
C9 O8 1.286 . S
C9 C11 1.363 . S
C10 C0 1.465 . S
C10 U6 2.847 . S
C10 O24 1.249 . S
C10 O25 1.202 . S
C11 C9 1.363 . S
C11 C13 1.408 . S
C11 C16 1.342 . S
C12 C13 1.310 . S
C12 C15 1.461 . S
C12 H32 0.932 . S
C13 C11 1.408 . S
C13 C12 1.310 . S
C13 H33 0.930 . S
C14 C15 1.474 . S
C14 C16 1.285 . S
C14 H34 0.929 . S
C15 C12 1.461 . S
C15 C14 1.474 . S
C16 C11 1.342 . S
C16 C14 1.285 . S
C16 H35 0.930 . S
C17 C20 1.424 . S
C17 C22 1.245 . S
C17 C23 1.428 . S
C18 C21 1.260 . S
C18 C22 1.477 . S
C18 H36 0.932 . S
C19 C20 1.384 . S
C19 C21 1.479 . S
C19 H37 0.929 . S
C20 C17 1.424 . S
C20 C19 1.384 . S
C20 H38 0.928 . S
C21 C18 1.260 . S
C21 C19 1.479 . S
C22 C17 1.245 . S
C22 C18 1.477 . S
C22 H39 0.932 . S
C23 U6 2.882 . S
C23 C17 1.428 . S
C23 O26 1.301 . S
C23 O27 1.282 . S
O24 U6 2.441 . S
O24 C10 1.249 . S
O25 U6 2.420 . S
O25 C10 1.202 . S
O26 U6 2.455 . S
O26 C23 1.301 . S
O27 U6 2.449 . S
O27 C23 1.282 . S
H28 C1 0.931 . S
H29 C3 0.929 . S
H30 C4 0.930 . S
H31 C5 0.931 . S
H32 C12 0.932 . S
H33 C13 0.930 . S
H34 C14 0.929 . S
H35 C16 0.930 . S
H36 C18 0.932 . S
H37 C19 0.929 . S
H38 C20 0.928 . S
H39 C22 0.932 . S
C40 C41 1.264 . S
C40 C45 1.479 . S
C40 C50 1.465 . S
C41 C40 1.264 . S
C41 C43 1.339 . S
C41 H68 0.931 . S
C42 C43 1.395 . S
C42 C44 1.320 . S
C43 C41 1.339 . S
C43 C42 1.395 . S
C43 H69 0.929 . S
C44 C42 1.320 . S
C44 C45 1.405 . S
C44 H70 0.930 . S
C45 C40 1.479 . S
C45 C44 1.405 . S
C45 H71 0.931 . S
U46 O47 2.454 . S
U46 O48 2.458 . S
U46 C49 2.984 . S
U46 C50 2.847 . S
U46 C63 2.882 . S
U46 O64 2.441 . S
U46 O65 2.420 . S
U46 O66 2.455 . S
U46 O67 2.449 . S
O47 U46 2.454 . S
O47 C49 1.353 . S
O48 U46 2.458 . S
O48 C49 1.286 . S
C49 U46 2.984 . S
C49 O47 1.353 . S
C49 O48 1.286 . S
C49 C51 1.363 . S
C50 C40 1.465 . S
C50 U46 2.847 . S
C50 O64 1.249 . S
C50 O65 1.202 . S
C51 C49 1.363 . S
C51 C53 1.408 . S
C51 C56 1.342 . S
C52 C53 1.310 . S
C52 C55 1.461 . S
C52 H72 0.932 . S
C53 C51 1.408 . S
C53 C52 1.310 . S
C53 H73 0.930 . S
C54 C55 1.474 . S
C54 C56 1.285 . S
C54 H74 0.929 . S
C55 C52 1.461 . S
C55 C54 1.474 . S
C56 C51 1.342 . S
C56 C54 1.285 . S
C56 H75 0.930 . S
C57 C60 1.424 . S
C57 C62 1.245 . S
C57 C63 1.428 . S
C58 C61 1.260 . S
C58 C62 1.477 . S
C58 H76 0.932 . S
C59 C60 1.384 . S
C59 C61 1.479 . S
C59 H77 0.929 . S
C60 C57 1.424 . S
C60 C59 1.384 . S
C60 H78 0.928 . S
C61 C58 1.260 . S
C61 C59 1.479 . S
C62 C57 1.245 . S
C62 C58 1.477 . S
C62 H79 0.932 . S
C63 U46 2.882 . S
C63 C57 1.428 . S
C63 O66 1.301 . S
C63 O67 1.282 . S
O64 U46 2.441 . S
O64 C50 1.249 . S
O65 U46 2.420 . S
O65 C50 1.202 . S
O66 U46 2.455 . S
O66 C63 1.301 . S
O67 U46 2.449 . S
O67 C63 1.282 . S
H68 C41 0.931 . S
H69 C43 0.929 . S
H70 C44 0.930 . S
H71 C45 0.931 . S
H72 C52 0.932 . S
H73 C53 0.930 . S
H74 C54 0.929 . S
H75 C56 0.930 . S
H76 C58 0.932 . S
H77 C59 0.929 . S
H78 C60 0.928 . S
H79 C62 0.932 . S
C80 C81 1.264 . S
C80 C85 1.479 . S
C80 C90 1.465 . S
C81 C80 1.264 . S
C81 C83 1.339 . S
C81 H108 0.931 . S
C82 C83 1.395 . S
C82 C84 1.320 . S
C83 C81 1.339 . S
C83 C82 1.395 . S
C83 H109 0.929 . S
C84 C82 1.320 . S
C84 C85 1.405 . S
C84 H110 0.930 . S
C85 C80 1.479 . S
C85 C84 1.405 . S
C85 H111 0.931 . S
U86 O87 2.454 . S
U86 O88 2.458 . S
U86 C89 2.984 . S
U86 C90 2.847 . S
U86 C103 2.882 . S
U86 O104 2.441 . S
U86 O105 2.420 . S
U86 O106 2.455 . S
U86 O107 2.449 . S
O87 U86 2.454 . S
O87 C89 1.353 . S
O88 U86 2.458 . S
O88 C89 1.286 . S
C89 U86 2.984 . S
C89 O87 1.353 . S
C89 O88 1.286 . S
C89 C91 1.363 . S
C90 C80 1.465 . S
C90 U86 2.847 . S
C90 O104 1.249 . S
C90 O105 1.202 . S
C91 C89 1.363 . S
C91 C93 1.408 . S
C91 C96 1.342 . S
C92 C93 1.310 . S
C92 C95 1.461 . S
C92 H112 0.932 . S
C93 C91 1.408 . S
C93 C92 1.310 . S
C93 H113 0.930 . S
C94 C95 1.474 . S
C94 C96 1.285 . S
C94 H114 0.929 . S
C95 C92 1.461 . S
C95 C94 1.474 . S
C96 C91 1.342 . S
C96 C94 1.285 . S
C96 H115 0.930 . S
C97 C100 1.424 . S
C97 C102 1.245 . S
C97 C103 1.428 . S
C98 C101 1.260 . S
C98 C102 1.477 . S
C98 H116 0.932 . S
C99 C100 1.384 . S
C99 C101 1.479 . S
C99 H117 0.929 . S
C100 C97 1.424 . S
C100 C99 1.384 . S
C100 H118 0.928 . S
C101 C98 1.260 . S
C101 C99 1.479 . S
C102 C97 1.245 . S
C102 C98 1.477 . S
C102 H119 0.932 . S
C103 U86 2.882 . S
C103 C97 1.428 . S
C103 O106 1.301 . S
C103 O107 1.282 . S
O104 U86 2.441 . S
O104 C90 1.249 . S
O105 U86 2.420 . S
O105 C90 1.202 . S
O106 U86 2.455 . S
O106 C103 1.301 . S
O107 U86 2.449 . S
O107 C103 1.282 . S
H108 C81 0.931 . S
H109 C83 0.929 . S
H110 C84 0.930 . S
H111 C85 0.931 . S
H112 C92 0.932 . S
H113 C93 0.930 . S
H114 C94 0.929 . S
H115 C96 0.930 . S
H116 C98 0.932 . S
H117 C99 0.929 . S
H118 C100 0.928 . S
H119 C102 0.932 . S
C120 C121 1.264 . S
C120 C125 1.479 . S
C120 C130 1.465 . S
C121 C120 1.264 . S
C121 C123 1.339 . S
C121 H148 0.931 . S
C122 C123 1.395 . S
C122 C124 1.320 . S
C123 C121 1.339 . S
C123 C122 1.395 . S
C123 H149 0.929 . S
C124 C122 1.320 . S
C124 C125 1.405 . S
C124 H150 0.930 . S
C125 C120 1.479 . S
C125 C124 1.405 . S
C125 H151 0.931 . S
U126 O127 2.454 . S
U126 O128 2.458 . S
U126 C129 2.984 . S
U126 C130 2.847 . S
U126 C143 2.882 . S
U126 O144 2.441 . S
U126 O145 2.420 . S
U126 O146 2.455 . S
U126 O147 2.449 . S
O127 U126 2.454 . S
O127 C129 1.353 . S
O128 U126 2.458 . S
O128 C129 1.286 . S
C129 U126 2.984 . S
C129 O127 1.353 . S
C129 O128 1.286 . S
C129 C131 1.363 . S
C130 C120 1.465 . S
C130 U126 2.847 . S
C130 O144 1.249 . S
C130 O145 1.202 . S
C131 C129 1.363 . S
C131 C133 1.408 . S
C131 C136 1.342 . S
C132 C133 1.310 . S
C132 C135 1.461 . S
C132 H152 0.932 . S
C133 C131 1.408 . S
C133 C132 1.310 . S
C133 H153 0.930 . S
C134 C135 1.474 . S
C134 C136 1.285 . S
C134 H154 0.929 . S
C135 C132 1.461 . S
C135 C134 1.474 . S
C136 C131 1.342 . S
C136 C134 1.285 . S
C136 H155 0.930 . S
C137 C140 1.424 . S
C137 C142 1.245 . S
C137 C143 1.428 . S
C138 C141 1.260 . S
C138 C142 1.477 . S
C138 H156 0.932 . S
C139 C140 1.384 . S
C139 C141 1.479 . S
C139 H157 0.929 . S
C140 C137 1.424 . S
C140 C139 1.384 . S
C140 H158 0.928 . S
C141 C138 1.260 . S
C141 C139 1.479 . S
C142 C137 1.245 . S
C142 C138 1.477 . S
C142 H159 0.932 . S
C143 U126 2.882 . S
C143 C137 1.428 . S
C143 O146 1.301 . S
C143 O147 1.282 . S
O144 U126 2.441 . S
O144 C130 1.249 . S
O145 U126 2.420 . S
O145 C130 1.202 . S
O146 U126 2.455 . S
O146 C143 1.301 . S
O147 U126 2.449 . S
O147 C143 1.282 . S
H148 C121 0.931 . S
H149 C123 0.929 . S
H150 C124 0.930 . S
H151 C125 0.931 . S
H152 C132 0.932 . S
H153 C133 0.930 . S
H154 C134 0.929 . S
H155 C136 0.930 . S
H156 C138 0.932 . S
H157 C139 0.929 . S
H158 C140 0.928 . S
H159 C142 0.932 . S
C160 C161 1.264 . S
C160 C165 1.479 . S
C160 C170 1.465 . S
C161 C160 1.264 . S
C161 C163 1.339 . S
C161 H188 0.931 . S
C162 C163 1.395 . S
C162 C164 1.320 . S
C163 C161 1.339 . S
C163 C162 1.395 . S
C163 H189 0.929 . S
C164 C162 1.320 . S
C164 C165 1.405 . S
C164 H190 0.930 . S
C165 C160 1.479 . S
C165 C164 1.405 . S
C165 H191 0.931 . S
U166 O167 2.454 . S
U166 O168 2.458 . S
U166 C169 2.984 . S
U166 C170 2.847 . S
U166 C183 2.882 . S
U166 O184 2.441 . S
U166 O185 2.420 . S
U166 O186 2.455 . S
U166 O187 2.449 . S
O167 U166 2.454 . S
O167 C169 1.353 . S
O168 U166 2.458 . S
O168 C169 1.286 . S
C169 U166 2.984 . S
C169 O167 1.353 . S
C169 O168 1.286 . S
C169 C171 1.363 . S
C170 C160 1.465 . S
C170 U166 2.847 . S
C170 O184 1.249 . S
C170 O185 1.202 . S
C171 C169 1.363 . S
C171 C173 1.408 . S
C171 C176 1.342 . S
C172 C173 1.310 . S
C172 C175 1.461 . S
C172 H192 0.932 . S
C173 C171 1.408 . S
C173 C172 1.310 . S
C173 H193 0.930 . S
C174 C175 1.474 . S
C174 C176 1.285 . S
C174 H194 0.929 . S
C175 C172 1.461 . S
C175 C174 1.474 . S
C176 C171 1.342 . S
C176 C174 1.285 . S
C176 H195 0.930 . S
C177 C180 1.424 . S
C177 C182 1.245 . S
C177 C183 1.428 . S
C178 C181 1.260 . S
C178 C182 1.477 . S
C178 H196 0.932 . S
C179 C180 1.384 . S
C179 C181 1.479 . S
C179 H197 0.929 . S
C180 C177 1.424 . S
C180 C179 1.384 . S
C180 H198 0.928 . S
C181 C178 1.260 . S
C181 C179 1.479 . S
C182 C177 1.245 . S
C182 C178 1.477 . S
C182 H199 0.932 . S
C183 U166 2.882 . S
C183 C177 1.428 . S
C183 O186 1.301 . S
C183 O187 1.282 . S
O184 U166 2.441 . S
O184 C170 1.249 . S
O185 U166 2.420 . S
O185 C170 1.202 . S
O186 U166 2.455 . S
O186 C183 1.301 . S
O187 U166 2.449 . S
O187 C183 1.282 . S
H188 C161 0.931 . S
H189 C163 0.929 . S
H190 C164 0.930 . S
H191 C165 0.931 . S
H192 C172 0.932 . S
H193 C173 0.930 . S
H194 C174 0.929 . S
H195 C176 0.930 . S
H196 C178 0.932 . S
H197 C179 0.929 . S
H198 C180 0.928 . S
H199 C182 0.932 . S
C200 C201 1.264 . S
C200 C205 1.479 . S
C200 C210 1.465 . S
C201 C200 1.264 . S
C201 C203 1.339 . S
C201 H228 0.931 . S
C202 C203 1.395 . S
C202 C204 1.320 . S
C203 C201 1.339 . S
C203 C202 1.395 . S
C203 H229 0.929 . S
C204 C202 1.320 . S
C204 C205 1.405 . S
C204 H230 0.930 . S
C205 C200 1.479 . S
C205 C204 1.405 . S
C205 H231 0.931 . S
U206 O207 2.454 . S
U206 O208 2.458 . S
U206 C209 2.984 . S
U206 C210 2.847 . S
U206 C223 2.882 . S
U206 O224 2.441 . S
U206 O225 2.420 . S
U206 O226 2.455 . S
U206 O227 2.449 . S
O207 U206 2.454 . S
O207 C209 1.353 . S
O208 U206 2.458 . S
O208 C209 1.286 . S
C209 U206 2.984 . S
C209 O207 1.353 . S
C209 O208 1.286 . S
C209 C211 1.363 . S
C210 C200 1.465 . S
C210 U206 2.847 . S
C210 O224 1.249 . S
C210 O225 1.202 . S
C211 C209 1.363 . S
C211 C213 1.408 . S
C211 C216 1.342 . S
C212 C213 1.310 . S
C212 C215 1.461 . S
C212 H232 0.932 . S
C213 C211 1.408 . S
C213 C212 1.310 . S
C213 H233 0.930 . S
C214 C215 1.474 . S
C214 C216 1.285 . S
C214 H234 0.929 . S
C215 C212 1.461 . S
C215 C214 1.474 . S
C216 C211 1.342 . S
C216 C214 1.285 . S
C216 H235 0.930 . S
C217 C220 1.424 . S
C217 C222 1.245 . S
C217 C223 1.428 . S
C218 C221 1.260 . S
C218 C222 1.477 . S
C218 H236 0.932 . S
C219 C220 1.384 . S
C219 C221 1.479 . S
C219 H237 0.929 . S
C220 C217 1.424 . S
C220 C219 1.384 . S
C220 H238 0.928 . S
C221 C218 1.260 . S
C221 C219 1.479 . S
C222 C217 1.245 . S
C222 C218 1.477 . S
C222 H239 0.932 . S
C223 U206 2.882 . S
C223 C217 1.428 . S
C223 O226 1.301 . S
C223 O227 1.282 . S
O224 U206 2.441 . S
O224 C210 1.249 . S
O225 U206 2.420 . S
O225 C210 1.202 . S
O226 U206 2.455 . S
O226 C223 1.301 . S
O227 U206 2.449 . S
O227 C223 1.282 . S
H228 C201 0.931 . S
H229 C203 0.929 . S
H230 C204 0.930 . S
H231 C205 0.931 . S
H232 C212 0.932 . S
H233 C213 0.930 . S
H234 C214 0.929 . S
H235 C216 0.930 . S
H236 C218 0.932 . S
H237 C219 0.929 . S
H238 C220 0.928 . S
H239 C222 0.932 . S
C240 C241 1.264 . S
C240 C245 1.479 . S
C240 C250 1.465 . S
C241 C240 1.264 . S
C241 C243 1.339 . S
C241 H268 0.931 . S
C242 C243 1.395 . S
C242 C244 1.320 . S
C243 C241 1.339 . S
C243 C242 1.395 . S
C243 H269 0.929 . S
C244 C242 1.320 . S
C244 C245 1.405 . S
C244 H270 0.930 . S
C245 C240 1.479 . S
C245 C244 1.405 . S
C245 H271 0.931 . S
U246 O247 2.454 . S
U246 O248 2.458 . S
U246 C249 2.984 . S
U246 C250 2.847 . S
U246 C263 2.882 . S
U246 O264 2.441 . S
U246 O265 2.420 . S
U246 O266 2.455 . S
U246 O267 2.449 . S
O247 U246 2.454 . S
O247 C249 1.353 . S
O248 U246 2.458 . S
O248 C249 1.286 . S
C249 U246 2.984 . S
C249 O247 1.353 . S
C249 O248 1.286 . S
C249 C251 1.363 . S
C250 C240 1.465 . S
C250 U246 2.847 . S
C250 O264 1.249 . S
C250 O265 1.202 . S
C251 C249 1.363 . S
C251 C253 1.408 . S
C251 C256 1.342 . S
C252 C253 1.310 . S
C252 C255 1.461 . S
C252 H272 0.932 . S
C253 C251 1.408 . S
C253 C252 1.310 . S
C253 H273 0.930 . S
C254 C255 1.474 . S
C254 C256 1.285 . S
C254 H274 0.929 . S
C255 C252 1.461 . S
C255 C254 1.474 . S
C256 C251 1.342 . S
C256 C254 1.285 . S
C256 H275 0.930 . S
C257 C260 1.424 . S
C257 C262 1.245 . S
C257 C263 1.428 . S
C258 C261 1.260 . S
C258 C262 1.477 . S
C258 H276 0.932 . S
C259 C260 1.384 . S
C259 C261 1.479 . S
C259 H277 0.929 . S
C260 C257 1.424 . S
C260 C259 1.384 . S
C260 H278 0.928 . S
C261 C258 1.260 . S
C261 C259 1.479 . S
C262 C257 1.245 . S
C262 C258 1.477 . S
C262 H279 0.932 . S
C263 U246 2.882 . S
C263 C257 1.428 . S
C263 O266 1.301 . S
C263 O267 1.282 . S
O264 U246 2.441 . S
O264 C250 1.249 . S
O265 U246 2.420 . S
O265 C250 1.202 . S
O266 U246 2.455 . S
O266 C263 1.301 . S
O267 U246 2.449 . S
O267 C263 1.282 . S
H268 C241 0.931 . S
H269 C243 0.929 . S
H270 C244 0.930 . S
H271 C245 0.931 . S
H272 C252 0.932 . S
H273 C253 0.930 . S
H274 C254 0.929 . S
H275 C256 0.930 . S
H276 C258 0.932 . S
H277 C259 0.929 . S
H278 C260 0.928 . S
H279 C262 0.932 . S
C280 C281 1.264 . S
C280 C285 1.479 . S
C280 C290 1.465 . S
C281 C280 1.264 . S
C281 C283 1.339 . S
C281 H308 0.931 . S
C282 C283 1.395 . S
C282 C284 1.320 . S
C283 C281 1.339 . S
C283 C282 1.395 . S
C283 H309 0.929 . S
C284 C282 1.320 . S
C284 C285 1.405 . S
C284 H310 0.930 . S
C285 C280 1.479 . S
C285 C284 1.405 . S
C285 H311 0.931 . S
U286 O287 2.454 . S
U286 O288 2.458 . S
U286 C289 2.984 . S
U286 C290 2.847 . S
U286 C303 2.882 . S
U286 O304 2.441 . S
U286 O305 2.420 . S
U286 O306 2.455 . S
U286 O307 2.449 . S
O287 U286 2.454 . S
O287 C289 1.353 . S
O288 U286 2.458 . S
O288 C289 1.286 . S
C289 U286 2.984 . S
C289 O287 1.353 . S
C289 O288 1.286 . S
C289 C291 1.363 . S
C290 C280 1.465 . S
C290 U286 2.847 . S
C290 O304 1.249 . S
C290 O305 1.202 . S
C291 C289 1.363 . S
C291 C293 1.408 . S
C291 C296 1.342 . S
C292 C293 1.310 . S
C292 C295 1.461 . S
C292 H312 0.932 . S
C293 C291 1.408 . S
C293 C292 1.310 . S
C293 H313 0.930 . S
C294 C295 1.474 . S
C294 C296 1.285 . S
C294 H314 0.929 . S
C295 C292 1.461 . S
C295 C294 1.474 . S
C296 C291 1.342 . S
C296 C294 1.285 . S
C296 H315 0.930 . S
C297 C300 1.424 . S
C297 C302 1.245 . S
C297 C303 1.428 . S
C298 C301 1.260 . S
C298 C302 1.477 . S
C298 H316 0.932 . S
C299 C300 1.384 . S
C299 C301 1.479 . S
C299 H317 0.929 . S
C300 C297 1.424 . S
C300 C299 1.384 . S
C300 H318 0.928 . S
C301 C298 1.260 . S
C301 C299 1.479 . S
C302 C297 1.245 . S
C302 C298 1.477 . S
C302 H319 0.932 . S
C303 U286 2.882 . S
C303 C297 1.428 . S
C303 O306 1.301 . S
C303 O307 1.282 . S
O304 U286 2.441 . S
O304 C290 1.249 . S
O305 U286 2.420 . S
O305 C290 1.202 . S
O306 U286 2.455 . S
O306 C303 1.301 . S
O307 U286 2.449 . S
O307 C303 1.282 . S
H308 C281 0.931 . S
H309 C283 0.929 . S
H310 C284 0.930 . S
H311 C285 0.931 . S
H312 C292 0.932 . S
H313 C293 0.930 . S
H314 C294 0.929 . S
H315 C296 0.930 . S
H316 C298 0.932 . S
H317 C299 0.929 . S
H318 C300 0.928 . S
H319 C302 0.932 . S
H320 O346 0.856 1_455 S
H321 O349 0.854 . S
H322 C357 0.930 . S
H323 C358 0.930 . S
H324 C360 0.930 . S
H325 C361 0.930 . S
H326 C363 0.931 . S
H327 C364 0.930 . S
H328 C366 0.930 . S
H329 C367 0.930 1_455 S
H330 C369 0.930 . S
H331 C370 0.931 . S
H332 C372 0.930 . S
H333 C373 0.929 . S
H334 C375 0.931 . S
H335 C376 0.930 . S
H336 C378 0.930 . S
H337 C379 0.932 . S
H338 C381 0.930 . S
H339 C382 0.929 . S
H340 C384 0.931 . S
H341 C385 0.930 . S
H342 C387 0.929 . S
H343 C388 0.931 . S
H344 C390 0.930 . S
H345 C391 0.929 . S
O346 H320 0.856 1_655 S
O346 C392 1.300 1_655 S
O347 C392 1.209 . S
O348 C393 1.199 . S
O349 H321 0.854 . S
O349 C393 1.297 . S
C350 C351 1.404 1_455 S
C350 C355 1.397 1_455 S
C350 C356 1.492 . S
C351 C350 1.404 1_655 S
C351 C352 1.396 . S
C351 C362 1.492 . S
C352 C351 1.396 . S
C352 C353 1.397 . S
C352 C368 1.509 . S
C353 C352 1.397 . S
C353 C354 1.412 . S
C353 C374 1.485 . S
C354 C353 1.412 . S
C354 C355 1.388 . S
C354 C380 1.490 . S
C355 C350 1.397 1_655 S
C355 C354 1.388 . S
C355 C386 1.519 1_655 S
C356 C350 1.492 . S
C356 C357 1.363 . S
C356 C361 1.390 . S
C357 H322 0.930 . S
C357 C356 1.363 . S
C357 C358 1.372 . S
C358 H323 0.930 . S
C358 C357 1.372 . S
C358 C359 1.383 . S
C359 C358 1.383 . S
C359 C360 1.395 . S
C360 H324 0.930 . S
C360 C359 1.395 . S
C360 C361 1.362 . S
C361 H325 0.930 . S
C361 C356 1.390 . S
C361 C360 1.362 . S
C362 C351 1.492 . S
C362 C363 1.377 . S
C362 C367 1.394 . S
C363 H326 0.931 . S
C363 C362 1.377 . S
C363 C364 1.376 . S
C364 H327 0.930 . S
C364 C363 1.376 . S
C364 C365 1.375 1_655 S
C365 C364 1.375 1_455 S
C365 C366 1.378 . S
C365 C392 1.486 . S
C366 H328 0.930 . S
C366 C365 1.378 . S
C366 C367 1.378 1_455 S
C367 H329 0.930 1_655 S
C367 C362 1.394 . S
C367 C366 1.378 1_655 S
C368 C352 1.509 . S
C368 C369 1.391 . S
C368 C373 1.386 . S
C369 H330 0.930 . S
C369 C368 1.391 . S
C369 C370 1.375 . S
C370 H331 0.931 . S
C370 C369 1.375 . S
C370 C371 1.375 . S
C371 C370 1.375 . S
C371 C372 1.361 . S
C372 H332 0.930 . S
C372 C371 1.361 . S
C372 C373 1.399 . S
C373 H333 0.929 . S
C373 C368 1.386 . S
C373 C372 1.399 . S
C374 C353 1.485 . S
C374 C375 1.394 . S
C374 C379 1.360 . S
C375 H334 0.931 . S
C375 C374 1.394 . S
C375 C376 1.372 . S
C376 H335 0.930 . S
C376 C375 1.372 . S
C376 C377 1.397 . S
C377 C376 1.397 . S
C377 C378 1.390 . S
C377 C393 1.476 . S
C378 H336 0.930 . S
C378 C377 1.390 . S
C378 C379 1.366 . S
C379 H337 0.932 . S
C379 C374 1.360 . S
C379 C378 1.366 . S
C380 C354 1.490 . S
C380 C381 1.380 . S
C380 C385 1.386 . S
C381 H338 0.930 . S
C381 C380 1.380 . S
C381 C382 1.381 . S
C382 H339 0.929 . S
C382 C381 1.381 . S
C382 C383 1.371 . S
C383 C382 1.371 . S
C383 C384 1.380 . S
C384 H340 0.931 . S
C384 C383 1.380 . S
C384 C385 1.387 . S
C385 H341 0.930 . S
C385 C380 1.386 . S
C385 C384 1.387 . S
C386 C355 1.519 1_455 S
C386 C387 1.377 . S
C386 C391 1.361 . S
C387 H342 0.929 . S
C387 C386 1.377 . S
C387 C388 1.386 . S
C388 H343 0.931 . S
C388 C387 1.386 . S
C388 C389 1.363 . S
C389 C388 1.363 . S
C389 C390 1.385 . S
C390 H344 0.930 . S
C390 C389 1.385 . S
C390 C391 1.396 . S
C391 H345 0.929 . S
C391 C386 1.361 . S
C391 C390 1.396 . S
C392 O346 1.300 1_455 S
C392 O347 1.209 . S
C392 C365 1.486 . S
C393 O348 1.199 . S
C393 O349 1.297 . S
C393 C377 1.476 . S
H394 O420 0.856 . S
H395 O423 0.854 . S
H396 C431 0.930 . S
H397 C432 0.930 . S
H398 C434 0.930 . S
H399 C435 0.930 . S
H400 C437 0.931 . S
H401 C438 0.930 . S
H402 C440 0.930 . S
H403 C441 0.929 . S
H404 C443 0.930 . S
H405 C444 0.931 . S
H406 C446 0.930 . S
H407 C447 0.929 . S
H408 C449 0.931 . S
H409 C450 0.930 . S
H410 C452 0.930 . S
H411 C453 0.932 . S
H412 C455 0.930 1_455 S
H413 C456 0.929 . S
H414 C458 0.931 . S
H415 C459 0.930 . S
H416 C461 0.929 . S
H417 C462 0.931 . S
H418 C464 0.930 . S
H419 C465 0.929 . S
O420 H394 0.856 . S
O420 C466 1.300 . S
O421 C466 1.209 . S
O422 C467 1.199 . S
O423 H395 0.854 . S
O423 C467 1.297 . S
C424 C425 1.404 . S
C424 C429 1.397 . S
C424 C430 1.492 . S
C425 C424 1.404 . S
C425 C426 1.396 1_455 S
C425 C436 1.492 . S
C426 C425 1.396 1_655 S
C426 C427 1.397 . S
C426 C442 1.509 . S
C427 C426 1.397 . S
C427 C428 1.412 1_655 S
C427 C448 1.485 . S
C428 C427 1.412 1_455 S
C428 C429 1.388 . S
C428 C454 1.490 1_455 S
C429 C424 1.397 . S
C429 C428 1.388 . S
C429 C460 1.519 . S
C430 C424 1.492 . S
C430 C431 1.363 . S
C430 C435 1.390 . S
C431 H396 0.930 . S
C431 C430 1.363 . S
C431 C432 1.372 . S
C432 H397 0.930 . S
C432 C431 1.372 . S
C432 C433 1.383 . S
C433 C432 1.383 . S
C433 C434 1.395 . S
C434 H398 0.930 . S
C434 C433 1.395 . S
C434 C435 1.362 . S
C435 H399 0.930 . S
C435 C430 1.390 . S
C435 C434 1.362 . S
C436 C425 1.492 . S
C436 C437 1.377 . S
C436 C441 1.397 . S
C437 H400 0.931 . S
C437 C436 1.377 . S
C437 C438 1.376 . S
C438 H401 0.930 . S
C438 C437 1.376 . S
C438 C439 1.376 . S
C439 C438 1.376 . S
C439 C440 1.378 . S
C439 C466 1.486 . S
C440 H402 0.930 . S
C440 C439 1.378 . S
C440 C441 1.376 . S
C441 H403 0.929 . S
C441 C436 1.397 . S
C441 C440 1.376 . S
C442 C426 1.509 . S
C442 C443 1.391 . S
C442 C447 1.386 . S
C443 H404 0.930 . S
C443 C442 1.391 . S
C443 C444 1.375 . S
C444 H405 0.931 . S
C444 C443 1.375 . S
C444 C445 1.375 . S
C445 C444 1.375 . S
C445 C446 1.361 . S
C446 H406 0.930 . S
C446 C445 1.361 . S
C446 C447 1.399 . S
C447 H407 0.929 . S
C447 C442 1.386 . S
C447 C446 1.399 . S
C448 C427 1.485 . S
C448 C449 1.394 . S
C448 C453 1.360 . S
C449 H408 0.931 . S
C449 C448 1.394 . S
C449 C450 1.372 . S
C450 H409 0.930 . S
C450 C449 1.372 . S
C450 C451 1.397 . S
C451 C450 1.397 . S
C451 C452 1.390 . S
C451 C467 1.476 . S
C452 H410 0.930 . S
C452 C451 1.390 . S
C452 C453 1.366 . S
C453 H411 0.932 . S
C453 C448 1.360 . S
C453 C452 1.366 . S
C454 C428 1.490 1_655 S
C454 C455 1.380 . S
C454 C459 1.386 . S
C455 H412 0.930 1_655 S
C455 C454 1.380 . S
C455 C456 1.381 . S
C456 H413 0.929 . S
C456 C455 1.381 . S
C456 C457 1.371 . S
C457 C456 1.371 . S
C457 C458 1.380 . S
C458 H414 0.931 . S
C458 C457 1.380 . S
C458 C459 1.387 . S
C459 H415 0.930 . S
C459 C454 1.386 . S
C459 C458 1.387 . S
C460 C429 1.519 . S
C460 C461 1.377 . S
C460 C465 1.361 . S
C461 H416 0.929 . S
C461 C460 1.377 . S
C461 C462 1.386 . S
C462 H417 0.931 . S
C462 C461 1.386 . S
C462 C463 1.363 . S
C463 C462 1.363 . S
C463 C464 1.385 . S
C464 H418 0.930 . S
C464 C463 1.385 . S
C464 C465 1.396 . S
C465 H419 0.929 . S
C465 C460 1.361 . S
C465 C464 1.396 . S
C466 O420 1.300 . S
C466 O421 1.209 . S
C466 C439 1.486 . S
C467 O422 1.199 . S
C467 O423 1.297 . S
C467 C451 1.476 . S
H468 O494 0.856 . S
H469 O497 0.854 . S
H470 C505 0.930 . S
H471 C506 0.930 . S
H472 C508 0.930 . S
H473 C509 0.930 . S
H474 C511 0.931 . S
H475 C512 0.930 . S
H476 C514 0.930 1_565 S
H477 C515 0.929 . S
H478 C517 0.930 . S
H479 C518 0.931 . S
H480 C520 0.930 . S
H481 C521 0.929 . S
H482 C523 0.931 . S
H483 C524 0.930 . S
H484 C526 0.930 . S
H485 C527 0.932 . S
H486 C529 0.930 . S
H487 C530 0.929 . S
H488 C532 0.931 . S
H489 C533 0.930 . S
H490 C535 0.929 . S
H491 C536 0.931 . S
H492 C538 0.930 . S
H493 C539 0.929 . S
O494 H468 0.856 . S
O494 C540 1.317 . S
O495 C540 1.180 1_565 S
O496 C541 1.199 . S
O497 H469 0.854 . S
O497 C541 1.297 . S
C498 C499 1.404 . S
C498 C503 1.397 . S
C498 C504 1.492 1_545 S
C499 C498 1.404 . S
C499 C500 1.396 . S
C499 C510 1.492 . S
C500 C499 1.396 . S
C500 C501 1.397 . S
C500 C516 1.509 . S
C501 C500 1.397 . S
C501 C502 1.412 . S
C501 C522 1.485 . S
C502 C501 1.412 . S
C502 C503 1.388 . S
C502 C528 1.490 . S
C503 C498 1.397 . S
C503 C502 1.388 . S
C503 C534 1.519 . S
C504 C498 1.492 1_565 S
C504 C505 1.363 . S
C504 C509 1.390 . S
C505 H470 0.930 . S
C505 C504 1.363 . S
C505 C506 1.372 . S
C506 H471 0.930 . S
C506 C505 1.372 . S
C506 C507 1.383 . S
C507 C506 1.383 . S
C507 C508 1.395 . S
C508 H472 0.930 . S
C508 C507 1.395 . S
C508 C509 1.362 . S
C509 H473 0.930 . S
C509 C504 1.390 . S
C509 C508 1.362 . S
C510 C499 1.492 . S
C510 C511 1.377 . S
C510 C515 1.397 . S
C511 H474 0.931 . S
C511 C510 1.377 . S
C511 C512 1.376 . S
C512 H475 0.930 . S
C512 C511 1.376 . S
C512 C513 1.376 . S
C513 C512 1.376 . S
C513 C514 1.378 . S
C513 C540 1.503 . S
C514 H476 0.930 1_545 S
C514 C513 1.378 . S
C514 C515 1.376 . S
C515 H477 0.929 . S
C515 C510 1.397 . S
C515 C514 1.376 . S
C516 C500 1.509 . S
C516 C517 1.391 . S
C516 C521 1.386 . S
C517 H478 0.930 . S
C517 C516 1.391 . S
C517 C518 1.375 . S
C518 H479 0.931 . S
C518 C517 1.375 . S
C518 C519 1.375 . S
C519 C518 1.375 . S
C519 C520 1.361 . S
C520 H480 0.930 . S
C520 C519 1.361 . S
C520 C521 1.399 . S
C521 H481 0.929 . S
C521 C516 1.386 . S
C521 C520 1.399 . S
C522 C501 1.485 . S
C522 C523 1.394 . S
C522 C527 1.360 . S
C523 H482 0.931 . S
C523 C522 1.394 . S
C523 C524 1.372 . S
C524 H483 0.930 . S
C524 C523 1.372 . S
C524 C525 1.397 . S
C525 C524 1.397 . S
C525 C526 1.390 . S
C525 C541 1.476 . S
C526 H484 0.930 . S
C526 C525 1.390 . S
C526 C527 1.366 . S
C527 H485 0.932 . S
C527 C522 1.360 . S
C527 C526 1.366 . S
C528 C502 1.490 . S
C528 C529 1.380 . S
C528 C533 1.386 . S
C529 H486 0.930 . S
C529 C528 1.380 . S
C529 C530 1.381 . S
C530 H487 0.929 . S
C530 C529 1.381 . S
C530 C531 1.371 . S
C531 C530 1.371 . S
C531 C532 1.380 . S
C532 H488 0.931 . S
C532 C531 1.380 . S
C532 C533 1.387 . S
C533 H489 0.930 . S
C533 C528 1.386 . S
C533 C532 1.387 . S
C534 C503 1.519 . S
C534 C535 1.377 1_545 S
C534 C539 1.361 . S
C535 H490 0.929 . S
C535 C534 1.377 1_565 S
C535 C536 1.386 . S
C536 H491 0.931 . S
C536 C535 1.386 . S
C536 C537 1.363 . S
C537 C536 1.363 . S
C537 C538 1.385 . S
C538 H492 0.930 . S
C538 C537 1.385 . S
C538 C539 1.396 1_565 S
C539 H493 0.929 . S
C539 C534 1.361 . S
C539 C538 1.396 1_545 S
C540 O494 1.317 . S
C540 O495 1.180 1_545 S
C540 C513 1.503 . S
C541 O496 1.199 . S
C541 O497 1.297 . S
C541 C525 1.476 . S
H542 O568 0.856 . S
H543 O571 0.854 . S
H544 C579 0.930 . S
H545 C580 0.930 . S
H546 C582 0.930 . S
H547 C583 0.930 . S
H548 C585 0.931 . S
H549 C586 0.930 . S
H550 C588 0.930 . S
H551 C589 0.929 . S
H552 C591 0.930 . S
H553 C592 0.931 . S
H554 C594 0.930 . S
H555 C595 0.929 . S
H556 C597 0.931 . S
H557 C598 0.930 . S
H558 C600 0.930 . S
H559 C601 0.916 1_556 S
H560 C603 0.930 . S
H561 C604 0.929 . S
H562 C606 0.931 . S
H563 C607 0.930 . S
H564 C609 0.929 . S
H565 C610 0.931 . S
H566 C612 0.930 . S
H567 C613 0.929 . S
O568 H542 0.856 . S
O568 C614 1.300 . S
O569 C614 1.209 . S
O570 C615 1.199 . S
O571 H543 0.854 . S
O571 C615 1.297 . S
C572 C573 1.404 . S
C572 C577 1.397 1_556 S
C572 C578 1.492 . S
C573 C572 1.404 . S
C573 C574 1.396 . S
C573 C584 1.492 . S
C574 C573 1.396 . S
C574 C575 1.415 . S
C574 C590 1.509 . S
C575 C574 1.415 . S
C575 C576 1.399 1_556 S
C575 C596 1.481 1_556 S
C576 C575 1.399 1_554 S
C576 C577 1.388 . S
C576 C602 1.490 . S
C577 C572 1.397 1_554 S
C577 C576 1.388 . S
C577 C608 1.519 . S
C578 C572 1.492 . S
C578 C579 1.363 . S
C578 C583 1.390 . S
C579 H544 0.930 . S
C579 C578 1.363 . S
C579 C580 1.372 . S
C580 H545 0.930 . S
C580 C579 1.372 . S
C580 C581 1.383 . S
C581 C580 1.383 . S
C581 C582 1.395 . S
C582 H546 0.930 . S
C582 C581 1.395 . S
C582 C583 1.362 . S
C583 H547 0.930 . S
C583 C578 1.390 . S
C583 C582 1.362 . S
C584 C573 1.492 . S
C584 C585 1.377 . S
C584 C589 1.397 . S
C585 H548 0.931 . S
C585 C584 1.377 . S
C585 C586 1.376 . S
C586 H549 0.930 . S
C586 C585 1.376 . S
C586 C587 1.376 . S
C587 C586 1.376 . S
C587 C588 1.378 . S
C587 C614 1.486 . S
C588 H550 0.930 . S
C588 C587 1.378 . S
C588 C589 1.376 . S
C589 H551 0.929 . S
C589 C584 1.397 . S
C589 C588 1.376 . S
C590 C574 1.509 . S
C590 C591 1.391 . S
C590 C595 1.386 . S
C591 H552 0.930 . S
C591 C590 1.391 . S
C591 C592 1.375 . S
C592 H553 0.931 . S
C592 C591 1.375 . S
C592 C593 1.375 . S
C593 C592 1.375 . S
C593 C594 1.361 . S
C594 H554 0.930 . S
C594 C593 1.361 . S
C594 C595 1.399 . S
C595 H555 0.929 . S
C595 C590 1.386 . S
C595 C594 1.399 . S
C596 C575 1.481 1_554 S
C596 C597 1.394 . S
C596 C601 1.368 . S
C597 H556 0.931 . S
C597 C596 1.394 . S
C597 C598 1.372 . S
C598 H557 0.930 . S
C598 C597 1.372 . S
C598 C599 1.397 . S
C599 C598 1.397 . S
C599 C600 1.390 . S
C599 C615 1.476 . S
C600 H558 0.930 . S
C600 C599 1.390 . S
C600 C601 1.374 . S
C601 H559 0.916 1_554 S
C601 C596 1.368 . S
C601 C600 1.374 . S
C602 C576 1.490 . S
C602 C603 1.380 . S
C602 C607 1.386 . S
C603 H560 0.930 . S
C603 C602 1.380 . S
C603 C604 1.381 . S
C604 H561 0.929 . S
C604 C603 1.381 . S
C604 C605 1.371 . S
C605 C604 1.371 . S
C605 C606 1.380 . S
C606 H562 0.931 . S
C606 C605 1.380 . S
C606 C607 1.387 . S
C607 H563 0.930 . S
C607 C602 1.386 . S
C607 C606 1.387 . S
C608 C577 1.519 . S
C608 C609 1.377 . S
C608 C613 1.361 . S
C609 H564 0.929 . S
C609 C608 1.377 . S
C609 C610 1.386 . S
C610 H565 0.931 . S
C610 C609 1.386 . S
C610 C611 1.363 . S
C611 C610 1.363 . S
C611 C612 1.385 . S
C612 H566 0.930 . S
C612 C611 1.385 . S
C612 C613 1.396 . S
C613 H567 0.929 . S
C613 C608 1.361 . S
C613 C612 1.396 . S
C614 O568 1.300 . S
C614 O569 1.209 . S
C614 C587 1.486 . S
C615 O570 1.199 . S
C615 O571 1.297 . S
C615 C599 1.476 . S
H616 O642 0.856 . S
H617 O645 0.854 . S
H618 C653 0.930 . S
H619 C654 0.930 . S
H620 C656 0.930 . S
H621 C657 0.930 . S
H622 C659 0.931 . S
H623 C660 0.930 . S
H624 C662 0.930 1_565 S
H625 C663 0.929 . S
H626 C665 0.930 . S
H627 C666 0.931 . S
H628 C668 0.930 . S
H629 C669 0.929 . S
H630 C671 0.931 . S
H631 C672 0.930 . S
H632 C674 0.930 . S
H633 C675 0.932 . S
H634 C677 0.930 . S
H635 C678 0.929 . S
H636 C680 0.931 . S
H637 C681 0.930 . S
H638 C683 0.929 . S
H639 C684 0.931 . S
H640 C686 0.930 . S
H641 C687 0.929 . S
O642 H616 0.856 . S
O642 C688 1.300 . S
O643 C688 1.209 1_565 S
O644 C689 1.199 . S
O645 H617 0.854 . S
O645 C689 1.297 . S
C646 C647 1.404 . S
C646 C651 1.397 . S
C646 C652 1.492 1_545 S
C647 C646 1.404 . S
C647 C648 1.396 . S
C647 C658 1.492 . S
C648 C647 1.396 . S
C648 C649 1.397 . S
C648 C664 1.509 . S
C649 C648 1.397 . S
C649 C650 1.412 . S
C649 C670 1.485 . S
C650 C649 1.412 . S
C650 C651 1.388 . S
C650 C676 1.490 . S
C651 C646 1.397 . S
C651 C650 1.388 . S
C651 C682 1.519 1_545 S
C652 C646 1.492 1_565 S
C652 C653 1.363 . S
C652 C657 1.390 . S
C653 H618 0.930 . S
C653 C652 1.363 . S
C653 C654 1.372 . S
C654 H619 0.930 . S
C654 C653 1.372 . S
C654 C655 1.383 . S
C655 C654 1.383 . S
C655 C656 1.395 . S
C656 H620 0.930 . S
C656 C655 1.395 . S
C656 C657 1.362 . S
C657 H621 0.930 . S
C657 C652 1.390 . S
C657 C656 1.362 . S
C658 C647 1.492 . S
C658 C659 1.377 . S
C658 C663 1.397 . S
C659 H622 0.931 . S
C659 C658 1.377 . S
C659 C660 1.376 . S
C660 H623 0.930 . S
C660 C659 1.376 . S
C660 C661 1.376 . S
C661 C660 1.376 . S
C661 C662 1.378 . S
C661 C688 1.486 . S
C662 H624 0.930 1_545 S
C662 C661 1.378 . S
C662 C663 1.376 . S
C663 H625 0.929 . S
C663 C658 1.397 . S
C663 C662 1.376 . S
C664 C648 1.509 . S
C664 C665 1.391 . S
C664 C669 1.386 . S
C665 H626 0.930 . S
C665 C664 1.391 . S
C665 C666 1.375 . S
C666 H627 0.931 . S
C666 C665 1.375 . S
C666 C667 1.375 . S
C667 C666 1.375 . S
C667 C668 1.361 . S
C668 H628 0.930 . S
C668 C667 1.361 . S
C668 C669 1.399 . S
C669 H629 0.929 . S
C669 C664 1.386 . S
C669 C668 1.399 . S
C670 C649 1.485 . S
C670 C671 1.394 . S
C670 C675 1.360 . S
C671 H630 0.931 . S
C671 C670 1.394 . S
C671 C672 1.372 . S
C672 H631 0.930 . S
C672 C671 1.372 . S
C672 C673 1.397 . S
C673 C672 1.397 . S
C673 C674 1.390 . S
C673 C689 1.476 . S
C674 H632 0.930 . S
C674 C673 1.390 . S
C674 C675 1.366 . S
C675 H633 0.932 . S
C675 C670 1.360 . S
C675 C674 1.366 . S
C676 C650 1.490 . S
C676 C677 1.380 . S
C676 C681 1.386 . S
C677 H634 0.930 . S
C677 C676 1.380 . S
C677 C678 1.381 . S
C678 H635 0.929 . S
C678 C677 1.381 . S
C678 C679 1.371 . S
C679 C678 1.371 . S
C679 C680 1.380 . S
C680 H636 0.931 . S
C680 C679 1.380 . S
C680 C681 1.387 . S
C681 H637 0.930 . S
C681 C676 1.386 . S
C681 C680 1.387 . S
C682 C651 1.519 1_565 S
C682 C683 1.377 . S
C682 C687 1.361 . S
C683 H638 0.929 . S
C683 C682 1.377 . S
C683 C684 1.386 . S
C684 H639 0.931 . S
C684 C683 1.386 . S
C684 C685 1.363 . S
C685 C684 1.363 . S
C685 C686 1.385 . S
C686 H640 0.930 . S
C686 C685 1.385 . S
C686 C687 1.396 . S
C687 H641 0.929 . S
C687 C682 1.361 . S
C687 C686 1.396 . S
C688 O642 1.300 . S
C688 O643 1.209 1_545 S
C688 C661 1.486 . S
C689 O644 1.199 . S
C689 O645 1.297 . S
C689 C673 1.476 . S
H690 O716 0.856 . S
H691 O719 0.854 . S
H692 C727 0.930 . S
H693 C728 0.930 . S
H694 C730 0.930 . S
H695 C731 0.930 . S
H696 C733 0.931 . S
H697 C734 0.930 . S
H698 C736 0.930 . S
H699 C737 0.929 . S
H700 C739 0.930 . S
H701 C740 0.931 . S
H702 C742 0.930 . S
H703 C743 0.929 . S
H704 C745 0.931 . S
H705 C746 0.930 . S
H706 C748 0.930 . S
H707 C749 0.932 . S
H708 C751 0.930 . S
H709 C752 0.929 . S
H710 C754 0.931 . S
H711 C755 0.930 . S
H712 C757 0.929 . S
H713 C758 0.931 . S
H714 C760 0.930 . S
H715 C761 0.929 . S
O716 H690 0.856 . S
O716 C762 1.300 . S
O717 C762 1.209 . S
O718 C763 1.199 . S
O719 H691 0.854 . S
O719 C763 1.297 . S
C720 C721 1.404 . S
C720 C725 1.397 1_556 S
C720 C726 1.492 . S
C721 C720 1.404 . S
C721 C722 1.396 . S
C721 C732 1.492 . S
C722 C721 1.396 . S
C722 C723 1.397 1_556 S
C722 C738 1.509 . S
C723 C722 1.397 1_554 S
C723 C724 1.412 . S
C723 C744 1.485 . S
C724 C723 1.412 . S
C724 C725 1.388 . S
C724 C750 1.490 . S
C725 C720 1.397 1_554 S
C725 C724 1.388 . S
C725 C756 1.519 . S
C726 C720 1.492 . S
C726 C727 1.363 . S
C726 C731 1.390 . S
C727 H692 0.930 . S
C727 C726 1.363 . S
C727 C728 1.372 . S
C728 H693 0.930 . S
C728 C727 1.372 . S
C728 C729 1.383 . S
C729 C728 1.383 . S
C729 C730 1.395 . S
C730 H694 0.930 . S
C730 C729 1.395 . S
C730 C731 1.362 . S
C731 H695 0.930 . S
C731 C726 1.390 . S
C731 C730 1.362 . S
C732 C721 1.492 . S
C732 C733 1.377 . S
C732 C737 1.397 . S
C733 H696 0.931 . S
C733 C732 1.377 . S
C733 C734 1.376 . S
C734 H697 0.930 . S
C734 C733 1.376 . S
C734 C735 1.376 . S
C735 C734 1.376 . S
C735 C736 1.378 . S
C735 C762 1.486 . S
C736 H698 0.930 . S
C736 C735 1.378 . S
C736 C737 1.376 . S
C737 H699 0.929 . S
C737 C732 1.397 . S
C737 C736 1.376 . S
C738 C722 1.509 . S
C738 C739 1.391 . S
C738 C743 1.386 . S
C739 H700 0.930 . S
C739 C738 1.391 . S
C739 C740 1.375 . S
C740 H701 0.931 . S
C740 C739 1.375 . S
C740 C741 1.375 . S
C741 C740 1.375 . S
C741 C742 1.361 . S
C742 H702 0.930 . S
C742 C741 1.361 . S
C742 C743 1.399 . S
C743 H703 0.929 . S
C743 C738 1.386 . S
C743 C742 1.399 . S
C744 C723 1.485 . S
C744 C745 1.394 . S
C744 C749 1.360 . S
C745 H704 0.931 . S
C745 C744 1.394 . S
C745 C746 1.372 . S
C746 H705 0.930 . S
C746 C745 1.372 . S
C746 C747 1.397 . S
C747 C746 1.397 . S
C747 C748 1.390 . S
C747 C763 1.476 . S
C748 H706 0.930 . S
C748 C747 1.390 . S
C748 C749 1.366 . S
C749 H707 0.932 . S
C749 C744 1.360 . S
C749 C748 1.366 . S
C750 C724 1.490 . S
C750 C751 1.380 . S
C750 C755 1.386 . S
C751 H708 0.930 . S
C751 C750 1.380 . S
C751 C752 1.381 . S
C752 H709 0.929 . S
C752 C751 1.381 . S
C752 C753 1.371 . S
C753 C752 1.371 . S
C753 C754 1.380 . S
C754 H710 0.931 . S
C754 C753 1.380 . S
C754 C755 1.387 . S
C755 H711 0.930 . S
C755 C750 1.386 . S
C755 C754 1.387 . S
C756 C725 1.519 . S
C756 C757 1.377 . S
C756 C761 1.361 . S
C757 H712 0.929 . S
C757 C756 1.377 . S
C757 C758 1.386 . S
C758 H713 0.931 . S
C758 C757 1.386 . S
C758 C759 1.363 . S
C759 C758 1.363 . S
C759 C760 1.385 . S
C760 H714 0.930 . S
C760 C759 1.385 . S
C760 C761 1.396 . S
C761 H715 0.929 . S
C761 C756 1.361 . S
C761 C760 1.396 . S
C762 O716 1.300 . S
C762 O717 1.209 . S
C762 C735 1.486 . S
C763 O718 1.199 . S
C763 O719 1.297 . S
C763 C747 1.476 . S
H764 C776 0.930 . S
H765 C778 0.930 . S
H766 C779 0.930 . S
H767 C783 0.959 . S
H768 C783 0.959 . S
H769 C783 0.961 . S
H770 C784 0.960 . S
H771 C784 0.961 . S
H772 C784 0.959 . S
H773 C787 0.929 . S
H774 C788 0.931 . S
H775 C790 0.930 . S
C776 H764 0.930 . S
C776 C777 1.399 . S
C776 C781 1.399 . S
C777 C776 1.399 . S
C777 C778 1.376 . S
C778 H765 0.930 . S
C778 C777 1.376 . S
C778 C779 1.388 . S
C779 H766 0.930 . S
C779 C778 1.388 . S
C779 C780 1.390 . S
C780 C779 1.390 . S
C780 C781 1.394 . S
C780 C786 1.465 . S
C781 C776 1.399 . S
C781 C780 1.394 . S
C781 C782 1.516 . S
C782 C781 1.516 . S
C782 C783 1.502 . S
C782 C784 1.561 . S
C782 C785 1.526 . S
C783 H767 0.959 . S
C783 H768 0.959 . S
C783 H769 0.961 . S
C783 C782 1.502 . S
C784 H770 0.960 . S
C784 H771 0.961 . S
C784 H772 0.959 . S
C784 C782 1.561 . S
C785 C782 1.526 . S
C785 C786 1.396 . S
C785 C790 1.390 . S
C786 C780 1.465 . S
C786 C785 1.396 . S
C786 C787 1.399 . S
C787 H773 0.929 . S
C787 C786 1.399 . S
C787 C788 1.385 . S
C788 H774 0.931 . S
C788 C787 1.385 . S
C788 C789 1.389 . S
C789 C788 1.389 . S
C789 C790 1.387 . S
C790 H775 0.930 . S
C790 C785 1.390 . S
C790 C789 1.387 . S
H791 C803 0.930 . S
H792 C805 0.930 . S
H793 C806 0.930 . S
H794 C810 0.959 . S
H795 C810 0.959 . S
H796 C810 0.961 . S
H797 C811 0.960 . S
H798 C811 0.961 . S
H799 C811 0.959 . S
H800 C814 0.929 . S
H801 C815 0.931 . S
H802 C817 0.930 . S
C803 H791 0.930 . S
C803 C804 1.399 . S
C803 C808 1.399 . S
C804 C803 1.399 . S
C804 C805 1.376 . S
C805 H792 0.930 . S
C805 C804 1.376 . S
C805 C806 1.388 . S
C806 H793 0.930 . S
C806 C805 1.388 . S
C806 C807 1.390 . S
C807 C806 1.390 . S
C807 C808 1.394 . S
C807 C813 1.465 . S
C808 C803 1.399 . S
C808 C807 1.394 . S
C808 C809 1.516 . S
C809 C808 1.516 . S
C809 C810 1.502 . S
C809 C811 1.561 . S
C809 C812 1.526 . S
C810 H794 0.959 . S
C810 H795 0.959 . S
C810 H796 0.961 . S
C810 C809 1.502 . S
C811 H797 0.960 . S
C811 H798 0.961 . S
C811 H799 0.959 . S
C811 C809 1.561 . S
C812 C809 1.526 . S
C812 C813 1.396 . S
C812 C817 1.390 . S
C813 C807 1.465 . S
C813 C812 1.396 . S
C813 C814 1.399 . S
C814 H800 0.929 . S
C814 C813 1.399 . S
C814 C815 1.385 . S
C815 H801 0.931 . S
C815 C814 1.385 . S
C815 C816 1.389 . S
C816 C815 1.389 . S
C816 C817 1.387 . S
C817 H802 0.930 . S
C817 C812 1.390 . S
C817 C816 1.387 . S
H818 C830 0.930 . S
H819 C832 0.930 . S
H820 C833 0.930 . S
H821 C837 0.959 . S
H822 C837 0.959 . S
H823 C837 0.961 . S
H824 C838 0.960 . S
H825 C838 0.961 . S
H826 C838 0.959 . S
H827 C841 0.929 . S
H828 C842 0.931 . S
H829 C844 0.930 . S
C830 H818 0.930 . S
C830 C831 1.399 . S
C830 C835 1.399 . S
C831 C830 1.399 . S
C831 C832 1.376 . S
C832 H819 0.930 . S
C832 C831 1.376 . S
C832 C833 1.388 . S
C833 H820 0.930 . S
C833 C832 1.388 . S
C833 C834 1.390 . S
C834 C833 1.390 . S
C834 C835 1.394 . S
C834 C840 1.465 . S
C835 C830 1.399 . S
C835 C834 1.394 . S
C835 C836 1.516 . S
C836 C835 1.516 . S
C836 C837 1.502 . S
C836 C838 1.561 . S
C836 C839 1.526 . S
C837 H821 0.959 . S
C837 H822 0.959 . S
C837 H823 0.961 . S
C837 C836 1.502 . S
C838 H824 0.960 . S
C838 H825 0.961 . S
C838 H826 0.959 . S
C838 C836 1.561 . S
C839 C836 1.526 . S
C839 C840 1.396 . S
C839 C844 1.390 . S
C840 C834 1.465 . S
C840 C839 1.396 . S
C840 C841 1.399 . S
C841 H827 0.929 . S
C841 C840 1.399 . S
C841 C842 1.385 . S
C842 H828 0.931 . S
C842 C841 1.385 . S
C842 C843 1.389 . S
C843 C842 1.389 . S
C843 C844 1.387 . S
C844 H829 0.930 . S
C844 C839 1.390 . S
C844 C843 1.387 . S
H845 C857 0.930 . S
H846 C859 0.930 . S
H847 C860 0.930 . S
H848 C864 0.959 . S
H849 C864 0.959 . S
H850 C864 0.961 . S
H851 C865 0.960 . S
H852 C865 0.961 . S
H853 C865 0.959 . S
H854 C868 0.929 . S
H855 C869 0.931 . S
H856 C871 0.930 . S
C857 H845 0.930 . S
C857 C858 1.399 . S
C857 C862 1.399 . S
C858 C857 1.399 . S
C858 C859 1.376 . S
C859 H846 0.930 . S
C859 C858 1.376 . S
C859 C860 1.388 . S
C860 H847 0.930 . S
C860 C859 1.388 . S
C860 C861 1.390 . S
C861 C860 1.390 . S
C861 C862 1.394 . S
C861 C867 1.465 . S
C862 C857 1.399 . S
C862 C861 1.394 . S
C862 C863 1.516 . S
C863 C862 1.516 . S
C863 C864 1.502 . S
C863 C865 1.561 . S
C863 C866 1.526 . S
C864 H848 0.959 . S
C864 H849 0.959 . S
C864 H850 0.961 . S
C864 C863 1.502 . S
C865 H851 0.960 . S
C865 H852 0.961 . S
C865 H853 0.959 . S
C865 C863 1.561 . S
C866 C863 1.526 . S
C866 C867 1.396 . S
C866 C871 1.390 . S
C867 C861 1.465 . S
C867 C866 1.396 . S
C867 C868 1.399 . S
C868 H854 0.929 . S
C868 C867 1.399 . S
C868 C869 1.385 . S
C869 H855 0.931 . S
C869 C868 1.385 . S
C869 C870 1.389 . S
C870 C869 1.389 . S
C870 C871 1.387 . S
C871 H856 0.930 . S
C871 C866 1.390 . S
C871 C870 1.387 . S
H872 C884 0.930 . S
H873 C886 0.930 . S
H874 C887 0.930 . S
H875 C891 0.959 . S
H876 C891 0.959 . S
H877 C891 0.961 . S
H878 C892 0.960 . S
H879 C892 0.961 . S
H880 C892 0.959 . S
H881 C895 0.929 . S
H882 C896 0.931 . S
H883 C898 0.930 . S
C884 H872 0.930 . S
C884 C885 1.399 . S
C884 C889 1.399 . S
C885 C884 1.399 . S
C885 C886 1.376 . S
C886 H873 0.930 . S
C886 C885 1.376 . S
C886 C887 1.388 . S
C887 H874 0.930 . S
C887 C886 1.388 . S
C887 C888 1.390 . S
C888 C887 1.390 . S
C888 C889 1.394 . S
C888 C894 1.465 . S
C889 C884 1.399 . S
C889 C888 1.394 . S
C889 C890 1.516 . S
C890 C889 1.516 . S
C890 C891 1.502 . S
C890 C892 1.561 . S
C890 C893 1.526 . S
C891 H875 0.959 . S
C891 H876 0.959 . S
C891 H877 0.961 . S
C891 C890 1.502 . S
C892 H878 0.960 . S
C892 H879 0.961 . S
C892 H880 0.959 . S
C892 C890 1.561 . S
C893 C890 1.526 . S
C893 C894 1.396 . S
C893 C898 1.390 . S
C894 C888 1.465 . S
C894 C893 1.396 . S
C894 C895 1.399 . S
C895 H881 0.929 . S
C895 C894 1.399 . S
C895 C896 1.385 . S
C896 H882 0.931 . S
C896 C895 1.385 . S
C896 C897 1.389 . S
C897 C896 1.389 . S
C897 C898 1.387 . S
C898 H883 0.930 . S
C898 C893 1.390 . S
C898 C897 1.387 . S
H899 C911 0.930 . S
H900 C913 0.930 . S
H901 C914 0.930 . S
H902 C918 0.959 . S
H903 C918 0.959 . S
H904 C918 0.961 . S
H905 C919 0.960 . S
H906 C919 0.961 . S
H907 C919 0.959 . S
H908 C922 0.929 . S
H909 C923 0.931 . S
H910 C925 0.930 . S
C911 H899 0.930 . S
C911 C912 1.399 . S
C911 C916 1.399 . S
C912 C911 1.399 . S
C912 C913 1.376 . S
C913 H900 0.930 . S
C913 C912 1.376 . S
C913 C914 1.388 . S
C914 H901 0.930 . S
C914 C913 1.388 . S
C914 C915 1.390 . S
C915 C914 1.390 . S
C915 C916 1.394 . S
C915 C921 1.465 . S
C916 C911 1.399 . S
C916 C915 1.394 . S
C916 C917 1.516 . S
C917 C916 1.516 . S
C917 C918 1.502 . S
C917 C919 1.561 . S
C917 C920 1.526 . S
C918 H902 0.959 . S
C918 H903 0.959 . S
C918 H904 0.961 . S
C918 C917 1.502 . S
C919 H905 0.960 . S
C919 H906 0.961 . S
C919 H907 0.959 . S
C919 C917 1.561 . S
C920 C917 1.526 . S
C920 C921 1.396 . S
C920 C925 1.390 . S
C921 C915 1.465 . S
C921 C920 1.396 . S
C921 C922 1.399 . S
C922 H908 0.929 . S
C922 C921 1.399 . S
C922 C923 1.385 . S
C923 H909 0.931 . S
C923 C922 1.385 . S
C923 C924 1.389 . S
C924 C923 1.389 . S
C924 C925 1.387 . S
C925 H910 0.930 . S
C925 C920 1.390 . S
C925 C924 1.387 . S
H926 C938 0.930 . S
H927 C940 0.930 . S
H928 C941 0.930 . S
H929 C945 0.959 . S
H930 C945 0.959 . S
H931 C945 0.961 . S
H932 C946 0.960 . S
H933 C946 0.961 . S
H934 C946 0.959 . S
H935 C949 0.929 . S
H936 C950 0.931 . S
H937 C952 0.930 . S
C938 H926 0.930 . S
C938 C939 1.399 . S
C938 C943 1.399 . S
C939 C938 1.399 . S
C939 C940 1.376 . S
C940 H927 0.930 . S
C940 C939 1.376 . S
C940 C941 1.388 . S
C941 H928 0.930 . S
C941 C940 1.388 . S
C941 C942 1.390 . S
C942 C941 1.390 . S
C942 C943 1.394 . S
C942 C948 1.465 . S
C943 C938 1.399 . S
C943 C942 1.394 . S
C943 C944 1.516 . S
C944 C943 1.516 . S
C944 C945 1.502 . S
C944 C946 1.561 . S
C944 C947 1.526 . S
C945 H929 0.959 . S
C945 H930 0.959 . S
C945 H931 0.961 . S
C945 C944 1.502 . S
C946 H932 0.960 . S
C946 H933 0.961 . S
C946 H934 0.959 . S
C946 C944 1.561 . S
C947 C944 1.526 . S
C947 C948 1.396 . S
C947 C952 1.390 . S
C948 C942 1.465 . S
C948 C947 1.396 . S
C948 C949 1.399 . S
C949 H935 0.929 . S
C949 C948 1.399 . S
C949 C950 1.385 . S
C950 H936 0.931 . S
C950 C949 1.385 . S
C950 C951 1.389 . S
C951 C950 1.389 . S
C951 C952 1.387 . S
C952 H937 0.930 . S
C952 C947 1.390 . S
C952 C951 1.387 . S
H953 C965 0.930 . S
H954 C967 0.930 . S
H955 C968 0.930 . S
H956 C972 0.959 . S
H957 C972 0.959 . S
H958 C972 0.961 . S
H959 C973 0.960 . S
H960 C973 0.961 . S
H961 C973 0.959 . S
H962 C976 0.929 . S
H963 C977 0.931 . S
H964 C979 0.930 . S
C965 H953 0.930 . S
C965 C966 1.399 . S
C965 C970 1.399 . S
C966 C965 1.399 . S
C966 C967 1.376 . S
C967 H954 0.930 . S
C967 C966 1.376 . S
C967 C968 1.388 . S
C968 H955 0.930 . S
C968 C967 1.388 . S
C968 C969 1.390 . S
C969 C968 1.390 . S
C969 C970 1.394 . S
C969 C975 1.465 . S
C970 C965 1.399 . S
C970 C969 1.394 . S
C970 C971 1.516 . S
C971 C970 1.516 . S
C971 C972 1.502 . S
C971 C973 1.561 . S
C971 C974 1.526 . S
C972 H956 0.959 . S
C972 H957 0.959 . S
C972 H958 0.961 . S
C972 C971 1.502 . S
C973 H959 0.960 . S
C973 H960 0.961 . S
C973 H961 0.959 . S
C973 C971 1.561 . S
C974 C971 1.526 . S
C974 C975 1.396 . S
C974 C979 1.390 . S
C975 C969 1.465 . S
C975 C974 1.396 . S
C975 C976 1.399 . S
C976 H962 0.929 . S
C976 C975 1.399 . S
C976 C977 1.385 . S
C977 H963 0.931 . S
C977 C976 1.385 . S
C977 C978 1.389 . S
C978 C977 1.389 . S
C978 C979 1.387 . S
C979 H964 0.930 . S
C979 C974 1.390 . S
C979 C978 1.387 . S
H980 C992 0.930 . S
H981 C994 0.930 . S
H982 C995 0.930 . S
H983 C999 0.959 . S
H984 C999 0.959 . S
H985 C999 0.961 . S
H986 C1000 0.960 . S
H987 C1000 0.961 . S
H988 C1000 0.959 . S
H989 C1003 0.929 . S
H990 C1004 0.931 . S
H991 C1006 0.930 . S
C992 H980 0.930 . S
C992 C993 1.399 . S
C992 C997 1.399 . S
C993 C992 1.399 . S
C993 C994 1.376 . S
C994 H981 0.930 . S
C994 C993 1.376 . S
C994 C995 1.388 . S
C995 H982 0.930 . S
C995 C994 1.388 . S
C995 C996 1.390 . S
C996 C995 1.390 . S
C996 C997 1.394 . S
C996 C1002 1.465 . S
C997 C992 1.399 . S
C997 C996 1.394 . S
C997 C998 1.516 . S
C998 C997 1.516 . S
C998 C999 1.502 . S
C998 C1000 1.561 . S
C998 C1001 1.526 . S
C999 H983 0.959 . S
C999 H984 0.959 . S
C999 H985 0.961 . S
C999 C998 1.502 . S
C1000 H986 0.960 . S
C1000 H987 0.961 . S
C1000 H988 0.959 . S
C1000 C998 1.561 . S
C1001 C998 1.526 . S
C1001 C1002 1.396 . S
C1001 C1006 1.390 . S
C1002 C996 1.465 . S
C1002 C1001 1.396 . S
C1002 C1003 1.399 . S
C1003 H989 0.929 . S
C1003 C1002 1.399 . S
C1003 C1004 1.385 . S
C1004 H990 0.931 . S
C1004 C1003 1.385 . S
C1004 C1005 1.389 . S
C1005 C1004 1.389 . S
C1005 C1006 1.387 . S
C1006 H991 0.930 . S
C1006 C1001 1.390 . S
C1006 C1005 1.387 . S
H1007 C1019 0.930 . S
H1008 C1021 0.930 . S
H1009 C1022 0.930 . S
H1010 C1026 0.959 . S
H1011 C1026 0.959 . S
H1012 C1026 0.961 . S
H1013 C1027 0.960 . S
H1014 C1027 0.961 . S
H1015 C1027 0.959 . S
H1016 C1030 0.929 . S
H1017 C1031 0.931 . S
H1018 C1033 0.930 . S
C1019 H1007 0.930 . S
C1019 C1020 1.399 . S
C1019 C1024 1.399 . S
C1020 C1019 1.399 . S
C1020 C1021 1.376 . S
C1021 H1008 0.930 . S
C1021 C1020 1.376 . S
C1021 C1022 1.388 . S
C1022 H1009 0.930 . S
C1022 C1021 1.388 . S
C1022 C1023 1.390 . S
C1023 C1022 1.390 . S
C1023 C1024 1.394 . S
C1023 C1029 1.465 . S
C1024 C1019 1.399 . S
C1024 C1023 1.394 . S
C1024 C1025 1.516 . S
C1025 C1024 1.516 . S
C1025 C1026 1.502 . S
C1025 C1027 1.561 . S
C1025 C1028 1.526 . S
C1026 H1010 0.959 . S
C1026 H1011 0.959 . S
C1026 H1012 0.961 . S
C1026 C1025 1.502 . S
C1027 H1013 0.960 . S
C1027 H1014 0.961 . S
C1027 H1015 0.959 . S
C1027 C1025 1.561 . S
C1028 C1025 1.526 . S
C1028 C1029 1.396 . S
C1028 C1033 1.390 . S
C1029 C1023 1.465 . S
C1029 C1028 1.396 . S
C1029 C1030 1.399 . S
C1030 H1016 0.929 . S
C1030 C1029 1.399 . S
C1030 C1031 1.385 . S
C1031 H1017 0.931 . S
C1031 C1030 1.385 . S
C1031 C1032 1.389 . S
C1032 C1031 1.389 . S
C1032 C1033 1.387 . S
C1033 H1018 0.930 . S
C1033 C1028 1.390 . S
C1033 C1032 1.387 . S
H1034 C1046 0.930 . S
H1035 C1048 0.930 . S
H1036 C1049 0.930 . S
H1037 C1053 0.959 . S
H1038 C1053 0.959 . S
H1039 C1053 0.961 . S
H1040 C1054 0.960 . S
H1041 C1054 0.961 . S
H1042 C1054 0.959 . S
H1043 C1057 0.929 . S
H1044 C1058 0.931 . S
H1045 C1060 0.930 . S
C1046 H1034 0.930 . S
C1046 C1047 1.399 . S
C1046 C1051 1.399 . S
C1047 C1046 1.399 . S
C1047 C1048 1.376 . S
C1048 H1035 0.930 . S
C1048 C1047 1.376 . S
C1048 C1049 1.388 . S
C1049 H1036 0.930 . S
C1049 C1048 1.388 . S
C1049 C1050 1.390 . S
C1050 C1049 1.390 . S
C1050 C1051 1.394 . S
C1050 C1056 1.465 . S
C1051 C1046 1.399 . S
C1051 C1050 1.394 . S
C1051 C1052 1.516 . S
C1052 C1051 1.516 . S
C1052 C1053 1.502 . S
C1052 C1054 1.561 . S
C1052 C1055 1.526 . S
C1053 H1037 0.959 . S
C1053 H1038 0.959 . S
C1053 H1039 0.961 . S
C1053 C1052 1.502 . S
C1054 H1040 0.960 . S
C1054 H1041 0.961 . S
C1054 H1042 0.959 . S
C1054 C1052 1.561 . S
C1055 C1052 1.526 . S
C1055 C1056 1.396 . S
C1055 C1060 1.390 . S
C1056 C1050 1.465 . S
C1056 C1055 1.396 . S
C1056 C1057 1.399 . S
C1057 H1043 0.929 . S
C1057 C1056 1.399 . S
C1057 C1058 1.385 . S
C1058 H1044 0.931 . S
C1058 C1057 1.385 . S
C1058 C1059 1.389 . S
C1059 C1058 1.389 . S
C1059 C1060 1.387 . S
C1060 H1045 0.930 . S
C1060 C1055 1.390 . S
C1060 C1059 1.387 . S
H1061 C1073 0.930 . S
H1062 C1075 0.930 . S
H1063 C1076 0.930 . S
H1064 C1080 0.959 . S
H1065 C1080 0.959 . S
H1066 C1080 0.961 . S
H1067 C1081 0.960 . S
H1068 C1081 0.961 . S
H1069 C1081 0.959 . S
H1070 C1084 0.929 . S
H1071 C1085 0.931 . S
H1072 C1087 0.930 . S
C1073 H1061 0.930 . S
C1073 C1074 1.399 . S
C1073 C1078 1.399 . S
C1074 C1073 1.399 . S
C1074 C1075 1.376 . S
C1075 H1062 0.930 . S
C1075 C1074 1.376 . S
C1075 C1076 1.388 . S
C1076 H1063 0.930 . S
C1076 C1075 1.388 . S
C1076 C1077 1.390 . S
C1077 C1076 1.390 . S
C1077 C1078 1.394 . S
C1077 C1083 1.465 . S
C1078 C1073 1.399 . S
C1078 C1077 1.394 . S
C1078 C1079 1.516 . S
C1079 C1078 1.516 . S
C1079 C1080 1.502 . S
C1079 C1081 1.561 . S
C1079 C1082 1.526 . S
C1080 H1064 0.959 . S
C1080 H1065 0.959 . S
C1080 H1066 0.961 . S
C1080 C1079 1.502 . S
C1081 H1067 0.960 . S
C1081 H1068 0.961 . S
C1081 H1069 0.959 . S
C1081 C1079 1.561 . S
C1082 C1079 1.526 . S
C1082 C1083 1.396 . S
C1082 C1087 1.390 . S
C1083 C1077 1.465 . S
C1083 C1082 1.396 . S
C1083 C1084 1.399 . S
C1084 H1070 0.929 . S
C1084 C1083 1.399 . S
C1084 C1085 1.385 . S
C1085 H1071 0.931 . S
C1085 C1084 1.385 . S
C1085 C1086 1.389 . S
C1086 C1085 1.389 . S
C1086 C1087 1.387 . S
C1087 H1072 0.930 . S
C1087 C1082 1.390 . S
C1087 C1086 1.387 . S
H1088 C1100 0.930 . S
H1089 C1102 0.930 . S
H1090 C1103 0.930 . S
H1091 C1107 0.959 . S
H1092 C1107 0.959 . S
H1093 C1107 0.961 . S
H1094 C1108 0.960 . S
H1095 C1108 0.961 . S
H1096 C1108 0.959 . S
H1097 C1111 0.929 . S
H1098 C1112 0.931 . S
H1099 C1114 0.930 . S
C1100 H1088 0.930 . S
C1100 C1101 1.399 . S
C1100 C1105 1.399 . S
C1101 C1100 1.399 . S
C1101 C1102 1.376 . S
C1102 H1089 0.930 . S
C1102 C1101 1.376 . S
C1102 C1103 1.388 . S
C1103 H1090 0.930 . S
C1103 C1102 1.388 . S
C1103 C1104 1.390 . S
C1104 C1103 1.390 . S
C1104 C1105 1.394 . S
C1104 C1110 1.465 . S
C1105 C1100 1.399 . S
C1105 C1104 1.394 . S
C1105 C1106 1.516 . S
C1106 C1105 1.516 . S
C1106 C1107 1.502 . S
C1106 C1108 1.561 . S
C1106 C1109 1.526 . S
C1107 H1091 0.959 . S
C1107 H1092 0.959 . S
C1107 H1093 0.961 . S
C1107 C1106 1.502 . S
C1108 H1094 0.960 . S
C1108 H1095 0.961 . S
C1108 H1096 0.959 . S
C1108 C1106 1.561 . S
C1109 C1106 1.526 . S
C1109 C1110 1.396 . S
C1109 C1114 1.390 . S
C1110 C1104 1.465 . S
C1110 C1109 1.396 . S
C1110 C1111 1.399 . S
C1111 H1097 0.929 . S
C1111 C1110 1.399 . S
C1111 C1112 1.385 . S
C1112 H1098 0.931 . S
C1112 C1111 1.385 . S
C1112 C1113 1.389 . S
C1113 C1112 1.389 . S
C1113 C1114 1.387 . S
C1114 H1099 0.930 . S
C1114 C1109 1.390 . S
C1114 C1113 1.387 . S
H1115 C1127 0.930 . S
H1116 C1129 0.930 . S
H1117 C1130 0.930 . S
H1118 C1134 0.959 . S
H1119 C1134 0.959 . S
H1120 C1134 0.961 . S
H1121 C1135 0.960 . S
H1122 C1135 0.961 . S
H1123 C1135 0.959 . S
H1124 C1138 0.929 . S
H1125 C1139 0.931 . S
H1126 C1141 0.930 . S
C1127 H1115 0.930 . S
C1127 C1128 1.399 . S
C1127 C1132 1.399 . S
C1128 C1127 1.399 . S
C1128 C1129 1.376 . S
C1129 H1116 0.930 . S
C1129 C1128 1.376 . S
C1129 C1130 1.388 . S
C1130 H1117 0.930 . S
C1130 C1129 1.388 . S
C1130 C1131 1.390 . S
C1131 C1130 1.390 . S
C1131 C1132 1.394 . S
C1131 C1137 1.465 . S
C1132 C1127 1.399 . S
C1132 C1131 1.394 . S
C1132 C1133 1.516 . S
C1133 C1132 1.516 . S
C1133 C1134 1.502 . S
C1133 C1135 1.561 . S
C1133 C1136 1.526 . S
C1134 H1118 0.959 . S
C1134 H1119 0.959 . S
C1134 H1120 0.961 . S
C1134 C1133 1.502 . S
C1135 H1121 0.960 . S
C1135 H1122 0.961 . S
C1135 H1123 0.959 . S
C1135 C1133 1.561 . S
C1136 C1133 1.526 . S
C1136 C1137 1.396 . S
C1136 C1141 1.390 . S
C1137 C1131 1.465 . S
C1137 C1136 1.396 . S
C1137 C1138 1.399 . S
C1138 H1124 0.929 . S
C1138 C1137 1.399 . S
C1138 C1139 1.385 . S
C1139 H1125 0.931 . S
C1139 C1138 1.385 . S
C1139 C1140 1.389 . S
C1140 C1139 1.389 . S
C1140 C1141 1.387 . S
C1141 H1126 0.930 . S
C1141 C1136 1.390 . S
C1141 C1140 1.387 . S
H1142 C1154 0.930 . S
H1143 C1156 0.930 . S
H1144 C1157 0.930 . S
H1145 C1161 0.959 . S
H1146 C1161 0.959 . S
H1147 C1161 0.961 . S
H1148 C1162 0.960 . S
H1149 C1162 0.961 . S
H1150 C1162 0.959 . S
H1151 C1165 0.929 . S
H1152 C1166 0.931 . S
H1153 C1168 0.930 . S
C1154 H1142 0.930 . S
C1154 C1155 1.399 . S
C1154 C1159 1.399 . S
C1155 C1154 1.399 . S
C1155 C1156 1.376 . S
C1156 H1143 0.930 . S
C1156 C1155 1.376 . S
C1156 C1157 1.388 . S
C1157 H1144 0.930 . S
C1157 C1156 1.388 . S
C1157 C1158 1.390 . S
C1158 C1157 1.390 . S
C1158 C1159 1.394 . S
C1158 C1164 1.465 . S
C1159 C1154 1.399 . S
C1159 C1158 1.394 . S
C1159 C1160 1.516 . S
C1160 C1159 1.516 . S
C1160 C1161 1.502 . S
C1160 C1162 1.561 . S
C1160 C1163 1.526 . S
C1161 H1145 0.959 . S
C1161 H1146 0.959 . S
C1161 H1147 0.961 . S
C1161 C1160 1.502 . S
C1162 H1148 0.960 . S
C1162 H1149 0.961 . S
C1162 H1150 0.959 . S
C1162 C1160 1.561 . S
C1163 C1160 1.526 . S
C1163 C1164 1.396 . S
C1163 C1168 1.390 . S
C1164 C1158 1.465 . S
C1164 C1163 1.396 . S
C1164 C1165 1.399 . S
C1165 H1151 0.929 . S
C1165 C1164 1.399 . S
C1165 C1166 1.385 . S
C1166 H1152 0.931 . S
C1166 C1165 1.385 . S
C1166 C1167 1.389 . S
C1167 C1166 1.389 . S
C1167 C1168 1.387 . S
C1168 H1153 0.930 . S
C1168 C1163 1.390 . S
C1168 C1167 1.387 . S
H1169 C1181 0.930 . S
H1170 C1183 0.930 . S
H1171 C1184 0.930 . S
H1172 C1188 0.959 . S
H1173 C1188 0.959 . S
H1174 C1188 0.961 . S
H1175 C1189 0.960 . S
H1176 C1189 0.961 . S
H1177 C1189 0.959 . S
H1178 C1192 0.929 . S
H1179 C1193 0.931 . S
H1180 C1195 0.930 . S
C1181 H1169 0.930 . S
C1181 C1182 1.399 . S
C1181 C1186 1.399 . S
C1182 C1181 1.399 . S
C1182 C1183 1.376 . S
C1183 H1170 0.930 . S
C1183 C1182 1.376 . S
C1183 C1184 1.388 . S
C1184 H1171 0.930 . S
C1184 C1183 1.388 . S
C1184 C1185 1.390 . S
C1185 C1184 1.390 . S
C1185 C1186 1.394 . S
C1185 C1191 1.465 . S
C1186 C1181 1.399 . S
C1186 C1185 1.394 . S
C1186 C1187 1.516 . S
C1187 C1186 1.516 . S
C1187 C1188 1.502 . S
C1187 C1189 1.561 . S
C1187 C1190 1.526 . S
C1188 H1172 0.959 . S
C1188 H1173 0.959 . S
C1188 H1174 0.961 . S
C1188 C1187 1.502 . S
C1189 H1175 0.960 . S
C1189 H1176 0.961 . S
C1189 H1177 0.959 . S
C1189 C1187 1.561 . S
C1190 C1187 1.526 . S
C1190 C1191 1.396 . S
C1190 C1195 1.390 . S
C1191 C1185 1.465 . S
C1191 C1190 1.396 . S
C1191 C1192 1.399 . S
C1192 H1178 0.929 . S
C1192 C1191 1.399 . S
C1192 C1193 1.385 . S
C1193 H1179 0.931 . S
C1193 C1192 1.385 . S
C1193 C1194 1.389 . S
C1194 C1193 1.389 . S
C1194 C1195 1.387 . S
C1195 H1180 0.930 . S
C1195 C1190 1.390 . S
C1195 C1194 1.387 . S
H1196 C1208 0.930 . S
H1197 C1210 0.930 . S
H1198 C1211 0.930 . S
H1199 C1215 0.959 . S
H1200 C1215 0.959 . S
H1201 C1215 0.961 . S
H1202 C1216 0.960 . S
H1203 C1216 0.961 . S
H1204 C1216 0.959 . S
H1205 C1219 0.929 . S
H1206 C1220 0.931 . S
H1207 C1222 0.930 . S
C1208 H1196 0.930 . S
C1208 C1209 1.399 . S
C1208 C1213 1.399 . S
C1209 C1208 1.399 . S
C1209 C1210 1.376 . S
C1210 H1197 0.930 . S
C1210 C1209 1.376 . S
C1210 C1211 1.388 . S
C1211 H1198 0.930 . S
C1211 C1210 1.388 . S
C1211 C1212 1.390 . S
C1212 C1211 1.390 . S
C1212 C1213 1.394 . S
C1212 C1218 1.465 . S
C1213 C1208 1.399 . S
C1213 C1212 1.394 . S
C1213 C1214 1.516 . S
C1214 C1213 1.516 . S
C1214 C1215 1.502 . S
C1214 C1216 1.561 . S
C1214 C1217 1.526 . S
C1215 H1199 0.959 . S
C1215 H1200 0.959 . S
C1215 H1201 0.961 . S
C1215 C1214 1.502 . S
C1216 H1202 0.960 . S
C1216 H1203 0.961 . S
C1216 H1204 0.959 . S
C1216 C1214 1.561 . S
C1217 C1214 1.526 . S
C1217 C1218 1.396 . S
C1217 C1222 1.390 . S
C1218 C1212 1.465 . S
C1218 C1217 1.396 . S
C1218 C1219 1.399 . S
C1219 H1205 0.929 . S
C1219 C1218 1.399 . S
C1219 C1220 1.385 . S
C1220 H1206 0.931 . S
C1220 C1219 1.385 . S
C1220 C1221 1.389 . S
C1221 C1220 1.389 . S
C1221 C1222 1.387 . S
C1222 H1207 0.930 . S
C1222 C1217 1.390 . S
C1222 C1221 1.387 . S
H1223 C1235 0.930 . S
H1224 C1237 0.930 . S
H1225 C1238 0.930 . S
H1226 C1242 0.959 . S
H1227 C1242 0.959 . S
H1228 C1242 0.961 . S
H1229 C1243 0.960 . S
H1230 C1243 0.961 . S
H1231 C1243 0.959 . S
H1232 C1246 0.929 . S
H1233 C1247 0.931 . S
H1234 C1249 0.930 . S
C1235 H1223 0.930 . S
C1235 C1236 1.399 . S
C1235 C1240 1.399 . S
C1236 C1235 1.399 . S
C1236 C1237 1.376 . S
C1237 H1224 0.930 . S
C1237 C1236 1.376 . S
C1237 C1238 1.388 . S
C1238 H1225 0.930 . S
C1238 C1237 1.388 . S
C1238 C1239 1.390 . S
C1239 C1238 1.390 . S
C1239 C1240 1.394 . S
C1239 C1245 1.465 . S
C1240 C1235 1.399 . S
C1240 C1239 1.394 . S
C1240 C1241 1.516 . S
C1241 C1240 1.516 . S
C1241 C1242 1.502 . S
C1241 C1243 1.561 . S
C1241 C1244 1.526 . S
C1242 H1226 0.959 . S
C1242 H1227 0.959 . S
C1242 H1228 0.961 . S
C1242 C1241 1.502 . S
C1243 H1229 0.960 . S
C1243 H1230 0.961 . S
C1243 H1231 0.959 . S
C1243 C1241 1.561 . S
C1244 C1241 1.526 . S
C1244 C1245 1.396 . S
C1244 C1249 1.390 . S
C1245 C1239 1.465 . S
C1245 C1244 1.396 . S
C1245 C1246 1.399 . S
C1246 H1232 0.929 . S
C1246 C1245 1.399 . S
C1246 C1247 1.385 . S
C1247 H1233 0.931 . S
C1247 C1246 1.385 . S
C1247 C1248 1.389 . S
C1248 C1247 1.389 . S
C1248 C1249 1.387 . S
C1249 H1234 0.930 . S
C1249 C1244 1.390 . S
C1249 C1248 1.387 . S
H1250 C1262 0.930 . S
H1251 C1264 0.930 . S
H1252 C1265 0.930 . S
H1253 C1269 0.959 . S
H1254 C1269 0.959 . S
H1255 C1269 0.961 . S
H1256 C1270 0.960 . S
H1257 C1270 0.961 . S
H1258 C1270 0.959 . S
H1259 C1273 0.929 . S
H1260 C1274 0.931 . S
H1261 C1276 0.930 . S
C1262 H1250 0.930 . S
C1262 C1263 1.399 . S
C1262 C1267 1.399 . S
C1263 C1262 1.399 . S
C1263 C1264 1.376 . S
C1264 H1251 0.930 . S
C1264 C1263 1.376 . S
C1264 C1265 1.388 . S
C1265 H1252 0.930 . S
C1265 C1264 1.388 . S
C1265 C1266 1.390 . S
C1266 C1265 1.390 . S
C1266 C1267 1.394 . S
C1266 C1272 1.465 . S
C1267 C1262 1.399 . S
C1267 C1266 1.394 . S
C1267 C1268 1.516 . S
C1268 C1267 1.516 . S
C1268 C1269 1.502 . S
C1268 C1270 1.561 . S
C1268 C1271 1.526 . S
C1269 H1253 0.959 . S
C1269 H1254 0.959 . S
C1269 H1255 0.961 . S
C1269 C1268 1.502 . S
C1270 H1256 0.960 . S
C1270 H1257 0.961 . S
C1270 H1258 0.959 . S
C1270 C1268 1.561 . S
C1271 C1268 1.526 . S
C1271 C1272 1.396 . S
C1271 C1276 1.390 . S
C1272 C1266 1.465 . S
C1272 C1271 1.396 . S
C1272 C1273 1.399 . S
C1273 H1259 0.929 . S
C1273 C1272 1.399 . S
C1273 C1274 1.385 . S
C1274 H1260 0.931 . S
C1274 C1273 1.385 . S
C1274 C1275 1.389 . S
C1275 C1274 1.389 . S
C1275 C1276 1.387 . S
C1276 H1261 0.930 . S
C1276 C1271 1.390 . S
C1276 C1275 1.387 . S
H1277 C1289 0.930 . S
H1278 C1291 0.930 . S
H1279 C1292 0.930 . S
H1280 C1296 0.959 . S
H1281 C1296 0.959 . S
H1282 C1296 0.961 . S
H1283 C1297 0.960 . S
H1284 C1297 0.961 . S
H1285 C1297 0.959 . S
H1286 C1300 0.929 . S
H1287 C1301 0.931 . S
H1288 C1303 0.930 . S
C1289 H1277 0.930 . S
C1289 C1290 1.399 . S
C1289 C1294 1.399 . S
C1290 C1289 1.399 . S
C1290 C1291 1.376 . S
C1291 H1278 0.930 . S
C1291 C1290 1.376 . S
C1291 C1292 1.388 . S
C1292 H1279 0.930 . S
C1292 C1291 1.388 . S
C1292 C1293 1.390 . S
C1293 C1292 1.390 . S
C1293 C1294 1.394 . S
C1293 C1299 1.465 . S
C1294 C1289 1.399 . S
C1294 C1293 1.394 . S
C1294 C1295 1.516 . S
C1295 C1294 1.516 . S
C1295 C1296 1.502 . S
C1295 C1297 1.561 . S
C1295 C1298 1.526 . S
C1296 H1280 0.959 . S
C1296 H1281 0.959 . S
C1296 H1282 0.961 . S
C1296 C1295 1.502 . S
C1297 H1283 0.960 . S
C1297 H1284 0.961 . S
C1297 H1285 0.959 . S
C1297 C1295 1.561 . S
C1298 C1295 1.526 . S
C1298 C1299 1.396 . S
C1298 C1303 1.390 . S
C1299 C1293 1.465 . S
C1299 C1298 1.396 . S
C1299 C1300 1.399 . S
C1300 H1286 0.929 . S
C1300 C1299 1.399 . S
C1300 C1301 1.385 . S
C1301 H1287 0.931 . S
C1301 C1300 1.385 . S
C1301 C1302 1.389 . S
C1302 C1301 1.389 . S
C1302 C1303 1.387 . S
C1303 H1288 0.930 . S
C1303 C1298 1.390 . S
C1303 C1302 1.387 . S
H1304 C1316 0.930 . S
H1305 C1318 0.930 . S
H1306 C1319 0.930 . S
H1307 C1323 0.959 . S
H1308 C1323 0.959 . S
H1309 C1323 0.961 . S
H1310 C1324 0.960 . S
H1311 C1324 0.961 . S
H1312 C1324 0.959 . S
H1313 C1327 0.929 . S
H1314 C1328 0.931 . S
H1315 C1330 0.930 . S
C1316 H1304 0.930 . S
C1316 C1317 1.399 . S
C1316 C1321 1.399 . S
C1317 C1316 1.399 . S
C1317 C1318 1.376 . S
C1318 H1305 0.930 . S
C1318 C1317 1.376 . S
C1318 C1319 1.388 . S
C1319 H1306 0.930 . S
C1319 C1318 1.388 . S
C1319 C1320 1.390 . S
C1320 C1319 1.390 . S
C1320 C1321 1.394 . S
C1320 C1326 1.465 . S
C1321 C1316 1.399 . S
C1321 C1320 1.394 . S
C1321 C1322 1.516 . S
C1322 C1321 1.516 . S
C1322 C1323 1.502 . S
C1322 C1324 1.561 . S
C1322 C1325 1.526 . S
C1323 H1307 0.959 . S
C1323 H1308 0.959 . S
C1323 H1309 0.961 . S
C1323 C1322 1.502 . S
C1324 H1310 0.960 . S
C1324 H1311 0.961 . S
C1324 H1312 0.959 . S
C1324 C1322 1.561 . S
C1325 C1322 1.526 . S
C1325 C1326 1.396 . S
C1325 C1330 1.390 . S
C1326 C1320 1.465 . S
C1326 C1325 1.396 . S
C1326 C1327 1.399 . S
C1327 H1313 0.929 . S
C1327 C1326 1.399 . S
C1327 C1328 1.385 . S
C1328 H1314 0.931 . S
C1328 C1327 1.385 . S
C1328 C1329 1.389 . S
C1329 C1328 1.389 . S
C1329 C1330 1.387 . S
C1330 H1315 0.930 . S
C1330 C1325 1.390 . S
C1330 C1329 1.387 . S
H1331 C1343 0.930 . S
H1332 C1345 0.930 . S
H1333 C1346 0.930 . S
H1334 C1350 0.959 . S
H1335 C1350 0.959 . S
H1336 C1350 0.961 . S
H1337 C1351 0.960 . S
H1338 C1351 0.961 . S
H1339 C1351 0.959 . S
H1340 C1354 0.929 . S
H1341 C1355 0.931 . S
H1342 C1357 0.930 . S
C1343 H1331 0.930 . S
C1343 C1344 1.399 . S
C1343 C1348 1.399 . S
C1344 C1343 1.399 . S
C1344 C1345 1.376 . S
C1345 H1332 0.930 . S
C1345 C1344 1.376 . S
C1345 C1346 1.388 . S
C1346 H1333 0.930 . S
C1346 C1345 1.388 . S
C1346 C1347 1.390 . S
C1347 C1346 1.390 . S
C1347 C1348 1.394 . S
C1347 C1353 1.465 . S
C1348 C1343 1.399 . S
C1348 C1347 1.394 . S
C1348 C1349 1.516 . S
C1349 C1348 1.516 . S
C1349 C1350 1.502 . S
C1349 C1351 1.561 . S
C1349 C1352 1.526 . S
C1350 H1334 0.959 . S
C1350 H1335 0.959 . S
C1350 H1336 0.961 . S
C1350 C1349 1.502 . S
C1351 H1337 0.960 . S
C1351 H1338 0.961 . S
C1351 H1339 0.959 . S
C1351 C1349 1.561 . S
C1352 C1349 1.526 . S
C1352 C1353 1.396 . S
C1352 C1357 1.390 . S
C1353 C1347 1.465 . S
C1353 C1352 1.396 . S
C1353 C1354 1.399 . S
C1354 H1340 0.929 . S
C1354 C1353 1.399 . S
C1354 C1355 1.385 . S
C1355 H1341 0.931 . S
C1355 C1354 1.385 . S
C1355 C1356 1.389 . S
C1356 C1355 1.389 . S
C1356 C1357 1.387 . S
C1357 H1342 0.930 . S
C1357 C1352 1.390 . S
C1357 C1356 1.387 . S
H1358 C1370 0.930 . S
H1359 C1372 0.930 . S
H1360 C1373 0.930 . S
H1361 C1377 0.959 . S
H1362 C1377 0.959 . S
H1363 C1377 0.961 . S
H1364 C1378 0.960 . S
H1365 C1378 0.961 . S
H1366 C1378 0.959 . S
H1367 C1381 0.929 . S
H1368 C1382 0.931 . S
H1369 C1384 0.930 . S
C1370 H1358 0.930 . S
C1370 C1371 1.399 . S
C1370 C1375 1.399 . S
C1371 C1370 1.399 . S
C1371 C1372 1.376 . S
C1372 H1359 0.930 . S
C1372 C1371 1.376 . S
C1372 C1373 1.388 . S
C1373 H1360 0.930 . S
C1373 C1372 1.388 . S
C1373 C1374 1.390 . S
C1374 C1373 1.390 . S
C1374 C1375 1.394 . S
C1374 C1380 1.465 . S
C1375 C1370 1.399 . S
C1375 C1374 1.394 . S
C1375 C1376 1.516 . S
C1376 C1375 1.516 . S
C1376 C1377 1.502 . S
C1376 C1378 1.561 . S
C1376 C1379 1.526 . S
C1377 H1361 0.959 . S
C1377 H1362 0.959 . S
C1377 H1363 0.961 . S
C1377 C1376 1.502 . S
C1378 H1364 0.960 . S
C1378 H1365 0.961 . S
C1378 H1366 0.959 . S
C1378 C1376 1.561 . S
C1379 C1376 1.526 . S
C1379 C1380 1.396 . S
C1379 C1384 1.390 . S
C1380 C1374 1.465 . S
C1380 C1379 1.396 . S
C1380 C1381 1.399 . S
C1381 H1367 0.929 . S
C1381 C1380 1.399 . S
C1381 C1382 1.385 . S
C1382 H1368 0.931 . S
C1382 C1381 1.385 . S
C1382 C1383 1.389 . S
C1383 C1382 1.389 . S
C1383 C1384 1.387 . S
C1384 H1369 0.930 . S
C1384 C1379 1.390 . S
C1384 C1383 1.387 . S
H1385 C1397 0.930 . S
H1386 C1399 0.930 . S
H1387 C1400 0.930 . S
H1388 C1404 0.959 . S
H1389 C1404 0.959 . S
H1390 C1404 0.961 . S
H1391 C1405 0.960 . S
H1392 C1405 0.961 . S
H1393 C1405 0.959 . S
H1394 C1408 0.929 . S
H1395 C1409 0.931 . S
H1396 C1411 0.930 . S
C1397 H1385 0.930 . S
C1397 C1398 1.399 . S
C1397 C1402 1.399 . S
C1398 C1397 1.399 . S
C1398 C1399 1.376 . S
C1399 H1386 0.930 . S
C1399 C1398 1.376 . S
C1399 C1400 1.388 . S
C1400 H1387 0.930 . S
C1400 C1399 1.388 . S
C1400 C1401 1.390 . S
C1401 C1400 1.390 . S
C1401 C1402 1.394 . S
C1401 C1407 1.465 . S
C1402 C1397 1.399 . S
C1402 C1401 1.394 . S
C1402 C1403 1.516 . S
C1403 C1402 1.516 . S
C1403 C1404 1.502 . S
C1403 C1405 1.561 . S
C1403 C1406 1.526 . S
C1404 H1388 0.959 . S
C1404 H1389 0.959 . S
C1404 H1390 0.961 . S
C1404 C1403 1.502 . S
C1405 H1391 0.960 . S
C1405 H1392 0.961 . S
C1405 H1393 0.959 . S
C1405 C1403 1.561 . S
C1406 C1403 1.526 . S
C1406 C1407 1.396 . S
C1406 C1411 1.390 . S
C1407 C1401 1.465 . S
C1407 C1406 1.396 . S
C1407 C1408 1.399 . S
C1408 H1394 0.929 . S
C1408 C1407 1.399 . S
C1408 C1409 1.385 . S
C1409 H1395 0.931 . S
C1409 C1408 1.385 . S
C1409 C1410 1.389 . S
C1410 C1409 1.389 . S
C1410 C1411 1.387 . S
C1411 H1396 0.930 . S
C1411 C1406 1.390 . S
C1411 C1410 1.387 . S
C789 C359 1.477 . S
C777 C15 1.517 . S
C816 C463 2.029 . S
C804 C55 2.037 . S
C843 C383 1.378 . S
C831 C101 1.476 . S
C870 C445 1.493 . S
C858 C141 1.414 . S
C897 C519 1.375 . S
C885 C2 1.332 . S
C924 C581 1.726 . S
C912 C61 1.791 . S
C939 C95 1.034 . S
C951 C655 1.047 . S
C978 C741 1.104 . S
C966 C135 1.155 . S
C1005 C537 2.411 . S
C993 C42 2.430 . S
C1020 C82 1.764 . S
C1032 C605 1.764 . S
C1059 C679 1.200 . S
C1047 C122 1.205 . S
C1086 C759 1.711 . S
C1074 C21 1.651 . S
C1101 C162 1.629 . S
C1113 C457 1.511 . S
C1140 C371 1.865 . S
C1128 C221 1.946 . S
C1155 C255 1.350 . S
C1167 C433 1.287 . S
C1182 C282 2.394 . S
C1194 C389 2.376 . S
C1221 C685 1.748 . S
C1209 C181 1.823 . S
C1248 C753 1.388 . S
C1236 C202 1.390 . S
C1275 C531 1.887 . S
C1263 C242 2.030 . S
C1290 C301 2.420 . S
C1302 C611 2.513 . S
C1329 C667 1.622 . S
C1317 C215 1.645 . S
C1356 C729 1.220 . S
C1344 C261 1.255 . S
C1383 C507 1.914 . S
C1371 C295 2.023 . S
C1398 C175 1.424 . S
C1410 C593 1.416 . S
