# Generated by pormake.
# Topology rtl, (3,6)-cn, num edge types: 1
# Building blocks:
#     Node 0, Type 0, BuildingBlock: QEWDON_clean_linker_0, # of connection points: 3
#     Node 1, Type 0, BuildingBlock: QEWDON_clean_linker_0, # of connection points: 3
#     Node 2, Type 0, BuildingBlock: QEWDON_clean_linker_0, # of connection points: 3
#     Node 3, Type 0, BuildingBlock: QEWDON_clean_linker_0, # of connection points: 3
#     Node 4, Type 1, BuildingBlock: VOLQOD_clean_sbu_1, # of connection points: 6
#     Node 5, Type 1, BuildingBlock: VOLQOD_clean_sbu_1, # of connection points: 6
#     Edge 6, Type (0, 1), BuildingBlock: KIFKEQ_clean_linker_1, # of connection points: 2
#     Edge 7, Type (0, 1), BuildingBlock: KIFKEQ_clean_linker_1, # of connection points: 2
#     Edge 8, Type (0, 1), BuildingBlock: KIFKEQ_clean_linker_1, # of connection points: 2
#     Edge 9, Type (0, 1), BuildingBlock: KIFKEQ_clean_linker_1, # of connection points: 2
#     Edge 10, Type (0, 1), BuildingBlock: KIFKEQ_clean_linker_1, # of connection points: 2
#     Edge 11, Type (0, 1), BuildingBlock: KIFKEQ_clean_linker_1, # of connection points: 2
#     Edge 12, Type (0, 1), BuildingBlock: KIFKEQ_clean_linker_1, # of connection points: 2
#     Edge 13, Type (0, 1), BuildingBlock: KIFKEQ_clean_linker_1, # of connection points: 2
#     Edge 14, Type (0, 1), BuildingBlock: KIFKEQ_clean_linker_1, # of connection points: 2
#     Edge 15, Type (0, 1), BuildingBlock: KIFKEQ_clean_linker_1, # of connection points: 2
#     Edge 16, Type (0, 1), BuildingBlock: KIFKEQ_clean_linker_1, # of connection points: 2
#     Edge 17, Type (0, 1), BuildingBlock: KIFKEQ_clean_linker_1, # of connection points: 2
# Relax obj value: 0.048
# Max RMSD: 0.148
# Mean RMSD: 0.136
data_MOF--net-rtl--node1-VOLQOD_clean_sbu_1--node2-QEWDON_clean_linker_0--edge1-KIFKEQ_clean_linker_1
_symmetry_space_group_name_H-M    P1
_symmetry_Int_Tables_number       1
_symmetry_cell_setting            triclinic
loop_
_symmetry_equiv_pos_as_xyz
'x, y, z'
_cell_length_a     40.143107
_cell_length_b     40.407329
_cell_length_c     22.127071
_cell_angle_alpha  91.545356
_cell_angle_beta   92.019583
_cell_angle_gamma 89.862268
loop_
_atom_site_label
_atom_site_type_symbol
_atom_site_fract_x
_atom_site_fract_y
_atom_site_fract_z
_atom_type_partial_charge
H0 H 0.23228 0.84636 0.09539 0.0
C1 C 0.21955 0.8502 0.0521 0.0
C2 C 0.18597 0.86012 0.04999 0.0
C3 C 0.23722 0.84699 -0.00139 0.0
H4 H 0.1445 0.8747 -0.00778 0.0
C5 C 0.17001 0.86575 -0.00621 0.0
C6 C 0.18754 0.86322 0.94015 0.0
C7 C 0.22125 0.85389 0.94287 0.0
C8 C 0.27324 0.8397 0.00141 0.0
H9 H 0.23521 0.85245 0.9018 0.0
C10 C 0.28508 0.80832 0.01789 0.0
C11 C 0.31955 0.80157 0.01979 0.0
C12 C 0.29592 0.8644 0.98716 0.0
H13 H 0.28716 0.88869 0.97433 0.0
C14 C 0.33009 0.85802 -0.01011 0.0
H15 H 0.26749 0.78921 0.02866 0.0
C16 C 0.34189 0.82685 0.00604 0.0
H17 H 0.3685 0.8223 0.00634 0.0
H18 H 0.34748 0.8772 0.97892 0.0
H19 H 0.72484 0.68504 0.47082 0.0
C20 C 0.71075 0.68478 0.51172 0.0
C21 C 0.67927 0.66964 0.51084 0.0
C22 C 0.72537 0.69686 0.56663 0.0
H23 H 0.63787 0.65631 0.56395 0.0
C24 C 0.66198 0.66834 0.5647 0.0
C25 C 0.67626 0.68002 0.61996 0.0
C26 C 0.70813 0.69432 0.62053 0.0
C27 C 0.76077 0.70664 0.56957 0.0
H28 H 0.72002 0.7026 0.663 0.0
C29 C 0.77144 0.7368 0.54641 0.0
C30 C 0.80559 0.74479 0.54849 0.0
C31 C 0.78425 0.6849 0.59528 0.0
H32 H 0.77639 0.66162 0.61334 0.0
C33 C 0.81806 0.69275 0.59711 0.0
H34 H 0.75339 0.75376 0.52677 0.0
C35 C 0.82873 0.72243 0.57367 0.0
H36 H 0.8551 0.7282 0.57596 0.0
H37 H 0.83604 0.67579 0.61676 0.0
H38 H 0.78278 0.19912 0.08328 0.0
C39 C 0.79787 0.19351 0.04462 0.0
C40 C 0.83103 0.1831 0.05372 0.0
C41 C 0.78357 0.1946 0.98579 0.0
H42 H 0.87545 0.16634 0.0108 0.0
C43 C 0.84998 0.1747 0.00353 0.0
C44 C 0.83572 0.17423 0.94471 0.0
C45 C 0.80254 0.18475 0.93613 0.0
C46 C 0.74762 0.20172 0.97662 0.0
H47 H 0.79087 0.18384 0.8912 0.0
C48 C 0.73372 0.23192 -0.0032 0.0
C49 C 0.69928 0.2378 -0.01143 0.0
C50 C 0.7269 0.17763 0.94804 0.0
H51 H 0.73709 0.15419 0.93245 0.0
C52 C 0.69279 0.18333 0.94024 0.0
H53 H 0.74959 0.25067 0.01866 0.0
C54 C 0.679 0.21314 0.96045 0.0
H55 H 0.65248 0.21718 0.95319 0.0
H56 H 0.67698 0.16458 0.91837 0.0
H57 H 0.33111 0.30958 0.60993 0.0
C58 C 0.32892 0.32132 0.56649 0.0
C59 C 0.33777 0.35473 0.56165 0.0
C60 C 0.31923 0.30231 0.51474 0.0
H61 H 0.34325 0.39469 0.50046 0.0
C62 C 0.33592 0.36907 0.50464 0.0
C63 C 0.32766 0.35011 0.45228 0.0
C64 C 0.31881 0.31673 0.45764 0.0
C65 C 0.31412 0.26633 0.51957 0.0
H66 H 0.3133 0.30159 0.41733 0.0
C67 C 0.28278 0.25187 0.50636 0.0
C68 C 0.27849 0.21744 0.51098 0.0
C69 C 0.34111 0.24627 0.53737 0.0
H70 H 0.36542 0.25703 0.54766 0.0
C71 C 0.33705 0.21215 0.54133 0.0
H72 H 0.26188 0.26735 0.4928 0.0
C73 C 0.30599 0.19777 0.52818 0.0
H74 H 0.30332 0.17128 0.53265 0.0
H75 H 0.358 0.19682 0.55493 0.0
O76 O 0.93098 0.97716 0.48885 0.0
Zn77 Zn 0.95609 0.02113 0.49079 0.0
O78 O 1.00469 0.015 0.48954 0.0
Zn79 Zn 0.02623 0.03605 0.56165 0.0
Zn80 Zn 0.01444 0.96771 0.48846 0.0
Zn81 Zn 0.02229 0.03455 0.41714 0.0
O82 O 0.0596 0.07067 0.53943 0.0
O83 O 0.05768 0.06855 0.43911 0.0
O84 O 0.94373 0.04712 0.56566 0.0
O85 O 0.99207 0.05808 0.614 0.0
O86 O 0.05149 1.0025 0.61159 0.0
O87 O 0.04262 0.95501 0.56095 0.0
O88 O 0.0394 0.95374 0.41506 0.0
O89 O 0.94006 0.04844 0.42061 0.0
O90 O 0.04433 0.99995 0.36414 0.0
O91 O 0.98569 0.05773 0.36963 0.0
C92 C 0.94156 0.94736 0.48834 0.0
C93 C 0.06971 0.08051 0.48903 0.0
C94 C 0.0557 0.97133 0.60565 0.0
C95 C 0.96041 0.06043 0.60989 0.0
C96 C 0.04957 0.96905 0.36975 0.0
C97 C 0.95451 0.06147 0.37675 0.0
O98 O 0.97261 0.94098 0.48832 0.0
O99 O 0.57401 0.47401 0.03884 0.0
Zn100 Zn 0.55152 0.51923 0.04203 0.0
O101 O 0.50263 0.51599 0.03977 0.0
Zn102 Zn 0.48393 0.53924 0.96985 0.0
Zn103 Zn 0.49042 0.46951 0.03233 0.0
Zn104 Zn 0.48434 0.5352 0.1141 0.0
O105 O 0.45108 0.57405 -0.00466 0.0
O106 O 0.45366 0.57383 0.09565 0.0
O107 O 0.56721 0.54635 0.97333 0.0
O108 O 0.52009 0.56323 0.92802 0.0
O109 O 0.46017 0.50787 0.90981 0.0
O110 O 0.46458 0.45972 0.9553 0.0
O111 O 0.461 0.45646 0.09854 0.0
O112 O 0.56748 0.5433 0.11841 0.0
O113 O 0.45702 0.50151 0.15742 0.0
O114 O 0.52162 0.55258 0.16986 0.0
C115 C 0.56202 0.4448 0.03593 0.0
C116 C 0.44222 0.58571 0.04633 0.0
C117 C 0.45425 0.47692 0.91116 0.0
C118 C 0.55179 0.56329 0.93345 0.0
C119 C 0.44967 0.47136 0.14482 0.0
C120 C 0.55309 0.55481 0.1649 0.0
O121 O 0.53066 0.44 0.03373 0.0
H122 H 0.21883 0.23697 0.55617 0.0
H123 H 0.26364 0.1622 0.44198 0.0
H124 H 0.16557 0.20743 0.547 0.0
H125 H 0.21069 0.13261 0.43316 0.0
H126 H 0.10422 0.10024 0.39175 0.0
H127 H 0.15224 0.13712 0.39196 0.0
H128 H 0.14569 0.15302 0.5849 0.0
H129 H 0.09758 0.11624 0.58493 0.0
C130 C 0.21711 0.21454 0.52834 0.0
C131 C 0.24536 0.20178 0.49999 0.0
C132 C 0.18676 0.1975 0.52352 0.0
C133 C 0.184 0.16763 0.48958 0.0
C134 C 0.21194 0.15567 0.45924 0.0
C135 C 0.24231 0.17247 0.46462 0.0
C136 C 0.11276 0.11184 0.43418 0.0
C137 C 0.09714 0.10505 0.48842 0.0
C138 C 0.14036 0.13288 0.43427 0.0
C139 C 0.15281 0.14786 0.48846 0.0
C140 C 0.13649 0.14207 0.54233 0.0
C141 C 0.10905 0.12081 0.54237 0.0
H142 H 0.29598 0.74208 0.97489 0.0
H143 H 0.3726 0.78523 0.09394 0.0
H144 H 0.32127 0.68748 0.9873 0.0
H145 H 0.39826 0.73086 0.10533 0.0
H146 H 0.40731 0.61259 0.95138 0.0
H147 H 0.37361 0.66269 0.95176 0.0
H148 H 0.39128 0.67459 0.14477 0.0
H149 H 0.4254 0.62442 0.1445 0.0
C150 C 0.31789 0.73981 0.00451 0.0
C151 C 0.33246 0.76797 0.03309 0.0
C152 C 0.33254 0.70861 0.01117 0.0
C153 C 0.36191 0.70489 0.04691 0.0
C154 C 0.37553 0.73282 0.07781 0.0
C155 C 0.36102 0.76402 0.07083 0.0
C156 C 0.40382 0.62566 -0.00592 0.0
C157 C 0.41932 0.61458 0.04785 0.0
C158 C 0.38425 0.65428 -0.00567 0.0
C159 C 0.37982 0.67266 0.04828 0.0
C160 C 0.39449 0.66111 0.10239 0.0
C161 C 0.41392 0.63229 0.10224 0.0
H162 H 0.79001 0.80745 0.58738 0.0
H163 H 0.84971 0.75311 0.46035 0.0
H164 H 0.81963 0.85847 0.56529 0.0
H165 H 0.8784 0.80395 0.4362 0.0
H166 H 0.95668 0.88167 0.48706 0.0
H167 H 0.91943 0.83512 0.49269 0.0
H168 H 0.83496 0.90155 0.49589 0.0
H169 H 0.87282 0.9489 0.49173 0.0
C170 C 0.80874 0.80673 0.5533 0.0
C171 C 0.81789 0.77648 0.5259 0.0
C172 C 0.82569 0.8359 0.54055 0.0
C173 C 0.8519 0.83522 0.49984 0.0
C174 C 0.85902 0.80525 0.46901 0.0
C175 C 0.84243 0.77617 0.48235 0.0
C176 C 0.93018 0.88659 0.4886 0.0
C177 C 0.91784 0.91919 0.489 0.0
C178 C 0.90868 0.8597 0.49126 0.0
C179 C 0.87407 0.86444 0.49406 0.0
C180 C 0.86151 0.89702 0.494 0.0
C181 C 0.88318 0.92413 0.49138 0.0
H182 H 0.71812 0.30031 0.96001 0.0
H183 H 0.64562 0.24699 0.05857 0.0
H184 H 0.68699 0.35175 0.9768 0.0
H185 H 0.61511 0.29823 0.07729 0.0
H186 H 0.54446 0.37999 0.01968 0.0
H187 H 0.58037 0.33188 0.01537 0.0
H188 H 0.66684 0.39442 0.04572 0.0
H189 H 0.63059 0.44321 0.04838 0.0
C190 C 0.69599 0.29982 0.9866 0.0
C191 C 0.684 0.26971 0.00741 0.0
C192 C 0.67815 0.32925 -0.00369 0.0
C193 C 0.64815 0.32908 0.02744 0.0
C194 C 0.63756 0.29918 0.05163 0.0
C195 C 0.65512 0.26983 0.04134 0.0
C196 C 0.5711 0.38366 0.02569 0.0
C197 C 0.58456 0.41559 0.03448 0.0
C198 C 0.59178 0.35591 0.02371 0.0
C199 C 0.62657 0.35911 0.03092 0.0
C200 C 0.64017 0.39104 0.03968 0.0
C201 C 0.61938 0.41899 0.04143 0.0
H202 H 0.12379 0.84151 0.08201 0.0
H203 H 0.20835 0.90117 0.14182 0.0
H204 H 0.0911 0.86594 0.16332 0.0
H205 H 0.17569 0.92562 0.22293 0.0
H206 H 0.09016 0.99478 0.28638 0.0
H207 H 0.12498 0.9646 0.21534 0.0
H208 H 0.08888 0.87187 0.27977 0.0
H209 H 0.05413 0.90197 0.35142 0.0
C210 C 0.13555 0.85929 0.11345 0.0
C211 C 0.16855 0.86946 0.10579 0.0
C212 C 0.1169 0.87322 0.15987 0.0
C213 C 0.1308 0.89793 0.19881 0.0
C214 C 0.16431 0.90688 0.19302 0.0
C215 C 0.18309 0.89262 0.14714 0.0
C216 C 0.08951 0.96797 0.2853 0.0
C217 C 0.06935 0.95078 0.3245 0.0
C218 C 0.10969 0.95071 0.24505 0.0
C219 C 0.10981 0.91593 0.24256 0.0
C220 C 0.08924 0.89869 0.28088 0.0
C221 C 0.06941 0.91595 0.32183 0.0
H222 H 0.70411 0.65828 0.72683 0.0
H223 H 0.6097 0.68471 0.64145 0.0
H224 H 0.67504 0.63559 0.81092 0.0
H225 H 0.58058 0.65941 0.72212 0.0
H226 H 0.53195 0.6212 0.88349 0.0
H227 H 0.56345 0.65665 0.81928 0.0
H228 H 0.64599 0.5876 0.8281 0.0
H229 H 0.61512 0.55356 0.89574 0.0
C230 C 0.67717 0.65981 0.72645 0.0
C231 C 0.65924 0.67282 0.6768 0.0
C232 C 0.6604 0.64614 0.77418 0.0
C233 C 0.62532 0.64469 0.77291 0.0
C234 C 0.60754 0.65999 0.72532 0.0
C235 C 0.62428 0.67421 0.67837 0.0
C236 C 0.5569 0.61375 0.87176 0.0
C237 C 0.571 0.58449 0.89407 0.0
C238 C 0.575 0.63403 0.83474 0.0
C239 C 0.60736 0.62508 0.81779 0.0
C240 C 0.6215 0.59585 0.8409 0.0
C241 C 0.60366 0.57602 0.87917 0.0
H242 H 0.89047 0.20269 0.10645 0.0
H243 H 0.80339 0.1437 0.13581 0.0
H244 H 0.91939 0.17717 0.19228 0.0
H245 H 0.83241 0.11738 0.22036 0.0
H246 H 0.89013 0.08309 0.38695 0.0
H247 H 0.85859 0.11912 0.31923 0.0
H248 H 0.94289 0.12323 0.20343 0.0
H249 H 0.97467 0.08815 0.27186 0.0
C250 C 0.87728 0.18487 0.13238 0.0
C251 C 0.84479 0.17508 0.11453 0.0
C252 C 0.89392 0.16992 0.181 0.0
C253 C 0.87853 0.14461 0.21234 0.0
C254 C 0.84502 0.13683 0.19749 0.0
C255 C 0.82828 0.15202 0.14915 0.0
C256 C 0.90194 0.09171 0.34703 0.0
C257 C 0.93493 0.0826 0.33475 0.0
C258 C 0.88382 0.11238 0.30819 0.0
C259 C 0.89821 0.12432 0.25603 0.0
C260 C 0.93121 0.11518 0.24388 0.0
C261 C 0.94937 0.0947 0.28282 0.0
H262 H 0.31816 0.3563 0.67958 0.0
H263 H 0.39174 0.39563 0.56296 0.0
H264 H 0.34403 0.38727 0.76561 0.0
H265 H 0.41683 0.4268 0.648 0.0
H266 H 0.43472 0.50223 0.80173 0.0
H267 H 0.40375 0.47389 0.71865 0.0
H268 H 0.39868 0.3859 0.82443 0.0
H269 H 0.42933 0.41407 0.90751 0.0
C270 C 0.33972 0.37156 0.67227 0.0
C271 C 0.35259 0.3738 0.61427 0.0
C272 C 0.35446 0.38931 0.72138 0.0
C273 C 0.38222 0.4097 0.71327 0.0
C274 C 0.39501 0.4119 0.65537 0.0
C275 C 0.38052 0.39405 0.60659 0.0
C276 C 0.42686 0.47691 0.80738 0.0
C277 C 0.43473 0.46036 0.86108 0.0
C278 C 0.40921 0.46067 0.75979 0.0
C279 C 0.39885 0.42769 0.76514 0.0
C280 C 0.40604 0.41142 0.81928 0.0
C281 C 0.42388 0.42752 0.86664 0.0
H282 H 0.65214 0.60811 0.5043 0.0
H283 H 0.67518 0.69086 0.39347 0.0
H284 H 0.62291 0.58105 0.4186 0.0
H285 H 0.64629 0.66299 0.30642 0.0
H286 H 0.6164 0.57936 0.15895 0.0
H287 H 0.64952 0.6077 0.23963 0.0
H288 H 0.56859 0.59713 0.36093 0.0
H289 H 0.53535 0.56913 0.28065 0.0
C290 C 0.65095 0.62054 0.4615 0.0
C291 C 0.66523 0.65203 0.45597 0.0
C292 C 0.63428 0.60496 0.41246 0.0
C293 C 0.63187 0.62021 0.35634 0.0
C294 C 0.64776 0.65081 0.34945 0.0
C295 C 0.66429 0.66668 0.39905 0.0
C296 C 0.60569 0.58306 0.20288 0.0
C297 C 0.5733 0.57181 0.21356 0.0
C298 C 0.62458 0.59948 0.24877 0.0
C299 C 0.61162 0.60445 0.30637 0.0
C300 C 0.57925 0.59334 0.31696 0.0
C301 C 0.56021 0.57739 0.27097 0.0
H302 H 0.83713 0.19414 0.82664 0.0
H303 H 0.87605 0.11971 0.94708 0.0
H304 H 0.86756 0.16821 0.74364 0.0
H305 H 0.90701 0.09491 0.86523 0.0
H306 H 0.98485 0.08129 0.7213 0.0
H307 H 0.95512 0.111 0.80036 0.0
H308 H 0.86616 0.112 0.68499 0.0
H309 H 0.89576 0.08217 0.60567 0.0
C310 C 0.85216 0.1724 0.83551 0.0
C311 C 0.85448 0.15936 0.89384 0.0
C312 C 0.86959 0.15764 0.78809 0.0
C313 C 0.88988 0.1298 0.79832 0.0
C314 C 0.8921 0.11676 0.85639 0.0
C315 C 0.87445 0.13116 0.90339 0.0
C316 C 0.959 0.08793 0.7126 0.0
C317 C 0.94262 0.07914 0.65733 0.0
C318 C 0.94198 0.10487 0.75793 0.0
C319 C 0.90836 0.11372 0.74872 0.0
C320 C 0.89215 0.10568 0.69303 0.0
C321 C 0.90905 0.08837 0.6479 0.0
H322 H 0.36536 0.32295 0.36422 0.0
H323 H 0.30751 0.40984 0.40868 0.0
H324 H 0.39065 0.3522 0.28286 0.0
H325 H 0.33239 0.43916 0.32637 0.0
H326 H 0.42404 0.49208 0.2527 0.0
H327 H 0.38777 0.46137 0.31699 0.0
H328 H 0.38648 0.3793 0.1876 0.0
H329 H 0.4234 0.40958 0.12412 0.0
C330 C 0.35702 0.34788 0.3549 0.0
C331 C 0.33466 0.36421 0.39295 0.0
C332 C 0.37165 0.36477 0.30841 0.0
C333 C 0.36406 0.39829 0.2989 0.0
C334 C 0.33939 0.41363 0.33353 0.0
C335 C 0.32487 0.39677 0.38017 0.0
C336 C 0.41594 0.46754 0.23787 0.0
C337 C 0.42692 0.45323 0.18354 0.0
C338 C 0.39484 0.45003 0.27442 0.0
C339 C 0.38409 0.41786 0.25735 0.0
C340 C 0.39455 0.40384 0.20242 0.0
C341 C 0.41574 0.42128 0.16602 0.0
H342 H 0.1264 0.84524 0.89268 0.0
H343 H 0.21147 0.90658 0.8601 0.0
H344 H 0.09594 0.86986 0.80741 0.0
H345 H 0.18112 0.93106 0.7745 0.0
H346 H 0.09696 0.99826 0.69484 0.0
H347 H 0.13115 0.96913 0.76969 0.0
H348 H 0.09604 0.87542 0.69409 0.0
H349 H 0.06175 0.90444 0.61908 0.0
C350 C 0.13873 0.86357 0.86654 0.0
C351 C 0.17123 0.87406 0.88294 0.0
C352 C 0.12139 0.87756 0.81768 0.0
C353 C 0.1361 0.90256 0.78472 0.0
C354 C 0.16909 0.91208 0.79959 0.0
C355 C 0.18657 0.89783 0.84807 0.0
C356 C 0.09653 0.97145 0.69407 0.0
C357 C 0.07653 0.9537 0.65108 0.0
C358 C 0.11634 0.95478 0.73661 0.0
C359 C 0.11635 0.92001 0.73748 0.0
C360 C 0.0964 0.90223 0.69457 0.0
C361 C 0.07684 0.91888 0.65158 0.0
loop_
_geom_bond_atom_site_label_1
_geom_bond_atom_site_label_2
_geom_bond_distance
_geom_bond_site_symmetry_2
_ccdc_geom_bond_type
H0 C1 0.949 . S
C1 H0 0.949 . S
C1 C2 1.395 . S
C1 C3 1.391 . S
C2 C1 1.395 . S
C2 C5 1.390 . S
C3 C1 1.391 . S
C3 C7 1.387 1_554 S
C3 C8 1.492 . S
H4 C5 0.950 . S
C5 C2 1.390 . S
C5 H4 0.950 . S
C5 C6 1.378 1_554 S
C6 C5 1.378 1_556 S
C6 C7 1.409 . S
C7 C3 1.387 1_556 S
C7 C6 1.409 . S
C7 H9 0.951 . S
C8 C3 1.492 . S
C8 C10 1.386 . S
C8 C12 1.399 1_554 S
H9 C7 0.951 . S
C10 C8 1.386 . S
C10 C11 1.390 . S
C10 H15 0.949 . S
C11 C10 1.390 . S
C11 C16 1.399 1_554 S
C12 C8 1.399 1_556 S
C12 H13 0.950 . S
C12 C14 1.375 . S
H13 C12 0.950 . S
C14 C12 1.375 . S
C14 C16 1.382 . S
C14 H18 0.950 . S
H15 C10 0.949 . S
C16 C11 1.399 1_556 S
C16 C14 1.382 . S
C16 H17 0.952 . S
H17 C16 0.952 . S
H18 C14 0.950 . S
H19 C20 0.949 . S
C20 H19 0.949 . S
C20 C21 1.395 . S
C20 C22 1.391 . S
C21 C20 1.395 . S
C21 C24 1.390 . S
C22 C20 1.391 . S
C22 C26 1.387 . S
C22 C27 1.491 . S
H23 C24 0.950 . S
C24 C21 1.390 . S
C24 H23 0.950 . S
C24 C25 1.378 . S
C25 C24 1.378 . S
C25 C26 1.409 . S
C26 C22 1.387 . S
C26 C25 1.409 . S
C26 H28 0.951 . S
C27 C22 1.491 . S
C27 C29 1.382 . S
C27 C31 1.404 . S
H28 C26 0.951 . S
C29 C27 1.382 . S
C29 C30 1.390 . S
C29 H34 0.949 . S
C30 C29 1.390 . S
C30 C35 1.399 . S
C31 C27 1.404 . S
C31 H32 0.950 . S
C31 C33 1.375 . S
H32 C31 0.950 . S
C33 C31 1.375 . S
C33 C35 1.382 . S
C33 H37 0.950 . S
H34 C29 0.949 . S
C35 C30 1.399 . S
C35 C33 1.382 . S
C35 H36 0.952 . S
H36 C35 0.952 . S
H37 C33 0.950 . S
H38 C39 0.949 . S
C39 H38 0.949 . S
C39 C40 1.395 . S
C39 C41 1.391 . S
C40 C39 1.395 . S
C40 C43 1.390 . S
C41 C39 1.391 . S
C41 C45 1.387 1_554 S
C41 C46 1.491 1_554 S
H42 C43 0.950 . S
C43 C40 1.390 . S
C43 H42 0.950 . S
C43 C44 1.378 1_554 S
C44 C43 1.378 1_556 S
C44 C45 1.409 . S
C45 C41 1.387 1_556 S
C45 C44 1.409 . S
C45 H47 0.951 . S
C46 C41 1.491 1_556 S
C46 C48 1.382 1_556 S
C46 C50 1.404 . S
H47 C45 0.951 . S
C48 C46 1.382 1_554 S
C48 C49 1.390 . S
C48 H53 0.949 . S
C49 C48 1.390 . S
C49 C54 1.399 1_554 S
C50 C46 1.404 . S
C50 H51 0.950 . S
C50 C52 1.375 . S
H51 C50 0.950 . S
C52 C50 1.375 . S
C52 C54 1.382 . S
C52 H56 0.950 . S
H53 C48 0.949 . S
C54 C49 1.399 1_556 S
C54 C52 1.382 . S
C54 H55 0.952 . S
H55 C54 0.952 . S
H56 C52 0.950 . S
H57 C58 0.949 . S
C58 H57 0.949 . S
C58 C59 1.395 . S
C58 C60 1.391 . S
C59 C58 1.395 . S
C59 C62 1.390 . S
C60 C58 1.391 . S
C60 C64 1.387 . S
C60 C65 1.491 . S
H61 C62 0.950 . S
C62 C59 1.390 . S
C62 H61 0.950 . S
C62 C63 1.378 . S
C63 C62 1.378 . S
C63 C64 1.409 . S
C64 C60 1.387 . S
C64 C63 1.409 . S
C64 H66 0.951 . S
C65 C60 1.491 . S
C65 C67 1.382 . S
C65 C69 1.404 . S
H66 C64 0.951 . S
C67 C65 1.382 . S
C67 C68 1.390 . S
C67 H72 0.949 . S
C68 C67 1.390 . S
C68 C73 1.399 . S
C69 C65 1.404 . S
C69 H70 0.950 . S
C69 C71 1.375 . S
H70 C69 0.950 . S
C71 C69 1.375 . S
C71 C73 1.382 . S
C71 H75 0.950 . S
H72 C67 0.949 . S
C73 C68 1.399 . S
C73 C71 1.382 . S
C73 H74 0.952 . S
H74 C73 0.952 . S
H75 C71 0.950 . S
O76 Zn77 1.953 1_565 S
O76 C92 1.225 . S
Zn77 O76 1.953 1_545 S
Zn77 O78 1.949 1_655 S
Zn77 O84 1.919 . S
Zn77 O89 1.924 . S
O78 Zn77 1.949 1_455 S
O78 Zn79 1.923 . S
O78 Zn80 1.950 1_545 S
O78 Zn81 1.945 . S
Zn79 O78 1.923 . S
Zn79 O82 1.933 . S
Zn79 O85 1.918 1_455 S
Zn79 O86 1.965 1_545 S
Zn80 O78 1.950 1_565 S
Zn80 O87 1.938 . S
Zn80 O88 1.906 . S
Zn80 O98 1.953 1_455 S
Zn81 O78 1.945 . S
Zn81 O83 1.932 . S
Zn81 O90 1.977 1_545 S
Zn81 O91 1.910 1_455 S
O82 Zn79 1.933 . S
O82 C93 1.226 . S
O83 Zn81 1.932 . S
O83 C93 1.307 . S
O84 Zn77 1.919 . S
O84 C95 1.253 . S
O85 Zn79 1.918 1_655 S
O85 C95 1.316 . S
O86 Zn79 1.965 1_565 S
O86 C94 1.303 . S
O87 Zn80 1.938 . S
O87 C94 1.247 . S
O88 Zn80 1.906 . S
O88 C96 1.304 . S
O89 Zn77 1.924 . S
O89 C97 1.311 . S
O90 Zn81 1.977 1_565 S
O90 C96 1.272 . S
O91 Zn81 1.910 1_655 S
O91 C97 1.231 . S
C92 O76 1.225 . S
C92 O98 1.298 . S
C93 O82 1.226 . S
C93 O83 1.307 . S
C94 O86 1.303 . S
C94 O87 1.247 . S
C95 O84 1.253 . S
C95 O85 1.316 . S
C96 O88 1.304 . S
C96 O90 1.272 . S
C97 O89 1.311 . S
C97 O91 1.231 . S
O98 Zn80 1.953 1_655 S
O98 C92 1.298 . S
O99 Zn100 1.953 . S
O99 C115 1.225 . S
Zn100 O99 1.953 . S
Zn100 O101 1.949 . S
Zn100 O107 1.919 1_554 S
Zn100 O112 1.924 . S
O101 Zn100 1.949 . S
O101 Zn102 1.923 1_554 S
O101 Zn103 1.950 . S
O101 Zn104 1.945 . S
Zn102 O101 1.923 1_556 S
Zn102 O105 1.933 . S
Zn102 O108 1.941 . S
Zn102 O109 1.965 . S
Zn103 O101 1.950 . S
Zn103 O110 1.938 1_554 S
Zn103 O111 1.906 . S
Zn103 O121 1.953 . S
Zn104 O101 1.945 . S
Zn104 O106 1.932 . S
Zn104 O113 1.977 . S
Zn104 O114 1.910 . S
O105 Zn102 1.933 . S
O105 C116 1.226 1_556 S
O106 Zn104 1.932 . S
O106 C116 1.307 . S
O107 Zn100 1.919 1_556 S
O107 C118 1.253 . S
O108 Zn102 1.941 . S
O108 C118 1.283 . S
O109 Zn102 1.965 . S
O109 C117 1.303 . S
O110 Zn103 1.938 1_556 S
O110 C117 1.247 . S
O111 Zn103 1.906 . S
O111 C119 1.304 . S
O112 Zn100 1.924 . S
O112 C120 1.311 . S
O113 Zn104 1.977 . S
O113 C119 1.272 . S
O114 Zn104 1.910 . S
O114 C120 1.231 . S
C115 O99 1.225 . S
C115 O121 1.298 . S
C116 O105 1.226 1_554 S
C116 O106 1.307 . S
C117 O109 1.303 . S
C117 O110 1.247 . S
C118 O107 1.253 . S
C118 O108 1.283 . S
C119 O111 1.304 . S
C119 O113 1.272 . S
C120 O112 1.311 . S
C120 O114 1.231 . S
O121 Zn103 1.953 . S
O121 C115 1.298 . S
H122 C130 0.950 . S
H123 C135 0.950 . S
H124 C132 0.950 . S
H125 C134 0.950 . S
H126 C136 0.950 . S
H127 C138 0.950 . S
H128 C140 0.950 . S
H129 C141 0.950 . S
C130 H122 0.950 . S
C130 C131 1.386 . S
C130 C132 1.391 . S
C131 C130 1.386 . S
C131 C135 1.393 . S
C132 H124 0.950 . S
C132 C130 1.391 . S
C132 C133 1.400 . S
C133 C132 1.400 . S
C133 C134 1.398 . S
C133 C139 1.491 . S
C134 H125 0.950 . S
C134 C133 1.398 . S
C134 C135 1.391 . S
C135 H123 0.950 . S
C135 C131 1.393 . S
C135 C134 1.391 . S
C136 H126 0.950 . S
C136 C137 1.386 . S
C136 C138 1.391 . S
C137 C136 1.386 . S
C137 C141 1.393 . S
C138 H127 0.950 . S
C138 C136 1.391 . S
C138 C139 1.400 . S
C139 C133 1.491 . S
C139 C138 1.400 . S
C139 C140 1.398 . S
C140 H128 0.950 . S
C140 C139 1.398 . S
C140 C141 1.391 . S
C141 H129 0.950 . S
C141 C137 1.393 . S
C141 C140 1.391 . S
H142 C150 0.950 . S
H143 C155 0.950 . S
H144 C152 0.950 . S
H145 C154 0.950 . S
H146 C156 0.950 . S
H147 C158 0.950 . S
H148 C160 0.950 . S
H149 C161 0.950 . S
C150 H142 0.950 . S
C150 C151 1.386 . S
C150 C152 1.391 . S
C151 C150 1.386 . S
C151 C155 1.393 . S
C152 H144 0.950 . S
C152 C150 1.391 . S
C152 C153 1.400 . S
C153 C152 1.400 . S
C153 C154 1.398 . S
C153 C159 1.491 . S
C154 H145 0.950 . S
C154 C153 1.398 . S
C154 C155 1.391 . S
C155 H143 0.950 . S
C155 C151 1.393 . S
C155 C154 1.391 . S
C156 H146 0.950 . S
C156 C157 1.386 . S
C156 C158 1.391 . S
C157 C156 1.386 . S
C157 C161 1.393 . S
C158 H147 0.950 . S
C158 C156 1.391 . S
C158 C159 1.400 . S
C159 C153 1.491 . S
C159 C158 1.400 . S
C159 C160 1.398 . S
C160 H148 0.950 . S
C160 C159 1.398 . S
C160 C161 1.391 . S
C161 H149 0.950 . S
C161 C157 1.393 . S
C161 C160 1.391 . S
H162 C170 0.950 . S
H163 C175 0.950 . S
H164 C172 0.950 . S
H165 C174 0.950 . S
H166 C176 0.950 . S
H167 C178 0.950 . S
H168 C180 0.950 . S
H169 C181 0.950 . S
C170 H162 0.950 . S
C170 C171 1.386 . S
C170 C172 1.391 . S
C171 C170 1.386 . S
C171 C175 1.393 . S
C172 H164 0.950 . S
C172 C170 1.391 . S
C172 C173 1.400 . S
C173 C172 1.400 . S
C173 C174 1.398 . S
C173 C179 1.491 . S
C174 H165 0.950 . S
C174 C173 1.398 . S
C174 C175 1.391 . S
C175 H163 0.950 . S
C175 C171 1.393 . S
C175 C174 1.391 . S
C176 H166 0.950 . S
C176 C177 1.386 . S
C176 C178 1.391 . S
C177 C176 1.386 . S
C177 C181 1.393 . S
C178 H167 0.950 . S
C178 C176 1.391 . S
C178 C179 1.400 . S
C179 C173 1.491 . S
C179 C178 1.400 . S
C179 C180 1.398 . S
C180 H168 0.950 . S
C180 C179 1.398 . S
C180 C181 1.391 . S
C181 H169 0.950 . S
C181 C177 1.393 . S
C181 C180 1.391 . S
H182 C190 0.950 . S
H183 C195 0.950 . S
H184 C192 0.950 . S
H185 C194 0.950 . S
H186 C196 0.950 . S
H187 C198 0.950 . S
H188 C200 0.950 . S
H189 C201 0.950 . S
C190 H182 0.950 . S
C190 C191 1.386 . S
C190 C192 1.391 . S
C191 C190 1.386 . S
C191 C195 1.393 . S
C192 H184 0.950 . S
C192 C190 1.391 . S
C192 C193 1.400 . S
C193 C192 1.400 . S
C193 C194 1.398 . S
C193 C199 1.491 . S
C194 H185 0.950 . S
C194 C193 1.398 . S
C194 C195 1.391 . S
C195 H183 0.950 . S
C195 C191 1.393 . S
C195 C194 1.391 . S
C196 H186 0.950 . S
C196 C197 1.386 . S
C196 C198 1.391 . S
C197 C196 1.386 . S
C197 C201 1.393 . S
C198 H187 0.950 . S
C198 C196 1.391 . S
C198 C199 1.400 . S
C199 C193 1.491 . S
C199 C198 1.400 . S
C199 C200 1.398 . S
C200 H188 0.950 . S
C200 C199 1.398 . S
C200 C201 1.391 . S
C201 H189 0.950 . S
C201 C197 1.393 . S
C201 C200 1.391 . S
H202 C210 0.950 . S
H203 C215 0.950 . S
H204 C212 0.950 . S
H205 C214 0.950 . S
H206 C216 0.950 . S
H207 C218 0.950 . S
H208 C220 0.950 . S
H209 C221 0.950 . S
C210 H202 0.950 . S
C210 C211 1.386 . S
C210 C212 1.391 . S
C211 C210 1.386 . S
C211 C215 1.393 . S
C212 H204 0.950 . S
C212 C210 1.391 . S
C212 C213 1.400 . S
C213 C212 1.400 . S
C213 C214 1.398 . S
C213 C219 1.491 . S
C214 H205 0.950 . S
C214 C213 1.398 . S
C214 C215 1.391 . S
C215 H203 0.950 . S
C215 C211 1.393 . S
C215 C214 1.391 . S
C216 H206 0.950 . S
C216 C217 1.386 . S
C216 C218 1.391 . S
C217 C216 1.386 . S
C217 C221 1.393 . S
C218 H207 0.950 . S
C218 C216 1.391 . S
C218 C219 1.400 . S
C219 C213 1.491 . S
C219 C218 1.400 . S
C219 C220 1.398 . S
C220 H208 0.950 . S
C220 C219 1.398 . S
C220 C221 1.391 . S
C221 H209 0.950 . S
C221 C217 1.393 . S
C221 C220 1.391 . S
H222 C230 0.950 . S
H223 C235 0.950 . S
H224 C232 0.950 . S
H225 C234 0.950 . S
H226 C236 0.950 . S
H227 C238 0.950 . S
H228 C240 0.950 . S
H229 C241 0.950 . S
C230 H222 0.950 . S
C230 C231 1.386 . S
C230 C232 1.391 . S
C231 C230 1.386 . S
C231 C235 1.393 . S
C232 H224 0.950 . S
C232 C230 1.391 . S
C232 C233 1.400 . S
C233 C232 1.400 . S
C233 C234 1.398 . S
C233 C239 1.491 . S
C234 H225 0.950 . S
C234 C233 1.398 . S
C234 C235 1.391 . S
C235 H223 0.950 . S
C235 C231 1.393 . S
C235 C234 1.391 . S
C236 H226 0.950 . S
C236 C237 1.386 . S
C236 C238 1.391 . S
C237 C236 1.386 . S
C237 C241 1.393 . S
C238 H227 0.950 . S
C238 C236 1.391 . S
C238 C239 1.400 . S
C239 C233 1.491 . S
C239 C238 1.400 . S
C239 C240 1.398 . S
C240 H228 0.950 . S
C240 C239 1.398 . S
C240 C241 1.391 . S
C241 H229 0.950 . S
C241 C237 1.393 . S
C241 C240 1.391 . S
H242 C250 0.950 . S
H243 C255 0.950 . S
H244 C252 0.950 . S
H245 C254 0.950 . S
H246 C256 0.950 . S
H247 C258 0.950 . S
H248 C260 0.950 . S
H249 C261 0.950 . S
C250 H242 0.950 . S
C250 C251 1.386 . S
C250 C252 1.391 . S
C251 C250 1.386 . S
C251 C255 1.393 . S
C252 H244 0.950 . S
C252 C250 1.391 . S
C252 C253 1.400 . S
C253 C252 1.400 . S
C253 C254 1.398 . S
C253 C259 1.491 . S
C254 H245 0.950 . S
C254 C253 1.398 . S
C254 C255 1.391 . S
C255 H243 0.950 . S
C255 C251 1.393 . S
C255 C254 1.391 . S
C256 H246 0.950 . S
C256 C257 1.386 . S
C256 C258 1.391 . S
C257 C256 1.386 . S
C257 C261 1.393 . S
C258 H247 0.950 . S
C258 C256 1.391 . S
C258 C259 1.400 . S
C259 C253 1.491 . S
C259 C258 1.400 . S
C259 C260 1.398 . S
C260 H248 0.950 . S
C260 C259 1.398 . S
C260 C261 1.391 . S
C261 H249 0.950 . S
C261 C257 1.393 . S
C261 C260 1.391 . S
H262 C270 0.950 . S
H263 C275 0.950 . S
H264 C272 0.950 . S
H265 C274 0.950 . S
H266 C276 0.950 . S
H267 C278 0.950 . S
H268 C280 0.950 . S
H269 C281 0.950 . S
C270 H262 0.950 . S
C270 C271 1.386 . S
C270 C272 1.391 . S
C271 C270 1.386 . S
C271 C275 1.393 . S
C272 H264 0.950 . S
C272 C270 1.391 . S
C272 C273 1.400 . S
C273 C272 1.400 . S
C273 C274 1.398 . S
C273 C279 1.491 . S
C274 H265 0.950 . S
C274 C273 1.398 . S
C274 C275 1.391 . S
C275 H263 0.950 . S
C275 C271 1.393 . S
C275 C274 1.391 . S
C276 H266 0.950 . S
C276 C277 1.386 . S
C276 C278 1.391 . S
C277 C276 1.386 . S
C277 C281 1.393 . S
C278 H267 0.950 . S
C278 C276 1.391 . S
C278 C279 1.400 . S
C279 C273 1.491 . S
C279 C278 1.400 . S
C279 C280 1.398 . S
C280 H268 0.950 . S
C280 C279 1.398 . S
C280 C281 1.391 . S
C281 H269 0.950 . S
C281 C277 1.393 . S
C281 C280 1.391 . S
H282 C290 0.950 . S
H283 C295 0.950 . S
H284 C292 0.950 . S
H285 C294 0.950 . S
H286 C296 0.950 . S
H287 C298 0.950 . S
H288 C300 0.950 . S
H289 C301 0.950 . S
C290 H282 0.950 . S
C290 C291 1.386 . S
C290 C292 1.391 . S
C291 C290 1.386 . S
C291 C295 1.393 . S
C292 H284 0.950 . S
C292 C290 1.391 . S
C292 C293 1.400 . S
C293 C292 1.400 . S
C293 C294 1.398 . S
C293 C299 1.491 . S
C294 H285 0.950 . S
C294 C293 1.398 . S
C294 C295 1.391 . S
C295 H283 0.950 . S
C295 C291 1.393 . S
C295 C294 1.391 . S
C296 H286 0.950 . S
C296 C297 1.386 . S
C296 C298 1.391 . S
C297 C296 1.386 . S
C297 C301 1.393 . S
C298 H287 0.950 . S
C298 C296 1.391 . S
C298 C299 1.400 . S
C299 C293 1.491 . S
C299 C298 1.400 . S
C299 C300 1.398 . S
C300 H288 0.950 . S
C300 C299 1.398 . S
C300 C301 1.391 . S
C301 H289 0.950 . S
C301 C297 1.393 . S
C301 C300 1.391 . S
H302 C310 0.950 . S
H303 C315 0.950 . S
H304 C312 0.950 . S
H305 C314 0.950 . S
H306 C316 0.950 . S
H307 C318 0.950 . S
H308 C320 0.950 . S
H309 C321 0.950 . S
C310 H302 0.950 . S
C310 C311 1.386 . S
C310 C312 1.391 . S
C311 C310 1.386 . S
C311 C315 1.393 . S
C312 H304 0.950 . S
C312 C310 1.391 . S
C312 C313 1.400 . S
C313 C312 1.400 . S
C313 C314 1.398 . S
C313 C319 1.491 . S
C314 H305 0.950 . S
C314 C313 1.398 . S
C314 C315 1.391 . S
C315 H303 0.950 . S
C315 C311 1.393 . S
C315 C314 1.391 . S
C316 H306 0.950 . S
C316 C317 1.386 . S
C316 C318 1.391 . S
C317 C316 1.386 . S
C317 C321 1.393 . S
C318 H307 0.950 . S
C318 C316 1.391 . S
C318 C319 1.400 . S
C319 C313 1.491 . S
C319 C318 1.400 . S
C319 C320 1.398 . S
C320 H308 0.950 . S
C320 C319 1.398 . S
C320 C321 1.391 . S
C321 H309 0.950 . S
C321 C317 1.393 . S
C321 C320 1.391 . S
H322 C330 0.950 . S
H323 C335 0.950 . S
H324 C332 0.950 . S
H325 C334 0.950 . S
H326 C336 0.950 . S
H327 C338 0.950 . S
H328 C340 0.950 . S
H329 C341 0.950 . S
C330 H322 0.950 . S
C330 C331 1.386 . S
C330 C332 1.391 . S
C331 C330 1.386 . S
C331 C335 1.393 . S
C332 H324 0.950 . S
C332 C330 1.391 . S
C332 C333 1.400 . S
C333 C332 1.400 . S
C333 C334 1.398 . S
C333 C339 1.491 . S
C334 H325 0.950 . S
C334 C333 1.398 . S
C334 C335 1.391 . S
C335 H323 0.950 . S
C335 C331 1.393 . S
C335 C334 1.391 . S
C336 H326 0.950 . S
C336 C337 1.386 . S
C336 C338 1.391 . S
C337 C336 1.386 . S
C337 C341 1.393 . S
C338 H327 0.950 . S
C338 C336 1.391 . S
C338 C339 1.400 . S
C339 C333 1.491 . S
C339 C338 1.400 . S
C339 C340 1.398 . S
C340 H328 0.950 . S
C340 C339 1.398 . S
C340 C341 1.391 . S
C341 H329 0.950 . S
C341 C337 1.393 . S
C341 C340 1.391 . S
H342 C350 0.950 . S
H343 C355 0.950 . S
H344 C352 0.950 . S
H345 C354 0.950 . S
H346 C356 0.950 . S
H347 C358 0.950 . S
H348 C360 0.950 . S
H349 C361 0.950 . S
C350 H342 0.950 . S
C350 C351 1.386 . S
C350 C352 1.391 . S
C351 C350 1.386 . S
C351 C355 1.393 . S
C352 H344 0.950 . S
C352 C350 1.391 . S
C352 C353 1.400 . S
C353 C352 1.400 . S
C353 C354 1.398 . S
C353 C359 1.491 . S
C354 H345 0.950 . S
C354 C353 1.398 . S
C354 C355 1.391 . S
C355 H343 0.950 . S
C355 C351 1.393 . S
C355 C354 1.391 . S
C356 H346 0.950 . S
C356 C357 1.386 . S
C356 C358 1.391 . S
C357 C356 1.386 . S
C357 C361 1.393 . S
C358 H347 0.950 . S
C358 C356 1.391 . S
C358 C359 1.400 . S
C359 C353 1.491 . S
C359 C358 1.400 . S
C359 C360 1.398 . S
C360 H348 0.950 . S
C360 C359 1.398 . S
C360 C361 1.391 . S
C361 H349 0.950 . S
C361 C357 1.393 . S
C361 C360 1.391 . S
C137 C93 1.531 . S
C131 C68 1.420 . S
C151 C11 1.393 . S
C157 C116 1.534 . S
C171 C30 1.426 . S
C177 C92 1.563 . S
C191 C49 1.414 . S
C197 C115 1.561 . S
C217 C96 1.519 . S
C211 C2 1.527 . S
C237 C118 1.533 . S
C231 C25 1.598 . S
C251 C40 1.558 . S
C257 C97 1.528 . S
C271 C59 1.556 . S
C277 C117 1.522 . S
C297 C120 1.426 . S
C291 C21 1.433 . S
C317 C95 1.427 . S
C311 C44 1.494 . S
C337 C119 1.420 . S
C331 C63 1.467 . S
C351 C6 1.477 . S
C357 C94 1.424 . S
