# Generated by pormake.
# Topology ctn, (3,4)-cn, num edge types: 1
# Building blocks:
#     Node 0, Type 0, BuildingBlock: INOVEN_clean_linker_0, # of connection points: 3
#     Node 1, Type 0, BuildingBlock: INOVEN_clean_linker_0, # of connection points: 3
#     Node 2, Type 0, BuildingBlock: INOVEN_clean_linker_0, # of connection points: 3
#     Node 3, Type 0, BuildingBlock: INOVEN_clean_linker_0, # of connection points: 3
#     Node 4, Type 0, BuildingBlock: INOVEN_clean_linker_0, # of connection points: 3
#     Node 5, Type 0, BuildingBlock: INOVEN_clean_linker_0, # of connection points: 3
#     Node 6, Type 0, BuildingBlock: INOVEN_clean_linker_0, # of connection points: 3
#     Node 7, Type 0, BuildingBlock: INOVEN_clean_linker_0, # of connection points: 3
#     Node 8, Type 0, BuildingBlock: INOVEN_clean_linker_0, # of connection points: 3
#     Node 9, Type 0, BuildingBlock: INOVEN_clean_linker_0, # of connection points: 3
#     Node 10, Type 0, BuildingBlock: INOVEN_clean_linker_0, # of connection points: 3
#     Node 11, Type 0, BuildingBlock: INOVEN_clean_linker_0, # of connection points: 3
#     Node 12, Type 0, BuildingBlock: INOVEN_clean_linker_0, # of connection points: 3
#     Node 13, Type 0, BuildingBlock: INOVEN_clean_linker_0, # of connection points: 3
#     Node 14, Type 0, BuildingBlock: INOVEN_clean_linker_0, # of connection points: 3
#     Node 15, Type 0, BuildingBlock: INOVEN_clean_linker_0, # of connection points: 3
#     Node 16, Type 1, BuildingBlock: TATPOV_clean_sbu_0, # of connection points: 4
#     Node 17, Type 1, BuildingBlock: TATPOV_clean_sbu_0, # of connection points: 4
#     Node 18, Type 1, BuildingBlock: TATPOV_clean_sbu_0, # of connection points: 4
#     Node 19, Type 1, BuildingBlock: TATPOV_clean_sbu_0, # of connection points: 4
#     Node 20, Type 1, BuildingBlock: TATPOV_clean_sbu_0, # of connection points: 4
#     Node 21, Type 1, BuildingBlock: TATPOV_clean_sbu_0, # of connection points: 4
#     Node 22, Type 1, BuildingBlock: TATPOV_clean_sbu_0, # of connection points: 4
#     Node 23, Type 1, BuildingBlock: TATPOV_clean_sbu_0, # of connection points: 4
#     Node 24, Type 1, BuildingBlock: TATPOV_clean_sbu_0, # of connection points: 4
#     Node 25, Type 1, BuildingBlock: TATPOV_clean_sbu_0, # of connection points: 4
#     Node 26, Type 1, BuildingBlock: TATPOV_clean_sbu_0, # of connection points: 4
#     Node 27, Type 1, BuildingBlock: TATPOV_clean_sbu_0, # of connection points: 4
#     Edge 28, Type (0, 1), None
#     Edge 29, Type (0, 1), None
#     Edge 30, Type (0, 1), None
#     Edge 31, Type (0, 1), None
#     Edge 32, Type (0, 1), None
#     Edge 33, Type (0, 1), None
#     Edge 34, Type (0, 1), None
#     Edge 35, Type (0, 1), None
#     Edge 36, Type (0, 1), None
#     Edge 37, Type (0, 1), None
#     Edge 38, Type (0, 1), None
#     Edge 39, Type (0, 1), None
#     Edge 40, Type (0, 1), None
#     Edge 41, Type (0, 1), None
#     Edge 42, Type (0, 1), None
#     Edge 43, Type (0, 1), None
#     Edge 44, Type (0, 1), None
#     Edge 45, Type (0, 1), None
#     Edge 46, Type (0, 1), None
#     Edge 47, Type (0, 1), None
#     Edge 48, Type (0, 1), None
#     Edge 49, Type (0, 1), None
#     Edge 50, Type (0, 1), None
#     Edge 51, Type (0, 1), None
#     Edge 52, Type (0, 1), None
#     Edge 53, Type (0, 1), None
#     Edge 54, Type (0, 1), None
#     Edge 55, Type (0, 1), None
#     Edge 56, Type (0, 1), None
#     Edge 57, Type (0, 1), None
#     Edge 58, Type (0, 1), None
#     Edge 59, Type (0, 1), None
#     Edge 60, Type (0, 1), None
#     Edge 61, Type (0, 1), None
#     Edge 62, Type (0, 1), None
#     Edge 63, Type (0, 1), None
#     Edge 64, Type (0, 1), None
#     Edge 65, Type (0, 1), None
#     Edge 66, Type (0, 1), None
#     Edge 67, Type (0, 1), None
#     Edge 68, Type (0, 1), None
#     Edge 69, Type (0, 1), None
#     Edge 70, Type (0, 1), None
#     Edge 71, Type (0, 1), None
#     Edge 72, Type (0, 1), None
#     Edge 73, Type (0, 1), None
#     Edge 74, Type (0, 1), None
#     Edge 75, Type (0, 1), None
# Relax obj value: 0.055
# Max RMSD: 0.150
# Mean RMSD: 0.089
data_MOF--net-ctn--node1-TATPOV_clean_sbu_0--node2-INOVEN_clean_linker_0--edge1-none
_symmetry_space_group_name_H-M    P1
_symmetry_Int_Tables_number       1
_symmetry_cell_setting            triclinic
loop_
_symmetry_equiv_pos_as_xyz
'x, y, z'
_cell_length_a     23.045573
_cell_length_b     23.316504
_cell_length_c     23.61377
_cell_angle_alpha  104.4399
_cell_angle_beta   92.749112
_cell_angle_gamma 98.008538
loop_
_atom_site_label
_atom_site_type_symbol
_atom_site_fract_x
_atom_site_fract_y
_atom_site_fract_z
_atom_type_partial_charge
H0 H 0.95163 0.0338 0.0563 0.0
H1 H 0.06865 0.94617 0.14091 0.0
H2 H 0.10034 0.97307 0.9703 0.0
N3 N 0.0105 0.03699 0.9656 0.0
N4 N 0.03564 0.03256 0.9195 0.0
C5 C 0.98932 0.01059 0.05565 0.0
C6 C 0.00514 0.98939 0.10379 0.0
C7 C 0.02343 0.00553 0.00783 0.0
C8 C 0.07305 0.97601 0.0067 0.0
C9 C 0.08989 0.9544 0.05476 0.0
C10 C 0.05583 0.96193 0.10338 0.0
H11 H 0.18552 0.71704 0.19647 0.0
H12 H 0.30235 0.63948 0.29417 0.0
H13 H 0.36382 0.80187 0.2465 0.0
N14 N 0.26706 0.79991 0.17828 0.0
N15 N 0.3102 0.83549 0.17189 0.0
C16 C 0.22762 0.71936 0.22016 0.0
C17 C 0.23773 0.67426 0.24742 0.0
C18 C 0.27319 0.76467 0.21867 0.0
C19 C 0.32835 0.7667 0.24797 0.0
C20 C 0.33984 0.72137 0.27463 0.0
C21 C 0.2941 0.67495 0.27413 0.0
H22 H 0.00395 0.40081 0.91343 0.0
H23 H 0.07604 0.3336 0.05087 0.0
H24 H 0.01911 0.50718 0.09122 0.0
N25 N 0.97346 0.49514 0.9787 0.0
N26 N 0.95781 0.5406 0.01029 0.0
C27 C 0.01857 0.40712 0.95928 0.0
C28 C 0.04267 0.36201 0.9771 0.0
C29 C 0.00854 0.45839 -0.0003 0.0
C30 C 0.02656 0.46716 0.0593 0.0
C31 C 0.05153 0.42236 0.07794 0.0
C32 C 0.05791 0.36876 0.03681 0.0
H33 H 0.75169 0.8437 0.30968 0.0
H34 H 0.8766 0.81324 0.17919 0.0
H35 H 0.73273 0.67477 0.18219 0.0
N36 N 0.68082 0.74425 0.26763 0.0
N37 N 0.64922 0.69415 0.25181 0.0
C38 C 0.7689 0.81448 0.2733 0.0
C39 C 0.81962 0.83543 0.24916 0.0
C40 C 0.73751 0.7572 0.24928 0.0
C41 C 0.75802 0.71871 0.20187 0.0
C42 C 0.80789 0.7389 0.17621 0.0
C43 C 0.83845 0.79754 0.19949 0.0
H44 H -0.00115 0.9878 0.49835 0.0
H45 H 0.12231 0.05197 0.38885 0.0
H46 H 0.1829 0.01436 0.55062 0.0
N47 N 0.06944 0.97158 0.57426 0.0
N48 N 0.08983 0.92959 0.58792 0.0
C49 C 0.04366 0.0021 0.48969 0.0
C50 C 0.05474 0.01966 0.43836 0.0
C51 C 0.08861 -0.00222 0.52887 0.0
C52 C 0.14753 0.01617 0.51952 0.0
C53 C 0.1598 0.03749 0.46923 0.0
C54 C 0.11319 0.03697 0.42789 0.0
H55 H 0.29657 0.62081 0.72838 0.0
H56 H 0.37029 0.70337 0.90594 0.0
H57 H 0.24185 0.78306 0.82768 0.0
N58 N 0.22252 0.69834 0.72513 0.0
N59 N 0.1817 0.72835 0.73471 0.0
C60 C 0.30127 0.65762 0.76762 0.0
C61 C 0.33879 0.65753 0.81624 0.0
C62 C 0.2653 0.70212 0.77183 0.0
C63 C 0.26897 0.74813 0.82424 0.0
C64 C 0.30728 0.7496 0.87237 0.0
C65 C 0.34218 0.70411 0.86802 0.0
H66 H 0.87036 0.49326 0.40815 0.0
H67 H 0.88244 0.61389 0.57957 0.0
H68 H 0.99017 0.6589 0.44839 0.0
N69 N 0.96101 0.54569 0.37406 0.0
N70 N 0.0129 0.56371 0.36732 0.0
C71 C 0.88548 0.53745 0.43736 0.0
C72 C 0.87018 0.54978 0.49504 0.0
C73 C 0.93129 0.57401 0.42153 0.0
C74 C 0.95463 0.62979 0.46035 0.0
C75 C 0.93389 0.64588 0.51626 0.0
C76 C 0.89325 0.60473 0.53431 0.0
H77 H 0.76297 0.76463 0.88672 0.0
H78 H 0.92396 0.72742 0.80897 0.0
H79 H 0.8323 0.86202 0.76697 0.0
N80 N 0.7392 0.84101 0.82555 0.0
N81 N 0.73784 0.88437 0.8039 0.0
C82 C 0.79781 0.77493 0.85984 0.0
C83 C 0.84583 0.74342 0.8545 0.0
C84 C 0.79238 0.81694 0.82779 0.0
C85 C 0.83683 0.82959 0.79207 0.0
C86 C 0.88427 0.79761 0.78406 0.0
C87 C 0.88874 0.75407 0.81573 0.0
H88 H 0.26297 0.26463 0.38672 0.0
H89 H 0.42396 0.22742 0.30897 0.0
H90 H 0.3323 0.36202 0.26697 0.0
N91 N 0.2392 0.34101 0.32555 0.0
N92 N 0.23784 0.38437 0.3039 0.0
C93 C 0.29781 0.27493 0.35984 0.0
C94 C 0.34583 0.24342 0.3545 0.0
C95 C 0.29238 0.31694 0.32779 0.0
C96 C 0.33683 0.32959 0.29207 0.0
C97 C 0.38427 0.29761 0.28406 0.0
C98 C 0.38874 0.25407 0.31573 0.0
H99 H 0.50395 0.90081 0.41343 0.0
H100 H 0.57604 0.8336 0.55087 0.0
H101 H 0.51911 0.00718 0.59122 0.0
N102 N 0.47346 -0.00486 0.4787 0.0
N103 N 0.45781 0.0406 0.51029 0.0
C104 C 0.51857 0.90712 0.45928 0.0
C105 C 0.54267 0.86201 0.4771 0.0
C106 C 0.50854 0.95839 0.4997 0.0
C107 C 0.52656 0.96716 0.5593 0.0
C108 C 0.55153 0.92236 0.57794 0.0
C109 C 0.55791 0.86876 0.53681 0.0
H110 H 0.25169 0.3437 0.80968 0.0
H111 H 0.3766 0.31324 0.67919 0.0
H112 H 0.23273 0.17477 0.68219 0.0
N113 N 0.18082 0.24425 0.76763 0.0
N114 N 0.14922 0.19415 0.75181 0.0
C115 C 0.26889 0.31448 0.7733 0.0
C116 C 0.31962 0.33543 0.74916 0.0
C117 C 0.23751 0.2572 0.74928 0.0
C118 C 0.25802 0.21871 0.70187 0.0
C119 C 0.30789 0.2389 0.67621 0.0
C120 C 0.33845 0.29754 0.69949 0.0
H121 H 0.68552 0.21704 0.69647 0.0
H122 H 0.80235 0.13948 0.79417 0.0
H123 H 0.86382 0.30187 0.7465 0.0
N124 N 0.76706 0.29991 0.67828 0.0
N125 N 0.8102 0.33549 0.67189 0.0
C126 C 0.72762 0.21936 0.72016 0.0
C127 C 0.73773 0.17426 0.74742 0.0
C128 C 0.77319 0.26467 0.71867 0.0
C129 C 0.82835 0.2667 0.74797 0.0
C130 C 0.83984 0.22137 0.77463 0.0
C131 C 0.7941 0.17495 0.77413 0.0
H132 H 0.45163 0.5338 0.5563 0.0
H133 H 0.56865 0.44617 0.64091 0.0
H134 H 0.60034 0.47307 0.4703 0.0
N135 N 0.5105 0.53699 0.4656 0.0
N136 N 0.53564 0.53256 0.4195 0.0
C137 C 0.48932 0.51059 0.55565 0.0
C138 C 0.50514 0.48939 0.60379 0.0
C139 C 0.52343 0.50553 0.50783 0.0
C140 C 0.57305 0.47601 0.5067 0.0
C141 C 0.58989 0.4544 0.55476 0.0
C142 C 0.55583 0.46193 0.60338 0.0
H143 H 0.49885 0.4878 -0.00165 0.0
H144 H 0.62231 0.55197 0.88885 0.0
H145 H 0.6829 0.51436 0.05062 0.0
N146 N 0.56944 0.47158 0.07426 0.0
N147 N 0.58983 0.42959 0.08792 0.0
C148 C 0.54366 0.5021 0.98969 0.0
C149 C 0.55474 0.51966 0.93836 0.0
C150 C 0.58861 0.49778 0.02887 0.0
C151 C 0.64753 0.51617 0.01952 0.0
C152 C 0.6598 0.53749 0.96923 0.0
C153 C 0.61319 0.53697 0.92789 0.0
H154 H 0.79657 0.12081 0.22838 0.0
H155 H 0.87029 0.20337 0.40594 0.0
H156 H 0.74185 0.28306 0.32768 0.0
N157 N 0.72252 0.19834 0.22513 0.0
N158 N 0.6817 0.22835 0.23471 0.0
C159 C 0.80127 0.15761 0.26762 0.0
C160 C 0.83879 0.15753 0.31624 0.0
C161 C 0.7653 0.20212 0.27183 0.0
C162 C 0.76897 0.24813 0.32424 0.0
C163 C 0.80728 0.2496 0.37237 0.0
C164 C 0.84218 0.20411 0.36802 0.0
H165 H 0.37036 0.99326 0.90815 0.0
H166 H 0.38244 0.11389 0.07957 0.0
H167 H 0.49017 0.1589 0.94839 0.0
N168 N 0.46101 0.04569 0.87406 0.0
N169 N 0.5129 0.06371 0.86732 0.0
C170 C 0.38548 0.03745 0.93736 0.0
C171 C 0.37018 0.04978 0.99504 0.0
C172 C 0.43129 0.07401 0.92153 0.0
C173 C 0.45463 0.12979 0.96035 0.0
C174 C 0.43389 0.14588 0.01626 0.0
C175 C 0.39325 0.10473 0.03431 0.0
Zn176 Zn 0.36669 0.88574 0.02984 0.0
Zn177 Zn 0.25501 0.89128 0.01581 0.0
O178 O 0.26677 0.86292 0.09267 0.0
O179 O 0.36323 0.87555 0.10914 0.0
O180 O 0.16996 0.9082 0.01077 0.0
O181 O 0.39235 0.96726 0.02353 0.0
O182 O 0.2985 0.97391 0.01197 0.0
C183 C 0.31281 0.86212 0.12474 0.0
C184 C 0.31057 0.7982 0.92715 0.0
O185 O 0.26618 0.82451 0.94154 0.0
O186 O 0.35863 0.8143 0.95925 0.0
C187 C 0.14584 0.92964 0.05728 0.0
O188 O 0.17389 0.93491 0.10851 0.0
C189 C 0.35235 -0.00277 0.01641 0.0
Zn190 Zn 0.06833 0.4099 0.25612 0.0
Zn191 Zn 0.14139 0.50876 0.25088 0.0
O192 O 0.09097 0.54882 0.31061 0.0
O193 O 0.02362 0.47099 0.30758 0.0
O194 O 0.20353 0.57505 0.25014 0.0
O195 O 0.13562 0.37701 0.29211 0.0
O196 O 0.19162 0.45451 0.27577 0.0
C197 C 0.04276 0.52682 0.32575 0.0
C198 C 0.07011 0.43172 0.14034 0.0
O199 O 0.10185 0.48076 0.16792 0.0
O200 O 0.05346 0.39172 0.1665 0.0
C201 C 0.19053 0.62432 0.24451 0.0
O202 O 0.13511 0.62975 0.23529 0.0
C203 C 0.1861 0.4068 0.29262 0.0
Zn204 Zn 0.82576 0.57623 0.89812 0.0
Zn205 Zn 0.83083 0.65731 0.00192 0.0
O206 O 0.89922 0.61491 0.01744 0.0
O207 O 0.89213 0.54458 0.93443 0.0
O208 O 0.83255 0.72006 0.07767 0.0
O209 O 0.84504 0.64178 0.85532 0.0
O210 O 0.83848 0.70633 0.93966 0.0
C211 C 0.91647 0.56904 0.98579 0.0
C212 C 0.72031 0.56208 0.95969 0.0
O213 O 0.75044 0.60427 -0.00045 0.0
O214 O 0.74023 0.54452 0.91016 0.0
C215 C 0.82348 0.6997 0.12205 0.0
O216 O 0.81621 0.64143 0.11545 0.0
C217 C 0.84596 0.69527 0.885 0.0
Zn218 Zn 0.88235 0.00605 0.36259 0.0
Zn219 Zn 0.9437 0.0063 0.27538 0.0
O220 O 0.8976 0.07987 0.28046 0.0
O221 O 0.85169 0.08051 0.36045 0.0
O222 O 0.99229 0.00099 0.20566 0.0
O223 O 0.95298 0.01241 0.41563 0.0
O224 O 0.00868 0.01777 0.34372 0.0
C225 C 0.86437 0.10356 0.31872 0.0
C226 C 0.85078 0.89707 0.27631 0.0
O227 O 0.892 0.92163 0.25191 0.0
O228 O 0.83598 0.92559 0.32498 0.0
C229 C 0.96927 -0.00246 0.15473 0.0
O230 O 0.91316 0.00137 0.14775 0.0
C231 C 0.00354 0.01788 0.39725 0.0
Zn232 Zn 0.32576 0.07623 0.39812 0.0
Zn233 Zn 0.33083 0.15731 0.50192 0.0
O234 O 0.39922 0.11491 0.51744 0.0
O235 O 0.39213 0.04458 0.43443 0.0
O236 O 0.33255 0.22006 0.57767 0.0
O237 O 0.34504 0.14178 0.35532 0.0
O238 O 0.33848 0.20633 0.43966 0.0
C239 C 0.41647 0.06904 0.48579 0.0
C240 C 0.22031 0.06208 0.45969 0.0
O241 O 0.25044 0.10427 0.49955 0.0
O242 O 0.24023 0.04452 0.41016 0.0
C243 C 0.32348 0.1997 0.62205 0.0
O244 O 0.31621 0.14143 0.61545 0.0
C245 C 0.34596 0.19527 0.385 0.0
Zn246 Zn 0.38235 0.50605 0.86259 0.0
Zn247 Zn 0.4437 0.5063 0.77538 0.0
O248 O 0.3976 0.57987 0.78046 0.0
O249 O 0.35169 0.58051 0.86045 0.0
O250 O 0.49229 0.50099 0.70566 0.0
O251 O 0.45298 0.51241 0.91563 0.0
O252 O 0.50868 0.51777 0.84372 0.0
C253 C 0.36437 0.60356 0.81872 0.0
C254 C 0.35078 0.39707 0.77631 0.0
O255 O 0.392 0.42163 0.75191 0.0
O256 O 0.33598 0.42559 0.82498 0.0
C257 C 0.46927 0.49754 0.65473 0.0
O258 O 0.41316 0.50137 0.64775 0.0
C259 C 0.50354 0.51788 0.89725 0.0
Zn260 Zn 0.86669 0.38574 0.52984 0.0
Zn261 Zn 0.75501 0.39128 0.51581 0.0
O262 O 0.76677 0.36292 0.59267 0.0
O263 O 0.86323 0.37555 0.60914 0.0
O264 O 0.66996 0.4082 0.51077 0.0
O265 O 0.89235 0.46726 0.52353 0.0
O266 O 0.7985 0.47391 0.51197 0.0
C267 C 0.81281 0.36212 0.62474 0.0
C268 C 0.81057 0.2982 0.42715 0.0
O269 O 0.76618 0.32451 0.44154 0.0
O270 O 0.85863 0.3143 0.45925 0.0
C271 C 0.64584 0.42964 0.55728 0.0
O272 O 0.67389 0.43491 0.60851 0.0
C273 C 0.85235 0.49723 0.51641 0.0
Zn274 Zn 0.56833 0.9099 0.75612 0.0
Zn275 Zn 0.64139 0.00876 0.75088 0.0
O276 O 0.59097 0.04882 0.81061 0.0
O277 O 0.52362 0.97099 0.80758 0.0
O278 O 0.70353 0.07505 0.75014 0.0
O279 O 0.63562 0.87701 0.79211 0.0
O280 O 0.69162 0.95451 0.77577 0.0
C281 C 0.54276 0.02682 0.82575 0.0
C282 C 0.57011 0.93172 0.64034 0.0
O283 O 0.60185 0.98076 0.66792 0.0
O284 O 0.55346 0.89172 0.6665 0.0
C285 C 0.69053 0.12432 0.74451 0.0
O286 O 0.63511 0.12975 0.73529 0.0
C287 C 0.6861 0.9068 0.79262 0.0
Zn288 Zn 0.01943 0.26005 0.81484 0.0
Zn289 Zn 0.00156 0.18277 0.85972 0.0
O290 O 0.07737 0.17657 0.81354 0.0
O291 O 0.05922 0.2227 0.7463 0.0
O292 O 0.99826 0.11394 0.89885 0.0
O293 O 0.06745 0.31588 0.8844 0.0
O294 O 0.0146 0.2587 0.92966 0.0
C295 C 0.09083 0.19149 0.76686 0.0
C296 C 0.90078 0.22313 0.79935 0.0
O297 O 0.91865 0.17875 0.81409 0.0
O298 O 0.93717 0.26977 0.80258 0.0
C299 C 0.02585 0.06972 0.88196 0.0
O300 O 0.05318 0.0642 0.83391 0.0
C301 C 0.04727 0.30796 0.93114 0.0
Zn302 Zn 0.51943 0.76005 0.31484 0.0
Zn303 Zn 0.50156 0.68277 0.35972 0.0
O304 O 0.57737 0.67657 0.31354 0.0
O305 O 0.55922 0.7227 0.2463 0.0
O306 O 0.49826 0.61394 0.39885 0.0
O307 O 0.56745 0.81588 0.3844 0.0
O308 O 0.5146 0.7587 0.42966 0.0
C309 C 0.59083 0.69149 0.26686 0.0
C310 C 0.40078 0.72313 0.29935 0.0
O311 O 0.41865 0.67875 0.31409 0.0
O312 O 0.43717 0.76977 0.30258 0.0
C313 C 0.52585 0.56972 0.38196 0.0
O314 O 0.55318 0.5642 0.33391 0.0
C315 C 0.54727 0.80796 0.43114 0.0
Zn316 Zn 0.94724 0.82328 0.62571 0.0
Zn317 Zn 0.02999 0.7799 0.66498 0.0
O318 O 0.07216 0.85121 0.63402 0.0
O319 O -0.00114 0.89597 0.61503 0.0
O320 O 0.09754 0.75985 0.70778 0.0
O321 O 0.90184 0.82627 0.69612 0.0
O322 O 0.97153 0.78663 0.73131 0.0
C323 C 0.0535 0.89386 0.61738 0.0
C324 C 0.95652 0.70354 0.55777 0.0
O325 O 0.99764 0.70714 0.59715 0.0
O326 O 0.92927 0.74731 0.55884 0.0
C327 C 0.13756 0.72879 0.69162 0.0
O328 O 0.13914 0.70073 0.6362 0.0
C329 C 0.92194 0.80492 0.73591 0.0
Zn330 Zn 0.44724 0.32328 0.12571 0.0
Zn331 Zn 0.52999 0.2799 0.16498 0.0
O332 O 0.57216 0.35121 0.13402 0.0
O333 O 0.49886 0.39597 0.11503 0.0
O334 O 0.59754 0.25985 0.20778 0.0
O335 O 0.40184 0.32627 0.19612 0.0
O336 O 0.47153 0.28663 0.23131 0.0
C337 C 0.5535 0.39386 0.11738 0.0
C338 C 0.45652 0.20354 0.05777 0.0
O339 O 0.49764 0.20714 0.09715 0.0
O340 O 0.42927 0.24731 0.05884 0.0
C341 C 0.63756 0.22879 0.19162 0.0
O342 O 0.63914 0.20073 0.13621 0.0
C343 C 0.42194 0.30492 0.23591 0.0
loop_
_geom_bond_atom_site_label_1
_geom_bond_atom_site_label_2
_geom_bond_distance
_geom_bond_site_symmetry_2
_ccdc_geom_bond_type
H0 C5 0.929 1_655 S
H1 C10 0.931 . S
H2 C8 0.930 1_556 S
N3 N4 1.234 1_554 S
N3 C7 1.453 . S
N4 N3 1.234 1_556 S
C5 H0 0.929 1_455 S
C5 C6 1.373 . S
C5 C7 1.368 . S
C6 C5 1.373 . S
C6 C10 1.397 1_545 S
C7 N3 1.453 . S
C7 C5 1.368 . S
C7 C8 1.373 . S
C8 H2 0.930 1_554 S
C8 C7 1.373 . S
C8 C9 1.371 1_545 S
C9 C8 1.371 1_565 S
C9 C10 1.383 . S
C10 H1 0.931 . S
C10 C6 1.397 1_565 S
C10 C9 1.383 . S
H11 C16 0.929 . S
H12 C21 0.931 . S
H13 C19 0.930 . S
N14 N15 1.234 . S
N14 C18 1.453 . S
N15 N14 1.234 . S
C16 H11 0.929 . S
C16 C17 1.373 . S
C16 C18 1.368 . S
C17 C16 1.373 . S
C17 C21 1.397 . S
C18 N14 1.453 . S
C18 C16 1.368 . S
C18 C19 1.373 . S
C19 H13 0.930 . S
C19 C18 1.373 . S
C19 C20 1.371 . S
C20 C19 1.371 . S
C20 C21 1.383 . S
C21 H12 0.931 . S
C21 C17 1.397 . S
C21 C20 1.383 . S
H22 C27 0.929 . S
H23 C32 0.931 . S
H24 C30 0.930 . S
N25 N26 1.234 . S
N25 C29 1.453 . S
N26 N25 1.234 . S
C27 H22 0.929 . S
C27 C28 1.373 1_656 S
C27 C29 1.368 1_556 S
C28 C27 1.373 1_454 S
C28 C32 1.397 . S
C29 N25 1.453 . S
C29 C27 1.368 1_554 S
C29 C30 1.373 . S
C30 H24 0.930 . S
C30 C29 1.373 . S
C30 C31 1.371 1_655 S
C31 C30 1.371 1_455 S
C31 C32 1.383 . S
C32 H23 0.931 . S
C32 C28 1.397 . S
C32 C31 1.383 . S
H33 C38 0.929 . S
H34 C43 0.931 . S
H35 C41 0.930 . S
N36 N37 1.234 . S
N36 C40 1.453 . S
N37 N36 1.234 . S
C38 H33 0.929 . S
C38 C39 1.373 . S
C38 C40 1.368 . S
C39 C38 1.373 . S
C39 C43 1.397 . S
C40 N36 1.453 . S
C40 C38 1.368 . S
C40 C41 1.373 . S
C41 H35 0.930 . S
C41 C40 1.373 . S
C41 C42 1.371 . S
C42 C41 1.371 . S
C42 C43 1.383 . S
C43 H34 0.931 . S
C43 C39 1.397 . S
C43 C42 1.383 . S
H44 C49 0.929 1_655 S
H45 C54 0.931 . S
H46 C52 0.930 . S
N47 N48 1.234 . S
N47 C51 1.453 . S
N48 N47 1.234 . S
C49 H44 0.929 1_455 S
C49 C50 1.373 . S
C49 C51 1.368 . S
C50 C49 1.373 . S
C50 C54 1.397 1_565 S
C51 N47 1.453 . S
C51 C49 1.368 . S
C51 C52 1.373 . S
C52 H46 0.930 . S
C52 C51 1.373 . S
C52 C53 1.371 1_565 S
C53 C52 1.371 1_545 S
C53 C54 1.383 . S
C54 H45 0.931 . S
C54 C50 1.397 1_545 S
C54 C53 1.383 . S
H55 C60 0.929 . S
H56 C65 0.931 . S
H57 C63 0.930 . S
N58 N59 1.234 . S
N58 C62 1.453 . S
N59 N58 1.234 . S
C60 H55 0.929 . S
C60 C61 1.373 . S
C60 C62 1.368 . S
C61 C60 1.373 . S
C61 C65 1.397 . S
C62 N58 1.453 . S
C62 C60 1.368 . S
C62 C63 1.373 . S
C63 H57 0.930 . S
C63 C62 1.373 . S
C63 C64 1.371 . S
C64 C63 1.371 . S
C64 C65 1.383 . S
C65 H56 0.931 . S
C65 C61 1.397 . S
C65 C64 1.383 . S
H66 C71 0.929 . S
H67 C76 0.931 . S
H68 C74 0.930 . S
N69 N70 1.234 . S
N69 C73 1.453 1_455 S
N70 N69 1.234 . S
C71 H66 0.929 . S
C71 C72 1.373 . S
C71 C73 1.368 . S
C72 C71 1.373 . S
C72 C76 1.397 . S
C73 N69 1.453 1_655 S
C73 C71 1.368 . S
C73 C74 1.373 1_655 S
C74 H68 0.930 . S
C74 C73 1.373 1_455 S
C74 C75 1.371 1_455 S
C75 C74 1.371 1_655 S
C75 C76 1.383 . S
C76 H67 0.931 . S
C76 C72 1.397 . S
C76 C75 1.383 . S
H77 C82 0.929 . S
H78 C87 0.931 . S
H79 C85 0.930 . S
N80 N81 1.234 . S
N80 C84 1.453 . S
N81 N80 1.234 . S
C82 H77 0.929 . S
C82 C83 1.373 . S
C82 C84 1.368 . S
C83 C82 1.373 . S
C83 C87 1.397 . S
C84 N80 1.453 . S
C84 C82 1.368 . S
C84 C85 1.373 . S
C85 H79 0.930 . S
C85 C84 1.373 . S
C85 C86 1.371 . S
C86 C85 1.371 . S
C86 C87 1.383 . S
C87 H78 0.931 . S
C87 C83 1.397 . S
C87 C86 1.383 . S
H88 C93 0.929 . S
H89 C98 0.931 . S
H90 C96 0.930 . S
N91 N92 1.234 . S
N91 C95 1.453 . S
N92 N91 1.234 . S
C93 H88 0.929 . S
C93 C94 1.373 . S
C93 C95 1.368 . S
C94 C93 1.373 . S
C94 C98 1.397 . S
C95 N91 1.453 . S
C95 C93 1.368 . S
C95 C96 1.373 . S
C96 H90 0.930 . S
C96 C95 1.373 . S
C96 C97 1.371 . S
C97 C96 1.371 . S
C97 C98 1.383 . S
C98 H89 0.931 . S
C98 C94 1.397 . S
C98 C97 1.383 . S
H99 C104 0.929 . S
H100 C109 0.931 . S
H101 C107 0.930 1_545 S
N102 N103 1.234 . S
N102 C106 1.453 1_545 S
N103 N102 1.234 . S
C104 H99 0.929 . S
C104 C105 1.373 . S
C104 C106 1.368 . S
C105 C104 1.373 . S
C105 C109 1.397 . S
C106 N102 1.453 1_565 S
C106 C104 1.368 . S
C106 C107 1.373 . S
C107 H101 0.930 1_565 S
C107 C106 1.373 . S
C107 C108 1.371 . S
C108 C107 1.371 . S
C108 C109 1.383 . S
C109 H100 0.931 . S
C109 C105 1.397 . S
C109 C108 1.383 . S
H110 C115 0.929 . S
H111 C120 0.931 . S
H112 C118 0.930 . S
N113 N114 1.234 . S
N113 C117 1.453 . S
N114 N113 1.234 . S
C115 H110 0.929 . S
C115 C116 1.373 . S
C115 C117 1.368 . S
C116 C115 1.373 . S
C116 C120 1.397 . S
C117 N113 1.453 . S
C117 C115 1.368 . S
C117 C118 1.373 . S
C118 H112 0.930 . S
C118 C117 1.373 . S
C118 C119 1.371 . S
C119 C118 1.371 . S
C119 C120 1.383 . S
C120 H111 0.931 . S
C120 C116 1.397 . S
C120 C119 1.383 . S
H121 C126 0.929 . S
H122 C131 0.931 . S
H123 C129 0.930 . S
N124 N125 1.234 . S
N124 C128 1.453 . S
N125 N124 1.234 . S
C126 H121 0.929 . S
C126 C127 1.373 . S
C126 C128 1.368 . S
C127 C126 1.373 . S
C127 C131 1.397 . S
C128 N124 1.453 . S
C128 C126 1.368 . S
C128 C129 1.373 . S
C129 H123 0.930 . S
C129 C128 1.373 . S
C129 C130 1.371 . S
C130 C129 1.371 . S
C130 C131 1.383 . S
C131 H122 0.931 . S
C131 C127 1.397 . S
C131 C130 1.383 . S
H132 C137 0.929 . S
H133 C142 0.931 . S
H134 C140 0.930 . S
N135 N136 1.234 . S
N135 C139 1.453 . S
N136 N135 1.234 . S
C137 H132 0.929 . S
C137 C138 1.373 . S
C137 C139 1.368 . S
C138 C137 1.373 . S
C138 C142 1.397 . S
C139 N135 1.453 . S
C139 C137 1.368 . S
C139 C140 1.373 . S
C140 H134 0.930 . S
C140 C139 1.373 . S
C140 C141 1.371 . S
C141 C140 1.371 . S
C141 C142 1.383 . S
C142 H133 0.931 . S
C142 C138 1.397 . S
C142 C141 1.383 . S
H143 C148 0.929 . S
H144 C153 0.931 . S
H145 C151 0.930 . S
N146 N147 1.234 . S
N146 C150 1.453 1_554 S
N147 N146 1.234 . S
C148 H143 0.929 . S
C148 C149 1.373 . S
C148 C150 1.368 . S
C149 C148 1.373 . S
C149 C153 1.397 . S
C150 N146 1.453 1_556 S
C150 C148 1.368 . S
C150 C151 1.373 1_556 S
C151 H145 0.930 . S
C151 C150 1.373 1_554 S
C151 C152 1.371 1_554 S
C152 C151 1.371 1_556 S
C152 C153 1.383 . S
C153 H144 0.931 . S
C153 C149 1.397 . S
C153 C152 1.383 . S
H154 C159 0.929 . S
H155 C164 0.931 . S
H156 C162 0.930 . S
N157 N158 1.234 . S
N157 C161 1.453 . S
N158 N157 1.234 . S
C159 H154 0.929 . S
C159 C160 1.373 . S
C159 C161 1.368 . S
C160 C159 1.373 . S
C160 C164 1.397 . S
C161 N157 1.453 . S
C161 C159 1.368 . S
C161 C162 1.373 . S
C162 H156 0.930 . S
C162 C161 1.373 . S
C162 C163 1.371 . S
C163 C162 1.371 . S
C163 C164 1.383 . S
C164 H155 0.931 . S
C164 C160 1.397 . S
C164 C163 1.383 . S
H165 C170 0.929 1_565 S
H166 C175 0.931 . S
H167 C173 0.930 . S
N168 N169 1.234 . S
N168 C172 1.453 . S
N169 N168 1.234 . S
C170 H165 0.929 1_545 S
C170 C171 1.373 . S
C170 C172 1.368 . S
C171 C170 1.373 . S
C171 C175 1.397 1_556 S
C172 N168 1.453 . S
C172 C170 1.368 . S
C172 C173 1.373 . S
C173 H167 0.930 . S
C173 C172 1.373 . S
C173 C174 1.371 1_556 S
C174 C173 1.371 1_554 S
C174 C175 1.383 . S
C175 H166 0.931 . S
C175 C171 1.397 1_554 S
C175 C174 1.383 . S
Zn176 O179 2.031 . S
Zn176 O181 2.049 1_554 S
Zn176 O186 2.067 1_554 S
Zn177 O178 1.962 . S
Zn177 O180 1.986 . S
Zn177 O182 1.996 . S
Zn177 O185 1.943 1_554 S
O178 Zn177 1.962 . S
O178 C183 1.254 . S
O179 Zn176 2.031 . S
O179 C183 1.269 . S
O180 Zn177 1.986 . S
O180 C187 1.262 . S
O181 Zn176 2.049 1_556 S
O181 C189 1.260 1_556 S
O182 Zn177 1.996 . S
O182 C189 1.257 . S
C183 O178 1.254 . S
C183 O179 1.269 . S
C184 O185 1.249 . S
C184 O186 1.270 . S
O185 Zn177 1.943 1_556 S
O185 C184 1.249 . S
O186 Zn176 2.067 1_556 S
O186 C184 1.270 . S
C187 O180 1.262 . S
C187 O188 1.232 . S
O188 C187 1.232 . S
C189 O181 1.260 1_554 S
C189 O182 1.257 . S
Zn190 O193 2.031 . S
Zn190 O195 2.049 . S
Zn190 O200 2.067 . S
Zn191 O192 1.962 . S
Zn191 O194 1.986 . S
Zn191 O196 1.996 . S
Zn191 O199 1.943 . S
O192 Zn191 1.962 . S
O192 C197 1.254 . S
O193 Zn190 2.031 . S
O193 C197 1.269 . S
O194 Zn191 1.986 . S
O194 C201 1.262 . S
O195 Zn190 2.049 . S
O195 C203 1.260 . S
O196 Zn191 1.996 . S
O196 C203 1.257 . S
C197 O192 1.254 . S
C197 O193 1.269 . S
C198 O199 1.249 . S
C198 O200 1.270 . S
O199 Zn191 1.943 . S
O199 C198 1.249 . S
O200 Zn190 2.067 . S
O200 C198 1.270 . S
C201 O194 1.262 . S
C201 O202 1.232 . S
O202 C201 1.232 . S
C203 O195 1.260 . S
C203 O196 1.257 . S
Zn204 O207 2.031 . S
Zn204 O209 2.049 . S
Zn204 O214 2.067 . S
Zn205 O206 1.962 . S
Zn205 O208 1.986 . S
Zn205 O210 1.996 1_554 S
Zn205 O213 1.943 . S
O206 Zn205 1.962 . S
O206 C211 1.254 . S
O207 Zn204 2.031 . S
O207 C211 1.269 1_556 S
O208 Zn205 1.986 . S
O208 C215 1.262 . S
O209 Zn204 2.049 . S
O209 C217 1.260 . S
O210 Zn205 1.996 1_556 S
O210 C217 1.257 . S
C211 O206 1.254 . S
C211 O207 1.269 1_554 S
C212 O213 1.249 1_556 S
C212 O214 1.270 . S
O213 Zn205 1.943 . S
O213 C212 1.249 1_554 S
O214 Zn204 2.067 . S
O214 C212 1.270 . S
C215 O208 1.262 . S
C215 O216 1.232 . S
O216 C215 1.232 . S
C217 O209 1.260 . S
C217 O210 1.257 . S
Zn218 O221 2.031 . S
Zn218 O223 2.049 1_545 S
Zn218 O228 2.067 1_545 S
Zn219 O220 1.962 . S
Zn219 O222 1.986 1_655 S
Zn219 O224 1.996 . S
Zn219 O227 1.943 1_545 S
O220 Zn219 1.962 . S
O220 C225 1.254 . S
O221 Zn218 2.031 . S
O221 C225 1.269 . S
O222 Zn219 1.986 1_455 S
O222 C229 1.262 . S
O223 Zn218 2.049 1_565 S
O223 C231 1.260 1_665 S
O224 Zn219 1.996 . S
O224 C231 1.257 1_655 S
C225 O220 1.254 . S
C225 O221 1.269 . S
C226 O227 1.249 . S
C226 O228 1.270 . S
O227 Zn219 1.943 1_565 S
O227 C226 1.249 . S
O228 Zn218 2.067 1_565 S
O228 C226 1.270 . S
C229 O222 1.262 . S
C229 O230 1.232 1_455 S
O230 C229 1.232 1_655 S
C231 O223 1.260 1_445 S
C231 O224 1.257 1_455 S
Zn232 O235 2.031 . S
Zn232 O237 2.049 . S
Zn232 O242 2.067 . S
Zn233 O234 1.962 . S
Zn233 O236 1.986 . S
Zn233 O238 1.996 . S
Zn233 O241 1.943 . S
O234 Zn233 1.962 . S
O234 C239 1.254 . S
O235 Zn232 2.031 . S
O235 C239 1.269 . S
O236 Zn233 1.986 . S
O236 C243 1.262 . S
O237 Zn232 2.049 . S
O237 C245 1.260 . S
O238 Zn233 1.996 . S
O238 C245 1.257 . S
C239 O234 1.254 . S
C239 O235 1.269 . S
C240 O241 1.249 . S
C240 O242 1.270 . S
O241 Zn233 1.943 . S
O241 C240 1.249 . S
O242 Zn232 2.067 . S
O242 C240 1.270 . S
C243 O236 1.262 . S
C243 O244 1.232 . S
O244 C243 1.232 . S
C245 O237 1.260 . S
C245 O238 1.257 . S
Zn246 O249 2.031 . S
Zn246 O251 2.049 . S
Zn246 O256 2.067 . S
Zn247 O248 1.962 . S
Zn247 O250 1.986 . S
Zn247 O252 1.996 . S
Zn247 O255 1.943 . S
O248 Zn247 1.962 . S
O248 C253 1.254 . S
O249 Zn246 2.031 . S
O249 C253 1.269 . S
O250 Zn247 1.986 . S
O250 C257 1.262 . S
O251 Zn246 2.049 . S
O251 C259 1.260 . S
O252 Zn247 1.996 . S
O252 C259 1.257 . S
C253 O248 1.254 . S
C253 O249 1.269 . S
C254 O255 1.249 . S
C254 O256 1.270 . S
O255 Zn247 1.943 . S
O255 C254 1.249 . S
O256 Zn246 2.067 . S
O256 C254 1.270 . S
C257 O250 1.262 . S
C257 O258 1.232 . S
O258 C257 1.232 . S
C259 O251 1.260 . S
C259 O252 1.257 . S
Zn260 O263 2.031 . S
Zn260 O265 2.049 . S
Zn260 O270 2.067 . S
Zn261 O262 1.962 . S
Zn261 O264 1.986 . S
Zn261 O266 1.996 . S
Zn261 O269 1.943 . S
O262 Zn261 1.962 . S
O262 C267 1.254 . S
O263 Zn260 2.031 . S
O263 C267 1.269 . S
O264 Zn261 1.986 . S
O264 C271 1.262 . S
O265 Zn260 2.049 . S
O265 C273 1.260 . S
O266 Zn261 1.996 . S
O266 C273 1.257 . S
C267 O262 1.254 . S
C267 O263 1.269 . S
C268 O269 1.249 . S
C268 O270 1.270 . S
O269 Zn261 1.943 . S
O269 C268 1.249 . S
O270 Zn260 2.067 . S
O270 C268 1.270 . S
C271 O264 1.262 . S
C271 O272 1.232 . S
O272 C271 1.232 . S
C273 O265 1.260 . S
C273 O266 1.257 . S
Zn274 O277 2.031 . S
Zn274 O279 2.049 . S
Zn274 O284 2.067 . S
Zn275 O276 1.962 . S
Zn275 O278 1.986 . S
Zn275 O280 1.996 1_545 S
Zn275 O283 1.943 1_545 S
O276 Zn275 1.962 . S
O276 C281 1.254 . S
O277 Zn274 2.031 . S
O277 C281 1.269 1_565 S
O278 Zn275 1.986 . S
O278 C285 1.262 . S
O279 Zn274 2.049 . S
O279 C287 1.260 . S
O280 Zn275 1.996 1_565 S
O280 C287 1.257 . S
C281 O276 1.254 . S
C281 O277 1.269 1_545 S
C282 O283 1.249 . S
C282 O284 1.270 . S
O283 Zn275 1.943 1_565 S
O283 C282 1.249 . S
O284 Zn274 2.067 . S
O284 C282 1.270 . S
C285 O278 1.262 . S
C285 O286 1.232 . S
O286 C285 1.232 . S
C287 O279 1.260 . S
C287 O280 1.257 . S
Zn288 O291 2.031 . S
Zn288 O293 2.049 1_455 S
Zn288 O298 2.067 1_455 S
Zn289 O290 1.962 . S
Zn289 O292 1.986 . S
Zn289 O294 1.996 . S
Zn289 O297 1.943 1_455 S
O290 Zn289 1.962 . S
O290 C295 1.254 . S
O291 Zn288 2.031 . S
O291 C295 1.269 . S
O292 Zn289 1.986 . S
O292 C299 1.262 . S
O293 Zn288 2.049 1_655 S
O293 C301 1.264 . S
O294 Zn289 1.996 . S
O294 C301 1.249 1_455 S
C295 O290 1.254 . S
C295 O291 1.269 . S
C296 O297 1.249 . S
C296 O298 1.270 . S
O297 Zn289 1.943 1_655 S
O297 C296 1.249 . S
O298 Zn288 2.067 1_655 S
O298 C296 1.270 . S
C299 O292 1.262 . S
C299 O300 1.232 . S
O300 C299 1.232 . S
C301 O293 1.264 . S
C301 O294 1.249 1_655 S
Zn302 O305 2.031 . S
Zn302 O307 2.049 . S
Zn302 O312 2.067 . S
Zn303 O304 1.962 . S
Zn303 O306 1.986 . S
Zn303 O308 1.996 . S
Zn303 O311 1.943 . S
O304 Zn303 1.962 . S
O304 C309 1.254 . S
O305 Zn302 2.031 . S
O305 C309 1.269 . S
O306 Zn303 1.986 . S
O306 C313 1.262 . S
O307 Zn302 2.049 . S
O307 C315 1.260 . S
O308 Zn303 1.996 . S
O308 C315 1.257 . S
C309 O304 1.254 . S
C309 O305 1.269 . S
C310 O311 1.249 . S
C310 O312 1.270 . S
O311 Zn303 1.943 . S
O311 C310 1.249 . S
O312 Zn302 2.067 . S
O312 C310 1.270 . S
C313 O306 1.262 . S
C313 O314 1.232 . S
O314 C313 1.232 . S
C315 O307 1.260 . S
C315 O308 1.257 . S
Zn316 O319 2.031 . S
Zn316 O321 2.049 . S
Zn316 O326 2.067 . S
Zn317 O318 1.962 . S
Zn317 O320 1.986 . S
Zn317 O322 1.996 1_455 S
Zn317 O325 1.943 . S
O318 Zn317 1.962 . S
O318 C323 1.254 . S
O319 Zn316 2.031 . S
O319 C323 1.269 1_655 S
O320 Zn317 1.986 . S
O320 C327 1.262 . S
O321 Zn316 2.049 . S
O321 C329 1.260 . S
O322 Zn317 1.996 1_655 S
O322 C329 1.257 . S
C323 O318 1.254 . S
C323 O319 1.269 1_455 S
C324 O325 1.249 1_655 S
C324 O326 1.270 . S
O325 Zn317 1.943 . S
O325 C324 1.249 1_455 S
O326 Zn316 2.067 . S
O326 C324 1.270 . S
C327 O320 1.262 . S
C327 O328 1.232 . S
O328 C327 1.232 . S
C329 O321 1.260 . S
C329 O322 1.257 . S
Zn330 O333 2.031 . S
Zn330 O335 2.049 . S
Zn330 O340 2.067 . S
Zn331 O332 1.962 . S
Zn331 O334 1.986 . S
Zn331 O336 1.996 . S
Zn331 O339 1.943 . S
O332 Zn331 1.962 . S
O332 C337 1.254 . S
O333 Zn330 2.031 . S
O333 C337 1.269 . S
O334 Zn331 1.986 . S
O334 C341 1.262 . S
O335 Zn330 2.049 . S
O335 C343 1.260 . S
O336 Zn331 1.996 . S
O336 C343 1.257 . S
C337 O332 1.254 . S
C337 O333 1.269 . S
C338 O339 1.249 . S
C338 O340 1.270 . S
O339 Zn331 1.943 . S
O339 C338 1.249 . S
O340 Zn330 2.067 . S
O340 C338 1.270 . S
C341 O334 1.262 . S
C341 O342 1.232 . S
O342 C341 1.232 . S
C343 O335 1.260 . S
C343 O336 1.257 . S
C184 C64 1.707 . S
C197 N70 1.420 . S
C83 C217 1.728 . S
C231 C50 1.408 1_545 S
C243 C119 1.515 . S
C257 C138 1.753 . S
N125 C267 1.338 . S
C282 C108 1.607 . S
C130 C296 1.421 . S
C315 C105 1.361 . S
N114 C295 1.326 . S
C313 N136 1.409 . S
C86 C329 1.807 . S
N48 C323 1.829 . S
N59 C327 1.406 . S
C75 C324 1.272 . S
C39 C226 1.682 . S
C160 C225 1.909 . S
C189 C171 1.506 1_564 S
C203 N92 1.333 . S
C53 C240 1.843 . S
C285 C127 1.494 . S
C239 N103 1.608 . S
C271 C141 1.770 . S
C268 C163 1.707 . S
N169 C281 1.420 . S
C94 C245 1.728 . S
C259 C149 1.408 . S
C42 C215 1.515 . S
C229 C6 1.753 . S
C183 N15 1.337 . S
C198 C31 1.607 . S
C20 C310 1.421 . S
C28 C301 1.362 1_454 S
N37 C309 1.326 . S
N4 C299 1.409 . S
C343 C97 1.807 . S
C337 N147 1.829 . S
C341 N158 1.406 . S
C174 C338 1.272 . S
C116 C254 1.682 . S
C253 C61 1.909 . S
C273 C72 1.506 . S
C287 N81 1.333 . S
C152 C212 1.843 . S
C201 C17 1.494 . S
N26 C211 1.608 . S
C187 C9 1.770 . S
