# Generated by pormake.
# Topology ana-f, (3,3)-cn, num edge types: 1
# Building blocks:
#     Node 0, Type 0, BuildingBlock: WUSLED_clean_sbu_0, # of connection points: 3
#     Node 1, Type 0, BuildingBlock: WUSLED_clean_sbu_0, # of connection points: 3
#     Node 2, Type 0, BuildingBlock: WUSLED_clean_sbu_0, # of connection points: 3
#     Node 3, Type 0, BuildingBlock: WUSLED_clean_sbu_0, # of connection points: 3
#     Node 4, Type 0, BuildingBlock: WUSLED_clean_sbu_0, # of connection points: 3
#     Node 5, Type 0, BuildingBlock: WUSLED_clean_sbu_0, # of connection points: 3
#     Node 6, Type 0, BuildingBlock: WUSLED_clean_sbu_0, # of connection points: 3
#     Node 7, Type 0, BuildingBlock: WUSLED_clean_sbu_0, # of connection points: 3
#     Node 8, Type 0, BuildingBlock: WUSLED_clean_sbu_0, # of connection points: 3
#     Node 9, Type 0, BuildingBlock: WUSLED_clean_sbu_0, # of connection points: 3
#     Node 10, Type 0, BuildingBlock: WUSLED_clean_sbu_0, # of connection points: 3
#     Node 11, Type 0, BuildingBlock: WUSLED_clean_sbu_0, # of connection points: 3
#     Node 12, Type 0, BuildingBlock: WUSLED_clean_sbu_0, # of connection points: 3
#     Node 13, Type 0, BuildingBlock: WUSLED_clean_sbu_0, # of connection points: 3
#     Node 14, Type 0, BuildingBlock: WUSLED_clean_sbu_0, # of connection points: 3
#     Node 15, Type 0, BuildingBlock: WUSLED_clean_sbu_0, # of connection points: 3
#     Node 16, Type 0, BuildingBlock: WUSLED_clean_sbu_0, # of connection points: 3
#     Node 17, Type 0, BuildingBlock: WUSLED_clean_sbu_0, # of connection points: 3
#     Node 18, Type 0, BuildingBlock: WUSLED_clean_sbu_0, # of connection points: 3
#     Node 19, Type 0, BuildingBlock: WUSLED_clean_sbu_0, # of connection points: 3
#     Node 20, Type 0, BuildingBlock: WUSLED_clean_sbu_0, # of connection points: 3
#     Node 21, Type 0, BuildingBlock: WUSLED_clean_sbu_0, # of connection points: 3
#     Node 22, Type 0, BuildingBlock: WUSLED_clean_sbu_0, # of connection points: 3
#     Node 23, Type 0, BuildingBlock: WUSLED_clean_sbu_0, # of connection points: 3
#     Node 24, Type 0, BuildingBlock: WUSLED_clean_sbu_0, # of connection points: 3
#     Node 25, Type 0, BuildingBlock: WUSLED_clean_sbu_0, # of connection points: 3
#     Node 26, Type 0, BuildingBlock: WUSLED_clean_sbu_0, # of connection points: 3
#     Node 27, Type 0, BuildingBlock: WUSLED_clean_sbu_0, # of connection points: 3
#     Node 28, Type 0, BuildingBlock: WUSLED_clean_sbu_0, # of connection points: 3
#     Node 29, Type 0, BuildingBlock: WUSLED_clean_sbu_0, # of connection points: 3
#     Node 30, Type 0, BuildingBlock: WUSLED_clean_sbu_0, # of connection points: 3
#     Node 31, Type 0, BuildingBlock: WUSLED_clean_sbu_0, # of connection points: 3
#     Node 32, Type 0, BuildingBlock: WUSLED_clean_sbu_0, # of connection points: 3
#     Node 33, Type 0, BuildingBlock: WUSLED_clean_sbu_0, # of connection points: 3
#     Node 34, Type 0, BuildingBlock: WUSLED_clean_sbu_0, # of connection points: 3
#     Node 35, Type 0, BuildingBlock: WUSLED_clean_sbu_0, # of connection points: 3
#     Node 36, Type 0, BuildingBlock: WUSLED_clean_sbu_0, # of connection points: 3
#     Node 37, Type 0, BuildingBlock: WUSLED_clean_sbu_0, # of connection points: 3
#     Node 38, Type 0, BuildingBlock: WUSLED_clean_sbu_0, # of connection points: 3
#     Node 39, Type 0, BuildingBlock: WUSLED_clean_sbu_0, # of connection points: 3
#     Node 40, Type 0, BuildingBlock: WUSLED_clean_sbu_0, # of connection points: 3
#     Node 41, Type 0, BuildingBlock: WUSLED_clean_sbu_0, # of connection points: 3
#     Node 42, Type 0, BuildingBlock: WUSLED_clean_sbu_0, # of connection points: 3
#     Node 43, Type 0, BuildingBlock: WUSLED_clean_sbu_0, # of connection points: 3
#     Node 44, Type 0, BuildingBlock: WUSLED_clean_sbu_0, # of connection points: 3
#     Node 45, Type 0, BuildingBlock: WUSLED_clean_sbu_0, # of connection points: 3
#     Node 46, Type 0, BuildingBlock: WUSLED_clean_sbu_0, # of connection points: 3
#     Node 47, Type 0, BuildingBlock: WUSLED_clean_sbu_0, # of connection points: 3
#     Node 48, Type 0, BuildingBlock: WUSLED_clean_sbu_0, # of connection points: 3
#     Node 49, Type 0, BuildingBlock: WUSLED_clean_sbu_0, # of connection points: 3
#     Node 50, Type 0, BuildingBlock: WUSLED_clean_sbu_0, # of connection points: 3
#     Node 51, Type 0, BuildingBlock: WUSLED_clean_sbu_0, # of connection points: 3
#     Node 52, Type 0, BuildingBlock: WUSLED_clean_sbu_0, # of connection points: 3
#     Node 53, Type 0, BuildingBlock: WUSLED_clean_sbu_0, # of connection points: 3
#     Node 54, Type 0, BuildingBlock: WUSLED_clean_sbu_0, # of connection points: 3
#     Node 55, Type 0, BuildingBlock: WUSLED_clean_sbu_0, # of connection points: 3
#     Node 56, Type 0, BuildingBlock: WUSLED_clean_sbu_0, # of connection points: 3
#     Node 57, Type 0, BuildingBlock: WUSLED_clean_sbu_0, # of connection points: 3
#     Node 58, Type 0, BuildingBlock: WUSLED_clean_sbu_0, # of connection points: 3
#     Node 59, Type 0, BuildingBlock: WUSLED_clean_sbu_0, # of connection points: 3
#     Node 60, Type 0, BuildingBlock: WUSLED_clean_sbu_0, # of connection points: 3
#     Node 61, Type 0, BuildingBlock: WUSLED_clean_sbu_0, # of connection points: 3
#     Node 62, Type 0, BuildingBlock: WUSLED_clean_sbu_0, # of connection points: 3
#     Node 63, Type 0, BuildingBlock: WUSLED_clean_sbu_0, # of connection points: 3
#     Node 64, Type 0, BuildingBlock: WUSLED_clean_sbu_0, # of connection points: 3
#     Node 65, Type 0, BuildingBlock: WUSLED_clean_sbu_0, # of connection points: 3
#     Node 66, Type 0, BuildingBlock: WUSLED_clean_sbu_0, # of connection points: 3
#     Node 67, Type 0, BuildingBlock: WUSLED_clean_sbu_0, # of connection points: 3
#     Node 68, Type 0, BuildingBlock: WUSLED_clean_sbu_0, # of connection points: 3
#     Node 69, Type 0, BuildingBlock: WUSLED_clean_sbu_0, # of connection points: 3
#     Node 70, Type 0, BuildingBlock: WUSLED_clean_sbu_0, # of connection points: 3
#     Node 71, Type 0, BuildingBlock: WUSLED_clean_sbu_0, # of connection points: 3
#     Node 72, Type 0, BuildingBlock: WUSLED_clean_sbu_0, # of connection points: 3
#     Node 73, Type 0, BuildingBlock: WUSLED_clean_sbu_0, # of connection points: 3
#     Node 74, Type 0, BuildingBlock: WUSLED_clean_sbu_0, # of connection points: 3
#     Node 75, Type 0, BuildingBlock: WUSLED_clean_sbu_0, # of connection points: 3
#     Node 76, Type 0, BuildingBlock: WUSLED_clean_sbu_0, # of connection points: 3
#     Node 77, Type 0, BuildingBlock: WUSLED_clean_sbu_0, # of connection points: 3
#     Node 78, Type 0, BuildingBlock: WUSLED_clean_sbu_0, # of connection points: 3
#     Node 79, Type 0, BuildingBlock: WUSLED_clean_sbu_0, # of connection points: 3
#     Node 80, Type 0, BuildingBlock: WUSLED_clean_sbu_0, # of connection points: 3
#     Node 81, Type 0, BuildingBlock: WUSLED_clean_sbu_0, # of connection points: 3
#     Node 82, Type 0, BuildingBlock: WUSLED_clean_sbu_0, # of connection points: 3
#     Node 83, Type 0, BuildingBlock: WUSLED_clean_sbu_0, # of connection points: 3
#     Node 84, Type 0, BuildingBlock: WUSLED_clean_sbu_0, # of connection points: 3
#     Node 85, Type 0, BuildingBlock: WUSLED_clean_sbu_0, # of connection points: 3
#     Node 86, Type 0, BuildingBlock: WUSLED_clean_sbu_0, # of connection points: 3
#     Node 87, Type 0, BuildingBlock: WUSLED_clean_sbu_0, # of connection points: 3
#     Node 88, Type 0, BuildingBlock: WUSLED_clean_sbu_0, # of connection points: 3
#     Node 89, Type 0, BuildingBlock: WUSLED_clean_sbu_0, # of connection points: 3
#     Node 90, Type 0, BuildingBlock: WUSLED_clean_sbu_0, # of connection points: 3
#     Node 91, Type 0, BuildingBlock: WUSLED_clean_sbu_0, # of connection points: 3
#     Node 92, Type 0, BuildingBlock: WUSLED_clean_sbu_0, # of connection points: 3
#     Node 93, Type 0, BuildingBlock: WUSLED_clean_sbu_0, # of connection points: 3
#     Node 94, Type 0, BuildingBlock: WUSLED_clean_sbu_0, # of connection points: 3
#     Node 95, Type 0, BuildingBlock: WUSLED_clean_sbu_0, # of connection points: 3
#     Node 96, Type 1, BuildingBlock: MIDCAF_clean_linker_0, # of connection points: 3
#     Node 97, Type 1, BuildingBlock: MIDCAF_clean_linker_0, # of connection points: 3
#     Node 98, Type 1, BuildingBlock: MIDCAF_clean_linker_0, # of connection points: 3
#     Node 99, Type 1, BuildingBlock: MIDCAF_clean_linker_0, # of connection points: 3
#     Node 100, Type 1, BuildingBlock: MIDCAF_clean_linker_0, # of connection points: 3
#     Node 101, Type 1, BuildingBlock: MIDCAF_clean_linker_0, # of connection points: 3
#     Node 102, Type 1, BuildingBlock: MIDCAF_clean_linker_0, # of connection points: 3
#     Node 103, Type 1, BuildingBlock: MIDCAF_clean_linker_0, # of connection points: 3
#     Node 104, Type 1, BuildingBlock: MIDCAF_clean_linker_0, # of connection points: 3
#     Node 105, Type 1, BuildingBlock: MIDCAF_clean_linker_0, # of connection points: 3
#     Node 106, Type 1, BuildingBlock: MIDCAF_clean_linker_0, # of connection points: 3
#     Node 107, Type 1, BuildingBlock: MIDCAF_clean_linker_0, # of connection points: 3
#     Node 108, Type 1, BuildingBlock: MIDCAF_clean_linker_0, # of connection points: 3
#     Node 109, Type 1, BuildingBlock: MIDCAF_clean_linker_0, # of connection points: 3
#     Node 110, Type 1, BuildingBlock: MIDCAF_clean_linker_0, # of connection points: 3
#     Node 111, Type 1, BuildingBlock: MIDCAF_clean_linker_0, # of connection points: 3
#     Node 112, Type 1, BuildingBlock: MIDCAF_clean_linker_0, # of connection points: 3
#     Node 113, Type 1, BuildingBlock: MIDCAF_clean_linker_0, # of connection points: 3
#     Node 114, Type 1, BuildingBlock: MIDCAF_clean_linker_0, # of connection points: 3
#     Node 115, Type 1, BuildingBlock: MIDCAF_clean_linker_0, # of connection points: 3
#     Node 116, Type 1, BuildingBlock: MIDCAF_clean_linker_0, # of connection points: 3
#     Node 117, Type 1, BuildingBlock: MIDCAF_clean_linker_0, # of connection points: 3
#     Node 118, Type 1, BuildingBlock: MIDCAF_clean_linker_0, # of connection points: 3
#     Node 119, Type 1, BuildingBlock: MIDCAF_clean_linker_0, # of connection points: 3
#     Node 120, Type 1, BuildingBlock: MIDCAF_clean_linker_0, # of connection points: 3
#     Node 121, Type 1, BuildingBlock: MIDCAF_clean_linker_0, # of connection points: 3
#     Node 122, Type 1, BuildingBlock: MIDCAF_clean_linker_0, # of connection points: 3
#     Node 123, Type 1, BuildingBlock: MIDCAF_clean_linker_0, # of connection points: 3
#     Node 124, Type 1, BuildingBlock: MIDCAF_clean_linker_0, # of connection points: 3
#     Node 125, Type 1, BuildingBlock: MIDCAF_clean_linker_0, # of connection points: 3
#     Node 126, Type 1, BuildingBlock: MIDCAF_clean_linker_0, # of connection points: 3
#     Node 127, Type 1, BuildingBlock: MIDCAF_clean_linker_0, # of connection points: 3
#     Node 128, Type 1, BuildingBlock: MIDCAF_clean_linker_0, # of connection points: 3
#     Node 129, Type 1, BuildingBlock: MIDCAF_clean_linker_0, # of connection points: 3
#     Node 130, Type 1, BuildingBlock: MIDCAF_clean_linker_0, # of connection points: 3
#     Node 131, Type 1, BuildingBlock: MIDCAF_clean_linker_0, # of connection points: 3
#     Node 132, Type 1, BuildingBlock: MIDCAF_clean_linker_0, # of connection points: 3
#     Node 133, Type 1, BuildingBlock: MIDCAF_clean_linker_0, # of connection points: 3
#     Node 134, Type 1, BuildingBlock: MIDCAF_clean_linker_0, # of connection points: 3
#     Node 135, Type 1, BuildingBlock: MIDCAF_clean_linker_0, # of connection points: 3
#     Node 136, Type 1, BuildingBlock: MIDCAF_clean_linker_0, # of connection points: 3
#     Node 137, Type 1, BuildingBlock: MIDCAF_clean_linker_0, # of connection points: 3
#     Node 138, Type 1, BuildingBlock: MIDCAF_clean_linker_0, # of connection points: 3
#     Node 139, Type 1, BuildingBlock: MIDCAF_clean_linker_0, # of connection points: 3
#     Node 140, Type 1, BuildingBlock: MIDCAF_clean_linker_0, # of connection points: 3
#     Node 141, Type 1, BuildingBlock: MIDCAF_clean_linker_0, # of connection points: 3
#     Node 142, Type 1, BuildingBlock: MIDCAF_clean_linker_0, # of connection points: 3
#     Node 143, Type 1, BuildingBlock: MIDCAF_clean_linker_0, # of connection points: 3
#     Node 144, Type 1, BuildingBlock: MIDCAF_clean_linker_0, # of connection points: 3
#     Node 145, Type 1, BuildingBlock: MIDCAF_clean_linker_0, # of connection points: 3
#     Node 146, Type 1, BuildingBlock: MIDCAF_clean_linker_0, # of connection points: 3
#     Node 147, Type 1, BuildingBlock: MIDCAF_clean_linker_0, # of connection points: 3
#     Node 148, Type 1, BuildingBlock: MIDCAF_clean_linker_0, # of connection points: 3
#     Node 149, Type 1, BuildingBlock: MIDCAF_clean_linker_0, # of connection points: 3
#     Node 150, Type 1, BuildingBlock: MIDCAF_clean_linker_0, # of connection points: 3
#     Node 151, Type 1, BuildingBlock: MIDCAF_clean_linker_0, # of connection points: 3
#     Node 152, Type 1, BuildingBlock: MIDCAF_clean_linker_0, # of connection points: 3
#     Node 153, Type 1, BuildingBlock: MIDCAF_clean_linker_0, # of connection points: 3
#     Node 154, Type 1, BuildingBlock: MIDCAF_clean_linker_0, # of connection points: 3
#     Node 155, Type 1, BuildingBlock: MIDCAF_clean_linker_0, # of connection points: 3
#     Node 156, Type 1, BuildingBlock: MIDCAF_clean_linker_0, # of connection points: 3
#     Node 157, Type 1, BuildingBlock: MIDCAF_clean_linker_0, # of connection points: 3
#     Node 158, Type 1, BuildingBlock: MIDCAF_clean_linker_0, # of connection points: 3
#     Node 159, Type 1, BuildingBlock: MIDCAF_clean_linker_0, # of connection points: 3
#     Node 160, Type 1, BuildingBlock: MIDCAF_clean_linker_0, # of connection points: 3
#     Node 161, Type 1, BuildingBlock: MIDCAF_clean_linker_0, # of connection points: 3
#     Node 162, Type 1, BuildingBlock: MIDCAF_clean_linker_0, # of connection points: 3
#     Node 163, Type 1, BuildingBlock: MIDCAF_clean_linker_0, # of connection points: 3
#     Node 164, Type 1, BuildingBlock: MIDCAF_clean_linker_0, # of connection points: 3
#     Node 165, Type 1, BuildingBlock: MIDCAF_clean_linker_0, # of connection points: 3
#     Node 166, Type 1, BuildingBlock: MIDCAF_clean_linker_0, # of connection points: 3
#     Node 167, Type 1, BuildingBlock: MIDCAF_clean_linker_0, # of connection points: 3
#     Node 168, Type 1, BuildingBlock: MIDCAF_clean_linker_0, # of connection points: 3
#     Node 169, Type 1, BuildingBlock: MIDCAF_clean_linker_0, # of connection points: 3
#     Node 170, Type 1, BuildingBlock: MIDCAF_clean_linker_0, # of connection points: 3
#     Node 171, Type 1, BuildingBlock: MIDCAF_clean_linker_0, # of connection points: 3
#     Node 172, Type 1, BuildingBlock: MIDCAF_clean_linker_0, # of connection points: 3
#     Node 173, Type 1, BuildingBlock: MIDCAF_clean_linker_0, # of connection points: 3
#     Node 174, Type 1, BuildingBlock: MIDCAF_clean_linker_0, # of connection points: 3
#     Node 175, Type 1, BuildingBlock: MIDCAF_clean_linker_0, # of connection points: 3
#     Node 176, Type 1, BuildingBlock: MIDCAF_clean_linker_0, # of connection points: 3
#     Node 177, Type 1, BuildingBlock: MIDCAF_clean_linker_0, # of connection points: 3
#     Node 178, Type 1, BuildingBlock: MIDCAF_clean_linker_0, # of connection points: 3
#     Node 179, Type 1, BuildingBlock: MIDCAF_clean_linker_0, # of connection points: 3
#     Node 180, Type 1, BuildingBlock: MIDCAF_clean_linker_0, # of connection points: 3
#     Node 181, Type 1, BuildingBlock: MIDCAF_clean_linker_0, # of connection points: 3
#     Node 182, Type 1, BuildingBlock: MIDCAF_clean_linker_0, # of connection points: 3
#     Node 183, Type 1, BuildingBlock: MIDCAF_clean_linker_0, # of connection points: 3
#     Node 184, Type 1, BuildingBlock: MIDCAF_clean_linker_0, # of connection points: 3
#     Node 185, Type 1, BuildingBlock: MIDCAF_clean_linker_0, # of connection points: 3
#     Node 186, Type 1, BuildingBlock: MIDCAF_clean_linker_0, # of connection points: 3
#     Node 187, Type 1, BuildingBlock: MIDCAF_clean_linker_0, # of connection points: 3
#     Node 188, Type 1, BuildingBlock: MIDCAF_clean_linker_0, # of connection points: 3
#     Node 189, Type 1, BuildingBlock: MIDCAF_clean_linker_0, # of connection points: 3
#     Node 190, Type 1, BuildingBlock: MIDCAF_clean_linker_0, # of connection points: 3
#     Node 191, Type 1, BuildingBlock: MIDCAF_clean_linker_0, # of connection points: 3
#     Edge 192, Type (0, 1), None
#     Edge 193, Type (0, 1), None
#     Edge 194, Type (0, 1), None
#     Edge 195, Type (0, 1), None
#     Edge 196, Type (0, 1), None
#     Edge 197, Type (0, 1), None
#     Edge 198, Type (0, 1), None
#     Edge 199, Type (0, 1), None
#     Edge 200, Type (0, 1), None
#     Edge 201, Type (0, 1), None
#     Edge 202, Type (0, 1), None
#     Edge 203, Type (0, 1), None
#     Edge 204, Type (0, 1), None
#     Edge 205, Type (0, 1), None
#     Edge 206, Type (0, 1), None
#     Edge 207, Type (0, 1), None
#     Edge 208, Type (0, 1), None
#     Edge 209, Type (0, 1), None
#     Edge 210, Type (0, 1), None
#     Edge 211, Type (0, 1), None
#     Edge 212, Type (0, 1), None
#     Edge 213, Type (0, 1), None
#     Edge 214, Type (0, 1), None
#     Edge 215, Type (0, 1), None
#     Edge 216, Type (0, 1), None
#     Edge 217, Type (0, 1), None
#     Edge 218, Type (0, 1), None
#     Edge 219, Type (0, 1), None
#     Edge 220, Type (0, 1), None
#     Edge 221, Type (0, 1), None
#     Edge 222, Type (0, 1), None
#     Edge 223, Type (0, 1), None
#     Edge 224, Type (0, 1), None
#     Edge 225, Type (0, 1), None
#     Edge 226, Type (0, 1), None
#     Edge 227, Type (0, 1), None
#     Edge 228, Type (0, 1), None
#     Edge 229, Type (0, 1), None
#     Edge 230, Type (0, 1), None
#     Edge 231, Type (0, 1), None
#     Edge 232, Type (0, 1), None
#     Edge 233, Type (0, 1), None
#     Edge 234, Type (0, 1), None
#     Edge 235, Type (0, 1), None
#     Edge 236, Type (0, 1), None
#     Edge 237, Type (0, 1), None
#     Edge 238, Type (0, 1), None
#     Edge 239, Type (0, 1), None
#     Edge 240, Type (0, 1), None
#     Edge 241, Type (0, 1), None
#     Edge 242, Type (0, 1), None
#     Edge 243, Type (0, 1), None
#     Edge 244, Type (0, 1), None
#     Edge 245, Type (0, 1), None
#     Edge 246, Type (0, 1), None
#     Edge 247, Type (0, 1), None
#     Edge 248, Type (0, 1), None
#     Edge 249, Type (0, 1), None
#     Edge 250, Type (0, 1), None
#     Edge 251, Type (0, 1), None
#     Edge 252, Type (0, 1), None
#     Edge 253, Type (0, 1), None
#     Edge 254, Type (0, 1), None
#     Edge 255, Type (0, 1), None
#     Edge 256, Type (0, 1), None
#     Edge 257, Type (0, 1), None
#     Edge 258, Type (0, 1), None
#     Edge 259, Type (0, 1), None
#     Edge 260, Type (0, 1), None
#     Edge 261, Type (0, 1), None
#     Edge 262, Type (0, 1), None
#     Edge 263, Type (0, 1), None
#     Edge 264, Type (0, 1), None
#     Edge 265, Type (0, 1), None
#     Edge 266, Type (0, 1), None
#     Edge 267, Type (0, 1), None
#     Edge 268, Type (0, 1), None
#     Edge 269, Type (0, 1), None
#     Edge 270, Type (0, 1), None
#     Edge 271, Type (0, 1), None
#     Edge 272, Type (0, 1), None
#     Edge 273, Type (0, 1), None
#     Edge 274, Type (0, 1), None
#     Edge 275, Type (0, 1), None
#     Edge 276, Type (0, 1), None
#     Edge 277, Type (0, 1), None
#     Edge 278, Type (0, 1), None
#     Edge 279, Type (0, 1), None
#     Edge 280, Type (0, 1), None
#     Edge 281, Type (0, 1), None
#     Edge 282, Type (0, 1), None
#     Edge 283, Type (0, 1), None
#     Edge 284, Type (0, 1), None
#     Edge 285, Type (0, 1), None
#     Edge 286, Type (0, 1), None
#     Edge 287, Type (0, 1), None
#     Edge 288, Type (0, 1), None
#     Edge 289, Type (0, 1), None
#     Edge 290, Type (0, 1), None
#     Edge 291, Type (0, 1), None
#     Edge 292, Type (0, 1), None
#     Edge 293, Type (0, 1), None
#     Edge 294, Type (0, 1), None
#     Edge 295, Type (0, 1), None
#     Edge 296, Type (0, 1), None
#     Edge 297, Type (0, 1), None
#     Edge 298, Type (0, 1), None
#     Edge 299, Type (0, 1), None
#     Edge 300, Type (0, 1), None
#     Edge 301, Type (0, 1), None
#     Edge 302, Type (0, 1), None
#     Edge 303, Type (0, 1), None
#     Edge 304, Type (0, 1), None
#     Edge 305, Type (0, 1), None
#     Edge 306, Type (0, 1), None
#     Edge 307, Type (0, 1), None
#     Edge 308, Type (0, 1), None
#     Edge 309, Type (0, 1), None
#     Edge 310, Type (0, 1), None
#     Edge 311, Type (0, 1), None
#     Edge 312, Type (0, 1), None
#     Edge 313, Type (0, 1), None
#     Edge 314, Type (0, 1), None
#     Edge 315, Type (0, 1), None
#     Edge 316, Type (0, 1), None
#     Edge 317, Type (0, 1), None
#     Edge 318, Type (0, 1), None
#     Edge 319, Type (0, 1), None
#     Edge 320, Type (0, 1), None
#     Edge 321, Type (0, 1), None
#     Edge 322, Type (0, 1), None
#     Edge 323, Type (0, 1), None
#     Edge 324, Type (0, 1), None
#     Edge 325, Type (0, 1), None
#     Edge 326, Type (0, 1), None
#     Edge 327, Type (0, 1), None
#     Edge 328, Type (0, 1), None
#     Edge 329, Type (0, 1), None
#     Edge 330, Type (0, 1), None
#     Edge 331, Type (0, 1), None
#     Edge 332, Type (0, 1), None
#     Edge 333, Type (0, 1), None
#     Edge 334, Type (0, 1), None
#     Edge 335, Type (0, 1), None
#     Edge 336, Type (0, 1), None
#     Edge 337, Type (0, 1), None
#     Edge 338, Type (0, 1), None
#     Edge 339, Type (0, 1), None
#     Edge 340, Type (0, 1), None
#     Edge 341, Type (0, 1), None
#     Edge 342, Type (0, 1), None
#     Edge 343, Type (0, 1), None
#     Edge 344, Type (0, 1), None
#     Edge 345, Type (0, 1), None
#     Edge 346, Type (0, 1), None
#     Edge 347, Type (0, 1), None
#     Edge 348, Type (0, 1), None
#     Edge 349, Type (0, 1), None
#     Edge 350, Type (0, 1), None
#     Edge 351, Type (0, 1), None
#     Edge 352, Type (0, 1), None
#     Edge 353, Type (0, 1), None
#     Edge 354, Type (0, 1), None
#     Edge 355, Type (0, 1), None
#     Edge 356, Type (0, 1), None
#     Edge 357, Type (0, 1), None
#     Edge 358, Type (0, 1), None
#     Edge 359, Type (0, 1), None
#     Edge 360, Type (0, 1), None
#     Edge 361, Type (0, 1), None
#     Edge 362, Type (0, 1), None
#     Edge 363, Type (0, 1), None
#     Edge 364, Type (0, 1), None
#     Edge 365, Type (0, 1), None
#     Edge 366, Type (0, 1), None
#     Edge 367, Type (0, 1), None
#     Edge 368, Type (0, 1), None
#     Edge 369, Type (0, 1), None
#     Edge 370, Type (0, 1), None
#     Edge 371, Type (0, 1), None
#     Edge 372, Type (0, 1), None
#     Edge 373, Type (0, 1), None
#     Edge 374, Type (0, 1), None
#     Edge 375, Type (0, 1), None
#     Edge 376, Type (0, 1), None
#     Edge 377, Type (0, 1), None
#     Edge 378, Type (0, 1), None
#     Edge 379, Type (0, 1), None
#     Edge 380, Type (0, 1), None
#     Edge 381, Type (0, 1), None
#     Edge 382, Type (0, 1), None
#     Edge 383, Type (0, 1), None
#     Edge 384, Type (0, 1), None
#     Edge 385, Type (0, 1), None
#     Edge 386, Type (0, 1), None
#     Edge 387, Type (0, 1), None
#     Edge 388, Type (0, 1), None
#     Edge 389, Type (0, 1), None
#     Edge 390, Type (0, 1), None
#     Edge 391, Type (0, 1), None
#     Edge 392, Type (0, 1), None
#     Edge 393, Type (0, 1), None
#     Edge 394, Type (0, 1), None
#     Edge 395, Type (0, 1), None
#     Edge 396, Type (0, 1), None
#     Edge 397, Type (0, 1), None
#     Edge 398, Type (0, 1), None
#     Edge 399, Type (0, 1), None
#     Edge 400, Type (0, 1), None
#     Edge 401, Type (0, 1), None
#     Edge 402, Type (0, 1), None
#     Edge 403, Type (0, 1), None
#     Edge 404, Type (0, 1), None
#     Edge 405, Type (0, 1), None
#     Edge 406, Type (0, 1), None
#     Edge 407, Type (0, 1), None
#     Edge 408, Type (0, 1), None
#     Edge 409, Type (0, 1), None
#     Edge 410, Type (0, 1), None
#     Edge 411, Type (0, 1), None
#     Edge 412, Type (0, 1), None
#     Edge 413, Type (0, 1), None
#     Edge 414, Type (0, 1), None
#     Edge 415, Type (0, 1), None
#     Edge 416, Type (0, 1), None
#     Edge 417, Type (0, 1), None
#     Edge 418, Type (0, 1), None
#     Edge 419, Type (0, 1), None
#     Edge 420, Type (0, 1), None
#     Edge 421, Type (0, 1), None
#     Edge 422, Type (0, 1), None
#     Edge 423, Type (0, 1), None
#     Edge 424, Type (0, 1), None
#     Edge 425, Type (0, 1), None
#     Edge 426, Type (0, 1), None
#     Edge 427, Type (0, 1), None
#     Edge 428, Type (0, 1), None
#     Edge 429, Type (0, 1), None
#     Edge 430, Type (0, 1), None
#     Edge 431, Type (0, 1), None
#     Edge 432, Type (0, 1), None
#     Edge 433, Type (0, 1), None
#     Edge 434, Type (0, 1), None
#     Edge 435, Type (0, 1), None
#     Edge 436, Type (0, 1), None
#     Edge 437, Type (0, 1), None
#     Edge 438, Type (0, 1), None
#     Edge 439, Type (0, 1), None
#     Edge 440, Type (0, 1), None
#     Edge 441, Type (0, 1), None
#     Edge 442, Type (0, 1), None
#     Edge 443, Type (0, 1), None
#     Edge 444, Type (0, 1), None
#     Edge 445, Type (0, 1), None
#     Edge 446, Type (0, 1), None
#     Edge 447, Type (0, 1), None
#     Edge 448, Type (0, 1), None
#     Edge 449, Type (0, 1), None
#     Edge 450, Type (0, 1), None
#     Edge 451, Type (0, 1), None
#     Edge 452, Type (0, 1), None
#     Edge 453, Type (0, 1), None
#     Edge 454, Type (0, 1), None
#     Edge 455, Type (0, 1), None
#     Edge 456, Type (0, 1), None
#     Edge 457, Type (0, 1), None
#     Edge 458, Type (0, 1), None
#     Edge 459, Type (0, 1), None
#     Edge 460, Type (0, 1), None
#     Edge 461, Type (0, 1), None
#     Edge 462, Type (0, 1), None
#     Edge 463, Type (0, 1), None
#     Edge 464, Type (0, 1), None
#     Edge 465, Type (0, 1), None
#     Edge 466, Type (0, 1), None
#     Edge 467, Type (0, 1), None
#     Edge 468, Type (0, 1), None
#     Edge 469, Type (0, 1), None
#     Edge 470, Type (0, 1), None
#     Edge 471, Type (0, 1), None
#     Edge 472, Type (0, 1), None
#     Edge 473, Type (0, 1), None
#     Edge 474, Type (0, 1), None
#     Edge 475, Type (0, 1), None
#     Edge 476, Type (0, 1), None
#     Edge 477, Type (0, 1), None
#     Edge 478, Type (0, 1), None
#     Edge 479, Type (0, 1), None
# Relax obj value: 0.122
# Max RMSD: 0.113
# Mean RMSD: 0.098
data_MOF--net-ana-f--node1-WUSLED_clean_sbu_0--node2-MIDCAF_clean_linker_0--edge1-none
_symmetry_space_group_name_H-M    P1
_symmetry_Int_Tables_number       1
_symmetry_cell_setting            triclinic
loop_
_symmetry_equiv_pos_as_xyz
'x, y, z'
_cell_length_a     130.06379
_cell_length_b     129.58261
_cell_length_c     129.55881
_cell_angle_alpha  90.024433
_cell_angle_beta   90.003388
_cell_angle_gamma 89.984691
loop_
_atom_site_label
_atom_site_type_symbol
_atom_site_fract_x
_atom_site_fract_y
_atom_site_fract_z
_atom_type_partial_charge
C0 C 0.07891 0.11105 0.4104 0.0
C1 C 0.08819 0.10885 0.40533 0.0
C2 C 0.09668 0.10554 0.42189 0.0
C3 C 0.09693 0.10601 0.41099 0.0
C4 C 0.08725 0.10744 0.42686 0.0
C5 C 0.07848 0.11013 0.42118 0.0
U6 U 0.06672 0.12694 0.3887 0.0
O7 O 0.053 0.12419 0.37903 0.0
O8 O 0.05373 0.13779 0.38914 0.0
C9 C 0.04825 0.13246 0.38249 0.0
C10 C 0.06977 0.11485 0.40472 0.0
C11 C 0.0371 0.13171 0.38452 0.0
C12 C 0.02231 0.12752 0.39533 0.0
C13 C 0.03298 0.12712 0.39345 0.0
C14 C 0.01991 0.13688 0.37934 0.0
C15 C 0.01569 0.13263 0.38838 0.0
C16 C 0.03045 0.13642 0.37746 0.0
C17 C 0.08688 0.1412 0.37116 0.0
C18 C 0.08464 0.1551 0.35867 0.0
C19 C 0.10171 0.14889 0.3628 0.0
C20 C 0.0975 0.14169 0.36958 0.0
C21 C 0.09539 0.1558 0.35731 0.0
C22 C 0.08041 0.14786 0.36557 0.0
C23 C 0.08312 0.13425 0.37933 0.0
O24 O 0.06805 0.12481 0.40551 0.0
O25 O 0.06843 0.11134 0.39528 0.0
O26 O 0.07853 0.12566 0.37651 0.0
O27 O 0.07886 0.13865 0.3874 0.0
H28 H 0.08876 0.10951 0.39701 0.0
H29 H 0.10394 0.10438 0.40678 0.0
H30 H 0.08669 0.10731 0.4352 0.0
H31 H 0.0714 0.11181 0.42525 0.0
H32 H 0.01929 0.12415 0.40235 0.0
H33 H 0.03799 0.12345 0.39902 0.0
H34 H 0.01503 0.14068 0.37373 0.0
H35 H 0.03347 0.13999 0.37052 0.0
H36 H 0.07952 0.16022 0.35453 0.0
H37 H 0.11 0.1493 0.36224 0.0
H38 H 0.10263 0.13669 0.37389 0.0
H39 H 0.07216 0.14761 0.36671 0.0
C40 C 0.14248 0.84737 0.65971 0.0
C41 C 0.13702 0.85659 0.6582 0.0
C42 C 0.14604 0.86453 0.67266 0.0
C43 C 0.13876 0.86508 0.66463 0.0
C44 C 0.1519 0.85545 0.67373 0.0
C45 C 0.1501 0.84694 0.66733 0.0
U46 U 0.12695 0.83478 0.63859 0.0
O47 O 0.12954 0.82123 0.62864 0.0
O48 O 0.11629 0.82169 0.63921 0.0
C49 C 0.12145 0.81636 0.6323 0.0
C50 C 0.13949 0.83796 0.65411 0.0
C51 C 0.12251 0.8053 0.63439 0.0
C52 C 0.12888 0.79075 0.64435 0.0
C53 C 0.12868 0.80141 0.64239 0.0
C54 C 0.11682 0.78798 0.63035 0.0
C55 C 0.12283 0.78397 0.63841 0.0
C56 C 0.11667 0.79853 0.62838 0.0
C57 C 0.11039 0.85273 0.62184 0.0
C58 C 0.09265 0.85094 0.61618 0.0
C59 C 0.10316 0.86492 0.60967 0.0
C60 C 0.11152 0.86128 0.61535 0.0
C61 C 0.09346 0.86018 0.61056 0.0
C62 C 0.10107 0.84721 0.62177 0.0
C63 C 0.11837 0.85072 0.62965 0.0
O64 O 0.12978 0.83542 0.65525 0.0
O65 O 0.14269 0.83721 0.6445 0.0
O66 O 0.12706 0.84668 0.62638 0.0
O67 O 0.1151 0.84676 0.63838 0.0
H68 H 0.13108 0.85707 0.65235 0.0
H69 H 0.134 0.87186 0.66362 0.0
H70 H 0.1577 0.85482 0.67969 0.0
H71 H 0.15441 0.83989 0.66857 0.0
H72 H 0.1336 0.78784 0.6506 0.0
H73 H 0.1332 0.80658 0.64714 0.0
H74 H 0.11227 0.78295 0.62549 0.0
H75 H 0.11188 0.80143 0.62217 0.0
H76 H 0.08531 0.84708 0.61699 0.0
H77 H 0.1041 0.87192 0.6052 0.0
H78 H 0.11867 0.86556 0.6152 0.0
H79 H 0.10008 0.84047 0.62661 0.0
C80 C 0.44481 0.88193 0.93611 0.0
C81 C 0.43553 0.87879 0.93157 0.0
C82 C 0.4264 0.89291 0.94001 0.0
C83 C 0.42643 0.88421 0.93349 0.0
C84 C 0.43567 0.89586 0.94478 0.0
C85 C 0.4448 0.89042 0.94282 0.0
U86 U 0.45776 0.86022 0.92202 0.0
O87 O 0.47121 0.85963 0.91177 0.0
O88 O 0.47078 0.84991 0.92569 0.0
C89 C 0.47595 0.85269 0.91742 0.0
C90 C 0.45449 0.87658 0.9335 0.0
C91 C 0.48722 0.85351 0.91817 0.0
C92 C 0.50309 0.86229 0.92296 0.0
C93 C 0.49229 0.86156 0.92335 0.0
C94 C 0.5037 0.84693 0.91234 0.0
C95 C 0.50894 0.85503 0.91733 0.0
C96 C 0.49303 0.84617 0.91282 0.0
C97 C 0.43799 0.84306 0.90723 0.0
C98 C 0.4386 0.83425 0.89064 0.0
C99 C 0.42369 0.83242 0.90171 0.0
C100 C 0.42836 0.83862 0.90913 0.0
C101 C 0.4286 0.8305 0.89227 0.0
C102 C 0.44328 0.84054 0.89809 0.0
C103 C 0.4414 0.85138 0.91416 0.0
O104 O 0.45551 0.86725 0.93737 0.0
O105 O 0.45708 0.87709 0.92371 0.0
O106 O 0.44614 0.85921 0.90982 0.0
O107 O 0.44531 0.84869 0.92311 0.0
H108 H 0.43535 0.87221 0.9264 0.0
H109 H 0.4194 0.88159 0.92984 0.0
H110 H 0.43595 0.90254 0.94979 0.0
H111 H 0.45189 0.89296 0.94641 0.0
H112 H 0.50682 0.86858 0.92698 0.0
H113 H 0.48792 0.86733 0.92752 0.0
H114 H 0.50778 0.84132 0.9077 0.0
H115 H 0.48926 0.83995 0.90869 0.0
H116 H 0.44246 0.83291 0.88335 0.0
H117 H 0.41595 0.82963 0.90307 0.0
H118 H 0.42414 0.8405 0.9161 0.0
H119 H 0.45073 0.8439 0.89647 0.0
C120 C 0.36673 0.17392 0.16776 0.0
C121 C 0.37197 0.16469 0.16564 0.0
C122 C 0.3635 0.15631 0.18018 0.0
C123 C 0.3704 0.15598 0.1718 0.0
C124 C 0.35787 0.16544 0.1819 0.0
C125 C 0.35951 0.17418 0.17577 0.0
U126 U 0.3817 0.18671 0.1465 0.0
O127 O 0.37884 0.20018 0.13654 0.0
O128 O 0.39231 0.19986 0.14683 0.0
C129 C 0.387 0.20509 0.13998 0.0
C130 C 0.36953 0.18346 0.16228 0.0
C131 C 0.386 0.21619 0.14192 0.0
C132 C 0.37932 0.23097 0.15133 0.0
C133 C 0.37961 0.22027 0.14965 0.0
C134 C 0.39177 0.2334 0.13762 0.0
C135 C 0.38551 0.23762 0.14538 0.0
C136 C 0.392 0.22281 0.13592 0.0
C137 C 0.39777 0.16862 0.12935 0.0
C138 C 0.41539 0.16997 0.1232 0.0
C139 C 0.40428 0.1564 0.1168 0.0
C140 C 0.3962 0.1602 0.12277 0.0
C141 C 0.41413 0.16084 0.11747 0.0
C142 C 0.40724 0.17386 0.12909 0.0
C143 C 0.39006 0.17074 0.13739 0.0
O144 O 0.37925 0.18603 0.16323 0.0
O145 O 0.3661 0.18431 0.15276 0.0
O146 O 0.38127 0.17474 0.13436 0.0
O147 O 0.3936 0.17478 0.14599 0.0
H148 H 0.3776 0.16435 0.15949 0.0
H149 H 0.37498 0.14917 0.17028 0.0
H150 H 0.35236 0.16591 0.18815 0.0
H151 H 0.35537 0.18123 0.17748 0.0
H152 H 0.3744 0.23403 0.15734 0.0
H153 H 0.37495 0.21521 0.15438 0.0
H154 H 0.39642 0.23832 0.13273 0.0
H155 H 0.39695 0.21977 0.12991 0.0
H156 H 0.42286 0.1736 0.12385 0.0
H157 H 0.40302 0.14949 0.11226 0.0
H158 H 0.38892 0.15613 0.12277 0.0
H159 H 0.40858 0.18049 0.13399 0.0
C160 C 0.07891 0.90008 0.10084 0.0
C161 C 0.08819 0.90227 0.10591 0.0
C162 C 0.09668 0.90558 0.08935 0.0
C163 C 0.09693 0.90511 0.10025 0.0
C164 C 0.08724 0.90368 0.08437 0.0
C165 C 0.07847 0.901 0.09006 0.0
U166 U 0.06673 0.88421 0.12254 0.0
O167 O 0.05305 0.88702 0.13223 0.0
O168 O 0.05371 0.87342 0.12211 0.0
C169 C 0.04826 0.87878 0.12875 0.0
C170 C 0.06977 0.8963 0.10652 0.0
C171 C 0.03713 0.87965 0.12665 0.0
C172 C 0.02244 0.88425 0.11587 0.0
C173 C 0.03311 0.88447 0.11781 0.0
C174 C 0.01987 0.87459 0.13166 0.0
C175 C 0.01574 0.87909 0.1227 0.0
C176 C 0.03041 0.87487 0.13359 0.0
C177 C 0.08687 0.86987 0.14006 0.0
C178 C 0.08461 0.85605 0.15261 0.0
C179 C 0.10169 0.86214 0.14838 0.0
C180 C 0.09749 0.86933 0.14159 0.0
C181 C 0.09536 0.8553 0.15394 0.0
C182 C 0.08039 0.86328 0.1457 0.0
C183 C 0.08312 0.87684 0.13188 0.0
O184 O 0.06804 0.88634 0.10573 0.0
O185 O 0.06846 0.89981 0.11596 0.0
O186 O 0.07856 0.88544 0.13471 0.0
O187 O 0.07883 0.87245 0.12383 0.0
H188 H 0.08876 0.90161 0.11422 0.0
H189 H 0.10393 0.90674 0.10445 0.0
H190 H 0.08668 0.90381 0.07604 0.0
H191 H 0.07139 0.89933 0.08598 0.0
H192 H 0.01949 0.8878 0.10891 0.0
H193 H 0.03819 0.8882 0.11234 0.0
H194 H 0.01493 0.87075 0.13718 0.0
H195 H 0.03335 0.87113 0.14047 0.0
H196 H 0.07948 0.85097 0.1568 0.0
H197 H 0.10999 0.86168 0.14891 0.0
H198 H 0.10263 0.87427 0.13724 0.0
H199 H 0.07214 0.86357 0.14459 0.0
C200 C 0.36673 0.83721 0.34354 0.0
C201 C 0.37197 0.84644 0.34566 0.0
C202 C 0.3635 0.85482 0.33112 0.0
C203 C 0.3704 0.85515 0.3395 0.0
C204 C 0.35787 0.84569 0.3294 0.0
C205 C 0.35951 0.83695 0.33553 0.0
U206 U 0.3817 0.82442 0.36481 0.0
O207 O 0.37885 0.81095 0.37477 0.0
O208 O 0.39231 0.81126 0.36447 0.0
C209 C 0.387 0.80602 0.37132 0.0
C210 C 0.36953 0.82767 0.34902 0.0
C211 C 0.38599 0.79494 0.36939 0.0
C212 C 0.37931 0.78016 0.35997 0.0
C213 C 0.3796 0.79086 0.36165 0.0
C214 C 0.39176 0.77771 0.37369 0.0
C215 C 0.38549 0.7735 0.36593 0.0
C216 C 0.392 0.7883 0.37538 0.0
C217 C 0.39777 0.8425 0.38195 0.0
C218 C 0.41539 0.84115 0.3881 0.0
C219 C 0.40428 0.85473 0.39449 0.0
C220 C 0.3962 0.85092 0.38853 0.0
C221 C 0.41413 0.85028 0.39383 0.0
C222 C 0.40725 0.83726 0.38221 0.0
C223 C 0.39006 0.84038 0.37391 0.0
O224 O 0.37925 0.82509 0.34807 0.0
O225 O 0.3661 0.82682 0.35854 0.0
O226 O 0.38127 0.83639 0.37694 0.0
O227 O 0.3936 0.83633 0.36532 0.0
H228 H 0.3776 0.84677 0.35182 0.0
H229 H 0.37498 0.86196 0.34102 0.0
H230 H 0.35236 0.84522 0.32315 0.0
H231 H 0.35538 0.8299 0.33381 0.0
H232 H 0.37438 0.7771 0.35397 0.0
H233 H 0.37494 0.79593 0.35693 0.0
H234 H 0.39641 0.77279 0.37857 0.0
H235 H 0.39695 0.79134 0.38139 0.0
H236 H 0.42287 0.83752 0.38746 0.0
H237 H 0.40301 0.86164 0.39903 0.0
H238 H 0.38892 0.855 0.38853 0.0
H239 H 0.40859 0.83062 0.37731 0.0
C240 C 0.44487 0.12912 0.57508 0.0
C241 C 0.43559 0.13227 0.57962 0.0
C242 C 0.42646 0.11815 0.57119 0.0
C243 C 0.42649 0.12686 0.5777 0.0
C244 C 0.43574 0.11519 0.56643 0.0
C245 C 0.44487 0.12062 0.56838 0.0
U246 U 0.45781 0.15086 0.58914 0.0
O247 O 0.47125 0.15145 0.5994 0.0
O248 O 0.47084 0.16115 0.58546 0.0
C249 C 0.476 0.15838 0.59374 0.0
C250 C 0.45454 0.13448 0.57768 0.0
C251 C 0.48728 0.15756 0.59302 0.0
C252 C 0.50317 0.14881 0.58824 0.0
C253 C 0.49237 0.14953 0.58783 0.0
C254 C 0.50373 0.16415 0.5989 0.0
C255 C 0.509 0.15607 0.5939 0.0
C256 C 0.49306 0.16489 0.5984 0.0
C257 C 0.43805 0.16806 0.60393 0.0
C258 C 0.43855 0.17673 0.6206 0.0
C259 C 0.42376 0.17875 0.6094 0.0
C260 C 0.42847 0.17258 0.60197 0.0
C261 C 0.42859 0.18056 0.61891 0.0
C262 C 0.44327 0.17047 0.61314 0.0
C263 C 0.44146 0.15973 0.597 0.0
O264 O 0.45556 0.14381 0.57381 0.0
O265 O 0.45713 0.13398 0.58748 0.0
O266 O 0.44618 0.15189 0.60133 0.0
O267 O 0.44537 0.16241 0.58804 0.0
H268 H 0.4354 0.13886 0.58477 0.0
H269 H 0.41946 0.12948 0.58134 0.0
H270 H 0.43601 0.1085 0.56143 0.0
H271 H 0.45196 0.11807 0.56481 0.0
H272 H 0.50692 0.14253 0.58421 0.0
H273 H 0.48801 0.14377 0.58363 0.0
H274 H 0.50779 0.16975 0.60356 0.0
H275 H 0.48927 0.1711 0.60253 0.0
H276 H 0.44235 0.17797 0.62794 0.0
H277 H 0.41605 0.18159 0.60799 0.0
H278 H 0.4243 0.17078 0.59495 0.0
H279 H 0.45068 0.16705 0.61481 0.0
C280 C 0.14254 0.16367 0.85205 0.0
C281 C 0.13702 0.15451 0.85366 0.0
C282 C 0.14601 0.14634 0.83931 0.0
C283 C 0.13871 0.14594 0.84733 0.0
C284 C 0.15197 0.15535 0.83818 0.0
C285 C 0.1502 0.16396 0.84447 0.0
U286 U 0.12694 0.17643 0.87294 0.0
O287 O 0.12944 0.19 0.88287 0.0
O288 O 0.11627 0.18951 0.87222 0.0
C289 C 0.12137 0.19486 0.87914 0.0
C290 C 0.13957 0.17317 0.85752 0.0
C291 C 0.12245 0.2059 0.87701 0.0
C292 C 0.12884 0.22041 0.867 0.0
C293 C 0.12862 0.20976 0.869 0.0
C294 C 0.11679 0.22325 0.88099 0.0
C295 C 0.1228 0.22722 0.87292 0.0
C296 C 0.11663 0.21271 0.88301 0.0
C297 C 0.11035 0.15844 0.88961 0.0
C298 C 0.0926 0.16021 0.89523 0.0
C299 C 0.10311 0.1462 0.90171 0.0
C300 C 0.11148 0.14987 0.89607 0.0
C301 C 0.09341 0.15095 0.90082 0.0
C302 C 0.10103 0.16395 0.88968 0.0
C303 C 0.11836 0.16048 0.88185 0.0
O304 O 0.12988 0.17574 0.85629 0.0
O305 O 0.14272 0.17399 0.86714 0.0
O306 O 0.12701 0.16455 0.88516 0.0
O307 O 0.11511 0.16444 0.8731 0.0
H308 H 0.13106 0.15414 0.85949 0.0
H309 H 0.1339 0.13921 0.8484 0.0
H310 H 0.15779 0.15587 0.83223 0.0
H311 H 0.15456 0.17096 0.84316 0.0
H312 H 0.13356 0.22328 0.86074 0.0
H313 H 0.13314 0.20456 0.86427 0.0
H314 H 0.11224 0.22831 0.88584 0.0
H315 H 0.11184 0.20985 0.88922 0.0
H316 H 0.08526 0.16407 0.89441 0.0
H317 H 0.10404 0.13919 0.90616 0.0
H318 H 0.11864 0.14559 0.89622 0.0
H319 H 0.10004 0.17071 0.88486 0.0
C320 C 0.45098 0.06464 0.14567 0.0
C321 C 0.44669 0.07395 0.14912 0.0
C322 C 0.45594 0.08331 0.13574 0.0
C323 C 0.44915 0.0832 0.14421 0.0
C324 C 0.46064 0.07405 0.13266 0.0
C325 C 0.45814 0.06475 0.13757 0.0
U326 U 0.43436 0.05025 0.16474 0.0
O327 O 0.42354 0.0375 0.16246 0.0
O328 O 0.43672 0.03547 0.17287 0.0
C329 C 0.4289 0.03107 0.16816 0.0
C330 C 0.44734 0.05479 0.14992 0.0
C331 C 0.43078 0.02091 0.16345 0.0
C332 C 0.43448 0.0103 0.14841 0.0
C333 C 0.4343 0.01997 0.15324 0.0
C334 C 0.42821 1.00239 0.16414 0.0
C335 C 0.43117 1.00142 0.15373 0.0
C336 C 0.42803 0.01204 0.16894 0.0
C337 C 0.41868 0.06829 0.18318 0.0
C338 C 0.40114 0.06774 0.18973 0.0
C339 C 0.41276 0.08119 0.19543 0.0
C340 C 0.42057 0.07699 0.18934 0.0
C341 C 0.40291 0.07679 0.19541 0.0
C342 C 0.40901 0.06345 0.1837 0.0
C343 C 0.42632 0.06562 0.17522 0.0
O344 O 0.45027 0.05271 0.1594 0.0
O345 O 0.43753 0.05298 0.14833 0.0
O346 O 0.42268 0.06233 0.16634 0.0
O347 O 0.43471 0.06079 0.17817 0.0
H348 H 0.44117 0.074 0.15538 0.0
H349 H 0.44551 0.09025 0.14683 0.0
H350 H 0.46584 0.07391 0.12613 0.0
H351 H 0.46151 0.05762 0.13482 0.0
H352 H 0.43694 0.0098 0.14044 0.0
H353 H 0.43651 0.02676 0.14889 0.0
H354 H 0.42549 0.99577 0.16845 0.0
H355 H 0.42527 0.01262 0.17681 0.0
H356 H 0.39356 0.06428 0.18959 0.0
H357 H 0.41423 0.08827 0.19963 0.0
H358 H 0.42792 0.08091 0.18896 0.0
H359 H 0.40738 0.05672 0.17901 0.0
C360 C 0.19114 0.18612 0.38033 0.0
C361 C 0.18199 0.18106 0.38293 0.0
C362 C 0.17321 0.18974 0.36872 0.0
C363 C 0.17306 0.18288 0.37717 0.0
C364 C 0.1824 0.19492 0.36634 0.0
C365 C 0.19127 0.19311 0.37211 0.0
U366 U 0.20923 0.17346 0.40078 0.0
O367 O 0.2245 0.1675 0.39691 0.0
O368 O 0.22307 0.18075 0.40769 0.0
C369 C 0.22916 0.17465 0.40236 0.0
C370 C 0.20086 0.18388 0.38558 0.0
C371 C 0.24 0.17322 0.40503 0.0
C372 C 0.25765 0.17801 0.40132 0.0
C373 C 0.24714 0.18005 0.4007 0.0
C374 C 0.25403 0.16252 0.41116 0.0
C375 C 0.26121 0.1691 0.40635 0.0
C376 C 0.24347 0.16452 0.41042 0.0
C377 C 0.19195 0.15519 0.41958 0.0
C378 C 0.18952 0.13886 0.42849 0.0
C379 C 0.17563 0.15131 0.42774 0.0
C380 C 0.18193 0.15811 0.42227 0.0
C381 C 0.17931 0.14157 0.43075 0.0
C382 C 0.19577 0.14559 0.42283 0.0
C383 C 0.19813 0.16183 0.4128 0.0
O384 O 0.20205 0.18769 0.3949 0.0
O385 O 0.20434 0.17443 0.3846 0.0
O386 O 0.20243 0.15827 0.40433 0.0
O387 O 0.19977 0.17164 0.41485 0.0
H388 H 0.18178 0.17562 0.38928 0.0
H389 H 0.16607 0.17889 0.3793 0.0
H390 H 0.18282 0.20015 0.35983 0.0
H391 H 0.19832 0.19703 0.36998 0.0
H392 H 0.26297 0.18328 0.39765 0.0
H393 H 0.24456 0.18674 0.3964 0.0
H394 H 0.25654 0.15555 0.41503 0.0
H395 H 0.23803 0.15911 0.4137 0.0
H396 H 0.1925 0.13137 0.43068 0.0
H397 H 0.16778 0.15356 0.42941 0.0
H398 H 0.17885 0.16547 0.41979 0.0
H399 H 0.2035 0.14323 0.42082 0.0
C400 C 0.05446 0.95359 0.64379 0.0
C401 C 0.05892 0.94423 0.64687 0.0
C402 C 0.0496 0.93517 0.63332 0.0
C403 C 0.05651 0.93511 0.64169 0.0
C404 C 0.04471 0.94446 0.63063 0.0
C405 C 0.04716 0.95362 0.63582 0.0
U406 U 0.07137 0.96757 0.66291 0.0
O407 O 0.08189 0.98061 0.66085 0.0
O408 O 0.06898 0.98197 0.67171 0.0
C409 C 0.07661 0.98669 0.66701 0.0
C410 C 0.05805 0.96335 0.6483 0.0
C411 C 0.07449 0.99705 0.66289 0.0
C412 C 0.07054 0.00842 0.64849 0.0
C413 C 0.07084 0.9985 0.65279 0.0
C414 C 0.07694 0.01553 0.66455 0.0
C415 C 0.07388 0.01702 0.65423 0.0
C416 C 0.07724 0.00565 0.66882 0.0
C417 C 0.08787 0.94923 0.68024 0.0
C418 C 0.10534 0.95053 0.68687 0.0
C419 C 0.09466 0.93596 0.69159 0.0
C420 C 0.08659 0.94002 0.68576 0.0
C421 C 0.10418 0.94103 0.69194 0.0
C422 C 0.09719 0.95467 0.6811 0.0
C423 C 0.07998 0.95198 0.67256 0.0
O424 O 0.05536 0.96503 0.65793 0.0
O425 O 0.06778 0.9654 0.6465 0.0
O426 O 0.08334 0.95569 0.66374 0.0
O427 O 0.07157 0.95652 0.67591 0.0
H428 H 0.06455 0.94406 0.65303 0.0
H429 H 0.0603 0.92803 0.64401 0.0
H430 H 0.03941 0.94473 0.62419 0.0
H431 H 0.04366 0.9608 0.63335 0.0
H432 H 0.06798 0.00931 0.64058 0.0
H433 H 0.06864 0.99194 0.6481 0.0
H434 H 0.0797 0.02192 0.66917 0.0
H435 H 0.08009 1.00467 0.67661 0.0
H436 H 0.11267 0.95451 0.68701 0.0
H437 H 0.09368 0.92854 0.69531 0.0
H438 H 0.07952 0.93565 0.6851 0.0
H439 H 0.09835 0.9618 0.67689 0.0
C440 C 0.32905 0.85071 0.86134 0.0
C441 C 0.33836 0.8558 0.85929 0.0
C442 C 0.34691 0.83928 0.85595 0.0
C443 C 0.34714 0.85017 0.85651 0.0
C444 C 0.33745 0.83428 0.85772 0.0
C445 C 0.32865 0.83994 0.86035 0.0
U446 U 0.31673 0.87241 0.87712 0.0
O447 O 0.303 0.88206 0.87429 0.0
O448 O 0.30369 0.87198 0.88791 0.0
C449 C 0.29823 0.87861 0.88255 0.0
C450 C 0.31987 0.85637 0.86507 0.0
C451 C 0.28708 0.87658 0.88176 0.0
C452 C 0.27228 0.86587 0.87734 0.0
C453 C 0.28296 0.86773 0.87702 0.0
C454 C 0.26987 0.88171 0.88695 0.0
C455 C 0.26565 0.87276 0.88252 0.0
C456 C 0.28043 0.88358 0.88656 0.0
C457 C 0.33716 0.88986 0.89135 0.0
C458 C 0.33551 0.9023 0.90538 0.0
C459 C 0.35234 0.89779 0.89879 0.0
C460 C 0.34782 0.8912 0.89162 0.0
C461 C 0.34631 0.90338 0.90589 0.0
C462 C 0.33096 0.89555 0.89818 0.0
C463 C 0.33313 0.88176 0.88446 0.0
O464 O 0.31809 0.8556 0.87502 0.0
O465 O 0.31852 0.86579 0.86154 0.0
O466 O 0.32853 0.88461 0.87588 0.0
O467 O 0.32881 0.87375 0.8889 0.0
H468 H 0.33891 0.86411 0.86 0.0
H469 H 0.35415 0.85439 0.85498 0.0
H470 H 0.33691 0.82595 0.85752 0.0
H471 H 0.32156 0.83585 0.86192 0.0
H472 H 0.26927 0.85891 0.87384 0.0
H473 H 0.28798 0.86221 0.87327 0.0
H474 H 0.265 0.88729 0.8908 0.0
H475 H 0.28343 0.89046 0.89025 0.0
H476 H 0.3306 0.90652 0.91065 0.0
H477 H 0.36065 0.8981 0.89903 0.0
H478 H 0.35274 0.8868 0.88649 0.0
H479 H 0.32269 0.8946 0.8981 0.0
C480 C 0.45098 0.94648 0.36563 0.0
C481 C 0.44669 0.93718 0.36217 0.0
C482 C 0.45593 0.92781 0.37556 0.0
C483 C 0.44915 0.92792 0.36709 0.0
C484 C 0.46063 0.93707 0.37864 0.0
C485 C 0.45813 0.94636 0.37372 0.0
U486 U 0.43436 0.96086 0.34655 0.0
O487 O 0.42353 0.97362 0.34883 0.0
O488 O 0.43671 0.97565 0.33842 0.0
C489 C 0.42889 0.98005 0.34312 0.0
C490 C 0.44733 0.95633 0.36138 0.0
C491 C 0.43078 0.99021 0.34783 0.0
C492 C 0.43448 1.00081 0.36288 0.0
C493 C 0.4343 0.99114 0.35804 0.0
C494 C 0.42821 0.00873 0.34715 0.0
C495 C 0.43117 0.00969 0.35756 0.0
C496 C 0.42802 0.99908 0.34235 0.0
C497 C 0.41867 0.94282 0.32811 0.0
C498 C 0.40113 0.94338 0.32157 0.0
C499 C 0.41276 0.92992 0.31587 0.0
C500 C 0.42056 0.93412 0.32196 0.0
C501 C 0.40291 0.93432 0.31589 0.0
C502 C 0.409 0.94767 0.3276 0.0
C503 C 0.42632 0.9455 0.33608 0.0
O504 O 0.45027 0.95841 0.35189 0.0
O505 O 0.43752 0.95815 0.36296 0.0
O506 O 0.42268 0.94879 0.34495 0.0
O507 O 0.43471 0.95033 0.33312 0.0
H508 H 0.44117 0.93712 0.35591 0.0
H509 H 0.4455 0.92087 0.36446 0.0
H510 H 0.46583 0.93721 0.38517 0.0
H511 H 0.46149 0.9535 0.37648 0.0
H512 H 0.43695 1.0013 0.37085 0.0
H513 H 0.43651 0.98435 0.36239 0.0
H514 H 0.42549 0.01535 0.34284 0.0
H515 H 0.42526 0.9985 0.33448 0.0
H516 H 0.39355 0.94684 0.3217 0.0
H517 H 0.41423 0.92284 0.31167 0.0
H518 H 0.42791 0.9302 0.32234 0.0
H519 H 0.40737 0.9544 0.33228 0.0
C520 C 0.32888 0.15975 0.65011 0.0
C521 C 0.33819 0.15459 0.65201 0.0
C522 C 0.34682 0.17104 0.65546 0.0
C523 C 0.34702 0.16016 0.65476 0.0
C524 C 0.33737 0.1761 0.65385 0.0
C525 C 0.32852 0.17051 0.65123 0.0
U526 U 0.3166 0.13824 0.63416 0.0
O527 O 0.30287 0.12856 0.63683 0.0
O528 O 0.30363 0.13874 0.62329 0.0
C529 C 0.29813 0.13208 0.62858 0.0
C530 C 0.31967 0.15418 0.64634 0.0
C531 C 0.28699 0.13417 0.62936 0.0
C532 C 0.27227 0.14506 0.6336 0.0
C533 C 0.28292 0.14312 0.63397 0.0
C534 C 0.26976 0.1291 0.62423 0.0
C535 C 0.2656 0.13815 0.6285 0.0
C536 C 0.2803 0.12714 0.62466 0.0
C537 C 0.33717 0.12095 0.61994 0.0
C538 C 0.33559 0.1085 0.60593 0.0
C539 C 0.3524 0.11318 0.61243 0.0
C540 C 0.34784 0.11974 0.61962 0.0
C541 C 0.34639 0.10753 0.60537 0.0
C542 C 0.331 0.1152 0.61315 0.0
C543 C 0.33307 0.12899 0.62688 0.0
O544 O 0.31792 0.15503 0.63639 0.0
O545 O 0.31829 0.14473 0.64981 0.0
O546 O 0.32842 0.12605 0.63539 0.0
O547 O 0.32876 0.13702 0.62247 0.0
H548 H 0.3387 0.14629 0.65118 0.0
H549 H 0.35405 0.1559 0.65616 0.0
H550 H 0.33687 0.18443 0.65416 0.0
H551 H 0.32144 0.17465 0.64976 0.0
H552 H 0.26929 0.1521 0.63699 0.0
H553 H 0.28798 0.14866 0.63764 0.0
H554 H 0.26484 0.12351 0.62043 0.0
H555 H 0.28326 0.12019 0.62108 0.0
H556 H 0.3307 0.10422 0.60069 0.0
H557 H 0.36071 0.11295 0.61215 0.0
H558 H 0.35274 0.12419 0.62473 0.0
H559 H 0.32272 0.11606 0.61327 0.0
C560 C 0.05413 0.05742 0.8677 0.0
C561 C 0.0586 0.06675 0.86456 0.0
C562 C 0.04939 0.07588 0.87814 0.0
C563 C 0.05625 0.0759 0.86973 0.0
C564 C 0.04449 0.06662 0.88089 0.0
C565 C 0.04689 0.05743 0.87572 0.0
U566 U 0.07098 0.04342 0.84855 0.0
O567 O 0.0815 0.03037 0.85058 0.0
O568 O 0.06858 0.02904 0.83973 0.0
C569 C 0.07623 0.02431 0.8444 0.0
C570 C 0.05767 0.04764 0.86318 0.0
C571 C 0.07415 0.01393 0.84848 0.0
C572 C 0.07026 1.00251 0.86284 0.0
C573 C 0.0705 0.01243 0.85857 0.0
C574 C 0.07674 0.99547 0.84678 0.0
C575 C 0.07368 0.99394 0.85709 0.0
C576 C 0.07697 1.00537 0.84253 0.0
C577 C 0.08757 0.06167 0.83128 0.0
C578 C 0.10512 0.06035 0.82485 0.0
C579 C 0.09441 0.07479 0.8198 0.0
C580 C 0.0863 0.07079 0.8256 0.0
C581 C 0.10396 0.06978 0.81963 0.0
C582 C 0.09693 0.05626 0.83059 0.0
C583 C 0.07963 0.059 0.83894 0.0
O584 O 0.05497 0.04598 0.85354 0.0
O585 O 0.06739 0.04555 0.86497 0.0
O586 O 0.08294 0.05529 0.84778 0.0
O587 O 0.07122 0.05449 0.83558 0.0
H588 H 0.0642 0.06689 0.85837 0.0
H589 H 0.06005 0.08295 0.86737 0.0
H590 H 0.03923 0.06638 0.88736 0.0
H591 H 0.04338 0.05027 0.87822 0.0
H592 H 0.0677 1.00158 0.87074 0.0
H593 H 0.06824 0.01897 0.86327 0.0
H594 H 0.07955 0.98912 0.84215 0.0
H595 H 0.07983 0.00638 0.83475 0.0
H596 H 0.11246 0.0564 0.82484 0.0
H597 H 0.09342 0.08216 0.81597 0.0
H598 H 0.0792 0.07514 0.82613 0.0
H599 H 0.09808 0.0492 0.83491 0.0
C600 C 0.19112 0.82502 0.13096 0.0
C601 C 0.18196 0.83008 0.12836 0.0
C602 C 0.17319 0.82139 0.14257 0.0
C603 C 0.17304 0.82826 0.13413 0.0
C604 C 0.18238 0.81622 0.14496 0.0
C605 C 0.19125 0.81802 0.13919 0.0
U606 U 0.20924 0.83767 0.11054 0.0
O607 O 0.22452 0.84356 0.11446 0.0
O608 O 0.22308 0.83034 0.10366 0.0
C609 C 0.22918 0.83641 0.10901 0.0
C610 C 0.20083 0.82725 0.12572 0.0
C611 C 0.24001 0.83787 0.10631 0.0
C612 C 0.25768 0.83311 0.10997 0.0
C613 C 0.24717 0.83104 0.1106 0.0
C614 C 0.25399 0.84861 0.10017 0.0
C615 C 0.2612 0.84203 0.10495 0.0
C616 C 0.24344 0.84658 0.10091 0.0
C617 C 0.19199 0.85596 0.09172 0.0
C618 C 0.18954 0.87228 0.08281 0.0
C619 C 0.17566 0.85982 0.08356 0.0
C620 C 0.18198 0.85303 0.08903 0.0
C621 C 0.17933 0.86957 0.08055 0.0
C622 C 0.19579 0.86556 0.08847 0.0
C623 C 0.19818 0.84933 0.09851 0.0
O624 O 0.20202 0.82345 0.11639 0.0
O625 O 0.20432 0.8367 0.12671 0.0
O626 O 0.20248 0.85288 0.10698 0.0
O627 O 0.19981 0.83952 0.09646 0.0
H628 H 0.18175 0.83552 0.12202 0.0
H629 H 0.16604 0.83225 0.132 0.0
H630 H 0.1828 0.81099 0.15146 0.0
H631 H 0.1983 0.81411 0.14132 0.0
H632 H 0.26302 0.82784 0.11362 0.0
H633 H 0.24462 0.82434 0.1149 0.0
H634 H 0.25648 0.85558 0.0963 0.0
H635 H 0.23798 0.85199 0.09766 0.0
H636 H 0.1925 0.87978 0.08062 0.0
H637 H 0.16781 0.85756 0.08189 0.0
H638 H 0.1789 0.84567 0.09152 0.0
H639 H 0.20352 0.86793 0.09048 0.0
C640 C 0.11673 0.41766 0.0873 0.0
C641 C 0.12196 0.41555 0.09653 0.0
C642 C 0.11349 0.43009 0.10492 0.0
C643 C 0.12039 0.42171 0.10525 0.0
C644 C 0.10785 0.4318 0.09579 0.0
C645 C 0.1095 0.42567 0.08705 0.0
U646 U 0.1317 0.3964 0.07451 0.0
O647 O 0.12885 0.38643 0.06103 0.0
O648 O 0.14231 0.39673 0.06135 0.0
C649 C 0.137 0.38988 0.05611 0.0
C650 C 0.11952 0.41218 0.07777 0.0
C651 C 0.13599 0.39181 0.04503 0.0
C652 C 0.12932 0.40125 0.03026 0.0
C653 C 0.12961 0.39956 0.04096 0.0
C654 C 0.14174 0.38751 0.02779 0.0
C655 C 0.13549 0.39528 0.0236 0.0
C656 C 0.14198 0.38581 0.03838 0.0
C657 C 0.14778 0.37926 0.09259 0.0
C658 C 0.1654 0.37311 0.09124 0.0
C659 C 0.15428 0.3667 0.10479 0.0
C660 C 0.1462 0.37267 0.10099 0.0
C661 C 0.16414 0.36737 0.10036 0.0
C662 C 0.15726 0.37901 0.08736 0.0
C663 C 0.14006 0.3873 0.09047 0.0
O664 O 0.12925 0.41313 0.07519 0.0
O665 O 0.1161 0.40266 0.07692 0.0
O666 O 0.13128 0.38427 0.08648 0.0
O667 O 0.1436 0.39589 0.08643 0.0
H668 H 0.1276 0.4094 0.09687 0.0
H669 H 0.12497 0.4202 0.11206 0.0
H670 H 0.10234 0.43805 0.09532 0.0
H671 H 0.10536 0.42738 0.08 0.0
H672 H 0.1244 0.40727 0.02721 0.0
H673 H 0.12496 0.40429 0.04603 0.0
H674 H 0.14638 0.38262 0.02286 0.0
H675 H 0.14692 0.37978 0.04141 0.0
H676 H 0.17288 0.37376 0.08762 0.0
H677 H 0.15301 0.36216 0.11169 0.0
H678 H 0.13892 0.37266 0.10506 0.0
H679 H 0.1586 0.38392 0.08073 0.0
C680 C 0.61674 0.09346 0.92399 0.0
C681 C 0.62197 0.09557 0.91476 0.0
C682 C 0.6135 0.08103 0.90638 0.0
C683 C 0.6204 0.08941 0.90605 0.0
C684 C 0.60787 0.07932 0.9155 0.0
C685 C 0.60951 0.08546 0.92424 0.0
U686 U 0.63171 0.11472 0.93679 0.0
O687 O 0.62885 0.12469 0.95026 0.0
O688 O 0.64231 0.11439 0.94995 0.0
C689 C 0.637 0.12124 0.95518 0.0
C690 C 0.61953 0.09895 0.93353 0.0
C691 C 0.63599 0.11931 0.96627 0.0
C692 C 0.62933 0.10988 0.98104 0.0
C693 C 0.62962 0.11156 0.97034 0.0
C694 C 0.64174 0.12362 0.9835 0.0
C695 C 0.63549 0.11585 0.9877 0.0
C696 C 0.64198 0.12532 0.97291 0.0
C697 C 0.64779 0.13186 0.91871 0.0
C698 C 0.66541 0.138 0.92006 0.0
C699 C 0.65429 0.14441 0.90651 0.0
C700 C 0.64621 0.13844 0.91031 0.0
C701 C 0.66414 0.14374 0.91095 0.0
C702 C 0.65727 0.1321 0.92394 0.0
C703 C 0.64007 0.12382 0.92083 0.0
O704 O 0.62926 0.098 0.93611 0.0
O705 O 0.61611 0.10847 0.93438 0.0
O706 O 0.63128 0.12685 0.92482 0.0
O707 O 0.64361 0.11523 0.92487 0.0
H708 H 0.62761 0.10172 0.91442 0.0
H709 H 0.62498 0.09092 0.89923 0.0
H710 H 0.60236 0.07308 0.91598 0.0
H711 H 0.60538 0.08375 0.9313 0.0
H712 H 0.62441 0.10386 0.98409 0.0
H713 H 0.62497 0.10683 0.96527 0.0
H714 H 0.64638 0.12851 0.98844 0.0
H715 H 0.64691 0.13134 0.96989 0.0
H716 H 0.67289 0.13735 0.92368 0.0
H717 H 0.65301 0.14896 0.89961 0.0
H718 H 0.63893 0.13845 0.90624 0.0
H719 H 0.65861 0.12719 0.93057 0.0
C720 C 0.20099 0.39559 0.19658 0.0
C721 C 0.1967 0.39905 0.18727 0.0
C722 C 0.20594 0.38566 0.1779 0.0
C723 C 0.19916 0.39413 0.17802 0.0
C724 C 0.21064 0.38257 0.18717 0.0
C725 C 0.20814 0.38749 0.19646 0.0
U726 U 0.18435 0.41467 0.21097 0.0
O727 O 0.17352 0.41238 0.22371 0.0
O728 O 0.1867 0.42279 0.22577 0.0
C729 C 0.17888 0.41808 0.23015 0.0
C730 C 0.19734 0.39984 0.20643 0.0
C731 C 0.18076 0.41336 0.2403 0.0
C732 C 0.18446 0.3983 0.25089 0.0
C733 C 0.18427 0.40315 0.24122 0.0
C734 C 0.1782 0.41403 0.25883 0.0
C735 C 0.18115 0.40361 0.25978 0.0
C736 C 0.17801 0.41883 0.24919 0.0
C737 C 0.16867 0.4331 0.19293 0.0
C738 C 0.15113 0.43965 0.19348 0.0
C739 C 0.16276 0.44535 0.18003 0.0
C740 C 0.17056 0.43925 0.18423 0.0
C741 C 0.15291 0.44533 0.18443 0.0
C742 C 0.159 0.43362 0.19777 0.0
C743 C 0.17632 0.42514 0.1956 0.0
O744 O 0.20026 0.40933 0.20852 0.0
O745 O 0.18753 0.39826 0.20824 0.0
O746 O 0.17268 0.41627 0.19889 0.0
O747 O 0.1847 0.4281 0.20044 0.0
H748 H 0.19118 0.40531 0.18722 0.0
H749 H 0.19552 0.39675 0.17097 0.0
H750 H 0.21584 0.37604 0.1873 0.0
H751 H 0.2115 0.38474 0.2036 0.0
H752 H 0.18692 0.39033 0.25136 0.0
H753 H 0.18648 0.39881 0.23442 0.0
H754 H 0.17548 0.41833 0.26546 0.0
H755 H 0.17526 0.42671 0.24863 0.0
H756 H 0.14355 0.43952 0.19694 0.0
H757 H 0.16423 0.44955 0.17295 0.0
H758 H 0.17791 0.43887 0.18031 0.0
H759 H 0.15737 0.42894 0.2045 0.0
C760 C 0.89254 0.90917 0.41377 0.0
C761 C 0.88702 0.90757 0.4046 0.0
C762 C 0.89601 0.92191 0.39644 0.0
C763 C 0.88871 0.91389 0.39603 0.0
C764 C 0.90196 0.92304 0.40546 0.0
C765 C 0.9002 0.91675 0.41406 0.0
U766 U 0.87695 0.88829 0.42652 0.0
O767 O 0.87946 0.87836 0.44009 0.0
O768 O 0.86628 0.88901 0.4396 0.0
C769 C 0.87139 0.8821 0.44494 0.0
C770 C 0.88957 0.9037 0.42326 0.0
C771 C 0.87246 0.88421 0.456 0.0
C772 C 0.87884 0.89422 0.47052 0.0
C773 C 0.87863 0.89223 0.45987 0.0
C774 C 0.86679 0.88023 0.47333 0.0
C775 C 0.8728 0.8883 0.47732 0.0
C776 C 0.86664 0.87822 0.46279 0.0
C777 C 0.86036 0.8716 0.40853 0.0
C778 C 0.84261 0.86598 0.4103 0.0
C779 C 0.85311 0.85949 0.39629 0.0
C780 C 0.86148 0.86513 0.39996 0.0
C781 C 0.84342 0.86038 0.40104 0.0
C782 C 0.85104 0.87154 0.41405 0.0
C783 C 0.86836 0.87936 0.41057 0.0
O784 O 0.87988 0.90493 0.42584 0.0
O785 O 0.89272 0.89409 0.42408 0.0
O786 O 0.87702 0.87606 0.41463 0.0
O787 O 0.86511 0.88811 0.41453 0.0
H788 H 0.88106 0.90174 0.40423 0.0
H789 H 0.88389 0.91283 0.3893 0.0
H790 H 0.90779 0.92898 0.40598 0.0
H791 H 0.90456 0.91806 0.42107 0.0
H792 H 0.88356 0.90047 0.47341 0.0
H793 H 0.88314 0.89696 0.45468 0.0
H794 H 0.86225 0.87538 0.47839 0.0
H795 H 0.86185 0.872 0.45991 0.0
H796 H 0.83527 0.86681 0.41416 0.0
H797 H 0.85404 0.85503 0.38928 0.0
H798 H 0.86864 0.86497 0.39568 0.0
H799 H 0.85005 0.87636 0.42081 0.0
C800 C 0.80443 0.11744 0.20368 0.0
C801 C 0.8089 0.11436 0.19432 0.0
C802 C 0.79959 0.1279 0.18525 0.0
C803 C 0.8065 0.11953 0.1852 0.0
C804 C 0.79469 0.13059 0.19454 0.0
C805 C 0.79714 0.12542 0.20371 0.0
U806 U 0.82134 0.09832 0.21766 0.0
O807 O 0.83185 0.10037 0.2307 0.0
O808 O 0.81895 0.08951 0.23205 0.0
C809 C 0.82657 0.09421 0.23677 0.0
C810 C 0.80802 0.11293 0.21344 0.0
C811 C 0.82447 0.09833 0.24714 0.0
C812 C 0.82051 0.11272 0.25852 0.0
C813 C 0.82081 0.10842 0.2486 0.0
C814 C 0.82692 0.09667 0.26562 0.0
C815 C 0.82386 0.10699 0.26712 0.0
C816 C 0.82722 0.0924 0.25573 0.0
C817 C 0.83785 0.081 0.19932 0.0
C818 C 0.85532 0.0744 0.20065 0.0
C819 C 0.84467 0.06966 0.18606 0.0
C820 C 0.83658 0.07547 0.1901 0.0
C821 C 0.85418 0.06933 0.19114 0.0
C822 C 0.84716 0.08015 0.20478 0.0
C823 C 0.82994 0.08868 0.20206 0.0
O824 O 0.80532 0.1033 0.21511 0.0
O825 O 0.81774 0.11473 0.2155 0.0
O826 O 0.83329 0.09749 0.20577 0.0
O827 O 0.82154 0.08533 0.20659 0.0
H828 H 0.81453 0.10819 0.19415 0.0
H829 H 0.8103 0.11721 0.17812 0.0
H830 H 0.7894 0.13704 0.19481 0.0
H831 H 0.79363 0.12789 0.21088 0.0
H832 H 0.81795 0.12063 0.25941 0.0
H833 H 0.8186 0.11311 0.24204 0.0
H834 H 0.82969 0.09205 0.272 0.0
H835 H 0.83008 0.08461 0.25475 0.0
H836 H 0.86264 0.07426 0.20464 0.0
H837 H 0.8437 0.06594 0.17863 0.0
H838 H 0.82952 0.07613 0.18572 0.0
H839 H 0.8483 0.08436 0.21191 0.0
C840 C 0.39248 0.60153 0.59745 0.0
C841 C 0.38703 0.60305 0.60667 0.0
C842 C 0.39605 0.5886 0.61462 0.0
C843 C 0.38876 0.59664 0.61516 0.0
C844 C 0.40191 0.58752 0.60555 0.0
C845 C 0.4001 0.5939 0.59702 0.0
U846 U 0.37695 0.62263 0.58486 0.0
O847 O 0.37953 0.63258 0.57132 0.0
O848 O 0.36629 0.62201 0.57176 0.0
C849 C 0.37145 0.62891 0.56644 0.0
C850 C 0.38949 0.60712 0.58803 0.0
C851 C 0.37251 0.62682 0.55538 0.0
C852 C 0.37889 0.61686 0.54083 0.0
C853 C 0.37868 0.61883 0.55148 0.0
C854 C 0.36683 0.63086 0.53806 0.0
C855 C 0.37284 0.6228 0.53404 0.0
C856 C 0.36667 0.63284 0.54861 0.0
C857 C 0.36039 0.63938 0.60282 0.0
C858 C 0.34265 0.64504 0.60102 0.0
C859 C 0.35316 0.65154 0.61502 0.0
C860 C 0.36152 0.64587 0.61137 0.0
C861 C 0.34346 0.65066 0.61027 0.0
C862 C 0.35107 0.63945 0.5973 0.0
C863 C 0.36837 0.63157 0.60081 0.0
O864 O 0.37978 0.60597 0.58548 0.0
O865 O 0.39269 0.61672 0.58729 0.0
O866 O 0.37706 0.63484 0.59677 0.0
O867 O 0.3651 0.62284 0.59683 0.0
H868 H 0.38109 0.6089 0.60714 0.0
H869 H 0.38401 0.59766 0.62195 0.0
H870 H 0.40771 0.58155 0.60492 0.0
H871 H 0.40441 0.59265 0.58998 0.0
H872 H 0.38362 0.61062 0.53792 0.0
H873 H 0.38321 0.61408 0.55666 0.0
H874 H 0.36227 0.63572 0.53302 0.0
H875 H 0.36188 0.63904 0.55151 0.0
H876 H 0.33531 0.64422 0.59716 0.0
H877 H 0.35409 0.65602 0.62202 0.0
H878 H 0.36867 0.64602 0.61566 0.0
H879 H 0.35007 0.63461 0.59055 0.0
C880 C 0.20097 0.61552 0.31473 0.0
C881 C 0.1967 0.61207 0.32404 0.0
C882 C 0.20593 0.62546 0.33341 0.0
C883 C 0.19916 0.61699 0.3333 0.0
C884 C 0.21063 0.62854 0.32414 0.0
C885 C 0.20813 0.62362 0.31485 0.0
U886 U 0.18434 0.59645 0.30035 0.0
O887 O 0.17351 0.59873 0.2876 0.0
O888 O 0.18669 0.58832 0.28555 0.0
C889 C 0.17887 0.59304 0.28116 0.0
C890 C 0.19732 0.61127 0.30488 0.0
C891 C 0.18076 0.59775 0.27101 0.0
C892 C 0.18446 0.6128 0.26042 0.0
C893 C 0.18427 0.60796 0.27009 0.0
C894 C 0.1782 0.59709 0.25248 0.0
C895 C 0.18115 0.6075 0.25153 0.0
C896 C 0.17801 0.59228 0.26212 0.0
C897 C 0.16866 0.57802 0.31839 0.0
C898 C 0.15113 0.57147 0.31784 0.0
C899 C 0.16276 0.56578 0.33128 0.0
C900 C 0.17056 0.57187 0.32708 0.0
C901 C 0.15291 0.56579 0.32689 0.0
C902 C 0.15899 0.5775 0.31354 0.0
C903 C 0.17631 0.58598 0.31571 0.0
O904 O 0.20025 0.60178 0.3028 0.0
O905 O 0.18751 0.61286 0.30307 0.0
O906 O 0.17266 0.59485 0.31242 0.0
O907 O 0.18469 0.58302 0.31087 0.0
H908 H 0.19117 0.60581 0.32409 0.0
H909 H 0.19552 0.61437 0.34035 0.0
H910 H 0.21582 0.63507 0.324 0.0
H911 H 0.21148 0.62637 0.30771 0.0
H912 H 0.18692 0.62077 0.25995 0.0
H913 H 0.18648 0.6123 0.27689 0.0
H914 H 0.17549 0.59278 0.24585 0.0
H915 H 0.17526 0.58441 0.26268 0.0
H916 H 0.14354 0.5716 0.31438 0.0
H917 H 0.16424 0.56158 0.33836 0.0
H918 H 0.17791 0.57225 0.331 0.0
H919 H 0.15735 0.58219 0.30682 0.0
C920 C 0.30412 0.39351 0.80752 0.0
C921 C 0.3086 0.39663 0.81685 0.0
C922 C 0.29938 0.38308 0.82599 0.0
C923 C 0.30625 0.39147 0.826 0.0
C924 C 0.29447 0.38033 0.81672 0.0
C925 C 0.29687 0.3855 0.80753 0.0
U926 U 0.32096 0.41262 0.79348 0.0
O927 O 0.33146 0.41056 0.78042 0.0
O928 O 0.31855 0.42142 0.77909 0.0
C929 C 0.32619 0.41673 0.77436 0.0
C930 C 0.30766 0.39801 0.79774 0.0
C931 C 0.32412 0.41267 0.76396 0.0
C932 C 0.32033 0.3983 0.75249 0.0
C933 C 0.32055 0.40255 0.76243 0.0
C934 C 0.32667 0.41443 0.7455 0.0
C935 C 0.3237 0.4041 0.74393 0.0
C936 C 0.32687 0.41865 0.75541 0.0
C937 C 0.33758 0.42992 0.81173 0.0
C938 C 0.35513 0.43633 0.81043 0.0
C939 C 0.3444 0.44141 0.82486 0.0
C940 C 0.3363 0.43561 0.82085 0.0
C941 C 0.35396 0.44156 0.81986 0.0
C942 C 0.34694 0.4306 0.80633 0.0
C943 C 0.32963 0.42226 0.80905 0.0
O944 O 0.30496 0.40764 0.79607 0.0
O945 O 0.31737 0.39621 0.79564 0.0
O946 O 0.33294 0.41342 0.80535 0.0
O947 O 0.32121 0.42562 0.80454 0.0
H948 H 0.3142 0.40282 0.81699 0.0
H949 H 0.31005 0.39383 0.83306 0.0
H950 H 0.2892 0.37386 0.81648 0.0
H951 H 0.29335 0.38299 0.80038 0.0
H952 H 0.31784 0.39038 0.75154 0.0
H953 H 0.31834 0.39782 0.76896 0.0
H954 H 0.32943 0.41911 0.73916 0.0
H955 H 0.32967 0.42646 0.75645 0.0
H956 H 0.36247 0.43632 0.8065 0.0
H957 H 0.34341 0.44525 0.83223 0.0
H958 H 0.32919 0.4351 0.82519 0.0
H959 H 0.34809 0.42627 0.79927 0.0
C960 C 0.93881 0.86624 0.56592 0.0
C961 C 0.92961 0.8608 0.56746 0.0
C962 C 0.92051 0.87294 0.55639 0.0
C963 C 0.92054 0.86411 0.56272 0.0
C964 C 0.92979 0.87828 0.5548 0.0
C965 C 0.93886 0.87496 0.55954 0.0
U966 U 0.95205 0.84938 0.58562 0.0
O967 O 0.96733 0.842 0.58556 0.0
O968 O 0.96329 0.85318 0.59766 0.0
C969 C 0.97055 0.84751 0.59345 0.0
C970 C 0.94826 0.86313 0.57128 0.0
C971 C 0.98055 0.85265 0.59221 0.0
C972 C 0.99087 0.86749 0.58719 0.0
C973 C 0.98142 0.86229 0.58732 0.0
C974 C 0.9987 0.85326 0.59644 0.0
C975 C 0.99959 0.86308 0.5919 0.0
C976 C 0.98928 0.84811 0.5966 0.0
C977 C 0.93317 0.83037 0.59954 0.0
C978 C 0.93354 0.82253 0.61661 0.0
C979 C 0.91941 0.81899 0.60494 0.0
C980 C 0.92395 0.82521 0.59746 0.0
C981 C 0.92403 0.8178 0.61463 0.0
C982 C 0.93812 0.82882 0.60907 0.0
C983 C 0.9365 0.83826 0.59211 0.0
O984 O 0.94844 0.86534 0.58117 0.0
O985 O 0.95155 0.85376 0.56922 0.0
O986 O 0.94254 0.83532 0.58452 0.0
O987 O 0.93884 0.84735 0.59593 0.0
H988 H 0.92944 0.85406 0.5724 0.0
H989 H 0.91356 0.85973 0.56398 0.0
H990 H 0.93001 0.88517 0.55007 0.0
H991 H 0.94589 0.87927 0.55833 0.0
H992 H 0.99133 0.87499 0.58354 0.0
H993 H 0.97474 0.86589 0.58385 0.0
H994 H 1.00521 0.84971 0.60027 0.0
H995 H 0.98874 0.8407 0.60043 0.0
H996 H 0.93716 0.82174 0.6241 0.0
H997 H 0.91201 0.81548 0.60333 0.0
H998 H 0.91997 0.8264 0.5902 0.0
H999 H 0.94523 0.83279 0.61082 0.0
C1000 C 0.88067 0.19199 0.32202 0.0
C1001 C 0.88486 0.18245 0.32493 0.0
C1002 C 0.86947 0.17358 0.31882 0.0
C1003 C 0.87932 0.17333 0.32333 0.0
C1004 C 0.86547 0.18315 0.31559 0.0
C1005 C 0.87102 0.19227 0.31721 0.0
U1006 U 0.90288 0.20565 0.33501 0.0
O1007 O 0.91175 0.21958 0.33078 0.0
O1008 O 0.90316 0.21902 0.34539 0.0
C1009 C 0.90873 0.22464 0.33906 0.0
C1010 C 0.88599 0.20168 0.32463 0.0
C1011 C 0.90556 0.23554 0.33774 0.0
C1012 C 0.89297 0.24936 0.33983 0.0
C1013 C 0.89532 0.23879 0.33904 0.0
C1014 C 0.91093 0.25349 0.33726 0.0
C1015 C 0.90084 0.25681 0.33939 0.0
C1016 C 0.91326 0.24299 0.33648 0.0
C1017 C 0.92181 0.18564 0.348 0.0
C1018 C 0.93418 0.18704 0.36206 0.0
C1019 C 0.93084 0.17044 0.35413 0.0
C1020 C 0.92392 0.17506 0.34734 0.0
C1021 C 0.93586 0.17633 0.36167 0.0
C1022 C 0.92714 0.1917 0.35524 0.0
C1023 C 0.91314 0.18957 0.34184 0.0
O1024 O 0.88608 0.2039 0.33452 0.0
O1025 O 0.89496 0.20312 0.32017 0.0
O1026 O 0.91514 0.19401 0.33294 0.0
O1027 O 0.90557 0.19393 0.34694 0.0
H1028 H 0.89231 0.18208 0.32865 0.0
H1029 H 0.88271 0.16609 0.32574 0.0
H1030 H 0.85788 0.18363 0.31218 0.0
H1031 H 0.86765 0.19958 0.31495 0.0
H1032 H 0.88512 0.25163 0.34144 0.0
H1033 H 0.88922 0.23319 0.33997 0.0
H1034 H 0.91715 0.25901 0.33664 0.0
H1035 H 0.9212 0.24068 0.33544 0.0
H1036 H 0.93794 0.19169 0.36789 0.0
H1037 H 0.93195 0.16216 0.35377 0.0
H1038 H 0.91982 0.17024 0.34187 0.0
H1039 H 0.92557 0.19988 0.3559 0.0
C1040 C 0.56849 0.14696 0.07187 0.0
C1041 C 0.57785 0.15218 0.0732 0.0
C1042 C 0.58679 0.13865 0.06371 0.0
C1043 C 0.58693 0.14807 0.06914 0.0
C1044 C 0.57736 0.13352 0.06234 0.0
C1045 C 0.56829 0.13765 0.0664 0.0
U1046 U 0.55519 0.16658 0.08883 0.0
O1047 O 0.54017 0.17429 0.08729 0.0
O1048 O 0.54346 0.16467 0.10085 0.0
C1049 C 0.53653 0.16997 0.09571 0.0
C1050 C 0.559 0.151 0.0765 0.0
C1051 C 0.5264 0.165 0.0948 0.0
C1052 C 0.51567 0.15026 0.09041 0.0
C1053 C 0.52525 0.15522 0.09027 0.0
C1054 C 0.5083 0.16498 0.09928 0.0
C1055 C 0.50711 0.15504 0.09506 0.0
C1056 C 0.51785 0.1699 0.09914 0.0
C1057 C 0.5741 0.18682 0.10085 0.0
C1058 C 0.57379 0.19644 0.11699 0.0
C1059 C 0.58768 0.19899 0.10478 0.0
C1060 C 0.58318 0.1919 0.09808 0.0
C1061 C 0.58317 0.20113 0.11437 0.0
C1062 C 0.56924 0.18931 0.11023 0.0
C1063 C 0.57084 0.17808 0.09438 0.0
O1064 O 0.55848 0.1501 0.08658 0.0
O1065 O 0.55605 0.1601 0.07315 0.0
O1066 O 0.56516 0.18012 0.08624 0.0
O1067 O 0.56812 0.16961 0.09925 0.0
H1068 H 0.57814 0.15939 0.07743 0.0
H1069 H 0.59403 0.1523 0.07019 0.0
H1070 H 0.57701 0.12621 0.0583 0.0
H1071 H 0.56112 0.13351 0.06537 0.0
H1072 H 0.51499 0.14266 0.08701 0.0
H1073 H 0.5318 0.15133 0.08686 0.0
H1074 H 0.50195 0.16883 0.10306 0.0
H1075 H 0.51862 0.17742 0.10271 0.0
H1076 H 0.57026 0.19796 0.12441 0.0
H1077 H 0.59499 0.20244 0.10271 0.0
H1078 H 0.5871 0.19 0.09095 0.0
H1079 H 0.56223 0.18542 0.11251 0.0
C1080 C 0.62667 0.8151 0.81266 0.0
C1081 C 0.62264 0.82417 0.81701 0.0
C1082 C 0.6369 0.83421 0.80994 0.0
C1083 C 0.62768 0.83363 0.81564 0.0
C1084 C 0.64071 0.82513 0.80535 0.0
C1085 C 0.63565 0.81568 0.80672 0.0
U1086 U 0.60649 0.7991 0.82647 0.0
O1087 O 0.59773 0.78522 0.82184 0.0
O1088 O 0.60784 0.78479 0.83542 0.0
C1089 C 0.60161 0.7796 0.82934 0.0
C1090 C 0.62196 0.80496 0.81483 0.0
C1091 C 0.60464 0.76887 0.82697 0.0
C1092 C 0.61748 0.75588 0.82265 0.0
C1093 C 0.61441 0.76628 0.82315 0.0
C1094 C 0.60093 0.75065 0.82938 0.0
C1095 C 0.61088 0.74793 0.82607 0.0
C1096 C 0.59786 0.76097 0.82978 0.0
C1097 C 0.58879 0.81739 0.84351 0.0
C1098 C 0.57924 0.8153 0.85956 0.0
C1099 C 0.58116 0.83225 0.85191 0.0
C1100 C 0.58658 0.82796 0.8437 0.0
C1101 C 0.57776 0.82605 0.86009 0.0
C1102 C 0.58481 0.81098 0.85131 0.0
C1103 C 0.5966 0.81395 0.83604 0.0
O1104 O 0.62306 0.80172 0.82437 0.0
O1105 O 0.61261 0.80354 0.81123 0.0
O1106 O 0.60482 0.80941 0.83978 0.0
O1107 O 0.59363 0.81028 0.82706 0.0
H1108 H 0.6157 0.8239 0.82163 0.0
H1109 H 0.62441 0.84047 0.81915 0.0
H1110 H 0.64783 0.82523 0.80101 0.0
H1111 H 0.63891 0.80876 0.80334 0.0
H1112 H 0.62513 0.75412 0.81986 0.0
H1113 H 0.61976 0.77227 0.82091 0.0
H1114 H 0.59564 0.74487 0.83223 0.0
H1115 H 0.59031 0.76281 0.83281 0.0
H1116 H 0.57671 0.81039 0.86583 0.0
H1117 H 0.58015 0.84055 0.85218 0.0
H1118 H 0.58965 0.83304 0.83781 0.0
H1119 H 0.58649 0.80279 0.85131 0.0
C1120 C 0.93879 0.14487 0.9454 0.0
C1121 C 0.92959 0.1503 0.94385 0.0
C1122 C 0.9205 0.13817 0.95493 0.0
C1123 C 0.92052 0.147 0.9486 0.0
C1124 C 0.92979 0.13283 0.95652 0.0
C1125 C 0.93885 0.13616 0.95178 0.0
U1126 U 0.95202 0.16174 0.92571 0.0
O1127 O 0.96728 0.16914 0.92578 0.0
O1128 O 0.96327 0.15796 0.91367 0.0
C1129 C 0.97051 0.16364 0.91788 0.0
C1130 C 0.94824 0.14799 0.94004 0.0
C1131 C 0.98052 0.15851 0.91913 0.0
C1132 C 0.99086 0.14369 0.92418 0.0
C1133 C 0.9814 0.14888 0.92404 0.0
C1134 C 0.99867 0.1579 0.9149 0.0
C1135 C 0.99956 0.14809 0.91946 0.0
C1136 C 0.98924 0.16304 0.91473 0.0
C1137 C 0.93313 0.18075 0.91177 0.0
C1138 C 0.93352 0.18857 0.89469 0.0
C1139 C 0.91939 0.19215 0.90636 0.0
C1140 C 0.92392 0.18593 0.91385 0.0
C1141 C 0.92402 0.19333 0.89667 0.0
C1142 C 0.93809 0.18229 0.90225 0.0
C1143 C 0.93645 0.17286 0.91921 0.0
O1144 O 0.94842 0.14579 0.93015 0.0
O1145 O 0.95152 0.15736 0.94211 0.0
O1146 O 0.94248 0.1758 0.92681 0.0
O1147 O 0.93881 0.16377 0.9154 0.0
H1148 H 0.92941 0.15705 0.93892 0.0
H1149 H 0.91354 0.15138 0.94734 0.0
H1150 H 0.93001 0.12595 0.96126 0.0
H1151 H 0.94589 0.13185 0.95299 0.0
H1152 H 0.99133 0.13619 0.92784 0.0
H1153 H 0.97473 0.14528 0.92752 0.0
H1154 H 1.00517 0.16145 0.91107 0.0
H1155 H 0.98869 0.17045 0.91089 0.0
H1156 H 0.93714 0.18936 0.88721 0.0
H1157 H 0.912 0.19567 0.90796 0.0
H1158 H 0.91994 0.18475 0.9211 0.0
H1159 H 0.9452 0.17831 0.9005 0.0
C1160 C 0.62667 0.19603 0.69864 0.0
C1161 C 0.62264 0.18697 0.6943 0.0
C1162 C 0.6369 0.17692 0.70137 0.0
C1163 C 0.62768 0.17751 0.69566 0.0
C1164 C 0.64072 0.186 0.70595 0.0
C1165 C 0.63566 0.19545 0.70459 0.0
U1166 U 0.6065 0.21205 0.68483 0.0
O1167 O 0.59775 0.22595 0.68945 0.0
O1168 O 0.60786 0.22636 0.67587 0.0
C1169 C 0.60164 0.23156 0.68194 0.0
C1170 C 0.62197 0.20618 0.69647 0.0
C1171 C 0.60469 0.24228 0.68431 0.0
C1172 C 0.61757 0.25524 0.6886 0.0
C1173 C 0.61447 0.24486 0.68811 0.0
C1174 C 0.60101 0.26051 0.68191 0.0
C1175 C 0.61097 0.26321 0.68519 0.0
C1176 C 0.59792 0.2502 0.68151 0.0
C1177 C 0.58879 0.19377 0.6678 0.0
C1178 C 0.57923 0.19583 0.65175 0.0
C1179 C 0.58118 0.17889 0.65941 0.0
C1180 C 0.58659 0.1832 0.66762 0.0
C1181 C 0.57777 0.18509 0.65122 0.0
C1182 C 0.5848 0.20017 0.66 0.0
C1183 C 0.5966 0.19721 0.67527 0.0
O1184 O 0.62306 0.20941 0.68693 0.0
O1185 O 0.61262 0.20761 0.70007 0.0
O1186 O 0.60482 0.20174 0.67152 0.0
O1187 O 0.59362 0.20089 0.68424 0.0
H1188 H 0.6157 0.18725 0.68968 0.0
H1189 H 0.62441 0.17067 0.69216 0.0
H1190 H 0.64783 0.18589 0.7103 0.0
H1191 H 0.63891 0.20236 0.70797 0.0
H1192 H 0.62522 0.257 0.69137 0.0
H1193 H 0.61982 0.23885 0.69034 0.0
H1194 H 0.59573 0.2663 0.67906 0.0
H1195 H 0.59036 0.24838 0.6785 0.0
H1196 H 0.57669 0.20074 0.64548 0.0
H1197 H 0.58017 0.17059 0.65914 0.0
H1198 H 0.58967 0.17812 0.67351 0.0
H1199 H 0.58647 0.20836 0.65999 0.0
C1200 C 0.56849 0.86417 0.43944 0.0
C1201 C 0.57785 0.85895 0.43811 0.0
C1202 C 0.58679 0.87247 0.4476 0.0
C1203 C 0.58692 0.86306 0.44217 0.0
C1204 C 0.57735 0.8776 0.44897 0.0
C1205 C 0.56828 0.87348 0.44491 0.0
U1206 U 0.5552 0.84455 0.42249 0.0
O1207 O 0.54018 0.83683 0.42403 0.0
O1208 O 0.54346 0.84645 0.41047 0.0
C1209 C 0.53654 0.84115 0.41561 0.0
C1210 C 0.559 0.86013 0.43482 0.0
C1211 C 0.52641 0.84612 0.41651 0.0
C1212 C 0.51567 0.86085 0.4209 0.0
C1213 C 0.52525 0.8559 0.42104 0.0
C1214 C 0.50831 0.84613 0.41204 0.0
C1215 C 0.50711 0.85607 0.41625 0.0
C1216 C 0.51786 0.84122 0.41217 0.0
C1217 C 0.5741 0.82431 0.41047 0.0
C1218 C 0.57379 0.8147 0.39432 0.0
C1219 C 0.58769 0.81213 0.40652 0.0
C1220 C 0.58319 0.81921 0.41323 0.0
C1221 C 0.58316 0.81001 0.39694 0.0
C1222 C 0.56924 0.82183 0.40109 0.0
C1223 C 0.57085 0.83305 0.41694 0.0
O1224 O 0.55848 0.86103 0.42473 0.0
O1225 O 0.55605 0.85103 0.43817 0.0
O1226 O 0.56517 0.83101 0.42508 0.0
O1227 O 0.56813 0.84152 0.41208 0.0
H1228 H 0.57814 0.85174 0.43388 0.0
H1229 H 0.59403 0.85883 0.44112 0.0
H1230 H 0.577 0.88491 0.45301 0.0
H1231 H 0.56112 0.87762 0.44595 0.0
H1232 H 0.51498 0.86845 0.42431 0.0
H1233 H 0.5318 0.85978 0.42446 0.0
H1234 H 0.50195 0.84229 0.40824 0.0
H1235 H 0.51863 0.8337 0.4086 0.0
H1236 H 0.57026 0.8132 0.3869 0.0
H1237 H 0.59499 0.80868 0.40859 0.0
H1238 H 0.5871 0.82111 0.42037 0.0
H1239 H 0.56223 0.82573 0.39881 0.0
C1240 C 0.88148 0.81961 0.18903 0.0
C1241 C 0.88554 0.82906 0.18563 0.0
C1242 C 0.87032 0.83814 0.19197 0.0
C1243 C 0.88001 0.83824 0.1871 0.0
C1244 C 0.86645 0.82866 0.19558 0.0
C1245 C 0.87198 0.81951 0.19411 0.0
U1246 U 0.90343 0.80463 0.17653 0.0
O1247 O 0.91175 0.79055 0.18147 0.0
O1248 O 0.90307 0.7907 0.16691 0.0
C1249 C 0.9085 0.78521 0.17347 0.0
C1250 C 0.88674 0.80977 0.18676 0.0
C1251 C 0.90513 0.77441 0.17521 0.0
C1252 C 0.89253 0.76062 0.17286 0.0
C1253 C 0.89491 0.77119 0.17361 0.0
C1254 C 0.91035 0.75641 0.17617 0.0
C1255 C 0.90034 0.75313 0.17363 0.0
C1256 C 0.91271 0.76691 0.17692 0.0
C1257 C 0.92199 0.82515 0.16261 0.0
C1258 C 0.93643 0.8254 0.1506 0.0
C1259 C 0.9277 0.84129 0.1551 0.0
C1260 C 0.92119 0.83588 0.16166 0.0
C1261 C 0.93522 0.83613 0.14931 0.0
C1262 C 0.92976 0.81989 0.15719 0.0
C1263 C 0.91394 0.82004 0.16875 0.0
O1264 O 0.88671 0.80706 0.177 0.0
O1265 O 0.89571 0.80837 0.19123 0.0
O1266 O 0.90636 0.81549 0.16384 0.0
O1267 O 0.91619 0.81587 0.17772 0.0
H1268 H 0.89288 0.82931 0.18168 0.0
H1269 H 0.88331 0.84541 0.18435 0.0
H1270 H 0.85898 0.82826 0.19925 0.0
H1271 H 0.8687 0.81228 0.19674 0.0
H1272 H 0.88474 0.75837 0.17096 0.0
H1273 H 0.88889 0.77682 0.17233 0.0
H1274 H 0.91651 0.75084 0.17703 0.0
H1275 H 0.92063 0.76917 0.1782 0.0
H1276 H 0.94221 0.82126 0.14623 0.0
H1277 H 0.92668 0.84956 0.15436 0.0
H1278 H 0.91526 0.84007 0.16579 0.0
H1279 H 0.93048 0.81159 0.15782 0.0
C1280 C 0.60122 0.92444 0.89784 0.0
C1281 C 0.60671 0.91511 0.89717 0.0
C1282 C 0.59135 0.90536 0.90211 0.0
C1283 C 0.60185 0.90569 0.89937 0.0
C1284 C 0.58603 0.91479 0.90306 0.0
C1285 C 0.59092 0.92419 0.90097 0.0
U1286 U 0.62058 0.93907 0.88147 0.0
O1287 O 0.61856 0.95242 0.87121 0.0
O1288 O 0.62969 0.95327 0.884 0.0
C1289 C 0.6255 0.95798 0.87605 0.0
C1290 C 0.60579 0.93434 0.89445 0.0
C1291 C 0.62386 0.96925 0.87659 0.0
C1292 C 0.61317 0.98457 0.87888 0.0
C1293 C 0.61461 0.97383 0.87988 0.0
C1294 C 0.63023 0.98613 0.87155 0.0
C1295 C 0.6209 0.99077 0.87442 0.0
C1296 C 0.63168 0.97553 0.87264 0.0
C1297 C 0.63787 0.91966 0.86562 0.0
C1298 C 0.65115 0.92193 0.85256 0.0
C1299 C 0.64473 0.90485 0.85656 0.0
C1300 C 0.63816 0.90903 0.8639 0.0
C1301 C 0.65132 0.91119 0.85074 0.0
C1302 C 0.64445 0.92616 0.85998 0.0
C1303 C 0.63019 0.92338 0.87305 0.0
O1304 O 0.6153 0.9362 0.8974 0.0
O1305 O 0.60415 0.93665 0.88471 0.0
O1306 O 0.62173 0.92738 0.86924 0.0
O1307 O 0.63345 0.92797 0.88149 0.0
H1308 H 0.61467 0.91508 0.89471 0.0
H1309 H 0.60631 0.89867 0.89873 0.0
H1310 H 0.57793 0.91494 0.90497 0.0
H1311 H 0.58652 0.93127 0.90146 0.0
H1312 H 0.60591 0.98794 0.8812 0.0
H1313 H 0.60845 0.9691 0.88293 0.0
H1314 H 0.6364 0.99069 0.86828 0.0
H1315 H 0.63886 0.97216 0.87004 0.0
H1316 H 0.65611 0.92704 0.84821 0.0
H1317 H 0.64433 0.89661 0.8552 0.0
H1318 H 0.63308 0.90391 0.86811 0.0
H1319 H 0.64429 0.93443 0.8612 0.0
C1320 C 0.8185 0.82178 0.61424 0.0
C1321 C 0.82786 0.82311 0.60903 0.0
C1322 C 0.8368 0.81362 0.62255 0.0
C1323 C 0.83694 0.81904 0.61314 0.0
C1324 C 0.82736 0.81225 0.62768 0.0
C1325 C 0.81829 0.81631 0.62355 0.0
U1326 U 0.8052 0.83873 0.59463 0.0
O1327 O 0.79018 0.83719 0.5869 0.0
O1328 O 0.79347 0.85075 0.59654 0.0
C1329 C 0.78654 0.84561 0.59123 0.0
C1330 C 0.80901 0.82641 0.61021 0.0
C1331 C 0.77642 0.84471 0.5962 0.0
C1332 C 0.76568 0.84031 0.61093 0.0
C1333 C 0.77526 0.84017 0.60598 0.0
C1334 C 0.75831 0.84918 0.59622 0.0
C1335 C 0.75712 0.84496 0.60615 0.0
C1336 C 0.76786 0.84905 0.59131 0.0
C1337 C 0.82411 0.85075 0.5744 0.0
C1338 C 0.82379 0.86689 0.56479 0.0
C1339 C 0.83769 0.85469 0.56222 0.0
C1340 C 0.83319 0.84799 0.5693 0.0
C1341 C 0.83317 0.86427 0.5601 0.0
C1342 C 0.81924 0.86012 0.57192 0.0
C1343 C 0.82085 0.84428 0.58313 0.0
O1344 O 0.80849 0.83649 0.61111 0.0
O1345 O 0.80606 0.82306 0.6011 0.0
O1346 O 0.81518 0.83614 0.58108 0.0
O1347 O 0.81813 0.84915 0.59161 0.0
H1348 H 0.82815 0.82733 0.60182 0.0
H1349 H 0.84404 0.82009 0.60891 0.0
H1350 H 0.82701 0.80822 0.63499 0.0
H1351 H 0.81113 0.81528 0.62769 0.0
H1352 H 0.76499 0.8369 0.61853 0.0
H1353 H 0.78181 0.83676 0.60986 0.0
H1354 H 0.75196 0.85297 0.59237 0.0
H1355 H 0.76863 0.85261 0.58378 0.0
H1356 H 0.82026 0.87431 0.56328 0.0
H1357 H 0.845 0.85261 0.55877 0.0
H1358 H 0.83711 0.84085 0.5712 0.0
H1359 H 0.81223 0.8624 0.57581 0.0
C1360 C 0.91469 0.07821 0.39383 0.0
C1361 C 0.91232 0.08758 0.38891 0.0
C1362 C 0.92663 0.0961 0.39765 0.0
C1363 C 0.91823 0.09642 0.39079 0.0
C1364 C 0.92856 0.08684 0.40302 0.0
C1365 C 0.92266 0.078 0.40111 0.0
U1366 U 0.89294 0.06471 0.3798 0.0
O1367 O 0.89319 0.05203 0.36853 0.0
O1368 O 0.88407 0.05045 0.38278 0.0
C1369 C 0.88693 0.04624 0.37399 0.0
C1370 C 0.90952 0.06852 0.39074 0.0
C1371 C 0.88835 0.03495 0.37348 0.0
C1372 C 0.89872 0.01926 0.37396 0.0
C1373 C 0.89766 0.02993 0.37581 0.0
C1374 C 0.88121 0.01864 0.36764 0.0
C1375 C 0.89056 0.01357 0.36959 0.0
C1376 C 0.88014 0.02917 0.36957 0.0
C1377 C 0.87389 0.0851 0.36777 0.0
C1378 C 0.85945 0.08353 0.3559 0.0
C1379 C 0.86569 0.10041 0.36094 0.0
C1380 C 0.87307 0.09583 0.36719 0.0
C1381 C 0.85881 0.09439 0.35513 0.0
C1382 C 0.86697 0.0789 0.3622 0.0
C1383 C 0.88252 0.08098 0.37381 0.0
O1384 O 0.9005 0.06669 0.39496 0.0
O1385 O 0.90968 0.06663 0.38077 0.0
O1386 O 0.89028 0.07714 0.3686 0.0
O1387 O 0.88043 0.07592 0.38234 0.0
H1388 H 0.90616 0.08794 0.38329 0.0
H1389 H 0.91652 0.10335 0.38645 0.0
H1390 H 0.93481 0.08636 0.40852 0.0
H1391 H 0.92456 0.07088 0.40506 0.0
H1392 H 0.90601 0.01555 0.37557 0.0
H1393 H 0.90412 0.03427 0.37881 0.0
H1394 H 0.87471 0.01448 0.36448 0.0
H1395 H 0.8729 0.03288 0.36771 0.0
H1396 H 0.85426 0.07865 0.35156 0.0
H1397 H 0.86573 0.10875 0.36035 0.0
H1398 H 0.8784 0.10072 0.37137 0.0
H1399 H 0.86752 0.07057 0.36255 0.0
C1400 C 0.68881 0.19531 0.11635 0.0
C1401 C 0.67961 0.19376 0.11091 0.0
C1402 C 0.67051 0.20484 0.12305 0.0
C1403 C 0.67053 0.1985 0.11422 0.0
C1404 C 0.67979 0.20643 0.12839 0.0
C1405 C 0.68886 0.20169 0.12507 0.0
U1406 U 0.70205 0.1756 0.09948 0.0
O1407 O 0.71732 0.17566 0.0921 0.0
O1408 O 0.71329 0.16357 0.10327 0.0
C1409 C 0.72055 0.16777 0.0976 0.0
C1410 C 0.69826 0.18995 0.11323 0.0
C1411 C 0.73055 0.16901 0.10274 0.0
C1412 C 0.74087 0.17403 0.11758 0.0
C1413 C 0.73142 0.1739 0.11238 0.0
C1414 C 0.7487 0.16478 0.10335 0.0
C1415 C 0.74959 0.16932 0.11317 0.0
C1416 C 0.73927 0.16462 0.0982 0.0
C1417 C 0.68316 0.16168 0.08046 0.0
C1418 C 0.68354 0.1446 0.07263 0.0
C1419 C 0.66941 0.15627 0.06907 0.0
C1420 C 0.67394 0.16376 0.07529 0.0
C1421 C 0.67403 0.14658 0.06789 0.0
C1422 C 0.68812 0.15215 0.07891 0.0
C1423 C 0.68649 0.16911 0.08835 0.0
O1424 O 0.69844 0.18006 0.11544 0.0
O1425 O 0.70155 0.19201 0.10386 0.0
O1426 O 0.69253 0.1767 0.08541 0.0
O1427 O 0.68884 0.1653 0.09745 0.0
H1428 H 0.67944 0.18882 0.10416 0.0
H1429 H 0.66356 0.19724 0.10983 0.0
H1430 H 0.68001 0.21117 0.13528 0.0
H1431 H 0.69589 0.2029 0.12938 0.0
H1432 H 0.74134 0.17768 0.12509 0.0
H1433 H 0.72475 0.17738 0.11599 0.0
H1434 H 0.7552 0.16095 0.09979 0.0
H1435 H 0.73873 0.16079 0.09079 0.0
H1436 H 0.68716 0.13711 0.07184 0.0
H1437 H 0.66201 0.15788 0.06556 0.0
H1438 H 0.66997 0.17101 0.07648 0.0
H1439 H 0.69523 0.1504 0.08289 0.0
C1440 C 0.60126 0.08667 0.61346 0.0
C1441 C 0.60674 0.09599 0.61413 0.0
C1442 C 0.59139 0.10575 0.60919 0.0
C1443 C 0.60189 0.10541 0.61193 0.0
C1444 C 0.58606 0.09633 0.60823 0.0
C1445 C 0.59095 0.08693 0.61032 0.0
U1446 U 0.62061 0.07203 0.62983 0.0
O1447 O 0.61859 0.05869 0.64011 0.0
O1448 O 0.62972 0.05784 0.62732 0.0
C1449 C 0.62553 0.05312 0.63527 0.0
C1450 C 0.60582 0.07676 0.61685 0.0
C1451 C 0.62388 0.04186 0.63472 0.0
C1452 C 0.61319 0.02656 0.63242 0.0
C1453 C 0.61463 0.0373 0.63142 0.0
C1454 C 0.63024 0.02497 0.63975 0.0
C1455 C 0.6209 0.02034 0.63688 0.0
C1456 C 0.6317 0.03557 0.63867 0.0
C1457 C 0.63788 0.09145 0.64568 0.0
C1458 C 0.65117 0.08918 0.65875 0.0
C1459 C 0.64473 0.10626 0.65475 0.0
C1460 C 0.63817 0.10208 0.6474 0.0
C1461 C 0.65133 0.09992 0.66056 0.0
C1462 C 0.64446 0.08495 0.65133 0.0
C1463 C 0.6302 0.08773 0.63825 0.0
O1464 O 0.61533 0.07489 0.6139 0.0
O1465 O 0.60418 0.07446 0.62658 0.0
O1466 O 0.62174 0.08373 0.64206 0.0
O1467 O 0.63346 0.08313 0.62982 0.0
H1468 H 0.61471 0.09601 0.61659 0.0
H1469 H 0.60635 0.11243 0.61257 0.0
H1470 H 0.57797 0.09619 0.60632 0.0
H1471 H 0.58655 0.07985 0.60983 0.0
H1472 H 0.60592 0.02319 0.6301 0.0
H1473 H 0.60847 0.04203 0.62837 0.0
H1474 H 0.6364 0.0204 0.64302 0.0
H1475 H 0.63888 0.03893 0.64127 0.0
H1476 H 0.65613 0.08407 0.6631 0.0
H1477 H 0.64433 0.1145 0.6561 0.0
H1478 H 0.63307 0.1072 0.6432 0.0
H1479 H 0.64431 0.07668 0.65011 0.0
C1480 C 0.68881 0.81581 0.39496 0.0
C1481 C 0.67961 0.81736 0.4004 0.0
C1482 C 0.67051 0.80628 0.38826 0.0
C1483 C 0.67054 0.81262 0.39709 0.0
C1484 C 0.67979 0.80469 0.38291 0.0
C1485 C 0.68886 0.80943 0.38624 0.0
U1486 U 0.70204 0.83551 0.41184 0.0
O1487 O 0.7173 0.83544 0.41924 0.0
O1488 O 0.71328 0.84754 0.40806 0.0
C1489 C 0.72053 0.84334 0.41374 0.0
C1490 C 0.69826 0.82116 0.39808 0.0
C1491 C 0.73053 0.84209 0.4086 0.0
C1492 C 0.74086 0.83704 0.39377 0.0
C1493 C 0.73141 0.83718 0.39897 0.0
C1494 C 0.74868 0.84632 0.40799 0.0
C1495 C 0.74957 0.84176 0.39817 0.0
C1496 C 0.73925 0.84648 0.41314 0.0
C1497 C 0.68315 0.84944 0.43084 0.0
C1498 C 0.68353 0.86652 0.43867 0.0
C1499 C 0.6694 0.85485 0.44224 0.0
C1500 C 0.67393 0.84737 0.43602 0.0
C1501 C 0.67403 0.86455 0.44342 0.0
C1502 C 0.6881 0.85897 0.43239 0.0
C1503 C 0.68647 0.842 0.42296 0.0
O1504 O 0.69844 0.83105 0.39587 0.0
O1505 O 0.70155 0.8191 0.40745 0.0
O1506 O 0.69251 0.83441 0.4259 0.0
O1507 O 0.68882 0.84581 0.41386 0.0
H1508 H 0.67944 0.8223 0.40715 0.0
H1509 H 0.66356 0.81388 0.40148 0.0
H1510 H 0.68001 0.79996 0.37603 0.0
H1511 H 0.69589 0.80821 0.38193 0.0
H1512 H 0.74133 0.83337 0.38627 0.0
H1513 H 0.72474 0.83369 0.39537 0.0
H1514 H 0.75518 0.85015 0.41154 0.0
H1515 H 0.73871 0.85033 0.42054 0.0
H1516 H 0.68715 0.87401 0.43946 0.0
H1517 H 0.66201 0.85325 0.44575 0.0
H1518 H 0.66996 0.84011 0.43483 0.0
H1519 H 0.69522 0.86071 0.42841 0.0
C1520 C 0.91495 0.93474 0.11817 0.0
C1521 C 0.91251 0.92517 0.12261 0.0
C1522 C 0.92719 0.91716 0.11404 0.0
C1523 C 0.91858 0.91649 0.1206 0.0
C1524 C 0.92928 0.92667 0.10919 0.0
C1525 C 0.92322 0.93538 0.11127 0.0
U1526 U 0.89236 0.9466 0.13197 0.0
O1527 O 0.89154 0.95886 0.14363 0.0
O1528 O 0.88277 0.96038 0.12918 0.0
C1529 C 0.88531 0.96459 0.13807 0.0
C1530 C 0.90936 0.94414 0.12135 0.0
C1531 C 0.88704 0.97582 0.13834 0.0
C1532 C 0.89814 0.99098 0.13861 0.0
C1533 C 0.89677 0.98034 0.13691 0.0
C1534 C 0.88008 0.99258 0.14292 0.0
C1535 C 0.88983 0.99712 0.14191 0.0
C1536 C 0.87871 0.98206 0.14113 0.0
C1537 C 0.87387 0.92561 0.14311 0.0
C1538 C 0.85963 0.92744 0.15515 0.0
C1539 C 0.86514 0.91046 0.1496 0.0
C1540 C 0.87263 0.91491 0.14337 0.0
C1541 C 0.85859 0.91662 0.15568 0.0
C1542 C 0.86725 0.93192 0.1489 0.0
C1543 C 0.88264 0.92966 0.13724 0.0
O1544 O 0.90037 0.94564 0.11697 0.0
O1545 O 0.90921 0.94572 0.13137 0.0
O1546 O 0.89015 0.93367 0.14269 0.0
O1547 O 0.88061 0.93478 0.12873 0.0
H1548 H 0.90613 0.9245 0.12795 0.0
H1549 H 0.91676 0.90937 0.12457 0.0
H1550 H 0.93572 0.92744 0.10396 0.0
H1551 H 0.92517 0.94268 0.10771 0.0
H1552 H 0.90573 0.99431 0.13777 0.0
H1553 H 0.90332 0.97562 0.13479 0.0
H1554 H 0.87351 0.99714 0.14528 0.0
H1555 H 0.87116 0.97872 0.14229 0.0
H1556 H 0.8547 0.93242 0.15968 0.0
H1557 H 0.86485 0.90212 0.14997 0.0
H1558 H 0.87773 0.90993 0.13901 0.0
H1559 H 0.86814 0.94023 0.14879 0.0
C1560 C 0.8185 0.18934 0.89706 0.0
C1561 C 0.82786 0.18802 0.90227 0.0
C1562 C 0.8368 0.19751 0.88875 0.0
C1563 C 0.83694 0.19208 0.89816 0.0
C1564 C 0.82736 0.19888 0.88362 0.0
C1565 C 0.81829 0.19482 0.88775 0.0
U1566 U 0.80521 0.17239 0.91666 0.0
O1567 O 0.79019 0.17393 0.92438 0.0
O1568 O 0.79347 0.16038 0.91474 0.0
C1569 C 0.78655 0.16551 0.92005 0.0
C1570 C 0.80902 0.18472 0.90109 0.0
C1571 C 0.77642 0.16642 0.91509 0.0
C1572 C 0.76567 0.17081 0.90036 0.0
C1573 C 0.77526 0.17095 0.90531 0.0
C1574 C 0.75832 0.16195 0.91508 0.0
C1575 C 0.75712 0.16616 0.90514 0.0
C1576 C 0.76787 0.16208 0.91998 0.0
C1577 C 0.82411 0.16037 0.9369 0.0
C1578 C 0.8238 0.14423 0.94652 0.0
C1579 C 0.8377 0.15643 0.94909 0.0
C1580 C 0.8332 0.16313 0.942 0.0
C1581 C 0.83317 0.14685 0.95121 0.0
C1582 C 0.81925 0.15099 0.93939 0.0
C1583 C 0.82086 0.16683 0.92817 0.0
O1584 O 0.8085 0.17463 0.90018 0.0
O1585 O 0.80606 0.18807 0.9102 0.0
O1586 O 0.81518 0.17497 0.93021 0.0
O1587 O 0.81814 0.16197 0.91969 0.0
H1588 H 0.82816 0.18379 0.90948 0.0
H1589 H 0.84404 0.19103 0.90239 0.0
H1590 H 0.827 0.20291 0.87631 0.0
H1591 H 0.81113 0.19585 0.88361 0.0
H1592 H 0.76498 0.17421 0.89276 0.0
H1593 H 0.7818 0.17436 0.90142 0.0
H1594 H 0.75197 0.15816 0.91892 0.0
H1595 H 0.76864 0.15852 0.92751 0.0
H1596 H 0.82027 0.13681 0.94803 0.0
H1597 H 0.845 0.1585 0.95254 0.0
H1598 H 0.83711 0.17027 0.94011 0.0
H1599 H 0.81224 0.14872 0.93549 0.0
C1600 C 0.87722 0.56213 0.9465 0.0
C1601 C 0.87306 0.56658 0.93754 0.0
C1602 C 0.88718 0.55961 0.92722 0.0
C1603 C 0.87797 0.56532 0.92799 0.0
C1604 C 0.89112 0.55494 0.9362 0.0
C1605 C 0.8862 0.5562 0.94573 0.0
U1606 U 0.85707 0.5756 0.96273 0.0
O1607 O 0.84853 0.57098 0.97676 0.0
O1608 O 0.85839 0.58476 0.97691 0.0
C1609 C 0.85232 0.57864 0.98224 0.0
C1610 C 0.87265 0.56419 0.95673 0.0
C1611 C 0.85551 0.57649 0.99296 0.0
C1612 C 0.86862 0.57262 0.00582 0.0
C1613 C 0.86536 0.57283 0.99547 0.0
C1614 C 0.85208 0.57928 0.0112 0.0
C1615 C 0.86212 0.57617 0.01381 0.0
C1616 C 0.84883 0.5794 1.00092 0.0
C1617 C 0.8391 0.59225 0.94445 0.0
C1618 C 0.82986 0.60849 0.94638 0.0
C1619 C 0.83152 0.60054 0.92952 0.0
C1620 C 0.8368 0.59229 0.9339 0.0
C1621 C 0.82837 0.60889 0.93564 0.0
C1622 C 0.8353 0.6002 0.95078 0.0
C1623 C 0.84697 0.58488 0.94787 0.0
O1624 O 0.87364 0.57374 0.95997 0.0
O1625 O 0.86339 0.56043 0.9583 0.0
O1626 O 0.85519 0.58875 0.95229 0.0
O1627 O 0.84409 0.57593 0.95168 0.0
H1628 H 0.86612 0.57119 0.93796 0.0
H1629 H 0.87461 0.56889 0.92123 0.0
H1630 H 0.89823 0.55061 0.93595 0.0
H1631 H 0.88955 0.55275 0.95256 0.0
H1632 H 0.87633 0.56997 0.00752 0.0
H1633 H 0.87065 0.57052 0.98944 0.0
H1634 H 0.84686 0.58222 0.017 0.0
H1635 H 0.84122 0.5823 0.99914 0.0
H1636 H 0.82751 0.61489 0.95121 0.0
H1637 H 0.83047 0.60072 0.92122 0.0
H1638 H 0.83974 0.58628 0.92888 0.0
H1639 H 0.83706 0.60032 0.95896 0.0
C1640 C 0.37718 0.94894 0.06481 0.0
C1641 C 0.37303 0.9445 0.07378 0.0
C1642 C 0.38715 0.95148 0.08409 0.0
C1643 C 0.37795 0.94577 0.08332 0.0
C1644 C 0.39108 0.95614 0.0751 0.0
C1645 C 0.38615 0.95487 0.06557 0.0
U1646 U 0.35706 0.93543 0.04856 0.0
O1647 O 0.34852 0.94005 0.03453 0.0
O1648 O 0.3584 0.92629 0.03437 0.0
C1649 C 0.35233 0.93239 0.02905 0.0
C1650 C 0.37262 0.94686 0.05457 0.0
C1651 C 0.35551 0.93455 0.01832 0.0
C1652 C 0.3686 0.93841 1.00544 0.0
C1653 C 0.36536 0.9382 0.01579 0.0
C1654 C 0.35205 0.93177 1.00009 0.0
C1655 C 0.36209 0.93487 0.99746 0.0
C1656 C 0.34881 0.93165 0.01037 0.0
C1657 C 0.33909 0.91877 0.06685 0.0
C1658 C 0.32982 0.90256 0.06493 0.0
C1659 C 0.33153 0.9105 0.08178 0.0
C1660 C 0.33681 0.91873 0.0774 0.0
C1661 C 0.32835 0.90216 0.07567 0.0
C1662 C 0.33527 0.91083 0.06051 0.0
C1663 C 0.34696 0.92614 0.06341 0.0
O1664 O 0.37362 0.93731 0.05134 0.0
O1665 O 0.36335 0.95061 0.053 0.0
O1666 O 0.35518 0.92227 0.05899 0.0
O1667 O 0.34407 0.93509 0.0596 0.0
H1668 H 0.36609 0.93988 0.07336 0.0
H1669 H 0.37458 0.9422 0.09009 0.0
H1670 H 0.39819 0.96048 0.07534 0.0
H1671 H 0.3895 0.95831 0.05874 0.0
H1672 H 0.37631 0.94106 1.00374 0.0
H1673 H 0.37065 0.9405 0.02183 0.0
H1674 H 0.34682 0.92884 0.99429 0.0
H1675 H 0.3412 0.92875 0.01215 0.0
H1676 H 0.32744 0.89617 0.0601 0.0
H1677 H 0.33049 0.91032 0.09008 0.0
H1678 H 0.33977 0.92474 0.08241 0.0
H1679 H 0.33701 0.91071 0.05234 0.0
C1680 C 0.85151 0.64774 0.83679 0.0
C1681 C 0.8572 0.64712 0.84599 0.0
C1682 C 0.84199 0.65186 0.85607 0.0
C1683 C 0.85252 0.64925 0.85551 0.0
C1684 C 0.83646 0.65277 0.84677 0.0
C1685 C 0.84118 0.65076 0.83726 0.0
U1686 U 0.87067 0.63136 0.82205 0.0
O1687 O 0.86863 0.62106 0.80872 0.0
O1688 O 0.87981 0.63381 0.80787 0.0
C1689 C 0.87559 0.62587 0.80316 0.0
C1690 C 0.85594 0.64438 0.8268 0.0
C1691 C 0.87392 0.62644 0.7919 0.0
C1692 C 0.8632 0.62876 0.77662 0.0
C1693 C 0.86466 0.62974 0.78736 0.0
C1694 C 0.88026 0.62144 0.775 0.0
C1695 C 0.87091 0.62431 0.77039 0.0
C1696 C 0.88173 0.6225 0.78559 0.0
C1697 C 0.8879 0.61554 0.84152 0.0
C1698 C 0.90117 0.60245 0.83928 0.0
C1699 C 0.89472 0.60649 0.85635 0.0
C1700 C 0.88817 0.61384 0.85216 0.0
C1701 C 0.90131 0.60066 0.85003 0.0
C1702 C 0.89448 0.60988 0.83503 0.0
C1703 C 0.88024 0.62298 0.83778 0.0
O1704 O 0.86543 0.64731 0.82485 0.0
O1705 O 0.85425 0.63466 0.82449 0.0
O1706 O 0.87178 0.61917 0.83378 0.0
O1707 O 0.88352 0.63138 0.83317 0.0
H1708 H 0.86518 0.64475 0.84585 0.0
H1709 H 0.85713 0.64864 0.86244 0.0
H1710 H 0.82834 0.65459 0.84681 0.0
H1711 H 0.83663 0.6512 0.83027 0.0
H1712 H 0.85593 0.63108 0.77327 0.0
H1713 H 0.85851 0.63278 0.79211 0.0
H1714 H 0.88641 0.61818 0.7704 0.0
H1715 H 0.88892 0.6199 0.78893 0.0
H1716 H 0.90613 0.59809 0.83418 0.0
H1717 H 0.8943 0.60515 0.86459 0.0
H1718 H 0.88308 0.61806 0.85726 0.0
H1719 H 0.89434 0.61108 0.82676 0.0
C1720 C 0.13065 0.0719 0.56922 0.0
C1721 C 0.13484 0.07482 0.57877 0.0
C1722 C 0.11946 0.06871 0.58763 0.0
C1723 C 0.12931 0.07322 0.58789 0.0
C1724 C 0.11546 0.06549 0.57807 0.0
C1725 C 0.12101 0.0671 0.56894 0.0
U1726 U 0.15286 0.08488 0.55555 0.0
O1727 O 0.16172 0.08064 0.54161 0.0
O1728 O 0.15314 0.09524 0.54218 0.0
C1729 C 0.15869 0.0889 0.53655 0.0
C1730 C 0.13598 0.07451 0.55953 0.0
C1731 C 0.1555 0.08756 0.52566 0.0
C1732 C 0.14286 0.08961 0.51187 0.0
C1733 C 0.14524 0.08884 0.52243 0.0
C1734 C 0.16081 0.08704 0.50768 0.0
C1735 C 0.15071 0.08916 0.50439 0.0
C1736 C 0.16317 0.0863 0.51818 0.0
C1737 C 0.1718 0.09788 0.57556 0.0
C1738 C 0.18414 0.11196 0.57415 0.0
C1739 C 0.18083 0.10402 0.59075 0.0
C1740 C 0.17392 0.09723 0.58613 0.0
C1741 C 0.18582 0.11158 0.58486 0.0
C1742 C 0.17711 0.10514 0.5695 0.0
C1743 C 0.16313 0.09172 0.57163 0.0
O1744 O 0.13607 0.0844 0.55731 0.0
O1745 O 0.14495 0.07005 0.55809 0.0
O1746 O 0.16513 0.08282 0.56719 0.0
O1747 O 0.15555 0.09682 0.56727 0.0
H1748 H 0.1423 0.07854 0.57914 0.0
H1749 H 0.1327 0.07564 0.59513 0.0
H1750 H 0.10787 0.06207 0.57758 0.0
H1751 H 0.11764 0.06484 0.56163 0.0
H1752 H 0.13501 0.09121 0.50962 0.0
H1753 H 0.13916 0.08978 0.52806 0.0
H1754 H 0.16702 0.08642 0.50214 0.0
H1755 H 0.17112 0.08526 0.52047 0.0
H1756 H 0.18788 0.11781 0.5695 0.0
H1757 H 0.18196 0.10366 0.59903 0.0
H1758 H 0.16984 0.09175 0.59095 0.0
H1759 H 0.17552 0.1058 0.56132 0.0
C1760 C 0.16511 0.86836 0.82697 0.0
C1761 C 0.16261 0.87293 0.83647 0.0
C1762 C 0.1772 0.8644 0.8447 0.0
C1763 C 0.1686 0.87101 0.84523 0.0
C1764 C 0.17933 0.85942 0.83527 0.0
C1765 C 0.17335 0.86141 0.82649 0.0
U1766 U 0.14257 0.88194 0.81485 0.0
O1767 O 0.14176 0.89352 0.80251 0.0
O1768 O 0.13306 0.87903 0.80102 0.0
C1769 C 0.13556 0.88791 0.79679 0.0
C1770 C 0.1596 0.87142 0.81749 0.0
C1771 C 0.13726 0.88818 0.78555 0.0
C1772 C 0.14828 0.88848 0.77033 0.0
C1773 C 0.14696 0.88677 0.78098 0.0
C1774 C 0.13021 0.89276 0.76883 0.0
C1775 C 0.13993 0.89177 0.76423 0.0
C1776 C 0.1289 0.89097 0.77935 0.0
C1777 C 0.12401 0.89311 0.83583 0.0
C1778 C 0.10981 0.90522 0.8341 0.0
C1779 C 0.11537 0.8996 0.85105 0.0
C1780 C 0.1228 0.89335 0.84653 0.0
C1781 C 0.10883 0.90574 0.84494 0.0
C1782 C 0.11739 0.89895 0.82956 0.0
C1783 C 0.13277 0.88726 0.83174 0.0
O1784 O 0.15064 0.86698 0.81595 0.0
O1785 O 0.15941 0.88142 0.81581 0.0
O1786 O 0.14027 0.89273 0.82771 0.0
O1787 O 0.13077 0.87873 0.82664 0.0
H1788 H 0.15625 0.8783 0.83703 0.0
H1789 H 0.16675 0.87509 0.85228 0.0
H1790 H 0.18574 0.85414 0.83462 0.0
H1791 H 0.17535 0.85773 0.81925 0.0
H1792 H 0.15585 0.88764 0.76696 0.0
H1793 H 0.15353 0.88465 0.78566 0.0
H1794 H 0.12361 0.89512 0.7643 0.0
H1795 H 0.12136 0.89211 0.78272 0.0
H1796 H 0.10488 0.90978 0.82915 0.0
H1797 H 0.11512 0.89995 0.85939 0.0
H1798 H 0.12791 0.88895 0.85148 0.0
H1799 H 0.11825 0.89885 0.82125 0.0
C1800 C 0.63147 0.43894 0.44161 0.0
C1801 C 0.63553 0.43554 0.43216 0.0
C1802 C 0.62031 0.44188 0.42309 0.0
C1803 C 0.63001 0.43701 0.42298 0.0
C1804 C 0.61644 0.4455 0.43257 0.0
C1805 C 0.62197 0.44403 0.44172 0.0
U1806 U 0.65341 0.42645 0.45662 0.0
O1807 O 0.6617 0.43141 0.47071 0.0
O1808 O 0.65302 0.41686 0.47056 0.0
C1809 C 0.65844 0.42343 0.47606 0.0
C1810 C 0.63673 0.43668 0.45145 0.0
C1811 C 0.65504 0.42519 0.48685 0.0
C1812 C 0.64239 0.42288 0.50061 0.0
C1813 C 0.6448 0.4236 0.49005 0.0
C1814 C 0.66019 0.42618 0.50487 0.0
C1815 C 0.65017 0.42365 0.50812 0.0
C1816 C 0.66259 0.42691 0.49438 0.0
C1817 C 0.67199 0.41251 0.4361 0.0
C1818 C 0.68645 0.40051 0.43583 0.0
C1819 C 0.67769 0.40499 0.41995 0.0
C1820 C 0.67119 0.41155 0.42538 0.0
C1821 C 0.68523 0.39921 0.4251 0.0
C1822 C 0.67978 0.40709 0.44135 0.0
C1823 C 0.66395 0.41864 0.44123 0.0
O1824 O 0.6367 0.42692 0.45416 0.0
O1825 O 0.6457 0.44114 0.45286 0.0
O1826 O 0.65636 0.41374 0.44578 0.0
O1827 O 0.66619 0.42762 0.4454 0.0
H1828 H 0.64287 0.43158 0.4319 0.0
H1829 H 0.63331 0.43426 0.41581 0.0
H1830 H 0.60897 0.44917 0.43298 0.0
H1831 H 0.61869 0.44666 0.44895 0.0
H1832 H 0.63459 0.42098 0.50284 0.0
H1833 H 0.6388 0.42231 0.4844 0.0
H1834 H 0.66634 0.42704 0.51045 0.0
H1835 H 0.67051 0.42818 0.49214 0.0
H1836 H 0.69224 0.39615 0.43996 0.0
H1837 H 0.67667 0.40425 0.41168 0.0
H1838 H 0.66525 0.41567 0.42119 0.0
H1839 H 0.68051 0.40774 0.44965 0.0
C1840 C 0.8515 0.36339 0.67452 0.0
C1841 C 0.85717 0.364 0.66531 0.0
C1842 C 0.84196 0.35926 0.65524 0.0
C1843 C 0.85249 0.36186 0.65579 0.0
C1844 C 0.83644 0.35835 0.66455 0.0
C1845 C 0.84116 0.36038 0.67406 0.0
U1846 U 0.87066 0.37977 0.68924 0.0
O1847 O 0.86863 0.39007 0.70257 0.0
O1848 O 0.8798 0.37731 0.70342 0.0
C1849 C 0.87559 0.38525 0.70813 0.0
C1850 C 0.85593 0.36675 0.68449 0.0
C1851 C 0.87392 0.38469 0.71939 0.0
C1852 C 0.8632 0.38237 0.73467 0.0
C1853 C 0.86466 0.38139 0.72393 0.0
C1854 C 0.88026 0.38968 0.7363 0.0
C1855 C 0.87091 0.38681 0.7409 0.0
C1856 C 0.88173 0.38861 0.7257 0.0
C1857 C 0.88789 0.39559 0.66977 0.0
C1858 C 0.90115 0.40867 0.67203 0.0
C1859 C 0.89471 0.40463 0.65495 0.0
C1860 C 0.88816 0.39729 0.65914 0.0
C1861 C 0.9013 0.41047 0.66128 0.0
C1862 C 0.89447 0.40125 0.67627 0.0
C1863 C 0.88023 0.38815 0.67351 0.0
O1864 O 0.86542 0.36382 0.68644 0.0
O1865 O 0.85424 0.37648 0.6868 0.0
O1866 O 0.87177 0.39196 0.67751 0.0
O1867 O 0.88351 0.37975 0.67812 0.0
H1868 H 0.86516 0.36637 0.66544 0.0
H1869 H 0.85709 0.36246 0.64885 0.0
H1870 H 0.82832 0.35654 0.66452 0.0
H1871 H 0.83662 0.35994 0.68105 0.0
H1872 H 0.85593 0.38005 0.73802 0.0
H1873 H 0.85851 0.37836 0.71918 0.0
H1874 H 0.88642 0.39294 0.74089 0.0
H1875 H 0.88892 0.39121 0.72236 0.0
H1876 H 0.90611 0.41304 0.67713 0.0
H1877 H 0.8943 0.40597 0.64671 0.0
H1878 H 0.88308 0.39306 0.65403 0.0
H1879 H 0.89432 0.40004 0.68454 0.0
C1880 C 0.66472 0.64381 0.18319 0.0
C1881 C 0.66234 0.63895 0.17379 0.0
C1882 C 0.67669 0.64769 0.16533 0.0
C1883 C 0.66827 0.64085 0.16497 0.0
C1884 C 0.67864 0.65299 0.17462 0.0
C1885 C 0.67272 0.65105 0.18346 0.0
U1886 U 0.64292 0.62975 0.19656 0.0
O1887 O 0.64311 0.61843 0.20918 0.0
O1888 O 0.63402 0.63269 0.21081 0.0
C1889 C 0.63685 0.62388 0.21498 0.0
C1890 C 0.65952 0.64069 0.19285 0.0
C1891 C 0.63827 0.62335 0.22627 0.0
C1892 C 0.64865 0.62384 0.24195 0.0
C1893 C 0.64758 0.6257 0.23128 0.0
C1894 C 0.63116 0.61747 0.24256 0.0
C1895 C 0.6405 0.61944 0.24763 0.0
C1896 C 0.63007 0.61941 0.23205 0.0
C1897 C 0.62374 0.61775 0.17638 0.0
C1898 C 0.60923 0.60604 0.17837 0.0
C1899 C 0.61517 0.61083 0.16131 0.0
C1900 C 0.62271 0.61705 0.16568 0.0
C1901 C 0.60835 0.60517 0.16754 0.0
C1902 C 0.61691 0.61231 0.18278 0.0
C1903 C 0.63246 0.62381 0.18028 0.0
O1904 O 0.6505 0.64491 0.19467 0.0
O1905 O 0.65967 0.63072 0.19469 0.0
O1906 O 0.64025 0.6186 0.18407 0.0
O1907 O 0.63044 0.63236 0.18534 0.0
H1908 H 0.65616 0.63336 0.17339 0.0
H1909 H 0.66654 0.63656 0.15801 0.0
H1910 H 0.68491 0.65846 0.17514 0.0
H1911 H 0.67463 0.65496 0.1906 0.0
H1912 H 0.65594 0.62547 0.24566 0.0
H1913 H 0.65403 0.62872 0.22694 0.0
H1914 H 0.62467 0.61429 0.24673 0.0
H1915 H 0.62284 0.61753 0.22833 0.0
H1916 H 0.60411 0.6018 0.1834 0.0
H1917 H 0.61502 0.61017 0.15298 0.0
H1918 H 0.62798 0.62112 0.16063 0.0
H1919 H 0.61763 0.61275 0.1911 0.0
C1920 C 0.5788 0.61104 0.90988 0.0
C1921 C 0.5881 0.60912 0.90471 0.0
C1922 C 0.59677 0.60577 0.92115 0.0
C1923 C 0.59694 0.60641 0.91027 0.0
C1924 C 0.58733 0.60738 0.92622 0.0
C1925 C 0.57846 0.60996 0.92064 0.0
U1926 U 0.56652 0.62697 0.88837 0.0
O1927 O 0.55279 0.62432 0.87869 0.0
O1928 O 0.55357 0.63786 0.88887 0.0
C1929 C 0.54807 0.63258 0.8822 0.0
C1930 C 0.56958 0.6148 0.90432 0.0
C1931 C 0.53693 0.63182 0.88429 0.0
C1932 C 0.52221 0.6276 0.89519 0.0
C1933 C 0.53287 0.62722 0.89324 0.0
C1934 C 0.5197 0.63696 0.87921 0.0
C1935 C 0.51555 0.6327 0.88828 0.0
C1936 C 0.53024 0.63651 0.87726 0.0
C1937 C 0.58675 0.64124 0.87094 0.0
C1938 C 0.58455 0.65512 0.85844 0.0
C1939 C 0.60161 0.64897 0.86269 0.0
C1940 C 0.59738 0.64175 0.86944 0.0
C1941 C 0.59531 0.65585 0.85715 0.0
C1942 C 0.5803 0.64788 0.86532 0.0
C1943 C 0.58296 0.63426 0.87907 0.0
O1944 O 0.56784 0.62475 0.90517 0.0
O1945 O 0.56819 0.61133 0.89487 0.0
O1946 O 0.57833 0.62572 0.87618 0.0
O1947 O 0.5787 0.63864 0.88714 0.0
H1948 H 0.58859 0.60992 0.8964 0.0
H1949 H 0.60397 0.60502 0.90601 0.0
H1950 H 0.58684 0.60711 0.93456 0.0
H1951 H 0.57138 0.61145 0.92479 0.0
H1952 H 0.51924 0.62423 0.90223 0.0
H1953 H 0.53792 0.62356 0.89879 0.0
H1954 H 0.51479 0.64075 0.87363 0.0
H1955 H 0.53321 0.64008 0.87031 0.0
H1956 H 0.57945 0.66023 0.85427 0.0
H1957 H 0.60991 0.6494 0.86218 0.0
H1958 H 0.60249 0.63677 0.87378 0.0
H1959 H 0.57205 0.64761 0.8664 0.0
C1960 C 0.6425 0.34734 0.15968 0.0
C1961 C 0.63704 0.35656 0.15817 0.0
C1962 C 0.64608 0.3645 0.17261 0.0
C1963 C 0.63879 0.36505 0.16458 0.0
C1964 C 0.65194 0.35542 0.17368 0.0
C1965 C 0.65012 0.3469 0.16729 0.0
U1966 U 0.62695 0.33476 0.13857 0.0
O1967 O 0.62952 0.32121 0.12861 0.0
O1968 O 0.61629 0.32167 0.13919 0.0
C1969 C 0.62144 0.31634 0.13228 0.0
C1970 C 0.6395 0.33792 0.15408 0.0
C1971 C 0.6225 0.30528 0.13438 0.0
C1972 C 0.62888 0.29074 0.14434 0.0
C1973 C 0.62867 0.30139 0.14238 0.0
C1974 C 0.61682 0.28796 0.13034 0.0
C1975 C 0.62282 0.28395 0.13841 0.0
C1976 C 0.61666 0.29851 0.12836 0.0
C1977 C 0.61039 0.35272 0.12183 0.0
C1978 C 0.59265 0.35092 0.11616 0.0
C1979 C 0.60316 0.36491 0.10967 0.0
C1980 C 0.61152 0.36127 0.11534 0.0
C1981 C 0.59346 0.36016 0.11055 0.0
C1982 C 0.60108 0.3472 0.12175 0.0
C1983 C 0.61837 0.3507 0.12963 0.0
O1984 O 0.62979 0.33539 0.15523 0.0
O1985 O 0.64269 0.33718 0.14447 0.0
O1986 O 0.62706 0.34666 0.12636 0.0
O1987 O 0.6151 0.34674 0.13837 0.0
H1988 H 0.6311 0.35703 0.15232 0.0
H1989 H 0.63404 0.37184 0.16357 0.0
H1990 H 0.65774 0.35479 0.17964 0.0
H1991 H 0.65443 0.33985 0.16854 0.0
H1992 H 0.6336 0.28784 0.15059 0.0
H1993 H 0.63319 0.30657 0.14712 0.0
H1994 H 0.61226 0.28292 0.12549 0.0
H1995 H 0.61187 0.3014 0.12216 0.0
H1996 H 0.58531 0.34706 0.11698 0.0
H1997 H 0.60409 0.37191 0.1052 0.0
H1998 H 0.61867 0.36555 0.1152 0.0
H1999 H 0.60008 0.34045 0.12659 0.0
C2000 C 0.94482 0.38193 0.43612 0.0
C2001 C 0.93554 0.37879 0.43157 0.0
C2002 C 0.92641 0.39291 0.44001 0.0
C2003 C 0.92644 0.3842 0.43349 0.0
C2004 C 0.93568 0.39585 0.44479 0.0
C2005 C 0.94481 0.39042 0.44283 0.0
U2006 U 0.95777 0.36022 0.42203 0.0
O2007 O 0.97122 0.35962 0.41177 0.0
O2008 O 0.97079 0.34991 0.4257 0.0
C2009 C 0.97596 0.35268 0.41743 0.0
C2010 C 0.9545 0.37657 0.43351 0.0
C2011 C 0.98724 0.35351 0.41817 0.0
C2012 C 1.0031 0.36229 0.42297 0.0
C2013 C 0.9923 0.36155 0.42336 0.0
C2014 C 1.00371 0.34692 0.41235 0.0
C2015 C 0.00896 0.35502 0.41733 0.0
C2016 C 0.99304 0.34616 0.41282 0.0
C2017 C 0.938 0.34305 0.40723 0.0
C2018 C 0.93862 0.33424 0.39064 0.0
C2019 C 0.9237 0.33242 0.40171 0.0
C2020 C 0.92837 0.33862 0.40914 0.0
C2021 C 0.92862 0.33049 0.39227 0.0
C2022 C 0.9433 0.34053 0.3981 0.0
C2023 C 0.94141 0.35137 0.41416 0.0
O2024 O 0.95552 0.36724 0.43737 0.0
O2025 O 0.95709 0.37709 0.42371 0.0
O2026 O 0.94615 0.3592 0.40982 0.0
O2027 O 0.94532 0.34869 0.42312 0.0
H2028 H 0.93536 0.37221 0.4264 0.0
H2029 H 0.91942 0.38158 0.42984 0.0
H2030 H 0.93596 0.40253 0.4498 0.0
H2031 H 0.9519 0.39296 0.44641 0.0
H2032 H 0.00684 0.36858 0.42699 0.0
H2033 H 0.98793 0.36732 0.42752 0.0
H2034 H 0.00779 0.34131 0.4077 0.0
H2035 H 0.98927 0.33995 0.4087 0.0
H2036 H 0.94248 0.3329 0.38336 0.0
H2037 H 0.91597 0.32963 0.40307 0.0
H2038 H 0.92415 0.3405 0.4161 0.0
H2039 H 0.95075 0.34389 0.39648 0.0
C2040 C 0.86673 0.67392 0.66776 0.0
C2041 C 0.87197 0.66469 0.66564 0.0
C2042 C 0.8635 0.65631 0.68017 0.0
C2043 C 0.8704 0.65598 0.67179 0.0
C2044 C 0.85786 0.66544 0.68189 0.0
C2045 C 0.85951 0.67418 0.67576 0.0
U2046 U 0.8817 0.68671 0.6465 0.0
O2047 O 0.87884 0.70018 0.63654 0.0
O2048 O 0.89231 0.69986 0.64683 0.0
C2049 C 0.887 0.7051 0.63998 0.0
C2050 C 0.86953 0.68346 0.66228 0.0
C2051 C 0.886 0.71619 0.64192 0.0
C2052 C 0.87932 0.73097 0.65133 0.0
C2053 C 0.87962 0.72027 0.64965 0.0
C2054 C 0.89177 0.73341 0.63761 0.0
C2055 C 0.88551 0.73762 0.64537 0.0
C2056 C 0.89201 0.72281 0.63592 0.0
C2057 C 0.89777 0.66862 0.62935 0.0
C2058 C 0.91539 0.66997 0.6232 0.0
C2059 C 0.90428 0.6564 0.61681 0.0
C2060 C 0.8962 0.6602 0.62277 0.0
C2061 C 0.91413 0.66084 0.61747 0.0
C2062 C 0.90724 0.67386 0.62909 0.0
C2063 C 0.89006 0.67074 0.63739 0.0
O2064 O 0.87925 0.68603 0.66323 0.0
O2065 O 0.8661 0.68431 0.65276 0.0
O2066 O 0.88127 0.67474 0.63436 0.0
O2067 O 0.8936 0.67478 0.64598 0.0
H2068 H 0.8776 0.66435 0.65948 0.0
H2069 H 0.87498 0.64917 0.67028 0.0
H2070 H 0.85235 0.66591 0.68814 0.0
H2071 H 0.85537 0.68123 0.67748 0.0
H2072 H 0.8744 0.73403 0.65734 0.0
H2073 H 0.87495 0.71521 0.65438 0.0
H2074 H 0.89642 0.73833 0.63273 0.0
H2075 H 0.89695 0.71978 0.62991 0.0
H2076 H 0.92286 0.6736 0.62385 0.0
H2077 H 0.90302 0.64949 0.61227 0.0
H2078 H 0.88893 0.65613 0.62277 0.0
H2079 H 0.90858 0.68049 0.63399 0.0
C2080 C 0.57865 0.40018 0.60147 0.0
C2081 C 0.58793 0.40218 0.60661 0.0
C2082 C 0.59653 0.40562 0.59016 0.0
C2083 C 0.59673 0.40498 0.60104 0.0
C2084 C 0.5871 0.40391 0.5851 0.0
C2085 C 0.57827 0.40125 0.5907 0.0
U2086 U 0.56648 0.38416 0.62297 0.0
O2087 O 0.55279 0.38682 0.6327 0.0
O2088 O 0.55351 0.3733 0.62247 0.0
C2089 C 0.54803 0.3786 0.62914 0.0
C2090 C 0.56947 0.39637 0.60705 0.0
C2091 C 0.53693 0.3795 0.62697 0.0
C2092 C 0.52234 0.38414 0.61607 0.0
C2093 C 0.53298 0.38433 0.61809 0.0
C2094 C 0.51961 0.37448 0.63183 0.0
C2095 C 0.51557 0.37899 0.62284 0.0
C2096 C 0.53014 0.37473 0.63385 0.0
C2097 C 0.58673 0.36982 0.64034 0.0
C2098 C 0.58454 0.356 0.6529 0.0
C2099 C 0.60161 0.36205 0.64852 0.0
C2100 C 0.59736 0.36926 0.64177 0.0
C2101 C 0.5953 0.35523 0.65413 0.0
C2102 C 0.58028 0.36324 0.64603 0.0
C2103 C 0.58292 0.37682 0.63223 0.0
O2104 O 0.56776 0.38642 0.60617 0.0
O2105 O 0.56811 0.39981 0.61651 0.0
O2106 O 0.57832 0.38537 0.63513 0.0
O2107 O 0.57865 0.37246 0.62415 0.0
H2108 H 0.58845 0.40139 0.61492 0.0
H2109 H 0.60374 0.40646 0.6053 0.0
H2110 H 0.58659 0.40416 0.57677 0.0
H2111 H 0.5712 0.39971 0.58657 0.0
H2112 H 0.51945 0.38771 0.60909 0.0
H2113 H 0.53812 0.38805 0.61267 0.0
H2114 H 0.51462 0.37064 0.63731 0.0
H2115 H 0.53301 0.37098 0.64075 0.0
H2116 H 0.57944 0.35093 0.65713 0.0
H2117 H 0.6099 0.36158 0.64898 0.0
H2118 H 0.60247 0.37419 0.63738 0.0
H2119 H 0.57202 0.36356 0.64499 0.0
C2120 C 0.86673 0.33721 0.84354 0.0
C2121 C 0.87197 0.34644 0.84566 0.0
C2122 C 0.8635 0.35482 0.83112 0.0
C2123 C 0.8704 0.35514 0.8395 0.0
C2124 C 0.85787 0.34569 0.8294 0.0
C2125 C 0.85951 0.33695 0.83554 0.0
U2126 U 0.8817 0.32442 0.86481 0.0
O2127 O 0.87885 0.31095 0.87477 0.0
O2128 O 0.89231 0.31126 0.86447 0.0
C2129 C 0.887 0.30602 0.87132 0.0
C2130 C 0.86953 0.32767 0.84903 0.0
C2131 C 0.88599 0.29493 0.86939 0.0
C2132 C 0.87931 0.28016 0.85997 0.0
C2133 C 0.87961 0.29086 0.86166 0.0
C2134 C 0.89176 0.27771 0.87369 0.0
C2135 C 0.88549 0.2735 0.86593 0.0
C2136 C 0.892 0.2883 0.87538 0.0
C2137 C 0.89777 0.3425 0.88195 0.0
C2138 C 0.91539 0.34115 0.8881 0.0
C2139 C 0.90428 0.35473 0.89449 0.0
C2140 C 0.8962 0.35092 0.88853 0.0
C2141 C 0.91413 0.35028 0.89383 0.0
C2142 C 0.90725 0.33726 0.88221 0.0
C2143 C 0.89006 0.34038 0.87391 0.0
O2144 O 0.87925 0.32509 0.84808 0.0
O2145 O 0.8661 0.32682 0.85854 0.0
O2146 O 0.88127 0.33639 0.87694 0.0
O2147 O 0.8936 0.33633 0.86532 0.0
H2148 H 0.8776 0.34677 0.85182 0.0
H2149 H 0.87498 0.36196 0.84102 0.0
H2150 H 0.85236 0.34522 0.82315 0.0
H2151 H 0.85537 0.3299 0.83382 0.0
H2152 H 0.87438 0.2771 0.85397 0.0
H2153 H 0.87494 0.29593 0.85693 0.0
H2154 H 0.89641 0.27279 0.87857 0.0
H2155 H 0.89695 0.29133 0.88139 0.0
H2156 H 0.92287 0.33752 0.88745 0.0
H2157 H 0.90301 0.36164 0.89903 0.0
H2158 H 0.88892 0.355 0.88853 0.0
H2159 H 0.90859 0.33062 0.87731 0.0
C2160 C 0.94488 0.62913 0.07508 0.0
C2161 C 0.9356 0.63228 0.07962 0.0
C2162 C 0.92647 0.61815 0.07119 0.0
C2163 C 0.9265 0.62686 0.0777 0.0
C2164 C 0.93575 0.61519 0.06643 0.0
C2165 C 0.94488 0.62063 0.06839 0.0
U2166 U 0.95782 0.65086 0.08914 0.0
O2167 O 0.97126 0.65146 0.09941 0.0
O2168 O 0.97085 0.66116 0.08546 0.0
C2169 C 0.97601 0.65839 0.09374 0.0
C2170 C 0.95456 0.63449 0.07769 0.0
C2171 C 0.98729 0.65757 0.09302 0.0
C2172 C 1.00317 0.64881 0.08824 0.0
C2173 C 0.99237 0.64953 0.08783 0.0
C2174 C 1.00374 0.66416 0.09889 0.0
C2175 C 0.00901 0.65607 0.0939 0.0
C2176 C 0.99307 0.66491 0.0984 0.0
C2177 C 0.93805 0.66806 0.10394 0.0
C2178 C 0.93856 0.67674 0.1206 0.0
C2179 C 0.92377 0.67875 0.10941 0.0
C2180 C 0.92847 0.67258 0.10198 0.0
C2181 C 0.9286 0.68057 0.11892 0.0
C2182 C 0.94328 0.67048 0.11314 0.0
C2183 C 0.94146 0.65974 0.09701 0.0
O2184 O 0.95557 0.64382 0.07381 0.0
O2185 O 0.95714 0.63399 0.08748 0.0
O2186 O 0.94619 0.6519 0.10134 0.0
O2187 O 0.94538 0.66241 0.08805 0.0
H2188 H 0.93541 0.63887 0.08478 0.0
H2189 H 0.91947 0.62949 0.08134 0.0
H2190 H 0.93603 0.6085 0.06143 0.0
H2191 H 0.95197 0.61808 0.06481 0.0
H2192 H 0.00692 0.64253 0.08422 0.0
H2193 H 0.98802 0.64377 0.08365 0.0
H2194 H 0.00781 0.66976 0.10355 0.0
H2195 H 0.98928 0.67111 0.10252 0.0
H2196 H 0.94236 0.67799 0.12794 0.0
H2197 H 0.91605 0.68159 0.108 0.0
H2198 H 0.92431 0.67078 0.09496 0.0
H2199 H 0.95069 0.66706 0.11481 0.0
C2200 C 0.64254 0.66368 0.35204 0.0
C2201 C 0.63703 0.65451 0.35364 0.0
C2202 C 0.64602 0.64635 0.33929 0.0
C2203 C 0.63872 0.64594 0.34731 0.0
C2204 C 0.65197 0.65537 0.33816 0.0
C2205 C 0.6502 0.66397 0.34445 0.0
U2206 U 0.62694 0.67643 0.37293 0.0
O2207 O 0.62944 0.69 0.38287 0.0
O2208 O 0.61627 0.68951 0.37221 0.0
C2209 C 0.62138 0.69486 0.37913 0.0
C2210 C 0.63957 0.67317 0.35752 0.0
C2211 C 0.62245 0.70591 0.37701 0.0
C2212 C 0.62885 0.72041 0.367 0.0
C2213 C 0.62863 0.70976 0.369 0.0
C2214 C 0.61679 0.72325 0.38099 0.0
C2215 C 0.6228 0.72723 0.37292 0.0
C2216 C 0.61663 0.71271 0.383 0.0
C2217 C 0.61035 0.65844 0.38961 0.0
C2218 C 0.5926 0.66021 0.39522 0.0
C2219 C 0.60311 0.6462 0.4017 0.0
C2220 C 0.61148 0.64987 0.39607 0.0
C2221 C 0.59341 0.65095 0.40081 0.0
C2222 C 0.60103 0.66395 0.38967 0.0
C2223 C 0.61835 0.66048 0.38184 0.0
O2224 O 0.62988 0.67575 0.35629 0.0
O2225 O 0.64272 0.67399 0.36713 0.0
O2226 O 0.62701 0.66455 0.38516 0.0
O2227 O 0.61511 0.66444 0.3731 0.0
H2228 H 0.63107 0.65414 0.35948 0.0
H2229 H 0.6339 0.63921 0.34837 0.0
H2230 H 0.65779 0.65589 0.33221 0.0
H2231 H 0.65456 0.67097 0.34315 0.0
H2232 H 0.63357 0.72329 0.36075 0.0
H2233 H 0.63314 0.70457 0.36427 0.0
H2234 H 0.61225 0.72831 0.38584 0.0
H2235 H 0.61184 0.70984 0.38922 0.0
H2236 H 0.58525 0.66407 0.3944 0.0
H2237 H 0.60403 0.63918 0.40615 0.0
H2238 H 0.61863 0.64559 0.39622 0.0
H2239 H 0.60004 0.67071 0.38485 0.0
C2240 C 0.95098 0.56463 0.64567 0.0
C2241 C 0.9467 0.57394 0.64912 0.0
C2242 C 0.95594 0.58331 0.63574 0.0
C2243 C 0.94916 0.5832 0.64421 0.0
C2244 C 0.96065 0.57404 0.63266 0.0
C2245 C 0.95814 0.56475 0.63758 0.0
U2246 U 0.93436 0.55025 0.66474 0.0
O2247 O 0.92354 0.5375 0.66246 0.0
O2248 O 0.93672 0.53547 0.67287 0.0
C2249 C 0.9289 0.53107 0.66816 0.0
C2250 C 0.94734 0.55478 0.64992 0.0
C2251 C 0.93079 0.52091 0.66346 0.0
C2252 C 0.93448 0.51029 0.64842 0.0
C2253 C 0.9343 0.51997 0.65325 0.0
C2254 C 0.92822 0.50239 0.66415 0.0
C2255 C 0.93117 0.50142 0.65373 0.0
C2256 C 0.92803 0.51204 0.66894 0.0
C2257 C 0.91868 0.56829 0.68318 0.0
C2258 C 0.90114 0.56773 0.68972 0.0
C2259 C 0.91276 0.58119 0.69543 0.0
C2260 C 0.92057 0.57699 0.68934 0.0
C2261 C 0.90291 0.57679 0.69541 0.0
C2262 C 0.90901 0.56344 0.6837 0.0
C2263 C 0.92633 0.56562 0.67522 0.0
O2264 O 0.95027 0.5527 0.6594 0.0
O2265 O 0.93753 0.55297 0.64833 0.0
O2266 O 0.92268 0.56233 0.66634 0.0
O2267 O 0.93472 0.56079 0.67818 0.0
H2268 H 0.94117 0.574 0.65538 0.0
H2269 H 0.94551 0.59024 0.64683 0.0
H2270 H 0.96584 0.5739 0.62613 0.0
H2271 H 0.96151 0.55762 0.63482 0.0
H2272 H 0.93695 0.5098 0.64045 0.0
H2273 H 0.93651 0.52676 0.6489 0.0
H2274 H 0.92549 0.49577 0.66846 0.0
H2275 H 0.92527 0.51262 0.67681 0.0
H2276 H 0.89356 0.56427 0.68959 0.0
H2277 H 0.91423 0.58827 0.69963 0.0
H2278 H 0.92791 0.58091 0.68896 0.0
H2279 H 0.90738 0.55672 0.67901 0.0
C2280 C 0.69115 0.68644 0.88013 0.0
C2281 C 0.68202 0.68136 0.88276 0.0
C2282 C 0.6732 0.68995 0.86852 0.0
C2283 C 0.67308 0.68312 0.877 0.0
C2284 C 0.68236 0.69514 0.8661 0.0
C2285 C 0.69124 0.69339 0.87186 0.0
U2286 U 0.70952 0.67395 0.9005 0.0
O2287 O 0.72485 0.66838 0.89635 0.0
O2288 O 0.72331 0.68145 0.90727 0.0
C2289 C 0.72948 0.67556 0.90179 0.0
C2290 C 0.70088 0.68429 0.88538 0.0
C2291 C 0.74022 0.6739 0.90476 0.0
C2292 C 0.75801 0.67848 0.90148 0.0
C2293 C 0.74755 0.68072 0.90075 0.0
C2294 C 0.75396 0.6628 0.91083 0.0
C2295 C 0.76133 0.66937 0.9063 0.0
C2296 C 0.74344 0.66501 0.90999 0.0
C2297 C 0.69249 0.65547 0.91938 0.0
C2298 C 0.6899 0.63906 0.92812 0.0
C2299 C 0.67617 0.65169 0.92766 0.0
C2300 C 0.68252 0.65848 0.92221 0.0
C2301 C 0.67974 0.64185 0.93052 0.0
C2302 C 0.69619 0.64578 0.92249 0.0
C2303 C 0.69869 0.66209 0.91256 0.0
O2304 O 0.70204 0.68808 0.89471 0.0
O2305 O 0.70447 0.67487 0.88436 0.0
O2306 O 0.703 0.6586 0.90408 0.0
O2307 O 0.70021 0.67193 0.9146 0.0
H2308 H 0.68185 0.67596 0.88914 0.0
H2309 H 0.6661 0.67912 0.87916 0.0
H2310 H 0.68276 0.70033 0.85956 0.0
H2311 H 0.69828 0.69732 0.8697 0.0
H2312 H 0.76348 0.68374 0.89802 0.0
H2313 H 0.74516 0.68756 0.89658 0.0
H2314 H 0.75629 0.65569 0.91455 0.0
H2315 H 0.73786 0.6596 0.91302 0.0
H2316 H 0.6928 0.6315 0.93017 0.0
H2317 H 0.66837 0.65403 0.92943 0.0
H2318 H 0.67951 0.66591 0.91985 0.0
H2319 H 0.70387 0.64333 0.92037 0.0
C2320 C 0.55437 0.45351 0.14386 0.0
C2321 C 0.55885 0.44415 0.1469 0.0
C2322 C 0.54956 0.43513 0.13331 0.0
C2323 C 0.55646 0.43504 0.14168 0.0
C2324 C 0.54466 0.44442 0.13064 0.0
C2325 C 0.54709 0.45357 0.13587 0.0
U2326 U 0.57122 0.46744 0.16308 0.0
O2327 O 0.58163 0.48059 0.16113 0.0
O2328 O 0.56874 0.48172 0.17204 0.0
C2329 C 0.57632 0.48655 0.16737 0.0
C2330 C 0.55791 0.46326 0.14844 0.0
C2331 C 0.57413 0.49696 0.1634 0.0
C2332 C 0.56996 0.50848 0.14918 0.0
C2333 C 0.57037 0.49851 0.15336 0.0
C2334 C 0.5765 0.51543 0.16524 0.0
C2335 C 0.57333 0.51703 0.15498 0.0
C2336 C 0.57689 0.5055 0.16939 0.0
C2337 C 0.58786 0.44909 0.18024 0.0
C2338 C 0.60534 0.45044 0.18681 0.0
C2339 C 0.5947 0.43587 0.19161 0.0
C2340 C 0.58661 0.43989 0.18579 0.0
C2341 C 0.60421 0.44095 0.19191 0.0
C2342 C 0.59717 0.45455 0.18106 0.0
C2343 C 0.57994 0.45182 0.17258 0.0
O2344 O 0.55522 0.46485 0.15809 0.0
O2345 O 0.56762 0.46538 0.14665 0.0
O2346 O 0.58326 0.45563 0.16379 0.0
O2347 O 0.57149 0.45626 0.17596 0.0
H2348 H 0.56446 0.44396 0.15308 0.0
H2349 H 0.56026 0.42797 0.14398 0.0
H2350 H 0.53938 0.44471 0.12419 0.0
H2351 H 0.54358 0.46074 0.13343 0.0
H2352 H 0.56732 0.50944 0.14131 0.0
H2353 H 0.56814 0.49199 0.14862 0.0
H2354 H 0.57928 0.52178 0.16992 0.0
H2355 H 0.57984 0.50444 0.17715 0.0
H2356 H 0.61266 0.45444 0.18693 0.0
H2357 H 0.59374 0.42845 0.19535 0.0
H2358 H 0.57954 0.43551 0.18516 0.0
H2359 H 0.5983 0.46167 0.17684 0.0
C2360 C 0.82913 0.35072 0.36129 0.0
C2361 C 0.83844 0.3558 0.35922 0.0
C2362 C 0.84697 0.33926 0.3559 0.0
C2363 C 0.84721 0.35016 0.35644 0.0
C2364 C 0.83752 0.33428 0.35768 0.0
C2365 C 0.82872 0.33994 0.36031 0.0
U2366 U 0.81684 0.37243 0.37706 0.0
O2367 O 0.80314 0.3821 0.3742 0.0
O2368 O 0.80378 0.37202 0.38782 0.0
C2369 C 0.79833 0.37864 0.38243 0.0
C2370 C 0.81996 0.35639 0.36502 0.0
C2371 C 0.78721 0.37654 0.38156 0.0
C2372 C 0.77251 0.36577 0.37695 0.0
C2373 C 0.78318 0.3677 0.37673 0.0
C2374 C 0.76993 0.38156 0.38661 0.0
C2375 C 0.7658 0.3726 0.38211 0.0
C2376 C 0.78048 0.38349 0.38633 0.0
C2377 C 0.83725 0.38987 0.39132 0.0
C2378 C 0.83557 0.4023 0.40536 0.0
C2379 C 0.85242 0.39782 0.39878 0.0
C2380 C 0.84791 0.39122 0.3916 0.0
C2381 C 0.84637 0.4034 0.40587 0.0
C2382 C 0.83104 0.39555 0.39814 0.0
C2383 C 0.83324 0.38176 0.38442 0.0
O2384 O 0.81818 0.35562 0.37497 0.0
O2385 O 0.81863 0.36581 0.36148 0.0
O2386 O 0.82867 0.38462 0.37583 0.0
O2387 O 0.8289 0.37376 0.38886 0.0
H2388 H 0.83899 0.36411 0.35992 0.0
H2389 H 0.85423 0.35437 0.3549 0.0
H2390 H 0.83697 0.32595 0.35749 0.0
H2391 H 0.82162 0.33586 0.3619 0.0
H2392 H 0.76956 0.35881 0.37339 0.0
H2393 H 0.78826 0.36222 0.373 0.0
H2394 H 0.76499 0.38709 0.39045 0.0
H2395 H 0.78342 0.39037 0.39007 0.0
H2396 H 0.83065 0.40651 0.41061 0.0
H2397 H 0.86073 0.39815 0.39903 0.0
H2398 H 0.85284 0.38683 0.38647 0.0
H2399 H 0.82277 0.39459 0.39806 0.0
C2400 C 0.95098 0.44648 0.86563 0.0
C2401 C 0.94669 0.43718 0.86217 0.0
C2402 C 0.95593 0.42781 0.87556 0.0
C2403 C 0.94915 0.42792 0.86709 0.0
C2404 C 0.96063 0.43707 0.87864 0.0
C2405 C 0.95813 0.44637 0.87372 0.0
U2406 U 0.93436 0.46087 0.84655 0.0
O2407 O 0.92353 0.47362 0.84882 0.0
O2408 O 0.93671 0.47565 0.83841 0.0
C2409 C 0.92889 0.48005 0.84312 0.0
C2410 C 0.94734 0.45633 0.86137 0.0
C2411 C 0.93078 0.49021 0.84783 0.0
C2412 C 0.93449 0.50081 0.86287 0.0
C2413 C 0.9343 0.49114 0.85804 0.0
C2414 C 0.92821 0.50873 0.84715 0.0
C2415 C 0.93118 0.50969 0.85756 0.0
C2416 C 0.92802 0.49908 0.84235 0.0
C2417 C 0.91867 0.44282 0.82811 0.0
C2418 C 0.90113 0.44338 0.82157 0.0
C2419 C 0.91276 0.42993 0.81587 0.0
C2420 C 0.92056 0.43412 0.82196 0.0
C2421 C 0.90291 0.43432 0.81589 0.0
C2422 C 0.909 0.44767 0.8276 0.0
C2423 C 0.92632 0.4455 0.83608 0.0
O2424 O 0.95027 0.45841 0.85189 0.0
O2425 O 0.93752 0.45815 0.86296 0.0
O2426 O 0.92268 0.4488 0.84495 0.0
O2427 O 0.93471 0.45033 0.83312 0.0
H2428 H 0.94117 0.43713 0.85591 0.0
H2429 H 0.94551 0.42088 0.86446 0.0
H2430 H 0.96583 0.43721 0.88517 0.0
H2431 H 0.96149 0.4535 0.87648 0.0
H2432 H 0.93696 0.5013 0.87084 0.0
H2433 H 0.93651 0.48435 0.86238 0.0
H2434 H 0.92549 0.51535 0.84284 0.0
H2435 H 0.92526 0.4985 0.83448 0.0
H2436 H 0.89355 0.44684 0.8217 0.0
H2437 H 0.91423 0.42284 0.81167 0.0
H2438 H 0.92791 0.4302 0.82234 0.0
H2439 H 0.90737 0.4544 0.83228 0.0
C2440 C 0.82893 0.65976 0.15013 0.0
C2441 C 0.83824 0.65461 0.15204 0.0
C2442 C 0.84686 0.67106 0.15549 0.0
C2443 C 0.84706 0.66018 0.1548 0.0
C2444 C 0.83741 0.67611 0.15387 0.0
C2445 C 0.82856 0.67052 0.15125 0.0
U2446 U 0.81664 0.63824 0.1342 0.0
O2447 O 0.8029 0.62857 0.13687 0.0
O2448 O 0.80366 0.63875 0.12333 0.0
C2449 C 0.79816 0.6321 0.12863 0.0
C2450 C 0.81972 0.65418 0.14637 0.0
C2451 C 0.78702 0.6342 0.12941 0.0
C2452 C 0.7723 0.64509 0.13367 0.0
C2453 C 0.78296 0.64314 0.13403 0.0
C2454 C 0.76978 0.62914 0.12427 0.0
C2455 C 0.76563 0.63819 0.12855 0.0
C2456 C 0.78032 0.62718 0.1247 0.0
C2457 C 0.8372 0.62095 0.11997 0.0
C2458 C 0.83562 0.60849 0.10595 0.0
C2459 C 0.85243 0.61317 0.11246 0.0
C2460 C 0.84787 0.61972 0.11965 0.0
C2461 C 0.84642 0.60752 0.1054 0.0
C2462 C 0.83103 0.61519 0.11317 0.0
C2463 C 0.83311 0.62898 0.1269 0.0
O2464 O 0.81797 0.65503 0.13642 0.0
O2465 O 0.81834 0.64474 0.14984 0.0
O2466 O 0.82846 0.62604 0.13542 0.0
O2467 O 0.8288 0.63701 0.12249 0.0
H2468 H 0.83876 0.64631 0.15121 0.0
H2469 H 0.85409 0.65593 0.15619 0.0
H2470 H 0.8369 0.68444 0.15417 0.0
H2471 H 0.82147 0.67465 0.14978 0.0
H2472 H 0.76933 0.65212 0.13706 0.0
H2473 H 0.78802 0.64867 0.13771 0.0
H2474 H 0.76487 0.62356 0.12046 0.0
H2475 H 0.78328 0.62023 0.12111 0.0
H2476 H 0.83072 0.60422 0.10071 0.0
H2477 H 0.86074 0.61293 0.11218 0.0
H2478 H 0.85277 0.62417 0.12476 0.0
H2479 H 0.82275 0.61606 0.11329 0.0
C2480 C 0.55413 0.55741 0.36769 0.0
C2481 C 0.55861 0.56674 0.36456 0.0
C2482 C 0.54939 0.57588 0.37813 0.0
C2483 C 0.55625 0.57589 0.36973 0.0
C2484 C 0.54449 0.56661 0.38088 0.0
C2485 C 0.54689 0.55742 0.37571 0.0
U2486 U 0.57099 0.54337 0.34857 0.0
O2487 O 0.5815 0.53032 0.35063 0.0
O2488 O 0.56859 0.52897 0.33977 0.0
C2489 C 0.57623 0.52425 0.34446 0.0
C2490 C 0.55768 0.54763 0.36319 0.0
C2491 C 0.57416 0.51386 0.34853 0.0
C2492 C 0.57037 0.50242 0.36292 0.0
C2493 C 0.57059 0.51235 0.35865 0.0
C2494 C 0.57669 0.4954 0.34679 0.0
C2495 C 0.57372 0.49385 0.35712 0.0
C2496 C 0.5769 0.5053 0.34255 0.0
C2497 C 0.58759 0.56163 0.33129 0.0
C2498 C 0.60514 0.56035 0.32486 0.0
C2499 C 0.5944 0.57478 0.31981 0.0
C2500 C 0.5863 0.57075 0.32561 0.0
C2501 C 0.60397 0.56978 0.31964 0.0
C2502 C 0.59696 0.55624 0.33059 0.0
C2503 C 0.57965 0.55894 0.33894 0.0
O2504 O 0.55498 0.54596 0.35355 0.0
O2505 O 0.5674 0.54553 0.36498 0.0
O2506 O 0.58296 0.55524 0.34778 0.0
O2507 O 0.57124 0.55443 0.33558 0.0
H2508 H 0.5642 0.56688 0.35836 0.0
H2509 H 0.56005 0.58294 0.36736 0.0
H2510 H 0.53923 0.56637 0.38736 0.0
H2511 H 0.54338 0.55027 0.37822 0.0
H2512 H 0.56788 0.50148 0.37084 0.0
H2513 H 0.56839 0.51889 0.36338 0.0
H2514 H 0.57944 0.48904 0.34211 0.0
H2515 H 0.5797 0.50632 0.33474 0.0
H2516 H 0.61249 0.55642 0.32485 0.0
H2517 H 0.59341 0.58214 0.31598 0.0
H2518 H 0.57919 0.57509 0.32614 0.0
H2519 H 0.59812 0.54918 0.33491 0.0
C2520 C 0.69111 0.32492 0.63099 0.0
C2521 C 0.68196 0.32999 0.6284 0.0
C2522 C 0.67319 0.32133 0.64262 0.0
C2523 C 0.67304 0.32818 0.63417 0.0
C2524 C 0.68237 0.31614 0.645 0.0
C2525 C 0.69124 0.31794 0.63923 0.0
U2526 U 0.70932 0.3375 0.61058 0.0
O2527 O 0.72462 0.34328 0.61459 0.0
O2528 O 0.72315 0.33011 0.60375 0.0
C2529 C 0.72928 0.33612 0.60916 0.0
C2530 C 0.70083 0.32713 0.62575 0.0
C2531 C 0.74007 0.33765 0.60636 0.0
C2532 C 0.75779 0.33295 0.6099 0.0
C2533 C 0.7473 0.33082 0.61056 0.0
C2534 C 0.75397 0.34852 0.60026 0.0
C2535 C 0.76124 0.34195 0.60496 0.0
C2536 C 0.74343 0.34643 0.60103 0.0
C2537 C 0.69214 0.35585 0.59174 0.0
C2538 C 0.68955 0.37225 0.58298 0.0
C2539 C 0.67579 0.35966 0.58355 0.0
C2540 C 0.68216 0.35286 0.58897 0.0
C2541 C 0.67938 0.36947 0.58066 0.0
C2542 C 0.69585 0.36552 0.5886 0.0
C2543 C 0.69833 0.34922 0.59853 0.0
O2544 O 0.70202 0.32332 0.61642 0.0
O2545 O 0.70435 0.33657 0.62673 0.0
O2546 O 0.70264 0.35276 0.607 0.0
O2547 O 0.69993 0.3394 0.59649 0.0
H2548 H 0.68176 0.33542 0.62204 0.0
H2549 H 0.66604 0.33218 0.63204 0.0
H2550 H 0.6828 0.31093 0.65152 0.0
H2551 H 0.6983 0.31402 0.64136 0.0
H2552 H 0.76318 0.32769 0.61348 0.0
H2553 H 0.74481 0.32407 0.61481 0.0
H2554 H 0.7564 0.35555 0.59645 0.0
H2555 H 0.73793 0.35184 0.59786 0.0
H2556 H 0.69246 0.3798 0.58089 0.0
H2557 H 0.66797 0.35735 0.58183 0.0
H2558 H 0.67914 0.34545 0.59137 0.0
H2559 H 0.70355 0.36795 0.59067 0.0
C2560 C 0.61672 0.91766 0.5873 0.0
C2561 C 0.62196 0.91555 0.59653 0.0
C2562 C 0.61349 0.93009 0.60491 0.0
C2563 C 0.62038 0.92171 0.60524 0.0
C2564 C 0.60785 0.93181 0.59578 0.0
C2565 C 0.6095 0.92567 0.58704 0.0
U2566 U 0.6317 0.8964 0.57451 0.0
O2567 O 0.62885 0.88643 0.56103 0.0
O2568 O 0.64231 0.89672 0.56136 0.0
C2569 C 0.63701 0.88987 0.55612 0.0
C2570 C 0.61952 0.91218 0.57776 0.0
C2571 C 0.636 0.89182 0.54503 0.0
C2572 C 0.62932 0.90124 0.53026 0.0
C2573 C 0.62961 0.89955 0.54096 0.0
C2574 C 0.64177 0.88752 0.5278 0.0
C2575 C 0.6355 0.89528 0.5236 0.0
C2576 C 0.64201 0.88582 0.53839 0.0
C2577 C 0.64777 0.87925 0.59259 0.0
C2578 C 0.66539 0.8731 0.59123 0.0
C2579 C 0.65428 0.86671 0.60481 0.0
C2580 C 0.6462 0.87268 0.60101 0.0
C2581 C 0.66413 0.86737 0.60036 0.0
C2582 C 0.65724 0.87899 0.58735 0.0
C2583 C 0.64005 0.8873 0.59048 0.0
O2584 O 0.62925 0.91312 0.57519 0.0
O2585 O 0.6161 0.90266 0.57691 0.0
O2586 O 0.63127 0.88427 0.58648 0.0
O2587 O 0.64359 0.89589 0.58644 0.0
H2588 H 0.62759 0.90939 0.59687 0.0
H2589 H 0.62496 0.9202 0.61206 0.0
H2590 H 0.60234 0.93805 0.59531 0.0
H2591 H 0.60536 0.92738 0.57999 0.0
H2592 H 0.62439 0.90725 0.52721 0.0
H2593 H 0.62495 0.90427 0.54603 0.0
H2594 H 0.64642 0.88264 0.52287 0.0
H2595 H 0.64696 0.87981 0.54142 0.0
H2596 H 0.67286 0.87374 0.58761 0.0
H2597 H 0.65301 0.86218 0.61172 0.0
H2598 H 0.63892 0.87268 0.60508 0.0
H2599 H 0.65858 0.88389 0.58072 0.0
C2600 C 0.11673 0.59346 0.424 0.0
C2601 C 0.12197 0.59558 0.41476 0.0
C2602 C 0.1135 0.58104 0.40638 0.0
C2603 C 0.12039 0.58941 0.40605 0.0
C2604 C 0.10787 0.57932 0.41551 0.0
C2605 C 0.10951 0.58546 0.42425 0.0
U2606 U 0.13171 0.61473 0.43679 0.0
O2607 O 0.12885 0.62469 0.45027 0.0
O2608 O 0.14232 0.6144 0.44994 0.0
C2609 C 0.13701 0.62125 0.45519 0.0
C2610 C 0.11953 0.59895 0.43353 0.0
C2611 C 0.136 0.61931 0.46627 0.0
C2612 C 0.12932 0.60989 0.48104 0.0
C2613 C 0.12962 0.61157 0.47034 0.0
C2614 C 0.14177 0.6236 0.4835 0.0
C2615 C 0.1355 0.61584 0.4877 0.0
C2616 C 0.14201 0.6253 0.47291 0.0
C2617 C 0.14778 0.63186 0.41871 0.0
C2618 C 0.16539 0.63801 0.42007 0.0
C2619 C 0.15428 0.6444 0.40649 0.0
C2620 C 0.1462 0.63844 0.41029 0.0
C2621 C 0.16413 0.64374 0.41094 0.0
C2622 C 0.15725 0.63212 0.42395 0.0
C2623 C 0.14006 0.62382 0.42083 0.0
O2624 O 0.12926 0.598 0.43611 0.0
O2625 O 0.11611 0.60847 0.43439 0.0
O2626 O 0.13128 0.62685 0.42482 0.0
O2627 O 0.1436 0.61523 0.42487 0.0
H2628 H 0.1276 0.60173 0.41443 0.0
H2629 H 0.12497 0.59092 0.39924 0.0
H2630 H 0.10236 0.57308 0.41599 0.0
H2631 H 0.10538 0.58375 0.43131 0.0
H2632 H 0.1244 0.60388 0.48409 0.0
H2633 H 0.12495 0.60685 0.46527 0.0
H2634 H 0.14642 0.62848 0.48844 0.0
H2635 H 0.14695 0.63131 0.46989 0.0
H2636 H 0.17287 0.63736 0.4237 0.0
H2637 H 0.15302 0.64894 0.39959 0.0
H2638 H 0.13893 0.63844 0.40622 0.0
H2639 H 0.15859 0.62722 0.43059 0.0
C2640 C 0.70099 0.89559 0.69658 0.0
C2641 C 0.6967 0.89904 0.68727 0.0
C2642 C 0.70594 0.88565 0.6779 0.0
C2643 C 0.69916 0.89412 0.67802 0.0
C2644 C 0.71065 0.88257 0.68717 0.0
C2645 C 0.70814 0.88749 0.69646 0.0
U2646 U 0.68435 0.91467 0.71096 0.0
O2647 O 0.67352 0.91238 0.72371 0.0
O2648 O 0.6867 0.92279 0.72576 0.0
C2649 C 0.67888 0.91808 0.73015 0.0
C2650 C 0.69734 0.89984 0.70643 0.0
C2651 C 0.68076 0.91336 0.7403 0.0
C2652 C 0.68446 0.89831 0.75089 0.0
C2653 C 0.68427 0.90315 0.74122 0.0
C2654 C 0.6782 0.91403 0.75883 0.0
C2655 C 0.68115 0.90362 0.75977 0.0
C2656 C 0.67801 0.91883 0.74919 0.0
C2657 C 0.66867 0.9331 0.69292 0.0
C2658 C 0.65113 0.93965 0.69347 0.0
C2659 C 0.66276 0.94534 0.68003 0.0
C2660 C 0.67056 0.93925 0.68423 0.0
C2661 C 0.65291 0.94533 0.68442 0.0
C2662 C 0.659 0.93362 0.69776 0.0
C2663 C 0.67632 0.92513 0.6956 0.0
O2664 O 0.70026 0.90933 0.70852 0.0
O2665 O 0.68752 0.89826 0.70824 0.0
O2666 O 0.67267 0.91627 0.69888 0.0
O2667 O 0.6847 0.92809 0.70044 0.0
H2668 H 0.69118 0.90531 0.68722 0.0
H2669 H 0.69552 0.89675 0.67097 0.0
H2670 H 0.71584 0.87604 0.68731 0.0
H2671 H 0.7115 0.88474 0.7036 0.0
H2672 H 0.68692 0.89034 0.75136 0.0
H2673 H 0.68648 0.89881 0.73442 0.0
H2674 H 0.67548 0.91833 0.76546 0.0
H2675 H 0.67526 0.92671 0.74862 0.0
H2676 H 0.64355 0.93952 0.69693 0.0
H2677 H 0.66423 0.94954 0.67295 0.0
H2678 H 0.67791 0.93887 0.68031 0.0
H2679 H 0.65736 0.92894 0.70449 0.0
C2680 C 0.39254 0.40917 0.91377 0.0
C2681 C 0.38702 0.40757 0.9046 0.0
C2682 C 0.39601 0.42191 0.89644 0.0
C2683 C 0.38871 0.41389 0.89603 0.0
C2684 C 0.40196 0.42304 0.90546 0.0
C2685 C 0.4002 0.41675 0.91406 0.0
U2686 U 0.37695 0.38829 0.92652 0.0
O2687 O 0.37946 0.37836 0.94009 0.0
O2688 O 0.36628 0.38901 0.9396 0.0
C2689 C 0.37139 0.38209 0.94494 0.0
C2690 C 0.38957 0.4037 0.92326 0.0
C2691 C 0.37246 0.38421 0.956 0.0
C2692 C 0.37884 0.39422 0.97052 0.0
C2693 C 0.37862 0.39222 0.95987 0.0
C2694 C 0.36679 0.38023 0.97333 0.0
C2695 C 0.3728 0.3883 0.97732 0.0
C2696 C 0.36664 0.37822 0.96279 0.0
C2697 C 0.36036 0.37159 0.90853 0.0
C2698 C 0.34261 0.36598 0.9103 0.0
C2699 C 0.35311 0.35949 0.89629 0.0
C2700 C 0.36148 0.36513 0.89996 0.0
C2701 C 0.34342 0.36038 0.90104 0.0
C2702 C 0.35104 0.37154 0.91405 0.0
C2703 C 0.36836 0.37936 0.91057 0.0
O2704 O 0.37988 0.40493 0.92584 0.0
O2705 O 0.39272 0.39409 0.92408 0.0
O2706 O 0.37702 0.37606 0.91463 0.0
O2707 O 0.36511 0.38811 0.91453 0.0
H2708 H 0.38106 0.40174 0.90423 0.0
H2709 H 0.38389 0.41283 0.8893 0.0
H2710 H 0.40779 0.42898 0.90598 0.0
H2711 H 0.40456 0.41806 0.92107 0.0
H2712 H 0.38356 0.40047 0.97341 0.0
H2713 H 0.38314 0.39696 0.95468 0.0
H2714 H 0.36225 0.37538 0.97839 0.0
H2715 H 0.36185 0.372 0.95991 0.0
H2716 H 0.33527 0.3668 0.91416 0.0
H2717 H 0.35404 0.35503 0.88928 0.0
H2718 H 0.36864 0.36497 0.89568 0.0
H2719 H 0.35005 0.37636 0.92081 0.0
C2720 C 0.30443 0.61744 0.70368 0.0
C2721 C 0.3089 0.61436 0.69433 0.0
C2722 C 0.29959 0.6279 0.68525 0.0
C2723 C 0.3065 0.61953 0.6852 0.0
C2724 C 0.29469 0.6306 0.69454 0.0
C2725 C 0.29714 0.62542 0.70371 0.0
U2726 U 0.32133 0.59832 0.71766 0.0
O2727 O 0.33185 0.60037 0.7307 0.0
O2728 O 0.31894 0.58951 0.73205 0.0
C2729 C 0.32657 0.59421 0.73677 0.0
C2730 C 0.30801 0.61294 0.71344 0.0
C2731 C 0.32446 0.59833 0.74714 0.0
C2732 C 0.32051 0.61272 0.75852 0.0
C2733 C 0.32081 0.60842 0.7486 0.0
C2734 C 0.32692 0.59667 0.76562 0.0
C2735 C 0.32386 0.60699 0.76712 0.0
C2736 C 0.32722 0.5924 0.75573 0.0
C2737 C 0.33784 0.581 0.69932 0.0
C2738 C 0.35532 0.5744 0.70066 0.0
C2739 C 0.34467 0.56966 0.68606 0.0
C2740 C 0.33658 0.57548 0.69011 0.0
C2741 C 0.35418 0.56933 0.69114 0.0
C2742 C 0.34716 0.58015 0.70478 0.0
C2743 C 0.32994 0.58868 0.70206 0.0
O2744 O 0.30532 0.6033 0.71511 0.0
O2745 O 0.31774 0.61473 0.71551 0.0
O2746 O 0.33329 0.5975 0.70577 0.0
O2747 O 0.32153 0.58533 0.70659 0.0
H2748 H 0.31453 0.60819 0.69415 0.0
H2749 H 0.3103 0.61721 0.67812 0.0
H2750 H 0.2894 0.63704 0.69481 0.0
H2751 H 0.29363 0.62789 0.71088 0.0
H2752 H 0.31795 0.62063 0.75941 0.0
H2753 H 0.3186 0.61311 0.74204 0.0
H2754 H 0.32969 0.59205 0.772 0.0
H2755 H 0.33008 0.58461 0.75475 0.0
H2756 H 0.36264 0.57427 0.70465 0.0
H2757 H 0.3437 0.56595 0.67863 0.0
H2758 H 0.32952 0.57613 0.68572 0.0
H2759 H 0.3483 0.58436 0.71192 0.0
C2760 C 0.89248 0.10152 0.09745 0.0
C2761 C 0.88702 0.10304 0.10667 0.0
C2762 C 0.89604 0.0886 0.11462 0.0
C2763 C 0.88876 0.09663 0.11516 0.0
C2764 C 0.90191 0.08752 0.10555 0.0
C2765 C 0.9001 0.0939 0.09702 0.0
U2766 U 0.87695 0.12263 0.08486 0.0
O2767 O 0.87953 0.13258 0.07132 0.0
O2768 O 0.8663 0.12201 0.07176 0.0
C2769 C 0.87145 0.12891 0.06644 0.0
C2770 C 0.88949 0.10711 0.08803 0.0
C2771 C 0.87251 0.12682 0.05538 0.0
C2772 C 0.87889 0.11686 0.04083 0.0
C2773 C 0.87868 0.11883 0.05149 0.0
C2774 C 0.86683 0.13086 0.03806 0.0
C2775 C 0.87284 0.1228 0.03404 0.0
C2776 C 0.86667 0.13283 0.04861 0.0
C2777 C 0.86039 0.13938 0.10282 0.0
C2778 C 0.84265 0.14504 0.10102 0.0
C2779 C 0.85316 0.15154 0.11502 0.0
C2780 C 0.86152 0.14587 0.11137 0.0
C2781 C 0.84346 0.15066 0.11027 0.0
C2782 C 0.85107 0.13945 0.0973 0.0
C2783 C 0.86837 0.13157 0.10081 0.0
O2784 O 0.87978 0.10597 0.08549 0.0
O2785 O 0.89269 0.11672 0.08729 0.0
O2786 O 0.87706 0.13484 0.09678 0.0
O2787 O 0.8651 0.12284 0.09683 0.0
H2788 H 0.88109 0.1089 0.10714 0.0
H2789 H 0.88401 0.09765 0.12195 0.0
H2790 H 0.90771 0.08155 0.10492 0.0
H2791 H 0.90441 0.09265 0.08998 0.0
H2792 H 0.88362 0.11062 0.03792 0.0
H2793 H 0.88321 0.11408 0.05666 0.0
H2794 H 0.86227 0.13572 0.03302 0.0
H2795 H 0.86188 0.13904 0.05151 0.0
H2796 H 0.83531 0.14422 0.09716 0.0
H2797 H 0.85409 0.15602 0.12202 0.0
H2798 H 0.86868 0.14602 0.11566 0.0
H2799 H 0.85008 0.13461 0.09055 0.0
C2800 C 0.70097 0.11552 0.81473 0.0
C2801 C 0.6967 0.11207 0.82404 0.0
C2802 C 0.70593 0.12546 0.83341 0.0
C2803 C 0.69916 0.11699 0.8333 0.0
C2804 C 0.71063 0.12854 0.82414 0.0
C2805 C 0.70812 0.12361 0.81485 0.0
U2806 U 0.68434 0.09645 0.80034 0.0
O2807 O 0.67351 0.09873 0.7876 0.0
O2808 O 0.68669 0.08832 0.78555 0.0
C2809 C 0.67887 0.09303 0.78116 0.0
C2810 C 0.69732 0.11127 0.80488 0.0
C2811 C 0.68076 0.09775 0.77101 0.0
C2812 C 0.68446 0.1128 0.76042 0.0
C2813 C 0.68427 0.10796 0.77009 0.0
C2814 C 0.6782 0.09708 0.75248 0.0
C2815 C 0.68116 0.10749 0.75153 0.0
C2816 C 0.67801 0.09228 0.76212 0.0
C2817 C 0.66867 0.07802 0.81838 0.0
C2818 C 0.65113 0.07147 0.81783 0.0
C2819 C 0.66276 0.06577 0.83128 0.0
C2820 C 0.67056 0.07187 0.82708 0.0
C2821 C 0.65291 0.06578 0.82688 0.0
C2822 C 0.659 0.0775 0.81354 0.0
C2823 C 0.67631 0.08598 0.81571 0.0
O2824 O 0.70025 0.10178 0.8028 0.0
O2825 O 0.68751 0.11285 0.80307 0.0
O2826 O 0.67266 0.09485 0.81242 0.0
O2827 O 0.6847 0.08302 0.81087 0.0
H2828 H 0.69117 0.1058 0.82409 0.0
H2829 H 0.69552 0.11437 0.84035 0.0
H2830 H 0.71582 0.13507 0.824 0.0
H2831 H 0.71148 0.12637 0.80771 0.0
H2832 H 0.68692 0.12077 0.75995 0.0
H2833 H 0.68648 0.1123 0.77689 0.0
H2834 H 0.67549 0.09278 0.74585 0.0
H2835 H 0.67526 0.0844 0.76268 0.0
H2836 H 0.64355 0.0716 0.81437 0.0
H2837 H 0.66424 0.06157 0.83835 0.0
H2838 H 0.67791 0.07225 0.831 0.0
H2839 H 0.65736 0.08218 0.80682 0.0
C2840 C 0.80412 0.89351 0.30752 0.0
C2841 C 0.8086 0.89663 0.31685 0.0
C2842 C 0.79938 0.88308 0.32598 0.0
C2843 C 0.80625 0.89147 0.326 0.0
C2844 C 0.79447 0.88033 0.31672 0.0
C2845 C 0.79687 0.8855 0.30753 0.0
U2846 U 0.82096 0.91262 0.29348 0.0
O2847 O 0.83146 0.91056 0.28042 0.0
O2848 O 0.81855 0.92142 0.27909 0.0
C2849 C 0.82619 0.91673 0.27436 0.0
C2850 C 0.80766 0.89801 0.29774 0.0
C2851 C 0.82413 0.91267 0.26396 0.0
C2852 C 0.82034 0.8983 0.25249 0.0
C2853 C 0.82055 0.90255 0.26243 0.0
C2854 C 0.82667 0.91443 0.2455 0.0
C2855 C 0.8237 0.9041 0.24393 0.0
C2856 C 0.82687 0.91865 0.25541 0.0
C2857 C 0.83758 0.92992 0.31173 0.0
C2858 C 0.85513 0.93633 0.31044 0.0
C2859 C 0.8444 0.94141 0.32486 0.0
C2860 C 0.8363 0.93561 0.32085 0.0
C2861 C 0.85396 0.94156 0.31986 0.0
C2862 C 0.84694 0.9306 0.30633 0.0
C2863 C 0.82964 0.92226 0.30905 0.0
O2864 O 0.80496 0.90764 0.29607 0.0
O2865 O 0.81738 0.89621 0.29564 0.0
O2866 O 0.83294 0.91342 0.30535 0.0
O2867 O 0.82122 0.92562 0.30454 0.0
H2868 H 0.8142 0.90282 0.31699 0.0
H2869 H 0.81005 0.89383 0.33306 0.0
H2870 H 0.78921 0.87386 0.31648 0.0
H2871 H 0.79335 0.88299 0.30037 0.0
H2872 H 0.81785 0.89038 0.25154 0.0
H2873 H 0.81834 0.89782 0.26896 0.0
H2874 H 0.82943 0.9191 0.23916 0.0
H2875 H 0.82967 0.92646 0.25645 0.0
H2876 H 0.86247 0.93633 0.3065 0.0
H2877 H 0.84341 0.94525 0.33223 0.0
H2878 H 0.82919 0.93509 0.32519 0.0
H2879 H 0.8481 0.92627 0.29927 0.0
C2880 C 0.4388 0.36624 0.06592 0.0
C2881 C 0.4296 0.3608 0.06746 0.0
C2882 C 0.42051 0.37294 0.05639 0.0
C2883 C 0.42053 0.36411 0.06272 0.0
C2884 C 0.42979 0.37828 0.0548 0.0
C2885 C 0.43886 0.37495 0.05954 0.0
U2886 U 0.45204 0.34938 0.08562 0.0
O2887 O 0.46731 0.34199 0.08556 0.0
O2888 O 0.46329 0.35317 0.09766 0.0
C2889 C 0.47054 0.34749 0.09345 0.0
C2890 C 0.44825 0.36312 0.07128 0.0
C2891 C 0.48054 0.35263 0.09221 0.0
C2892 C 0.49086 0.36746 0.08717 0.0
C2893 C 0.48141 0.36226 0.08731 0.0
C2894 C 0.49869 0.35324 0.09643 0.0
C2895 C 0.49958 0.36305 0.09188 0.0
C2896 C 0.48927 0.3481 0.0966 0.0
C2897 C 0.43315 0.33037 0.09954 0.0
C2898 C 0.43353 0.32253 0.11661 0.0
C2899 C 0.4194 0.31899 0.10494 0.0
C2900 C 0.42393 0.32521 0.09746 0.0
C2901 C 0.42403 0.31779 0.11463 0.0
C2902 C 0.43811 0.32882 0.10907 0.0
C2903 C 0.43648 0.33825 0.09211 0.0
O2904 O 0.44843 0.36533 0.08117 0.0
O2905 O 0.45154 0.35375 0.06922 0.0
O2906 O 0.44252 0.33531 0.08452 0.0
O2907 O 0.43883 0.34735 0.09592 0.0
H2908 H 0.42943 0.35405 0.07239 0.0
H2909 H 0.41355 0.35973 0.06398 0.0
H2910 H 0.43001 0.38517 0.05007 0.0
H2911 H 0.44589 0.37927 0.05833 0.0
H2912 H 0.49133 0.37496 0.08351 0.0
H2913 H 0.47474 0.36586 0.08383 0.0
H2914 H 0.5052 0.34969 0.10026 0.0
H2915 H 0.48872 0.34069 0.10043 0.0
H2916 H 0.43715 0.32174 0.1241 0.0
H2917 H 0.41201 0.31548 0.10333 0.0
H2918 H 0.41996 0.3264 0.0902 0.0
H2919 H 0.44522 0.33279 0.11082 0.0
C2920 C 0.38065 0.69201 0.822 0.0
C2921 C 0.38484 0.68247 0.82492 0.0
C2922 C 0.36946 0.67359 0.81881 0.0
C2923 C 0.37931 0.67335 0.82332 0.0
C2924 C 0.36546 0.68315 0.81559 0.0
C2925 C 0.371 0.69228 0.8172 0.0
U2926 U 0.40286 0.70567 0.83499 0.0
O2927 O 0.41173 0.71961 0.83077 0.0
O2928 O 0.40314 0.71904 0.84537 0.0
C2929 C 0.40871 0.72466 0.83904 0.0
C2930 C 0.38597 0.7017 0.82462 0.0
C2931 C 0.40554 0.73556 0.83773 0.0
C2932 C 0.39295 0.74938 0.83982 0.0
C2933 C 0.3953 0.73882 0.83903 0.0
C2934 C 0.41091 0.75351 0.83726 0.0
C2935 C 0.40082 0.75683 0.83939 0.0
C2936 C 0.41324 0.74302 0.83649 0.0
C2937 C 0.42179 0.68566 0.84797 0.0
C2938 C 0.43414 0.68707 0.86205 0.0
C2939 C 0.43081 0.67047 0.8541 0.0
C2940 C 0.4239 0.67508 0.84731 0.0
C2941 C 0.43581 0.67635 0.86166 0.0
C2942 C 0.42711 0.69172 0.85523 0.0
C2943 C 0.41312 0.68959 0.84182 0.0
O2944 O 0.38606 0.70392 0.83451 0.0
O2945 O 0.39493 0.70314 0.82015 0.0
O2946 O 0.41512 0.69403 0.83292 0.0
O2947 O 0.40555 0.69395 0.84691 0.0
H2948 H 0.3923 0.6821 0.82864 0.0
H2949 H 0.38271 0.66611 0.82574 0.0
H2950 H 0.35787 0.68363 0.81217 0.0
H2951 H 0.36763 0.69958 0.81494 0.0
H2952 H 0.3851 0.75166 0.84143 0.0
H2953 H 0.38919 0.73321 0.83995 0.0
H2954 H 0.41713 0.75904 0.83665 0.0
H2955 H 0.42118 0.7407 0.83544 0.0
H2956 H 0.43788 0.69171 0.8679 0.0
H2957 H 0.43194 0.66219 0.85375 0.0
H2958 H 0.41982 0.67027 0.84183 0.0
H2959 H 0.42552 0.6999 0.85589 0.0
C2960 C 0.06848 0.64698 0.57184 0.0
C2961 C 0.07784 0.6522 0.57317 0.0
C2962 C 0.08678 0.63867 0.56368 0.0
C2963 C 0.08691 0.64809 0.56911 0.0
C2964 C 0.07735 0.63355 0.56231 0.0
C2965 C 0.06827 0.63767 0.56636 0.0
U2966 U 0.05519 0.66659 0.58882 0.0
O2967 O 0.04016 0.6743 0.5873 0.0
O2968 O 0.04347 0.66467 0.60085 0.0
C2969 C 0.03653 0.66997 0.59572 0.0
C2970 C 0.05899 0.65101 0.57647 0.0
C2971 C 0.02641 0.66501 0.59482 0.0
C2972 C 0.01566 0.65029 0.5904 0.0
C2973 C 0.02525 0.65524 0.59025 0.0
C2974 C 0.00832 0.66497 0.59934 0.0
C2975 C 0.00712 0.65505 0.59508 0.0
C2976 C 0.01787 0.66988 0.59921 0.0
C2977 C 0.07417 0.68679 0.60081 0.0
C2978 C 0.07373 0.69661 0.61683 0.0
C2979 C 0.08791 0.69873 0.60488 0.0
C2980 C 0.0834 0.69166 0.59817 0.0
C2981 C 0.08325 0.70108 0.61434 0.0
C2982 C 0.06918 0.68948 0.61007 0.0
C2983 C 0.07086 0.67807 0.59436 0.0
O2984 O 0.05847 0.6501 0.58655 0.0
O2985 O 0.05603 0.66012 0.57313 0.0
O2986 O 0.06516 0.68013 0.58623 0.0
O2987 O 0.06813 0.66961 0.59923 0.0
H2988 H 0.07812 0.65941 0.5774 0.0
H2989 H 0.09402 0.65232 0.57016 0.0
H2990 H 0.077 0.62624 0.55827 0.0
H2991 H 0.06111 0.63353 0.56533 0.0
H2992 H 0.01497 0.6427 0.58696 0.0
H2993 H 0.03179 0.65137 0.5868 0.0
H2994 H 1.00197 0.6688 0.60317 0.0
H2995 H 0.01864 0.67739 0.60281 0.0
H2996 H 0.07008 0.69829 0.62416 0.0
H2997 H 0.09532 0.70202 0.60291 0.0
H2998 H 0.08741 0.68961 0.59113 0.0
H2999 H 0.06205 0.68575 0.61225 0.0
C3000 C 0.12668 0.31509 0.31267 0.0
C3001 C 0.12264 0.32415 0.31701 0.0
C3002 C 0.1369 0.3342 0.30994 0.0
C3003 C 0.12768 0.33361 0.31565 0.0
C3004 C 0.14071 0.32512 0.30535 0.0
C3005 C 0.13566 0.31567 0.30672 0.0
U3006 U 0.10651 0.29906 0.32648 0.0
O3007 O 0.09778 0.28516 0.32185 0.0
O3008 O 0.10789 0.28475 0.33543 0.0
C3009 C 0.10167 0.27955 0.32936 0.0
C3010 C 0.12198 0.30494 0.31484 0.0
C3011 C 0.10471 0.26882 0.327 0.0
C3012 C 0.11758 0.25584 0.32273 0.0
C3013 C 0.1145 0.26623 0.32321 0.0
C3014 C 0.10101 0.25059 0.32941 0.0
C3015 C 0.11098 0.24788 0.32614 0.0
C3016 C 0.09794 0.26091 0.32979 0.0
C3017 C 0.0888 0.31735 0.34351 0.0
C3018 C 0.07923 0.31529 0.35956 0.0
C3019 C 0.08119 0.33223 0.3519 0.0
C3020 C 0.0866 0.32792 0.34369 0.0
C3021 C 0.07777 0.32603 0.36009 0.0
C3022 C 0.08481 0.31095 0.35131 0.0
C3023 C 0.09661 0.3139 0.33604 0.0
O3024 O 0.12308 0.30171 0.32438 0.0
O3025 O 0.11263 0.30351 0.31124 0.0
O3026 O 0.10483 0.30937 0.33979 0.0
O3027 O 0.09363 0.31022 0.32707 0.0
H3028 H 0.1157 0.32388 0.32164 0.0
H3029 H 0.12441 0.34046 0.31915 0.0
H3030 H 0.14782 0.32523 0.30101 0.0
H3031 H 0.13891 0.30876 0.30334 0.0
H3032 H 0.12524 0.25407 0.31997 0.0
H3033 H 0.11986 0.27223 0.32098 0.0
H3034 H 0.09572 0.24481 0.33226 0.0
H3035 H 0.09037 0.26275 0.3328 0.0
H3036 H 0.07669 0.31039 0.36583 0.0
H3037 H 0.08018 0.34053 0.35216 0.0
H3038 H 0.08968 0.33299 0.3378 0.0
H3039 H 0.08647 0.30276 0.35132 0.0
C3040 C 0.43879 0.64487 0.4454 0.0
C3041 C 0.42959 0.6503 0.44385 0.0
C3042 C 0.4205 0.63817 0.45493 0.0
C3043 C 0.42052 0.647 0.4486 0.0
C3044 C 0.42979 0.63283 0.45652 0.0
C3045 C 0.43885 0.63616 0.45178 0.0
U3046 U 0.45202 0.66174 0.4257 0.0
O3047 O 0.46728 0.66914 0.42577 0.0
O3048 O 0.46327 0.65796 0.41367 0.0
C3049 C 0.47051 0.66364 0.41788 0.0
C3050 C 0.44824 0.64799 0.44004 0.0
C3051 C 0.48052 0.6585 0.41913 0.0
C3052 C 0.49085 0.64369 0.42417 0.0
C3053 C 0.4814 0.64888 0.42404 0.0
C3054 C 0.49867 0.6579 0.4149 0.0
C3055 C 0.49956 0.64808 0.41946 0.0
C3056 C 0.48924 0.66304 0.41473 0.0
C3057 C 0.43313 0.68075 0.41177 0.0
C3058 C 0.43352 0.68857 0.39469 0.0
C3059 C 0.41939 0.69215 0.40636 0.0
C3060 C 0.42392 0.68592 0.41385 0.0
C3061 C 0.42402 0.69332 0.39667 0.0
C3062 C 0.43809 0.68229 0.40225 0.0
C3063 C 0.43645 0.67286 0.41921 0.0
O3064 O 0.44842 0.64578 0.43015 0.0
O3065 O 0.45152 0.65736 0.4421 0.0
O3066 O 0.44248 0.6758 0.42681 0.0
O3067 O 0.43881 0.66377 0.4154 0.0
H3068 H 0.42941 0.65705 0.43892 0.0
H3069 H 0.41354 0.65138 0.44734 0.0
H3070 H 0.43001 0.62595 0.46125 0.0
H3071 H 0.44589 0.63184 0.45299 0.0
H3072 H 0.49132 0.63619 0.42784 0.0
H3073 H 0.47473 0.64528 0.42752 0.0
H3074 H 0.50517 0.66144 0.41106 0.0
H3075 H 0.48869 0.67044 0.41089 0.0
H3076 H 0.43714 0.68936 0.38721 0.0
H3077 H 0.412 0.69567 0.40796 0.0
H3078 H 0.41994 0.68474 0.4211 0.0
H3079 H 0.4452 0.67831 0.4005 0.0
C3080 C 0.12668 0.69604 0.19864 0.0
C3081 C 0.12264 0.68698 0.19429 0.0
C3082 C 0.1369 0.67693 0.20136 0.0
C3083 C 0.12768 0.67752 0.19566 0.0
C3084 C 0.14071 0.68601 0.20595 0.0
C3085 C 0.13566 0.69546 0.20459 0.0
U3086 U 0.10651 0.71208 0.18482 0.0
O3087 O 0.09778 0.72599 0.18945 0.0
O3088 O 0.10788 0.72639 0.17586 0.0
C3089 C 0.10167 0.73159 0.18194 0.0
C3090 C 0.12198 0.70619 0.19647 0.0
C3091 C 0.10471 0.74232 0.1843 0.0
C3092 C 0.11759 0.75529 0.18856 0.0
C3093 C 0.1145 0.7449 0.18808 0.0
C3094 C 0.10102 0.76055 0.18188 0.0
C3095 C 0.11098 0.76325 0.18515 0.0
C3096 C 0.09794 0.75023 0.1815 0.0
C3097 C 0.08879 0.69379 0.1678 0.0
C3098 C 0.07923 0.69584 0.15174 0.0
C3099 C 0.0812 0.67891 0.15941 0.0
C3100 C 0.08661 0.68322 0.16762 0.0
C3101 C 0.07778 0.6851 0.15122 0.0
C3102 C 0.0848 0.70019 0.15999 0.0
C3103 C 0.0966 0.69724 0.17526 0.0
O3104 O 0.12307 0.70942 0.18692 0.0
O3105 O 0.11263 0.70763 0.20006 0.0
O3106 O 0.10483 0.70177 0.17151 0.0
O3107 O 0.09363 0.70093 0.18423 0.0
H3108 H 0.1157 0.68726 0.18967 0.0
H3109 H 0.12441 0.67068 0.19215 0.0
H3110 H 0.14782 0.68589 0.2103 0.0
H3111 H 0.13891 0.70237 0.20797 0.0
H3112 H 0.12525 0.75705 0.19132 0.0
H3113 H 0.11986 0.7389 0.19031 0.0
H3114 H 0.09573 0.76633 0.17904 0.0
H3115 H 0.09037 0.7484 0.1785 0.0
H3116 H 0.07669 0.70074 0.14547 0.0
H3117 H 0.0802 0.67061 0.15915 0.0
H3118 H 0.08968 0.67815 0.17351 0.0
H3119 H 0.08646 0.70838 0.15998 0.0
C3120 C 0.06847 0.36415 0.93947 0.0
C3121 C 0.07783 0.35893 0.93814 0.0
C3122 C 0.08678 0.37246 0.94762 0.0
C3123 C 0.08691 0.36304 0.9422 0.0
C3124 C 0.07734 0.37759 0.94899 0.0
C3125 C 0.06827 0.37346 0.94494 0.0
U3126 U 0.05519 0.34454 0.9225 0.0
O3127 O 0.04017 0.33682 0.92402 0.0
O3128 O 0.04347 0.34645 0.91047 0.0
C3129 C 0.03654 0.34115 0.91559 0.0
C3130 C 0.05898 0.36012 0.93484 0.0
C3131 C 0.02641 0.34611 0.91649 0.0
C3132 C 0.01566 0.36083 0.92092 0.0
C3133 C 0.02524 0.35587 0.92106 0.0
C3134 C 0.00832 0.34615 0.91197 0.0
C3135 C 0.00711 0.35607 0.91623 0.0
C3136 C 0.01787 0.34124 0.9121 0.0
C3137 C 0.07417 0.32434 0.91051 0.0
C3138 C 0.07373 0.31454 0.89447 0.0
C3139 C 0.08791 0.31239 0.90643 0.0
C3140 C 0.08341 0.31945 0.91314 0.0
C3141 C 0.08324 0.31006 0.89696 0.0
C3142 C 0.06918 0.32166 0.90125 0.0
C3143 C 0.07087 0.33306 0.91697 0.0
O3144 O 0.05846 0.36102 0.92476 0.0
O3145 O 0.05603 0.35101 0.93819 0.0
O3146 O 0.06517 0.331 0.92509 0.0
O3147 O 0.06814 0.34152 0.9121 0.0
H3148 H 0.07812 0.35172 0.93391 0.0
H3149 H 0.09402 0.35881 0.94114 0.0
H3150 H 0.07699 0.3849 0.95303 0.0
H3151 H 0.06111 0.3776 0.94597 0.0
H3152 H 0.01496 0.36841 0.92436 0.0
H3153 H 0.03178 0.35974 0.92452 0.0
H3154 H 1.00198 0.34232 0.90814 0.0
H3155 H 0.01865 0.33373 0.9085 0.0
H3156 H 0.07008 0.31287 0.88714 0.0
H3157 H 0.09532 0.3091 0.90839 0.0
H3158 H 0.08742 0.3215 0.92018 0.0
H3159 H 0.06205 0.3254 0.89908 0.0
C3160 C 0.38149 0.31962 0.68904 0.0
C3161 C 0.38554 0.32906 0.68562 0.0
C3162 C 0.37033 0.33815 0.69196 0.0
C3163 C 0.38002 0.33824 0.68709 0.0
C3164 C 0.36646 0.32868 0.69559 0.0
C3165 C 0.37198 0.31952 0.69412 0.0
U3166 U 0.40342 0.30458 0.67657 0.0
O3167 O 0.41171 0.2905 0.68153 0.0
O3168 O 0.40304 0.29064 0.66697 0.0
C3169 C 0.40846 0.28515 0.67354 0.0
C3170 C 0.38674 0.30977 0.68679 0.0
C3171 C 0.40509 0.27435 0.67528 0.0
C3172 C 0.39249 0.26057 0.67291 0.0
C3173 C 0.39487 0.27113 0.67367 0.0
C3174 C 0.4103 0.25635 0.67623 0.0
C3175 C 0.4003 0.25308 0.67368 0.0
C3176 C 0.41266 0.26684 0.67699 0.0
C3177 C 0.42198 0.3251 0.66263 0.0
C3178 C 0.43643 0.3254 0.65063 0.0
C3179 C 0.42762 0.34126 0.6551 0.0
C3180 C 0.42114 0.33582 0.66167 0.0
C3181 C 0.43517 0.33613 0.64932 0.0
C3182 C 0.42978 0.31987 0.65722 0.0
C3183 C 0.41395 0.31995 0.66876 0.0
O3184 O 0.38671 0.30704 0.67703 0.0
O3185 O 0.39571 0.30837 0.69126 0.0
O3186 O 0.40637 0.31541 0.66385 0.0
O3187 O 0.41621 0.3158 0.67774 0.0
H3188 H 0.39288 0.32931 0.68167 0.0
H3189 H 0.38332 0.34541 0.68433 0.0
H3190 H 0.35899 0.32828 0.69925 0.0
H3191 H 0.3687 0.3123 0.69676 0.0
H3192 H 0.3847 0.25832 0.671 0.0
H3193 H 0.38885 0.27676 0.67238 0.0
H3194 H 0.41646 0.25078 0.67709 0.0
H3195 H 0.42058 0.26911 0.67828 0.0
H3196 H 0.44223 0.32128 0.64626 0.0
H3197 H 0.42656 0.34952 0.65436 0.0
H3198 H 0.41519 0.33999 0.66578 0.0
H3199 H 0.43055 0.31157 0.65787 0.0
C3200 C 0.10123 0.42444 0.39784 0.0
C3201 C 0.10671 0.41511 0.39717 0.0
C3202 C 0.09135 0.40536 0.40211 0.0
C3203 C 0.10186 0.4057 0.39937 0.0
C3204 C 0.08603 0.41479 0.40306 0.0
C3205 C 0.09092 0.42419 0.40097 0.0
U3206 U 0.12059 0.43908 0.38148 0.0
O3207 O 0.11856 0.45242 0.37121 0.0
O3208 O 0.12969 0.45327 0.384 0.0
C3209 C 0.1255 0.45799 0.37605 0.0
C3210 C 0.1058 0.43434 0.39445 0.0
C3211 C 0.12386 0.46925 0.37659 0.0
C3212 C 0.11318 0.48457 0.37889 0.0
C3213 C 0.11461 0.47383 0.37989 0.0
C3214 C 0.13023 0.48613 0.37155 0.0
C3215 C 0.1209 0.49077 0.37443 0.0
C3216 C 0.13168 0.47553 0.37264 0.0
C3217 C 0.13788 0.41966 0.36562 0.0
C3218 C 0.15116 0.42193 0.35256 0.0
C3219 C 0.14473 0.40485 0.35656 0.0
C3220 C 0.13817 0.40903 0.3639 0.0
C3221 C 0.15132 0.41119 0.35074 0.0
C3222 C 0.14445 0.42616 0.35998 0.0
C3223 C 0.13019 0.42338 0.37305 0.0
O3224 O 0.1153 0.43621 0.3974 0.0
O3225 O 0.10416 0.43665 0.38472 0.0
O3226 O 0.12173 0.42738 0.36924 0.0
O3227 O 0.13345 0.42798 0.38148 0.0
H3228 H 0.11468 0.41509 0.39471 0.0
H3229 H 0.10632 0.39867 0.39873 0.0
H3230 H 0.07794 0.41494 0.40497 0.0
H3231 H 0.08653 0.43127 0.40146 0.0
H3232 H 0.10592 0.48795 0.38121 0.0
H3233 H 0.10845 0.46911 0.38294 0.0
H3234 H 0.13639 0.49069 0.36828 0.0
H3235 H 0.13886 0.47217 0.37004 0.0
H3236 H 0.15612 0.42704 0.34821 0.0
H3237 H 0.14433 0.39661 0.3552 0.0
H3238 H 0.13308 0.40391 0.36811 0.0
H3239 H 0.1443 0.43443 0.3612 0.0
C3240 C 0.3185 0.32178 0.11424 0.0
C3241 C 0.32786 0.32311 0.10903 0.0
C3242 C 0.3368 0.31362 0.12255 0.0
C3243 C 0.33693 0.31904 0.11314 0.0
C3244 C 0.32736 0.31225 0.12768 0.0
C3245 C 0.31829 0.31631 0.12355 0.0
U3246 U 0.3052 0.33873 0.09463 0.0
O3247 O 0.29018 0.33719 0.08691 0.0
O3248 O 0.29347 0.35075 0.09654 0.0
C3249 C 0.28654 0.34562 0.09124 0.0
C3250 C 0.30901 0.32641 0.11021 0.0
C3251 C 0.27642 0.34471 0.0962 0.0
C3252 C 0.26568 0.34031 0.11093 0.0
C3253 C 0.27526 0.34018 0.10598 0.0
C3254 C 0.25831 0.34918 0.09622 0.0
C3255 C 0.25712 0.34496 0.10616 0.0
C3256 C 0.26786 0.34905 0.09131 0.0
C3257 C 0.32411 0.35075 0.0744 0.0
C3258 C 0.32379 0.36689 0.06479 0.0
C3259 C 0.33769 0.35469 0.06222 0.0
C3260 C 0.33319 0.34799 0.0693 0.0
C3261 C 0.33317 0.36427 0.0601 0.0
C3262 C 0.31924 0.36012 0.07192 0.0
C3263 C 0.32085 0.34428 0.08313 0.0
O3264 O 0.30849 0.33649 0.11111 0.0
O3265 O 0.30606 0.32306 0.1011 0.0
O3266 O 0.31518 0.33614 0.08108 0.0
O3267 O 0.31813 0.34915 0.09161 0.0
H3268 H 0.32815 0.32733 0.10182 0.0
H3269 H 0.34404 0.32009 0.10891 0.0
H3270 H 0.32701 0.30822 0.13499 0.0
H3271 H 0.31113 0.31528 0.12769 0.0
H3272 H 0.26499 0.33691 0.11854 0.0
H3273 H 0.28181 0.33676 0.10986 0.0
H3274 H 0.25196 0.35297 0.09238 0.0
H3275 H 0.26863 0.35261 0.08378 0.0
H3276 H 0.32026 0.37431 0.06328 0.0
H3277 H 0.345 0.35261 0.05877 0.0
H3278 H 0.33711 0.34085 0.0712 0.0
H3279 H 0.31223 0.3624 0.07581 0.0
C3280 C 0.41466 0.57819 0.89384 0.0
C3281 C 0.41228 0.58755 0.88892 0.0
C3282 C 0.42658 0.59609 0.89767 0.0
C3283 C 0.41818 0.5964 0.8908 0.0
C3284 C 0.42852 0.58684 0.90303 0.0
C3285 C 0.42263 0.57798 0.90111 0.0
U3286 U 0.39292 0.56469 0.8798 0.0
O3287 O 0.39317 0.55202 0.86852 0.0
O3288 O 0.38405 0.55044 0.88277 0.0
C3289 C 0.38691 0.54623 0.87398 0.0
C3290 C 0.4095 0.56849 0.89074 0.0
C3291 C 0.38833 0.53494 0.87347 0.0
C3292 C 0.39871 0.51926 0.87395 0.0
C3293 C 0.39764 0.52993 0.87581 0.0
C3294 C 0.3812 0.51863 0.86764 0.0
C3295 C 0.39055 0.51357 0.86958 0.0
C3296 C 0.38012 0.52915 0.86957 0.0
C3297 C 0.37388 0.5851 0.86777 0.0
C3298 C 0.35944 0.58353 0.8559 0.0
C3299 C 0.36569 0.60041 0.86094 0.0
C3300 C 0.37306 0.59582 0.86719 0.0
C3301 C 0.3588 0.59438 0.85512 0.0
C3302 C 0.36697 0.5789 0.8622 0.0
C3303 C 0.38251 0.58098 0.87381 0.0
O3304 O 0.40048 0.56666 0.89496 0.0
O3305 O 0.40967 0.5666 0.88078 0.0
O3306 O 0.39027 0.57714 0.8686 0.0
O3307 O 0.38042 0.57591 0.88234 0.0
H3308 H 0.40612 0.58791 0.88329 0.0
H3309 H 0.41646 0.60333 0.88647 0.0
H3310 H 0.43477 0.58636 0.90854 0.0
H3311 H 0.42453 0.57087 0.90506 0.0
H3312 H 0.406 0.51555 0.87557 0.0
H3313 H 0.4041 0.53427 0.8788 0.0
H3314 H 0.37471 0.51446 0.86447 0.0
H3315 H 0.37289 0.53286 0.8677 0.0
H3316 H 0.35425 0.57865 0.85156 0.0
H3317 H 0.36573 0.60875 0.86035 0.0
H3318 H 0.37839 0.60072 0.87137 0.0
H3319 H 0.36751 0.57057 0.86255 0.0
C3320 C 0.1888 0.69531 0.61635 0.0
C3321 C 0.1796 0.69376 0.61091 0.0
C3322 C 0.1705 0.70485 0.62305 0.0
C3323 C 0.17053 0.69851 0.61422 0.0
C3324 C 0.17979 0.70644 0.62839 0.0
C3325 C 0.18886 0.7017 0.62507 0.0
U3326 U 0.20205 0.67561 0.59948 0.0
O3327 O 0.21732 0.67566 0.5921 0.0
O3328 O 0.21329 0.66357 0.60327 0.0
C3329 C 0.22054 0.66777 0.5976 0.0
C3330 C 0.19825 0.68995 0.61323 0.0
C3331 C 0.23055 0.66901 0.60274 0.0
C3332 C 0.24087 0.67403 0.61758 0.0
C3333 C 0.23142 0.67391 0.61238 0.0
C3334 C 0.2487 0.66478 0.60335 0.0
C3335 C 0.24959 0.66932 0.61317 0.0
C3336 C 0.23927 0.66462 0.5982 0.0
C3337 C 0.18316 0.66168 0.58047 0.0
C3338 C 0.18353 0.6446 0.57263 0.0
C3339 C 0.1694 0.65627 0.56908 0.0
C3340 C 0.17394 0.66376 0.5753 0.0
C3341 C 0.17403 0.64658 0.56789 0.0
C3342 C 0.18811 0.65215 0.57891 0.0
C3343 C 0.18649 0.66911 0.58835 0.0
O3344 O 0.19843 0.68006 0.61544 0.0
O3345 O 0.20154 0.69201 0.60386 0.0
O3346 O 0.19252 0.6767 0.58541 0.0
O3347 O 0.18884 0.6653 0.59745 0.0
H3348 H 0.17943 0.68882 0.60416 0.0
H3349 H 0.16355 0.69725 0.60984 0.0
H3350 H 0.18001 0.71118 0.63527 0.0
H3351 H 0.19589 0.70291 0.62938 0.0
H3352 H 0.24134 0.67769 0.62509 0.0
H3353 H 0.22475 0.67739 0.61599 0.0
H3354 H 0.2552 0.66095 0.59979 0.0
H3355 H 0.23873 0.66079 0.59079 0.0
H3356 H 0.18715 0.63711 0.57184 0.0
H3357 H 0.16201 0.65788 0.56556 0.0
H3358 H 0.16996 0.67101 0.57648 0.0
H3359 H 0.19523 0.6504 0.58289 0.0
C3360 C 0.10126 0.58667 0.11346 0.0
C3361 C 0.10675 0.59599 0.11412 0.0
C3362 C 0.09139 0.60575 0.10919 0.0
C3363 C 0.1019 0.60541 0.11193 0.0
C3364 C 0.08607 0.59633 0.10823 0.0
C3365 C 0.09096 0.58693 0.11032 0.0
U3366 U 0.12061 0.57203 0.12983 0.0
O3367 O 0.11859 0.55869 0.14011 0.0
O3368 O 0.12973 0.55784 0.12732 0.0
C3369 C 0.12553 0.55312 0.13527 0.0
C3370 C 0.10583 0.57676 0.11685 0.0
C3371 C 0.12388 0.54186 0.13472 0.0
C3372 C 0.11319 0.52656 0.13242 0.0
C3373 C 0.11463 0.5373 0.13143 0.0
C3374 C 0.13024 0.52497 0.13975 0.0
C3375 C 0.1209 0.52034 0.13688 0.0
C3376 C 0.1317 0.53557 0.13867 0.0
C3377 C 0.13789 0.59145 0.14568 0.0
C3378 C 0.15117 0.58918 0.15875 0.0
C3379 C 0.14473 0.60626 0.15475 0.0
C3380 C 0.13817 0.60208 0.1474 0.0
C3381 C 0.15133 0.59992 0.16056 0.0
C3382 C 0.14447 0.58495 0.15133 0.0
C3383 C 0.13021 0.58773 0.13825 0.0
O3384 O 0.11533 0.57489 0.1139 0.0
O3385 O 0.10418 0.57446 0.12658 0.0
O3386 O 0.12175 0.58373 0.14206 0.0
O3387 O 0.13347 0.58313 0.12982 0.0
H3388 H 0.11471 0.59601 0.11659 0.0
H3389 H 0.10636 0.61243 0.11257 0.0
H3390 H 0.07797 0.59619 0.10632 0.0
H3391 H 0.08656 0.57985 0.10983 0.0
H3392 H 0.10592 0.52319 0.1301 0.0
H3393 H 0.10848 0.54203 0.12838 0.0
H3394 H 0.1364 0.5204 0.14302 0.0
H3395 H 0.13888 0.53892 0.14127 0.0
H3396 H 0.15614 0.58407 0.1631 0.0
H3397 H 0.14433 0.6145 0.1561 0.0
H3398 H 0.13308 0.6072 0.1432 0.0
H3399 H 0.14432 0.57668 0.15011 0.0
C3400 C 0.18881 0.31581 0.89496 0.0
C3401 C 0.17961 0.31736 0.9004 0.0
C3402 C 0.17051 0.30628 0.88826 0.0
C3403 C 0.17054 0.31262 0.89709 0.0
C3404 C 0.17979 0.30468 0.88291 0.0
C3405 C 0.18886 0.30942 0.88624 0.0
U3406 U 0.20204 0.3355 0.91184 0.0
O3407 O 0.2173 0.33544 0.91923 0.0
O3408 O 0.21328 0.34754 0.90806 0.0
C3409 C 0.22053 0.34333 0.91374 0.0
C3410 C 0.19825 0.32116 0.89808 0.0
C3411 C 0.23053 0.34208 0.9086 0.0
C3412 C 0.24086 0.33703 0.89378 0.0
C3413 C 0.23141 0.33717 0.89897 0.0
C3414 C 0.24868 0.34632 0.90799 0.0
C3415 C 0.24957 0.34175 0.89818 0.0
C3416 C 0.23925 0.34648 0.91314 0.0
C3417 C 0.18315 0.34944 0.93084 0.0
C3418 C 0.18353 0.36652 0.93867 0.0
C3419 C 0.1694 0.35485 0.94224 0.0
C3420 C 0.17393 0.34737 0.93602 0.0
C3421 C 0.17402 0.36455 0.94342 0.0
C3422 C 0.1881 0.35897 0.93239 0.0
C3423 C 0.18647 0.342 0.92296 0.0
O3424 O 0.19844 0.33105 0.89587 0.0
O3425 O 0.20154 0.3191 0.90745 0.0
O3426 O 0.1925 0.33441 0.92589 0.0
O3427 O 0.18882 0.34581 0.91386 0.0
H3428 H 0.17943 0.3223 0.90715 0.0
H3429 H 0.16356 0.31388 0.90147 0.0
H3430 H 0.18001 0.29995 0.87603 0.0
H3431 H 0.19589 0.30821 0.88193 0.0
H3432 H 0.24133 0.33337 0.88627 0.0
H3433 H 0.22474 0.33369 0.89537 0.0
H3434 H 0.25518 0.35015 0.91154 0.0
H3435 H 0.23871 0.35033 0.92054 0.0
H3436 H 0.18714 0.37401 0.93945 0.0
H3437 H 0.16201 0.35325 0.94576 0.0
H3438 H 0.16996 0.34011 0.93484 0.0
H3439 H 0.19521 0.36071 0.9284 0.0
C3440 C 0.41491 0.43478 0.61816 0.0
C3441 C 0.41246 0.42521 0.62259 0.0
C3442 C 0.42713 0.41719 0.614 0.0
C3443 C 0.41852 0.41652 0.62056 0.0
C3444 C 0.42923 0.4267 0.60917 0.0
C3445 C 0.42318 0.43542 0.61125 0.0
U3446 U 0.39234 0.44662 0.63198 0.0
O3447 O 0.39151 0.45887 0.64364 0.0
O3448 O 0.38273 0.4604 0.6292 0.0
C3449 C 0.38528 0.4646 0.63808 0.0
C3450 C 0.40933 0.44417 0.62135 0.0
C3451 C 0.38702 0.47583 0.63835 0.0
C3452 C 0.39812 0.49098 0.63862 0.0
C3453 C 0.39675 0.48035 0.63692 0.0
C3454 C 0.38007 0.4926 0.64292 0.0
C3455 C 0.38982 0.49714 0.64192 0.0
C3456 C 0.37869 0.48208 0.64114 0.0
C3457 C 0.37386 0.42562 0.64311 0.0
C3458 C 0.35962 0.42745 0.65515 0.0
C3459 C 0.36513 0.41047 0.6496 0.0
C3460 C 0.37262 0.41493 0.64338 0.0
C3461 C 0.35858 0.41662 0.65568 0.0
C3462 C 0.36724 0.43193 0.6489 0.0
C3463 C 0.38262 0.42967 0.63724 0.0
O3464 O 0.40033 0.44568 0.61697 0.0
O3465 O 0.40918 0.44576 0.63136 0.0
O3466 O 0.39014 0.43368 0.64269 0.0
O3467 O 0.38059 0.43479 0.62873 0.0
H3468 H 0.40609 0.42454 0.62793 0.0
H3469 H 0.4167 0.4094 0.62454 0.0
H3470 H 0.43566 0.42746 0.60392 0.0
H3471 H 0.42514 0.44272 0.60769 0.0
H3472 H 0.40571 0.49431 0.63778 0.0
H3473 H 0.40329 0.47563 0.6348 0.0
H3474 H 0.3735 0.49717 0.64529 0.0
H3475 H 0.37114 0.47875 0.64229 0.0
H3476 H 0.35468 0.43243 0.65968 0.0
H3477 H 0.36485 0.40213 0.64998 0.0
H3478 H 0.37772 0.40995 0.63902 0.0
H3479 H 0.36812 0.44025 0.64878 0.0
C3480 C 0.3185 0.68934 0.39706 0.0
C3481 C 0.32786 0.68802 0.40227 0.0
C3482 C 0.3368 0.69751 0.38875 0.0
C3483 C 0.33694 0.69208 0.39816 0.0
C3484 C 0.32736 0.69888 0.38362 0.0
C3485 C 0.31829 0.69482 0.38775 0.0
U3486 U 0.30521 0.67239 0.41666 0.0
O3487 O 0.29019 0.67394 0.42438 0.0
O3488 O 0.29347 0.66038 0.41475 0.0
C3489 C 0.28655 0.66551 0.42005 0.0
C3490 C 0.30902 0.68472 0.40109 0.0
C3491 C 0.27642 0.66642 0.41509 0.0
C3492 C 0.26567 0.67081 0.40036 0.0
C3493 C 0.27526 0.67095 0.40531 0.0
C3494 C 0.25832 0.66195 0.41508 0.0
C3495 C 0.25712 0.66617 0.40514 0.0
C3496 C 0.26787 0.66208 0.41999 0.0
C3497 C 0.32411 0.66037 0.4369 0.0
C3498 C 0.3238 0.64423 0.44652 0.0
C3499 C 0.3377 0.65643 0.44909 0.0
C3500 C 0.3332 0.66313 0.442 0.0
C3501 C 0.33317 0.64685 0.45121 0.0
C3502 C 0.31925 0.65099 0.43939 0.0
C3503 C 0.32086 0.66683 0.42817 0.0
O3504 O 0.3085 0.67463 0.40018 0.0
O3505 O 0.30606 0.68807 0.4102 0.0
O3506 O 0.31518 0.67497 0.43021 0.0
O3507 O 0.31814 0.66197 0.41969 0.0
H3508 H 0.32816 0.68379 0.40948 0.0
H3509 H 0.34404 0.69103 0.40239 0.0
H3510 H 0.327 0.70291 0.37631 0.0
H3511 H 0.31113 0.69585 0.38361 0.0
H3512 H 0.26498 0.67422 0.39276 0.0
H3513 H 0.2818 0.67437 0.40142 0.0
H3514 H 0.25197 0.65816 0.41893 0.0
H3515 H 0.26864 0.65852 0.42751 0.0
H3516 H 0.32027 0.63681 0.44803 0.0
H3517 H 0.345 0.6585 0.45254 0.0
H3518 H 0.33711 0.67027 0.44011 0.0
H3519 H 0.31224 0.64872 0.43549 0.0
C3520 C 0.37718 0.06217 0.44648 0.0
C3521 C 0.37303 0.06661 0.43751 0.0
C3522 C 0.38715 0.05964 0.42721 0.0
C3523 C 0.37795 0.06534 0.42797 0.0
C3524 C 0.39109 0.05497 0.43619 0.0
C3525 C 0.38616 0.05624 0.44572 0.0
U3526 U 0.35704 0.07567 0.46271 0.0
O3527 O 0.3485 0.07105 0.47674 0.0
O3528 O 0.35837 0.08481 0.4769 0.0
C3529 C 0.3523 0.0787 0.48222 0.0
C3530 C 0.37261 0.06424 0.45671 0.0
C3531 C 0.35549 0.07654 0.49294 0.0
C3532 C 0.3686 0.07266 0.5058 0.0
C3533 C 0.36534 0.07288 0.49545 0.0
C3534 C 0.35206 0.07931 0.51118 0.0
C3535 C 0.3621 0.0762 0.51379 0.0
C3536 C 0.34881 0.07944 0.50091 0.0
C3537 C 0.33908 0.09234 0.44443 0.0
C3538 C 0.32982 0.10855 0.44635 0.0
C3539 C 0.33151 0.10062 0.42949 0.0
C3540 C 0.33679 0.09238 0.43387 0.0
C3541 C 0.32834 0.10896 0.43561 0.0
C3542 C 0.33526 0.10028 0.45076 0.0
C3543 C 0.34695 0.08496 0.44786 0.0
O3544 O 0.37361 0.07379 0.45995 0.0
O3545 O 0.36335 0.06049 0.45827 0.0
O3546 O 0.35517 0.08883 0.45228 0.0
O3547 O 0.34406 0.07601 0.45166 0.0
H3548 H 0.36609 0.07123 0.43793 0.0
H3549 H 0.37459 0.06891 0.42121 0.0
H3550 H 0.3982 0.05063 0.43595 0.0
H3551 H 0.38951 0.05279 0.45255 0.0
H3552 H 0.37631 0.07 0.50749 0.0
H3553 H 0.37063 0.07057 0.48941 0.0
H3554 H 0.34684 0.08224 0.51699 0.0
H3555 H 0.3412 0.08234 0.49913 0.0
H3556 H 0.32744 0.11495 0.45119 0.0
H3557 H 0.33046 0.1008 0.4212 0.0
H3558 H 0.33975 0.08637 0.42886 0.0
H3559 H 0.33701 0.10039 0.45894 0.0
C3560 C 0.87719 0.44895 0.56481 0.0
C3561 C 0.87303 0.44451 0.57377 0.0
C3562 C 0.88715 0.45148 0.58409 0.0
C3563 C 0.87795 0.44578 0.58332 0.0
C3564 C 0.89109 0.45615 0.57511 0.0
C3565 C 0.88616 0.45488 0.56558 0.0
U3566 U 0.85706 0.43546 0.54856 0.0
O3567 O 0.84853 0.44008 0.53452 0.0
O3568 O 0.8584 0.42632 0.53436 0.0
C3569 C 0.85233 0.43243 0.52904 0.0
C3570 C 0.87263 0.44688 0.55457 0.0
C3571 C 0.85552 0.43458 0.51831 0.0
C3572 C 0.86861 0.43844 0.50544 0.0
C3573 C 0.86537 0.43823 0.51579 0.0
C3574 C 0.85206 0.4318 0.50008 0.0
C3575 C 0.8621 0.43489 0.49746 0.0
C3576 C 0.84882 0.43168 0.51036 0.0
C3577 C 0.8391 0.4188 0.56684 0.0
C3578 C 0.82983 0.40259 0.56492 0.0
C3579 C 0.83154 0.41052 0.58178 0.0
C3580 C 0.83682 0.41876 0.57739 0.0
C3581 C 0.82836 0.40218 0.57567 0.0
C3582 C 0.83527 0.41086 0.56051 0.0
C3583 C 0.84696 0.42617 0.5634 0.0
O3584 O 0.87363 0.43733 0.55133 0.0
O3585 O 0.86336 0.45063 0.553 0.0
O3586 O 0.85518 0.4223 0.55898 0.0
O3587 O 0.84407 0.43512 0.5596 0.0
H3588 H 0.8661 0.43989 0.57335 0.0
H3589 H 0.87459 0.44221 0.59008 0.0
H3590 H 0.8982 0.46049 0.57535 0.0
H3591 H 0.88951 0.45833 0.55874 0.0
H3592 H 0.87632 0.44108 0.50374 0.0
H3593 H 0.87066 0.44053 0.52182 0.0
H3594 H 0.84683 0.42887 0.49428 0.0
H3595 H 0.84121 0.42879 0.51214 0.0
H3596 H 0.82744 0.39619 0.56009 0.0
H3597 H 0.83051 0.41035 0.59008 0.0
H3598 H 0.83978 0.42476 0.58241 0.0
H3599 H 0.83701 0.41075 0.55233 0.0
C3600 C 0.35148 0.14774 0.33677 0.0
C3601 C 0.35715 0.14713 0.34598 0.0
C3602 C 0.34194 0.15187 0.35604 0.0
C3603 C 0.35247 0.14927 0.35549 0.0
C3604 C 0.33642 0.15278 0.34673 0.0
C3605 C 0.34114 0.15076 0.33722 0.0
U3606 U 0.37066 0.13136 0.32206 0.0
O3607 O 0.36863 0.12106 0.30873 0.0
O3608 O 0.3798 0.13381 0.30788 0.0
C3609 C 0.37558 0.12587 0.30317 0.0
C3610 C 0.35591 0.14437 0.32679 0.0
C3611 C 0.37392 0.12644 0.29191 0.0
C3612 C 0.3632 0.12876 0.27663 0.0
C3613 C 0.36466 0.12974 0.28737 0.0
C3614 C 0.38025 0.12144 0.275 0.0
C3615 C 0.37091 0.12432 0.2704 0.0
C3616 C 0.38173 0.1225 0.2856 0.0
C3617 C 0.38789 0.11554 0.34153 0.0
C3618 C 0.40115 0.10245 0.33928 0.0
C3619 C 0.39471 0.10649 0.35636 0.0
C3620 C 0.38816 0.11384 0.35217 0.0
C3621 C 0.4013 0.10066 0.35003 0.0
C3622 C 0.39446 0.10988 0.33504 0.0
C3623 C 0.38022 0.12298 0.3378 0.0
O3624 O 0.36541 0.1473 0.32485 0.0
O3625 O 0.35423 0.13465 0.32449 0.0
O3626 O 0.37176 0.11917 0.33379 0.0
O3627 O 0.3835 0.13138 0.33318 0.0
H3628 H 0.36514 0.14476 0.34585 0.0
H3629 H 0.35707 0.14867 0.36243 0.0
H3630 H 0.3283 0.1546 0.34676 0.0
H3631 H 0.3366 0.15119 0.33023 0.0
H3632 H 0.35593 0.13108 0.27328 0.0
H3633 H 0.35851 0.13278 0.29212 0.0
H3634 H 0.38641 0.11818 0.27041 0.0
H3635 H 0.38892 0.1199 0.28894 0.0
H3636 H 0.40611 0.09809 0.33418 0.0
H3637 H 0.3943 0.10516 0.3646 0.0
H3638 H 0.38307 0.11807 0.35727 0.0
H3639 H 0.39432 0.11108 0.32677 0.0
C3640 C 0.63101 0.57151 0.07052 0.0
C3641 C 0.635 0.57513 0.07992 0.0
C3642 C 0.61999 0.56849 0.08916 0.0
C3643 C 0.62956 0.57362 0.08915 0.0
C3644 C 0.61625 0.56455 0.07975 0.0
C3645 C 0.6217 0.56606 0.07055 0.0
U3646 U 0.65263 0.58432 0.05528 0.0
O3647 O 0.66032 0.58003 0.04064 0.0
O3648 O 0.65197 0.59475 0.0419 0.0
C3649 C 0.65748 0.58861 0.03602 0.0
C3650 C 0.63601 0.57403 0.06058 0.0
C3651 C 0.65503 0.58846 0.02485 0.0
C3652 C 0.64572 0.58258 0.00953 0.0
C3653 C 0.6477 0.58191 0.02024 0.0
C3654 C 0.65834 0.59622 0.0081 0.0
C3655 C 0.65108 0.58975 1.00331 0.0
C3656 C 0.66029 0.59555 0.01866 0.0
C3657 C 0.67228 0.59764 0.07487 0.0
C3658 C 0.68517 0.6113 0.07387 0.0
C3659 C 0.6802 0.60431 0.09047 0.0
C3660 C 0.67351 0.59747 0.0856 0.0
C3661 C 0.68591 0.61144 0.08471 0.0
C3662 C 0.6783 0.60445 0.06895 0.0
C3663 C 0.66376 0.59144 0.07063 0.0
O3664 O 0.63599 0.58388 0.05818 0.0
O3665 O 0.64489 0.56954 0.05873 0.0
O3666 O 0.66575 0.58261 0.06605 0.0
O3667 O 0.65594 0.59644 0.06665 0.0
H3668 H 0.64219 0.57934 0.08009 0.0
H3669 H 0.63278 0.5766 0.09626 0.0
H3670 H 0.6089 0.56065 0.07942 0.0
H3671 H 0.61847 0.56323 0.06338 0.0
H3672 H 0.64009 0.57746 0.00611 0.0
H3673 H 0.64352 0.57638 0.02489 0.0
H3674 H 0.66245 0.60201 1.00372 0.0
H3675 H 0.6659 0.60072 0.02203 0.0
H3676 H 0.68949 0.61678 0.06929 0.0
H3677 H 0.68062 0.60429 0.09883 0.0
H3678 H 0.66889 0.59234 0.09032 0.0
H3679 H 0.67742 0.60474 0.06064 0.0
C3680 C 0.66497 0.36807 0.32647 0.0
C3681 C 0.66253 0.37252 0.33605 0.0
C3682 C 0.67723 0.36394 0.34405 0.0
C3683 C 0.66861 0.3705 0.34473 0.0
C3684 C 0.6793 0.3591 0.33453 0.0
C3685 C 0.67324 0.36117 0.32583 0.0
U3686 U 0.64237 0.38187 0.31464 0.0
O3687 O 0.64154 0.39353 0.30238 0.0
O3688 O 0.63278 0.37907 0.30085 0.0
C3689 C 0.63531 0.38796 0.29665 0.0
C3690 C 0.65938 0.37126 0.31709 0.0
C3691 C 0.63705 0.38822 0.28542 0.0
C3692 C 0.64816 0.38848 0.27026 0.0
C3693 C 0.64679 0.38679 0.2809 0.0
C3694 C 0.6301 0.3928 0.26866 0.0
C3695 C 0.63985 0.39178 0.26411 0.0
C3696 C 0.62873 0.39102 0.27917 0.0
C3697 C 0.62387 0.39301 0.33562 0.0
C3698 C 0.60963 0.40505 0.33378 0.0
C3699 C 0.61512 0.39951 0.35077 0.0
C3700 C 0.62261 0.39328 0.34632 0.0
C3701 C 0.60858 0.40559 0.34461 0.0
C3702 C 0.61726 0.3988 0.32931 0.0
C3703 C 0.63264 0.38714 0.33158 0.0
O3704 O 0.65038 0.36687 0.31559 0.0
O3705 O 0.65922 0.38127 0.3155 0.0
O3706 O 0.64016 0.39259 0.32757 0.0
O3707 O 0.63062 0.37862 0.32646 0.0
H3708 H 0.65616 0.37786 0.33673 0.0
H3709 H 0.6668 0.37448 0.35185 0.0
H3710 H 0.68575 0.35386 0.33376 0.0
H3711 H 0.67519 0.35761 0.31852 0.0
H3712 H 0.65575 0.38763 0.26694 0.0
H3713 H 0.65333 0.38466 0.28562 0.0
H3714 H 0.62354 0.39517 0.26409 0.0
H3715 H 0.62118 0.39218 0.28251 0.0
H3716 H 0.6047 0.40958 0.3288 0.0
H3717 H 0.61482 0.39989 0.35911 0.0
H3718 H 0.62771 0.38892 0.3513 0.0
H3719 H 0.61815 0.39868 0.32099 0.0
C3720 C 0.13073 0.9391 0.94207 0.0
C3721 C 0.13491 0.9362 0.93252 0.0
C3722 C 0.11953 0.94235 0.92368 0.0
C3723 C 0.12937 0.93783 0.92341 0.0
C3724 C 0.11553 0.94556 0.93325 0.0
C3725 C 0.12108 0.94392 0.94237 0.0
U3726 U 0.1529 0.92601 0.9557 0.0
O3727 O 0.1618 0.93025 0.96963 0.0
O3728 O 0.15315 0.91568 0.96911 0.0
C3729 C 0.15872 0.92202 0.97472 0.0
C3730 C 0.13605 0.93646 0.95175 0.0
C3731 C 0.15551 0.92343 0.98559 0.0
C3732 C 0.14287 0.92142 0.99938 0.0
C3733 C 0.14526 0.92214 0.98882 0.0
C3734 C 0.1608 0.92406 1.00358 0.0
C3735 C 0.1507 0.92193 0.00686 0.0
C3736 C 0.16317 0.92476 0.99308 0.0
C3737 C 0.17168 0.91295 0.93552 0.0
C3738 C 0.18387 0.89869 0.93654 0.0
C3739 C 0.18062 0.90709 0.92015 0.0
C3740 C 0.1738 0.91385 0.92496 0.0
C3741 C 0.18554 0.89932 0.92584 0.0
C3742 C 0.17691 0.90547 0.94138 0.0
C3743 C 0.16308 0.9191 0.9396 0.0
O3744 O 0.1361 0.92657 0.95397 0.0
O3745 O 0.14504 0.94088 0.95317 0.0
O3746 O 0.16514 0.928 0.94403 0.0
O3747 O 0.15553 0.91403 0.94402 0.0
H3748 H 0.14236 0.93247 0.93213 0.0
H3749 H 0.13275 0.93542 0.91615 0.0
H3750 H 0.10795 0.94898 0.93374 0.0
H3751 H 0.11772 0.94616 0.94968 0.0
H3752 H 0.13501 0.91981 1.00163 0.0
H3753 H 0.13918 0.92116 0.98319 0.0
H3754 H 0.167 0.92473 0.00912 0.0
H3755 H 0.17112 0.9258 0.9908 0.0
H3756 H 0.18755 0.89268 0.94103 0.0
H3757 H 0.18174 0.90765 0.91188 0.0
H3758 H 0.16978 0.9195 0.92029 0.0
H3759 H 0.17533 0.90462 0.94954 0.0
C3760 C 0.35148 0.86339 0.17452 0.0
C3761 C 0.35716 0.864 0.16531 0.0
C3762 C 0.34194 0.85926 0.15525 0.0
C3763 C 0.35247 0.86186 0.15579 0.0
C3764 C 0.33642 0.85835 0.16456 0.0
C3765 C 0.34115 0.86038 0.17406 0.0
U3766 U 0.37066 0.87977 0.18924 0.0
O3767 O 0.36863 0.89007 0.20257 0.0
O3768 O 0.3798 0.87732 0.20342 0.0
C3769 C 0.37558 0.88525 0.20813 0.0
C3770 C 0.35592 0.86676 0.18449 0.0
C3771 C 0.37392 0.88469 0.21939 0.0
C3772 C 0.3632 0.88237 0.23467 0.0
C3773 C 0.36466 0.88139 0.22393 0.0
C3774 C 0.38026 0.88968 0.23629 0.0
C3775 C 0.37091 0.88681 0.2409 0.0
C3776 C 0.38173 0.88861 0.2257 0.0
C3777 C 0.38789 0.89559 0.16977 0.0
C3778 C 0.40114 0.90867 0.17202 0.0
C3779 C 0.39471 0.90463 0.15494 0.0
C3780 C 0.38816 0.89729 0.15914 0.0
C3781 C 0.4013 0.91047 0.16127 0.0
C3782 C 0.39446 0.90125 0.17626 0.0
C3783 C 0.38022 0.88815 0.1735 0.0
O3784 O 0.36542 0.86383 0.18644 0.0
O3785 O 0.35424 0.87648 0.1868 0.0
O3786 O 0.37176 0.89196 0.17751 0.0
O3787 O 0.3835 0.87975 0.17812 0.0
H3788 H 0.36514 0.86637 0.16544 0.0
H3789 H 0.35707 0.86246 0.14886 0.0
H3790 H 0.3283 0.85654 0.16453 0.0
H3791 H 0.33661 0.85995 0.18106 0.0
H3792 H 0.35593 0.88005 0.23802 0.0
H3793 H 0.35851 0.87835 0.21918 0.0
H3794 H 0.38642 0.89294 0.24089 0.0
H3795 H 0.38892 0.89121 0.22236 0.0
H3796 H 0.4061 0.91304 0.17712 0.0
H3797 H 0.3943 0.90597 0.1467 0.0
H3798 H 0.38307 0.89306 0.15403 0.0
H3799 H 0.39431 0.90005 0.18453 0.0
C3800 C 0.16466 0.14375 0.68303 0.0
C3801 C 0.16229 0.13883 0.67366 0.0
C3802 C 0.17659 0.14758 0.66513 0.0
C3803 C 0.16819 0.14071 0.66481 0.0
C3804 C 0.17853 0.15294 0.67439 0.0
C3805 C 0.17263 0.15103 0.68324 0.0
U3806 U 0.14293 0.12971 0.69652 0.0
O3807 O 0.14318 0.11844 0.70918 0.0
O3808 O 0.13406 0.13268 0.71078 0.0
C3809 C 0.13692 0.12389 0.71498 0.0
C3810 C 0.1595 0.14065 0.69272 0.0
C3811 C 0.13834 0.12338 0.72627 0.0
C3812 C 0.14871 0.12385 0.74196 0.0
C3813 C 0.14764 0.12571 0.73129 0.0
C3814 C 0.13119 0.11754 0.74257 0.0
C3815 C 0.14054 0.11948 0.74764 0.0
C3816 C 0.13012 0.11948 0.73205 0.0
C3817 C 0.12389 0.11768 0.67612 0.0
C3818 C 0.10945 0.10582 0.67769 0.0
C3819 C 0.1157 0.11083 0.66081 0.0
C3820 C 0.12307 0.11708 0.66539 0.0
C3821 C 0.10881 0.10503 0.66684 0.0
C3822 C 0.11698 0.11211 0.68232 0.0
C3823 C 0.13252 0.12372 0.68023 0.0
O3824 O 0.15048 0.14487 0.69456 0.0
O3825 O 0.15967 0.13069 0.6946 0.0
O3826 O 0.14029 0.11851 0.68407 0.0
O3827 O 0.13042 0.13225 0.6853 0.0
H3828 H 0.15613 0.13321 0.67329 0.0
H3829 H 0.16648 0.13638 0.65787 0.0
H3830 H 0.18477 0.15845 0.67487 0.0
H3831 H 0.17453 0.15498 0.69036 0.0
H3832 H 0.156 0.12545 0.74567 0.0
H3833 H 0.15411 0.1287 0.72695 0.0
H3834 H 0.12469 0.11439 0.74673 0.0
H3835 H 0.12289 0.11762 0.72834 0.0
H3836 H 0.10426 0.10148 0.68258 0.0
H3837 H 0.11573 0.11023 0.65247 0.0
H3838 H 0.1284 0.12125 0.66049 0.0
H3839 H 0.11752 0.11247 0.69066 0.0
C3840 C 0.10959 0.1622 0.34579 0.0
C3841 C 0.10023 0.16409 0.3509 0.0
C3842 C 0.09633 0.17425 0.3509 0.0
C3843 C 0.10213 0.18241 0.34678 0.0
H3844 H 0.10521 0.21241 0.32849 0.0
H3845 H 0.10005 0.22978 0.32351 0.0
H3846 H 0.13025 0.24111 0.33162 0.0
H3847 H 0.13551 0.22375 0.33614 0.0
H3848 H 0.15037 0.2102 0.35004 0.0
H3849 H 0.16586 0.20779 0.3604 0.0
H3850 H 0.15971 0.17508 0.36212 0.0
H3851 H 0.14422 0.17745 0.35198 0.0
H3852 H 0.12296 0.16867 0.33868 0.0
H3853 H 0.11271 0.15446 0.3453 0.0
H3854 H 0.08916 0.17604 0.35476 0.0
H3855 H 0.0993 0.19023 0.34758 0.0
N3856 N 0.11664 0.19841 0.33735 0.0
N3857 N 0.13323 0.20477 0.34091 0.0
N3858 N 0.12902 0.18773 0.34503 0.0
C3859 C 0.12363 0.20628 0.33696 0.0
C3860 C 0.13597 0.1955 0.34496 0.0
C3861 C 0.1194 0.18906 0.34128 0.0
C3862 C 0.12071 0.21665 0.33294 0.0
C3863 C 0.11079 0.21858 0.32909 0.0
C3864 C 0.10782 0.22859 0.32628 0.0
C3865 C 0.11465 0.23698 0.32733 0.0
C3866 C 0.12475 0.23492 0.33062 0.0
C3867 C 0.12775 0.22491 0.33335 0.0
C3868 C 0.14598 0.19404 0.35023 0.0
C3869 C 0.15237 0.20248 0.35255 0.0
C3870 C 0.16125 0.2011 0.3585 0.0
C3871 C 0.16393 0.19126 0.36222 0.0
C3872 C 0.15772 0.1828 0.3596 0.0
C3873 C 0.14887 0.18416 0.35369 0.0
C3874 C 0.11196 0.18055 0.3427 0.0
C3875 C 0.11543 0.17033 0.34187 0.0
C3876 C 0.05731 0.92047 0.62378 0.0
C3877 C 0.04846 0.92581 0.62682 0.0
C3878 C 0.03879 0.92221 0.6235 0.0
C3879 C 0.03803 0.91315 0.61757 0.0
H3880 H 0.01841 0.89229 0.60064 0.0
H3881 H 1.0023 0.88351 0.59667 0.0
H3882 H 0.01912 0.85575 0.58924 0.0
H3883 H 0.03518 0.8644 0.59332 0.0
H3884 H 0.05951 0.86229 0.59883 0.0
H3885 H 0.07565 0.85276 0.60143 0.0
H3886 H 0.08985 0.88052 0.6132 0.0
H3887 H 0.07424 0.88992 0.6104 0.0
H3888 H 0.06368 0.90772 0.6158 0.0
H3889 H 0.06488 0.9232 0.62597 0.0
H3890 H 0.03183 0.92625 0.6257 0.0
H3891 H 0.0305 0.91035 0.61535 0.0
N3892 N 0.03772 0.89342 0.60562 0.0
N3893 N 0.04683 0.87849 0.60056 0.0
N3894 N 0.05539 0.89211 0.60857 0.0
C3895 C 0.03782 0.88387 0.60112 0.0
C3896 C 0.05567 0.88264 0.60425 0.0
C3897 C 0.04659 0.89759 0.60933 0.0
C3898 C 0.02811 0.87901 0.59752 0.0
C3899 C 0.0187 0.88434 0.59807 0.0
C3900 C 0.00945 0.87933 0.59571 0.0
C3901 C 0.00942 0.86888 0.59278 0.0
C3902 C 0.01887 0.86374 0.59166 0.0
C3903 C 0.02809 0.86874 0.59399 0.0
C3904 C 0.06551 0.87686 0.60447 0.0
C3905 C 0.06617 0.86636 0.60177 0.0
C3906 C 0.07539 0.8609 0.60328 0.0
C3907 C 0.08407 0.8659 0.60743 0.0
C3908 C 0.08344 0.87646 0.60973 0.0
C3909 C 0.07435 0.88185 0.60823 0.0
C3910 C 0.04695 0.90765 0.61481 0.0
C3911 C 0.05659 0.91158 0.61785 0.0
C3912 C 0.36587 0.83687 0.85863 0.0
C3913 C 0.35661 0.83317 0.85449 0.0
C3914 C 0.35671 0.82338 0.84964 0.0
C3915 C 0.36574 0.81736 0.84932 0.0
H3916 H 0.38169 0.78761 0.83965 0.0
H3917 H 0.38457 0.76969 0.83401 0.0
H3918 H 0.41256 0.76873 0.85189 0.0
H3919 H 0.40988 0.78627 0.85732 0.0
H3920 H 0.41907 0.80459 0.86922 0.0
H3921 H 0.43088 0.81194 0.88214 0.0
H3922 H 0.41254 0.83964 0.88322 0.0
H3923 H 0.40095 0.83261 0.87042 0.0
H3924 H 0.38164 0.83426 0.8617 0.0
H3925 H 0.36621 0.8442 0.86263 0.0
H3926 H 0.34979 0.8203 0.84618 0.0
H3927 H 0.36549 0.80979 0.8458 0.0
N3928 N 0.38533 0.80485 0.85087 0.0
N3929 N 0.4019 0.80368 0.85825 0.0
N3930 N 0.39232 0.8187 0.86017 0.0
C3931 C 0.39418 0.79933 0.85261 0.0
C3932 C 0.40103 0.81337 0.86202 0.0
C3933 C 0.38443 0.81467 0.85467 0.0
C3934 C 0.39555 0.78849 0.84892 0.0
C3935 C 0.38847 0.78356 0.84233 0.0
C3936 C 0.39011 0.7733 0.83911 0.0
C3937 C 0.39888 0.7678 0.84237 0.0
C3938 C 0.40587 0.77276 0.84898 0.0
C3939 C 0.40425 0.78289 0.85217 0.0
C3940 C 0.40897 0.81794 0.86885 0.0
C3941 C 0.41766 0.81231 0.87211 0.0
C3942 C 0.42441 0.81648 0.87946 0.0
C3943 C 0.42249 0.82627 0.88368 0.0
C3944 C 0.4141 0.83203 0.88012 0.0
C3945 C 0.40746 0.82796 0.87277 0.0
C3946 C 0.37489 0.82104 0.85379 0.0
C3947 C 0.37482 0.831 0.8582 0.0
C3948 C 0.44842 0.09856 0.12692 0.0
C3949 C 0.45718 0.09287 0.12958 0.0
C3950 C 0.46688 0.09636 0.12623 0.0
C3951 C 0.46777 0.10562 0.12065 0.0
H3952 H 0.48766 0.12645 0.10443 0.0
H3953 H 0.50391 0.13474 0.1001 0.0
H3954 H 0.48771 0.16289 0.09273 0.0
H3955 H 0.47151 0.15473 0.09724 0.0
H3956 H 0.44749 0.15779 0.10429 0.0
H3957 H 0.43179 0.16782 0.10773 0.0
H3958 H 0.41727 0.14042 0.1199 0.0
H3959 H 0.43242 0.13055 0.11631 0.0
H3960 H 0.44225 0.11179 0.11957 0.0
H3961 H 0.44082 0.09594 0.12914 0.0
H3962 H 0.47377 0.09206 0.12814 0.0
H3963 H 0.47533 0.1083 0.11841 0.0
N3964 N 0.46838 0.12567 0.10934 0.0
N3965 N 0.45971 0.14116 0.10528 0.0
N3966 N 0.45093 0.12757 0.1131 0.0
C3967 C 0.46851 0.1354 0.10524 0.0
C3968 C 0.45086 0.13723 0.10919 0.0
C3969 C 0.45951 0.12172 0.11325 0.0
C3970 C 0.47826 0.13997 0.10141 0.0
C3971 C 0.48754 0.13438 0.1018 0.0
C3972 C 0.49686 0.13911 0.09923 0.0
C3973 C 0.49713 0.14954 0.09621 0.0
C3974 C 0.4878 0.15492 0.09524 0.0
C3975 C 0.47849 0.15021 0.0978 0.0
C3976 C 0.44128 0.14337 0.11006 0.0
C3977 C 0.44085 0.15392 0.10751 0.0
C3978 C 0.43189 0.15966 0.1095 0.0
C3979 C 0.42324 0.15489 0.11398 0.0
C3980 C 0.42365 0.14431 0.11618 0.0
C3981 C 0.43247 0.13864 0.11421 0.0
C3982 C 0.45895 0.11145 0.11829 0.0
C3983 C 0.44927 0.10766 0.12135 0.0
C3984 C 0.10956 0.84892 0.16547 0.0
C3985 C 0.10019 0.84702 0.16037 0.0
C3986 C 0.09628 0.83687 0.16041 0.0
C3987 C 0.10209 0.82872 0.16455 0.0
H3988 H 0.10521 0.79872 0.18282 0.0
H3989 H 0.10006 0.78136 0.18779 0.0
H3990 H 0.13025 0.77002 0.17967 0.0
H3991 H 0.13551 0.78737 0.17515 0.0
H3992 H 0.15037 0.80094 0.16125 0.0
H3993 H 0.16585 0.80334 0.15089 0.0
H3994 H 0.15967 0.83606 0.14918 0.0
H3995 H 0.14418 0.83368 0.15931 0.0
H3996 H 0.12294 0.84246 0.17256 0.0
H3997 H 0.11269 0.85665 0.16593 0.0
H3998 H 0.0891 0.83508 0.15658 0.0
H3999 H 0.09926 0.82089 0.16378 0.0
N4000 N 0.11663 0.81271 0.17394 0.0
N4001 N 0.13322 0.80636 0.17038 0.0
N4002 N 0.129 0.82339 0.16626 0.0
C4003 C 0.12363 0.80485 0.17433 0.0
C4004 C 0.13595 0.81562 0.16633 0.0
C4005 C 0.11938 0.82206 0.17001 0.0
C4006 C 0.12071 0.79447 0.17835 0.0
C4007 C 0.1108 0.79255 0.18221 0.0
C4008 C 0.10783 0.78255 0.18502 0.0
C4009 C 0.11465 0.77415 0.18396 0.0
C4010 C 0.12476 0.77621 0.18067 0.0
C4011 C 0.12775 0.78622 0.17795 0.0
C4012 C 0.14597 0.81709 0.16106 0.0
C4013 C 0.15236 0.80865 0.15874 0.0
C4014 C 0.16123 0.81003 0.1528 0.0
C4015 C 0.16391 0.81988 0.14907 0.0
C4016 C 0.1577 0.82834 0.15169 0.0
C4017 C 0.14885 0.82697 0.1576 0.0
C4018 C 0.11193 0.83057 0.16859 0.0
C4019 C 0.11541 0.84079 0.1694 0.0
C4020 C 0.4484 0.91256 0.38438 0.0
C4021 C 0.45717 0.91824 0.38172 0.0
C4022 C 0.46687 0.91476 0.38508 0.0
C4023 C 0.46776 0.9055 0.39066 0.0
H4024 H 0.48765 0.88467 0.40689 0.0
H4025 H 0.5039 0.87637 0.41122 0.0
H4026 H 0.48771 0.84822 0.41857 0.0
H4027 H 0.47151 0.85638 0.41406 0.0
H4028 H 0.44749 0.85333 0.40702 0.0
H4029 H 0.4318 0.8433 0.40358 0.0
H4030 H 0.41726 0.8707 0.39139 0.0
H4031 H 0.43241 0.88057 0.39498 0.0
H4032 H 0.44224 0.89933 0.39172 0.0
H4033 H 0.44081 0.91518 0.38215 0.0
H4034 H 0.47376 0.91905 0.38317 0.0
H4035 H 0.47532 0.90281 0.3929 0.0
N4036 N 0.46837 0.88544 0.40197 0.0
N4037 N 0.4597 0.86995 0.40602 0.0
N4038 N 0.45092 0.88355 0.3982 0.0
C4039 C 0.4685 0.87572 0.40607 0.0
C4040 C 0.45085 0.87389 0.40211 0.0
C4041 C 0.4595 0.8894 0.39806 0.0
C4042 C 0.47825 0.87115 0.40991 0.0
C4043 C 0.48752 0.87673 0.40952 0.0
C4044 C 0.49685 0.872 0.41209 0.0
C4045 C 0.49713 0.86158 0.4151 0.0
C4046 C 0.4878 0.85619 0.41607 0.0
C4047 C 0.47849 0.86091 0.41351 0.0
C4048 C 0.44127 0.86775 0.40124 0.0
C4049 C 0.44085 0.8572 0.40379 0.0
C4050 C 0.43189 0.85147 0.4018 0.0
C4051 C 0.42324 0.85623 0.39732 0.0
C4052 C 0.42364 0.86681 0.39511 0.0
C4053 C 0.43247 0.87248 0.39708 0.0
C4054 C 0.45894 0.89967 0.39302 0.0
C4055 C 0.44926 0.90346 0.38995 0.0
C4056 C 0.36575 0.17348 0.65254 0.0
C4057 C 0.35655 0.17709 0.65691 0.0
C4058 C 0.35671 0.18675 0.662 0.0
C4059 C 0.36574 0.19275 0.66233 0.0
H4060 H 0.38137 0.2222 0.6724 0.0
H4061 H 0.38406 0.23999 0.67854 0.0
H4062 H 0.41231 0.24153 0.66114 0.0
H4063 H 0.40979 0.22413 0.65517 0.0
H4064 H 0.41885 0.20615 0.64227 0.0
H4065 H 0.43072 0.19902 0.62926 0.0
H4066 H 0.41252 0.17127 0.62775 0.0
H4067 H 0.40088 0.17807 0.64063 0.0
H4068 H 0.38148 0.17619 0.64929 0.0
H4069 H 0.36602 0.16624 0.64837 0.0
H4070 H 0.34984 0.18975 0.66562 0.0
H4071 H 0.36554 0.20023 0.66605 0.0
N4072 N 0.38524 0.2053 0.66089 0.0
N4073 N 0.40174 0.20674 0.65343 0.0
N4074 N 0.3922 0.19174 0.65115 0.0
C4075 C 0.39404 0.2109 0.65925 0.0
C4076 C 0.40088 0.19715 0.64938 0.0
C4077 C 0.38434 0.19559 0.65681 0.0
C4078 C 0.39536 0.22163 0.6633 0.0
C4079 C 0.38816 0.22635 0.66993 0.0
C4080 C 0.3897 0.23654 0.67345 0.0
C4081 C 0.39849 0.24215 0.67045 0.0
C4082 C 0.4056 0.23739 0.66383 0.0
C4083 C 0.40408 0.22734 0.66034 0.0
C4084 C 0.40882 0.19275 0.64243 0.0
C4085 C 0.41748 0.19847 0.63926 0.0
C4086 C 0.42426 0.19443 0.63185 0.0
C4087 C 0.4224 0.18468 0.6275 0.0
C4088 C 0.41403 0.17885 0.63096 0.0
C4089 C 0.40736 0.18279 0.63835 0.0
C4090 C 0.37482 0.18919 0.65764 0.0
C4091 C 0.3747 0.17935 0.65297 0.0
C4092 C 0.05717 0.09062 0.88756 0.0
C4093 C 0.0483 0.08527 0.88461 0.0
C4094 C 0.03865 0.08889 0.88797 0.0
C4095 C 0.03794 0.09798 0.89387 0.0
H4096 H 0.01838 0.11886 0.91076 0.0
H4097 H 1.00228 0.12766 0.91472 0.0
H4098 H 0.0191 0.15543 0.92209 0.0
H4099 H 0.03515 0.14676 0.91801 0.0
H4100 H 0.05948 0.14881 0.91255 0.0
H4101 H 0.07561 0.15834 0.90997 0.0
H4102 H 0.0898 0.13062 0.89809 0.0
H4103 H 0.07418 0.12122 0.90086 0.0
H4104 H 0.06359 0.10342 0.89544 0.0
H4105 H 0.06473 0.08789 0.88533 0.0
H4106 H 0.03168 0.08485 0.88584 0.0
H4107 H 0.03042 0.10077 0.89614 0.0
N4108 N 0.03768 0.11772 0.90575 0.0
N4109 N 0.0468 0.13265 0.91079 0.0
N4110 N 0.05534 0.11901 0.90277 0.0
C4111 C 0.03779 0.12728 0.91024 0.0
C4112 C 0.05563 0.12849 0.90708 0.0
C4113 C 0.04653 0.11354 0.90203 0.0
C4114 C 0.02808 0.13214 0.91385 0.0
C4115 C 0.01867 0.12682 0.91332 0.0
C4116 C 0.00943 0.13183 0.91568 0.0
C4117 C 0.0094 0.14229 0.91858 0.0
C4118 C 0.01885 0.14743 0.91968 0.0
C4119 C 0.02807 0.14242 0.91736 0.0
C4120 C 0.06547 0.13426 0.90685 0.0
C4121 C 0.06613 0.14475 0.90959 0.0
C4122 C 0.07534 0.15021 0.90809 0.0
C4123 C 0.08402 0.14522 0.90391 0.0
C4124 C 0.08339 0.13467 0.90157 0.0
C4125 C 0.0743 0.12928 0.90306 0.0
C4126 C 0.04687 0.10348 0.89656 0.0
C4127 C 0.05648 0.09955 0.89345 0.0
C4128 C 0.36387 0.13726 0.18407 0.0
C4129 C 0.3629 0.14749 0.18755 0.0
C4130 C 0.36221 0.1493 0.19825 0.0
C4131 C 0.363 0.14116 0.20528 0.0
H4132 H 0.36247 0.13398 0.23673 0.0
H4133 H 0.36314 0.1372 0.25537 0.0
H4134 H 0.37507 0.1065 0.26016 0.0
H4135 H 0.37449 0.10326 0.24172 0.0
H4136 H 0.38661 0.09251 0.22306 0.0
H4137 H 0.39871 0.07992 0.21584 0.0
H4138 H 0.38826 0.08729 0.18515 0.0
H4139 H 0.37633 0.09998 0.1922 0.0
H4140 H 0.36581 0.12139 0.18812 0.0
H4141 H 0.3642 0.13553 0.1759 0.0
H4142 H 0.36158 0.15708 0.20124 0.0
H4143 H 0.36286 0.14291 0.21346 0.0
N4144 N 0.36601 0.12403 0.21955 0.0
N4145 N 0.37361 0.10787 0.22258 0.0
N4146 N 0.37142 0.11377 0.20566 0.0
C4147 C 0.36917 0.11663 0.22631 0.0
C4148 C 0.37472 0.10636 0.21226 0.0
C4149 C 0.36705 0.12261 0.20919 0.0
C4150 C 0.36857 0.1184 0.23766 0.0
C4151 C 0.36514 0.12788 0.24177 0.0
C4152 C 0.36548 0.12973 0.25245 0.0
C4153 C 0.36931 0.12217 0.25921 0.0
C4154 C 0.37228 0.11257 0.25513 0.0
C4155 C 0.37191 0.1107 0.24453 0.0
C4156 C 0.38058 0.09739 0.20821 0.0
C4157 C 0.38671 0.09131 0.21479 0.0
C4158 C 0.39362 0.08409 0.21069 0.0
C4159 C 0.39432 0.08267 0.19998 0.0
C4160 C 0.38773 0.08819 0.19345 0.0
C4161 C 0.38095 0.0955 0.19751 0.0
C4162 C 0.3646 0.13101 0.2018 0.0
C4163 C 0.36474 0.12913 0.1911 0.0
C4164 C 0.11567 0.10809 0.42427 0.0
C4165 C 0.10637 0.10406 0.42802 0.0
C4166 C 0.10642 0.09935 0.43787 0.0
C4167 C 0.11542 0.09912 0.44393 0.0
H4168 H 0.13144 0.08953 0.47369 0.0
H4169 H 0.13441 0.08381 0.49157 0.0
H4170 H 0.16244 0.10163 0.49245 0.0
H4171 H 0.15967 0.10712 0.47496 0.0
H4172 H 0.16938 0.11795 0.456 0.0
H4173 H 0.18163 0.13033 0.44859 0.0
H4174 H 0.16108 0.13547 0.42297 0.0
H4175 H 0.14901 0.12319 0.4301 0.0
H4176 H 0.13143 0.11115 0.4269 0.0
H4177 H 0.11605 0.11197 0.41689 0.0
H4178 H 0.09947 0.09598 0.44098 0.0
H4179 H 0.11513 0.09575 0.45157 0.0
N4180 N 0.13504 0.10071 0.45643 0.0
N4181 N 0.15137 0.10855 0.45775 0.0
N4182 N 0.14174 0.11049 0.44277 0.0
C4183 C 0.14382 0.10262 0.462 0.0
C4184 C 0.15038 0.11252 0.44815 0.0
C4185 C 0.13404 0.10466 0.44668 0.0
C4186 C 0.1453 0.09878 0.47278 0.0
C4187 C 0.13825 0.09217 0.47771 0.0
C4188 C 0.13994 0.0889 0.48796 0.0
C4189 C 0.14875 0.09214 0.49342 0.0
C4190 C 0.15572 0.09873 0.48845 0.0
C4191 C 0.15405 0.10197 0.47834 0.0
C4192 C 0.15817 0.11958 0.44369 0.0
C4193 C 0.16751 0.12169 0.44877 0.0
C4194 C 0.17451 0.12876 0.44455 0.0
C4195 C 0.17219 0.13393 0.4353 0.0
C4196 C 0.16296 0.13172 0.4302 0.0
C4197 C 0.15607 0.12461 0.4343 0.0
C4198 C 0.12458 0.10353 0.44023 0.0
C4199 C 0.12458 0.10773 0.43019 0.0
C4200 C 0.1201 0.93081 0.68943 0.0
C4201 C 0.11313 0.93549 0.69622 0.0
C4202 C 0.11387 0.93349 0.70684 0.0
C4203 C 0.12122 0.92651 0.71056 0.0
H4204 H 0.1335 0.91361 0.73674 0.0
H4205 H 0.13337 0.90934 0.75497 0.0
H4206 H 0.14934 0.88085 0.74863 0.0
H4207 H 0.14951 0.88508 0.73019 0.0
H4208 H 0.14754 0.87643 0.70649 0.0
H4209 H 0.1488 0.86286 0.69359 0.0
H4210 H 0.14484 0.88545 0.66937 0.0
H4211 H 0.14327 0.89898 0.68228 0.0
H4212 H 0.13225 0.91989 0.68757 0.0
H4213 H 0.11954 0.93216 0.68119 0.0
H4214 H 0.10849 0.93699 0.71218 0.0
H4215 H 0.12136 0.92481 0.71874 0.0
N4216 N 0.13555 0.91055 0.71743 0.0
N4217 N 0.14389 0.89494 0.71353 0.0
N4218 N 0.13768 0.9055 0.70022 0.0
C4219 C 0.14051 0.90187 0.72067 0.0
C4220 C 0.14254 0.89675 0.70327 0.0
C4221 C 0.13416 0.91244 0.70721 0.0
C4222 C 0.14139 0.89963 0.73191 0.0
C4223 C 0.13707 0.90645 0.73915 0.0
C4224 C 0.13696 0.904 0.74964 0.0
C4225 C 0.14121 0.8947 0.75321 0.0
C4226 C 0.146 0.88807 0.74609 0.0
C4227 C 0.14605 0.89049 0.73552 0.0
C4228 C 0.14514 0.88878 0.69545 0.0
C4229 C 0.14712 0.87854 0.69841 0.0
C4230 C 0.14789 0.87075 0.69098 0.0
C4231 C 0.14679 0.87302 0.68041 0.0
C4232 C 0.14549 0.88337 0.67744 0.0
C4233 C 0.14464 0.89115 0.68486 0.0
C4234 C 0.12776 0.92125 0.70367 0.0
C4235 C 0.12732 0.92373 0.6931 0.0
C4236 C 0.3611 0.9142 0.91226 0.0
C4237 C 0.35151 0.90952 0.91419 0.0
C4238 C 0.34771 0.90964 0.92439 0.0
C4239 C 0.35377 0.91345 0.93252 0.0
H4240 H 0.35693 0.93175 0.96196 0.0
H4241 H 0.35151 0.93714 0.97911 0.0
H4242 H 0.38143 0.92903 0.99116 0.0
H4243 H 0.38696 0.92408 0.97399 0.0
H4244 H 0.40282 0.91111 0.96028 0.0
H4245 H 0.41892 0.90164 0.95791 0.0
H4246 H 0.41211 0.89814 0.92548 0.0
H4247 H 0.39608 0.90738 0.92781 0.0
H4248 H 0.37484 0.92063 0.91866 0.0
H4249 H 0.36415 0.91464 0.9045 0.0
H4250 H 0.34038 0.90614 0.92622 0.0
H4251 H 0.35095 0.91281 0.94036 0.0
N4252 N 0.36845 0.9225 0.9484 0.0
N4253 N 0.38503 0.91914 0.95489 0.0
N4254 N 0.38092 0.91473 0.93787 0.0
C4255 C 0.37539 0.92304 0.9563 0.0
C4256 C 0.38785 0.91497 0.94568 0.0
C4257 C 0.37125 0.91844 0.93913 0.0
C4258 C 0.37233 0.92726 0.96656 0.0
C4259 C 0.3624 0.93123 0.96823 0.0
C4260 C 0.35927 0.93428 0.97812 0.0
C4261 C 0.36594 0.93336 0.98666 0.0
C4262 C 0.37605 0.92993 0.98485 0.0
C4263 C 0.37921 0.92696 0.97495 0.0
C4264 C 0.39807 0.90998 0.94426 0.0
C4265 C 0.40479 0.90839 0.95263 0.0
C4266 C 0.41404 0.90296 0.95127 0.0
C4267 C 0.41677 0.89901 0.94153 0.0
C4268 C 0.41017 0.90085 0.93314 0.0
C4269 C 0.40097 0.90625 0.93448 0.0
C4270 C 0.36378 0.91704 0.93061 0.0
C4271 C 0.36721 0.91775 0.92037 0.0
C4272 C 0.36387 0.87387 0.32723 0.0
C4273 C 0.3629 0.86363 0.32375 0.0
C4274 C 0.36221 0.86183 0.31305 0.0
C4275 C 0.36301 0.86997 0.30601 0.0
H4276 H 0.36247 0.87715 0.27456 0.0
H4277 H 0.36315 0.87392 0.25593 0.0
H4278 H 0.37507 0.90462 0.25114 0.0
H4279 H 0.37449 0.90786 0.26957 0.0
H4280 H 0.38661 0.91861 0.28824 0.0
H4281 H 0.3987 0.93119 0.29546 0.0
H4282 H 0.38827 0.92382 0.32615 0.0
H4283 H 0.37633 0.91113 0.3191 0.0
H4284 H 0.36582 0.88974 0.32317 0.0
H4285 H 0.3642 0.87559 0.3354 0.0
H4286 H 0.36158 0.85405 0.31005 0.0
H4287 H 0.36287 0.86822 0.29784 0.0
N4288 N 0.36601 0.8871 0.29175 0.0
N4289 N 0.37361 0.90325 0.28872 0.0
N4290 N 0.37142 0.89735 0.30564 0.0
C4291 C 0.36917 0.89449 0.28499 0.0
C4292 C 0.37472 0.90476 0.29904 0.0
C4293 C 0.36705 0.88851 0.30211 0.0
C4294 C 0.36857 0.89272 0.27364 0.0
C4295 C 0.36515 0.88325 0.26953 0.0
C4296 C 0.36549 0.88139 0.25885 0.0
C4297 C 0.36931 0.88895 0.25209 0.0
C4298 C 0.37228 0.89856 0.25617 0.0
C4299 C 0.37192 0.90042 0.26677 0.0
C4300 C 0.38059 0.91373 0.30309 0.0
C4301 C 0.38671 0.91981 0.29651 0.0
C4302 C 0.39362 0.92703 0.30061 0.0
C4303 C 0.39432 0.92845 0.31132 0.0
C4304 C 0.38773 0.92292 0.31785 0.0
C4305 C 0.38096 0.91561 0.31379 0.0
C4306 C 0.3646 0.88011 0.30949 0.0
C4307 C 0.36474 0.882 0.32019 0.0
C4308 C 0.36122 0.09678 0.599 0.0
C4309 C 0.35162 0.10142 0.59707 0.0
C4310 C 0.3478 0.10128 0.58688 0.0
C4311 C 0.35386 0.0975 0.57874 0.0
H4312 H 0.357 0.07929 0.5493 0.0
H4313 H 0.35155 0.07392 0.53216 0.0
H4314 H 0.38145 0.08205 0.52006 0.0
H4315 H 0.38701 0.08699 0.53722 0.0
H4316 H 0.40289 0.09993 0.55093 0.0
H4317 H 0.41899 0.1094 0.55329 0.0
H4318 H 0.41217 0.11294 0.58573 0.0
H4319 H 0.39614 0.1037 0.5834 0.0
H4320 H 0.37499 0.0904 0.59258 0.0
H4321 H 0.3643 0.09636 0.60675 0.0
H4322 H 0.34045 0.10474 0.58506 0.0
H4323 H 0.35102 0.09812 0.57091 0.0
N4324 N 0.36854 0.08852 0.56284 0.0
N4325 N 0.3851 0.09191 0.55633 0.0
N4326 N 0.38101 0.0963 0.57336 0.0
C4327 C 0.37547 0.088 0.55493 0.0
C4328 C 0.38793 0.09608 0.56554 0.0
C4329 C 0.37135 0.09257 0.57211 0.0
C4330 C 0.37239 0.08379 0.54467 0.0
C4331 C 0.36246 0.07982 0.54301 0.0
C4332 C 0.35932 0.07677 0.53313 0.0
C4333 C 0.36597 0.0777 0.52459 0.0
C4334 C 0.37608 0.08113 0.52638 0.0
C4335 C 0.37925 0.0841 0.53627 0.0
C4336 C 0.39814 0.10108 0.56695 0.0
C4337 C 0.40486 0.10267 0.55858 0.0
C4338 C 0.41411 0.10809 0.55994 0.0
C4339 C 0.41684 0.11205 0.56968 0.0
C4340 C 0.41023 0.11022 0.57807 0.0
C4341 C 0.40104 0.10482 0.57673 0.0
C4342 C 0.36389 0.09394 0.58064 0.0
C4343 C 0.36734 0.09325 0.59088 0.0
C4344 C 0.11995 0.07988 0.82219 0.0
C4345 C 0.11293 0.0753 0.81538 0.0
C4346 C 0.11365 0.07742 0.80478 0.0
C4347 C 0.121 0.08443 0.80112 0.0
H4348 H 0.1344 0.09717 0.77491 0.0
H4349 H 0.13465 0.10149 0.75669 0.0
H4350 H 0.14881 0.1308 0.76364 0.0
H4351 H 0.14866 0.12647 0.78204 0.0
H4352 H 0.14756 0.13436 0.80554 0.0
H4353 H 0.14891 0.1479 0.81841 0.0
H4354 H 0.14441 0.12543 0.84264 0.0
H4355 H 0.14271 0.11191 0.82973 0.0
H4356 H 0.13213 0.09076 0.82413 0.0
H4357 H 0.11942 0.07844 0.83042 0.0
H4358 H 0.10825 0.074 0.79942 0.0
H4359 H 0.12111 0.08622 0.79296 0.0
N4360 N 0.13539 0.10044 0.79437 0.0
N4361 N 0.14368 0.11602 0.79846 0.0
N4362 N 0.13742 0.10535 0.81165 0.0
C4363 C 0.14035 0.10915 0.79124 0.0
C4364 C 0.14228 0.11413 0.8087 0.0
C4365 C 0.13395 0.09846 0.80458 0.0
C4366 C 0.14138 0.11151 0.78003 0.0
C4367 C 0.13764 0.10452 0.77262 0.0
C4368 C 0.13776 0.10701 0.76214 0.0
C4369 C 0.14161 0.11656 0.75872 0.0
C4370 C 0.14579 0.12338 0.76603 0.0
C4371 C 0.14565 0.1209 0.77658 0.0
C4372 C 0.14486 0.12205 0.81656 0.0
C4373 C 0.14702 0.13226 0.81361 0.0
C4374 C 0.14786 0.14004 0.82104 0.0
C4375 C 0.14666 0.13781 0.8316 0.0
C4376 C 0.14515 0.12749 0.83458 0.0
C4377 C 0.14423 0.11971 0.82715 0.0
C4378 C 0.12757 0.0896 0.80804 0.0
C4379 C 0.12717 0.08698 0.81858 0.0
C4380 C 0.11565 0.90302 0.08697 0.0
C4381 C 0.10636 0.90705 0.08322 0.0
C4382 C 0.10641 0.91177 0.07337 0.0
C4383 C 0.11541 0.912 0.06731 0.0
H4384 H 0.13139 0.92154 0.03754 0.0
H4385 H 0.13436 0.92724 0.01966 0.0
H4386 H 0.16247 0.90954 0.01885 0.0
H4387 H 0.15971 0.90406 0.03634 0.0
H4388 H 0.16938 0.89317 0.05528 0.0
H4389 H 0.18165 0.8808 0.0627 0.0
H4390 H 0.16108 0.87565 0.08831 0.0
H4391 H 0.14899 0.88792 0.08116 0.0
H4392 H 0.13142 0.89996 0.08435 0.0
H4393 H 0.11604 0.89914 0.09435 0.0
H4394 H 0.09946 0.91514 0.07026 0.0
H4395 H 0.11512 0.91537 0.05968 0.0
N4396 N 0.13503 0.91041 0.05483 0.0
N4397 N 0.15137 0.90257 0.05352 0.0
N4398 N 0.14174 0.90062 0.06849 0.0
C4399 C 0.14382 0.90851 0.04927 0.0
C4400 C 0.15037 0.89859 0.06312 0.0
C4401 C 0.13403 0.90646 0.06458 0.0
C4402 C 0.1453 0.91235 0.03849 0.0
C4403 C 0.13822 0.91892 0.03354 0.0
C4404 C 0.13991 0.92218 0.02329 0.0
C4405 C 0.14874 0.91897 0.01784 0.0
C4406 C 0.15574 0.91241 0.02284 0.0
C4407 C 0.15407 0.90919 0.03295 0.0
C4408 C 0.15817 0.89153 0.06758 0.0
C4409 C 0.16751 0.88943 0.06251 0.0
C4410 C 0.17452 0.88237 0.06674 0.0
C4411 C 0.1722 0.8772 0.07599 0.0
C4412 C 0.16296 0.8794 0.08108 0.0
C4413 C 0.15606 0.88651 0.07697 0.0
C4414 C 0.12457 0.90759 0.07102 0.0
C4415 C 0.12457 0.90338 0.08106 0.0
C4416 C 0.19841 0.37683 0.16266 0.0
C4417 C 0.20718 0.37949 0.16834 0.0
C4418 C 0.21688 0.37613 0.16485 0.0
C4419 C 0.21777 0.37055 0.15559 0.0
H4420 H 0.23766 0.35432 0.13476 0.0
H4421 H 0.25391 0.34999 0.12646 0.0
H4422 H 0.23773 0.34263 0.0983 0.0
H4423 H 0.22152 0.34713 0.10646 0.0
H4424 H 0.1975 0.3542 0.10339 0.0
H4425 H 0.18181 0.35765 0.09337 0.0
H4426 H 0.16725 0.36975 0.1208 0.0
H4427 H 0.1824 0.36616 0.13067 0.0
H4428 H 0.19225 0.36949 0.14942 0.0
H4429 H 0.19082 0.37906 0.16527 0.0
H4430 H 0.22377 0.37804 0.16914 0.0
H4431 H 0.22533 0.3683 0.1529 0.0
N4432 N 0.21837 0.35923 0.13553 0.0
N4433 N 0.20971 0.35517 0.12004 0.0
N4434 N 0.20092 0.36299 0.13363 0.0
C4435 C 0.2185 0.35513 0.1258 0.0
C4436 C 0.20086 0.35908 0.12398 0.0
C4437 C 0.2095 0.36314 0.13949 0.0
C4438 C 0.22826 0.35129 0.12123 0.0
C4439 C 0.23753 0.35169 0.12682 0.0
C4440 C 0.24686 0.34912 0.12209 0.0
C4441 C 0.24714 0.34611 0.11166 0.0
C4442 C 0.23781 0.34513 0.10627 0.0
C4443 C 0.2285 0.34769 0.11099 0.0
C4444 C 0.19128 0.35994 0.11783 0.0
C4445 C 0.19086 0.35741 0.10728 0.0
C4446 C 0.1819 0.35941 0.10154 0.0
C4447 C 0.17324 0.36387 0.10631 0.0
C4448 C 0.17364 0.36605 0.1169 0.0
C4449 C 0.18246 0.36408 0.12257 0.0
C4450 C 0.20895 0.36819 0.14976 0.0
C4451 C 0.19927 0.37126 0.15355 0.0
C4452 C 0.69841 0.13429 0.84865 0.0
C4453 C 0.70718 0.13163 0.84297 0.0
C4454 C 0.71687 0.13498 0.84645 0.0
C4455 C 0.71776 0.14057 0.85572 0.0
H4456 H 0.73765 0.1568 0.87655 0.0
H4457 H 0.7539 0.16113 0.88483 0.0
H4458 H 0.73772 0.16849 0.91301 0.0
H4459 H 0.72152 0.16398 0.90485 0.0
H4460 H 0.6975 0.15691 0.90791 0.0
H4461 H 0.68181 0.15346 0.91794 0.0
H4462 H 0.66726 0.14136 0.89051 0.0
H4463 H 0.6824 0.14496 0.88064 0.0
H4464 H 0.69224 0.14164 0.86189 0.0
H4465 H 0.69081 0.13207 0.84603 0.0
H4466 H 0.72376 0.13307 0.84216 0.0
H4467 H 0.72532 0.14281 0.8584 0.0
N4468 N 0.71837 0.15188 0.87578 0.0
N4469 N 0.70971 0.15595 0.89127 0.0
N4470 N 0.70092 0.14813 0.87767 0.0
C4471 C 0.7185 0.15599 0.8855 0.0
C4472 C 0.70086 0.15204 0.88733 0.0
C4473 C 0.7095 0.14797 0.87182 0.0
C4474 C 0.72826 0.15982 0.89007 0.0
C4475 C 0.73752 0.15943 0.88448 0.0
C4476 C 0.74686 0.162 0.88921 0.0
C4477 C 0.74714 0.16501 0.89964 0.0
C4478 C 0.73781 0.16598 0.90503 0.0
C4479 C 0.72849 0.16342 0.90032 0.0
C4480 C 0.69128 0.15118 0.89347 0.0
C4481 C 0.69086 0.1537 0.90403 0.0
C4482 C 0.6819 0.1517 0.90977 0.0
C4483 C 0.67325 0.14724 0.905 0.0
C4484 C 0.67364 0.14506 0.8944 0.0
C4485 C 0.68246 0.14704 0.88873 0.0
C4486 C 0.70894 0.14293 0.86155 0.0
C4487 C 0.69926 0.13987 0.85776 0.0
C4488 C 0.11386 0.434 0.12397 0.0
C4489 C 0.11289 0.43747 0.11374 0.0
C4490 C 0.1122 0.44816 0.11193 0.0
C4491 C 0.113 0.45521 0.12007 0.0
H4492 H 0.11246 0.48666 0.12725 0.0
H4493 H 0.11312 0.50529 0.12401 0.0
H4494 H 0.12512 0.51012 0.15469 0.0
H4495 H 0.12455 0.49169 0.15794 0.0
H4496 H 0.13664 0.473 0.16872 0.0
H4497 H 0.14872 0.46576 0.18131 0.0
H4498 H 0.13824 0.4351 0.17392 0.0
H4499 H 0.12632 0.44215 0.16123 0.0
H4500 H 0.11582 0.43807 0.13984 0.0
H4501 H 0.1142 0.42583 0.1257 0.0
H4502 H 0.11156 0.45115 0.10415 0.0
H4503 H 0.11285 0.46338 0.11832 0.0
N4504 N 0.11602 0.46949 0.1372 0.0
N4505 N 0.12363 0.47253 0.15335 0.0
N4506 N 0.12142 0.45561 0.14745 0.0
C4507 C 0.11919 0.47626 0.14459 0.0
C4508 C 0.12473 0.46221 0.15487 0.0
C4509 C 0.11706 0.45913 0.13862 0.0
C4510 C 0.1186 0.4876 0.14282 0.0
C4511 C 0.11515 0.4917 0.13334 0.0
C4512 C 0.11548 0.50238 0.13148 0.0
C4513 C 0.11932 0.50916 0.13903 0.0
C4514 C 0.12232 0.50508 0.14863 0.0
C4515 C 0.12196 0.49448 0.1505 0.0
C4516 C 0.13059 0.45815 0.16384 0.0
C4517 C 0.13673 0.46473 0.16992 0.0
C4518 C 0.14363 0.46062 0.17714 0.0
C4519 C 0.14432 0.44991 0.17856 0.0
C4520 C 0.13772 0.44339 0.17303 0.0
C4521 C 0.13095 0.44746 0.16572 0.0
C4522 C 0.11459 0.45174 0.13022 0.0
C4523 C 0.11474 0.44104 0.1321 0.0
C4524 C 0.80716 0.87365 0.34072 0.0
C4525 C 0.79829 0.87661 0.33537 0.0
C4526 C 0.78864 0.87325 0.33899 0.0
C4527 C 0.78793 0.86735 0.34807 0.0
H4528 H 0.76837 0.85046 0.36895 0.0
H4529 H 0.75228 0.8465 0.37774 0.0
H4530 H 0.76911 0.83913 0.40551 0.0
H4531 H 0.78516 0.84321 0.39684 0.0
H4532 H 0.80948 0.84867 0.3989 0.0
H4533 H 0.82562 0.85124 0.40843 0.0
H4534 H 0.83979 0.86311 0.38071 0.0
H4535 H 0.82418 0.86034 0.3713 0.0
H4536 H 0.81358 0.86577 0.35351 0.0
H4537 H 0.81472 0.87588 0.33799 0.0
H4538 H 0.78167 0.87538 0.33494 0.0
H4539 H 0.78041 0.86508 0.35086 0.0
N4540 N 0.78767 0.85547 0.36781 0.0
N4541 N 0.7968 0.85042 0.38273 0.0
N4542 N 0.80533 0.85844 0.3691 0.0
C4543 C 0.78778 0.85098 0.37736 0.0
C4544 C 0.80563 0.85413 0.37857 0.0
C4545 C 0.79652 0.85919 0.36363 0.0
C4546 C 0.77808 0.84737 0.38223 0.0
C4547 C 0.76867 0.8479 0.3769 0.0
C4548 C 0.75943 0.84554 0.38192 0.0
C4549 C 0.7594 0.84264 0.39237 0.0
C4550 C 0.76885 0.84153 0.39751 0.0
C4551 C 0.77807 0.84386 0.3925 0.0
C4552 C 0.81547 0.85435 0.38435 0.0
C4553 C 0.81613 0.85162 0.39484 0.0
C4554 C 0.82534 0.85312 0.4003 0.0
C4555 C 0.83402 0.85729 0.39531 0.0
C4556 C 0.83339 0.85963 0.38476 0.0
C4557 C 0.8243 0.85814 0.37937 0.0
C4558 C 0.79686 0.86466 0.35357 0.0
C4559 C 0.80647 0.86776 0.34964 0.0
C4560 C 0.87008 0.07188 0.18092 0.0
C4561 C 0.86314 0.06507 0.18561 0.0
C4562 C 0.86393 0.05446 0.18362 0.0
C4563 C 0.87129 0.05076 0.17665 0.0
H4564 H 0.88361 0.02463 0.16379 0.0
H4565 H 0.8834 0.0064 0.15952 0.0
H4566 H 0.89923 0.01267 0.13095 0.0
H4567 H 0.89948 0.03111 0.13518 0.0
H4568 H 0.89757 0.0548 0.12656 0.0
H4569 H 0.89881 0.06768 0.11298 0.0
H4570 H 0.89484 0.09193 0.13554 0.0
H4571 H 0.89329 0.07905 0.14908 0.0
H4572 H 0.88223 0.07377 0.17 0.0
H4573 H 0.86949 0.08012 0.18226 0.0
H4574 H 0.85857 0.04911 0.18712 0.0
H4575 H 0.87146 0.04258 0.17496 0.0
N4576 N 0.88561 0.04391 0.16069 0.0
N4577 N 0.89393 0.04779 0.14507 0.0
N4578 N 0.88772 0.06111 0.15563 0.0
C4579 C 0.89056 0.04066 0.15201 0.0
C4580 C 0.89258 0.05805 0.14688 0.0
C4581 C 0.88421 0.05412 0.16258 0.0
C4582 C 0.89143 0.02942 0.14977 0.0
C4583 C 0.88713 0.0222 0.15662 0.0
C4584 C 0.88698 0.01172 0.15417 0.0
C4585 C 0.89117 0.00813 0.14484 0.0
C4586 C 0.89594 0.01523 0.13819 0.0
C4587 C 0.89603 0.02579 0.14061 0.0
C4588 C 0.89516 0.06585 0.1389 0.0
C4589 C 0.89714 0.06288 0.12866 0.0
C4590 C 0.8979 0.0703 0.12086 0.0
C4591 C 0.8968 0.08087 0.12312 0.0
C4592 C 0.8955 0.08386 0.13347 0.0
C4593 C 0.89466 0.07645 0.14126 0.0
C4594 C 0.8778 0.05766 0.17138 0.0
C4595 C 0.87732 0.06823 0.17385 0.0
C4596 C 0.30731 0.63743 0.67056 0.0
C4597 C 0.29845 0.63439 0.6759 0.0
C4598 C 0.28879 0.63771 0.67229 0.0
C4599 C 0.28803 0.64364 0.66323 0.0
H4600 H 0.26841 0.66058 0.64238 0.0
H4601 H 0.25231 0.66455 0.6336 0.0
H4602 H 0.26912 0.67198 0.60584 0.0
H4603 H 0.28518 0.66789 0.61449 0.0
H4604 H 0.30951 0.66238 0.61239 0.0
H4605 H 0.32565 0.65979 0.60286 0.0
H4606 H 0.33985 0.64801 0.63061 0.0
H4607 H 0.32424 0.6508 0.64002 0.0
H4608 H 0.31368 0.64539 0.6578 0.0
H4609 H 0.31488 0.63523 0.67329 0.0
H4610 H 0.28183 0.63553 0.67633 0.0
H4611 H 0.28051 0.64587 0.66044 0.0
N4612 N 0.28773 0.65559 0.64351 0.0
N4613 N 0.29683 0.66065 0.62858 0.0
N4614 N 0.30539 0.65264 0.64221 0.0
C4615 C 0.28782 0.66009 0.63396 0.0
C4616 C 0.30568 0.65696 0.63273 0.0
C4617 C 0.29659 0.65188 0.64768 0.0
C4618 C 0.27811 0.6637 0.62911 0.0
C4619 C 0.2687 0.66315 0.63444 0.0
C4620 C 0.25946 0.66551 0.62943 0.0
C4621 C 0.25942 0.66844 0.61897 0.0
C4622 C 0.26887 0.66955 0.61384 0.0
C4623 C 0.27809 0.66723 0.61884 0.0
C4624 C 0.31551 0.65674 0.62696 0.0
C4625 C 0.31617 0.65944 0.61646 0.0
C4626 C 0.32538 0.65793 0.611 0.0
C4627 C 0.33407 0.65378 0.61599 0.0
C4628 C 0.33344 0.65148 0.62655 0.0
C4629 C 0.32436 0.65298 0.63195 0.0
C4630 C 0.29696 0.6464 0.65774 0.0
C4631 C 0.30659 0.64335 0.66166 0.0
C4632 C 0.11386 0.57712 0.38733 0.0
C4633 C 0.1129 0.57365 0.39757 0.0
C4634 C 0.11221 0.56296 0.39938 0.0
C4635 C 0.11301 0.55592 0.39124 0.0
H4636 H 0.11247 0.52446 0.38406 0.0
H4637 H 0.11312 0.50584 0.38729 0.0
H4638 H 0.12513 0.501 0.35662 0.0
H4639 H 0.12457 0.51943 0.35337 0.0
H4640 H 0.13665 0.53812 0.34259 0.0
H4641 H 0.14874 0.54536 0.33001 0.0
H4642 H 0.13825 0.57603 0.3374 0.0
H4643 H 0.12632 0.56897 0.35008 0.0
H4644 H 0.11581 0.57305 0.37146 0.0
H4645 H 0.11419 0.58529 0.3856 0.0
H4646 H 0.11158 0.55997 0.40716 0.0
H4647 H 0.11287 0.54775 0.39299 0.0
N4648 N 0.11603 0.54163 0.37411 0.0
N4649 N 0.12365 0.53859 0.35795 0.0
N4650 N 0.12143 0.55551 0.36386 0.0
C4651 C 0.1192 0.53486 0.36672 0.0
C4652 C 0.12474 0.54891 0.35644 0.0
C4653 C 0.11706 0.55199 0.37269 0.0
C4654 C 0.11861 0.52352 0.36849 0.0
C4655 C 0.11516 0.51942 0.37796 0.0
C4656 C 0.11549 0.50874 0.37982 0.0
C4657 C 0.11932 0.50196 0.37227 0.0
C4658 C 0.12233 0.50603 0.36268 0.0
C4659 C 0.12198 0.51664 0.36081 0.0
C4660 C 0.1306 0.55297 0.34748 0.0
C4661 C 0.13674 0.54639 0.34139 0.0
C4662 C 0.14364 0.5505 0.33417 0.0
C4663 C 0.14433 0.56121 0.33276 0.0
C4664 C 0.13773 0.56773 0.33829 0.0
C4665 C 0.13096 0.56366 0.3456 0.0
C4666 C 0.1146 0.55938 0.38109 0.0
C4667 C 0.11474 0.57008 0.3792 0.0
C4668 C 0.36996 0.439 0.82996 0.0
C4669 C 0.36293 0.44582 0.82539 0.0
C4670 C 0.36365 0.45641 0.82753 0.0
C4671 C 0.371 0.46008 0.83453 0.0
H4672 H 0.38443 0.48628 0.84727 0.0
H4673 H 0.38469 0.5045 0.85158 0.0
H4674 H 0.39881 0.49758 0.88091 0.0
H4675 H 0.39867 0.47918 0.87658 0.0
H4676 H 0.39756 0.45567 0.88447 0.0
H4677 H 0.39892 0.4428 0.89802 0.0
H4678 H 0.3944 0.41857 0.87553 0.0
H4679 H 0.39271 0.43148 0.86201 0.0
H4680 H 0.38215 0.43707 0.84084 0.0
H4681 H 0.36944 0.43078 0.82851 0.0
H4682 H 0.35824 0.46177 0.82412 0.0
H4683 H 0.37111 0.46824 0.83634 0.0
N4684 N 0.3854 0.46682 0.85055 0.0
N4685 N 0.39369 0.46274 0.86613 0.0
N4686 N 0.38743 0.44956 0.85546 0.0
C4687 C 0.39037 0.46996 0.85926 0.0
C4688 C 0.39229 0.45251 0.86424 0.0
C4689 C 0.38396 0.45662 0.84856 0.0
C4690 C 0.3914 0.48118 0.86162 0.0
C4691 C 0.38767 0.48857 0.85462 0.0
C4692 C 0.38778 0.49906 0.85711 0.0
C4693 C 0.39163 0.50249 0.86666 0.0
C4694 C 0.39581 0.49518 0.87349 0.0
C4695 C 0.39567 0.48463 0.87101 0.0
C4696 C 0.39487 0.44465 0.87216 0.0
C4697 C 0.39703 0.4476 0.88237 0.0
C4698 C 0.39787 0.44018 0.89015 0.0
C4699 C 0.39666 0.42961 0.88792 0.0
C4700 C 0.39515 0.42664 0.87759 0.0
C4701 C 0.39423 0.43406 0.86981 0.0
C4702 C 0.37758 0.45316 0.8397 0.0
C4703 C 0.37718 0.44262 0.83707 0.0
C4704 C 0.85561 0.81521 0.62657 0.0
C4705 C 0.84647 0.80944 0.62701 0.0
C4706 C 0.84668 0.79962 0.63162 0.0
C4707 C 0.85587 0.79554 0.63543 0.0
H4708 H 0.86834 0.76891 0.64651 0.0
H4709 H 0.86871 0.75014 0.64764 0.0
H4710 H 0.90187 0.75072 0.64615 0.0
H4711 H 0.90156 0.76943 0.64484 0.0
H4712 H 0.91123 0.78855 0.63039 0.0
H4713 H 0.9246 0.79756 0.62051 0.0
H4714 H 0.90957 0.8266 0.6265 0.0
H4715 H 0.8962 0.81773 0.63625 0.0
H4716 H 0.8717 0.81575 0.62973 0.0
H4717 H 0.85568 0.82288 0.62325 0.0
H4718 H 0.83979 0.79495 0.63201 0.0
H4719 H 0.85579 0.78785 0.63869 0.0
N4720 N 0.87545 0.78658 0.64109 0.0
N4721 N 0.8935 0.78706 0.64068 0.0
N4722 N 0.88393 0.80162 0.6359 0.0
C4723 C 0.88464 0.78183 0.6427 0.0
C4724 C 0.89318 0.79702 0.63741 0.0
C4725 C 0.87503 0.79648 0.6377 0.0
C4726 C 0.88492 0.7707 0.64532 0.0
C4727 C 0.87573 0.76507 0.64658 0.0
C4728 C 0.87593 0.7543 0.64731 0.0
C4729 C 0.8853 0.74897 0.64677 0.0
C4730 C 0.89451 0.75464 0.64636 0.0
C4731 C 0.89432 0.76538 0.64563 0.0
C4732 C 0.90258 0.80243 0.63396 0.0
C4733 C 0.91099 0.79689 0.62993 0.0
C4734 C 0.91864 0.80202 0.6243 0.0
C4735 C 0.91806 0.81273 0.62283 0.0
C4736 C 0.9102 0.81834 0.62765 0.0
C4737 C 0.90252 0.81324 0.63316 0.0
C4738 C 0.86508 0.80119 0.63472 0.0
C4739 C 0.86479 0.81114 0.63038 0.0
C4740 C 0.93011 0.11525 0.39805 0.0
C4741 C 0.93382 0.10507 0.3985 0.0
C4742 C 0.94454 0.10352 0.39892 0.0
C4743 C 0.95136 0.11186 0.39828 0.0
H4744 H 0.98297 0.12021 0.39676 0.0
H4745 H 1.00166 0.11817 0.39525 0.0
H4746 H 1.00431 0.15012 0.38629 0.0
H4747 H 0.98584 0.15218 0.38768 0.0
H4748 H 0.96573 0.16157 0.37457 0.0
H4749 H 0.95675 0.17402 0.36344 0.0
H4750 H 0.92794 0.16585 0.37767 0.0
H4751 H 0.93672 0.15353 0.38877 0.0
H4752 H 0.93373 0.13128 0.39672 0.0
H4753 H 0.92193 0.11679 0.39795 0.0
H4754 H 0.9477 0.09579 0.39919 0.0
H4755 H 0.95955 0.11032 0.39816 0.0
N4756 N 0.96511 0.12967 0.39523 0.0
N4757 N 0.9671 0.1463 0.38819 0.0
N4758 N 0.95065 0.13959 0.39098 0.0
C4759 C 0.97139 0.13751 0.39208 0.0
C4760 C 0.95673 0.14741 0.38767 0.0
C4761 C 0.95469 0.13071 0.39475 0.0
C4762 C 0.98281 0.13632 0.39217 0.0
C4763 C 0.98755 0.12682 0.39455 0.0
C4764 C 0.99827 0.12565 0.39373 0.0
C4765 C 1.00447 0.13393 0.39047 0.0
C4766 C 0.99976 0.14352 0.38858 0.0
C4767 C 0.98912 0.14469 0.38941 0.0
C4768 C 0.95193 0.15642 0.38246 0.0
C4769 C 0.95752 0.16265 0.37554 0.0
C4770 C 0.95242 0.16978 0.36919 0.0
C4771 C 0.94169 0.17084 0.36976 0.0
C4772 C 0.93623 0.16518 0.37716 0.0
C4773 C 0.94128 0.15808 0.38346 0.0
C4774 C 0.94764 0.12198 0.39717 0.0
C4775 C 0.93692 0.12359 0.39739 0.0
C4776 C 0.59682 0.20199 0.12756 0.0
C4777 C 0.58916 0.2071 0.12193 0.0
C4778 C 0.58882 0.21792 0.12197 0.0
C4779 C 0.5965 0.22357 0.12704 0.0
H4780 H 0.60622 0.2524 0.13918 0.0
H4781 H 0.60623 0.27116 0.13924 0.0
H4782 H 0.63934 0.27127 0.14168 0.0
H4783 H 0.63939 0.25245 0.14178 0.0
H4784 H 0.65175 0.23255 0.13596 0.0
H4785 H 0.66775 0.22444 0.13051 0.0
H4786 H 0.65136 0.1962 0.12393 0.0
H4787 H 0.63535 0.20431 0.12917 0.0
H4788 H 0.61072 0.20342 0.13624 0.0
H4789 H 0.59727 0.19364 0.1275 0.0
H4790 H 0.58303 0.22197 0.11754 0.0
H4791 H 0.59645 0.2319 0.12642 0.0
N4792 N 0.61399 0.23428 0.13704 0.0
N4793 N 0.63204 0.23451 0.13762 0.0
N4794 N 0.62336 0.21916 0.13389 0.0
C4795 C 0.62293 0.23954 0.13863 0.0
C4796 C 0.63233 0.22431 0.13525 0.0
C4797 C 0.61418 0.22404 0.13481 0.0
C4798 C 0.62281 0.25088 0.14025 0.0
C4799 C 0.6135 0.25637 0.13989 0.0
C4800 C 0.61351 0.26714 0.1399 0.0
C4801 C 0.6228 0.27266 0.14027 0.0
C4802 C 0.63206 0.26721 0.14137 0.0
C4803 C 0.63207 0.25642 0.14135 0.0
C4804 C 0.64223 0.21912 0.13297 0.0
C4805 C 0.65155 0.22459 0.13343 0.0
C4806 C 0.66074 0.21993 0.13032 0.0
C4807 C 0.66082 0.2097 0.1267 0.0
C4808 C 0.65154 0.20415 0.1265 0.0
C4809 C 0.64236 0.2088 0.1296 0.0
C4810 C 0.60471 0.21842 0.1319 0.0
C4811 C 0.60454 0.2076 0.13249 0.0
C4812 C 0.58834 0.88693 0.89667 0.0
C4813 C 0.58572 0.8953 0.90307 0.0
C4814 C 0.57721 0.89416 0.90975 0.0
C4815 C 0.57123 0.88512 0.90964 0.0
H4816 H 0.53862 0.87422 0.91066 0.0
H4817 H 0.52058 0.87281 0.9157 0.0
H4818 H 0.52336 0.83956 0.91588 0.0
H4819 H 0.54111 0.84102 0.91027 0.0
H4820 H 0.55295 0.8362 0.88409 0.0
H4821 H 0.55875 0.82532 0.86959 0.0
H4822 H 0.58909 0.83848 0.87206 0.0
H4823 H 0.58353 0.84912 0.88638 0.0
H4824 H 0.5847 0.87182 0.89139 0.0
H4825 H 0.59469 0.88746 0.8913 0.0
H4826 H 0.57506 0.9003 0.91498 0.0
H4827 H 0.56462 0.88462 0.91469 0.0
N4828 N 0.55768 0.86692 0.90667 0.0
N4829 N 0.55493 0.85077 0.89871 0.0
N4830 N 0.57015 0.85986 0.89571 0.0
C4831 C 0.55163 0.85844 0.90514 0.0
C4832 C 0.56422 0.85144 0.89398 0.0
C4833 C 0.56705 0.86762 0.90199 0.0
C4834 C 0.54123 0.85773 0.90983 0.0
C4835 C 0.53538 0.86662 0.91189 0.0
C4836 C 0.52503 0.8658 0.91485 0.0
C4837 C 0.52034 0.85606 0.91596 0.0
C4838 C 0.52652 0.8472 0.91472 0.0
C4839 C 0.53676 0.84802 0.91156 0.0
C4840 C 0.56773 0.84365 0.88632 0.0
C4841 C 0.5609 0.83659 0.88166 0.0
C4842 C 0.5642 0.83037 0.87339 0.0
C4843 C 0.57433 0.83118 0.8697 0.0
C4844 C 0.58122 0.83779 0.87472 0.0
C4845 C 0.57799 0.84391 0.88293 0.0
C4846 C 0.57368 0.87696 0.90293 0.0
C4847 C 0.58247 0.87791 0.89665 0.0
C4848 C 0.85561 0.19592 0.88473 0.0
C4849 C 0.84646 0.20169 0.88429 0.0
C4850 C 0.84667 0.21151 0.87969 0.0
C4851 C 0.85586 0.21559 0.87587 0.0
H4852 H 0.86831 0.24222 0.8648 0.0
H4853 H 0.86869 0.261 0.86368 0.0
H4854 H 0.90184 0.26039 0.86514 0.0
H4855 H 0.90154 0.24168 0.86644 0.0
H4856 H 0.91121 0.22257 0.8809 0.0
H4857 H 0.92458 0.21356 0.89079 0.0
H4858 H 0.90957 0.18452 0.88479 0.0
H4859 H 0.8962 0.19339 0.87503 0.0
H4860 H 0.8717 0.19537 0.88158 0.0
H4861 H 0.85568 0.18825 0.88805 0.0
H4862 H 0.83977 0.21618 0.8793 0.0
H4863 H 0.85577 0.22328 0.87261 0.0
N4864 N 0.87543 0.22455 0.87021 0.0
N4865 N 0.89348 0.22406 0.87061 0.0
N4866 N 0.88391 0.20951 0.87539 0.0
C4867 C 0.88461 0.22929 0.86859 0.0
C4868 C 0.89316 0.2141 0.87388 0.0
C4869 C 0.87501 0.21465 0.8736 0.0
C4870 C 0.88489 0.24043 0.86598 0.0
C4871 C 0.87571 0.24606 0.86473 0.0
C4872 C 0.8759 0.25683 0.864 0.0
C4873 C 0.88528 0.26215 0.86453 0.0
C4874 C 0.89449 0.25648 0.86494 0.0
C4875 C 0.8943 0.24574 0.86566 0.0
C4876 C 0.90257 0.20869 0.87733 0.0
C4877 C 0.91097 0.21423 0.88136 0.0
C4878 C 0.91863 0.2091 0.88699 0.0
C4879 C 0.91805 0.19839 0.88846 0.0
C4880 C 0.91019 0.19278 0.88364 0.0
C4881 C 0.90252 0.19788 0.87813 0.0
C4882 C 0.86506 0.20994 0.87659 0.0
C4883 C 0.86479 0.19999 0.88092 0.0
C4884 C 0.58838 0.12418 0.61463 0.0
C4885 C 0.58576 0.11582 0.60823 0.0
C4886 C 0.57726 0.11697 0.60154 0.0
C4887 C 0.57129 0.12601 0.60165 0.0
H4888 H 0.5387 0.1369 0.60058 0.0
H4889 H 0.52066 0.1383 0.59552 0.0
H4890 H 0.52338 0.17155 0.59541 0.0
H4891 H 0.54113 0.17011 0.60105 0.0
H4892 H 0.55297 0.17494 0.62721 0.0
H4893 H 0.55876 0.18582 0.64171 0.0
H4894 H 0.58911 0.17264 0.63927 0.0
H4895 H 0.58355 0.162 0.62495 0.0
H4896 H 0.58474 0.1393 0.61992 0.0
H4897 H 0.59473 0.12365 0.62001 0.0
H4898 H 0.57511 0.11083 0.59631 0.0
H4899 H 0.56467 0.12652 0.5966 0.0
N4900 N 0.55774 0.14421 0.60463 0.0
N4901 N 0.55496 0.16036 0.61259 0.0
N4902 N 0.57019 0.15127 0.6156 0.0
C4903 C 0.55168 0.15269 0.60615 0.0
C4904 C 0.56425 0.15968 0.61733 0.0
C4905 C 0.5671 0.14351 0.60931 0.0
C4906 C 0.54128 0.1534 0.60146 0.0
C4907 C 0.53545 0.1445 0.59937 0.0
C4908 C 0.5251 0.14531 0.59639 0.0
C4909 C 0.5204 0.15505 0.59529 0.0
C4910 C 0.52655 0.16391 0.59656 0.0
C4911 C 0.53679 0.1631 0.59973 0.0
C4912 C 0.56775 0.16747 0.62499 0.0
C4913 C 0.56093 0.17454 0.62964 0.0
C4914 C 0.56421 0.18076 0.63792 0.0
C4915 C 0.57434 0.17995 0.64162 0.0
C4916 C 0.58124 0.17333 0.6366 0.0
C4917 C 0.57801 0.16721 0.6284 0.0
C4918 C 0.57373 0.13417 0.60836 0.0
C4919 C 0.58252 0.1332 0.61465 0.0
C4920 C 0.59682 0.80916 0.38374 0.0
C4921 C 0.58916 0.80405 0.38937 0.0
C4922 C 0.58883 0.79323 0.38931 0.0
C4923 C 0.59651 0.78759 0.38424 0.0
H4924 H 0.60622 0.75879 0.37205 0.0
H4925 H 0.60622 0.74003 0.37201 0.0
H4926 H 0.63933 0.73988 0.36965 0.0
H4927 H 0.63939 0.7587 0.36953 0.0
H4928 H 0.65176 0.77859 0.37533 0.0
H4929 H 0.66775 0.78669 0.38079 0.0
H4930 H 0.65136 0.81494 0.38738 0.0
H4931 H 0.63536 0.80684 0.38213 0.0
H4932 H 0.61071 0.80775 0.37506 0.0
H4933 H 0.59725 0.81752 0.38381 0.0
H4934 H 0.58304 0.78917 0.39374 0.0
H4935 H 0.59647 0.77925 0.38485 0.0
N4936 N 0.614 0.77689 0.37422 0.0
N4937 N 0.63205 0.77665 0.37365 0.0
N4938 N 0.62336 0.792 0.37739 0.0
C4939 C 0.62293 0.77162 0.37263 0.0
C4940 C 0.63233 0.78685 0.37603 0.0
C4941 C 0.61418 0.78713 0.37647 0.0
C4942 C 0.62281 0.76029 0.37101 0.0
C4943 C 0.6135 0.75481 0.37135 0.0
C4944 C 0.6135 0.74404 0.37136 0.0
C4945 C 0.62279 0.73851 0.37102 0.0
C4946 C 0.63206 0.74394 0.36993 0.0
C4947 C 0.63207 0.75474 0.36993 0.0
C4948 C 0.64223 0.79203 0.37832 0.0
C4949 C 0.65156 0.78655 0.37786 0.0
C4950 C 0.66075 0.79121 0.38097 0.0
C4951 C 0.66082 0.80143 0.3846 0.0
C4952 C 0.65154 0.80698 0.3848 0.0
C4953 C 0.64237 0.80235 0.3817 0.0
C4954 C 0.60472 0.79274 0.37938 0.0
C4955 C 0.60454 0.80356 0.3788 0.0
C4956 C 0.93056 0.89804 0.11296 0.0
C4957 C 0.93435 0.9082 0.11296 0.0
C4958 C 0.94509 0.90968 0.11286 0.0
C4959 C 0.95182 0.90125 0.11344 0.0
H4960 H 0.98325 0.89228 0.11471 0.0
H4961 H 1.00198 0.89392 0.11609 0.0
H4962 H 1.00409 0.86175 0.12446 0.0
H4963 H 0.98556 0.8601 0.12321 0.0
H4964 H 0.96538 0.85062 0.13629 0.0
H4965 H 0.95626 0.83797 0.14709 0.0
H4966 H 0.92739 0.84799 0.13413 0.0
H4967 H 0.9363 0.86046 0.12344 0.0
H4968 H 0.93401 0.88196 0.11396 0.0
H4969 H 0.92237 0.89657 0.11277 0.0
H4970 H 0.94831 0.91738 0.11291 0.0
H4971 H 0.96001 0.90271 0.11385 0.0
N4972 N 0.96527 0.88311 0.11612 0.0
N4973 N 0.96695 0.8665 0.12329 0.0
N4974 N 0.95063 0.87357 0.12058 0.0
C4975 C 0.97139 0.87516 0.11929 0.0
C4976 C 0.95656 0.86564 0.12392 0.0
C4977 C 0.95484 0.88231 0.11669 0.0
C4978 C 0.98282 0.87609 0.11904 0.0
C4979 C 0.98772 0.88553 0.11676 0.0
C4980 C 0.99846 0.88648 0.1175 0.0
C4981 C 1.00451 0.87802 0.12058 0.0
C4982 C 0.99964 0.86849 0.12232 0.0
C4983 C 0.98897 0.86754 0.12158 0.0
C4984 C 0.95156 0.85672 0.12912 0.0
C4985 C 0.95711 0.84995 0.13559 0.0
C4986 C 0.95191 0.8427 0.14175 0.0
C4987 C 0.94112 0.84213 0.14154 0.0
C4988 C 0.93571 0.84837 0.13455 0.0
C4989 C 0.94084 0.85554 0.12843 0.0
C4990 C 0.94798 0.89115 0.1142 0.0
C4991 C 0.93727 0.88964 0.11359 0.0
C4992 C 0.64353 0.85063 0.81786 0.0
C4993 C 0.64278 0.84409 0.80923 0.0
C4994 C 0.64795 0.84695 0.80011 0.0
C4995 C 0.65369 0.8561 0.79965 0.0
H4996 H 0.66882 0.87632 0.77943 0.0
H4997 H 0.67377 0.88408 0.76306 0.0
H4998 H 0.68528 0.91086 0.77923 0.0
H4999 H 0.68012 0.90325 0.79557 0.0
H5000 H 0.66151 0.90881 0.81645 0.0
H5001 H 0.65542 0.91878 0.83128 0.0
H5002 H 0.66139 0.89265 0.85113 0.0
H5003 H 0.66679 0.88257 0.83624 0.0
H5004 H 0.6496 0.86451 0.82426 0.0
H5005 H 0.63983 0.84863 0.82507 0.0
H5006 H 0.64748 0.84216 0.79328 0.0
H5007 H 0.65751 0.85808 0.79249 0.0
N5008 N 0.66473 0.87588 0.79903 0.0
N5009 N 0.66952 0.89136 0.80722 0.0
N5010 N 0.66059 0.87864 0.81641 0.0
C5011 C 0.66948 0.88527 0.79866 0.0
C5012 C 0.66519 0.88802 0.81614 0.0
C5013 C 0.66025 0.87252 0.80791 0.0
C5014 C 0.67383 0.88925 0.78883 0.0
C5015 C 0.67251 0.88381 0.77953 0.0
C5016 C 0.67544 0.88823 0.77012 0.0
C5017 C 0.67978 0.89818 0.76981 0.0
C5018 C 0.68174 0.90329 0.77917 0.0
C5019 C 0.67879 0.89889 0.78856 0.0
C5020 C 0.66435 0.89486 0.8252 0.0
C5021 C 0.66174 0.90532 0.82404 0.0
C5022 C 0.65829 0.91104 0.83255 0.0
C5023 C 0.65757 0.90641 0.84235 0.0
C5024 C 0.66146 0.89634 0.84363 0.0
C5025 C 0.66462 0.89057 0.83512 0.0
C5026 C 0.65443 0.86262 0.80831 0.0
C5027 C 0.64926 0.85974 0.81741 0.0
C5028 C 0.84682 0.87746 0.55926 0.0
C5029 C 0.83916 0.87183 0.55414 0.0
C5030 C 0.83883 0.87189 0.54332 0.0
C5031 C 0.84651 0.87695 0.53768 0.0
H5032 H 0.85621 0.88915 0.50889 0.0
H5033 H 0.85621 0.8892 0.49012 0.0
H5034 H 0.88932 0.89158 0.48999 0.0
H5035 H 0.88938 0.89169 0.50881 0.0
H5036 H 0.90175 0.88586 0.52869 0.0
H5037 H 0.91775 0.8804 0.53679 0.0
H5038 H 0.90136 0.87383 0.56504 0.0
H5039 H 0.88536 0.87908 0.55695 0.0
H5040 H 0.86071 0.88614 0.55785 0.0
H5041 H 0.84725 0.87739 0.56762 0.0
H5042 H 0.83304 0.86745 0.53926 0.0
H5043 H 0.84646 0.87634 0.52934 0.0
N5044 N 0.86399 0.88698 0.52699 0.0
N5045 N 0.88204 0.88755 0.52675 0.0
N5046 N 0.87336 0.88381 0.5421 0.0
C5047 C 0.87292 0.88857 0.52172 0.0
C5048 C 0.88232 0.88517 0.53695 0.0
C5049 C 0.86418 0.88473 0.53723 0.0
C5050 C 0.8728 0.89019 0.5104 0.0
C5051 C 0.86349 0.88985 0.50491 0.0
C5052 C 0.86349 0.88984 0.49414 0.0
C5053 C 0.87278 0.89019 0.48861 0.0
C5054 C 0.88205 0.89129 0.49405 0.0
C5055 C 0.88206 0.89128 0.50485 0.0
C5056 C 0.89223 0.88288 0.54213 0.0
C5057 C 0.90155 0.88333 0.53666 0.0
C5058 C 0.91074 0.88022 0.54131 0.0
C5059 C 0.91082 0.8766 0.55154 0.0
C5060 C 0.90154 0.8764 0.55709 0.0
C5061 C 0.89237 0.87951 0.55245 0.0
C5062 C 0.85471 0.88181 0.54283 0.0
C5063 C 0.85453 0.8824 0.55366 0.0
C5064 C 0.84786 0.1095 0.35001 0.0
C5065 C 0.85178 0.09964 0.34769 0.0
C5066 C 0.85026 0.09568 0.33768 0.0
C5067 C 0.84595 0.10189 0.32994 0.0
H5068 H 0.82566 0.10546 0.30286 0.0
H5069 H 0.82019 0.09867 0.28625 0.0
H5070 H 0.8309 0.12648 0.27133 0.0
H5071 H 0.83611 0.13341 0.28796 0.0
H5072 H 0.84687 0.15135 0.30174 0.0
H5073 H 0.8571 0.16716 0.30278 0.0
H5074 H 0.86747 0.15837 0.3332 0.0
H5075 H 0.85746 0.14266 0.33217 0.0
H5076 H 0.84165 0.12362 0.34413 0.0
H5077 H 0.84852 0.11267 0.35772 0.0
H5078 H 0.85312 0.08812 0.33558 0.0
H5079 H 0.84557 0.09893 0.32212 0.0
N5080 N 0.83684 0.11672 0.31473 0.0
N5081 N 0.84072 0.13285 0.30736 0.0
N5082 N 0.84592 0.12908 0.32425 0.0
C5083 C 0.83622 0.12337 0.30662 0.0
C5084 C 0.84559 0.13576 0.31619 0.0
C5085 C 0.84157 0.1196 0.3236 0.0
C5086 C 0.83155 0.1199 0.29675 0.0
C5087 C 0.82672 0.11021 0.29607 0.0
C5088 C 0.8236 0.10629 0.28652 0.0
C5089 C 0.82527 0.11193 0.27741 0.0
C5090 C 0.82944 0.12192 0.27818 0.0
C5091 C 0.83252 0.12587 0.28774 0.0
C5092 C 0.85131 0.14568 0.31685 0.0
C5093 C 0.85131 0.15281 0.30866 0.0
C5094 C 0.85717 0.16188 0.30926 0.0
C5095 C 0.8632 0.16399 0.31803 0.0
C5096 C 0.86309 0.15691 0.32624 0.0
C5097 C 0.85723 0.14791 0.32567 0.0
C5098 C 0.84328 0.11218 0.33206 0.0
C5099 C 0.84384 0.11576 0.34225 0.0
C5100 C 0.6056 0.13464 0.0653 0.0
C5101 C 0.59647 0.1342 0.05953 0.0
C5102 C 0.59667 0.12958 0.04971 0.0
C5103 C 0.60587 0.12577 0.04563 0.0
H5104 H 0.61832 0.11468 0.01899 0.0
H5105 H 0.6187 0.11356 1.00022 0.0
H5106 H 0.65185 0.11507 1.00081 0.0
H5107 H 0.65155 0.11637 0.01952 0.0
H5108 H 0.66122 0.13079 0.03864 0.0
H5109 H 0.67459 0.14068 0.04765 0.0
H5110 H 0.65958 0.13472 0.0767 0.0
H5111 H 0.64621 0.12496 0.06783 0.0
H5112 H 0.6217 0.13149 0.06585 0.0
H5113 H 0.60567 0.13796 0.07297 0.0
H5114 H 0.58978 0.12919 0.04503 0.0
H5115 H 0.60578 0.1225 0.03793 0.0
N5116 N 0.62544 0.12011 0.03666 0.0
N5117 N 0.64349 0.12051 0.03715 0.0
N5118 N 0.63392 0.12529 0.05171 0.0
C5119 C 0.63463 0.11849 0.03192 0.0
C5120 C 0.64317 0.12379 0.04711 0.0
C5121 C 0.62502 0.1235 0.04657 0.0
C5122 C 0.63491 0.11588 0.02078 0.0
C5123 C 0.62572 0.11461 0.01515 0.0
C5124 C 0.62591 0.11389 1.00438 0.0
C5125 C 0.63529 0.11443 0.99905 0.0
C5126 C 0.64449 0.11485 1.00472 0.0
C5127 C 0.64431 0.11557 0.01546 0.0
C5128 C 0.65258 0.12724 0.05252 0.0
C5129 C 0.66098 0.13126 0.04698 0.0
C5130 C 0.66864 0.13689 0.05211 0.0
C5131 C 0.66806 0.13837 0.06282 0.0
C5132 C 0.6602 0.13356 0.06843 0.0
C5133 C 0.65253 0.12805 0.06334 0.0
C5134 C 0.61507 0.12649 0.05128 0.0
C5135 C 0.61479 0.13083 0.06123 0.0
C5136 C 0.64353 0.16049 0.69344 0.0
C5137 C 0.64278 0.16703 0.70207 0.0
C5138 C 0.64795 0.16417 0.71119 0.0
C5139 C 0.65369 0.15501 0.71166 0.0
H5140 H 0.66882 0.13479 0.73187 0.0
H5141 H 0.67377 0.12703 0.74824 0.0
H5142 H 0.68528 0.10025 0.73208 0.0
H5143 H 0.68013 0.10786 0.71574 0.0
H5144 H 0.66153 0.10231 0.69486 0.0
H5145 H 0.65544 0.09233 0.68003 0.0
H5146 H 0.66139 0.11847 0.66018 0.0
H5147 H 0.66678 0.12854 0.67506 0.0
H5148 H 0.6496 0.14661 0.68704 0.0
H5149 H 0.63983 0.16249 0.68623 0.0
H5150 H 0.64748 0.16896 0.71803 0.0
H5151 H 0.65752 0.15304 0.71882 0.0
N5152 N 0.66474 0.13523 0.71227 0.0
N5153 N 0.66952 0.11976 0.70408 0.0
N5154 N 0.6606 0.13248 0.6949 0.0
C5155 C 0.66948 0.12585 0.71264 0.0
C5156 C 0.6652 0.12309 0.69517 0.0
C5157 C 0.66026 0.1386 0.70339 0.0
C5158 C 0.67384 0.12186 0.72247 0.0
C5159 C 0.67252 0.1273 0.73178 0.0
C5160 C 0.67545 0.12288 0.74118 0.0
C5161 C 0.67978 0.11293 0.7415 0.0
C5162 C 0.68175 0.10782 0.73214 0.0
C5163 C 0.6788 0.11221 0.72275 0.0
C5164 C 0.66436 0.11626 0.6861 0.0
C5165 C 0.66175 0.1058 0.68726 0.0
C5166 C 0.6583 0.10007 0.67875 0.0
C5167 C 0.65757 0.10471 0.66895 0.0
C5168 C 0.66145 0.11477 0.66767 0.0
C5169 C 0.66462 0.12054 0.67618 0.0
C5170 C 0.65443 0.1485 0.703 0.0
C5171 C 0.64926 0.15138 0.69389 0.0
C5172 C 0.6056 0.87648 0.44601 0.0
C5173 C 0.59646 0.87693 0.45178 0.0
C5174 C 0.59667 0.88154 0.4616 0.0
C5175 C 0.60586 0.88535 0.46568 0.0
H5176 H 0.61832 0.89643 0.49231 0.0
H5177 H 0.6187 0.89755 0.51109 0.0
H5178 H 0.65185 0.89608 0.51049 0.0
H5179 H 0.65154 0.89478 0.49177 0.0
H5180 H 0.66121 0.88033 0.47267 0.0
H5181 H 0.67458 0.87044 0.46365 0.0
H5182 H 0.65958 0.87641 0.43461 0.0
H5183 H 0.6462 0.88617 0.44348 0.0
H5184 H 0.62169 0.87963 0.44546 0.0
H5185 H 0.60567 0.87316 0.43834 0.0
H5186 H 0.58978 0.88194 0.46628 0.0
H5187 H 0.60578 0.88862 0.47337 0.0
N5188 N 0.62544 0.89101 0.47464 0.0
N5189 N 0.64348 0.89062 0.47415 0.0
N5190 N 0.63392 0.88583 0.45959 0.0
C5191 C 0.63462 0.89263 0.47938 0.0
C5192 C 0.64317 0.88734 0.46419 0.0
C5193 C 0.62502 0.88762 0.46474 0.0
C5194 C 0.6349 0.89525 0.49052 0.0
C5195 C 0.62571 0.8965 0.49615 0.0
C5196 C 0.62591 0.89722 0.50692 0.0
C5197 C 0.63529 0.89669 0.51225 0.0
C5198 C 0.64449 0.89628 0.50658 0.0
C5199 C 0.64431 0.89557 0.49584 0.0
C5200 C 0.65257 0.88389 0.45878 0.0
C5201 C 0.66098 0.87986 0.46432 0.0
C5202 C 0.66863 0.87423 0.45919 0.0
C5203 C 0.66805 0.87276 0.44849 0.0
C5204 C 0.6602 0.87757 0.44287 0.0
C5205 C 0.65252 0.88309 0.44797 0.0
C5206 C 0.61507 0.88463 0.46003 0.0
C5207 C 0.61478 0.88029 0.45007 0.0
C5208 C 0.84725 0.90182 0.16088 0.0
C5209 C 0.85156 0.91151 0.16321 0.0
C5210 C 0.85041 0.91543 0.17329 0.0
C5211 C 0.84607 0.90931 0.18107 0.0
H5212 H 0.82564 0.90576 0.2082 0.0
H5213 H 0.82008 0.91247 0.22481 0.0
H5214 H 0.83092 0.88468 0.23968 0.0
H5215 H 0.83623 0.87783 0.22304 0.0
H5216 H 0.84778 0.86025 0.20933 0.0
H5217 H 0.85828 0.84464 0.20823 0.0
H5218 H 0.86799 0.85338 0.17757 0.0
H5219 H 0.85773 0.86894 0.1787 0.0
H5220 H 0.84073 0.88786 0.16681 0.0
H5221 H 0.84763 0.8987 0.15314 0.0
H5222 H 0.8536 0.92285 0.1754 0.0
H5223 H 0.846 0.91219 0.18892 0.0
N5224 N 0.83672 0.89452 0.19625 0.0
N5225 N 0.84102 0.87852 0.20365 0.0
N5226 N 0.846 0.88233 0.18671 0.0
C5227 C 0.8363 0.8879 0.2044 0.0
C5228 C 0.8459 0.87569 0.1948 0.0
C5229 C 0.84144 0.89171 0.18736 0.0
C5230 C 0.83161 0.89133 0.21428 0.0
C5231 C 0.82672 0.90099 0.21498 0.0
C5232 C 0.82354 0.90487 0.22452 0.0
C5233 C 0.82521 0.89921 0.23363 0.0
C5234 C 0.82946 0.88925 0.23284 0.0
C5235 C 0.8326 0.88534 0.22328 0.0
C5236 C 0.85186 0.86589 0.19411 0.0
C5237 C 0.85214 0.85883 0.20235 0.0
C5238 C 0.85815 0.84986 0.20171 0.0
C5239 C 0.86405 0.84776 0.19283 0.0
C5240 C 0.86371 0.85481 0.1846 0.0
C5241 C 0.85771 0.86372 0.18522 0.0
C5242 C 0.84301 0.89915 0.17891 0.0
C5243 C 0.8432 0.89563 0.16868 0.0
C5244 C 0.84683 0.13365 0.95207 0.0
C5245 C 0.83917 0.13929 0.95718 0.0
C5246 C 0.83883 0.13925 0.968 0.0
C5247 C 0.84651 0.13418 0.97365 0.0
H5248 H 0.85623 0.12204 1.00248 0.0
H5249 H 0.85625 0.12196 0.02124 0.0
H5250 H 0.88935 0.11954 0.02136 0.0
H5251 H 0.8894 0.11945 1.00253 0.0
H5252 H 0.90176 0.12527 0.98264 0.0
H5253 H 0.91775 0.13072 0.97453 0.0
H5254 H 0.90135 0.13728 0.94629 0.0
H5255 H 0.88535 0.13204 0.9544 0.0
H5256 H 0.86072 0.12497 0.9535 0.0
H5257 H 0.84727 0.13371 0.94372 0.0
H5258 H 0.83304 0.14369 0.97206 0.0
H5259 H 0.84646 0.1348 0.98199 0.0
N5260 N 0.864 0.12417 0.98437 0.0
N5261 N 0.88205 0.1236 0.9846 0.0
N5262 N 0.87336 0.12732 0.96924 0.0
C5263 C 0.87294 0.12259 0.98963 0.0
C5264 C 0.88233 0.12596 0.9744 0.0
C5265 C 0.86418 0.12641 0.97412 0.0
C5266 C 0.87282 0.12096 1.00096 0.0
C5267 C 0.86352 0.12132 0.00646 0.0
C5268 C 0.86352 0.12131 0.01722 0.0
C5269 C 0.87282 0.12094 0.02275 0.0
C5270 C 0.88208 0.11984 0.0173 0.0
C5271 C 0.88208 0.11986 0.0065 0.0
C5272 C 0.89223 0.12825 0.96921 0.0
C5273 C 0.90156 0.12779 0.97468 0.0
C5274 C 0.91075 0.1309 0.97002 0.0
C5275 C 0.91082 0.13452 0.95979 0.0
C5276 C 0.90154 0.13471 0.95424 0.0
C5277 C 0.89236 0.13161 0.95889 0.0
C5278 C 0.85472 0.12932 0.96851 0.0
C5279 C 0.85454 0.12872 0.95768 0.0
C5280 C 0.83944 0.64631 0.87453 0.0
C5281 C 0.83659 0.65273 0.86627 0.0
C5282 C 0.8281 0.65938 0.86765 0.0
C5283 C 0.82235 0.65922 0.87683 0.0
H5284 H 0.79216 0.66458 0.88877 0.0
H5285 H 0.77446 0.67066 0.88987 0.0
H5286 H 0.7731 0.66127 0.92181 0.0
H5287 H 0.79075 0.65507 0.92073 0.0
H5288 H 0.80434 0.63361 0.92564 0.0
H5289 H 0.80974 0.61899 0.93649 0.0
H5290 H 0.83999 0.62027 0.92293 0.0
H5291 H 0.8348 0.63473 0.91226 0.0
H5292 H 0.83618 0.64095 0.88972 0.0
H5293 H 0.84579 0.64096 0.87382 0.0
H5294 H 0.82577 0.66462 0.86158 0.0
H5295 H 0.81573 0.66424 0.87751 0.0
N5296 N 0.80927 0.65622 0.89527 0.0
N5297 N 0.80653 0.64788 0.91118 0.0
N5298 N 0.82166 0.64492 0.90192 0.0
C5299 C 0.80325 0.65453 0.90374 0.0
C5300 C 0.81575 0.64309 0.91034 0.0
C5301 C 0.81856 0.65144 0.89435 0.0
C5302 C 0.79287 0.65923 0.90462 0.0
C5303 C 0.78815 0.66392 0.89607 0.0
C5304 C 0.778 0.66744 0.89671 0.0
C5305 C 0.77236 0.66638 0.90592 0.0
C5306 C 0.77719 0.66203 0.91457 0.0
C5307 C 0.78733 0.65851 0.91394 0.0
C5308 C 0.8191 0.63526 0.91797 0.0
C5309 C 0.8122 0.63089 0.92513 0.0
C5310 C 0.81526 0.62255 0.93134 0.0
C5311 C 0.82523 0.61851 0.93042 0.0
C5312 C 0.83223 0.62322 0.92368 0.0
C5313 C 0.82923 0.63149 0.91755 0.0
C5314 C 0.82502 0.65249 0.8849 0.0
C5315 C 0.8338 0.64624 0.8837 0.0
C5316 C 0.33937 0.8648 0.13679 0.0
C5317 C 0.33652 0.85838 0.14506 0.0
C5318 C 0.32803 0.85174 0.14369 0.0
C5319 C 0.32228 0.85189 0.13452 0.0
H5320 H 0.29195 0.8468 0.12262 0.0
H5321 H 0.27421 0.84085 0.1215 0.0
H5322 H 0.27319 0.84963 0.08937 0.0
H5323 H 0.29087 0.85571 0.09048 0.0
H5324 H 0.30428 0.87749 0.08568 0.0
H5325 H 0.3097 0.89209 0.07482 0.0
H5326 H 0.33994 0.89076 0.08838 0.0
H5327 H 0.33474 0.87632 0.09906 0.0
H5328 H 0.3361 0.87015 0.12161 0.0
H5329 H 0.34572 0.87015 0.1375 0.0
H5330 H 0.32571 0.84651 0.14977 0.0
H5331 H 0.31565 0.84688 0.13384 0.0
N5332 N 0.3092 0.85487 0.11606 0.0
N5333 N 0.30647 0.86319 0.10013 0.0
N5334 N 0.32158 0.86617 0.10941 0.0
C5335 C 0.30319 0.85655 0.10757 0.0
C5336 C 0.31568 0.868 0.10098 0.0
C5337 C 0.31849 0.85966 0.11698 0.0
C5338 C 0.29282 0.85185 0.10668 0.0
C5339 C 0.28801 0.84734 0.11528 0.0
C5340 C 0.27784 0.8439 0.11462 0.0
C5341 C 0.27227 0.84485 0.10535 0.0
C5342 C 0.27721 0.84897 0.09666 0.0
C5343 C 0.28737 0.85242 0.09731 0.0
C5344 C 0.31904 0.87582 0.09335 0.0
C5345 C 0.31214 0.8802 0.08619 0.0
C5346 C 0.31521 0.88853 0.07998 0.0
C5347 C 0.32518 0.89255 0.08089 0.0
C5348 C 0.33218 0.88783 0.08763 0.0
C5349 C 0.32917 0.87956 0.09376 0.0
C5350 C 0.32494 0.85862 0.12643 0.0
C5351 C 0.33372 0.86487 0.12763 0.0
C5352 C 0.89358 0.56762 0.91073 0.0
C5353 C 0.89291 0.55897 0.91723 0.0
C5354 C 0.89806 0.54986 0.91428 0.0
C5355 C 0.90374 0.54945 0.90508 0.0
H5356 H 0.91885 0.52936 0.88486 0.0
H5357 H 0.92381 0.513 0.8771 0.0
H5358 H 0.93526 0.52914 0.8503 0.0
H5359 H 0.93009 0.54548 0.85791 0.0
H5360 H 0.91147 0.56636 0.85241 0.0
H5361 H 0.90541 0.58119 0.84244 0.0
H5362 H 0.91133 0.60103 0.8686 0.0
H5363 H 0.9167 0.58615 0.87868 0.0
H5364 H 0.89954 0.57409 0.89682 0.0
H5365 H 0.88988 0.57482 0.9128 0.0
H5366 H 0.89764 0.54301 0.91903 0.0
H5367 H 0.90755 0.54231 0.90304 0.0
N5368 N 0.91472 0.54893 0.88531 0.0
N5369 N 0.91948 0.55714 0.86984 0.0
N5370 N 0.91053 0.56629 0.88259 0.0
C5371 C 0.91946 0.54857 0.87592 0.0
C5372 C 0.91513 0.56604 0.8732 0.0
C5373 C 0.91022 0.55779 0.88869 0.0
C5374 C 0.92383 0.53875 0.87193 0.0
C5375 C 0.92253 0.52945 0.87737 0.0
C5376 C 0.92547 0.52005 0.87294 0.0
C5377 C 0.92979 0.51973 0.86299 0.0
C5378 C 0.93173 0.52909 0.85787 0.0
C5379 C 0.92878 0.53848 0.86227 0.0
C5380 C 0.91428 0.57511 0.86638 0.0
C5381 C 0.91169 0.57395 0.85591 0.0
C5382 C 0.90826 0.58246 0.85018 0.0
C5383 C 0.90753 0.59226 0.85483 0.0
C5384 C 0.9114 0.59353 0.8649 0.0
C5385 C 0.91455 0.58503 0.87067 0.0
C5386 C 0.90442 0.55814 0.89861 0.0
C5387 C 0.89924 0.56722 0.90157 0.0
C5388 C 0.18006 0.14798 0.64597 0.0
C5389 C 0.18377 0.14843 0.65615 0.0
C5390 C 0.19449 0.14885 0.6577 0.0
C5391 C 0.20131 0.14822 0.64934 0.0
H5392 H 0.23292 0.14661 0.64099 0.0
H5393 H 0.25161 0.14503 0.64301 0.0
H5394 H 0.25422 0.13621 0.611 0.0
H5395 H 0.23575 0.13768 0.60896 0.0
H5396 H 0.21567 0.12452 0.59961 0.0
H5397 H 0.20671 0.11337 0.58716 0.0
H5398 H 0.17788 0.12757 0.59535 0.0
H5399 H 0.18665 0.13869 0.60767 0.0
H5400 H 0.18366 0.14667 0.62994 0.0
H5401 H 0.17187 0.14788 0.64444 0.0
H5402 H 0.19766 0.14912 0.66542 0.0
H5403 H 0.20949 0.1481 0.65088 0.0
N5404 N 0.21505 0.14517 0.63152 0.0
N5405 N 0.21703 0.13814 0.61488 0.0
N5406 N 0.20058 0.14093 0.6216 0.0
C5407 C 0.22132 0.14202 0.62367 0.0
C5408 C 0.20666 0.13762 0.61378 0.0
C5409 C 0.20462 0.1447 0.63048 0.0
C5410 C 0.23274 0.1421 0.62485 0.0
C5411 C 0.23749 0.14442 0.63436 0.0
C5412 C 0.24821 0.14356 0.63552 0.0
C5413 C 0.25439 0.14032 0.62721 0.0
C5414 C 0.24967 0.1385 0.61762 0.0
C5415 C 0.23904 0.13937 0.61645 0.0
C5416 C 0.20186 0.1324 0.60477 0.0
C5417 C 0.20747 0.12548 0.59854 0.0
C5418 C 0.20237 0.11912 0.5914 0.0
C5419 C 0.19165 0.11968 0.59035 0.0
C5420 C 0.18617 0.12707 0.59601 0.0
C5421 C 0.19121 0.13338 0.60311 0.0
C5422 C 0.19758 0.14711 0.63922 0.0
C5423 C 0.18686 0.14733 0.63763 0.0
C5424 C 0.09761 0.91101 0.85982 0.0
C5425 C 0.10186 0.9133 0.85009 0.0
C5426 C 0.10066 0.92336 0.84615 0.0
C5427 C 0.0963 0.93114 0.85225 0.0
H5428 H 0.0757 0.95821 0.85554 0.0
H5429 H 0.07016 0.97479 0.84874 0.0
H5430 H 0.08075 0.98977 0.87658 0.0
H5431 H 0.08602 0.97318 0.88352 0.0
H5432 H 0.0969 0.95945 0.90149 0.0
H5433 H 0.10719 0.95841 0.91727 0.0
H5434 H 0.11748 0.92796 0.90848 0.0
H5435 H 0.10741 0.92899 0.8928 0.0
H5436 H 0.09106 0.91696 0.87376 0.0
H5437 H 0.09802 0.90328 0.86297 0.0
H5438 H 0.10382 0.92545 0.83871 0.0
H5439 H 0.09616 0.93897 0.84933 0.0
N5440 N 0.08679 0.94636 0.86689 0.0
N5441 N 0.0907 0.95379 0.88299 0.0
N5442 N 0.09585 0.93687 0.87928 0.0
C5443 C 0.08619 0.9545 0.87351 0.0
C5444 C 0.09555 0.94496 0.88593 0.0
C5445 C 0.0915 0.93749 0.8698 0.0
C5446 C 0.08153 0.96436 0.87 0.0
C5447 C 0.07673 0.96501 0.86029 0.0
C5448 C 0.07356 0.97454 0.85637 0.0
C5449 C 0.07517 0.98366 0.86202 0.0
C5450 C 0.07933 0.98292 0.87202 0.0
C5451 C 0.08245 0.97338 0.87597 0.0
C5452 C 0.10129 0.94431 0.89583 0.0
C5453 C 0.10133 0.95252 0.90294 0.0
C5454 C 0.10722 0.95193 0.912 0.0
C5455 C 0.11324 0.94314 0.91409 0.0
C5456 C 0.1131 0.93493 0.90702 0.0
C5457 C 0.10721 0.93549 0.89805 0.0
C5458 C 0.09324 0.92902 0.86242 0.0
C5459 C 0.09352 0.91881 0.86599 0.0
C5460 C 0.6806 0.36287 0.36316 0.0
C5461 C 0.68439 0.36287 0.353 0.0
C5462 C 0.69512 0.36277 0.35151 0.0
C5463 C 0.70187 0.36335 0.35993 0.0
H5464 H 0.73331 0.36462 0.36891 0.0
H5465 H 0.75204 0.36599 0.36727 0.0
H5466 H 0.75414 0.37439 0.39944 0.0
H5467 H 0.73561 0.37316 0.40109 0.0
H5468 H 0.71541 0.38621 0.4106 0.0
H5469 H 0.70627 0.39701 0.42325 0.0
H5470 H 0.67742 0.38404 0.41321 0.0
H5471 H 0.68634 0.37335 0.40074 0.0
H5472 H 0.68406 0.36387 0.37924 0.0
H5473 H 0.67241 0.36268 0.36465 0.0
H5474 H 0.69835 0.36283 0.3438 0.0
H5475 H 0.71005 0.36376 0.35847 0.0
N5476 N 0.71533 0.36604 0.37808 0.0
N5477 N 0.717 0.37322 0.3947 0.0
N5478 N 0.70069 0.3705 0.38763 0.0
C5479 C 0.72144 0.36921 0.38603 0.0
C5480 C 0.70661 0.37384 0.39556 0.0
C5481 C 0.70489 0.3666 0.37888 0.0
C5482 C 0.73287 0.36897 0.3851 0.0
C5483 C 0.73778 0.36667 0.37566 0.0
C5484 C 0.74852 0.36741 0.37472 0.0
C5485 C 0.75457 0.37049 0.38318 0.0
C5486 C 0.74969 0.37225 0.3927 0.0
C5487 C 0.73903 0.37151 0.39365 0.0
C5488 C 0.7016 0.37904 0.40449 0.0
C5489 C 0.70714 0.38551 0.41126 0.0
C5490 C 0.70193 0.39167 0.41852 0.0
C5491 C 0.69114 0.39145 0.41909 0.0
C5492 C 0.68574 0.38446 0.41284 0.0
C5493 C 0.69088 0.37834 0.40566 0.0
C5494 C 0.69803 0.36411 0.37004 0.0
C5495 C 0.68732 0.3635 0.37156 0.0
C5496 C 0.89356 0.44348 0.60058 0.0
C5497 C 0.89289 0.45213 0.59407 0.0
C5498 C 0.89804 0.46124 0.59702 0.0
C5499 C 0.90372 0.46165 0.60622 0.0
H5500 H 0.91884 0.48175 0.62644 0.0
H5501 H 0.9238 0.49811 0.63419 0.0
H5502 H 0.93525 0.48197 0.661 0.0
H5503 H 0.93007 0.46563 0.65339 0.0
H5504 H 0.91145 0.44476 0.65889 0.0
H5505 H 0.90539 0.42994 0.66887 0.0
H5506 H 0.91133 0.41009 0.64271 0.0
H5507 H 0.9167 0.42497 0.63264 0.0
H5508 H 0.89953 0.43702 0.61449 0.0
H5509 H 0.88987 0.43629 0.59852 0.0
H5510 H 0.89761 0.46809 0.59227 0.0
H5511 H 0.90753 0.4688 0.60825 0.0
N5512 N 0.9147 0.46219 0.626 0.0
N5513 N 0.91947 0.45397 0.64146 0.0
N5514 N 0.91052 0.44482 0.62872 0.0
C5515 C 0.91944 0.46254 0.63538 0.0
C5516 C 0.91512 0.44507 0.63811 0.0
C5517 C 0.9102 0.45332 0.62261 0.0
C5518 C 0.92381 0.47236 0.63937 0.0
C5519 C 0.92252 0.48166 0.63393 0.0
C5520 C 0.92546 0.49106 0.63835 0.0
C5521 C 0.92978 0.49138 0.6483 0.0
C5522 C 0.93172 0.48202 0.65343 0.0
C5523 C 0.92876 0.47264 0.64903 0.0
C5524 C 0.91427 0.43601 0.64493 0.0
C5525 C 0.91168 0.43717 0.6554 0.0
C5526 C 0.90824 0.42866 0.66112 0.0
C5527 C 0.90752 0.41886 0.65648 0.0
C5528 C 0.91139 0.41758 0.64641 0.0
C5529 C 0.91454 0.42609 0.64064 0.0
C5530 C 0.90441 0.45297 0.61269 0.0
C5531 C 0.89923 0.44389 0.60974 0.0
C5532 C 0.59698 0.6001 0.15274 0.0
C5533 C 0.60113 0.59777 0.1625 0.0
C5534 C 0.5997 0.58777 0.16649 0.0
C5535 C 0.59531 0.58002 0.16035 0.0
H5536 H 0.57519 0.55277 0.15685 0.0
H5537 H 0.56975 0.53611 0.16353 0.0
H5538 H 0.58011 0.52144 0.13544 0.0
H5539 H 0.58528 0.53811 0.12863 0.0
H5540 H 0.59752 0.55133 0.11152 0.0
H5541 H 0.60812 0.55221 0.09598 0.0
H5542 H 0.61739 0.58316 0.10413 0.0
H5543 H 0.60702 0.58226 0.11964 0.0
H5544 H 0.59055 0.59419 0.13872 0.0
H5545 H 0.59757 0.60781 0.14956 0.0
H5546 H 0.60274 0.58568 0.17399 0.0
H5547 H 0.59504 0.5722 0.1633 0.0
N5548 N 0.58608 0.56481 0.14548 0.0
N5549 N 0.59039 0.55735 0.1295 0.0
N5550 N 0.59549 0.57425 0.1333 0.0
C5551 C 0.58563 0.55666 0.13886 0.0
C5552 C 0.59535 0.56615 0.12666 0.0
C5553 C 0.59088 0.57367 0.14267 0.0
C5554 C 0.58092 0.54678 0.14228 0.0
C5555 C 0.57618 0.54602 0.15201 0.0
C5556 C 0.57307 0.53645 0.15587 0.0
C5557 C 0.57467 0.52738 0.15013 0.0
C5558 C 0.57872 0.52824 0.14009 0.0
C5559 C 0.58178 0.53783 0.13621 0.0
C5560 C 0.60136 0.56672 0.11688 0.0
C5561 C 0.6018 0.55834 0.10999 0.0
C5562 C 0.60788 0.55885 0.10105 0.0
C5563 C 0.6137 0.56774 0.0988 0.0
C5564 C 0.6132 0.57611 0.10568 0.0
C5565 C 0.60712 0.57562 0.11456 0.0
C5566 C 0.59246 0.58214 0.15011 0.0
C5567 C 0.59287 0.59233 0.14654 0.0
C5568 C 0.60955 0.66224 0.84568 0.0
C5569 C 0.60017 0.66414 0.85076 0.0
C5570 C 0.59626 0.67429 0.85074 0.0
C5571 C 0.60206 0.68245 0.84662 0.0
H5572 H 0.6051 0.71247 0.8284 0.0
H5573 H 0.59994 0.72983 0.82345 0.0
H5574 H 0.63016 0.74115 0.83149 0.0
H5575 H 0.63543 0.72379 0.83598 0.0
H5576 H 0.65029 0.71029 0.84983 0.0
H5577 H 0.6658 0.70795 0.86016 0.0
H5578 H 0.65969 0.67523 0.86202 0.0
H5579 H 0.64417 0.67755 0.85191 0.0
H5580 H 0.62293 0.66872 0.8386 0.0
H5581 H 0.61267 0.65451 0.84521 0.0
H5582 H 0.58908 0.67608 0.85457 0.0
H5583 H 0.59923 0.69027 0.84741 0.0
N5584 N 0.61656 0.69846 0.83723 0.0
N5585 N 0.63314 0.70483 0.84077 0.0
N5586 N 0.62896 0.68779 0.8449 0.0
C5587 C 0.62355 0.70633 0.83683 0.0
C5588 C 0.63589 0.69557 0.84483 0.0
C5589 C 0.61933 0.68911 0.84116 0.0
C5590 C 0.62062 0.7167 0.83281 0.0
C5591 C 0.61069 0.71863 0.82899 0.0
C5592 C 0.60771 0.72864 0.82619 0.0
C5593 C 0.61455 0.73703 0.82724 0.0
C5594 C 0.62466 0.73496 0.8305 0.0
C5595 C 0.62766 0.72495 0.83321 0.0
C5596 C 0.64592 0.69413 0.85009 0.0
C5597 C 0.6523 0.70259 0.85236 0.0
C5598 C 0.66119 0.70124 0.85829 0.0
C5599 C 0.66389 0.69142 0.86204 0.0
C5600 C 0.65769 0.68294 0.85948 0.0
C5601 C 0.64882 0.68427 0.85359 0.0
C5602 C 0.6119 0.6806 0.84258 0.0
C5603 C 0.61539 0.67037 0.84177 0.0
C5604 C 0.55729 0.42046 0.12372 0.0
C5605 C 0.54843 0.42579 0.12678 0.0
C5606 C 0.53877 0.42218 0.12346 0.0
C5607 C 0.53802 0.41312 0.11752 0.0
H5608 H 0.51841 0.39227 0.10059 0.0
H5609 H 0.5023 0.38348 0.09663 0.0
H5610 H 0.51911 0.35571 0.08922 0.0
H5611 H 0.53517 0.36436 0.0933 0.0
H5612 H 0.55952 0.36227 0.0988 0.0
H5613 H 0.57566 0.35274 0.10141 0.0
H5614 H 0.58984 0.3805 0.11319 0.0
H5615 H 0.57422 0.3899 0.11039 0.0
H5616 H 0.56367 0.40772 0.11572 0.0
H5617 H 0.56486 0.4232 0.12591 0.0
H5618 H 0.53181 0.4262 0.12567 0.0
H5619 H 0.53049 0.41032 0.11531 0.0
N5620 N 0.53772 0.3934 0.10556 0.0
N5621 N 0.54683 0.37846 0.10052 0.0
N5622 N 0.55538 0.3921 0.10852 0.0
C5623 C 0.53782 0.38384 0.10108 0.0
C5624 C 0.55567 0.38262 0.10421 0.0
C5625 C 0.54658 0.39757 0.10927 0.0
C5626 C 0.52811 0.37898 0.09748 0.0
C5627 C 0.51869 0.38432 0.09802 0.0
C5628 C 0.50945 0.3793 0.09567 0.0
C5629 C 0.50941 0.36885 0.09275 0.0
C5630 C 0.51886 0.36371 0.09164 0.0
C5631 C 0.52809 0.36871 0.09396 0.0
C5632 C 0.56551 0.37684 0.10444 0.0
C5633 C 0.56617 0.36634 0.10175 0.0
C5634 C 0.57539 0.36088 0.10326 0.0
C5635 C 0.58407 0.36588 0.10742 0.0
C5636 C 0.58343 0.37644 0.10972 0.0
C5637 C 0.57435 0.38183 0.10821 0.0
C5638 C 0.54694 0.40764 0.11475 0.0
C5639 C 0.55657 0.41157 0.11779 0.0
C5640 C 0.86593 0.33685 0.3586 0.0
C5641 C 0.85667 0.33315 0.35445 0.0
C5642 C 0.85676 0.32336 0.3496 0.0
C5643 C 0.86579 0.31734 0.3493 0.0
H5644 H 0.88173 0.2876 0.33965 0.0
H5645 H 0.8846 0.26967 0.33401 0.0
H5646 H 0.91259 0.2687 0.35189 0.0
H5647 H 0.90991 0.28623 0.35732 0.0
H5648 H 0.91911 0.30457 0.36923 0.0
H5649 H 0.93091 0.31193 0.38215 0.0
H5650 H 0.91256 0.33962 0.38323 0.0
H5651 H 0.90098 0.33258 0.37042 0.0
H5652 H 0.88169 0.33423 0.36169 0.0
H5653 H 0.86627 0.34418 0.3626 0.0
H5654 H 0.84984 0.32028 0.34615 0.0
H5655 H 0.86554 0.30977 0.34578 0.0
N5656 N 0.88538 0.30483 0.35086 0.0
N5657 N 0.90194 0.30365 0.35825 0.0
N5658 N 0.89236 0.31868 0.36016 0.0
C5659 C 0.89422 0.2993 0.35261 0.0
C5660 C 0.90107 0.31335 0.36202 0.0
C5661 C 0.88448 0.31465 0.35466 0.0
C5662 C 0.89559 0.28847 0.34892 0.0
C5663 C 0.8885 0.28354 0.34233 0.0
C5664 C 0.89014 0.27327 0.33911 0.0
C5665 C 0.89891 0.26778 0.34237 0.0
C5666 C 0.9059 0.27273 0.34898 0.0
C5667 C 0.90428 0.28286 0.35217 0.0
C5668 C 0.909 0.31792 0.36886 0.0
C5669 C 0.91769 0.31229 0.37211 0.0
C5670 C 0.92444 0.31647 0.37947 0.0
C5671 C 0.92251 0.32626 0.38368 0.0
C5672 C 0.91412 0.33201 0.38012 0.0
C5673 C 0.90749 0.32793 0.37277 0.0
C5674 C 0.87494 0.32102 0.35377 0.0
C5675 C 0.87487 0.33097 0.35818 0.0
C5676 C 0.94842 0.59855 0.62692 0.0
C5677 C 0.95719 0.59287 0.62958 0.0
C5678 C 0.96688 0.59635 0.62623 0.0
C5679 C 0.96777 0.60561 0.62065 0.0
H5680 H 0.98766 0.62644 0.60437 0.0
H5681 H 1.00391 0.63473 0.60005 0.0
H5682 H 0.98772 0.66292 0.59281 0.0
H5683 H 0.97152 0.65476 0.59731 0.0
H5684 H 0.94749 0.65779 0.60429 0.0
H5685 H 0.9318 0.66782 0.60773 0.0
H5686 H 0.91727 0.64042 0.6199 0.0
H5687 H 0.93242 0.63055 0.61632 0.0
H5688 H 0.94226 0.61179 0.61957 0.0
H5689 H 0.94082 0.59594 0.62913 0.0
H5690 H 0.97377 0.59206 0.62814 0.0
H5691 H 0.97533 0.6083 0.61841 0.0
N5692 N 0.96838 0.62567 0.60934 0.0
N5693 N 0.95972 0.64116 0.60529 0.0
N5694 N 0.95093 0.62757 0.6131 0.0
C5695 C 0.96851 0.63539 0.60524 0.0
C5696 C 0.95087 0.63722 0.6092 0.0
C5697 C 0.95952 0.62171 0.61325 0.0
C5698 C 0.97826 0.63997 0.60141 0.0
C5699 C 0.98753 0.63438 0.60177 0.0
C5700 C 0.99686 0.63911 0.59921 0.0
C5701 C 0.99714 0.64954 0.59623 0.0
C5702 C 0.98781 0.65494 0.59529 0.0
C5703 C 0.9785 0.65022 0.59784 0.0
C5704 C 0.94128 0.64337 0.61006 0.0
C5705 C 0.94085 0.65392 0.60752 0.0
C5706 C 0.9319 0.65965 0.6095 0.0
C5707 C 0.92325 0.65489 0.61398 0.0
C5708 C 0.92365 0.64431 0.61619 0.0
C5709 C 0.93248 0.63864 0.61422 0.0
C5710 C 0.95896 0.61144 0.61828 0.0
C5711 C 0.94928 0.60766 0.62134 0.0
C5712 C 0.60957 0.34887 0.66558 0.0
C5713 C 0.60017 0.34696 0.66054 0.0
C5714 C 0.59626 0.33681 0.6606 0.0
C5715 C 0.60209 0.32866 0.66471 0.0
H5716 H 0.60523 0.29868 0.68289 0.0
H5717 H 0.60006 0.28132 0.68785 0.0
H5718 H 0.63025 0.26996 0.67971 0.0
H5719 H 0.63552 0.28731 0.67521 0.0
H5720 H 0.65038 0.30088 0.66131 0.0
H5721 H 0.66586 0.30328 0.65095 0.0
H5722 H 0.65967 0.336 0.64921 0.0
H5723 H 0.64419 0.33362 0.65936 0.0
H5724 H 0.62298 0.34241 0.67261 0.0
H5725 H 0.6127 0.3566 0.66602 0.0
H5726 H 0.58907 0.33502 0.65681 0.0
H5727 H 0.59926 0.32083 0.66396 0.0
N5728 N 0.61665 0.31266 0.67403 0.0
N5729 N 0.63323 0.3063 0.67044 0.0
N5730 N 0.62902 0.32334 0.66634 0.0
C5731 C 0.62365 0.30479 0.67441 0.0
C5732 C 0.63596 0.31557 0.66639 0.0
C5733 C 0.6194 0.32201 0.6701 0.0
C5734 C 0.62073 0.29442 0.67842 0.0
C5735 C 0.61081 0.29251 0.68228 0.0
C5736 C 0.60783 0.2825 0.68508 0.0
C5737 C 0.61465 0.2741 0.68401 0.0
C5738 C 0.62476 0.27615 0.68072 0.0
C5739 C 0.62776 0.28616 0.678 0.0
C5740 C 0.64597 0.31703 0.66112 0.0
C5741 C 0.65236 0.3086 0.6588 0.0
C5742 C 0.66124 0.30997 0.65285 0.0
C5743 C 0.66391 0.31982 0.64912 0.0
C5744 C 0.6577 0.32828 0.65173 0.0
C5745 C 0.64885 0.32691 0.65765 0.0
C5746 C 0.61195 0.33052 0.6687 0.0
C5747 C 0.61544 0.34074 0.66948 0.0
C5748 C 0.94841 0.41257 0.88438 0.0
C5749 C 0.95718 0.41825 0.88172 0.0
C5750 C 0.96687 0.41476 0.88508 0.0
C5751 C 0.96776 0.4055 0.89066 0.0
H5752 H 0.98764 0.38468 0.90694 0.0
H5753 H 1.00389 0.37639 0.91127 0.0
H5754 H 0.98772 0.34819 0.9185 0.0
H5755 H 0.97152 0.35636 0.914 0.0
H5756 H 0.94749 0.35333 0.90702 0.0
H5757 H 0.9318 0.34331 0.90357 0.0
H5758 H 0.91727 0.3707 0.89139 0.0
H5759 H 0.93241 0.38057 0.89497 0.0
H5760 H 0.94224 0.39933 0.89172 0.0
H5761 H 0.94081 0.41519 0.88216 0.0
H5762 H 0.97376 0.41905 0.88317 0.0
H5763 H 0.97532 0.40281 0.8929 0.0
N5764 N 0.96837 0.38545 0.90197 0.0
N5765 N 0.95971 0.36996 0.90602 0.0
N5766 N 0.95092 0.38355 0.8982 0.0
C5767 C 0.9685 0.37572 0.90607 0.0
C5768 C 0.95086 0.3739 0.90211 0.0
C5769 C 0.9595 0.3894 0.89806 0.0
C5770 C 0.97825 0.37115 0.9099 0.0
C5771 C 0.98752 0.37674 0.90954 0.0
C5772 C 0.99685 0.37201 0.91211 0.0
C5773 C 0.99713 0.36157 0.91508 0.0
C5774 C 0.9878 0.35618 0.91603 0.0
C5775 C 0.97849 0.36089 0.91347 0.0
C5776 C 0.94128 0.36776 0.90124 0.0
C5777 C 0.94085 0.35721 0.90379 0.0
C5778 C 0.9319 0.35147 0.9018 0.0
C5779 C 0.92324 0.35623 0.89732 0.0
C5780 C 0.92364 0.36682 0.89511 0.0
C5781 C 0.93247 0.37248 0.89708 0.0
C5782 C 0.95894 0.39967 0.89302 0.0
C5783 C 0.94926 0.40346 0.88995 0.0
C5784 C 0.86578 0.67351 0.15257 0.0
C5785 C 0.85658 0.67712 0.15694 0.0
C5786 C 0.85674 0.68678 0.16202 0.0
C5787 C 0.86577 0.69279 0.16234 0.0
H5788 H 0.8814 0.72226 0.17239 0.0
H5789 H 0.8841 0.74006 0.1785 0.0
H5790 H 0.91236 0.74157 0.16111 0.0
H5791 H 0.90982 0.72416 0.15516 0.0
H5792 H 0.91888 0.70617 0.14226 0.0
H5793 H 0.93074 0.69904 0.12926 0.0
H5794 H 0.91252 0.6713 0.12776 0.0
H5795 H 0.90088 0.67811 0.14064 0.0
H5796 H 0.88151 0.67622 0.14932 0.0
H5797 H 0.86606 0.66627 0.14841 0.0
H5798 H 0.84986 0.68978 0.16564 0.0
H5799 H 0.86556 0.70027 0.16606 0.0
N5800 N 0.88526 0.70534 0.1609 0.0
N5801 N 0.90176 0.70678 0.15343 0.0
N5802 N 0.89222 0.69178 0.15116 0.0
C5803 C 0.89406 0.71094 0.15925 0.0
C5804 C 0.9009 0.69719 0.14939 0.0
C5805 C 0.88436 0.69563 0.15683 0.0
C5806 C 0.89539 0.72167 0.16329 0.0
C5807 C 0.8882 0.7264 0.16991 0.0
C5808 C 0.88973 0.73659 0.17341 0.0
C5809 C 0.89853 0.7422 0.17042 0.0
C5810 C 0.90564 0.73743 0.16381 0.0
C5811 C 0.90411 0.72738 0.16032 0.0
C5812 C 0.90884 0.69278 0.14243 0.0
C5813 C 0.9175 0.69849 0.13926 0.0
C5814 C 0.92428 0.69444 0.13185 0.0
C5815 C 0.92241 0.6847 0.12751 0.0
C5816 C 0.91403 0.67887 0.13097 0.0
C5817 C 0.90737 0.68282 0.13836 0.0
C5818 C 0.87485 0.68923 0.15765 0.0
C5819 C 0.87473 0.67938 0.153 0.0
C5820 C 0.55717 0.59062 0.38756 0.0
C5821 C 0.5483 0.58526 0.3846 0.0
C5822 C 0.53866 0.58888 0.38797 0.0
C5823 C 0.53794 0.59796 0.39387 0.0
H5824 H 0.51838 0.61886 0.41076 0.0
H5825 H 0.50228 0.62765 0.41472 0.0
H5826 H 0.5191 0.65542 0.42209 0.0
H5827 H 0.53515 0.64676 0.41801 0.0
H5828 H 0.55947 0.64881 0.41255 0.0
H5829 H 0.57561 0.65834 0.40997 0.0
H5830 H 0.58979 0.63062 0.39808 0.0
H5831 H 0.57418 0.62121 0.40085 0.0
H5832 H 0.56359 0.60341 0.39544 0.0
H5833 H 0.56473 0.58788 0.38532 0.0
H5834 H 0.53169 0.58484 0.38584 0.0
H5835 H 0.53042 0.60076 0.39614 0.0
N5836 N 0.53768 0.61771 0.40575 0.0
N5837 N 0.5468 0.63264 0.41079 0.0
N5838 N 0.55534 0.619 0.40277 0.0
C5839 C 0.53779 0.62727 0.41024 0.0
C5840 C 0.55563 0.62848 0.40708 0.0
C5841 C 0.54653 0.61354 0.40203 0.0
C5842 C 0.52808 0.63214 0.41385 0.0
C5843 C 0.51867 0.62681 0.41332 0.0
C5844 C 0.50943 0.63183 0.41567 0.0
C5845 C 0.5094 0.64229 0.41858 0.0
C5846 C 0.51885 0.64742 0.41968 0.0
C5847 C 0.52807 0.64242 0.41736 0.0
C5848 C 0.56547 0.63426 0.40685 0.0
C5849 C 0.56613 0.64475 0.40958 0.0
C5850 C 0.57534 0.6502 0.40808 0.0
C5851 C 0.58402 0.64522 0.40391 0.0
C5852 C 0.58339 0.63467 0.40156 0.0
C5853 C 0.5743 0.62927 0.40306 0.0
C5854 C 0.54687 0.60347 0.39656 0.0
C5855 C 0.55649 0.59954 0.39345 0.0
C5856 C 0.86387 0.63726 0.68406 0.0
C5857 C 0.8629 0.64749 0.68754 0.0
C5858 C 0.86221 0.6493 0.69824 0.0
C5859 C 0.863 0.64116 0.70528 0.0
H5860 H 0.86246 0.63398 0.73672 0.0
H5861 H 0.86314 0.6372 0.75536 0.0
H5862 H 0.87507 0.6065 0.76015 0.0
H5863 H 0.87449 0.60326 0.74172 0.0
H5864 H 0.8866 0.59251 0.72305 0.0
H5865 H 0.8987 0.57992 0.71584 0.0
H5866 H 0.88826 0.58729 0.68515 0.0
H5867 H 0.87633 0.59998 0.69219 0.0
H5868 H 0.86581 0.62139 0.68811 0.0
H5869 H 0.8642 0.63553 0.67589 0.0
H5870 H 0.86158 0.65707 0.70124 0.0
H5871 H 0.86286 0.64291 0.71345 0.0
N5872 N 0.866 0.62402 0.71954 0.0
N5873 N 0.8736 0.60786 0.72257 0.0
N5874 N 0.87141 0.61377 0.70565 0.0
C5875 C 0.86916 0.61663 0.7263 0.0
C5876 C 0.87471 0.60636 0.71225 0.0
C5877 C 0.86705 0.62261 0.70918 0.0
C5878 C 0.86856 0.6184 0.73765 0.0
C5879 C 0.86514 0.62788 0.74176 0.0
C5880 C 0.86548 0.62973 0.75244 0.0
C5881 C 0.86931 0.62217 0.7592 0.0
C5882 C 0.87228 0.61256 0.75512 0.0
C5883 C 0.87191 0.6107 0.74452 0.0
C5884 C 0.88058 0.59739 0.7082 0.0
C5885 C 0.88671 0.5913 0.71478 0.0
C5886 C 0.89362 0.58408 0.71069 0.0
C5887 C 0.89432 0.58266 0.69998 0.0
C5888 C 0.88773 0.58819 0.69345 0.0
C5889 C 0.88095 0.5955 0.6975 0.0
C5890 C 0.86459 0.63101 0.7018 0.0
C5891 C 0.86474 0.62913 0.69109 0.0
C5892 C 0.61566 0.60887 0.92358 0.0
C5893 C 0.60651 0.6044 0.92719 0.0
C5894 C 0.60673 0.59931 0.93684 0.0
C5895 C 0.61576 0.59906 0.94284 0.0
H5896 H 0.62976 0.59422 0.97446 0.0
H5897 H 0.63263 0.58921 0.99253 0.0
H5898 H 0.66534 0.59286 0.98817 0.0
H5899 H 0.6625 0.59811 0.97047 0.0
H5900 H 0.66987 0.61753 0.95523 0.0
H5901 H 0.68214 0.63006 0.94804 0.0
H5902 H 0.66124 0.63626 0.92294 0.0
H5903 H 0.64917 0.62387 0.92985 0.0
H5904 H 0.63136 0.61229 0.92632 0.0
H5905 H 0.61588 0.61304 0.91635 0.0
H5906 H 0.59989 0.59561 0.93983 0.0
H5907 H 0.6156 0.59532 0.95031 0.0
N5908 N 0.63543 0.60014 0.95512 0.0
N5909 N 0.6519 0.60771 0.95669 0.0
N5910 N 0.64196 0.6108 0.94206 0.0
C5911 C 0.64434 0.60153 0.96062 0.0
C5912 C 0.65072 0.6124 0.9474 0.0
C5913 C 0.63429 0.60474 0.94569 0.0
C5914 C 0.64587 0.59685 0.97105 0.0
C5915 C 0.63757 0.59383 0.97735 0.0
C5916 C 0.63922 0.59091 0.98771 0.0
C5917 C 0.64921 0.5909 0.99194 0.0
C5918 C 0.65751 0.5931 0.98533 0.0
C5919 C 0.65587 0.5961 0.97511 0.0
C5920 C 0.65849 0.61967 0.94317 0.0
C5921 C 0.66792 0.62155 0.94816 0.0
C5922 C 0.67494 0.62871 0.94407 0.0
C5923 C 0.67255 0.63421 0.93502 0.0
C5924 C 0.6632 0.63227 0.93003 0.0
C5925 C 0.6563 0.62508 0.934 0.0
C5926 C 0.62478 0.60387 0.93929 0.0
C5927 C 0.62461 0.60855 0.92947 0.0
C5928 C 0.62018 0.43082 0.18939 0.0
C5929 C 0.61318 0.43545 0.19619 0.0
C5930 C 0.61392 0.43342 0.20679 0.0
C5931 C 0.6213 0.42647 0.2105 0.0
H5932 H 0.63367 0.41367 0.23663 0.0
H5933 H 0.63345 0.4094 0.25486 0.0
H5934 H 0.64926 0.38081 0.24856 0.0
H5935 H 0.64952 0.38504 0.23012 0.0
H5936 H 0.64762 0.37644 0.20642 0.0
H5937 H 0.64885 0.36285 0.19353 0.0
H5938 H 0.64489 0.38541 0.16929 0.0
H5939 H 0.64336 0.39896 0.18219 0.0
H5940 H 0.63238 0.41995 0.18751 0.0
H5941 H 0.61963 0.43219 0.18115 0.0
H5942 H 0.60852 0.43688 0.21214 0.0
H5943 H 0.62144 0.42475 0.21868 0.0
N5944 N 0.63568 0.41056 0.21735 0.0
N5945 N 0.64399 0.39495 0.21345 0.0
N5946 N 0.63779 0.40551 0.20014 0.0
C5947 C 0.64063 0.40189 0.22059 0.0
C5948 C 0.64265 0.39676 0.20318 0.0
C5949 C 0.63428 0.41246 0.20713 0.0
C5950 C 0.64149 0.39965 0.23182 0.0
C5951 C 0.63719 0.4065 0.23905 0.0
C5952 C 0.63703 0.40404 0.24953 0.0
C5953 C 0.6412 0.39471 0.25311 0.0
C5954 C 0.64598 0.38806 0.24601 0.0
C5955 C 0.64608 0.39048 0.23545 0.0
C5956 C 0.64522 0.38878 0.19538 0.0
C5957 C 0.64719 0.37854 0.19834 0.0
C5958 C 0.64795 0.37074 0.19092 0.0
C5959 C 0.64684 0.37299 0.18035 0.0
C5960 C 0.64555 0.38335 0.17736 0.0
C5961 C 0.64472 0.39113 0.18478 0.0
C5962 C 0.62787 0.42125 0.2036 0.0
C5963 C 0.62743 0.42377 0.19304 0.0
C5964 C 0.86113 0.41425 0.41225 0.0
C5965 C 0.85156 0.40954 0.41418 0.0
C5966 C 0.84775 0.40965 0.42437 0.0
C5967 C 0.8538 0.41346 0.43251 0.0
H5968 H 0.85695 0.43178 0.46195 0.0
H5969 H 0.85153 0.43717 0.4791 0.0
H5970 H 0.88144 0.42904 0.49116 0.0
H5971 H 0.88698 0.42409 0.47399 0.0
H5972 H 0.90284 0.41111 0.46029 0.0
H5973 H 0.91893 0.40164 0.45792 0.0
H5974 H 0.91212 0.39813 0.42548 0.0
H5975 H 0.89609 0.40738 0.42782 0.0
H5976 H 0.87486 0.4207 0.41866 0.0
H5977 H 0.86419 0.4147 0.40449 0.0
H5978 H 0.84043 0.40613 0.4262 0.0
H5979 H 0.85098 0.4128 0.44035 0.0
N5980 N 0.86847 0.42252 0.4484 0.0
N5981 N 0.88505 0.41915 0.45489 0.0
N5982 N 0.88094 0.41475 0.43788 0.0
C5983 C 0.87541 0.42305 0.4563 0.0
C5984 C 0.88787 0.41497 0.44569 0.0
C5985 C 0.87127 0.41846 0.43913 0.0
C5986 C 0.87235 0.42727 0.46656 0.0
C5987 C 0.86242 0.43125 0.46823 0.0
C5988 C 0.85929 0.43431 0.47812 0.0
C5989 C 0.86595 0.43338 0.48665 0.0
C5990 C 0.87606 0.42995 0.48485 0.0
C5991 C 0.87922 0.42698 0.47495 0.0
C5992 C 0.89809 0.40998 0.44427 0.0
C5993 C 0.90481 0.40838 0.45264 0.0
C5994 C 0.91405 0.40296 0.45128 0.0
C5995 C 0.91678 0.399 0.44153 0.0
C5996 C 0.91018 0.40085 0.43314 0.0
C5997 C 0.90098 0.40625 0.43449 0.0
C5998 C 0.86381 0.41707 0.43061 0.0
C5999 C 0.86723 0.4178 0.42037 0.0
C6000 C 0.86387 0.37387 0.82723 0.0
C6001 C 0.8629 0.36363 0.82375 0.0
C6002 C 0.86221 0.36183 0.81305 0.0
C6003 C 0.86301 0.36997 0.80602 0.0
H6004 H 0.86247 0.37715 0.77457 0.0
H6005 H 0.86314 0.37392 0.75593 0.0
H6006 H 0.87508 0.40462 0.75115 0.0
H6007 H 0.87449 0.40786 0.76958 0.0
H6008 H 0.8866 0.41861 0.78824 0.0
H6009 H 0.8987 0.4312 0.79546 0.0
H6010 H 0.88827 0.42382 0.82615 0.0
H6011 H 0.87633 0.41113 0.81911 0.0
H6012 H 0.86582 0.38974 0.82318 0.0
H6013 H 0.8642 0.37559 0.8354 0.0
H6014 H 0.86158 0.35405 0.81006 0.0
H6015 H 0.86286 0.36822 0.79784 0.0
N6016 N 0.86601 0.3871 0.79175 0.0
N6017 N 0.87361 0.40325 0.78872 0.0
N6018 N 0.87142 0.39735 0.80564 0.0
C6019 C 0.86917 0.39449 0.78499 0.0
C6020 C 0.87472 0.40476 0.79904 0.0
C6021 C 0.86705 0.38852 0.80211 0.0
C6022 C 0.86857 0.39273 0.77364 0.0
C6023 C 0.86515 0.38325 0.76953 0.0
C6024 C 0.86549 0.3814 0.75885 0.0
C6025 C 0.86931 0.38895 0.75209 0.0
C6026 C 0.87228 0.39856 0.75617 0.0
C6027 C 0.87191 0.40042 0.76678 0.0
C6028 C 0.88058 0.41373 0.8031 0.0
C6029 C 0.88671 0.41981 0.79651 0.0
C6030 C 0.89362 0.42703 0.80061 0.0
C6031 C 0.89432 0.42845 0.81132 0.0
C6032 C 0.88773 0.42292 0.81785 0.0
C6033 C 0.88096 0.41561 0.81379 0.0
C6034 C 0.8646 0.38012 0.8095 0.0
C6035 C 0.86474 0.382 0.8202 0.0
C6036 C 0.86125 0.59677 0.09901 0.0
C6037 C 0.85164 0.60141 0.09709 0.0
C6038 C 0.84782 0.60128 0.0869 0.0
C6039 C 0.85389 0.5975 0.07876 0.0
H6040 H 0.85702 0.57928 0.04932 0.0
H6041 H 0.85157 0.5739 0.03217 0.0
H6042 H 0.88146 0.58203 0.02007 0.0
H6043 H 0.88702 0.58698 0.03723 0.0
H6044 H 0.9029 0.59993 0.05094 0.0
H6045 H 0.919 0.6094 0.0533 0.0
H6046 H 0.91219 0.61295 0.08573 0.0
H6047 H 0.89616 0.6037 0.0834 0.0
H6048 H 0.87501 0.59039 0.09259 0.0
H6049 H 0.86432 0.59635 0.10677 0.0
H6050 H 0.84047 0.60475 0.08508 0.0
H6051 H 0.85104 0.59813 0.07093 0.0
N6052 N 0.86856 0.58852 0.06285 0.0
N6053 N 0.88512 0.59191 0.05634 0.0
N6054 N 0.88103 0.59629 0.07337 0.0
C6055 C 0.87548 0.588 0.05494 0.0
C6056 C 0.88795 0.59608 0.06555 0.0
C6057 C 0.87137 0.59257 0.07213 0.0
C6058 C 0.87241 0.58378 0.04468 0.0
C6059 C 0.86248 0.57981 0.04303 0.0
C6060 C 0.85933 0.57676 0.03315 0.0
C6061 C 0.86599 0.57768 0.0246 0.0
C6062 C 0.8761 0.58112 0.02639 0.0
C6063 C 0.87927 0.58409 0.03628 0.0
C6064 C 0.89816 0.60108 0.06696 0.0
C6065 C 0.90488 0.60267 0.05859 0.0
C6066 C 0.91412 0.60809 0.05994 0.0
C6067 C 0.91685 0.61206 0.06968 0.0
C6068 C 0.91025 0.61022 0.07807 0.0
C6069 C 0.90105 0.60483 0.07673 0.0
C6070 C 0.86391 0.59394 0.08065 0.0
C6071 C 0.86736 0.59324 0.09089 0.0
C6072 C 0.61995 0.57989 0.3222 0.0
C6073 C 0.61293 0.57532 0.31538 0.0
C6074 C 0.61363 0.57745 0.30479 0.0
C6075 C 0.62098 0.58445 0.30112 0.0
H6076 H 0.63444 0.59713 0.27491 0.0
H6077 H 0.63467 0.60144 0.25669 0.0
H6078 H 0.64874 0.6308 0.26361 0.0
H6079 H 0.64861 0.62648 0.28202 0.0
H6080 H 0.64755 0.63437 0.30552 0.0
H6081 H 0.64891 0.64792 0.31839 0.0
H6082 H 0.64443 0.62544 0.34262 0.0
H6083 H 0.64273 0.61192 0.32971 0.0
H6084 H 0.63214 0.59076 0.32413 0.0
H6085 H 0.61944 0.57844 0.33042 0.0
H6086 H 0.60822 0.57403 0.29943 0.0
H6087 H 0.62109 0.58625 0.29296 0.0
N6088 N 0.63538 0.60044 0.29437 0.0
N6089 N 0.64368 0.61602 0.29845 0.0
N6090 N 0.63742 0.60536 0.31164 0.0
C6091 C 0.64035 0.60915 0.29123 0.0
C6092 C 0.64229 0.61414 0.30868 0.0
C6093 C 0.63394 0.59847 0.30457 0.0
C6094 C 0.64137 0.6115 0.28002 0.0
C6095 C 0.63766 0.60449 0.27262 0.0
C6096 C 0.63776 0.60697 0.26213 0.0
C6097 C 0.64158 0.61653 0.25871 0.0
C6098 C 0.64575 0.62337 0.26601 0.0
C6099 C 0.64562 0.6209 0.27656 0.0
C6100 C 0.64487 0.62206 0.31654 0.0
C6101 C 0.64702 0.63227 0.31359 0.0
C6102 C 0.64786 0.64006 0.32101 0.0
C6103 C 0.64667 0.63783 0.33158 0.0
C6104 C 0.64517 0.6275 0.33456 0.0
C6105 C 0.64425 0.61972 0.32713 0.0
C6106 C 0.62757 0.58961 0.30804 0.0
C6107 C 0.62717 0.58699 0.31858 0.0
C6108 C 0.61546 0.40277 0.58776 0.0
C6109 C 0.60625 0.40707 0.5841 0.0
C6110 C 0.60639 0.41205 0.57439 0.0
C6111 C 0.6154 0.4123 0.56836 0.0
H6112 H 0.6311 0.42228 0.53892 0.0
H6113 H 0.63388 0.42848 0.52117 0.0
H6114 H 0.66218 0.41115 0.51972 0.0
H6115 H 0.65957 0.40513 0.53708 0.0
H6116 H 0.66924 0.39342 0.55576 0.0
H6117 H 0.68158 0.38098 0.56296 0.0
H6118 H 0.66106 0.37528 0.58849 0.0
H6119 H 0.64891 0.38761 0.58157 0.0
H6120 H 0.63119 0.3995 0.58505 0.0
H6121 H 0.61576 0.39869 0.59504 0.0
H6122 H 0.5995 0.41563 0.57136 0.0
H6123 H 0.61518 0.4159 0.56082 0.0
N6124 N 0.63493 0.41081 0.55585 0.0
N6125 N 0.65122 0.40293 0.55426 0.0
N6126 N 0.64161 0.40061 0.56921 0.0
C6127 C 0.64368 0.40902 0.5502 0.0
C6128 C 0.65023 0.39869 0.56376 0.0
C6129 C 0.63393 0.40659 0.56548 0.0
C6130 C 0.6451 0.4132 0.53954 0.0
C6131 C 0.63793 0.41985 0.53481 0.0
C6132 C 0.63951 0.4234 0.52464 0.0
C6133 C 0.64833 0.42043 0.51905 0.0
C6134 C 0.65544 0.41382 0.52383 0.0
C6135 C 0.65387 0.41029 0.53386 0.0
C6136 C 0.65804 0.39152 0.56804 0.0
C6137 C 0.66739 0.38954 0.56293 0.0
C6138 C 0.67444 0.38244 0.56703 0.0
C6139 C 0.67217 0.37711 0.5762 0.0
C6140 C 0.66291 0.37916 0.58132 0.0
C6141 C 0.65597 0.3863 0.57734 0.0
C6142 C 0.62448 0.40763 0.57195 0.0
C6143 C 0.6244 0.40313 0.58186 0.0
C6144 C 0.69842 0.87683 0.66266 0.0
C6145 C 0.70719 0.87949 0.66834 0.0
C6146 C 0.71688 0.87613 0.66485 0.0
C6147 C 0.71777 0.87055 0.65559 0.0
H6148 H 0.73766 0.85432 0.63475 0.0
H6149 H 0.7539 0.84999 0.62646 0.0
H6150 H 0.73772 0.84263 0.59829 0.0
H6151 H 0.72152 0.84714 0.60645 0.0
H6152 H 0.69749 0.85418 0.6034 0.0
H6153 H 0.68179 0.85762 0.59338 0.0
H6154 H 0.66727 0.86981 0.62079 0.0
H6155 H 0.68242 0.86622 0.63066 0.0
H6156 H 0.69225 0.86948 0.64942 0.0
H6157 H 0.69082 0.87905 0.66528 0.0
H6158 H 0.72377 0.87804 0.66914 0.0
H6159 H 0.72533 0.8683 0.6529 0.0
N6160 N 0.71838 0.85923 0.63553 0.0
N6161 N 0.70971 0.85518 0.62003 0.0
N6162 N 0.70092 0.863 0.63363 0.0
C6163 C 0.7185 0.85513 0.6258 0.0
C6164 C 0.70086 0.85909 0.62397 0.0
C6165 C 0.70951 0.86315 0.63949 0.0
C6166 C 0.72826 0.8513 0.62123 0.0
C6167 C 0.73753 0.85169 0.62682 0.0
C6168 C 0.74686 0.84912 0.62209 0.0
C6169 C 0.74714 0.84611 0.61166 0.0
C6170 C 0.73781 0.84513 0.60627 0.0
C6171 C 0.7285 0.8477 0.61098 0.0
C6172 C 0.69128 0.85996 0.61783 0.0
C6173 C 0.69085 0.85741 0.60728 0.0
C6174 C 0.68189 0.8594 0.60154 0.0
C6175 C 0.67324 0.86388 0.60631 0.0
C6176 C 0.67365 0.86609 0.6169 0.0
C6177 C 0.68247 0.86412 0.62256 0.0
C6178 C 0.70895 0.86819 0.64976 0.0
C6179 C 0.69927 0.87125 0.65355 0.0
C6180 C 0.19841 0.63429 0.34865 0.0
C6181 C 0.20718 0.63163 0.34297 0.0
C6182 C 0.21687 0.63498 0.34645 0.0
C6183 C 0.21776 0.64057 0.35572 0.0
H6184 H 0.23765 0.6568 0.37655 0.0
H6185 H 0.2539 0.66113 0.38484 0.0
H6186 H 0.23772 0.66848 0.41301 0.0
H6187 H 0.22152 0.66397 0.40486 0.0
H6188 H 0.19748 0.65693 0.40791 0.0
H6189 H 0.18179 0.65348 0.41793 0.0
H6190 H 0.16727 0.6413 0.39052 0.0
H6191 H 0.18242 0.6449 0.38065 0.0
H6192 H 0.19224 0.64165 0.36189 0.0
H6193 H 0.19081 0.63207 0.34603 0.0
H6194 H 0.22376 0.63307 0.34216 0.0
H6195 H 0.22532 0.64281 0.3584 0.0
N6196 N 0.21837 0.65188 0.37578 0.0
N6197 N 0.20971 0.65594 0.39128 0.0
N6198 N 0.20092 0.64812 0.37768 0.0
C6199 C 0.2185 0.65598 0.38551 0.0
C6200 C 0.20086 0.65202 0.38733 0.0
C6201 C 0.2095 0.64797 0.37182 0.0
C6202 C 0.22826 0.65982 0.39008 0.0
C6203 C 0.23752 0.65943 0.38448 0.0
C6204 C 0.24686 0.662 0.38921 0.0
C6205 C 0.24713 0.66501 0.39964 0.0
C6206 C 0.23781 0.66598 0.40503 0.0
C6207 C 0.22849 0.66342 0.40032 0.0
C6208 C 0.19128 0.65116 0.39348 0.0
C6209 C 0.19085 0.6537 0.40403 0.0
C6210 C 0.18189 0.65171 0.40976 0.0
C6211 C 0.17324 0.64723 0.405 0.0
C6212 C 0.17365 0.64502 0.39441 0.0
C6213 C 0.18247 0.64699 0.38874 0.0
C6214 C 0.20894 0.64293 0.36155 0.0
C6215 C 0.19926 0.63987 0.35776 0.0
C6216 C 0.61386 0.934 0.62397 0.0
C6217 C 0.61289 0.93747 0.61373 0.0
C6218 C 0.6122 0.94816 0.61192 0.0
C6219 C 0.613 0.95521 0.62006 0.0
H6220 H 0.61246 0.98666 0.62724 0.0
H6221 H 0.61312 1.00529 0.62401 0.0
H6222 H 0.62512 0.01011 0.65468 0.0
H6223 H 0.62455 0.99169 0.65793 0.0
H6224 H 0.63663 0.973 0.66872 0.0
H6225 H 0.64872 0.96576 0.6813 0.0
H6226 H 0.63825 0.93509 0.67391 0.0
H6227 H 0.62632 0.94215 0.66122 0.0
H6228 H 0.61581 0.93807 0.63983 0.0
H6229 H 0.61419 0.92583 0.62569 0.0
H6230 H 0.61157 0.95115 0.60414 0.0
H6231 H 0.61286 0.96338 0.61831 0.0
N6232 N 0.61602 0.96949 0.63719 0.0
N6233 N 0.62363 0.97253 0.65335 0.0
N6234 N 0.62142 0.95561 0.64745 0.0
C6235 C 0.61919 0.97626 0.64458 0.0
C6236 C 0.62473 0.96221 0.65486 0.0
C6237 C 0.61706 0.95913 0.63861 0.0
C6238 C 0.6186 0.9876 0.64281 0.0
C6239 C 0.61515 0.9917 0.63334 0.0
C6240 C 0.61548 1.00238 0.63148 0.0
C6241 C 0.61932 0.00916 0.63903 0.0
C6242 C 0.62232 1.00508 0.64863 0.0
C6243 C 0.62196 0.99448 0.65049 0.0
C6244 C 0.63059 0.95815 0.66383 0.0
C6245 C 0.63673 0.96473 0.66992 0.0
C6246 C 0.64363 0.96062 0.67713 0.0
C6247 C 0.64432 0.94991 0.67855 0.0
C6248 C 0.63773 0.94339 0.67302 0.0
C6249 C 0.63095 0.94746 0.66571 0.0
C6250 C 0.61459 0.95174 0.63021 0.0
C6251 C 0.61473 0.94104 0.6321 0.0
C6252 C 0.30716 0.37365 0.84072 0.0
C6253 C 0.29829 0.37661 0.83537 0.0
C6254 C 0.28864 0.37325 0.83899 0.0
C6255 C 0.28792 0.36735 0.84807 0.0
H6256 H 0.26837 0.35046 0.86895 0.0
H6257 H 0.25228 0.34649 0.87774 0.0
H6258 H 0.26911 0.33913 0.90551 0.0
H6259 H 0.28516 0.34321 0.89685 0.0
H6260 H 0.30948 0.34867 0.8989 0.0
H6261 H 0.32562 0.35124 0.90844 0.0
H6262 H 0.33979 0.36311 0.88071 0.0
H6263 H 0.32418 0.36034 0.8713 0.0
H6264 H 0.31358 0.36577 0.85351 0.0
H6265 H 0.31472 0.37588 0.83799 0.0
H6266 H 0.28167 0.37538 0.83494 0.0
H6267 H 0.28041 0.36508 0.85086 0.0
N6268 N 0.28767 0.35547 0.86781 0.0
N6269 N 0.2968 0.35042 0.88273 0.0
N6270 N 0.30533 0.35844 0.8691 0.0
C6271 C 0.28778 0.35097 0.87736 0.0
C6272 C 0.30563 0.35413 0.87857 0.0
C6273 C 0.29652 0.35919 0.86363 0.0
C6274 C 0.27808 0.34737 0.88223 0.0
C6275 C 0.26867 0.3479 0.8769 0.0
C6276 C 0.25943 0.34554 0.88192 0.0
C6277 C 0.2594 0.34263 0.89238 0.0
C6278 C 0.26885 0.34153 0.89751 0.0
C6279 C 0.27807 0.34386 0.89251 0.0
C6280 C 0.31547 0.35435 0.88435 0.0
C6281 C 0.31613 0.35162 0.89484 0.0
C6282 C 0.32534 0.35312 0.9003 0.0
C6283 C 0.33402 0.35729 0.89531 0.0
C6284 C 0.33339 0.35963 0.88476 0.0
C6285 C 0.3243 0.35814 0.87937 0.0
C6286 C 0.29686 0.36466 0.85357 0.0
C6287 C 0.30647 0.36776 0.84964 0.0
C6288 C 0.37008 0.57189 0.68093 0.0
C6289 C 0.36314 0.56508 0.68562 0.0
C6290 C 0.36393 0.55447 0.68362 0.0
C6291 C 0.37129 0.55077 0.67665 0.0
H6292 H 0.38362 0.52464 0.6638 0.0
H6293 H 0.3834 0.50641 0.65953 0.0
H6294 H 0.39922 0.51268 0.63095 0.0
H6295 H 0.39947 0.53112 0.63518 0.0
H6296 H 0.39757 0.55481 0.62656 0.0
H6297 H 0.39881 0.56768 0.61298 0.0
H6298 H 0.39484 0.59194 0.63554 0.0
H6299 H 0.39329 0.57905 0.64908 0.0
H6300 H 0.38223 0.57378 0.67 0.0
H6301 H 0.36949 0.58013 0.68227 0.0
H6302 H 0.35858 0.54911 0.68713 0.0
H6303 H 0.37146 0.54258 0.67496 0.0
N6304 N 0.38561 0.54392 0.66069 0.0
N6305 N 0.39393 0.5478 0.64508 0.0
N6306 N 0.38772 0.56111 0.65563 0.0
C6307 C 0.39057 0.54067 0.65202 0.0
C6308 C 0.39258 0.55806 0.64688 0.0
C6309 C 0.38421 0.55413 0.66258 0.0
C6310 C 0.39143 0.52943 0.64978 0.0
C6311 C 0.38714 0.52221 0.65663 0.0
C6312 C 0.38699 0.51173 0.65418 0.0
C6313 C 0.39116 0.50814 0.64484 0.0
C6314 C 0.39594 0.51524 0.63819 0.0
C6315 C 0.39603 0.5258 0.64062 0.0
C6316 C 0.39516 0.56586 0.6389 0.0
C6317 C 0.39714 0.56289 0.62867 0.0
C6318 C 0.3979 0.5703 0.62086 0.0
C6319 C 0.3968 0.58088 0.62312 0.0
C6320 C 0.3955 0.58387 0.63347 0.0
C6321 C 0.39466 0.57646 0.64126 0.0
C6322 C 0.37781 0.55767 0.67138 0.0
C6323 C 0.37732 0.56824 0.67385 0.0
C6324 C 0.80731 0.13743 0.17056 0.0
C6325 C 0.79845 0.13439 0.1759 0.0
C6326 C 0.78879 0.13771 0.17229 0.0
C6327 C 0.78804 0.14364 0.16323 0.0
H6328 H 0.76841 0.16058 0.14238 0.0
H6329 H 0.75231 0.16455 0.1336 0.0
H6330 H 0.76912 0.17198 0.10584 0.0
H6331 H 0.78518 0.16789 0.1145 0.0
H6332 H 0.80951 0.16238 0.11239 0.0
H6333 H 0.82565 0.15979 0.10286 0.0
H6334 H 0.83985 0.14801 0.13061 0.0
H6335 H 0.82424 0.1508 0.14002 0.0
H6336 H 0.81368 0.14539 0.15781 0.0
H6337 H 0.81488 0.13523 0.17329 0.0
H6338 H 0.78183 0.13552 0.17633 0.0
H6339 H 0.78051 0.14587 0.16044 0.0
N6340 N 0.78773 0.15559 0.14351 0.0
N6341 N 0.79683 0.16065 0.12858 0.0
N6342 N 0.80539 0.15264 0.14221 0.0
C6343 C 0.78782 0.16009 0.13396 0.0
C6344 C 0.80568 0.15696 0.13273 0.0
C6345 C 0.79659 0.15188 0.14768 0.0
C6346 C 0.77811 0.1637 0.12911 0.0
C6347 C 0.7687 0.16315 0.13444 0.0
C6348 C 0.75946 0.16551 0.12943 0.0
C6349 C 0.75942 0.16844 0.11897 0.0
C6350 C 0.76887 0.16955 0.11384 0.0
C6351 C 0.77809 0.16723 0.11884 0.0
C6352 C 0.81551 0.15674 0.12696 0.0
C6353 C 0.81617 0.15944 0.11646 0.0
C6354 C 0.82539 0.15793 0.111 0.0
C6355 C 0.83407 0.15378 0.11599 0.0
C6356 C 0.83344 0.15148 0.12655 0.0
C6357 C 0.82436 0.15297 0.13195 0.0
C6358 C 0.79696 0.1464 0.15774 0.0
C6359 C 0.80659 0.14335 0.16166 0.0
C6360 C 0.61387 0.07712 0.88732 0.0
C6361 C 0.6129 0.07365 0.89756 0.0
C6362 C 0.61221 0.06296 0.89937 0.0
C6363 C 0.61301 0.05591 0.89123 0.0
H6364 H 0.61246 0.02446 0.88405 0.0
H6365 H 0.61311 0.00583 0.88728 0.0
H6366 H 0.62514 1.001 0.85662 0.0
H6367 H 0.62458 0.01942 0.85337 0.0
H6368 H 0.63666 0.03812 0.84258 0.0
H6369 H 0.64874 0.04535 0.83 0.0
H6370 H 0.63824 0.07602 0.83739 0.0
H6371 H 0.62632 0.06897 0.85007 0.0
H6372 H 0.61582 0.07305 0.87145 0.0
H6373 H 0.6142 0.08529 0.88559 0.0
H6374 H 0.61158 0.05997 0.90715 0.0
H6375 H 0.61287 0.04775 0.89299 0.0
N6376 N 0.61603 0.04162 0.8741 0.0
N6377 N 0.62365 0.03858 0.85795 0.0
N6378 N 0.62143 0.05551 0.86385 0.0
C6379 C 0.6192 0.03486 0.86671 0.0
C6380 C 0.62474 0.0489 0.85644 0.0
C6381 C 0.61706 0.05198 0.87268 0.0
C6382 C 0.61861 0.02351 0.86849 0.0
C6383 C 0.61516 0.01942 0.87796 0.0
C6384 C 0.61548 0.00874 0.87982 0.0
C6385 C 0.61932 1.00196 0.87227 0.0
C6386 C 0.62233 0.00603 0.86267 0.0
C6387 C 0.62198 0.01663 0.8608 0.0
C6388 C 0.6306 0.05296 0.84747 0.0
C6389 C 0.63674 0.04639 0.84138 0.0
C6390 C 0.64365 0.05049 0.83417 0.0
C6391 C 0.64433 0.0612 0.83275 0.0
C6392 C 0.63773 0.06772 0.83828 0.0
C6393 C 0.63095 0.06366 0.84559 0.0
C6394 C 0.6146 0.05938 0.88108 0.0
C6395 C 0.61474 0.07008 0.87919 0.0
C6396 C 0.86996 0.93901 0.32996 0.0
C6397 C 0.86293 0.94582 0.3254 0.0
C6398 C 0.86364 0.95641 0.32753 0.0
C6399 C 0.871 0.96008 0.33454 0.0
H6400 H 0.88442 0.98629 0.34727 0.0
H6401 H 0.88468 1.00451 0.35159 0.0
H6402 H 0.89882 0.99758 0.38092 0.0
H6403 H 0.89867 0.97918 0.37659 0.0
H6404 H 0.89756 0.95567 0.38448 0.0
H6405 H 0.89891 0.9428 0.39802 0.0
H6406 H 0.8944 0.91857 0.37553 0.0
H6407 H 0.89271 0.93149 0.36201 0.0
H6408 H 0.88215 0.93707 0.34084 0.0
H6409 H 0.86944 0.93079 0.32851 0.0
H6410 H 0.85823 0.96177 0.32412 0.0
H6411 H 0.8711 0.96824 0.33634 0.0
N6412 N 0.8854 0.96683 0.35055 0.0
N6413 N 0.89369 0.96275 0.36613 0.0
N6414 N 0.88743 0.94956 0.35546 0.0
C6415 C 0.89037 0.96997 0.35927 0.0
C6416 C 0.89229 0.95251 0.36424 0.0
C6417 C 0.88396 0.95663 0.34856 0.0
C6418 C 0.8914 0.98118 0.36162 0.0
C6419 C 0.88766 0.98858 0.35463 0.0
C6420 C 0.88778 0.99906 0.35712 0.0
C6421 C 0.89163 1.00249 0.36667 0.0
C6422 C 0.89581 0.99519 0.3735 0.0
C6423 C 0.89567 0.98464 0.37101 0.0
C6424 C 0.89487 0.94465 0.37216 0.0
C6425 C 0.89703 0.9476 0.38237 0.0
C6426 C 0.89786 0.94018 0.39016 0.0
C6427 C 0.89666 0.92962 0.38792 0.0
C6428 C 0.89515 0.92664 0.37759 0.0
C6429 C 0.89423 0.93406 0.36981 0.0
C6430 C 0.87758 0.95316 0.3397 0.0
C6431 C 0.87718 0.94263 0.33707 0.0
C6432 C 0.35561 0.31521 0.12657 0.0
C6433 C 0.34647 0.30944 0.12701 0.0
C6434 C 0.34668 0.29962 0.13162 0.0
C6435 C 0.35587 0.29554 0.13543 0.0
H6436 H 0.36833 0.26891 0.14651 0.0
H6437 H 0.36871 0.25014 0.14764 0.0
H6438 H 0.40186 0.25072 0.14615 0.0
H6439 H 0.40156 0.26943 0.14484 0.0
H6440 H 0.41123 0.28855 0.13039 0.0
H6441 H 0.42459 0.29756 0.12051 0.0
H6442 H 0.40957 0.3266 0.1265 0.0
H6443 H 0.3962 0.31773 0.13626 0.0
H6444 H 0.3717 0.31575 0.12973 0.0
H6445 H 0.35568 0.32288 0.12325 0.0
H6446 H 0.33979 0.29495 0.13201 0.0
H6447 H 0.35578 0.28785 0.13869 0.0
N6448 N 0.37545 0.28657 0.14109 0.0
N6449 N 0.39349 0.28706 0.14068 0.0
N6450 N 0.38393 0.30162 0.13591 0.0
C6451 C 0.38463 0.28183 0.1427 0.0
C6452 C 0.39318 0.29702 0.13741 0.0
C6453 C 0.37503 0.29647 0.1377 0.0
C6454 C 0.38491 0.27069 0.14532 0.0
C6455 C 0.37573 0.26507 0.14658 0.0
C6456 C 0.37592 0.2543 0.14731 0.0
C6457 C 0.3853 0.24897 0.14678 0.0
C6458 C 0.39451 0.25464 0.14636 0.0
C6459 C 0.39432 0.26538 0.14564 0.0
C6460 C 0.40258 0.30242 0.13396 0.0
C6461 C 0.41099 0.29689 0.12993 0.0
C6462 C 0.41864 0.30202 0.1243 0.0
C6463 C 0.41805 0.31272 0.12283 0.0
C6464 C 0.41019 0.31834 0.12765 0.0
C6465 C 0.40252 0.31324 0.13317 0.0
C6466 C 0.36507 0.30119 0.13472 0.0
C6467 C 0.36479 0.31114 0.13038 0.0
C6468 C 0.43003 0.61525 0.89807 0.0
C6469 C 0.43375 0.60507 0.89852 0.0
C6470 C 0.44447 0.60353 0.89894 0.0
C6471 C 0.45129 0.61189 0.89831 0.0
H6472 H 0.48288 0.62023 0.89673 0.0
H6473 H 0.50156 0.61821 0.89515 0.0
H6474 H 0.50418 0.65021 0.88634 0.0
H6475 H 0.48571 0.65225 0.88781 0.0
H6476 H 0.46565 0.6616 0.87464 0.0
H6477 H 0.4567 0.67404 0.86348 0.0
H6478 H 0.42785 0.66587 0.87764 0.0
H6479 H 0.43661 0.65355 0.88876 0.0
H6480 H 0.43363 0.63128 0.89676 0.0
H6481 H 0.42185 0.61678 0.89797 0.0
H6482 H 0.44765 0.59581 0.89922 0.0
H6483 H 0.45947 0.61035 0.89819 0.0
N6484 N 0.46501 0.62971 0.89528 0.0
N6485 N 0.467 0.64633 0.88824 0.0
N6486 N 0.45054 0.63962 0.89102 0.0
C6487 C 0.47128 0.63755 0.89213 0.0
C6488 C 0.45662 0.64744 0.88771 0.0
C6489 C 0.45459 0.63074 0.8948 0.0
C6490 C 0.4827 0.63637 0.89222 0.0
C6491 C 0.48745 0.62686 0.89454 0.0
C6492 C 0.49817 0.6257 0.89368 0.0
C6493 C 0.50435 0.634 0.89044 0.0
C6494 C 0.49963 0.64359 0.88862 0.0
C6495 C 0.489 0.64476 0.88949 0.0
C6496 C 0.45183 0.65644 0.88249 0.0
C6497 C 0.45744 0.66267 0.87559 0.0
C6498 C 0.45235 0.66981 0.86922 0.0
C6499 C 0.44163 0.67087 0.86977 0.0
C6500 C 0.43615 0.6652 0.87715 0.0
C6501 C 0.44118 0.6581 0.88346 0.0
C6502 C 0.44755 0.622 0.8972 0.0
C6503 C 0.43683 0.62359 0.89742 0.0
C6504 C 0.09686 0.70197 0.62757 0.0
C6505 C 0.0892 0.70706 0.62193 0.0
C6506 C 0.08883 0.71788 0.62198 0.0
C6507 C 0.0965 0.72355 0.62705 0.0
H6508 H 0.10621 0.75241 0.63917 0.0
H6509 H 0.10623 0.77117 0.63924 0.0
H6510 H 0.13933 0.77128 0.64169 0.0
H6511 H 0.13938 0.75246 0.64178 0.0
H6512 H 0.15175 0.73257 0.63595 0.0
H6513 H 0.16775 0.72445 0.6305 0.0
H6514 H 0.15135 0.69621 0.62394 0.0
H6515 H 0.13535 0.70432 0.62917 0.0
H6516 H 0.11074 0.70343 0.63627 0.0
H6517 H 0.09733 0.69362 0.62751 0.0
H6518 H 0.08303 0.72192 0.61754 0.0
H6519 H 0.09643 0.73188 0.62643 0.0
N6520 N 0.11399 0.73429 0.63704 0.0
N6521 N 0.13204 0.73453 0.63762 0.0
N6522 N 0.12336 0.71917 0.6339 0.0
C6523 C 0.12292 0.73956 0.63863 0.0
C6524 C 0.13232 0.72432 0.63526 0.0
C6525 C 0.11418 0.72405 0.63481 0.0
C6526 C 0.12281 0.75089 0.64025 0.0
C6527 C 0.1135 0.75639 0.63988 0.0
C6528 C 0.11351 0.76715 0.63989 0.0
C6529 C 0.1228 0.77268 0.64027 0.0
C6530 C 0.13206 0.76722 0.64138 0.0
C6531 C 0.13207 0.75643 0.64135 0.0
C6532 C 0.14223 0.71913 0.63297 0.0
C6533 C 0.15155 0.7246 0.63343 0.0
C6534 C 0.16074 0.71994 0.63032 0.0
C6535 C 0.16082 0.70971 0.6267 0.0
C6536 C 0.15154 0.70416 0.6265 0.0
C6537 C 0.14236 0.70881 0.62961 0.0
C6538 C 0.10472 0.71842 0.63192 0.0
C6539 C 0.10456 0.7076 0.63252 0.0
C6540 C 0.08835 0.38693 0.39667 0.0
C6541 C 0.08572 0.3953 0.40306 0.0
C6542 C 0.07722 0.39415 0.40975 0.0
C6543 C 0.07124 0.38512 0.40964 0.0
H6544 H 0.03864 0.37422 0.41066 0.0
H6545 H 0.02059 0.37281 0.4157 0.0
H6546 H 0.02337 0.33955 0.41588 0.0
H6547 H 0.04112 0.34101 0.41026 0.0
H6548 H 0.05296 0.33619 0.38408 0.0
H6549 H 0.05876 0.3253 0.36959 0.0
H6550 H 0.0891 0.33848 0.37204 0.0
H6551 H 0.08353 0.34913 0.38636 0.0
H6552 H 0.08471 0.37182 0.39139 0.0
H6553 H 0.0947 0.38746 0.39129 0.0
H6554 H 0.07506 0.4003 0.41498 0.0
H6555 H 0.06462 0.38462 0.41469 0.0
N6556 N 0.05769 0.36692 0.40666 0.0
N6557 N 0.05493 0.35077 0.3987 0.0
N6558 N 0.07015 0.35986 0.3957 0.0
C6559 C 0.05164 0.35843 0.40513 0.0
C6560 C 0.06423 0.35144 0.39397 0.0
C6561 C 0.06706 0.36762 0.40198 0.0
C6562 C 0.04124 0.35772 0.40982 0.0
C6563 C 0.03539 0.36662 0.41189 0.0
C6564 C 0.02504 0.3658 0.41485 0.0
C6565 C 0.02036 0.35605 0.41596 0.0
C6566 C 0.02653 0.3472 0.41472 0.0
C6567 C 0.03677 0.34802 0.41156 0.0
C6568 C 0.06773 0.34365 0.38631 0.0
C6569 C 0.06091 0.33659 0.38165 0.0
C6570 C 0.06421 0.33036 0.37338 0.0
C6571 C 0.07433 0.33117 0.36969 0.0
C6572 C 0.08123 0.3378 0.3747 0.0
C6573 C 0.078 0.34392 0.38291 0.0
C6574 C 0.07369 0.37696 0.40293 0.0
C6575 C 0.08248 0.37791 0.39665 0.0
C6576 C 0.35561 0.69592 0.38473 0.0
C6577 C 0.34646 0.70169 0.38429 0.0
C6578 C 0.34667 0.71151 0.37969 0.0
C6579 C 0.35586 0.71559 0.37587 0.0
H6580 H 0.36831 0.74222 0.3648 0.0
H6581 H 0.36869 0.761 0.36368 0.0
H6582 H 0.40184 0.76039 0.36514 0.0
H6583 H 0.40154 0.74168 0.36644 0.0
H6584 H 0.41121 0.72257 0.3809 0.0
H6585 H 0.42458 0.71356 0.39079 0.0
H6586 H 0.40957 0.68452 0.38479 0.0
H6587 H 0.3962 0.69339 0.37503 0.0
H6588 H 0.3717 0.69538 0.38158 0.0
H6589 H 0.35568 0.68825 0.38805 0.0
H6590 H 0.33977 0.71618 0.3793 0.0
H6591 H 0.35577 0.72328 0.37261 0.0
N6592 N 0.37543 0.72455 0.37021 0.0
N6593 N 0.39348 0.72406 0.37061 0.0
N6594 N 0.38391 0.70951 0.37539 0.0
C6595 C 0.38461 0.72929 0.3686 0.0
C6596 C 0.39316 0.7141 0.37388 0.0
C6597 C 0.37501 0.71465 0.3736 0.0
C6598 C 0.38489 0.74043 0.36598 0.0
C6599 C 0.37571 0.74606 0.36473 0.0
C6600 C 0.3759 0.75683 0.364 0.0
C6601 C 0.38528 0.76215 0.36453 0.0
C6602 C 0.39449 0.75648 0.36494 0.0
C6603 C 0.3943 0.74574 0.36566 0.0
C6604 C 0.40257 0.70869 0.37733 0.0
C6605 C 0.41097 0.71423 0.38136 0.0
C6606 C 0.41863 0.7091 0.38699 0.0
C6607 C 0.41805 0.69839 0.38846 0.0
C6608 C 0.41019 0.69278 0.38364 0.0
C6609 C 0.40252 0.69788 0.37812 0.0
C6610 C 0.36506 0.70994 0.37659 0.0
C6611 C 0.36479 0.69999 0.38092 0.0
C6612 C 0.08839 0.62418 0.11463 0.0
C6613 C 0.08577 0.61582 0.10823 0.0
C6614 C 0.07727 0.61698 0.10154 0.0
C6615 C 0.07129 0.62601 0.10165 0.0
H6616 H 0.03871 0.6369 0.10059 0.0
H6617 H 0.02067 0.6383 0.09552 0.0
H6618 H 0.0234 0.67156 0.0954 0.0
H6619 H 0.04114 0.67011 0.10105 0.0
H6620 H 0.05298 0.67494 0.12721 0.0
H6621 H 0.05877 0.68583 0.1417 0.0
H6622 H 0.08911 0.67264 0.13928 0.0
H6623 H 0.08356 0.66199 0.12497 0.0
H6624 H 0.08475 0.6393 0.11992 0.0
H6625 H 0.09474 0.62365 0.12001 0.0
H6626 H 0.07512 0.61084 0.09631 0.0
H6627 H 0.06468 0.62652 0.0966 0.0
N6628 N 0.05774 0.64421 0.10463 0.0
N6629 N 0.05497 0.66036 0.11259 0.0
N6630 N 0.07019 0.65127 0.11561 0.0
C6631 C 0.05168 0.65269 0.10616 0.0
C6632 C 0.06426 0.65968 0.11733 0.0
C6633 C 0.06711 0.64351 0.10932 0.0
C6634 C 0.04129 0.6534 0.10146 0.0
C6635 C 0.03546 0.6445 0.09937 0.0
C6636 C 0.0251 0.64531 0.0964 0.0
C6637 C 0.02041 0.65505 0.09529 0.0
C6638 C 0.02656 0.66392 0.09655 0.0
C6639 C 0.0368 0.6631 0.09973 0.0
C6640 C 0.06776 0.66747 0.125 0.0
C6641 C 0.06093 0.67454 0.12964 0.0
C6642 C 0.06422 0.68076 0.13792 0.0
C6643 C 0.07435 0.67995 0.14162 0.0
C6644 C 0.08124 0.67333 0.13661 0.0
C6645 C 0.07802 0.6672 0.12841 0.0
C6646 C 0.07374 0.63417 0.10837 0.0
C6647 C 0.08253 0.63321 0.11465 0.0
C6648 C 0.09686 0.30919 0.88373 0.0
C6649 C 0.0892 0.30409 0.88936 0.0
C6650 C 0.08883 0.29327 0.88929 0.0
C6651 C 0.09651 0.28761 0.88422 0.0
H6652 H 0.10621 0.25879 0.87204 0.0
H6653 H 0.10622 0.24003 0.872 0.0
H6654 H 0.13932 0.23988 0.86964 0.0
H6655 H 0.13939 0.25869 0.86952 0.0
H6656 H 0.15176 0.27858 0.87533 0.0
H6657 H 0.16775 0.28668 0.88079 0.0
H6658 H 0.15136 0.31493 0.88737 0.0
H6659 H 0.13536 0.30683 0.88212 0.0
H6660 H 0.11073 0.30774 0.87502 0.0
H6661 H 0.09731 0.31754 0.8838 0.0
H6662 H 0.08305 0.28923 0.89374 0.0
H6663 H 0.09645 0.27928 0.88483 0.0
N6664 N 0.114 0.27688 0.87421 0.0
N6665 N 0.13205 0.27664 0.87365 0.0
N6666 N 0.12337 0.292 0.87738 0.0
C6667 C 0.12293 0.27162 0.87263 0.0
C6668 C 0.13233 0.28684 0.87602 0.0
C6669 C 0.11418 0.28713 0.87645 0.0
C6670 C 0.12281 0.26029 0.87101 0.0
C6671 C 0.1135 0.2548 0.87135 0.0
C6672 C 0.1135 0.24404 0.87136 0.0
C6673 C 0.12279 0.2385 0.87102 0.0
C6674 C 0.13205 0.24394 0.86992 0.0
C6675 C 0.13207 0.25473 0.86993 0.0
C6676 C 0.14223 0.29202 0.87832 0.0
C6677 C 0.15156 0.28655 0.87786 0.0
C6678 C 0.16075 0.2912 0.88097 0.0
C6679 C 0.16082 0.30143 0.8846 0.0
C6680 C 0.15154 0.30698 0.8848 0.0
C6681 C 0.14237 0.30234 0.88169 0.0
C6682 C 0.10472 0.29275 0.87936 0.0
C6683 C 0.10455 0.30357 0.87877 0.0
C6684 C 0.43047 0.39807 0.6129 0.0
C6685 C 0.43428 0.40822 0.61291 0.0
C6686 C 0.44501 0.40969 0.61281 0.0
C6687 C 0.45174 0.40125 0.61338 0.0
H6688 H 0.48315 0.39226 0.61476 0.0
H6689 H 0.50188 0.39387 0.61623 0.0
H6690 H 0.50392 0.36165 0.62439 0.0
H6691 H 0.4854 0.36002 0.62304 0.0
H6692 H 0.46528 0.35062 0.6362 0.0
H6693 H 0.45619 0.33797 0.64703 0.0
H6694 H 0.42729 0.34801 0.63418 0.0
H6695 H 0.43616 0.36048 0.62347 0.0
H6696 H 0.43389 0.38198 0.61389 0.0
H6697 H 0.42227 0.3966 0.61271 0.0
H6698 H 0.44825 0.41739 0.61287 0.0
H6699 H 0.45993 0.4027 0.61379 0.0
N6700 N 0.46516 0.38309 0.61605 0.0
N6701 N 0.46682 0.36648 0.62322 0.0
N6702 N 0.45051 0.37357 0.62053 0.0
C6703 C 0.47127 0.37513 0.61921 0.0
C6704 C 0.45643 0.36563 0.62387 0.0
C6705 C 0.45473 0.3823 0.61662 0.0
C6706 C 0.48269 0.37605 0.61898 0.0
C6707 C 0.4876 0.3855 0.61677 0.0
C6708 C 0.49834 0.38643 0.61757 0.0
C6709 C 0.50437 0.37794 0.62062 0.0
C6710 C 0.49948 0.3684 0.62227 0.0
C6711 C 0.48883 0.36747 0.62147 0.0
C6712 C 0.45144 0.35672 0.62909 0.0
C6713 C 0.45701 0.34996 0.63553 0.0
C6714 C 0.45183 0.3427 0.64172 0.0
C6715 C 0.44104 0.34214 0.64154 0.0
C6716 C 0.4356 0.34839 0.63457 0.0
C6717 C 0.44072 0.35556 0.62844 0.0
C6718 C 0.44787 0.39115 0.61413 0.0
C6719 C 0.43717 0.38966 0.61353 0.0
C6720 C 0.14352 0.35063 0.31786 0.0
C6721 C 0.14277 0.34409 0.30923 0.0
C6722 C 0.14794 0.34694 0.30011 0.0
C6723 C 0.15369 0.3561 0.29965 0.0
H6724 H 0.16881 0.37632 0.27943 0.0
H6725 H 0.17376 0.38408 0.26306 0.0
H6726 H 0.18527 0.41085 0.27923 0.0
H6727 H 0.18012 0.40324 0.29557 0.0
H6728 H 0.16151 0.4088 0.31645 0.0
H6729 H 0.15543 0.41878 0.33128 0.0
H6730 H 0.16139 0.39264 0.35113 0.0
H6731 H 0.16678 0.38257 0.33624 0.0
H6732 H 0.14959 0.36451 0.32426 0.0
H6733 H 0.13982 0.34863 0.32507 0.0
H6734 H 0.14747 0.34215 0.29328 0.0
H6735 H 0.15751 0.35807 0.29249 0.0
N6736 N 0.16473 0.37588 0.29903 0.0
N6737 N 0.16951 0.39135 0.30722 0.0
N6738 N 0.16059 0.37863 0.31641 0.0
C6739 C 0.16947 0.38526 0.29866 0.0
C6740 C 0.16519 0.38802 0.31614 0.0
C6741 C 0.16025 0.37251 0.30791 0.0
C6742 C 0.17383 0.38924 0.28883 0.0
C6743 C 0.17251 0.38381 0.27953 0.0
C6744 C 0.17544 0.38823 0.27012 0.0
C6745 C 0.17977 0.39817 0.26981 0.0
C6746 C 0.18174 0.40329 0.27917 0.0
C6747 C 0.17879 0.39889 0.28856 0.0
C6748 C 0.16435 0.39485 0.3252 0.0
C6749 C 0.16174 0.40531 0.32404 0.0
C6750 C 0.15829 0.41104 0.33255 0.0
C6751 C 0.15757 0.4064 0.34235 0.0
C6752 C 0.16145 0.39634 0.34363 0.0
C6753 C 0.16462 0.39057 0.33512 0.0
C6754 C 0.15443 0.36261 0.30831 0.0
C6755 C 0.14925 0.35973 0.31741 0.0
C6756 C 0.34682 0.37746 0.05926 0.0
C6757 C 0.33916 0.37183 0.05414 0.0
C6758 C 0.33882 0.37189 0.04332 0.0
C6759 C 0.34651 0.37695 0.03768 0.0
H6760 H 0.3562 0.38915 0.00889 0.0
H6761 H 0.35621 0.3892 0.99012 0.0
H6762 H 0.38932 0.39158 0.98999 0.0
H6763 H 0.38938 0.39169 0.00881 0.0
H6764 H 0.40175 0.38587 0.02869 0.0
H6765 H 0.41774 0.38041 0.03679 0.0
H6766 H 0.40136 0.37383 0.06504 0.0
H6767 H 0.38535 0.37908 0.05695 0.0
H6768 H 0.3607 0.38614 0.05785 0.0
H6769 H 0.34725 0.37739 0.06762 0.0
H6770 H 0.33304 0.36745 0.03926 0.0
H6771 H 0.34646 0.37634 0.02934 0.0
N6772 N 0.36399 0.38698 0.02698 0.0
N6773 N 0.38204 0.38755 0.02675 0.0
N6774 N 0.37336 0.38381 0.0421 0.0
C6775 C 0.37292 0.38857 0.02172 0.0
C6776 C 0.38232 0.38518 0.03695 0.0
C6777 C 0.36417 0.38473 0.03723 0.0
C6778 C 0.3728 0.3902 0.0104 0.0
C6779 C 0.36349 0.38985 1.0049 0.0
C6780 C 0.36349 0.38984 0.99414 0.0
C6781 C 0.37278 0.39019 0.98861 0.0
C6782 C 0.38204 0.39129 0.99405 0.0
C6783 C 0.38206 0.39128 1.00485 0.0
C6784 C 0.39222 0.38288 0.04213 0.0
C6785 C 0.40155 0.38334 0.03666 0.0
C6786 C 0.41074 0.38023 0.04131 0.0
C6787 C 0.41082 0.3766 0.05154 0.0
C6788 C 0.40154 0.3764 0.05709 0.0
C6789 C 0.39236 0.37951 0.05245 0.0
C6790 C 0.35471 0.38181 0.04283 0.0
C6791 C 0.35453 0.3824 0.05366 0.0
C6792 C 0.34786 0.6095 0.85001 0.0
C6793 C 0.35177 0.59964 0.84769 0.0
C6794 C 0.35025 0.59568 0.83767 0.0
C6795 C 0.34595 0.60189 0.82994 0.0
H6796 H 0.32566 0.60546 0.80286 0.0
H6797 H 0.32019 0.59867 0.78625 0.0
H6798 H 0.33089 0.62648 0.77133 0.0
H6799 H 0.3361 0.63341 0.78796 0.0
H6800 H 0.34686 0.65135 0.80174 0.0
H6801 H 0.3571 0.66716 0.80277 0.0
H6802 H 0.36747 0.65837 0.83319 0.0
H6803 H 0.35746 0.64266 0.83216 0.0
H6804 H 0.34166 0.62362 0.84413 0.0
H6805 H 0.34852 0.61268 0.85772 0.0
H6806 H 0.35312 0.58812 0.83558 0.0
H6807 H 0.34557 0.59893 0.82212 0.0
N6808 N 0.33684 0.61673 0.81473 0.0
N6809 N 0.34072 0.63285 0.80736 0.0
N6810 N 0.34592 0.62908 0.82425 0.0
C6811 C 0.33622 0.62337 0.80662 0.0
C6812 C 0.3456 0.63576 0.81619 0.0
C6813 C 0.34157 0.6196 0.8236 0.0
C6814 C 0.33155 0.6199 0.79675 0.0
C6815 C 0.32672 0.61021 0.79607 0.0
C6816 C 0.3236 0.60629 0.78652 0.0
C6817 C 0.32527 0.61193 0.77741 0.0
C6818 C 0.32944 0.62192 0.77818 0.0
C6819 C 0.33252 0.62587 0.78774 0.0
C6820 C 0.35131 0.64568 0.81685 0.0
C6821 C 0.35131 0.65281 0.80865 0.0
C6822 C 0.35716 0.66188 0.80925 0.0
C6823 C 0.36319 0.66399 0.81803 0.0
C6824 C 0.36309 0.65692 0.82623 0.0
C6825 C 0.35723 0.64792 0.82567 0.0
C6826 C 0.34328 0.61218 0.83206 0.0
C6827 C 0.34384 0.61577 0.84225 0.0
C6828 C 0.10559 0.63466 0.56528 0.0
C6829 C 0.09646 0.63422 0.55951 0.0
C6830 C 0.09667 0.6296 0.54969 0.0
C6831 C 0.10586 0.62578 0.54561 0.0
H6832 H 0.11832 0.6147 0.51899 0.0
H6833 H 0.1187 0.61358 0.50021 0.0
H6834 H 0.15186 0.61504 0.50081 0.0
H6835 H 0.15155 0.61635 0.51953 0.0
H6836 H 0.16122 0.63079 0.53864 0.0
H6837 H 0.17459 0.64068 0.54765 0.0
H6838 H 0.15957 0.63472 0.5767 0.0
H6839 H 0.1462 0.62497 0.56783 0.0
H6840 H 0.12169 0.63151 0.56584 0.0
H6841 H 0.10566 0.63799 0.57295 0.0
H6842 H 0.08978 0.62921 0.54501 0.0
H6843 H 0.10578 0.62251 0.53792 0.0
N6844 N 0.12544 0.62012 0.53666 0.0
N6845 N 0.14348 0.62051 0.53715 0.0
N6846 N 0.13392 0.6253 0.55171 0.0
C6847 C 0.13462 0.6185 0.53192 0.0
C6848 C 0.14317 0.62379 0.54711 0.0
C6849 C 0.12502 0.62352 0.54656 0.0
C6850 C 0.13491 0.61588 0.52078 0.0
C6851 C 0.12572 0.61462 0.51515 0.0
C6852 C 0.12592 0.6139 0.50438 0.0
C6853 C 0.13529 0.61443 0.49905 0.0
C6854 C 0.1445 0.61484 0.50473 0.0
C6855 C 0.14431 0.61556 0.51547 0.0
C6856 C 0.15257 0.62724 0.55252 0.0
C6857 C 0.16098 0.63126 0.54699 0.0
C6858 C 0.16864 0.63689 0.55211 0.0
C6859 C 0.16805 0.63837 0.56282 0.0
C6860 C 0.16019 0.63357 0.56844 0.0
C6861 C 0.15252 0.62805 0.56334 0.0
C6862 C 0.11506 0.6265 0.55127 0.0
C6863 C 0.11478 0.63085 0.56122 0.0
C6864 C 0.14352 0.6605 0.19344 0.0
C6865 C 0.14277 0.66704 0.20207 0.0
C6866 C 0.14794 0.66418 0.21119 0.0
C6867 C 0.15369 0.65502 0.21166 0.0
H6868 H 0.16882 0.63479 0.23188 0.0
H6869 H 0.17377 0.62704 0.24824 0.0
H6870 H 0.18528 0.60025 0.23208 0.0
H6871 H 0.18013 0.60786 0.21574 0.0
H6872 H 0.16153 0.60231 0.19486 0.0
H6873 H 0.15544 0.59233 0.18003 0.0
H6874 H 0.16139 0.61847 0.16018 0.0
H6875 H 0.16678 0.62854 0.17506 0.0
H6876 H 0.1496 0.64661 0.18704 0.0
H6877 H 0.13982 0.6625 0.18623 0.0
H6878 H 0.14747 0.66897 0.21802 0.0
H6879 H 0.15751 0.65304 0.21882 0.0
N6880 N 0.16473 0.63524 0.21228 0.0
N6881 N 0.16952 0.61976 0.20408 0.0
N6882 N 0.16059 0.63248 0.1949 0.0
C6883 C 0.16948 0.62585 0.21265 0.0
C6884 C 0.16519 0.6231 0.19517 0.0
C6885 C 0.16025 0.6386 0.20339 0.0
C6886 C 0.17383 0.62187 0.22247 0.0
C6887 C 0.17252 0.62731 0.23178 0.0
C6888 C 0.17544 0.62288 0.24118 0.0
C6889 C 0.17978 0.61294 0.2415 0.0
C6890 C 0.18174 0.60782 0.23214 0.0
C6891 C 0.1788 0.61222 0.22275 0.0
C6892 C 0.16435 0.61626 0.1861 0.0
C6893 C 0.16175 0.6058 0.18726 0.0
C6894 C 0.1583 0.60007 0.17875 0.0
C6895 C 0.15757 0.60471 0.16895 0.0
C6896 C 0.16145 0.61478 0.16768 0.0
C6897 C 0.16462 0.62055 0.17618 0.0
C6898 C 0.15443 0.6485 0.203 0.0
C6899 C 0.14925 0.65139 0.19389 0.0
C6900 C 0.10559 0.37646 0.94602 0.0
C6901 C 0.09645 0.37691 0.95179 0.0
C6902 C 0.09666 0.38153 0.96161 0.0
C6903 C 0.10586 0.38535 0.96569 0.0
H6904 H 0.11831 0.39645 0.99231 0.0
H6905 H 0.11869 0.39757 0.01109 0.0
H6906 H 0.15185 0.39605 0.01049 0.0
H6907 H 0.15154 0.39476 0.99178 0.0
H6908 H 0.16121 0.38033 0.97266 0.0
H6909 H 0.17458 0.37044 0.96365 0.0
H6910 H 0.15957 0.37641 0.9346 0.0
H6911 H 0.14619 0.38617 0.94348 0.0
H6912 H 0.12168 0.37961 0.94546 0.0
H6913 H 0.10566 0.37313 0.93835 0.0
H6914 H 0.08977 0.38193 0.96629 0.0
H6915 H 0.10577 0.38862 0.97338 0.0
N6916 N 0.12543 0.39101 0.97464 0.0
N6917 N 0.14348 0.39062 0.97415 0.0
N6918 N 0.13391 0.38582 0.95959 0.0
C6919 C 0.13461 0.39263 0.97938 0.0
C6920 C 0.14316 0.38734 0.96419 0.0
C6921 C 0.12501 0.38761 0.96474 0.0
C6922 C 0.1349 0.39525 0.99052 0.0
C6923 C 0.12571 0.39652 0.99615 0.0
C6924 C 0.12591 0.39724 0.00692 0.0
C6925 C 0.13528 0.39669 0.01225 0.0
C6926 C 0.14449 0.39627 0.00658 0.0
C6927 C 0.1443 0.39556 0.99584 0.0
C6928 C 0.15257 0.38389 0.95878 0.0
C6929 C 0.16097 0.37986 0.96432 0.0
C6930 C 0.16863 0.37423 0.95919 0.0
C6931 C 0.16805 0.37276 0.94848 0.0
C6932 C 0.16019 0.37757 0.94287 0.0
C6933 C 0.15251 0.38308 0.94796 0.0
C6934 C 0.11506 0.38462 0.96003 0.0
C6935 C 0.11477 0.38028 0.95008 0.0
C6936 C 0.34724 0.40183 0.66088 0.0
C6937 C 0.35155 0.41152 0.66321 0.0
C6938 C 0.35039 0.41544 0.67329 0.0
C6939 C 0.34606 0.40932 0.68106 0.0
H6940 H 0.32563 0.40576 0.7082 0.0
H6941 H 0.32007 0.41247 0.72481 0.0
H6942 H 0.33092 0.38468 0.73968 0.0
H6943 H 0.33623 0.37783 0.72304 0.0
H6944 H 0.34779 0.36026 0.70933 0.0
H6945 H 0.35829 0.34466 0.70823 0.0
H6946 H 0.368 0.3534 0.67757 0.0
H6947 H 0.35773 0.36895 0.67869 0.0
H6948 H 0.34072 0.38787 0.66681 0.0
H6949 H 0.34762 0.39871 0.65313 0.0
H6950 H 0.35358 0.42286 0.6754 0.0
H6951 H 0.34599 0.4122 0.68892 0.0
N6952 N 0.33671 0.39453 0.69625 0.0
N6953 N 0.34102 0.37853 0.70365 0.0
N6954 N 0.346 0.38234 0.68671 0.0
C6955 C 0.3363 0.38791 0.70439 0.0
C6956 C 0.3459 0.3757 0.69479 0.0
C6957 C 0.34143 0.39172 0.68735 0.0
C6958 C 0.33161 0.39133 0.71428 0.0
C6959 C 0.32671 0.401 0.71498 0.0
C6960 C 0.32354 0.40487 0.72452 0.0
C6961 C 0.32521 0.39921 0.73363 0.0
C6962 C 0.32946 0.38925 0.73284 0.0
C6963 C 0.3326 0.38535 0.72328 0.0
C6964 C 0.35186 0.36591 0.69411 0.0
C6965 C 0.35215 0.35885 0.70235 0.0
C6966 C 0.35816 0.34988 0.70171 0.0
C6967 C 0.36406 0.34777 0.69283 0.0
C6968 C 0.36372 0.35482 0.6846 0.0
C6969 C 0.35771 0.36374 0.68522 0.0
C6970 C 0.343 0.39916 0.67891 0.0
C6971 C 0.34319 0.39564 0.66868 0.0
C6972 C 0.34683 0.63365 0.45207 0.0
C6973 C 0.33917 0.63929 0.45718 0.0
C6974 C 0.33883 0.63925 0.468 0.0
C6975 C 0.34651 0.63418 0.47365 0.0
H6976 H 0.35623 0.62203 0.50248 0.0
H6977 H 0.35625 0.62196 0.52124 0.0
H6978 H 0.38935 0.61954 0.52136 0.0
H6979 H 0.3894 0.61945 0.50253 0.0
H6980 H 0.40176 0.62527 0.48264 0.0
H6981 H 0.41775 0.63072 0.47453 0.0
H6982 H 0.40135 0.63728 0.44629 0.0
H6983 H 0.38535 0.63204 0.4544 0.0
H6984 H 0.36072 0.62497 0.4535 0.0
H6985 H 0.34727 0.63371 0.44372 0.0
H6986 H 0.33304 0.64369 0.47206 0.0
H6987 H 0.34646 0.6348 0.48199 0.0
N6988 N 0.364 0.62417 0.48437 0.0
N6989 N 0.38205 0.6236 0.4846 0.0
N6990 N 0.37337 0.62732 0.46924 0.0
C6991 C 0.37294 0.62259 0.48963 0.0
C6992 C 0.38233 0.62596 0.4744 0.0
C6993 C 0.36418 0.62641 0.47412 0.0
C6994 C 0.37282 0.62096 0.50096 0.0
C6995 C 0.36352 0.62132 0.50646 0.0
C6996 C 0.36352 0.62131 0.51722 0.0
C6997 C 0.37282 0.62094 0.52275 0.0
C6998 C 0.38208 0.61984 0.5173 0.0
C6999 C 0.38208 0.61986 0.5065 0.0
C7000 C 0.39223 0.62825 0.46921 0.0
C7001 C 0.40156 0.62779 0.47468 0.0
C7002 C 0.41075 0.6309 0.47002 0.0
C7003 C 0.41082 0.63452 0.45979 0.0
C7004 C 0.40154 0.63471 0.45424 0.0
C7005 C 0.39236 0.63161 0.45888 0.0
C7006 C 0.35472 0.62932 0.46851 0.0
C7007 C 0.35454 0.62872 0.45768 0.0
C7008 C 0.33937 0.14633 0.3745 0.0
C7009 C 0.33653 0.15275 0.36623 0.0
C7010 C 0.32803 0.1594 0.3676 0.0
C7011 C 0.32228 0.15925 0.37678 0.0
H7012 H 0.29195 0.16434 0.38866 0.0
H7013 H 0.2742 0.17028 0.38979 0.0
H7014 H 0.27323 0.16156 0.42194 0.0
H7015 H 0.29091 0.15549 0.42082 0.0
H7016 H 0.30428 0.13366 0.4256 0.0
H7017 H 0.30969 0.11904 0.43645 0.0
H7018 H 0.33994 0.12035 0.42291 0.0
H7019 H 0.33475 0.1348 0.41224 0.0
H7020 H 0.33611 0.14098 0.38968 0.0
H7021 H 0.34572 0.14098 0.37379 0.0
H7022 H 0.32571 0.16463 0.36152 0.0
H7023 H 0.31566 0.16427 0.37745 0.0
N7024 N 0.30922 0.15628 0.39523 0.0
N7025 N 0.30649 0.14796 0.41116 0.0
N7026 N 0.32159 0.14496 0.40188 0.0
C7027 C 0.30321 0.15461 0.40372 0.0
C7028 C 0.3157 0.14314 0.4103 0.0
C7029 C 0.3185 0.15148 0.39431 0.0
C7030 C 0.29284 0.15931 0.40461 0.0
C7031 C 0.28801 0.16381 0.39601 0.0
C7032 C 0.27784 0.16725 0.39667 0.0
C7033 C 0.27228 0.16631 0.40595 0.0
C7034 C 0.27724 0.16221 0.41465 0.0
C7035 C 0.2874 0.15876 0.41399 0.0
C7036 C 0.31905 0.13532 0.41793 0.0
C7037 C 0.31214 0.13094 0.42509 0.0
C7038 C 0.3152 0.1226 0.4313 0.0
C7039 C 0.32518 0.11858 0.43039 0.0
C7040 C 0.33218 0.12329 0.42366 0.0
C7041 C 0.32917 0.13156 0.41753 0.0
C7042 C 0.32495 0.15252 0.38486 0.0
C7043 C 0.33373 0.14626 0.38366 0.0
C7044 C 0.83939 0.3648 0.63678 0.0
C7045 C 0.83655 0.35838 0.64505 0.0
C7046 C 0.82805 0.35174 0.64368 0.0
C7047 C 0.8223 0.3519 0.6345 0.0
H7048 H 0.79201 0.34671 0.62258 0.0
H7049 H 0.77429 0.34072 0.62147 0.0
H7050 H 0.77315 0.34974 0.5894 0.0
H7051 H 0.79082 0.35586 0.59051 0.0
H7052 H 0.8043 0.3775 0.58567 0.0
H7053 H 0.80971 0.39211 0.57482 0.0
H7054 H 0.83996 0.39079 0.58838 0.0
H7055 H 0.83476 0.37635 0.59906 0.0
H7056 H 0.83612 0.37015 0.6216 0.0
H7057 H 0.84574 0.37015 0.63749 0.0
H7058 H 0.82573 0.34651 0.64976 0.0
H7059 H 0.81567 0.34688 0.63383 0.0
N7060 N 0.80922 0.35489 0.61605 0.0
N7061 N 0.80649 0.36321 0.60012 0.0
N7062 N 0.8216 0.36618 0.6094 0.0
C7063 C 0.80321 0.35658 0.60757 0.0
C7064 C 0.8157 0.36802 0.60098 0.0
C7065 C 0.81851 0.35967 0.61697 0.0
C7066 C 0.79283 0.35188 0.60668 0.0
C7067 C 0.78805 0.3473 0.61525 0.0
C7068 C 0.77789 0.34383 0.6146 0.0
C7069 C 0.77229 0.34483 0.60535 0.0
C7070 C 0.7772 0.34903 0.59668 0.0
C7071 C 0.78735 0.35251 0.59732 0.0
C7072 C 0.81906 0.37584 0.59335 0.0
C7073 C 0.81216 0.38022 0.58618 0.0
C7074 C 0.81522 0.38855 0.57997 0.0
C7075 C 0.8252 0.39257 0.58089 0.0
C7076 C 0.83219 0.38786 0.58763 0.0
C7077 C 0.82918 0.37959 0.59376 0.0
C7078 C 0.82497 0.35862 0.62642 0.0
C7079 C 0.83375 0.36487 0.62762 0.0
C7080 C 0.39357 0.06764 0.41072 0.0
C7081 C 0.3929 0.05898 0.41723 0.0
C7082 C 0.39805 0.04988 0.41428 0.0
C7083 C 0.40373 0.04946 0.40508 0.0
H7084 H 0.41884 0.02936 0.38487 0.0
H7085 H 0.42381 0.013 0.37711 0.0
H7086 H 0.43526 0.02914 0.3503 0.0
H7087 H 0.43008 0.04548 0.35792 0.0
H7088 H 0.41146 0.06636 0.35241 0.0
H7089 H 0.40539 0.08119 0.34244 0.0
H7090 H 0.41133 0.10103 0.3686 0.0
H7091 H 0.4167 0.08615 0.37867 0.0
H7092 H 0.39953 0.0741 0.39681 0.0
H7093 H 0.38987 0.07483 0.41278 0.0
H7094 H 0.39762 0.04303 0.41903 0.0
H7095 H 0.40754 0.04232 0.40305 0.0
N7096 N 0.41471 0.04893 0.38531 0.0
N7097 N 0.41948 0.05714 0.36985 0.0
N7098 N 0.41053 0.0663 0.38259 0.0
C7099 C 0.41945 0.04857 0.37592 0.0
C7100 C 0.41513 0.06604 0.3732 0.0
C7101 C 0.41021 0.0578 0.38869 0.0
C7102 C 0.42382 0.03875 0.37193 0.0
C7103 C 0.42253 0.02945 0.37737 0.0
C7104 C 0.42546 0.02005 0.37295 0.0
C7105 C 0.42979 0.01973 0.363 0.0
C7106 C 0.43173 0.02909 0.35788 0.0
C7107 C 0.42877 0.03848 0.36227 0.0
C7108 C 0.41428 0.07511 0.36638 0.0
C7109 C 0.41168 0.07395 0.35591 0.0
C7110 C 0.40824 0.08246 0.35019 0.0
C7111 C 0.40753 0.09226 0.35483 0.0
C7112 C 0.41139 0.09354 0.3649 0.0
C7113 C 0.41455 0.08503 0.37067 0.0
C7114 C 0.40442 0.05815 0.39861 0.0
C7115 C 0.39923 0.06723 0.40156 0.0
C7116 C 0.68015 0.64813 0.14617 0.0
C7117 C 0.68387 0.64855 0.15635 0.0
C7118 C 0.6946 0.64892 0.15788 0.0
C7119 C 0.7014 0.64823 0.14951 0.0
H7120 H 0.73295 0.64658 0.14107 0.0
H7121 H 0.75164 0.64505 0.14307 0.0
H7122 H 0.75424 0.63627 0.11105 0.0
H7123 H 0.73575 0.63767 0.10903 0.0
H7124 H 0.71572 0.62529 0.09893 0.0
H7125 H 0.70684 0.61424 0.08632 0.0
H7126 H 0.6777 0.62658 0.09623 0.0
H7127 H 0.68636 0.6376 0.10865 0.0
H7128 H 0.68372 0.64676 0.13013 0.0
H7129 H 0.67196 0.64808 0.14465 0.0
H7130 H 0.69777 0.64918 0.1656 0.0
H7131 H 0.70959 0.64806 0.15104 0.0
N7132 N 0.71509 0.64513 0.13163 0.0
N7133 N 0.71701 0.638 0.11502 0.0
N7134 N 0.70058 0.64078 0.12181 0.0
C7135 C 0.72133 0.64194 0.12378 0.0
C7136 C 0.70662 0.63744 0.11397 0.0
C7137 C 0.70466 0.64463 0.13065 0.0
C7138 C 0.73275 0.64207 0.12493 0.0
C7139 C 0.73751 0.64441 0.13443 0.0
C7140 C 0.74824 0.64358 0.13558 0.0
C7141 C 0.75442 0.64035 0.12727 0.0
C7142 C 0.74969 0.63853 0.11768 0.0
C7143 C 0.73905 0.63937 0.11652 0.0
C7144 C 0.70176 0.63222 0.10497 0.0
C7145 C 0.70745 0.62585 0.09823 0.0
C7146 C 0.70239 0.61954 0.09098 0.0
C7147 C 0.69161 0.61956 0.09037 0.0
C7148 C 0.68602 0.62644 0.09657 0.0
C7149 C 0.69102 0.63271 0.10373 0.0
C7150 C 0.69765 0.64712 0.1394 0.0
C7151 C 0.68693 0.64742 0.13782 0.0
C7152 C 0.59723 0.4108 0.35941 0.0
C7153 C 0.60154 0.41312 0.34971 0.0
C7154 C 0.60039 0.42319 0.3458 0.0
C7155 C 0.59606 0.43098 0.35192 0.0
H7156 H 0.57561 0.45812 0.35549 0.0
H7157 H 0.57006 0.47472 0.34877 0.0
H7158 H 0.58095 0.48962 0.37654 0.0
H7159 H 0.58626 0.47298 0.3834 0.0
H7160 H 0.59778 0.45926 0.401 0.0
H7161 H 0.60828 0.45815 0.4166 0.0
H7162 H 0.61799 0.4275 0.40783 0.0
H7163 H 0.60772 0.42862 0.39227 0.0
H7164 H 0.59069 0.41674 0.37336 0.0
H7165 H 0.5976 0.40306 0.36252 0.0
H7166 H 0.60359 0.42529 0.33837 0.0
H7167 H 0.59599 0.43882 0.34903 0.0
N7168 N 0.5867 0.44618 0.36671 0.0
N7169 N 0.59102 0.45358 0.38271 0.0
N7170 N 0.59598 0.43664 0.3789 0.0
C7171 C 0.58629 0.45432 0.37333 0.0
C7172 C 0.59589 0.44473 0.38554 0.0
C7173 C 0.59142 0.43728 0.36952 0.0
C7174 C 0.58161 0.46421 0.36991 0.0
C7175 C 0.57671 0.4649 0.36025 0.0
C7176 C 0.57353 0.47444 0.35637 0.0
C7177 C 0.57522 0.48355 0.36202 0.0
C7178 C 0.57948 0.48277 0.37198 0.0
C7179 C 0.58261 0.47321 0.37588 0.0
C7180 C 0.60185 0.44404 0.39534 0.0
C7181 C 0.60214 0.45228 0.4024 0.0
C7182 C 0.60815 0.45163 0.41137 0.0
C7183 C 0.61405 0.44275 0.41347 0.0
C7184 C 0.61371 0.43453 0.40641 0.0
C7185 C 0.6077 0.43515 0.3975 0.0
C7186 C 0.59298 0.42883 0.36208 0.0
C7187 C 0.59317 0.4186 0.36559 0.0
C7188 C 0.18043 0.86355 0.86387 0.0
C7189 C 0.18428 0.8634 0.85373 0.0
C7190 C 0.19502 0.86314 0.85231 0.0
C7191 C 0.20172 0.86365 0.86078 0.0
H7192 H 0.23305 0.86469 0.86965 0.0
H7193 H 0.25176 0.86609 0.86785 0.0
H7194 H 0.25411 0.87474 0.89993 0.0
H7195 H 0.23559 0.87346 0.90175 0.0
H7196 H 0.21544 0.88618 0.91133 0.0
H7197 H 0.20643 0.89712 0.92393 0.0
H7198 H 0.17749 0.88395 0.91452 0.0
H7199 H 0.1863 0.87303 0.90206 0.0
H7200 H 0.1838 0.86459 0.87997 0.0
H7201 H 0.17223 0.8635 0.8653 0.0
H7202 H 0.1983 0.86308 0.84463 0.0
H7203 H 0.20992 0.8639 0.85936 0.0
N7204 N 0.21515 0.86627 0.87887 0.0
N7205 N 0.2169 0.87312 0.89561 0.0
N7206 N 0.20054 0.87052 0.88858 0.0
C7207 C 0.22131 0.8693 0.88684 0.0
C7208 C 0.20651 0.87371 0.89655 0.0
C7209 C 0.20472 0.8668 0.87974 0.0
C7210 C 0.23273 0.86913 0.88581 0.0
C7211 C 0.23757 0.86681 0.87635 0.0
C7212 C 0.2483 0.86757 0.87531 0.0
C7213 C 0.25442 0.8707 0.88369 0.0
C7214 C 0.24961 0.87253 0.89325 0.0
C7215 C 0.23895 0.87177 0.89429 0.0
C7216 C 0.20159 0.87883 0.90555 0.0
C7217 C 0.20719 0.8854 0.91215 0.0
C7218 C 0.20207 0.89164 0.91937 0.0
C7219 C 0.19131 0.89132 0.92014 0.0
C7220 C 0.18581 0.88428 0.91407 0.0
C7221 C 0.19088 0.87808 0.90689 0.0
C7222 C 0.19783 0.8645 0.87086 0.0
C7223 C 0.1871 0.86412 0.87231 0.0
C7224 C 0.39356 0.94348 0.10058 0.0
C7225 C 0.39289 0.95213 0.09407 0.0
C7226 C 0.39803 0.96123 0.09702 0.0
C7227 C 0.40371 0.96165 0.10622 0.0
H7228 H 0.41883 0.98176 0.12643 0.0
H7229 H 0.4238 0.99811 0.13419 0.0
H7230 H 0.43524 0.98197 0.161 0.0
H7231 H 0.43007 0.96563 0.15339 0.0
H7232 H 0.41145 0.94476 0.15889 0.0
H7233 H 0.40538 0.92994 0.16887 0.0
H7234 H 0.41133 0.91009 0.14271 0.0
H7235 H 0.4167 0.92497 0.13263 0.0
H7236 H 0.39953 0.93702 0.11449 0.0
H7237 H 0.38986 0.93628 0.09852 0.0
H7238 H 0.39761 0.96809 0.09226 0.0
H7239 H 0.40753 0.96879 0.10825 0.0
N7240 N 0.4147 0.96219 0.12599 0.0
N7241 N 0.41946 0.95398 0.14146 0.0
N7242 N 0.41052 0.94482 0.12872 0.0
C7243 C 0.41944 0.96254 0.13538 0.0
C7244 C 0.41512 0.94507 0.13811 0.0
C7245 C 0.4102 0.95332 0.12261 0.0
C7246 C 0.42381 0.97236 0.13937 0.0
C7247 C 0.42252 0.98166 0.13393 0.0
C7248 C 0.42545 0.99106 0.13835 0.0
C7249 C 0.42978 0.99138 0.1483 0.0
C7250 C 0.43172 0.98202 0.15342 0.0
C7251 C 0.42876 0.97264 0.14903 0.0
C7252 C 0.41427 0.93601 0.14493 0.0
C7253 C 0.41167 0.93717 0.1554 0.0
C7254 C 0.40823 0.92866 0.16112 0.0
C7255 C 0.40752 0.91886 0.15648 0.0
C7256 C 0.41139 0.91758 0.14641 0.0
C7257 C 0.41454 0.92609 0.14064 0.0
C7258 C 0.40441 0.95296 0.11269 0.0
C7259 C 0.39923 0.94389 0.10974 0.0
C7260 C 0.09785 0.09991 0.65173 0.0
C7261 C 0.10178 0.09759 0.66159 0.0
C7262 C 0.10026 0.08758 0.66555 0.0
C7263 C 0.09595 0.07984 0.65934 0.0
H7264 H 0.07566 0.05276 0.65577 0.0
H7265 H 0.0702 0.03616 0.66255 0.0
H7266 H 0.08092 0.02123 0.63473 0.0
H7267 H 0.08612 0.03785 0.62781 0.0
H7268 H 0.09687 0.05163 0.60986 0.0
H7269 H 0.10711 0.05267 0.59405 0.0
H7270 H 0.11745 0.08309 0.60286 0.0
H7271 H 0.10743 0.08206 0.61857 0.0
H7272 H 0.09164 0.09402 0.63762 0.0
H7273 H 0.09851 0.10761 0.64856 0.0
H7274 H 0.10313 0.0855 0.67311 0.0
H7275 H 0.09557 0.07203 0.6623 0.0
N7276 N 0.08683 0.06463 0.64451 0.0
N7277 N 0.09072 0.05726 0.62837 0.0
N7278 N 0.09591 0.07414 0.63215 0.0
C7279 C 0.08622 0.05651 0.63785 0.0
C7280 C 0.09558 0.06609 0.62547 0.0
C7281 C 0.09156 0.0735 0.64163 0.0
C7282 C 0.08156 0.04664 0.64132 0.0
C7283 C 0.07673 0.04597 0.65102 0.0
C7284 C 0.07361 0.03643 0.65493 0.0
C7285 C 0.07529 0.02731 0.64929 0.0
C7286 C 0.07946 0.02807 0.6393 0.0
C7287 C 0.08253 0.03763 0.63535 0.0
C7288 C 0.1013 0.06675 0.61554 0.0
C7289 C 0.1013 0.05855 0.60841 0.0
C7290 C 0.10716 0.05915 0.59933 0.0
C7291 C 0.11319 0.06793 0.59723 0.0
C7292 C 0.11307 0.07613 0.60431 0.0
C7293 C 0.10722 0.07556 0.61331 0.0
C7294 C 0.09327 0.08196 0.64906 0.0
C7295 C 0.09382 0.09215 0.64547 0.0
loop_
_geom_bond_atom_site_label_1
_geom_bond_atom_site_label_2
_geom_bond_distance
_geom_bond_site_symmetry_2
_ccdc_geom_bond_type
C0 C1 1.264 . S
C0 C5 1.479 . S
C0 C10 1.465 . S
C1 C0 1.264 . S
C1 C3 1.339 . S
C1 H28 0.931 . S
C2 C3 1.395 . S
C2 C4 1.320 . S
C3 C1 1.339 . S
C3 C2 1.395 . S
C3 H29 0.929 . S
C4 C2 1.320 . S
C4 C5 1.405 . S
C4 H30 0.930 . S
C5 C0 1.479 . S
C5 C4 1.405 . S
C5 H31 0.931 . S
U6 O7 2.454 . S
U6 O8 2.458 . S
U6 C9 2.984 . S
U6 C10 2.847 . S
U6 C23 2.882 . S
U6 O24 2.441 . S
U6 O25 2.420 . S
U6 O26 2.455 . S
U6 O27 2.449 . S
O7 U6 2.454 . S
O7 C9 1.353 . S
O8 U6 2.458 . S
O8 C9 1.286 . S
C9 U6 2.984 . S
C9 O7 1.353 . S
C9 O8 1.286 . S
C9 C11 1.363 . S
C10 C0 1.465 . S
C10 U6 2.847 . S
C10 O24 1.249 . S
C10 O25 1.202 . S
C11 C9 1.363 . S
C11 C13 1.408 . S
C11 C16 1.342 . S
C12 C13 1.310 . S
C12 C15 1.461 . S
C12 H32 0.932 . S
C13 C11 1.408 . S
C13 C12 1.310 . S
C13 H33 0.930 . S
C14 C15 1.474 . S
C14 C16 1.285 . S
C14 H34 0.929 . S
C15 C12 1.461 . S
C15 C14 1.474 . S
C16 C11 1.342 . S
C16 C14 1.285 . S
C16 H35 0.930 . S
C17 C20 1.424 . S
C17 C22 1.245 . S
C17 C23 1.428 . S
C18 C21 1.260 . S
C18 C22 1.477 . S
C18 H36 0.932 . S
C19 C20 1.384 . S
C19 C21 1.479 . S
C19 H37 0.929 . S
C20 C17 1.424 . S
C20 C19 1.384 . S
C20 H38 0.928 . S
C21 C18 1.260 . S
C21 C19 1.479 . S
C22 C17 1.245 . S
C22 C18 1.477 . S
C22 H39 0.932 . S
C23 U6 2.882 . S
C23 C17 1.428 . S
C23 O26 1.301 . S
C23 O27 1.282 . S
O24 U6 2.441 . S
O24 C10 1.249 . S
O25 U6 2.420 . S
O25 C10 1.202 . S
O26 U6 2.455 . S
O26 C23 1.301 . S
O27 U6 2.449 . S
O27 C23 1.282 . S
H28 C1 0.931 . S
H29 C3 0.929 . S
H30 C4 0.930 . S
H31 C5 0.931 . S
H32 C12 0.932 . S
H33 C13 0.930 . S
H34 C14 0.929 . S
H35 C16 0.930 . S
H36 C18 0.932 . S
H37 C19 0.929 . S
H38 C20 0.928 . S
H39 C22 0.932 . S
C40 C41 1.264 . S
C40 C45 1.479 . S
C40 C50 1.465 . S
C41 C40 1.264 . S
C41 C43 1.339 . S
C41 H68 0.931 . S
C42 C43 1.395 . S
C42 C44 1.320 . S
C43 C41 1.339 . S
C43 C42 1.395 . S
C43 H69 0.929 . S
C44 C42 1.320 . S
C44 C45 1.405 . S
C44 H70 0.930 . S
C45 C40 1.479 . S
C45 C44 1.405 . S
C45 H71 0.931 . S
U46 O47 2.454 . S
U46 O48 2.458 . S
U46 C49 2.984 . S
U46 C50 2.847 . S
U46 C63 2.882 . S
U46 O64 2.441 . S
U46 O65 2.420 . S
U46 O66 2.455 . S
U46 O67 2.449 . S
O47 U46 2.454 . S
O47 C49 1.353 . S
O48 U46 2.458 . S
O48 C49 1.286 . S
C49 U46 2.984 . S
C49 O47 1.353 . S
C49 O48 1.286 . S
C49 C51 1.363 . S
C50 C40 1.465 . S
C50 U46 2.847 . S
C50 O64 1.249 . S
C50 O65 1.202 . S
C51 C49 1.363 . S
C51 C53 1.408 . S
C51 C56 1.342 . S
C52 C53 1.310 . S
C52 C55 1.461 . S
C52 H72 0.932 . S
C53 C51 1.408 . S
C53 C52 1.310 . S
C53 H73 0.930 . S
C54 C55 1.474 . S
C54 C56 1.285 . S
C54 H74 0.929 . S
C55 C52 1.461 . S
C55 C54 1.474 . S
C56 C51 1.342 . S
C56 C54 1.285 . S
C56 H75 0.930 . S
C57 C60 1.424 . S
C57 C62 1.245 . S
C57 C63 1.428 . S
C58 C61 1.260 . S
C58 C62 1.477 . S
C58 H76 0.932 . S
C59 C60 1.384 . S
C59 C61 1.479 . S
C59 H77 0.929 . S
C60 C57 1.424 . S
C60 C59 1.384 . S
C60 H78 0.928 . S
C61 C58 1.260 . S
C61 C59 1.479 . S
C62 C57 1.245 . S
C62 C58 1.477 . S
C62 H79 0.932 . S
C63 U46 2.882 . S
C63 C57 1.428 . S
C63 O66 1.301 . S
C63 O67 1.282 . S
O64 U46 2.441 . S
O64 C50 1.249 . S
O65 U46 2.420 . S
O65 C50 1.202 . S
O66 U46 2.455 . S
O66 C63 1.301 . S
O67 U46 2.449 . S
O67 C63 1.282 . S
H68 C41 0.931 . S
H69 C43 0.929 . S
H70 C44 0.930 . S
H71 C45 0.931 . S
H72 C52 0.932 . S
H73 C53 0.930 . S
H74 C54 0.929 . S
H75 C56 0.930 . S
H76 C58 0.932 . S
H77 C59 0.929 . S
H78 C60 0.928 . S
H79 C62 0.932 . S
C80 C81 1.264 . S
C80 C85 1.479 . S
C80 C90 1.465 . S
C81 C80 1.264 . S
C81 C83 1.339 . S
C81 H108 0.931 . S
C82 C83 1.395 . S
C82 C84 1.320 . S
C83 C81 1.339 . S
C83 C82 1.395 . S
C83 H109 0.929 . S
C84 C82 1.320 . S
C84 C85 1.405 . S
C84 H110 0.930 . S
C85 C80 1.479 . S
C85 C84 1.405 . S
C85 H111 0.931 . S
U86 O87 2.454 . S
U86 O88 2.458 . S
U86 C89 2.984 . S
U86 C90 2.847 . S
U86 C103 2.882 . S
U86 O104 2.441 . S
U86 O105 2.420 . S
U86 O106 2.455 . S
U86 O107 2.449 . S
O87 U86 2.454 . S
O87 C89 1.353 . S
O88 U86 2.458 . S
O88 C89 1.286 . S
C89 U86 2.984 . S
C89 O87 1.353 . S
C89 O88 1.286 . S
C89 C91 1.363 . S
C90 C80 1.465 . S
C90 U86 2.847 . S
C90 O104 1.249 . S
C90 O105 1.202 . S
C91 C89 1.363 . S
C91 C93 1.408 . S
C91 C96 1.342 . S
C92 C93 1.310 . S
C92 C95 1.461 . S
C92 H112 0.932 . S
C93 C91 1.408 . S
C93 C92 1.310 . S
C93 H113 0.930 . S
C94 C95 1.474 . S
C94 C96 1.285 . S
C94 H114 0.929 . S
C95 C92 1.461 . S
C95 C94 1.474 . S
C96 C91 1.342 . S
C96 C94 1.285 . S
C96 H115 0.930 . S
C97 C100 1.424 . S
C97 C102 1.245 . S
C97 C103 1.428 . S
C98 C101 1.260 . S
C98 C102 1.477 . S
C98 H116 0.932 . S
C99 C100 1.384 . S
C99 C101 1.479 . S
C99 H117 0.929 . S
C100 C97 1.424 . S
C100 C99 1.384 . S
C100 H118 0.928 . S
C101 C98 1.260 . S
C101 C99 1.479 . S
C102 C97 1.245 . S
C102 C98 1.477 . S
C102 H119 0.932 . S
C103 U86 2.882 . S
C103 C97 1.428 . S
C103 O106 1.301 . S
C103 O107 1.282 . S
O104 U86 2.441 . S
O104 C90 1.249 . S
O105 U86 2.420 . S
O105 C90 1.202 . S
O106 U86 2.455 . S
O106 C103 1.301 . S
O107 U86 2.449 . S
O107 C103 1.282 . S
H108 C81 0.931 . S
H109 C83 0.929 . S
H110 C84 0.930 . S
H111 C85 0.931 . S
H112 C92 0.932 . S
H113 C93 0.930 . S
H114 C94 0.929 . S
H115 C96 0.930 . S
H116 C98 0.932 . S
H117 C99 0.929 . S
H118 C100 0.928 . S
H119 C102 0.932 . S
C120 C121 1.264 . S
C120 C125 1.479 . S
C120 C130 1.465 . S
C121 C120 1.264 . S
C121 C123 1.339 . S
C121 H148 0.931 . S
C122 C123 1.395 . S
C122 C124 1.320 . S
C123 C121 1.339 . S
C123 C122 1.395 . S
C123 H149 0.929 . S
C124 C122 1.320 . S
C124 C125 1.405 . S
C124 H150 0.930 . S
C125 C120 1.479 . S
C125 C124 1.405 . S
C125 H151 0.931 . S
U126 O127 2.454 . S
U126 O128 2.458 . S
U126 C129 2.984 . S
U126 C130 2.847 . S
U126 C143 2.882 . S
U126 O144 2.441 . S
U126 O145 2.420 . S
U126 O146 2.455 . S
U126 O147 2.449 . S
O127 U126 2.454 . S
O127 C129 1.353 . S
O128 U126 2.458 . S
O128 C129 1.286 . S
C129 U126 2.984 . S
C129 O127 1.353 . S
C129 O128 1.286 . S
C129 C131 1.363 . S
C130 C120 1.465 . S
C130 U126 2.847 . S
C130 O144 1.249 . S
C130 O145 1.202 . S
C131 C129 1.363 . S
C131 C133 1.408 . S
C131 C136 1.342 . S
C132 C133 1.310 . S
C132 C135 1.461 . S
C132 H152 0.932 . S
C133 C131 1.408 . S
C133 C132 1.310 . S
C133 H153 0.930 . S
C134 C135 1.474 . S
C134 C136 1.285 . S
C134 H154 0.929 . S
C135 C132 1.461 . S
C135 C134 1.474 . S
C136 C131 1.342 . S
C136 C134 1.285 . S
C136 H155 0.930 . S
C137 C140 1.424 . S
C137 C142 1.245 . S
C137 C143 1.428 . S
C138 C141 1.260 . S
C138 C142 1.477 . S
C138 H156 0.932 . S
C139 C140 1.384 . S
C139 C141 1.479 . S
C139 H157 0.929 . S
C140 C137 1.424 . S
C140 C139 1.384 . S
C140 H158 0.928 . S
C141 C138 1.260 . S
C141 C139 1.479 . S
C142 C137 1.245 . S
C142 C138 1.477 . S
C142 H159 0.932 . S
C143 U126 2.882 . S
C143 C137 1.428 . S
C143 O146 1.301 . S
C143 O147 1.282 . S
O144 U126 2.441 . S
O144 C130 1.249 . S
O145 U126 2.420 . S
O145 C130 1.202 . S
O146 U126 2.455 . S
O146 C143 1.301 . S
O147 U126 2.449 . S
O147 C143 1.282 . S
H148 C121 0.931 . S
H149 C123 0.929 . S
H150 C124 0.930 . S
H151 C125 0.931 . S
H152 C132 0.932 . S
H153 C133 0.930 . S
H154 C134 0.929 . S
H155 C136 0.930 . S
H156 C138 0.932 . S
H157 C139 0.929 . S
H158 C140 0.928 . S
H159 C142 0.932 . S
C160 C161 1.264 . S
C160 C165 1.479 . S
C160 C170 1.465 . S
C161 C160 1.264 . S
C161 C163 1.339 . S
C161 H188 0.931 . S
C162 C163 1.395 . S
C162 C164 1.320 . S
C163 C161 1.339 . S
C163 C162 1.395 . S
C163 H189 0.929 . S
C164 C162 1.320 . S
C164 C165 1.405 . S
C164 H190 0.930 . S
C165 C160 1.479 . S
C165 C164 1.405 . S
C165 H191 0.931 . S
U166 O167 2.454 . S
U166 O168 2.458 . S
U166 C169 2.984 . S
U166 C170 2.847 . S
U166 C183 2.882 . S
U166 O184 2.441 . S
U166 O185 2.420 . S
U166 O186 2.455 . S
U166 O187 2.449 . S
O167 U166 2.454 . S
O167 C169 1.353 . S
O168 U166 2.458 . S
O168 C169 1.286 . S
C169 U166 2.984 . S
C169 O167 1.353 . S
C169 O168 1.286 . S
C169 C171 1.363 . S
C170 C160 1.465 . S
C170 U166 2.847 . S
C170 O184 1.249 . S
C170 O185 1.202 . S
C171 C169 1.363 . S
C171 C173 1.408 . S
C171 C176 1.342 . S
C172 C173 1.310 . S
C172 C175 1.461 . S
C172 H192 0.932 . S
C173 C171 1.408 . S
C173 C172 1.310 . S
C173 H193 0.930 . S
C174 C175 1.474 . S
C174 C176 1.285 . S
C174 H194 0.929 . S
C175 C172 1.461 . S
C175 C174 1.474 . S
C176 C171 1.342 . S
C176 C174 1.285 . S
C176 H195 0.930 . S
C177 C180 1.424 . S
C177 C182 1.245 . S
C177 C183 1.428 . S
C178 C181 1.260 . S
C178 C182 1.477 . S
C178 H196 0.932 . S
C179 C180 1.384 . S
C179 C181 1.479 . S
C179 H197 0.929 . S
C180 C177 1.424 . S
C180 C179 1.384 . S
C180 H198 0.928 . S
C181 C178 1.260 . S
C181 C179 1.479 . S
C182 C177 1.245 . S
C182 C178 1.477 . S
C182 H199 0.932 . S
C183 U166 2.882 . S
C183 C177 1.428 . S
C183 O186 1.301 . S
C183 O187 1.282 . S
O184 U166 2.441 . S
O184 C170 1.249 . S
O185 U166 2.420 . S
O185 C170 1.202 . S
O186 U166 2.455 . S
O186 C183 1.301 . S
O187 U166 2.449 . S
O187 C183 1.282 . S
H188 C161 0.931 . S
H189 C163 0.929 . S
H190 C164 0.930 . S
H191 C165 0.931 . S
H192 C172 0.932 . S
H193 C173 0.930 . S
H194 C174 0.929 . S
H195 C176 0.930 . S
H196 C178 0.932 . S
H197 C179 0.929 . S
H198 C180 0.928 . S
H199 C182 0.932 . S
C200 C201 1.264 . S
C200 C205 1.479 . S
C200 C210 1.465 . S
C201 C200 1.264 . S
C201 C203 1.339 . S
C201 H228 0.931 . S
C202 C203 1.395 . S
C202 C204 1.320 . S
C203 C201 1.339 . S
C203 C202 1.395 . S
C203 H229 0.929 . S
C204 C202 1.320 . S
C204 C205 1.405 . S
C204 H230 0.930 . S
C205 C200 1.479 . S
C205 C204 1.405 . S
C205 H231 0.931 . S
U206 O207 2.454 . S
U206 O208 2.458 . S
U206 C209 2.984 . S
U206 C210 2.847 . S
U206 C223 2.882 . S
U206 O224 2.441 . S
U206 O225 2.420 . S
U206 O226 2.455 . S
U206 O227 2.449 . S
O207 U206 2.454 . S
O207 C209 1.353 . S
O208 U206 2.458 . S
O208 C209 1.286 . S
C209 U206 2.984 . S
C209 O207 1.353 . S
C209 O208 1.286 . S
C209 C211 1.363 . S
C210 C200 1.465 . S
C210 U206 2.847 . S
C210 O224 1.249 . S
C210 O225 1.202 . S
C211 C209 1.363 . S
C211 C213 1.408 . S
C211 C216 1.342 . S
C212 C213 1.310 . S
C212 C215 1.461 . S
C212 H232 0.932 . S
C213 C211 1.408 . S
C213 C212 1.310 . S
C213 H233 0.930 . S
C214 C215 1.474 . S
C214 C216 1.285 . S
C214 H234 0.929 . S
C215 C212 1.461 . S
C215 C214 1.474 . S
C216 C211 1.342 . S
C216 C214 1.285 . S
C216 H235 0.930 . S
C217 C220 1.424 . S
C217 C222 1.245 . S
C217 C223 1.428 . S
C218 C221 1.260 . S
C218 C222 1.477 . S
C218 H236 0.932 . S
C219 C220 1.384 . S
C219 C221 1.479 . S
C219 H237 0.929 . S
C220 C217 1.424 . S
C220 C219 1.384 . S
C220 H238 0.928 . S
C221 C218 1.260 . S
C221 C219 1.479 . S
C222 C217 1.245 . S
C222 C218 1.477 . S
C222 H239 0.932 . S
C223 U206 2.882 . S
C223 C217 1.428 . S
C223 O226 1.301 . S
C223 O227 1.282 . S
O224 U206 2.441 . S
O224 C210 1.249 . S
O225 U206 2.420 . S
O225 C210 1.202 . S
O226 U206 2.455 . S
O226 C223 1.301 . S
O227 U206 2.449 . S
O227 C223 1.282 . S
H228 C201 0.931 . S
H229 C203 0.929 . S
H230 C204 0.930 . S
H231 C205 0.931 . S
H232 C212 0.932 . S
H233 C213 0.930 . S
H234 C214 0.929 . S
H235 C216 0.930 . S
H236 C218 0.932 . S
H237 C219 0.929 . S
H238 C220 0.928 . S
H239 C222 0.932 . S
C240 C241 1.264 . S
C240 C245 1.479 . S
C240 C250 1.465 . S
C241 C240 1.264 . S
C241 C243 1.339 . S
C241 H268 0.931 . S
C242 C243 1.395 . S
C242 C244 1.320 . S
C243 C241 1.339 . S
C243 C242 1.395 . S
C243 H269 0.929 . S
C244 C242 1.320 . S
C244 C245 1.405 . S
C244 H270 0.930 . S
C245 C240 1.479 . S
C245 C244 1.405 . S
C245 H271 0.931 . S
U246 O247 2.454 . S
U246 O248 2.458 . S
U246 C249 2.984 . S
U246 C250 2.847 . S
U246 C263 2.882 . S
U246 O264 2.441 . S
U246 O265 2.420 . S
U246 O266 2.455 . S
U246 O267 2.449 . S
O247 U246 2.454 . S
O247 C249 1.353 . S
O248 U246 2.458 . S
O248 C249 1.286 . S
C249 U246 2.984 . S
C249 O247 1.353 . S
C249 O248 1.286 . S
C249 C251 1.363 . S
C250 C240 1.465 . S
C250 U246 2.847 . S
C250 O264 1.249 . S
C250 O265 1.202 . S
C251 C249 1.363 . S
C251 C253 1.408 . S
C251 C256 1.342 . S
C252 C253 1.310 . S
C252 C255 1.461 . S
C252 H272 0.932 . S
C253 C251 1.408 . S
C253 C252 1.310 . S
C253 H273 0.930 . S
C254 C255 1.474 . S
C254 C256 1.285 . S
C254 H274 0.929 . S
C255 C252 1.461 . S
C255 C254 1.474 . S
C256 C251 1.342 . S
C256 C254 1.285 . S
C256 H275 0.930 . S
C257 C260 1.424 . S
C257 C262 1.245 . S
C257 C263 1.428 . S
C258 C261 1.260 . S
C258 C262 1.477 . S
C258 H276 0.932 . S
C259 C260 1.384 . S
C259 C261 1.479 . S
C259 H277 0.929 . S
C260 C257 1.424 . S
C260 C259 1.384 . S
C260 H278 0.928 . S
C261 C258 1.260 . S
C261 C259 1.479 . S
C262 C257 1.245 . S
C262 C258 1.477 . S
C262 H279 0.932 . S
C263 U246 2.882 . S
C263 C257 1.428 . S
C263 O266 1.301 . S
C263 O267 1.282 . S
O264 U246 2.441 . S
O264 C250 1.249 . S
O265 U246 2.420 . S
O265 C250 1.202 . S
O266 U246 2.455 . S
O266 C263 1.301 . S
O267 U246 2.449 . S
O267 C263 1.282 . S
H268 C241 0.931 . S
H269 C243 0.929 . S
H270 C244 0.930 . S
H271 C245 0.931 . S
H272 C252 0.932 . S
H273 C253 0.930 . S
H274 C254 0.929 . S
H275 C256 0.930 . S
H276 C258 0.932 . S
H277 C259 0.929 . S
H278 C260 0.928 . S
H279 C262 0.932 . S
C280 C281 1.264 . S
C280 C285 1.479 . S
C280 C290 1.465 . S
C281 C280 1.264 . S
C281 C283 1.339 . S
C281 H308 0.931 . S
C282 C283 1.395 . S
C282 C284 1.320 . S
C283 C281 1.339 . S
C283 C282 1.395 . S
C283 H309 0.929 . S
C284 C282 1.320 . S
C284 C285 1.405 . S
C284 H310 0.930 . S
C285 C280 1.479 . S
C285 C284 1.405 . S
C285 H311 0.931 . S
U286 O287 2.454 . S
U286 O288 2.458 . S
U286 C289 2.984 . S
U286 C290 2.847 . S
U286 C303 2.882 . S
U286 O304 2.441 . S
U286 O305 2.420 . S
U286 O306 2.455 . S
U286 O307 2.449 . S
O287 U286 2.454 . S
O287 C289 1.353 . S
O288 U286 2.458 . S
O288 C289 1.286 . S
C289 U286 2.984 . S
C289 O287 1.353 . S
C289 O288 1.286 . S
C289 C291 1.363 . S
C290 C280 1.465 . S
C290 U286 2.847 . S
C290 O304 1.249 . S
C290 O305 1.202 . S
C291 C289 1.363 . S
C291 C293 1.408 . S
C291 C296 1.342 . S
C292 C293 1.310 . S
C292 C295 1.461 . S
C292 H312 0.932 . S
C293 C291 1.408 . S
C293 C292 1.310 . S
C293 H313 0.930 . S
C294 C295 1.474 . S
C294 C296 1.285 . S
C294 H314 0.929 . S
C295 C292 1.461 . S
C295 C294 1.474 . S
C296 C291 1.342 . S
C296 C294 1.285 . S
C296 H315 0.930 . S
C297 C300 1.424 . S
C297 C302 1.245 . S
C297 C303 1.428 . S
C298 C301 1.260 . S
C298 C302 1.477 . S
C298 H316 0.932 . S
C299 C300 1.384 . S
C299 C301 1.479 . S
C299 H317 0.929 . S
C300 C297 1.424 . S
C300 C299 1.384 . S
C300 H318 0.928 . S
C301 C298 1.260 . S
C301 C299 1.479 . S
C302 C297 1.245 . S
C302 C298 1.477 . S
C302 H319 0.932 . S
C303 U286 2.882 . S
C303 C297 1.428 . S
C303 O306 1.301 . S
C303 O307 1.282 . S
O304 U286 2.441 . S
O304 C290 1.249 . S
O305 U286 2.420 . S
O305 C290 1.202 . S
O306 U286 2.455 . S
O306 C303 1.301 . S
O307 U286 2.449 . S
O307 C303 1.282 . S
H308 C281 0.931 . S
H309 C283 0.929 . S
H310 C284 0.930 . S
H311 C285 0.931 . S
H312 C292 0.932 . S
H313 C293 0.930 . S
H314 C294 0.929 . S
H315 C296 0.930 . S
H316 C298 0.932 . S
H317 C299 0.929 . S
H318 C300 0.928 . S
H319 C302 0.932 . S
C320 C321 1.264 . S
C320 C325 1.479 . S
C320 C330 1.465 . S
C321 C320 1.264 . S
C321 C323 1.339 . S
C321 H348 0.931 . S
C322 C323 1.395 . S
C322 C324 1.320 . S
C323 C321 1.339 . S
C323 C322 1.395 . S
C323 H349 0.929 . S
C324 C322 1.320 . S
C324 C325 1.405 . S
C324 H350 0.930 . S
C325 C320 1.479 . S
C325 C324 1.405 . S
C325 H351 0.931 . S
U326 O327 2.454 . S
U326 O328 2.458 . S
U326 C329 2.984 . S
U326 C330 2.847 . S
U326 C343 2.882 . S
U326 O344 2.441 . S
U326 O345 2.420 . S
U326 O346 2.455 . S
U326 O347 2.449 . S
O327 U326 2.454 . S
O327 C329 1.353 . S
O328 U326 2.458 . S
O328 C329 1.286 . S
C329 U326 2.984 . S
C329 O327 1.353 . S
C329 O328 1.286 . S
C329 C331 1.363 . S
C330 C320 1.465 . S
C330 U326 2.847 . S
C330 O344 1.249 . S
C330 O345 1.202 . S
C331 C329 1.363 . S
C331 C333 1.408 . S
C331 C336 1.342 . S
C332 C333 1.310 1_565 S
C332 C335 1.461 . S
C332 H352 0.932 . S
C333 C331 1.408 . S
C333 C332 1.310 1_545 S
C333 H353 0.930 . S
C334 C335 1.474 . S
C334 C336 1.285 1_565 S
C334 H354 0.929 . S
C335 C332 1.461 . S
C335 C334 1.474 . S
C336 C331 1.342 . S
C336 C334 1.285 1_545 S
C336 H355 0.930 . S
C337 C340 1.424 . S
C337 C342 1.245 . S
C337 C343 1.428 . S
C338 C341 1.260 . S
C338 C342 1.477 . S
C338 H356 0.932 . S
C339 C340 1.384 . S
C339 C341 1.479 . S
C339 H357 0.929 . S
C340 C337 1.424 . S
C340 C339 1.384 . S
C340 H358 0.928 . S
C341 C338 1.260 . S
C341 C339 1.479 . S
C342 C337 1.245 . S
C342 C338 1.477 . S
C342 H359 0.932 . S
C343 U326 2.882 . S
C343 C337 1.428 . S
C343 O346 1.301 . S
C343 O347 1.282 . S
O344 U326 2.441 . S
O344 C330 1.249 . S
O345 U326 2.420 . S
O345 C330 1.202 . S
O346 U326 2.455 . S
O346 C343 1.301 . S
O347 U326 2.449 . S
O347 C343 1.282 . S
H348 C321 0.931 . S
H349 C323 0.929 . S
H350 C324 0.930 . S
H351 C325 0.931 . S
H352 C332 0.932 . S
H353 C333 0.930 . S
H354 C334 0.929 . S
H355 C336 0.930 . S
H356 C338 0.932 . S
H357 C339 0.929 . S
H358 C340 0.928 . S
H359 C342 0.932 . S
C360 C361 1.264 . S
C360 C365 1.479 . S
C360 C370 1.465 . S
C361 C360 1.264 . S
C361 C363 1.339 . S
C361 H388 0.931 . S
C362 C363 1.395 . S
C362 C364 1.320 . S
C363 C361 1.339 . S
C363 C362 1.395 . S
C363 H389 0.929 . S
C364 C362 1.320 . S
C364 C365 1.405 . S
C364 H390 0.930 . S
C365 C360 1.479 . S
C365 C364 1.405 . S
C365 H391 0.931 . S
U366 O367 2.454 . S
U366 O368 2.458 . S
U366 C369 2.984 . S
U366 C370 2.847 . S
U366 C383 2.882 . S
U366 O384 2.441 . S
U366 O385 2.420 . S
U366 O386 2.455 . S
U366 O387 2.449 . S
O367 U366 2.454 . S
O367 C369 1.353 . S
O368 U366 2.458 . S
O368 C369 1.286 . S
C369 U366 2.984 . S
C369 O367 1.353 . S
C369 O368 1.286 . S
C369 C371 1.363 . S
C370 C360 1.465 . S
C370 U366 2.847 . S
C370 O384 1.249 . S
C370 O385 1.202 . S
C371 C369 1.363 . S
C371 C373 1.408 . S
C371 C376 1.342 . S
C372 C373 1.310 . S
C372 C375 1.461 . S
C372 H392 0.932 . S
C373 C371 1.408 . S
C373 C372 1.310 . S
C373 H393 0.930 . S
C374 C375 1.474 . S
C374 C376 1.285 . S
C374 H394 0.929 . S
C375 C372 1.461 . S
C375 C374 1.474 . S
C376 C371 1.342 . S
C376 C374 1.285 . S
C376 H395 0.930 . S
C377 C380 1.424 . S
C377 C382 1.245 . S
C377 C383 1.428 . S
C378 C381 1.260 . S
C378 C382 1.477 . S
C378 H396 0.932 . S
C379 C380 1.384 . S
C379 C381 1.479 . S
C379 H397 0.929 . S
C380 C377 1.424 . S
C380 C379 1.384 . S
C380 H398 0.928 . S
C381 C378 1.260 . S
C381 C379 1.479 . S
C382 C377 1.245 . S
C382 C378 1.477 . S
C382 H399 0.932 . S
C383 U366 2.882 . S
C383 C377 1.428 . S
C383 O386 1.301 . S
C383 O387 1.282 . S
O384 U366 2.441 . S
O384 C370 1.249 . S
O385 U366 2.420 . S
O385 C370 1.202 . S
O386 U366 2.455 . S
O386 C383 1.301 . S
O387 U366 2.449 . S
O387 C383 1.282 . S
H388 C361 0.931 . S
H389 C363 0.929 . S
H390 C364 0.930 . S
H391 C365 0.931 . S
H392 C372 0.932 . S
H393 C373 0.930 . S
H394 C374 0.929 . S
H395 C376 0.930 . S
H396 C378 0.932 . S
H397 C379 0.929 . S
H398 C380 0.928 . S
H399 C382 0.932 . S
C400 C401 1.264 . S
C400 C405 1.479 . S
C400 C410 1.465 . S
C401 C400 1.264 . S
C401 C403 1.339 . S
C401 H428 0.931 . S
C402 C403 1.395 . S
C402 C404 1.320 . S
C403 C401 1.339 . S
C403 C402 1.395 . S
C403 H429 0.929 . S
C404 C402 1.320 . S
C404 C405 1.405 . S
C404 H430 0.930 . S
C405 C400 1.479 . S
C405 C404 1.405 . S
C405 H431 0.931 . S
U406 O407 2.454 . S
U406 O408 2.458 . S
U406 C409 2.984 . S
U406 C410 2.847 . S
U406 C423 2.882 . S
U406 O424 2.441 . S
U406 O425 2.420 . S
U406 O426 2.455 . S
U406 O427 2.449 . S
O407 U406 2.454 . S
O407 C409 1.353 . S
O408 U406 2.458 . S
O408 C409 1.286 . S
C409 U406 2.984 . S
C409 O407 1.353 . S
C409 O408 1.286 . S
C409 C411 1.363 . S
C410 C400 1.465 . S
C410 U406 2.847 . S
C410 O424 1.249 . S
C410 O425 1.202 . S
C411 C409 1.363 . S
C411 C413 1.449 . S
C411 C416 1.316 1_565 S
C412 C413 1.214 1_545 S
C412 C415 1.461 . S
C412 H432 0.932 . S
C413 C411 1.449 . S
C413 C412 1.214 1_565 S
C413 H433 0.990 . S
C414 C415 1.474 . S
C414 C416 1.334 . S
C414 H434 0.929 . S
C415 C412 1.461 . S
C415 C414 1.474 . S
C416 C411 1.316 1_545 S
C416 C414 1.334 . S
C416 H435 0.909 1_545 S
C417 C420 1.424 . S
C417 C422 1.245 . S
C417 C423 1.428 . S
C418 C421 1.260 . S
C418 C422 1.477 . S
C418 H436 0.932 . S
C419 C420 1.384 . S
C419 C421 1.479 . S
C419 H437 0.929 . S
C420 C417 1.424 . S
C420 C419 1.384 . S
C420 H438 0.928 . S
C421 C418 1.260 . S
C421 C419 1.479 . S
C422 C417 1.245 . S
C422 C418 1.477 . S
C422 H439 0.932 . S
C423 U406 2.882 . S
C423 C417 1.428 . S
C423 O426 1.301 . S
C423 O427 1.282 . S
O424 U406 2.441 . S
O424 C410 1.249 . S
O425 U406 2.420 . S
O425 C410 1.202 . S
O426 U406 2.455 . S
O426 C423 1.301 . S
O427 U406 2.449 . S
O427 C423 1.282 . S
H428 C401 0.931 . S
H429 C403 0.929 . S
H430 C404 0.930 . S
H431 C405 0.931 . S
H432 C412 0.932 . S
H433 C413 0.990 . S
H434 C414 0.929 . S
H435 C416 0.909 1_565 S
H436 C418 0.932 . S
H437 C419 0.929 . S
H438 C420 0.928 . S
H439 C422 0.932 . S
C440 C441 1.264 . S
C440 C445 1.479 . S
C440 C450 1.465 . S
C441 C440 1.264 . S
C441 C443 1.339 . S
C441 H468 0.931 . S
C442 C443 1.395 . S
C442 C444 1.320 . S
C443 C441 1.339 . S
C443 C442 1.395 . S
C443 H469 0.929 . S
C444 C442 1.320 . S
C444 C445 1.405 . S
C444 H470 0.930 . S
C445 C440 1.479 . S
C445 C444 1.405 . S
C445 H471 0.931 . S
U446 O447 2.454 . S
U446 O448 2.458 . S
U446 C449 2.984 . S
U446 C450 2.847 . S
U446 C463 2.882 . S
U446 O464 2.441 . S
U446 O465 2.420 . S
U446 O466 2.455 . S
U446 O467 2.449 . S
O447 U446 2.454 . S
O447 C449 1.353 . S
O448 U446 2.458 . S
O448 C449 1.286 . S
C449 U446 2.984 . S
C449 O447 1.353 . S
C449 O448 1.286 . S
C449 C451 1.363 . S
C450 C440 1.465 . S
C450 U446 2.847 . S
C450 O464 1.249 . S
C450 O465 1.202 . S
C451 C449 1.363 . S
C451 C453 1.408 . S
C451 C456 1.342 . S
C452 C453 1.310 . S
C452 C455 1.461 . S
C452 H472 0.932 . S
C453 C451 1.408 . S
C453 C452 1.310 . S
C453 H473 0.930 . S
C454 C455 1.474 . S
C454 C456 1.285 . S
C454 H474 0.929 . S
C455 C452 1.461 . S
C455 C454 1.474 . S
C456 C451 1.342 . S
C456 C454 1.285 . S
C456 H475 0.930 . S
C457 C460 1.424 . S
C457 C462 1.245 . S
C457 C463 1.428 . S
C458 C461 1.260 . S
C458 C462 1.477 . S
C458 H476 0.932 . S
C459 C460 1.384 . S
C459 C461 1.479 . S
C459 H477 0.929 . S
C460 C457 1.424 . S
C460 C459 1.384 . S
C460 H478 0.928 . S
C461 C458 1.260 . S
C461 C459 1.479 . S
C462 C457 1.245 . S
C462 C458 1.477 . S
C462 H479 0.932 . S
C463 U446 2.882 . S
C463 C457 1.428 . S
C463 O466 1.301 . S
C463 O467 1.282 . S
O464 U446 2.441 . S
O464 C450 1.249 . S
O465 U446 2.420 . S
O465 C450 1.202 . S
O466 U446 2.455 . S
O466 C463 1.301 . S
O467 U446 2.449 . S
O467 C463 1.282 . S
H468 C441 0.931 . S
H469 C443 0.929 . S
H470 C444 0.930 . S
H471 C445 0.931 . S
H472 C452 0.932 . S
H473 C453 0.930 . S
H474 C454 0.929 . S
H475 C456 0.930 . S
H476 C458 0.932 . S
H477 C459 0.929 . S
H478 C460 0.928 . S
H479 C462 0.932 . S
C480 C481 1.264 . S
C480 C485 1.479 . S
C480 C490 1.465 . S
C481 C480 1.264 . S
C481 C483 1.339 . S
C481 H508 0.931 . S
C482 C483 1.395 . S
C482 C484 1.320 . S
C483 C481 1.339 . S
C483 C482 1.395 . S
C483 H509 0.929 . S
C484 C482 1.320 . S
C484 C485 1.405 . S
C484 H510 0.930 . S
C485 C480 1.479 . S
C485 C484 1.405 . S
C485 H511 0.931 . S
U486 O487 2.454 . S
U486 O488 2.458 . S
U486 C489 2.984 . S
U486 C490 2.847 . S
U486 C503 2.882 . S
U486 O504 2.441 . S
U486 O505 2.420 . S
U486 O506 2.455 . S
U486 O507 2.449 . S
O487 U486 2.454 . S
O487 C489 1.353 . S
O488 U486 2.458 . S
O488 C489 1.286 . S
C489 U486 2.984 . S
C489 O487 1.353 . S
C489 O488 1.286 . S
C489 C491 1.363 . S
C490 C480 1.465 . S
C490 U486 2.847 . S
C490 O504 1.249 . S
C490 O505 1.202 . S
C491 C489 1.363 . S
C491 C493 1.408 . S
C491 C496 1.342 . S
C492 C493 1.310 1_545 S
C492 C495 1.461 . S
C492 H512 0.932 . S
C493 C491 1.408 . S
C493 C492 1.310 1_565 S
C493 H513 0.930 . S
C494 C495 1.474 . S
C494 C496 1.285 1_545 S
C494 H514 0.929 . S
C495 C492 1.461 . S
C495 C494 1.474 . S
C496 C491 1.342 . S
C496 C494 1.285 1_565 S
C496 H515 0.930 . S
C497 C500 1.424 . S
C497 C502 1.245 . S
C497 C503 1.428 . S
C498 C501 1.260 . S
C498 C502 1.477 . S
C498 H516 0.932 . S
C499 C500 1.384 . S
C499 C501 1.479 . S
C499 H517 0.929 . S
C500 C497 1.424 . S
C500 C499 1.384 . S
C500 H518 0.928 . S
C501 C498 1.260 . S
C501 C499 1.479 . S
C502 C497 1.245 . S
C502 C498 1.477 . S
C502 H519 0.932 . S
C503 U486 2.882 . S
C503 C497 1.428 . S
C503 O506 1.301 . S
C503 O507 1.282 . S
O504 U486 2.441 . S
O504 C490 1.249 . S
O505 U486 2.420 . S
O505 C490 1.202 . S
O506 U486 2.455 . S
O506 C503 1.301 . S
O507 U486 2.449 . S
O507 C503 1.282 . S
H508 C481 0.931 . S
H509 C483 0.929 . S
H510 C484 0.930 . S
H511 C485 0.931 . S
H512 C492 0.932 . S
H513 C493 0.930 . S
H514 C494 0.929 . S
H515 C496 0.930 . S
H516 C498 0.932 . S
H517 C499 0.929 . S
H518 C500 0.928 . S
H519 C502 0.932 . S
C520 C521 1.264 . S
C520 C525 1.479 . S
C520 C530 1.465 . S
C521 C520 1.264 . S
C521 C523 1.339 . S
C521 H548 0.931 . S
C522 C523 1.395 . S
C522 C524 1.320 . S
C523 C521 1.339 . S
C523 C522 1.395 . S
C523 H549 0.929 . S
C524 C522 1.320 . S
C524 C525 1.405 . S
C524 H550 0.930 . S
C525 C520 1.479 . S
C525 C524 1.405 . S
C525 H551 0.931 . S
U526 O527 2.454 . S
U526 O528 2.458 . S
U526 C529 2.984 . S
U526 C530 2.847 . S
U526 C543 2.882 . S
U526 O544 2.441 . S
U526 O545 2.420 . S
U526 O546 2.455 . S
U526 O547 2.449 . S
O527 U526 2.454 . S
O527 C529 1.353 . S
O528 U526 2.458 . S
O528 C529 1.286 . S
C529 U526 2.984 . S
C529 O527 1.353 . S
C529 O528 1.286 . S
C529 C531 1.363 . S
C530 C520 1.465 . S
C530 U526 2.847 . S
C530 O544 1.249 . S
C530 O545 1.202 . S
C531 C529 1.363 . S
C531 C533 1.408 . S
C531 C536 1.342 . S
C532 C533 1.310 . S
C532 C535 1.461 . S
C532 H552 0.932 . S
C533 C531 1.408 . S
C533 C532 1.310 . S
C533 H553 0.930 . S
C534 C535 1.474 . S
C534 C536 1.285 . S
C534 H554 0.929 . S
C535 C532 1.461 . S
C535 C534 1.474 . S
C536 C531 1.342 . S
C536 C534 1.285 . S
C536 H555 0.930 . S
C537 C540 1.424 . S
C537 C542 1.245 . S
C537 C543 1.428 . S
C538 C541 1.260 . S
C538 C542 1.477 . S
C538 H556 0.932 . S
C539 C540 1.384 . S
C539 C541 1.479 . S
C539 H557 0.929 . S
C540 C537 1.424 . S
C540 C539 1.384 . S
C540 H558 0.928 . S
C541 C538 1.260 . S
C541 C539 1.479 . S
C542 C537 1.245 . S
C542 C538 1.477 . S
C542 H559 0.932 . S
C543 U526 2.882 . S
C543 C537 1.428 . S
C543 O546 1.301 . S
C543 O547 1.282 . S
O544 U526 2.441 . S
O544 C530 1.249 . S
O545 U526 2.420 . S
O545 C530 1.202 . S
O546 U526 2.455 . S
O546 C543 1.301 . S
O547 U526 2.449 . S
O547 C543 1.282 . S
H548 C521 0.931 . S
H549 C523 0.929 . S
H550 C524 0.930 . S
H551 C525 0.931 . S
H552 C532 0.932 . S
H553 C533 0.930 . S
H554 C534 0.929 . S
H555 C536 0.930 . S
H556 C538 0.932 . S
H557 C539 0.929 . S
H558 C540 0.928 . S
H559 C542 0.932 . S
C560 C561 1.264 . S
C560 C565 1.479 . S
C560 C570 1.465 . S
C561 C560 1.264 . S
C561 C563 1.339 . S
C561 H588 0.931 . S
C562 C563 1.395 . S
C562 C564 1.320 . S
C563 C561 1.339 . S
C563 C562 1.395 . S
C563 H589 0.929 . S
C564 C562 1.320 . S
C564 C565 1.405 . S
C564 H590 0.930 . S
C565 C560 1.479 . S
C565 C564 1.405 . S
C565 H591 0.931 . S
U566 O567 2.454 . S
U566 O568 2.458 . S
U566 C569 2.984 . S
U566 C570 2.847 . S
U566 C583 2.882 . S
U566 O584 2.441 . S
U566 O585 2.420 . S
U566 O586 2.455 . S
U566 O587 2.449 . S
O567 U566 2.454 . S
O567 C569 1.353 . S
O568 U566 2.458 . S
O568 C569 1.286 . S
C569 U566 2.984 . S
C569 O567 1.353 . S
C569 O568 1.286 . S
C569 C571 1.363 . S
C570 C560 1.465 . S
C570 U566 2.847 . S
C570 O584 1.249 . S
C570 O585 1.202 . S
C571 C569 1.363 . S
C571 C573 1.448 . S
C571 C576 1.316 1_545 S
C572 C573 1.215 1_565 S
C572 C575 1.461 . S
C572 H592 0.932 . S
C573 C571 1.448 . S
C573 C572 1.215 1_545 S
C573 H593 0.990 . S
C574 C575 1.474 . S
C574 C576 1.334 . S
C574 H594 0.929 . S
C575 C572 1.461 . S
C575 C574 1.474 . S
C576 C571 1.316 1_565 S
C576 C574 1.334 . S
C576 H595 0.909 1_565 S
C577 C580 1.424 . S
C577 C582 1.245 . S
C577 C583 1.428 . S
C578 C581 1.260 . S
C578 C582 1.477 . S
C578 H596 0.932 . S
C579 C580 1.384 . S
C579 C581 1.479 . S
C579 H597 0.929 . S
C580 C577 1.424 . S
C580 C579 1.384 . S
C580 H598 0.928 . S
C581 C578 1.260 . S
C581 C579 1.479 . S
C582 C577 1.245 . S
C582 C578 1.477 . S
C582 H599 0.932 . S
C583 U566 2.882 . S
C583 C577 1.428 . S
C583 O586 1.301 . S
C583 O587 1.282 . S
O584 U566 2.441 . S
O584 C570 1.249 . S
O585 U566 2.420 . S
O585 C570 1.202 . S
O586 U566 2.455 . S
O586 C583 1.301 . S
O587 U566 2.449 . S
O587 C583 1.282 . S
H588 C561 0.931 . S
H589 C563 0.929 . S
H590 C564 0.930 . S
H591 C565 0.931 . S
H592 C572 0.932 . S
H593 C573 0.990 . S
H594 C574 0.929 . S
H595 C576 0.909 1_545 S
H596 C578 0.932 . S
H597 C579 0.929 . S
H598 C580 0.928 . S
H599 C582 0.932 . S
C600 C601 1.264 . S
C600 C605 1.479 . S
C600 C610 1.465 . S
C601 C600 1.264 . S
C601 C603 1.339 . S
C601 H628 0.931 . S
C602 C603 1.395 . S
C602 C604 1.320 . S
C603 C601 1.339 . S
C603 C602 1.395 . S
C603 H629 0.929 . S
C604 C602 1.320 . S
C604 C605 1.405 . S
C604 H630 0.930 . S
C605 C600 1.479 . S
C605 C604 1.405 . S
C605 H631 0.931 . S
U606 O607 2.454 . S
U606 O608 2.458 . S
U606 C609 2.984 . S
U606 C610 2.847 . S
U606 C623 2.882 . S
U606 O624 2.441 . S
U606 O625 2.420 . S
U606 O626 2.455 . S
U606 O627 2.449 . S
O607 U606 2.454 . S
O607 C609 1.353 . S
O608 U606 2.458 . S
O608 C609 1.286 . S
C609 U606 2.984 . S
C609 O607 1.353 . S
C609 O608 1.286 . S
C609 C611 1.363 . S
C610 C600 1.465 . S
C610 U606 2.847 . S
C610 O624 1.249 . S
C610 O625 1.202 . S
C611 C609 1.363 . S
C611 C613 1.408 . S
C611 C616 1.342 . S
C612 C613 1.310 . S
C612 C615 1.461 . S
C612 H632 0.932 . S
C613 C611 1.408 . S
C613 C612 1.310 . S
C613 H633 0.930 . S
C614 C615 1.474 . S
C614 C616 1.285 . S
C614 H634 0.929 . S
C615 C612 1.461 . S
C615 C614 1.474 . S
C616 C611 1.342 . S
C616 C614 1.285 . S
C616 H635 0.930 . S
C617 C620 1.424 . S
C617 C622 1.245 . S
C617 C623 1.428 . S
C618 C621 1.260 . S
C618 C622 1.477 . S
C618 H636 0.932 . S
C619 C620 1.384 . S
C619 C621 1.479 . S
C619 H637 0.929 . S
C620 C617 1.424 . S
C620 C619 1.384 . S
C620 H638 0.928 . S
C621 C618 1.260 . S
C621 C619 1.479 . S
C622 C617 1.245 . S
C622 C618 1.477 . S
C622 H639 0.932 . S
C623 U606 2.882 . S
C623 C617 1.428 . S
C623 O626 1.301 . S
C623 O627 1.282 . S
O624 U606 2.441 . S
O624 C610 1.249 . S
O625 U606 2.420 . S
O625 C610 1.202 . S
O626 U606 2.455 . S
O626 C623 1.301 . S
O627 U606 2.449 . S
O627 C623 1.282 . S
H628 C601 0.931 . S
H629 C603 0.929 . S
H630 C604 0.930 . S
H631 C605 0.931 . S
H632 C612 0.932 . S
H633 C613 0.930 . S
H634 C614 0.929 . S
H635 C616 0.930 . S
H636 C618 0.932 . S
H637 C619 0.929 . S
H638 C620 0.928 . S
H639 C622 0.932 . S
C640 C641 1.264 . S
C640 C645 1.479 . S
C640 C650 1.465 . S
C641 C640 1.264 . S
C641 C643 1.339 . S
C641 H668 0.931 . S
C642 C643 1.395 . S
C642 C644 1.320 . S
C643 C641 1.339 . S
C643 C642 1.395 . S
C643 H669 0.929 . S
C644 C642 1.320 . S
C644 C645 1.405 . S
C644 H670 0.930 . S
C645 C640 1.479 . S
C645 C644 1.405 . S
C645 H671 0.931 . S
U646 O647 2.454 . S
U646 O648 2.458 . S
U646 C649 2.984 . S
U646 C650 2.847 . S
U646 C663 2.882 . S
U646 O664 2.441 . S
U646 O665 2.420 . S
U646 O666 2.455 . S
U646 O667 2.449 . S
O647 U646 2.454 . S
O647 C649 1.353 . S
O648 U646 2.458 . S
O648 C649 1.286 . S
C649 U646 2.984 . S
C649 O647 1.353 . S
C649 O648 1.286 . S
C649 C651 1.363 . S
C650 C640 1.465 . S
C650 U646 2.847 . S
C650 O664 1.249 . S
C650 O665 1.202 . S
C651 C649 1.363 . S
C651 C653 1.408 . S
C651 C656 1.342 . S
C652 C653 1.310 . S
C652 C655 1.461 . S
C652 H672 0.932 . S
C653 C651 1.408 . S
C653 C652 1.310 . S
C653 H673 0.930 . S
C654 C655 1.474 . S
C654 C656 1.285 . S
C654 H674 0.929 . S
C655 C652 1.461 . S
C655 C654 1.474 . S
C656 C651 1.342 . S
C656 C654 1.285 . S
C656 H675 0.930 . S
C657 C660 1.424 . S
C657 C662 1.245 . S
C657 C663 1.428 . S
C658 C661 1.260 . S
C658 C662 1.477 . S
C658 H676 0.932 . S
C659 C660 1.384 . S
C659 C661 1.479 . S
C659 H677 0.929 . S
C660 C657 1.424 . S
C660 C659 1.384 . S
C660 H678 0.928 . S
C661 C658 1.260 . S
C661 C659 1.479 . S
C662 C657 1.245 . S
C662 C658 1.477 . S
C662 H679 0.932 . S
C663 U646 2.882 . S
C663 C657 1.428 . S
C663 O666 1.301 . S
C663 O667 1.282 . S
O664 U646 2.441 . S
O664 C650 1.249 . S
O665 U646 2.420 . S
O665 C650 1.202 . S
O666 U646 2.455 . S
O666 C663 1.301 . S
O667 U646 2.449 . S
O667 C663 1.282 . S
H668 C641 0.931 . S
H669 C643 0.929 . S
H670 C644 0.930 . S
H671 C645 0.931 . S
H672 C652 0.932 . S
H673 C653 0.930 . S
H674 C654 0.929 . S
H675 C656 0.930 . S
H676 C658 0.932 . S
H677 C659 0.929 . S
H678 C660 0.928 . S
H679 C662 0.932 . S
C680 C681 1.264 . S
C680 C685 1.479 . S
C680 C690 1.465 . S
C681 C680 1.264 . S
C681 C683 1.339 . S
C681 H708 0.931 . S
C682 C683 1.395 . S
C682 C684 1.320 . S
C683 C681 1.339 . S
C683 C682 1.395 . S
C683 H709 0.929 . S
C684 C682 1.320 . S
C684 C685 1.405 . S
C684 H710 0.930 . S
C685 C680 1.479 . S
C685 C684 1.405 . S
C685 H711 0.931 . S
U686 O687 2.454 . S
U686 O688 2.458 . S
U686 C689 2.984 . S
U686 C690 2.847 . S
U686 C703 2.882 . S
U686 O704 2.441 . S
U686 O705 2.420 . S
U686 O706 2.455 . S
U686 O707 2.449 . S
O687 U686 2.454 . S
O687 C689 1.353 . S
O688 U686 2.458 . S
O688 C689 1.286 . S
C689 U686 2.984 . S
C689 O687 1.353 . S
C689 O688 1.286 . S
C689 C691 1.363 . S
C690 C680 1.465 . S
C690 U686 2.847 . S
C690 O704 1.249 . S
C690 O705 1.202 . S
C691 C689 1.363 . S
C691 C693 1.408 . S
C691 C696 1.342 . S
C692 C693 1.310 . S
C692 C695 1.461 . S
C692 H712 0.932 . S
C693 C691 1.408 . S
C693 C692 1.310 . S
C693 H713 0.930 . S
C694 C695 1.474 . S
C694 C696 1.285 . S
C694 H714 0.929 . S
C695 C692 1.461 . S
C695 C694 1.474 . S
C696 C691 1.342 . S
C696 C694 1.285 . S
C696 H715 0.930 . S
C697 C700 1.424 . S
C697 C702 1.245 . S
C697 C703 1.428 . S
C698 C701 1.260 . S
C698 C702 1.477 . S
C698 H716 0.932 . S
C699 C700 1.384 . S
C699 C701 1.479 . S
C699 H717 0.929 . S
C700 C697 1.424 . S
C700 C699 1.384 . S
C700 H718 0.928 . S
C701 C698 1.260 . S
C701 C699 1.479 . S
C702 C697 1.245 . S
C702 C698 1.477 . S
C702 H719 0.932 . S
C703 U686 2.882 . S
C703 C697 1.428 . S
C703 O706 1.301 . S
C703 O707 1.282 . S
O704 U686 2.441 . S
O704 C690 1.249 . S
O705 U686 2.420 . S
O705 C690 1.202 . S
O706 U686 2.455 . S
O706 C703 1.301 . S
O707 U686 2.449 . S
O707 C703 1.282 . S
H708 C681 0.931 . S
H709 C683 0.929 . S
H710 C684 0.930 . S
H711 C685 0.931 . S
H712 C692 0.932 . S
H713 C693 0.930 . S
H714 C694 0.929 . S
H715 C696 0.930 . S
H716 C698 0.932 . S
H717 C699 0.929 . S
H718 C700 0.928 . S
H719 C702 0.932 . S
C720 C721 1.264 . S
C720 C725 1.479 . S
C720 C730 1.465 . S
C721 C720 1.264 . S
C721 C723 1.339 . S
C721 H748 0.931 . S
C722 C723 1.395 . S
C722 C724 1.320 . S
C723 C721 1.339 . S
C723 C722 1.395 . S
C723 H749 0.929 . S
C724 C722 1.320 . S
C724 C725 1.405 . S
C724 H750 0.930 . S
C725 C720 1.479 . S
C725 C724 1.405 . S
C725 H751 0.931 . S
U726 O727 2.454 . S
U726 O728 2.458 . S
U726 C729 2.984 . S
U726 C730 2.847 . S
U726 C743 2.882 . S
U726 O744 2.441 . S
U726 O745 2.420 . S
U726 O746 2.455 . S
U726 O747 2.449 . S
O727 U726 2.454 . S
O727 C729 1.353 . S
O728 U726 2.458 . S
O728 C729 1.286 . S
C729 U726 2.984 . S
C729 O727 1.353 . S
C729 O728 1.286 . S
C729 C731 1.363 . S
C730 C720 1.465 . S
C730 U726 2.847 . S
C730 O744 1.249 . S
C730 O745 1.202 . S
C731 C729 1.363 . S
C731 C733 1.408 . S
C731 C736 1.342 . S
C732 C733 1.310 . S
C732 C735 1.461 . S
C732 H752 0.932 . S
C733 C731 1.408 . S
C733 C732 1.310 . S
C733 H753 0.930 . S
C734 C735 1.474 . S
C734 C736 1.285 . S
C734 H754 0.929 . S
C735 C732 1.461 . S
C735 C734 1.474 . S
C736 C731 1.342 . S
C736 C734 1.285 . S
C736 H755 0.930 . S
C737 C740 1.424 . S
C737 C742 1.245 . S
C737 C743 1.428 . S
C738 C741 1.260 . S
C738 C742 1.477 . S
C738 H756 0.932 . S
C739 C740 1.384 . S
C739 C741 1.479 . S
C739 H757 0.929 . S
C740 C737 1.424 . S
C740 C739 1.384 . S
C740 H758 0.928 . S
C741 C738 1.260 . S
C741 C739 1.479 . S
C742 C737 1.245 . S
C742 C738 1.477 . S
C742 H759 0.932 . S
C743 U726 2.882 . S
C743 C737 1.428 . S
C743 O746 1.301 . S
C743 O747 1.282 . S
O744 U726 2.441 . S
O744 C730 1.249 . S
O745 U726 2.420 . S
O745 C730 1.202 . S
O746 U726 2.455 . S
O746 C743 1.301 . S
O747 U726 2.449 . S
O747 C743 1.282 . S
H748 C721 0.931 . S
H749 C723 0.929 . S
H750 C724 0.930 . S
H751 C725 0.931 . S
H752 C732 0.932 . S
H753 C733 0.930 . S
H754 C734 0.929 . S
H755 C736 0.930 . S
H756 C738 0.932 . S
H757 C739 0.929 . S
H758 C740 0.928 . S
H759 C742 0.932 . S
C760 C761 1.264 . S
C760 C765 1.479 . S
C760 C770 1.465 . S
C761 C760 1.264 . S
C761 C763 1.339 . S
C761 H788 0.931 . S
C762 C763 1.395 . S
C762 C764 1.320 . S
C763 C761 1.339 . S
C763 C762 1.395 . S
C763 H789 0.929 . S
C764 C762 1.320 . S
C764 C765 1.405 . S
C764 H790 0.930 . S
C765 C760 1.479 . S
C765 C764 1.405 . S
C765 H791 0.931 . S
U766 O767 2.454 . S
U766 O768 2.458 . S
U766 C769 2.984 . S
U766 C770 2.847 . S
U766 C783 2.882 . S
U766 O784 2.441 . S
U766 O785 2.420 . S
U766 O786 2.455 . S
U766 O787 2.449 . S
O767 U766 2.454 . S
O767 C769 1.353 . S
O768 U766 2.458 . S
O768 C769 1.286 . S
C769 U766 2.984 . S
C769 O767 1.353 . S
C769 O768 1.286 . S
C769 C771 1.363 . S
C770 C760 1.465 . S
C770 U766 2.847 . S
C770 O784 1.249 . S
C770 O785 1.202 . S
C771 C769 1.363 . S
C771 C773 1.408 . S
C771 C776 1.342 . S
C772 C773 1.310 . S
C772 C775 1.461 . S
C772 H792 0.932 . S
C773 C771 1.408 . S
C773 C772 1.310 . S
C773 H793 0.930 . S
C774 C775 1.474 . S
C774 C776 1.285 . S
C774 H794 0.929 . S
C775 C772 1.461 . S
C775 C774 1.474 . S
C776 C771 1.342 . S
C776 C774 1.285 . S
C776 H795 0.930 . S
C777 C780 1.424 . S
C777 C782 1.245 . S
C777 C783 1.428 . S
C778 C781 1.260 . S
C778 C782 1.477 . S
C778 H796 0.932 . S
C779 C780 1.384 . S
C779 C781 1.479 . S
C779 H797 0.929 . S
C780 C777 1.424 . S
C780 C779 1.384 . S
C780 H798 0.928 . S
C781 C778 1.260 . S
C781 C779 1.479 . S
C782 C777 1.245 . S
C782 C778 1.477 . S
C782 H799 0.932 . S
C783 U766 2.882 . S
C783 C777 1.428 . S
C783 O786 1.301 . S
C783 O787 1.282 . S
O784 U766 2.441 . S
O784 C770 1.249 . S
O785 U766 2.420 . S
O785 C770 1.202 . S
O786 U766 2.455 . S
O786 C783 1.301 . S
O787 U766 2.449 . S
O787 C783 1.282 . S
H788 C761 0.931 . S
H789 C763 0.929 . S
H790 C764 0.930 . S
H791 C765 0.931 . S
H792 C772 0.932 . S
H793 C773 0.930 . S
H794 C774 0.929 . S
H795 C776 0.930 . S
H796 C778 0.932 . S
H797 C779 0.929 . S
H798 C780 0.928 . S
H799 C782 0.932 . S
C800 C801 1.264 . S
C800 C805 1.479 . S
C800 C810 1.465 . S
C801 C800 1.264 . S
C801 C803 1.339 . S
C801 H828 0.931 . S
C802 C803 1.395 . S
C802 C804 1.320 . S
C803 C801 1.339 . S
C803 C802 1.395 . S
C803 H829 0.929 . S
C804 C802 1.320 . S
C804 C805 1.405 . S
C804 H830 0.930 . S
C805 C800 1.479 . S
C805 C804 1.405 . S
C805 H831 0.931 . S
U806 O807 2.454 . S
U806 O808 2.458 . S
U806 C809 2.984 . S
U806 C810 2.847 . S
U806 C823 2.882 . S
U806 O824 2.441 . S
U806 O825 2.420 . S
U806 O826 2.455 . S
U806 O827 2.449 . S
O807 U806 2.454 . S
O807 C809 1.353 . S
O808 U806 2.458 . S
O808 C809 1.286 . S
C809 U806 2.984 . S
C809 O807 1.353 . S
C809 O808 1.286 . S
C809 C811 1.363 . S
C810 C800 1.465 . S
C810 U806 2.847 . S
C810 O824 1.249 . S
C810 O825 1.202 . S
C811 C809 1.363 . S
C811 C813 1.408 . S
C811 C816 1.342 . S
C812 C813 1.310 . S
C812 C815 1.461 . S
C812 H832 0.932 . S
C813 C811 1.408 . S
C813 C812 1.310 . S
C813 H833 0.930 . S
C814 C815 1.474 . S
C814 C816 1.285 . S
C814 H834 0.929 . S
C815 C812 1.461 . S
C815 C814 1.474 . S
C816 C811 1.342 . S
C816 C814 1.285 . S
C816 H835 0.930 . S
C817 C820 1.424 . S
C817 C822 1.245 . S
C817 C823 1.428 . S
C818 C821 1.260 . S
C818 C822 1.477 . S
C818 H836 0.932 . S
C819 C820 1.384 . S
C819 C821 1.479 . S
C819 H837 0.929 . S
C820 C817 1.424 . S
C820 C819 1.384 . S
C820 H838 0.928 . S
C821 C818 1.260 . S
C821 C819 1.479 . S
C822 C817 1.245 . S
C822 C818 1.477 . S
C822 H839 0.932 . S
C823 U806 2.882 . S
C823 C817 1.428 . S
C823 O826 1.301 . S
C823 O827 1.282 . S
O824 U806 2.441 . S
O824 C810 1.249 . S
O825 U806 2.420 . S
O825 C810 1.202 . S
O826 U806 2.455 . S
O826 C823 1.301 . S
O827 U806 2.449 . S
O827 C823 1.282 . S
H828 C801 0.931 . S
H829 C803 0.929 . S
H830 C804 0.930 . S
H831 C805 0.931 . S
H832 C812 0.932 . S
H833 C813 0.930 . S
H834 C814 0.929 . S
H835 C816 0.930 . S
H836 C818 0.932 . S
H837 C819 0.929 . S
H838 C820 0.928 . S
H839 C822 0.932 . S
C840 C841 1.264 . S
C840 C845 1.479 . S
C840 C850 1.465 . S
C841 C840 1.264 . S
C841 C843 1.339 . S
C841 H868 0.931 . S
C842 C843 1.395 . S
C842 C844 1.320 . S
C843 C841 1.339 . S
C843 C842 1.395 . S
C843 H869 0.929 . S
C844 C842 1.320 . S
C844 C845 1.405 . S
C844 H870 0.930 . S
C845 C840 1.479 . S
C845 C844 1.405 . S
C845 H871 0.931 . S
U846 O847 2.454 . S
U846 O848 2.458 . S
U846 C849 2.984 . S
U846 C850 2.847 . S
U846 C863 2.882 . S
U846 O864 2.441 . S
U846 O865 2.420 . S
U846 O866 2.455 . S
U846 O867 2.449 . S
O847 U846 2.454 . S
O847 C849 1.353 . S
O848 U846 2.458 . S
O848 C849 1.286 . S
C849 U846 2.984 . S
C849 O847 1.353 . S
C849 O848 1.286 . S
C849 C851 1.363 . S
C850 C840 1.465 . S
C850 U846 2.847 . S
C850 O864 1.249 . S
C850 O865 1.202 . S
C851 C849 1.363 . S
C851 C853 1.408 . S
C851 C856 1.342 . S
C852 C853 1.310 . S
C852 C855 1.461 . S
C852 H872 0.932 . S
C853 C851 1.408 . S
C853 C852 1.310 . S
C853 H873 0.930 . S
C854 C855 1.474 . S
C854 C856 1.285 . S
C854 H874 0.929 . S
C855 C852 1.461 . S
C855 C854 1.474 . S
C856 C851 1.342 . S
C856 C854 1.285 . S
C856 H875 0.930 . S
C857 C860 1.424 . S
C857 C862 1.245 . S
C857 C863 1.428 . S
C858 C861 1.260 . S
C858 C862 1.477 . S
C858 H876 0.932 . S
C859 C860 1.384 . S
C859 C861 1.479 . S
C859 H877 0.929 . S
C860 C857 1.424 . S
C860 C859 1.384 . S
C860 H878 0.928 . S
C861 C858 1.260 . S
C861 C859 1.479 . S
C862 C857 1.245 . S
C862 C858 1.477 . S
C862 H879 0.932 . S
C863 U846 2.882 . S
C863 C857 1.428 . S
C863 O866 1.301 . S
C863 O867 1.282 . S
O864 U846 2.441 . S
O864 C850 1.249 . S
O865 U846 2.420 . S
O865 C850 1.202 . S
O866 U846 2.455 . S
O866 C863 1.301 . S
O867 U846 2.449 . S
O867 C863 1.282 . S
H868 C841 0.931 . S
H869 C843 0.929 . S
H870 C844 0.930 . S
H871 C845 0.931 . S
H872 C852 0.932 . S
H873 C853 0.930 . S
H874 C854 0.929 . S
H875 C856 0.930 . S
H876 C858 0.932 . S
H877 C859 0.929 . S
H878 C860 0.928 . S
H879 C862 0.932 . S
C880 C881 1.264 . S
C880 C885 1.479 . S
C880 C890 1.465 . S
C881 C880 1.264 . S
C881 C883 1.339 . S
C881 H908 0.931 . S
C882 C883 1.395 . S
C882 C884 1.320 . S
C883 C881 1.339 . S
C883 C882 1.395 . S
C883 H909 0.929 . S
C884 C882 1.320 . S
C884 C885 1.405 . S
C884 H910 0.930 . S
C885 C880 1.479 . S
C885 C884 1.405 . S
C885 H911 0.931 . S
U886 O887 2.454 . S
U886 O888 2.458 . S
U886 C889 2.984 . S
U886 C890 2.847 . S
U886 C903 2.882 . S
U886 O904 2.441 . S
U886 O905 2.420 . S
U886 O906 2.455 . S
U886 O907 2.449 . S
O887 U886 2.454 . S
O887 C889 1.353 . S
O888 U886 2.458 . S
O888 C889 1.286 . S
C889 U886 2.984 . S
C889 O887 1.353 . S
C889 O888 1.286 . S
C889 C891 1.363 . S
C890 C880 1.465 . S
C890 U886 2.847 . S
C890 O904 1.249 . S
C890 O905 1.202 . S
C891 C889 1.363 . S
C891 C893 1.408 . S
C891 C896 1.342 . S
C892 C893 1.310 . S
C892 C895 1.461 . S
C892 H912 0.932 . S
C893 C891 1.408 . S
C893 C892 1.310 . S
C893 H913 0.930 . S
C894 C895 1.474 . S
C894 C896 1.285 . S
C894 H914 0.929 . S
C895 C892 1.461 . S
C895 C894 1.474 . S
C896 C891 1.342 . S
C896 C894 1.285 . S
C896 H915 0.930 . S
C897 C900 1.424 . S
C897 C902 1.245 . S
C897 C903 1.428 . S
C898 C901 1.260 . S
C898 C902 1.477 . S
C898 H916 0.932 . S
C899 C900 1.384 . S
C899 C901 1.479 . S
C899 H917 0.929 . S
C900 C897 1.424 . S
C900 C899 1.384 . S
C900 H918 0.928 . S
C901 C898 1.260 . S
C901 C899 1.479 . S
C902 C897 1.245 . S
C902 C898 1.477 . S
C902 H919 0.932 . S
C903 U886 2.882 . S
C903 C897 1.428 . S
C903 O906 1.301 . S
C903 O907 1.282 . S
O904 U886 2.441 . S
O904 C890 1.249 . S
O905 U886 2.420 . S
O905 C890 1.202 . S
O906 U886 2.455 . S
O906 C903 1.301 . S
O907 U886 2.449 . S
O907 C903 1.282 . S
H908 C881 0.931 . S
H909 C883 0.929 . S
H910 C884 0.930 . S
H911 C885 0.931 . S
H912 C892 0.932 . S
H913 C893 0.930 . S
H914 C894 0.929 . S
H915 C896 0.930 . S
H916 C898 0.932 . S
H917 C899 0.929 . S
H918 C900 0.928 . S
H919 C902 0.932 . S
C920 C921 1.264 . S
C920 C925 1.479 . S
C920 C930 1.465 . S
C921 C920 1.264 . S
C921 C923 1.339 . S
C921 H948 0.931 . S
C922 C923 1.395 . S
C922 C924 1.320 . S
C923 C921 1.339 . S
C923 C922 1.395 . S
C923 H949 0.929 . S
C924 C922 1.320 . S
C924 C925 1.405 . S
C924 H950 0.930 . S
C925 C920 1.479 . S
C925 C924 1.405 . S
C925 H951 0.931 . S
U926 O927 2.454 . S
U926 O928 2.458 . S
U926 C929 2.984 . S
U926 C930 2.847 . S
U926 C943 2.882 . S
U926 O944 2.441 . S
U926 O945 2.420 . S
U926 O946 2.455 . S
U926 O947 2.449 . S
O927 U926 2.454 . S
O927 C929 1.353 . S
O928 U926 2.458 . S
O928 C929 1.286 . S
C929 U926 2.984 . S
C929 O927 1.353 . S
C929 O928 1.286 . S
C929 C931 1.363 . S
C930 C920 1.465 . S
C930 U926 2.847 . S
C930 O944 1.249 . S
C930 O945 1.202 . S
C931 C929 1.363 . S
C931 C933 1.408 . S
C931 C936 1.342 . S
C932 C933 1.310 . S
C932 C935 1.461 . S
C932 H952 0.932 . S
C933 C931 1.408 . S
C933 C932 1.310 . S
C933 H953 0.930 . S
C934 C935 1.474 . S
C934 C936 1.285 . S
C934 H954 0.929 . S
C935 C932 1.461 . S
C935 C934 1.474 . S
C936 C931 1.342 . S
C936 C934 1.285 . S
C936 H955 0.930 . S
C937 C940 1.424 . S
C937 C942 1.245 . S
C937 C943 1.428 . S
C938 C941 1.260 . S
C938 C942 1.477 . S
C938 H956 0.932 . S
C939 C940 1.384 . S
C939 C941 1.479 . S
C939 H957 0.929 . S
C940 C937 1.424 . S
C940 C939 1.384 . S
C940 H958 0.928 . S
C941 C938 1.260 . S
C941 C939 1.479 . S
C942 C937 1.245 . S
C942 C938 1.477 . S
C942 H959 0.932 . S
C943 U926 2.882 . S
C943 C937 1.428 . S
C943 O946 1.301 . S
C943 O947 1.282 . S
O944 U926 2.441 . S
O944 C930 1.249 . S
O945 U926 2.420 . S
O945 C930 1.202 . S
O946 U926 2.455 . S
O946 C943 1.301 . S
O947 U926 2.449 . S
O947 C943 1.282 . S
H948 C921 0.931 . S
H949 C923 0.929 . S
H950 C924 0.930 . S
H951 C925 0.931 . S
H952 C932 0.932 . S
H953 C933 0.930 . S
H954 C934 0.929 . S
H955 C936 0.930 . S
H956 C938 0.932 . S
H957 C939 0.929 . S
H958 C940 0.928 . S
H959 C942 0.932 . S
C960 C961 1.264 . S
C960 C965 1.479 . S
C960 C970 1.465 . S
C961 C960 1.264 . S
C961 C963 1.339 . S
C961 H988 0.931 . S
C962 C963 1.395 . S
C962 C964 1.320 . S
C963 C961 1.339 . S
C963 C962 1.395 . S
C963 H989 0.929 . S
C964 C962 1.320 . S
C964 C965 1.405 . S
C964 H990 0.930 . S
C965 C960 1.479 . S
C965 C964 1.405 . S
C965 H991 0.931 . S
U966 O967 2.454 . S
U966 O968 2.458 . S
U966 C969 2.984 . S
U966 C970 2.847 . S
U966 C983 2.882 . S
U966 O984 2.441 . S
U966 O985 2.420 . S
U966 O986 2.455 . S
U966 O987 2.449 . S
O967 U966 2.454 . S
O967 C969 1.353 . S
O968 U966 2.458 . S
O968 C969 1.286 . S
C969 U966 2.984 . S
C969 O967 1.353 . S
C969 O968 1.286 . S
C969 C971 1.363 . S
C970 C960 1.465 . S
C970 U966 2.847 . S
C970 O984 1.249 . S
C970 O985 1.202 . S
C971 C969 1.363 . S
C971 C973 1.408 . S
C971 C976 1.342 . S
C972 C973 1.310 . S
C972 C975 1.461 . S
C972 H992 0.932 . S
C973 C971 1.408 . S
C973 C972 1.310 . S
C973 H993 0.930 . S
C974 C975 1.474 . S
C974 C976 1.285 . S
C974 H994 0.929 . S
C975 C972 1.461 . S
C975 C974 1.474 . S
C976 C971 1.342 . S
C976 C974 1.285 . S
C976 H995 0.930 . S
C977 C980 1.424 . S
C977 C982 1.245 . S
C977 C983 1.428 . S
C978 C981 1.260 . S
C978 C982 1.477 . S
C978 H996 0.932 . S
C979 C980 1.384 . S
C979 C981 1.479 . S
C979 H997 0.929 . S
C980 C977 1.424 . S
C980 C979 1.384 . S
C980 H998 0.928 . S
C981 C978 1.260 . S
C981 C979 1.479 . S
C982 C977 1.245 . S
C982 C978 1.477 . S
C982 H999 0.932 . S
C983 U966 2.882 . S
C983 C977 1.428 . S
C983 O986 1.301 . S
C983 O987 1.282 . S
O984 U966 2.441 . S
O984 C970 1.249 . S
O985 U966 2.420 . S
O985 C970 1.202 . S
O986 U966 2.455 . S
O986 C983 1.301 . S
O987 U966 2.449 . S
O987 C983 1.282 . S
H988 C961 0.931 . S
H989 C963 0.929 . S
H990 C964 0.930 . S
H991 C965 0.931 . S
H992 C972 0.932 . S
H993 C973 0.930 . S
H994 C974 0.929 . S
H995 C976 0.930 . S
H996 C978 0.932 . S
H997 C979 0.929 . S
H998 C980 0.928 . S
H999 C982 0.932 . S
C1000 C1001 1.264 . S
C1000 C1005 1.479 . S
C1000 C1010 1.465 . S
C1001 C1000 1.264 . S
C1001 C1003 1.339 . S
C1001 H1028 0.931 . S
C1002 C1003 1.395 . S
C1002 C1004 1.320 . S
C1003 C1001 1.339 . S
C1003 C1002 1.395 . S
C1003 H1029 0.929 . S
C1004 C1002 1.320 . S
C1004 C1005 1.405 . S
C1004 H1030 0.930 . S
C1005 C1000 1.479 . S
C1005 C1004 1.405 . S
C1005 H1031 0.931 . S
U1006 O1007 2.454 . S
U1006 O1008 2.458 . S
U1006 C1009 2.984 . S
U1006 C1010 2.847 . S
U1006 C1023 2.882 . S
U1006 O1024 2.441 . S
U1006 O1025 2.420 . S
U1006 O1026 2.455 . S
U1006 O1027 2.449 . S
O1007 U1006 2.454 . S
O1007 C1009 1.353 . S
O1008 U1006 2.458 . S
O1008 C1009 1.286 . S
C1009 U1006 2.984 . S
C1009 O1007 1.353 . S
C1009 O1008 1.286 . S
C1009 C1011 1.363 . S
C1010 C1000 1.465 . S
C1010 U1006 2.847 . S
C1010 O1024 1.249 . S
C1010 O1025 1.202 . S
C1011 C1009 1.363 . S
C1011 C1013 1.408 . S
C1011 C1016 1.342 . S
C1012 C1013 1.310 . S
C1012 C1015 1.461 . S
C1012 H1032 0.932 . S
C1013 C1011 1.408 . S
C1013 C1012 1.310 . S
C1013 H1033 0.930 . S
C1014 C1015 1.474 . S
C1014 C1016 1.285 . S
C1014 H1034 0.929 . S
C1015 C1012 1.461 . S
C1015 C1014 1.474 . S
C1016 C1011 1.342 . S
C1016 C1014 1.285 . S
C1016 H1035 0.930 . S
C1017 C1020 1.424 . S
C1017 C1022 1.245 . S
C1017 C1023 1.428 . S
C1018 C1021 1.260 . S
C1018 C1022 1.477 . S
C1018 H1036 0.932 . S
C1019 C1020 1.384 . S
C1019 C1021 1.479 . S
C1019 H1037 0.929 . S
C1020 C1017 1.424 . S
C1020 C1019 1.384 . S
C1020 H1038 0.928 . S
C1021 C1018 1.260 . S
C1021 C1019 1.479 . S
C1022 C1017 1.245 . S
C1022 C1018 1.477 . S
C1022 H1039 0.932 . S
C1023 U1006 2.882 . S
C1023 C1017 1.428 . S
C1023 O1026 1.301 . S
C1023 O1027 1.282 . S
O1024 U1006 2.441 . S
O1024 C1010 1.249 . S
O1025 U1006 2.420 . S
O1025 C1010 1.202 . S
O1026 U1006 2.455 . S
O1026 C1023 1.301 . S
O1027 U1006 2.449 . S
O1027 C1023 1.282 . S
H1028 C1001 0.931 . S
H1029 C1003 0.929 . S
H1030 C1004 0.930 . S
H1031 C1005 0.931 . S
H1032 C1012 0.932 . S
H1033 C1013 0.930 . S
H1034 C1014 0.929 . S
H1035 C1016 0.930 . S
H1036 C1018 0.932 . S
H1037 C1019 0.929 . S
H1038 C1020 0.928 . S
H1039 C1022 0.932 . S
C1040 C1041 1.264 . S
C1040 C1045 1.479 . S
C1040 C1050 1.465 . S
C1041 C1040 1.264 . S
C1041 C1043 1.339 . S
C1041 H1068 0.931 . S
C1042 C1043 1.395 . S
C1042 C1044 1.320 . S
C1043 C1041 1.339 . S
C1043 C1042 1.395 . S
C1043 H1069 0.929 . S
C1044 C1042 1.320 . S
C1044 C1045 1.405 . S
C1044 H1070 0.930 . S
C1045 C1040 1.479 . S
C1045 C1044 1.405 . S
C1045 H1071 0.931 . S
U1046 O1047 2.454 . S
U1046 O1048 2.458 . S
U1046 C1049 2.984 . S
U1046 C1050 2.847 . S
U1046 C1063 2.882 . S
U1046 O1064 2.441 . S
U1046 O1065 2.420 . S
U1046 O1066 2.455 . S
U1046 O1067 2.449 . S
O1047 U1046 2.454 . S
O1047 C1049 1.353 . S
O1048 U1046 2.458 . S
O1048 C1049 1.286 . S
C1049 U1046 2.984 . S
C1049 O1047 1.353 . S
C1049 O1048 1.286 . S
C1049 C1051 1.363 . S
C1050 C1040 1.465 . S
C1050 U1046 2.847 . S
C1050 O1064 1.249 . S
C1050 O1065 1.202 . S
C1051 C1049 1.363 . S
C1051 C1053 1.408 . S
C1051 C1056 1.342 . S
C1052 C1053 1.310 . S
C1052 C1055 1.461 . S
C1052 H1072 0.932 . S
C1053 C1051 1.408 . S
C1053 C1052 1.310 . S
C1053 H1073 0.930 . S
C1054 C1055 1.474 . S
C1054 C1056 1.285 . S
C1054 H1074 0.929 . S
C1055 C1052 1.461 . S
C1055 C1054 1.474 . S
C1056 C1051 1.342 . S
C1056 C1054 1.285 . S
C1056 H1075 0.930 . S
C1057 C1060 1.424 . S
C1057 C1062 1.245 . S
C1057 C1063 1.428 . S
C1058 C1061 1.260 . S
C1058 C1062 1.477 . S
C1058 H1076 0.932 . S
C1059 C1060 1.384 . S
C1059 C1061 1.479 . S
C1059 H1077 0.929 . S
C1060 C1057 1.424 . S
C1060 C1059 1.384 . S
C1060 H1078 0.928 . S
C1061 C1058 1.260 . S
C1061 C1059 1.479 . S
C1062 C1057 1.245 . S
C1062 C1058 1.477 . S
C1062 H1079 0.932 . S
C1063 U1046 2.882 . S
C1063 C1057 1.428 . S
C1063 O1066 1.301 . S
C1063 O1067 1.282 . S
O1064 U1046 2.441 . S
O1064 C1050 1.249 . S
O1065 U1046 2.420 . S
O1065 C1050 1.202 . S
O1066 U1046 2.455 . S
O1066 C1063 1.301 . S
O1067 U1046 2.449 . S
O1067 C1063 1.282 . S
H1068 C1041 0.931 . S
H1069 C1043 0.929 . S
H1070 C1044 0.930 . S
H1071 C1045 0.931 . S
H1072 C1052 0.932 . S
H1073 C1053 0.930 . S
H1074 C1054 0.929 . S
H1075 C1056 0.930 . S
H1076 C1058 0.932 . S
H1077 C1059 0.929 . S
H1078 C1060 0.928 . S
H1079 C1062 0.932 . S
C1080 C1081 1.264 . S
C1080 C1085 1.479 . S
C1080 C1090 1.465 . S
C1081 C1080 1.264 . S
C1081 C1083 1.339 . S
C1081 H1108 0.931 . S
C1082 C1083 1.395 . S
C1082 C1084 1.320 . S
C1083 C1081 1.339 . S
C1083 C1082 1.395 . S
C1083 H1109 0.929 . S
C1084 C1082 1.320 . S
C1084 C1085 1.405 . S
C1084 H1110 0.930 . S
C1085 C1080 1.479 . S
C1085 C1084 1.405 . S
C1085 H1111 0.931 . S
U1086 O1087 2.454 . S
U1086 O1088 2.458 . S
U1086 C1089 2.984 . S
U1086 C1090 2.847 . S
U1086 C1103 2.882 . S
U1086 O1104 2.441 . S
U1086 O1105 2.420 . S
U1086 O1106 2.455 . S
U1086 O1107 2.449 . S
O1087 U1086 2.454 . S
O1087 C1089 1.353 . S
O1088 U1086 2.458 . S
O1088 C1089 1.286 . S
C1089 U1086 2.984 . S
C1089 O1087 1.353 . S
C1089 O1088 1.286 . S
C1089 C1091 1.363 . S
C1090 C1080 1.465 . S
C1090 U1086 2.847 . S
C1090 O1104 1.249 . S
C1090 O1105 1.202 . S
C1091 C1089 1.363 . S
C1091 C1093 1.408 . S
C1091 C1096 1.342 . S
C1092 C1093 1.310 . S
C1092 C1095 1.461 . S
C1092 H1112 0.932 . S
C1093 C1091 1.408 . S
C1093 C1092 1.310 . S
C1093 H1113 0.930 . S
C1094 C1095 1.474 . S
C1094 C1096 1.285 . S
C1094 H1114 0.929 . S
C1095 C1092 1.461 . S
C1095 C1094 1.474 . S
C1096 C1091 1.342 . S
C1096 C1094 1.285 . S
C1096 H1115 0.930 . S
C1097 C1100 1.424 . S
C1097 C1102 1.245 . S
C1097 C1103 1.428 . S
C1098 C1101 1.260 . S
C1098 C1102 1.477 . S
C1098 H1116 0.932 . S
C1099 C1100 1.384 . S
C1099 C1101 1.479 . S
C1099 H1117 0.929 . S
C1100 C1097 1.424 . S
C1100 C1099 1.384 . S
C1100 H1118 0.928 . S
C1101 C1098 1.260 . S
C1101 C1099 1.479 . S
C1102 C1097 1.245 . S
C1102 C1098 1.477 . S
C1102 H1119 0.932 . S
C1103 U1086 2.882 . S
C1103 C1097 1.428 . S
C1103 O1106 1.301 . S
C1103 O1107 1.282 . S
O1104 U1086 2.441 . S
O1104 C1090 1.249 . S
O1105 U1086 2.420 . S
O1105 C1090 1.202 . S
O1106 U1086 2.455 . S
O1106 C1103 1.301 . S
O1107 U1086 2.449 . S
O1107 C1103 1.282 . S
H1108 C1081 0.931 . S
H1109 C1083 0.929 . S
H1110 C1084 0.930 . S
H1111 C1085 0.931 . S
H1112 C1092 0.932 . S
H1113 C1093 0.930 . S
H1114 C1094 0.929 . S
H1115 C1096 0.930 . S
H1116 C1098 0.932 . S
H1117 C1099 0.929 . S
H1118 C1100 0.928 . S
H1119 C1102 0.932 . S
C1120 C1121 1.264 . S
C1120 C1125 1.479 . S
C1120 C1130 1.465 . S
C1121 C1120 1.264 . S
C1121 C1123 1.339 . S
C1121 H1148 0.931 . S
C1122 C1123 1.395 . S
C1122 C1124 1.320 . S
C1123 C1121 1.339 . S
C1123 C1122 1.395 . S
C1123 H1149 0.929 . S
C1124 C1122 1.320 . S
C1124 C1125 1.405 . S
C1124 H1150 0.930 . S
C1125 C1120 1.479 . S
C1125 C1124 1.405 . S
C1125 H1151 0.931 . S
U1126 O1127 2.454 . S
U1126 O1128 2.458 . S
U1126 C1129 2.984 . S
U1126 C1130 2.847 . S
U1126 C1143 2.882 . S
U1126 O1144 2.441 . S
U1126 O1145 2.420 . S
U1126 O1146 2.455 . S
U1126 O1147 2.449 . S
O1127 U1126 2.454 . S
O1127 C1129 1.353 . S
O1128 U1126 2.458 . S
O1128 C1129 1.286 . S
C1129 U1126 2.984 . S
C1129 O1127 1.353 . S
C1129 O1128 1.286 . S
C1129 C1131 1.363 . S
C1130 C1120 1.465 . S
C1130 U1126 2.847 . S
C1130 O1144 1.249 . S
C1130 O1145 1.202 . S
C1131 C1129 1.363 . S
C1131 C1133 1.408 . S
C1131 C1136 1.342 . S
C1132 C1133 1.310 . S
C1132 C1135 1.461 . S
C1132 H1152 0.932 . S
C1133 C1131 1.408 . S
C1133 C1132 1.310 . S
C1133 H1153 0.930 . S
C1134 C1135 1.474 . S
C1134 C1136 1.285 . S
C1134 H1154 0.929 . S
C1135 C1132 1.461 . S
C1135 C1134 1.474 . S
C1136 C1131 1.342 . S
C1136 C1134 1.285 . S
C1136 H1155 0.930 . S
C1137 C1140 1.424 . S
C1137 C1142 1.245 . S
C1137 C1143 1.428 . S
C1138 C1141 1.260 . S
C1138 C1142 1.477 . S
C1138 H1156 0.932 . S
C1139 C1140 1.384 . S
C1139 C1141 1.479 . S
C1139 H1157 0.929 . S
C1140 C1137 1.424 . S
C1140 C1139 1.384 . S
C1140 H1158 0.928 . S
C1141 C1138 1.260 . S
C1141 C1139 1.479 . S
C1142 C1137 1.245 . S
C1142 C1138 1.477 . S
C1142 H1159 0.932 . S
C1143 U1126 2.882 . S
C1143 C1137 1.428 . S
C1143 O1146 1.301 . S
C1143 O1147 1.282 . S
O1144 U1126 2.441 . S
O1144 C1130 1.249 . S
O1145 U1126 2.420 . S
O1145 C1130 1.202 . S
O1146 U1126 2.455 . S
O1146 C1143 1.301 . S
O1147 U1126 2.449 . S
O1147 C1143 1.282 . S
H1148 C1121 0.931 . S
H1149 C1123 0.929 . S
H1150 C1124 0.930 . S
H1151 C1125 0.931 . S
H1152 C1132 0.932 . S
H1153 C1133 0.930 . S
H1154 C1134 0.929 . S
H1155 C1136 0.930 . S
H1156 C1138 0.932 . S
H1157 C1139 0.929 . S
H1158 C1140 0.928 . S
H1159 C1142 0.932 . S
C1160 C1161 1.264 . S
C1160 C1165 1.479 . S
C1160 C1170 1.465 . S
C1161 C1160 1.264 . S
C1161 C1163 1.339 . S
C1161 H1188 0.931 . S
C1162 C1163 1.395 . S
C1162 C1164 1.320 . S
C1163 C1161 1.339 . S
C1163 C1162 1.395 . S
C1163 H1189 0.929 . S
C1164 C1162 1.320 . S
C1164 C1165 1.405 . S
C1164 H1190 0.930 . S
C1165 C1160 1.479 . S
C1165 C1164 1.405 . S
C1165 H1191 0.931 . S
U1166 O1167 2.454 . S
U1166 O1168 2.458 . S
U1166 C1169 2.984 . S
U1166 C1170 2.847 . S
U1166 C1183 2.882 . S
U1166 O1184 2.441 . S
U1166 O1185 2.420 . S
U1166 O1186 2.455 . S
U1166 O1187 2.449 . S
O1167 U1166 2.454 . S
O1167 C1169 1.353 . S
O1168 U1166 2.458 . S
O1168 C1169 1.286 . S
C1169 U1166 2.984 . S
C1169 O1167 1.353 . S
C1169 O1168 1.286 . S
C1169 C1171 1.363 . S
C1170 C1160 1.465 . S
C1170 U1166 2.847 . S
C1170 O1184 1.249 . S
C1170 O1185 1.202 . S
C1171 C1169 1.363 . S
C1171 C1173 1.408 . S
C1171 C1176 1.342 . S
C1172 C1173 1.310 . S
C1172 C1175 1.461 . S
C1172 H1192 0.932 . S
C1173 C1171 1.408 . S
C1173 C1172 1.310 . S
C1173 H1193 0.930 . S
C1174 C1175 1.474 . S
C1174 C1176 1.285 . S
C1174 H1194 0.929 . S
C1175 C1172 1.461 . S
C1175 C1174 1.474 . S
C1176 C1171 1.342 . S
C1176 C1174 1.285 . S
C1176 H1195 0.930 . S
C1177 C1180 1.424 . S
C1177 C1182 1.245 . S
C1177 C1183 1.428 . S
C1178 C1181 1.260 . S
C1178 C1182 1.477 . S
C1178 H1196 0.932 . S
C1179 C1180 1.384 . S
C1179 C1181 1.479 . S
C1179 H1197 0.929 . S
C1180 C1177 1.424 . S
C1180 C1179 1.384 . S
C1180 H1198 0.928 . S
C1181 C1178 1.260 . S
C1181 C1179 1.479 . S
C1182 C1177 1.245 . S
C1182 C1178 1.477 . S
C1182 H1199 0.932 . S
C1183 U1166 2.882 . S
C1183 C1177 1.428 . S
C1183 O1186 1.301 . S
C1183 O1187 1.282 . S
O1184 U1166 2.441 . S
O1184 C1170 1.249 . S
O1185 U1166 2.420 . S
O1185 C1170 1.202 . S
O1186 U1166 2.455 . S
O1186 C1183 1.301 . S
O1187 U1166 2.449 . S
O1187 C1183 1.282 . S
H1188 C1161 0.931 . S
H1189 C1163 0.929 . S
H1190 C1164 0.930 . S
H1191 C1165 0.931 . S
H1192 C1172 0.932 . S
H1193 C1173 0.930 . S
H1194 C1174 0.929 . S
H1195 C1176 0.930 . S
H1196 C1178 0.932 . S
H1197 C1179 0.929 . S
H1198 C1180 0.928 . S
H1199 C1182 0.932 . S
C1200 C1201 1.264 . S
C1200 C1205 1.479 . S
C1200 C1210 1.465 . S
C1201 C1200 1.264 . S
C1201 C1203 1.339 . S
C1201 H1228 0.931 . S
C1202 C1203 1.395 . S
C1202 C1204 1.320 . S
C1203 C1201 1.339 . S
C1203 C1202 1.395 . S
C1203 H1229 0.929 . S
C1204 C1202 1.320 . S
C1204 C1205 1.405 . S
C1204 H1230 0.930 . S
C1205 C1200 1.479 . S
C1205 C1204 1.405 . S
C1205 H1231 0.931 . S
U1206 O1207 2.454 . S
U1206 O1208 2.458 . S
U1206 C1209 2.984 . S
U1206 C1210 2.847 . S
U1206 C1223 2.882 . S
U1206 O1224 2.441 . S
U1206 O1225 2.420 . S
U1206 O1226 2.455 . S
U1206 O1227 2.449 . S
O1207 U1206 2.454 . S
O1207 C1209 1.353 . S
O1208 U1206 2.458 . S
O1208 C1209 1.286 . S
C1209 U1206 2.984 . S
C1209 O1207 1.353 . S
C1209 O1208 1.286 . S
C1209 C1211 1.363 . S
C1210 C1200 1.465 . S
C1210 U1206 2.847 . S
C1210 O1224 1.249 . S
C1210 O1225 1.202 . S
C1211 C1209 1.363 . S
C1211 C1213 1.408 . S
C1211 C1216 1.342 . S
C1212 C1213 1.310 . S
C1212 C1215 1.461 . S
C1212 H1232 0.932 . S
C1213 C1211 1.408 . S
C1213 C1212 1.310 . S
C1213 H1233 0.930 . S
C1214 C1215 1.474 . S
C1214 C1216 1.285 . S
C1214 H1234 0.929 . S
C1215 C1212 1.461 . S
C1215 C1214 1.474 . S
C1216 C1211 1.342 . S
C1216 C1214 1.285 . S
C1216 H1235 0.930 . S
C1217 C1220 1.424 . S
C1217 C1222 1.245 . S
C1217 C1223 1.428 . S
C1218 C1221 1.260 . S
C1218 C1222 1.477 . S
C1218 H1236 0.932 . S
C1219 C1220 1.384 . S
C1219 C1221 1.479 . S
C1219 H1237 0.929 . S
C1220 C1217 1.424 . S
C1220 C1219 1.384 . S
C1220 H1238 0.928 . S
C1221 C1218 1.260 . S
C1221 C1219 1.479 . S
C1222 C1217 1.245 . S
C1222 C1218 1.477 . S
C1222 H1239 0.932 . S
C1223 U1206 2.882 . S
C1223 C1217 1.428 . S
C1223 O1226 1.301 . S
C1223 O1227 1.282 . S
O1224 U1206 2.441 . S
O1224 C1210 1.249 . S
O1225 U1206 2.420 . S
O1225 C1210 1.202 . S
O1226 U1206 2.455 . S
O1226 C1223 1.301 . S
O1227 U1206 2.449 . S
O1227 C1223 1.282 . S
H1228 C1201 0.931 . S
H1229 C1203 0.929 . S
H1230 C1204 0.930 . S
H1231 C1205 0.931 . S
H1232 C1212 0.932 . S
H1233 C1213 0.930 . S
H1234 C1214 0.929 . S
H1235 C1216 0.930 . S
H1236 C1218 0.932 . S
H1237 C1219 0.929 . S
H1238 C1220 0.928 . S
H1239 C1222 0.932 . S
C1240 C1241 1.264 . S
C1240 C1245 1.479 . S
C1240 C1250 1.465 . S
C1241 C1240 1.264 . S
C1241 C1243 1.339 . S
C1241 H1268 0.931 . S
C1242 C1243 1.395 . S
C1242 C1244 1.320 . S
C1243 C1241 1.339 . S
C1243 C1242 1.395 . S
C1243 H1269 0.929 . S
C1244 C1242 1.320 . S
C1244 C1245 1.405 . S
C1244 H1270 0.930 . S
C1245 C1240 1.479 . S
C1245 C1244 1.405 . S
C1245 H1271 0.931 . S
U1246 O1247 2.454 . S
U1246 O1248 2.458 . S
U1246 C1249 2.984 . S
U1246 C1250 2.847 . S
U1246 C1263 2.882 . S
U1246 O1264 2.441 . S
U1246 O1265 2.420 . S
U1246 O1266 2.455 . S
U1246 O1267 2.449 . S
O1247 U1246 2.454 . S
O1247 C1249 1.353 . S
O1248 U1246 2.458 . S
O1248 C1249 1.286 . S
C1249 U1246 2.984 . S
C1249 O1247 1.353 . S
C1249 O1248 1.286 . S
C1249 C1251 1.363 . S
C1250 C1240 1.465 . S
C1250 U1246 2.847 . S
C1250 O1264 1.249 . S
C1250 O1265 1.202 . S
C1251 C1249 1.363 . S
C1251 C1253 1.408 . S
C1251 C1256 1.342 . S
C1252 C1253 1.310 . S
C1252 C1255 1.461 . S
C1252 H1272 0.932 . S
C1253 C1251 1.408 . S
C1253 C1252 1.310 . S
C1253 H1273 0.930 . S
C1254 C1255 1.474 . S
C1254 C1256 1.285 . S
C1254 H1274 0.929 . S
C1255 C1252 1.461 . S
C1255 C1254 1.474 . S
C1256 C1251 1.342 . S
C1256 C1254 1.285 . S
C1256 H1275 0.930 . S
C1257 C1260 1.424 . S
C1257 C1262 1.245 . S
C1257 C1263 1.428 . S
C1258 C1261 1.260 . S
C1258 C1262 1.477 . S
C1258 H1276 0.932 . S
C1259 C1260 1.384 . S
C1259 C1261 1.479 . S
C1259 H1277 0.929 . S
C1260 C1257 1.424 . S
C1260 C1259 1.384 . S
C1260 H1278 0.928 . S
C1261 C1258 1.260 . S
C1261 C1259 1.479 . S
C1262 C1257 1.245 . S
C1262 C1258 1.477 . S
C1262 H1279 0.932 . S
C1263 U1246 2.882 . S
C1263 C1257 1.428 . S
C1263 O1266 1.301 . S
C1263 O1267 1.282 . S
O1264 U1246 2.441 . S
O1264 C1250 1.249 . S
O1265 U1246 2.420 . S
O1265 C1250 1.202 . S
O1266 U1246 2.455 . S
O1266 C1263 1.301 . S
O1267 U1246 2.449 . S
O1267 C1263 1.282 . S
H1268 C1241 0.931 . S
H1269 C1243 0.929 . S
H1270 C1244 0.930 . S
H1271 C1245 0.931 . S
H1272 C1252 0.932 . S
H1273 C1253 0.930 . S
H1274 C1254 0.929 . S
H1275 C1256 0.930 . S
H1276 C1258 0.932 . S
H1277 C1259 0.929 . S
H1278 C1260 0.928 . S
H1279 C1262 0.932 . S
C1280 C1281 1.264 . S
C1280 C1285 1.479 . S
C1280 C1290 1.465 . S
C1281 C1280 1.264 . S
C1281 C1283 1.339 . S
C1281 H1308 0.931 . S
C1282 C1283 1.395 . S
C1282 C1284 1.320 . S
C1283 C1281 1.339 . S
C1283 C1282 1.395 . S
C1283 H1309 0.929 . S
C1284 C1282 1.320 . S
C1284 C1285 1.405 . S
C1284 H1310 0.930 . S
C1285 C1280 1.479 . S
C1285 C1284 1.405 . S
C1285 H1311 0.931 . S
U1286 O1287 2.454 . S
U1286 O1288 2.458 . S
U1286 C1289 2.984 . S
U1286 C1290 2.847 . S
U1286 C1303 2.882 . S
U1286 O1304 2.441 . S
U1286 O1305 2.420 . S
U1286 O1306 2.455 . S
U1286 O1307 2.449 . S
O1287 U1286 2.454 . S
O1287 C1289 1.353 . S
O1288 U1286 2.458 . S
O1288 C1289 1.286 . S
C1289 U1286 2.984 . S
C1289 O1287 1.353 . S
C1289 O1288 1.286 . S
C1289 C1291 1.363 . S
C1290 C1280 1.465 . S
C1290 U1286 2.847 . S
C1290 O1304 1.249 . S
C1290 O1305 1.202 . S
C1291 C1289 1.363 . S
C1291 C1293 1.408 . S
C1291 C1296 1.342 . S
C1292 C1293 1.310 . S
C1292 C1295 1.461 . S
C1292 H1312 0.932 . S
C1293 C1291 1.408 . S
C1293 C1292 1.310 . S
C1293 H1313 0.930 . S
C1294 C1295 1.474 . S
C1294 C1296 1.285 . S
C1294 H1314 0.929 . S
C1295 C1292 1.461 . S
C1295 C1294 1.474 . S
C1296 C1291 1.342 . S
C1296 C1294 1.285 . S
C1296 H1315 0.930 . S
C1297 C1300 1.424 . S
C1297 C1302 1.245 . S
C1297 C1303 1.428 . S
C1298 C1301 1.260 . S
C1298 C1302 1.477 . S
C1298 H1316 0.932 . S
C1299 C1300 1.384 . S
C1299 C1301 1.479 . S
C1299 H1317 0.929 . S
C1300 C1297 1.424 . S
C1300 C1299 1.384 . S
C1300 H1318 0.928 . S
C1301 C1298 1.260 . S
C1301 C1299 1.479 . S
C1302 C1297 1.245 . S
C1302 C1298 1.477 . S
C1302 H1319 0.932 . S
C1303 U1286 2.882 . S
C1303 C1297 1.428 . S
C1303 O1306 1.301 . S
C1303 O1307 1.282 . S
O1304 U1286 2.441 . S
O1304 C1290 1.249 . S
O1305 U1286 2.420 . S
O1305 C1290 1.202 . S
O1306 U1286 2.455 . S
O1306 C1303 1.301 . S
O1307 U1286 2.449 . S
O1307 C1303 1.282 . S
H1308 C1281 0.931 . S
H1309 C1283 0.929 . S
H1310 C1284 0.930 . S
H1311 C1285 0.931 . S
H1312 C1292 0.932 . S
H1313 C1293 0.930 . S
H1314 C1294 0.929 . S
H1315 C1296 0.930 . S
H1316 C1298 0.932 . S
H1317 C1299 0.929 . S
H1318 C1300 0.928 . S
H1319 C1302 0.932 . S
C1320 C1321 1.264 . S
C1320 C1325 1.479 . S
C1320 C1330 1.465 . S
C1321 C1320 1.264 . S
C1321 C1323 1.339 . S
C1321 H1348 0.931 . S
C1322 C1323 1.395 . S
C1322 C1324 1.320 . S
C1323 C1321 1.339 . S
C1323 C1322 1.395 . S
C1323 H1349 0.929 . S
C1324 C1322 1.320 . S
C1324 C1325 1.405 . S
C1324 H1350 0.930 . S
C1325 C1320 1.479 . S
C1325 C1324 1.405 . S
C1325 H1351 0.931 . S
U1326 O1327 2.454 . S
U1326 O1328 2.458 . S
U1326 C1329 2.984 . S
U1326 C1330 2.847 . S
U1326 C1343 2.882 . S
U1326 O1344 2.441 . S
U1326 O1345 2.420 . S
U1326 O1346 2.455 . S
U1326 O1347 2.449 . S
O1327 U1326 2.454 . S
O1327 C1329 1.353 . S
O1328 U1326 2.458 . S
O1328 C1329 1.286 . S
C1329 U1326 2.984 . S
C1329 O1327 1.353 . S
C1329 O1328 1.286 . S
C1329 C1331 1.363 . S
C1330 C1320 1.465 . S
C1330 U1326 2.847 . S
C1330 O1344 1.249 . S
C1330 O1345 1.202 . S
C1331 C1329 1.363 . S
C1331 C1333 1.408 . S
C1331 C1336 1.342 . S
C1332 C1333 1.310 . S
C1332 C1335 1.461 . S
C1332 H1352 0.932 . S
C1333 C1331 1.408 . S
C1333 C1332 1.310 . S
C1333 H1353 0.930 . S
C1334 C1335 1.474 . S
C1334 C1336 1.285 . S
C1334 H1354 0.929 . S
C1335 C1332 1.461 . S
C1335 C1334 1.474 . S
C1336 C1331 1.342 . S
C1336 C1334 1.285 . S
C1336 H1355 0.930 . S
C1337 C1340 1.424 . S
C1337 C1342 1.245 . S
C1337 C1343 1.428 . S
C1338 C1341 1.260 . S
C1338 C1342 1.477 . S
C1338 H1356 0.932 . S
C1339 C1340 1.384 . S
C1339 C1341 1.479 . S
C1339 H1357 0.929 . S
C1340 C1337 1.424 . S
C1340 C1339 1.384 . S
C1340 H1358 0.928 . S
C1341 C1338 1.260 . S
C1341 C1339 1.479 . S
C1342 C1337 1.245 . S
C1342 C1338 1.477 . S
C1342 H1359 0.932 . S
C1343 U1326 2.882 . S
C1343 C1337 1.428 . S
C1343 O1346 1.301 . S
C1343 O1347 1.282 . S
O1344 U1326 2.441 . S
O1344 C1330 1.249 . S
O1345 U1326 2.420 . S
O1345 C1330 1.202 . S
O1346 U1326 2.455 . S
O1346 C1343 1.301 . S
O1347 U1326 2.449 . S
O1347 C1343 1.282 . S
H1348 C1321 0.931 . S
H1349 C1323 0.929 . S
H1350 C1324 0.930 . S
H1351 C1325 0.931 . S
H1352 C1332 0.932 . S
H1353 C1333 0.930 . S
H1354 C1334 0.929 . S
H1355 C1336 0.930 . S
H1356 C1338 0.932 . S
H1357 C1339 0.929 . S
H1358 C1340 0.928 . S
H1359 C1342 0.932 . S
C1360 C1361 1.264 . S
C1360 C1365 1.479 . S
C1360 C1370 1.465 . S
C1361 C1360 1.264 . S
C1361 C1363 1.339 . S
C1361 H1388 0.931 . S
C1362 C1363 1.395 . S
C1362 C1364 1.320 . S
C1363 C1361 1.339 . S
C1363 C1362 1.395 . S
C1363 H1389 0.929 . S
C1364 C1362 1.320 . S
C1364 C1365 1.405 . S
C1364 H1390 0.930 . S
C1365 C1360 1.479 . S
C1365 C1364 1.405 . S
C1365 H1391 0.931 . S
U1366 O1367 2.454 . S
U1366 O1368 2.458 . S
U1366 C1369 2.984 . S
U1366 C1370 2.847 . S
U1366 C1383 2.882 . S
U1366 O1384 2.441 . S
U1366 O1385 2.420 . S
U1366 O1386 2.455 . S
U1366 O1387 2.449 . S
O1367 U1366 2.454 . S
O1367 C1369 1.353 . S
O1368 U1366 2.458 . S
O1368 C1369 1.286 . S
C1369 U1366 2.984 . S
C1369 O1367 1.353 . S
C1369 O1368 1.286 . S
C1369 C1371 1.363 . S
C1370 C1360 1.465 . S
C1370 U1366 2.847 . S
C1370 O1384 1.249 . S
C1370 O1385 1.202 . S
C1371 C1369 1.363 . S
C1371 C1373 1.408 . S
C1371 C1376 1.342 . S
C1372 C1373 1.310 . S
C1372 C1375 1.461 . S
C1372 H1392 0.932 . S
C1373 C1371 1.408 . S
C1373 C1372 1.310 . S
C1373 H1393 0.930 . S
C1374 C1375 1.474 . S
C1374 C1376 1.285 . S
C1374 H1394 0.929 . S
C1375 C1372 1.461 . S
C1375 C1374 1.474 . S
C1376 C1371 1.342 . S
C1376 C1374 1.285 . S
C1376 H1395 0.930 . S
C1377 C1380 1.424 . S
C1377 C1382 1.245 . S
C1377 C1383 1.428 . S
C1378 C1381 1.260 . S
C1378 C1382 1.477 . S
C1378 H1396 0.932 . S
C1379 C1380 1.384 . S
C1379 C1381 1.479 . S
C1379 H1397 0.929 . S
C1380 C1377 1.424 . S
C1380 C1379 1.384 . S
C1380 H1398 0.928 . S
C1381 C1378 1.260 . S
C1381 C1379 1.479 . S
C1382 C1377 1.245 . S
C1382 C1378 1.477 . S
C1382 H1399 0.932 . S
C1383 U1366 2.882 . S
C1383 C1377 1.428 . S
C1383 O1386 1.301 . S
C1383 O1387 1.282 . S
O1384 U1366 2.441 . S
O1384 C1370 1.249 . S
O1385 U1366 2.420 . S
O1385 C1370 1.202 . S
O1386 U1366 2.455 . S
O1386 C1383 1.301 . S
O1387 U1366 2.449 . S
O1387 C1383 1.282 . S
H1388 C1361 0.931 . S
H1389 C1363 0.929 . S
H1390 C1364 0.930 . S
H1391 C1365 0.931 . S
H1392 C1372 0.932 . S
H1393 C1373 0.930 . S
H1394 C1374 0.929 . S
H1395 C1376 0.930 . S
H1396 C1378 0.932 . S
H1397 C1379 0.929 . S
H1398 C1380 0.928 . S
H1399 C1382 0.932 . S
C1400 C1401 1.264 . S
C1400 C1405 1.479 . S
C1400 C1410 1.465 . S
C1401 C1400 1.264 . S
C1401 C1403 1.339 . S
C1401 H1428 0.931 . S
C1402 C1403 1.395 . S
C1402 C1404 1.320 . S
C1403 C1401 1.339 . S
C1403 C1402 1.395 . S
C1403 H1429 0.929 . S
C1404 C1402 1.320 . S
C1404 C1405 1.405 . S
C1404 H1430 0.930 . S
C1405 C1400 1.479 . S
C1405 C1404 1.405 . S
C1405 H1431 0.931 . S
U1406 O1407 2.454 . S
U1406 O1408 2.458 . S
U1406 C1409 2.984 . S
U1406 C1410 2.847 . S
U1406 C1423 2.882 . S
U1406 O1424 2.441 . S
U1406 O1425 2.420 . S
U1406 O1426 2.455 . S
U1406 O1427 2.449 . S
O1407 U1406 2.454 . S
O1407 C1409 1.353 . S
O1408 U1406 2.458 . S
O1408 C1409 1.286 . S
C1409 U1406 2.984 . S
C1409 O1407 1.353 . S
C1409 O1408 1.286 . S
C1409 C1411 1.363 . S
C1410 C1400 1.465 . S
C1410 U1406 2.847 . S
C1410 O1424 1.249 . S
C1410 O1425 1.202 . S
C1411 C1409 1.363 . S
C1411 C1413 1.408 . S
C1411 C1416 1.342 . S
C1412 C1413 1.310 . S
C1412 C1415 1.461 . S
C1412 H1432 0.932 . S
C1413 C1411 1.408 . S
C1413 C1412 1.310 . S
C1413 H1433 0.930 . S
C1414 C1415 1.474 . S
C1414 C1416 1.285 . S
C1414 H1434 0.929 . S
C1415 C1412 1.461 . S
C1415 C1414 1.474 . S
C1416 C1411 1.342 . S
C1416 C1414 1.285 . S
C1416 H1435 0.930 . S
C1417 C1420 1.424 . S
C1417 C1422 1.245 . S
C1417 C1423 1.428 . S
C1418 C1421 1.260 . S
C1418 C1422 1.477 . S
C1418 H1436 0.932 . S
C1419 C1420 1.384 . S
C1419 C1421 1.479 . S
C1419 H1437 0.929 . S
C1420 C1417 1.424 . S
C1420 C1419 1.384 . S
C1420 H1438 0.928 . S
C1421 C1418 1.260 . S
C1421 C1419 1.479 . S
C1422 C1417 1.245 . S
C1422 C1418 1.477 . S
C1422 H1439 0.932 . S
C1423 U1406 2.882 . S
C1423 C1417 1.428 . S
C1423 O1426 1.301 . S
C1423 O1427 1.282 . S
O1424 U1406 2.441 . S
O1424 C1410 1.249 . S
O1425 U1406 2.420 . S
O1425 C1410 1.202 . S
O1426 U1406 2.455 . S
O1426 C1423 1.301 . S
O1427 U1406 2.449 . S
O1427 C1423 1.282 . S
H1428 C1401 0.931 . S
H1429 C1403 0.929 . S
H1430 C1404 0.930 . S
H1431 C1405 0.931 . S
H1432 C1412 0.932 . S
H1433 C1413 0.930 . S
H1434 C1414 0.929 . S
H1435 C1416 0.930 . S
H1436 C1418 0.932 . S
H1437 C1419 0.929 . S
H1438 C1420 0.928 . S
H1439 C1422 0.932 . S
C1440 C1441 1.264 . S
C1440 C1445 1.479 . S
C1440 C1450 1.465 . S
C1441 C1440 1.264 . S
C1441 C1443 1.339 . S
C1441 H1468 0.931 . S
C1442 C1443 1.395 . S
C1442 C1444 1.320 . S
C1443 C1441 1.339 . S
C1443 C1442 1.395 . S
C1443 H1469 0.929 . S
C1444 C1442 1.320 . S
C1444 C1445 1.405 . S
C1444 H1470 0.930 . S
C1445 C1440 1.479 . S
C1445 C1444 1.405 . S
C1445 H1471 0.931 . S
U1446 O1447 2.454 . S
U1446 O1448 2.458 . S
U1446 C1449 2.984 . S
U1446 C1450 2.847 . S
U1446 C1463 2.882 . S
U1446 O1464 2.441 . S
U1446 O1465 2.420 . S
U1446 O1466 2.455 . S
U1446 O1467 2.449 . S
O1447 U1446 2.454 . S
O1447 C1449 1.353 . S
O1448 U1446 2.458 . S
O1448 C1449 1.286 . S
C1449 U1446 2.984 . S
C1449 O1447 1.353 . S
C1449 O1448 1.286 . S
C1449 C1451 1.363 . S
C1450 C1440 1.465 . S
C1450 U1446 2.847 . S
C1450 O1464 1.249 . S
C1450 O1465 1.202 . S
C1451 C1449 1.363 . S
C1451 C1453 1.408 . S
C1451 C1456 1.342 . S
C1452 C1453 1.310 . S
C1452 C1455 1.461 . S
C1452 H1472 0.932 . S
C1453 C1451 1.408 . S
C1453 C1452 1.310 . S
C1453 H1473 0.930 . S
C1454 C1455 1.474 . S
C1454 C1456 1.285 . S
C1454 H1474 0.929 . S
C1455 C1452 1.461 . S
C1455 C1454 1.474 . S
C1456 C1451 1.342 . S
C1456 C1454 1.285 . S
C1456 H1475 0.930 . S
C1457 C1460 1.424 . S
C1457 C1462 1.245 . S
C1457 C1463 1.428 . S
C1458 C1461 1.260 . S
C1458 C1462 1.477 . S
C1458 H1476 0.932 . S
C1459 C1460 1.384 . S
C1459 C1461 1.479 . S
C1459 H1477 0.929 . S
C1460 C1457 1.424 . S
C1460 C1459 1.384 . S
C1460 H1478 0.928 . S
C1461 C1458 1.260 . S
C1461 C1459 1.479 . S
C1462 C1457 1.245 . S
C1462 C1458 1.477 . S
C1462 H1479 0.932 . S
C1463 U1446 2.882 . S
C1463 C1457 1.428 . S
C1463 O1466 1.301 . S
C1463 O1467 1.282 . S
O1464 U1446 2.441 . S
O1464 C1450 1.249 . S
O1465 U1446 2.420 . S
O1465 C1450 1.202 . S
O1466 U1446 2.455 . S
O1466 C1463 1.301 . S
O1467 U1446 2.449 . S
O1467 C1463 1.282 . S
H1468 C1441 0.931 . S
H1469 C1443 0.929 . S
H1470 C1444 0.930 . S
H1471 C1445 0.931 . S
H1472 C1452 0.932 . S
H1473 C1453 0.930 . S
H1474 C1454 0.929 . S
H1475 C1456 0.930 . S
H1476 C1458 0.932 . S
H1477 C1459 0.929 . S
H1478 C1460 0.928 . S
H1479 C1462 0.932 . S
C1480 C1481 1.264 . S
C1480 C1485 1.479 . S
C1480 C1490 1.465 . S
C1481 C1480 1.264 . S
C1481 C1483 1.339 . S
C1481 H1508 0.931 . S
C1482 C1483 1.395 . S
C1482 C1484 1.320 . S
C1483 C1481 1.339 . S
C1483 C1482 1.395 . S
C1483 H1509 0.929 . S
C1484 C1482 1.320 . S
C1484 C1485 1.405 . S
C1484 H1510 0.930 . S
C1485 C1480 1.479 . S
C1485 C1484 1.405 . S
C1485 H1511 0.931 . S
U1486 O1487 2.454 . S
U1486 O1488 2.458 . S
U1486 C1489 2.984 . S
U1486 C1490 2.847 . S
U1486 C1503 2.882 . S
U1486 O1504 2.441 . S
U1486 O1505 2.420 . S
U1486 O1506 2.455 . S
U1486 O1507 2.449 . S
O1487 U1486 2.454 . S
O1487 C1489 1.353 . S
O1488 U1486 2.458 . S
O1488 C1489 1.286 . S
C1489 U1486 2.984 . S
C1489 O1487 1.353 . S
C1489 O1488 1.286 . S
C1489 C1491 1.363 . S
C1490 C1480 1.465 . S
C1490 U1486 2.847 . S
C1490 O1504 1.249 . S
C1490 O1505 1.202 . S
C1491 C1489 1.363 . S
C1491 C1493 1.408 . S
C1491 C1496 1.342 . S
C1492 C1493 1.310 . S
C1492 C1495 1.461 . S
C1492 H1512 0.932 . S
C1493 C1491 1.408 . S
C1493 C1492 1.310 . S
C1493 H1513 0.930 . S
C1494 C1495 1.474 . S
C1494 C1496 1.285 . S
C1494 H1514 0.929 . S
C1495 C1492 1.461 . S
C1495 C1494 1.474 . S
C1496 C1491 1.342 . S
C1496 C1494 1.285 . S
C1496 H1515 0.930 . S
C1497 C1500 1.424 . S
C1497 C1502 1.245 . S
C1497 C1503 1.428 . S
C1498 C1501 1.260 . S
C1498 C1502 1.477 . S
C1498 H1516 0.932 . S
C1499 C1500 1.384 . S
C1499 C1501 1.479 . S
C1499 H1517 0.929 . S
C1500 C1497 1.424 . S
C1500 C1499 1.384 . S
C1500 H1518 0.928 . S
C1501 C1498 1.260 . S
C1501 C1499 1.479 . S
C1502 C1497 1.245 . S
C1502 C1498 1.477 . S
C1502 H1519 0.932 . S
C1503 U1486 2.882 . S
C1503 C1497 1.428 . S
C1503 O1506 1.301 . S
C1503 O1507 1.282 . S
O1504 U1486 2.441 . S
O1504 C1490 1.249 . S
O1505 U1486 2.420 . S
O1505 C1490 1.202 . S
O1506 U1486 2.455 . S
O1506 C1503 1.301 . S
O1507 U1486 2.449 . S
O1507 C1503 1.282 . S
H1508 C1481 0.931 . S
H1509 C1483 0.929 . S
H1510 C1484 0.930 . S
H1511 C1485 0.931 . S
H1512 C1492 0.932 . S
H1513 C1493 0.930 . S
H1514 C1494 0.929 . S
H1515 C1496 0.930 . S
H1516 C1498 0.932 . S
H1517 C1499 0.929 . S
H1518 C1500 0.928 . S
H1519 C1502 0.932 . S
C1520 C1521 1.264 . S
C1520 C1525 1.479 . S
C1520 C1530 1.465 . S
C1521 C1520 1.264 . S
C1521 C1523 1.339 . S
C1521 H1548 0.931 . S
C1522 C1523 1.395 . S
C1522 C1524 1.320 . S
C1523 C1521 1.339 . S
C1523 C1522 1.395 . S
C1523 H1549 0.929 . S
C1524 C1522 1.320 . S
C1524 C1525 1.405 . S
C1524 H1550 0.930 . S
C1525 C1520 1.479 . S
C1525 C1524 1.405 . S
C1525 H1551 0.931 . S
U1526 O1527 2.454 . S
U1526 O1528 2.458 . S
U1526 C1529 2.984 . S
U1526 C1530 2.847 . S
U1526 C1543 2.882 . S
U1526 O1544 2.441 . S
U1526 O1545 2.420 . S
U1526 O1546 2.455 . S
U1526 O1547 2.449 . S
O1527 U1526 2.454 . S
O1527 C1529 1.353 . S
O1528 U1526 2.458 . S
O1528 C1529 1.286 . S
C1529 U1526 2.984 . S
C1529 O1527 1.353 . S
C1529 O1528 1.286 . S
C1529 C1531 1.363 . S
C1530 C1520 1.465 . S
C1530 U1526 2.847 . S
C1530 O1544 1.249 . S
C1530 O1545 1.202 . S
C1531 C1529 1.363 . S
C1531 C1533 1.408 . S
C1531 C1536 1.342 . S
C1532 C1533 1.310 . S
C1532 C1535 1.461 . S
C1532 H1552 0.932 . S
C1533 C1531 1.408 . S
C1533 C1532 1.310 . S
C1533 H1553 0.930 . S
C1534 C1535 1.474 . S
C1534 C1536 1.285 . S
C1534 H1554 0.929 . S
C1535 C1532 1.461 . S
C1535 C1534 1.474 . S
C1536 C1531 1.342 . S
C1536 C1534 1.285 . S
C1536 H1555 0.930 . S
C1537 C1540 1.424 . S
C1537 C1542 1.245 . S
C1537 C1543 1.428 . S
C1538 C1541 1.260 . S
C1538 C1542 1.477 . S
C1538 H1556 0.932 . S
C1539 C1540 1.384 . S
C1539 C1541 1.479 . S
C1539 H1557 0.929 . S
C1540 C1537 1.424 . S
C1540 C1539 1.384 . S
C1540 H1558 0.928 . S
C1541 C1538 1.260 . S
C1541 C1539 1.479 . S
C1542 C1537 1.245 . S
C1542 C1538 1.477 . S
C1542 H1559 0.932 . S
C1543 U1526 2.882 . S
C1543 C1537 1.428 . S
C1543 O1546 1.301 . S
C1543 O1547 1.282 . S
O1544 U1526 2.441 . S
O1544 C1530 1.249 . S
O1545 U1526 2.420 . S
O1545 C1530 1.202 . S
O1546 U1526 2.455 . S
O1546 C1543 1.301 . S
O1547 U1526 2.449 . S
O1547 C1543 1.282 . S
H1548 C1521 0.931 . S
H1549 C1523 0.929 . S
H1550 C1524 0.930 . S
H1551 C1525 0.931 . S
H1552 C1532 0.932 . S
H1553 C1533 0.930 . S
H1554 C1534 0.929 . S
H1555 C1536 0.930 . S
H1556 C1538 0.932 . S
H1557 C1539 0.929 . S
H1558 C1540 0.928 . S
H1559 C1542 0.932 . S
C1560 C1561 1.264 . S
C1560 C1565 1.479 . S
C1560 C1570 1.465 . S
C1561 C1560 1.264 . S
C1561 C1563 1.339 . S
C1561 H1588 0.931 . S
C1562 C1563 1.395 . S
C1562 C1564 1.320 . S
C1563 C1561 1.339 . S
C1563 C1562 1.395 . S
C1563 H1589 0.929 . S
C1564 C1562 1.320 . S
C1564 C1565 1.405 . S
C1564 H1590 0.930 . S
C1565 C1560 1.479 . S
C1565 C1564 1.405 . S
C1565 H1591 0.931 . S
U1566 O1567 2.454 . S
U1566 O1568 2.458 . S
U1566 C1569 2.984 . S
U1566 C1570 2.847 . S
U1566 C1583 2.882 . S
U1566 O1584 2.441 . S
U1566 O1585 2.420 . S
U1566 O1586 2.455 . S
U1566 O1587 2.449 . S
O1567 U1566 2.454 . S
O1567 C1569 1.353 . S
O1568 U1566 2.458 . S
O1568 C1569 1.286 . S
C1569 U1566 2.984 . S
C1569 O1567 1.353 . S
C1569 O1568 1.286 . S
C1569 C1571 1.363 . S
C1570 C1560 1.465 . S
C1570 U1566 2.847 . S
C1570 O1584 1.249 . S
C1570 O1585 1.202 . S
C1571 C1569 1.363 . S
C1571 C1573 1.408 . S
C1571 C1576 1.342 . S
C1572 C1573 1.310 . S
C1572 C1575 1.461 . S
C1572 H1592 0.932 . S
C1573 C1571 1.408 . S
C1573 C1572 1.310 . S
C1573 H1593 0.930 . S
C1574 C1575 1.474 . S
C1574 C1576 1.285 . S
C1574 H1594 0.929 . S
C1575 C1572 1.461 . S
C1575 C1574 1.474 . S
C1576 C1571 1.342 . S
C1576 C1574 1.285 . S
C1576 H1595 0.930 . S
C1577 C1580 1.424 . S
C1577 C1582 1.245 . S
C1577 C1583 1.428 . S
C1578 C1581 1.260 . S
C1578 C1582 1.477 . S
C1578 H1596 0.932 . S
C1579 C1580 1.384 . S
C1579 C1581 1.479 . S
C1579 H1597 0.929 . S
C1580 C1577 1.424 . S
C1580 C1579 1.384 . S
C1580 H1598 0.928 . S
C1581 C1578 1.260 . S
C1581 C1579 1.479 . S
C1582 C1577 1.245 . S
C1582 C1578 1.477 . S
C1582 H1599 0.932 . S
C1583 U1566 2.882 . S
C1583 C1577 1.428 . S
C1583 O1586 1.301 . S
C1583 O1587 1.282 . S
O1584 U1566 2.441 . S
O1584 C1570 1.249 . S
O1585 U1566 2.420 . S
O1585 C1570 1.202 . S
O1586 U1566 2.455 . S
O1586 C1583 1.301 . S
O1587 U1566 2.449 . S
O1587 C1583 1.282 . S
H1588 C1561 0.931 . S
H1589 C1563 0.929 . S
H1590 C1564 0.930 . S
H1591 C1565 0.931 . S
H1592 C1572 0.932 . S
H1593 C1573 0.930 . S
H1594 C1574 0.929 . S
H1595 C1576 0.930 . S
H1596 C1578 0.932 . S
H1597 C1579 0.929 . S
H1598 C1580 0.928 . S
H1599 C1582 0.932 . S
C1600 C1601 1.264 . S
C1600 C1605 1.479 . S
C1600 C1610 1.465 . S
C1601 C1600 1.264 . S
C1601 C1603 1.339 . S
C1601 H1628 0.931 . S
C1602 C1603 1.395 . S
C1602 C1604 1.320 . S
C1603 C1601 1.339 . S
C1603 C1602 1.395 . S
C1603 H1629 0.929 . S
C1604 C1602 1.320 . S
C1604 C1605 1.405 . S
C1604 H1630 0.930 . S
C1605 C1600 1.479 . S
C1605 C1604 1.405 . S
C1605 H1631 0.931 . S
U1606 O1607 2.454 . S
U1606 O1608 2.458 . S
U1606 C1609 2.984 . S
U1606 C1610 2.847 . S
U1606 C1623 2.882 . S
U1606 O1624 2.441 . S
U1606 O1625 2.420 . S
U1606 O1626 2.455 . S
U1606 O1627 2.449 . S
O1607 U1606 2.454 . S
O1607 C1609 1.353 . S
O1608 U1606 2.458 . S
O1608 C1609 1.286 . S
C1609 U1606 2.984 . S
C1609 O1607 1.353 . S
C1609 O1608 1.286 . S
C1609 C1611 1.363 . S
C1610 C1600 1.465 . S
C1610 U1606 2.847 . S
C1610 O1624 1.249 . S
C1610 O1625 1.202 . S
C1611 C1609 1.363 . S
C1611 C1613 1.408 . S
C1611 C1616 1.342 . S
C1612 C1613 1.310 1_554 S
C1612 C1615 1.461 . S
C1612 H1632 0.932 . S
C1613 C1611 1.408 . S
C1613 C1612 1.310 1_556 S
C1613 H1633 0.930 . S
C1614 C1615 1.474 . S
C1614 C1616 1.285 1_554 S
C1614 H1634 0.929 . S
C1615 C1612 1.461 . S
C1615 C1614 1.474 . S
C1616 C1611 1.342 . S
C1616 C1614 1.285 1_556 S
C1616 H1635 0.930 . S
C1617 C1620 1.424 . S
C1617 C1622 1.245 . S
C1617 C1623 1.428 . S
C1618 C1621 1.260 . S
C1618 C1622 1.477 . S
C1618 H1636 0.932 . S
C1619 C1620 1.384 . S
C1619 C1621 1.479 . S
C1619 H1637 0.929 . S
C1620 C1617 1.424 . S
C1620 C1619 1.384 . S
C1620 H1638 0.928 . S
C1621 C1618 1.260 . S
C1621 C1619 1.479 . S
C1622 C1617 1.245 . S
C1622 C1618 1.477 . S
C1622 H1639 0.932 . S
C1623 U1606 2.882 . S
C1623 C1617 1.428 . S
C1623 O1626 1.301 . S
C1623 O1627 1.282 . S
O1624 U1606 2.441 . S
O1624 C1610 1.249 . S
O1625 U1606 2.420 . S
O1625 C1610 1.202 . S
O1626 U1606 2.455 . S
O1626 C1623 1.301 . S
O1627 U1606 2.449 . S
O1627 C1623 1.282 . S
H1628 C1601 0.931 . S
H1629 C1603 0.929 . S
H1630 C1604 0.930 . S
H1631 C1605 0.931 . S
H1632 C1612 0.932 . S
H1633 C1613 0.930 . S
H1634 C1614 0.929 . S
H1635 C1616 0.930 . S
H1636 C1618 0.932 . S
H1637 C1619 0.929 . S
H1638 C1620 0.928 . S
H1639 C1622 0.932 . S
C1640 C1641 1.264 . S
C1640 C1645 1.479 . S
C1640 C1650 1.465 . S
C1641 C1640 1.264 . S
C1641 C1643 1.339 . S
C1641 H1668 0.931 . S
C1642 C1643 1.395 . S
C1642 C1644 1.320 . S
C1643 C1641 1.339 . S
C1643 C1642 1.395 . S
C1643 H1669 0.929 . S
C1644 C1642 1.320 . S
C1644 C1645 1.405 . S
C1644 H1670 0.930 . S
C1645 C1640 1.479 . S
C1645 C1644 1.405 . S
C1645 H1671 0.931 . S
U1646 O1647 2.454 . S
U1646 O1648 2.458 . S
U1646 C1649 2.984 . S
U1646 C1650 2.847 . S
U1646 C1663 2.882 . S
U1646 O1664 2.441 . S
U1646 O1665 2.420 . S
U1646 O1666 2.455 . S
U1646 O1667 2.449 . S
O1647 U1646 2.454 . S
O1647 C1649 1.353 . S
O1648 U1646 2.458 . S
O1648 C1649 1.286 . S
C1649 U1646 2.984 . S
C1649 O1647 1.353 . S
C1649 O1648 1.286 . S
C1649 C1651 1.363 . S
C1650 C1640 1.465 . S
C1650 U1646 2.847 . S
C1650 O1664 1.249 . S
C1650 O1665 1.202 . S
C1651 C1649 1.363 . S
C1651 C1653 1.408 . S
C1651 C1656 1.342 . S
C1652 C1653 1.310 1_556 S
C1652 C1655 1.461 . S
C1652 H1672 0.932 . S
C1653 C1651 1.408 . S
C1653 C1652 1.310 1_554 S
C1653 H1673 0.930 . S
C1654 C1655 1.474 . S
C1654 C1656 1.285 1_556 S
C1654 H1674 0.929 . S
C1655 C1652 1.461 . S
C1655 C1654 1.474 . S
C1656 C1651 1.342 . S
C1656 C1654 1.285 1_554 S
C1656 H1675 0.930 . S
C1657 C1660 1.424 . S
C1657 C1662 1.245 . S
C1657 C1663 1.428 . S
C1658 C1661 1.260 . S
C1658 C1662 1.477 . S
C1658 H1676 0.932 . S
C1659 C1660 1.384 . S
C1659 C1661 1.479 . S
C1659 H1677 0.929 . S
C1660 C1657 1.424 . S
C1660 C1659 1.384 . S
C1660 H1678 0.928 . S
C1661 C1658 1.260 . S
C1661 C1659 1.479 . S
C1662 C1657 1.245 . S
C1662 C1658 1.477 . S
C1662 H1679 0.932 . S
C1663 U1646 2.882 . S
C1663 C1657 1.428 . S
C1663 O1666 1.301 . S
C1663 O1667 1.282 . S
O1664 U1646 2.441 . S
O1664 C1650 1.249 . S
O1665 U1646 2.420 . S
O1665 C1650 1.202 . S
O1666 U1646 2.455 . S
O1666 C1663 1.301 . S
O1667 U1646 2.449 . S
O1667 C1663 1.282 . S
H1668 C1641 0.931 . S
H1669 C1643 0.929 . S
H1670 C1644 0.930 . S
H1671 C1645 0.931 . S
H1672 C1652 0.932 . S
H1673 C1653 0.930 . S
H1674 C1654 0.929 . S
H1675 C1656 0.930 . S
H1676 C1658 0.932 . S
H1677 C1659 0.929 . S
H1678 C1660 0.928 . S
H1679 C1662 0.932 . S
C1680 C1681 1.264 . S
C1680 C1685 1.479 . S
C1680 C1690 1.465 . S
C1681 C1680 1.264 . S
C1681 C1683 1.339 . S
C1681 H1708 0.931 . S
C1682 C1683 1.395 . S
C1682 C1684 1.320 . S
C1683 C1681 1.339 . S
C1683 C1682 1.395 . S
C1683 H1709 0.929 . S
C1684 C1682 1.320 . S
C1684 C1685 1.405 . S
C1684 H1710 0.930 . S
C1685 C1680 1.479 . S
C1685 C1684 1.405 . S
C1685 H1711 0.931 . S
U1686 O1687 2.454 . S
U1686 O1688 2.458 . S
U1686 C1689 2.984 . S
U1686 C1690 2.847 . S
U1686 C1703 2.882 . S
U1686 O1704 2.441 . S
U1686 O1705 2.420 . S
U1686 O1706 2.455 . S
U1686 O1707 2.449 . S
O1687 U1686 2.454 . S
O1687 C1689 1.353 . S
O1688 U1686 2.458 . S
O1688 C1689 1.286 . S
C1689 U1686 2.984 . S
C1689 O1687 1.353 . S
C1689 O1688 1.286 . S
C1689 C1691 1.363 . S
C1690 C1680 1.465 . S
C1690 U1686 2.847 . S
C1690 O1704 1.249 . S
C1690 O1705 1.202 . S
C1691 C1689 1.363 . S
C1691 C1693 1.408 . S
C1691 C1696 1.342 . S
C1692 C1693 1.310 . S
C1692 C1695 1.461 . S
C1692 H1712 0.932 . S
C1693 C1691 1.408 . S
C1693 C1692 1.310 . S
C1693 H1713 0.930 . S
C1694 C1695 1.474 . S
C1694 C1696 1.285 . S
C1694 H1714 0.929 . S
C1695 C1692 1.461 . S
C1695 C1694 1.474 . S
C1696 C1691 1.342 . S
C1696 C1694 1.285 . S
C1696 H1715 0.930 . S
C1697 C1700 1.424 . S
C1697 C1702 1.245 . S
C1697 C1703 1.428 . S
C1698 C1701 1.260 . S
C1698 C1702 1.477 . S
C1698 H1716 0.932 . S
C1699 C1700 1.384 . S
C1699 C1701 1.479 . S
C1699 H1717 0.929 . S
C1700 C1697 1.424 . S
C1700 C1699 1.384 . S
C1700 H1718 0.928 . S
C1701 C1698 1.260 . S
C1701 C1699 1.479 . S
C1702 C1697 1.245 . S
C1702 C1698 1.477 . S
C1702 H1719 0.932 . S
C1703 U1686 2.882 . S
C1703 C1697 1.428 . S
C1703 O1706 1.301 . S
C1703 O1707 1.282 . S
O1704 U1686 2.441 . S
O1704 C1690 1.249 . S
O1705 U1686 2.420 . S
O1705 C1690 1.202 . S
O1706 U1686 2.455 . S
O1706 C1703 1.301 . S
O1707 U1686 2.449 . S
O1707 C1703 1.282 . S
H1708 C1681 0.931 . S
H1709 C1683 0.929 . S
H1710 C1684 0.930 . S
H1711 C1685 0.931 . S
H1712 C1692 0.932 . S
H1713 C1693 0.930 . S
H1714 C1694 0.929 . S
H1715 C1696 0.930 . S
H1716 C1698 0.932 . S
H1717 C1699 0.929 . S
H1718 C1700 0.928 . S
H1719 C1702 0.932 . S
C1720 C1721 1.264 . S
C1720 C1725 1.479 . S
C1720 C1730 1.465 . S
C1721 C1720 1.264 . S
C1721 C1723 1.339 . S
C1721 H1748 0.931 . S
C1722 C1723 1.395 . S
C1722 C1724 1.320 . S
C1723 C1721 1.339 . S
C1723 C1722 1.395 . S
C1723 H1749 0.929 . S
C1724 C1722 1.320 . S
C1724 C1725 1.405 . S
C1724 H1750 0.930 . S
C1725 C1720 1.479 . S
C1725 C1724 1.405 . S
C1725 H1751 0.931 . S
U1726 O1727 2.454 . S
U1726 O1728 2.458 . S
U1726 C1729 2.984 . S
U1726 C1730 2.847 . S
U1726 C1743 2.882 . S
U1726 O1744 2.441 . S
U1726 O1745 2.420 . S
U1726 O1746 2.455 . S
U1726 O1747 2.449 . S
O1727 U1726 2.454 . S
O1727 C1729 1.353 . S
O1728 U1726 2.458 . S
O1728 C1729 1.286 . S
C1729 U1726 2.984 . S
C1729 O1727 1.353 . S
C1729 O1728 1.286 . S
C1729 C1731 1.363 . S
C1730 C1720 1.465 . S
C1730 U1726 2.847 . S
C1730 O1744 1.249 . S
C1730 O1745 1.202 . S
C1731 C1729 1.363 . S
C1731 C1733 1.408 . S
C1731 C1736 1.342 . S
C1732 C1733 1.310 . S
C1732 C1735 1.461 . S
C1732 H1752 0.932 . S
C1733 C1731 1.408 . S
C1733 C1732 1.310 . S
C1733 H1753 0.930 . S
C1734 C1735 1.474 . S
C1734 C1736 1.285 . S
C1734 H1754 0.929 . S
C1735 C1732 1.461 . S
C1735 C1734 1.474 . S
C1736 C1731 1.342 . S
C1736 C1734 1.285 . S
C1736 H1755 0.930 . S
C1737 C1740 1.424 . S
C1737 C1742 1.245 . S
C1737 C1743 1.428 . S
C1738 C1741 1.260 . S
C1738 C1742 1.477 . S
C1738 H1756 0.932 . S
C1739 C1740 1.384 . S
C1739 C1741 1.479 . S
C1739 H1757 0.929 . S
C1740 C1737 1.424 . S
C1740 C1739 1.384 . S
C1740 H1758 0.928 . S
C1741 C1738 1.260 . S
C1741 C1739 1.479 . S
C1742 C1737 1.245 . S
C1742 C1738 1.477 . S
C1742 H1759 0.932 . S
C1743 U1726 2.882 . S
C1743 C1737 1.428 . S
C1743 O1746 1.301 . S
C1743 O1747 1.282 . S
O1744 U1726 2.441 . S
O1744 C1730 1.249 . S
O1745 U1726 2.420 . S
O1745 C1730 1.202 . S
O1746 U1726 2.455 . S
O1746 C1743 1.301 . S
O1747 U1726 2.449 . S
O1747 C1743 1.282 . S
H1748 C1721 0.931 . S
H1749 C1723 0.929 . S
H1750 C1724 0.930 . S
H1751 C1725 0.931 . S
H1752 C1732 0.932 . S
H1753 C1733 0.930 . S
H1754 C1734 0.929 . S
H1755 C1736 0.930 . S
H1756 C1738 0.932 . S
H1757 C1739 0.929 . S
H1758 C1740 0.928 . S
H1759 C1742 0.932 . S
C1760 C1761 1.264 . S
C1760 C1765 1.479 . S
C1760 C1770 1.465 . S
C1761 C1760 1.264 . S
C1761 C1763 1.339 . S
C1761 H1788 0.931 . S
C1762 C1763 1.395 . S
C1762 C1764 1.320 . S
C1763 C1761 1.339 . S
C1763 C1762 1.395 . S
C1763 H1789 0.929 . S
C1764 C1762 1.320 . S
C1764 C1765 1.405 . S
C1764 H1790 0.930 . S
C1765 C1760 1.479 . S
C1765 C1764 1.405 . S
C1765 H1791 0.931 . S
U1766 O1767 2.454 . S
U1766 O1768 2.458 . S
U1766 C1769 2.984 . S
U1766 C1770 2.847 . S
U1766 C1783 2.882 . S
U1766 O1784 2.441 . S
U1766 O1785 2.420 . S
U1766 O1786 2.455 . S
U1766 O1787 2.449 . S
O1767 U1766 2.454 . S
O1767 C1769 1.353 . S
O1768 U1766 2.458 . S
O1768 C1769 1.286 . S
C1769 U1766 2.984 . S
C1769 O1767 1.353 . S
C1769 O1768 1.286 . S
C1769 C1771 1.363 . S
C1770 C1760 1.465 . S
C1770 U1766 2.847 . S
C1770 O1784 1.249 . S
C1770 O1785 1.202 . S
C1771 C1769 1.363 . S
C1771 C1773 1.408 . S
C1771 C1776 1.342 . S
C1772 C1773 1.310 . S
C1772 C1775 1.461 . S
C1772 H1792 0.932 . S
C1773 C1771 1.408 . S
C1773 C1772 1.310 . S
C1773 H1793 0.930 . S
C1774 C1775 1.474 . S
C1774 C1776 1.285 . S
C1774 H1794 0.929 . S
C1775 C1772 1.461 . S
C1775 C1774 1.474 . S
C1776 C1771 1.342 . S
C1776 C1774 1.285 . S
C1776 H1795 0.930 . S
C1777 C1780 1.424 . S
C1777 C1782 1.245 . S
C1777 C1783 1.428 . S
C1778 C1781 1.260 . S
C1778 C1782 1.477 . S
C1778 H1796 0.932 . S
C1779 C1780 1.384 . S
C1779 C1781 1.479 . S
C1779 H1797 0.929 . S
C1780 C1777 1.424 . S
C1780 C1779 1.384 . S
C1780 H1798 0.928 . S
C1781 C1778 1.260 . S
C1781 C1779 1.479 . S
C1782 C1777 1.245 . S
C1782 C1778 1.477 . S
C1782 H1799 0.932 . S
C1783 U1766 2.882 . S
C1783 C1777 1.428 . S
C1783 O1786 1.301 . S
C1783 O1787 1.282 . S
O1784 U1766 2.441 . S
O1784 C1770 1.249 . S
O1785 U1766 2.420 . S
O1785 C1770 1.202 . S
O1786 U1766 2.455 . S
O1786 C1783 1.301 . S
O1787 U1766 2.449 . S
O1787 C1783 1.282 . S
H1788 C1761 0.931 . S
H1789 C1763 0.929 . S
H1790 C1764 0.930 . S
H1791 C1765 0.931 . S
H1792 C1772 0.932 . S
H1793 C1773 0.930 . S
H1794 C1774 0.929 . S
H1795 C1776 0.930 . S
H1796 C1778 0.932 . S
H1797 C1779 0.929 . S
H1798 C1780 0.928 . S
H1799 C1782 0.932 . S
C1800 C1801 1.264 . S
C1800 C1805 1.479 . S
C1800 C1810 1.465 . S
C1801 C1800 1.264 . S
C1801 C1803 1.339 . S
C1801 H1828 0.931 . S
C1802 C1803 1.395 . S
C1802 C1804 1.320 . S
C1803 C1801 1.339 . S
C1803 C1802 1.395 . S
C1803 H1829 0.929 . S
C1804 C1802 1.320 . S
C1804 C1805 1.405 . S
C1804 H1830 0.930 . S
C1805 C1800 1.479 . S
C1805 C1804 1.405 . S
C1805 H1831 0.931 . S
U1806 O1807 2.454 . S
U1806 O1808 2.458 . S
U1806 C1809 2.984 . S
U1806 C1810 2.847 . S
U1806 C1823 2.882 . S
U1806 O1824 2.441 . S
U1806 O1825 2.420 . S
U1806 O1826 2.455 . S
U1806 O1827 2.449 . S
O1807 U1806 2.454 . S
O1807 C1809 1.353 . S
O1808 U1806 2.458 . S
O1808 C1809 1.286 . S
C1809 U1806 2.984 . S
C1809 O1807 1.353 . S
C1809 O1808 1.286 . S
C1809 C1811 1.363 . S
C1810 C1800 1.465 . S
C1810 U1806 2.847 . S
C1810 O1824 1.249 . S
C1810 O1825 1.202 . S
C1811 C1809 1.363 . S
C1811 C1813 1.408 . S
C1811 C1816 1.342 . S
C1812 C1813 1.310 . S
C1812 C1815 1.461 . S
C1812 H1832 0.932 . S
C1813 C1811 1.408 . S
C1813 C1812 1.310 . S
C1813 H1833 0.930 . S
C1814 C1815 1.474 . S
C1814 C1816 1.285 . S
C1814 H1834 0.929 . S
C1815 C1812 1.461 . S
C1815 C1814 1.474 . S
C1816 C1811 1.342 . S
C1816 C1814 1.285 . S
C1816 H1835 0.930 . S
C1817 C1820 1.424 . S
C1817 C1822 1.245 . S
C1817 C1823 1.428 . S
C1818 C1821 1.260 . S
C1818 C1822 1.477 . S
C1818 H1836 0.932 . S
C1819 C1820 1.384 . S
C1819 C1821 1.479 . S
C1819 H1837 0.929 . S
C1820 C1817 1.424 . S
C1820 C1819 1.384 . S
C1820 H1838 0.928 . S
C1821 C1818 1.260 . S
C1821 C1819 1.479 . S
C1822 C1817 1.245 . S
C1822 C1818 1.477 . S
C1822 H1839 0.932 . S
C1823 U1806 2.882 . S
C1823 C1817 1.428 . S
C1823 O1826 1.301 . S
C1823 O1827 1.282 . S
O1824 U1806 2.441 . S
O1824 C1810 1.249 . S
O1825 U1806 2.420 . S
O1825 C1810 1.202 . S
O1826 U1806 2.455 . S
O1826 C1823 1.301 . S
O1827 U1806 2.449 . S
O1827 C1823 1.282 . S
H1828 C1801 0.931 . S
H1829 C1803 0.929 . S
H1830 C1804 0.930 . S
H1831 C1805 0.931 . S
H1832 C1812 0.932 . S
H1833 C1813 0.930 . S
H1834 C1814 0.929 . S
H1835 C1816 0.930 . S
H1836 C1818 0.932 . S
H1837 C1819 0.929 . S
H1838 C1820 0.928 . S
H1839 C1822 0.932 . S
C1840 C1841 1.264 . S
C1840 C1845 1.479 . S
C1840 C1850 1.465 . S
C1841 C1840 1.264 . S
C1841 C1843 1.339 . S
C1841 H1868 0.931 . S
C1842 C1843 1.395 . S
C1842 C1844 1.320 . S
C1843 C1841 1.339 . S
C1843 C1842 1.395 . S
C1843 H1869 0.929 . S
C1844 C1842 1.320 . S
C1844 C1845 1.405 . S
C1844 H1870 0.930 . S
C1845 C1840 1.479 . S
C1845 C1844 1.405 . S
C1845 H1871 0.931 . S
U1846 O1847 2.454 . S
U1846 O1848 2.458 . S
U1846 C1849 2.984 . S
U1846 C1850 2.847 . S
U1846 C1863 2.882 . S
U1846 O1864 2.441 . S
U1846 O1865 2.420 . S
U1846 O1866 2.455 . S
U1846 O1867 2.449 . S
O1847 U1846 2.454 . S
O1847 C1849 1.353 . S
O1848 U1846 2.458 . S
O1848 C1849 1.286 . S
C1849 U1846 2.984 . S
C1849 O1847 1.353 . S
C1849 O1848 1.286 . S
C1849 C1851 1.363 . S
C1850 C1840 1.465 . S
C1850 U1846 2.847 . S
C1850 O1864 1.249 . S
C1850 O1865 1.202 . S
C1851 C1849 1.363 . S
C1851 C1853 1.408 . S
C1851 C1856 1.342 . S
C1852 C1853 1.310 . S
C1852 C1855 1.461 . S
C1852 H1872 0.932 . S
C1853 C1851 1.408 . S
C1853 C1852 1.310 . S
C1853 H1873 0.930 . S
C1854 C1855 1.474 . S
C1854 C1856 1.285 . S
C1854 H1874 0.929 . S
C1855 C1852 1.461 . S
C1855 C1854 1.474 . S
C1856 C1851 1.342 . S
C1856 C1854 1.285 . S
C1856 H1875 0.930 . S
C1857 C1860 1.424 . S
C1857 C1862 1.245 . S
C1857 C1863 1.428 . S
C1858 C1861 1.260 . S
C1858 C1862 1.477 . S
C1858 H1876 0.932 . S
C1859 C1860 1.384 . S
C1859 C1861 1.479 . S
C1859 H1877 0.929 . S
C1860 C1857 1.424 . S
C1860 C1859 1.384 . S
C1860 H1878 0.928 . S
C1861 C1858 1.260 . S
C1861 C1859 1.479 . S
C1862 C1857 1.245 . S
C1862 C1858 1.477 . S
C1862 H1879 0.932 . S
C1863 U1846 2.882 . S
C1863 C1857 1.428 . S
C1863 O1866 1.301 . S
C1863 O1867 1.282 . S
O1864 U1846 2.441 . S
O1864 C1850 1.249 . S
O1865 U1846 2.420 . S
O1865 C1850 1.202 . S
O1866 U1846 2.455 . S
O1866 C1863 1.301 . S
O1867 U1846 2.449 . S
O1867 C1863 1.282 . S
H1868 C1841 0.931 . S
H1869 C1843 0.929 . S
H1870 C1844 0.930 . S
H1871 C1845 0.931 . S
H1872 C1852 0.932 . S
H1873 C1853 0.930 . S
H1874 C1854 0.929 . S
H1875 C1856 0.930 . S
H1876 C1858 0.932 . S
H1877 C1859 0.929 . S
H1878 C1860 0.928 . S
H1879 C1862 0.932 . S
C1880 C1881 1.264 . S
C1880 C1885 1.479 . S
C1880 C1890 1.465 . S
C1881 C1880 1.264 . S
C1881 C1883 1.339 . S
C1881 H1908 0.931 . S
C1882 C1883 1.395 . S
C1882 C1884 1.320 . S
C1883 C1881 1.339 . S
C1883 C1882 1.395 . S
C1883 H1909 0.929 . S
C1884 C1882 1.320 . S
C1884 C1885 1.405 . S
C1884 H1910 0.930 . S
C1885 C1880 1.479 . S
C1885 C1884 1.405 . S
C1885 H1911 0.931 . S
U1886 O1887 2.454 . S
U1886 O1888 2.458 . S
U1886 C1889 2.984 . S
U1886 C1890 2.847 . S
U1886 C1903 2.882 . S
U1886 O1904 2.441 . S
U1886 O1905 2.420 . S
U1886 O1906 2.455 . S
U1886 O1907 2.449 . S
O1887 U1886 2.454 . S
O1887 C1889 1.353 . S
O1888 U1886 2.458 . S
O1888 C1889 1.286 . S
C1889 U1886 2.984 . S
C1889 O1887 1.353 . S
C1889 O1888 1.286 . S
C1889 C1891 1.363 . S
C1890 C1880 1.465 . S
C1890 U1886 2.847 . S
C1890 O1904 1.249 . S
C1890 O1905 1.202 . S
C1891 C1889 1.363 . S
C1891 C1893 1.408 . S
C1891 C1896 1.342 . S
C1892 C1893 1.310 . S
C1892 C1895 1.461 . S
C1892 H1912 0.932 . S
C1893 C1891 1.408 . S
C1893 C1892 1.310 . S
C1893 H1913 0.930 . S
C1894 C1895 1.474 . S
C1894 C1896 1.285 . S
C1894 H1914 0.929 . S
C1895 C1892 1.461 . S
C1895 C1894 1.474 . S
C1896 C1891 1.342 . S
C1896 C1894 1.285 . S
C1896 H1915 0.930 . S
C1897 C1900 1.424 . S
C1897 C1902 1.245 . S
C1897 C1903 1.428 . S
C1898 C1901 1.260 . S
C1898 C1902 1.477 . S
C1898 H1916 0.932 . S
C1899 C1900 1.384 . S
C1899 C1901 1.479 . S
C1899 H1917 0.929 . S
C1900 C1897 1.424 . S
C1900 C1899 1.384 . S
C1900 H1918 0.928 . S
C1901 C1898 1.260 . S
C1901 C1899 1.479 . S
C1902 C1897 1.245 . S
C1902 C1898 1.477 . S
C1902 H1919 0.932 . S
C1903 U1886 2.882 . S
C1903 C1897 1.428 . S
C1903 O1906 1.301 . S
C1903 O1907 1.282 . S
O1904 U1886 2.441 . S
O1904 C1890 1.249 . S
O1905 U1886 2.420 . S
O1905 C1890 1.202 . S
O1906 U1886 2.455 . S
O1906 C1903 1.301 . S
O1907 U1886 2.449 . S
O1907 C1903 1.282 . S
H1908 C1881 0.931 . S
H1909 C1883 0.929 . S
H1910 C1884 0.930 . S
H1911 C1885 0.931 . S
H1912 C1892 0.932 . S
H1913 C1893 0.930 . S
H1914 C1894 0.929 . S
H1915 C1896 0.930 . S
H1916 C1898 0.932 . S
H1917 C1899 0.929 . S
H1918 C1900 0.928 . S
H1919 C1902 0.932 . S
C1920 C1921 1.264 . S
C1920 C1925 1.479 . S
C1920 C1930 1.465 . S
C1921 C1920 1.264 . S
C1921 C1923 1.339 . S
C1921 H1948 0.931 . S
C1922 C1923 1.395 . S
C1922 C1924 1.320 . S
C1923 C1921 1.339 . S
C1923 C1922 1.395 . S
C1923 H1949 0.929 . S
C1924 C1922 1.320 . S
C1924 C1925 1.405 . S
C1924 H1950 0.930 . S
C1925 C1920 1.479 . S
C1925 C1924 1.405 . S
C1925 H1951 0.931 . S
U1926 O1927 2.454 . S
U1926 O1928 2.458 . S
U1926 C1929 2.984 . S
U1926 C1930 2.847 . S
U1926 C1943 2.882 . S
U1926 O1944 2.441 . S
U1926 O1945 2.420 . S
U1926 O1946 2.455 . S
U1926 O1947 2.449 . S
O1927 U1926 2.454 . S
O1927 C1929 1.353 . S
O1928 U1926 2.458 . S
O1928 C1929 1.286 . S
C1929 U1926 2.984 . S
C1929 O1927 1.353 . S
C1929 O1928 1.286 . S
C1929 C1931 1.363 . S
C1930 C1920 1.465 . S
C1930 U1926 2.847 . S
C1930 O1944 1.249 . S
C1930 O1945 1.202 . S
C1931 C1929 1.363 . S
C1931 C1933 1.408 . S
C1931 C1936 1.342 . S
C1932 C1933 1.310 . S
C1932 C1935 1.461 . S
C1932 H1952 0.932 . S
C1933 C1931 1.408 . S
C1933 C1932 1.310 . S
C1933 H1953 0.930 . S
C1934 C1935 1.474 . S
C1934 C1936 1.285 . S
C1934 H1954 0.929 . S
C1935 C1932 1.461 . S
C1935 C1934 1.474 . S
C1936 C1931 1.342 . S
C1936 C1934 1.285 . S
C1936 H1955 0.930 . S
C1937 C1940 1.424 . S
C1937 C1942 1.245 . S
C1937 C1943 1.428 . S
C1938 C1941 1.260 . S
C1938 C1942 1.477 . S
C1938 H1956 0.932 . S
C1939 C1940 1.384 . S
C1939 C1941 1.479 . S
C1939 H1957 0.929 . S
C1940 C1937 1.424 . S
C1940 C1939 1.384 . S
C1940 H1958 0.928 . S
C1941 C1938 1.260 . S
C1941 C1939 1.479 . S
C1942 C1937 1.245 . S
C1942 C1938 1.477 . S
C1942 H1959 0.932 . S
C1943 U1926 2.882 . S
C1943 C1937 1.428 . S
C1943 O1946 1.301 . S
C1943 O1947 1.282 . S
O1944 U1926 2.441 . S
O1944 C1930 1.249 . S
O1945 U1926 2.420 . S
O1945 C1930 1.202 . S
O1946 U1926 2.455 . S
O1946 C1943 1.301 . S
O1947 U1926 2.449 . S
O1947 C1943 1.282 . S
H1948 C1921 0.931 . S
H1949 C1923 0.929 . S
H1950 C1924 0.930 . S
H1951 C1925 0.931 . S
H1952 C1932 0.932 . S
H1953 C1933 0.930 . S
H1954 C1934 0.929 . S
H1955 C1936 0.930 . S
H1956 C1938 0.932 . S
H1957 C1939 0.929 . S
H1958 C1940 0.928 . S
H1959 C1942 0.932 . S
C1960 C1961 1.264 . S
C1960 C1965 1.479 . S
C1960 C1970 1.465 . S
C1961 C1960 1.264 . S
C1961 C1963 1.339 . S
C1961 H1988 0.931 . S
C1962 C1963 1.395 . S
C1962 C1964 1.320 . S
C1963 C1961 1.339 . S
C1963 C1962 1.395 . S
C1963 H1989 0.929 . S
C1964 C1962 1.320 . S
C1964 C1965 1.405 . S
C1964 H1990 0.930 . S
C1965 C1960 1.479 . S
C1965 C1964 1.405 . S
C1965 H1991 0.931 . S
U1966 O1967 2.454 . S
U1966 O1968 2.458 . S
U1966 C1969 2.984 . S
U1966 C1970 2.847 . S
U1966 C1983 2.882 . S
U1966 O1984 2.441 . S
U1966 O1985 2.420 . S
U1966 O1986 2.455 . S
U1966 O1987 2.449 . S
O1967 U1966 2.454 . S
O1967 C1969 1.353 . S
O1968 U1966 2.458 . S
O1968 C1969 1.286 . S
C1969 U1966 2.984 . S
C1969 O1967 1.353 . S
C1969 O1968 1.286 . S
C1969 C1971 1.363 . S
C1970 C1960 1.465 . S
C1970 U1966 2.847 . S
C1970 O1984 1.249 . S
C1970 O1985 1.202 . S
C1971 C1969 1.363 . S
C1971 C1973 1.408 . S
C1971 C1976 1.342 . S
C1972 C1973 1.310 . S
C1972 C1975 1.461 . S
C1972 H1992 0.932 . S
C1973 C1971 1.408 . S
C1973 C1972 1.310 . S
C1973 H1993 0.930 . S
C1974 C1975 1.474 . S
C1974 C1976 1.285 . S
C1974 H1994 0.929 . S
C1975 C1972 1.461 . S
C1975 C1974 1.474 . S
C1976 C1971 1.342 . S
C1976 C1974 1.285 . S
C1976 H1995 0.930 . S
C1977 C1980 1.424 . S
C1977 C1982 1.245 . S
C1977 C1983 1.428 . S
C1978 C1981 1.260 . S
C1978 C1982 1.477 . S
C1978 H1996 0.932 . S
C1979 C1980 1.384 . S
C1979 C1981 1.479 . S
C1979 H1997 0.929 . S
C1980 C1977 1.424 . S
C1980 C1979 1.384 . S
C1980 H1998 0.928 . S
C1981 C1978 1.260 . S
C1981 C1979 1.479 . S
C1982 C1977 1.245 . S
C1982 C1978 1.477 . S
C1982 H1999 0.932 . S
C1983 U1966 2.882 . S
C1983 C1977 1.428 . S
C1983 O1986 1.301 . S
C1983 O1987 1.282 . S
O1984 U1966 2.441 . S
O1984 C1970 1.249 . S
O1985 U1966 2.420 . S
O1985 C1970 1.202 . S
O1986 U1966 2.455 . S
O1986 C1983 1.301 . S
O1987 U1966 2.449 . S
O1987 C1983 1.282 . S
H1988 C1961 0.931 . S
H1989 C1963 0.929 . S
H1990 C1964 0.930 . S
H1991 C1965 0.931 . S
H1992 C1972 0.932 . S
H1993 C1973 0.930 . S
H1994 C1974 0.929 . S
H1995 C1976 0.930 . S
H1996 C1978 0.932 . S
H1997 C1979 0.929 . S
H1998 C1980 0.928 . S
H1999 C1982 0.932 . S
C2000 C2001 1.264 . S
C2000 C2005 1.479 . S
C2000 C2010 1.465 . S
C2001 C2000 1.264 . S
C2001 C2003 1.339 . S
C2001 H2028 0.931 . S
C2002 C2003 1.395 . S
C2002 C2004 1.320 . S
C2003 C2001 1.339 . S
C2003 C2002 1.395 . S
C2003 H2029 0.929 . S
C2004 C2002 1.320 . S
C2004 C2005 1.405 . S
C2004 H2030 0.930 . S
C2005 C2000 1.479 . S
C2005 C2004 1.405 . S
C2005 H2031 0.931 . S
U2006 O2007 2.454 . S
U2006 O2008 2.458 . S
U2006 C2009 2.984 . S
U2006 C2010 2.847 . S
U2006 C2023 2.882 . S
U2006 O2024 2.441 . S
U2006 O2025 2.420 . S
U2006 O2026 2.455 . S
U2006 O2027 2.449 . S
O2007 U2006 2.454 . S
O2007 C2009 1.353 . S
O2008 U2006 2.458 . S
O2008 C2009 1.286 . S
C2009 U2006 2.984 . S
C2009 O2007 1.353 . S
C2009 O2008 1.286 . S
C2009 C2011 1.363 . S
C2010 C2000 1.465 . S
C2010 U2006 2.847 . S
C2010 O2024 1.249 . S
C2010 O2025 1.202 . S
C2011 C2009 1.363 . S
C2011 C2013 1.408 . S
C2011 C2016 1.342 . S
C2012 C2013 1.316 . S
C2012 C2015 1.458 1_655 S
C2012 H2032 0.929 1_655 S
C2013 C2011 1.408 . S
C2013 C2012 1.316 . S
C2013 H2033 0.930 . S
C2014 C2015 1.410 1_655 S
C2014 C2016 1.402 . S
C2014 H2034 0.885 1_655 S
C2015 C2012 1.458 1_455 S
C2015 C2014 1.410 1_455 S
C2016 C2011 1.342 . S
C2016 C2014 1.402 . S
C2016 H2035 0.930 . S
C2017 C2020 1.424 . S
C2017 C2022 1.245 . S
C2017 C2023 1.428 . S
C2018 C2021 1.260 . S
C2018 C2022 1.477 . S
C2018 H2036 0.932 . S
C2019 C2020 1.384 . S
C2019 C2021 1.479 . S
C2019 H2037 0.929 . S
C2020 C2017 1.424 . S
C2020 C2019 1.384 . S
C2020 H2038 0.928 . S
C2021 C2018 1.260 . S
C2021 C2019 1.479 . S
C2022 C2017 1.245 . S
C2022 C2018 1.477 . S
C2022 H2039 0.932 . S
C2023 U2006 2.882 . S
C2023 C2017 1.428 . S
C2023 O2026 1.301 . S
C2023 O2027 1.282 . S
O2024 U2006 2.441 . S
O2024 C2010 1.249 . S
O2025 U2006 2.420 . S
O2025 C2010 1.202 . S
O2026 U2006 2.455 . S
O2026 C2023 1.301 . S
O2027 U2006 2.449 . S
O2027 C2023 1.282 . S
H2028 C2001 0.931 . S
H2029 C2003 0.929 . S
H2030 C2004 0.930 . S
H2031 C2005 0.931 . S
H2032 C2012 0.929 1_455 S
H2033 C2013 0.930 . S
H2034 C2014 0.885 1_455 S
H2035 C2016 0.930 . S
H2036 C2018 0.932 . S
H2037 C2019 0.929 . S
H2038 C2020 0.928 . S
H2039 C2022 0.932 . S
C2040 C2041 1.264 . S
C2040 C2045 1.479 . S
C2040 C2050 1.465 . S
C2041 C2040 1.264 . S
C2041 C2043 1.339 . S
C2041 H2068 0.931 . S
C2042 C2043 1.395 . S
C2042 C2044 1.320 . S
C2043 C2041 1.339 . S
C2043 C2042 1.395 . S
C2043 H2069 0.929 . S
C2044 C2042 1.320 . S
C2044 C2045 1.405 . S
C2044 H2070 0.930 . S
C2045 C2040 1.479 . S
C2045 C2044 1.405 . S
C2045 H2071 0.931 . S
U2046 O2047 2.454 . S
U2046 O2048 2.458 . S
U2046 C2049 2.984 . S
U2046 C2050 2.847 . S
U2046 C2063 2.882 . S
U2046 O2064 2.441 . S
U2046 O2065 2.420 . S
U2046 O2066 2.455 . S
U2046 O2067 2.449 . S
O2047 U2046 2.454 . S
O2047 C2049 1.353 . S
O2048 U2046 2.458 . S
O2048 C2049 1.286 . S
C2049 U2046 2.984 . S
C2049 O2047 1.353 . S
C2049 O2048 1.286 . S
C2049 C2051 1.363 . S
C2050 C2040 1.465 . S
C2050 U2046 2.847 . S
C2050 O2064 1.249 . S
C2050 O2065 1.202 . S
C2051 C2049 1.363 . S
C2051 C2053 1.408 . S
C2051 C2056 1.342 . S
C2052 C2053 1.310 . S
C2052 C2055 1.461 . S
C2052 H2072 0.932 . S
C2053 C2051 1.408 . S
C2053 C2052 1.310 . S
C2053 H2073 0.930 . S
C2054 C2055 1.474 . S
C2054 C2056 1.285 . S
C2054 H2074 0.929 . S
C2055 C2052 1.461 . S
C2055 C2054 1.474 . S
C2056 C2051 1.342 . S
C2056 C2054 1.285 . S
C2056 H2075 0.930 . S
C2057 C2060 1.424 . S
C2057 C2062 1.245 . S
C2057 C2063 1.428 . S
C2058 C2061 1.260 . S
C2058 C2062 1.477 . S
C2058 H2076 0.932 . S
C2059 C2060 1.384 . S
C2059 C2061 1.479 . S
C2059 H2077 0.929 . S
C2060 C2057 1.424 . S
C2060 C2059 1.384 . S
C2060 H2078 0.928 . S
C2061 C2058 1.260 . S
C2061 C2059 1.479 . S
C2062 C2057 1.245 . S
C2062 C2058 1.477 . S
C2062 H2079 0.932 . S
C2063 U2046 2.882 . S
C2063 C2057 1.428 . S
C2063 O2066 1.301 . S
C2063 O2067 1.282 . S
O2064 U2046 2.441 . S
O2064 C2050 1.249 . S
O2065 U2046 2.420 . S
O2065 C2050 1.202 . S
O2066 U2046 2.455 . S
O2066 C2063 1.301 . S
O2067 U2046 2.449 . S
O2067 C2063 1.282 . S
H2068 C2041 0.931 . S
H2069 C2043 0.929 . S
H2070 C2044 0.930 . S
H2071 C2045 0.931 . S
H2072 C2052 0.932 . S
H2073 C2053 0.930 . S
H2074 C2054 0.929 . S
H2075 C2056 0.930 . S
H2076 C2058 0.932 . S
H2077 C2059 0.929 . S
H2078 C2060 0.928 . S
H2079 C2062 0.932 . S
C2080 C2081 1.264 . S
C2080 C2085 1.479 . S
C2080 C2090 1.465 . S
C2081 C2080 1.264 . S
C2081 C2083 1.339 . S
C2081 H2108 0.931 . S
C2082 C2083 1.395 . S
C2082 C2084 1.320 . S
C2083 C2081 1.339 . S
C2083 C2082 1.395 . S
C2083 H2109 0.929 . S
C2084 C2082 1.320 . S
C2084 C2085 1.405 . S
C2084 H2110 0.930 . S
C2085 C2080 1.479 . S
C2085 C2084 1.405 . S
C2085 H2111 0.931 . S
U2086 O2087 2.454 . S
U2086 O2088 2.458 . S
U2086 C2089 2.984 . S
U2086 C2090 2.847 . S
U2086 C2103 2.882 . S
U2086 O2104 2.441 . S
U2086 O2105 2.420 . S
U2086 O2106 2.455 . S
U2086 O2107 2.449 . S
O2087 U2086 2.454 . S
O2087 C2089 1.353 . S
O2088 U2086 2.458 . S
O2088 C2089 1.286 . S
C2089 U2086 2.984 . S
C2089 O2087 1.353 . S
C2089 O2088 1.286 . S
C2089 C2091 1.363 . S
C2090 C2080 1.465 . S
C2090 U2086 2.847 . S
C2090 O2104 1.249 . S
C2090 O2105 1.202 . S
C2091 C2089 1.363 . S
C2091 C2093 1.408 . S
C2091 C2096 1.342 . S
C2092 C2093 1.310 . S
C2092 C2095 1.461 . S
C2092 H2112 0.932 . S
C2093 C2091 1.408 . S
C2093 C2092 1.310 . S
C2093 H2113 0.930 . S
C2094 C2095 1.474 . S
C2094 C2096 1.285 . S
C2094 H2114 0.929 . S
C2095 C2092 1.461 . S
C2095 C2094 1.474 . S
C2096 C2091 1.342 . S
C2096 C2094 1.285 . S
C2096 H2115 0.930 . S
C2097 C2100 1.424 . S
C2097 C2102 1.245 . S
C2097 C2103 1.428 . S
C2098 C2101 1.260 . S
C2098 C2102 1.477 . S
C2098 H2116 0.932 . S
C2099 C2100 1.384 . S
C2099 C2101 1.479 . S
C2099 H2117 0.929 . S
C2100 C2097 1.424 . S
C2100 C2099 1.384 . S
C2100 H2118 0.928 . S
C2101 C2098 1.260 . S
C2101 C2099 1.479 . S
C2102 C2097 1.245 . S
C2102 C2098 1.477 . S
C2102 H2119 0.932 . S
C2103 U2086 2.882 . S
C2103 C2097 1.428 . S
C2103 O2106 1.301 . S
C2103 O2107 1.282 . S
O2104 U2086 2.441 . S
O2104 C2090 1.249 . S
O2105 U2086 2.420 . S
O2105 C2090 1.202 . S
O2106 U2086 2.455 . S
O2106 C2103 1.301 . S
O2107 U2086 2.449 . S
O2107 C2103 1.282 . S
H2108 C2081 0.931 . S
H2109 C2083 0.929 . S
H2110 C2084 0.930 . S
H2111 C2085 0.931 . S
H2112 C2092 0.932 . S
H2113 C2093 0.930 . S
H2114 C2094 0.929 . S
H2115 C2096 0.930 . S
H2116 C2098 0.932 . S
H2117 C2099 0.929 . S
H2118 C2100 0.928 . S
H2119 C2102 0.932 . S
C2120 C2121 1.264 . S
C2120 C2125 1.479 . S
C2120 C2130 1.465 . S
C2121 C2120 1.264 . S
C2121 C2123 1.339 . S
C2121 H2148 0.931 . S
C2122 C2123 1.395 . S
C2122 C2124 1.320 . S
C2123 C2121 1.339 . S
C2123 C2122 1.395 . S
C2123 H2149 0.929 . S
C2124 C2122 1.320 . S
C2124 C2125 1.405 . S
C2124 H2150 0.930 . S
C2125 C2120 1.479 . S
C2125 C2124 1.405 . S
C2125 H2151 0.931 . S
U2126 O2127 2.454 . S
U2126 O2128 2.458 . S
U2126 C2129 2.984 . S
U2126 C2130 2.847 . S
U2126 C2143 2.882 . S
U2126 O2144 2.441 . S
U2126 O2145 2.420 . S
U2126 O2146 2.455 . S
U2126 O2147 2.449 . S
O2127 U2126 2.454 . S
O2127 C2129 1.353 . S
O2128 U2126 2.458 . S
O2128 C2129 1.286 . S
C2129 U2126 2.984 . S
C2129 O2127 1.353 . S
C2129 O2128 1.286 . S
C2129 C2131 1.363 . S
C2130 C2120 1.465 . S
C2130 U2126 2.847 . S
C2130 O2144 1.249 . S
C2130 O2145 1.202 . S
C2131 C2129 1.363 . S
C2131 C2133 1.408 . S
C2131 C2136 1.342 . S
C2132 C2133 1.310 . S
C2132 C2135 1.461 . S
C2132 H2152 0.932 . S
C2133 C2131 1.408 . S
C2133 C2132 1.310 . S
C2133 H2153 0.930 . S
C2134 C2135 1.474 . S
C2134 C2136 1.285 . S
C2134 H2154 0.929 . S
C2135 C2132 1.461 . S
C2135 C2134 1.474 . S
C2136 C2131 1.342 . S
C2136 C2134 1.285 . S
C2136 H2155 0.930 . S
C2137 C2140 1.424 . S
C2137 C2142 1.245 . S
C2137 C2143 1.428 . S
C2138 C2141 1.260 . S
C2138 C2142 1.477 . S
C2138 H2156 0.932 . S
C2139 C2140 1.384 . S
C2139 C2141 1.479 . S
C2139 H2157 0.929 . S
C2140 C2137 1.424 . S
C2140 C2139 1.384 . S
C2140 H2158 0.928 . S
C2141 C2138 1.260 . S
C2141 C2139 1.479 . S
C2142 C2137 1.245 . S
C2142 C2138 1.477 . S
C2142 H2159 0.932 . S
C2143 U2126 2.882 . S
C2143 C2137 1.428 . S
C2143 O2146 1.301 . S
C2143 O2147 1.282 . S
O2144 U2126 2.441 . S
O2144 C2130 1.249 . S
O2145 U2126 2.420 . S
O2145 C2130 1.202 . S
O2146 U2126 2.455 . S
O2146 C2143 1.301 . S
O2147 U2126 2.449 . S
O2147 C2143 1.282 . S
H2148 C2121 0.931 . S
H2149 C2123 0.929 . S
H2150 C2124 0.930 . S
H2151 C2125 0.931 . S
H2152 C2132 0.932 . S
H2153 C2133 0.930 . S
H2154 C2134 0.929 . S
H2155 C2136 0.930 . S
H2156 C2138 0.932 . S
H2157 C2139 0.929 . S
H2158 C2140 0.928 . S
H2159 C2142 0.932 . S
C2160 C2161 1.264 . S
C2160 C2165 1.479 . S
C2160 C2170 1.465 . S
C2161 C2160 1.264 . S
C2161 C2163 1.339 . S
C2161 H2188 0.931 . S
C2162 C2163 1.395 . S
C2162 C2164 1.320 . S
C2163 C2161 1.339 . S
C2163 C2162 1.395 . S
C2163 H2189 0.929 . S
C2164 C2162 1.320 . S
C2164 C2165 1.405 . S
C2164 H2190 0.930 . S
C2165 C2160 1.479 . S
C2165 C2164 1.405 . S
C2165 H2191 0.931 . S
U2166 O2167 2.454 . S
U2166 O2168 2.458 . S
U2166 C2169 2.984 . S
U2166 C2170 2.847 . S
U2166 C2183 2.882 . S
U2166 O2184 2.441 . S
U2166 O2185 2.420 . S
U2166 O2186 2.455 . S
U2166 O2187 2.449 . S
O2167 U2166 2.454 . S
O2167 C2169 1.353 . S
O2168 U2166 2.458 . S
O2168 C2169 1.286 . S
C2169 U2166 2.984 . S
C2169 O2167 1.353 . S
C2169 O2168 1.286 . S
C2169 C2171 1.363 . S
C2170 C2160 1.465 . S
C2170 U2166 2.847 . S
C2170 O2184 1.249 . S
C2170 O2185 1.202 . S
C2171 C2169 1.363 . S
C2171 C2173 1.408 . S
C2171 C2176 1.342 . S
C2172 C2173 1.316 . S
C2172 C2175 1.458 1_655 S
C2172 H2192 0.929 1_655 S
C2173 C2171 1.408 . S
C2173 C2172 1.316 . S
C2173 H2193 0.930 . S
C2174 C2175 1.410 1_655 S
C2174 C2176 1.402 . S
C2174 H2194 0.885 1_655 S
C2175 C2172 1.458 1_455 S
C2175 C2174 1.410 1_455 S
C2176 C2171 1.342 . S
C2176 C2174 1.402 . S
C2176 H2195 0.930 . S
C2177 C2180 1.424 . S
C2177 C2182 1.245 . S
C2177 C2183 1.428 . S
C2178 C2181 1.260 . S
C2178 C2182 1.477 . S
C2178 H2196 0.932 . S
C2179 C2180 1.384 . S
C2179 C2181 1.479 . S
C2179 H2197 0.929 . S
C2180 C2177 1.424 . S
C2180 C2179 1.384 . S
C2180 H2198 0.928 . S
C2181 C2178 1.260 . S
C2181 C2179 1.479 . S
C2182 C2177 1.245 . S
C2182 C2178 1.477 . S
C2182 H2199 0.932 . S
C2183 U2166 2.882 . S
C2183 C2177 1.428 . S
C2183 O2186 1.301 . S
C2183 O2187 1.282 . S
O2184 U2166 2.441 . S
O2184 C2170 1.249 . S
O2185 U2166 2.420 . S
O2185 C2170 1.202 . S
O2186 U2166 2.455 . S
O2186 C2183 1.301 . S
O2187 U2166 2.449 . S
O2187 C2183 1.282 . S
H2188 C2161 0.931 . S
H2189 C2163 0.929 . S
H2190 C2164 0.930 . S
H2191 C2165 0.931 . S
H2192 C2172 0.929 1_455 S
H2193 C2173 0.930 . S
H2194 C2174 0.885 1_455 S
H2195 C2176 0.930 . S
H2196 C2178 0.932 . S
H2197 C2179 0.929 . S
H2198 C2180 0.928 . S
H2199 C2182 0.932 . S
C2200 C2201 1.264 . S
C2200 C2205 1.479 . S
C2200 C2210 1.465 . S
C2201 C2200 1.264 . S
C2201 C2203 1.339 . S
C2201 H2228 0.931 . S
C2202 C2203 1.395 . S
C2202 C2204 1.320 . S
C2203 C2201 1.339 . S
C2203 C2202 1.395 . S
C2203 H2229 0.929 . S
C2204 C2202 1.320 . S
C2204 C2205 1.405 . S
C2204 H2230 0.930 . S
C2205 C2200 1.479 . S
C2205 C2204 1.405 . S
C2205 H2231 0.931 . S
U2206 O2207 2.454 . S
U2206 O2208 2.458 . S
U2206 C2209 2.984 . S
U2206 C2210 2.847 . S
U2206 C2223 2.882 . S
U2206 O2224 2.441 . S
U2206 O2225 2.420 . S
U2206 O2226 2.455 . S
U2206 O2227 2.449 . S
O2207 U2206 2.454 . S
O2207 C2209 1.353 . S
O2208 U2206 2.458 . S
O2208 C2209 1.286 . S
C2209 U2206 2.984 . S
C2209 O2207 1.353 . S
C2209 O2208 1.286 . S
C2209 C2211 1.363 . S
C2210 C2200 1.465 . S
C2210 U2206 2.847 . S
C2210 O2224 1.249 . S
C2210 O2225 1.202 . S
C2211 C2209 1.363 . S
C2211 C2213 1.408 . S
C2211 C2216 1.342 . S
C2212 C2213 1.310 . S
C2212 C2215 1.461 . S
C2212 H2232 0.932 . S
C2213 C2211 1.408 . S
C2213 C2212 1.310 . S
C2213 H2233 0.930 . S
C2214 C2215 1.474 . S
C2214 C2216 1.285 . S
C2214 H2234 0.929 . S
C2215 C2212 1.461 . S
C2215 C2214 1.474 . S
C2216 C2211 1.342 . S
C2216 C2214 1.285 . S
C2216 H2235 0.930 . S
C2217 C2220 1.424 . S
C2217 C2222 1.245 . S
C2217 C2223 1.428 . S
C2218 C2221 1.260 . S
C2218 C2222 1.477 . S
C2218 H2236 0.932 . S
C2219 C2220 1.384 . S
C2219 C2221 1.479 . S
C2219 H2237 0.929 . S
C2220 C2217 1.424 . S
C2220 C2219 1.384 . S
C2220 H2238 0.928 . S
C2221 C2218 1.260 . S
C2221 C2219 1.479 . S
C2222 C2217 1.245 . S
C2222 C2218 1.477 . S
C2222 H2239 0.932 . S
C2223 U2206 2.882 . S
C2223 C2217 1.428 . S
C2223 O2226 1.301 . S
C2223 O2227 1.282 . S
O2224 U2206 2.441 . S
O2224 C2210 1.249 . S
O2225 U2206 2.420 . S
O2225 C2210 1.202 . S
O2226 U2206 2.455 . S
O2226 C2223 1.301 . S
O2227 U2206 2.449 . S
O2227 C2223 1.282 . S
H2228 C2201 0.931 . S
H2229 C2203 0.929 . S
H2230 C2204 0.930 . S
H2231 C2205 0.931 . S
H2232 C2212 0.932 . S
H2233 C2213 0.930 . S
H2234 C2214 0.929 . S
H2235 C2216 0.930 . S
H2236 C2218 0.932 . S
H2237 C2219 0.929 . S
H2238 C2220 0.928 . S
H2239 C2222 0.932 . S
C2240 C2241 1.264 . S
C2240 C2245 1.479 . S
C2240 C2250 1.465 . S
C2241 C2240 1.264 . S
C2241 C2243 1.339 . S
C2241 H2268 0.931 . S
C2242 C2243 1.395 . S
C2242 C2244 1.320 . S
C2243 C2241 1.339 . S
C2243 C2242 1.395 . S
C2243 H2269 0.929 . S
C2244 C2242 1.320 . S
C2244 C2245 1.405 . S
C2244 H2270 0.930 . S
C2245 C2240 1.479 . S
C2245 C2244 1.405 . S
C2245 H2271 0.931 . S
U2246 O2247 2.454 . S
U2246 O2248 2.458 . S
U2246 C2249 2.984 . S
U2246 C2250 2.847 . S
U2246 C2263 2.882 . S
U2246 O2264 2.441 . S
U2246 O2265 2.420 . S
U2246 O2266 2.455 . S
U2246 O2267 2.449 . S
O2247 U2246 2.454 . S
O2247 C2249 1.353 . S
O2248 U2246 2.458 . S
O2248 C2249 1.286 . S
C2249 U2246 2.984 . S
C2249 O2247 1.353 . S
C2249 O2248 1.286 . S
C2249 C2251 1.363 . S
C2250 C2240 1.465 . S
C2250 U2246 2.847 . S
C2250 O2264 1.249 . S
C2250 O2265 1.202 . S
C2251 C2249 1.363 . S
C2251 C2253 1.408 . S
C2251 C2256 1.342 . S
C2252 C2253 1.310 . S
C2252 C2255 1.461 . S
C2252 H2272 0.932 . S
C2253 C2251 1.408 . S
C2253 C2252 1.310 . S
C2253 H2273 0.930 . S
C2254 C2255 1.474 . S
C2254 C2256 1.285 . S
C2254 H2274 0.929 . S
C2255 C2252 1.461 . S
C2255 C2254 1.474 . S
C2256 C2251 1.342 . S
C2256 C2254 1.285 . S
C2256 H2275 0.930 . S
C2257 C2260 1.424 . S
C2257 C2262 1.245 . S
C2257 C2263 1.428 . S
C2258 C2261 1.260 . S
C2258 C2262 1.477 . S
C2258 H2276 0.932 . S
C2259 C2260 1.384 . S
C2259 C2261 1.479 . S
C2259 H2277 0.929 . S
C2260 C2257 1.424 . S
C2260 C2259 1.384 . S
C2260 H2278 0.928 . S
C2261 C2258 1.260 . S
C2261 C2259 1.479 . S
C2262 C2257 1.245 . S
C2262 C2258 1.477 . S
C2262 H2279 0.932 . S
C2263 U2246 2.882 . S
C2263 C2257 1.428 . S
C2263 O2266 1.301 . S
C2263 O2267 1.282 . S
O2264 U2246 2.441 . S
O2264 C2250 1.249 . S
O2265 U2246 2.420 . S
O2265 C2250 1.202 . S
O2266 U2246 2.455 . S
O2266 C2263 1.301 . S
O2267 U2246 2.449 . S
O2267 C2263 1.282 . S
H2268 C2241 0.931 . S
H2269 C2243 0.929 . S
H2270 C2244 0.930 . S
H2271 C2245 0.931 . S
H2272 C2252 0.932 . S
H2273 C2253 0.930 . S
H2274 C2254 0.929 . S
H2275 C2256 0.930 . S
H2276 C2258 0.932 . S
H2277 C2259 0.929 . S
H2278 C2260 0.928 . S
H2279 C2262 0.932 . S
C2280 C2281 1.264 . S
C2280 C2285 1.479 . S
C2280 C2290 1.465 . S
C2281 C2280 1.264 . S
C2281 C2283 1.339 . S
C2281 H2308 0.931 . S
C2282 C2283 1.395 . S
C2282 C2284 1.320 . S
C2283 C2281 1.339 . S
C2283 C2282 1.395 . S
C2283 H2309 0.929 . S
C2284 C2282 1.320 . S
C2284 C2285 1.405 . S
C2284 H2310 0.930 . S
C2285 C2280 1.479 . S
C2285 C2284 1.405 . S
C2285 H2311 0.931 . S
U2286 O2287 2.454 . S
U2286 O2288 2.458 . S
U2286 C2289 2.984 . S
U2286 C2290 2.847 . S
U2286 C2303 2.882 . S
U2286 O2304 2.441 . S
U2286 O2305 2.420 . S
U2286 O2306 2.455 . S
U2286 O2307 2.449 . S
O2287 U2286 2.454 . S
O2287 C2289 1.353 . S
O2288 U2286 2.458 . S
O2288 C2289 1.286 . S
C2289 U2286 2.984 . S
C2289 O2287 1.353 . S
C2289 O2288 1.286 . S
C2289 C2291 1.363 . S
C2290 C2280 1.465 . S
C2290 U2286 2.847 . S
C2290 O2304 1.249 . S
C2290 O2305 1.202 . S
C2291 C2289 1.363 . S
C2291 C2293 1.408 . S
C2291 C2296 1.342 . S
C2292 C2293 1.310 . S
C2292 C2295 1.461 . S
C2292 H2312 0.932 . S
C2293 C2291 1.408 . S
C2293 C2292 1.310 . S
C2293 H2313 0.930 . S
C2294 C2295 1.474 . S
C2294 C2296 1.285 . S
C2294 H2314 0.929 . S
C2295 C2292 1.461 . S
C2295 C2294 1.474 . S
C2296 C2291 1.342 . S
C2296 C2294 1.285 . S
C2296 H2315 0.930 . S
C2297 C2300 1.424 . S
C2297 C2302 1.245 . S
C2297 C2303 1.428 . S
C2298 C2301 1.260 . S
C2298 C2302 1.477 . S
C2298 H2316 0.932 . S
C2299 C2300 1.384 . S
C2299 C2301 1.479 . S
C2299 H2317 0.929 . S
C2300 C2297 1.424 . S
C2300 C2299 1.384 . S
C2300 H2318 0.928 . S
C2301 C2298 1.260 . S
C2301 C2299 1.479 . S
C2302 C2297 1.245 . S
C2302 C2298 1.477 . S
C2302 H2319 0.932 . S
C2303 U2286 2.882 . S
C2303 C2297 1.428 . S
C2303 O2306 1.301 . S
C2303 O2307 1.282 . S
O2304 U2286 2.441 . S
O2304 C2290 1.249 . S
O2305 U2286 2.420 . S
O2305 C2290 1.202 . S
O2306 U2286 2.455 . S
O2306 C2303 1.301 . S
O2307 U2286 2.449 . S
O2307 C2303 1.282 . S
H2308 C2281 0.931 . S
H2309 C2283 0.929 . S
H2310 C2284 0.930 . S
H2311 C2285 0.931 . S
H2312 C2292 0.932 . S
H2313 C2293 0.930 . S
H2314 C2294 0.929 . S
H2315 C2296 0.930 . S
H2316 C2298 0.932 . S
H2317 C2299 0.929 . S
H2318 C2300 0.928 . S
H2319 C2302 0.932 . S
C2320 C2321 1.264 . S
C2320 C2325 1.479 . S
C2320 C2330 1.465 . S
C2321 C2320 1.264 . S
C2321 C2323 1.339 . S
C2321 H2348 0.931 . S
C2322 C2323 1.395 . S
C2322 C2324 1.320 . S
C2323 C2321 1.339 . S
C2323 C2322 1.395 . S
C2323 H2349 0.929 . S
C2324 C2322 1.320 . S
C2324 C2325 1.405 . S
C2324 H2350 0.930 . S
C2325 C2320 1.479 . S
C2325 C2324 1.405 . S
C2325 H2351 0.931 . S
U2326 O2327 2.454 . S
U2326 O2328 2.458 . S
U2326 C2329 2.984 . S
U2326 C2330 2.847 . S
U2326 C2343 2.882 . S
U2326 O2344 2.441 . S
U2326 O2345 2.420 . S
U2326 O2346 2.455 . S
U2326 O2347 2.449 . S
O2327 U2326 2.454 . S
O2327 C2329 1.353 . S
O2328 U2326 2.458 . S
O2328 C2329 1.286 . S
C2329 U2326 2.984 . S
C2329 O2327 1.353 . S
C2329 O2328 1.286 . S
C2329 C2331 1.363 . S
C2330 C2320 1.465 . S
C2330 U2326 2.847 . S
C2330 O2344 1.249 . S
C2330 O2345 1.202 . S
C2331 C2329 1.363 . S
C2331 C2333 1.408 . S
C2331 C2336 1.342 . S
C2332 C2333 1.310 . S
C2332 C2335 1.461 . S
C2332 H2352 0.932 . S
C2333 C2331 1.408 . S
C2333 C2332 1.310 . S
C2333 H2353 0.930 . S
C2334 C2335 1.474 . S
C2334 C2336 1.285 . S
C2334 H2354 0.929 . S
C2335 C2332 1.461 . S
C2335 C2334 1.474 . S
C2336 C2331 1.342 . S
C2336 C2334 1.285 . S
C2336 H2355 0.930 . S
C2337 C2340 1.424 . S
C2337 C2342 1.245 . S
C2337 C2343 1.428 . S
C2338 C2341 1.260 . S
C2338 C2342 1.477 . S
C2338 H2356 0.932 . S
C2339 C2340 1.384 . S
C2339 C2341 1.479 . S
C2339 H2357 0.929 . S
C2340 C2337 1.424 . S
C2340 C2339 1.384 . S
C2340 H2358 0.928 . S
C2341 C2338 1.260 . S
C2341 C2339 1.479 . S
C2342 C2337 1.245 . S
C2342 C2338 1.477 . S
C2342 H2359 0.932 . S
C2343 U2326 2.882 . S
C2343 C2337 1.428 . S
C2343 O2346 1.301 . S
C2343 O2347 1.282 . S
O2344 U2326 2.441 . S
O2344 C2330 1.249 . S
O2345 U2326 2.420 . S
O2345 C2330 1.202 . S
O2346 U2326 2.455 . S
O2346 C2343 1.301 . S
O2347 U2326 2.449 . S
O2347 C2343 1.282 . S
H2348 C2321 0.931 . S
H2349 C2323 0.929 . S
H2350 C2324 0.930 . S
H2351 C2325 0.931 . S
H2352 C2332 0.932 . S
H2353 C2333 0.930 . S
H2354 C2334 0.929 . S
H2355 C2336 0.930 . S
H2356 C2338 0.932 . S
H2357 C2339 0.929 . S
H2358 C2340 0.928 . S
H2359 C2342 0.932 . S
C2360 C2361 1.264 . S
C2360 C2365 1.479 . S
C2360 C2370 1.465 . S
C2361 C2360 1.264 . S
C2361 C2363 1.339 . S
C2361 H2388 0.931 . S
C2362 C2363 1.395 . S
C2362 C2364 1.320 . S
C2363 C2361 1.339 . S
C2363 C2362 1.395 . S
C2363 H2389 0.929 . S
C2364 C2362 1.320 . S
C2364 C2365 1.405 . S
C2364 H2390 0.930 . S
C2365 C2360 1.479 . S
C2365 C2364 1.405 . S
C2365 H2391 0.931 . S
U2366 O2367 2.454 . S
U2366 O2368 2.458 . S
U2366 C2369 2.984 . S
U2366 C2370 2.847 . S
U2366 C2383 2.882 . S
U2366 O2384 2.441 . S
U2366 O2385 2.420 . S
U2366 O2386 2.455 . S
U2366 O2387 2.449 . S
O2367 U2366 2.454 . S
O2367 C2369 1.353 . S
O2368 U2366 2.458 . S
O2368 C2369 1.286 . S
C2369 U2366 2.984 . S
C2369 O2367 1.353 . S
C2369 O2368 1.286 . S
C2369 C2371 1.363 . S
C2370 C2360 1.465 . S
C2370 U2366 2.847 . S
C2370 O2384 1.249 . S
C2370 O2385 1.202 . S
C2371 C2369 1.363 . S
C2371 C2373 1.408 . S
C2371 C2376 1.342 . S
C2372 C2373 1.310 . S
C2372 C2375 1.461 . S
C2372 H2392 0.932 . S
C2373 C2371 1.408 . S
C2373 C2372 1.310 . S
C2373 H2393 0.930 . S
C2374 C2375 1.474 . S
C2374 C2376 1.285 . S
C2374 H2394 0.929 . S
C2375 C2372 1.461 . S
C2375 C2374 1.474 . S
C2376 C2371 1.342 . S
C2376 C2374 1.285 . S
C2376 H2395 0.930 . S
C2377 C2380 1.424 . S
C2377 C2382 1.245 . S
C2377 C2383 1.428 . S
C2378 C2381 1.260 . S
C2378 C2382 1.477 . S
C2378 H2396 0.932 . S
C2379 C2380 1.384 . S
C2379 C2381 1.479 . S
C2379 H2397 0.929 . S
C2380 C2377 1.424 . S
C2380 C2379 1.384 . S
C2380 H2398 0.928 . S
C2381 C2378 1.260 . S
C2381 C2379 1.479 . S
C2382 C2377 1.245 . S
C2382 C2378 1.477 . S
C2382 H2399 0.932 . S
C2383 U2366 2.882 . S
C2383 C2377 1.428 . S
C2383 O2386 1.301 . S
C2383 O2387 1.282 . S
O2384 U2366 2.441 . S
O2384 C2370 1.249 . S
O2385 U2366 2.420 . S
O2385 C2370 1.202 . S
O2386 U2366 2.455 . S
O2386 C2383 1.301 . S
O2387 U2366 2.449 . S
O2387 C2383 1.282 . S
H2388 C2361 0.931 . S
H2389 C2363 0.929 . S
H2390 C2364 0.930 . S
H2391 C2365 0.931 . S
H2392 C2372 0.932 . S
H2393 C2373 0.930 . S
H2394 C2374 0.929 . S
H2395 C2376 0.930 . S
H2396 C2378 0.932 . S
H2397 C2379 0.929 . S
H2398 C2380 0.928 . S
H2399 C2382 0.932 . S
C2400 C2401 1.264 . S
C2400 C2405 1.479 . S
C2400 C2410 1.465 . S
C2401 C2400 1.264 . S
C2401 C2403 1.339 . S
C2401 H2428 0.931 . S
C2402 C2403 1.395 . S
C2402 C2404 1.320 . S
C2403 C2401 1.339 . S
C2403 C2402 1.395 . S
C2403 H2429 0.929 . S
C2404 C2402 1.320 . S
C2404 C2405 1.405 . S
C2404 H2430 0.930 . S
C2405 C2400 1.479 . S
C2405 C2404 1.405 . S
C2405 H2431 0.931 . S
U2406 O2407 2.454 . S
U2406 O2408 2.458 . S
U2406 C2409 2.984 . S
U2406 C2410 2.847 . S
U2406 C2423 2.882 . S
U2406 O2424 2.441 . S
U2406 O2425 2.420 . S
U2406 O2426 2.455 . S
U2406 O2427 2.449 . S
O2407 U2406 2.454 . S
O2407 C2409 1.353 . S
O2408 U2406 2.458 . S
O2408 C2409 1.286 . S
C2409 U2406 2.984 . S
C2409 O2407 1.353 . S
C2409 O2408 1.286 . S
C2409 C2411 1.363 . S
C2410 C2400 1.465 . S
C2410 U2406 2.847 . S
C2410 O2424 1.249 . S
C2410 O2425 1.202 . S
C2411 C2409 1.363 . S
C2411 C2413 1.408 . S
C2411 C2416 1.342 . S
C2412 C2413 1.310 . S
C2412 C2415 1.461 . S
C2412 H2432 0.932 . S
C2413 C2411 1.408 . S
C2413 C2412 1.310 . S
C2413 H2433 0.930 . S
C2414 C2415 1.474 . S
C2414 C2416 1.285 . S
C2414 H2434 0.929 . S
C2415 C2412 1.461 . S
C2415 C2414 1.474 . S
C2416 C2411 1.342 . S
C2416 C2414 1.285 . S
C2416 H2435 0.930 . S
C2417 C2420 1.424 . S
C2417 C2422 1.245 . S
C2417 C2423 1.428 . S
C2418 C2421 1.260 . S
C2418 C2422 1.477 . S
C2418 H2436 0.932 . S
C2419 C2420 1.384 . S
C2419 C2421 1.479 . S
C2419 H2437 0.929 . S
C2420 C2417 1.424 . S
C2420 C2419 1.384 . S
C2420 H2438 0.928 . S
C2421 C2418 1.260 . S
C2421 C2419 1.479 . S
C2422 C2417 1.245 . S
C2422 C2418 1.477 . S
C2422 H2439 0.932 . S
C2423 U2406 2.882 . S
C2423 C2417 1.428 . S
C2423 O2426 1.301 . S
C2423 O2427 1.282 . S
O2424 U2406 2.441 . S
O2424 C2410 1.249 . S
O2425 U2406 2.420 . S
O2425 C2410 1.202 . S
O2426 U2406 2.455 . S
O2426 C2423 1.301 . S
O2427 U2406 2.449 . S
O2427 C2423 1.282 . S
H2428 C2401 0.931 . S
H2429 C2403 0.929 . S
H2430 C2404 0.930 . S
H2431 C2405 0.931 . S
H2432 C2412 0.932 . S
H2433 C2413 0.930 . S
H2434 C2414 0.929 . S
H2435 C2416 0.930 . S
H2436 C2418 0.932 . S
H2437 C2419 0.929 . S
H2438 C2420 0.928 . S
H2439 C2422 0.932 . S
C2440 C2441 1.264 . S
C2440 C2445 1.479 . S
C2440 C2450 1.465 . S
C2441 C2440 1.264 . S
C2441 C2443 1.339 . S
C2441 H2468 0.931 . S
C2442 C2443 1.395 . S
C2442 C2444 1.320 . S
C2443 C2441 1.339 . S
C2443 C2442 1.395 . S
C2443 H2469 0.929 . S
C2444 C2442 1.320 . S
C2444 C2445 1.405 . S
C2444 H2470 0.930 . S
C2445 C2440 1.479 . S
C2445 C2444 1.405 . S
C2445 H2471 0.931 . S
U2446 O2447 2.454 . S
U2446 O2448 2.458 . S
U2446 C2449 2.984 . S
U2446 C2450 2.847 . S
U2446 C2463 2.882 . S
U2446 O2464 2.441 . S
U2446 O2465 2.420 . S
U2446 O2466 2.455 . S
U2446 O2467 2.449 . S
O2447 U2446 2.454 . S
O2447 C2449 1.353 . S
O2448 U2446 2.458 . S
O2448 C2449 1.286 . S
C2449 U2446 2.984 . S
C2449 O2447 1.353 . S
C2449 O2448 1.286 . S
C2449 C2451 1.363 . S
C2450 C2440 1.465 . S
C2450 U2446 2.847 . S
C2450 O2464 1.249 . S
C2450 O2465 1.202 . S
C2451 C2449 1.363 . S
C2451 C2453 1.408 . S
C2451 C2456 1.342 . S
C2452 C2453 1.310 . S
C2452 C2455 1.461 . S
C2452 H2472 0.932 . S
C2453 C2451 1.408 . S
C2453 C2452 1.310 . S
C2453 H2473 0.930 . S
C2454 C2455 1.474 . S
C2454 C2456 1.285 . S
C2454 H2474 0.929 . S
C2455 C2452 1.461 . S
C2455 C2454 1.474 . S
C2456 C2451 1.342 . S
C2456 C2454 1.285 . S
C2456 H2475 0.930 . S
C2457 C2460 1.424 . S
C2457 C2462 1.245 . S
C2457 C2463 1.428 . S
C2458 C2461 1.260 . S
C2458 C2462 1.477 . S
C2458 H2476 0.932 . S
C2459 C2460 1.384 . S
C2459 C2461 1.479 . S
C2459 H2477 0.929 . S
C2460 C2457 1.424 . S
C2460 C2459 1.384 . S
C2460 H2478 0.928 . S
C2461 C2458 1.260 . S
C2461 C2459 1.479 . S
C2462 C2457 1.245 . S
C2462 C2458 1.477 . S
C2462 H2479 0.932 . S
C2463 U2446 2.882 . S
C2463 C2457 1.428 . S
C2463 O2466 1.301 . S
C2463 O2467 1.282 . S
O2464 U2446 2.441 . S
O2464 C2450 1.249 . S
O2465 U2446 2.420 . S
O2465 C2450 1.202 . S
O2466 U2446 2.455 . S
O2466 C2463 1.301 . S
O2467 U2446 2.449 . S
O2467 C2463 1.282 . S
H2468 C2441 0.931 . S
H2469 C2443 0.929 . S
H2470 C2444 0.930 . S
H2471 C2445 0.931 . S
H2472 C2452 0.932 . S
H2473 C2453 0.930 . S
H2474 C2454 0.929 . S
H2475 C2456 0.930 . S
H2476 C2458 0.932 . S
H2477 C2459 0.929 . S
H2478 C2460 0.928 . S
H2479 C2462 0.932 . S
C2480 C2481 1.264 . S
C2480 C2485 1.479 . S
C2480 C2490 1.465 . S
C2481 C2480 1.264 . S
C2481 C2483 1.339 . S
C2481 H2508 0.931 . S
C2482 C2483 1.395 . S
C2482 C2484 1.320 . S
C2483 C2481 1.339 . S
C2483 C2482 1.395 . S
C2483 H2509 0.929 . S
C2484 C2482 1.320 . S
C2484 C2485 1.405 . S
C2484 H2510 0.930 . S
C2485 C2480 1.479 . S
C2485 C2484 1.405 . S
C2485 H2511 0.931 . S
U2486 O2487 2.454 . S
U2486 O2488 2.458 . S
U2486 C2489 2.984 . S
U2486 C2490 2.847 . S
U2486 C2503 2.882 . S
U2486 O2504 2.441 . S
U2486 O2505 2.420 . S
U2486 O2506 2.455 . S
U2486 O2507 2.449 . S
O2487 U2486 2.454 . S
O2487 C2489 1.353 . S
O2488 U2486 2.458 . S
O2488 C2489 1.286 . S
C2489 U2486 2.984 . S
C2489 O2487 1.353 . S
C2489 O2488 1.286 . S
C2489 C2491 1.363 . S
C2490 C2480 1.465 . S
C2490 U2486 2.847 . S
C2490 O2504 1.249 . S
C2490 O2505 1.202 . S
C2491 C2489 1.363 . S
C2491 C2493 1.408 . S
C2491 C2496 1.342 . S
C2492 C2493 1.310 . S
C2492 C2495 1.461 . S
C2492 H2512 0.932 . S
C2493 C2491 1.408 . S
C2493 C2492 1.310 . S
C2493 H2513 0.930 . S
C2494 C2495 1.474 . S
C2494 C2496 1.285 . S
C2494 H2514 0.929 . S
C2495 C2492 1.461 . S
C2495 C2494 1.474 . S
C2496 C2491 1.342 . S
C2496 C2494 1.285 . S
C2496 H2515 0.930 . S
C2497 C2500 1.424 . S
C2497 C2502 1.245 . S
C2497 C2503 1.428 . S
C2498 C2501 1.260 . S
C2498 C2502 1.477 . S
C2498 H2516 0.932 . S
C2499 C2500 1.384 . S
C2499 C2501 1.479 . S
C2499 H2517 0.929 . S
C2500 C2497 1.424 . S
C2500 C2499 1.384 . S
C2500 H2518 0.928 . S
C2501 C2498 1.260 . S
C2501 C2499 1.479 . S
C2502 C2497 1.245 . S
C2502 C2498 1.477 . S
C2502 H2519 0.932 . S
C2503 U2486 2.882 . S
C2503 C2497 1.428 . S
C2503 O2506 1.301 . S
C2503 O2507 1.282 . S
O2504 U2486 2.441 . S
O2504 C2490 1.249 . S
O2505 U2486 2.420 . S
O2505 C2490 1.202 . S
O2506 U2486 2.455 . S
O2506 C2503 1.301 . S
O2507 U2486 2.449 . S
O2507 C2503 1.282 . S
H2508 C2481 0.931 . S
H2509 C2483 0.929 . S
H2510 C2484 0.930 . S
H2511 C2485 0.931 . S
H2512 C2492 0.932 . S
H2513 C2493 0.930 . S
H2514 C2494 0.929 . S
H2515 C2496 0.930 . S
H2516 C2498 0.932 . S
H2517 C2499 0.929 . S
H2518 C2500 0.928 . S
H2519 C2502 0.932 . S
C2520 C2521 1.264 . S
C2520 C2525 1.479 . S
C2520 C2530 1.465 . S
C2521 C2520 1.264 . S
C2521 C2523 1.339 . S
C2521 H2548 0.931 . S
C2522 C2523 1.395 . S
C2522 C2524 1.320 . S
C2523 C2521 1.339 . S
C2523 C2522 1.395 . S
C2523 H2549 0.929 . S
C2524 C2522 1.320 . S
C2524 C2525 1.405 . S
C2524 H2550 0.930 . S
C2525 C2520 1.479 . S
C2525 C2524 1.405 . S
C2525 H2551 0.931 . S
U2526 O2527 2.454 . S
U2526 O2528 2.458 . S
U2526 C2529 2.984 . S
U2526 C2530 2.847 . S
U2526 C2543 2.882 . S
U2526 O2544 2.441 . S
U2526 O2545 2.420 . S
U2526 O2546 2.455 . S
U2526 O2547 2.449 . S
O2527 U2526 2.454 . S
O2527 C2529 1.353 . S
O2528 U2526 2.458 . S
O2528 C2529 1.286 . S
C2529 U2526 2.984 . S
C2529 O2527 1.353 . S
C2529 O2528 1.286 . S
C2529 C2531 1.363 . S
C2530 C2520 1.465 . S
C2530 U2526 2.847 . S
C2530 O2544 1.249 . S
C2530 O2545 1.202 . S
C2531 C2529 1.363 . S
C2531 C2533 1.408 . S
C2531 C2536 1.342 . S
C2532 C2533 1.310 . S
C2532 C2535 1.461 . S
C2532 H2552 0.932 . S
C2533 C2531 1.408 . S
C2533 C2532 1.310 . S
C2533 H2553 0.930 . S
C2534 C2535 1.474 . S
C2534 C2536 1.285 . S
C2534 H2554 0.929 . S
C2535 C2532 1.461 . S
C2535 C2534 1.474 . S
C2536 C2531 1.342 . S
C2536 C2534 1.285 . S
C2536 H2555 0.930 . S
C2537 C2540 1.424 . S
C2537 C2542 1.245 . S
C2537 C2543 1.428 . S
C2538 C2541 1.260 . S
C2538 C2542 1.477 . S
C2538 H2556 0.932 . S
C2539 C2540 1.384 . S
C2539 C2541 1.479 . S
C2539 H2557 0.929 . S
C2540 C2537 1.424 . S
C2540 C2539 1.384 . S
C2540 H2558 0.928 . S
C2541 C2538 1.260 . S
C2541 C2539 1.479 . S
C2542 C2537 1.245 . S
C2542 C2538 1.477 . S
C2542 H2559 0.932 . S
C2543 U2526 2.882 . S
C2543 C2537 1.428 . S
C2543 O2546 1.301 . S
C2543 O2547 1.282 . S
O2544 U2526 2.441 . S
O2544 C2530 1.249 . S
O2545 U2526 2.420 . S
O2545 C2530 1.202 . S
O2546 U2526 2.455 . S
O2546 C2543 1.301 . S
O2547 U2526 2.449 . S
O2547 C2543 1.282 . S
H2548 C2521 0.931 . S
H2549 C2523 0.929 . S
H2550 C2524 0.930 . S
H2551 C2525 0.931 . S
H2552 C2532 0.932 . S
H2553 C2533 0.930 . S
H2554 C2534 0.929 . S
H2555 C2536 0.930 . S
H2556 C2538 0.932 . S
H2557 C2539 0.929 . S
H2558 C2540 0.928 . S
H2559 C2542 0.932 . S
C2560 C2561 1.264 . S
C2560 C2565 1.479 . S
C2560 C2570 1.465 . S
C2561 C2560 1.264 . S
C2561 C2563 1.339 . S
C2561 H2588 0.931 . S
C2562 C2563 1.395 . S
C2562 C2564 1.320 . S
C2563 C2561 1.339 . S
C2563 C2562 1.395 . S
C2563 H2589 0.929 . S
C2564 C2562 1.320 . S
C2564 C2565 1.405 . S
C2564 H2590 0.930 . S
C2565 C2560 1.479 . S
C2565 C2564 1.405 . S
C2565 H2591 0.931 . S
U2566 O2567 2.454 . S
U2566 O2568 2.458 . S
U2566 C2569 2.984 . S
U2566 C2570 2.847 . S
U2566 C2583 2.882 . S
U2566 O2584 2.441 . S
U2566 O2585 2.420 . S
U2566 O2586 2.455 . S
U2566 O2587 2.449 . S
O2567 U2566 2.454 . S
O2567 C2569 1.353 . S
O2568 U2566 2.458 . S
O2568 C2569 1.286 . S
C2569 U2566 2.984 . S
C2569 O2567 1.353 . S
C2569 O2568 1.286 . S
C2569 C2571 1.363 . S
C2570 C2560 1.465 . S
C2570 U2566 2.847 . S
C2570 O2584 1.249 . S
C2570 O2585 1.202 . S
C2571 C2569 1.363 . S
C2571 C2573 1.408 . S
C2571 C2576 1.342 . S
C2572 C2573 1.310 . S
C2572 C2575 1.461 . S
C2572 H2592 0.932 . S
C2573 C2571 1.408 . S
C2573 C2572 1.310 . S
C2573 H2593 0.930 . S
C2574 C2575 1.474 . S
C2574 C2576 1.285 . S
C2574 H2594 0.929 . S
C2575 C2572 1.461 . S
C2575 C2574 1.474 . S
C2576 C2571 1.342 . S
C2576 C2574 1.285 . S
C2576 H2595 0.930 . S
C2577 C2580 1.424 . S
C2577 C2582 1.245 . S
C2577 C2583 1.428 . S
C2578 C2581 1.260 . S
C2578 C2582 1.477 . S
C2578 H2596 0.932 . S
C2579 C2580 1.384 . S
C2579 C2581 1.479 . S
C2579 H2597 0.929 . S
C2580 C2577 1.424 . S
C2580 C2579 1.384 . S
C2580 H2598 0.928 . S
C2581 C2578 1.260 . S
C2581 C2579 1.479 . S
C2582 C2577 1.245 . S
C2582 C2578 1.477 . S
C2582 H2599 0.932 . S
C2583 U2566 2.882 . S
C2583 C2577 1.428 . S
C2583 O2586 1.301 . S
C2583 O2587 1.282 . S
O2584 U2566 2.441 . S
O2584 C2570 1.249 . S
O2585 U2566 2.420 . S
O2585 C2570 1.202 . S
O2586 U2566 2.455 . S
O2586 C2583 1.301 . S
O2587 U2566 2.449 . S
O2587 C2583 1.282 . S
H2588 C2561 0.931 . S
H2589 C2563 0.929 . S
H2590 C2564 0.930 . S
H2591 C2565 0.931 . S
H2592 C2572 0.932 . S
H2593 C2573 0.930 . S
H2594 C2574 0.929 . S
H2595 C2576 0.930 . S
H2596 C2578 0.932 . S
H2597 C2579 0.929 . S
H2598 C2580 0.928 . S
H2599 C2582 0.932 . S
C2600 C2601 1.264 . S
C2600 C2605 1.479 . S
C2600 C2610 1.465 . S
C2601 C2600 1.264 . S
C2601 C2603 1.339 . S
C2601 H2628 0.931 . S
C2602 C2603 1.395 . S
C2602 C2604 1.320 . S
C2603 C2601 1.339 . S
C2603 C2602 1.395 . S
C2603 H2629 0.929 . S
C2604 C2602 1.320 . S
C2604 C2605 1.405 . S
C2604 H2630 0.930 . S
C2605 C2600 1.479 . S
C2605 C2604 1.405 . S
C2605 H2631 0.931 . S
U2606 O2607 2.454 . S
U2606 O2608 2.458 . S
U2606 C2609 2.984 . S
U2606 C2610 2.847 . S
U2606 C2623 2.882 . S
U2606 O2624 2.441 . S
U2606 O2625 2.420 . S
U2606 O2626 2.455 . S
U2606 O2627 2.449 . S
O2607 U2606 2.454 . S
O2607 C2609 1.353 . S
O2608 U2606 2.458 . S
O2608 C2609 1.286 . S
C2609 U2606 2.984 . S
C2609 O2607 1.353 . S
C2609 O2608 1.286 . S
C2609 C2611 1.363 . S
C2610 C2600 1.465 . S
C2610 U2606 2.847 . S
C2610 O2624 1.249 . S
C2610 O2625 1.202 . S
C2611 C2609 1.363 . S
C2611 C2613 1.408 . S
C2611 C2616 1.342 . S
C2612 C2613 1.310 . S
C2612 C2615 1.461 . S
C2612 H2632 0.932 . S
C2613 C2611 1.408 . S
C2613 C2612 1.310 . S
C2613 H2633 0.930 . S
C2614 C2615 1.474 . S
C2614 C2616 1.285 . S
C2614 H2634 0.929 . S
C2615 C2612 1.461 . S
C2615 C2614 1.474 . S
C2616 C2611 1.342 . S
C2616 C2614 1.285 . S
C2616 H2635 0.930 . S
C2617 C2620 1.424 . S
C2617 C2622 1.245 . S
C2617 C2623 1.428 . S
C2618 C2621 1.260 . S
C2618 C2622 1.477 . S
C2618 H2636 0.932 . S
C2619 C2620 1.384 . S
C2619 C2621 1.479 . S
C2619 H2637 0.929 . S
C2620 C2617 1.424 . S
C2620 C2619 1.384 . S
C2620 H2638 0.928 . S
C2621 C2618 1.260 . S
C2621 C2619 1.479 . S
C2622 C2617 1.245 . S
C2622 C2618 1.477 . S
C2622 H2639 0.932 . S
C2623 U2606 2.882 . S
C2623 C2617 1.428 . S
C2623 O2626 1.301 . S
C2623 O2627 1.282 . S
O2624 U2606 2.441 . S
O2624 C2610 1.249 . S
O2625 U2606 2.420 . S
O2625 C2610 1.202 . S
O2626 U2606 2.455 . S
O2626 C2623 1.301 . S
O2627 U2606 2.449 . S
O2627 C2623 1.282 . S
H2628 C2601 0.931 . S
H2629 C2603 0.929 . S
H2630 C2604 0.930 . S
H2631 C2605 0.931 . S
H2632 C2612 0.932 . S
H2633 C2613 0.930 . S
H2634 C2614 0.929 . S
H2635 C2616 0.930 . S
H2636 C2618 0.932 . S
H2637 C2619 0.929 . S
H2638 C2620 0.928 . S
H2639 C2622 0.932 . S
C2640 C2641 1.264 . S
C2640 C2645 1.479 . S
C2640 C2650 1.465 . S
C2641 C2640 1.264 . S
C2641 C2643 1.339 . S
C2641 H2668 0.931 . S
C2642 C2643 1.395 . S
C2642 C2644 1.320 . S
C2643 C2641 1.339 . S
C2643 C2642 1.395 . S
C2643 H2669 0.929 . S
C2644 C2642 1.320 . S
C2644 C2645 1.405 . S
C2644 H2670 0.930 . S
C2645 C2640 1.479 . S
C2645 C2644 1.405 . S
C2645 H2671 0.931 . S
U2646 O2647 2.454 . S
U2646 O2648 2.458 . S
U2646 C2649 2.984 . S
U2646 C2650 2.847 . S
U2646 C2663 2.882 . S
U2646 O2664 2.441 . S
U2646 O2665 2.420 . S
U2646 O2666 2.455 . S
U2646 O2667 2.449 . S
O2647 U2646 2.454 . S
O2647 C2649 1.353 . S
O2648 U2646 2.458 . S
O2648 C2649 1.286 . S
C2649 U2646 2.984 . S
C2649 O2647 1.353 . S
C2649 O2648 1.286 . S
C2649 C2651 1.363 . S
C2650 C2640 1.465 . S
C2650 U2646 2.847 . S
C2650 O2664 1.249 . S
C2650 O2665 1.202 . S
C2651 C2649 1.363 . S
C2651 C2653 1.408 . S
C2651 C2656 1.342 . S
C2652 C2653 1.310 . S
C2652 C2655 1.461 . S
C2652 H2672 0.932 . S
C2653 C2651 1.408 . S
C2653 C2652 1.310 . S
C2653 H2673 0.930 . S
C2654 C2655 1.474 . S
C2654 C2656 1.285 . S
C2654 H2674 0.929 . S
C2655 C2652 1.461 . S
C2655 C2654 1.474 . S
C2656 C2651 1.342 . S
C2656 C2654 1.285 . S
C2656 H2675 0.930 . S
C2657 C2660 1.424 . S
C2657 C2662 1.245 . S
C2657 C2663 1.428 . S
C2658 C2661 1.260 . S
C2658 C2662 1.477 . S
C2658 H2676 0.932 . S
C2659 C2660 1.384 . S
C2659 C2661 1.479 . S
C2659 H2677 0.929 . S
C2660 C2657 1.424 . S
C2660 C2659 1.384 . S
C2660 H2678 0.928 . S
C2661 C2658 1.260 . S
C2661 C2659 1.479 . S
C2662 C2657 1.245 . S
C2662 C2658 1.477 . S
C2662 H2679 0.932 . S
C2663 U2646 2.882 . S
C2663 C2657 1.428 . S
C2663 O2666 1.301 . S
C2663 O2667 1.282 . S
O2664 U2646 2.441 . S
O2664 C2650 1.249 . S
O2665 U2646 2.420 . S
O2665 C2650 1.202 . S
O2666 U2646 2.455 . S
O2666 C2663 1.301 . S
O2667 U2646 2.449 . S
O2667 C2663 1.282 . S
H2668 C2641 0.931 . S
H2669 C2643 0.929 . S
H2670 C2644 0.930 . S
H2671 C2645 0.931 . S
H2672 C2652 0.932 . S
H2673 C2653 0.930 . S
H2674 C2654 0.929 . S
H2675 C2656 0.930 . S
H2676 C2658 0.932 . S
H2677 C2659 0.929 . S
H2678 C2660 0.928 . S
H2679 C2662 0.932 . S
C2680 C2681 1.264 . S
C2680 C2685 1.479 . S
C2680 C2690 1.465 . S
C2681 C2680 1.264 . S
C2681 C2683 1.339 . S
C2681 H2708 0.931 . S
C2682 C2683 1.395 . S
C2682 C2684 1.320 . S
C2683 C2681 1.339 . S
C2683 C2682 1.395 . S
C2683 H2709 0.929 . S
C2684 C2682 1.320 . S
C2684 C2685 1.405 . S
C2684 H2710 0.930 . S
C2685 C2680 1.479 . S
C2685 C2684 1.405 . S
C2685 H2711 0.931 . S
U2686 O2687 2.454 . S
U2686 O2688 2.458 . S
U2686 C2689 2.984 . S
U2686 C2690 2.847 . S
U2686 C2703 2.882 . S
U2686 O2704 2.441 . S
U2686 O2705 2.420 . S
U2686 O2706 2.455 . S
U2686 O2707 2.449 . S
O2687 U2686 2.454 . S
O2687 C2689 1.353 . S
O2688 U2686 2.458 . S
O2688 C2689 1.286 . S
C2689 U2686 2.984 . S
C2689 O2687 1.353 . S
C2689 O2688 1.286 . S
C2689 C2691 1.363 . S
C2690 C2680 1.465 . S
C2690 U2686 2.847 . S
C2690 O2704 1.249 . S
C2690 O2705 1.202 . S
C2691 C2689 1.363 . S
C2691 C2693 1.408 . S
C2691 C2696 1.342 . S
C2692 C2693 1.310 . S
C2692 C2695 1.461 . S
C2692 H2712 0.932 . S
C2693 C2691 1.408 . S
C2693 C2692 1.310 . S
C2693 H2713 0.930 . S
C2694 C2695 1.474 . S
C2694 C2696 1.285 . S
C2694 H2714 0.929 . S
C2695 C2692 1.461 . S
C2695 C2694 1.474 . S
C2696 C2691 1.342 . S
C2696 C2694 1.285 . S
C2696 H2715 0.930 . S
C2697 C2700 1.424 . S
C2697 C2702 1.245 . S
C2697 C2703 1.428 . S
C2698 C2701 1.260 . S
C2698 C2702 1.477 . S
C2698 H2716 0.932 . S
C2699 C2700 1.384 . S
C2699 C2701 1.479 . S
C2699 H2717 0.929 . S
C2700 C2697 1.424 . S
C2700 C2699 1.384 . S
C2700 H2718 0.928 . S
C2701 C2698 1.260 . S
C2701 C2699 1.479 . S
C2702 C2697 1.245 . S
C2702 C2698 1.477 . S
C2702 H2719 0.932 . S
C2703 U2686 2.882 . S
C2703 C2697 1.428 . S
C2703 O2706 1.301 . S
C2703 O2707 1.282 . S
O2704 U2686 2.441 . S
O2704 C2690 1.249 . S
O2705 U2686 2.420 . S
O2705 C2690 1.202 . S
O2706 U2686 2.455 . S
O2706 C2703 1.301 . S
O2707 U2686 2.449 . S
O2707 C2703 1.282 . S
H2708 C2681 0.931 . S
H2709 C2683 0.929 . S
H2710 C2684 0.930 . S
H2711 C2685 0.931 . S
H2712 C2692 0.932 . S
H2713 C2693 0.930 . S
H2714 C2694 0.929 . S
H2715 C2696 0.930 . S
H2716 C2698 0.932 . S
H2717 C2699 0.929 . S
H2718 C2700 0.928 . S
H2719 C2702 0.932 . S
C2720 C2721 1.264 . S
C2720 C2725 1.479 . S
C2720 C2730 1.465 . S
C2721 C2720 1.264 . S
C2721 C2723 1.339 . S
C2721 H2748 0.931 . S
C2722 C2723 1.395 . S
C2722 C2724 1.320 . S
C2723 C2721 1.339 . S
C2723 C2722 1.395 . S
C2723 H2749 0.929 . S
C2724 C2722 1.320 . S
C2724 C2725 1.405 . S
C2724 H2750 0.930 . S
C2725 C2720 1.479 . S
C2725 C2724 1.405 . S
C2725 H2751 0.931 . S
U2726 O2727 2.454 . S
U2726 O2728 2.458 . S
U2726 C2729 2.984 . S
U2726 C2730 2.847 . S
U2726 C2743 2.882 . S
U2726 O2744 2.441 . S
U2726 O2745 2.420 . S
U2726 O2746 2.455 . S
U2726 O2747 2.449 . S
O2727 U2726 2.454 . S
O2727 C2729 1.353 . S
O2728 U2726 2.458 . S
O2728 C2729 1.286 . S
C2729 U2726 2.984 . S
C2729 O2727 1.353 . S
C2729 O2728 1.286 . S
C2729 C2731 1.363 . S
C2730 C2720 1.465 . S
C2730 U2726 2.847 . S
C2730 O2744 1.249 . S
C2730 O2745 1.202 . S
C2731 C2729 1.363 . S
C2731 C2733 1.408 . S
C2731 C2736 1.342 . S
C2732 C2733 1.310 . S
C2732 C2735 1.461 . S
C2732 H2752 0.932 . S
C2733 C2731 1.408 . S
C2733 C2732 1.310 . S
C2733 H2753 0.930 . S
C2734 C2735 1.474 . S
C2734 C2736 1.285 . S
C2734 H2754 0.929 . S
C2735 C2732 1.461 . S
C2735 C2734 1.474 . S
C2736 C2731 1.342 . S
C2736 C2734 1.285 . S
C2736 H2755 0.930 . S
C2737 C2740 1.424 . S
C2737 C2742 1.245 . S
C2737 C2743 1.428 . S
C2738 C2741 1.260 . S
C2738 C2742 1.477 . S
C2738 H2756 0.932 . S
C2739 C2740 1.384 . S
C2739 C2741 1.479 . S
C2739 H2757 0.929 . S
C2740 C2737 1.424 . S
C2740 C2739 1.384 . S
C2740 H2758 0.928 . S
C2741 C2738 1.260 . S
C2741 C2739 1.479 . S
C2742 C2737 1.245 . S
C2742 C2738 1.477 . S
C2742 H2759 0.932 . S
C2743 U2726 2.882 . S
C2743 C2737 1.428 . S
C2743 O2746 1.301 . S
C2743 O2747 1.282 . S
O2744 U2726 2.441 . S
O2744 C2730 1.249 . S
O2745 U2726 2.420 . S
O2745 C2730 1.202 . S
O2746 U2726 2.455 . S
O2746 C2743 1.301 . S
O2747 U2726 2.449 . S
O2747 C2743 1.282 . S
H2748 C2721 0.931 . S
H2749 C2723 0.929 . S
H2750 C2724 0.930 . S
H2751 C2725 0.931 . S
H2752 C2732 0.932 . S
H2753 C2733 0.930 . S
H2754 C2734 0.929 . S
H2755 C2736 0.930 . S
H2756 C2738 0.932 . S
H2757 C2739 0.929 . S
H2758 C2740 0.928 . S
H2759 C2742 0.932 . S
C2760 C2761 1.264 . S
C2760 C2765 1.479 . S
C2760 C2770 1.465 . S
C2761 C2760 1.264 . S
C2761 C2763 1.339 . S
C2761 H2788 0.931 . S
C2762 C2763 1.395 . S
C2762 C2764 1.320 . S
C2763 C2761 1.339 . S
C2763 C2762 1.395 . S
C2763 H2789 0.929 . S
C2764 C2762 1.320 . S
C2764 C2765 1.405 . S
C2764 H2790 0.930 . S
C2765 C2760 1.479 . S
C2765 C2764 1.405 . S
C2765 H2791 0.931 . S
U2766 O2767 2.454 . S
U2766 O2768 2.458 . S
U2766 C2769 2.984 . S
U2766 C2770 2.847 . S
U2766 C2783 2.882 . S
U2766 O2784 2.441 . S
U2766 O2785 2.420 . S
U2766 O2786 2.455 . S
U2766 O2787 2.449 . S
O2767 U2766 2.454 . S
O2767 C2769 1.353 . S
O2768 U2766 2.458 . S
O2768 C2769 1.286 . S
C2769 U2766 2.984 . S
C2769 O2767 1.353 . S
C2769 O2768 1.286 . S
C2769 C2771 1.363 . S
C2770 C2760 1.465 . S
C2770 U2766 2.847 . S
C2770 O2784 1.249 . S
C2770 O2785 1.202 . S
C2771 C2769 1.363 . S
C2771 C2773 1.408 . S
C2771 C2776 1.342 . S
C2772 C2773 1.310 . S
C2772 C2775 1.461 . S
C2772 H2792 0.932 . S
C2773 C2771 1.408 . S
C2773 C2772 1.310 . S
C2773 H2793 0.930 . S
C2774 C2775 1.474 . S
C2774 C2776 1.285 . S
C2774 H2794 0.929 . S
C2775 C2772 1.461 . S
C2775 C2774 1.474 . S
C2776 C2771 1.342 . S
C2776 C2774 1.285 . S
C2776 H2795 0.930 . S
C2777 C2780 1.424 . S
C2777 C2782 1.245 . S
C2777 C2783 1.428 . S
C2778 C2781 1.260 . S
C2778 C2782 1.477 . S
C2778 H2796 0.932 . S
C2779 C2780 1.384 . S
C2779 C2781 1.479 . S
C2779 H2797 0.929 . S
C2780 C2777 1.424 . S
C2780 C2779 1.384 . S
C2780 H2798 0.928 . S
C2781 C2778 1.260 . S
C2781 C2779 1.479 . S
C2782 C2777 1.245 . S
C2782 C2778 1.477 . S
C2782 H2799 0.932 . S
C2783 U2766 2.882 . S
C2783 C2777 1.428 . S
C2783 O2786 1.301 . S
C2783 O2787 1.282 . S
O2784 U2766 2.441 . S
O2784 C2770 1.249 . S
O2785 U2766 2.420 . S
O2785 C2770 1.202 . S
O2786 U2766 2.455 . S
O2786 C2783 1.301 . S
O2787 U2766 2.449 . S
O2787 C2783 1.282 . S
H2788 C2761 0.931 . S
H2789 C2763 0.929 . S
H2790 C2764 0.930 . S
H2791 C2765 0.931 . S
H2792 C2772 0.932 . S
H2793 C2773 0.930 . S
H2794 C2774 0.929 . S
H2795 C2776 0.930 . S
H2796 C2778 0.932 . S
H2797 C2779 0.929 . S
H2798 C2780 0.928 . S
H2799 C2782 0.932 . S
C2800 C2801 1.264 . S
C2800 C2805 1.479 . S
C2800 C2810 1.465 . S
C2801 C2800 1.264 . S
C2801 C2803 1.339 . S
C2801 H2828 0.931 . S
C2802 C2803 1.395 . S
C2802 C2804 1.320 . S
C2803 C2801 1.339 . S
C2803 C2802 1.395 . S
C2803 H2829 0.929 . S
C2804 C2802 1.320 . S
C2804 C2805 1.405 . S
C2804 H2830 0.930 . S
C2805 C2800 1.479 . S
C2805 C2804 1.405 . S
C2805 H2831 0.931 . S
U2806 O2807 2.454 . S
U2806 O2808 2.458 . S
U2806 C2809 2.984 . S
U2806 C2810 2.847 . S
U2806 C2823 2.882 . S
U2806 O2824 2.441 . S
U2806 O2825 2.420 . S
U2806 O2826 2.455 . S
U2806 O2827 2.449 . S
O2807 U2806 2.454 . S
O2807 C2809 1.353 . S
O2808 U2806 2.458 . S
O2808 C2809 1.286 . S
C2809 U2806 2.984 . S
C2809 O2807 1.353 . S
C2809 O2808 1.286 . S
C2809 C2811 1.363 . S
C2810 C2800 1.465 . S
C2810 U2806 2.847 . S
C2810 O2824 1.249 . S
C2810 O2825 1.202 . S
C2811 C2809 1.363 . S
C2811 C2813 1.408 . S
C2811 C2816 1.342 . S
C2812 C2813 1.310 . S
C2812 C2815 1.461 . S
C2812 H2832 0.932 . S
C2813 C2811 1.408 . S
C2813 C2812 1.310 . S
C2813 H2833 0.930 . S
C2814 C2815 1.474 . S
C2814 C2816 1.285 . S
C2814 H2834 0.929 . S
C2815 C2812 1.461 . S
C2815 C2814 1.474 . S
C2816 C2811 1.342 . S
C2816 C2814 1.285 . S
C2816 H2835 0.930 . S
C2817 C2820 1.424 . S
C2817 C2822 1.245 . S
C2817 C2823 1.428 . S
C2818 C2821 1.260 . S
C2818 C2822 1.477 . S
C2818 H2836 0.932 . S
C2819 C2820 1.384 . S
C2819 C2821 1.479 . S
C2819 H2837 0.929 . S
C2820 C2817 1.424 . S
C2820 C2819 1.384 . S
C2820 H2838 0.928 . S
C2821 C2818 1.260 . S
C2821 C2819 1.479 . S
C2822 C2817 1.245 . S
C2822 C2818 1.477 . S
C2822 H2839 0.932 . S
C2823 U2806 2.882 . S
C2823 C2817 1.428 . S
C2823 O2826 1.301 . S
C2823 O2827 1.282 . S
O2824 U2806 2.441 . S
O2824 C2810 1.249 . S
O2825 U2806 2.420 . S
O2825 C2810 1.202 . S
O2826 U2806 2.455 . S
O2826 C2823 1.301 . S
O2827 U2806 2.449 . S
O2827 C2823 1.282 . S
H2828 C2801 0.931 . S
H2829 C2803 0.929 . S
H2830 C2804 0.930 . S
H2831 C2805 0.931 . S
H2832 C2812 0.932 . S
H2833 C2813 0.930 . S
H2834 C2814 0.929 . S
H2835 C2816 0.930 . S
H2836 C2818 0.932 . S
H2837 C2819 0.929 . S
H2838 C2820 0.928 . S
H2839 C2822 0.932 . S
C2840 C2841 1.264 . S
C2840 C2845 1.479 . S
C2840 C2850 1.465 . S
C2841 C2840 1.264 . S
C2841 C2843 1.339 . S
C2841 H2868 0.931 . S
C2842 C2843 1.395 . S
C2842 C2844 1.320 . S
C2843 C2841 1.339 . S
C2843 C2842 1.395 . S
C2843 H2869 0.929 . S
C2844 C2842 1.320 . S
C2844 C2845 1.405 . S
C2844 H2870 0.930 . S
C2845 C2840 1.479 . S
C2845 C2844 1.405 . S
C2845 H2871 0.931 . S
U2846 O2847 2.454 . S
U2846 O2848 2.458 . S
U2846 C2849 2.984 . S
U2846 C2850 2.847 . S
U2846 C2863 2.882 . S
U2846 O2864 2.441 . S
U2846 O2865 2.420 . S
U2846 O2866 2.455 . S
U2846 O2867 2.449 . S
O2847 U2846 2.454 . S
O2847 C2849 1.353 . S
O2848 U2846 2.458 . S
O2848 C2849 1.286 . S
C2849 U2846 2.984 . S
C2849 O2847 1.353 . S
C2849 O2848 1.286 . S
C2849 C2851 1.363 . S
C2850 C2840 1.465 . S
C2850 U2846 2.847 . S
C2850 O2864 1.249 . S
C2850 O2865 1.202 . S
C2851 C2849 1.363 . S
C2851 C2853 1.408 . S
C2851 C2856 1.342 . S
C2852 C2853 1.310 . S
C2852 C2855 1.461 . S
C2852 H2872 0.932 . S
C2853 C2851 1.408 . S
C2853 C2852 1.310 . S
C2853 H2873 0.930 . S
C2854 C2855 1.474 . S
C2854 C2856 1.285 . S
C2854 H2874 0.929 . S
C2855 C2852 1.461 . S
C2855 C2854 1.474 . S
C2856 C2851 1.342 . S
C2856 C2854 1.285 . S
C2856 H2875 0.930 . S
C2857 C2860 1.424 . S
C2857 C2862 1.245 . S
C2857 C2863 1.428 . S
C2858 C2861 1.260 . S
C2858 C2862 1.477 . S
C2858 H2876 0.932 . S
C2859 C2860 1.384 . S
C2859 C2861 1.479 . S
C2859 H2877 0.929 . S
C2860 C2857 1.424 . S
C2860 C2859 1.384 . S
C2860 H2878 0.928 . S
C2861 C2858 1.260 . S
C2861 C2859 1.479 . S
C2862 C2857 1.245 . S
C2862 C2858 1.477 . S
C2862 H2879 0.932 . S
C2863 U2846 2.882 . S
C2863 C2857 1.428 . S
C2863 O2866 1.301 . S
C2863 O2867 1.282 . S
O2864 U2846 2.441 . S
O2864 C2850 1.249 . S
O2865 U2846 2.420 . S
O2865 C2850 1.202 . S
O2866 U2846 2.455 . S
O2866 C2863 1.301 . S
O2867 U2846 2.449 . S
O2867 C2863 1.282 . S
H2868 C2841 0.931 . S
H2869 C2843 0.929 . S
H2870 C2844 0.930 . S
H2871 C2845 0.931 . S
H2872 C2852 0.932 . S
H2873 C2853 0.930 . S
H2874 C2854 0.929 . S
H2875 C2856 0.930 . S
H2876 C2858 0.932 . S
H2877 C2859 0.929 . S
H2878 C2860 0.928 . S
H2879 C2862 0.932 . S
C2880 C2881 1.264 . S
C2880 C2885 1.479 . S
C2880 C2890 1.465 . S
C2881 C2880 1.264 . S
C2881 C2883 1.339 . S
C2881 H2908 0.931 . S
C2882 C2883 1.395 . S
C2882 C2884 1.320 . S
C2883 C2881 1.339 . S
C2883 C2882 1.395 . S
C2883 H2909 0.929 . S
C2884 C2882 1.320 . S
C2884 C2885 1.405 . S
C2884 H2910 0.930 . S
C2885 C2880 1.479 . S
C2885 C2884 1.405 . S
C2885 H2911 0.931 . S
U2886 O2887 2.454 . S
U2886 O2888 2.458 . S
U2886 C2889 2.984 . S
U2886 C2890 2.847 . S
U2886 C2903 2.882 . S
U2886 O2904 2.441 . S
U2886 O2905 2.420 . S
U2886 O2906 2.455 . S
U2886 O2907 2.449 . S
O2887 U2886 2.454 . S
O2887 C2889 1.353 . S
O2888 U2886 2.458 . S
O2888 C2889 1.286 . S
C2889 U2886 2.984 . S
C2889 O2887 1.353 . S
C2889 O2888 1.286 . S
C2889 C2891 1.363 . S
C2890 C2880 1.465 . S
C2890 U2886 2.847 . S
C2890 O2904 1.249 . S
C2890 O2905 1.202 . S
C2891 C2889 1.363 . S
C2891 C2893 1.408 . S
C2891 C2896 1.342 . S
C2892 C2893 1.310 . S
C2892 C2895 1.461 . S
C2892 H2912 0.932 . S
C2893 C2891 1.408 . S
C2893 C2892 1.310 . S
C2893 H2913 0.930 . S
C2894 C2895 1.474 . S
C2894 C2896 1.285 . S
C2894 H2914 0.929 . S
C2895 C2892 1.461 . S
C2895 C2894 1.474 . S
C2896 C2891 1.342 . S
C2896 C2894 1.285 . S
C2896 H2915 0.930 . S
C2897 C2900 1.424 . S
C2897 C2902 1.245 . S
C2897 C2903 1.428 . S
C2898 C2901 1.260 . S
C2898 C2902 1.477 . S
C2898 H2916 0.932 . S
C2899 C2900 1.384 . S
C2899 C2901 1.479 . S
C2899 H2917 0.929 . S
C2900 C2897 1.424 . S
C2900 C2899 1.384 . S
C2900 H2918 0.928 . S
C2901 C2898 1.260 . S
C2901 C2899 1.479 . S
C2902 C2897 1.245 . S
C2902 C2898 1.477 . S
C2902 H2919 0.932 . S
C2903 U2886 2.882 . S
C2903 C2897 1.428 . S
C2903 O2906 1.301 . S
C2903 O2907 1.282 . S
O2904 U2886 2.441 . S
O2904 C2890 1.249 . S
O2905 U2886 2.420 . S
O2905 C2890 1.202 . S
O2906 U2886 2.455 . S
O2906 C2903 1.301 . S
O2907 U2886 2.449 . S
O2907 C2903 1.282 . S
H2908 C2881 0.931 . S
H2909 C2883 0.929 . S
H2910 C2884 0.930 . S
H2911 C2885 0.931 . S
H2912 C2892 0.932 . S
H2913 C2893 0.930 . S
H2914 C2894 0.929 . S
H2915 C2896 0.930 . S
H2916 C2898 0.932 . S
H2917 C2899 0.929 . S
H2918 C2900 0.928 . S
H2919 C2902 0.932 . S
C2920 C2921 1.264 . S
C2920 C2925 1.479 . S
C2920 C2930 1.465 . S
C2921 C2920 1.264 . S
C2921 C2923 1.339 . S
C2921 H2948 0.931 . S
C2922 C2923 1.395 . S
C2922 C2924 1.320 . S
C2923 C2921 1.339 . S
C2923 C2922 1.395 . S
C2923 H2949 0.929 . S
C2924 C2922 1.320 . S
C2924 C2925 1.405 . S
C2924 H2950 0.930 . S
C2925 C2920 1.479 . S
C2925 C2924 1.405 . S
C2925 H2951 0.931 . S
U2926 O2927 2.454 . S
U2926 O2928 2.458 . S
U2926 C2929 2.984 . S
U2926 C2930 2.847 . S
U2926 C2943 2.882 . S
U2926 O2944 2.441 . S
U2926 O2945 2.420 . S
U2926 O2946 2.455 . S
U2926 O2947 2.449 . S
O2927 U2926 2.454 . S
O2927 C2929 1.353 . S
O2928 U2926 2.458 . S
O2928 C2929 1.286 . S
C2929 U2926 2.984 . S
C2929 O2927 1.353 . S
C2929 O2928 1.286 . S
C2929 C2931 1.363 . S
C2930 C2920 1.465 . S
C2930 U2926 2.847 . S
C2930 O2944 1.249 . S
C2930 O2945 1.202 . S
C2931 C2929 1.363 . S
C2931 C2933 1.408 . S
C2931 C2936 1.342 . S
C2932 C2933 1.310 . S
C2932 C2935 1.461 . S
C2932 H2952 0.932 . S
C2933 C2931 1.408 . S
C2933 C2932 1.310 . S
C2933 H2953 0.930 . S
C2934 C2935 1.474 . S
C2934 C2936 1.285 . S
C2934 H2954 0.929 . S
C2935 C2932 1.461 . S
C2935 C2934 1.474 . S
C2936 C2931 1.342 . S
C2936 C2934 1.285 . S
C2936 H2955 0.930 . S
C2937 C2940 1.424 . S
C2937 C2942 1.245 . S
C2937 C2943 1.428 . S
C2938 C2941 1.260 . S
C2938 C2942 1.477 . S
C2938 H2956 0.932 . S
C2939 C2940 1.384 . S
C2939 C2941 1.479 . S
C2939 H2957 0.929 . S
C2940 C2937 1.424 . S
C2940 C2939 1.384 . S
C2940 H2958 0.928 . S
C2941 C2938 1.260 . S
C2941 C2939 1.479 . S
C2942 C2937 1.245 . S
C2942 C2938 1.477 . S
C2942 H2959 0.932 . S
C2943 U2926 2.882 . S
C2943 C2937 1.428 . S
C2943 O2946 1.301 . S
C2943 O2947 1.282 . S
O2944 U2926 2.441 . S
O2944 C2930 1.249 . S
O2945 U2926 2.420 . S
O2945 C2930 1.202 . S
O2946 U2926 2.455 . S
O2946 C2943 1.301 . S
O2947 U2926 2.449 . S
O2947 C2943 1.282 . S
H2948 C2921 0.931 . S
H2949 C2923 0.929 . S
H2950 C2924 0.930 . S
H2951 C2925 0.931 . S
H2952 C2932 0.932 . S
H2953 C2933 0.930 . S
H2954 C2934 0.929 . S
H2955 C2936 0.930 . S
H2956 C2938 0.932 . S
H2957 C2939 0.929 . S
H2958 C2940 0.928 . S
H2959 C2942 0.932 . S
C2960 C2961 1.264 . S
C2960 C2965 1.479 . S
C2960 C2970 1.465 . S
C2961 C2960 1.264 . S
C2961 C2963 1.339 . S
C2961 H2988 0.931 . S
C2962 C2963 1.395 . S
C2962 C2964 1.320 . S
C2963 C2961 1.339 . S
C2963 C2962 1.395 . S
C2963 H2989 0.929 . S
C2964 C2962 1.320 . S
C2964 C2965 1.405 . S
C2964 H2990 0.930 . S
C2965 C2960 1.479 . S
C2965 C2964 1.405 . S
C2965 H2991 0.931 . S
U2966 O2967 2.454 . S
U2966 O2968 2.458 . S
U2966 C2969 2.984 . S
U2966 C2970 2.847 . S
U2966 C2983 2.882 . S
U2966 O2984 2.441 . S
U2966 O2985 2.420 . S
U2966 O2986 2.455 . S
U2966 O2987 2.449 . S
O2967 U2966 2.454 . S
O2967 C2969 1.353 . S
O2968 U2966 2.458 . S
O2968 C2969 1.286 . S
C2969 U2966 2.984 . S
C2969 O2967 1.353 . S
C2969 O2968 1.286 . S
C2969 C2971 1.363 . S
C2970 C2960 1.465 . S
C2970 U2966 2.847 . S
C2970 O2984 1.249 . S
C2970 O2985 1.202 . S
C2971 C2969 1.363 . S
C2971 C2973 1.408 . S
C2971 C2976 1.342 . S
C2972 C2973 1.310 . S
C2972 C2975 1.461 1_455 S
C2972 H2992 0.954 . S
C2973 C2971 1.408 . S
C2973 C2972 1.310 . S
C2973 H2993 0.930 . S
C2974 C2975 1.474 1_455 S
C2974 C2976 1.285 . S
C2974 H2994 0.882 1_455 S
C2975 C2972 1.461 1_655 S
C2975 C2974 1.474 1_655 S
C2976 C2971 1.342 . S
C2976 C2974 1.285 . S
C2976 H2995 0.930 . S
C2977 C2980 1.424 . S
C2977 C2982 1.245 . S
C2977 C2983 1.428 . S
C2978 C2981 1.260 . S
C2978 C2982 1.477 . S
C2978 H2996 0.932 . S
C2979 C2980 1.384 . S
C2979 C2981 1.479 . S
C2979 H2997 0.929 . S
C2980 C2977 1.424 . S
C2980 C2979 1.384 . S
C2980 H2998 0.928 . S
C2981 C2978 1.260 . S
C2981 C2979 1.479 . S
C2982 C2977 1.245 . S
C2982 C2978 1.477 . S
C2982 H2999 0.932 . S
C2983 U2966 2.882 . S
C2983 C2977 1.428 . S
C2983 O2986 1.301 . S
C2983 O2987 1.282 . S
O2984 U2966 2.441 . S
O2984 C2970 1.249 . S
O2985 U2966 2.420 . S
O2985 C2970 1.202 . S
O2986 U2966 2.455 . S
O2986 C2983 1.301 . S
O2987 U2966 2.449 . S
O2987 C2983 1.282 . S
H2988 C2961 0.931 . S
H2989 C2963 0.929 . S
H2990 C2964 0.930 . S
H2991 C2965 0.931 . S
H2992 C2972 0.954 . S
H2993 C2973 0.930 . S
H2994 C2974 0.882 1_655 S
H2995 C2976 0.930 . S
H2996 C2978 0.932 . S
H2997 C2979 0.929 . S
H2998 C2980 0.928 . S
H2999 C2982 0.932 . S
C3000 C3001 1.264 . S
C3000 C3005 1.479 . S
C3000 C3010 1.465 . S
C3001 C3000 1.264 . S
C3001 C3003 1.339 . S
C3001 H3028 0.931 . S
C3002 C3003 1.395 . S
C3002 C3004 1.320 . S
C3003 C3001 1.339 . S
C3003 C3002 1.395 . S
C3003 H3029 0.929 . S
C3004 C3002 1.320 . S
C3004 C3005 1.405 . S
C3004 H3030 0.930 . S
C3005 C3000 1.479 . S
C3005 C3004 1.405 . S
C3005 H3031 0.931 . S
U3006 O3007 2.454 . S
U3006 O3008 2.458 . S
U3006 C3009 2.984 . S
U3006 C3010 2.847 . S
U3006 C3023 2.882 . S
U3006 O3024 2.441 . S
U3006 O3025 2.420 . S
U3006 O3026 2.455 . S
U3006 O3027 2.449 . S
O3007 U3006 2.454 . S
O3007 C3009 1.353 . S
O3008 U3006 2.458 . S
O3008 C3009 1.286 . S
C3009 U3006 2.984 . S
C3009 O3007 1.353 . S
C3009 O3008 1.286 . S
C3009 C3011 1.363 . S
C3010 C3000 1.465 . S
C3010 U3006 2.847 . S
C3010 O3024 1.249 . S
C3010 O3025 1.202 . S
C3011 C3009 1.363 . S
C3011 C3013 1.408 . S
C3011 C3016 1.342 . S
C3012 C3013 1.310 . S
C3012 C3015 1.461 . S
C3012 H3032 0.932 . S
C3013 C3011 1.408 . S
C3013 C3012 1.310 . S
C3013 H3033 0.930 . S
C3014 C3015 1.474 . S
C3014 C3016 1.285 . S
C3014 H3034 0.929 . S
C3015 C3012 1.461 . S
C3015 C3014 1.474 . S
C3016 C3011 1.342 . S
C3016 C3014 1.285 . S
C3016 H3035 0.930 . S
C3017 C3020 1.424 . S
C3017 C3022 1.245 . S
C3017 C3023 1.428 . S
C3018 C3021 1.260 . S
C3018 C3022 1.477 . S
C3018 H3036 0.932 . S
C3019 C3020 1.384 . S
C3019 C3021 1.479 . S
C3019 H3037 0.929 . S
C3020 C3017 1.424 . S
C3020 C3019 1.384 . S
C3020 H3038 0.928 . S
C3021 C3018 1.260 . S
C3021 C3019 1.479 . S
C3022 C3017 1.245 . S
C3022 C3018 1.477 . S
C3022 H3039 0.932 . S
C3023 U3006 2.882 . S
C3023 C3017 1.428 . S
C3023 O3026 1.301 . S
C3023 O3027 1.282 . S
O3024 U3006 2.441 . S
O3024 C3010 1.249 . S
O3025 U3006 2.420 . S
O3025 C3010 1.202 . S
O3026 U3006 2.455 . S
O3026 C3023 1.301 . S
O3027 U3006 2.449 . S
O3027 C3023 1.282 . S
H3028 C3001 0.931 . S
H3029 C3003 0.929 . S
H3030 C3004 0.930 . S
H3031 C3005 0.931 . S
H3032 C3012 0.932 . S
H3033 C3013 0.930 . S
H3034 C3014 0.929 . S
H3035 C3016 0.930 . S
H3036 C3018 0.932 . S
H3037 C3019 0.929 . S
H3038 C3020 0.928 . S
H3039 C3022 0.932 . S
C3040 C3041 1.264 . S
C3040 C3045 1.479 . S
C3040 C3050 1.465 . S
C3041 C3040 1.264 . S
C3041 C3043 1.339 . S
C3041 H3068 0.931 . S
C3042 C3043 1.395 . S
C3042 C3044 1.320 . S
C3043 C3041 1.339 . S
C3043 C3042 1.395 . S
C3043 H3069 0.929 . S
C3044 C3042 1.320 . S
C3044 C3045 1.405 . S
C3044 H3070 0.930 . S
C3045 C3040 1.479 . S
C3045 C3044 1.405 . S
C3045 H3071 0.931 . S
U3046 O3047 2.454 . S
U3046 O3048 2.458 . S
U3046 C3049 2.984 . S
U3046 C3050 2.847 . S
U3046 C3063 2.882 . S
U3046 O3064 2.441 . S
U3046 O3065 2.420 . S
U3046 O3066 2.455 . S
U3046 O3067 2.449 . S
O3047 U3046 2.454 . S
O3047 C3049 1.353 . S
O3048 U3046 2.458 . S
O3048 C3049 1.286 . S
C3049 U3046 2.984 . S
C3049 O3047 1.353 . S
C3049 O3048 1.286 . S
C3049 C3051 1.363 . S
C3050 C3040 1.465 . S
C3050 U3046 2.847 . S
C3050 O3064 1.249 . S
C3050 O3065 1.202 . S
C3051 C3049 1.363 . S
C3051 C3053 1.408 . S
C3051 C3056 1.342 . S
C3052 C3053 1.310 . S
C3052 C3055 1.461 . S
C3052 H3072 0.932 . S
C3053 C3051 1.408 . S
C3053 C3052 1.310 . S
C3053 H3073 0.930 . S
C3054 C3055 1.474 . S
C3054 C3056 1.285 . S
C3054 H3074 0.929 . S
C3055 C3052 1.461 . S
C3055 C3054 1.474 . S
C3056 C3051 1.342 . S
C3056 C3054 1.285 . S
C3056 H3075 0.930 . S
C3057 C3060 1.424 . S
C3057 C3062 1.245 . S
C3057 C3063 1.428 . S
C3058 C3061 1.260 . S
C3058 C3062 1.477 . S
C3058 H3076 0.932 . S
C3059 C3060 1.384 . S
C3059 C3061 1.479 . S
C3059 H3077 0.929 . S
C3060 C3057 1.424 . S
C3060 C3059 1.384 . S
C3060 H3078 0.928 . S
C3061 C3058 1.260 . S
C3061 C3059 1.479 . S
C3062 C3057 1.245 . S
C3062 C3058 1.477 . S
C3062 H3079 0.932 . S
C3063 U3046 2.882 . S
C3063 C3057 1.428 . S
C3063 O3066 1.301 . S
C3063 O3067 1.282 . S
O3064 U3046 2.441 . S
O3064 C3050 1.249 . S
O3065 U3046 2.420 . S
O3065 C3050 1.202 . S
O3066 U3046 2.455 . S
O3066 C3063 1.301 . S
O3067 U3046 2.449 . S
O3067 C3063 1.282 . S
H3068 C3041 0.931 . S
H3069 C3043 0.929 . S
H3070 C3044 0.930 . S
H3071 C3045 0.931 . S
H3072 C3052 0.932 . S
H3073 C3053 0.930 . S
H3074 C3054 0.929 . S
H3075 C3056 0.930 . S
H3076 C3058 0.932 . S
H3077 C3059 0.929 . S
H3078 C3060 0.928 . S
H3079 C3062 0.932 . S
C3080 C3081 1.264 . S
C3080 C3085 1.479 . S
C3080 C3090 1.465 . S
C3081 C3080 1.264 . S
C3081 C3083 1.339 . S
C3081 H3108 0.931 . S
C3082 C3083 1.395 . S
C3082 C3084 1.320 . S
C3083 C3081 1.339 . S
C3083 C3082 1.395 . S
C3083 H3109 0.929 . S
C3084 C3082 1.320 . S
C3084 C3085 1.405 . S
C3084 H3110 0.930 . S
C3085 C3080 1.479 . S
C3085 C3084 1.405 . S
C3085 H3111 0.931 . S
U3086 O3087 2.454 . S
U3086 O3088 2.458 . S
U3086 C3089 2.984 . S
U3086 C3090 2.847 . S
U3086 C3103 2.882 . S
U3086 O3104 2.441 . S
U3086 O3105 2.420 . S
U3086 O3106 2.455 . S
U3086 O3107 2.449 . S
O3087 U3086 2.454 . S
O3087 C3089 1.353 . S
O3088 U3086 2.458 . S
O3088 C3089 1.286 . S
C3089 U3086 2.984 . S
C3089 O3087 1.353 . S
C3089 O3088 1.286 . S
C3089 C3091 1.363 . S
C3090 C3080 1.465 . S
C3090 U3086 2.847 . S
C3090 O3104 1.249 . S
C3090 O3105 1.202 . S
C3091 C3089 1.363 . S
C3091 C3093 1.408 . S
C3091 C3096 1.342 . S
C3092 C3093 1.310 . S
C3092 C3095 1.461 . S
C3092 H3112 0.932 . S
C3093 C3091 1.408 . S
C3093 C3092 1.310 . S
C3093 H3113 0.930 . S
C3094 C3095 1.474 . S
C3094 C3096 1.285 . S
C3094 H3114 0.929 . S
C3095 C3092 1.461 . S
C3095 C3094 1.474 . S
C3096 C3091 1.342 . S
C3096 C3094 1.285 . S
C3096 H3115 0.930 . S
C3097 C3100 1.424 . S
C3097 C3102 1.245 . S
C3097 C3103 1.428 . S
C3098 C3101 1.260 . S
C3098 C3102 1.477 . S
C3098 H3116 0.932 . S
C3099 C3100 1.384 . S
C3099 C3101 1.479 . S
C3099 H3117 0.929 . S
C3100 C3097 1.424 . S
C3100 C3099 1.384 . S
C3100 H3118 0.928 . S
C3101 C3098 1.260 . S
C3101 C3099 1.479 . S
C3102 C3097 1.245 . S
C3102 C3098 1.477 . S
C3102 H3119 0.932 . S
C3103 U3086 2.882 . S
C3103 C3097 1.428 . S
C3103 O3106 1.301 . S
C3103 O3107 1.282 . S
O3104 U3086 2.441 . S
O3104 C3090 1.249 . S
O3105 U3086 2.420 . S
O3105 C3090 1.202 . S
O3106 U3086 2.455 . S
O3106 C3103 1.301 . S
O3107 U3086 2.449 . S
O3107 C3103 1.282 . S
H3108 C3081 0.931 . S
H3109 C3083 0.929 . S
H3110 C3084 0.930 . S
H3111 C3085 0.931 . S
H3112 C3092 0.932 . S
H3113 C3093 0.930 . S
H3114 C3094 0.929 . S
H3115 C3096 0.930 . S
H3116 C3098 0.932 . S
H3117 C3099 0.929 . S
H3118 C3100 0.928 . S
H3119 C3102 0.932 . S
C3120 C3121 1.264 . S
C3120 C3125 1.479 . S
C3120 C3130 1.465 . S
C3121 C3120 1.264 . S
C3121 C3123 1.339 . S
C3121 H3148 0.931 . S
C3122 C3123 1.395 . S
C3122 C3124 1.320 . S
C3123 C3121 1.339 . S
C3123 C3122 1.395 . S
C3123 H3149 0.929 . S
C3124 C3122 1.320 . S
C3124 C3125 1.405 . S
C3124 H3150 0.930 . S
C3125 C3120 1.479 . S
C3125 C3124 1.405 . S
C3125 H3151 0.931 . S
U3126 O3127 2.454 . S
U3126 O3128 2.458 . S
U3126 C3129 2.984 . S
U3126 C3130 2.847 . S
U3126 C3143 2.882 . S
U3126 O3144 2.441 . S
U3126 O3145 2.420 . S
U3126 O3146 2.455 . S
U3126 O3147 2.449 . S
O3127 U3126 2.454 . S
O3127 C3129 1.353 . S
O3128 U3126 2.458 . S
O3128 C3129 1.286 . S
C3129 U3126 2.984 . S
C3129 O3127 1.353 . S
C3129 O3128 1.286 . S
C3129 C3131 1.363 . S
C3130 C3120 1.465 . S
C3130 U3126 2.847 . S
C3130 O3144 1.249 . S
C3130 O3145 1.202 . S
C3131 C3129 1.363 . S
C3131 C3133 1.408 . S
C3131 C3136 1.342 . S
C3132 C3133 1.310 . S
C3132 C3135 1.461 1_455 S
C3132 H3152 0.954 . S
C3133 C3131 1.408 . S
C3133 C3132 1.310 . S
C3133 H3153 0.930 . S
C3134 C3135 1.474 1_455 S
C3134 C3136 1.285 . S
C3134 H3154 0.882 1_455 S
C3135 C3132 1.461 1_655 S
C3135 C3134 1.474 1_655 S
C3136 C3131 1.342 . S
C3136 C3134 1.285 . S
C3136 H3155 0.930 . S
C3137 C3140 1.424 . S
C3137 C3142 1.245 . S
C3137 C3143 1.428 . S
C3138 C3141 1.260 . S
C3138 C3142 1.477 . S
C3138 H3156 0.932 . S
C3139 C3140 1.384 . S
C3139 C3141 1.479 . S
C3139 H3157 0.929 . S
C3140 C3137 1.424 . S
C3140 C3139 1.384 . S
C3140 H3158 0.928 . S
C3141 C3138 1.260 . S
C3141 C3139 1.479 . S
C3142 C3137 1.245 . S
C3142 C3138 1.477 . S
C3142 H3159 0.932 . S
C3143 U3126 2.882 . S
C3143 C3137 1.428 . S
C3143 O3146 1.301 . S
C3143 O3147 1.282 . S
O3144 U3126 2.441 . S
O3144 C3130 1.249 . S
O3145 U3126 2.420 . S
O3145 C3130 1.202 . S
O3146 U3126 2.455 . S
O3146 C3143 1.301 . S
O3147 U3126 2.449 . S
O3147 C3143 1.282 . S
H3148 C3121 0.931 . S
H3149 C3123 0.929 . S
H3150 C3124 0.930 . S
H3151 C3125 0.931 . S
H3152 C3132 0.954 . S
H3153 C3133 0.930 . S
H3154 C3134 0.882 1_655 S
H3155 C3136 0.930 . S
H3156 C3138 0.932 . S
H3157 C3139 0.929 . S
H3158 C3140 0.928 . S
H3159 C3142 0.932 . S
C3160 C3161 1.264 . S
C3160 C3165 1.479 . S
C3160 C3170 1.465 . S
C3161 C3160 1.264 . S
C3161 C3163 1.339 . S
C3161 H3188 0.931 . S
C3162 C3163 1.395 . S
C3162 C3164 1.320 . S
C3163 C3161 1.339 . S
C3163 C3162 1.395 . S
C3163 H3189 0.929 . S
C3164 C3162 1.320 . S
C3164 C3165 1.405 . S
C3164 H3190 0.930 . S
C3165 C3160 1.479 . S
C3165 C3164 1.405 . S
C3165 H3191 0.931 . S
U3166 O3167 2.454 . S
U3166 O3168 2.458 . S
U3166 C3169 2.984 . S
U3166 C3170 2.847 . S
U3166 C3183 2.882 . S
U3166 O3184 2.441 . S
U3166 O3185 2.420 . S
U3166 O3186 2.455 . S
U3166 O3187 2.449 . S
O3167 U3166 2.454 . S
O3167 C3169 1.353 . S
O3168 U3166 2.458 . S
O3168 C3169 1.286 . S
C3169 U3166 2.984 . S
C3169 O3167 1.353 . S
C3169 O3168 1.286 . S
C3169 C3171 1.363 . S
C3170 C3160 1.465 . S
C3170 U3166 2.847 . S
C3170 O3184 1.249 . S
C3170 O3185 1.202 . S
C3171 C3169 1.363 . S
C3171 C3173 1.408 . S
C3171 C3176 1.342 . S
C3172 C3173 1.310 . S
C3172 C3175 1.461 . S
C3172 H3192 0.932 . S
C3173 C3171 1.408 . S
C3173 C3172 1.310 . S
C3173 H3193 0.930 . S
C3174 C3175 1.474 . S
C3174 C3176 1.285 . S
C3174 H3194 0.929 . S
C3175 C3172 1.461 . S
C3175 C3174 1.474 . S
C3176 C3171 1.342 . S
C3176 C3174 1.285 . S
C3176 H3195 0.930 . S
C3177 C3180 1.424 . S
C3177 C3182 1.245 . S
C3177 C3183 1.428 . S
C3178 C3181 1.260 . S
C3178 C3182 1.477 . S
C3178 H3196 0.932 . S
C3179 C3180 1.384 . S
C3179 C3181 1.479 . S
C3179 H3197 0.929 . S
C3180 C3177 1.424 . S
C3180 C3179 1.384 . S
C3180 H3198 0.928 . S
C3181 C3178 1.260 . S
C3181 C3179 1.479 . S
C3182 C3177 1.245 . S
C3182 C3178 1.477 . S
C3182 H3199 0.932 . S
C3183 U3166 2.882 . S
C3183 C3177 1.428 . S
C3183 O3186 1.301 . S
C3183 O3187 1.282 . S
O3184 U3166 2.441 . S
O3184 C3170 1.249 . S
O3185 U3166 2.420 . S
O3185 C3170 1.202 . S
O3186 U3166 2.455 . S
O3186 C3183 1.301 . S
O3187 U3166 2.449 . S
O3187 C3183 1.282 . S
H3188 C3161 0.931 . S
H3189 C3163 0.929 . S
H3190 C3164 0.930 . S
H3191 C3165 0.931 . S
H3192 C3172 0.932 . S
H3193 C3173 0.930 . S
H3194 C3174 0.929 . S
H3195 C3176 0.930 . S
H3196 C3178 0.932 . S
H3197 C3179 0.929 . S
H3198 C3180 0.928 . S
H3199 C3182 0.932 . S
C3200 C3201 1.264 . S
C3200 C3205 1.479 . S
C3200 C3210 1.465 . S
C3201 C3200 1.264 . S
C3201 C3203 1.339 . S
C3201 H3228 0.931 . S
C3202 C3203 1.395 . S
C3202 C3204 1.320 . S
C3203 C3201 1.339 . S
C3203 C3202 1.395 . S
C3203 H3229 0.929 . S
C3204 C3202 1.320 . S
C3204 C3205 1.405 . S
C3204 H3230 0.930 . S
C3205 C3200 1.479 . S
C3205 C3204 1.405 . S
C3205 H3231 0.931 . S
U3206 O3207 2.454 . S
U3206 O3208 2.458 . S
U3206 C3209 2.984 . S
U3206 C3210 2.847 . S
U3206 C3223 2.882 . S
U3206 O3224 2.441 . S
U3206 O3225 2.420 . S
U3206 O3226 2.455 . S
U3206 O3227 2.449 . S
O3207 U3206 2.454 . S
O3207 C3209 1.353 . S
O3208 U3206 2.458 . S
O3208 C3209 1.286 . S
C3209 U3206 2.984 . S
C3209 O3207 1.353 . S
C3209 O3208 1.286 . S
C3209 C3211 1.363 . S
C3210 C3200 1.465 . S
C3210 U3206 2.847 . S
C3210 O3224 1.249 . S
C3210 O3225 1.202 . S
C3211 C3209 1.363 . S
C3211 C3213 1.408 . S
C3211 C3216 1.342 . S
C3212 C3213 1.310 . S
C3212 C3215 1.461 . S
C3212 H3232 0.932 . S
C3213 C3211 1.408 . S
C3213 C3212 1.310 . S
C3213 H3233 0.930 . S
C3214 C3215 1.474 . S
C3214 C3216 1.285 . S
C3214 H3234 0.929 . S
C3215 C3212 1.461 . S
C3215 C3214 1.474 . S
C3216 C3211 1.342 . S
C3216 C3214 1.285 . S
C3216 H3235 0.930 . S
C3217 C3220 1.424 . S
C3217 C3222 1.245 . S
C3217 C3223 1.428 . S
C3218 C3221 1.260 . S
C3218 C3222 1.477 . S
C3218 H3236 0.932 . S
C3219 C3220 1.384 . S
C3219 C3221 1.479 . S
C3219 H3237 0.929 . S
C3220 C3217 1.424 . S
C3220 C3219 1.384 . S
C3220 H3238 0.928 . S
C3221 C3218 1.260 . S
C3221 C3219 1.479 . S
C3222 C3217 1.245 . S
C3222 C3218 1.477 . S
C3222 H3239 0.932 . S
C3223 U3206 2.882 . S
C3223 C3217 1.428 . S
C3223 O3226 1.301 . S
C3223 O3227 1.282 . S
O3224 U3206 2.441 . S
O3224 C3210 1.249 . S
O3225 U3206 2.420 . S
O3225 C3210 1.202 . S
O3226 U3206 2.455 . S
O3226 C3223 1.301 . S
O3227 U3206 2.449 . S
O3227 C3223 1.282 . S
H3228 C3201 0.931 . S
H3229 C3203 0.929 . S
H3230 C3204 0.930 . S
H3231 C3205 0.931 . S
H3232 C3212 0.932 . S
H3233 C3213 0.930 . S
H3234 C3214 0.929 . S
H3235 C3216 0.930 . S
H3236 C3218 0.932 . S
H3237 C3219 0.929 . S
H3238 C3220 0.928 . S
H3239 C3222 0.932 . S
C3240 C3241 1.264 . S
C3240 C3245 1.479 . S
C3240 C3250 1.465 . S
C3241 C3240 1.264 . S
C3241 C3243 1.339 . S
C3241 H3268 0.931 . S
C3242 C3243 1.395 . S
C3242 C3244 1.320 . S
C3243 C3241 1.339 . S
C3243 C3242 1.395 . S
C3243 H3269 0.929 . S
C3244 C3242 1.320 . S
C3244 C3245 1.405 . S
C3244 H3270 0.930 . S
C3245 C3240 1.479 . S
C3245 C3244 1.405 . S
C3245 H3271 0.931 . S
U3246 O3247 2.454 . S
U3246 O3248 2.458 . S
U3246 C3249 2.984 . S
U3246 C3250 2.847 . S
U3246 C3263 2.882 . S
U3246 O3264 2.441 . S
U3246 O3265 2.420 . S
U3246 O3266 2.455 . S
U3246 O3267 2.449 . S
O3247 U3246 2.454 . S
O3247 C3249 1.353 . S
O3248 U3246 2.458 . S
O3248 C3249 1.286 . S
C3249 U3246 2.984 . S
C3249 O3247 1.353 . S
C3249 O3248 1.286 . S
C3249 C3251 1.363 . S
C3250 C3240 1.465 . S
C3250 U3246 2.847 . S
C3250 O3264 1.249 . S
C3250 O3265 1.202 . S
C3251 C3249 1.363 . S
C3251 C3253 1.408 . S
C3251 C3256 1.342 . S
C3252 C3253 1.310 . S
C3252 C3255 1.461 . S
C3252 H3272 0.932 . S
C3253 C3251 1.408 . S
C3253 C3252 1.310 . S
C3253 H3273 0.930 . S
C3254 C3255 1.474 . S
C3254 C3256 1.285 . S
C3254 H3274 0.929 . S
C3255 C3252 1.461 . S
C3255 C3254 1.474 . S
C3256 C3251 1.342 . S
C3256 C3254 1.285 . S
C3256 H3275 0.930 . S
C3257 C3260 1.424 . S
C3257 C3262 1.245 . S
C3257 C3263 1.428 . S
C3258 C3261 1.260 . S
C3258 C3262 1.477 . S
C3258 H3276 0.932 . S
C3259 C3260 1.384 . S
C3259 C3261 1.479 . S
C3259 H3277 0.929 . S
C3260 C3257 1.424 . S
C3260 C3259 1.384 . S
C3260 H3278 0.928 . S
C3261 C3258 1.260 . S
C3261 C3259 1.479 . S
C3262 C3257 1.245 . S
C3262 C3258 1.477 . S
C3262 H3279 0.932 . S
C3263 U3246 2.882 . S
C3263 C3257 1.428 . S
C3263 O3266 1.301 . S
C3263 O3267 1.282 . S
O3264 U3246 2.441 . S
O3264 C3250 1.249 . S
O3265 U3246 2.420 . S
O3265 C3250 1.202 . S
O3266 U3246 2.455 . S
O3266 C3263 1.301 . S
O3267 U3246 2.449 . S
O3267 C3263 1.282 . S
H3268 C3241 0.931 . S
H3269 C3243 0.929 . S
H3270 C3244 0.930 . S
H3271 C3245 0.931 . S
H3272 C3252 0.932 . S
H3273 C3253 0.930 . S
H3274 C3254 0.929 . S
H3275 C3256 0.930 . S
H3276 C3258 0.932 . S
H3277 C3259 0.929 . S
H3278 C3260 0.928 . S
H3279 C3262 0.932 . S
C3280 C3281 1.264 . S
C3280 C3285 1.479 . S
C3280 C3290 1.465 . S
C3281 C3280 1.264 . S
C3281 C3283 1.339 . S
C3281 H3308 0.931 . S
C3282 C3283 1.395 . S
C3282 C3284 1.320 . S
C3283 C3281 1.339 . S
C3283 C3282 1.395 . S
C3283 H3309 0.929 . S
C3284 C3282 1.320 . S
C3284 C3285 1.405 . S
C3284 H3310 0.930 . S
C3285 C3280 1.479 . S
C3285 C3284 1.405 . S
C3285 H3311 0.931 . S
U3286 O3287 2.454 . S
U3286 O3288 2.458 . S
U3286 C3289 2.984 . S
U3286 C3290 2.847 . S
U3286 C3303 2.882 . S
U3286 O3304 2.441 . S
U3286 O3305 2.420 . S
U3286 O3306 2.455 . S
U3286 O3307 2.449 . S
O3287 U3286 2.454 . S
O3287 C3289 1.353 . S
O3288 U3286 2.458 . S
O3288 C3289 1.286 . S
C3289 U3286 2.984 . S
C3289 O3287 1.353 . S
C3289 O3288 1.286 . S
C3289 C3291 1.363 . S
C3290 C3280 1.465 . S
C3290 U3286 2.847 . S
C3290 O3304 1.249 . S
C3290 O3305 1.202 . S
C3291 C3289 1.363 . S
C3291 C3293 1.408 . S
C3291 C3296 1.342 . S
C3292 C3293 1.310 . S
C3292 C3295 1.461 . S
C3292 H3312 0.932 . S
C3293 C3291 1.408 . S
C3293 C3292 1.310 . S
C3293 H3313 0.930 . S
C3294 C3295 1.474 . S
C3294 C3296 1.285 . S
C3294 H3314 0.929 . S
C3295 C3292 1.461 . S
C3295 C3294 1.474 . S
C3296 C3291 1.342 . S
C3296 C3294 1.285 . S
C3296 H3315 0.930 . S
C3297 C3300 1.424 . S
C3297 C3302 1.245 . S
C3297 C3303 1.428 . S
C3298 C3301 1.260 . S
C3298 C3302 1.477 . S
C3298 H3316 0.932 . S
C3299 C3300 1.384 . S
C3299 C3301 1.479 . S
C3299 H3317 0.929 . S
C3300 C3297 1.424 . S
C3300 C3299 1.384 . S
C3300 H3318 0.928 . S
C3301 C3298 1.260 . S
C3301 C3299 1.479 . S
C3302 C3297 1.245 . S
C3302 C3298 1.477 . S
C3302 H3319 0.932 . S
C3303 U3286 2.882 . S
C3303 C3297 1.428 . S
C3303 O3306 1.301 . S
C3303 O3307 1.282 . S
O3304 U3286 2.441 . S
O3304 C3290 1.249 . S
O3305 U3286 2.420 . S
O3305 C3290 1.202 . S
O3306 U3286 2.455 . S
O3306 C3303 1.301 . S
O3307 U3286 2.449 . S
O3307 C3303 1.282 . S
H3308 C3281 0.931 . S
H3309 C3283 0.929 . S
H3310 C3284 0.930 . S
H3311 C3285 0.931 . S
H3312 C3292 0.932 . S
H3313 C3293 0.930 . S
H3314 C3294 0.929 . S
H3315 C3296 0.930 . S
H3316 C3298 0.932 . S
H3317 C3299 0.929 . S
H3318 C3300 0.928 . S
H3319 C3302 0.932 . S
C3320 C3321 1.264 . S
C3320 C3325 1.479 . S
C3320 C3330 1.465 . S
C3321 C3320 1.264 . S
C3321 C3323 1.339 . S
C3321 H3348 0.931 . S
C3322 C3323 1.395 . S
C3322 C3324 1.320 . S
C3323 C3321 1.339 . S
C3323 C3322 1.395 . S
C3323 H3349 0.929 . S
C3324 C3322 1.320 . S
C3324 C3325 1.405 . S
C3324 H3350 0.930 . S
C3325 C3320 1.479 . S
C3325 C3324 1.405 . S
C3325 H3351 0.931 . S
U3326 O3327 2.454 . S
U3326 O3328 2.458 . S
U3326 C3329 2.984 . S
U3326 C3330 2.847 . S
U3326 C3343 2.882 . S
U3326 O3344 2.441 . S
U3326 O3345 2.420 . S
U3326 O3346 2.455 . S
U3326 O3347 2.449 . S
O3327 U3326 2.454 . S
O3327 C3329 1.353 . S
O3328 U3326 2.458 . S
O3328 C3329 1.286 . S
C3329 U3326 2.984 . S
C3329 O3327 1.353 . S
C3329 O3328 1.286 . S
C3329 C3331 1.363 . S
C3330 C3320 1.465 . S
C3330 U3326 2.847 . S
C3330 O3344 1.249 . S
C3330 O3345 1.202 . S
C3331 C3329 1.363 . S
C3331 C3333 1.408 . S
C3331 C3336 1.342 . S
C3332 C3333 1.310 . S
C3332 C3335 1.461 . S
C3332 H3352 0.932 . S
C3333 C3331 1.408 . S
C3333 C3332 1.310 . S
C3333 H3353 0.930 . S
C3334 C3335 1.474 . S
C3334 C3336 1.285 . S
C3334 H3354 0.929 . S
C3335 C3332 1.461 . S
C3335 C3334 1.474 . S
C3336 C3331 1.342 . S
C3336 C3334 1.285 . S
C3336 H3355 0.930 . S
C3337 C3340 1.424 . S
C3337 C3342 1.245 . S
C3337 C3343 1.428 . S
C3338 C3341 1.260 . S
C3338 C3342 1.477 . S
C3338 H3356 0.932 . S
C3339 C3340 1.384 . S
C3339 C3341 1.479 . S
C3339 H3357 0.929 . S
C3340 C3337 1.424 . S
C3340 C3339 1.384 . S
C3340 H3358 0.928 . S
C3341 C3338 1.260 . S
C3341 C3339 1.479 . S
C3342 C3337 1.245 . S
C3342 C3338 1.477 . S
C3342 H3359 0.932 . S
C3343 U3326 2.882 . S
C3343 C3337 1.428 . S
C3343 O3346 1.301 . S
C3343 O3347 1.282 . S
O3344 U3326 2.441 . S
O3344 C3330 1.249 . S
O3345 U3326 2.420 . S
O3345 C3330 1.202 . S
O3346 U3326 2.455 . S
O3346 C3343 1.301 . S
O3347 U3326 2.449 . S
O3347 C3343 1.282 . S
H3348 C3321 0.931 . S
H3349 C3323 0.929 . S
H3350 C3324 0.930 . S
H3351 C3325 0.931 . S
H3352 C3332 0.932 . S
H3353 C3333 0.930 . S
H3354 C3334 0.929 . S
H3355 C3336 0.930 . S
H3356 C3338 0.932 . S
H3357 C3339 0.929 . S
H3358 C3340 0.928 . S
H3359 C3342 0.932 . S
C3360 C3361 1.264 . S
C3360 C3365 1.479 . S
C3360 C3370 1.465 . S
C3361 C3360 1.264 . S
C3361 C3363 1.339 . S
C3361 H3388 0.931 . S
C3362 C3363 1.395 . S
C3362 C3364 1.320 . S
C3363 C3361 1.339 . S
C3363 C3362 1.395 . S
C3363 H3389 0.929 . S
C3364 C3362 1.320 . S
C3364 C3365 1.405 . S
C3364 H3390 0.930 . S
C3365 C3360 1.479 . S
C3365 C3364 1.405 . S
C3365 H3391 0.931 . S
U3366 O3367 2.454 . S
U3366 O3368 2.458 . S
U3366 C3369 2.984 . S
U3366 C3370 2.847 . S
U3366 C3383 2.882 . S
U3366 O3384 2.441 . S
U3366 O3385 2.420 . S
U3366 O3386 2.455 . S
U3366 O3387 2.449 . S
O3367 U3366 2.454 . S
O3367 C3369 1.353 . S
O3368 U3366 2.458 . S
O3368 C3369 1.286 . S
C3369 U3366 2.984 . S
C3369 O3367 1.353 . S
C3369 O3368 1.286 . S
C3369 C3371 1.363 . S
C3370 C3360 1.465 . S
C3370 U3366 2.847 . S
C3370 O3384 1.249 . S
C3370 O3385 1.202 . S
C3371 C3369 1.363 . S
C3371 C3373 1.408 . S
C3371 C3376 1.342 . S
C3372 C3373 1.310 . S
C3372 C3375 1.461 . S
C3372 H3392 0.932 . S
C3373 C3371 1.408 . S
C3373 C3372 1.310 . S
C3373 H3393 0.930 . S
C3374 C3375 1.474 . S
C3374 C3376 1.285 . S
C3374 H3394 0.929 . S
C3375 C3372 1.461 . S
C3375 C3374 1.474 . S
C3376 C3371 1.342 . S
C3376 C3374 1.285 . S
C3376 H3395 0.930 . S
C3377 C3380 1.424 . S
C3377 C3382 1.245 . S
C3377 C3383 1.428 . S
C3378 C3381 1.260 . S
C3378 C3382 1.477 . S
C3378 H3396 0.932 . S
C3379 C3380 1.384 . S
C3379 C3381 1.479 . S
C3379 H3397 0.929 . S
C3380 C3377 1.424 . S
C3380 C3379 1.384 . S
C3380 H3398 0.928 . S
C3381 C3378 1.260 . S
C3381 C3379 1.479 . S
C3382 C3377 1.245 . S
C3382 C3378 1.477 . S
C3382 H3399 0.932 . S
C3383 U3366 2.882 . S
C3383 C3377 1.428 . S
C3383 O3386 1.301 . S
C3383 O3387 1.282 . S
O3384 U3366 2.441 . S
O3384 C3370 1.249 . S
O3385 U3366 2.420 . S
O3385 C3370 1.202 . S
O3386 U3366 2.455 . S
O3386 C3383 1.301 . S
O3387 U3366 2.449 . S
O3387 C3383 1.282 . S
H3388 C3361 0.931 . S
H3389 C3363 0.929 . S
H3390 C3364 0.930 . S
H3391 C3365 0.931 . S
H3392 C3372 0.932 . S
H3393 C3373 0.930 . S
H3394 C3374 0.929 . S
H3395 C3376 0.930 . S
H3396 C3378 0.932 . S
H3397 C3379 0.929 . S
H3398 C3380 0.928 . S
H3399 C3382 0.932 . S
C3400 C3401 1.264 . S
C3400 C3405 1.479 . S
C3400 C3410 1.465 . S
C3401 C3400 1.264 . S
C3401 C3403 1.339 . S
C3401 H3428 0.931 . S
C3402 C3403 1.395 . S
C3402 C3404 1.320 . S
C3403 C3401 1.339 . S
C3403 C3402 1.395 . S
C3403 H3429 0.929 . S
C3404 C3402 1.320 . S
C3404 C3405 1.405 . S
C3404 H3430 0.930 . S
C3405 C3400 1.479 . S
C3405 C3404 1.405 . S
C3405 H3431 0.931 . S
U3406 O3407 2.454 . S
U3406 O3408 2.458 . S
U3406 C3409 2.984 . S
U3406 C3410 2.847 . S
U3406 C3423 2.882 . S
U3406 O3424 2.441 . S
U3406 O3425 2.420 . S
U3406 O3426 2.455 . S
U3406 O3427 2.449 . S
O3407 U3406 2.454 . S
O3407 C3409 1.353 . S
O3408 U3406 2.458 . S
O3408 C3409 1.286 . S
C3409 U3406 2.984 . S
C3409 O3407 1.353 . S
C3409 O3408 1.286 . S
C3409 C3411 1.363 . S
C3410 C3400 1.465 . S
C3410 U3406 2.847 . S
C3410 O3424 1.249 . S
C3410 O3425 1.202 . S
C3411 C3409 1.363 . S
C3411 C3413 1.408 . S
C3411 C3416 1.342 . S
C3412 C3413 1.310 . S
C3412 C3415 1.461 . S
C3412 H3432 0.932 . S
C3413 C3411 1.408 . S
C3413 C3412 1.310 . S
C3413 H3433 0.930 . S
C3414 C3415 1.474 . S
C3414 C3416 1.285 . S
C3414 H3434 0.929 . S
C3415 C3412 1.461 . S
C3415 C3414 1.474 . S
C3416 C3411 1.342 . S
C3416 C3414 1.285 . S
C3416 H3435 0.930 . S
C3417 C3420 1.424 . S
C3417 C3422 1.245 . S
C3417 C3423 1.428 . S
C3418 C3421 1.260 . S
C3418 C3422 1.477 . S
C3418 H3436 0.932 . S
C3419 C3420 1.384 . S
C3419 C3421 1.479 . S
C3419 H3437 0.929 . S
C3420 C3417 1.424 . S
C3420 C3419 1.384 . S
C3420 H3438 0.928 . S
C3421 C3418 1.260 . S
C3421 C3419 1.479 . S
C3422 C3417 1.245 . S
C3422 C3418 1.477 . S
C3422 H3439 0.932 . S
C3423 U3406 2.882 . S
C3423 C3417 1.428 . S
C3423 O3426 1.301 . S
C3423 O3427 1.282 . S
O3424 U3406 2.441 . S
O3424 C3410 1.249 . S
O3425 U3406 2.420 . S
O3425 C3410 1.202 . S
O3426 U3406 2.455 . S
O3426 C3423 1.301 . S
O3427 U3406 2.449 . S
O3427 C3423 1.282 . S
H3428 C3401 0.931 . S
H3429 C3403 0.929 . S
H3430 C3404 0.930 . S
H3431 C3405 0.931 . S
H3432 C3412 0.932 . S
H3433 C3413 0.930 . S
H3434 C3414 0.929 . S
H3435 C3416 0.930 . S
H3436 C3418 0.932 . S
H3437 C3419 0.929 . S
H3438 C3420 0.928 . S
H3439 C3422 0.932 . S
C3440 C3441 1.264 . S
C3440 C3445 1.479 . S
C3440 C3450 1.465 . S
C3441 C3440 1.264 . S
C3441 C3443 1.339 . S
C3441 H3468 0.931 . S
C3442 C3443 1.395 . S
C3442 C3444 1.320 . S
C3443 C3441 1.339 . S
C3443 C3442 1.395 . S
C3443 H3469 0.929 . S
C3444 C3442 1.320 . S
C3444 C3445 1.405 . S
C3444 H3470 0.930 . S
C3445 C3440 1.479 . S
C3445 C3444 1.405 . S
C3445 H3471 0.931 . S
U3446 O3447 2.454 . S
U3446 O3448 2.458 . S
U3446 C3449 2.984 . S
U3446 C3450 2.847 . S
U3446 C3463 2.882 . S
U3446 O3464 2.441 . S
U3446 O3465 2.420 . S
U3446 O3466 2.455 . S
U3446 O3467 2.449 . S
O3447 U3446 2.454 . S
O3447 C3449 1.353 . S
O3448 U3446 2.458 . S
O3448 C3449 1.286 . S
C3449 U3446 2.984 . S
C3449 O3447 1.353 . S
C3449 O3448 1.286 . S
C3449 C3451 1.363 . S
C3450 C3440 1.465 . S
C3450 U3446 2.847 . S
C3450 O3464 1.249 . S
C3450 O3465 1.202 . S
C3451 C3449 1.363 . S
C3451 C3453 1.408 . S
C3451 C3456 1.342 . S
C3452 C3453 1.310 . S
C3452 C3455 1.461 . S
C3452 H3472 0.932 . S
C3453 C3451 1.408 . S
C3453 C3452 1.310 . S
C3453 H3473 0.930 . S
C3454 C3455 1.474 . S
C3454 C3456 1.285 . S
C3454 H3474 0.929 . S
C3455 C3452 1.461 . S
C3455 C3454 1.474 . S
C3456 C3451 1.342 . S
C3456 C3454 1.285 . S
C3456 H3475 0.930 . S
C3457 C3460 1.424 . S
C3457 C3462 1.245 . S
C3457 C3463 1.428 . S
C3458 C3461 1.260 . S
C3458 C3462 1.477 . S
C3458 H3476 0.932 . S
C3459 C3460 1.384 . S
C3459 C3461 1.479 . S
C3459 H3477 0.929 . S
C3460 C3457 1.424 . S
C3460 C3459 1.384 . S
C3460 H3478 0.928 . S
C3461 C3458 1.260 . S
C3461 C3459 1.479 . S
C3462 C3457 1.245 . S
C3462 C3458 1.477 . S
C3462 H3479 0.932 . S
C3463 U3446 2.882 . S
C3463 C3457 1.428 . S
C3463 O3466 1.301 . S
C3463 O3467 1.282 . S
O3464 U3446 2.441 . S
O3464 C3450 1.249 . S
O3465 U3446 2.420 . S
O3465 C3450 1.202 . S
O3466 U3446 2.455 . S
O3466 C3463 1.301 . S
O3467 U3446 2.449 . S
O3467 C3463 1.282 . S
H3468 C3441 0.931 . S
H3469 C3443 0.929 . S
H3470 C3444 0.930 . S
H3471 C3445 0.931 . S
H3472 C3452 0.932 . S
H3473 C3453 0.930 . S
H3474 C3454 0.929 . S
H3475 C3456 0.930 . S
H3476 C3458 0.932 . S
H3477 C3459 0.929 . S
H3478 C3460 0.928 . S
H3479 C3462 0.932 . S
C3480 C3481 1.264 . S
C3480 C3485 1.479 . S
C3480 C3490 1.465 . S
C3481 C3480 1.264 . S
C3481 C3483 1.339 . S
C3481 H3508 0.931 . S
C3482 C3483 1.395 . S
C3482 C3484 1.320 . S
C3483 C3481 1.339 . S
C3483 C3482 1.395 . S
C3483 H3509 0.929 . S
C3484 C3482 1.320 . S
C3484 C3485 1.405 . S
C3484 H3510 0.930 . S
C3485 C3480 1.479 . S
C3485 C3484 1.405 . S
C3485 H3511 0.931 . S
U3486 O3487 2.454 . S
U3486 O3488 2.458 . S
U3486 C3489 2.984 . S
U3486 C3490 2.847 . S
U3486 C3503 2.882 . S
U3486 O3504 2.441 . S
U3486 O3505 2.420 . S
U3486 O3506 2.455 . S
U3486 O3507 2.449 . S
O3487 U3486 2.454 . S
O3487 C3489 1.353 . S
O3488 U3486 2.458 . S
O3488 C3489 1.286 . S
C3489 U3486 2.984 . S
C3489 O3487 1.353 . S
C3489 O3488 1.286 . S
C3489 C3491 1.363 . S
C3490 C3480 1.465 . S
C3490 U3486 2.847 . S
C3490 O3504 1.249 . S
C3490 O3505 1.202 . S
C3491 C3489 1.363 . S
C3491 C3493 1.408 . S
C3491 C3496 1.342 . S
C3492 C3493 1.310 . S
C3492 C3495 1.461 . S
C3492 H3512 0.932 . S
C3493 C3491 1.408 . S
C3493 C3492 1.310 . S
C3493 H3513 0.930 . S
C3494 C3495 1.474 . S
C3494 C3496 1.285 . S
C3494 H3514 0.929 . S
C3495 C3492 1.461 . S
C3495 C3494 1.474 . S
C3496 C3491 1.342 . S
C3496 C3494 1.285 . S
C3496 H3515 0.930 . S
C3497 C3500 1.424 . S
C3497 C3502 1.245 . S
C3497 C3503 1.428 . S
C3498 C3501 1.260 . S
C3498 C3502 1.477 . S
C3498 H3516 0.932 . S
C3499 C3500 1.384 . S
C3499 C3501 1.479 . S
C3499 H3517 0.929 . S
C3500 C3497 1.424 . S
C3500 C3499 1.384 . S
C3500 H3518 0.928 . S
C3501 C3498 1.260 . S
C3501 C3499 1.479 . S
C3502 C3497 1.245 . S
C3502 C3498 1.477 . S
C3502 H3519 0.932 . S
C3503 U3486 2.882 . S
C3503 C3497 1.428 . S
C3503 O3506 1.301 . S
C3503 O3507 1.282 . S
O3504 U3486 2.441 . S
O3504 C3490 1.249 . S
O3505 U3486 2.420 . S
O3505 C3490 1.202 . S
O3506 U3486 2.455 . S
O3506 C3503 1.301 . S
O3507 U3486 2.449 . S
O3507 C3503 1.282 . S
H3508 C3481 0.931 . S
H3509 C3483 0.929 . S
H3510 C3484 0.930 . S
H3511 C3485 0.931 . S
H3512 C3492 0.932 . S
H3513 C3493 0.930 . S
H3514 C3494 0.929 . S
H3515 C3496 0.930 . S
H3516 C3498 0.932 . S
H3517 C3499 0.929 . S
H3518 C3500 0.928 . S
H3519 C3502 0.932 . S
C3520 C3521 1.264 . S
C3520 C3525 1.479 . S
C3520 C3530 1.465 . S
C3521 C3520 1.264 . S
C3521 C3523 1.339 . S
C3521 H3548 0.931 . S
C3522 C3523 1.395 . S
C3522 C3524 1.320 . S
C3523 C3521 1.339 . S
C3523 C3522 1.395 . S
C3523 H3549 0.929 . S
C3524 C3522 1.320 . S
C3524 C3525 1.405 . S
C3524 H3550 0.930 . S
C3525 C3520 1.479 . S
C3525 C3524 1.405 . S
C3525 H3551 0.931 . S
U3526 O3527 2.454 . S
U3526 O3528 2.458 . S
U3526 C3529 2.984 . S
U3526 C3530 2.847 . S
U3526 C3543 2.882 . S
U3526 O3544 2.441 . S
U3526 O3545 2.420 . S
U3526 O3546 2.455 . S
U3526 O3547 2.449 . S
O3527 U3526 2.454 . S
O3527 C3529 1.353 . S
O3528 U3526 2.458 . S
O3528 C3529 1.286 . S
C3529 U3526 2.984 . S
C3529 O3527 1.353 . S
C3529 O3528 1.286 . S
C3529 C3531 1.363 . S
C3530 C3520 1.465 . S
C3530 U3526 2.847 . S
C3530 O3544 1.249 . S
C3530 O3545 1.202 . S
C3531 C3529 1.363 . S
C3531 C3533 1.408 . S
C3531 C3536 1.342 . S
C3532 C3533 1.310 . S
C3532 C3535 1.461 . S
C3532 H3552 0.932 . S
C3533 C3531 1.408 . S
C3533 C3532 1.310 . S
C3533 H3553 0.930 . S
C3534 C3535 1.474 . S
C3534 C3536 1.285 . S
C3534 H3554 0.929 . S
C3535 C3532 1.461 . S
C3535 C3534 1.474 . S
C3536 C3531 1.342 . S
C3536 C3534 1.285 . S
C3536 H3555 0.930 . S
C3537 C3540 1.424 . S
C3537 C3542 1.245 . S
C3537 C3543 1.428 . S
C3538 C3541 1.260 . S
C3538 C3542 1.477 . S
C3538 H3556 0.932 . S
C3539 C3540 1.384 . S
C3539 C3541 1.479 . S
C3539 H3557 0.929 . S
C3540 C3537 1.424 . S
C3540 C3539 1.384 . S
C3540 H3558 0.928 . S
C3541 C3538 1.260 . S
C3541 C3539 1.479 . S
C3542 C3537 1.245 . S
C3542 C3538 1.477 . S
C3542 H3559 0.932 . S
C3543 U3526 2.882 . S
C3543 C3537 1.428 . S
C3543 O3546 1.301 . S
C3543 O3547 1.282 . S
O3544 U3526 2.441 . S
O3544 C3530 1.249 . S
O3545 U3526 2.420 . S
O3545 C3530 1.202 . S
O3546 U3526 2.455 . S
O3546 C3543 1.301 . S
O3547 U3526 2.449 . S
O3547 C3543 1.282 . S
H3548 C3521 0.931 . S
H3549 C3523 0.929 . S
H3550 C3524 0.930 . S
H3551 C3525 0.931 . S
H3552 C3532 0.932 . S
H3553 C3533 0.930 . S
H3554 C3534 0.929 . S
H3555 C3536 0.930 . S
H3556 C3538 0.932 . S
H3557 C3539 0.929 . S
H3558 C3540 0.928 . S
H3559 C3542 0.932 . S
C3560 C3561 1.264 . S
C3560 C3565 1.479 . S
C3560 C3570 1.465 . S
C3561 C3560 1.264 . S
C3561 C3563 1.339 . S
C3561 H3588 0.931 . S
C3562 C3563 1.395 . S
C3562 C3564 1.320 . S
C3563 C3561 1.339 . S
C3563 C3562 1.395 . S
C3563 H3589 0.929 . S
C3564 C3562 1.320 . S
C3564 C3565 1.405 . S
C3564 H3590 0.930 . S
C3565 C3560 1.479 . S
C3565 C3564 1.405 . S
C3565 H3591 0.931 . S
U3566 O3567 2.454 . S
U3566 O3568 2.458 . S
U3566 C3569 2.984 . S
U3566 C3570 2.847 . S
U3566 C3583 2.882 . S
U3566 O3584 2.441 . S
U3566 O3585 2.420 . S
U3566 O3586 2.455 . S
U3566 O3587 2.449 . S
O3567 U3566 2.454 . S
O3567 C3569 1.353 . S
O3568 U3566 2.458 . S
O3568 C3569 1.286 . S
C3569 U3566 2.984 . S
C3569 O3567 1.353 . S
C3569 O3568 1.286 . S
C3569 C3571 1.363 . S
C3570 C3560 1.465 . S
C3570 U3566 2.847 . S
C3570 O3584 1.249 . S
C3570 O3585 1.202 . S
C3571 C3569 1.363 . S
C3571 C3573 1.408 . S
C3571 C3576 1.342 . S
C3572 C3573 1.310 . S
C3572 C3575 1.461 . S
C3572 H3592 0.932 . S
C3573 C3571 1.408 . S
C3573 C3572 1.310 . S
C3573 H3593 0.930 . S
C3574 C3575 1.474 . S
C3574 C3576 1.285 . S
C3574 H3594 0.929 . S
C3575 C3572 1.461 . S
C3575 C3574 1.474 . S
C3576 C3571 1.342 . S
C3576 C3574 1.285 . S
C3576 H3595 0.930 . S
C3577 C3580 1.424 . S
C3577 C3582 1.245 . S
C3577 C3583 1.428 . S
C3578 C3581 1.260 . S
C3578 C3582 1.477 . S
C3578 H3596 0.932 . S
C3579 C3580 1.384 . S
C3579 C3581 1.479 . S
C3579 H3597 0.929 . S
C3580 C3577 1.424 . S
C3580 C3579 1.384 . S
C3580 H3598 0.928 . S
C3581 C3578 1.260 . S
C3581 C3579 1.479 . S
C3582 C3577 1.245 . S
C3582 C3578 1.477 . S
C3582 H3599 0.932 . S
C3583 U3566 2.882 . S
C3583 C3577 1.428 . S
C3583 O3586 1.301 . S
C3583 O3587 1.282 . S
O3584 U3566 2.441 . S
O3584 C3570 1.249 . S
O3585 U3566 2.420 . S
O3585 C3570 1.202 . S
O3586 U3566 2.455 . S
O3586 C3583 1.301 . S
O3587 U3566 2.449 . S
O3587 C3583 1.282 . S
H3588 C3561 0.931 . S
H3589 C3563 0.929 . S
H3590 C3564 0.930 . S
H3591 C3565 0.931 . S
H3592 C3572 0.932 . S
H3593 C3573 0.930 . S
H3594 C3574 0.929 . S
H3595 C3576 0.930 . S
H3596 C3578 0.932 . S
H3597 C3579 0.929 . S
H3598 C3580 0.928 . S
H3599 C3582 0.932 . S
C3600 C3601 1.264 . S
C3600 C3605 1.479 . S
C3600 C3610 1.465 . S
C3601 C3600 1.264 . S
C3601 C3603 1.339 . S
C3601 H3628 0.931 . S
C3602 C3603 1.395 . S
C3602 C3604 1.320 . S
C3603 C3601 1.339 . S
C3603 C3602 1.395 . S
C3603 H3629 0.929 . S
C3604 C3602 1.320 . S
C3604 C3605 1.405 . S
C3604 H3630 0.930 . S
C3605 C3600 1.479 . S
C3605 C3604 1.405 . S
C3605 H3631 0.931 . S
U3606 O3607 2.454 . S
U3606 O3608 2.458 . S
U3606 C3609 2.984 . S
U3606 C3610 2.847 . S
U3606 C3623 2.882 . S
U3606 O3624 2.441 . S
U3606 O3625 2.420 . S
U3606 O3626 2.455 . S
U3606 O3627 2.449 . S
O3607 U3606 2.454 . S
O3607 C3609 1.353 . S
O3608 U3606 2.458 . S
O3608 C3609 1.286 . S
C3609 U3606 2.984 . S
C3609 O3607 1.353 . S
C3609 O3608 1.286 . S
C3609 C3611 1.363 . S
C3610 C3600 1.465 . S
C3610 U3606 2.847 . S
C3610 O3624 1.249 . S
C3610 O3625 1.202 . S
C3611 C3609 1.363 . S
C3611 C3613 1.408 . S
C3611 C3616 1.342 . S
C3612 C3613 1.310 . S
C3612 C3615 1.461 . S
C3612 H3632 0.932 . S
C3613 C3611 1.408 . S
C3613 C3612 1.310 . S
C3613 H3633 0.930 . S
C3614 C3615 1.474 . S
C3614 C3616 1.285 . S
C3614 H3634 0.929 . S
C3615 C3612 1.461 . S
C3615 C3614 1.474 . S
C3616 C3611 1.342 . S
C3616 C3614 1.285 . S
C3616 H3635 0.930 . S
C3617 C3620 1.424 . S
C3617 C3622 1.245 . S
C3617 C3623 1.428 . S
C3618 C3621 1.260 . S
C3618 C3622 1.477 . S
C3618 H3636 0.932 . S
C3619 C3620 1.384 . S
C3619 C3621 1.479 . S
C3619 H3637 0.929 . S
C3620 C3617 1.424 . S
C3620 C3619 1.384 . S
C3620 H3638 0.928 . S
C3621 C3618 1.260 . S
C3621 C3619 1.479 . S
C3622 C3617 1.245 . S
C3622 C3618 1.477 . S
C3622 H3639 0.932 . S
C3623 U3606 2.882 . S
C3623 C3617 1.428 . S
C3623 O3626 1.301 . S
C3623 O3627 1.282 . S
O3624 U3606 2.441 . S
O3624 C3610 1.249 . S
O3625 U3606 2.420 . S
O3625 C3610 1.202 . S
O3626 U3606 2.455 . S
O3626 C3623 1.301 . S
O3627 U3606 2.449 . S
O3627 C3623 1.282 . S
H3628 C3601 0.931 . S
H3629 C3603 0.929 . S
H3630 C3604 0.930 . S
H3631 C3605 0.931 . S
H3632 C3612 0.932 . S
H3633 C3613 0.930 . S
H3634 C3614 0.929 . S
H3635 C3616 0.930 . S
H3636 C3618 0.932 . S
H3637 C3619 0.929 . S
H3638 C3620 0.928 . S
H3639 C3622 0.932 . S
C3640 C3641 1.264 . S
C3640 C3645 1.479 . S
C3640 C3650 1.465 . S
C3641 C3640 1.264 . S
C3641 C3643 1.339 . S
C3641 H3668 0.931 . S
C3642 C3643 1.395 . S
C3642 C3644 1.320 . S
C3643 C3641 1.339 . S
C3643 C3642 1.395 . S
C3643 H3669 0.929 . S
C3644 C3642 1.320 . S
C3644 C3645 1.405 . S
C3644 H3670 0.930 . S
C3645 C3640 1.479 . S
C3645 C3644 1.405 . S
C3645 H3671 0.931 . S
U3646 O3647 2.454 . S
U3646 O3648 2.458 . S
U3646 C3649 2.984 . S
U3646 C3650 2.847 . S
U3646 C3663 2.882 . S
U3646 O3664 2.441 . S
U3646 O3665 2.420 . S
U3646 O3666 2.455 . S
U3646 O3667 2.449 . S
O3647 U3646 2.454 . S
O3647 C3649 1.353 . S
O3648 U3646 2.458 . S
O3648 C3649 1.286 . S
C3649 U3646 2.984 . S
C3649 O3647 1.353 . S
C3649 O3648 1.286 . S
C3649 C3651 1.363 . S
C3650 C3640 1.465 . S
C3650 U3646 2.847 . S
C3650 O3664 1.249 . S
C3650 O3665 1.202 . S
C3651 C3649 1.363 . S
C3651 C3653 1.408 . S
C3651 C3656 1.342 . S
C3652 C3653 1.310 . S
C3652 C3655 1.461 1_554 S
C3652 H3672 0.932 1_554 S
C3653 C3651 1.408 . S
C3653 C3652 1.310 . S
C3653 H3673 0.930 . S
C3654 C3655 1.474 1_554 S
C3654 C3656 1.285 . S
C3654 H3674 0.905 1_554 S
C3655 C3652 1.461 1_556 S
C3655 C3654 1.474 1_556 S
C3656 C3651 1.342 . S
C3656 C3654 1.285 . S
C3656 H3675 0.930 . S
C3657 C3660 1.424 . S
C3657 C3662 1.245 . S
C3657 C3663 1.428 . S
C3658 C3661 1.260 . S
C3658 C3662 1.477 . S
C3658 H3676 0.932 . S
C3659 C3660 1.384 . S
C3659 C3661 1.479 . S
C3659 H3677 0.929 . S
C3660 C3657 1.424 . S
C3660 C3659 1.384 . S
C3660 H3678 0.928 . S
C3661 C3658 1.260 . S
C3661 C3659 1.479 . S
C3662 C3657 1.245 . S
C3662 C3658 1.477 . S
C3662 H3679 0.932 . S
C3663 U3646 2.882 . S
C3663 C3657 1.428 . S
C3663 O3666 1.301 . S
C3663 O3667 1.282 . S
O3664 U3646 2.441 . S
O3664 C3650 1.249 . S
O3665 U3646 2.420 . S
O3665 C3650 1.202 . S
O3666 U3646 2.455 . S
O3666 C3663 1.301 . S
O3667 U3646 2.449 . S
O3667 C3663 1.282 . S
H3668 C3641 0.931 . S
H3669 C3643 0.929 . S
H3670 C3644 0.930 . S
H3671 C3645 0.931 . S
H3672 C3652 0.932 1_556 S
H3673 C3653 0.930 . S
H3674 C3654 0.905 1_556 S
H3675 C3656 0.930 . S
H3676 C3658 0.932 . S
H3677 C3659 0.929 . S
H3678 C3660 0.928 . S
H3679 C3662 0.932 . S
C3680 C3681 1.264 . S
C3680 C3685 1.479 . S
C3680 C3690 1.465 . S
C3681 C3680 1.264 . S
C3681 C3683 1.339 . S
C3681 H3708 0.931 . S
C3682 C3683 1.395 . S
C3682 C3684 1.320 . S
C3683 C3681 1.339 . S
C3683 C3682 1.395 . S
C3683 H3709 0.929 . S
C3684 C3682 1.320 . S
C3684 C3685 1.405 . S
C3684 H3710 0.930 . S
C3685 C3680 1.479 . S
C3685 C3684 1.405 . S
C3685 H3711 0.931 . S
U3686 O3687 2.454 . S
U3686 O3688 2.458 . S
U3686 C3689 2.984 . S
U3686 C3690 2.847 . S
U3686 C3703 2.882 . S
U3686 O3704 2.441 . S
U3686 O3705 2.420 . S
U3686 O3706 2.455 . S
U3686 O3707 2.449 . S
O3687 U3686 2.454 . S
O3687 C3689 1.353 . S
O3688 U3686 2.458 . S
O3688 C3689 1.286 . S
C3689 U3686 2.984 . S
C3689 O3687 1.353 . S
C3689 O3688 1.286 . S
C3689 C3691 1.363 . S
C3690 C3680 1.465 . S
C3690 U3686 2.847 . S
C3690 O3704 1.249 . S
C3690 O3705 1.202 . S
C3691 C3689 1.363 . S
C3691 C3693 1.408 . S
C3691 C3696 1.342 . S
C3692 C3693 1.310 . S
C3692 C3695 1.461 . S
C3692 H3712 0.932 . S
C3693 C3691 1.408 . S
C3693 C3692 1.310 . S
C3693 H3713 0.930 . S
C3694 C3695 1.474 . S
C3694 C3696 1.285 . S
C3694 H3714 0.929 . S
C3695 C3692 1.461 . S
C3695 C3694 1.474 . S
C3696 C3691 1.342 . S
C3696 C3694 1.285 . S
C3696 H3715 0.930 . S
C3697 C3700 1.424 . S
C3697 C3702 1.245 . S
C3697 C3703 1.428 . S
C3698 C3701 1.260 . S
C3698 C3702 1.477 . S
C3698 H3716 0.932 . S
C3699 C3700 1.384 . S
C3699 C3701 1.479 . S
C3699 H3717 0.929 . S
C3700 C3697 1.424 . S
C3700 C3699 1.384 . S
C3700 H3718 0.928 . S
C3701 C3698 1.260 . S
C3701 C3699 1.479 . S
C3702 C3697 1.245 . S
C3702 C3698 1.477 . S
C3702 H3719 0.932 . S
C3703 U3686 2.882 . S
C3703 C3697 1.428 . S
C3703 O3706 1.301 . S
C3703 O3707 1.282 . S
O3704 U3686 2.441 . S
O3704 C3690 1.249 . S
O3705 U3686 2.420 . S
O3705 C3690 1.202 . S
O3706 U3686 2.455 . S
O3706 C3703 1.301 . S
O3707 U3686 2.449 . S
O3707 C3703 1.282 . S
H3708 C3681 0.931 . S
H3709 C3683 0.929 . S
H3710 C3684 0.930 . S
H3711 C3685 0.931 . S
H3712 C3692 0.932 . S
H3713 C3693 0.930 . S
H3714 C3694 0.929 . S
H3715 C3696 0.930 . S
H3716 C3698 0.932 . S
H3717 C3699 0.929 . S
H3718 C3700 0.928 . S
H3719 C3702 0.932 . S
C3720 C3721 1.264 . S
C3720 C3725 1.479 . S
C3720 C3730 1.465 . S
C3721 C3720 1.264 . S
C3721 C3723 1.339 . S
C3721 H3748 0.931 . S
C3722 C3723 1.395 . S
C3722 C3724 1.320 . S
C3723 C3721 1.339 . S
C3723 C3722 1.395 . S
C3723 H3749 0.929 . S
C3724 C3722 1.320 . S
C3724 C3725 1.405 . S
C3724 H3750 0.930 . S
C3725 C3720 1.479 . S
C3725 C3724 1.405 . S
C3725 H3751 0.931 . S
U3726 O3727 2.454 . S
U3726 O3728 2.458 . S
U3726 C3729 2.984 . S
U3726 C3730 2.847 . S
U3726 C3743 2.882 . S
U3726 O3744 2.441 . S
U3726 O3745 2.420 . S
U3726 O3746 2.455 . S
U3726 O3747 2.449 . S
O3727 U3726 2.454 . S
O3727 C3729 1.353 . S
O3728 U3726 2.458 . S
O3728 C3729 1.286 . S
C3729 U3726 2.984 . S
C3729 O3727 1.353 . S
C3729 O3728 1.286 . S
C3729 C3731 1.363 . S
C3730 C3720 1.465 . S
C3730 U3726 2.847 . S
C3730 O3744 1.249 . S
C3730 O3745 1.202 . S
C3731 C3729 1.363 . S
C3731 C3733 1.408 . S
C3731 C3736 1.342 . S
C3732 C3733 1.310 . S
C3732 C3735 1.461 1_556 S
C3732 H3752 0.932 1_556 S
C3733 C3731 1.408 . S
C3733 C3732 1.310 . S
C3733 H3753 0.930 . S
C3734 C3735 1.474 1_556 S
C3734 C3736 1.285 . S
C3734 H3754 0.905 1_556 S
C3735 C3732 1.461 1_554 S
C3735 C3734 1.474 1_554 S
C3736 C3731 1.342 . S
C3736 C3734 1.285 . S
C3736 H3755 0.930 . S
C3737 C3740 1.424 . S
C3737 C3742 1.245 . S
C3737 C3743 1.428 . S
C3738 C3741 1.260 . S
C3738 C3742 1.477 . S
C3738 H3756 0.932 . S
C3739 C3740 1.384 . S
C3739 C3741 1.479 . S
C3739 H3757 0.929 . S
C3740 C3737 1.424 . S
C3740 C3739 1.384 . S
C3740 H3758 0.928 . S
C3741 C3738 1.260 . S
C3741 C3739 1.479 . S
C3742 C3737 1.245 . S
C3742 C3738 1.477 . S
C3742 H3759 0.932 . S
C3743 U3726 2.882 . S
C3743 C3737 1.428 . S
C3743 O3746 1.301 . S
C3743 O3747 1.282 . S
O3744 U3726 2.441 . S
O3744 C3730 1.249 . S
O3745 U3726 2.420 . S
O3745 C3730 1.202 . S
O3746 U3726 2.455 . S
O3746 C3743 1.301 . S
O3747 U3726 2.449 . S
O3747 C3743 1.282 . S
H3748 C3721 0.931 . S
H3749 C3723 0.929 . S
H3750 C3724 0.930 . S
H3751 C3725 0.931 . S
H3752 C3732 0.932 1_554 S
H3753 C3733 0.930 . S
H3754 C3734 0.905 1_554 S
H3755 C3736 0.930 . S
H3756 C3738 0.932 . S
H3757 C3739 0.929 . S
H3758 C3740 0.928 . S
H3759 C3742 0.932 . S
C3760 C3761 1.264 . S
C3760 C3765 1.479 . S
C3760 C3770 1.465 . S
C3761 C3760 1.264 . S
C3761 C3763 1.339 . S
C3761 H3788 0.931 . S
C3762 C3763 1.395 . S
C3762 C3764 1.320 . S
C3763 C3761 1.339 . S
C3763 C3762 1.395 . S
C3763 H3789 0.929 . S
C3764 C3762 1.320 . S
C3764 C3765 1.405 . S
C3764 H3790 0.930 . S
C3765 C3760 1.479 . S
C3765 C3764 1.405 . S
C3765 H3791 0.931 . S
U3766 O3767 2.454 . S
U3766 O3768 2.458 . S
U3766 C3769 2.984 . S
U3766 C3770 2.847 . S
U3766 C3783 2.882 . S
U3766 O3784 2.441 . S
U3766 O3785 2.420 . S
U3766 O3786 2.455 . S
U3766 O3787 2.449 . S
O3767 U3766 2.454 . S
O3767 C3769 1.353 . S
O3768 U3766 2.458 . S
O3768 C3769 1.286 . S
C3769 U3766 2.984 . S
C3769 O3767 1.353 . S
C3769 O3768 1.286 . S
C3769 C3771 1.363 . S
C3770 C3760 1.465 . S
C3770 U3766 2.847 . S
C3770 O3784 1.249 . S
C3770 O3785 1.202 . S
C3771 C3769 1.363 . S
C3771 C3773 1.408 . S
C3771 C3776 1.342 . S
C3772 C3773 1.310 . S
C3772 C3775 1.461 . S
C3772 H3792 0.932 . S
C3773 C3771 1.408 . S
C3773 C3772 1.310 . S
C3773 H3793 0.930 . S
C3774 C3775 1.474 . S
C3774 C3776 1.285 . S
C3774 H3794 0.929 . S
C3775 C3772 1.461 . S
C3775 C3774 1.474 . S
C3776 C3771 1.342 . S
C3776 C3774 1.285 . S
C3776 H3795 0.930 . S
C3777 C3780 1.424 . S
C3777 C3782 1.245 . S
C3777 C3783 1.428 . S
C3778 C3781 1.260 . S
C3778 C3782 1.477 . S
C3778 H3796 0.932 . S
C3779 C3780 1.384 . S
C3779 C3781 1.479 . S
C3779 H3797 0.929 . S
C3780 C3777 1.424 . S
C3780 C3779 1.384 . S
C3780 H3798 0.928 . S
C3781 C3778 1.260 . S
C3781 C3779 1.479 . S
C3782 C3777 1.245 . S
C3782 C3778 1.477 . S
C3782 H3799 0.932 . S
C3783 U3766 2.882 . S
C3783 C3777 1.428 . S
C3783 O3786 1.301 . S
C3783 O3787 1.282 . S
O3784 U3766 2.441 . S
O3784 C3770 1.249 . S
O3785 U3766 2.420 . S
O3785 C3770 1.202 . S
O3786 U3766 2.455 . S
O3786 C3783 1.301 . S
O3787 U3766 2.449 . S
O3787 C3783 1.282 . S
H3788 C3761 0.931 . S
H3789 C3763 0.929 . S
H3790 C3764 0.930 . S
H3791 C3765 0.931 . S
H3792 C3772 0.932 . S
H3793 C3773 0.930 . S
H3794 C3774 0.929 . S
H3795 C3776 0.930 . S
H3796 C3778 0.932 . S
H3797 C3779 0.929 . S
H3798 C3780 0.928 . S
H3799 C3782 0.932 . S
C3800 C3801 1.264 . S
C3800 C3805 1.479 . S
C3800 C3810 1.465 . S
C3801 C3800 1.264 . S
C3801 C3803 1.339 . S
C3801 H3828 0.931 . S
C3802 C3803 1.395 . S
C3802 C3804 1.320 . S
C3803 C3801 1.339 . S
C3803 C3802 1.395 . S
C3803 H3829 0.929 . S
C3804 C3802 1.320 . S
C3804 C3805 1.405 . S
C3804 H3830 0.930 . S
C3805 C3800 1.479 . S
C3805 C3804 1.405 . S
C3805 H3831 0.931 . S
U3806 O3807 2.454 . S
U3806 O3808 2.458 . S
U3806 C3809 2.984 . S
U3806 C3810 2.847 . S
U3806 C3823 2.882 . S
U3806 O3824 2.441 . S
U3806 O3825 2.420 . S
U3806 O3826 2.455 . S
U3806 O3827 2.449 . S
O3807 U3806 2.454 . S
O3807 C3809 1.353 . S
O3808 U3806 2.458 . S
O3808 C3809 1.286 . S
C3809 U3806 2.984 . S
C3809 O3807 1.353 . S
C3809 O3808 1.286 . S
C3809 C3811 1.363 . S
C3810 C3800 1.465 . S
C3810 U3806 2.847 . S
C3810 O3824 1.249 . S
C3810 O3825 1.202 . S
C3811 C3809 1.363 . S
C3811 C3813 1.408 . S
C3811 C3816 1.342 . S
C3812 C3813 1.310 . S
C3812 C3815 1.461 . S
C3812 H3832 0.932 . S
C3813 C3811 1.408 . S
C3813 C3812 1.310 . S
C3813 H3833 0.930 . S
C3814 C3815 1.474 . S
C3814 C3816 1.285 . S
C3814 H3834 0.929 . S
C3815 C3812 1.461 . S
C3815 C3814 1.474 . S
C3816 C3811 1.342 . S
C3816 C3814 1.285 . S
C3816 H3835 0.930 . S
C3817 C3820 1.424 . S
C3817 C3822 1.245 . S
C3817 C3823 1.428 . S
C3818 C3821 1.260 . S
C3818 C3822 1.477 . S
C3818 H3836 0.932 . S
C3819 C3820 1.384 . S
C3819 C3821 1.479 . S
C3819 H3837 0.929 . S
C3820 C3817 1.424 . S
C3820 C3819 1.384 . S
C3820 H3838 0.928 . S
C3821 C3818 1.260 . S
C3821 C3819 1.479 . S
C3822 C3817 1.245 . S
C3822 C3818 1.477 . S
C3822 H3839 0.932 . S
C3823 U3806 2.882 . S
C3823 C3817 1.428 . S
C3823 O3826 1.301 . S
C3823 O3827 1.282 . S
O3824 U3806 2.441 . S
O3824 C3810 1.249 . S
O3825 U3806 2.420 . S
O3825 C3810 1.202 . S
O3826 U3806 2.455 . S
O3826 C3823 1.301 . S
O3827 U3806 2.449 . S
O3827 C3823 1.282 . S
H3828 C3801 0.931 . S
H3829 C3803 0.929 . S
H3830 C3804 0.930 . S
H3831 C3805 0.931 . S
H3832 C3812 0.932 . S
H3833 C3813 0.930 . S
H3834 C3814 0.929 . S
H3835 C3816 0.930 . S
H3836 C3818 0.932 . S
H3837 C3819 0.929 . S
H3838 C3820 0.928 . S
H3839 C3822 0.932 . S
C3840 C3841 1.384 . S
C3840 H3853 0.947 . S
C3840 C3875 1.382 . S
C3841 C3840 1.384 . S
C3841 C3842 1.378 . S
C3842 C3841 1.378 . S
C3842 C3843 1.378 . S
C3842 H3854 0.952 . S
C3843 C3842 1.378 . S
C3843 H3855 0.950 . S
C3843 C3874 1.383 . S
H3844 C3863 0.947 . S
H3845 C3864 0.946 . S
H3846 C3866 0.953 . S
H3847 C3867 0.945 . S
H3848 C3869 0.952 . S
H3849 C3870 0.949 . S
H3850 C3872 0.950 . S
H3851 C3873 0.948 . S
H3852 C3875 0.951 . S
H3853 C3840 0.947 . S
H3854 C3842 0.952 . S
H3855 C3843 0.950 . S
N3856 C3859 1.382 . S
N3856 C3861 1.363 . S
N3857 C3859 1.371 . S
N3857 C3860 1.372 . S
N3858 C3860 1.361 . S
N3858 C3861 1.377 . S
C3859 N3856 1.382 . S
C3859 N3857 1.371 . S
C3859 C3862 1.480 . S
C3860 N3857 1.372 . S
C3860 N3858 1.361 . S
C3860 C3868 1.457 . S
C3861 N3856 1.363 . S
C3861 N3858 1.377 . S
C3861 C3874 1.479 . S
C3862 C3859 1.480 . S
C3862 C3863 1.383 . S
C3862 C3867 1.385 . S
C3863 H3844 0.947 . S
C3863 C3862 1.383 . S
C3863 C3864 1.388 . S
C3864 H3845 0.946 . S
C3864 C3863 1.388 . S
C3864 C3865 1.384 . S
C3865 C3864 1.384 . S
C3865 C3866 1.377 . S
C3866 H3846 0.953 . S
C3866 C3865 1.377 . S
C3866 C3867 1.369 . S
C3867 H3847 0.945 . S
C3867 C3862 1.385 . S
C3867 C3866 1.369 . S
C3868 C3860 1.457 . S
C3868 C3869 1.372 . S
C3868 C3873 1.364 . S
C3869 H3848 0.952 . S
C3869 C3868 1.372 . S
C3869 C3870 1.389 . S
C3870 H3849 0.949 . S
C3870 C3869 1.389 . S
C3870 C3871 1.387 . S
C3871 C3870 1.387 . S
C3871 C3872 1.372 . S
C3872 H3850 0.950 . S
C3872 C3871 1.372 . S
C3872 C3873 1.379 . S
C3873 H3851 0.948 . S
C3873 C3868 1.364 . S
C3873 C3872 1.379 . S
C3874 C3843 1.383 . S
C3874 C3861 1.479 . S
C3874 C3875 1.398 . S
C3875 C3840 1.382 . S
C3875 H3852 0.951 . S
C3875 C3874 1.398 . S
C3876 C3877 1.384 . S
C3876 H3889 0.947 . S
C3876 C3911 1.382 . S
C3877 C3876 1.384 . S
C3877 C3878 1.378 . S
C3878 C3877 1.378 . S
C3878 C3879 1.378 . S
C3878 H3890 0.952 . S
C3879 C3878 1.378 . S
C3879 H3891 0.950 . S
C3879 C3910 1.383 . S
H3880 C3899 0.947 . S
H3881 C3900 0.941 1_655 S
H3882 C3902 0.953 . S
H3883 C3903 0.945 . S
H3884 C3905 0.952 . S
H3885 C3906 0.949 . S
H3886 C3908 0.950 . S
H3887 C3909 0.948 . S
H3888 C3911 0.951 . S
H3889 C3876 0.947 . S
H3890 C3878 0.952 . S
H3891 C3879 0.950 . S
N3892 C3895 1.382 . S
N3892 C3897 1.363 . S
N3893 C3895 1.371 . S
N3893 C3896 1.372 . S
N3894 C3896 1.361 . S
N3894 C3897 1.377 . S
C3895 N3892 1.382 . S
C3895 N3893 1.371 . S
C3895 C3898 1.480 . S
C3896 N3893 1.372 . S
C3896 N3894 1.361 . S
C3896 C3904 1.457 . S
C3897 N3892 1.363 . S
C3897 N3894 1.377 . S
C3897 C3910 1.479 . S
C3898 C3895 1.480 . S
C3898 C3899 1.383 . S
C3898 C3903 1.385 . S
C3899 H3880 0.947 . S
C3899 C3898 1.383 . S
C3899 C3900 1.388 . S
C3900 H3881 0.941 1_455 S
C3900 C3899 1.388 . S
C3900 C3901 1.384 . S
C3901 C3900 1.384 . S
C3901 C3902 1.377 . S
C3902 H3882 0.953 . S
C3902 C3901 1.377 . S
C3902 C3903 1.369 . S
C3903 H3883 0.945 . S
C3903 C3898 1.385 . S
C3903 C3902 1.369 . S
C3904 C3896 1.457 . S
C3904 C3905 1.372 . S
C3904 C3909 1.364 . S
C3905 H3884 0.952 . S
C3905 C3904 1.372 . S
C3905 C3906 1.389 . S
C3906 H3885 0.949 . S
C3906 C3905 1.389 . S
C3906 C3907 1.387 . S
C3907 C3906 1.387 . S
C3907 C3908 1.372 . S
C3908 H3886 0.950 . S
C3908 C3907 1.372 . S
C3908 C3909 1.379 . S
C3909 H3887 0.948 . S
C3909 C3904 1.364 . S
C3909 C3908 1.379 . S
C3910 C3879 1.383 . S
C3910 C3897 1.479 . S
C3910 C3911 1.398 . S
C3911 C3876 1.382 . S
C3911 H3888 0.951 . S
C3911 C3910 1.398 . S
C3912 C3913 1.384 . S
C3912 H3925 0.947 . S
C3912 C3947 1.382 . S
C3913 C3912 1.384 . S
C3913 C3914 1.378 . S
C3914 C3913 1.378 . S
C3914 C3915 1.378 . S
C3914 H3926 0.952 . S
C3915 C3914 1.378 . S
C3915 H3927 0.950 . S
C3915 C3946 1.383 . S
H3916 C3935 0.947 . S
H3917 C3936 0.946 . S
H3918 C3938 0.953 . S
H3919 C3939 0.945 . S
H3920 C3941 0.952 . S
H3921 C3942 0.949 . S
H3922 C3944 0.950 . S
H3923 C3945 0.948 . S
H3924 C3947 0.951 . S
H3925 C3912 0.947 . S
H3926 C3914 0.952 . S
H3927 C3915 0.950 . S
N3928 C3931 1.382 . S
N3928 C3933 1.363 . S
N3929 C3931 1.371 . S
N3929 C3932 1.372 . S
N3930 C3932 1.361 . S
N3930 C3933 1.377 . S
C3931 N3928 1.382 . S
C3931 N3929 1.371 . S
C3931 C3934 1.480 . S
C3932 N3929 1.372 . S
C3932 N3930 1.361 . S
C3932 C3940 1.457 . S
C3933 N3928 1.363 . S
C3933 N3930 1.377 . S
C3933 C3946 1.479 . S
C3934 C3931 1.480 . S
C3934 C3935 1.383 . S
C3934 C3939 1.385 . S
C3935 H3916 0.947 . S
C3935 C3934 1.383 . S
C3935 C3936 1.388 . S
C3936 H3917 0.946 . S
C3936 C3935 1.388 . S
C3936 C3937 1.384 . S
C3937 C3936 1.384 . S
C3937 C3938 1.377 . S
C3938 H3918 0.953 . S
C3938 C3937 1.377 . S
C3938 C3939 1.369 . S
C3939 H3919 0.945 . S
C3939 C3934 1.385 . S
C3939 C3938 1.369 . S
C3940 C3932 1.457 . S
C3940 C3941 1.372 . S
C3940 C3945 1.364 . S
C3941 H3920 0.952 . S
C3941 C3940 1.372 . S
C3941 C3942 1.389 . S
C3942 H3921 0.949 . S
C3942 C3941 1.389 . S
C3942 C3943 1.387 . S
C3943 C3942 1.387 . S
C3943 C3944 1.372 . S
C3944 H3922 0.950 . S
C3944 C3943 1.372 . S
C3944 C3945 1.379 . S
C3945 H3923 0.948 . S
C3945 C3940 1.364 . S
C3945 C3944 1.379 . S
C3946 C3915 1.383 . S
C3946 C3933 1.479 . S
C3946 C3947 1.398 . S
C3947 C3912 1.382 . S
C3947 H3924 0.951 . S
C3947 C3946 1.398 . S
C3948 C3949 1.384 . S
C3948 H3961 0.947 . S
C3948 C3983 1.382 . S
C3949 C3948 1.384 . S
C3949 C3950 1.378 . S
C3950 C3949 1.378 . S
C3950 C3951 1.378 . S
C3950 H3962 0.952 . S
C3951 C3950 1.378 . S
C3951 H3963 0.950 . S
C3951 C3982 1.383 . S
H3952 C3971 0.947 . S
H3953 C3972 0.946 . S
H3954 C3974 0.953 . S
H3955 C3975 0.945 . S
H3956 C3977 0.952 . S
H3957 C3978 0.949 . S
H3958 C3980 0.950 . S
H3959 C3981 0.948 . S
H3960 C3983 0.951 . S
H3961 C3948 0.947 . S
H3962 C3950 0.952 . S
H3963 C3951 0.950 . S
N3964 C3967 1.382 . S
N3964 C3969 1.363 . S
N3965 C3967 1.371 . S
N3965 C3968 1.372 . S
N3966 C3968 1.361 . S
N3966 C3969 1.377 . S
C3967 N3964 1.382 . S
C3967 N3965 1.371 . S
C3967 C3970 1.480 . S
C3968 N3965 1.372 . S
C3968 N3966 1.361 . S
C3968 C3976 1.457 . S
C3969 N3964 1.363 . S
C3969 N3966 1.377 . S
C3969 C3982 1.479 . S
C3970 C3967 1.480 . S
C3970 C3971 1.383 . S
C3970 C3975 1.385 . S
C3971 H3952 0.947 . S
C3971 C3970 1.383 . S
C3971 C3972 1.388 . S
C3972 H3953 0.946 . S
C3972 C3971 1.388 . S
C3972 C3973 1.384 . S
C3973 C3972 1.384 . S
C3973 C3974 1.377 . S
C3974 H3954 0.953 . S
C3974 C3973 1.377 . S
C3974 C3975 1.369 . S
C3975 H3955 0.945 . S
C3975 C3970 1.385 . S
C3975 C3974 1.369 . S
C3976 C3968 1.457 . S
C3976 C3977 1.372 . S
C3976 C3981 1.364 . S
C3977 H3956 0.952 . S
C3977 C3976 1.372 . S
C3977 C3978 1.389 . S
C3978 H3957 0.949 . S
C3978 C3977 1.389 . S
C3978 C3979 1.387 . S
C3979 C3978 1.387 . S
C3979 C3980 1.372 . S
C3980 H3958 0.950 . S
C3980 C3979 1.372 . S
C3980 C3981 1.379 . S
C3981 H3959 0.948 . S
C3981 C3976 1.364 . S
C3981 C3980 1.379 . S
C3982 C3951 1.383 . S
C3982 C3969 1.479 . S
C3982 C3983 1.398 . S
C3983 C3948 1.382 . S
C3983 H3960 0.951 . S
C3983 C3982 1.398 . S
C3984 C3985 1.384 . S
C3984 H3997 0.947 . S
C3984 C4019 1.382 . S
C3985 C3984 1.384 . S
C3985 C3986 1.378 . S
C3986 C3985 1.378 . S
C3986 C3987 1.378 . S
C3986 H3998 0.952 . S
C3987 C3986 1.378 . S
C3987 H3999 0.950 . S
C3987 C4018 1.383 . S
H3988 C4007 0.947 . S
H3989 C4008 0.946 . S
H3990 C4010 0.953 . S
H3991 C4011 0.945 . S
H3992 C4013 0.952 . S
H3993 C4014 0.949 . S
H3994 C4016 0.950 . S
H3995 C4017 0.948 . S
H3996 C4019 0.951 . S
H3997 C3984 0.947 . S
H3998 C3986 0.952 . S
H3999 C3987 0.950 . S
N4000 C4003 1.382 . S
N4000 C4005 1.363 . S
N4001 C4003 1.371 . S
N4001 C4004 1.372 . S
N4002 C4004 1.361 . S
N4002 C4005 1.377 . S
C4003 N4000 1.382 . S
C4003 N4001 1.371 . S
C4003 C4006 1.480 . S
C4004 N4001 1.372 . S
C4004 N4002 1.361 . S
C4004 C4012 1.457 . S
C4005 N4000 1.363 . S
C4005 N4002 1.377 . S
C4005 C4018 1.479 . S
C4006 C4003 1.480 . S
C4006 C4007 1.383 . S
C4006 C4011 1.385 . S
C4007 H3988 0.947 . S
C4007 C4006 1.383 . S
C4007 C4008 1.388 . S
C4008 H3989 0.946 . S
C4008 C4007 1.388 . S
C4008 C4009 1.384 . S
C4009 C4008 1.384 . S
C4009 C4010 1.377 . S
C4010 H3990 0.953 . S
C4010 C4009 1.377 . S
C4010 C4011 1.369 . S
C4011 H3991 0.945 . S
C4011 C4006 1.385 . S
C4011 C4010 1.369 . S
C4012 C4004 1.457 . S
C4012 C4013 1.372 . S
C4012 C4017 1.364 . S
C4013 H3992 0.952 . S
C4013 C4012 1.372 . S
C4013 C4014 1.389 . S
C4014 H3993 0.949 . S
C4014 C4013 1.389 . S
C4014 C4015 1.387 . S
C4015 C4014 1.387 . S
C4015 C4016 1.372 . S
C4016 H3994 0.950 . S
C4016 C4015 1.372 . S
C4016 C4017 1.379 . S
C4017 H3995 0.948 . S
C4017 C4012 1.364 . S
C4017 C4016 1.379 . S
C4018 C3987 1.383 . S
C4018 C4005 1.479 . S
C4018 C4019 1.398 . S
C4019 C3984 1.382 . S
C4019 H3996 0.951 . S
C4019 C4018 1.398 . S
C4020 C4021 1.384 . S
C4020 H4033 0.947 . S
C4020 C4055 1.382 . S
C4021 C4020 1.384 . S
C4021 C4022 1.378 . S
C4022 C4021 1.378 . S
C4022 C4023 1.378 . S
C4022 H4034 0.952 . S
C4023 C4022 1.378 . S
C4023 H4035 0.950 . S
C4023 C4054 1.383 . S
H4024 C4043 0.947 . S
H4025 C4044 0.946 . S
H4026 C4046 0.953 . S
H4027 C4047 0.945 . S
H4028 C4049 0.952 . S
H4029 C4050 0.949 . S
H4030 C4052 0.950 . S
H4031 C4053 0.948 . S
H4032 C4055 0.951 . S
H4033 C4020 0.947 . S
H4034 C4022 0.952 . S
H4035 C4023 0.950 . S
N4036 C4039 1.382 . S
N4036 C4041 1.363 . S
N4037 C4039 1.371 . S
N4037 C4040 1.372 . S
N4038 C4040 1.361 . S
N4038 C4041 1.377 . S
C4039 N4036 1.382 . S
C4039 N4037 1.371 . S
C4039 C4042 1.480 . S
C4040 N4037 1.372 . S
C4040 N4038 1.361 . S
C4040 C4048 1.457 . S
C4041 N4036 1.363 . S
C4041 N4038 1.377 . S
C4041 C4054 1.479 . S
C4042 C4039 1.480 . S
C4042 C4043 1.383 . S
C4042 C4047 1.385 . S
C4043 H4024 0.947 . S
C4043 C4042 1.383 . S
C4043 C4044 1.388 . S
C4044 H4025 0.946 . S
C4044 C4043 1.388 . S
C4044 C4045 1.384 . S
C4045 C4044 1.384 . S
C4045 C4046 1.377 . S
C4046 H4026 0.953 . S
C4046 C4045 1.377 . S
C4046 C4047 1.369 . S
C4047 H4027 0.945 . S
C4047 C4042 1.385 . S
C4047 C4046 1.369 . S
C4048 C4040 1.457 . S
C4048 C4049 1.372 . S
C4048 C4053 1.364 . S
C4049 H4028 0.952 . S
C4049 C4048 1.372 . S
C4049 C4050 1.389 . S
C4050 H4029 0.949 . S
C4050 C4049 1.389 . S
C4050 C4051 1.387 . S
C4051 C4050 1.387 . S
C4051 C4052 1.372 . S
C4052 H4030 0.950 . S
C4052 C4051 1.372 . S
C4052 C4053 1.379 . S
C4053 H4031 0.948 . S
C4053 C4048 1.364 . S
C4053 C4052 1.379 . S
C4054 C4023 1.383 . S
C4054 C4041 1.479 . S
C4054 C4055 1.398 . S
C4055 C4020 1.382 . S
C4055 H4032 0.951 . S
C4055 C4054 1.398 . S
C4056 C4057 1.384 . S
C4056 H4069 0.947 . S
C4056 C4091 1.382 . S
C4057 C4056 1.384 . S
C4057 C4058 1.378 . S
C4058 C4057 1.378 . S
C4058 C4059 1.378 . S
C4058 H4070 0.952 . S
C4059 C4058 1.378 . S
C4059 H4071 0.950 . S
C4059 C4090 1.383 . S
H4060 C4079 0.947 . S
H4061 C4080 0.946 . S
H4062 C4082 0.953 . S
H4063 C4083 0.945 . S
H4064 C4085 0.952 . S
H4065 C4086 0.949 . S
H4066 C4088 0.950 . S
H4067 C4089 0.948 . S
H4068 C4091 0.951 . S
H4069 C4056 0.947 . S
H4070 C4058 0.952 . S
H4071 C4059 0.950 . S
N4072 C4075 1.382 . S
N4072 C4077 1.363 . S
N4073 C4075 1.371 . S
N4073 C4076 1.372 . S
N4074 C4076 1.361 . S
N4074 C4077 1.377 . S
C4075 N4072 1.382 . S
C4075 N4073 1.371 . S
C4075 C4078 1.480 . S
C4076 N4073 1.372 . S
C4076 N4074 1.361 . S
C4076 C4084 1.457 . S
C4077 N4072 1.363 . S
C4077 N4074 1.377 . S
C4077 C4090 1.479 . S
C4078 C4075 1.480 . S
C4078 C4079 1.383 . S
C4078 C4083 1.385 . S
C4079 H4060 0.947 . S
C4079 C4078 1.383 . S
C4079 C4080 1.388 . S
C4080 H4061 0.946 . S
C4080 C4079 1.388 . S
C4080 C4081 1.384 . S
C4081 C4080 1.384 . S
C4081 C4082 1.377 . S
C4082 H4062 0.953 . S
C4082 C4081 1.377 . S
C4082 C4083 1.369 . S
C4083 H4063 0.945 . S
C4083 C4078 1.385 . S
C4083 C4082 1.369 . S
C4084 C4076 1.457 . S
C4084 C4085 1.372 . S
C4084 C4089 1.364 . S
C4085 H4064 0.952 . S
C4085 C4084 1.372 . S
C4085 C4086 1.389 . S
C4086 H4065 0.949 . S
C4086 C4085 1.389 . S
C4086 C4087 1.387 . S
C4087 C4086 1.387 . S
C4087 C4088 1.372 . S
C4088 H4066 0.950 . S
C4088 C4087 1.372 . S
C4088 C4089 1.379 . S
C4089 H4067 0.948 . S
C4089 C4084 1.364 . S
C4089 C4088 1.379 . S
C4090 C4059 1.383 . S
C4090 C4077 1.479 . S
C4090 C4091 1.398 . S
C4091 C4056 1.382 . S
C4091 H4068 0.951 . S
C4091 C4090 1.398 . S
C4092 C4093 1.384 . S
C4092 H4105 0.947 . S
C4092 C4127 1.382 . S
C4093 C4092 1.384 . S
C4093 C4094 1.378 . S
C4094 C4093 1.378 . S
C4094 C4095 1.378 . S
C4094 H4106 0.952 . S
C4095 C4094 1.378 . S
C4095 H4107 0.950 . S
C4095 C4126 1.383 . S
H4096 C4115 0.947 . S
H4097 C4116 0.941 1_655 S
H4098 C4118 0.953 . S
H4099 C4119 0.945 . S
H4100 C4121 0.952 . S
H4101 C4122 0.949 . S
H4102 C4124 0.950 . S
H4103 C4125 0.948 . S
H4104 C4127 0.951 . S
H4105 C4092 0.947 . S
H4106 C4094 0.952 . S
H4107 C4095 0.950 . S
N4108 C4111 1.382 . S
N4108 C4113 1.363 . S
N4109 C4111 1.371 . S
N4109 C4112 1.372 . S
N4110 C4112 1.361 . S
N4110 C4113 1.377 . S
C4111 N4108 1.382 . S
C4111 N4109 1.371 . S
C4111 C4114 1.480 . S
C4112 N4109 1.372 . S
C4112 N4110 1.361 . S
C4112 C4120 1.457 . S
C4113 N4108 1.363 . S
C4113 N4110 1.377 . S
C4113 C4126 1.479 . S
C4114 C4111 1.480 . S
C4114 C4115 1.383 . S
C4114 C4119 1.385 . S
C4115 H4096 0.947 . S
C4115 C4114 1.383 . S
C4115 C4116 1.388 . S
C4116 H4097 0.941 1_455 S
C4116 C4115 1.388 . S
C4116 C4117 1.384 . S
C4117 C4116 1.384 . S
C4117 C4118 1.377 . S
C4118 H4098 0.953 . S
C4118 C4117 1.377 . S
C4118 C4119 1.369 . S
C4119 H4099 0.945 . S
C4119 C4114 1.385 . S
C4119 C4118 1.369 . S
C4120 C4112 1.457 . S
C4120 C4121 1.372 . S
C4120 C4125 1.364 . S
C4121 H4100 0.952 . S
C4121 C4120 1.372 . S
C4121 C4122 1.389 . S
C4122 H4101 0.949 . S
C4122 C4121 1.389 . S
C4122 C4123 1.387 . S
C4123 C4122 1.387 . S
C4123 C4124 1.372 . S
C4124 H4102 0.950 . S
C4124 C4123 1.372 . S
C4124 C4125 1.379 . S
C4125 H4103 0.948 . S
C4125 C4120 1.364 . S
C4125 C4124 1.379 . S
C4126 C4095 1.383 . S
C4126 C4113 1.479 . S
C4126 C4127 1.398 . S
C4127 C4092 1.382 . S
C4127 H4104 0.951 . S
C4127 C4126 1.398 . S
C4128 C4129 1.384 . S
C4128 H4141 0.947 . S
C4128 C4163 1.382 . S
C4129 C4128 1.384 . S
C4129 C4130 1.378 . S
C4130 C4129 1.378 . S
C4130 C4131 1.378 . S
C4130 H4142 0.952 . S
C4131 C4130 1.378 . S
C4131 H4143 0.950 . S
C4131 C4162 1.383 . S
H4132 C4151 0.947 . S
H4133 C4152 0.946 . S
H4134 C4154 0.953 . S
H4135 C4155 0.945 . S
H4136 C4157 0.952 . S
H4137 C4158 0.949 . S
H4138 C4160 0.950 . S
H4139 C4161 0.948 . S
H4140 C4163 0.951 . S
H4141 C4128 0.947 . S
H4142 C4130 0.952 . S
H4143 C4131 0.950 . S
N4144 C4147 1.382 . S
N4144 C4149 1.363 . S
N4145 C4147 1.371 . S
N4145 C4148 1.372 . S
N4146 C4148 1.361 . S
N4146 C4149 1.377 . S
C4147 N4144 1.382 . S
C4147 N4145 1.371 . S
C4147 C4150 1.480 . S
C4148 N4145 1.372 . S
C4148 N4146 1.361 . S
C4148 C4156 1.457 . S
C4149 N4144 1.363 . S
C4149 N4146 1.377 . S
C4149 C4162 1.479 . S
C4150 C4147 1.480 . S
C4150 C4151 1.383 . S
C4150 C4155 1.385 . S
C4151 H4132 0.947 . S
C4151 C4150 1.383 . S
C4151 C4152 1.388 . S
C4152 H4133 0.946 . S
C4152 C4151 1.388 . S
C4152 C4153 1.384 . S
C4153 C4152 1.384 . S
C4153 C4154 1.377 . S
C4154 H4134 0.953 . S
C4154 C4153 1.377 . S
C4154 C4155 1.369 . S
C4155 H4135 0.945 . S
C4155 C4150 1.385 . S
C4155 C4154 1.369 . S
C4156 C4148 1.457 . S
C4156 C4157 1.372 . S
C4156 C4161 1.364 . S
C4157 H4136 0.952 . S
C4157 C4156 1.372 . S
C4157 C4158 1.389 . S
C4158 H4137 0.949 . S
C4158 C4157 1.389 . S
C4158 C4159 1.387 . S
C4159 C4158 1.387 . S
C4159 C4160 1.372 . S
C4160 H4138 0.950 . S
C4160 C4159 1.372 . S
C4160 C4161 1.379 . S
C4161 H4139 0.948 . S
C4161 C4156 1.364 . S
C4161 C4160 1.379 . S
C4162 C4131 1.383 . S
C4162 C4149 1.479 . S
C4162 C4163 1.398 . S
C4163 C4128 1.382 . S
C4163 H4140 0.951 . S
C4163 C4162 1.398 . S
C4164 C4165 1.384 . S
C4164 H4177 0.947 . S
C4164 C4199 1.382 . S
C4165 C4164 1.384 . S
C4165 C4166 1.378 . S
C4166 C4165 1.378 . S
C4166 C4167 1.378 . S
C4166 H4178 0.952 . S
C4167 C4166 1.378 . S
C4167 H4179 0.950 . S
C4167 C4198 1.383 . S
H4168 C4187 0.947 . S
H4169 C4188 0.946 . S
H4170 C4190 0.953 . S
H4171 C4191 0.945 . S
H4172 C4193 0.952 . S
H4173 C4194 0.949 . S
H4174 C4196 0.950 . S
H4175 C4197 0.948 . S
H4176 C4199 0.951 . S
H4177 C4164 0.947 . S
H4178 C4166 0.952 . S
H4179 C4167 0.950 . S
N4180 C4183 1.382 . S
N4180 C4185 1.363 . S
N4181 C4183 1.371 . S
N4181 C4184 1.372 . S
N4182 C4184 1.361 . S
N4182 C4185 1.377 . S
C4183 N4180 1.382 . S
C4183 N4181 1.371 . S
C4183 C4186 1.480 . S
C4184 N4181 1.372 . S
C4184 N4182 1.361 . S
C4184 C4192 1.457 . S
C4185 N4180 1.363 . S
C4185 N4182 1.377 . S
C4185 C4198 1.479 . S
C4186 C4183 1.480 . S
C4186 C4187 1.383 . S
C4186 C4191 1.385 . S
C4187 H4168 0.947 . S
C4187 C4186 1.383 . S
C4187 C4188 1.388 . S
C4188 H4169 0.946 . S
C4188 C4187 1.388 . S
C4188 C4189 1.384 . S
C4189 C4188 1.384 . S
C4189 C4190 1.377 . S
C4190 H4170 0.953 . S
C4190 C4189 1.377 . S
C4190 C4191 1.369 . S
C4191 H4171 0.945 . S
C4191 C4186 1.385 . S
C4191 C4190 1.369 . S
C4192 C4184 1.457 . S
C4192 C4193 1.372 . S
C4192 C4197 1.364 . S
C4193 H4172 0.952 . S
C4193 C4192 1.372 . S
C4193 C4194 1.389 . S
C4194 H4173 0.949 . S
C4194 C4193 1.389 . S
C4194 C4195 1.387 . S
C4195 C4194 1.387 . S
C4195 C4196 1.372 . S
C4196 H4174 0.950 . S
C4196 C4195 1.372 . S
C4196 C4197 1.379 . S
C4197 H4175 0.948 . S
C4197 C4192 1.364 . S
C4197 C4196 1.379 . S
C4198 C4167 1.383 . S
C4198 C4185 1.479 . S
C4198 C4199 1.398 . S
C4199 C4164 1.382 . S
C4199 H4176 0.951 . S
C4199 C4198 1.398 . S
C4200 C4201 1.384 . S
C4200 H4213 0.947 . S
C4200 C4235 1.382 . S
C4201 C4200 1.384 . S
C4201 C4202 1.378 . S
C4202 C4201 1.378 . S
C4202 C4203 1.378 . S
C4202 H4214 0.952 . S
C4203 C4202 1.378 . S
C4203 H4215 0.950 . S
C4203 C4234 1.383 . S
H4204 C4223 0.947 . S
H4205 C4224 0.946 . S
H4206 C4226 0.953 . S
H4207 C4227 0.945 . S
H4208 C4229 0.952 . S
H4209 C4230 0.949 . S
H4210 C4232 0.950 . S
H4211 C4233 0.948 . S
H4212 C4235 0.951 . S
H4213 C4200 0.947 . S
H4214 C4202 0.952 . S
H4215 C4203 0.950 . S
N4216 C4219 1.382 . S
N4216 C4221 1.363 . S
N4217 C4219 1.371 . S
N4217 C4220 1.372 . S
N4218 C4220 1.361 . S
N4218 C4221 1.377 . S
C4219 N4216 1.382 . S
C4219 N4217 1.371 . S
C4219 C4222 1.480 . S
C4220 N4217 1.372 . S
C4220 N4218 1.361 . S
C4220 C4228 1.457 . S
C4221 N4216 1.363 . S
C4221 N4218 1.377 . S
C4221 C4234 1.479 . S
C4222 C4219 1.480 . S
C4222 C4223 1.383 . S
C4222 C4227 1.385 . S
C4223 H4204 0.947 . S
C4223 C4222 1.383 . S
C4223 C4224 1.388 . S
C4224 H4205 0.946 . S
C4224 C4223 1.388 . S
C4224 C4225 1.384 . S
C4225 C4224 1.384 . S
C4225 C4226 1.377 . S
C4226 H4206 0.953 . S
C4226 C4225 1.377 . S
C4226 C4227 1.369 . S
C4227 H4207 0.945 . S
C4227 C4222 1.385 . S
C4227 C4226 1.369 . S
C4228 C4220 1.457 . S
C4228 C4229 1.372 . S
C4228 C4233 1.364 . S
C4229 H4208 0.952 . S
C4229 C4228 1.372 . S
C4229 C4230 1.389 . S
C4230 H4209 0.949 . S
C4230 C4229 1.389 . S
C4230 C4231 1.387 . S
C4231 C4230 1.387 . S
C4231 C4232 1.372 . S
C4232 H4210 0.950 . S
C4232 C4231 1.372 . S
C4232 C4233 1.379 . S
C4233 H4211 0.948 . S
C4233 C4228 1.364 . S
C4233 C4232 1.379 . S
C4234 C4203 1.383 . S
C4234 C4221 1.479 . S
C4234 C4235 1.398 . S
C4235 C4200 1.382 . S
C4235 H4212 0.951 . S
C4235 C4234 1.398 . S
C4236 C4237 1.384 . S
C4236 H4249 0.947 . S
C4236 C4271 1.382 . S
C4237 C4236 1.384 . S
C4237 C4238 1.378 . S
C4238 C4237 1.378 . S
C4238 C4239 1.378 . S
C4238 H4250 0.952 . S
C4239 C4238 1.378 . S
C4239 H4251 0.950 . S
C4239 C4270 1.383 . S
H4240 C4259 0.947 . S
H4241 C4260 0.946 . S
H4242 C4262 0.953 . S
H4243 C4263 0.945 . S
H4244 C4265 0.952 . S
H4245 C4266 0.949 . S
H4246 C4268 0.950 . S
H4247 C4269 0.948 . S
H4248 C4271 0.951 . S
H4249 C4236 0.947 . S
H4250 C4238 0.952 . S
H4251 C4239 0.950 . S
N4252 C4255 1.382 . S
N4252 C4257 1.363 . S
N4253 C4255 1.371 . S
N4253 C4256 1.372 . S
N4254 C4256 1.361 . S
N4254 C4257 1.377 . S
C4255 N4252 1.382 . S
C4255 N4253 1.371 . S
C4255 C4258 1.480 . S
C4256 N4253 1.372 . S
C4256 N4254 1.361 . S
C4256 C4264 1.457 . S
C4257 N4252 1.363 . S
C4257 N4254 1.377 . S
C4257 C4270 1.479 . S
C4258 C4255 1.480 . S
C4258 C4259 1.383 . S
C4258 C4263 1.385 . S
C4259 H4240 0.947 . S
C4259 C4258 1.383 . S
C4259 C4260 1.388 . S
C4260 H4241 0.946 . S
C4260 C4259 1.388 . S
C4260 C4261 1.384 . S
C4261 C4260 1.384 . S
C4261 C4262 1.377 . S
C4262 H4242 0.953 . S
C4262 C4261 1.377 . S
C4262 C4263 1.369 . S
C4263 H4243 0.945 . S
C4263 C4258 1.385 . S
C4263 C4262 1.369 . S
C4264 C4256 1.457 . S
C4264 C4265 1.372 . S
C4264 C4269 1.364 . S
C4265 H4244 0.952 . S
C4265 C4264 1.372 . S
C4265 C4266 1.389 . S
C4266 H4245 0.949 . S
C4266 C4265 1.389 . S
C4266 C4267 1.387 . S
C4267 C4266 1.387 . S
C4267 C4268 1.372 . S
C4268 H4246 0.950 . S
C4268 C4267 1.372 . S
C4268 C4269 1.379 . S
C4269 H4247 0.948 . S
C4269 C4264 1.364 . S
C4269 C4268 1.379 . S
C4270 C4239 1.383 . S
C4270 C4257 1.479 . S
C4270 C4271 1.398 . S
C4271 C4236 1.382 . S
C4271 H4248 0.951 . S
C4271 C4270 1.398 . S
C4272 C4273 1.384 . S
C4272 H4285 0.947 . S
C4272 C4307 1.382 . S
C4273 C4272 1.384 . S
C4273 C4274 1.378 . S
C4274 C4273 1.378 . S
C4274 C4275 1.378 . S
C4274 H4286 0.952 . S
C4275 C4274 1.378 . S
C4275 H4287 0.950 . S
C4275 C4306 1.383 . S
H4276 C4295 0.947 . S
H4277 C4296 0.946 . S
H4278 C4298 0.953 . S
H4279 C4299 0.945 . S
H4280 C4301 0.952 . S
H4281 C4302 0.949 . S
H4282 C4304 0.950 . S
H4283 C4305 0.948 . S
H4284 C4307 0.951 . S
H4285 C4272 0.947 . S
H4286 C4274 0.952 . S
H4287 C4275 0.950 . S
N4288 C4291 1.382 . S
N4288 C4293 1.363 . S
N4289 C4291 1.371 . S
N4289 C4292 1.372 . S
N4290 C4292 1.361 . S
N4290 C4293 1.377 . S
C4291 N4288 1.382 . S
C4291 N4289 1.371 . S
C4291 C4294 1.480 . S
C4292 N4289 1.372 . S
C4292 N4290 1.361 . S
C4292 C4300 1.457 . S
C4293 N4288 1.363 . S
C4293 N4290 1.377 . S
C4293 C4306 1.479 . S
C4294 C4291 1.480 . S
C4294 C4295 1.383 . S
C4294 C4299 1.385 . S
C4295 H4276 0.947 . S
C4295 C4294 1.383 . S
C4295 C4296 1.388 . S
C4296 H4277 0.946 . S
C4296 C4295 1.388 . S
C4296 C4297 1.384 . S
C4297 C4296 1.384 . S
C4297 C4298 1.377 . S
C4298 H4278 0.953 . S
C4298 C4297 1.377 . S
C4298 C4299 1.369 . S
C4299 H4279 0.945 . S
C4299 C4294 1.385 . S
C4299 C4298 1.369 . S
C4300 C4292 1.457 . S
C4300 C4301 1.372 . S
C4300 C4305 1.364 . S
C4301 H4280 0.952 . S
C4301 C4300 1.372 . S
C4301 C4302 1.389 . S
C4302 H4281 0.949 . S
C4302 C4301 1.389 . S
C4302 C4303 1.387 . S
C4303 C4302 1.387 . S
C4303 C4304 1.372 . S
C4304 H4282 0.950 . S
C4304 C4303 1.372 . S
C4304 C4305 1.379 . S
C4305 H4283 0.948 . S
C4305 C4300 1.364 . S
C4305 C4304 1.379 . S
C4306 C4275 1.383 . S
C4306 C4293 1.479 . S
C4306 C4307 1.398 . S
C4307 C4272 1.382 . S
C4307 H4284 0.951 . S
C4307 C4306 1.398 . S
C4308 C4309 1.384 . S
C4308 H4321 0.947 . S
C4308 C4343 1.382 . S
C4309 C4308 1.384 . S
C4309 C4310 1.378 . S
C4310 C4309 1.378 . S
C4310 C4311 1.378 . S
C4310 H4322 0.952 . S
C4311 C4310 1.378 . S
C4311 H4323 0.950 . S
C4311 C4342 1.383 . S
H4312 C4331 0.947 . S
H4313 C4332 0.946 . S
H4314 C4334 0.953 . S
H4315 C4335 0.945 . S
H4316 C4337 0.952 . S
H4317 C4338 0.949 . S
H4318 C4340 0.950 . S
H4319 C4341 0.948 . S
H4320 C4343 0.951 . S
H4321 C4308 0.947 . S
H4322 C4310 0.952 . S
H4323 C4311 0.950 . S
N4324 C4327 1.382 . S
N4324 C4329 1.363 . S
N4325 C4327 1.371 . S
N4325 C4328 1.372 . S
N4326 C4328 1.361 . S
N4326 C4329 1.377 . S
C4327 N4324 1.382 . S
C4327 N4325 1.371 . S
C4327 C4330 1.480 . S
C4328 N4325 1.372 . S
C4328 N4326 1.361 . S
C4328 C4336 1.457 . S
C4329 N4324 1.363 . S
C4329 N4326 1.377 . S
C4329 C4342 1.479 . S
C4330 C4327 1.480 . S
C4330 C4331 1.383 . S
C4330 C4335 1.385 . S
C4331 H4312 0.947 . S
C4331 C4330 1.383 . S
C4331 C4332 1.388 . S
C4332 H4313 0.946 . S
C4332 C4331 1.388 . S
C4332 C4333 1.384 . S
C4333 C4332 1.384 . S
C4333 C4334 1.377 . S
C4334 H4314 0.953 . S
C4334 C4333 1.377 . S
C4334 C4335 1.369 . S
C4335 H4315 0.945 . S
C4335 C4330 1.385 . S
C4335 C4334 1.369 . S
C4336 C4328 1.457 . S
C4336 C4337 1.372 . S
C4336 C4341 1.364 . S
C4337 H4316 0.952 . S
C4337 C4336 1.372 . S
C4337 C4338 1.389 . S
C4338 H4317 0.949 . S
C4338 C4337 1.389 . S
C4338 C4339 1.387 . S
C4339 C4338 1.387 . S
C4339 C4340 1.372 . S
C4340 H4318 0.950 . S
C4340 C4339 1.372 . S
C4340 C4341 1.379 . S
C4341 H4319 0.948 . S
C4341 C4336 1.364 . S
C4341 C4340 1.379 . S
C4342 C4311 1.383 . S
C4342 C4329 1.479 . S
C4342 C4343 1.398 . S
C4343 C4308 1.382 . S
C4343 H4320 0.951 . S
C4343 C4342 1.398 . S
C4344 C4345 1.384 . S
C4344 H4357 0.947 . S
C4344 C4379 1.382 . S
C4345 C4344 1.384 . S
C4345 C4346 1.378 . S
C4346 C4345 1.378 . S
C4346 C4347 1.378 . S
C4346 H4358 0.952 . S
C4347 C4346 1.378 . S
C4347 H4359 0.950 . S
C4347 C4378 1.383 . S
H4348 C4367 0.947 . S
H4349 C4368 0.946 . S
H4350 C4370 0.953 . S
H4351 C4371 0.945 . S
H4352 C4373 0.952 . S
H4353 C4374 0.949 . S
H4354 C4376 0.950 . S
H4355 C4377 0.948 . S
H4356 C4379 0.951 . S
H4357 C4344 0.947 . S
H4358 C4346 0.952 . S
H4359 C4347 0.950 . S
N4360 C4363 1.382 . S
N4360 C4365 1.363 . S
N4361 C4363 1.371 . S
N4361 C4364 1.372 . S
N4362 C4364 1.361 . S
N4362 C4365 1.377 . S
C4363 N4360 1.382 . S
C4363 N4361 1.371 . S
C4363 C4366 1.480 . S
C4364 N4361 1.372 . S
C4364 N4362 1.361 . S
C4364 C4372 1.457 . S
C4365 N4360 1.363 . S
C4365 N4362 1.377 . S
C4365 C4378 1.479 . S
C4366 C4363 1.480 . S
C4366 C4367 1.383 . S
C4366 C4371 1.385 . S
C4367 H4348 0.947 . S
C4367 C4366 1.383 . S
C4367 C4368 1.388 . S
C4368 H4349 0.946 . S
C4368 C4367 1.388 . S
C4368 C4369 1.384 . S
C4369 C4368 1.384 . S
C4369 C4370 1.377 . S
C4370 H4350 0.953 . S
C4370 C4369 1.377 . S
C4370 C4371 1.369 . S
C4371 H4351 0.945 . S
C4371 C4366 1.385 . S
C4371 C4370 1.369 . S
C4372 C4364 1.457 . S
C4372 C4373 1.372 . S
C4372 C4377 1.364 . S
C4373 H4352 0.952 . S
C4373 C4372 1.372 . S
C4373 C4374 1.389 . S
C4374 H4353 0.949 . S
C4374 C4373 1.389 . S
C4374 C4375 1.387 . S
C4375 C4374 1.387 . S
C4375 C4376 1.372 . S
C4376 H4354 0.950 . S
C4376 C4375 1.372 . S
C4376 C4377 1.379 . S
C4377 H4355 0.948 . S
C4377 C4372 1.364 . S
C4377 C4376 1.379 . S
C4378 C4347 1.383 . S
C4378 C4365 1.479 . S
C4378 C4379 1.398 . S
C4379 C4344 1.382 . S
C4379 H4356 0.951 . S
C4379 C4378 1.398 . S
C4380 C4381 1.384 . S
C4380 H4393 0.947 . S
C4380 C4415 1.382 . S
C4381 C4380 1.384 . S
C4381 C4382 1.378 . S
C4382 C4381 1.378 . S
C4382 C4383 1.378 . S
C4382 H4394 0.952 . S
C4383 C4382 1.378 . S
C4383 H4395 0.950 . S
C4383 C4414 1.383 . S
H4384 C4403 0.947 . S
H4385 C4404 0.946 . S
H4386 C4406 0.953 . S
H4387 C4407 0.945 . S
H4388 C4409 0.952 . S
H4389 C4410 0.949 . S
H4390 C4412 0.950 . S
H4391 C4413 0.948 . S
H4392 C4415 0.951 . S
H4393 C4380 0.947 . S
H4394 C4382 0.952 . S
H4395 C4383 0.950 . S
N4396 C4399 1.382 . S
N4396 C4401 1.363 . S
N4397 C4399 1.371 . S
N4397 C4400 1.372 . S
N4398 C4400 1.361 . S
N4398 C4401 1.377 . S
C4399 N4396 1.382 . S
C4399 N4397 1.371 . S
C4399 C4402 1.480 . S
C4400 N4397 1.372 . S
C4400 N4398 1.361 . S
C4400 C4408 1.457 . S
C4401 N4396 1.363 . S
C4401 N4398 1.377 . S
C4401 C4414 1.479 . S
C4402 C4399 1.480 . S
C4402 C4403 1.383 . S
C4402 C4407 1.385 . S
C4403 H4384 0.947 . S
C4403 C4402 1.383 . S
C4403 C4404 1.388 . S
C4404 H4385 0.946 . S
C4404 C4403 1.388 . S
C4404 C4405 1.384 . S
C4405 C4404 1.384 . S
C4405 C4406 1.377 . S
C4406 H4386 0.953 . S
C4406 C4405 1.377 . S
C4406 C4407 1.369 . S
C4407 H4387 0.945 . S
C4407 C4402 1.385 . S
C4407 C4406 1.369 . S
C4408 C4400 1.457 . S
C4408 C4409 1.372 . S
C4408 C4413 1.364 . S
C4409 H4388 0.952 . S
C4409 C4408 1.372 . S
C4409 C4410 1.389 . S
C4410 H4389 0.949 . S
C4410 C4409 1.389 . S
C4410 C4411 1.387 . S
C4411 C4410 1.387 . S
C4411 C4412 1.372 . S
C4412 H4390 0.950 . S
C4412 C4411 1.372 . S
C4412 C4413 1.379 . S
C4413 H4391 0.948 . S
C4413 C4408 1.364 . S
C4413 C4412 1.379 . S
C4414 C4383 1.383 . S
C4414 C4401 1.479 . S
C4414 C4415 1.398 . S
C4415 C4380 1.382 . S
C4415 H4392 0.951 . S
C4415 C4414 1.398 . S
C4416 C4417 1.384 . S
C4416 H4429 0.947 . S
C4416 C4451 1.382 . S
C4417 C4416 1.384 . S
C4417 C4418 1.378 . S
C4418 C4417 1.378 . S
C4418 C4419 1.378 . S
C4418 H4430 0.952 . S
C4419 C4418 1.378 . S
C4419 H4431 0.950 . S
C4419 C4450 1.383 . S
H4420 C4439 0.947 . S
H4421 C4440 0.946 . S
H4422 C4442 0.953 . S
H4423 C4443 0.945 . S
H4424 C4445 0.952 . S
H4425 C4446 0.949 . S
H4426 C4448 0.950 . S
H4427 C4449 0.948 . S
H4428 C4451 0.951 . S
H4429 C4416 0.947 . S
H4430 C4418 0.952 . S
H4431 C4419 0.950 . S
N4432 C4435 1.382 . S
N4432 C4437 1.363 . S
N4433 C4435 1.371 . S
N4433 C4436 1.372 . S
N4434 C4436 1.361 . S
N4434 C4437 1.377 . S
C4435 N4432 1.382 . S
C4435 N4433 1.371 . S
C4435 C4438 1.480 . S
C4436 N4433 1.372 . S
C4436 N4434 1.361 . S
C4436 C4444 1.457 . S
C4437 N4432 1.363 . S
C4437 N4434 1.377 . S
C4437 C4450 1.479 . S
C4438 C4435 1.480 . S
C4438 C4439 1.383 . S
C4438 C4443 1.385 . S
C4439 H4420 0.947 . S
C4439 C4438 1.383 . S
C4439 C4440 1.388 . S
C4440 H4421 0.946 . S
C4440 C4439 1.388 . S
C4440 C4441 1.384 . S
C4441 C4440 1.384 . S
C4441 C4442 1.377 . S
C4442 H4422 0.953 . S
C4442 C4441 1.377 . S
C4442 C4443 1.369 . S
C4443 H4423 0.945 . S
C4443 C4438 1.385 . S
C4443 C4442 1.369 . S
C4444 C4436 1.457 . S
C4444 C4445 1.372 . S
C4444 C4449 1.364 . S
C4445 H4424 0.952 . S
C4445 C4444 1.372 . S
C4445 C4446 1.389 . S
C4446 H4425 0.949 . S
C4446 C4445 1.389 . S
C4446 C4447 1.387 . S
C4447 C4446 1.387 . S
C4447 C4448 1.372 . S
C4448 H4426 0.950 . S
C4448 C4447 1.372 . S
C4448 C4449 1.379 . S
C4449 H4427 0.948 . S
C4449 C4444 1.364 . S
C4449 C4448 1.379 . S
C4450 C4419 1.383 . S
C4450 C4437 1.479 . S
C4450 C4451 1.398 . S
C4451 C4416 1.382 . S
C4451 H4428 0.951 . S
C4451 C4450 1.398 . S
C4452 C4453 1.384 . S
C4452 H4465 0.947 . S
C4452 C4487 1.382 . S
C4453 C4452 1.384 . S
C4453 C4454 1.378 . S
C4454 C4453 1.378 . S
C4454 C4455 1.378 . S
C4454 H4466 0.952 . S
C4455 C4454 1.378 . S
C4455 H4467 0.950 . S
C4455 C4486 1.383 . S
H4456 C4475 0.947 . S
H4457 C4476 0.946 . S
H4458 C4478 0.953 . S
H4459 C4479 0.945 . S
H4460 C4481 0.952 . S
H4461 C4482 0.949 . S
H4462 C4484 0.950 . S
H4463 C4485 0.948 . S
H4464 C4487 0.951 . S
H4465 C4452 0.947 . S
H4466 C4454 0.952 . S
H4467 C4455 0.950 . S
N4468 C4471 1.382 . S
N4468 C4473 1.363 . S
N4469 C4471 1.371 . S
N4469 C4472 1.372 . S
N4470 C4472 1.361 . S
N4470 C4473 1.377 . S
C4471 N4468 1.382 . S
C4471 N4469 1.371 . S
C4471 C4474 1.480 . S
C4472 N4469 1.372 . S
C4472 N4470 1.361 . S
C4472 C4480 1.457 . S
C4473 N4468 1.363 . S
C4473 N4470 1.377 . S
C4473 C4486 1.479 . S
C4474 C4471 1.480 . S
C4474 C4475 1.383 . S
C4474 C4479 1.385 . S
C4475 H4456 0.947 . S
C4475 C4474 1.383 . S
C4475 C4476 1.388 . S
C4476 H4457 0.946 . S
C4476 C4475 1.388 . S
C4476 C4477 1.384 . S
C4477 C4476 1.384 . S
C4477 C4478 1.377 . S
C4478 H4458 0.953 . S
C4478 C4477 1.377 . S
C4478 C4479 1.369 . S
C4479 H4459 0.945 . S
C4479 C4474 1.385 . S
C4479 C4478 1.369 . S
C4480 C4472 1.457 . S
C4480 C4481 1.372 . S
C4480 C4485 1.364 . S
C4481 H4460 0.952 . S
C4481 C4480 1.372 . S
C4481 C4482 1.389 . S
C4482 H4461 0.949 . S
C4482 C4481 1.389 . S
C4482 C4483 1.387 . S
C4483 C4482 1.387 . S
C4483 C4484 1.372 . S
C4484 H4462 0.950 . S
C4484 C4483 1.372 . S
C4484 C4485 1.379 . S
C4485 H4463 0.948 . S
C4485 C4480 1.364 . S
C4485 C4484 1.379 . S
C4486 C4455 1.383 . S
C4486 C4473 1.479 . S
C4486 C4487 1.398 . S
C4487 C4452 1.382 . S
C4487 H4464 0.951 . S
C4487 C4486 1.398 . S
C4488 C4489 1.384 . S
C4488 H4501 0.947 . S
C4488 C4523 1.382 . S
C4489 C4488 1.384 . S
C4489 C4490 1.378 . S
C4490 C4489 1.378 . S
C4490 C4491 1.378 . S
C4490 H4502 0.952 . S
C4491 C4490 1.378 . S
C4491 H4503 0.950 . S
C4491 C4522 1.383 . S
H4492 C4511 0.947 . S
H4493 C4512 0.946 . S
H4494 C4514 0.953 . S
H4495 C4515 0.945 . S
H4496 C4517 0.952 . S
H4497 C4518 0.949 . S
H4498 C4520 0.950 . S
H4499 C4521 0.948 . S
H4500 C4523 0.951 . S
H4501 C4488 0.947 . S
H4502 C4490 0.952 . S
H4503 C4491 0.950 . S
N4504 C4507 1.382 . S
N4504 C4509 1.363 . S
N4505 C4507 1.371 . S
N4505 C4508 1.372 . S
N4506 C4508 1.361 . S
N4506 C4509 1.377 . S
C4507 N4504 1.382 . S
C4507 N4505 1.371 . S
C4507 C4510 1.480 . S
C4508 N4505 1.372 . S
C4508 N4506 1.361 . S
C4508 C4516 1.457 . S
C4509 N4504 1.363 . S
C4509 N4506 1.377 . S
C4509 C4522 1.479 . S
C4510 C4507 1.480 . S
C4510 C4511 1.383 . S
C4510 C4515 1.385 . S
C4511 H4492 0.947 . S
C4511 C4510 1.383 . S
C4511 C4512 1.388 . S
C4512 H4493 0.946 . S
C4512 C4511 1.388 . S
C4512 C4513 1.384 . S
C4513 C4512 1.384 . S
C4513 C4514 1.377 . S
C4514 H4494 0.953 . S
C4514 C4513 1.377 . S
C4514 C4515 1.369 . S
C4515 H4495 0.945 . S
C4515 C4510 1.385 . S
C4515 C4514 1.369 . S
C4516 C4508 1.457 . S
C4516 C4517 1.372 . S
C4516 C4521 1.364 . S
C4517 H4496 0.952 . S
C4517 C4516 1.372 . S
C4517 C4518 1.389 . S
C4518 H4497 0.949 . S
C4518 C4517 1.389 . S
C4518 C4519 1.387 . S
C4519 C4518 1.387 . S
C4519 C4520 1.372 . S
C4520 H4498 0.950 . S
C4520 C4519 1.372 . S
C4520 C4521 1.379 . S
C4521 H4499 0.948 . S
C4521 C4516 1.364 . S
C4521 C4520 1.379 . S
C4522 C4491 1.383 . S
C4522 C4509 1.479 . S
C4522 C4523 1.398 . S
C4523 C4488 1.382 . S
C4523 H4500 0.951 . S
C4523 C4522 1.398 . S
C4524 C4525 1.384 . S
C4524 H4537 0.947 . S
C4524 C4559 1.382 . S
C4525 C4524 1.384 . S
C4525 C4526 1.378 . S
C4526 C4525 1.378 . S
C4526 C4527 1.378 . S
C4526 H4538 0.952 . S
C4527 C4526 1.378 . S
C4527 H4539 0.950 . S
C4527 C4558 1.383 . S
H4528 C4547 0.947 . S
H4529 C4548 0.946 . S
H4530 C4550 0.953 . S
H4531 C4551 0.945 . S
H4532 C4553 0.952 . S
H4533 C4554 0.949 . S
H4534 C4556 0.950 . S
H4535 C4557 0.948 . S
H4536 C4559 0.951 . S
H4537 C4524 0.947 . S
H4538 C4526 0.952 . S
H4539 C4527 0.950 . S
N4540 C4543 1.382 . S
N4540 C4545 1.363 . S
N4541 C4543 1.371 . S
N4541 C4544 1.372 . S
N4542 C4544 1.361 . S
N4542 C4545 1.377 . S
C4543 N4540 1.382 . S
C4543 N4541 1.371 . S
C4543 C4546 1.480 . S
C4544 N4541 1.372 . S
C4544 N4542 1.361 . S
C4544 C4552 1.457 . S
C4545 N4540 1.363 . S
C4545 N4542 1.377 . S
C4545 C4558 1.479 . S
C4546 C4543 1.480 . S
C4546 C4547 1.383 . S
C4546 C4551 1.385 . S
C4547 H4528 0.947 . S
C4547 C4546 1.383 . S
C4547 C4548 1.388 . S
C4548 H4529 0.946 . S
C4548 C4547 1.388 . S
C4548 C4549 1.384 . S
C4549 C4548 1.384 . S
C4549 C4550 1.377 . S
C4550 H4530 0.953 . S
C4550 C4549 1.377 . S
C4550 C4551 1.369 . S
C4551 H4531 0.945 . S
C4551 C4546 1.385 . S
C4551 C4550 1.369 . S
C4552 C4544 1.457 . S
C4552 C4553 1.372 . S
C4552 C4557 1.364 . S
C4553 H4532 0.952 . S
C4553 C4552 1.372 . S
C4553 C4554 1.389 . S
C4554 H4533 0.949 . S
C4554 C4553 1.389 . S
C4554 C4555 1.387 . S
C4555 C4554 1.387 . S
C4555 C4556 1.372 . S
C4556 H4534 0.950 . S
C4556 C4555 1.372 . S
C4556 C4557 1.379 . S
C4557 H4535 0.948 . S
C4557 C4552 1.364 . S
C4557 C4556 1.379 . S
C4558 C4527 1.383 . S
C4558 C4545 1.479 . S
C4558 C4559 1.398 . S
C4559 C4524 1.382 . S
C4559 H4536 0.951 . S
C4559 C4558 1.398 . S
C4560 C4561 1.384 . S
C4560 H4573 0.947 . S
C4560 C4595 1.382 . S
C4561 C4560 1.384 . S
C4561 C4562 1.378 . S
C4562 C4561 1.378 . S
C4562 C4563 1.378 . S
C4562 H4574 0.952 . S
C4563 C4562 1.378 . S
C4563 H4575 0.950 . S
C4563 C4594 1.383 . S
H4564 C4583 0.947 . S
H4565 C4584 0.946 . S
H4566 C4586 0.953 . S
H4567 C4587 0.945 . S
H4568 C4589 0.952 . S
H4569 C4590 0.949 . S
H4570 C4592 0.950 . S
H4571 C4593 0.948 . S
H4572 C4595 0.951 . S
H4573 C4560 0.947 . S
H4574 C4562 0.952 . S
H4575 C4563 0.950 . S
N4576 C4579 1.382 . S
N4576 C4581 1.363 . S
N4577 C4579 1.371 . S
N4577 C4580 1.372 . S
N4578 C4580 1.361 . S
N4578 C4581 1.377 . S
C4579 N4576 1.382 . S
C4579 N4577 1.371 . S
C4579 C4582 1.480 . S
C4580 N4577 1.372 . S
C4580 N4578 1.361 . S
C4580 C4588 1.457 . S
C4581 N4576 1.363 . S
C4581 N4578 1.377 . S
C4581 C4594 1.479 . S
C4582 C4579 1.480 . S
C4582 C4583 1.383 . S
C4582 C4587 1.385 . S
C4583 H4564 0.947 . S
C4583 C4582 1.383 . S
C4583 C4584 1.388 . S
C4584 H4565 0.946 . S
C4584 C4583 1.388 . S
C4584 C4585 1.384 . S
C4585 C4584 1.384 . S
C4585 C4586 1.377 . S
C4586 H4566 0.953 . S
C4586 C4585 1.377 . S
C4586 C4587 1.369 . S
C4587 H4567 0.945 . S
C4587 C4582 1.385 . S
C4587 C4586 1.369 . S
C4588 C4580 1.457 . S
C4588 C4589 1.372 . S
C4588 C4593 1.364 . S
C4589 H4568 0.952 . S
C4589 C4588 1.372 . S
C4589 C4590 1.389 . S
C4590 H4569 0.949 . S
C4590 C4589 1.389 . S
C4590 C4591 1.387 . S
C4591 C4590 1.387 . S
C4591 C4592 1.372 . S
C4592 H4570 0.950 . S
C4592 C4591 1.372 . S
C4592 C4593 1.379 . S
C4593 H4571 0.948 . S
C4593 C4588 1.364 . S
C4593 C4592 1.379 . S
C4594 C4563 1.383 . S
C4594 C4581 1.479 . S
C4594 C4595 1.398 . S
C4595 C4560 1.382 . S
C4595 H4572 0.951 . S
C4595 C4594 1.398 . S
C4596 C4597 1.384 . S
C4596 H4609 0.947 . S
C4596 C4631 1.382 . S
C4597 C4596 1.384 . S
C4597 C4598 1.378 . S
C4598 C4597 1.378 . S
C4598 C4599 1.378 . S
C4598 H4610 0.952 . S
C4599 C4598 1.378 . S
C4599 H4611 0.950 . S
C4599 C4630 1.383 . S
H4600 C4619 0.947 . S
H4601 C4620 0.946 . S
H4602 C4622 0.953 . S
H4603 C4623 0.945 . S
H4604 C4625 0.952 . S
H4605 C4626 0.949 . S
H4606 C4628 0.950 . S
H4607 C4629 0.948 . S
H4608 C4631 0.951 . S
H4609 C4596 0.947 . S
H4610 C4598 0.952 . S
H4611 C4599 0.950 . S
N4612 C4615 1.382 . S
N4612 C4617 1.363 . S
N4613 C4615 1.371 . S
N4613 C4616 1.372 . S
N4614 C4616 1.361 . S
N4614 C4617 1.377 . S
C4615 N4612 1.382 . S
C4615 N4613 1.371 . S
C4615 C4618 1.480 . S
C4616 N4613 1.372 . S
C4616 N4614 1.361 . S
C4616 C4624 1.457 . S
C4617 N4612 1.363 . S
C4617 N4614 1.377 . S
C4617 C4630 1.479 . S
C4618 C4615 1.480 . S
C4618 C4619 1.383 . S
C4618 C4623 1.385 . S
C4619 H4600 0.947 . S
C4619 C4618 1.383 . S
C4619 C4620 1.388 . S
C4620 H4601 0.946 . S
C4620 C4619 1.388 . S
C4620 C4621 1.384 . S
C4621 C4620 1.384 . S
C4621 C4622 1.377 . S
C4622 H4602 0.953 . S
C4622 C4621 1.377 . S
C4622 C4623 1.369 . S
C4623 H4603 0.945 . S
C4623 C4618 1.385 . S
C4623 C4622 1.369 . S
C4624 C4616 1.457 . S
C4624 C4625 1.372 . S
C4624 C4629 1.364 . S
C4625 H4604 0.952 . S
C4625 C4624 1.372 . S
C4625 C4626 1.389 . S
C4626 H4605 0.949 . S
C4626 C4625 1.389 . S
C4626 C4627 1.387 . S
C4627 C4626 1.387 . S
C4627 C4628 1.372 . S
C4628 H4606 0.950 . S
C4628 C4627 1.372 . S
C4628 C4629 1.379 . S
C4629 H4607 0.948 . S
C4629 C4624 1.364 . S
C4629 C4628 1.379 . S
C4630 C4599 1.383 . S
C4630 C4617 1.479 . S
C4630 C4631 1.398 . S
C4631 C4596 1.382 . S
C4631 H4608 0.951 . S
C4631 C4630 1.398 . S
C4632 C4633 1.384 . S
C4632 H4645 0.947 . S
C4632 C4667 1.382 . S
C4633 C4632 1.384 . S
C4633 C4634 1.378 . S
C4634 C4633 1.378 . S
C4634 C4635 1.378 . S
C4634 H4646 0.952 . S
C4635 C4634 1.378 . S
C4635 H4647 0.950 . S
C4635 C4666 1.383 . S
H4636 C4655 0.947 . S
H4637 C4656 0.946 . S
H4638 C4658 0.953 . S
H4639 C4659 0.945 . S
H4640 C4661 0.952 . S
H4641 C4662 0.949 . S
H4642 C4664 0.950 . S
H4643 C4665 0.948 . S
H4644 C4667 0.951 . S
H4645 C4632 0.947 . S
H4646 C4634 0.952 . S
H4647 C4635 0.950 . S
N4648 C4651 1.382 . S
N4648 C4653 1.363 . S
N4649 C4651 1.371 . S
N4649 C4652 1.372 . S
N4650 C4652 1.361 . S
N4650 C4653 1.377 . S
C4651 N4648 1.382 . S
C4651 N4649 1.371 . S
C4651 C4654 1.480 . S
C4652 N4649 1.372 . S
C4652 N4650 1.361 . S
C4652 C4660 1.457 . S
C4653 N4648 1.363 . S
C4653 N4650 1.377 . S
C4653 C4666 1.479 . S
C4654 C4651 1.480 . S
C4654 C4655 1.383 . S
C4654 C4659 1.385 . S
C4655 H4636 0.947 . S
C4655 C4654 1.383 . S
C4655 C4656 1.388 . S
C4656 H4637 0.946 . S
C4656 C4655 1.388 . S
C4656 C4657 1.384 . S
C4657 C4656 1.384 . S
C4657 C4658 1.377 . S
C4658 H4638 0.953 . S
C4658 C4657 1.377 . S
C4658 C4659 1.369 . S
C4659 H4639 0.945 . S
C4659 C4654 1.385 . S
C4659 C4658 1.369 . S
C4660 C4652 1.457 . S
C4660 C4661 1.372 . S
C4660 C4665 1.364 . S
C4661 H4640 0.952 . S
C4661 C4660 1.372 . S
C4661 C4662 1.389 . S
C4662 H4641 0.949 . S
C4662 C4661 1.389 . S
C4662 C4663 1.387 . S
C4663 C4662 1.387 . S
C4663 C4664 1.372 . S
C4664 H4642 0.950 . S
C4664 C4663 1.372 . S
C4664 C4665 1.379 . S
C4665 H4643 0.948 . S
C4665 C4660 1.364 . S
C4665 C4664 1.379 . S
C4666 C4635 1.383 . S
C4666 C4653 1.479 . S
C4666 C4667 1.398 . S
C4667 C4632 1.382 . S
C4667 H4644 0.951 . S
C4667 C4666 1.398 . S
C4668 C4669 1.384 . S
C4668 H4681 0.947 . S
C4668 C4703 1.382 . S
C4669 C4668 1.384 . S
C4669 C4670 1.378 . S
C4670 C4669 1.378 . S
C4670 C4671 1.378 . S
C4670 H4682 0.952 . S
C4671 C4670 1.378 . S
C4671 H4683 0.950 . S
C4671 C4702 1.383 . S
H4672 C4691 0.947 . S
H4673 C4692 0.946 . S
H4674 C4694 0.953 . S
H4675 C4695 0.945 . S
H4676 C4697 0.952 . S
H4677 C4698 0.949 . S
H4678 C4700 0.950 . S
H4679 C4701 0.948 . S
H4680 C4703 0.951 . S
H4681 C4668 0.947 . S
H4682 C4670 0.952 . S
H4683 C4671 0.950 . S
N4684 C4687 1.382 . S
N4684 C4689 1.363 . S
N4685 C4687 1.371 . S
N4685 C4688 1.372 . S
N4686 C4688 1.361 . S
N4686 C4689 1.377 . S
C4687 N4684 1.382 . S
C4687 N4685 1.371 . S
C4687 C4690 1.480 . S
C4688 N4685 1.372 . S
C4688 N4686 1.361 . S
C4688 C4696 1.457 . S
C4689 N4684 1.363 . S
C4689 N4686 1.377 . S
C4689 C4702 1.479 . S
C4690 C4687 1.480 . S
C4690 C4691 1.383 . S
C4690 C4695 1.385 . S
C4691 H4672 0.947 . S
C4691 C4690 1.383 . S
C4691 C4692 1.388 . S
C4692 H4673 0.946 . S
C4692 C4691 1.388 . S
C4692 C4693 1.384 . S
C4693 C4692 1.384 . S
C4693 C4694 1.377 . S
C4694 H4674 0.953 . S
C4694 C4693 1.377 . S
C4694 C4695 1.369 . S
C4695 H4675 0.945 . S
C4695 C4690 1.385 . S
C4695 C4694 1.369 . S
C4696 C4688 1.457 . S
C4696 C4697 1.372 . S
C4696 C4701 1.364 . S
C4697 H4676 0.952 . S
C4697 C4696 1.372 . S
C4697 C4698 1.389 . S
C4698 H4677 0.949 . S
C4698 C4697 1.389 . S
C4698 C4699 1.387 . S
C4699 C4698 1.387 . S
C4699 C4700 1.372 . S
C4700 H4678 0.950 . S
C4700 C4699 1.372 . S
C4700 C4701 1.379 . S
C4701 H4679 0.948 . S
C4701 C4696 1.364 . S
C4701 C4700 1.379 . S
C4702 C4671 1.383 . S
C4702 C4689 1.479 . S
C4702 C4703 1.398 . S
C4703 C4668 1.382 . S
C4703 H4680 0.951 . S
C4703 C4702 1.398 . S
C4704 C4705 1.384 . S
C4704 H4717 0.947 . S
C4704 C4739 1.382 . S
C4705 C4704 1.384 . S
C4705 C4706 1.378 . S
C4706 C4705 1.378 . S
C4706 C4707 1.378 . S
C4706 H4718 0.952 . S
C4707 C4706 1.378 . S
C4707 H4719 0.950 . S
C4707 C4738 1.383 . S
H4708 C4727 0.947 . S
H4709 C4728 0.946 . S
H4710 C4730 0.953 . S
H4711 C4731 0.945 . S
H4712 C4733 0.952 . S
H4713 C4734 0.949 . S
H4714 C4736 0.950 . S
H4715 C4737 0.948 . S
H4716 C4739 0.951 . S
H4717 C4704 0.947 . S
H4718 C4706 0.952 . S
H4719 C4707 0.950 . S
N4720 C4723 1.382 . S
N4720 C4725 1.363 . S
N4721 C4723 1.371 . S
N4721 C4724 1.372 . S
N4722 C4724 1.361 . S
N4722 C4725 1.377 . S
C4723 N4720 1.382 . S
C4723 N4721 1.371 . S
C4723 C4726 1.480 . S
C4724 N4721 1.372 . S
C4724 N4722 1.361 . S
C4724 C4732 1.457 . S
C4725 N4720 1.363 . S
C4725 N4722 1.377 . S
C4725 C4738 1.479 . S
C4726 C4723 1.480 . S
C4726 C4727 1.383 . S
C4726 C4731 1.385 . S
C4727 H4708 0.947 . S
C4727 C4726 1.383 . S
C4727 C4728 1.388 . S
C4728 H4709 0.946 . S
C4728 C4727 1.388 . S
C4728 C4729 1.384 . S
C4729 C4728 1.384 . S
C4729 C4730 1.377 . S
C4730 H4710 0.953 . S
C4730 C4729 1.377 . S
C4730 C4731 1.369 . S
C4731 H4711 0.945 . S
C4731 C4726 1.385 . S
C4731 C4730 1.369 . S
C4732 C4724 1.457 . S
C4732 C4733 1.372 . S
C4732 C4737 1.364 . S
C4733 H4712 0.952 . S
C4733 C4732 1.372 . S
C4733 C4734 1.389 . S
C4734 H4713 0.949 . S
C4734 C4733 1.389 . S
C4734 C4735 1.387 . S
C4735 C4734 1.387 . S
C4735 C4736 1.372 . S
C4736 H4714 0.950 . S
C4736 C4735 1.372 . S
C4736 C4737 1.379 . S
C4737 H4715 0.948 . S
C4737 C4732 1.364 . S
C4737 C4736 1.379 . S
C4738 C4707 1.383 . S
C4738 C4725 1.479 . S
C4738 C4739 1.398 . S
C4739 C4704 1.382 . S
C4739 H4716 0.951 . S
C4739 C4738 1.398 . S
C4740 C4741 1.384 . S
C4740 H4753 0.947 . S
C4740 C4775 1.382 . S
C4741 C4740 1.384 . S
C4741 C4742 1.378 . S
C4742 C4741 1.378 . S
C4742 C4743 1.378 . S
C4742 H4754 0.952 . S
C4743 C4742 1.378 . S
C4743 H4755 0.950 . S
C4743 C4774 1.383 . S
H4744 C4763 0.947 . S
H4745 C4764 0.946 . S
H4746 C4766 0.953 . S
H4747 C4767 0.945 . S
H4748 C4769 0.952 . S
H4749 C4770 0.949 . S
H4750 C4772 0.950 . S
H4751 C4773 0.948 . S
H4752 C4775 0.951 . S
H4753 C4740 0.947 . S
H4754 C4742 0.952 . S
H4755 C4743 0.950 . S
N4756 C4759 1.382 . S
N4756 C4761 1.363 . S
N4757 C4759 1.371 . S
N4757 C4760 1.372 . S
N4758 C4760 1.361 . S
N4758 C4761 1.377 . S
C4759 N4756 1.382 . S
C4759 N4757 1.371 . S
C4759 C4762 1.480 . S
C4760 N4757 1.372 . S
C4760 N4758 1.361 . S
C4760 C4768 1.457 . S
C4761 N4756 1.363 . S
C4761 N4758 1.377 . S
C4761 C4774 1.479 . S
C4762 C4759 1.480 . S
C4762 C4763 1.383 . S
C4762 C4767 1.385 . S
C4763 H4744 0.947 . S
C4763 C4762 1.383 . S
C4763 C4764 1.388 . S
C4764 H4745 0.946 . S
C4764 C4763 1.388 . S
C4764 C4765 1.384 . S
C4765 C4764 1.384 . S
C4765 C4766 1.377 . S
C4766 H4746 0.953 . S
C4766 C4765 1.377 . S
C4766 C4767 1.369 . S
C4767 H4747 0.945 . S
C4767 C4762 1.385 . S
C4767 C4766 1.369 . S
C4768 C4760 1.457 . S
C4768 C4769 1.372 . S
C4768 C4773 1.364 . S
C4769 H4748 0.952 . S
C4769 C4768 1.372 . S
C4769 C4770 1.389 . S
C4770 H4749 0.949 . S
C4770 C4769 1.389 . S
C4770 C4771 1.387 . S
C4771 C4770 1.387 . S
C4771 C4772 1.372 . S
C4772 H4750 0.950 . S
C4772 C4771 1.372 . S
C4772 C4773 1.379 . S
C4773 H4751 0.948 . S
C4773 C4768 1.364 . S
C4773 C4772 1.379 . S
C4774 C4743 1.383 . S
C4774 C4761 1.479 . S
C4774 C4775 1.398 . S
C4775 C4740 1.382 . S
C4775 H4752 0.951 . S
C4775 C4774 1.398 . S
C4776 C4777 1.384 . S
C4776 H4789 0.947 . S
C4776 C4811 1.382 . S
C4777 C4776 1.384 . S
C4777 C4778 1.378 . S
C4778 C4777 1.378 . S
C4778 C4779 1.378 . S
C4778 H4790 0.952 . S
C4779 C4778 1.378 . S
C4779 H4791 0.950 . S
C4779 C4810 1.383 . S
H4780 C4799 0.947 . S
H4781 C4800 0.946 . S
H4782 C4802 0.953 . S
H4783 C4803 0.945 . S
H4784 C4805 0.952 . S
H4785 C4806 0.949 . S
H4786 C4808 0.950 . S
H4787 C4809 0.948 . S
H4788 C4811 0.951 . S
H4789 C4776 0.947 . S
H4790 C4778 0.952 . S
H4791 C4779 0.950 . S
N4792 C4795 1.382 . S
N4792 C4797 1.363 . S
N4793 C4795 1.371 . S
N4793 C4796 1.372 . S
N4794 C4796 1.361 . S
N4794 C4797 1.377 . S
C4795 N4792 1.382 . S
C4795 N4793 1.371 . S
C4795 C4798 1.480 . S
C4796 N4793 1.372 . S
C4796 N4794 1.361 . S
C4796 C4804 1.457 . S
C4797 N4792 1.363 . S
C4797 N4794 1.377 . S
C4797 C4810 1.479 . S
C4798 C4795 1.480 . S
C4798 C4799 1.383 . S
C4798 C4803 1.385 . S
C4799 H4780 0.947 . S
C4799 C4798 1.383 . S
C4799 C4800 1.388 . S
C4800 H4781 0.946 . S
C4800 C4799 1.388 . S
C4800 C4801 1.384 . S
C4801 C4800 1.384 . S
C4801 C4802 1.377 . S
C4802 H4782 0.953 . S
C4802 C4801 1.377 . S
C4802 C4803 1.369 . S
C4803 H4783 0.945 . S
C4803 C4798 1.385 . S
C4803 C4802 1.369 . S
C4804 C4796 1.457 . S
C4804 C4805 1.372 . S
C4804 C4809 1.364 . S
C4805 H4784 0.952 . S
C4805 C4804 1.372 . S
C4805 C4806 1.389 . S
C4806 H4785 0.949 . S
C4806 C4805 1.389 . S
C4806 C4807 1.387 . S
C4807 C4806 1.387 . S
C4807 C4808 1.372 . S
C4808 H4786 0.950 . S
C4808 C4807 1.372 . S
C4808 C4809 1.379 . S
C4809 H4787 0.948 . S
C4809 C4804 1.364 . S
C4809 C4808 1.379 . S
C4810 C4779 1.383 . S
C4810 C4797 1.479 . S
C4810 C4811 1.398 . S
C4811 C4776 1.382 . S
C4811 H4788 0.951 . S
C4811 C4810 1.398 . S
C4812 C4813 1.384 . S
C4812 H4825 0.947 . S
C4812 C4847 1.382 . S
C4813 C4812 1.384 . S
C4813 C4814 1.378 . S
C4814 C4813 1.378 . S
C4814 C4815 1.378 . S
C4814 H4826 0.952 . S
C4815 C4814 1.378 . S
C4815 H4827 0.950 . S
C4815 C4846 1.383 . S
H4816 C4835 0.947 . S
H4817 C4836 0.946 . S
H4818 C4838 0.953 . S
H4819 C4839 0.945 . S
H4820 C4841 0.952 . S
H4821 C4842 0.949 . S
H4822 C4844 0.950 . S
H4823 C4845 0.948 . S
H4824 C4847 0.951 . S
H4825 C4812 0.947 . S
H4826 C4814 0.952 . S
H4827 C4815 0.950 . S
N4828 C4831 1.382 . S
N4828 C4833 1.363 . S
N4829 C4831 1.371 . S
N4829 C4832 1.372 . S
N4830 C4832 1.361 . S
N4830 C4833 1.377 . S
C4831 N4828 1.382 . S
C4831 N4829 1.371 . S
C4831 C4834 1.480 . S
C4832 N4829 1.372 . S
C4832 N4830 1.361 . S
C4832 C4840 1.457 . S
C4833 N4828 1.363 . S
C4833 N4830 1.377 . S
C4833 C4846 1.479 . S
C4834 C4831 1.480 . S
C4834 C4835 1.383 . S
C4834 C4839 1.385 . S
C4835 H4816 0.947 . S
C4835 C4834 1.383 . S
C4835 C4836 1.388 . S
C4836 H4817 0.946 . S
C4836 C4835 1.388 . S
C4836 C4837 1.384 . S
C4837 C4836 1.384 . S
C4837 C4838 1.377 . S
C4838 H4818 0.953 . S
C4838 C4837 1.377 . S
C4838 C4839 1.369 . S
C4839 H4819 0.945 . S
C4839 C4834 1.385 . S
C4839 C4838 1.369 . S
C4840 C4832 1.457 . S
C4840 C4841 1.372 . S
C4840 C4845 1.364 . S
C4841 H4820 0.952 . S
C4841 C4840 1.372 . S
C4841 C4842 1.389 . S
C4842 H4821 0.949 . S
C4842 C4841 1.389 . S
C4842 C4843 1.387 . S
C4843 C4842 1.387 . S
C4843 C4844 1.372 . S
C4844 H4822 0.950 . S
C4844 C4843 1.372 . S
C4844 C4845 1.379 . S
C4845 H4823 0.948 . S
C4845 C4840 1.364 . S
C4845 C4844 1.379 . S
C4846 C4815 1.383 . S
C4846 C4833 1.479 . S
C4846 C4847 1.398 . S
C4847 C4812 1.382 . S
C4847 H4824 0.951 . S
C4847 C4846 1.398 . S
C4848 C4849 1.384 . S
C4848 H4861 0.947 . S
C4848 C4883 1.382 . S
C4849 C4848 1.384 . S
C4849 C4850 1.378 . S
C4850 C4849 1.378 . S
C4850 C4851 1.378 . S
C4850 H4862 0.952 . S
C4851 C4850 1.378 . S
C4851 H4863 0.950 . S
C4851 C4882 1.383 . S
H4852 C4871 0.947 . S
H4853 C4872 0.946 . S
H4854 C4874 0.953 . S
H4855 C4875 0.945 . S
H4856 C4877 0.952 . S
H4857 C4878 0.949 . S
H4858 C4880 0.950 . S
H4859 C4881 0.948 . S
H4860 C4883 0.951 . S
H4861 C4848 0.947 . S
H4862 C4850 0.952 . S
H4863 C4851 0.950 . S
N4864 C4867 1.382 . S
N4864 C4869 1.363 . S
N4865 C4867 1.371 . S
N4865 C4868 1.372 . S
N4866 C4868 1.361 . S
N4866 C4869 1.377 . S
C4867 N4864 1.382 . S
C4867 N4865 1.371 . S
C4867 C4870 1.480 . S
C4868 N4865 1.372 . S
C4868 N4866 1.361 . S
C4868 C4876 1.457 . S
C4869 N4864 1.363 . S
C4869 N4866 1.377 . S
C4869 C4882 1.479 . S
C4870 C4867 1.480 . S
C4870 C4871 1.383 . S
C4870 C4875 1.385 . S
C4871 H4852 0.947 . S
C4871 C4870 1.383 . S
C4871 C4872 1.388 . S
C4872 H4853 0.946 . S
C4872 C4871 1.388 . S
C4872 C4873 1.384 . S
C4873 C4872 1.384 . S
C4873 C4874 1.377 . S
C4874 H4854 0.953 . S
C4874 C4873 1.377 . S
C4874 C4875 1.369 . S
C4875 H4855 0.945 . S
C4875 C4870 1.385 . S
C4875 C4874 1.369 . S
C4876 C4868 1.457 . S
C4876 C4877 1.372 . S
C4876 C4881 1.364 . S
C4877 H4856 0.952 . S
C4877 C4876 1.372 . S
C4877 C4878 1.389 . S
C4878 H4857 0.949 . S
C4878 C4877 1.389 . S
C4878 C4879 1.387 . S
C4879 C4878 1.387 . S
C4879 C4880 1.372 . S
C4880 H4858 0.950 . S
C4880 C4879 1.372 . S
C4880 C4881 1.379 . S
C4881 H4859 0.948 . S
C4881 C4876 1.364 . S
C4881 C4880 1.379 . S
C4882 C4851 1.383 . S
C4882 C4869 1.479 . S
C4882 C4883 1.398 . S
C4883 C4848 1.382 . S
C4883 H4860 0.951 . S
C4883 C4882 1.398 . S
C4884 C4885 1.384 . S
C4884 H4897 0.947 . S
C4884 C4919 1.382 . S
C4885 C4884 1.384 . S
C4885 C4886 1.378 . S
C4886 C4885 1.378 . S
C4886 C4887 1.378 . S
C4886 H4898 0.952 . S
C4887 C4886 1.378 . S
C4887 H4899 0.950 . S
C4887 C4918 1.383 . S
H4888 C4907 0.947 . S
H4889 C4908 0.946 . S
H4890 C4910 0.953 . S
H4891 C4911 0.945 . S
H4892 C4913 0.952 . S
H4893 C4914 0.949 . S
H4894 C4916 0.950 . S
H4895 C4917 0.948 . S
H4896 C4919 0.951 . S
H4897 C4884 0.947 . S
H4898 C4886 0.952 . S
H4899 C4887 0.950 . S
N4900 C4903 1.382 . S
N4900 C4905 1.363 . S
N4901 C4903 1.371 . S
N4901 C4904 1.372 . S
N4902 C4904 1.361 . S
N4902 C4905 1.377 . S
C4903 N4900 1.382 . S
C4903 N4901 1.371 . S
C4903 C4906 1.480 . S
C4904 N4901 1.372 . S
C4904 N4902 1.361 . S
C4904 C4912 1.457 . S
C4905 N4900 1.363 . S
C4905 N4902 1.377 . S
C4905 C4918 1.479 . S
C4906 C4903 1.480 . S
C4906 C4907 1.383 . S
C4906 C4911 1.385 . S
C4907 H4888 0.947 . S
C4907 C4906 1.383 . S
C4907 C4908 1.388 . S
C4908 H4889 0.946 . S
C4908 C4907 1.388 . S
C4908 C4909 1.384 . S
C4909 C4908 1.384 . S
C4909 C4910 1.377 . S
C4910 H4890 0.953 . S
C4910 C4909 1.377 . S
C4910 C4911 1.369 . S
C4911 H4891 0.945 . S
C4911 C4906 1.385 . S
C4911 C4910 1.369 . S
C4912 C4904 1.457 . S
C4912 C4913 1.372 . S
C4912 C4917 1.364 . S
C4913 H4892 0.952 . S
C4913 C4912 1.372 . S
C4913 C4914 1.389 . S
C4914 H4893 0.949 . S
C4914 C4913 1.389 . S
C4914 C4915 1.387 . S
C4915 C4914 1.387 . S
C4915 C4916 1.372 . S
C4916 H4894 0.950 . S
C4916 C4915 1.372 . S
C4916 C4917 1.379 . S
C4917 H4895 0.948 . S
C4917 C4912 1.364 . S
C4917 C4916 1.379 . S
C4918 C4887 1.383 . S
C4918 C4905 1.479 . S
C4918 C4919 1.398 . S
C4919 C4884 1.382 . S
C4919 H4896 0.951 . S
C4919 C4918 1.398 . S
C4920 C4921 1.384 . S
C4920 H4933 0.947 . S
C4920 C4955 1.382 . S
C4921 C4920 1.384 . S
C4921 C4922 1.378 . S
C4922 C4921 1.378 . S
C4922 C4923 1.378 . S
C4922 H4934 0.952 . S
C4923 C4922 1.378 . S
C4923 H4935 0.950 . S
C4923 C4954 1.383 . S
H4924 C4943 0.947 . S
H4925 C4944 0.946 . S
H4926 C4946 0.953 . S
H4927 C4947 0.945 . S
H4928 C4949 0.952 . S
H4929 C4950 0.949 . S
H4930 C4952 0.950 . S
H4931 C4953 0.948 . S
H4932 C4955 0.951 . S
H4933 C4920 0.947 . S
H4934 C4922 0.952 . S
H4935 C4923 0.950 . S
N4936 C4939 1.382 . S
N4936 C4941 1.363 . S
N4937 C4939 1.371 . S
N4937 C4940 1.372 . S
N4938 C4940 1.361 . S
N4938 C4941 1.377 . S
C4939 N4936 1.382 . S
C4939 N4937 1.371 . S
C4939 C4942 1.480 . S
C4940 N4937 1.372 . S
C4940 N4938 1.361 . S
C4940 C4948 1.457 . S
C4941 N4936 1.363 . S
C4941 N4938 1.377 . S
C4941 C4954 1.479 . S
C4942 C4939 1.480 . S
C4942 C4943 1.383 . S
C4942 C4947 1.385 . S
C4943 H4924 0.947 . S
C4943 C4942 1.383 . S
C4943 C4944 1.388 . S
C4944 H4925 0.946 . S
C4944 C4943 1.388 . S
C4944 C4945 1.384 . S
C4945 C4944 1.384 . S
C4945 C4946 1.377 . S
C4946 H4926 0.953 . S
C4946 C4945 1.377 . S
C4946 C4947 1.369 . S
C4947 H4927 0.945 . S
C4947 C4942 1.385 . S
C4947 C4946 1.369 . S
C4948 C4940 1.457 . S
C4948 C4949 1.372 . S
C4948 C4953 1.364 . S
C4949 H4928 0.952 . S
C4949 C4948 1.372 . S
C4949 C4950 1.389 . S
C4950 H4929 0.949 . S
C4950 C4949 1.389 . S
C4950 C4951 1.387 . S
C4951 C4950 1.387 . S
C4951 C4952 1.372 . S
C4952 H4930 0.950 . S
C4952 C4951 1.372 . S
C4952 C4953 1.379 . S
C4953 H4931 0.948 . S
C4953 C4948 1.364 . S
C4953 C4952 1.379 . S
C4954 C4923 1.383 . S
C4954 C4941 1.479 . S
C4954 C4955 1.398 . S
C4955 C4920 1.382 . S
C4955 H4932 0.951 . S
C4955 C4954 1.398 . S
C4956 C4957 1.384 . S
C4956 H4969 0.947 . S
C4956 C4991 1.382 . S
C4957 C4956 1.384 . S
C4957 C4958 1.378 . S
C4958 C4957 1.378 . S
C4958 C4959 1.378 . S
C4958 H4970 0.952 . S
C4959 C4958 1.378 . S
C4959 H4971 0.950 . S
C4959 C4990 1.383 . S
H4960 C4979 0.947 . S
H4961 C4980 0.946 . S
H4962 C4982 0.953 . S
H4963 C4983 0.945 . S
H4964 C4985 0.952 . S
H4965 C4986 0.949 . S
H4966 C4988 0.950 . S
H4967 C4989 0.948 . S
H4968 C4991 0.951 . S
H4969 C4956 0.947 . S
H4970 C4958 0.952 . S
H4971 C4959 0.950 . S
N4972 C4975 1.382 . S
N4972 C4977 1.363 . S
N4973 C4975 1.371 . S
N4973 C4976 1.372 . S
N4974 C4976 1.361 . S
N4974 C4977 1.377 . S
C4975 N4972 1.382 . S
C4975 N4973 1.371 . S
C4975 C4978 1.480 . S
C4976 N4973 1.372 . S
C4976 N4974 1.361 . S
C4976 C4984 1.457 . S
C4977 N4972 1.363 . S
C4977 N4974 1.377 . S
C4977 C4990 1.479 . S
C4978 C4975 1.480 . S
C4978 C4979 1.383 . S
C4978 C4983 1.385 . S
C4979 H4960 0.947 . S
C4979 C4978 1.383 . S
C4979 C4980 1.388 . S
C4980 H4961 0.946 . S
C4980 C4979 1.388 . S
C4980 C4981 1.384 . S
C4981 C4980 1.384 . S
C4981 C4982 1.377 . S
C4982 H4962 0.953 . S
C4982 C4981 1.377 . S
C4982 C4983 1.369 . S
C4983 H4963 0.945 . S
C4983 C4978 1.385 . S
C4983 C4982 1.369 . S
C4984 C4976 1.457 . S
C4984 C4985 1.372 . S
C4984 C4989 1.364 . S
C4985 H4964 0.952 . S
C4985 C4984 1.372 . S
C4985 C4986 1.389 . S
C4986 H4965 0.949 . S
C4986 C4985 1.389 . S
C4986 C4987 1.387 . S
C4987 C4986 1.387 . S
C4987 C4988 1.372 . S
C4988 H4966 0.950 . S
C4988 C4987 1.372 . S
C4988 C4989 1.379 . S
C4989 H4967 0.948 . S
C4989 C4984 1.364 . S
C4989 C4988 1.379 . S
C4990 C4959 1.383 . S
C4990 C4977 1.479 . S
C4990 C4991 1.398 . S
C4991 C4956 1.382 . S
C4991 H4968 0.951 . S
C4991 C4990 1.398 . S
C4992 C4993 1.384 . S
C4992 H5005 0.947 . S
C4992 C5027 1.382 . S
C4993 C4992 1.384 . S
C4993 C4994 1.378 . S
C4994 C4993 1.378 . S
C4994 C4995 1.378 . S
C4994 H5006 0.952 . S
C4995 C4994 1.378 . S
C4995 H5007 0.950 . S
C4995 C5026 1.383 . S
H4996 C5015 0.947 . S
H4997 C5016 0.946 . S
H4998 C5018 0.953 . S
H4999 C5019 0.945 . S
H5000 C5021 0.952 . S
H5001 C5022 0.949 . S
H5002 C5024 0.950 . S
H5003 C5025 0.948 . S
H5004 C5027 0.951 . S
H5005 C4992 0.947 . S
H5006 C4994 0.952 . S
H5007 C4995 0.950 . S
N5008 C5011 1.382 . S
N5008 C5013 1.363 . S
N5009 C5011 1.371 . S
N5009 C5012 1.372 . S
N5010 C5012 1.361 . S
N5010 C5013 1.377 . S
C5011 N5008 1.382 . S
C5011 N5009 1.371 . S
C5011 C5014 1.480 . S
C5012 N5009 1.372 . S
C5012 N5010 1.361 . S
C5012 C5020 1.457 . S
C5013 N5008 1.363 . S
C5013 N5010 1.377 . S
C5013 C5026 1.479 . S
C5014 C5011 1.480 . S
C5014 C5015 1.383 . S
C5014 C5019 1.385 . S
C5015 H4996 0.947 . S
C5015 C5014 1.383 . S
C5015 C5016 1.388 . S
C5016 H4997 0.946 . S
C5016 C5015 1.388 . S
C5016 C5017 1.384 . S
C5017 C5016 1.384 . S
C5017 C5018 1.377 . S
C5018 H4998 0.953 . S
C5018 C5017 1.377 . S
C5018 C5019 1.369 . S
C5019 H4999 0.945 . S
C5019 C5014 1.385 . S
C5019 C5018 1.369 . S
C5020 C5012 1.457 . S
C5020 C5021 1.372 . S
C5020 C5025 1.364 . S
C5021 H5000 0.952 . S
C5021 C5020 1.372 . S
C5021 C5022 1.389 . S
C5022 H5001 0.949 . S
C5022 C5021 1.389 . S
C5022 C5023 1.387 . S
C5023 C5022 1.387 . S
C5023 C5024 1.372 . S
C5024 H5002 0.950 . S
C5024 C5023 1.372 . S
C5024 C5025 1.379 . S
C5025 H5003 0.948 . S
C5025 C5020 1.364 . S
C5025 C5024 1.379 . S
C5026 C4995 1.383 . S
C5026 C5013 1.479 . S
C5026 C5027 1.398 . S
C5027 C4992 1.382 . S
C5027 H5004 0.951 . S
C5027 C5026 1.398 . S
C5028 C5029 1.384 . S
C5028 H5041 0.947 . S
C5028 C5063 1.382 . S
C5029 C5028 1.384 . S
C5029 C5030 1.378 . S
C5030 C5029 1.378 . S
C5030 C5031 1.378 . S
C5030 H5042 0.952 . S
C5031 C5030 1.378 . S
C5031 H5043 0.950 . S
C5031 C5062 1.383 . S
H5032 C5051 0.947 . S
H5033 C5052 0.946 . S
H5034 C5054 0.953 . S
H5035 C5055 0.945 . S
H5036 C5057 0.952 . S
H5037 C5058 0.949 . S
H5038 C5060 0.950 . S
H5039 C5061 0.948 . S
H5040 C5063 0.951 . S
H5041 C5028 0.947 . S
H5042 C5030 0.952 . S
H5043 C5031 0.950 . S
N5044 C5047 1.382 . S
N5044 C5049 1.363 . S
N5045 C5047 1.371 . S
N5045 C5048 1.372 . S
N5046 C5048 1.361 . S
N5046 C5049 1.377 . S
C5047 N5044 1.382 . S
C5047 N5045 1.371 . S
C5047 C5050 1.480 . S
C5048 N5045 1.372 . S
C5048 N5046 1.361 . S
C5048 C5056 1.457 . S
C5049 N5044 1.363 . S
C5049 N5046 1.377 . S
C5049 C5062 1.479 . S
C5050 C5047 1.480 . S
C5050 C5051 1.383 . S
C5050 C5055 1.385 . S
C5051 H5032 0.947 . S
C5051 C5050 1.383 . S
C5051 C5052 1.388 . S
C5052 H5033 0.946 . S
C5052 C5051 1.388 . S
C5052 C5053 1.384 . S
C5053 C5052 1.384 . S
C5053 C5054 1.377 . S
C5054 H5034 0.953 . S
C5054 C5053 1.377 . S
C5054 C5055 1.369 . S
C5055 H5035 0.945 . S
C5055 C5050 1.385 . S
C5055 C5054 1.369 . S
C5056 C5048 1.457 . S
C5056 C5057 1.372 . S
C5056 C5061 1.364 . S
C5057 H5036 0.952 . S
C5057 C5056 1.372 . S
C5057 C5058 1.389 . S
C5058 H5037 0.949 . S
C5058 C5057 1.389 . S
C5058 C5059 1.387 . S
C5059 C5058 1.387 . S
C5059 C5060 1.372 . S
C5060 H5038 0.950 . S
C5060 C5059 1.372 . S
C5060 C5061 1.379 . S
C5061 H5039 0.948 . S
C5061 C5056 1.364 . S
C5061 C5060 1.379 . S
C5062 C5031 1.383 . S
C5062 C5049 1.479 . S
C5062 C5063 1.398 . S
C5063 C5028 1.382 . S
C5063 H5040 0.951 . S
C5063 C5062 1.398 . S
C5064 C5065 1.384 . S
C5064 H5077 0.947 . S
C5064 C5099 1.382 . S
C5065 C5064 1.384 . S
C5065 C5066 1.378 . S
C5066 C5065 1.378 . S
C5066 C5067 1.378 . S
C5066 H5078 0.952 . S
C5067 C5066 1.378 . S
C5067 H5079 0.950 . S
C5067 C5098 1.383 . S
H5068 C5087 0.947 . S
H5069 C5088 0.946 . S
H5070 C5090 0.953 . S
H5071 C5091 0.945 . S
H5072 C5093 0.952 . S
H5073 C5094 0.949 . S
H5074 C5096 0.950 . S
H5075 C5097 0.948 . S
H5076 C5099 0.951 . S
H5077 C5064 0.947 . S
H5078 C5066 0.952 . S
H5079 C5067 0.950 . S
N5080 C5083 1.382 . S
N5080 C5085 1.363 . S
N5081 C5083 1.371 . S
N5081 C5084 1.372 . S
N5082 C5084 1.361 . S
N5082 C5085 1.377 . S
C5083 N5080 1.382 . S
C5083 N5081 1.371 . S
C5083 C5086 1.480 . S
C5084 N5081 1.372 . S
C5084 N5082 1.361 . S
C5084 C5092 1.457 . S
C5085 N5080 1.363 . S
C5085 N5082 1.377 . S
C5085 C5098 1.479 . S
C5086 C5083 1.480 . S
C5086 C5087 1.383 . S
C5086 C5091 1.385 . S
C5087 H5068 0.947 . S
C5087 C5086 1.383 . S
C5087 C5088 1.388 . S
C5088 H5069 0.946 . S
C5088 C5087 1.388 . S
C5088 C5089 1.384 . S
C5089 C5088 1.384 . S
C5089 C5090 1.377 . S
C5090 H5070 0.953 . S
C5090 C5089 1.377 . S
C5090 C5091 1.369 . S
C5091 H5071 0.945 . S
C5091 C5086 1.385 . S
C5091 C5090 1.369 . S
C5092 C5084 1.457 . S
C5092 C5093 1.372 . S
C5092 C5097 1.364 . S
C5093 H5072 0.952 . S
C5093 C5092 1.372 . S
C5093 C5094 1.389 . S
C5094 H5073 0.949 . S
C5094 C5093 1.389 . S
C5094 C5095 1.387 . S
C5095 C5094 1.387 . S
C5095 C5096 1.372 . S
C5096 H5074 0.950 . S
C5096 C5095 1.372 . S
C5096 C5097 1.379 . S
C5097 H5075 0.948 . S
C5097 C5092 1.364 . S
C5097 C5096 1.379 . S
C5098 C5067 1.383 . S
C5098 C5085 1.479 . S
C5098 C5099 1.398 . S
C5099 C5064 1.382 . S
C5099 H5076 0.951 . S
C5099 C5098 1.398 . S
C5100 C5101 1.384 . S
C5100 H5113 0.947 . S
C5100 C5135 1.382 . S
C5101 C5100 1.384 . S
C5101 C5102 1.378 . S
C5102 C5101 1.378 . S
C5102 C5103 1.378 . S
C5102 H5114 0.952 . S
C5103 C5102 1.378 . S
C5103 H5115 0.950 . S
C5103 C5134 1.383 . S
H5104 C5123 0.947 . S
H5105 C5124 0.946 1_556 S
H5106 C5126 0.977 . S
H5107 C5127 0.945 . S
H5108 C5129 0.952 . S
H5109 C5130 0.949 . S
H5110 C5132 0.950 . S
H5111 C5133 0.948 . S
H5112 C5135 0.951 . S
H5113 C5100 0.947 . S
H5114 C5102 0.952 . S
H5115 C5103 0.950 . S
N5116 C5119 1.382 . S
N5116 C5121 1.363 . S
N5117 C5119 1.371 . S
N5117 C5120 1.372 . S
N5118 C5120 1.361 . S
N5118 C5121 1.377 . S
C5119 N5116 1.382 . S
C5119 N5117 1.371 . S
C5119 C5122 1.480 . S
C5120 N5117 1.372 . S
C5120 N5118 1.361 . S
C5120 C5128 1.457 . S
C5121 N5116 1.363 . S
C5121 N5118 1.377 . S
C5121 C5134 1.479 . S
C5122 C5119 1.480 . S
C5122 C5123 1.383 . S
C5122 C5127 1.385 . S
C5123 H5104 0.947 . S
C5123 C5122 1.383 . S
C5123 C5124 1.388 . S
C5124 H5105 0.946 1_554 S
C5124 C5123 1.388 . S
C5124 C5125 1.384 1_554 S
C5125 C5124 1.384 1_556 S
C5125 C5126 1.377 1_556 S
C5126 H5106 0.977 . S
C5126 C5125 1.377 1_554 S
C5126 C5127 1.369 . S
C5127 H5107 0.945 . S
C5127 C5122 1.385 . S
C5127 C5126 1.369 . S
C5128 C5120 1.457 . S
C5128 C5129 1.372 . S
C5128 C5133 1.364 . S
C5129 H5108 0.952 . S
C5129 C5128 1.372 . S
C5129 C5130 1.389 . S
C5130 H5109 0.949 . S
C5130 C5129 1.389 . S
C5130 C5131 1.387 . S
C5131 C5130 1.387 . S
C5131 C5132 1.372 . S
C5132 H5110 0.950 . S
C5132 C5131 1.372 . S
C5132 C5133 1.379 . S
C5133 H5111 0.948 . S
C5133 C5128 1.364 . S
C5133 C5132 1.379 . S
C5134 C5103 1.383 . S
C5134 C5121 1.479 . S
C5134 C5135 1.398 . S
C5135 C5100 1.382 . S
C5135 H5112 0.951 . S
C5135 C5134 1.398 . S
C5136 C5137 1.384 . S
C5136 H5149 0.947 . S
C5136 C5171 1.382 . S
C5137 C5136 1.384 . S
C5137 C5138 1.378 . S
C5138 C5137 1.378 . S
C5138 C5139 1.378 . S
C5138 H5150 0.952 . S
C5139 C5138 1.378 . S
C5139 H5151 0.950 . S
C5139 C5170 1.383 . S
H5140 C5159 0.947 . S
H5141 C5160 0.946 . S
H5142 C5162 0.953 . S
H5143 C5163 0.945 . S
H5144 C5165 0.952 . S
H5145 C5166 0.949 . S
H5146 C5168 0.950 . S
H5147 C5169 0.948 . S
H5148 C5171 0.951 . S
H5149 C5136 0.947 . S
H5150 C5138 0.952 . S
H5151 C5139 0.950 . S
N5152 C5155 1.382 . S
N5152 C5157 1.363 . S
N5153 C5155 1.371 . S
N5153 C5156 1.372 . S
N5154 C5156 1.361 . S
N5154 C5157 1.377 . S
C5155 N5152 1.382 . S
C5155 N5153 1.371 . S
C5155 C5158 1.480 . S
C5156 N5153 1.372 . S
C5156 N5154 1.361 . S
C5156 C5164 1.457 . S
C5157 N5152 1.363 . S
C5157 N5154 1.377 . S
C5157 C5170 1.479 . S
C5158 C5155 1.480 . S
C5158 C5159 1.383 . S
C5158 C5163 1.385 . S
C5159 H5140 0.947 . S
C5159 C5158 1.383 . S
C5159 C5160 1.388 . S
C5160 H5141 0.946 . S
C5160 C5159 1.388 . S
C5160 C5161 1.384 . S
C5161 C5160 1.384 . S
C5161 C5162 1.377 . S
C5162 H5142 0.953 . S
C5162 C5161 1.377 . S
C5162 C5163 1.369 . S
C5163 H5143 0.945 . S
C5163 C5158 1.385 . S
C5163 C5162 1.369 . S
C5164 C5156 1.457 . S
C5164 C5165 1.372 . S
C5164 C5169 1.364 . S
C5165 H5144 0.952 . S
C5165 C5164 1.372 . S
C5165 C5166 1.389 . S
C5166 H5145 0.949 . S
C5166 C5165 1.389 . S
C5166 C5167 1.387 . S
C5167 C5166 1.387 . S
C5167 C5168 1.372 . S
C5168 H5146 0.950 . S
C5168 C5167 1.372 . S
C5168 C5169 1.379 . S
C5169 H5147 0.948 . S
C5169 C5164 1.364 . S
C5169 C5168 1.379 . S
C5170 C5139 1.383 . S
C5170 C5157 1.479 . S
C5170 C5171 1.398 . S
C5171 C5136 1.382 . S
C5171 H5148 0.951 . S
C5171 C5170 1.398 . S
C5172 C5173 1.384 . S
C5172 H5185 0.947 . S
C5172 C5207 1.382 . S
C5173 C5172 1.384 . S
C5173 C5174 1.378 . S
C5174 C5173 1.378 . S
C5174 C5175 1.378 . S
C5174 H5186 0.952 . S
C5175 C5174 1.378 . S
C5175 H5187 0.950 . S
C5175 C5206 1.383 . S
H5176 C5195 0.947 . S
H5177 C5196 0.946 . S
H5178 C5198 0.953 . S
H5179 C5199 0.945 . S
H5180 C5201 0.952 . S
H5181 C5202 0.949 . S
H5182 C5204 0.950 . S
H5183 C5205 0.948 . S
H5184 C5207 0.951 . S
H5185 C5172 0.947 . S
H5186 C5174 0.952 . S
H5187 C5175 0.950 . S
N5188 C5191 1.382 . S
N5188 C5193 1.363 . S
N5189 C5191 1.371 . S
N5189 C5192 1.372 . S
N5190 C5192 1.361 . S
N5190 C5193 1.377 . S
C5191 N5188 1.382 . S
C5191 N5189 1.371 . S
C5191 C5194 1.480 . S
C5192 N5189 1.372 . S
C5192 N5190 1.361 . S
C5192 C5200 1.457 . S
C5193 N5188 1.363 . S
C5193 N5190 1.377 . S
C5193 C5206 1.479 . S
C5194 C5191 1.480 . S
C5194 C5195 1.383 . S
C5194 C5199 1.385 . S
C5195 H5176 0.947 . S
C5195 C5194 1.383 . S
C5195 C5196 1.388 . S
C5196 H5177 0.946 . S
C5196 C5195 1.388 . S
C5196 C5197 1.384 . S
C5197 C5196 1.384 . S
C5197 C5198 1.377 . S
C5198 H5178 0.953 . S
C5198 C5197 1.377 . S
C5198 C5199 1.369 . S
C5199 H5179 0.945 . S
C5199 C5194 1.385 . S
C5199 C5198 1.369 . S
C5200 C5192 1.457 . S
C5200 C5201 1.372 . S
C5200 C5205 1.364 . S
C5201 H5180 0.952 . S
C5201 C5200 1.372 . S
C5201 C5202 1.389 . S
C5202 H5181 0.949 . S
C5202 C5201 1.389 . S
C5202 C5203 1.387 . S
C5203 C5202 1.387 . S
C5203 C5204 1.372 . S
C5204 H5182 0.950 . S
C5204 C5203 1.372 . S
C5204 C5205 1.379 . S
C5205 H5183 0.948 . S
C5205 C5200 1.364 . S
C5205 C5204 1.379 . S
C5206 C5175 1.383 . S
C5206 C5193 1.479 . S
C5206 C5207 1.398 . S
C5207 C5172 1.382 . S
C5207 H5184 0.951 . S
C5207 C5206 1.398 . S
C5208 C5209 1.384 . S
C5208 H5221 0.947 . S
C5208 C5243 1.382 . S
C5209 C5208 1.384 . S
C5209 C5210 1.378 . S
C5210 C5209 1.378 . S
C5210 C5211 1.378 . S
C5210 H5222 0.952 . S
C5211 C5210 1.378 . S
C5211 H5223 0.950 . S
C5211 C5242 1.383 . S
H5212 C5231 0.947 . S
H5213 C5232 0.946 . S
H5214 C5234 0.953 . S
H5215 C5235 0.945 . S
H5216 C5237 0.952 . S
H5217 C5238 0.949 . S
H5218 C5240 0.950 . S
H5219 C5241 0.948 . S
H5220 C5243 0.951 . S
H5221 C5208 0.947 . S
H5222 C5210 0.952 . S
H5223 C5211 0.950 . S
N5224 C5227 1.382 . S
N5224 C5229 1.363 . S
N5225 C5227 1.371 . S
N5225 C5228 1.372 . S
N5226 C5228 1.361 . S
N5226 C5229 1.377 . S
C5227 N5224 1.382 . S
C5227 N5225 1.371 . S
C5227 C5230 1.480 . S
C5228 N5225 1.372 . S
C5228 N5226 1.361 . S
C5228 C5236 1.457 . S
C5229 N5224 1.363 . S
C5229 N5226 1.377 . S
C5229 C5242 1.479 . S
C5230 C5227 1.480 . S
C5230 C5231 1.383 . S
C5230 C5235 1.385 . S
C5231 H5212 0.947 . S
C5231 C5230 1.383 . S
C5231 C5232 1.388 . S
C5232 H5213 0.946 . S
C5232 C5231 1.388 . S
C5232 C5233 1.384 . S
C5233 C5232 1.384 . S
C5233 C5234 1.377 . S
C5234 H5214 0.953 . S
C5234 C5233 1.377 . S
C5234 C5235 1.369 . S
C5235 H5215 0.945 . S
C5235 C5230 1.385 . S
C5235 C5234 1.369 . S
C5236 C5228 1.457 . S
C5236 C5237 1.372 . S
C5236 C5241 1.364 . S
C5237 H5216 0.952 . S
C5237 C5236 1.372 . S
C5237 C5238 1.389 . S
C5238 H5217 0.949 . S
C5238 C5237 1.389 . S
C5238 C5239 1.387 . S
C5239 C5238 1.387 . S
C5239 C5240 1.372 . S
C5240 H5218 0.950 . S
C5240 C5239 1.372 . S
C5240 C5241 1.379 . S
C5241 H5219 0.948 . S
C5241 C5236 1.364 . S
C5241 C5240 1.379 . S
C5242 C5211 1.383 . S
C5242 C5229 1.479 . S
C5242 C5243 1.398 . S
C5243 C5208 1.382 . S
C5243 H5220 0.951 . S
C5243 C5242 1.398 . S
C5244 C5245 1.384 . S
C5244 H5257 0.947 . S
C5244 C5279 1.382 . S
C5245 C5244 1.384 . S
C5245 C5246 1.378 . S
C5246 C5245 1.378 . S
C5246 C5247 1.378 . S
C5246 H5258 0.952 . S
C5247 C5246 1.378 . S
C5247 H5259 0.950 . S
C5247 C5278 1.383 . S
H5248 C5267 0.947 . S
H5249 C5268 0.946 . S
H5250 C5270 0.953 . S
H5251 C5271 0.945 . S
H5252 C5273 0.952 . S
H5253 C5274 0.949 . S
H5254 C5276 0.950 . S
H5255 C5277 0.948 . S
H5256 C5279 0.951 . S
H5257 C5244 0.947 . S
H5258 C5246 0.952 . S
H5259 C5247 0.950 . S
N5260 C5263 1.382 . S
N5260 C5265 1.363 . S
N5261 C5263 1.371 . S
N5261 C5264 1.372 . S
N5262 C5264 1.361 . S
N5262 C5265 1.377 . S
C5263 N5260 1.382 . S
C5263 N5261 1.371 . S
C5263 C5266 1.480 . S
C5264 N5261 1.372 . S
C5264 N5262 1.361 . S
C5264 C5272 1.457 . S
C5265 N5260 1.363 . S
C5265 N5262 1.377 . S
C5265 C5278 1.479 . S
C5266 C5263 1.480 . S
C5266 C5267 1.383 . S
C5266 C5271 1.385 . S
C5267 H5248 0.947 . S
C5267 C5266 1.383 . S
C5267 C5268 1.388 1_556 S
C5268 H5249 0.946 . S
C5268 C5267 1.388 1_554 S
C5268 C5269 1.384 . S
C5269 C5268 1.384 . S
C5269 C5270 1.377 . S
C5270 H5250 0.953 . S
C5270 C5269 1.377 . S
C5270 C5271 1.369 1_554 S
C5271 H5251 0.945 . S
C5271 C5266 1.385 . S
C5271 C5270 1.369 1_556 S
C5272 C5264 1.457 . S
C5272 C5273 1.372 . S
C5272 C5277 1.364 . S
C5273 H5252 0.952 . S
C5273 C5272 1.372 . S
C5273 C5274 1.389 . S
C5274 H5253 0.949 . S
C5274 C5273 1.389 . S
C5274 C5275 1.387 . S
C5275 C5274 1.387 . S
C5275 C5276 1.372 . S
C5276 H5254 0.950 . S
C5276 C5275 1.372 . S
C5276 C5277 1.379 . S
C5277 H5255 0.948 . S
C5277 C5272 1.364 . S
C5277 C5276 1.379 . S
C5278 C5247 1.383 . S
C5278 C5265 1.479 . S
C5278 C5279 1.398 . S
C5279 C5244 1.382 . S
C5279 H5256 0.951 . S
C5279 C5278 1.398 . S
C5280 C5281 1.384 . S
C5280 H5293 0.947 . S
C5280 C5315 1.382 . S
C5281 C5280 1.384 . S
C5281 C5282 1.378 . S
C5282 C5281 1.378 . S
C5282 C5283 1.378 . S
C5282 H5294 0.952 . S
C5283 C5282 1.378 . S
C5283 H5295 0.950 . S
C5283 C5314 1.383 . S
H5284 C5303 0.947 . S
H5285 C5304 0.946 . S
H5286 C5306 0.953 . S
H5287 C5307 0.945 . S
H5288 C5309 0.952 . S
H5289 C5310 0.949 . S
H5290 C5312 0.950 . S
H5291 C5313 0.948 . S
H5292 C5315 0.951 . S
H5293 C5280 0.947 . S
H5294 C5282 0.952 . S
H5295 C5283 0.950 . S
N5296 C5299 1.382 . S
N5296 C5301 1.363 . S
N5297 C5299 1.371 . S
N5297 C5300 1.372 . S
N5298 C5300 1.361 . S
N5298 C5301 1.377 . S
C5299 N5296 1.382 . S
C5299 N5297 1.371 . S
C5299 C5302 1.480 . S
C5300 N5297 1.372 . S
C5300 N5298 1.361 . S
C5300 C5308 1.457 . S
C5301 N5296 1.363 . S
C5301 N5298 1.377 . S
C5301 C5314 1.479 . S
C5302 C5299 1.480 . S
C5302 C5303 1.383 . S
C5302 C5307 1.385 . S
C5303 H5284 0.947 . S
C5303 C5302 1.383 . S
C5303 C5304 1.388 . S
C5304 H5285 0.946 . S
C5304 C5303 1.388 . S
C5304 C5305 1.384 . S
C5305 C5304 1.384 . S
C5305 C5306 1.377 . S
C5306 H5286 0.953 . S
C5306 C5305 1.377 . S
C5306 C5307 1.369 . S
C5307 H5287 0.945 . S
C5307 C5302 1.385 . S
C5307 C5306 1.369 . S
C5308 C5300 1.457 . S
C5308 C5309 1.372 . S
C5308 C5313 1.364 . S
C5309 H5288 0.952 . S
C5309 C5308 1.372 . S
C5309 C5310 1.389 . S
C5310 H5289 0.949 . S
C5310 C5309 1.389 . S
C5310 C5311 1.387 . S
C5311 C5310 1.387 . S
C5311 C5312 1.372 . S
C5312 H5290 0.950 . S
C5312 C5311 1.372 . S
C5312 C5313 1.379 . S
C5313 H5291 0.948 . S
C5313 C5308 1.364 . S
C5313 C5312 1.379 . S
C5314 C5283 1.383 . S
C5314 C5301 1.479 . S
C5314 C5315 1.398 . S
C5315 C5280 1.382 . S
C5315 H5292 0.951 . S
C5315 C5314 1.398 . S
C5316 C5317 1.384 . S
C5316 H5329 0.947 . S
C5316 C5351 1.382 . S
C5317 C5316 1.384 . S
C5317 C5318 1.378 . S
C5318 C5317 1.378 . S
C5318 C5319 1.378 . S
C5318 H5330 0.952 . S
C5319 C5318 1.378 . S
C5319 H5331 0.950 . S
C5319 C5350 1.383 . S
H5320 C5339 0.947 . S
H5321 C5340 0.946 . S
H5322 C5342 0.953 . S
H5323 C5343 0.945 . S
H5324 C5345 0.952 . S
H5325 C5346 0.949 . S
H5326 C5348 0.950 . S
H5327 C5349 0.948 . S
H5328 C5351 0.951 . S
H5329 C5316 0.947 . S
H5330 C5318 0.952 . S
H5331 C5319 0.950 . S
N5332 C5335 1.382 . S
N5332 C5337 1.363 . S
N5333 C5335 1.371 . S
N5333 C5336 1.372 . S
N5334 C5336 1.361 . S
N5334 C5337 1.377 . S
C5335 N5332 1.382 . S
C5335 N5333 1.371 . S
C5335 C5338 1.480 . S
C5336 N5333 1.372 . S
C5336 N5334 1.361 . S
C5336 C5344 1.457 . S
C5337 N5332 1.363 . S
C5337 N5334 1.377 . S
C5337 C5350 1.479 . S
C5338 C5335 1.480 . S
C5338 C5339 1.383 . S
C5338 C5343 1.385 . S
C5339 H5320 0.947 . S
C5339 C5338 1.383 . S
C5339 C5340 1.388 . S
C5340 H5321 0.946 . S
C5340 C5339 1.388 . S
C5340 C5341 1.384 . S
C5341 C5340 1.384 . S
C5341 C5342 1.377 . S
C5342 H5322 0.953 . S
C5342 C5341 1.377 . S
C5342 C5343 1.369 . S
C5343 H5323 0.945 . S
C5343 C5338 1.385 . S
C5343 C5342 1.369 . S
C5344 C5336 1.457 . S
C5344 C5345 1.372 . S
C5344 C5349 1.364 . S
C5345 H5324 0.952 . S
C5345 C5344 1.372 . S
C5345 C5346 1.389 . S
C5346 H5325 0.949 . S
C5346 C5345 1.389 . S
C5346 C5347 1.387 . S
C5347 C5346 1.387 . S
C5347 C5348 1.372 . S
C5348 H5326 0.950 . S
C5348 C5347 1.372 . S
C5348 C5349 1.379 . S
C5349 H5327 0.948 . S
C5349 C5344 1.364 . S
C5349 C5348 1.379 . S
C5350 C5319 1.383 . S
C5350 C5337 1.479 . S
C5350 C5351 1.398 . S
C5351 C5316 1.382 . S
C5351 H5328 0.951 . S
C5351 C5350 1.398 . S
C5352 C5353 1.384 . S
C5352 H5365 0.947 . S
C5352 C5387 1.382 . S
C5353 C5352 1.384 . S
C5353 C5354 1.378 . S
C5354 C5353 1.378 . S
C5354 C5355 1.378 . S
C5354 H5366 0.952 . S
C5355 C5354 1.378 . S
C5355 H5367 0.950 . S
C5355 C5386 1.383 . S
H5356 C5375 0.947 . S
H5357 C5376 0.946 . S
H5358 C5378 0.953 . S
H5359 C5379 0.945 . S
H5360 C5381 0.952 . S
H5361 C5382 0.949 . S
H5362 C5384 0.950 . S
H5363 C5385 0.948 . S
H5364 C5387 0.951 . S
H5365 C5352 0.947 . S
H5366 C5354 0.952 . S
H5367 C5355 0.950 . S
N5368 C5371 1.382 . S
N5368 C5373 1.363 . S
N5369 C5371 1.371 . S
N5369 C5372 1.372 . S
N5370 C5372 1.361 . S
N5370 C5373 1.377 . S
C5371 N5368 1.382 . S
C5371 N5369 1.371 . S
C5371 C5374 1.480 . S
C5372 N5369 1.372 . S
C5372 N5370 1.361 . S
C5372 C5380 1.457 . S
C5373 N5368 1.363 . S
C5373 N5370 1.377 . S
C5373 C5386 1.479 . S
C5374 C5371 1.480 . S
C5374 C5375 1.383 . S
C5374 C5379 1.385 . S
C5375 H5356 0.947 . S
C5375 C5374 1.383 . S
C5375 C5376 1.388 . S
C5376 H5357 0.946 . S
C5376 C5375 1.388 . S
C5376 C5377 1.384 . S
C5377 C5376 1.384 . S
C5377 C5378 1.377 . S
C5378 H5358 0.953 . S
C5378 C5377 1.377 . S
C5378 C5379 1.369 . S
C5379 H5359 0.945 . S
C5379 C5374 1.385 . S
C5379 C5378 1.369 . S
C5380 C5372 1.457 . S
C5380 C5381 1.372 . S
C5380 C5385 1.364 . S
C5381 H5360 0.952 . S
C5381 C5380 1.372 . S
C5381 C5382 1.389 . S
C5382 H5361 0.949 . S
C5382 C5381 1.389 . S
C5382 C5383 1.387 . S
C5383 C5382 1.387 . S
C5383 C5384 1.372 . S
C5384 H5362 0.950 . S
C5384 C5383 1.372 . S
C5384 C5385 1.379 . S
C5385 H5363 0.948 . S
C5385 C5380 1.364 . S
C5385 C5384 1.379 . S
C5386 C5355 1.383 . S
C5386 C5373 1.479 . S
C5386 C5387 1.398 . S
C5387 C5352 1.382 . S
C5387 H5364 0.951 . S
C5387 C5386 1.398 . S
C5388 C5389 1.384 . S
C5388 H5401 0.947 . S
C5388 C5423 1.382 . S
C5389 C5388 1.384 . S
C5389 C5390 1.378 . S
C5390 C5389 1.378 . S
C5390 C5391 1.378 . S
C5390 H5402 0.952 . S
C5391 C5390 1.378 . S
C5391 H5403 0.950 . S
C5391 C5422 1.383 . S
H5392 C5411 0.947 . S
H5393 C5412 0.946 . S
H5394 C5414 0.953 . S
H5395 C5415 0.945 . S
H5396 C5417 0.952 . S
H5397 C5418 0.949 . S
H5398 C5420 0.950 . S
H5399 C5421 0.948 . S
H5400 C5423 0.951 . S
H5401 C5388 0.947 . S
H5402 C5390 0.952 . S
H5403 C5391 0.950 . S
N5404 C5407 1.382 . S
N5404 C5409 1.363 . S
N5405 C5407 1.371 . S
N5405 C5408 1.372 . S
N5406 C5408 1.361 . S
N5406 C5409 1.377 . S
C5407 N5404 1.382 . S
C5407 N5405 1.371 . S
C5407 C5410 1.480 . S
C5408 N5405 1.372 . S
C5408 N5406 1.361 . S
C5408 C5416 1.457 . S
C5409 N5404 1.363 . S
C5409 N5406 1.377 . S
C5409 C5422 1.479 . S
C5410 C5407 1.480 . S
C5410 C5411 1.383 . S
C5410 C5415 1.385 . S
C5411 H5392 0.947 . S
C5411 C5410 1.383 . S
C5411 C5412 1.388 . S
C5412 H5393 0.946 . S
C5412 C5411 1.388 . S
C5412 C5413 1.384 . S
C5413 C5412 1.384 . S
C5413 C5414 1.377 . S
C5414 H5394 0.953 . S
C5414 C5413 1.377 . S
C5414 C5415 1.369 . S
C5415 H5395 0.945 . S
C5415 C5410 1.385 . S
C5415 C5414 1.369 . S
C5416 C5408 1.457 . S
C5416 C5417 1.372 . S
C5416 C5421 1.364 . S
C5417 H5396 0.952 . S
C5417 C5416 1.372 . S
C5417 C5418 1.389 . S
C5418 H5397 0.949 . S
C5418 C5417 1.389 . S
C5418 C5419 1.387 . S
C5419 C5418 1.387 . S
C5419 C5420 1.372 . S
C5420 H5398 0.950 . S
C5420 C5419 1.372 . S
C5420 C5421 1.379 . S
C5421 H5399 0.948 . S
C5421 C5416 1.364 . S
C5421 C5420 1.379 . S
C5422 C5391 1.383 . S
C5422 C5409 1.479 . S
C5422 C5423 1.398 . S
C5423 C5388 1.382 . S
C5423 H5400 0.951 . S
C5423 C5422 1.398 . S
C5424 C5425 1.384 . S
C5424 H5437 0.947 . S
C5424 C5459 1.382 . S
C5425 C5424 1.384 . S
C5425 C5426 1.378 . S
C5426 C5425 1.378 . S
C5426 C5427 1.378 . S
C5426 H5438 0.952 . S
C5427 C5426 1.378 . S
C5427 H5439 0.950 . S
C5427 C5458 1.383 . S
H5428 C5447 0.947 . S
H5429 C5448 0.946 . S
H5430 C5450 0.953 . S
H5431 C5451 0.945 . S
H5432 C5453 0.952 . S
H5433 C5454 0.949 . S
H5434 C5456 0.950 . S
H5435 C5457 0.948 . S
H5436 C5459 0.951 . S
H5437 C5424 0.947 . S
H5438 C5426 0.952 . S
H5439 C5427 0.950 . S
N5440 C5443 1.382 . S
N5440 C5445 1.363 . S
N5441 C5443 1.371 . S
N5441 C5444 1.372 . S
N5442 C5444 1.361 . S
N5442 C5445 1.377 . S
C5443 N5440 1.382 . S
C5443 N5441 1.371 . S
C5443 C5446 1.480 . S
C5444 N5441 1.372 . S
C5444 N5442 1.361 . S
C5444 C5452 1.457 . S
C5445 N5440 1.363 . S
C5445 N5442 1.377 . S
C5445 C5458 1.479 . S
C5446 C5443 1.480 . S
C5446 C5447 1.383 . S
C5446 C5451 1.385 . S
C5447 H5428 0.947 . S
C5447 C5446 1.383 . S
C5447 C5448 1.388 . S
C5448 H5429 0.946 . S
C5448 C5447 1.388 . S
C5448 C5449 1.384 . S
C5449 C5448 1.384 . S
C5449 C5450 1.377 . S
C5450 H5430 0.953 . S
C5450 C5449 1.377 . S
C5450 C5451 1.369 . S
C5451 H5431 0.945 . S
C5451 C5446 1.385 . S
C5451 C5450 1.369 . S
C5452 C5444 1.457 . S
C5452 C5453 1.372 . S
C5452 C5457 1.364 . S
C5453 H5432 0.952 . S
C5453 C5452 1.372 . S
C5453 C5454 1.389 . S
C5454 H5433 0.949 . S
C5454 C5453 1.389 . S
C5454 C5455 1.387 . S
C5455 C5454 1.387 . S
C5455 C5456 1.372 . S
C5456 H5434 0.950 . S
C5456 C5455 1.372 . S
C5456 C5457 1.379 . S
C5457 H5435 0.948 . S
C5457 C5452 1.364 . S
C5457 C5456 1.379 . S
C5458 C5427 1.383 . S
C5458 C5445 1.479 . S
C5458 C5459 1.398 . S
C5459 C5424 1.382 . S
C5459 H5436 0.951 . S
C5459 C5458 1.398 . S
C5460 C5461 1.384 . S
C5460 H5473 0.947 . S
C5460 C5495 1.382 . S
C5461 C5460 1.384 . S
C5461 C5462 1.378 . S
C5462 C5461 1.378 . S
C5462 C5463 1.378 . S
C5462 H5474 0.952 . S
C5463 C5462 1.378 . S
C5463 H5475 0.950 . S
C5463 C5494 1.383 . S
H5464 C5483 0.947 . S
H5465 C5484 0.946 . S
H5466 C5486 0.953 . S
H5467 C5487 0.945 . S
H5468 C5489 0.952 . S
H5469 C5490 0.949 . S
H5470 C5492 0.950 . S
H5471 C5493 0.948 . S
H5472 C5495 0.951 . S
H5473 C5460 0.947 . S
H5474 C5462 0.952 . S
H5475 C5463 0.950 . S
N5476 C5479 1.382 . S
N5476 C5481 1.363 . S
N5477 C5479 1.371 . S
N5477 C5480 1.372 . S
N5478 C5480 1.361 . S
N5478 C5481 1.377 . S
C5479 N5476 1.382 . S
C5479 N5477 1.371 . S
C5479 C5482 1.480 . S
C5480 N5477 1.372 . S
C5480 N5478 1.361 . S
C5480 C5488 1.457 . S
C5481 N5476 1.363 . S
C5481 N5478 1.377 . S
C5481 C5494 1.479 . S
C5482 C5479 1.480 . S
C5482 C5483 1.383 . S
C5482 C5487 1.385 . S
C5483 H5464 0.947 . S
C5483 C5482 1.383 . S
C5483 C5484 1.388 . S
C5484 H5465 0.946 . S
C5484 C5483 1.388 . S
C5484 C5485 1.384 . S
C5485 C5484 1.384 . S
C5485 C5486 1.377 . S
C5486 H5466 0.953 . S
C5486 C5485 1.377 . S
C5486 C5487 1.369 . S
C5487 H5467 0.945 . S
C5487 C5482 1.385 . S
C5487 C5486 1.369 . S
C5488 C5480 1.457 . S
C5488 C5489 1.372 . S
C5488 C5493 1.364 . S
C5489 H5468 0.952 . S
C5489 C5488 1.372 . S
C5489 C5490 1.389 . S
C5490 H5469 0.949 . S
C5490 C5489 1.389 . S
C5490 C5491 1.387 . S
C5491 C5490 1.387 . S
C5491 C5492 1.372 . S
C5492 H5470 0.950 . S
C5492 C5491 1.372 . S
C5492 C5493 1.379 . S
C5493 H5471 0.948 . S
C5493 C5488 1.364 . S
C5493 C5492 1.379 . S
C5494 C5463 1.383 . S
C5494 C5481 1.479 . S
C5494 C5495 1.398 . S
C5495 C5460 1.382 . S
C5495 H5472 0.951 . S
C5495 C5494 1.398 . S
C5496 C5497 1.384 . S
C5496 H5509 0.947 . S
C5496 C5531 1.382 . S
C5497 C5496 1.384 . S
C5497 C5498 1.378 . S
C5498 C5497 1.378 . S
C5498 C5499 1.378 . S
C5498 H5510 0.952 . S
C5499 C5498 1.378 . S
C5499 H5511 0.950 . S
C5499 C5530 1.383 . S
H5500 C5519 0.947 . S
H5501 C5520 0.946 . S
H5502 C5522 0.953 . S
H5503 C5523 0.945 . S
H5504 C5525 0.952 . S
H5505 C5526 0.949 . S
H5506 C5528 0.950 . S
H5507 C5529 0.948 . S
H5508 C5531 0.951 . S
H5509 C5496 0.947 . S
H5510 C5498 0.952 . S
H5511 C5499 0.950 . S
N5512 C5515 1.382 . S
N5512 C5517 1.363 . S
N5513 C5515 1.371 . S
N5513 C5516 1.372 . S
N5514 C5516 1.361 . S
N5514 C5517 1.377 . S
C5515 N5512 1.382 . S
C5515 N5513 1.371 . S
C5515 C5518 1.480 . S
C5516 N5513 1.372 . S
C5516 N5514 1.361 . S
C5516 C5524 1.457 . S
C5517 N5512 1.363 . S
C5517 N5514 1.377 . S
C5517 C5530 1.479 . S
C5518 C5515 1.480 . S
C5518 C5519 1.383 . S
C5518 C5523 1.385 . S
C5519 H5500 0.947 . S
C5519 C5518 1.383 . S
C5519 C5520 1.388 . S
C5520 H5501 0.946 . S
C5520 C5519 1.388 . S
C5520 C5521 1.384 . S
C5521 C5520 1.384 . S
C5521 C5522 1.377 . S
C5522 H5502 0.953 . S
C5522 C5521 1.377 . S
C5522 C5523 1.369 . S
C5523 H5503 0.945 . S
C5523 C5518 1.385 . S
C5523 C5522 1.369 . S
C5524 C5516 1.457 . S
C5524 C5525 1.372 . S
C5524 C5529 1.364 . S
C5525 H5504 0.952 . S
C5525 C5524 1.372 . S
C5525 C5526 1.389 . S
C5526 H5505 0.949 . S
C5526 C5525 1.389 . S
C5526 C5527 1.387 . S
C5527 C5526 1.387 . S
C5527 C5528 1.372 . S
C5528 H5506 0.950 . S
C5528 C5527 1.372 . S
C5528 C5529 1.379 . S
C5529 H5507 0.948 . S
C5529 C5524 1.364 . S
C5529 C5528 1.379 . S
C5530 C5499 1.383 . S
C5530 C5517 1.479 . S
C5530 C5531 1.398 . S
C5531 C5496 1.382 . S
C5531 H5508 0.951 . S
C5531 C5530 1.398 . S
C5532 C5533 1.384 . S
C5532 H5545 0.947 . S
C5532 C5567 1.382 . S
C5533 C5532 1.384 . S
C5533 C5534 1.378 . S
C5534 C5533 1.378 . S
C5534 C5535 1.378 . S
C5534 H5546 0.952 . S
C5535 C5534 1.378 . S
C5535 H5547 0.950 . S
C5535 C5566 1.383 . S
H5536 C5555 0.947 . S
H5537 C5556 0.946 . S
H5538 C5558 0.953 . S
H5539 C5559 0.945 . S
H5540 C5561 0.952 . S
H5541 C5562 0.949 . S
H5542 C5564 0.950 . S
H5543 C5565 0.948 . S
H5544 C5567 0.951 . S
H5545 C5532 0.947 . S
H5546 C5534 0.952 . S
H5547 C5535 0.950 . S
N5548 C5551 1.382 . S
N5548 C5553 1.363 . S
N5549 C5551 1.371 . S
N5549 C5552 1.372 . S
N5550 C5552 1.361 . S
N5550 C5553 1.377 . S
C5551 N5548 1.382 . S
C5551 N5549 1.371 . S
C5551 C5554 1.480 . S
C5552 N5549 1.372 . S
C5552 N5550 1.361 . S
C5552 C5560 1.457 . S
C5553 N5548 1.363 . S
C5553 N5550 1.377 . S
C5553 C5566 1.479 . S
C5554 C5551 1.480 . S
C5554 C5555 1.383 . S
C5554 C5559 1.385 . S
C5555 H5536 0.947 . S
C5555 C5554 1.383 . S
C5555 C5556 1.388 . S
C5556 H5537 0.946 . S
C5556 C5555 1.388 . S
C5556 C5557 1.384 . S
C5557 C5556 1.384 . S
C5557 C5558 1.377 . S
C5558 H5538 0.953 . S
C5558 C5557 1.377 . S
C5558 C5559 1.369 . S
C5559 H5539 0.945 . S
C5559 C5554 1.385 . S
C5559 C5558 1.369 . S
C5560 C5552 1.457 . S
C5560 C5561 1.372 . S
C5560 C5565 1.364 . S
C5561 H5540 0.952 . S
C5561 C5560 1.372 . S
C5561 C5562 1.389 . S
C5562 H5541 0.949 . S
C5562 C5561 1.389 . S
C5562 C5563 1.387 . S
C5563 C5562 1.387 . S
C5563 C5564 1.372 . S
C5564 H5542 0.950 . S
C5564 C5563 1.372 . S
C5564 C5565 1.379 . S
C5565 H5543 0.948 . S
C5565 C5560 1.364 . S
C5565 C5564 1.379 . S
C5566 C5535 1.383 . S
C5566 C5553 1.479 . S
C5566 C5567 1.398 . S
C5567 C5532 1.382 . S
C5567 H5544 0.951 . S
C5567 C5566 1.398 . S
C5568 C5569 1.384 . S
C5568 H5581 0.947 . S
C5568 C5603 1.382 . S
C5569 C5568 1.384 . S
C5569 C5570 1.378 . S
C5570 C5569 1.378 . S
C5570 C5571 1.378 . S
C5570 H5582 0.952 . S
C5571 C5570 1.378 . S
C5571 H5583 0.950 . S
C5571 C5602 1.383 . S
H5572 C5591 0.947 . S
H5573 C5592 0.946 . S
H5574 C5594 0.953 . S
H5575 C5595 0.945 . S
H5576 C5597 0.952 . S
H5577 C5598 0.949 . S
H5578 C5600 0.950 . S
H5579 C5601 0.948 . S
H5580 C5603 0.951 . S
H5581 C5568 0.947 . S
H5582 C5570 0.952 . S
H5583 C5571 0.950 . S
N5584 C5587 1.382 . S
N5584 C5589 1.363 . S
N5585 C5587 1.371 . S
N5585 C5588 1.372 . S
N5586 C5588 1.361 . S
N5586 C5589 1.377 . S
C5587 N5584 1.382 . S
C5587 N5585 1.371 . S
C5587 C5590 1.480 . S
C5588 N5585 1.372 . S
C5588 N5586 1.361 . S
C5588 C5596 1.457 . S
C5589 N5584 1.363 . S
C5589 N5586 1.377 . S
C5589 C5602 1.479 . S
C5590 C5587 1.480 . S
C5590 C5591 1.383 . S
C5590 C5595 1.385 . S
C5591 H5572 0.947 . S
C5591 C5590 1.383 . S
C5591 C5592 1.388 . S
C5592 H5573 0.946 . S
C5592 C5591 1.388 . S
C5592 C5593 1.384 . S
C5593 C5592 1.384 . S
C5593 C5594 1.377 . S
C5594 H5574 0.953 . S
C5594 C5593 1.377 . S
C5594 C5595 1.369 . S
C5595 H5575 0.945 . S
C5595 C5590 1.385 . S
C5595 C5594 1.369 . S
C5596 C5588 1.457 . S
C5596 C5597 1.372 . S
C5596 C5601 1.364 . S
C5597 H5576 0.952 . S
C5597 C5596 1.372 . S
C5597 C5598 1.389 . S
C5598 H5577 0.949 . S
C5598 C5597 1.389 . S
C5598 C5599 1.387 . S
C5599 C5598 1.387 . S
C5599 C5600 1.372 . S
C5600 H5578 0.950 . S
C5600 C5599 1.372 . S
C5600 C5601 1.379 . S
C5601 H5579 0.948 . S
C5601 C5596 1.364 . S
C5601 C5600 1.379 . S
C5602 C5571 1.383 . S
C5602 C5589 1.479 . S
C5602 C5603 1.398 . S
C5603 C5568 1.382 . S
C5603 H5580 0.951 . S
C5603 C5602 1.398 . S
C5604 C5605 1.384 . S
C5604 H5617 0.947 . S
C5604 C5639 1.382 . S
C5605 C5604 1.384 . S
C5605 C5606 1.378 . S
C5606 C5605 1.378 . S
C5606 C5607 1.378 . S
C5606 H5618 0.952 . S
C5607 C5606 1.378 . S
C5607 H5619 0.950 . S
C5607 C5638 1.383 . S
H5608 C5627 0.947 . S
H5609 C5628 0.946 . S
H5610 C5630 0.953 . S
H5611 C5631 0.945 . S
H5612 C5633 0.952 . S
H5613 C5634 0.949 . S
H5614 C5636 0.950 . S
H5615 C5637 0.948 . S
H5616 C5639 0.951 . S
H5617 C5604 0.947 . S
H5618 C5606 0.952 . S
H5619 C5607 0.950 . S
N5620 C5623 1.382 . S
N5620 C5625 1.363 . S
N5621 C5623 1.371 . S
N5621 C5624 1.372 . S
N5622 C5624 1.361 . S
N5622 C5625 1.377 . S
C5623 N5620 1.382 . S
C5623 N5621 1.371 . S
C5623 C5626 1.480 . S
C5624 N5621 1.372 . S
C5624 N5622 1.361 . S
C5624 C5632 1.457 . S
C5625 N5620 1.363 . S
C5625 N5622 1.377 . S
C5625 C5638 1.479 . S
C5626 C5623 1.480 . S
C5626 C5627 1.383 . S
C5626 C5631 1.385 . S
C5627 H5608 0.947 . S
C5627 C5626 1.383 . S
C5627 C5628 1.388 . S
C5628 H5609 0.946 . S
C5628 C5627 1.388 . S
C5628 C5629 1.384 . S
C5629 C5628 1.384 . S
C5629 C5630 1.377 . S
C5630 H5610 0.953 . S
C5630 C5629 1.377 . S
C5630 C5631 1.369 . S
C5631 H5611 0.945 . S
C5631 C5626 1.385 . S
C5631 C5630 1.369 . S
C5632 C5624 1.457 . S
C5632 C5633 1.372 . S
C5632 C5637 1.364 . S
C5633 H5612 0.952 . S
C5633 C5632 1.372 . S
C5633 C5634 1.389 . S
C5634 H5613 0.949 . S
C5634 C5633 1.389 . S
C5634 C5635 1.387 . S
C5635 C5634 1.387 . S
C5635 C5636 1.372 . S
C5636 H5614 0.950 . S
C5636 C5635 1.372 . S
C5636 C5637 1.379 . S
C5637 H5615 0.948 . S
C5637 C5632 1.364 . S
C5637 C5636 1.379 . S
C5638 C5607 1.383 . S
C5638 C5625 1.479 . S
C5638 C5639 1.398 . S
C5639 C5604 1.382 . S
C5639 H5616 0.951 . S
C5639 C5638 1.398 . S
C5640 C5641 1.384 . S
C5640 H5653 0.947 . S
C5640 C5675 1.382 . S
C5641 C5640 1.384 . S
C5641 C5642 1.378 . S
C5642 C5641 1.378 . S
C5642 C5643 1.378 . S
C5642 H5654 0.952 . S
C5643 C5642 1.378 . S
C5643 H5655 0.950 . S
C5643 C5674 1.383 . S
H5644 C5663 0.947 . S
H5645 C5664 0.946 . S
H5646 C5666 0.953 . S
H5647 C5667 0.945 . S
H5648 C5669 0.952 . S
H5649 C5670 0.949 . S
H5650 C5672 0.950 . S
H5651 C5673 0.948 . S
H5652 C5675 0.951 . S
H5653 C5640 0.947 . S
H5654 C5642 0.952 . S
H5655 C5643 0.950 . S
N5656 C5659 1.382 . S
N5656 C5661 1.363 . S
N5657 C5659 1.371 . S
N5657 C5660 1.372 . S
N5658 C5660 1.361 . S
N5658 C5661 1.377 . S
C5659 N5656 1.382 . S
C5659 N5657 1.371 . S
C5659 C5662 1.480 . S
C5660 N5657 1.372 . S
C5660 N5658 1.361 . S
C5660 C5668 1.457 . S
C5661 N5656 1.363 . S
C5661 N5658 1.377 . S
C5661 C5674 1.479 . S
C5662 C5659 1.480 . S
C5662 C5663 1.383 . S
C5662 C5667 1.385 . S
C5663 H5644 0.947 . S
C5663 C5662 1.383 . S
C5663 C5664 1.388 . S
C5664 H5645 0.946 . S
C5664 C5663 1.388 . S
C5664 C5665 1.384 . S
C5665 C5664 1.384 . S
C5665 C5666 1.377 . S
C5666 H5646 0.953 . S
C5666 C5665 1.377 . S
C5666 C5667 1.369 . S
C5667 H5647 0.945 . S
C5667 C5662 1.385 . S
C5667 C5666 1.369 . S
C5668 C5660 1.457 . S
C5668 C5669 1.372 . S
C5668 C5673 1.364 . S
C5669 H5648 0.952 . S
C5669 C5668 1.372 . S
C5669 C5670 1.389 . S
C5670 H5649 0.949 . S
C5670 C5669 1.389 . S
C5670 C5671 1.387 . S
C5671 C5670 1.387 . S
C5671 C5672 1.372 . S
C5672 H5650 0.950 . S
C5672 C5671 1.372 . S
C5672 C5673 1.379 . S
C5673 H5651 0.948 . S
C5673 C5668 1.364 . S
C5673 C5672 1.379 . S
C5674 C5643 1.383 . S
C5674 C5661 1.479 . S
C5674 C5675 1.398 . S
C5675 C5640 1.382 . S
C5675 H5652 0.951 . S
C5675 C5674 1.398 . S
C5676 C5677 1.384 . S
C5676 H5689 0.947 . S
C5676 C5711 1.382 . S
C5677 C5676 1.384 . S
C5677 C5678 1.378 . S
C5678 C5677 1.378 . S
C5678 C5679 1.378 . S
C5678 H5690 0.952 . S
C5679 C5678 1.378 . S
C5679 H5691 0.950 . S
C5679 C5710 1.383 . S
H5680 C5699 0.947 . S
H5681 C5700 0.946 . S
H5682 C5702 0.953 . S
H5683 C5703 0.945 . S
H5684 C5705 0.952 . S
H5685 C5706 0.949 . S
H5686 C5708 0.950 . S
H5687 C5709 0.948 . S
H5688 C5711 0.951 . S
H5689 C5676 0.947 . S
H5690 C5678 0.952 . S
H5691 C5679 0.950 . S
N5692 C5695 1.382 . S
N5692 C5697 1.363 . S
N5693 C5695 1.371 . S
N5693 C5696 1.372 . S
N5694 C5696 1.361 . S
N5694 C5697 1.377 . S
C5695 N5692 1.382 . S
C5695 N5693 1.371 . S
C5695 C5698 1.480 . S
C5696 N5693 1.372 . S
C5696 N5694 1.361 . S
C5696 C5704 1.457 . S
C5697 N5692 1.363 . S
C5697 N5694 1.377 . S
C5697 C5710 1.479 . S
C5698 C5695 1.480 . S
C5698 C5699 1.383 . S
C5698 C5703 1.385 . S
C5699 H5680 0.947 . S
C5699 C5698 1.383 . S
C5699 C5700 1.388 . S
C5700 H5681 0.946 . S
C5700 C5699 1.388 . S
C5700 C5701 1.384 . S
C5701 C5700 1.384 . S
C5701 C5702 1.377 . S
C5702 H5682 0.953 . S
C5702 C5701 1.377 . S
C5702 C5703 1.369 . S
C5703 H5683 0.945 . S
C5703 C5698 1.385 . S
C5703 C5702 1.369 . S
C5704 C5696 1.457 . S
C5704 C5705 1.372 . S
C5704 C5709 1.364 . S
C5705 H5684 0.952 . S
C5705 C5704 1.372 . S
C5705 C5706 1.389 . S
C5706 H5685 0.949 . S
C5706 C5705 1.389 . S
C5706 C5707 1.387 . S
C5707 C5706 1.387 . S
C5707 C5708 1.372 . S
C5708 H5686 0.950 . S
C5708 C5707 1.372 . S
C5708 C5709 1.379 . S
C5709 H5687 0.948 . S
C5709 C5704 1.364 . S
C5709 C5708 1.379 . S
C5710 C5679 1.383 . S
C5710 C5697 1.479 . S
C5710 C5711 1.398 . S
C5711 C5676 1.382 . S
C5711 H5688 0.951 . S
C5711 C5710 1.398 . S
C5712 C5713 1.384 . S
C5712 H5725 0.947 . S
C5712 C5747 1.382 . S
C5713 C5712 1.384 . S
C5713 C5714 1.378 . S
C5714 C5713 1.378 . S
C5714 C5715 1.378 . S
C5714 H5726 0.952 . S
C5715 C5714 1.378 . S
C5715 H5727 0.950 . S
C5715 C5746 1.383 . S
H5716 C5735 0.947 . S
H5717 C5736 0.946 . S
H5718 C5738 0.953 . S
H5719 C5739 0.945 . S
H5720 C5741 0.952 . S
H5721 C5742 0.949 . S
H5722 C5744 0.950 . S
H5723 C5745 0.948 . S
H5724 C5747 0.951 . S
H5725 C5712 0.947 . S
H5726 C5714 0.952 . S
H5727 C5715 0.950 . S
N5728 C5731 1.382 . S
N5728 C5733 1.363 . S
N5729 C5731 1.371 . S
N5729 C5732 1.372 . S
N5730 C5732 1.361 . S
N5730 C5733 1.377 . S
C5731 N5728 1.382 . S
C5731 N5729 1.371 . S
C5731 C5734 1.480 . S
C5732 N5729 1.372 . S
C5732 N5730 1.361 . S
C5732 C5740 1.457 . S
C5733 N5728 1.363 . S
C5733 N5730 1.377 . S
C5733 C5746 1.479 . S
C5734 C5731 1.480 . S
C5734 C5735 1.383 . S
C5734 C5739 1.385 . S
C5735 H5716 0.947 . S
C5735 C5734 1.383 . S
C5735 C5736 1.388 . S
C5736 H5717 0.946 . S
C5736 C5735 1.388 . S
C5736 C5737 1.384 . S
C5737 C5736 1.384 . S
C5737 C5738 1.377 . S
C5738 H5718 0.953 . S
C5738 C5737 1.377 . S
C5738 C5739 1.369 . S
C5739 H5719 0.945 . S
C5739 C5734 1.385 . S
C5739 C5738 1.369 . S
C5740 C5732 1.457 . S
C5740 C5741 1.372 . S
C5740 C5745 1.364 . S
C5741 H5720 0.952 . S
C5741 C5740 1.372 . S
C5741 C5742 1.389 . S
C5742 H5721 0.949 . S
C5742 C5741 1.389 . S
C5742 C5743 1.387 . S
C5743 C5742 1.387 . S
C5743 C5744 1.372 . S
C5744 H5722 0.950 . S
C5744 C5743 1.372 . S
C5744 C5745 1.379 . S
C5745 H5723 0.948 . S
C5745 C5740 1.364 . S
C5745 C5744 1.379 . S
C5746 C5715 1.383 . S
C5746 C5733 1.479 . S
C5746 C5747 1.398 . S
C5747 C5712 1.382 . S
C5747 H5724 0.951 . S
C5747 C5746 1.398 . S
C5748 C5749 1.384 . S
C5748 H5761 0.947 . S
C5748 C5783 1.382 . S
C5749 C5748 1.384 . S
C5749 C5750 1.378 . S
C5750 C5749 1.378 . S
C5750 C5751 1.378 . S
C5750 H5762 0.952 . S
C5751 C5750 1.378 . S
C5751 H5763 0.950 . S
C5751 C5782 1.383 . S
H5752 C5771 0.947 . S
H5753 C5772 0.946 . S
H5754 C5774 0.953 . S
H5755 C5775 0.945 . S
H5756 C5777 0.952 . S
H5757 C5778 0.949 . S
H5758 C5780 0.950 . S
H5759 C5781 0.948 . S
H5760 C5783 0.951 . S
H5761 C5748 0.947 . S
H5762 C5750 0.952 . S
H5763 C5751 0.950 . S
N5764 C5767 1.382 . S
N5764 C5769 1.363 . S
N5765 C5767 1.371 . S
N5765 C5768 1.372 . S
N5766 C5768 1.361 . S
N5766 C5769 1.377 . S
C5767 N5764 1.382 . S
C5767 N5765 1.371 . S
C5767 C5770 1.480 . S
C5768 N5765 1.372 . S
C5768 N5766 1.361 . S
C5768 C5776 1.457 . S
C5769 N5764 1.363 . S
C5769 N5766 1.377 . S
C5769 C5782 1.479 . S
C5770 C5767 1.480 . S
C5770 C5771 1.383 . S
C5770 C5775 1.385 . S
C5771 H5752 0.947 . S
C5771 C5770 1.383 . S
C5771 C5772 1.388 . S
C5772 H5753 0.946 . S
C5772 C5771 1.388 . S
C5772 C5773 1.384 . S
C5773 C5772 1.384 . S
C5773 C5774 1.377 . S
C5774 H5754 0.953 . S
C5774 C5773 1.377 . S
C5774 C5775 1.369 . S
C5775 H5755 0.945 . S
C5775 C5770 1.385 . S
C5775 C5774 1.369 . S
C5776 C5768 1.457 . S
C5776 C5777 1.372 . S
C5776 C5781 1.364 . S
C5777 H5756 0.952 . S
C5777 C5776 1.372 . S
C5777 C5778 1.389 . S
C5778 H5757 0.949 . S
C5778 C5777 1.389 . S
C5778 C5779 1.387 . S
C5779 C5778 1.387 . S
C5779 C5780 1.372 . S
C5780 H5758 0.950 . S
C5780 C5779 1.372 . S
C5780 C5781 1.379 . S
C5781 H5759 0.948 . S
C5781 C5776 1.364 . S
C5781 C5780 1.379 . S
C5782 C5751 1.383 . S
C5782 C5769 1.479 . S
C5782 C5783 1.398 . S
C5783 C5748 1.382 . S
C5783 H5760 0.951 . S
C5783 C5782 1.398 . S
C5784 C5785 1.384 . S
C5784 H5797 0.947 . S
C5784 C5819 1.382 . S
C5785 C5784 1.384 . S
C5785 C5786 1.378 . S
C5786 C5785 1.378 . S
C5786 C5787 1.378 . S
C5786 H5798 0.952 . S
C5787 C5786 1.378 . S
C5787 H5799 0.950 . S
C5787 C5818 1.383 . S
H5788 C5807 0.947 . S
H5789 C5808 0.946 . S
H5790 C5810 0.953 . S
H5791 C5811 0.945 . S
H5792 C5813 0.952 . S
H5793 C5814 0.949 . S
H5794 C5816 0.950 . S
H5795 C5817 0.948 . S
H5796 C5819 0.951 . S
H5797 C5784 0.947 . S
H5798 C5786 0.952 . S
H5799 C5787 0.950 . S
N5800 C5803 1.382 . S
N5800 C5805 1.363 . S
N5801 C5803 1.371 . S
N5801 C5804 1.372 . S
N5802 C5804 1.361 . S
N5802 C5805 1.377 . S
C5803 N5800 1.382 . S
C5803 N5801 1.371 . S
C5803 C5806 1.480 . S
C5804 N5801 1.372 . S
C5804 N5802 1.361 . S
C5804 C5812 1.457 . S
C5805 N5800 1.363 . S
C5805 N5802 1.377 . S
C5805 C5818 1.479 . S
C5806 C5803 1.480 . S
C5806 C5807 1.383 . S
C5806 C5811 1.385 . S
C5807 H5788 0.947 . S
C5807 C5806 1.383 . S
C5807 C5808 1.388 . S
C5808 H5789 0.946 . S
C5808 C5807 1.388 . S
C5808 C5809 1.384 . S
C5809 C5808 1.384 . S
C5809 C5810 1.377 . S
C5810 H5790 0.953 . S
C5810 C5809 1.377 . S
C5810 C5811 1.369 . S
C5811 H5791 0.945 . S
C5811 C5806 1.385 . S
C5811 C5810 1.369 . S
C5812 C5804 1.457 . S
C5812 C5813 1.372 . S
C5812 C5817 1.364 . S
C5813 H5792 0.952 . S
C5813 C5812 1.372 . S
C5813 C5814 1.389 . S
C5814 H5793 0.949 . S
C5814 C5813 1.389 . S
C5814 C5815 1.387 . S
C5815 C5814 1.387 . S
C5815 C5816 1.372 . S
C5816 H5794 0.950 . S
C5816 C5815 1.372 . S
C5816 C5817 1.379 . S
C5817 H5795 0.948 . S
C5817 C5812 1.364 . S
C5817 C5816 1.379 . S
C5818 C5787 1.383 . S
C5818 C5805 1.479 . S
C5818 C5819 1.398 . S
C5819 C5784 1.382 . S
C5819 H5796 0.951 . S
C5819 C5818 1.398 . S
C5820 C5821 1.384 . S
C5820 H5833 0.947 . S
C5820 C5855 1.382 . S
C5821 C5820 1.384 . S
C5821 C5822 1.378 . S
C5822 C5821 1.378 . S
C5822 C5823 1.378 . S
C5822 H5834 0.952 . S
C5823 C5822 1.378 . S
C5823 H5835 0.950 . S
C5823 C5854 1.383 . S
H5824 C5843 0.947 . S
H5825 C5844 0.946 . S
H5826 C5846 0.953 . S
H5827 C5847 0.945 . S
H5828 C5849 0.952 . S
H5829 C5850 0.949 . S
H5830 C5852 0.950 . S
H5831 C5853 0.948 . S
H5832 C5855 0.951 . S
H5833 C5820 0.947 . S
H5834 C5822 0.952 . S
H5835 C5823 0.950 . S
N5836 C5839 1.382 . S
N5836 C5841 1.363 . S
N5837 C5839 1.371 . S
N5837 C5840 1.372 . S
N5838 C5840 1.361 . S
N5838 C5841 1.377 . S
C5839 N5836 1.382 . S
C5839 N5837 1.371 . S
C5839 C5842 1.480 . S
C5840 N5837 1.372 . S
C5840 N5838 1.361 . S
C5840 C5848 1.457 . S
C5841 N5836 1.363 . S
C5841 N5838 1.377 . S
C5841 C5854 1.479 . S
C5842 C5839 1.480 . S
C5842 C5843 1.383 . S
C5842 C5847 1.385 . S
C5843 H5824 0.947 . S
C5843 C5842 1.383 . S
C5843 C5844 1.388 . S
C5844 H5825 0.946 . S
C5844 C5843 1.388 . S
C5844 C5845 1.384 . S
C5845 C5844 1.384 . S
C5845 C5846 1.377 . S
C5846 H5826 0.953 . S
C5846 C5845 1.377 . S
C5846 C5847 1.369 . S
C5847 H5827 0.945 . S
C5847 C5842 1.385 . S
C5847 C5846 1.369 . S
C5848 C5840 1.457 . S
C5848 C5849 1.372 . S
C5848 C5853 1.364 . S
C5849 H5828 0.952 . S
C5849 C5848 1.372 . S
C5849 C5850 1.389 . S
C5850 H5829 0.949 . S
C5850 C5849 1.389 . S
C5850 C5851 1.387 . S
C5851 C5850 1.387 . S
C5851 C5852 1.372 . S
C5852 H5830 0.950 . S
C5852 C5851 1.372 . S
C5852 C5853 1.379 . S
C5853 H5831 0.948 . S
C5853 C5848 1.364 . S
C5853 C5852 1.379 . S
C5854 C5823 1.383 . S
C5854 C5841 1.479 . S
C5854 C5855 1.398 . S
C5855 C5820 1.382 . S
C5855 H5832 0.951 . S
C5855 C5854 1.398 . S
C5856 C5857 1.384 . S
C5856 H5869 0.947 . S
C5856 C5891 1.382 . S
C5857 C5856 1.384 . S
C5857 C5858 1.378 . S
C5858 C5857 1.378 . S
C5858 C5859 1.378 . S
C5858 H5870 0.952 . S
C5859 C5858 1.378 . S
C5859 H5871 0.950 . S
C5859 C5890 1.383 . S
H5860 C5879 0.947 . S
H5861 C5880 0.946 . S
H5862 C5882 0.953 . S
H5863 C5883 0.945 . S
H5864 C5885 0.952 . S
H5865 C5886 0.949 . S
H5866 C5888 0.950 . S
H5867 C5889 0.948 . S
H5868 C5891 0.951 . S
H5869 C5856 0.947 . S
H5870 C5858 0.952 . S
H5871 C5859 0.950 . S
N5872 C5875 1.382 . S
N5872 C5877 1.363 . S
N5873 C5875 1.371 . S
N5873 C5876 1.372 . S
N5874 C5876 1.361 . S
N5874 C5877 1.377 . S
C5875 N5872 1.382 . S
C5875 N5873 1.371 . S
C5875 C5878 1.480 . S
C5876 N5873 1.372 . S
C5876 N5874 1.361 . S
C5876 C5884 1.457 . S
C5877 N5872 1.363 . S
C5877 N5874 1.377 . S
C5877 C5890 1.479 . S
C5878 C5875 1.480 . S
C5878 C5879 1.383 . S
C5878 C5883 1.385 . S
C5879 H5860 0.947 . S
C5879 C5878 1.383 . S
C5879 C5880 1.388 . S
C5880 H5861 0.946 . S
C5880 C5879 1.388 . S
C5880 C5881 1.384 . S
C5881 C5880 1.384 . S
C5881 C5882 1.377 . S
C5882 H5862 0.953 . S
C5882 C5881 1.377 . S
C5882 C5883 1.369 . S
C5883 H5863 0.945 . S
C5883 C5878 1.385 . S
C5883 C5882 1.369 . S
C5884 C5876 1.457 . S
C5884 C5885 1.372 . S
C5884 C5889 1.364 . S
C5885 H5864 0.952 . S
C5885 C5884 1.372 . S
C5885 C5886 1.389 . S
C5886 H5865 0.949 . S
C5886 C5885 1.389 . S
C5886 C5887 1.387 . S
C5887 C5886 1.387 . S
C5887 C5888 1.372 . S
C5888 H5866 0.950 . S
C5888 C5887 1.372 . S
C5888 C5889 1.379 . S
C5889 H5867 0.948 . S
C5889 C5884 1.364 . S
C5889 C5888 1.379 . S
C5890 C5859 1.383 . S
C5890 C5877 1.479 . S
C5890 C5891 1.398 . S
C5891 C5856 1.382 . S
C5891 H5868 0.951 . S
C5891 C5890 1.398 . S
C5892 C5893 1.384 . S
C5892 H5905 0.947 . S
C5892 C5927 1.382 . S
C5893 C5892 1.384 . S
C5893 C5894 1.378 . S
C5894 C5893 1.378 . S
C5894 C5895 1.378 . S
C5894 H5906 0.952 . S
C5895 C5894 1.378 . S
C5895 H5907 0.950 . S
C5895 C5926 1.383 . S
H5896 C5915 0.947 . S
H5897 C5916 0.946 . S
H5898 C5918 0.953 . S
H5899 C5919 0.945 . S
H5900 C5921 0.952 . S
H5901 C5922 0.949 . S
H5902 C5924 0.950 . S
H5903 C5925 0.948 . S
H5904 C5927 0.951 . S
H5905 C5892 0.947 . S
H5906 C5894 0.952 . S
H5907 C5895 0.950 . S
N5908 C5911 1.382 . S
N5908 C5913 1.363 . S
N5909 C5911 1.371 . S
N5909 C5912 1.372 . S
N5910 C5912 1.361 . S
N5910 C5913 1.377 . S
C5911 N5908 1.382 . S
C5911 N5909 1.371 . S
C5911 C5914 1.480 . S
C5912 N5909 1.372 . S
C5912 N5910 1.361 . S
C5912 C5920 1.457 . S
C5913 N5908 1.363 . S
C5913 N5910 1.377 . S
C5913 C5926 1.479 . S
C5914 C5911 1.480 . S
C5914 C5915 1.383 . S
C5914 C5919 1.385 . S
C5915 H5896 0.947 . S
C5915 C5914 1.383 . S
C5915 C5916 1.388 . S
C5916 H5897 0.946 . S
C5916 C5915 1.388 . S
C5916 C5917 1.384 . S
C5917 C5916 1.384 . S
C5917 C5918 1.377 . S
C5918 H5898 0.953 . S
C5918 C5917 1.377 . S
C5918 C5919 1.369 . S
C5919 H5899 0.945 . S
C5919 C5914 1.385 . S
C5919 C5918 1.369 . S
C5920 C5912 1.457 . S
C5920 C5921 1.372 . S
C5920 C5925 1.364 . S
C5921 H5900 0.952 . S
C5921 C5920 1.372 . S
C5921 C5922 1.389 . S
C5922 H5901 0.949 . S
C5922 C5921 1.389 . S
C5922 C5923 1.387 . S
C5923 C5922 1.387 . S
C5923 C5924 1.372 . S
C5924 H5902 0.950 . S
C5924 C5923 1.372 . S
C5924 C5925 1.379 . S
C5925 H5903 0.948 . S
C5925 C5920 1.364 . S
C5925 C5924 1.379 . S
C5926 C5895 1.383 . S
C5926 C5913 1.479 . S
C5926 C5927 1.398 . S
C5927 C5892 1.382 . S
C5927 H5904 0.951 . S
C5927 C5926 1.398 . S
C5928 C5929 1.384 . S
C5928 H5941 0.947 . S
C5928 C5963 1.382 . S
C5929 C5928 1.384 . S
C5929 C5930 1.378 . S
C5930 C5929 1.378 . S
C5930 C5931 1.378 . S
C5930 H5942 0.952 . S
C5931 C5930 1.378 . S
C5931 H5943 0.950 . S
C5931 C5962 1.383 . S
H5932 C5951 0.947 . S
H5933 C5952 0.946 . S
H5934 C5954 0.953 . S
H5935 C5955 0.945 . S
H5936 C5957 0.952 . S
H5937 C5958 0.949 . S
H5938 C5960 0.950 . S
H5939 C5961 0.948 . S
H5940 C5963 0.951 . S
H5941 C5928 0.947 . S
H5942 C5930 0.952 . S
H5943 C5931 0.950 . S
N5944 C5947 1.382 . S
N5944 C5949 1.363 . S
N5945 C5947 1.371 . S
N5945 C5948 1.372 . S
N5946 C5948 1.361 . S
N5946 C5949 1.377 . S
C5947 N5944 1.382 . S
C5947 N5945 1.371 . S
C5947 C5950 1.480 . S
C5948 N5945 1.372 . S
C5948 N5946 1.361 . S
C5948 C5956 1.457 . S
C5949 N5944 1.363 . S
C5949 N5946 1.377 . S
C5949 C5962 1.479 . S
C5950 C5947 1.480 . S
C5950 C5951 1.383 . S
C5950 C5955 1.385 . S
C5951 H5932 0.947 . S
C5951 C5950 1.383 . S
C5951 C5952 1.388 . S
C5952 H5933 0.946 . S
C5952 C5951 1.388 . S
C5952 C5953 1.384 . S
C5953 C5952 1.384 . S
C5953 C5954 1.377 . S
C5954 H5934 0.953 . S
C5954 C5953 1.377 . S
C5954 C5955 1.369 . S
C5955 H5935 0.945 . S
C5955 C5950 1.385 . S
C5955 C5954 1.369 . S
C5956 C5948 1.457 . S
C5956 C5957 1.372 . S
C5956 C5961 1.364 . S
C5957 H5936 0.952 . S
C5957 C5956 1.372 . S
C5957 C5958 1.389 . S
C5958 H5937 0.949 . S
C5958 C5957 1.389 . S
C5958 C5959 1.387 . S
C5959 C5958 1.387 . S
C5959 C5960 1.372 . S
C5960 H5938 0.950 . S
C5960 C5959 1.372 . S
C5960 C5961 1.379 . S
C5961 H5939 0.948 . S
C5961 C5956 1.364 . S
C5961 C5960 1.379 . S
C5962 C5931 1.383 . S
C5962 C5949 1.479 . S
C5962 C5963 1.398 . S
C5963 C5928 1.382 . S
C5963 H5940 0.951 . S
C5963 C5962 1.398 . S
C5964 C5965 1.384 . S
C5964 H5977 0.947 . S
C5964 C5999 1.382 . S
C5965 C5964 1.384 . S
C5965 C5966 1.378 . S
C5966 C5965 1.378 . S
C5966 C5967 1.378 . S
C5966 H5978 0.952 . S
C5967 C5966 1.378 . S
C5967 H5979 0.950 . S
C5967 C5998 1.383 . S
H5968 C5987 0.947 . S
H5969 C5988 0.946 . S
H5970 C5990 0.953 . S
H5971 C5991 0.945 . S
H5972 C5993 0.952 . S
H5973 C5994 0.949 . S
H5974 C5996 0.950 . S
H5975 C5997 0.948 . S
H5976 C5999 0.951 . S
H5977 C5964 0.947 . S
H5978 C5966 0.952 . S
H5979 C5967 0.950 . S
N5980 C5983 1.382 . S
N5980 C5985 1.363 . S
N5981 C5983 1.371 . S
N5981 C5984 1.372 . S
N5982 C5984 1.361 . S
N5982 C5985 1.377 . S
C5983 N5980 1.382 . S
C5983 N5981 1.371 . S
C5983 C5986 1.480 . S
C5984 N5981 1.372 . S
C5984 N5982 1.361 . S
C5984 C5992 1.457 . S
C5985 N5980 1.363 . S
C5985 N5982 1.377 . S
C5985 C5998 1.479 . S
C5986 C5983 1.480 . S
C5986 C5987 1.383 . S
C5986 C5991 1.385 . S
C5987 H5968 0.947 . S
C5987 C5986 1.383 . S
C5987 C5988 1.388 . S
C5988 H5969 0.946 . S
C5988 C5987 1.388 . S
C5988 C5989 1.384 . S
C5989 C5988 1.384 . S
C5989 C5990 1.377 . S
C5990 H5970 0.953 . S
C5990 C5989 1.377 . S
C5990 C5991 1.369 . S
C5991 H5971 0.945 . S
C5991 C5986 1.385 . S
C5991 C5990 1.369 . S
C5992 C5984 1.457 . S
C5992 C5993 1.372 . S
C5992 C5997 1.364 . S
C5993 H5972 0.952 . S
C5993 C5992 1.372 . S
C5993 C5994 1.389 . S
C5994 H5973 0.949 . S
C5994 C5993 1.389 . S
C5994 C5995 1.387 . S
C5995 C5994 1.387 . S
C5995 C5996 1.372 . S
C5996 H5974 0.950 . S
C5996 C5995 1.372 . S
C5996 C5997 1.379 . S
C5997 H5975 0.948 . S
C5997 C5992 1.364 . S
C5997 C5996 1.379 . S
C5998 C5967 1.383 . S
C5998 C5985 1.479 . S
C5998 C5999 1.398 . S
C5999 C5964 1.382 . S
C5999 H5976 0.951 . S
C5999 C5998 1.398 . S
C6000 C6001 1.384 . S
C6000 H6013 0.947 . S
C6000 C6035 1.382 . S
C6001 C6000 1.384 . S
C6001 C6002 1.378 . S
C6002 C6001 1.378 . S
C6002 C6003 1.378 . S
C6002 H6014 0.952 . S
C6003 C6002 1.378 . S
C6003 H6015 0.950 . S
C6003 C6034 1.383 . S
H6004 C6023 0.947 . S
H6005 C6024 0.946 . S
H6006 C6026 0.953 . S
H6007 C6027 0.945 . S
H6008 C6029 0.952 . S
H6009 C6030 0.949 . S
H6010 C6032 0.950 . S
H6011 C6033 0.948 . S
H6012 C6035 0.951 . S
H6013 C6000 0.947 . S
H6014 C6002 0.952 . S
H6015 C6003 0.950 . S
N6016 C6019 1.382 . S
N6016 C6021 1.363 . S
N6017 C6019 1.371 . S
N6017 C6020 1.372 . S
N6018 C6020 1.361 . S
N6018 C6021 1.377 . S
C6019 N6016 1.382 . S
C6019 N6017 1.371 . S
C6019 C6022 1.480 . S
C6020 N6017 1.372 . S
C6020 N6018 1.361 . S
C6020 C6028 1.457 . S
C6021 N6016 1.363 . S
C6021 N6018 1.377 . S
C6021 C6034 1.479 . S
C6022 C6019 1.480 . S
C6022 C6023 1.383 . S
C6022 C6027 1.385 . S
C6023 H6004 0.947 . S
C6023 C6022 1.383 . S
C6023 C6024 1.388 . S
C6024 H6005 0.946 . S
C6024 C6023 1.388 . S
C6024 C6025 1.384 . S
C6025 C6024 1.384 . S
C6025 C6026 1.377 . S
C6026 H6006 0.953 . S
C6026 C6025 1.377 . S
C6026 C6027 1.369 . S
C6027 H6007 0.945 . S
C6027 C6022 1.385 . S
C6027 C6026 1.369 . S
C6028 C6020 1.457 . S
C6028 C6029 1.372 . S
C6028 C6033 1.364 . S
C6029 H6008 0.952 . S
C6029 C6028 1.372 . S
C6029 C6030 1.389 . S
C6030 H6009 0.949 . S
C6030 C6029 1.389 . S
C6030 C6031 1.387 . S
C6031 C6030 1.387 . S
C6031 C6032 1.372 . S
C6032 H6010 0.950 . S
C6032 C6031 1.372 . S
C6032 C6033 1.379 . S
C6033 H6011 0.948 . S
C6033 C6028 1.364 . S
C6033 C6032 1.379 . S
C6034 C6003 1.383 . S
C6034 C6021 1.479 . S
C6034 C6035 1.398 . S
C6035 C6000 1.382 . S
C6035 H6012 0.951 . S
C6035 C6034 1.398 . S
C6036 C6037 1.384 . S
C6036 H6049 0.947 . S
C6036 C6071 1.382 . S
C6037 C6036 1.384 . S
C6037 C6038 1.378 . S
C6038 C6037 1.378 . S
C6038 C6039 1.378 . S
C6038 H6050 0.952 . S
C6039 C6038 1.378 . S
C6039 H6051 0.950 . S
C6039 C6070 1.383 . S
H6040 C6059 0.947 . S
H6041 C6060 0.946 . S
H6042 C6062 0.953 . S
H6043 C6063 0.945 . S
H6044 C6065 0.952 . S
H6045 C6066 0.949 . S
H6046 C6068 0.950 . S
H6047 C6069 0.948 . S
H6048 C6071 0.951 . S
H6049 C6036 0.947 . S
H6050 C6038 0.952 . S
H6051 C6039 0.950 . S
N6052 C6055 1.382 . S
N6052 C6057 1.363 . S
N6053 C6055 1.371 . S
N6053 C6056 1.372 . S
N6054 C6056 1.361 . S
N6054 C6057 1.377 . S
C6055 N6052 1.382 . S
C6055 N6053 1.371 . S
C6055 C6058 1.480 . S
C6056 N6053 1.372 . S
C6056 N6054 1.361 . S
C6056 C6064 1.457 . S
C6057 N6052 1.363 . S
C6057 N6054 1.377 . S
C6057 C6070 1.479 . S
C6058 C6055 1.480 . S
C6058 C6059 1.383 . S
C6058 C6063 1.385 . S
C6059 H6040 0.947 . S
C6059 C6058 1.383 . S
C6059 C6060 1.388 . S
C6060 H6041 0.946 . S
C6060 C6059 1.388 . S
C6060 C6061 1.384 . S
C6061 C6060 1.384 . S
C6061 C6062 1.377 . S
C6062 H6042 0.953 . S
C6062 C6061 1.377 . S
C6062 C6063 1.369 . S
C6063 H6043 0.945 . S
C6063 C6058 1.385 . S
C6063 C6062 1.369 . S
C6064 C6056 1.457 . S
C6064 C6065 1.372 . S
C6064 C6069 1.364 . S
C6065 H6044 0.952 . S
C6065 C6064 1.372 . S
C6065 C6066 1.389 . S
C6066 H6045 0.949 . S
C6066 C6065 1.389 . S
C6066 C6067 1.387 . S
C6067 C6066 1.387 . S
C6067 C6068 1.372 . S
C6068 H6046 0.950 . S
C6068 C6067 1.372 . S
C6068 C6069 1.379 . S
C6069 H6047 0.948 . S
C6069 C6064 1.364 . S
C6069 C6068 1.379 . S
C6070 C6039 1.383 . S
C6070 C6057 1.479 . S
C6070 C6071 1.398 . S
C6071 C6036 1.382 . S
C6071 H6048 0.951 . S
C6071 C6070 1.398 . S
C6072 C6073 1.384 . S
C6072 H6085 0.947 . S
C6072 C6107 1.382 . S
C6073 C6072 1.384 . S
C6073 C6074 1.378 . S
C6074 C6073 1.378 . S
C6074 C6075 1.378 . S
C6074 H6086 0.952 . S
C6075 C6074 1.378 . S
C6075 H6087 0.950 . S
C6075 C6106 1.383 . S
H6076 C6095 0.947 . S
H6077 C6096 0.946 . S
H6078 C6098 0.953 . S
H6079 C6099 0.945 . S
H6080 C6101 0.952 . S
H6081 C6102 0.949 . S
H6082 C6104 0.950 . S
H6083 C6105 0.948 . S
H6084 C6107 0.951 . S
H6085 C6072 0.947 . S
H6086 C6074 0.952 . S
H6087 C6075 0.950 . S
N6088 C6091 1.382 . S
N6088 C6093 1.363 . S
N6089 C6091 1.371 . S
N6089 C6092 1.372 . S
N6090 C6092 1.361 . S
N6090 C6093 1.377 . S
C6091 N6088 1.382 . S
C6091 N6089 1.371 . S
C6091 C6094 1.480 . S
C6092 N6089 1.372 . S
C6092 N6090 1.361 . S
C6092 C6100 1.457 . S
C6093 N6088 1.363 . S
C6093 N6090 1.377 . S
C6093 C6106 1.479 . S
C6094 C6091 1.480 . S
C6094 C6095 1.383 . S
C6094 C6099 1.385 . S
C6095 H6076 0.947 . S
C6095 C6094 1.383 . S
C6095 C6096 1.388 . S
C6096 H6077 0.946 . S
C6096 C6095 1.388 . S
C6096 C6097 1.384 . S
C6097 C6096 1.384 . S
C6097 C6098 1.377 . S
C6098 H6078 0.953 . S
C6098 C6097 1.377 . S
C6098 C6099 1.369 . S
C6099 H6079 0.945 . S
C6099 C6094 1.385 . S
C6099 C6098 1.369 . S
C6100 C6092 1.457 . S
C6100 C6101 1.372 . S
C6100 C6105 1.364 . S
C6101 H6080 0.952 . S
C6101 C6100 1.372 . S
C6101 C6102 1.389 . S
C6102 H6081 0.949 . S
C6102 C6101 1.389 . S
C6102 C6103 1.387 . S
C6103 C6102 1.387 . S
C6103 C6104 1.372 . S
C6104 H6082 0.950 . S
C6104 C6103 1.372 . S
C6104 C6105 1.379 . S
C6105 H6083 0.948 . S
C6105 C6100 1.364 . S
C6105 C6104 1.379 . S
C6106 C6075 1.383 . S
C6106 C6093 1.479 . S
C6106 C6107 1.398 . S
C6107 C6072 1.382 . S
C6107 H6084 0.951 . S
C6107 C6106 1.398 . S
C6108 C6109 1.384 . S
C6108 H6121 0.947 . S
C6108 C6143 1.382 . S
C6109 C6108 1.384 . S
C6109 C6110 1.378 . S
C6110 C6109 1.378 . S
C6110 C6111 1.378 . S
C6110 H6122 0.952 . S
C6111 C6110 1.378 . S
C6111 H6123 0.950 . S
C6111 C6142 1.383 . S
H6112 C6131 0.947 . S
H6113 C6132 0.946 . S
H6114 C6134 0.953 . S
H6115 C6135 0.945 . S
H6116 C6137 0.952 . S
H6117 C6138 0.949 . S
H6118 C6140 0.950 . S
H6119 C6141 0.948 . S
H6120 C6143 0.951 . S
H6121 C6108 0.947 . S
H6122 C6110 0.952 . S
H6123 C6111 0.950 . S
N6124 C6127 1.382 . S
N6124 C6129 1.363 . S
N6125 C6127 1.371 . S
N6125 C6128 1.372 . S
N6126 C6128 1.361 . S
N6126 C6129 1.377 . S
C6127 N6124 1.382 . S
C6127 N6125 1.371 . S
C6127 C6130 1.480 . S
C6128 N6125 1.372 . S
C6128 N6126 1.361 . S
C6128 C6136 1.457 . S
C6129 N6124 1.363 . S
C6129 N6126 1.377 . S
C6129 C6142 1.479 . S
C6130 C6127 1.480 . S
C6130 C6131 1.383 . S
C6130 C6135 1.385 . S
C6131 H6112 0.947 . S
C6131 C6130 1.383 . S
C6131 C6132 1.388 . S
C6132 H6113 0.946 . S
C6132 C6131 1.388 . S
C6132 C6133 1.384 . S
C6133 C6132 1.384 . S
C6133 C6134 1.377 . S
C6134 H6114 0.953 . S
C6134 C6133 1.377 . S
C6134 C6135 1.369 . S
C6135 H6115 0.945 . S
C6135 C6130 1.385 . S
C6135 C6134 1.369 . S
C6136 C6128 1.457 . S
C6136 C6137 1.372 . S
C6136 C6141 1.364 . S
C6137 H6116 0.952 . S
C6137 C6136 1.372 . S
C6137 C6138 1.389 . S
C6138 H6117 0.949 . S
C6138 C6137 1.389 . S
C6138 C6139 1.387 . S
C6139 C6138 1.387 . S
C6139 C6140 1.372 . S
C6140 H6118 0.950 . S
C6140 C6139 1.372 . S
C6140 C6141 1.379 . S
C6141 H6119 0.948 . S
C6141 C6136 1.364 . S
C6141 C6140 1.379 . S
C6142 C6111 1.383 . S
C6142 C6129 1.479 . S
C6142 C6143 1.398 . S
C6143 C6108 1.382 . S
C6143 H6120 0.951 . S
C6143 C6142 1.398 . S
C6144 C6145 1.384 . S
C6144 H6157 0.947 . S
C6144 C6179 1.382 . S
C6145 C6144 1.384 . S
C6145 C6146 1.378 . S
C6146 C6145 1.378 . S
C6146 C6147 1.378 . S
C6146 H6158 0.952 . S
C6147 C6146 1.378 . S
C6147 H6159 0.950 . S
C6147 C6178 1.383 . S
H6148 C6167 0.947 . S
H6149 C6168 0.946 . S
H6150 C6170 0.953 . S
H6151 C6171 0.945 . S
H6152 C6173 0.952 . S
H6153 C6174 0.949 . S
H6154 C6176 0.950 . S
H6155 C6177 0.948 . S
H6156 C6179 0.951 . S
H6157 C6144 0.947 . S
H6158 C6146 0.952 . S
H6159 C6147 0.950 . S
N6160 C6163 1.382 . S
N6160 C6165 1.363 . S
N6161 C6163 1.371 . S
N6161 C6164 1.372 . S
N6162 C6164 1.361 . S
N6162 C6165 1.377 . S
C6163 N6160 1.382 . S
C6163 N6161 1.371 . S
C6163 C6166 1.480 . S
C6164 N6161 1.372 . S
C6164 N6162 1.361 . S
C6164 C6172 1.457 . S
C6165 N6160 1.363 . S
C6165 N6162 1.377 . S
C6165 C6178 1.479 . S
C6166 C6163 1.480 . S
C6166 C6167 1.383 . S
C6166 C6171 1.385 . S
C6167 H6148 0.947 . S
C6167 C6166 1.383 . S
C6167 C6168 1.388 . S
C6168 H6149 0.946 . S
C6168 C6167 1.388 . S
C6168 C6169 1.384 . S
C6169 C6168 1.384 . S
C6169 C6170 1.377 . S
C6170 H6150 0.953 . S
C6170 C6169 1.377 . S
C6170 C6171 1.369 . S
C6171 H6151 0.945 . S
C6171 C6166 1.385 . S
C6171 C6170 1.369 . S
C6172 C6164 1.457 . S
C6172 C6173 1.372 . S
C6172 C6177 1.364 . S
C6173 H6152 0.952 . S
C6173 C6172 1.372 . S
C6173 C6174 1.389 . S
C6174 H6153 0.949 . S
C6174 C6173 1.389 . S
C6174 C6175 1.387 . S
C6175 C6174 1.387 . S
C6175 C6176 1.372 . S
C6176 H6154 0.950 . S
C6176 C6175 1.372 . S
C6176 C6177 1.379 . S
C6177 H6155 0.948 . S
C6177 C6172 1.364 . S
C6177 C6176 1.379 . S
C6178 C6147 1.383 . S
C6178 C6165 1.479 . S
C6178 C6179 1.398 . S
C6179 C6144 1.382 . S
C6179 H6156 0.951 . S
C6179 C6178 1.398 . S
C6180 C6181 1.384 . S
C6180 H6193 0.947 . S
C6180 C6215 1.382 . S
C6181 C6180 1.384 . S
C6181 C6182 1.378 . S
C6182 C6181 1.378 . S
C6182 C6183 1.378 . S
C6182 H6194 0.952 . S
C6183 C6182 1.378 . S
C6183 H6195 0.950 . S
C6183 C6214 1.383 . S
H6184 C6203 0.947 . S
H6185 C6204 0.946 . S
H6186 C6206 0.953 . S
H6187 C6207 0.945 . S
H6188 C6209 0.952 . S
H6189 C6210 0.949 . S
H6190 C6212 0.950 . S
H6191 C6213 0.948 . S
H6192 C6215 0.951 . S
H6193 C6180 0.947 . S
H6194 C6182 0.952 . S
H6195 C6183 0.950 . S
N6196 C6199 1.382 . S
N6196 C6201 1.363 . S
N6197 C6199 1.371 . S
N6197 C6200 1.372 . S
N6198 C6200 1.361 . S
N6198 C6201 1.377 . S
C6199 N6196 1.382 . S
C6199 N6197 1.371 . S
C6199 C6202 1.480 . S
C6200 N6197 1.372 . S
C6200 N6198 1.361 . S
C6200 C6208 1.457 . S
C6201 N6196 1.363 . S
C6201 N6198 1.377 . S
C6201 C6214 1.479 . S
C6202 C6199 1.480 . S
C6202 C6203 1.383 . S
C6202 C6207 1.385 . S
C6203 H6184 0.947 . S
C6203 C6202 1.383 . S
C6203 C6204 1.388 . S
C6204 H6185 0.946 . S
C6204 C6203 1.388 . S
C6204 C6205 1.384 . S
C6205 C6204 1.384 . S
C6205 C6206 1.377 . S
C6206 H6186 0.953 . S
C6206 C6205 1.377 . S
C6206 C6207 1.369 . S
C6207 H6187 0.945 . S
C6207 C6202 1.385 . S
C6207 C6206 1.369 . S
C6208 C6200 1.457 . S
C6208 C6209 1.372 . S
C6208 C6213 1.364 . S
C6209 H6188 0.952 . S
C6209 C6208 1.372 . S
C6209 C6210 1.389 . S
C6210 H6189 0.949 . S
C6210 C6209 1.389 . S
C6210 C6211 1.387 . S
C6211 C6210 1.387 . S
C6211 C6212 1.372 . S
C6212 H6190 0.950 . S
C6212 C6211 1.372 . S
C6212 C6213 1.379 . S
C6213 H6191 0.948 . S
C6213 C6208 1.364 . S
C6213 C6212 1.379 . S
C6214 C6183 1.383 . S
C6214 C6201 1.479 . S
C6214 C6215 1.398 . S
C6215 C6180 1.382 . S
C6215 H6192 0.951 . S
C6215 C6214 1.398 . S
C6216 C6217 1.384 . S
C6216 H6229 0.947 . S
C6216 C6251 1.382 . S
C6217 C6216 1.384 . S
C6217 C6218 1.378 . S
C6218 C6217 1.378 . S
C6218 C6219 1.378 . S
C6218 H6230 0.952 . S
C6219 C6218 1.378 . S
C6219 H6231 0.950 . S
C6219 C6250 1.383 . S
H6220 C6239 0.947 . S
H6221 C6240 0.946 . S
H6222 C6242 0.962 . S
H6223 C6243 0.945 . S
H6224 C6245 0.952 . S
H6225 C6246 0.949 . S
H6226 C6248 0.950 . S
H6227 C6249 0.948 . S
H6228 C6251 0.951 . S
H6229 C6216 0.947 . S
H6230 C6218 0.952 . S
H6231 C6219 0.950 . S
N6232 C6235 1.382 . S
N6232 C6237 1.363 . S
N6233 C6235 1.371 . S
N6233 C6236 1.372 . S
N6234 C6236 1.361 . S
N6234 C6237 1.377 . S
C6235 N6232 1.382 . S
C6235 N6233 1.371 . S
C6235 C6238 1.480 . S
C6236 N6233 1.372 . S
C6236 N6234 1.361 . S
C6236 C6244 1.457 . S
C6237 N6232 1.363 . S
C6237 N6234 1.377 . S
C6237 C6250 1.479 . S
C6238 C6235 1.480 . S
C6238 C6239 1.383 . S
C6238 C6243 1.385 . S
C6239 H6220 0.947 . S
C6239 C6238 1.383 . S
C6239 C6240 1.388 . S
C6240 H6221 0.946 . S
C6240 C6239 1.388 . S
C6240 C6241 1.384 1_565 S
C6241 C6240 1.384 1_545 S
C6241 C6242 1.381 . S
C6242 H6222 0.962 . S
C6242 C6241 1.381 . S
C6242 C6243 1.355 1_545 S
C6243 H6223 0.945 . S
C6243 C6238 1.385 . S
C6243 C6242 1.355 1_565 S
C6244 C6236 1.457 . S
C6244 C6245 1.372 . S
C6244 C6249 1.364 . S
C6245 H6224 0.952 . S
C6245 C6244 1.372 . S
C6245 C6246 1.389 . S
C6246 H6225 0.949 . S
C6246 C6245 1.389 . S
C6246 C6247 1.387 . S
C6247 C6246 1.387 . S
C6247 C6248 1.372 . S
C6248 H6226 0.950 . S
C6248 C6247 1.372 . S
C6248 C6249 1.379 . S
C6249 H6227 0.948 . S
C6249 C6244 1.364 . S
C6249 C6248 1.379 . S
C6250 C6219 1.383 . S
C6250 C6237 1.479 . S
C6250 C6251 1.398 . S
C6251 C6216 1.382 . S
C6251 H6228 0.951 . S
C6251 C6250 1.398 . S
C6252 C6253 1.384 . S
C6252 H6265 0.947 . S
C6252 C6287 1.382 . S
C6253 C6252 1.384 . S
C6253 C6254 1.378 . S
C6254 C6253 1.378 . S
C6254 C6255 1.378 . S
C6254 H6266 0.952 . S
C6255 C6254 1.378 . S
C6255 H6267 0.950 . S
C6255 C6286 1.383 . S
H6256 C6275 0.947 . S
H6257 C6276 0.946 . S
H6258 C6278 0.953 . S
H6259 C6279 0.945 . S
H6260 C6281 0.952 . S
H6261 C6282 0.949 . S
H6262 C6284 0.950 . S
H6263 C6285 0.948 . S
H6264 C6287 0.951 . S
H6265 C6252 0.947 . S
H6266 C6254 0.952 . S
H6267 C6255 0.950 . S
N6268 C6271 1.382 . S
N6268 C6273 1.363 . S
N6269 C6271 1.371 . S
N6269 C6272 1.372 . S
N6270 C6272 1.361 . S
N6270 C6273 1.377 . S
C6271 N6268 1.382 . S
C6271 N6269 1.371 . S
C6271 C6274 1.480 . S
C6272 N6269 1.372 . S
C6272 N6270 1.361 . S
C6272 C6280 1.457 . S
C6273 N6268 1.363 . S
C6273 N6270 1.377 . S
C6273 C6286 1.479 . S
C6274 C6271 1.480 . S
C6274 C6275 1.383 . S
C6274 C6279 1.385 . S
C6275 H6256 0.947 . S
C6275 C6274 1.383 . S
C6275 C6276 1.388 . S
C6276 H6257 0.946 . S
C6276 C6275 1.388 . S
C6276 C6277 1.384 . S
C6277 C6276 1.384 . S
C6277 C6278 1.377 . S
C6278 H6258 0.953 . S
C6278 C6277 1.377 . S
C6278 C6279 1.369 . S
C6279 H6259 0.945 . S
C6279 C6274 1.385 . S
C6279 C6278 1.369 . S
C6280 C6272 1.457 . S
C6280 C6281 1.372 . S
C6280 C6285 1.364 . S
C6281 H6260 0.952 . S
C6281 C6280 1.372 . S
C6281 C6282 1.389 . S
C6282 H6261 0.949 . S
C6282 C6281 1.389 . S
C6282 C6283 1.387 . S
C6283 C6282 1.387 . S
C6283 C6284 1.372 . S
C6284 H6262 0.950 . S
C6284 C6283 1.372 . S
C6284 C6285 1.379 . S
C6285 H6263 0.948 . S
C6285 C6280 1.364 . S
C6285 C6284 1.379 . S
C6286 C6255 1.383 . S
C6286 C6273 1.479 . S
C6286 C6287 1.398 . S
C6287 C6252 1.382 . S
C6287 H6264 0.951 . S
C6287 C6286 1.398 . S
C6288 C6289 1.384 . S
C6288 H6301 0.947 . S
C6288 C6323 1.382 . S
C6289 C6288 1.384 . S
C6289 C6290 1.378 . S
C6290 C6289 1.378 . S
C6290 C6291 1.378 . S
C6290 H6302 0.952 . S
C6291 C6290 1.378 . S
C6291 H6303 0.950 . S
C6291 C6322 1.383 . S
H6292 C6311 0.947 . S
H6293 C6312 0.946 . S
H6294 C6314 0.953 . S
H6295 C6315 0.945 . S
H6296 C6317 0.952 . S
H6297 C6318 0.949 . S
H6298 C6320 0.950 . S
H6299 C6321 0.948 . S
H6300 C6323 0.951 . S
H6301 C6288 0.947 . S
H6302 C6290 0.952 . S
H6303 C6291 0.950 . S
N6304 C6307 1.382 . S
N6304 C6309 1.363 . S
N6305 C6307 1.371 . S
N6305 C6308 1.372 . S
N6306 C6308 1.361 . S
N6306 C6309 1.377 . S
C6307 N6304 1.382 . S
C6307 N6305 1.371 . S
C6307 C6310 1.480 . S
C6308 N6305 1.372 . S
C6308 N6306 1.361 . S
C6308 C6316 1.457 . S
C6309 N6304 1.363 . S
C6309 N6306 1.377 . S
C6309 C6322 1.479 . S
C6310 C6307 1.480 . S
C6310 C6311 1.383 . S
C6310 C6315 1.385 . S
C6311 H6292 0.947 . S
C6311 C6310 1.383 . S
C6311 C6312 1.388 . S
C6312 H6293 0.946 . S
C6312 C6311 1.388 . S
C6312 C6313 1.384 . S
C6313 C6312 1.384 . S
C6313 C6314 1.377 . S
C6314 H6294 0.953 . S
C6314 C6313 1.377 . S
C6314 C6315 1.369 . S
C6315 H6295 0.945 . S
C6315 C6310 1.385 . S
C6315 C6314 1.369 . S
C6316 C6308 1.457 . S
C6316 C6317 1.372 . S
C6316 C6321 1.364 . S
C6317 H6296 0.952 . S
C6317 C6316 1.372 . S
C6317 C6318 1.389 . S
C6318 H6297 0.949 . S
C6318 C6317 1.389 . S
C6318 C6319 1.387 . S
C6319 C6318 1.387 . S
C6319 C6320 1.372 . S
C6320 H6298 0.950 . S
C6320 C6319 1.372 . S
C6320 C6321 1.379 . S
C6321 H6299 0.948 . S
C6321 C6316 1.364 . S
C6321 C6320 1.379 . S
C6322 C6291 1.383 . S
C6322 C6309 1.479 . S
C6322 C6323 1.398 . S
C6323 C6288 1.382 . S
C6323 H6300 0.951 . S
C6323 C6322 1.398 . S
C6324 C6325 1.384 . S
C6324 H6337 0.947 . S
C6324 C6359 1.382 . S
C6325 C6324 1.384 . S
C6325 C6326 1.378 . S
C6326 C6325 1.378 . S
C6326 C6327 1.378 . S
C6326 H6338 0.952 . S
C6327 C6326 1.378 . S
C6327 H6339 0.950 . S
C6327 C6358 1.383 . S
H6328 C6347 0.947 . S
H6329 C6348 0.946 . S
H6330 C6350 0.953 . S
H6331 C6351 0.945 . S
H6332 C6353 0.952 . S
H6333 C6354 0.949 . S
H6334 C6356 0.950 . S
H6335 C6357 0.948 . S
H6336 C6359 0.951 . S
H6337 C6324 0.947 . S
H6338 C6326 0.952 . S
H6339 C6327 0.950 . S
N6340 C6343 1.382 . S
N6340 C6345 1.363 . S
N6341 C6343 1.371 . S
N6341 C6344 1.372 . S
N6342 C6344 1.361 . S
N6342 C6345 1.377 . S
C6343 N6340 1.382 . S
C6343 N6341 1.371 . S
C6343 C6346 1.480 . S
C6344 N6341 1.372 . S
C6344 N6342 1.361 . S
C6344 C6352 1.457 . S
C6345 N6340 1.363 . S
C6345 N6342 1.377 . S
C6345 C6358 1.479 . S
C6346 C6343 1.480 . S
C6346 C6347 1.383 . S
C6346 C6351 1.385 . S
C6347 H6328 0.947 . S
C6347 C6346 1.383 . S
C6347 C6348 1.388 . S
C6348 H6329 0.946 . S
C6348 C6347 1.388 . S
C6348 C6349 1.384 . S
C6349 C6348 1.384 . S
C6349 C6350 1.377 . S
C6350 H6330 0.953 . S
C6350 C6349 1.377 . S
C6350 C6351 1.369 . S
C6351 H6331 0.945 . S
C6351 C6346 1.385 . S
C6351 C6350 1.369 . S
C6352 C6344 1.457 . S
C6352 C6353 1.372 . S
C6352 C6357 1.364 . S
C6353 H6332 0.952 . S
C6353 C6352 1.372 . S
C6353 C6354 1.389 . S
C6354 H6333 0.949 . S
C6354 C6353 1.389 . S
C6354 C6355 1.387 . S
C6355 C6354 1.387 . S
C6355 C6356 1.372 . S
C6356 H6334 0.950 . S
C6356 C6355 1.372 . S
C6356 C6357 1.379 . S
C6357 H6335 0.948 . S
C6357 C6352 1.364 . S
C6357 C6356 1.379 . S
C6358 C6327 1.383 . S
C6358 C6345 1.479 . S
C6358 C6359 1.398 . S
C6359 C6324 1.382 . S
C6359 H6336 0.951 . S
C6359 C6358 1.398 . S
C6360 C6361 1.384 . S
C6360 H6373 0.947 . S
C6360 C6395 1.382 . S
C6361 C6360 1.384 . S
C6361 C6362 1.378 . S
C6362 C6361 1.378 . S
C6362 C6363 1.378 . S
C6362 H6374 0.952 . S
C6363 C6362 1.378 . S
C6363 H6375 0.950 . S
C6363 C6394 1.383 . S
H6364 C6383 0.947 . S
H6365 C6384 0.946 . S
H6366 C6386 0.962 . S
H6367 C6387 0.945 . S
H6368 C6389 0.952 . S
H6369 C6390 0.949 . S
H6370 C6392 0.950 . S
H6371 C6393 0.948 . S
H6372 C6395 0.951 . S
H6373 C6360 0.947 . S
H6374 C6362 0.952 . S
H6375 C6363 0.950 . S
N6376 C6379 1.382 . S
N6376 C6381 1.363 . S
N6377 C6379 1.371 . S
N6377 C6380 1.372 . S
N6378 C6380 1.361 . S
N6378 C6381 1.377 . S
C6379 N6376 1.382 . S
C6379 N6377 1.371 . S
C6379 C6382 1.480 . S
C6380 N6377 1.372 . S
C6380 N6378 1.361 . S
C6380 C6388 1.457 . S
C6381 N6376 1.363 . S
C6381 N6378 1.377 . S
C6381 C6394 1.479 . S
C6382 C6379 1.480 . S
C6382 C6383 1.383 . S
C6382 C6387 1.385 . S
C6383 H6364 0.947 . S
C6383 C6382 1.383 . S
C6383 C6384 1.388 . S
C6384 H6365 0.946 . S
C6384 C6383 1.388 . S
C6384 C6385 1.384 1_545 S
C6385 C6384 1.384 1_565 S
C6385 C6386 1.381 . S
C6386 H6366 0.962 . S
C6386 C6385 1.381 . S
C6386 C6387 1.355 1_565 S
C6387 H6367 0.945 . S
C6387 C6382 1.385 . S
C6387 C6386 1.355 1_545 S
C6388 C6380 1.457 . S
C6388 C6389 1.372 . S
C6388 C6393 1.364 . S
C6389 H6368 0.952 . S
C6389 C6388 1.372 . S
C6389 C6390 1.389 . S
C6390 H6369 0.949 . S
C6390 C6389 1.389 . S
C6390 C6391 1.387 . S
C6391 C6390 1.387 . S
C6391 C6392 1.372 . S
C6392 H6370 0.950 . S
C6392 C6391 1.372 . S
C6392 C6393 1.379 . S
C6393 H6371 0.948 . S
C6393 C6388 1.364 . S
C6393 C6392 1.379 . S
C6394 C6363 1.383 . S
C6394 C6381 1.479 . S
C6394 C6395 1.398 . S
C6395 C6360 1.382 . S
C6395 H6372 0.951 . S
C6395 C6394 1.398 . S
C6396 C6397 1.384 . S
C6396 H6409 0.947 . S
C6396 C6431 1.382 . S
C6397 C6396 1.384 . S
C6397 C6398 1.378 . S
C6398 C6397 1.378 . S
C6398 C6399 1.378 . S
C6398 H6410 0.952 . S
C6399 C6398 1.378 . S
C6399 H6411 0.950 . S
C6399 C6430 1.383 . S
H6400 C6419 0.947 . S
H6401 C6420 0.946 . S
H6402 C6422 0.953 . S
H6403 C6423 0.945 . S
H6404 C6425 0.952 . S
H6405 C6426 0.949 . S
H6406 C6428 0.950 . S
H6407 C6429 0.948 . S
H6408 C6431 0.951 . S
H6409 C6396 0.947 . S
H6410 C6398 0.952 . S
H6411 C6399 0.950 . S
N6412 C6415 1.382 . S
N6412 C6417 1.363 . S
N6413 C6415 1.371 . S
N6413 C6416 1.372 . S
N6414 C6416 1.361 . S
N6414 C6417 1.377 . S
C6415 N6412 1.382 . S
C6415 N6413 1.371 . S
C6415 C6418 1.480 . S
C6416 N6413 1.372 . S
C6416 N6414 1.361 . S
C6416 C6424 1.457 . S
C6417 N6412 1.363 . S
C6417 N6414 1.377 . S
C6417 C6430 1.479 . S
C6418 C6415 1.480 . S
C6418 C6419 1.383 . S
C6418 C6423 1.385 . S
C6419 H6400 0.947 . S
C6419 C6418 1.383 . S
C6419 C6420 1.388 . S
C6420 H6401 0.946 . S
C6420 C6419 1.388 . S
C6420 C6421 1.384 . S
C6421 C6420 1.384 . S
C6421 C6422 1.377 . S
C6422 H6402 0.953 . S
C6422 C6421 1.377 . S
C6422 C6423 1.369 . S
C6423 H6403 0.945 . S
C6423 C6418 1.385 . S
C6423 C6422 1.369 . S
C6424 C6416 1.457 . S
C6424 C6425 1.372 . S
C6424 C6429 1.364 . S
C6425 H6404 0.952 . S
C6425 C6424 1.372 . S
C6425 C6426 1.389 . S
C6426 H6405 0.949 . S
C6426 C6425 1.389 . S
C6426 C6427 1.387 . S
C6427 C6426 1.387 . S
C6427 C6428 1.372 . S
C6428 H6406 0.950 . S
C6428 C6427 1.372 . S
C6428 C6429 1.379 . S
C6429 H6407 0.948 . S
C6429 C6424 1.364 . S
C6429 C6428 1.379 . S
C6430 C6399 1.383 . S
C6430 C6417 1.479 . S
C6430 C6431 1.398 . S
C6431 C6396 1.382 . S
C6431 H6408 0.951 . S
C6431 C6430 1.398 . S
C6432 C6433 1.384 . S
C6432 H6445 0.947 . S
C6432 C6467 1.382 . S
C6433 C6432 1.384 . S
C6433 C6434 1.378 . S
C6434 C6433 1.378 . S
C6434 C6435 1.378 . S
C6434 H6446 0.952 . S
C6435 C6434 1.378 . S
C6435 H6447 0.950 . S
C6435 C6466 1.383 . S
H6436 C6455 0.947 . S
H6437 C6456 0.946 . S
H6438 C6458 0.953 . S
H6439 C6459 0.945 . S
H6440 C6461 0.952 . S
H6441 C6462 0.949 . S
H6442 C6464 0.950 . S
H6443 C6465 0.948 . S
H6444 C6467 0.951 . S
H6445 C6432 0.947 . S
H6446 C6434 0.952 . S
H6447 C6435 0.950 . S
N6448 C6451 1.382 . S
N6448 C6453 1.363 . S
N6449 C6451 1.371 . S
N6449 C6452 1.372 . S
N6450 C6452 1.361 . S
N6450 C6453 1.377 . S
C6451 N6448 1.382 . S
C6451 N6449 1.371 . S
C6451 C6454 1.480 . S
C6452 N6449 1.372 . S
C6452 N6450 1.361 . S
C6452 C6460 1.457 . S
C6453 N6448 1.363 . S
C6453 N6450 1.377 . S
C6453 C6466 1.479 . S
C6454 C6451 1.480 . S
C6454 C6455 1.383 . S
C6454 C6459 1.385 . S
C6455 H6436 0.947 . S
C6455 C6454 1.383 . S
C6455 C6456 1.388 . S
C6456 H6437 0.946 . S
C6456 C6455 1.388 . S
C6456 C6457 1.384 . S
C6457 C6456 1.384 . S
C6457 C6458 1.377 . S
C6458 H6438 0.953 . S
C6458 C6457 1.377 . S
C6458 C6459 1.369 . S
C6459 H6439 0.945 . S
C6459 C6454 1.385 . S
C6459 C6458 1.369 . S
C6460 C6452 1.457 . S
C6460 C6461 1.372 . S
C6460 C6465 1.364 . S
C6461 H6440 0.952 . S
C6461 C6460 1.372 . S
C6461 C6462 1.389 . S
C6462 H6441 0.949 . S
C6462 C6461 1.389 . S
C6462 C6463 1.387 . S
C6463 C6462 1.387 . S
C6463 C6464 1.372 . S
C6464 H6442 0.950 . S
C6464 C6463 1.372 . S
C6464 C6465 1.379 . S
C6465 H6443 0.948 . S
C6465 C6460 1.364 . S
C6465 C6464 1.379 . S
C6466 C6435 1.383 . S
C6466 C6453 1.479 . S
C6466 C6467 1.398 . S
C6467 C6432 1.382 . S
C6467 H6444 0.951 . S
C6467 C6466 1.398 . S
C6468 C6469 1.384 . S
C6468 H6481 0.947 . S
C6468 C6503 1.382 . S
C6469 C6468 1.384 . S
C6469 C6470 1.378 . S
C6470 C6469 1.378 . S
C6470 C6471 1.378 . S
C6470 H6482 0.952 . S
C6471 C6470 1.378 . S
C6471 H6483 0.950 . S
C6471 C6502 1.383 . S
H6472 C6491 0.947 . S
H6473 C6492 0.946 . S
H6474 C6494 0.953 . S
H6475 C6495 0.945 . S
H6476 C6497 0.952 . S
H6477 C6498 0.949 . S
H6478 C6500 0.950 . S
H6479 C6501 0.948 . S
H6480 C6503 0.951 . S
H6481 C6468 0.947 . S
H6482 C6470 0.952 . S
H6483 C6471 0.950 . S
N6484 C6487 1.382 . S
N6484 C6489 1.363 . S
N6485 C6487 1.371 . S
N6485 C6488 1.372 . S
N6486 C6488 1.361 . S
N6486 C6489 1.377 . S
C6487 N6484 1.382 . S
C6487 N6485 1.371 . S
C6487 C6490 1.480 . S
C6488 N6485 1.372 . S
C6488 N6486 1.361 . S
C6488 C6496 1.457 . S
C6489 N6484 1.363 . S
C6489 N6486 1.377 . S
C6489 C6502 1.479 . S
C6490 C6487 1.480 . S
C6490 C6491 1.383 . S
C6490 C6495 1.385 . S
C6491 H6472 0.947 . S
C6491 C6490 1.383 . S
C6491 C6492 1.388 . S
C6492 H6473 0.946 . S
C6492 C6491 1.388 . S
C6492 C6493 1.384 . S
C6493 C6492 1.384 . S
C6493 C6494 1.377 . S
C6494 H6474 0.953 . S
C6494 C6493 1.377 . S
C6494 C6495 1.369 . S
C6495 H6475 0.945 . S
C6495 C6490 1.385 . S
C6495 C6494 1.369 . S
C6496 C6488 1.457 . S
C6496 C6497 1.372 . S
C6496 C6501 1.364 . S
C6497 H6476 0.952 . S
C6497 C6496 1.372 . S
C6497 C6498 1.389 . S
C6498 H6477 0.949 . S
C6498 C6497 1.389 . S
C6498 C6499 1.387 . S
C6499 C6498 1.387 . S
C6499 C6500 1.372 . S
C6500 H6478 0.950 . S
C6500 C6499 1.372 . S
C6500 C6501 1.379 . S
C6501 H6479 0.948 . S
C6501 C6496 1.364 . S
C6501 C6500 1.379 . S
C6502 C6471 1.383 . S
C6502 C6489 1.479 . S
C6502 C6503 1.398 . S
C6503 C6468 1.382 . S
C6503 H6480 0.951 . S
C6503 C6502 1.398 . S
C6504 C6505 1.384 . S
C6504 H6517 0.947 . S
C6504 C6539 1.382 . S
C6505 C6504 1.384 . S
C6505 C6506 1.378 . S
C6506 C6505 1.378 . S
C6506 C6507 1.378 . S
C6506 H6518 0.952 . S
C6507 C6506 1.378 . S
C6507 H6519 0.950 . S
C6507 C6538 1.383 . S
H6508 C6527 0.947 . S
H6509 C6528 0.946 . S
H6510 C6530 0.953 . S
H6511 C6531 0.945 . S
H6512 C6533 0.952 . S
H6513 C6534 0.949 . S
H6514 C6536 0.950 . S
H6515 C6537 0.948 . S
H6516 C6539 0.951 . S
H6517 C6504 0.947 . S
H6518 C6506 0.952 . S
H6519 C6507 0.950 . S
N6520 C6523 1.382 . S
N6520 C6525 1.363 . S
N6521 C6523 1.371 . S
N6521 C6524 1.372 . S
N6522 C6524 1.361 . S
N6522 C6525 1.377 . S
C6523 N6520 1.382 . S
C6523 N6521 1.371 . S
C6523 C6526 1.480 . S
C6524 N6521 1.372 . S
C6524 N6522 1.361 . S
C6524 C6532 1.457 . S
C6525 N6520 1.363 . S
C6525 N6522 1.377 . S
C6525 C6538 1.479 . S
C6526 C6523 1.480 . S
C6526 C6527 1.383 . S
C6526 C6531 1.385 . S
C6527 H6508 0.947 . S
C6527 C6526 1.383 . S
C6527 C6528 1.388 . S
C6528 H6509 0.946 . S
C6528 C6527 1.388 . S
C6528 C6529 1.384 . S
C6529 C6528 1.384 . S
C6529 C6530 1.377 . S
C6530 H6510 0.953 . S
C6530 C6529 1.377 . S
C6530 C6531 1.369 . S
C6531 H6511 0.945 . S
C6531 C6526 1.385 . S
C6531 C6530 1.369 . S
C6532 C6524 1.457 . S
C6532 C6533 1.372 . S
C6532 C6537 1.364 . S
C6533 H6512 0.952 . S
C6533 C6532 1.372 . S
C6533 C6534 1.389 . S
C6534 H6513 0.949 . S
C6534 C6533 1.389 . S
C6534 C6535 1.387 . S
C6535 C6534 1.387 . S
C6535 C6536 1.372 . S
C6536 H6514 0.950 . S
C6536 C6535 1.372 . S
C6536 C6537 1.379 . S
C6537 H6515 0.948 . S
C6537 C6532 1.364 . S
C6537 C6536 1.379 . S
C6538 C6507 1.383 . S
C6538 C6525 1.479 . S
C6538 C6539 1.398 . S
C6539 C6504 1.382 . S
C6539 H6516 0.951 . S
C6539 C6538 1.398 . S
C6540 C6541 1.384 . S
C6540 H6553 0.947 . S
C6540 C6575 1.382 . S
C6541 C6540 1.384 . S
C6541 C6542 1.378 . S
C6542 C6541 1.378 . S
C6542 C6543 1.378 . S
C6542 H6554 0.952 . S
C6543 C6542 1.378 . S
C6543 H6555 0.950 . S
C6543 C6574 1.383 . S
H6544 C6563 0.947 . S
H6545 C6564 0.946 . S
H6546 C6566 0.953 . S
H6547 C6567 0.945 . S
H6548 C6569 0.952 . S
H6549 C6570 0.949 . S
H6550 C6572 0.950 . S
H6551 C6573 0.948 . S
H6552 C6575 0.951 . S
H6553 C6540 0.947 . S
H6554 C6542 0.952 . S
H6555 C6543 0.950 . S
N6556 C6559 1.382 . S
N6556 C6561 1.363 . S
N6557 C6559 1.371 . S
N6557 C6560 1.372 . S
N6558 C6560 1.361 . S
N6558 C6561 1.377 . S
C6559 N6556 1.382 . S
C6559 N6557 1.371 . S
C6559 C6562 1.480 . S
C6560 N6557 1.372 . S
C6560 N6558 1.361 . S
C6560 C6568 1.457 . S
C6561 N6556 1.363 . S
C6561 N6558 1.377 . S
C6561 C6574 1.479 . S
C6562 C6559 1.480 . S
C6562 C6563 1.383 . S
C6562 C6567 1.385 . S
C6563 H6544 0.947 . S
C6563 C6562 1.383 . S
C6563 C6564 1.388 . S
C6564 H6545 0.946 . S
C6564 C6563 1.388 . S
C6564 C6565 1.384 . S
C6565 C6564 1.384 . S
C6565 C6566 1.377 . S
C6566 H6546 0.953 . S
C6566 C6565 1.377 . S
C6566 C6567 1.369 . S
C6567 H6547 0.945 . S
C6567 C6562 1.385 . S
C6567 C6566 1.369 . S
C6568 C6560 1.457 . S
C6568 C6569 1.372 . S
C6568 C6573 1.364 . S
C6569 H6548 0.952 . S
C6569 C6568 1.372 . S
C6569 C6570 1.389 . S
C6570 H6549 0.949 . S
C6570 C6569 1.389 . S
C6570 C6571 1.387 . S
C6571 C6570 1.387 . S
C6571 C6572 1.372 . S
C6572 H6550 0.950 . S
C6572 C6571 1.372 . S
C6572 C6573 1.379 . S
C6573 H6551 0.948 . S
C6573 C6568 1.364 . S
C6573 C6572 1.379 . S
C6574 C6543 1.383 . S
C6574 C6561 1.479 . S
C6574 C6575 1.398 . S
C6575 C6540 1.382 . S
C6575 H6552 0.951 . S
C6575 C6574 1.398 . S
C6576 C6577 1.384 . S
C6576 H6589 0.947 . S
C6576 C6611 1.382 . S
C6577 C6576 1.384 . S
C6577 C6578 1.378 . S
C6578 C6577 1.378 . S
C6578 C6579 1.378 . S
C6578 H6590 0.952 . S
C6579 C6578 1.378 . S
C6579 H6591 0.950 . S
C6579 C6610 1.383 . S
H6580 C6599 0.947 . S
H6581 C6600 0.946 . S
H6582 C6602 0.953 . S
H6583 C6603 0.945 . S
H6584 C6605 0.952 . S
H6585 C6606 0.949 . S
H6586 C6608 0.950 . S
H6587 C6609 0.948 . S
H6588 C6611 0.951 . S
H6589 C6576 0.947 . S
H6590 C6578 0.952 . S
H6591 C6579 0.950 . S
N6592 C6595 1.382 . S
N6592 C6597 1.363 . S
N6593 C6595 1.371 . S
N6593 C6596 1.372 . S
N6594 C6596 1.361 . S
N6594 C6597 1.377 . S
C6595 N6592 1.382 . S
C6595 N6593 1.371 . S
C6595 C6598 1.480 . S
C6596 N6593 1.372 . S
C6596 N6594 1.361 . S
C6596 C6604 1.457 . S
C6597 N6592 1.363 . S
C6597 N6594 1.377 . S
C6597 C6610 1.479 . S
C6598 C6595 1.480 . S
C6598 C6599 1.383 . S
C6598 C6603 1.385 . S
C6599 H6580 0.947 . S
C6599 C6598 1.383 . S
C6599 C6600 1.388 . S
C6600 H6581 0.946 . S
C6600 C6599 1.388 . S
C6600 C6601 1.384 . S
C6601 C6600 1.384 . S
C6601 C6602 1.377 . S
C6602 H6582 0.953 . S
C6602 C6601 1.377 . S
C6602 C6603 1.369 . S
C6603 H6583 0.945 . S
C6603 C6598 1.385 . S
C6603 C6602 1.369 . S
C6604 C6596 1.457 . S
C6604 C6605 1.372 . S
C6604 C6609 1.364 . S
C6605 H6584 0.952 . S
C6605 C6604 1.372 . S
C6605 C6606 1.389 . S
C6606 H6585 0.949 . S
C6606 C6605 1.389 . S
C6606 C6607 1.387 . S
C6607 C6606 1.387 . S
C6607 C6608 1.372 . S
C6608 H6586 0.950 . S
C6608 C6607 1.372 . S
C6608 C6609 1.379 . S
C6609 H6587 0.948 . S
C6609 C6604 1.364 . S
C6609 C6608 1.379 . S
C6610 C6579 1.383 . S
C6610 C6597 1.479 . S
C6610 C6611 1.398 . S
C6611 C6576 1.382 . S
C6611 H6588 0.951 . S
C6611 C6610 1.398 . S
C6612 C6613 1.384 . S
C6612 H6625 0.947 . S
C6612 C6647 1.382 . S
C6613 C6612 1.384 . S
C6613 C6614 1.378 . S
C6614 C6613 1.378 . S
C6614 C6615 1.378 . S
C6614 H6626 0.952 . S
C6615 C6614 1.378 . S
C6615 H6627 0.950 . S
C6615 C6646 1.383 . S
H6616 C6635 0.947 . S
H6617 C6636 0.946 . S
H6618 C6638 0.953 . S
H6619 C6639 0.945 . S
H6620 C6641 0.952 . S
H6621 C6642 0.949 . S
H6622 C6644 0.950 . S
H6623 C6645 0.948 . S
H6624 C6647 0.951 . S
H6625 C6612 0.947 . S
H6626 C6614 0.952 . S
H6627 C6615 0.950 . S
N6628 C6631 1.382 . S
N6628 C6633 1.363 . S
N6629 C6631 1.371 . S
N6629 C6632 1.372 . S
N6630 C6632 1.361 . S
N6630 C6633 1.377 . S
C6631 N6628 1.382 . S
C6631 N6629 1.371 . S
C6631 C6634 1.480 . S
C6632 N6629 1.372 . S
C6632 N6630 1.361 . S
C6632 C6640 1.457 . S
C6633 N6628 1.363 . S
C6633 N6630 1.377 . S
C6633 C6646 1.479 . S
C6634 C6631 1.480 . S
C6634 C6635 1.383 . S
C6634 C6639 1.385 . S
C6635 H6616 0.947 . S
C6635 C6634 1.383 . S
C6635 C6636 1.388 . S
C6636 H6617 0.946 . S
C6636 C6635 1.388 . S
C6636 C6637 1.384 . S
C6637 C6636 1.384 . S
C6637 C6638 1.377 . S
C6638 H6618 0.953 . S
C6638 C6637 1.377 . S
C6638 C6639 1.369 . S
C6639 H6619 0.945 . S
C6639 C6634 1.385 . S
C6639 C6638 1.369 . S
C6640 C6632 1.457 . S
C6640 C6641 1.372 . S
C6640 C6645 1.364 . S
C6641 H6620 0.952 . S
C6641 C6640 1.372 . S
C6641 C6642 1.389 . S
C6642 H6621 0.949 . S
C6642 C6641 1.389 . S
C6642 C6643 1.387 . S
C6643 C6642 1.387 . S
C6643 C6644 1.372 . S
C6644 H6622 0.950 . S
C6644 C6643 1.372 . S
C6644 C6645 1.379 . S
C6645 H6623 0.948 . S
C6645 C6640 1.364 . S
C6645 C6644 1.379 . S
C6646 C6615 1.383 . S
C6646 C6633 1.479 . S
C6646 C6647 1.398 . S
C6647 C6612 1.382 . S
C6647 H6624 0.951 . S
C6647 C6646 1.398 . S
C6648 C6649 1.384 . S
C6648 H6661 0.947 . S
C6648 C6683 1.382 . S
C6649 C6648 1.384 . S
C6649 C6650 1.378 . S
C6650 C6649 1.378 . S
C6650 C6651 1.378 . S
C6650 H6662 0.952 . S
C6651 C6650 1.378 . S
C6651 H6663 0.950 . S
C6651 C6682 1.383 . S
H6652 C6671 0.947 . S
H6653 C6672 0.946 . S
H6654 C6674 0.953 . S
H6655 C6675 0.945 . S
H6656 C6677 0.952 . S
H6657 C6678 0.949 . S
H6658 C6680 0.950 . S
H6659 C6681 0.948 . S
H6660 C6683 0.951 . S
H6661 C6648 0.947 . S
H6662 C6650 0.952 . S
H6663 C6651 0.950 . S
N6664 C6667 1.382 . S
N6664 C6669 1.363 . S
N6665 C6667 1.371 . S
N6665 C6668 1.372 . S
N6666 C6668 1.361 . S
N6666 C6669 1.377 . S
C6667 N6664 1.382 . S
C6667 N6665 1.371 . S
C6667 C6670 1.480 . S
C6668 N6665 1.372 . S
C6668 N6666 1.361 . S
C6668 C6676 1.457 . S
C6669 N6664 1.363 . S
C6669 N6666 1.377 . S
C6669 C6682 1.479 . S
C6670 C6667 1.480 . S
C6670 C6671 1.383 . S
C6670 C6675 1.385 . S
C6671 H6652 0.947 . S
C6671 C6670 1.383 . S
C6671 C6672 1.388 . S
C6672 H6653 0.946 . S
C6672 C6671 1.388 . S
C6672 C6673 1.384 . S
C6673 C6672 1.384 . S
C6673 C6674 1.377 . S
C6674 H6654 0.953 . S
C6674 C6673 1.377 . S
C6674 C6675 1.369 . S
C6675 H6655 0.945 . S
C6675 C6670 1.385 . S
C6675 C6674 1.369 . S
C6676 C6668 1.457 . S
C6676 C6677 1.372 . S
C6676 C6681 1.364 . S
C6677 H6656 0.952 . S
C6677 C6676 1.372 . S
C6677 C6678 1.389 . S
C6678 H6657 0.949 . S
C6678 C6677 1.389 . S
C6678 C6679 1.387 . S
C6679 C6678 1.387 . S
C6679 C6680 1.372 . S
C6680 H6658 0.950 . S
C6680 C6679 1.372 . S
C6680 C6681 1.379 . S
C6681 H6659 0.948 . S
C6681 C6676 1.364 . S
C6681 C6680 1.379 . S
C6682 C6651 1.383 . S
C6682 C6669 1.479 . S
C6682 C6683 1.398 . S
C6683 C6648 1.382 . S
C6683 H6660 0.951 . S
C6683 C6682 1.398 . S
C6684 C6685 1.384 . S
C6684 H6697 0.947 . S
C6684 C6719 1.382 . S
C6685 C6684 1.384 . S
C6685 C6686 1.378 . S
C6686 C6685 1.378 . S
C6686 C6687 1.378 . S
C6686 H6698 0.952 . S
C6687 C6686 1.378 . S
C6687 H6699 0.950 . S
C6687 C6718 1.383 . S
H6688 C6707 0.947 . S
H6689 C6708 0.946 . S
H6690 C6710 0.953 . S
H6691 C6711 0.945 . S
H6692 C6713 0.952 . S
H6693 C6714 0.949 . S
H6694 C6716 0.950 . S
H6695 C6717 0.948 . S
H6696 C6719 0.951 . S
H6697 C6684 0.947 . S
H6698 C6686 0.952 . S
H6699 C6687 0.950 . S
N6700 C6703 1.382 . S
N6700 C6705 1.363 . S
N6701 C6703 1.371 . S
N6701 C6704 1.372 . S
N6702 C6704 1.361 . S
N6702 C6705 1.377 . S
C6703 N6700 1.382 . S
C6703 N6701 1.371 . S
C6703 C6706 1.480 . S
C6704 N6701 1.372 . S
C6704 N6702 1.361 . S
C6704 C6712 1.457 . S
C6705 N6700 1.363 . S
C6705 N6702 1.377 . S
C6705 C6718 1.479 . S
C6706 C6703 1.480 . S
C6706 C6707 1.383 . S
C6706 C6711 1.385 . S
C6707 H6688 0.947 . S
C6707 C6706 1.383 . S
C6707 C6708 1.388 . S
C6708 H6689 0.946 . S
C6708 C6707 1.388 . S
C6708 C6709 1.384 . S
C6709 C6708 1.384 . S
C6709 C6710 1.377 . S
C6710 H6690 0.953 . S
C6710 C6709 1.377 . S
C6710 C6711 1.369 . S
C6711 H6691 0.945 . S
C6711 C6706 1.385 . S
C6711 C6710 1.369 . S
C6712 C6704 1.457 . S
C6712 C6713 1.372 . S
C6712 C6717 1.364 . S
C6713 H6692 0.952 . S
C6713 C6712 1.372 . S
C6713 C6714 1.389 . S
C6714 H6693 0.949 . S
C6714 C6713 1.389 . S
C6714 C6715 1.387 . S
C6715 C6714 1.387 . S
C6715 C6716 1.372 . S
C6716 H6694 0.950 . S
C6716 C6715 1.372 . S
C6716 C6717 1.379 . S
C6717 H6695 0.948 . S
C6717 C6712 1.364 . S
C6717 C6716 1.379 . S
C6718 C6687 1.383 . S
C6718 C6705 1.479 . S
C6718 C6719 1.398 . S
C6719 C6684 1.382 . S
C6719 H6696 0.951 . S
C6719 C6718 1.398 . S
C6720 C6721 1.384 . S
C6720 H6733 0.947 . S
C6720 C6755 1.382 . S
C6721 C6720 1.384 . S
C6721 C6722 1.378 . S
C6722 C6721 1.378 . S
C6722 C6723 1.378 . S
C6722 H6734 0.952 . S
C6723 C6722 1.378 . S
C6723 H6735 0.950 . S
C6723 C6754 1.383 . S
H6724 C6743 0.947 . S
H6725 C6744 0.946 . S
H6726 C6746 0.953 . S
H6727 C6747 0.945 . S
H6728 C6749 0.952 . S
H6729 C6750 0.949 . S
H6730 C6752 0.950 . S
H6731 C6753 0.948 . S
H6732 C6755 0.951 . S
H6733 C6720 0.947 . S
H6734 C6722 0.952 . S
H6735 C6723 0.950 . S
N6736 C6739 1.382 . S
N6736 C6741 1.363 . S
N6737 C6739 1.371 . S
N6737 C6740 1.372 . S
N6738 C6740 1.361 . S
N6738 C6741 1.377 . S
C6739 N6736 1.382 . S
C6739 N6737 1.371 . S
C6739 C6742 1.480 . S
C6740 N6737 1.372 . S
C6740 N6738 1.361 . S
C6740 C6748 1.457 . S
C6741 N6736 1.363 . S
C6741 N6738 1.377 . S
C6741 C6754 1.479 . S
C6742 C6739 1.480 . S
C6742 C6743 1.383 . S
C6742 C6747 1.385 . S
C6743 H6724 0.947 . S
C6743 C6742 1.383 . S
C6743 C6744 1.388 . S
C6744 H6725 0.946 . S
C6744 C6743 1.388 . S
C6744 C6745 1.384 . S
C6745 C6744 1.384 . S
C6745 C6746 1.377 . S
C6746 H6726 0.953 . S
C6746 C6745 1.377 . S
C6746 C6747 1.369 . S
C6747 H6727 0.945 . S
C6747 C6742 1.385 . S
C6747 C6746 1.369 . S
C6748 C6740 1.457 . S
C6748 C6749 1.372 . S
C6748 C6753 1.364 . S
C6749 H6728 0.952 . S
C6749 C6748 1.372 . S
C6749 C6750 1.389 . S
C6750 H6729 0.949 . S
C6750 C6749 1.389 . S
C6750 C6751 1.387 . S
C6751 C6750 1.387 . S
C6751 C6752 1.372 . S
C6752 H6730 0.950 . S
C6752 C6751 1.372 . S
C6752 C6753 1.379 . S
C6753 H6731 0.948 . S
C6753 C6748 1.364 . S
C6753 C6752 1.379 . S
C6754 C6723 1.383 . S
C6754 C6741 1.479 . S
C6754 C6755 1.398 . S
C6755 C6720 1.382 . S
C6755 H6732 0.951 . S
C6755 C6754 1.398 . S
C6756 C6757 1.384 . S
C6756 H6769 0.947 . S
C6756 C6791 1.382 . S
C6757 C6756 1.384 . S
C6757 C6758 1.378 . S
C6758 C6757 1.378 . S
C6758 C6759 1.378 . S
C6758 H6770 0.952 . S
C6759 C6758 1.378 . S
C6759 H6771 0.950 . S
C6759 C6790 1.383 . S
H6760 C6779 0.947 . S
H6761 C6780 0.946 . S
H6762 C6782 0.953 . S
H6763 C6783 0.945 . S
H6764 C6785 0.952 . S
H6765 C6786 0.949 . S
H6766 C6788 0.950 . S
H6767 C6789 0.948 . S
H6768 C6791 0.951 . S
H6769 C6756 0.947 . S
H6770 C6758 0.952 . S
H6771 C6759 0.950 . S
N6772 C6775 1.382 . S
N6772 C6777 1.363 . S
N6773 C6775 1.371 . S
N6773 C6776 1.372 . S
N6774 C6776 1.361 . S
N6774 C6777 1.377 . S
C6775 N6772 1.382 . S
C6775 N6773 1.371 . S
C6775 C6778 1.480 . S
C6776 N6773 1.372 . S
C6776 N6774 1.361 . S
C6776 C6784 1.457 . S
C6777 N6772 1.363 . S
C6777 N6774 1.377 . S
C6777 C6790 1.479 . S
C6778 C6775 1.480 . S
C6778 C6779 1.383 . S
C6778 C6783 1.385 . S
C6779 H6760 0.947 . S
C6779 C6778 1.383 . S
C6779 C6780 1.388 1_554 S
C6780 H6761 0.946 . S
C6780 C6779 1.388 1_556 S
C6780 C6781 1.384 . S
C6781 C6780 1.384 . S
C6781 C6782 1.377 . S
C6782 H6762 0.953 . S
C6782 C6781 1.377 . S
C6782 C6783 1.369 1_556 S
C6783 H6763 0.945 . S
C6783 C6778 1.385 . S
C6783 C6782 1.369 1_554 S
C6784 C6776 1.457 . S
C6784 C6785 1.372 . S
C6784 C6789 1.364 . S
C6785 H6764 0.952 . S
C6785 C6784 1.372 . S
C6785 C6786 1.389 . S
C6786 H6765 0.949 . S
C6786 C6785 1.389 . S
C6786 C6787 1.387 . S
C6787 C6786 1.387 . S
C6787 C6788 1.372 . S
C6788 H6766 0.950 . S
C6788 C6787 1.372 . S
C6788 C6789 1.379 . S
C6789 H6767 0.948 . S
C6789 C6784 1.364 . S
C6789 C6788 1.379 . S
C6790 C6759 1.383 . S
C6790 C6777 1.479 . S
C6790 C6791 1.398 . S
C6791 C6756 1.382 . S
C6791 H6768 0.951 . S
C6791 C6790 1.398 . S
C6792 C6793 1.384 . S
C6792 H6805 0.947 . S
C6792 C6827 1.382 . S
C6793 C6792 1.384 . S
C6793 C6794 1.378 . S
C6794 C6793 1.378 . S
C6794 C6795 1.378 . S
C6794 H6806 0.952 . S
C6795 C6794 1.378 . S
C6795 H6807 0.950 . S
C6795 C6826 1.383 . S
H6796 C6815 0.947 . S
H6797 C6816 0.946 . S
H6798 C6818 0.953 . S
H6799 C6819 0.945 . S
H6800 C6821 0.952 . S
H6801 C6822 0.949 . S
H6802 C6824 0.950 . S
H6803 C6825 0.948 . S
H6804 C6827 0.951 . S
H6805 C6792 0.947 . S
H6806 C6794 0.952 . S
H6807 C6795 0.950 . S
N6808 C6811 1.382 . S
N6808 C6813 1.363 . S
N6809 C6811 1.371 . S
N6809 C6812 1.372 . S
N6810 C6812 1.361 . S
N6810 C6813 1.377 . S
C6811 N6808 1.382 . S
C6811 N6809 1.371 . S
C6811 C6814 1.480 . S
C6812 N6809 1.372 . S
C6812 N6810 1.361 . S
C6812 C6820 1.457 . S
C6813 N6808 1.363 . S
C6813 N6810 1.377 . S
C6813 C6826 1.479 . S
C6814 C6811 1.480 . S
C6814 C6815 1.383 . S
C6814 C6819 1.385 . S
C6815 H6796 0.947 . S
C6815 C6814 1.383 . S
C6815 C6816 1.388 . S
C6816 H6797 0.946 . S
C6816 C6815 1.388 . S
C6816 C6817 1.384 . S
C6817 C6816 1.384 . S
C6817 C6818 1.377 . S
C6818 H6798 0.953 . S
C6818 C6817 1.377 . S
C6818 C6819 1.369 . S
C6819 H6799 0.945 . S
C6819 C6814 1.385 . S
C6819 C6818 1.369 . S
C6820 C6812 1.457 . S
C6820 C6821 1.372 . S
C6820 C6825 1.364 . S
C6821 H6800 0.952 . S
C6821 C6820 1.372 . S
C6821 C6822 1.389 . S
C6822 H6801 0.949 . S
C6822 C6821 1.389 . S
C6822 C6823 1.387 . S
C6823 C6822 1.387 . S
C6823 C6824 1.372 . S
C6824 H6802 0.950 . S
C6824 C6823 1.372 . S
C6824 C6825 1.379 . S
C6825 H6803 0.948 . S
C6825 C6820 1.364 . S
C6825 C6824 1.379 . S
C6826 C6795 1.383 . S
C6826 C6813 1.479 . S
C6826 C6827 1.398 . S
C6827 C6792 1.382 . S
C6827 H6804 0.951 . S
C6827 C6826 1.398 . S
C6828 C6829 1.384 . S
C6828 H6841 0.947 . S
C6828 C6863 1.382 . S
C6829 C6828 1.384 . S
C6829 C6830 1.378 . S
C6830 C6829 1.378 . S
C6830 C6831 1.378 . S
C6830 H6842 0.952 . S
C6831 C6830 1.378 . S
C6831 H6843 0.950 . S
C6831 C6862 1.383 . S
H6832 C6851 0.947 . S
H6833 C6852 0.946 . S
H6834 C6854 0.953 . S
H6835 C6855 0.945 . S
H6836 C6857 0.952 . S
H6837 C6858 0.949 . S
H6838 C6860 0.950 . S
H6839 C6861 0.948 . S
H6840 C6863 0.951 . S
H6841 C6828 0.947 . S
H6842 C6830 0.952 . S
H6843 C6831 0.950 . S
N6844 C6847 1.382 . S
N6844 C6849 1.363 . S
N6845 C6847 1.371 . S
N6845 C6848 1.372 . S
N6846 C6848 1.361 . S
N6846 C6849 1.377 . S
C6847 N6844 1.382 . S
C6847 N6845 1.371 . S
C6847 C6850 1.480 . S
C6848 N6845 1.372 . S
C6848 N6846 1.361 . S
C6848 C6856 1.457 . S
C6849 N6844 1.363 . S
C6849 N6846 1.377 . S
C6849 C6862 1.479 . S
C6850 C6847 1.480 . S
C6850 C6851 1.383 . S
C6850 C6855 1.385 . S
C6851 H6832 0.947 . S
C6851 C6850 1.383 . S
C6851 C6852 1.388 . S
C6852 H6833 0.946 . S
C6852 C6851 1.388 . S
C6852 C6853 1.384 . S
C6853 C6852 1.384 . S
C6853 C6854 1.377 . S
C6854 H6834 0.953 . S
C6854 C6853 1.377 . S
C6854 C6855 1.369 . S
C6855 H6835 0.945 . S
C6855 C6850 1.385 . S
C6855 C6854 1.369 . S
C6856 C6848 1.457 . S
C6856 C6857 1.372 . S
C6856 C6861 1.364 . S
C6857 H6836 0.952 . S
C6857 C6856 1.372 . S
C6857 C6858 1.389 . S
C6858 H6837 0.949 . S
C6858 C6857 1.389 . S
C6858 C6859 1.387 . S
C6859 C6858 1.387 . S
C6859 C6860 1.372 . S
C6860 H6838 0.950 . S
C6860 C6859 1.372 . S
C6860 C6861 1.379 . S
C6861 H6839 0.948 . S
C6861 C6856 1.364 . S
C6861 C6860 1.379 . S
C6862 C6831 1.383 . S
C6862 C6849 1.479 . S
C6862 C6863 1.398 . S
C6863 C6828 1.382 . S
C6863 H6840 0.951 . S
C6863 C6862 1.398 . S
C6864 C6865 1.384 . S
C6864 H6877 0.947 . S
C6864 C6899 1.382 . S
C6865 C6864 1.384 . S
C6865 C6866 1.378 . S
C6866 C6865 1.378 . S
C6866 C6867 1.378 . S
C6866 H6878 0.952 . S
C6867 C6866 1.378 . S
C6867 H6879 0.950 . S
C6867 C6898 1.383 . S
H6868 C6887 0.947 . S
H6869 C6888 0.946 . S
H6870 C6890 0.953 . S
H6871 C6891 0.945 . S
H6872 C6893 0.952 . S
H6873 C6894 0.949 . S
H6874 C6896 0.950 . S
H6875 C6897 0.948 . S
H6876 C6899 0.951 . S
H6877 C6864 0.947 . S
H6878 C6866 0.952 . S
H6879 C6867 0.950 . S
N6880 C6883 1.382 . S
N6880 C6885 1.363 . S
N6881 C6883 1.371 . S
N6881 C6884 1.372 . S
N6882 C6884 1.361 . S
N6882 C6885 1.377 . S
C6883 N6880 1.382 . S
C6883 N6881 1.371 . S
C6883 C6886 1.480 . S
C6884 N6881 1.372 . S
C6884 N6882 1.361 . S
C6884 C6892 1.457 . S
C6885 N6880 1.363 . S
C6885 N6882 1.377 . S
C6885 C6898 1.479 . S
C6886 C6883 1.480 . S
C6886 C6887 1.383 . S
C6886 C6891 1.385 . S
C6887 H6868 0.947 . S
C6887 C6886 1.383 . S
C6887 C6888 1.388 . S
C6888 H6869 0.946 . S
C6888 C6887 1.388 . S
C6888 C6889 1.384 . S
C6889 C6888 1.384 . S
C6889 C6890 1.377 . S
C6890 H6870 0.953 . S
C6890 C6889 1.377 . S
C6890 C6891 1.369 . S
C6891 H6871 0.945 . S
C6891 C6886 1.385 . S
C6891 C6890 1.369 . S
C6892 C6884 1.457 . S
C6892 C6893 1.372 . S
C6892 C6897 1.364 . S
C6893 H6872 0.952 . S
C6893 C6892 1.372 . S
C6893 C6894 1.389 . S
C6894 H6873 0.949 . S
C6894 C6893 1.389 . S
C6894 C6895 1.387 . S
C6895 C6894 1.387 . S
C6895 C6896 1.372 . S
C6896 H6874 0.950 . S
C6896 C6895 1.372 . S
C6896 C6897 1.379 . S
C6897 H6875 0.948 . S
C6897 C6892 1.364 . S
C6897 C6896 1.379 . S
C6898 C6867 1.383 . S
C6898 C6885 1.479 . S
C6898 C6899 1.398 . S
C6899 C6864 1.382 . S
C6899 H6876 0.951 . S
C6899 C6898 1.398 . S
C6900 C6901 1.384 . S
C6900 H6913 0.947 . S
C6900 C6935 1.382 . S
C6901 C6900 1.384 . S
C6901 C6902 1.378 . S
C6902 C6901 1.378 . S
C6902 C6903 1.378 . S
C6902 H6914 0.952 . S
C6903 C6902 1.378 . S
C6903 H6915 0.950 . S
C6903 C6934 1.383 . S
H6904 C6923 0.947 . S
H6905 C6924 0.946 1_554 S
H6906 C6926 0.977 . S
H6907 C6927 0.945 . S
H6908 C6929 0.952 . S
H6909 C6930 0.949 . S
H6910 C6932 0.950 . S
H6911 C6933 0.948 . S
H6912 C6935 0.951 . S
H6913 C6900 0.947 . S
H6914 C6902 0.952 . S
H6915 C6903 0.950 . S
N6916 C6919 1.382 . S
N6916 C6921 1.363 . S
N6917 C6919 1.371 . S
N6917 C6920 1.372 . S
N6918 C6920 1.361 . S
N6918 C6921 1.377 . S
C6919 N6916 1.382 . S
C6919 N6917 1.371 . S
C6919 C6922 1.480 . S
C6920 N6917 1.372 . S
C6920 N6918 1.361 . S
C6920 C6928 1.457 . S
C6921 N6916 1.363 . S
C6921 N6918 1.377 . S
C6921 C6934 1.479 . S
C6922 C6919 1.480 . S
C6922 C6923 1.383 . S
C6922 C6927 1.385 . S
C6923 H6904 0.947 . S
C6923 C6922 1.383 . S
C6923 C6924 1.388 . S
C6924 H6905 0.946 1_556 S
C6924 C6923 1.388 . S
C6924 C6925 1.384 1_556 S
C6925 C6924 1.384 1_554 S
C6925 C6926 1.377 1_554 S
C6926 H6906 0.977 . S
C6926 C6925 1.377 1_556 S
C6926 C6927 1.369 . S
C6927 H6907 0.945 . S
C6927 C6922 1.385 . S
C6927 C6926 1.369 . S
C6928 C6920 1.457 . S
C6928 C6929 1.372 . S
C6928 C6933 1.364 . S
C6929 H6908 0.952 . S
C6929 C6928 1.372 . S
C6929 C6930 1.389 . S
C6930 H6909 0.949 . S
C6930 C6929 1.389 . S
C6930 C6931 1.387 . S
C6931 C6930 1.387 . S
C6931 C6932 1.372 . S
C6932 H6910 0.950 . S
C6932 C6931 1.372 . S
C6932 C6933 1.379 . S
C6933 H6911 0.948 . S
C6933 C6928 1.364 . S
C6933 C6932 1.379 . S
C6934 C6903 1.383 . S
C6934 C6921 1.479 . S
C6934 C6935 1.398 . S
C6935 C6900 1.382 . S
C6935 H6912 0.951 . S
C6935 C6934 1.398 . S
C6936 C6937 1.384 . S
C6936 H6949 0.947 . S
C6936 C6971 1.382 . S
C6937 C6936 1.384 . S
C6937 C6938 1.378 . S
C6938 C6937 1.378 . S
C6938 C6939 1.378 . S
C6938 H6950 0.952 . S
C6939 C6938 1.378 . S
C6939 H6951 0.950 . S
C6939 C6970 1.383 . S
H6940 C6959 0.947 . S
H6941 C6960 0.946 . S
H6942 C6962 0.953 . S
H6943 C6963 0.945 . S
H6944 C6965 0.952 . S
H6945 C6966 0.949 . S
H6946 C6968 0.950 . S
H6947 C6969 0.948 . S
H6948 C6971 0.951 . S
H6949 C6936 0.947 . S
H6950 C6938 0.952 . S
H6951 C6939 0.950 . S
N6952 C6955 1.382 . S
N6952 C6957 1.363 . S
N6953 C6955 1.371 . S
N6953 C6956 1.372 . S
N6954 C6956 1.361 . S
N6954 C6957 1.377 . S
C6955 N6952 1.382 . S
C6955 N6953 1.371 . S
C6955 C6958 1.480 . S
C6956 N6953 1.372 . S
C6956 N6954 1.361 . S
C6956 C6964 1.457 . S
C6957 N6952 1.363 . S
C6957 N6954 1.377 . S
C6957 C6970 1.479 . S
C6958 C6955 1.480 . S
C6958 C6959 1.383 . S
C6958 C6963 1.385 . S
C6959 H6940 0.947 . S
C6959 C6958 1.383 . S
C6959 C6960 1.388 . S
C6960 H6941 0.946 . S
C6960 C6959 1.388 . S
C6960 C6961 1.384 . S
C6961 C6960 1.384 . S
C6961 C6962 1.377 . S
C6962 H6942 0.953 . S
C6962 C6961 1.377 . S
C6962 C6963 1.369 . S
C6963 H6943 0.945 . S
C6963 C6958 1.385 . S
C6963 C6962 1.369 . S
C6964 C6956 1.457 . S
C6964 C6965 1.372 . S
C6964 C6969 1.364 . S
C6965 H6944 0.952 . S
C6965 C6964 1.372 . S
C6965 C6966 1.389 . S
C6966 H6945 0.949 . S
C6966 C6965 1.389 . S
C6966 C6967 1.387 . S
C6967 C6966 1.387 . S
C6967 C6968 1.372 . S
C6968 H6946 0.950 . S
C6968 C6967 1.372 . S
C6968 C6969 1.379 . S
C6969 H6947 0.948 . S
C6969 C6964 1.364 . S
C6969 C6968 1.379 . S
C6970 C6939 1.383 . S
C6970 C6957 1.479 . S
C6970 C6971 1.398 . S
C6971 C6936 1.382 . S
C6971 H6948 0.951 . S
C6971 C6970 1.398 . S
C6972 C6973 1.384 . S
C6972 H6985 0.947 . S
C6972 C7007 1.382 . S
C6973 C6972 1.384 . S
C6973 C6974 1.378 . S
C6974 C6973 1.378 . S
C6974 C6975 1.378 . S
C6974 H6986 0.952 . S
C6975 C6974 1.378 . S
C6975 H6987 0.950 . S
C6975 C7006 1.383 . S
H6976 C6995 0.947 . S
H6977 C6996 0.946 . S
H6978 C6998 0.953 . S
H6979 C6999 0.945 . S
H6980 C7001 0.952 . S
H6981 C7002 0.949 . S
H6982 C7004 0.950 . S
H6983 C7005 0.948 . S
H6984 C7007 0.951 . S
H6985 C6972 0.947 . S
H6986 C6974 0.952 . S
H6987 C6975 0.950 . S
N6988 C6991 1.382 . S
N6988 C6993 1.363 . S
N6989 C6991 1.371 . S
N6989 C6992 1.372 . S
N6990 C6992 1.361 . S
N6990 C6993 1.377 . S
C6991 N6988 1.382 . S
C6991 N6989 1.371 . S
C6991 C6994 1.480 . S
C6992 N6989 1.372 . S
C6992 N6990 1.361 . S
C6992 C7000 1.457 . S
C6993 N6988 1.363 . S
C6993 N6990 1.377 . S
C6993 C7006 1.479 . S
C6994 C6991 1.480 . S
C6994 C6995 1.383 . S
C6994 C6999 1.385 . S
C6995 H6976 0.947 . S
C6995 C6994 1.383 . S
C6995 C6996 1.388 . S
C6996 H6977 0.946 . S
C6996 C6995 1.388 . S
C6996 C6997 1.384 . S
C6997 C6996 1.384 . S
C6997 C6998 1.377 . S
C6998 H6978 0.953 . S
C6998 C6997 1.377 . S
C6998 C6999 1.369 . S
C6999 H6979 0.945 . S
C6999 C6994 1.385 . S
C6999 C6998 1.369 . S
C7000 C6992 1.457 . S
C7000 C7001 1.372 . S
C7000 C7005 1.364 . S
C7001 H6980 0.952 . S
C7001 C7000 1.372 . S
C7001 C7002 1.389 . S
C7002 H6981 0.949 . S
C7002 C7001 1.389 . S
C7002 C7003 1.387 . S
C7003 C7002 1.387 . S
C7003 C7004 1.372 . S
C7004 H6982 0.950 . S
C7004 C7003 1.372 . S
C7004 C7005 1.379 . S
C7005 H6983 0.948 . S
C7005 C7000 1.364 . S
C7005 C7004 1.379 . S
C7006 C6975 1.383 . S
C7006 C6993 1.479 . S
C7006 C7007 1.398 . S
C7007 C6972 1.382 . S
C7007 H6984 0.951 . S
C7007 C7006 1.398 . S
C7008 C7009 1.384 . S
C7008 H7021 0.947 . S
C7008 C7043 1.382 . S
C7009 C7008 1.384 . S
C7009 C7010 1.378 . S
C7010 C7009 1.378 . S
C7010 C7011 1.378 . S
C7010 H7022 0.952 . S
C7011 C7010 1.378 . S
C7011 H7023 0.950 . S
C7011 C7042 1.383 . S
H7012 C7031 0.947 . S
H7013 C7032 0.946 . S
H7014 C7034 0.953 . S
H7015 C7035 0.945 . S
H7016 C7037 0.952 . S
H7017 C7038 0.949 . S
H7018 C7040 0.950 . S
H7019 C7041 0.948 . S
H7020 C7043 0.951 . S
H7021 C7008 0.947 . S
H7022 C7010 0.952 . S
H7023 C7011 0.950 . S
N7024 C7027 1.382 . S
N7024 C7029 1.363 . S
N7025 C7027 1.371 . S
N7025 C7028 1.372 . S
N7026 C7028 1.361 . S
N7026 C7029 1.377 . S
C7027 N7024 1.382 . S
C7027 N7025 1.371 . S
C7027 C7030 1.480 . S
C7028 N7025 1.372 . S
C7028 N7026 1.361 . S
C7028 C7036 1.457 . S
C7029 N7024 1.363 . S
C7029 N7026 1.377 . S
C7029 C7042 1.479 . S
C7030 C7027 1.480 . S
C7030 C7031 1.383 . S
C7030 C7035 1.385 . S
C7031 H7012 0.947 . S
C7031 C7030 1.383 . S
C7031 C7032 1.388 . S
C7032 H7013 0.946 . S
C7032 C7031 1.388 . S
C7032 C7033 1.384 . S
C7033 C7032 1.384 . S
C7033 C7034 1.377 . S
C7034 H7014 0.953 . S
C7034 C7033 1.377 . S
C7034 C7035 1.369 . S
C7035 H7015 0.945 . S
C7035 C7030 1.385 . S
C7035 C7034 1.369 . S
C7036 C7028 1.457 . S
C7036 C7037 1.372 . S
C7036 C7041 1.364 . S
C7037 H7016 0.952 . S
C7037 C7036 1.372 . S
C7037 C7038 1.389 . S
C7038 H7017 0.949 . S
C7038 C7037 1.389 . S
C7038 C7039 1.387 . S
C7039 C7038 1.387 . S
C7039 C7040 1.372 . S
C7040 H7018 0.950 . S
C7040 C7039 1.372 . S
C7040 C7041 1.379 . S
C7041 H7019 0.948 . S
C7041 C7036 1.364 . S
C7041 C7040 1.379 . S
C7042 C7011 1.383 . S
C7042 C7029 1.479 . S
C7042 C7043 1.398 . S
C7043 C7008 1.382 . S
C7043 H7020 0.951 . S
C7043 C7042 1.398 . S
C7044 C7045 1.384 . S
C7044 H7057 0.947 . S
C7044 C7079 1.382 . S
C7045 C7044 1.384 . S
C7045 C7046 1.378 . S
C7046 C7045 1.378 . S
C7046 C7047 1.378 . S
C7046 H7058 0.952 . S
C7047 C7046 1.378 . S
C7047 H7059 0.950 . S
C7047 C7078 1.383 . S
H7048 C7067 0.947 . S
H7049 C7068 0.946 . S
H7050 C7070 0.953 . S
H7051 C7071 0.945 . S
H7052 C7073 0.952 . S
H7053 C7074 0.949 . S
H7054 C7076 0.950 . S
H7055 C7077 0.948 . S
H7056 C7079 0.951 . S
H7057 C7044 0.947 . S
H7058 C7046 0.952 . S
H7059 C7047 0.950 . S
N7060 C7063 1.382 . S
N7060 C7065 1.363 . S
N7061 C7063 1.371 . S
N7061 C7064 1.372 . S
N7062 C7064 1.361 . S
N7062 C7065 1.377 . S
C7063 N7060 1.382 . S
C7063 N7061 1.371 . S
C7063 C7066 1.480 . S
C7064 N7061 1.372 . S
C7064 N7062 1.361 . S
C7064 C7072 1.457 . S
C7065 N7060 1.363 . S
C7065 N7062 1.377 . S
C7065 C7078 1.479 . S
C7066 C7063 1.480 . S
C7066 C7067 1.383 . S
C7066 C7071 1.385 . S
C7067 H7048 0.947 . S
C7067 C7066 1.383 . S
C7067 C7068 1.388 . S
C7068 H7049 0.946 . S
C7068 C7067 1.388 . S
C7068 C7069 1.384 . S
C7069 C7068 1.384 . S
C7069 C7070 1.377 . S
C7070 H7050 0.953 . S
C7070 C7069 1.377 . S
C7070 C7071 1.369 . S
C7071 H7051 0.945 . S
C7071 C7066 1.385 . S
C7071 C7070 1.369 . S
C7072 C7064 1.457 . S
C7072 C7073 1.372 . S
C7072 C7077 1.364 . S
C7073 H7052 0.952 . S
C7073 C7072 1.372 . S
C7073 C7074 1.389 . S
C7074 H7053 0.949 . S
C7074 C7073 1.389 . S
C7074 C7075 1.387 . S
C7075 C7074 1.387 . S
C7075 C7076 1.372 . S
C7076 H7054 0.950 . S
C7076 C7075 1.372 . S
C7076 C7077 1.379 . S
C7077 H7055 0.948 . S
C7077 C7072 1.364 . S
C7077 C7076 1.379 . S
C7078 C7047 1.383 . S
C7078 C7065 1.479 . S
C7078 C7079 1.398 . S
C7079 C7044 1.382 . S
C7079 H7056 0.951 . S
C7079 C7078 1.398 . S
C7080 C7081 1.384 . S
C7080 H7093 0.947 . S
C7080 C7115 1.382 . S
C7081 C7080 1.384 . S
C7081 C7082 1.378 . S
C7082 C7081 1.378 . S
C7082 C7083 1.378 . S
C7082 H7094 0.952 . S
C7083 C7082 1.378 . S
C7083 H7095 0.950 . S
C7083 C7114 1.383 . S
H7084 C7103 0.947 . S
H7085 C7104 0.946 . S
H7086 C7106 0.953 . S
H7087 C7107 0.945 . S
H7088 C7109 0.952 . S
H7089 C7110 0.949 . S
H7090 C7112 0.950 . S
H7091 C7113 0.948 . S
H7092 C7115 0.951 . S
H7093 C7080 0.947 . S
H7094 C7082 0.952 . S
H7095 C7083 0.950 . S
N7096 C7099 1.382 . S
N7096 C7101 1.363 . S
N7097 C7099 1.371 . S
N7097 C7100 1.372 . S
N7098 C7100 1.361 . S
N7098 C7101 1.377 . S
C7099 N7096 1.382 . S
C7099 N7097 1.371 . S
C7099 C7102 1.480 . S
C7100 N7097 1.372 . S
C7100 N7098 1.361 . S
C7100 C7108 1.457 . S
C7101 N7096 1.363 . S
C7101 N7098 1.377 . S
C7101 C7114 1.479 . S
C7102 C7099 1.480 . S
C7102 C7103 1.383 . S
C7102 C7107 1.385 . S
C7103 H7084 0.947 . S
C7103 C7102 1.383 . S
C7103 C7104 1.388 . S
C7104 H7085 0.946 . S
C7104 C7103 1.388 . S
C7104 C7105 1.384 . S
C7105 C7104 1.384 . S
C7105 C7106 1.377 . S
C7106 H7086 0.953 . S
C7106 C7105 1.377 . S
C7106 C7107 1.369 . S
C7107 H7087 0.945 . S
C7107 C7102 1.385 . S
C7107 C7106 1.369 . S
C7108 C7100 1.457 . S
C7108 C7109 1.372 . S
C7108 C7113 1.364 . S
C7109 H7088 0.952 . S
C7109 C7108 1.372 . S
C7109 C7110 1.389 . S
C7110 H7089 0.949 . S
C7110 C7109 1.389 . S
C7110 C7111 1.387 . S
C7111 C7110 1.387 . S
C7111 C7112 1.372 . S
C7112 H7090 0.950 . S
C7112 C7111 1.372 . S
C7112 C7113 1.379 . S
C7113 H7091 0.948 . S
C7113 C7108 1.364 . S
C7113 C7112 1.379 . S
C7114 C7083 1.383 . S
C7114 C7101 1.479 . S
C7114 C7115 1.398 . S
C7115 C7080 1.382 . S
C7115 H7092 0.951 . S
C7115 C7114 1.398 . S
C7116 C7117 1.384 . S
C7116 H7129 0.947 . S
C7116 C7151 1.382 . S
C7117 C7116 1.384 . S
C7117 C7118 1.378 . S
C7118 C7117 1.378 . S
C7118 C7119 1.378 . S
C7118 H7130 0.952 . S
C7119 C7118 1.378 . S
C7119 H7131 0.950 . S
C7119 C7150 1.383 . S
H7120 C7139 0.947 . S
H7121 C7140 0.946 . S
H7122 C7142 0.953 . S
H7123 C7143 0.945 . S
H7124 C7145 0.952 . S
H7125 C7146 0.949 . S
H7126 C7148 0.950 . S
H7127 C7149 0.948 . S
H7128 C7151 0.951 . S
H7129 C7116 0.947 . S
H7130 C7118 0.952 . S
H7131 C7119 0.950 . S
N7132 C7135 1.382 . S
N7132 C7137 1.363 . S
N7133 C7135 1.371 . S
N7133 C7136 1.372 . S
N7134 C7136 1.361 . S
N7134 C7137 1.377 . S
C7135 N7132 1.382 . S
C7135 N7133 1.371 . S
C7135 C7138 1.480 . S
C7136 N7133 1.372 . S
C7136 N7134 1.361 . S
C7136 C7144 1.457 . S
C7137 N7132 1.363 . S
C7137 N7134 1.377 . S
C7137 C7150 1.479 . S
C7138 C7135 1.480 . S
C7138 C7139 1.383 . S
C7138 C7143 1.385 . S
C7139 H7120 0.947 . S
C7139 C7138 1.383 . S
C7139 C7140 1.388 . S
C7140 H7121 0.946 . S
C7140 C7139 1.388 . S
C7140 C7141 1.384 . S
C7141 C7140 1.384 . S
C7141 C7142 1.377 . S
C7142 H7122 0.953 . S
C7142 C7141 1.377 . S
C7142 C7143 1.369 . S
C7143 H7123 0.945 . S
C7143 C7138 1.385 . S
C7143 C7142 1.369 . S
C7144 C7136 1.457 . S
C7144 C7145 1.372 . S
C7144 C7149 1.364 . S
C7145 H7124 0.952 . S
C7145 C7144 1.372 . S
C7145 C7146 1.389 . S
C7146 H7125 0.949 . S
C7146 C7145 1.389 . S
C7146 C7147 1.387 . S
C7147 C7146 1.387 . S
C7147 C7148 1.372 . S
C7148 H7126 0.950 . S
C7148 C7147 1.372 . S
C7148 C7149 1.379 . S
C7149 H7127 0.948 . S
C7149 C7144 1.364 . S
C7149 C7148 1.379 . S
C7150 C7119 1.383 . S
C7150 C7137 1.479 . S
C7150 C7151 1.398 . S
C7151 C7116 1.382 . S
C7151 H7128 0.951 . S
C7151 C7150 1.398 . S
C7152 C7153 1.384 . S
C7152 H7165 0.947 . S
C7152 C7187 1.382 . S
C7153 C7152 1.384 . S
C7153 C7154 1.378 . S
C7154 C7153 1.378 . S
C7154 C7155 1.378 . S
C7154 H7166 0.952 . S
C7155 C7154 1.378 . S
C7155 H7167 0.950 . S
C7155 C7186 1.383 . S
H7156 C7175 0.947 . S
H7157 C7176 0.946 . S
H7158 C7178 0.953 . S
H7159 C7179 0.945 . S
H7160 C7181 0.952 . S
H7161 C7182 0.949 . S
H7162 C7184 0.950 . S
H7163 C7185 0.948 . S
H7164 C7187 0.951 . S
H7165 C7152 0.947 . S
H7166 C7154 0.952 . S
H7167 C7155 0.950 . S
N7168 C7171 1.382 . S
N7168 C7173 1.363 . S
N7169 C7171 1.371 . S
N7169 C7172 1.372 . S
N7170 C7172 1.361 . S
N7170 C7173 1.377 . S
C7171 N7168 1.382 . S
C7171 N7169 1.371 . S
C7171 C7174 1.480 . S
C7172 N7169 1.372 . S
C7172 N7170 1.361 . S
C7172 C7180 1.457 . S
C7173 N7168 1.363 . S
C7173 N7170 1.377 . S
C7173 C7186 1.479 . S
C7174 C7171 1.480 . S
C7174 C7175 1.383 . S
C7174 C7179 1.385 . S
C7175 H7156 0.947 . S
C7175 C7174 1.383 . S
C7175 C7176 1.388 . S
C7176 H7157 0.946 . S
C7176 C7175 1.388 . S
C7176 C7177 1.384 . S
C7177 C7176 1.384 . S
C7177 C7178 1.377 . S
C7178 H7158 0.953 . S
C7178 C7177 1.377 . S
C7178 C7179 1.369 . S
C7179 H7159 0.945 . S
C7179 C7174 1.385 . S
C7179 C7178 1.369 . S
C7180 C7172 1.457 . S
C7180 C7181 1.372 . S
C7180 C7185 1.364 . S
C7181 H7160 0.952 . S
C7181 C7180 1.372 . S
C7181 C7182 1.389 . S
C7182 H7161 0.949 . S
C7182 C7181 1.389 . S
C7182 C7183 1.387 . S
C7183 C7182 1.387 . S
C7183 C7184 1.372 . S
C7184 H7162 0.950 . S
C7184 C7183 1.372 . S
C7184 C7185 1.379 . S
C7185 H7163 0.948 . S
C7185 C7180 1.364 . S
C7185 C7184 1.379 . S
C7186 C7155 1.383 . S
C7186 C7173 1.479 . S
C7186 C7187 1.398 . S
C7187 C7152 1.382 . S
C7187 H7164 0.951 . S
C7187 C7186 1.398 . S
C7188 C7189 1.384 . S
C7188 H7201 0.947 . S
C7188 C7223 1.382 . S
C7189 C7188 1.384 . S
C7189 C7190 1.378 . S
C7190 C7189 1.378 . S
C7190 C7191 1.378 . S
C7190 H7202 0.952 . S
C7191 C7190 1.378 . S
C7191 H7203 0.950 . S
C7191 C7222 1.383 . S
H7192 C7211 0.947 . S
H7193 C7212 0.946 . S
H7194 C7214 0.953 . S
H7195 C7215 0.945 . S
H7196 C7217 0.952 . S
H7197 C7218 0.949 . S
H7198 C7220 0.950 . S
H7199 C7221 0.948 . S
H7200 C7223 0.951 . S
H7201 C7188 0.947 . S
H7202 C7190 0.952 . S
H7203 C7191 0.950 . S
N7204 C7207 1.382 . S
N7204 C7209 1.363 . S
N7205 C7207 1.371 . S
N7205 C7208 1.372 . S
N7206 C7208 1.361 . S
N7206 C7209 1.377 . S
C7207 N7204 1.382 . S
C7207 N7205 1.371 . S
C7207 C7210 1.480 . S
C7208 N7205 1.372 . S
C7208 N7206 1.361 . S
C7208 C7216 1.457 . S
C7209 N7204 1.363 . S
C7209 N7206 1.377 . S
C7209 C7222 1.479 . S
C7210 C7207 1.480 . S
C7210 C7211 1.383 . S
C7210 C7215 1.385 . S
C7211 H7192 0.947 . S
C7211 C7210 1.383 . S
C7211 C7212 1.388 . S
C7212 H7193 0.946 . S
C7212 C7211 1.388 . S
C7212 C7213 1.384 . S
C7213 C7212 1.384 . S
C7213 C7214 1.377 . S
C7214 H7194 0.953 . S
C7214 C7213 1.377 . S
C7214 C7215 1.369 . S
C7215 H7195 0.945 . S
C7215 C7210 1.385 . S
C7215 C7214 1.369 . S
C7216 C7208 1.457 . S
C7216 C7217 1.372 . S
C7216 C7221 1.364 . S
C7217 H7196 0.952 . S
C7217 C7216 1.372 . S
C7217 C7218 1.389 . S
C7218 H7197 0.949 . S
C7218 C7217 1.389 . S
C7218 C7219 1.387 . S
C7219 C7218 1.387 . S
C7219 C7220 1.372 . S
C7220 H7198 0.950 . S
C7220 C7219 1.372 . S
C7220 C7221 1.379 . S
C7221 H7199 0.948 . S
C7221 C7216 1.364 . S
C7221 C7220 1.379 . S
C7222 C7191 1.383 . S
C7222 C7209 1.479 . S
C7222 C7223 1.398 . S
C7223 C7188 1.382 . S
C7223 H7200 0.951 . S
C7223 C7222 1.398 . S
C7224 C7225 1.384 . S
C7224 H7237 0.947 . S
C7224 C7259 1.382 . S
C7225 C7224 1.384 . S
C7225 C7226 1.378 . S
C7226 C7225 1.378 . S
C7226 C7227 1.378 . S
C7226 H7238 0.952 . S
C7227 C7226 1.378 . S
C7227 H7239 0.950 . S
C7227 C7258 1.383 . S
H7228 C7247 0.947 . S
H7229 C7248 0.946 . S
H7230 C7250 0.953 . S
H7231 C7251 0.945 . S
H7232 C7253 0.952 . S
H7233 C7254 0.949 . S
H7234 C7256 0.950 . S
H7235 C7257 0.948 . S
H7236 C7259 0.951 . S
H7237 C7224 0.947 . S
H7238 C7226 0.952 . S
H7239 C7227 0.950 . S
N7240 C7243 1.382 . S
N7240 C7245 1.363 . S
N7241 C7243 1.371 . S
N7241 C7244 1.372 . S
N7242 C7244 1.361 . S
N7242 C7245 1.377 . S
C7243 N7240 1.382 . S
C7243 N7241 1.371 . S
C7243 C7246 1.480 . S
C7244 N7241 1.372 . S
C7244 N7242 1.361 . S
C7244 C7252 1.457 . S
C7245 N7240 1.363 . S
C7245 N7242 1.377 . S
C7245 C7258 1.479 . S
C7246 C7243 1.480 . S
C7246 C7247 1.383 . S
C7246 C7251 1.385 . S
C7247 H7228 0.947 . S
C7247 C7246 1.383 . S
C7247 C7248 1.388 . S
C7248 H7229 0.946 . S
C7248 C7247 1.388 . S
C7248 C7249 1.384 . S
C7249 C7248 1.384 . S
C7249 C7250 1.377 . S
C7250 H7230 0.953 . S
C7250 C7249 1.377 . S
C7250 C7251 1.369 . S
C7251 H7231 0.945 . S
C7251 C7246 1.385 . S
C7251 C7250 1.369 . S
C7252 C7244 1.457 . S
C7252 C7253 1.372 . S
C7252 C7257 1.364 . S
C7253 H7232 0.952 . S
C7253 C7252 1.372 . S
C7253 C7254 1.389 . S
C7254 H7233 0.949 . S
C7254 C7253 1.389 . S
C7254 C7255 1.387 . S
C7255 C7254 1.387 . S
C7255 C7256 1.372 . S
C7256 H7234 0.950 . S
C7256 C7255 1.372 . S
C7256 C7257 1.379 . S
C7257 H7235 0.948 . S
C7257 C7252 1.364 . S
C7257 C7256 1.379 . S
C7258 C7227 1.383 . S
C7258 C7245 1.479 . S
C7258 C7259 1.398 . S
C7259 C7224 1.382 . S
C7259 H7236 0.951 . S
C7259 C7258 1.398 . S
C7260 C7261 1.384 . S
C7260 H7273 0.947 . S
C7260 C7295 1.382 . S
C7261 C7260 1.384 . S
C7261 C7262 1.378 . S
C7262 C7261 1.378 . S
C7262 C7263 1.378 . S
C7262 H7274 0.952 . S
C7263 C7262 1.378 . S
C7263 H7275 0.950 . S
C7263 C7294 1.383 . S
H7264 C7283 0.947 . S
H7265 C7284 0.946 . S
H7266 C7286 0.953 . S
H7267 C7287 0.945 . S
H7268 C7289 0.952 . S
H7269 C7290 0.949 . S
H7270 C7292 0.950 . S
H7271 C7293 0.948 . S
H7272 C7295 0.951 . S
H7273 C7260 0.947 . S
H7274 C7262 0.952 . S
H7275 C7263 0.950 . S
N7276 C7279 1.382 . S
N7276 C7281 1.363 . S
N7277 C7279 1.371 . S
N7277 C7280 1.372 . S
N7278 C7280 1.361 . S
N7278 C7281 1.377 . S
C7279 N7276 1.382 . S
C7279 N7277 1.371 . S
C7279 C7282 1.480 . S
C7280 N7277 1.372 . S
C7280 N7278 1.361 . S
C7280 C7288 1.457 . S
C7281 N7276 1.363 . S
C7281 N7278 1.377 . S
C7281 C7294 1.479 . S
C7282 C7279 1.480 . S
C7282 C7283 1.383 . S
C7282 C7287 1.385 . S
C7283 H7264 0.947 . S
C7283 C7282 1.383 . S
C7283 C7284 1.388 . S
C7284 H7265 0.946 . S
C7284 C7283 1.388 . S
C7284 C7285 1.384 . S
C7285 C7284 1.384 . S
C7285 C7286 1.377 . S
C7286 H7266 0.953 . S
C7286 C7285 1.377 . S
C7286 C7287 1.369 . S
C7287 H7267 0.945 . S
C7287 C7282 1.385 . S
C7287 C7286 1.369 . S
C7288 C7280 1.457 . S
C7288 C7289 1.372 . S
C7288 C7293 1.364 . S
C7289 H7268 0.952 . S
C7289 C7288 1.372 . S
C7289 C7290 1.389 . S
C7290 H7269 0.949 . S
C7290 C7289 1.389 . S
C7290 C7291 1.387 . S
C7291 C7290 1.387 . S
C7291 C7292 1.372 . S
C7292 H7270 0.950 . S
C7292 C7291 1.372 . S
C7292 C7293 1.379 . S
C7293 H7271 0.948 . S
C7293 C7288 1.364 . S
C7293 C7292 1.379 . S
C7294 C7263 1.383 . S
C7294 C7281 1.479 . S
C7294 C7295 1.398 . S
C7295 C7260 1.382 . S
C7295 H7272 0.951 . S
C7295 C7294 1.398 . S
C4765 C15 3.671 1_655 S
C6529 C55 3.897 . S
C4837 C95 1.609 . S
C6457 C135 3.794 . S
C4981 C175 3.671 1_655 S
C215 C6601 3.794 . S
C4909 C255 1.609 . S
C6673 C295 3.897 . S
C7249 C335 2.918 . S
C375 C7033 1.609 . S
C7285 C415 3.075 . S
C455 C7213 3.671 . S
C7105 C495 2.918 . S
C5413 C535 3.671 . S
C5449 C575 3.075 . S
C615 C5341 1.609 . S
C655 C6925 3.794 . S
C5125 C695 3.794 . S
C6745 C735 2.918 . S
C5053 C775 3.897 . S
C815 C5089 3.075 . S
C6997 C855 3.897 . S
C6889 C895 2.918 . S
C935 C6961 3.075 . S
C975 C3901 2.352 1_655 S
C1015 C5665 1.909 . S
C3973 C1055 2.173 . S
C1095 C5593 2.743 . S
C4117 C1135 2.352 1_455 S
C1175 C5737 2.743 . S
C4045 C1215 2.173 . S
C5809 C1255 1.909 . S
C1295 C6385 3.992 . S
C6169 C1335 2.173 . S
C1375 C6421 4.201 1_545 S
C6349 C1415 2.352 . S
C6241 C1455 3.992 . S
C1495 C4549 2.352 . S
C1535 C4585 4.201 1_565 S
C4477 C1575 2.173 . S
C1615 C6061 2.743 . S
C4261 C1655 2.743 . S
C1695 C5881 3.992 . S
C4189 C1735 1.909 . S
C1775 C4225 4.201 . S
C6133 C1815 1.909 . S
C6025 C1855 3.992 . S
C6097 C1895 4.201 . S
C1935 C6493 3.671 . S
C4801 C1975 3.897 . S
C6565 C2015 1.609 . S
C4729 C2055 3.794 . S
C2095 C6709 3.671 . S
C4873 C2135 3.794 . S
C6637 C2175 1.609 . S
C4945 C2215 3.897 . S
C2255 C5521 2.918 . S
C5305 C2295 1.609 . S
C5557 C2335 3.075 . S
C2375 C5485 3.671 . S
C2415 C5377 2.918 . S
C2455 C7141 3.671 . S
C2495 C7177 3.075 . S
C7069 C2535 1.609 . S
C2575 C5197 3.794 . S
C6853 C2615 3.794 . S
C5017 C2655 2.918 . S
C6781 C2695 3.897 . S
C2735 C6817 3.075 . S
C2775 C5269 3.897 . S
C5161 C2815 2.918 . S
C2855 C5233 3.075 . S
C2895 C5629 2.352 . S
C3937 C2935 1.909 . S
C5701 C2975 2.173 . S
C3015 C3865 2.743 . S
C5845 C3055 2.352 . S
C4009 C3095 2.743 . S
C3135 C5773 2.173 . S
C3175 C4081 1.909 . S
C4657 C3215 3.992 . S
C3255 C4441 2.173 . S
C4693 C3295 4.201 . S
C4621 C3335 2.352 . S
C3375 C4513 3.992 . S
C3415 C6277 2.352 . S
C6313 C3455 4.201 . S
C3495 C6205 2.173 . S
C4333 C3535 2.743 . S
C5989 C3575 2.743 . S
C3615 C4153 3.992 . S
C3655 C5917 1.909 . S
C3695 C5953 4.201 . S
C3735 C4405 1.909 . S
C3775 C4297 3.992 . S
C4369 C3815 4.201 . S
C4165 C2 2.200 . S
C4231 C42 2.345 . S
C82 C4267 3.157 . S
C122 C4129 2.200 . S
C162 C4381 2.200 . S
C4273 C202 2.200 . S
C4339 C242 3.157 . S
C282 C4375 2.345 . S
C322 C3949 3.159 . S
C362 C3871 3.157 . S
C402 C3877 3.236 . S
C3913 C442 2.200 . S
C482 C4021 3.159 . S
C522 C4057 2.200 . S
C562 C4093 3.236 . S
C602 C4015 3.157 . S
C4489 C642 2.200 . S
C682 C6361 2.200 . S
C4417 C722 3.159 . S
C6427 C762 2.345 . S
C802 C6325 3.236 . S
C842 C6319 2.345 . S
C6181 C882 3.159 . S
C6253 C922 3.236 . S
C5059 C962 3.257 . S
C5095 C1002 3.414 . S
C5101 C1042 3.392 . S
C1082 C4993 3.746 . S
C1122 C5275 3.257 . S
C5137 C1162 3.746 . S
C1202 C5173 3.392 . S
C5239 C1242 3.414 . S
C1282 C4813 2.215 . S
C4705 C1322 3.392 . S
C1362 C4741 2.391 . S
C4807 C1402 3.257 . S
C4885 C1442 2.215 . S
C1482 C4951 3.257 . S
C4957 C1522 2.391 . S
C4849 C1562 3.392 . S
C5353 C1602 3.746 . S
C7225 C1642 3.746 . S
C5281 C1682 2.215 . S
C1722 C7291 3.414 . S
C1762 C7189 2.391 . S
C7183 C1802 3.414 . S
C7045 C1842 2.215 . S
C7117 C1882 2.391 . S
C1922 C5893 2.200 . S
C5959 C1962 2.345 . S
C2002 C5995 3.157 . S
C5857 C2042 2.200 . S
C2082 C6109 2.200 . S
C2122 C6001 2.200 . S
C2162 C6067 3.157 . S
C2202 C6103 2.345 . S
C2242 C5677 3.159 . S
C5599 C2282 3.157 . S
C5605 C2322 3.236 . S
C2362 C5641 2.200 . S
C2402 C5749 3.159 . S
C2442 C5785 2.200 . S
C2482 C5821 3.236 . S
C2522 C5743 3.157 . S
C6217 C2562 2.200 . S
C4633 C2602 2.200 . S
C6145 C2642 3.159 . S
C4699 C2682 2.345 . S
C4597 C2722 3.236 . S
C4591 C2762 2.345 . S
C2802 C4453 3.159 . S
C4525 C2842 3.236 . S
C2882 C6787 3.257 . S
C2922 C6823 3.414 . S
C6829 C2962 3.392 . S
C3002 C6721 3.746 . S
C7003 C3042 3.257 . S
C3082 C6865 3.746 . S
C3122 C6901 3.392 . S
C6967 C3162 3.414 . S
C6541 C3202 2.215 . S
C6433 C3242 3.392 . S
C6469 C3282 2.391 . S
C6535 C3322 3.257 . S
C3362 C6613 2.215 . S
C6679 C3402 3.257 . S
C3442 C6685 2.391 . S
C3482 C6577 3.392 . S
C3522 C7081 3.746 . S
C3562 C5497 3.746 . S
C3602 C7009 2.215 . S
C5563 C3642 3.414 . S
C3682 C5461 2.391 . S
C3722 C5455 3.414 . S
C3762 C5317 2.215 . S
C5389 C3802 2.391 . S
C21 C3841 2.371 . S
C61 C3907 2.040 . S
C101 C3943 2.545 . S
C3979 C141 1.819 . S
C3985 C181 2.371 . S
C221 C4051 1.819 . S
C261 C4087 2.545 . S
C301 C4123 2.040 . S
C4159 C341 3.548 . S
C4195 C381 2.545 . S
C421 C4201 3.731 . S
C4237 C461 2.371 . S
C501 C4303 3.548 . S
C541 C4309 2.371 . S
C581 C4345 3.731 . S
C621 C4411 2.545 . S
C661 C4447 1.819 . S
C701 C4483 1.819 . S
C4519 C741 3.548 . S
C4555 C781 2.040 . S
C4561 C821 3.731 . S
C4627 C861 2.040 . S
C901 C4663 3.548 . S
C4669 C941 3.731 . S
C981 C4735 3.409 . S
C1021 C4771 3.551 . S
C1061 C4777 3.127 . S
C4843 C1101 3.634 . S
C1141 C4879 3.409 . S
C4915 C1181 3.634 . S
C1221 C4921 3.127 . S
C1261 C4987 3.551 . S
C5023 C1301 2.071 . S
C1341 C5029 3.127 . S
C5065 C1381 2.175 . S
C1421 C5131 3.409 . S
C5167 C1461 2.071 . S
C5203 C1501 3.409 . S
C5209 C1541 2.175 . S
C1581 C5245 3.127 . S
C1621 C5311 3.634 . S
C1661 C5347 3.634 . S
C1701 C5383 2.071 . S
C1741 C5419 3.551 . S
C1781 C5425 2.175 . S
C5491 C1821 3.551 . S
C1861 C5527 2.071 . S
C5533 C1901 2.175 . S
C1941 C5569 2.371 . S
C5635 C1981 2.040 . S
C5671 C2021 2.545 . S
C5707 C2061 1.819 . S
C2101 C5713 2.371 . S
C2141 C5779 1.819 . S
C5815 C2181 2.545 . S
C5851 C2221 2.040 . S
C2261 C5887 3.548 . S
C2301 C5923 2.545 . S
C2341 C5929 3.731 . S
C2381 C5965 2.371 . S
C2421 C6031 3.548 . S
C6037 C2461 2.371 . S
C6073 C2501 3.731 . S
C6139 C2541 2.545 . S
C6175 C2581 1.819 . S
C2621 C6211 1.819 . S
C2661 C6247 3.548 . S
C6283 C2701 2.040 . S
C2741 C6289 3.731 . S
C6355 C2781 2.040 . S
C6391 C2821 3.548 . S
C6397 C2861 3.731 . S
C2901 C6463 3.409 . S
C2941 C6499 3.551 . S
C2981 C6505 3.127 . S
C3021 C6571 3.634 . S
C6607 C3061 3.409 . S
C6643 C3101 3.634 . S
C6649 C3141 3.127 . S
C3181 C6715 3.551 . S
C3221 C6751 2.071 . S
C6757 C3261 3.127 . S
C6793 C3301 2.175 . S
C6859 C3341 3.409 . S
C6895 C3381 2.071 . S
C6931 C3421 3.409 . S
C6937 C3461 2.175 . S
C6973 C3501 3.127 . S
C7039 C3541 3.634 . S
C7075 C3581 3.634 . S
C7111 C3621 2.071 . S
C3661 C7147 3.551 . S
C7153 C3701 2.175 . S
C3741 C7219 3.551 . S
C7255 C3781 2.071 . S
C7261 C3821 2.175 . S
