# Generated by pormake.
# Topology ssb, (4,4)-cn, num edge types: 1
# Building blocks:
#     Node 0, Type 0, BuildingBlock: AZAVOO_clean_linker_0, # of connection points: 4
#     Node 1, Type 0, BuildingBlock: AZAVOO_clean_linker_0, # of connection points: 4
#     Node 2, Type 0, BuildingBlock: AZAVOO_clean_linker_0, # of connection points: 4
#     Node 3, Type 0, BuildingBlock: AZAVOO_clean_linker_0, # of connection points: 4
#     Node 4, Type 0, BuildingBlock: AZAVOO_clean_linker_0, # of connection points: 4
#     Node 5, Type 0, BuildingBlock: AZAVOO_clean_linker_0, # of connection points: 4
#     Node 6, Type 0, BuildingBlock: AZAVOO_clean_linker_0, # of connection points: 4
#     Node 7, Type 0, BuildingBlock: AZAVOO_clean_linker_0, # of connection points: 4
#     Node 8, Type 1, BuildingBlock: NAWXER_clean_sbu_0, # of connection points: 4
#     Node 9, Type 1, BuildingBlock: NAWXER_clean_sbu_0, # of connection points: 4
#     Node 10, Type 1, BuildingBlock: NAWXER_clean_sbu_0, # of connection points: 4
#     Node 11, Type 1, BuildingBlock: NAWXER_clean_sbu_0, # of connection points: 4
#     Node 12, Type 1, BuildingBlock: NAWXER_clean_sbu_0, # of connection points: 4
#     Node 13, Type 1, BuildingBlock: NAWXER_clean_sbu_0, # of connection points: 4
#     Node 14, Type 1, BuildingBlock: NAWXER_clean_sbu_0, # of connection points: 4
#     Node 15, Type 1, BuildingBlock: NAWXER_clean_sbu_0, # of connection points: 4
#     Edge 16, Type (0, 1), BuildingBlock: MIFKUJ_clean_linker_0, # of connection points: 2
#     Edge 17, Type (0, 1), BuildingBlock: MIFKUJ_clean_linker_0, # of connection points: 2
#     Edge 18, Type (0, 1), BuildingBlock: MIFKUJ_clean_linker_0, # of connection points: 2
#     Edge 19, Type (0, 1), BuildingBlock: MIFKUJ_clean_linker_0, # of connection points: 2
#     Edge 20, Type (0, 1), BuildingBlock: MIFKUJ_clean_linker_0, # of connection points: 2
#     Edge 21, Type (0, 1), BuildingBlock: MIFKUJ_clean_linker_0, # of connection points: 2
#     Edge 22, Type (0, 1), BuildingBlock: MIFKUJ_clean_linker_0, # of connection points: 2
#     Edge 23, Type (0, 1), BuildingBlock: MIFKUJ_clean_linker_0, # of connection points: 2
#     Edge 24, Type (0, 1), BuildingBlock: MIFKUJ_clean_linker_0, # of connection points: 2
#     Edge 25, Type (0, 1), BuildingBlock: MIFKUJ_clean_linker_0, # of connection points: 2
#     Edge 26, Type (0, 1), BuildingBlock: MIFKUJ_clean_linker_0, # of connection points: 2
#     Edge 27, Type (0, 1), BuildingBlock: MIFKUJ_clean_linker_0, # of connection points: 2
#     Edge 28, Type (0, 1), BuildingBlock: MIFKUJ_clean_linker_0, # of connection points: 2
#     Edge 29, Type (0, 1), BuildingBlock: MIFKUJ_clean_linker_0, # of connection points: 2
#     Edge 30, Type (0, 1), BuildingBlock: MIFKUJ_clean_linker_0, # of connection points: 2
#     Edge 31, Type (0, 1), BuildingBlock: MIFKUJ_clean_linker_0, # of connection points: 2
#     Edge 32, Type (0, 1), BuildingBlock: MIFKUJ_clean_linker_0, # of connection points: 2
#     Edge 33, Type (0, 1), BuildingBlock: MIFKUJ_clean_linker_0, # of connection points: 2
#     Edge 34, Type (0, 1), BuildingBlock: MIFKUJ_clean_linker_0, # of connection points: 2
#     Edge 35, Type (0, 1), BuildingBlock: MIFKUJ_clean_linker_0, # of connection points: 2
#     Edge 36, Type (0, 1), BuildingBlock: MIFKUJ_clean_linker_0, # of connection points: 2
#     Edge 37, Type (0, 1), BuildingBlock: MIFKUJ_clean_linker_0, # of connection points: 2
#     Edge 38, Type (0, 1), BuildingBlock: MIFKUJ_clean_linker_0, # of connection points: 2
#     Edge 39, Type (0, 1), BuildingBlock: MIFKUJ_clean_linker_0, # of connection points: 2
#     Edge 40, Type (0, 1), BuildingBlock: MIFKUJ_clean_linker_0, # of connection points: 2
#     Edge 41, Type (0, 1), BuildingBlock: MIFKUJ_clean_linker_0, # of connection points: 2
#     Edge 42, Type (0, 1), BuildingBlock: MIFKUJ_clean_linker_0, # of connection points: 2
#     Edge 43, Type (0, 1), BuildingBlock: MIFKUJ_clean_linker_0, # of connection points: 2
#     Edge 44, Type (0, 1), BuildingBlock: MIFKUJ_clean_linker_0, # of connection points: 2
#     Edge 45, Type (0, 1), BuildingBlock: MIFKUJ_clean_linker_0, # of connection points: 2
#     Edge 46, Type (0, 1), BuildingBlock: MIFKUJ_clean_linker_0, # of connection points: 2
#     Edge 47, Type (0, 1), BuildingBlock: MIFKUJ_clean_linker_0, # of connection points: 2
# Relax obj value: 0.052
# Max RMSD: 0.285
# Mean RMSD: 0.111
data_MOF--net-ssb--node1-NAWXER_clean_sbu_0--node2-AZAVOO_clean_linker_0--edge1-MIFKUJ_clean_linker_0
_symmetry_space_group_name_H-M    P1
_symmetry_Int_Tables_number       1
_symmetry_cell_setting            triclinic
loop_
_symmetry_equiv_pos_as_xyz
'x, y, z'
_cell_length_a     64.207057
_cell_length_b     66.39044
_cell_length_c     55.716996
_cell_angle_alpha  92.351238
_cell_angle_beta   90.020815
_cell_angle_gamma 89.992152
loop_
_atom_site_label
_atom_site_type_symbol
_atom_site_fract_x
_atom_site_fract_y
_atom_site_fract_z
_atom_type_partial_charge
H0 H 0.15953 0.49317 0.26223 0.0
H1 H 0.30315 0.40065 0.07308 0.0
H2 H 0.23771 0.41903 0.28232 0.0
H3 H 0.21623 0.41563 0.3183 0.0
H4 H 0.19123 0.3597 0.288 0.0
H5 H 0.21282 0.36318 0.25232 0.0
H6 H 0.2364 0.44861 0.24115 0.0
H7 H 0.20806 0.47205 0.25144 0.0
H8 H 0.16332 0.42436 0.23709 0.0
H9 H 0.19183 0.40114 0.22659 0.0
H10 H 0.26491 0.44596 0.20009 0.0
H11 H 0.2548 0.47437 0.17617 0.0
H12 H 0.20139 0.44058 0.14944 0.0
H13 H 0.2112 0.41266 0.17449 0.0
H14 H 0.30046 0.4083 0.19289 0.0
H15 H 0.31981 0.41105 0.15533 0.0
H16 H 0.26471 0.39301 0.11528 0.0
H17 H 0.24562 0.3901 0.15299 0.0
H18 H 0.30452 0.3761 0.23182 0.0
H19 H 0.33149 0.35322 0.21555 0.0
H20 H 0.28797 0.32979 0.1622 0.0
H21 H 0.26121 0.35274 0.17849 0.0
H22 H 0.27189 0.38757 0.2806 0.0
H23 H 0.27933 0.36332 0.31141 0.0
H24 H 0.2608 0.31457 0.26234 0.0
H25 H 0.25266 0.339 0.23175 0.0
O26 O 0.17048 0.48366 0.25804 0.0
O27 O 0.14813 0.45857 0.25067 0.0
O28 O 0.32375 0.40889 0.10964 0.0
O29 O 0.29585 0.39972 0.0882 0.0
C30 C 0.23886 0.39379 0.24246 0.0
C31 C 0.23337 0.40908 0.22675 0.0
C32 C 0.24419 0.41084 0.20493 0.0
C33 C 0.26013 0.39702 0.19851 0.0
C34 C 0.26536 0.38144 0.21404 0.0
C35 C 0.25518 0.3802 0.2364 0.0
C36 C 0.22672 0.39137 0.26476 0.0
C37 C 0.22763 0.40603 0.28358 0.0
C38 C 0.21535 0.40408 0.30403 0.0
C39 C 0.20205 0.38739 0.30596 0.0
C40 C 0.20155 0.37256 0.28722 0.0
C41 C 0.21377 0.37455 0.26679 0.0
C42 C 0.21613 0.42323 0.23307 0.0
C43 C 0.22046 0.4433 0.24014 0.0
C44 C 0.20424 0.45663 0.24606 0.0
C45 C 0.18342 0.45008 0.24509 0.0
C46 C 0.17918 0.4299 0.23803 0.0
C47 C 0.19541 0.4166 0.23205 0.0
C48 C 0.23881 0.42732 0.18892 0.0
C49 C 0.25111 0.44472 0.18892 0.0
C50 C 0.24533 0.46087 0.17511 0.0
C51 C 0.22727 0.45981 0.16074 0.0
C52 C 0.21519 0.4421 0.16053 0.0
C53 C 0.22086 0.42605 0.17463 0.0
C54 C 0.27165 0.39907 0.17563 0.0
C55 C 0.29261 0.40495 0.17597 0.0
C56 C 0.30362 0.40652 0.15451 0.0
C57 C 0.2938 0.40226 0.13229 0.0
C58 C 0.27274 0.39642 0.13206 0.0
C59 C 0.26177 0.39482 0.15355 0.0
C60 C 0.28101 0.36613 0.20621 0.0
C61 C 0.30076 0.36576 0.2169 0.0
C62 C 0.31609 0.35266 0.20763 0.0
C63 C 0.31186 0.33982 0.18749 0.0
C64 C 0.29176 0.3397 0.17751 0.0
C65 C 0.27647 0.35272 0.18682 0.0
C66 C 0.2617 0.36508 0.25392 0.0
C67 C 0.26951 0.37165 0.27644 0.0
C68 C 0.27369 0.35783 0.29402 0.0
C69 C 0.27054 0.33713 0.28924 0.0
C70 C 0.26347 0.33046 0.26639 0.0
C71 C 0.25889 0.34436 0.24892 0.0
C72 C 0.16623 0.46429 0.25141 0.0
C73 C 0.30543 0.40385 0.10943 0.0
H74 H 0.62706 0.17366 0.30932 0.0
H75 H 0.7904 0.24457 0.48762 0.0
H76 H 0.70549 0.24668 0.28858 0.0
H77 H 0.684 0.25497 0.25408 0.0
H78 H 0.66584 0.3109 0.29071 0.0
H79 H 0.68678 0.3021 0.32546 0.0
H80 H 0.70717 0.21368 0.3263 0.0
H81 H 0.67713 0.19207 0.31697 0.0
H82 H 0.63585 0.2406 0.33997 0.0
H83 H 0.66605 0.26199 0.34944 0.0
H84 H 0.74371 0.21427 0.36326 0.0
H85 H 0.73937 0.1847 0.38748 0.0
H86 H 0.68445 0.21163 0.4202 0.0
H87 H 0.6888 0.2411 0.39549 0.0
H88 H 0.77722 0.24751 0.36895 0.0
H89 H 0.7995 0.24071 0.40333 0.0
H90 H 0.74911 0.25772 0.45151 0.0
H91 H 0.72709 0.26469 0.41696 0.0
H92 H 0.77916 0.27959 0.33326 0.0
H93 H 0.80991 0.29881 0.34696 0.0
H94 H 0.77444 0.32436 0.40664 0.0
H95 H 0.74384 0.3051 0.39284 0.0
H96 H 0.74034 0.27771 0.28841 0.0
H97 H 0.74719 0.30468 0.26072 0.0
H98 H 0.7375 0.34908 0.3184 0.0
H99 H 0.72967 0.32207 0.34585 0.0
O100 O 0.63871 0.18245 0.31319 0.0
O101 O 0.61816 0.20789 0.32514 0.0
O102 O 0.80738 0.23871 0.44816 0.0
O103 O 0.78194 0.24719 0.4737 0.0
C104 C 0.71137 0.26912 0.3301 0.0
C105 C 0.70702 0.25243 0.34427 0.0
C106 C 0.72015 0.24812 0.36375 0.0
C107 C 0.73715 0.26091 0.36959 0.0
C108 C 0.74149 0.27764 0.35551 0.0
C109 C 0.72894 0.28145 0.33535 0.0
C110 C 0.69761 0.27374 0.30957 0.0
C111 C 0.69664 0.26059 0.28925 0.0
C112 C 0.68455 0.26547 0.26945 0.0
C113 C 0.67327 0.28366 0.26958 0.0
C114 C 0.67414 0.29669 0.29012 0.0
C115 C 0.68617 0.29175 0.30993 0.0
C116 C 0.68877 0.23936 0.33861 0.0
C117 C 0.69162 0.21957 0.32941 0.0
C118 C 0.67444 0.20729 0.32405 0.0
C119 C 0.65408 0.21461 0.32773 0.0
C120 C 0.65131 0.23449 0.33692 0.0
C121 C 0.66852 0.24674 0.34232 0.0
C122 C 0.71663 0.22984 0.37771 0.0
C123 C 0.7307 0.21373 0.3756 0.0
C124 C 0.72825 0.19691 0.38955 0.0
C125 C 0.71167 0.19588 0.40596 0.0
C126 C 0.69728 0.21188 0.40762 0.0
C127 C 0.69976 0.22874 0.3936 0.0
C128 C 0.75059 0.25667 0.3905 0.0
C129 C 0.77108 0.24985 0.38696 0.0
C130 C 0.78374 0.24593 0.40662 0.0
C131 C 0.77608 0.24869 0.43019 0.0
C132 C 0.75549 0.25545 0.43362 0.0
C133 C 0.74287 0.25941 0.41393 0.0
C134 C 0.75933 0.29098 0.36207 0.0
C135 C 0.77799 0.28959 0.34905 0.0
C136 C 0.79552 0.30046 0.35698 0.0
C137 C 0.79457 0.31302 0.37792 0.0
C138 C 0.77558 0.31495 0.39035 0.0
C139 C 0.75814 0.30394 0.38255 0.0
C140 C 0.73448 0.2979 0.31917 0.0
C141 C 0.7396 0.29326 0.29507 0.0
C142 C 0.74347 0.30862 0.27929 0.0
C143 C 0.74279 0.32887 0.28749 0.0
C144 C 0.73818 0.33353 0.31174 0.0
C145 C 0.73383 0.31816 0.32741 0.0
C146 C 0.63586 0.20152 0.32198 0.0
C147 C 0.78947 0.24454 0.45115 0.0
H148 H 0.66549 0.88097 0.31236 0.0
H149 H 0.70314 0.68224 0.17952 0.0
H150 H 0.75964 0.8236 0.30887 0.0
H151 H 0.76672 0.84935 0.34052 0.0
H152 H 0.75922 0.80481 0.39418 0.0
H153 H 0.75136 0.77916 0.3624 0.0
H154 H 0.72516 0.82112 0.27462 0.0
H155 H 0.70162 0.84923 0.28444 0.0
H156 H 0.6823 0.81989 0.34864 0.0
H157 H 0.70572 0.79174 0.33843 0.0
H158 H 0.731 0.78826 0.23555 0.0
H159 H 0.70318 0.79774 0.20823 0.0
H160 H 0.65723 0.77966 0.25974 0.0
H161 H 0.68531 0.77011 0.28707 0.0
H162 H 0.76299 0.75271 0.23358 0.0
H163 H 0.75592 0.72983 0.19898 0.0
H164 H 0.70071 0.70848 0.23441 0.0
H165 H 0.7081 0.73127 0.26899 0.0
H166 H 0.79795 0.75628 0.27304 0.0
H167 H 0.8211 0.72829 0.26159 0.0
H168 H 0.77271 0.68612 0.27951 0.0
H169 H 0.75022 0.71423 0.29224 0.0
H170 H 0.79757 0.79064 0.3085 0.0
H171 H 0.82997 0.78549 0.33036 0.0
H172 H 0.80273 0.73393 0.36354 0.0
H173 H 0.77055 0.73891 0.34088 0.0
O174 O 0.67462 0.86964 0.30875 0.0
O175 O 0.66528 0.85397 0.34159 0.0
O176 O 0.73496 0.70277 0.17563 0.0
O177 O 0.70633 0.6914 0.19299 0.0
C178 C 0.74927 0.78443 0.31405 0.0
C179 C 0.73135 0.78727 0.29983 0.0
C180 C 0.72722 0.77397 0.27997 0.0
C181 C 0.74048 0.75739 0.27486 0.0
C182 C 0.75813 0.75429 0.28942 0.0
C183 C 0.76258 0.76788 0.30891 0.0
C184 C 0.75473 0.79958 0.33336 0.0
C185 C 0.75942 0.81941 0.32745 0.0
C186 C 0.76352 0.83405 0.34548 0.0
C187 C 0.76343 0.829 0.36968 0.0
C188 C 0.75947 0.80899 0.37559 0.0
C189 C 0.75497 0.79439 0.35753 0.0
C190 C 0.71699 0.80432 0.3057 0.0
C191 C 0.71568 0.82071 0.29067 0.0
C192 C 0.70229 0.83679 0.29639 0.0
C193 C 0.69005 0.8368 0.31731 0.0
C194 C 0.69148 0.82035 0.33237 0.0
C195 C 0.70484 0.80426 0.3266 0.0
C196 C 0.71011 0.77851 0.26321 0.0
C197 C 0.71492 0.7862 0.24084 0.0
C198 C 0.69906 0.79175 0.22538 0.0
C199 C 0.67809 0.78957 0.232 0.0
C200 C 0.67328 0.78141 0.25422 0.0
C201 C 0.68922 0.77601 0.2698 0.0
C202 C 0.73611 0.74356 0.25381 0.0
C203 C 0.74944 0.743 0.23386 0.0
C204 C 0.74533 0.72996 0.21411 0.0
C205 C 0.72775 0.7173 0.21394 0.0
C206 C 0.71438 0.718 0.23395 0.0
C207 C 0.71854 0.73102 0.25371 0.0
C208 C 0.77245 0.73726 0.28354 0.0
C209 C 0.79256 0.74097 0.27494 0.0
C210 C 0.80567 0.72496 0.26818 0.0
C211 C 0.79878 0.70493 0.26955 0.0
C212 C 0.7787 0.70132 0.27861 0.0
C213 C 0.76572 0.71734 0.28565 0.0
C214 C 0.78175 0.76521 0.32324 0.0
C215 C 0.7986 0.77833 0.32063 0.0
C216 C 0.81705 0.77538 0.33321 0.0
C217 C 0.81893 0.75933 0.3488 0.0
C218 C 0.8019 0.74627 0.35147 0.0
C219 C 0.78347 0.74917 0.33872 0.0
C220 C 0.67588 0.85394 0.32337 0.0
C221 C 0.72331 0.70342 0.193 0.0
H222 H 0.35522 0.99273 0.34409 0.0
H223 H 0.26751 0.84548 0.1294 0.0
H224 H 0.27794 0.90717 0.34147 0.0
H225 H 0.2824 0.93174 0.37515 0.0
H226 H 0.24664 0.97516 0.33662 0.0
H227 H 0.24211 0.9505 0.30346 0.0
H228 H 0.31398 0.91804 0.31113 0.0
H229 H 0.3358 0.94551 0.32764 0.0
H230 H 0.29903 0.9883 0.28927 0.0
H231 H 0.27709 0.96071 0.27332 0.0
H232 H 0.31988 0.88931 0.25556 0.0
H233 H 0.3493 0.89659 0.22969 0.0
H234 H 0.31837 0.95083 0.20794 0.0
H235 H 0.28838 0.94255 0.2328 0.0
H236 H 0.29298 0.8594 0.24502 0.0
H237 H 0.29545 0.83935 0.20727 0.0
H238 H 0.25842 0.88387 0.17206 0.0
H239 H 0.25609 0.90375 0.20998 0.0
H240 H 0.26048 0.84854 0.27531 0.0
H241 H 0.24823 0.82102 0.24873 0.0
H242 H 0.20696 0.86219 0.21394 0.0
H243 H 0.21959 0.88976 0.24061 0.0
H244 H 0.24689 0.86406 0.31413 0.0
H245 H 0.2187 0.85356 0.34003 0.0
H246 H 0.18747 0.9104 0.33006 0.0
H247 H 0.21493 0.91989 0.30245 0.0
O248 O 0.34665 0.98206 0.33699 0.0
O249 O 0.32969 0.00301 0.31375 0.0
O250 O 0.28702 0.83139 0.16304 0.0
O251 O 0.2675 0.85351 0.14428 0.0
C252 C 0.26303 0.91539 0.29732 0.0
C253 C 0.27993 0.9209 0.28266 0.0
C254 C 0.28385 0.91015 0.26084 0.0
C255 C 0.27088 0.89392 0.25362 0.0
C256 C 0.25415 0.88819 0.26843 0.0
C257 C 0.25017 0.89889 0.29039 0.0
C258 C 0.25962 0.92708 0.32016 0.0
C259 C 0.27027 0.92168 0.34089 0.0
C260 C 0.27303 0.93581 0.35992 0.0
C261 C 0.26509 0.95546 0.35842 0.0
C262 C 0.25276 0.96011 0.33852 0.0
C263 C 0.25007 0.94602 0.31953 0.0
C264 C 0.2941 0.93742 0.29093 0.0
C265 C 0.3108 0.93335 0.30618 0.0
C266 C 0.32316 0.94907 0.31566 0.0
C267 C 0.31913 0.96911 0.30983 0.0
C268 C 0.30256 0.97305 0.29415 0.0
C269 C 0.29009 0.95733 0.28489 0.0
C270 C 0.30203 0.91536 0.24596 0.0
C271 C 0.31949 0.90273 0.24515 0.0
C272 C 0.33641 0.9071 0.23057 0.0
C273 C 0.33635 0.92442 0.21678 0.0
C274 C 0.3189 0.93726 0.21806 0.0
C275 C 0.30182 0.93268 0.23241 0.0
C276 C 0.27441 0.88301 0.23016 0.0
C277 C 0.28568 0.86492 0.22904 0.0
C278 C 0.28698 0.85347 0.20749 0.0
C279 C 0.27703 0.85996 0.18666 0.0
C280 C 0.26622 0.87841 0.18776 0.0
C281 C 0.26496 0.88985 0.20933 0.0
C282 C 0.24089 0.87111 0.25992 0.0
C283 C 0.24795 0.85139 0.26288 0.0
C284 C 0.241 0.83568 0.2475 0.0
C285 C 0.22692 0.83953 0.22891 0.0
C286 C 0.21809 0.85887 0.22784 0.0
C287 C 0.22503 0.87457 0.24329 0.0
C288 C 0.23293 0.89267 0.30623 0.0
C289 C 0.23376 0.87407 0.31719 0.0
C290 C 0.21773 0.86825 0.33237 0.0
C291 C 0.20072 0.88115 0.33741 0.0
C292 C 0.20005 0.89988 0.3264 0.0
C293 C 0.2159 0.90548 0.31081 0.0
C294 C 0.33209 0.98579 0.32023 0.0
C295 C 0.27759 0.84741 0.16399 0.0
H296 H 0.39157 0.9748 0.73366 0.0
H297 H 0.17626 0.93914 0.62941 0.0
H298 H 0.3289 0.88286 0.74122 0.0
H299 H 0.35565 0.87675 0.77132 0.0
H300 H 0.31289 0.89636 0.82752 0.0
H301 H 0.2861 0.90197 0.79721 0.0
H302 H 0.32531 0.91868 0.70396 0.0
H303 H 0.35568 0.94059 0.70992 0.0
H304 H 0.33124 0.9613 0.77893 0.0
H305 H 0.30084 0.9395 0.77261 0.0
H306 H 0.28691 0.91991 0.6686 0.0
H307 H 0.2911 0.95012 0.6452 0.0
H308 H 0.2776 0.98745 0.70869 0.0
H309 H 0.27358 0.9572 0.73188 0.0
H310 H 0.25512 0.88434 0.66971 0.0
H311 H 0.22939 0.8907 0.63849 0.0
H312 H 0.20594 0.94159 0.6813 0.0
H313 H 0.23161 0.93491 0.71248 0.0
H314 H 0.25972 0.85155 0.70396 0.0
H315 H 0.23062 0.82937 0.69291 0.0
H316 H 0.1882 0.87107 0.72933 0.0
H317 H 0.21741 0.89361 0.73904 0.0
H318 H 0.29487 0.84989 0.74899 0.0
H319 H 0.28898 0.82282 0.77676 0.0
H320 H 0.23488 0.8545 0.80508 0.0
H321 H 0.24155 0.88184 0.77813 0.0
O322 O 0.37939 0.96632 0.73163 0.0
O323 O 0.36618 0.97643 0.767 0.0
O324 O 0.19911 0.90988 0.62025 0.0
O325 O 0.18657 0.93626 0.64148 0.0
C326 C 0.28988 0.89729 0.74865 0.0
C327 C 0.29255 0.91411 0.73419 0.0
C328 C 0.27774 0.91818 0.71626 0.0
C329 C 0.26064 0.90509 0.71234 0.0
C330 C 0.25806 0.88828 0.72678 0.0
C331 C 0.27241 0.8846 0.74527 0.0
C332 C 0.30565 0.89288 0.7671 0.0
C333 C 0.32533 0.88571 0.76006 0.0
C334 C 0.34059 0.88235 0.77726 0.0
C335 C 0.33643 0.88618 0.80181 0.0
C336 C 0.31651 0.89304 0.80879 0.0
C337 C 0.30123 0.89634 0.79155 0.0
C338 C 0.31091 0.9275 0.73786 0.0
C339 C 0.32652 0.92803 0.72031 0.0
C340 C 0.34386 0.94052 0.72379 0.0
C341 C 0.34591 0.95268 0.74492 0.0
C342 C 0.33017 0.95211 0.76247 0.0
C343 C 0.31282 0.93965 0.75893 0.0
C344 C 0.27998 0.9364 0.70192 0.0
C345 C 0.28478 0.93463 0.67737 0.0
C346 C 0.28709 0.95188 0.66405 0.0
C347 C 0.28473 0.97117 0.67512 0.0
C348 C 0.27982 0.97282 0.69972 0.0
C349 C 0.27744 0.95559 0.71297 0.0
C350 C 0.24517 0.90914 0.69333 0.0
C351 C 0.24436 0.89681 0.67232 0.0
C352 C 0.22968 0.9005 0.65452 0.0
C353 C 0.2156 0.91667 0.65741 0.0
C354 C 0.21654 0.92903 0.6785 0.0
C355 C 0.2312 0.92527 0.69631 0.0
C356 C 0.24056 0.87418 0.72209 0.0
C357 C 0.24412 0.85575 0.70964 0.0
C358 C 0.22747 0.84303 0.70356 0.0
C359 C 0.20698 0.84842 0.71015 0.0
C360 C 0.20368 0.86661 0.72353 0.0
C361 C 0.22032 0.87946 0.72925 0.0
C362 C 0.26866 0.86783 0.76159 0.0
C363 C 0.28182 0.85097 0.76129 0.0
C364 C 0.2783 0.83545 0.77702 0.0
C365 C 0.26144 0.83646 0.7932 0.0
C366 C 0.24818 0.85333 0.79317 0.0
C367 C 0.25184 0.8689 0.77762 0.0
C368 C 0.36439 0.96588 0.74861 0.0
C369 C 0.19997 0.92066 0.63855 0.0
H370 H 0.22823 0.52492 0.77179 0.0
H371 H 0.24488 0.3325 0.62244 0.0
H372 H 0.31975 0.45291 0.76652 0.0
H373 H 0.32488 0.47883 0.79828 0.0
H374 H 0.29212 0.44178 0.84802 0.0
H375 H 0.28809 0.41546 0.81622 0.0
H376 H 0.27964 0.45907 0.73153 0.0
H377 H 0.26015 0.48975 0.74264 0.0
H378 H 0.23394 0.46013 0.80339 0.0
H379 H 0.25333 0.4295 0.79189 0.0
H380 H 0.27324 0.42431 0.68782 0.0
H381 H 0.24205 0.42955 0.66341 0.0
H382 H 0.20327 0.41609 0.72398 0.0
H383 H 0.23447 0.41023 0.74806 0.0
H384 H 0.30956 0.39312 0.68533 0.0
H385 H 0.30052 0.3749 0.64765 0.0
H386 H 0.24488 0.35221 0.6809 0.0
H387 H 0.25419 0.37033 0.7185 0.0
H388 H 0.34572 0.39117 0.72954 0.0
H389 H 0.36704 0.36419 0.71128 0.0
H390 H 0.31484 0.32326 0.7156 0.0
H391 H 0.29432 0.34991 0.73538 0.0
H392 H 0.3456 0.42018 0.77693 0.0
H393 H 0.371 0.40921 0.80615 0.0
H394 H 0.3364 0.3538 0.81315 0.0
H395 H 0.3101 0.3659 0.78579 0.0
O396 O 0.23565 0.51258 0.76759 0.0
O397 O 0.22273 0.49671 0.79866 0.0
O398 O 0.27593 0.35427 0.61997 0.0
O399 O 0.2491 0.33944 0.63726 0.0
C400 C 0.29755 0.41859 0.76875 0.0
C401 C 0.28026 0.42376 0.75452 0.0
C402 C 0.27497 0.41178 0.73394 0.0
C403 C 0.28747 0.39497 0.72708 0.0
C404 C 0.30468 0.38964 0.74147 0.0
C405 C 0.30936 0.40111 0.76279 0.0
C406 C 0.30359 0.43237 0.78914 0.0
C407 C 0.31421 0.45021 0.78447 0.0
C408 C 0.31689 0.46508 0.80258 0.0
C409 C 0.30859 0.46258 0.82564 0.0
C410 C 0.29888 0.44417 0.83057 0.0
C411 C 0.2965 0.42912 0.81244 0.0
C412 C 0.26793 0.44213 0.76096 0.0
C413 C 0.26959 0.45923 0.74715 0.0
C414 C 0.25849 0.47674 0.75358 0.0
C415 C 0.24553 0.47742 0.77395 0.0
C416 C 0.24381 0.46014 0.78764 0.0
C417 C 0.25489 0.44265 0.78114 0.0
C418 C 0.25615 0.41673 0.71968 0.0
C419 C 0.25801 0.42252 0.69582 0.0
C420 C 0.24023 0.42552 0.68193 0.0
C421 C 0.22028 0.4232 0.69183 0.0
C422 C 0.21846 0.41815 0.71599 0.0
C423 C 0.23624 0.4148 0.72973 0.0
C424 C 0.28251 0.38307 0.70461 0.0
C425 C 0.29552 0.38407 0.68448 0.0
C426 C 0.29027 0.37374 0.66296 0.0
C427 C 0.27189 0.36221 0.66123 0.0
C428 C 0.25911 0.36097 0.6816 0.0
C429 C 0.26437 0.37131 0.70309 0.0
C430 C 0.31836 0.37258 0.73346 0.0
C431 C 0.33912 0.37621 0.7271 0.0
C432 C 0.35121 0.3608 0.71642 0.0
C433 C 0.34264 0.34154 0.71157 0.0
C434 C 0.32215 0.33775 0.71923 0.0
C435 C 0.31024 0.35306 0.7303 0.0
C436 C 0.3257 0.39407 0.77951 0.0
C437 C 0.3433 0.40586 0.78516 0.0
C438 C 0.35806 0.39933 0.80161 0.0
C439 C 0.35587 0.38057 0.81231 0.0
C440 C 0.33848 0.36855 0.80593 0.0
C441 C 0.3235 0.37533 0.78997 0.0
C442 C 0.23392 0.49609 0.78088 0.0
C443 C 0.26587 0.35174 0.63822 0.0
H444 H 0.91197 0.35691 0.85766 0.0
H445 H 0.82233 0.22137 0.6647 0.0
H446 H 0.83828 0.27647 0.87698 0.0
H447 H 0.83915 0.29972 0.91201 0.0
H448 H 0.78098 0.32591 0.88955 0.0
H449 H 0.78083 0.30315 0.85387 0.0
H450 H 0.86888 0.28141 0.83211 0.0
H451 H 0.89213 0.30951 0.84311 0.0
H452 H 0.8402 0.3508 0.83974 0.0
H453 H 0.8172 0.32261 0.82842 0.0
H454 H 0.86378 0.25281 0.78353 0.0
H455 H 0.88652 0.26271 0.75092 0.0
H456 H 0.85203 0.3184 0.74613 0.0
H457 H 0.82862 0.30772 0.77771 0.0
H458 H 0.83281 0.21871 0.78381 0.0
H459 H 0.83808 0.20285 0.74375 0.0
H460 H 0.80928 0.25427 0.71197 0.0
H461 H 0.80415 0.26992 0.75201 0.0
H462 H 0.80221 0.2161 0.83686 0.0
H463 H 0.78731 0.18313 0.82601 0.0
H464 H 0.75915 0.20802 0.76321 0.0
H465 H 0.77301 0.24117 0.77512 0.0
H466 H 0.79536 0.24608 0.87824 0.0
H467 H 0.76367 0.24283 0.90268 0.0
H468 H 0.72688 0.26515 0.84454 0.0
H469 H 0.75838 0.26833 0.82039 0.0
O470 O 0.90252 0.34604 0.85317 0.0
O471 O 0.87527 0.36661 0.85139 0.0
O472 O 0.83866 0.20312 0.69757 0.0
O473 O 0.81997 0.22697 0.68078 0.0
C474 C 0.81159 0.27709 0.8394 0.0
C475 C 0.82727 0.2828 0.82321 0.0
C476 C 0.82926 0.27247 0.8007 0.0
C477 C 0.81625 0.25584 0.79479 0.0
C478 C 0.80096 0.2498 0.81127 0.0
C479 C 0.79799 0.26103 0.83306 0.0
C480 C 0.80958 0.28823 0.86287 0.0
C481 C 0.82552 0.28697 0.87993 0.0
C482 C 0.82591 0.30021 0.90001 0.0
C483 C 0.81023 0.31483 0.90347 0.0
C484 C 0.79349 0.31507 0.88716 0.0
C485 C 0.79322 0.30193 0.86694 0.0
C486 C 0.84136 0.29997 0.82958 0.0
C487 C 0.86259 0.29655 0.83367 0.0
C488 C 0.87582 0.31262 0.84 0.0
C489 C 0.86801 0.3324 0.84237 0.0
C490 C 0.84671 0.33576 0.83813 0.0
C491 C 0.83353 0.31968 0.83172 0.0
C492 C 0.8445 0.27949 0.78285 0.0
C493 C 0.86121 0.26716 0.77543 0.0
C494 C 0.87428 0.27294 0.75692 0.0
C495 C 0.87104 0.29132 0.74576 0.0
C496 C 0.85473 0.30397 0.75397 0.0
C497 C 0.84149 0.29803 0.77222 0.0
C498 C 0.81815 0.24546 0.77076 0.0
C499 C 0.82751 0.22641 0.76816 0.0
C500 C 0.83056 0.21745 0.74528 0.0
C501 C 0.8242 0.22737 0.72465 0.0
C502 C 0.81438 0.24624 0.72744 0.0
C503 C 0.81143 0.25521 0.75029 0.0
C504 C 0.78905 0.23091 0.80649 0.0
C505 C 0.79233 0.21452 0.82112 0.0
C506 C 0.78395 0.19566 0.81478 0.0
C507 C 0.77235 0.19281 0.7935 0.0
C508 C 0.76788 0.20964 0.7798 0.0
C509 C 0.77601 0.22858 0.78639 0.0
C510 C 0.77912 0.25751 0.84762 0.0
C511 C 0.78041 0.25009 0.87079 0.0
C512 C 0.76236 0.24816 0.88462 0.0
C513 C 0.74291 0.25388 0.87549 0.0
C514 C 0.74171 0.26085 0.85208 0.0
C515 C 0.75964 0.26257 0.83825 0.0
C516 C 0.88208 0.34942 0.84923 0.0
C517 C 0.82804 0.21833 0.70025 0.0
H518 H 0.92061 0.68956 0.81738 0.0
H519 H 0.72798 0.72304 0.96692 0.0
H520 H 0.84964 0.7799 0.81551 0.0
H521 H 0.8704 0.78656 0.77976 0.0
H522 H 0.82419 0.75613 0.73512 0.0
H523 H 0.80337 0.74972 0.77102 0.0
H524 H 0.85654 0.74484 0.85529 0.0
H525 H 0.88694 0.72402 0.84493 0.0
H526 H 0.8527 0.69587 0.78569 0.0
H527 H 0.82235 0.71665 0.79641 0.0
H528 H 0.82534 0.74582 0.89863 0.0
H529 H 0.83122 0.71932 0.92715 0.0
H530 H 0.80906 0.67482 0.87438 0.0
H531 H 0.80347 0.70144 0.84591 0.0
H532 H 0.78994 0.77917 0.90045 0.0
H533 H 0.77148 0.77423 0.93819 0.0
H534 H 0.7473 0.71754 0.90906 0.0
H535 H 0.76562 0.7228 0.87134 0.0
H536 H 0.78561 0.80985 0.85609 0.0
H537 H 0.75689 0.83195 0.86868 0.0
H538 H 0.71479 0.78105 0.86382 0.0
H539 H 0.74338 0.75946 0.84966 0.0
H540 H 0.81348 0.80835 0.81468 0.0
H541 H 0.8006 0.83469 0.7891 0.0
H542 H 0.74767 0.7973 0.76928 0.0
H543 H 0.76049 0.77127 0.79544 0.0
O544 O 0.90839 0.69759 0.82121 0.0
O545 O 0.89012 0.68362 0.79097 0.0
O546 O 0.74799 0.7548 0.96619 0.0
O547 O 0.73534 0.72544 0.95214 0.0
C548 C 0.8127 0.76034 0.81753 0.0
C549 C 0.81893 0.74498 0.83285 0.0
C550 C 0.80777 0.74188 0.85423 0.0
C551 C 0.79053 0.7543 0.86041 0.0
C552 C 0.78427 0.7696 0.84503 0.0
C553 C 0.79516 0.7724 0.82339 0.0
C554 C 0.82507 0.76432 0.79578 0.0
C555 C 0.844 0.77474 0.79799 0.0
C556 C 0.85575 0.77861 0.7776 0.0
C557 C 0.84886 0.77187 0.75471 0.0
C558 C 0.82989 0.76137 0.75257 0.0
C559 C 0.81799 0.75776 0.77297 0.0
C560 C 0.83729 0.73225 0.82659 0.0
C561 C 0.85563 0.73412 0.84014 0.0
C562 C 0.87298 0.72223 0.83415 0.0
C563 C 0.87226 0.70829 0.81446 0.0
C564 C 0.85379 0.70647 0.80094 0.0
C565 C 0.83645 0.71834 0.80699 0.0
C566 C 0.81391 0.72554 0.87026 0.0
C567 C 0.82206 0.7303 0.89315 0.0
C568 C 0.82526 0.71517 0.90945 0.0
C569 C 0.82042 0.69497 0.90312 0.0
C570 C 0.81313 0.69017 0.87975 0.0
C571 C 0.8099 0.70535 0.86347 0.0
C572 C 0.77911 0.75134 0.8832 0.0
C573 C 0.78057 0.76575 0.90224 0.0
C574 C 0.77005 0.76286 0.92378 0.0
C575 C 0.75793 0.74546 0.92665 0.0
C576 C 0.75651 0.73108 0.90747 0.0
C577 C 0.76698 0.73403 0.88592 0.0
C578 C 0.76658 0.78306 0.85193 0.0
C579 C 0.77009 0.80359 0.85735 0.0
C580 C 0.75368 0.81614 0.86483 0.0
C581 C 0.73347 0.80832 0.86742 0.0
C582 C 0.73002 0.78772 0.86169 0.0
C583 C 0.74639 0.77527 0.85384 0.0
C584 C 0.78797 0.7879 0.8068 0.0
C585 C 0.79921 0.80582 0.80463 0.0
C586 C 0.79182 0.82082 0.78995 0.0
C587 C 0.77306 0.81814 0.77709 0.0
C588 C 0.76198 0.80001 0.77918 0.0
C589 C 0.76936 0.78505 0.79394 0.0
C590 C 0.89074 0.69573 0.8081 0.0
C591 C 0.74682 0.74226 0.94954 0.0
C592 C 0.99613 0.35024 0.54762 0.0
C593 C 0.04269 0.36718 0.48324 0.0
O594 O 0.99486 0.36899 0.54306 0.0
Zn595 Zn 0.00974 0.38933 0.51925 0.0
O596 O 0.00901 0.33899 0.53621 0.0
Zn597 Zn 0.01955 0.35894 0.51552 0.0
O598 O 0.0384 0.37769 0.53886 0.0
O599 O 0.02444 0.40806 0.54105 0.0
O600 O 0.03924 0.35008 0.49184 0.0
O601 O 0.03281 0.38277 0.49161 0.0
O602 O 0.98621 0.39893 0.50114 0.0
O603 O 0.99304 0.36663 0.49426 0.0
C604 C 0.03871 0.396 0.54709 0.0
C605 C 0.9819 0.3822 0.49036 0.0
C606 C 0.75453 0.02922 0.62443 0.0
C607 C 0.76032 0.98198 0.55597 0.0
O608 O 0.77096 0.02308 0.61375 0.0
Zn609 Zn 0.75764 0.00575 0.59001 0.0
O610 O 0.73668 0.02281 0.61712 0.0
Zn611 Zn 0.72464 0.00227 0.58968 0.0
O612 O 0.71178 0.98143 0.60855 0.0
O613 O 0.74602 0.98236 0.61123 0.0
O614 O 0.74133 0.98499 0.56236 0.0
O615 O 0.77495 0.991 0.56737 0.0
O616 O 0.74108 0.02628 0.5682 0.0
O617 O 0.70748 0.01975 0.5708 0.0
C618 C 0.72862 0.97449 0.61698 0.0
C619 C 0.72221 0.03012 0.56234 0.0
C620 C 0.98857 0.79947 0.55756 0.0
C621 C 0.04324 0.81476 0.50048 0.0
O622 O 0.99341 0.81653 0.54964 0.0
Zn623 Zn 0.01562 0.80716 0.52879 0.0
O624 O 0.99859 0.78367 0.55016 0.0
Zn625 Zn 0.02399 0.77627 0.52596 0.0
O626 O 0.0443 0.76517 0.54726 0.0
O627 O 0.03843 0.79767 0.55417 0.0
O628 O 0.04265 0.79592 0.50478 0.0
O629 O 0.03015 0.82672 0.51051 0.0
O630 O 0.99945 0.78964 0.50167 0.0
O631 O 0.0109 0.75833 0.50231 0.0
C632 C 0.0479 0.7814 0.55943 0.0
C633 C 0.99899 0.77134 0.49339 0.0
C634 C 0.34977 0.19375 0.5316 0.0
C635 C 0.32937 0.14122 0.47277 0.0
O636 O 0.36161 0.18422 0.51684 0.0
Zn637 Zn 0.33997 0.16866 0.50024 0.0
O638 O 0.33001 0.19128 0.53036 0.0
Zn639 Zn 0.3082 0.17435 0.50891 0.0
O640 O 0.29379 0.15964 0.53298 0.0
O641 O 0.32675 0.15081 0.52802 0.0
O642 O 0.31381 0.15031 0.48275 0.0
O643 O 0.3478 0.14718 0.47754 0.0
O644 O 0.32503 0.1899 0.47793 0.0
O645 O 0.29305 0.19422 0.49157 0.0
C646 C 0.30914 0.14861 0.53848 0.0
C647 C 0.30716 0.19843 0.47664 0.0
C648 C 0.49988 0.89825 0.04614 0.0
C649 C 0.55547 0.8851 0.9882 0.0
O650 O 0.51294 0.9108 0.03833 0.0
Zn651 Zn 0.52769 0.89193 0.01716 0.0
O652 O 0.50056 0.87979 0.03845 0.0
Zn653 Zn 0.51875 0.86129 0.01392 0.0
O654 O 0.53021 0.84166 0.03445 0.0
O655 O 0.5424 0.87235 0.04204 0.0
O656 O 0.54466 0.86932 0.99205 0.0
O657 O 0.5511 0.90167 0.99925 0.0
O658 O 0.50458 0.88472 0.98991 0.0
O659 O 0.4986 0.85201 0.99081 0.0
C660 C 0.54191 0.85358 0.0467 0.0
C661 C 0.49487 0.86892 0.98188 0.0
C662 C 0.24763 0.68888 0.03847 0.0
C663 C 0.26541 0.63369 0.98174 0.0
O664 O 0.26539 0.68093 0.0347 0.0
Zn665 Zn 0.25707 0.66172 0.00961 0.0
O666 O 0.2319 0.68257 0.02612 0.0
Zn667 Zn 0.22543 0.66025 0.99815 0.0
O668 O 0.20581 0.64253 0.01339 0.0
O669 O 0.23759 0.64153 0.02842 0.0
O670 O 0.24612 0.63869 0.98089 0.0
O671 O 0.27764 0.64339 0.99596 0.0
O672 O 0.24961 0.68015 0.98014 0.0
O673 O 0.21619 0.67629 0.97194 0.0
C674 C 0.21865 0.63543 0.02825 0.0
C675 C 0.23363 0.68441 0.9675 0.0
C676 C 0.54892 0.27705 0.99793 0.0
C677 C 0.48938 0.28724 0.05131 0.0
O678 O 0.54611 0.29562 0.0043 0.0
Zn679 Zn 0.52479 0.31335 0.02583 0.0
O680 O 0.53627 0.26382 0.00496 0.0
Zn681 Zn 0.51857 0.28198 0.02386 0.0
O682 O 0.50242 0.29921 0.99755 0.0
O683 O 0.51248 0.33084 0.00303 0.0
O684 O 0.49593 0.27072 0.04177 0.0
O685 O 0.49865 0.30377 0.04668 0.0
O686 O 0.54296 0.32514 0.05025 0.0
O687 O 0.53949 0.29218 0.05216 0.0
C688 C 0.5016 0.31767 0.9916 0.0
C689 C 0.54752 0.30883 0.0602 0.0
C690 C 0.84009 0.52895 0.13849 0.0
C691 C 0.83896 0.48052 0.07098 0.0
O692 O 0.85542 0.51925 0.12939 0.0
Zn693 Zn 0.83976 0.50518 0.10446 0.0
O694 O 0.82189 0.52679 0.12922 0.0
Zn695 Zn 0.80749 0.51001 0.09987 0.0
O696 O 0.78712 0.4939 0.11563 0.0
O697 O 0.81954 0.48619 0.12477 0.0
O698 O 0.82109 0.48859 0.07485 0.0
O699 O 0.85437 0.48572 0.08411 0.0
O700 O 0.83178 0.52925 0.08095 0.0
O701 O 0.79748 0.53078 0.07988 0.0
C702 C 0.79989 0.48337 0.12719 0.0
C703 C 0.81503 0.53745 0.07334 0.0
H704 H 0.17899 0.41737 0.32799 0.0
H705 H 0.15337 0.41413 0.36002 0.0
H706 H 0.16719 0.35066 0.36268 0.0
H707 H 0.19306 0.35383 0.33084 0.0
H708 H 0.12572 0.35787 0.35869 0.0
H709 H 0.1824 0.38258 0.40755 0.0
H710 H 0.21072 0.40581 0.42 0.0
H711 H 0.16671 0.45417 0.42956 0.0
H712 H 0.13814 0.4313 0.4168 0.0
H713 H 0.06728 0.33765 0.4627 0.0
H714 H 0.09506 0.34154 0.43339 0.0
H715 H 0.0823 0.4053 0.43213 0.0
H716 H 0.05464 0.40162 0.46176 0.0
H717 H 0.12348 0.39803 0.43573 0.0
H718 H 0.06707 0.37398 0.38604 0.0
H719 H 0.03849 0.35111 0.37342 0.0
H720 H 0.08176 0.30201 0.36506 0.0
H721 H 0.11058 0.32454 0.37795 0.0
C722 C 0.17691 0.40282 0.33576 0.0
C723 C 0.18798 0.38583 0.32685 0.0
C724 C 0.16223 0.40098 0.35401 0.0
C725 C 0.15845 0.38217 0.36372 0.0
C726 C 0.16986 0.3653 0.35532 0.0
C727 C 0.18455 0.36712 0.3371 0.0
C728 C 0.14167 0.37983 0.38155 0.0
C729 C 0.12539 0.36641 0.37572 0.0
C730 C 0.14098 0.39145 0.40338 0.0
C731 C 0.15815 0.40526 0.41096 0.0
C732 C 0.17878 0.39821 0.41207 0.0
C733 C 0.19487 0.41131 0.41924 0.0
C734 C 0.19052 0.43146 0.4255 0.0
C735 C 0.17006 0.43856 0.42466 0.0
C736 C 0.15391 0.42554 0.41748 0.0
C737 C 0.07027 0.35249 0.45609 0.0
C738 C 0.05871 0.36932 0.46451 0.0
C739 C 0.08613 0.35467 0.4393 0.0
C740 C 0.0906 0.37368 0.43047 0.0
C741 C 0.07906 0.3905 0.43875 0.0
C742 C 0.06321 0.38834 0.45559 0.0
C743 C 0.10758 0.37603 0.41288 0.0
C744 C 0.12385 0.38947 0.41872 0.0
C745 C 0.10824 0.36449 0.39099 0.0
C746 C 0.09095 0.35091 0.38319 0.0
C747 C 0.07047 0.35827 0.3817 0.0
C748 C 0.05423 0.34538 0.37446 0.0
C749 C 0.05829 0.32511 0.3685 0.0
C750 C 0.07863 0.31771 0.36971 0.0
C751 C 0.09492 0.33053 0.37696 0.0
H752 H 0.0457 0.31515 0.3629 0.0
H753 H 0.20301 0.44157 0.43106 0.0
H754 H 0.74295 0.17679 0.4292 0.0
H755 H 0.74043 0.14745 0.45394 0.0
H756 H 0.67385 0.14613 0.44378 0.0
H757 H 0.67627 0.17552 0.4186 0.0
H758 H 0.68514 0.14023 0.49089 0.0
H759 H 0.70272 0.11244 0.4133 0.0
H760 H 0.72234 0.10938 0.37531 0.0
H761 H 0.7783 0.09684 0.41419 0.0
H762 H 0.75908 0.10012 0.45247 0.0
H763 H 0.68446 0.04302 0.54505 0.0
H764 H 0.67846 0.07005 0.51705 0.0
H765 H 0.74457 0.08128 0.51435 0.0
H766 H 0.7507 0.0544 0.54184 0.0
H767 H 0.72813 0.07987 0.47028 0.0
H768 H 0.71146 0.11183 0.54774 0.0
H769 H 0.69219 0.11552 0.58595 0.0
H770 H 0.63465 0.12025 0.54727 0.0
H771 H 0.65357 0.11632 0.50881 0.0
C772 C 0.72777 0.17017 0.43197 0.0
C773 C 0.70984 0.17836 0.42165 0.0
C774 C 0.72635 0.15343 0.44621 0.0
C775 C 0.70699 0.14442 0.4504 0.0
C776 C 0.68895 0.15283 0.44069 0.0
C777 C 0.69036 0.16964 0.42637 0.0
C778 C 0.70588 0.12616 0.46486 0.0
C779 C 0.6942 0.12686 0.48617 0.0
C780 C 0.71785 0.1088 0.45879 0.0
C781 C 0.72946 0.10666 0.43578 0.0
C782 C 0.71924 0.10916 0.41377 0.0
C783 C 0.73029 0.10737 0.39218 0.0
C784 C 0.75156 0.10295 0.39234 0.0
C785 C 0.76182 0.10027 0.41409 0.0
C786 C 0.75085 0.10207 0.43575 0.0
C787 C 0.69769 0.05128 0.53849 0.0
C788 C 0.71806 0.04653 0.5457 0.0
C789 C 0.69424 0.06675 0.52255 0.0
C790 C 0.71108 0.07774 0.51367 0.0
C791 C 0.73135 0.07296 0.52087 0.0
C792 C 0.73481 0.05759 0.5367 0.0
C793 C 0.70796 0.09419 0.49674 0.0
C794 C 0.7188 0.09311 0.47486 0.0
C795 C 0.69524 0.11116 0.50232 0.0
C796 C 0.68389 0.11352 0.52542 0.0
C797 C 0.69468 0.11348 0.54739 0.0
C798 C 0.68383 0.11565 0.56909 0.0
C799 C 0.6622 0.11805 0.56904 0.0
C800 C 0.6514 0.11834 0.54729 0.0
C801 C 0.66217 0.11615 0.52553 0.0
H802 H 0.65383 0.11974 0.58586 0.0
H803 H 0.76009 0.10157 0.3756 0.0
H804 H 0.84411 0.7882 0.36972 0.0
H805 H 0.87737 0.78351 0.38982 0.0
H806 H 0.87151 0.71906 0.37925 0.0
H807 H 0.83838 0.7236 0.35823 0.0
H808 H 0.88398 0.73312 0.42709 0.0
H809 H 0.90434 0.739 0.34551 0.0
H810 H 0.90425 0.75371 0.30559 0.0
H811 H 0.92754 0.80959 0.33648 0.0
H812 H 0.92745 0.79533 0.37667 0.0
H813 H 0.98693 0.73331 0.47765 0.0
H814 H 0.9592 0.72465 0.44867 0.0
H815 H 0.94918 0.78786 0.43759 0.0
H816 H 0.97674 0.79657 0.46609 0.0
H817 H 0.9473 0.76589 0.39573 0.0
H818 H 0.91965 0.76277 0.47695 0.0
H819 H 0.91843 0.74969 0.51773 0.0
H820 H 0.90812 0.68982 0.48799 0.0
H821 H 0.90957 0.70254 0.44699 0.0
C822 C 0.84995 0.77302 0.37136 0.0
C823 C 0.83866 0.75629 0.36212 0.0
C824 C 0.86891 0.77037 0.38297 0.0
C825 C 0.87694 0.75096 0.38572 0.0
C826 C 0.86553 0.73415 0.3772 0.0
C827 C 0.84658 0.73679 0.36533 0.0
C828 C 0.89733 0.74859 0.39757 0.0
C829 C 0.898 0.73978 0.41999 0.0
C830 C 0.91548 0.7575 0.38832 0.0
C831 C 0.91579 0.7661 0.36414 0.0
C832 C 0.90931 0.75447 0.34382 0.0
C833 C 0.90931 0.76272 0.32114 0.0
C834 C 0.91586 0.78257 0.31851 0.0
C835 C 0.92247 0.7942 0.33855 0.0
C836 C 0.92248 0.78603 0.36128 0.0
C837 C 0.97899 0.74531 0.46875 0.0
C838 C 0.98388 0.76562 0.47431 0.0
C839 C 0.96314 0.74035 0.45229 0.0
C840 C 0.95204 0.75564 0.44116 0.0
C841 C 0.95757 0.77583 0.44594 0.0
C842 C 0.97326 0.78078 0.46237 0.0
C843 C 0.93377 0.75109 0.42567 0.0
C844 C 0.93349 0.75864 0.40252 0.0
C845 C 0.91595 0.74116 0.43434 0.0
C846 C 0.915 0.73355 0.45894 0.0
C847 C 0.91729 0.74679 0.47912 0.0
C848 C 0.91653 0.73945 0.50226 0.0
C849 C 0.91327 0.71892 0.50545 0.0
C850 C 0.9107 0.70571 0.48549 0.0
C851 C 0.91149 0.71297 0.4623 0.0
H852 H 0.91268 0.71327 0.52338 0.0
H853 H 0.91584 0.78894 0.30093 0.0
H854 H 0.24174 0.98635 0.37839 0.0
H855 H 0.25477 0.01681 0.3996 0.0
H856 H 0.317 0.9924 0.39783 0.0
H857 H 0.30426 0.96213 0.37611 0.0
H858 H 0.30515 0.01486 0.44253 0.0
H859 H 0.30579 0.0205 0.35606 0.0
H860 H 0.28944 0.01841 0.31596 0.0
H861 H 0.24461 0.06319 0.33865 0.0
H862 H 0.26038 0.06525 0.37906 0.0
H863 H 0.35619 0.10981 0.46293 0.0
H864 H 0.34725 0.07672 0.44445 0.0
H865 H 0.28459 0.09738 0.4321 0.0
H866 H 0.29336 0.13027 0.45036 0.0
H867 H 0.29901 0.07571 0.39412 0.0
H868 H 0.29529 0.07019 0.47935 0.0
H869 H 0.30744 0.07142 0.52137 0.0
H870 H 0.35391 0.02676 0.50361 0.0
H871 H 0.34232 0.02555 0.46134 0.0
C872 C 0.25814 0.98733 0.38287 0.0
C873 C 0.27197 0.97188 0.37547 0.0
C874 C 0.26553 0.00468 0.39504 0.0
C875 C 0.28685 0.00685 0.40003 0.0
C876 C 0.30048 0.99091 0.3942 0.0
C877 C 0.29313 0.97359 0.3819 0.0
C878 C 0.29514 0.02652 0.40896 0.0
C879 C 0.30416 0.02814 0.43188 0.0
C880 C 0.29336 0.04383 0.39514 0.0
C881 C 0.28417 0.0429 0.37066 0.0
C882 C 0.29236 0.02979 0.35256 0.0
C883 C 0.2832 0.02862 0.32978 0.0
C884 C 0.266 0.04063 0.32478 0.0
C885 C 0.25793 0.05388 0.34255 0.0
C886 C 0.26697 0.05506 0.3654 0.0
C887 C 0.34065 0.10739 0.4558 0.0
C888 C 0.32545 0.12258 0.45813 0.0
C889 C 0.33551 0.08844 0.4455 0.0
C890 C 0.31517 0.08454 0.43726 0.0
C891 C 0.30035 0.10005 0.43844 0.0
C892 C 0.3054 0.11884 0.44887 0.0
C893 C 0.30894 0.06423 0.42788 0.0
C894 C 0.3003 0.06244 0.40477 0.0
C895 C 0.31076 0.04689 0.44176 0.0
C896 C 0.31815 0.04802 0.46705 0.0
C897 C 0.30831 0.06085 0.4843 0.0
C898 C 0.31505 0.0615 0.5082 0.0
C899 C 0.3315 0.04924 0.51513 0.0
C900 C 0.34123 0.0363 0.49819 0.0
C901 C 0.33459 0.03565 0.47426 0.0
H902 H 0.33666 0.0497 0.53364 0.0
H903 H 0.25894 0.03969 0.30712 0.0
H904 H 0.20454 0.80702 0.70505 0.0
H905 H 0.17656 0.78712 0.68588 0.0
H906 H 0.14081 0.84131 0.67729 0.0
H907 H 0.16885 0.86138 0.69526 0.0
H908 H 0.11687 0.80732 0.69203 0.0
H909 H 0.16963 0.82567 0.63293 0.0
H910 H 0.20552 0.82549 0.61715 0.0
H911 H 0.20547 0.76075 0.61383 0.0
H912 H 0.16964 0.76058 0.62994 0.0
H913 H 0.0543 0.81219 0.59219 0.0
H914 H 0.07989 0.81427 0.62427 0.0
H915 H 0.10102 0.75406 0.60504 0.0
H916 H 0.07528 0.75188 0.57239 0.0
H917 H 0.13306 0.78014 0.60983 0.0
H918 H 0.07683 0.76213 0.65861 0.0
H919 H 0.041 0.76197 0.67444 0.0
H920 H 0.04704 0.82412 0.6978 0.0
H921 H 0.08287 0.82473 0.68196 0.0
C922 C 0.19071 0.81472 0.69912 0.0
C923 C 0.18907 0.83587 0.70156 0.0
C924 C 0.17468 0.80328 0.6884 0.0
C925 C 0.15669 0.81279 0.6802 0.0
C926 C 0.15452 0.8337 0.68374 0.0
C927 C 0.17059 0.84515 0.69413 0.0
C928 C 0.14091 0.80156 0.66576 0.0
C929 C 0.12033 0.80123 0.67411 0.0
C930 C 0.14569 0.79298 0.64277 0.0
C931 C 0.16711 0.79311 0.63292 0.0
C932 C 0.17735 0.81141 0.62902 0.0
C933 C 0.19766 0.81137 0.61999 0.0
C934 C 0.2078 0.79312 0.61457 0.0
C935 C 0.19761 0.77487 0.61809 0.0
C936 C 0.17731 0.77483 0.62717 0.0
C937 C 0.06423 0.79928 0.59481 0.0
C938 C 0.06282 0.7819 0.57964 0.0
C939 C 0.07874 0.80042 0.61336 0.0
C940 C 0.09214 0.7842 0.6173 0.0
C941 C 0.09068 0.76668 0.60241 0.0
C942 C 0.076 0.76547 0.58379 0.0
C943 C 0.10873 0.78666 0.63566 0.0
C944 C 0.12954 0.78545 0.62805 0.0
C945 C 0.10415 0.79367 0.65941 0.0
C946 C 0.08257 0.79348 0.66902 0.0
C947 C 0.07049 0.77581 0.667 0.0
C948 C 0.05018 0.77562 0.67601 0.0
C949 C 0.04174 0.79302 0.68709 0.0
C950 C 0.05361 0.81064 0.68924 0.0
C951 C 0.07396 0.81089 0.68031 0.0
H952 H 0.02599 0.79285 0.69403 0.0
H953 H 0.22352 0.79312 0.60757 0.0
H954 H 0.36876 0.34768 0.67353 0.0
H955 H 0.38215 0.32251 0.64458 0.0
H956 H 0.35445 0.27532 0.68489 0.0
H957 H 0.34235 0.30029 0.71503 0.0
H958 H 0.38821 0.26127 0.66322 0.0
H959 H 0.32775 0.29853 0.64043 0.0
H960 H 0.30792 0.32945 0.6333 0.0
H961 H 0.35119 0.34483 0.57819 0.0
H962 H 0.37162 0.31415 0.58549 0.0
H963 H 0.33626 0.19738 0.57734 0.0
H964 H 0.34723 0.22206 0.60856 0.0
H965 H 0.39252 0.24598 0.56019 0.0
H966 H 0.38204 0.2206 0.52892 0.0
H967 H 0.35862 0.27351 0.58281 0.0
H968 H 0.4138 0.22865 0.60231 0.0
H969 H 0.42923 0.19576 0.61109 0.0
H970 H 0.38999 0.19197 0.67312 0.0
H971 H 0.37408 0.2247 0.66453 0.0
C972 C 0.36616 0.33194 0.67687 0.0
C973 C 0.35403 0.32611 0.69647 0.0
C974 C 0.3737 0.31753 0.66008 0.0
C975 C 0.36878 0.29708 0.66217 0.0
C976 C 0.35827 0.29104 0.68275 0.0
C977 C 0.35106 0.3054 0.6998 0.0
C978 C 0.37198 0.28243 0.64164 0.0
C979 C 0.38185 0.26398 0.64561 0.0
C980 C 0.36381 0.286 0.61855 0.0
C981 C 0.35136 0.30421 0.61373 0.0
C982 C 0.3331 0.30857 0.6269 0.0
C983 C 0.32176 0.32606 0.62283 0.0
C984 C 0.3283 0.33914 0.60532 0.0
C985 C 0.34618 0.33471 0.5918 0.0
C986 C 0.35767 0.31729 0.59592 0.0
C987 C 0.34884 0.20765 0.57352 0.0
C988 C 0.35828 0.20723 0.55079 0.0
C989 C 0.35515 0.22163 0.59137 0.0
C990 C 0.37073 0.2357 0.58665 0.0
C991 C 0.3806 0.23506 0.56415 0.0
C992 C 0.37463 0.22063 0.54639 0.0
C993 C 0.37459 0.25234 0.60451 0.0
C994 C 0.36573 0.27111 0.60014 0.0
C995 C 0.38308 0.24878 0.62735 0.0
C996 C 0.39267 0.22911 0.63268 0.0
C997 C 0.40833 0.22074 0.61772 0.0
C998 C 0.41719 0.20213 0.62269 0.0
C999 C 0.41058 0.19177 0.64263 0.0
C1000 C 0.39511 0.20001 0.65768 0.0
C1001 C 0.38619 0.21862 0.65279 0.0
H1002 H 0.41746 0.17736 0.64645 0.0
H1003 H 0.31949 0.35269 0.60219 0.0
H1004 H 0.91299 0.28514 0.7393 0.0
H1005 H 0.93404 0.2933 0.70459 0.0
H1006 H 0.88018 0.31927 0.67131 0.0
H1007 H 0.85874 0.30997 0.70519 0.0
H1008 H 0.90049 0.29788 0.63933 0.0
H1009 H 0.9194 0.34862 0.69879 0.0
H1010 H 0.93151 0.36214 0.73825 0.0
H1011 H 0.98984 0.33128 0.72829 0.0
H1012 H 0.97796 0.31735 0.68889 0.0
H1013 H 0.95731 0.36282 0.56078 0.0
H1014 H 0.93558 0.35 0.59297 0.0
H1015 H 0.98309 0.30661 0.60882 0.0
H1016 H 0.00467 0.31892 0.57615 0.0
H1017 H 0.96674 0.33582 0.64889 0.0
H1018 H 0.94635 0.28553 0.58823 0.0
H1019 H 0.93279 0.27271 0.5491 0.0
H1020 H 0.876 0.30573 0.56119 0.0
H1021 H 0.8893 0.31887 0.60034 0.0
C1022 C 0.90555 0.2924 0.7245 0.0
C1023 C 0.88416 0.29697 0.72513 0.0
C1024 C 0.91768 0.29728 0.70478 0.0
C1025 C 0.90876 0.30717 0.68549 0.0
C1026 C 0.88742 0.31171 0.68602 0.0
C1027 C 0.87524 0.30661 0.70558 0.0
C1028 C 0.92158 0.31259 0.66458 0.0
C1029 C 0.91484 0.3064 0.64145 0.0
C1030 C 0.9405 0.3234 0.66732 0.0
C1031 C 0.9477 0.33177 0.691 0.0
C1032 C 0.93474 0.34458 0.7051 0.0
C1033 C 0.94158 0.35234 0.72744 0.0
C1034 C 0.96141 0.34752 0.7358 0.0
C1035 C 0.97447 0.33497 0.7218 0.0
C1036 C 0.9677 0.32715 0.69946 0.0
C1037 C 0.96303 0.35044 0.57103 0.0
C1038 C 0.98269 0.34192 0.56617 0.0
C1039 C 0.95059 0.34309 0.58925 0.0
C1040 C 0.95781 0.32739 0.60312 0.0
C1041 C 0.97731 0.3187 0.59816 0.0
C1042 C 0.98956 0.32572 0.57955 0.0
C1043 C 0.94558 0.3211 0.62388 0.0
C1044 C 0.95241 0.32724 0.64692 0.0
C1045 C 0.9266 0.31056 0.62104 0.0
C1046 C 0.91891 0.30333 0.59711 0.0
C1047 C 0.93108 0.29025 0.58242 0.0
C1048 C 0.92338 0.28281 0.56031 0.0
C1049 C 0.90351 0.28832 0.55272 0.0
C1050 C 0.89135 0.3014 0.56715 0.0
C1051 C 0.89895 0.30883 0.5893 0.0
H1052 H 0.89758 0.28256 0.5356 0.0
H1053 H 0.96667 0.35355 0.7531 0.0
H1054 H 0.73257 0.83042 0.77115 0.0
H1055 H 0.71975 0.8571 0.74589 0.0
H1056 H 0.78261 0.86929 0.72349 0.0
H1057 H 0.79551 0.84238 0.74807 0.0
H1058 H 0.76056 0.90391 0.73767 0.0
H1059 H 0.75062 0.84331 0.68684 0.0
H1060 H 0.73619 0.80949 0.67736 0.0
H1061 H 0.67409 0.83278 0.68565 0.0
H1062 H 0.68819 0.86671 0.69549 0.0
H1063 H 0.76246 0.95455 0.63278 0.0
H1064 H 0.76396 0.92864 0.66216 0.0
H1065 H 0.69708 0.9302 0.66912 0.0
H1066 H 0.69535 0.95645 0.63917 0.0
H1067 H 0.71406 0.89067 0.6676 0.0
H1068 H 0.72357 0.9522 0.71231 0.0
H1069 H 0.73768 0.98622 0.72118 0.0
H1070 H 0.79942 0.9618 0.72547 0.0
H1071 H 0.78574 0.92764 0.71622 0.0
C1072 C 0.74365 0.8386 0.76061 0.0
C1073 C 0.7651 0.83424 0.76167 0.0
C1074 C 0.73629 0.8539 0.74629 0.0
C1075 C 0.75023 0.86514 0.73283 0.0
C1076 C 0.7716 0.86087 0.73388 0.0
C1077 C 0.77896 0.84553 0.74804 0.0
C1078 C 0.7428 0.88147 0.71761 0.0
C1079 C 0.75043 0.90102 0.72233 0.0
C1080 C 0.72889 0.87784 0.69818 0.0
C1081 C 0.72045 0.85747 0.69219 0.0
C1082 C 0.73389 0.84118 0.68685 0.0
C1083 C 0.72578 0.822 0.68137 0.0
C1084 C 0.70424 0.81897 0.68098 0.0
C1085 C 0.69077 0.83513 0.686 0.0
C1086 C 0.69881 0.85434 0.69152 0.0
C1087 C 0.74797 0.94945 0.64042 0.0
C1088 C 0.72877 0.95776 0.63378 0.0
C1089 C 0.7489 0.93462 0.65729 0.0
C1090 C 0.73069 0.92778 0.66815 0.0
C1091 C 0.71133 0.93541 0.66103 0.0
C1092 C 0.71037 0.95039 0.64397 0.0
C1093 C 0.73247 0.91292 0.68718 0.0
C1094 C 0.72378 0.89368 0.68326 0.0
C1095 C 0.74528 0.91685 0.70752 0.0
C1096 C 0.75362 0.93734 0.71346 0.0
C1097 C 0.74018 0.95409 0.71501 0.0
C1098 C 0.7481 0.9734 0.72011 0.0
C1099 C 0.76943 0.97618 0.72386 0.0
C1100 C 0.78289 0.95962 0.72257 0.0
C1101 C 0.77506 0.94027 0.71743 0.0
H1102 H 0.77554 0.99115 0.72779 0.0
H1103 H 0.69799 0.80411 0.67673 0.0
H1104 H 0.86654 0.80727 0.74197 0.0
H1105 H 0.88879 0.81293 0.7071 0.0
H1106 H 0.88256 0.75033 0.68441 0.0
H1107 H 0.86021 0.74461 0.71917 0.0
H1108 H 0.92433 0.7651 0.6858 0.0
H1109 H 0.85683 0.78301 0.65489 0.0
H1110 H 0.8236 0.80164 0.65553 0.0
H1111 H 0.85678 0.85772 0.65392 0.0
H1112 H 0.89024 0.83942 0.65364 0.0
H1113 H 0.96993 0.7651 0.57187 0.0
H1114 H 0.94461 0.76169 0.60406 0.0
H1115 H 0.9448 0.82617 0.61738 0.0
H1116 H 0.96984 0.82977 0.58466 0.0
H1117 H 0.90624 0.81166 0.62153 0.0
H1118 H 0.97313 0.7956 0.65196 0.0
H1119 H 0.00719 0.77854 0.6522 0.0
H1120 H 0.97682 0.72128 0.65749 0.0
H1121 H 0.9425 0.73795 0.65659 0.0
C1122 C 0.86991 0.79475 0.72949 0.0
C1123 C 0.86167 0.77551 0.73321 0.0
C1124 C 0.88251 0.79802 0.70957 0.0
C1125 C 0.88723 0.78206 0.69318 0.0
C1126 C 0.87904 0.76283 0.69686 0.0
C1127 C 0.86621 0.75962 0.7166 0.0
C1128 C 0.90118 0.78527 0.67253 0.0
C1129 C 0.92028 0.77505 0.67155 0.0
C1130 C 0.89615 0.79885 0.65449 0.0
C1131 C 0.87604 0.80985 0.6545 0.0
C1132 C 0.85705 0.79932 0.65489 0.0
C1133 C 0.83817 0.80982 0.65514 0.0
C1134 C 0.83808 0.83086 0.65484 0.0
C1135 C 0.85687 0.84143 0.6542 0.0
C1136 C 0.8758 0.831 0.65397 0.0
C1137 C 0.9645 0.77859 0.58152 0.0
C1138 C 0.97206 0.7977 0.57588 0.0
C1139 C 0.95005 0.77661 0.59997 0.0
C1140 C 0.94312 0.79363 0.61346 0.0
C1141 C 0.95 0.81281 0.60727 0.0
C1142 C 0.96434 0.81484 0.58861 0.0
C1143 C 0.92933 0.79123 0.63455 0.0
C1144 C 0.91032 0.80168 0.63572 0.0
C1145 C 0.93459 0.7781 0.65304 0.0
C1146 C 0.95522 0.76802 0.65397 0.0
C1147 C 0.97369 0.77935 0.65299 0.0
C1148 C 0.99306 0.76975 0.65327 0.0
C1149 C 0.99418 0.74884 0.65488 0.0
C1150 C 0.97593 0.73748 0.65623 0.0
C1151 C 0.9565 0.747 0.65581 0.0
H1152 H 0.00919 0.74143 0.65509 0.0
H1153 H 0.82344 0.83896 0.65504 0.0
H1154 H 0.27052 0.97816 0.62983 0.0
H1155 H 0.27487 0.00874 0.60724 0.0
H1156 H 0.30949 0.03625 0.66632 0.0
H1157 H 0.30528 0.00576 0.68892 0.0
H1158 H 0.28176 0.06194 0.6502 0.0
H1159 H 0.3332 0.01726 0.61577 0.0
H1160 H 0.34744 0.98666 0.5953 0.0
H1161 H 0.3099 0.99721 0.53328 0.0
H1162 H 0.29505 0.02763 0.55357 0.0
H1163 H 0.33922 0.12333 0.55399 0.0
H1164 H 0.33491 0.09411 0.5785 0.0
H1165 H 0.2692 0.1067 0.58514 0.0
H1166 H 0.2734 0.13626 0.56066 0.0
H1167 H 0.31278 0.06121 0.56868 0.0
H1168 H 0.25257 0.08936 0.63955 0.0
H1169 H 0.24214 0.12108 0.66087 0.0
H1170 H 0.30373 0.14485 0.652 0.0
H1171 H 0.31459 0.11319 0.63093 0.0
C1172 C 0.27923 0.99066 0.6379 0.0
C1173 C 0.28754 0.98956 0.66117 0.0
C1174 C 0.28167 0.00813 0.625 0.0
C1175 C 0.2926 0.02474 0.63505 0.0
C1176 C 0.3009 0.02366 0.65826 0.0
C1177 C 0.29844 0.00624 0.67118 0.0
C1178 C 0.29523 0.04338 0.62158 0.0
C1179 C 0.2885 0.06176 0.63234 0.0
C1180 C 0.30423 0.04319 0.59837 0.0
C1181 C 0.31274 0.02457 0.58639 0.0
C1182 C 0.32773 0.0129 0.59792 0.0
C1183 C 0.33596 0.99561 0.58631 0.0
C1184 C 0.3295 0.98994 0.56305 0.0
C1185 C 0.31481 0.00156 0.55134 0.0
C1186 C 0.30645 0.01881 0.56291 0.0
C1187 C 0.32385 0.12008 0.56085 0.0
C1188 C 0.30663 0.13215 0.55534 0.0
C1189 C 0.32142 0.10329 0.5748 0.0
C1190 C 0.30176 0.09823 0.58364 0.0
C1191 C 0.28456 0.11047 0.57867 0.0
C1192 C 0.28698 0.12734 0.56468 0.0
C1193 C 0.29928 0.07968 0.59726 0.0
C1194 C 0.30593 0.06132 0.58648 0.0
C1195 C 0.29061 0.07994 0.62059 0.0
C1196 C 0.2843 0.09898 0.63342 0.0
C1197 C 0.26389 0.10134 0.64221 0.0
C1198 C 0.25791 0.11931 0.65425 0.0
C1199 C 0.27225 0.13499 0.65771 0.0
C1200 C 0.29262 0.13272 0.64922 0.0
C1201 C 0.29868 0.11478 0.63719 0.0
H1202 H 0.26758 0.1489 0.66703 0.0
H1203 H 0.33594 0.97658 0.55407 0.0
H1204 H 0.18484 0.44484 0.70186 0.0
H1205 H 0.15306 0.44611 0.67758 0.0
H1206 H 0.18123 0.40594 0.62401 0.0
H1207 H 0.21318 0.40528 0.64781 0.0
H1208 H 0.16031 0.43267 0.60231 0.0
H1209 H 0.14562 0.39013 0.66837 0.0
H1210 H 0.14253 0.38182 0.71096 0.0
H1211 H 0.09773 0.42927 0.7224 0.0
H1212 H 0.10075 0.43803 0.67991 0.0
H1213 H 0.07654 0.37821 0.55058 0.0
H1214 H 0.10604 0.38904 0.57543 0.0
H1215 H 0.07061 0.43985 0.60359 0.0
H1216 H 0.04083 0.42927 0.5782 0.0
H1217 H 0.0929 0.4141 0.63889 0.0
H1218 H 0.10493 0.45201 0.56878 0.0
H1219 H 0.10776 0.45663 0.52522 0.0
H1220 H 0.15776 0.41371 0.52058 0.0
H1221 H 0.15503 0.40859 0.56407 0.0
C1222 C 0.18422 0.4364 0.68482 0.0
C1223 C 0.20142 0.42494 0.6767 0.0
C1224 C 0.16605 0.43707 0.67099 0.0
C1225 C 0.16457 0.42586 0.64909 0.0
C1226 C 0.18196 0.41477 0.64078 0.0
C1227 C 0.20022 0.41438 0.65438 0.0
C1228 C 0.14482 0.42507 0.63505 0.0
C1229 C 0.14562 0.42856 0.61036 0.0
C1230 C 0.12545 0.42014 0.64554 0.0
C1231 C 0.12361 0.41489 0.67106 0.0
C1232 C 0.13523 0.39889 0.68002 0.0
C1233 C 0.13347 0.39408 0.70413 0.0
C1234 C 0.12 0.40505 0.7194 0.0
C1235 C 0.1082 0.42082 0.71057 0.0
C1236 C 0.10992 0.42571 0.68647 0.0
C1237 C 0.07493 0.3917 0.56205 0.0
C1238 C 0.05632 0.40287 0.56248 0.0
C1239 C 0.09186 0.3979 0.57615 0.0
C1240 C 0.09051 0.41527 0.59121 0.0
C1241 C 0.07192 0.42642 0.59199 0.0
C1242 C 0.05498 0.4204 0.57748 0.0
C1243 C 0.10864 0.42127 0.60627 0.0
C1244 C 0.10755 0.41867 0.63107 0.0
C1245 C 0.12782 0.42661 0.59582 0.0
C1246 C 0.12968 0.42983 0.56969 0.0
C1247 C 0.11643 0.44344 0.55845 0.0
C1248 C 0.11803 0.44617 0.53377 0.0
C1249 C 0.13291 0.43545 0.52013 0.0
C1250 C 0.14625 0.42201 0.53117 0.0
C1251 C 0.1447 0.41921 0.55584 0.0
H1252 H 0.13411 0.43757 0.50103 0.0
H1253 H 0.11865 0.4013 0.73805 0.0
H1254 H 0.79649 0.15901 0.79535 0.0
H1255 H 0.7914 0.12697 0.77338 0.0
H1256 H 0.73254 0.14789 0.74666 0.0
H1257 H 0.737 0.17984 0.76959 0.0
H1258 H 0.73354 0.10557 0.75486 0.0
H1259 H 0.77511 0.15676 0.71616 0.0
H1260 H 0.80452 0.1806 0.71611 0.0
H1261 H 0.84753 0.13178 0.72418 0.0
H1262 H 0.81829 0.10771 0.72487 0.0
H1263 H 0.72372 0.05353 0.64259 0.0
H1264 H 0.7258 0.07772 0.67664 0.0
H1265 H 0.78987 0.06085 0.68817 0.0
H1266 H 0.78811 0.03723 0.65337 0.0
H1267 H 0.78732 0.09895 0.69104 0.0
H1268 H 0.74869 0.04703 0.72654 0.0
H1269 H 0.72091 0.02175 0.73033 0.0
H1270 H 0.67475 0.06857 0.7314 0.0
H1271 H 0.70224 0.09415 0.7273 0.0
C1272 C 0.78204 0.15661 0.78562 0.0
C1273 C 0.76726 0.17216 0.78398 0.0
C1274 C 0.77925 0.13828 0.77292 0.0
C1275 C 0.76181 0.13527 0.75807 0.0
C1276 C 0.74617 0.15001 0.75795 0.0
C1277 C 0.74887 0.16834 0.77082 0.0
C1278 C 0.76137 0.11822 0.74016 0.0
C1279 C 0.74517 0.10411 0.74077 0.0
C1280 C 0.77695 0.11607 0.72229 0.0
C1281 C 0.79451 0.13047 0.72079 0.0
C1282 C 0.79083 0.15113 0.71801 0.0
C1283 C 0.80748 0.16468 0.71789 0.0
C1284 C 0.8279 0.1577 0.72018 0.0
C1285 C 0.83171 0.13716 0.72245 0.0
C1286 C 0.81511 0.12356 0.72272 0.0
C1287 C 0.73823 0.05492 0.65245 0.0
C1288 C 0.75578 0.04354 0.64531 0.0
C1289 C 0.73935 0.06863 0.67206 0.0
C1290 C 0.75788 0.07087 0.6853 0.0
C1291 C 0.77539 0.05936 0.67828 0.0
C1292 C 0.77439 0.0459 0.65838 0.0
C1293 C 0.75936 0.08612 0.70546 0.0
C1294 C 0.77574 0.10008 0.70521 0.0
C1295 C 0.74415 0.08782 0.72389 0.0
C1296 C 0.72754 0.0725 0.72642 0.0
C1297 C 0.73261 0.05194 0.72741 0.0
C1298 C 0.71691 0.03755 0.72964 0.0
C1299 C 0.69607 0.04354 0.73105 0.0
C1300 C 0.6909 0.06395 0.73029 0.0
C1301 C 0.70654 0.07841 0.72805 0.0
H1302 H 0.68394 0.03238 0.73277 0.0
H1303 H 0.8408 0.16818 0.72021 0.0
H1304 H 0.79893 0.35218 0.39469 0.0
H1305 H 0.83007 0.36807 0.41269 0.0
H1306 H 0.86398 0.3124 0.40142 0.0
H1307 H 0.83298 0.29646 0.38354 0.0
H1308 H 0.86825 0.32951 0.44798 0.0
H1309 H 0.87259 0.34967 0.36547 0.0
H1310 H 0.85946 0.36552 0.32917 0.0
H1311 H 0.85418 0.42233 0.36839 0.0
H1312 H 0.86701 0.40674 0.40503 0.0
H1313 H 0.97237 0.35025 0.46035 0.0
H1314 H 0.93972 0.34371 0.43927 0.0
H1315 H 0.91651 0.40196 0.46357 0.0
H1316 H 0.94946 0.40879 0.4849 0.0
H1317 H 0.90459 0.38763 0.41332 0.0
H1318 H 0.90103 0.36888 0.49514 0.0
H1319 H 0.9172 0.35454 0.53079 0.0
H1320 H 0.92081 0.29661 0.49386 0.0
H1321 H 0.905 0.31072 0.45777 0.0
C1322 C 0.81307 0.34338 0.39602 0.0
C1323 C 0.81358 0.32311 0.38762 0.0
C1324 C 0.83083 0.35248 0.40621 0.0
C1325 C 0.84932 0.34141 0.40833 0.0
C1326 C 0.84985 0.3212 0.39994 0.0
C1327 C 0.8322 0.31217 0.38954 0.0
C1328 C 0.86812 0.35067 0.41962 0.0
C1329 C 0.87618 0.34217 0.44033 0.0
C1330 C 0.87813 0.3676 0.4101 0.0
C1331 C 0.87052 0.37698 0.38806 0.0
C1332 C 0.86845 0.3655 0.36641 0.0
C1333 C 0.8611 0.37445 0.34576 0.0
C1334 C 0.85592 0.39491 0.34649 0.0
C1335 C 0.85815 0.40648 0.36786 0.0
C1336 C 0.86547 0.3976 0.38857 0.0
C1337 C 0.96052 0.36188 0.46095 0.0
C1338 C 0.96339 0.37992 0.47464 0.0
C1339 C 0.94189 0.35812 0.44878 0.0
C1340 C 0.92568 0.37226 0.45011 0.0
C1341 C 0.92891 0.3909 0.46234 0.0
C1342 C 0.94768 0.39472 0.47457 0.0
C1343 C 0.90477 0.36619 0.44125 0.0
C1344 C 0.89636 0.37522 0.42113 0.0
C1345 C 0.8942 0.34994 0.45147 0.0
C1346 C 0.90198 0.34089 0.4737 0.0
C1347 C 0.90525 0.35307 0.49463 0.0
C1348 C 0.91439 0.34501 0.51488 0.0
C1349 C 0.92016 0.32473 0.5145 0.0
C1350 C 0.91641 0.31236 0.49405 0.0
C1351 C 0.90731 0.32036 0.4737 0.0
H1352 H 0.92761 0.31866 0.53005 0.0
H1353 H 0.85024 0.40181 0.33049 0.0
H1354 H 0.79126 0.82923 0.40678 0.0
H1355 H 0.7963 0.85587 0.43809 0.0
H1356 H 0.74695 0.8905 0.40694 0.0
H1357 H 0.74259 0.86435 0.37522 0.0
H1358 H 0.7765 0.91461 0.41913 0.0
H1359 H 0.74074 0.8613 0.45854 0.0
H1360 H 0.73563 0.82676 0.47216 0.0
H1361 H 0.79272 0.83096 0.51222 0.0
H1362 H 0.79829 0.86545 0.49858 0.0
H1363 H 0.73482 0.97119 0.51876 0.0
H1364 H 0.74137 0.94596 0.48644 0.0
H1365 H 0.80225 0.93457 0.51563 0.0
H1366 H 0.79601 0.96027 0.54785 0.0
H1367 H 0.7733 0.89911 0.5054 0.0
H1368 H 0.80484 0.95585 0.46886 0.0
H1369 H 0.80624 0.99098 0.45623 0.0
H1370 H 0.75252 0.98062 0.4115 0.0
H1371 H 0.7506 0.94549 0.42415 0.0
C1372 C 0.78156 0.84258 0.40673 0.0
C1373 C 0.76656 0.84484 0.3887 0.0
C1374 C 0.78438 0.85774 0.4246 0.0
C1375 C 0.77184 0.87512 0.42506 0.0
C1376 C 0.7569 0.87732 0.40693 0.0
C1377 C 0.75437 0.86238 0.38886 0.0
C1378 C 0.77392 0.89101 0.44445 0.0
C1379 C 0.77571 0.91117 0.43797 0.0
C1380 C 0.77337 0.88657 0.46911 0.0
C1381 C 0.77006 0.86584 0.47729 0.0
C1382 C 0.75228 0.85479 0.47009 0.0
C1383 C 0.74929 0.83524 0.47784 0.0
C1384 C 0.76388 0.82665 0.49298 0.0
C1385 C 0.78146 0.83761 0.50045 0.0
C1386 C 0.78454 0.85716 0.49272 0.0
C1387 C 0.74968 0.96345 0.51819 0.0
C1388 C 0.76492 0.96764 0.53578 0.0
C1389 C 0.7534 0.94911 0.49972 0.0
C1390 C 0.77228 0.93851 0.49873 0.0
C1391 C 0.78761 0.94269 0.51616 0.0
C1392 C 0.78406 0.95738 0.53442 0.0
C1393 C 0.77537 0.92251 0.47993 0.0
C1394 C 0.7745 0.90239 0.48653 0.0
C1395 C 0.7763 0.92699 0.4554 0.0
C1396 C 0.7775 0.94807 0.4476 0.0
C1397 C 0.79322 0.96111 0.45649 0.0
C1398 C 0.79413 0.98101 0.44929 0.0
C1399 C 0.77945 0.98804 0.43311 0.0
C1400 C 0.76387 0.97516 0.42405 0.0
C1401 C 0.76289 0.95524 0.4312 0.0
H1402 H 0.78018 0.00346 0.42757 0.0
H1403 H 0.76153 0.81151 0.49897 0.0
H1404 H 0.20432 0.85878 0.37771 0.0
H1405 H 0.17663 0.84802 0.40427 0.0
H1406 H 0.13148 0.88002 0.36318 0.0
H1407 H 0.15878 0.88988 0.33545 0.0
H1408 H 0.13231 0.88585 0.41904 0.0
H1409 H 0.12795 0.83641 0.35245 0.0
H1410 H 0.14298 0.81114 0.32376 0.0
H1411 H 0.16377 0.77609 0.38227 0.0
H1412 H 0.14914 0.80134 0.41132 0.0
H1413 H 0.04134 0.84857 0.4742 0.0
H1414 H 0.06727 0.8605 0.44597 0.0
H1415 H 0.10731 0.81056 0.4621 0.0
H1416 H 0.08089 0.79801 0.48926 0.0
H1417 H 0.10889 0.81459 0.41753 0.0
H1418 H 0.11522 0.86174 0.48437 0.0
H1419 H 0.10344 0.88678 0.51535 0.0
H1420 H 0.08289 0.9258 0.4605 0.0
H1421 H 0.09431 0.90086 0.42918 0.0
C1422 C 0.1885 0.8633 0.37394 0.0
C1423 C 0.1839 0.87513 0.35418 0.0
C1424 C 0.17273 0.85728 0.38934 0.0
C1425 C 0.15209 0.86325 0.38562 0.0
C1426 C 0.14739 0.87538 0.36636 0.0
C1427 C 0.16308 0.88109 0.35062 0.0
C1428 C 0.13543 0.85648 0.40171 0.0
C1429 C 0.12689 0.87036 0.41857 0.0
C1430 C 0.12902 0.83613 0.40149 0.0
C1431 C 0.13765 0.82087 0.38405 0.0
C1432 C 0.13591 0.82341 0.3592 0.0
C1433 C 0.14431 0.80907 0.34287 0.0
C1434 C 0.15438 0.79204 0.35119 0.0
C1435 C 0.156 0.7893 0.37585 0.0
C1436 C 0.14763 0.80361 0.39225 0.0
C1437 C 0.05571 0.84019 0.47173 0.0
C1438 C 0.05912 0.82239 0.48395 0.0
C1439 C 0.0706 0.84708 0.45569 0.0
C1440 C 0.0895 0.83666 0.45213 0.0
C1441 C 0.09289 0.81889 0.46444 0.0
C1442 C 0.0778 0.81175 0.48003 0.0
C1443 C 0.10556 0.84395 0.43525 0.0
C1444 C 0.11411 0.83014 0.41815 0.0
C1445 C 0.11232 0.86431 0.43566 0.0
C1446 C 0.10542 0.87934 0.45444 0.0
C1447 C 0.10805 0.87559 0.47892 0.0
C1448 C 0.10146 0.88978 0.49654 0.0
C1449 C 0.09237 0.90785 0.4899 0.0
C1450 C 0.0899 0.91179 0.46562 0.0
C1451 C 0.09644 0.89764 0.44792 0.0
H1452 H 0.08728 0.91881 0.50357 0.0
H1453 H 0.16087 0.78096 0.33852 0.0
H1454 H 0.29363 0.30257 0.28678 0.0
H1455 H 0.29967 0.27902 0.31877 0.0
H1456 H 0.26057 0.31528 0.36649 0.0
H1457 H 0.25525 0.33922 0.33482 0.0
H1458 H 0.29235 0.30428 0.39021 0.0
H1459 H 0.24423 0.26905 0.33832 0.0
H1460 H 0.23057 0.25448 0.30006 0.0
H1461 H 0.28384 0.21554 0.29338 0.0
H1462 H 0.29797 0.23008 0.33146 0.0
H1463 H 0.27645 0.22698 0.47517 0.0
H1464 H 0.27005 0.2507 0.44334 0.0
H1465 H 0.32184 0.22558 0.40299 0.0
H1466 H 0.32861 0.20213 0.43485 0.0
H1467 H 0.28302 0.23055 0.37619 0.0
H1468 H 0.33035 0.26723 0.42954 0.0
H1469 H 0.34179 0.2816 0.46887 0.0
H1470 H 0.2863 0.31764 0.47388 0.0
H1471 H 0.27438 0.30324 0.43471 0.0
C1472 C 0.28631 0.30541 0.3041 0.0
C1473 C 0.27398 0.32265 0.30838 0.0
C1474 C 0.28967 0.29193 0.32235 0.0
C1475 C 0.2803 0.29515 0.345 0.0
C1476 C 0.268 0.31244 0.34923 0.0
C1477 C 0.26495 0.32609 0.33114 0.0
C1478 C 0.28352 0.2807 0.3644 0.0
C1479 C 0.29 0.2882 0.38716 0.0
C1480 C 0.28074 0.25963 0.36049 0.0
C1481 C 0.27225 0.25079 0.33763 0.0
C1482 C 0.25311 0.25748 0.32861 0.0
C1483 C 0.24527 0.24921 0.30696 0.0
C1484 C 0.25636 0.23413 0.29426 0.0
C1485 C 0.27528 0.22724 0.30322 0.0
C1486 C 0.2832 0.23548 0.32484 0.0
C1487 C 0.28647 0.22652 0.45952 0.0
C1488 C 0.30307 0.21274 0.45754 0.0
C1489 C 0.28282 0.24008 0.44141 0.0
C1490 C 0.29551 0.23986 0.42089 0.0
C1491 C 0.31188 0.22594 0.4187 0.0
C1492 C 0.31577 0.21264 0.43697 0.0
C1493 C 0.29181 0.25422 0.40171 0.0
C1494 C 0.28526 0.24666 0.37909 0.0
C1495 C 0.29416 0.27523 0.40585 0.0
C1496 C 0.30137 0.28399 0.42932 0.0
C1497 C 0.3205 0.27808 0.43913 0.0
C1498 C 0.32709 0.28626 0.46137 0.0
C1499 C 0.31475 0.30048 0.4739 0.0
C1500 C 0.29582 0.3066 0.46417 0.0
C1501 C 0.28915 0.29844 0.44194 0.0
H1502 H 0.31988 0.3068 0.49112 0.0
H1503 H 0.25026 0.22775 0.27751 0.0
H1504 H 0.69225 0.80737 0.85426 0.0
H1505 H 0.66361 0.82659 0.87235 0.0
H1506 H 0.70685 0.85895 0.91903 0.0
H1507 H 0.73543 0.83872 0.90227 0.0
H1508 H 0.67612 0.84807 0.94413 0.0
H1509 H 0.68087 0.88151 0.87082 0.0
H1510 H 0.68342 0.88501 0.82704 0.0
H1511 H 0.62368 0.85677 0.81743 0.0
H1512 H 0.62089 0.85281 0.86112 0.0
H1513 H 0.59103 0.90783 0.98916 0.0
H1514 H 0.62277 0.90144 0.96545 0.0
H1515 H 0.59214 0.85226 0.92677 0.0
H1516 H 0.56064 0.85825 0.95063 0.0
H1517 H 0.61871 0.87797 0.89773 0.0
H1518 H 0.6184 0.84024 0.97137 0.0
H1519 H 0.61623 0.83802 0.01538 0.0
H1520 H 0.66915 0.87721 0.02393 0.0
H1521 H 0.6714 0.87992 0.97994 0.0
C1522 C 0.69571 0.81849 0.86846 0.0
C1523 C 0.71621 0.82136 0.87685 0.0
C1524 C 0.67931 0.82976 0.87853 0.0
C1525 C 0.68306 0.8445 0.89684 0.0
C1526 C 0.70355 0.84775 0.90486 0.0
C1527 C 0.71994 0.83628 0.89504 0.0
C1528 C 0.66539 0.85534 0.9088 0.0
C1529 C 0.66386 0.85504 0.93393 0.0
C1530 C 0.64921 0.86432 0.8956 0.0
C1531 C 0.65074 0.86675 0.86928 0.0
C1532 C 0.66833 0.87592 0.85937 0.0
C1533 C 0.66981 0.878 0.83456 0.0
C1534 C 0.65374 0.87109 0.81946 0.0
C1535 C 0.63612 0.86211 0.82915 0.0
C1536 C 0.63457 0.85997 0.85394 0.0
C1537 C 0.59097 0.89593 0.97527 0.0
C1538 C 0.57349 0.88341 0.97184 0.0
C1539 C 0.60907 0.89231 0.96179 0.0
C1540 C 0.60973 0.87636 0.94446 0.0
C1541 C 0.59186 0.86468 0.94001 0.0
C1542 C 0.57395 0.86804 0.95375 0.0
C1543 C 0.62952 0.8703 0.93273 0.0
C1544 C 0.63133 0.87142 0.90775 0.0
C1545 C 0.64611 0.86233 0.94603 0.0
C1546 C 0.6449 0.8605 0.97242 0.0
C1547 C 0.62945 0.84853 0.98265 0.0
C1548 C 0.62822 0.84716 0.00758 0.0
C1549 C 0.6425 0.85752 0.02245 0.0
C1550 C 0.65807 0.86923 0.0124 0.0
C1551 C 0.65933 0.87069 0.98748 0.0
H1552 H 0.64153 0.85644 0.04175 0.0
H1553 H 0.65491 0.87271 0.80026 0.0
H1554 H 0.24878 0.84035 0.84012 0.0
H1555 H 0.24293 0.81369 0.86816 0.0
H1556 H 0.26097 0.76906 0.81365 0.0
H1557 H 0.26582 0.79561 0.78502 0.0
H1558 H 0.22871 0.75589 0.83777 0.0
H1559 H 0.29482 0.78489 0.85826 0.0
H1560 H 0.31951 0.8123 0.86879 0.0
H1561 H 0.28463 0.82722 0.93282 0.0
H1562 H 0.25954 0.80007 0.92247 0.0
H1563 H 0.2696 0.69813 0.94821 0.0
H1564 H 0.27367 0.72257 0.91713 0.0
H1565 H 0.20687 0.72846 0.91228 0.0
H1566 H 0.20266 0.70342 0.94302 0.0
H1567 H 0.26446 0.7602 0.91676 0.0
H1568 H 0.19325 0.74153 0.85584 0.0
H1569 H 0.17178 0.71215 0.84317 0.0
H1570 H 0.22299 0.67254 0.85657 0.0
H1571 H 0.24483 0.70169 0.86901 0.0
C1572 C 0.25121 0.82485 0.83392 0.0
C1573 C 0.25783 0.82016 0.81028 0.0
C1574 C 0.24806 0.80963 0.85009 0.0
C1575 C 0.25179 0.78939 0.84313 0.0
C1576 C 0.25806 0.78458 0.81945 0.0
C1577 C 0.26106 0.79981 0.80318 0.0
C1578 C 0.24956 0.77331 0.86071 0.0
C1579 C 0.23651 0.75682 0.85506 0.0
C1580 C 0.26004 0.77432 0.88308 0.0
C1581 C 0.2752 0.79056 0.88947 0.0
C1582 C 0.29234 0.7941 0.8745 0.0
C1583 C 0.30641 0.80958 0.88044 0.0
C1584 C 0.30361 0.82152 0.90143 0.0
C1585 C 0.28676 0.81797 0.91655 0.0
C1586 C 0.27262 0.80253 0.91066 0.0
C1587 C 0.25573 0.70452 0.94046 0.0
C1588 C 0.23579 0.69883 0.94809 0.0
C1589 C 0.2581 0.71855 0.92271 0.0
C1590 C 0.2406 0.72733 0.91224 0.0
C1591 C 0.22062 0.72167 0.91979 0.0
C1592 C 0.21823 0.70741 0.93742 0.0
C1593 C 0.24346 0.74278 0.89396 0.0
C1594 C 0.25661 0.75923 0.89951 0.0
C1595 C 0.23353 0.74141 0.87125 0.0
C1596 C 0.22059 0.72378 0.8636 0.0
C1597 C 0.19994 0.72655 0.85601 0.0
C1598 C 0.18771 0.70994 0.84888 0.0
C1599 C 0.196 0.69049 0.84915 0.0
C1600 C 0.21656 0.68761 0.85646 0.0
C1601 C 0.22887 0.70417 0.86359 0.0
H1602 H 0.1865 0.67765 0.84363 0.0
H1603 H 0.31452 0.83351 0.906 0.0
H1604 H 0.39815 0.38808 0.81419 0.0
H1605 H 0.42306 0.37763 0.84411 0.0
H1606 H 0.37454 0.34532 0.87981 0.0
H1607 H 0.34912 0.35738 0.85146 0.0
H1608 H 0.39621 0.36173 0.91197 0.0
H1609 H 0.41432 0.3219 0.84211 0.0
H1610 H 0.42375 0.31463 0.79974 0.0
H1611 H 0.47953 0.34977 0.80905 0.0
H1612 H 0.47028 0.35748 0.85142 0.0
H1613 H 0.4671 0.29781 0.97459 0.0
H1614 H 0.443 0.30836 0.94335 0.0
H1615 H 0.4805 0.36108 0.9327 0.0
H1616 H 0.50439 0.35097 0.96443 0.0
H1617 H 0.46512 0.33358 0.88821 0.0
H1618 H 0.44356 0.37265 0.96044 0.0
H1619 H 0.43308 0.37539 0.00303 0.0
H1620 H 0.38183 0.3352 0.98832 0.0
H1621 H 0.39222 0.33198 0.94569 0.0
C1622 C 0.3926 0.37905 0.8286 0.0
C1623 C 0.37145 0.37361 0.83016 0.0
C1624 C 0.40704 0.37273 0.84553 0.0
C1625 C 0.40088 0.36027 0.86405 0.0
C1626 C 0.37981 0.35483 0.86569 0.0
C1627 C 0.36527 0.36153 0.84913 0.0
C1628 C 0.41622 0.35331 0.88206 0.0
C1629 C 0.41114 0.35537 0.90659 0.0
C1630 C 0.43586 0.34504 0.87534 0.0
C1631 C 0.4415 0.34044 0.84988 0.0
C1632 C 0.42852 0.32821 0.83507 0.0
C1633 C 0.43384 0.32398 0.81107 0.0
C1634 C 0.4522 0.33178 0.80169 0.0
C1635 C 0.4653 0.34377 0.81633 0.0
C1636 C 0.46003 0.34806 0.84035 0.0
C1637 C 0.47028 0.3116 0.96551 0.0
C1638 C 0.4876 0.3236 0.97199 0.0
C1639 C 0.45651 0.31759 0.94772 0.0
C1640 C 0.46004 0.33546 0.93579 0.0
C1641 C 0.47758 0.34722 0.94172 0.0
C1642 C 0.49114 0.34146 0.95989 0.0
C1643 C 0.44498 0.34219 0.91767 0.0
C1644 C 0.45014 0.34 0.89328 0.0
C1645 C 0.42519 0.34976 0.92442 0.0
C1646 C 0.4188 0.35191 0.94996 0.0
C1647 C 0.43017 0.36425 0.96634 0.0
C1648 C 0.42422 0.36592 0.99048 0.0
C1649 C 0.40683 0.35543 0.9984 0.0
C1650 C 0.39532 0.34329 0.98217 0.0
C1651 C 0.40122 0.34156 0.95802 0.0
H1652 H 0.40226 0.35673 0.01709 0.0
H1653 H 0.45629 0.32849 0.7831 0.0
H1654 H 0.82467 0.31148 0.94958 0.0
H1655 H 0.83235 0.3389 0.97889 0.0
H1656 H 0.80833 0.38198 0.92998 0.0
H1657 H 0.80165 0.35489 0.9002 0.0
H1658 H 0.84395 0.39453 0.94703 0.0
H1659 H 0.78156 0.36807 0.98049 0.0
H1660 H 0.75814 0.34251 0.99663 0.0
H1661 H 0.8015 0.33235 0.05355 0.0
H1662 H 0.82539 0.3576 0.03749 0.0
H1663 H 0.8177 0.47676 0.02903 0.0
H1664 H 0.81703 0.4475 0.00084 0.0
H1665 H 0.8626 0.41766 0.04378 0.0
H1666 H 0.86386 0.44726 0.07176 0.0
H1667 H 0.8199 0.39716 0.0317 0.0
H1668 H 0.88107 0.4267 0.99766 0.0
H1669 H 0.90165 0.45438 0.98144 0.0
H1670 H 0.85664 0.46088 0.92526 0.0
H1671 H 0.83561 0.43343 0.94138 0.0
C1672 C 0.821 0.3268 0.94509 0.0
C1673 C 0.81252 0.33097 0.92254 0.0
C1674 C 0.82524 0.34243 0.96194 0.0
C1675 C 0.82084 0.36249 0.95666 0.0
C1676 C 0.81188 0.36662 0.93443 0.0
C1677 C 0.8078 0.35105 0.91753 0.0
C1678 C 0.82628 0.37933 0.9738 0.0
C1679 C 0.83855 0.39513 0.96549 0.0
C1680 C 0.81963 0.37992 0.99806 0.0
C1681 C 0.80541 0.36452 0.00757 0.0
C1682 C 0.78623 0.36022 0.99628 0.0
C1683 C 0.77284 0.34581 0.00544 0.0
C1684 C 0.77837 0.33575 0.02604 0.0
C1685 C 0.79728 0.3401 0.03755 0.0
C1686 C 0.81075 0.35445 0.02841 0.0
C1687 C 0.82788 0.46412 0.03218 0.0
C1688 C 0.84086 0.4642 0.05247 0.0
C1689 C 0.82748 0.44747 0.01612 0.0
C1690 C 0.83973 0.43053 0.02037 0.0
C1691 C 0.8531 0.4307 0.04028 0.0
C1692 C 0.85389 0.4476 0.05609 0.0
C1693 C 0.83729 0.41224 0.00475 0.0
C1694 C 0.82553 0.39627 0.01332 0.0
C1695 C 0.84405 0.41164 0.98065 0.0
C1696 C 0.85667 0.42813 0.97088 0.0
C1697 C 0.87545 0.43417 0.982 0.0
C1698 C 0.88722 0.44979 0.97278 0.0
C1699 C 0.88043 0.45942 0.95237 0.0
C1700 C 0.86188 0.45342 0.94109 0.0
C1701 C 0.85003 0.43782 0.95025 0.0
H1702 H 0.88958 0.4715 0.94526 0.0
H1703 H 0.76796 0.32463 0.03314 0.0
H1704 H 0.68362 0.27855 0.22204 0.0
H1705 H 0.66256 0.28647 0.18715 0.0
H1706 H 0.61389 0.30955 0.23404 0.0
H1707 H 0.63453 0.30092 0.26903 0.0
H1708 H 0.59789 0.28609 0.19994 0.0
H1709 H 0.64515 0.3412 0.20296 0.0
H1710 H 0.67943 0.35789 0.20541 0.0
H1711 H 0.69708 0.3292 0.13801 0.0
H1712 H 0.66304 0.31202 0.13535 0.0
H1713 H 0.56408 0.34126 0.0859 0.0
H1714 H 0.58618 0.3405 0.1218 0.0
H1715 H 0.58585 0.2755 0.11696 0.0
H1716 H 0.56362 0.27609 0.08157 0.0
H1717 H 0.62461 0.32489 0.13216 0.0
H1718 H 0.58035 0.25782 0.17267 0.0
H1719 H 0.54514 0.24298 0.17065 0.0
H1720 H 0.51956 0.30041 0.15349 0.0
H1721 H 0.55438 0.3157 0.15628 0.0
C1722 C 0.66838 0.28519 0.22494 0.0
C1723 C 0.66074 0.28905 0.24834 0.0
C1724 C 0.65646 0.28995 0.20497 0.0
C1725 C 0.63674 0.29884 0.20796 0.0
C1726 C 0.6291 0.30279 0.23129 0.0
C1727 C 0.64098 0.29798 0.25128 0.0
C1728 C 0.62371 0.30316 0.18675 0.0
C1729 C 0.60373 0.29465 0.1852 0.0
C1730 C 0.63114 0.31469 0.16769 0.0
C1731 C 0.65157 0.32519 0.16905 0.0
C1732 C 0.65638 0.33833 0.18873 0.0
C1733 C 0.67577 0.34789 0.19015 0.0
C1734 C 0.69044 0.34458 0.1719 0.0
C1735 C 0.68571 0.33174 0.15215 0.0
C1736 C 0.66636 0.32209 0.15067 0.0
C1737 C 0.56881 0.32682 0.09243 0.0
C1738 C 0.56185 0.30874 0.08105 0.0
C1739 C 0.58152 0.32642 0.11286 0.0
C1740 C 0.58743 0.30795 0.12222 0.0
C1741 C 0.5812 0.28993 0.11028 0.0
C1742 C 0.56846 0.29031 0.09003 0.0
C1743 C 0.59914 0.30728 0.14516 0.0
C1744 C 0.61879 0.31646 0.14703 0.0
C1745 C 0.59127 0.29673 0.16479 0.0
C1746 C 0.57004 0.28785 0.16444 0.0
C1747 C 0.56717 0.26732 0.16876 0.0
C1748 C 0.54725 0.25883 0.1675 0.0
C1749 C 0.53009 0.27072 0.16195 0.0
C1750 C 0.53279 0.29118 0.15788 0.0
C1751 C 0.55262 0.29978 0.15933 0.0
H1752 H 0.51472 0.26406 0.16078 0.0
H1753 H 0.70544 0.35199 0.17304 0.0
H1754 H 0.80321 0.66736 0.2877 0.0
H1755 H 0.82007 0.63805 0.26848 0.0
H1756 H 0.8415 0.67469 0.21123 0.0
H1757 H 0.82357 0.70378 0.22954 0.0
H1758 H 0.82293 0.64366 0.19307 0.0
H1759 H 0.87603 0.65266 0.25156 0.0
H1760 H 0.89129 0.65852 0.29184 0.0
H1761 H 0.86493 0.60299 0.3145 0.0
H1762 H 0.84923 0.59692 0.27447 0.0
H1763 H 0.87632 0.54753 0.15338 0.0
H1764 H 0.87907 0.57737 0.18077 0.0
H1765 H 0.81338 0.57361 0.19592 0.0
H1766 H 0.81043 0.54411 0.1687 0.0
H1767 H 0.86358 0.59037 0.23202 0.0
H1768 H 0.79495 0.61727 0.17545 0.0
H1769 H 0.77999 0.60915 0.13541 0.0
H1770 H 0.84074 0.5938 0.1082 0.0
H1771 H 0.85616 0.60254 0.1478 0.0
C1772 C 0.81159 0.66923 0.27108 0.0
C1773 C 0.81179 0.6879 0.26004 0.0
C1774 C 0.82155 0.6525 0.2603 0.0
C1775 C 0.83222 0.65417 0.23847 0.0
C1776 C 0.83341 0.67304 0.2281 0.0
C1777 C 0.82326 0.68973 0.23873 0.0
C1778 C 0.83965 0.63581 0.22502 0.0
C1779 C 0.83221 0.63227 0.20152 0.0
C1780 C 0.85187 0.62088 0.23587 0.0
C1781 C 0.86136 0.62438 0.25999 0.0
C1782 C 0.87336 0.64175 0.26517 0.0
C1783 C 0.88212 0.6451 0.28796 0.0
C1784 C 0.87907 0.63115 0.30572 0.0
C1785 C 0.86729 0.61379 0.30071 0.0
C1786 C 0.85849 0.61036 0.27795 0.0
C1787 C 0.86262 0.55273 0.16315 0.0
C1788 C 0.84306 0.54383 0.15854 0.0
C1789 C 0.86426 0.56966 0.17886 0.0
C1790 C 0.84637 0.5777 0.19005 0.0
C1791 C 0.82731 0.5676 0.1873 0.0
C1792 C 0.82563 0.55087 0.17158 0.0
C1793 C 0.84633 0.59837 0.20075 0.0
C1794 C 0.85495 0.6022 0.22356 0.0
C1795 C 0.83556 0.6138 0.18917 0.0
C1796 C 0.82667 0.61038 0.16469 0.0
C1797 C 0.80515 0.61245 0.16084 0.0
C1798 C 0.79659 0.6077 0.13822 0.0
C1799 C 0.80939 0.60082 0.11932 0.0
C1800 C 0.83083 0.59901 0.12289 0.0
C1801 C 0.83949 0.60395 0.14538 0.0
H1802 H 0.80272 0.59702 0.10186 0.0
H1803 H 0.88585 0.63377 0.32336 0.0
H1804 H 0.33487 0.94014 0.17194 0.0
H1805 H 0.36332 0.94273 0.14328 0.0
H1806 H 0.40599 0.91893 0.19482 0.0
H1807 H 0.378 0.91773 0.22423 0.0
H1808 H 0.4259 0.94454 0.16916 0.0
H1809 H 0.38001 0.88813 0.15217 0.0
H1810 H 0.34616 0.8718 0.14353 0.0
H1811 H 0.33978 0.90556 0.07983 0.0
H1812 H 0.37348 0.9223 0.08829 0.0
H1813 H 0.47326 0.87401 0.0695 0.0
H1814 H 0.44633 0.88379 0.0983 0.0
H1815 H 0.46262 0.94639 0.09183 0.0
H1816 H 0.49013 0.93662 0.06308 0.0
H1817 H 0.41262 0.9051 0.09313 0.0
H1818 H 0.45176 0.9711 0.14668 0.0
H1819 H 0.48699 0.98286 0.15816 0.0
H1820 H 0.50958 0.92195 0.15295 0.0
H1821 H 0.47446 0.90983 0.14176 0.0
C1822 C 0.35041 0.93603 0.17752 0.0
C1823 C 0.35401 0.92835 0.20032 0.0
C1824 C 0.36664 0.93734 0.16097 0.0
C1825 C 0.38668 0.93053 0.16667 0.0
C1826 C 0.39063 0.92412 0.18991 0.0
C1827 C 0.3745 0.92315 0.20661 0.0
C1828 C 0.40299 0.92812 0.1479 0.0
C1829 C 0.42295 0.93609 0.15242 0.0
C1830 C 0.39929 0.91678 0.12623 0.0
C1831 C 0.37912 0.90663 0.12101 0.0
C1832 C 0.37131 0.89216 0.13641 0.0
C1833 C 0.35217 0.88282 0.13154 0.0
C1834 C 0.3408 0.88768 0.11118 0.0
C1835 C 0.34859 0.90185 0.09562 0.0
C1836 C 0.3677 0.91126 0.10044 0.0
C1837 C 0.47121 0.88988 0.07416 0.0
C1838 C 0.48383 0.90455 0.06394 0.0
C1839 C 0.45573 0.89545 0.09061 0.0
C1840 C 0.45243 0.91581 0.09722 0.0
C1841 C 0.46502 0.93057 0.08714 0.0
C1842 C 0.48069 0.92497 0.07069 0.0
C1843 C 0.43561 0.92125 0.11452 0.0
C1844 C 0.4155 0.9139 0.10965 0.0
C1845 C 0.4394 0.93251 0.13619 0.0
C1846 C 0.46055 0.93962 0.14307 0.0
C1847 C 0.46425 0.96023 0.14803 0.0
C1848 C 0.48419 0.96695 0.15449 0.0
C1849 C 0.50053 0.95317 0.15619 0.0
C1850 C 0.49694 0.93262 0.15153 0.0
C1851 C 0.47703 0.92583 0.14509 0.0
H1852 H 0.51596 0.95841 0.16118 0.0
H1853 H 0.32598 0.88044 0.10744 0.0
H1854 H 0.25254 0.48572 0.13709 0.0
H1855 H 0.24239 0.51574 0.11612 0.0
H1856 H 0.17771 0.50309 0.12944 0.0
H1857 H 0.18766 0.47356 0.15178 0.0
H1858 H 0.19975 0.51515 0.07514 0.0
H1859 H 0.18074 0.53533 0.15808 0.0
H1860 H 0.18795 0.53708 0.20161 0.0
H1861 H 0.24527 0.56827 0.18912 0.0
H1862 H 0.23855 0.56638 0.14546 0.0
H1863 H 0.18283 0.61253 0.02762 0.0
H1864 H 0.17569 0.58313 0.05172 0.0
H1865 H 0.23421 0.59228 0.08869 0.0
H1866 H 0.24117 0.62157 0.06531 0.0
H1867 H 0.20588 0.58133 0.11932 0.0
H1868 H 0.22906 0.55896 0.03969 0.0
H1869 H 0.22692 0.55587 0.99548 0.0
H1870 H 0.16674 0.5281 0.00038 0.0
H1871 H 0.16845 0.53126 0.04466 0.0
C1872 C 0.23615 0.48936 0.13587 0.0
C1873 C 0.22096 0.47726 0.14641 0.0
C1874 C 0.23039 0.50641 0.12365 0.0
C1875 C 0.20935 0.51156 0.12139 0.0
C1876 C 0.19403 0.49926 0.13105 0.0
C1877 C 0.19979 0.48233 0.14366 0.0
C1878 C 0.20381 0.53035 0.10967 0.0
C1879 C 0.20042 0.52966 0.08481 0.0
C1880 C 0.2053 0.54915 0.12231 0.0
C1881 C 0.20924 0.55054 0.14853 0.0
C1882 C 0.19498 0.54238 0.16462 0.0
C1883 C 0.19895 0.54344 0.18931 0.0
C1884 C 0.21708 0.55273 0.19813 0.0
C1885 C 0.23125 0.56105 0.18227 0.0
C1886 C 0.22735 0.56001 0.15756 0.0
C1887 C 0.19395 0.60844 0.04119 0.0
C1888 C 0.21265 0.61926 0.04439 0.0
C1889 C 0.18991 0.5916 0.05486 0.0
C1890 C 0.20454 0.58537 0.07181 0.0
C1891 C 0.22268 0.59679 0.07576 0.0
C1892 C 0.22669 0.61351 0.06223 0.0
C1893 C 0.20204 0.56631 0.08453 0.0
C1894 C 0.20425 0.56691 0.10963 0.0
C1895 C 0.19981 0.54743 0.07199 0.0
C1896 C 0.19875 0.5456 0.04543 0.0
C1897 C 0.2153 0.55235 0.03132 0.0
C1898 C 0.21418 0.55056 0.00627 0.0
C1899 C 0.19667 0.54186 0.99513 0.0
C1900 C 0.18027 0.53489 0.00903 0.0
C1901 C 0.1813 0.53667 0.0341 0.0
H1902 H 0.19584 0.54047 0.97573 0.0
H1903 H 0.22014 0.55354 0.21725 0.0
H1904 H 0.3203 0.33575 0.13969 0.0
H1905 H 0.34976 0.31866 0.12035 0.0
H1906 H 0.37133 0.29978 0.18928 0.0
H1907 H 0.34181 0.31716 0.20884 0.0
H1908 H 0.40179 0.31546 0.16691 0.0
H1909 H 0.35307 0.26502 0.14586 0.0
H1910 H 0.3201 0.25002 0.13118 0.0
H1911 H 0.33167 0.272 0.06102 0.0
H1912 H 0.36457 0.28741 0.07535 0.0
H1913 H 0.46631 0.25538 0.06691 0.0
H1914 H 0.43642 0.25689 0.0944 0.0
H1915 H 0.44155 0.3217 0.09981 0.0
H1916 H 0.47134 0.32035 0.07291 0.0
H1917 H 0.39894 0.27382 0.09095 0.0
H1918 H 0.43126 0.34012 0.15121 0.0
H1919 H 0.46454 0.35097 0.16981 0.0
H1920 H 0.48558 0.28953 0.16831 0.0
H1921 H 0.45272 0.27843 0.14922 0.0
C1922 C 0.33104 0.32757 0.15069 0.0
C1923 C 0.32873 0.32776 0.17579 0.0
C1924 C 0.34787 0.31773 0.13959 0.0
C1925 C 0.36265 0.30768 0.1533 0.0
C1926 C 0.3601 0.30739 0.17833 0.0
C1927 C 0.34329 0.31737 0.18949 0.0
C1928 C 0.38177 0.29939 0.14164 0.0
C1929 C 0.40111 0.30615 0.15047 0.0
C1930 C 0.38106 0.28672 0.12056 0.0
C1931 C 0.36127 0.27747 0.11174 0.0
C1932 C 0.34853 0.26679 0.12734 0.0
C1933 C 0.32985 0.25819 0.11907 0.0
C1934 C 0.32378 0.26007 0.09519 0.0
C1935 C 0.3364 0.27054 0.07951 0.0
C1936 C 0.35508 0.27919 0.08769 0.0
C1937 C 0.4611 0.26993 0.07407 0.0
C1938 C 0.47128 0.28773 0.06779 0.0
C1939 C 0.44403 0.27076 0.08975 0.0
C1940 C 0.43698 0.28938 0.09949 0.0
C1941 C 0.44701 0.30712 0.09301 0.0
C1942 C 0.464 0.30632 0.07745 0.0
C1943 C 0.41867 0.29071 0.11572 0.0
C1944 C 0.39954 0.28274 0.10769 0.0
C1945 C 0.41956 0.30171 0.13797 0.0
C1946 C 0.43961 0.30847 0.1487 0.0
C1947 C 0.44306 0.32896 0.15477 0.0
C1948 C 0.46189 0.33517 0.16528 0.0
C1949 C 0.47726 0.32097 0.17008 0.0
C1950 C 0.47384 0.30056 0.16429 0.0
C1951 C 0.45516 0.29432 0.15349 0.0
H1952 H 0.49178 0.32578 0.17836 0.0
H1953 H 0.30932 0.2534 0.08882 0.0
H1954 H 0.77114 0.35913 0.2927 0.0
H1955 H 0.77868 0.38554 0.26465 0.0
H1956 H 0.73077 0.36192 0.21688 0.0
H1957 H 0.72396 0.33487 0.24451 0.0
H1958 H 0.76199 0.37146 0.19141 0.0
H1959 H 0.72439 0.40644 0.25362 0.0
H1960 H 0.71534 0.41759 0.29507 0.0
H1961 H 0.77504 0.44616 0.30345 0.0
H1962 H 0.78457 0.43495 0.26215 0.0
H1963 H 0.7624 0.46375 0.12585 0.0
H1964 H 0.75058 0.43735 0.15231 0.0
H1965 H 0.80832 0.44203 0.19166 0.0
H1966 H 0.82045 0.46798 0.16501 0.0
H1967 H 0.76883 0.44292 0.22001 0.0
H1968 H 0.8056 0.40538 0.15639 0.0
H1969 H 0.81224 0.39471 0.11418 0.0
H1970 H 0.74983 0.37189 0.1077 0.0
H1971 H 0.74271 0.38275 0.1498 0.0
C1972 C 0.7622 0.35969 0.27624 0.0
C1973 C 0.74694 0.3451 0.27075 0.0
C1974 C 0.76641 0.37482 0.26027 0.0
C1975 C 0.75501 0.37603 0.23881 0.0
C1976 C 0.73976 0.36137 0.2333 0.0
C1977 C 0.73585 0.34596 0.24907 0.0
C1978 C 0.75936 0.39234 0.22198 0.0
C1979 C 0.76311 0.38711 0.19766 0.0
C1980 C 0.76096 0.41282 0.23001 0.0
C1981 C 0.75525 0.41971 0.25483 0.0
C1982 C 0.73564 0.41499 0.26435 0.0
C1983 C 0.73042 0.42134 0.28781 0.0
C1984 C 0.74462 0.43254 0.3019 0.0
C1985 C 0.76406 0.43747 0.29252 0.0
C1986 C 0.76937 0.43114 0.26907 0.0
C1987 C 0.77253 0.45916 0.14017 0.0
C1988 C 0.79235 0.46788 0.14337 0.0
C1989 C 0.7658 0.44408 0.15518 0.0
C1990 C 0.77863 0.43779 0.17383 0.0
C1991 C 0.79824 0.44672 0.17732 0.0
C1992 C 0.80515 0.46147 0.16206 0.0
C1993 C 0.77172 0.42188 0.18982 0.0
C1994 C 0.76747 0.42725 0.2139 0.0
C1995 C 0.76925 0.40164 0.18146 0.0
C1996 C 0.77353 0.39514 0.15615 0.0
C1997 C 0.79321 0.39831 0.14589 0.0
C1998 C 0.79709 0.39218 0.122 0.0
C1999 C 0.78145 0.38269 0.10823 0.0
C2000 C 0.76192 0.37928 0.11836 0.0
C2001 C 0.75796 0.38542 0.14223 0.0
H2002 H 0.78449 0.37793 0.08975 0.0
H2003 H 0.74054 0.43744 0.32006 0.0
H2004 H 0.64307 0.76882 0.21798 0.0
H2005 H 0.61684 0.77892 0.18876 0.0
H2006 H 0.64953 0.83493 0.1801 0.0
H2007 H 0.67562 0.825 0.20935 0.0
H2008 H 0.60646 0.83974 0.18285 0.0
H2009 H 0.65715 0.79754 0.14056 0.0
H2010 H 0.67759 0.76642 0.13341 0.0
H2011 H 0.62116 0.7323 0.12401 0.0
H2012 H 0.60037 0.7632 0.13147 0.0
H2013 H 0.57274 0.87353 0.07154 0.0
H2014 H 0.59315 0.86156 0.10501 0.0
H2015 H 0.55997 0.805 0.10078 0.0
H2016 H 0.53979 0.8167 0.06678 0.0
H2017 H 0.60016 0.79866 0.10674 0.0
H2018 H 0.54923 0.84125 0.14512 0.0
H2019 H 0.52862 0.87226 0.15232 0.0
H2020 H 0.58443 0.90538 0.16963 0.0
H2021 H 0.60542 0.87464 0.16218 0.0
C2022 C 0.64446 0.78338 0.21005 0.0
C2023 C 0.66143 0.79607 0.21571 0.0
C2024 C 0.62957 0.78909 0.19333 0.0
C2025 C 0.6314 0.80759 0.18217 0.0
C2026 C 0.64789 0.82058 0.18851 0.0
C2027 C 0.66284 0.81484 0.20504 0.0
C2028 C 0.61679 0.81309 0.163 0.0
C2029 C 0.60512 0.83086 0.16614 0.0
C2030 C 0.61473 0.80117 0.14151 0.0
C2031 C 0.62721 0.78263 0.13685 0.0
C2032 C 0.6491 0.78337 0.13717 0.0
C2033 C 0.66075 0.76578 0.13303 0.0
C2034 C 0.65068 0.74738 0.12833 0.0
C2035 C 0.62894 0.74655 0.1277 0.0
C2036 C 0.61721 0.7641 0.13187 0.0
C2037 C 0.56976 0.85854 0.07772 0.0
C2038 C 0.55458 0.84609 0.0666 0.0
C2039 C 0.58137 0.85176 0.09695 0.0
C2040 C 0.57779 0.83254 0.1057 0.0
C2041 C 0.56289 0.81993 0.09438 0.0
C2042 C 0.55138 0.82664 0.07498 0.0
C2043 C 0.58994 0.82552 0.12638 0.0
C2044 C 0.6012 0.80746 0.12354 0.0
C2045 C 0.59152 0.83714 0.1482 0.0
C2046 C 0.57892 0.85565 0.15291 0.0
C2047 C 0.55713 0.85517 0.1503 0.0
C2048 C 0.54537 0.8727 0.15445 0.0
C2049 C 0.55521 0.89079 0.16138 0.0
C2050 C 0.57683 0.89137 0.16424 0.0
C2051 C 0.58866 0.87389 0.16009 0.0
H2052 H 0.54609 0.90434 0.16458 0.0
H2053 H 0.65972 0.73378 0.12513 0.0
H2054 H 0.22725 0.84641 0.18106 0.0
H2055 H 0.22785 0.82155 0.14765 0.0
H2056 H 0.22304 0.77366 0.19744 0.0
H2057 H 0.22171 0.79858 0.23101 0.0
H2058 H 0.25644 0.79432 0.13813 0.0
H2059 H 0.19954 0.73287 0.17 0.0
H2060 H 0.16694 0.73056 0.19316 0.0
H2061 H 0.15081 0.79092 0.17537 0.0
H2062 H 0.18315 0.79349 0.15186 0.0
H2063 H 0.27531 0.70189 0.07325 0.0
H2064 H 0.26978 0.72806 0.10481 0.0
H2065 H 0.20816 0.73894 0.07722 0.0
H2066 H 0.21334 0.7125 0.04612 0.0
H2067 H 0.20648 0.73813 0.12376 0.0
H2068 H 0.24955 0.77114 0.06734 0.0
H2069 H 0.28015 0.77569 0.04139 0.0
H2070 H 0.32023 0.7764 0.10313 0.0
H2071 H 0.28989 0.77157 0.12943 0.0
C2072 C 0.22564 0.83063 0.1849 0.0
C2073 C 0.22423 0.82447 0.20871 0.0
C2074 C 0.22626 0.81641 0.16577 0.0
C2075 C 0.22544 0.79575 0.17001 0.0
C2076 C 0.22344 0.78954 0.1937 0.0
C2077 C 0.22279 0.80378 0.21288 0.0
C2078 C 0.22789 0.78072 0.14976 0.0
C2079 C 0.24549 0.78205 0.13496 0.0
C2080 C 0.21347 0.76489 0.14541 0.0
C2081 C 0.19389 0.76343 0.15938 0.0
C2082 C 0.189 0.74562 0.17097 0.0
C2083 C 0.17057 0.74427 0.18417 0.0
C2084 C 0.15685 0.76061 0.1858 0.0
C2085 C 0.16149 0.77831 0.17418 0.0
C2086 C 0.17989 0.77973 0.16095 0.0
C2087 C 0.26062 0.70991 0.07386 0.0
C2088 C 0.24478 0.70513 0.05716 0.0
C2089 C 0.25749 0.72491 0.09187 0.0
C2090 C 0.23861 0.73561 0.09326 0.0
C2091 C 0.22283 0.73086 0.07656 0.0
C2092 C 0.22586 0.71577 0.05873 0.0
C2093 C 0.23515 0.75161 0.11226 0.0
C2094 C 0.21741 0.75042 0.1269 0.0
C2095 C 0.24918 0.76786 0.11609 0.0
C2096 C 0.26746 0.77078 0.10032 0.0
C2097 C 0.26491 0.7721 0.07536 0.0
C2098 C 0.2822 0.77476 0.06059 0.0
C2099 C 0.30213 0.77628 0.0706 0.0
C2100 C 0.30479 0.77519 0.0954 0.0
C2101 C 0.28755 0.7725 0.11025 0.0
H2102 H 0.3155 0.77834 0.05913 0.0
H2103 H 0.14259 0.75953 0.19603 0.0
H2104 H 0.33288 0.87028 0.84627 0.0
H2105 H 0.3602 0.86723 0.87657 0.0
H2106 H 0.40474 0.89291 0.82861 0.0
H2107 H 0.37752 0.89639 0.79845 0.0
H2108 H 0.42031 0.85984 0.85048 0.0
H2109 H 0.38499 0.92171 0.8726 0.0
H2110 H 0.3545 0.94294 0.88289 0.0
H2111 H 0.34197 0.90733 0.94386 0.0
H2112 H 0.37223 0.8857 0.93372 0.0
H2113 H 0.48066 0.90317 0.9618 0.0
H2114 H 0.45418 0.90586 0.93058 0.0
H2115 H 0.44678 0.84123 0.92759 0.0
H2116 H 0.47333 0.83835 0.95872 0.0
H2117 H 0.41325 0.89468 0.9306 0.0
H2118 H 0.437 0.8265 0.86879 0.0
H2119 H 0.46858 0.80714 0.85755 0.0
H2120 H 0.50648 0.85915 0.87419 0.0
H2121 H 0.47512 0.87888 0.88519 0.0
C2122 C 0.34846 0.8754 0.84224 0.0
C2123 C 0.35302 0.88361 0.81997 0.0
C2124 C 0.36405 0.87357 0.85951 0.0
C2125 C 0.38443 0.87995 0.85482 0.0
C2126 C 0.38911 0.88781 0.83249 0.0
C2127 C 0.37355 0.88972 0.81526 0.0
C2128 C 0.40084 0.87881 0.87334 0.0
C2129 C 0.41876 0.86739 0.86803 0.0
C2130 C 0.39889 0.88894 0.89606 0.0
C2131 C 0.38075 0.90197 0.90226 0.0
C2132 C 0.37564 0.91831 0.88809 0.0
C2133 C 0.35841 0.93043 0.89391 0.0
C2134 C 0.34627 0.92645 0.91398 0.0
C2135 C 0.35137 0.91037 0.9283 0.0
C2136 C 0.36856 0.89819 0.92254 0.0
C2137 C 0.47347 0.88951 0.95445 0.0
C2138 C 0.47914 0.87053 0.9627 0.0
C2139 C 0.45828 0.89109 0.9367 0.0
C2140 C 0.44863 0.87375 0.92674 0.0
C2141 C 0.45422 0.85478 0.93491 0.0
C2142 C 0.46935 0.85318 0.95273 0.0
C2143 C 0.43263 0.87552 0.90784 0.0
C2144 C 0.41477 0.88704 0.9131 0.0
C2145 C 0.43477 0.86572 0.88495 0.0
C2146 C 0.45372 0.85409 0.87805 0.0
C2147 C 0.45207 0.83382 0.86996 0.0
C2148 C 0.46993 0.82278 0.86364 0.0
C2149 C 0.48953 0.83189 0.86523 0.0
C2150 C 0.4913 0.85209 0.87305 0.0
C2151 C 0.47349 0.86319 0.87937 0.0
H2152 H 0.50334 0.82332 0.86035 0.0
H2153 H 0.33295 0.93586 0.91847 0.0
H2154 H 0.31394 0.46172 0.87467 0.0
H2155 H 0.31068 0.49002 0.90412 0.0
H2156 H 0.29981 0.53044 0.8468 0.0
H2157 H 0.30234 0.50241 0.81746 0.0
H2158 H 0.32623 0.54693 0.88149 0.0
H2159 H 0.25988 0.51263 0.87543 0.0
H2160 H 0.23646 0.48331 0.87731 0.0
H2161 H 0.25235 0.47697 0.9515 0.0
H2162 H 0.27614 0.5061 0.94993 0.0
H2163 H 0.24313 0.61121 0.94885 0.0
H2164 H 0.25444 0.58155 0.92529 0.0
H2165 H 0.31543 0.58615 0.95756 0.0
H2166 H 0.30427 0.61623 0.98116 0.0
H2167 H 0.26715 0.54567 0.93879 0.0
H2168 H 0.35095 0.56789 0.915 0.0
H2169 H 0.37214 0.59845 0.90999 0.0
H2170 H 0.3174 0.63124 0.89062 0.0
H2171 H 0.29596 0.60081 0.89523 0.0
C2172 C 0.31088 0.47664 0.86834 0.0
C2173 C 0.30845 0.47975 0.84365 0.0
C2174 C 0.30916 0.49279 0.88517 0.0
C2175 C 0.30503 0.5123 0.87759 0.0
C2176 C 0.30324 0.51554 0.85299 0.0
C2177 C 0.30478 0.49945 0.83622 0.0
C2178 C 0.30109 0.52923 0.89513 0.0
C2179 C 0.31349 0.54659 0.89424 0.0
C2180 C 0.28428 0.52884 0.9115 0.0
C2181 C 0.27 0.51135 0.91247 0.0
C2182 C 0.25853 0.50486 0.89208 0.0
C2183 C 0.24517 0.4883 0.8931 0.0
C2184 C 0.24298 0.47823 0.91449 0.0
C2185 C 0.25411 0.48475 0.93492 0.0
C2186 C 0.26754 0.50128 0.93398 0.0
C2187 C 0.259 0.60603 0.95093 0.0
C2188 C 0.27282 0.61615 0.96686 0.0
C2189 C 0.2654 0.58897 0.93751 0.0
C2190 C 0.28576 0.58162 0.93965 0.0
C2191 C 0.29968 0.59167 0.95549 0.0
C2192 C 0.29328 0.60884 0.96895 0.0
C2193 C 0.29217 0.56351 0.92502 0.0
C2194 C 0.28022 0.54589 0.92645 0.0
C2195 C 0.30912 0.56381 0.90882 0.0
C2196 C 0.32185 0.58215 0.90577 0.0
C2197 C 0.34347 0.58162 0.90963 0.0
C2198 C 0.35551 0.59891 0.90686 0.0
C2199 C 0.34611 0.6168 0.90009 0.0
C2200 C 0.32465 0.6174 0.89597 0.0
C2201 C 0.31254 0.60015 0.89869 0.0
H2202 H 0.35546 0.63017 0.89796 0.0
H2203 H 0.23261 0.46543 0.91525 0.0
H2204 H 0.71504 0.28416 0.88294 0.0
H2205 H 0.68296 0.28375 0.90646 0.0
H2206 H 0.69566 0.22261 0.92543 0.0
H2207 H 0.72804 0.22296 0.90176 0.0
H2208 H 0.65377 0.22976 0.90908 0.0
H2209 H 0.70212 0.25622 0.96721 0.0
H2210 H 0.73042 0.27827 0.98264 0.0
H2211 H 0.69251 0.33045 0.97208 0.0
H2212 H 0.66409 0.30874 0.95623 0.0
H2213 H 0.56664 0.23954 0.99148 0.0
H2214 H 0.60028 0.23148 0.97253 0.0
H2215 H 0.60718 0.29361 0.95406 0.0
H2216 H 0.57402 0.30179 0.97325 0.0
H2217 H 0.64131 0.28087 0.97498 0.0
H2218 H 0.59526 0.25537 0.91196 0.0
H2219 H 0.56707 0.23405 0.89482 0.0
H2220 H 0.60046 0.18085 0.91341 0.0
H2221 H 0.62874 0.20189 0.93095 0.0
C2222 C 0.71099 0.27062 0.89211 0.0
C2223 C 0.72393 0.25357 0.89052 0.0
C2224 C 0.69275 0.27044 0.90561 0.0
C2225 C 0.68704 0.25319 0.91774 0.0
C2226 C 0.69987 0.23607 0.91619 0.0
C2227 C 0.71834 0.23632 0.90284 0.0
C2228 C 0.66744 0.2533 0.93169 0.0
C2229 C 0.65111 0.24061 0.92386 0.0
C2230 C 0.66399 0.26769 0.95067 0.0
C2231 C 0.681 0.28083 0.96038 0.0
C2232 C 0.69987 0.2724 0.96801 0.0
C2233 C 0.71593 0.28484 0.97686 0.0
C2234 C 0.71328 0.30575 0.97831 0.0
C2235 C 0.69454 0.31425 0.97095 0.0
C2236 C 0.67844 0.30188 0.96206 0.0
C2237 C 0.57522 0.25139 0.98305 0.0
C2238 C 0.56774 0.27132 0.98396 0.0
C2239 C 0.59443 0.24677 0.97225 0.0
C2240 C 0.60629 0.26197 0.96195 0.0
C2241 C 0.59841 0.28168 0.9621 0.0
C2242 C 0.5794 0.28632 0.97301 0.0
C2243 C 0.62731 0.25783 0.95183 0.0
C2244 C 0.64398 0.26976 0.96048 0.0
C2245 C 0.63099 0.24284 0.93352 0.0
C2246 C 0.61398 0.2302 0.92304 0.0
C2247 C 0.5965 0.23913 0.91259 0.0
C2248 C 0.58052 0.2271 0.90276 0.0
C2249 C 0.58194 0.20611 0.9031 0.0
C2250 C 0.59936 0.19711 0.91321 0.0
C2251 C 0.61537 0.20908 0.92309 0.0
H2252 H 0.56956 0.19681 0.89547 0.0
H2253 H 0.72573 0.31535 0.98516 0.0
H2254 H 0.83494 0.65619 0.89694 0.0
H2255 H 0.83522 0.62985 0.92645 0.0
H2256 H 0.80912 0.67165 0.97961 0.0
H2257 H 0.8087 0.69796 0.95027 0.0
H2258 H 0.83907 0.64968 0.99907 0.0
H2259 H 0.77859 0.63712 0.94985 0.0
H2260 H 0.75953 0.6309 0.91183 0.0
H2261 H 0.79512 0.57698 0.89747 0.0
H2262 H 0.81461 0.58305 0.93527 0.0
H2263 H 0.7827 0.5573 0.0527 0.0
H2264 H 0.78462 0.58494 0.02515 0.0
H2265 H 0.85169 0.58386 0.0293 0.0
H2266 H 0.84992 0.55636 0.0571 0.0
H2267 H 0.80113 0.58567 0.98144 0.0
H2268 H 0.87088 0.62769 0.02301 0.0
H2269 H 0.88623 0.63669 0.06268 0.0
H2270 H 0.82551 0.63565 0.09485 0.0
H2271 H 0.80993 0.62594 0.05556 0.0
C2272 C 0.82925 0.65976 0.91492 0.0
C2273 C 0.82179 0.67918 0.92124 0.0
C2274 C 0.82944 0.6447 0.93176 0.0
C2275 C 0.82202 0.64873 0.95519 0.0
C2276 C 0.81502 0.66821 0.96168 0.0
C2277 C 0.81485 0.68327 0.94489 0.0
C2278 C 0.82097 0.63256 0.97281 0.0
C2279 C 0.83086 0.63565 0.99514 0.0
C2280 C 0.80996 0.61438 0.96792 0.0
C2281 C 0.7982 0.61065 0.94526 0.0
C2282 C 0.78246 0.62402 0.93849 0.0
C2283 C 0.77156 0.62051 0.917 0.0
C2284 C 0.77615 0.60359 0.90221 0.0
C2285 C 0.79161 0.59011 0.90892 0.0
C2286 C 0.80257 0.59356 0.93038 0.0
C2287 C 0.79788 0.56299 0.04787 0.0
C2288 C 0.81617 0.55454 0.05705 0.0
C2289 C 0.79894 0.57878 0.03207 0.0
C2290 C 0.81828 0.58656 0.02524 0.0
C2291 C 0.83657 0.5783 0.03456 0.0
C2292 C 0.83553 0.56248 0.05034 0.0
C2293 C 0.81929 0.60276 0.00765 0.0
C2294 C 0.80947 0.59964 0.98528 0.0
C2295 C 0.82996 0.62109 0.01266 0.0
C2296 C 0.83932 0.62595 0.03646 0.0
C2297 C 0.86086 0.62921 0.03863 0.0
C2298 C 0.8696 0.63432 0.06105 0.0
C2299 C 0.85687 0.63653 0.08133 0.0
C2300 C 0.83538 0.63359 0.07922 0.0
C2301 C 0.82662 0.62813 0.05693 0.0
H2302 H 0.86362 0.64063 0.09865 0.0
H2303 H 0.76769 0.60089 0.88558 0.0
loop_
_geom_bond_atom_site_label_1
_geom_bond_atom_site_label_2
_geom_bond_distance
_geom_bond_site_symmetry_2
_ccdc_geom_bond_type
H0 O26 0.856 . S
H1 O29 0.854 . S
H2 C37 0.930 . S
H3 C38 0.930 . S
H4 C40 0.930 . S
H5 C41 0.930 . S
H6 C43 0.931 . S
H7 C44 0.930 . S
H8 C46 0.930 . S
H9 C47 0.929 . S
H10 C49 0.930 . S
H11 C50 0.931 . S
H12 C52 0.930 . S
H13 C53 0.929 . S
H14 C55 0.931 . S
H15 C56 0.930 . S
H16 C58 0.930 . S
H17 C59 0.932 . S
H18 C61 0.930 . S
H19 C62 0.929 . S
H20 C64 0.931 . S
H21 C65 0.930 . S
H22 C67 0.929 . S
H23 C68 0.931 . S
H24 C70 0.930 . S
H25 C71 0.929 . S
O26 H0 0.856 . S
O26 C72 1.300 . S
O27 C72 1.209 . S
O28 C73 1.199 . S
O29 H1 0.854 . S
O29 C73 1.297 . S
C30 C31 1.404 . S
C30 C35 1.397 . S
C30 C36 1.492 . S
C31 C30 1.404 . S
C31 C32 1.396 . S
C31 C42 1.492 . S
C32 C31 1.396 . S
C32 C33 1.397 . S
C32 C48 1.509 . S
C33 C32 1.397 . S
C33 C34 1.412 . S
C33 C54 1.485 . S
C34 C33 1.412 . S
C34 C35 1.388 . S
C34 C60 1.490 . S
C35 C30 1.397 . S
C35 C34 1.388 . S
C35 C66 1.519 . S
C36 C30 1.492 . S
C36 C37 1.363 . S
C36 C41 1.390 . S
C37 H2 0.930 . S
C37 C36 1.363 . S
C37 C38 1.372 . S
C38 H3 0.930 . S
C38 C37 1.372 . S
C38 C39 1.383 . S
C39 C38 1.383 . S
C39 C40 1.395 . S
C40 H4 0.930 . S
C40 C39 1.395 . S
C40 C41 1.362 . S
C41 H5 0.930 . S
C41 C36 1.390 . S
C41 C40 1.362 . S
C42 C31 1.492 . S
C42 C43 1.377 . S
C42 C47 1.397 . S
C43 H6 0.931 . S
C43 C42 1.377 . S
C43 C44 1.376 . S
C44 H7 0.930 . S
C44 C43 1.376 . S
C44 C45 1.376 . S
C45 C44 1.376 . S
C45 C46 1.378 . S
C45 C72 1.486 . S
C46 H8 0.930 . S
C46 C45 1.378 . S
C46 C47 1.376 . S
C47 H9 0.929 . S
C47 C42 1.397 . S
C47 C46 1.376 . S
C48 C32 1.509 . S
C48 C49 1.391 . S
C48 C53 1.386 . S
C49 H10 0.930 . S
C49 C48 1.391 . S
C49 C50 1.375 . S
C50 H11 0.931 . S
C50 C49 1.375 . S
C50 C51 1.375 . S
C51 C50 1.375 . S
C51 C52 1.361 . S
C52 H12 0.930 . S
C52 C51 1.361 . S
C52 C53 1.399 . S
C53 H13 0.929 . S
C53 C48 1.386 . S
C53 C52 1.399 . S
C54 C33 1.485 . S
C54 C55 1.394 . S
C54 C59 1.360 . S
C55 H14 0.931 . S
C55 C54 1.394 . S
C55 C56 1.372 . S
C56 H15 0.930 . S
C56 C55 1.372 . S
C56 C57 1.397 . S
C57 C56 1.397 . S
C57 C58 1.390 . S
C57 C73 1.476 . S
C58 H16 0.930 . S
C58 C57 1.390 . S
C58 C59 1.366 . S
C59 H17 0.932 . S
C59 C54 1.360 . S
C59 C58 1.366 . S
C60 C34 1.490 . S
C60 C61 1.380 . S
C60 C65 1.386 . S
C61 H18 0.930 . S
C61 C60 1.380 . S
C61 C62 1.381 . S
C62 H19 0.929 . S
C62 C61 1.381 . S
C62 C63 1.371 . S
C63 C62 1.371 . S
C63 C64 1.380 . S
C64 H20 0.931 . S
C64 C63 1.380 . S
C64 C65 1.387 . S
C65 H21 0.930 . S
C65 C60 1.386 . S
C65 C64 1.387 . S
C66 C35 1.519 . S
C66 C67 1.377 . S
C66 C71 1.361 . S
C67 H22 0.929 . S
C67 C66 1.377 . S
C67 C68 1.386 . S
C68 H23 0.931 . S
C68 C67 1.386 . S
C68 C69 1.363 . S
C69 C68 1.363 . S
C69 C70 1.385 . S
C70 H24 0.930 . S
C70 C69 1.385 . S
C70 C71 1.396 . S
C71 H25 0.929 . S
C71 C66 1.361 . S
C71 C70 1.396 . S
C72 O26 1.300 . S
C72 O27 1.209 . S
C72 C45 1.486 . S
C73 O28 1.199 . S
C73 O29 1.297 . S
C73 C57 1.476 . S
H74 O100 0.856 . S
H75 O103 0.854 . S
H76 C111 0.930 . S
H77 C112 0.930 . S
H78 C114 0.930 . S
H79 C115 0.930 . S
H80 C117 0.931 . S
H81 C118 0.930 . S
H82 C120 0.930 . S
H83 C121 0.929 . S
H84 C123 0.930 . S
H85 C124 0.931 . S
H86 C126 0.930 . S
H87 C127 0.929 . S
H88 C129 0.931 . S
H89 C130 0.930 . S
H90 C132 0.930 . S
H91 C133 0.932 . S
H92 C135 0.930 . S
H93 C136 0.929 . S
H94 C138 0.931 . S
H95 C139 0.930 . S
H96 C141 0.929 . S
H97 C142 0.931 . S
H98 C144 0.930 . S
H99 C145 0.929 . S
O100 H74 0.856 . S
O100 C146 1.300 . S
O101 C146 1.209 . S
O102 C147 1.199 . S
O103 H75 0.854 . S
O103 C147 1.297 . S
C104 C105 1.404 . S
C104 C109 1.397 . S
C104 C110 1.492 . S
C105 C104 1.404 . S
C105 C106 1.396 . S
C105 C116 1.492 . S
C106 C105 1.396 . S
C106 C107 1.397 . S
C106 C122 1.509 . S
C107 C106 1.397 . S
C107 C108 1.412 . S
C107 C128 1.485 . S
C108 C107 1.412 . S
C108 C109 1.388 . S
C108 C134 1.490 . S
C109 C104 1.397 . S
C109 C108 1.388 . S
C109 C140 1.519 . S
C110 C104 1.492 . S
C110 C111 1.363 . S
C110 C115 1.390 . S
C111 H76 0.930 . S
C111 C110 1.363 . S
C111 C112 1.372 . S
C112 H77 0.930 . S
C112 C111 1.372 . S
C112 C113 1.383 . S
C113 C112 1.383 . S
C113 C114 1.395 . S
C114 H78 0.930 . S
C114 C113 1.395 . S
C114 C115 1.362 . S
C115 H79 0.930 . S
C115 C110 1.390 . S
C115 C114 1.362 . S
C116 C105 1.492 . S
C116 C117 1.377 . S
C116 C121 1.397 . S
C117 H80 0.931 . S
C117 C116 1.377 . S
C117 C118 1.376 . S
C118 H81 0.930 . S
C118 C117 1.376 . S
C118 C119 1.376 . S
C119 C118 1.376 . S
C119 C120 1.378 . S
C119 C146 1.486 . S
C120 H82 0.930 . S
C120 C119 1.378 . S
C120 C121 1.376 . S
C121 H83 0.929 . S
C121 C116 1.397 . S
C121 C120 1.376 . S
C122 C106 1.509 . S
C122 C123 1.391 . S
C122 C127 1.386 . S
C123 H84 0.930 . S
C123 C122 1.391 . S
C123 C124 1.375 . S
C124 H85 0.931 . S
C124 C123 1.375 . S
C124 C125 1.375 . S
C125 C124 1.375 . S
C125 C126 1.361 . S
C126 H86 0.930 . S
C126 C125 1.361 . S
C126 C127 1.399 . S
C127 H87 0.929 . S
C127 C122 1.386 . S
C127 C126 1.399 . S
C128 C107 1.485 . S
C128 C129 1.394 . S
C128 C133 1.360 . S
C129 H88 0.931 . S
C129 C128 1.394 . S
C129 C130 1.372 . S
C130 H89 0.930 . S
C130 C129 1.372 . S
C130 C131 1.397 . S
C131 C130 1.397 . S
C131 C132 1.390 . S
C131 C147 1.476 . S
C132 H90 0.930 . S
C132 C131 1.390 . S
C132 C133 1.366 . S
C133 H91 0.932 . S
C133 C128 1.360 . S
C133 C132 1.366 . S
C134 C108 1.490 . S
C134 C135 1.380 . S
C134 C139 1.386 . S
C135 H92 0.930 . S
C135 C134 1.380 . S
C135 C136 1.381 . S
C136 H93 0.929 . S
C136 C135 1.381 . S
C136 C137 1.371 . S
C137 C136 1.371 . S
C137 C138 1.380 . S
C138 H94 0.931 . S
C138 C137 1.380 . S
C138 C139 1.387 . S
C139 H95 0.930 . S
C139 C134 1.386 . S
C139 C138 1.387 . S
C140 C109 1.519 . S
C140 C141 1.377 . S
C140 C145 1.361 . S
C141 H96 0.929 . S
C141 C140 1.377 . S
C141 C142 1.386 . S
C142 H97 0.931 . S
C142 C141 1.386 . S
C142 C143 1.363 . S
C143 C142 1.363 . S
C143 C144 1.385 . S
C144 H98 0.930 . S
C144 C143 1.385 . S
C144 C145 1.396 . S
C145 H99 0.929 . S
C145 C140 1.361 . S
C145 C144 1.396 . S
C146 O100 1.300 . S
C146 O101 1.209 . S
C146 C119 1.486 . S
C147 O102 1.199 . S
C147 O103 1.297 . S
C147 C131 1.476 . S
H148 O174 0.856 . S
H149 O177 0.854 . S
H150 C185 0.930 . S
H151 C186 0.930 . S
H152 C188 0.930 . S
H153 C189 0.930 . S
H154 C191 0.931 . S
H155 C192 0.930 . S
H156 C194 0.930 . S
H157 C195 0.929 . S
H158 C197 0.930 . S
H159 C198 0.931 . S
H160 C200 0.930 . S
H161 C201 0.929 . S
H162 C203 0.931 . S
H163 C204 0.930 . S
H164 C206 0.930 . S
H165 C207 0.932 . S
H166 C209 0.930 . S
H167 C210 0.929 . S
H168 C212 0.931 . S
H169 C213 0.930 . S
H170 C215 0.929 . S
H171 C216 0.931 . S
H172 C218 0.930 . S
H173 C219 0.929 . S
O174 H148 0.856 . S
O174 C220 1.300 . S
O175 C220 1.209 . S
O176 C221 1.199 . S
O177 H149 0.854 . S
O177 C221 1.297 . S
C178 C179 1.404 . S
C178 C183 1.397 . S
C178 C184 1.492 . S
C179 C178 1.404 . S
C179 C180 1.396 . S
C179 C190 1.492 . S
C180 C179 1.396 . S
C180 C181 1.397 . S
C180 C196 1.509 . S
C181 C180 1.397 . S
C181 C182 1.412 . S
C181 C202 1.485 . S
C182 C181 1.412 . S
C182 C183 1.388 . S
C182 C208 1.490 . S
C183 C178 1.397 . S
C183 C182 1.388 . S
C183 C214 1.519 . S
C184 C178 1.492 . S
C184 C185 1.363 . S
C184 C189 1.390 . S
C185 H150 0.930 . S
C185 C184 1.363 . S
C185 C186 1.372 . S
C186 H151 0.930 . S
C186 C185 1.372 . S
C186 C187 1.383 . S
C187 C186 1.383 . S
C187 C188 1.395 . S
C188 H152 0.930 . S
C188 C187 1.395 . S
C188 C189 1.362 . S
C189 H153 0.930 . S
C189 C184 1.390 . S
C189 C188 1.362 . S
C190 C179 1.492 . S
C190 C191 1.377 . S
C190 C195 1.397 . S
C191 H154 0.931 . S
C191 C190 1.377 . S
C191 C192 1.376 . S
C192 H155 0.930 . S
C192 C191 1.376 . S
C192 C193 1.376 . S
C193 C192 1.376 . S
C193 C194 1.378 . S
C193 C220 1.486 . S
C194 H156 0.930 . S
C194 C193 1.378 . S
C194 C195 1.376 . S
C195 H157 0.929 . S
C195 C190 1.397 . S
C195 C194 1.376 . S
C196 C180 1.509 . S
C196 C197 1.391 . S
C196 C201 1.386 . S
C197 H158 0.930 . S
C197 C196 1.391 . S
C197 C198 1.375 . S
C198 H159 0.931 . S
C198 C197 1.375 . S
C198 C199 1.375 . S
C199 C198 1.375 . S
C199 C200 1.361 . S
C200 H160 0.930 . S
C200 C199 1.361 . S
C200 C201 1.399 . S
C201 H161 0.929 . S
C201 C196 1.386 . S
C201 C200 1.399 . S
C202 C181 1.485 . S
C202 C203 1.394 . S
C202 C207 1.360 . S
C203 H162 0.931 . S
C203 C202 1.394 . S
C203 C204 1.372 . S
C204 H163 0.930 . S
C204 C203 1.372 . S
C204 C205 1.397 . S
C205 C204 1.397 . S
C205 C206 1.390 . S
C205 C221 1.476 . S
C206 H164 0.930 . S
C206 C205 1.390 . S
C206 C207 1.366 . S
C207 H165 0.932 . S
C207 C202 1.360 . S
C207 C206 1.366 . S
C208 C182 1.490 . S
C208 C209 1.380 . S
C208 C213 1.386 . S
C209 H166 0.930 . S
C209 C208 1.380 . S
C209 C210 1.381 . S
C210 H167 0.929 . S
C210 C209 1.381 . S
C210 C211 1.371 . S
C211 C210 1.371 . S
C211 C212 1.380 . S
C212 H168 0.931 . S
C212 C211 1.380 . S
C212 C213 1.387 . S
C213 H169 0.930 . S
C213 C208 1.386 . S
C213 C212 1.387 . S
C214 C183 1.519 . S
C214 C215 1.377 . S
C214 C219 1.361 . S
C215 H170 0.929 . S
C215 C214 1.377 . S
C215 C216 1.386 . S
C216 H171 0.931 . S
C216 C215 1.386 . S
C216 C217 1.363 . S
C217 C216 1.363 . S
C217 C218 1.385 . S
C218 H172 0.930 . S
C218 C217 1.385 . S
C218 C219 1.396 . S
C219 H173 0.929 . S
C219 C214 1.361 . S
C219 C218 1.396 . S
C220 O174 1.300 . S
C220 O175 1.209 . S
C220 C193 1.486 . S
C221 O176 1.199 . S
C221 O177 1.297 . S
C221 C205 1.476 . S
H222 O248 0.856 1_545 S
H223 O251 0.854 . S
H224 C259 0.930 . S
H225 C260 0.930 . S
H226 C262 0.930 . S
H227 C263 0.930 . S
H228 C265 0.931 . S
H229 C266 0.930 . S
H230 C268 0.930 . S
H231 C269 0.929 . S
H232 C271 0.930 . S
H233 C272 0.931 . S
H234 C274 0.930 . S
H235 C275 0.929 . S
H236 C277 0.931 . S
H237 C278 0.930 . S
H238 C280 0.930 . S
H239 C281 0.932 . S
H240 C283 0.930 . S
H241 C284 0.929 . S
H242 C286 0.931 . S
H243 C287 0.930 . S
H244 C289 0.929 . S
H245 C290 0.931 . S
H246 C292 0.930 . S
H247 C293 0.929 . S
O248 H222 0.856 1_565 S
O248 C294 1.302 . S
O249 C294 1.195 1_545 S
O250 C295 1.199 . S
O251 H223 0.854 . S
O251 C295 1.297 . S
C252 C253 1.404 . S
C252 C257 1.397 . S
C252 C258 1.492 . S
C253 C252 1.404 . S
C253 C254 1.396 . S
C253 C264 1.492 . S
C254 C253 1.396 . S
C254 C255 1.397 . S
C254 C270 1.509 . S
C255 C254 1.397 . S
C255 C256 1.412 . S
C255 C276 1.485 . S
C256 C255 1.412 . S
C256 C257 1.388 . S
C256 C282 1.490 . S
C257 C252 1.397 . S
C257 C256 1.388 . S
C257 C288 1.519 . S
C258 C252 1.492 . S
C258 C259 1.363 . S
C258 C263 1.390 . S
C259 H224 0.930 . S
C259 C258 1.363 . S
C259 C260 1.372 . S
C260 H225 0.930 . S
C260 C259 1.372 . S
C260 C261 1.383 . S
C261 C260 1.383 . S
C261 C262 1.395 . S
C262 H226 0.930 . S
C262 C261 1.395 . S
C262 C263 1.362 . S
C263 H227 0.930 . S
C263 C258 1.390 . S
C263 C262 1.362 . S
C264 C253 1.492 . S
C264 C265 1.377 . S
C264 C269 1.397 . S
C265 H228 0.931 . S
C265 C264 1.377 . S
C265 C266 1.376 . S
C266 H229 0.930 . S
C266 C265 1.376 . S
C266 C267 1.376 . S
C267 C266 1.376 . S
C267 C268 1.378 . S
C267 C294 1.498 . S
C268 H230 0.930 . S
C268 C267 1.378 . S
C268 C269 1.376 . S
C269 H231 0.929 . S
C269 C264 1.397 . S
C269 C268 1.376 . S
C270 C254 1.509 . S
C270 C271 1.391 . S
C270 C275 1.386 . S
C271 H232 0.930 . S
C271 C270 1.391 . S
C271 C272 1.375 . S
C272 H233 0.931 . S
C272 C271 1.375 . S
C272 C273 1.375 . S
C273 C272 1.375 . S
C273 C274 1.361 . S
C274 H234 0.930 . S
C274 C273 1.361 . S
C274 C275 1.399 . S
C275 H235 0.929 . S
C275 C270 1.386 . S
C275 C274 1.399 . S
C276 C255 1.485 . S
C276 C277 1.394 . S
C276 C281 1.360 . S
C277 H236 0.931 . S
C277 C276 1.394 . S
C277 C278 1.372 . S
C278 H237 0.930 . S
C278 C277 1.372 . S
C278 C279 1.397 . S
C279 C278 1.397 . S
C279 C280 1.390 . S
C279 C295 1.476 . S
C280 H238 0.930 . S
C280 C279 1.390 . S
C280 C281 1.366 . S
C281 H239 0.932 . S
C281 C276 1.360 . S
C281 C280 1.366 . S
C282 C256 1.490 . S
C282 C283 1.380 . S
C282 C287 1.386 . S
C283 H240 0.930 . S
C283 C282 1.380 . S
C283 C284 1.381 . S
C284 H241 0.929 . S
C284 C283 1.381 . S
C284 C285 1.371 . S
C285 C284 1.371 . S
C285 C286 1.380 . S
C286 H242 0.931 . S
C286 C285 1.380 . S
C286 C287 1.387 . S
C287 H243 0.930 . S
C287 C282 1.386 . S
C287 C286 1.387 . S
C288 C257 1.519 . S
C288 C289 1.377 . S
C288 C293 1.361 . S
C289 H244 0.929 . S
C289 C288 1.377 . S
C289 C290 1.386 . S
C290 H245 0.931 . S
C290 C289 1.386 . S
C290 C291 1.363 . S
C291 C290 1.363 . S
C291 C292 1.385 . S
C292 H246 0.930 . S
C292 C291 1.385 . S
C292 C293 1.396 . S
C293 H247 0.929 . S
C293 C288 1.361 . S
C293 C292 1.396 . S
C294 O248 1.302 . S
C294 O249 1.195 1_565 S
C294 C267 1.498 . S
C295 O250 1.199 . S
C295 O251 1.297 . S
C295 C279 1.476 . S
H296 O322 0.856 . S
H297 O325 0.854 . S
H298 C333 0.930 . S
H299 C334 0.930 . S
H300 C336 0.930 . S
H301 C337 0.930 . S
H302 C339 0.931 . S
H303 C340 0.930 . S
H304 C342 0.930 . S
H305 C343 0.929 . S
H306 C345 0.930 . S
H307 C346 0.931 . S
H308 C348 0.930 . S
H309 C349 0.929 . S
H310 C351 0.931 . S
H311 C352 0.930 . S
H312 C354 0.930 . S
H313 C355 0.932 . S
H314 C357 0.930 . S
H315 C358 0.929 . S
H316 C360 0.931 . S
H317 C361 0.930 . S
H318 C363 0.929 . S
H319 C364 0.931 . S
H320 C366 0.930 . S
H321 C367 0.929 . S
O322 H296 0.856 . S
O322 C368 1.300 . S
O323 C368 1.209 . S
O324 C369 1.199 . S
O325 H297 0.854 . S
O325 C369 1.297 . S
C326 C327 1.404 . S
C326 C331 1.397 . S
C326 C332 1.492 . S
C327 C326 1.404 . S
C327 C328 1.396 . S
C327 C338 1.492 . S
C328 C327 1.396 . S
C328 C329 1.397 . S
C328 C344 1.509 . S
C329 C328 1.397 . S
C329 C330 1.412 . S
C329 C350 1.485 . S
C330 C329 1.412 . S
C330 C331 1.388 . S
C330 C356 1.490 . S
C331 C326 1.397 . S
C331 C330 1.388 . S
C331 C362 1.519 . S
C332 C326 1.492 . S
C332 C333 1.363 . S
C332 C337 1.390 . S
C333 H298 0.930 . S
C333 C332 1.363 . S
C333 C334 1.372 . S
C334 H299 0.930 . S
C334 C333 1.372 . S
C334 C335 1.383 . S
C335 C334 1.383 . S
C335 C336 1.395 . S
C336 H300 0.930 . S
C336 C335 1.395 . S
C336 C337 1.362 . S
C337 H301 0.930 . S
C337 C332 1.390 . S
C337 C336 1.362 . S
C338 C327 1.492 . S
C338 C339 1.377 . S
C338 C343 1.397 . S
C339 H302 0.931 . S
C339 C338 1.377 . S
C339 C340 1.376 . S
C340 H303 0.930 . S
C340 C339 1.376 . S
C340 C341 1.376 . S
C341 C340 1.376 . S
C341 C342 1.378 . S
C341 C368 1.486 . S
C342 H304 0.930 . S
C342 C341 1.378 . S
C342 C343 1.376 . S
C343 H305 0.929 . S
C343 C338 1.397 . S
C343 C342 1.376 . S
C344 C328 1.509 . S
C344 C345 1.391 . S
C344 C349 1.386 . S
C345 H306 0.930 . S
C345 C344 1.391 . S
C345 C346 1.375 . S
C346 H307 0.931 . S
C346 C345 1.375 . S
C346 C347 1.375 . S
C347 C346 1.375 . S
C347 C348 1.361 . S
C348 H308 0.930 . S
C348 C347 1.361 . S
C348 C349 1.399 . S
C349 H309 0.929 . S
C349 C344 1.386 . S
C349 C348 1.399 . S
C350 C329 1.485 . S
C350 C351 1.394 . S
C350 C355 1.360 . S
C351 H310 0.931 . S
C351 C350 1.394 . S
C351 C352 1.372 . S
C352 H311 0.930 . S
C352 C351 1.372 . S
C352 C353 1.397 . S
C353 C352 1.397 . S
C353 C354 1.390 . S
C353 C369 1.476 . S
C354 H312 0.930 . S
C354 C353 1.390 . S
C354 C355 1.366 . S
C355 H313 0.932 . S
C355 C350 1.360 . S
C355 C354 1.366 . S
C356 C330 1.490 . S
C356 C357 1.380 . S
C356 C361 1.386 . S
C357 H314 0.930 . S
C357 C356 1.380 . S
C357 C358 1.381 . S
C358 H315 0.929 . S
C358 C357 1.381 . S
C358 C359 1.371 . S
C359 C358 1.371 . S
C359 C360 1.380 . S
C360 H316 0.931 . S
C360 C359 1.380 . S
C360 C361 1.387 . S
C361 H317 0.930 . S
C361 C356 1.386 . S
C361 C360 1.387 . S
C362 C331 1.519 . S
C362 C363 1.377 . S
C362 C367 1.361 . S
C363 H318 0.929 . S
C363 C362 1.377 . S
C363 C364 1.386 . S
C364 H319 0.931 . S
C364 C363 1.386 . S
C364 C365 1.363 . S
C365 C364 1.363 . S
C365 C366 1.385 . S
C366 H320 0.930 . S
C366 C365 1.385 . S
C366 C367 1.396 . S
C367 H321 0.929 . S
C367 C362 1.361 . S
C367 C366 1.396 . S
C368 O322 1.300 . S
C368 O323 1.209 . S
C368 C341 1.486 . S
C369 O324 1.199 . S
C369 O325 1.297 . S
C369 C353 1.476 . S
H370 O396 0.856 . S
H371 O399 0.854 . S
H372 C407 0.930 . S
H373 C408 0.930 . S
H374 C410 0.930 . S
H375 C411 0.930 . S
H376 C413 0.931 . S
H377 C414 0.930 . S
H378 C416 0.930 . S
H379 C417 0.929 . S
H380 C419 0.930 . S
H381 C420 0.931 . S
H382 C422 0.930 . S
H383 C423 0.929 . S
H384 C425 0.931 . S
H385 C426 0.930 . S
H386 C428 0.930 . S
H387 C429 0.932 . S
H388 C431 0.930 . S
H389 C432 0.929 . S
H390 C434 0.931 . S
H391 C435 0.930 . S
H392 C437 0.929 . S
H393 C438 0.931 . S
H394 C440 0.930 . S
H395 C441 0.929 . S
O396 H370 0.856 . S
O396 C442 1.300 . S
O397 C442 1.209 . S
O398 C443 1.199 . S
O399 H371 0.854 . S
O399 C443 1.297 . S
C400 C401 1.404 . S
C400 C405 1.397 . S
C400 C406 1.492 . S
C401 C400 1.404 . S
C401 C402 1.396 . S
C401 C412 1.492 . S
C402 C401 1.396 . S
C402 C403 1.397 . S
C402 C418 1.509 . S
C403 C402 1.397 . S
C403 C404 1.412 . S
C403 C424 1.485 . S
C404 C403 1.412 . S
C404 C405 1.388 . S
C404 C430 1.490 . S
C405 C400 1.397 . S
C405 C404 1.388 . S
C405 C436 1.519 . S
C406 C400 1.492 . S
C406 C407 1.363 . S
C406 C411 1.390 . S
C407 H372 0.930 . S
C407 C406 1.363 . S
C407 C408 1.372 . S
C408 H373 0.930 . S
C408 C407 1.372 . S
C408 C409 1.383 . S
C409 C408 1.383 . S
C409 C410 1.395 . S
C410 H374 0.930 . S
C410 C409 1.395 . S
C410 C411 1.362 . S
C411 H375 0.930 . S
C411 C406 1.390 . S
C411 C410 1.362 . S
C412 C401 1.492 . S
C412 C413 1.377 . S
C412 C417 1.397 . S
C413 H376 0.931 . S
C413 C412 1.377 . S
C413 C414 1.376 . S
C414 H377 0.930 . S
C414 C413 1.376 . S
C414 C415 1.376 . S
C415 C414 1.376 . S
C415 C416 1.378 . S
C415 C442 1.486 . S
C416 H378 0.930 . S
C416 C415 1.378 . S
C416 C417 1.376 . S
C417 H379 0.929 . S
C417 C412 1.397 . S
C417 C416 1.376 . S
C418 C402 1.509 . S
C418 C419 1.391 . S
C418 C423 1.386 . S
C419 H380 0.930 . S
C419 C418 1.391 . S
C419 C420 1.375 . S
C420 H381 0.931 . S
C420 C419 1.375 . S
C420 C421 1.375 . S
C421 C420 1.375 . S
C421 C422 1.361 . S
C422 H382 0.930 . S
C422 C421 1.361 . S
C422 C423 1.399 . S
C423 H383 0.929 . S
C423 C418 1.386 . S
C423 C422 1.399 . S
C424 C403 1.485 . S
C424 C425 1.394 . S
C424 C429 1.360 . S
C425 H384 0.931 . S
C425 C424 1.394 . S
C425 C426 1.372 . S
C426 H385 0.930 . S
C426 C425 1.372 . S
C426 C427 1.397 . S
C427 C426 1.397 . S
C427 C428 1.390 . S
C427 C443 1.476 . S
C428 H386 0.930 . S
C428 C427 1.390 . S
C428 C429 1.366 . S
C429 H387 0.932 . S
C429 C424 1.360 . S
C429 C428 1.366 . S
C430 C404 1.490 . S
C430 C431 1.380 . S
C430 C435 1.386 . S
C431 H388 0.930 . S
C431 C430 1.380 . S
C431 C432 1.381 . S
C432 H389 0.929 . S
C432 C431 1.381 . S
C432 C433 1.371 . S
C433 C432 1.371 . S
C433 C434 1.380 . S
C434 H390 0.931 . S
C434 C433 1.380 . S
C434 C435 1.387 . S
C435 H391 0.930 . S
C435 C430 1.386 . S
C435 C434 1.387 . S
C436 C405 1.519 . S
C436 C437 1.377 . S
C436 C441 1.361 . S
C437 H392 0.929 . S
C437 C436 1.377 . S
C437 C438 1.386 . S
C438 H393 0.931 . S
C438 C437 1.386 . S
C438 C439 1.363 . S
C439 C438 1.363 . S
C439 C440 1.385 . S
C440 H394 0.930 . S
C440 C439 1.385 . S
C440 C441 1.396 . S
C441 H395 0.929 . S
C441 C436 1.361 . S
C441 C440 1.396 . S
C442 O396 1.300 . S
C442 O397 1.209 . S
C442 C415 1.486 . S
C443 O398 1.199 . S
C443 O399 1.297 . S
C443 C427 1.476 . S
H444 O470 0.856 . S
H445 O473 0.854 . S
H446 C481 0.930 . S
H447 C482 0.930 . S
H448 C484 0.930 . S
H449 C485 0.930 . S
H450 C487 0.931 . S
H451 C488 0.930 . S
H452 C490 0.930 . S
H453 C491 0.929 . S
H454 C493 0.930 . S
H455 C494 0.931 . S
H456 C496 0.930 . S
H457 C497 0.929 . S
H458 C499 0.931 . S
H459 C500 0.930 . S
H460 C502 0.930 . S
H461 C503 0.932 . S
H462 C505 0.930 . S
H463 C506 0.929 . S
H464 C508 0.931 . S
H465 C509 0.930 . S
H466 C511 0.929 . S
H467 C512 0.931 . S
H468 C514 0.930 . S
H469 C515 0.929 . S
O470 H444 0.856 . S
O470 C516 1.300 . S
O471 C516 1.209 . S
O472 C517 1.199 . S
O473 H445 0.854 . S
O473 C517 1.297 . S
C474 C475 1.404 . S
C474 C479 1.397 . S
C474 C480 1.492 . S
C475 C474 1.404 . S
C475 C476 1.396 . S
C475 C486 1.492 . S
C476 C475 1.396 . S
C476 C477 1.397 . S
C476 C492 1.509 . S
C477 C476 1.397 . S
C477 C478 1.412 . S
C477 C498 1.485 . S
C478 C477 1.412 . S
C478 C479 1.388 . S
C478 C504 1.490 . S
C479 C474 1.397 . S
C479 C478 1.388 . S
C479 C510 1.519 . S
C480 C474 1.492 . S
C480 C481 1.363 . S
C480 C485 1.390 . S
C481 H446 0.930 . S
C481 C480 1.363 . S
C481 C482 1.372 . S
C482 H447 0.930 . S
C482 C481 1.372 . S
C482 C483 1.383 . S
C483 C482 1.383 . S
C483 C484 1.395 . S
C484 H448 0.930 . S
C484 C483 1.395 . S
C484 C485 1.362 . S
C485 H449 0.930 . S
C485 C480 1.390 . S
C485 C484 1.362 . S
C486 C475 1.492 . S
C486 C487 1.377 . S
C486 C491 1.397 . S
C487 H450 0.931 . S
C487 C486 1.377 . S
C487 C488 1.376 . S
C488 H451 0.930 . S
C488 C487 1.376 . S
C488 C489 1.376 . S
C489 C488 1.376 . S
C489 C490 1.378 . S
C489 C516 1.486 . S
C490 H452 0.930 . S
C490 C489 1.378 . S
C490 C491 1.376 . S
C491 H453 0.929 . S
C491 C486 1.397 . S
C491 C490 1.376 . S
C492 C476 1.509 . S
C492 C493 1.391 . S
C492 C497 1.386 . S
C493 H454 0.930 . S
C493 C492 1.391 . S
C493 C494 1.375 . S
C494 H455 0.931 . S
C494 C493 1.375 . S
C494 C495 1.375 . S
C495 C494 1.375 . S
C495 C496 1.361 . S
C496 H456 0.930 . S
C496 C495 1.361 . S
C496 C497 1.399 . S
C497 H457 0.929 . S
C497 C492 1.386 . S
C497 C496 1.399 . S
C498 C477 1.485 . S
C498 C499 1.394 . S
C498 C503 1.360 . S
C499 H458 0.931 . S
C499 C498 1.394 . S
C499 C500 1.372 . S
C500 H459 0.930 . S
C500 C499 1.372 . S
C500 C501 1.397 . S
C501 C500 1.397 . S
C501 C502 1.390 . S
C501 C517 1.476 . S
C502 H460 0.930 . S
C502 C501 1.390 . S
C502 C503 1.366 . S
C503 H461 0.932 . S
C503 C498 1.360 . S
C503 C502 1.366 . S
C504 C478 1.490 . S
C504 C505 1.380 . S
C504 C509 1.386 . S
C505 H462 0.930 . S
C505 C504 1.380 . S
C505 C506 1.381 . S
C506 H463 0.929 . S
C506 C505 1.381 . S
C506 C507 1.371 . S
C507 C506 1.371 . S
C507 C508 1.380 . S
C508 H464 0.931 . S
C508 C507 1.380 . S
C508 C509 1.387 . S
C509 H465 0.930 . S
C509 C504 1.386 . S
C509 C508 1.387 . S
C510 C479 1.519 . S
C510 C511 1.377 . S
C510 C515 1.361 . S
C511 H466 0.929 . S
C511 C510 1.377 . S
C511 C512 1.386 . S
C512 H467 0.931 . S
C512 C511 1.386 . S
C512 C513 1.363 . S
C513 C512 1.363 . S
C513 C514 1.385 . S
C514 H468 0.930 . S
C514 C513 1.385 . S
C514 C515 1.396 . S
C515 H469 0.929 . S
C515 C510 1.361 . S
C515 C514 1.396 . S
C516 O470 1.300 . S
C516 O471 1.209 . S
C516 C489 1.486 . S
C517 O472 1.199 . S
C517 O473 1.297 . S
C517 C501 1.476 . S
H518 O544 0.856 . S
H519 O547 0.854 . S
H520 C555 0.930 . S
H521 C556 0.930 . S
H522 C558 0.930 . S
H523 C559 0.930 . S
H524 C561 0.931 . S
H525 C562 0.930 . S
H526 C564 0.930 . S
H527 C565 0.929 . S
H528 C567 0.930 . S
H529 C568 0.931 . S
H530 C570 0.930 . S
H531 C571 0.929 . S
H532 C573 0.931 . S
H533 C574 0.930 . S
H534 C576 0.930 . S
H535 C577 0.932 . S
H536 C579 0.930 . S
H537 C580 0.929 . S
H538 C582 0.931 . S
H539 C583 0.930 . S
H540 C585 0.929 . S
H541 C586 0.931 . S
H542 C588 0.930 . S
H543 C589 0.929 . S
O544 H518 0.856 . S
O544 C590 1.300 . S
O545 C590 1.209 . S
O546 C591 1.199 . S
O547 H519 0.854 . S
O547 C591 1.297 . S
C548 C549 1.404 . S
C548 C553 1.397 . S
C548 C554 1.492 . S
C549 C548 1.404 . S
C549 C550 1.396 . S
C549 C560 1.492 . S
C550 C549 1.396 . S
C550 C551 1.397 . S
C550 C566 1.509 . S
C551 C550 1.397 . S
C551 C552 1.412 . S
C551 C572 1.485 . S
C552 C551 1.412 . S
C552 C553 1.388 . S
C552 C578 1.490 . S
C553 C548 1.397 . S
C553 C552 1.388 . S
C553 C584 1.519 . S
C554 C548 1.492 . S
C554 C555 1.363 . S
C554 C559 1.390 . S
C555 H520 0.930 . S
C555 C554 1.363 . S
C555 C556 1.372 . S
C556 H521 0.930 . S
C556 C555 1.372 . S
C556 C557 1.383 . S
C557 C556 1.383 . S
C557 C558 1.395 . S
C558 H522 0.930 . S
C558 C557 1.395 . S
C558 C559 1.362 . S
C559 H523 0.930 . S
C559 C554 1.390 . S
C559 C558 1.362 . S
C560 C549 1.492 . S
C560 C561 1.377 . S
C560 C565 1.397 . S
C561 H524 0.931 . S
C561 C560 1.377 . S
C561 C562 1.376 . S
C562 H525 0.930 . S
C562 C561 1.376 . S
C562 C563 1.376 . S
C563 C562 1.376 . S
C563 C564 1.378 . S
C563 C590 1.486 . S
C564 H526 0.930 . S
C564 C563 1.378 . S
C564 C565 1.376 . S
C565 H527 0.929 . S
C565 C560 1.397 . S
C565 C564 1.376 . S
C566 C550 1.509 . S
C566 C567 1.391 . S
C566 C571 1.386 . S
C567 H528 0.930 . S
C567 C566 1.391 . S
C567 C568 1.375 . S
C568 H529 0.931 . S
C568 C567 1.375 . S
C568 C569 1.375 . S
C569 C568 1.375 . S
C569 C570 1.361 . S
C570 H530 0.930 . S
C570 C569 1.361 . S
C570 C571 1.399 . S
C571 H531 0.929 . S
C571 C566 1.386 . S
C571 C570 1.399 . S
C572 C551 1.485 . S
C572 C573 1.394 . S
C572 C577 1.360 . S
C573 H532 0.931 . S
C573 C572 1.394 . S
C573 C574 1.372 . S
C574 H533 0.930 . S
C574 C573 1.372 . S
C574 C575 1.397 . S
C575 C574 1.397 . S
C575 C576 1.390 . S
C575 C591 1.476 . S
C576 H534 0.930 . S
C576 C575 1.390 . S
C576 C577 1.366 . S
C577 H535 0.932 . S
C577 C572 1.360 . S
C577 C576 1.366 . S
C578 C552 1.490 . S
C578 C579 1.380 . S
C578 C583 1.386 . S
C579 H536 0.930 . S
C579 C578 1.380 . S
C579 C580 1.381 . S
C580 H537 0.929 . S
C580 C579 1.381 . S
C580 C581 1.371 . S
C581 C580 1.371 . S
C581 C582 1.380 . S
C582 H538 0.931 . S
C582 C581 1.380 . S
C582 C583 1.387 . S
C583 H539 0.930 . S
C583 C578 1.386 . S
C583 C582 1.387 . S
C584 C553 1.519 . S
C584 C585 1.377 . S
C584 C589 1.361 . S
C585 H540 0.929 . S
C585 C584 1.377 . S
C585 C586 1.386 . S
C586 H541 0.931 . S
C586 C585 1.386 . S
C586 C587 1.363 . S
C587 C586 1.363 . S
C587 C588 1.385 . S
C588 H542 0.930 . S
C588 C587 1.385 . S
C588 C589 1.396 . S
C589 H543 0.929 . S
C589 C584 1.361 . S
C589 C588 1.396 . S
C590 O544 1.300 . S
C590 O545 1.209 . S
C590 C563 1.486 . S
C591 O546 1.199 . S
C591 O547 1.297 . S
C591 C575 1.476 . S
C592 O594 1.247 . S
C592 O596 1.258 . S
C593 O600 1.247 . S
C593 O601 1.258 . S
O594 C592 1.247 . S
O594 Zn595 2.028 . S
Zn595 O594 2.028 . S
Zn595 O599 2.035 1_655 S
Zn595 O601 2.035 1_655 S
Zn595 O602 2.028 . S
O596 C592 1.258 . S
O596 Zn597 2.035 1_655 S
Zn597 O596 2.035 1_455 S
Zn597 O598 2.028 . S
Zn597 O600 2.028 . S
Zn597 O603 2.035 1_455 S
O598 Zn597 2.028 . S
O598 C604 1.247 . S
O599 Zn595 2.035 1_455 S
O599 C604 1.258 . S
O600 C593 1.247 . S
O600 Zn597 2.028 . S
O601 C593 1.258 . S
O601 Zn595 2.035 1_455 S
O602 Zn595 2.028 . S
O602 C605 1.247 . S
O603 Zn597 2.035 1_655 S
O603 C605 1.258 . S
C604 O598 1.247 . S
C604 O599 1.258 . S
C605 O602 1.247 . S
C605 O603 1.258 . S
C606 O608 1.247 . S
C606 O610 1.258 . S
C607 O614 1.247 . S
C607 O615 1.258 . S
O608 C606 1.247 . S
O608 Zn609 2.028 . S
Zn609 O608 2.028 . S
Zn609 O613 2.035 1_545 S
Zn609 O615 2.035 1_545 S
Zn609 O616 2.028 . S
O610 C606 1.258 . S
O610 Zn611 2.035 . S
Zn611 O610 2.035 . S
Zn611 O612 2.028 1_545 S
Zn611 O614 2.028 1_545 S
Zn611 O617 2.035 . S
O612 Zn611 2.028 1_565 S
O612 C618 1.247 . S
O613 Zn609 2.035 1_565 S
O613 C618 1.258 . S
O614 C607 1.247 . S
O614 Zn611 2.028 1_565 S
O615 C607 1.258 . S
O615 Zn609 2.035 1_565 S
O616 Zn609 2.028 . S
O616 C619 1.247 . S
O617 Zn611 2.035 . S
O617 C619 1.258 . S
C618 O612 1.247 . S
C618 O613 1.258 . S
C619 O616 1.247 . S
C619 O617 1.258 . S
C620 O622 1.247 . S
C620 O624 1.258 . S
C621 O628 1.247 . S
C621 O629 1.258 . S
O622 C620 1.247 . S
O622 Zn623 2.028 . S
Zn623 O622 2.028 . S
Zn623 O627 2.035 . S
Zn623 O629 2.035 . S
Zn623 O630 2.028 . S
O624 C620 1.258 . S
O624 Zn625 2.035 . S
Zn625 O624 2.035 . S
Zn625 O626 2.028 . S
Zn625 O628 2.028 . S
Zn625 O631 2.035 . S
O626 Zn625 2.028 . S
O626 C632 1.247 . S
O627 Zn623 2.035 . S
O627 C632 1.258 . S
O628 C621 1.247 . S
O628 Zn625 2.028 . S
O629 C621 1.258 . S
O629 Zn623 2.035 . S
O630 Zn623 2.028 . S
O630 C633 1.247 . S
O631 Zn625 2.035 . S
O631 C633 1.258 . S
C632 O626 1.247 . S
C632 O627 1.258 . S
C633 O630 1.247 . S
C633 O631 1.258 . S
C634 O636 1.247 . S
C634 O638 1.258 . S
C635 O642 1.247 . S
C635 O643 1.258 . S
O636 C634 1.247 . S
O636 Zn637 2.028 . S
Zn637 O636 2.028 . S
Zn637 O641 2.035 . S
Zn637 O643 2.035 . S
Zn637 O644 2.028 . S
O638 C634 1.258 . S
O638 Zn639 2.035 . S
Zn639 O638 2.035 . S
Zn639 O640 2.028 . S
Zn639 O642 2.028 . S
Zn639 O645 2.035 . S
O640 Zn639 2.028 . S
O640 C646 1.247 . S
O641 Zn637 2.035 . S
O641 C646 1.258 . S
O642 C635 1.247 . S
O642 Zn639 2.028 . S
O643 C635 1.258 . S
O643 Zn637 2.035 . S
O644 Zn637 2.028 . S
O644 C647 1.247 . S
O645 Zn639 2.035 . S
O645 C647 1.258 . S
C646 O640 1.247 . S
C646 O641 1.258 . S
C647 O644 1.247 . S
C647 O645 1.258 . S
C648 O650 1.247 . S
C648 O652 1.258 . S
C649 O656 1.247 . S
C649 O657 1.258 . S
O650 C648 1.247 . S
O650 Zn651 2.028 . S
Zn651 O650 2.028 . S
Zn651 O655 2.035 . S
Zn651 O657 2.035 1_554 S
Zn651 O658 2.028 1_554 S
O652 C648 1.258 . S
O652 Zn653 2.035 . S
Zn653 O652 2.035 . S
Zn653 O654 2.028 . S
Zn653 O656 2.028 1_554 S
Zn653 O659 2.035 1_554 S
O654 Zn653 2.028 . S
O654 C660 1.247 . S
O655 Zn651 2.035 . S
O655 C660 1.258 . S
O656 C649 1.247 . S
O656 Zn653 2.028 1_556 S
O657 C649 1.258 . S
O657 Zn651 2.035 1_556 S
O658 Zn651 2.028 1_556 S
O658 C661 1.247 . S
O659 Zn653 2.035 1_556 S
O659 C661 1.258 . S
C660 O654 1.247 . S
C660 O655 1.258 . S
C661 O658 1.247 . S
C661 O659 1.258 . S
C662 O664 1.247 . S
C662 O666 1.258 . S
C663 O670 1.247 . S
C663 O671 1.258 . S
O664 C662 1.247 . S
O664 Zn665 2.028 . S
Zn665 O664 2.028 . S
Zn665 O669 2.035 . S
Zn665 O671 2.035 1_554 S
Zn665 O672 2.028 1_554 S
O666 C662 1.258 . S
O666 Zn667 2.035 . S
Zn667 O666 2.035 . S
Zn667 O668 2.028 . S
Zn667 O670 2.028 1_554 S
Zn667 O673 2.035 1_554 S
O668 Zn667 2.028 . S
O668 C674 1.247 . S
O669 Zn665 2.035 . S
O669 C674 1.258 . S
O670 C663 1.247 . S
O670 Zn667 2.028 1_556 S
O671 C663 1.258 . S
O671 Zn665 2.035 1_556 S
O672 Zn665 2.028 1_556 S
O672 C675 1.247 . S
O673 Zn667 2.035 1_556 S
O673 C675 1.258 . S
C674 O668 1.247 . S
C674 O669 1.258 . S
C675 O672 1.247 . S
C675 O673 1.258 . S
C676 O678 1.247 . S
C676 O680 1.258 . S
C677 O684 1.247 . S
C677 O685 1.258 . S
O678 C676 1.247 . S
O678 Zn679 2.028 . S
Zn679 O678 2.028 . S
Zn679 O683 2.035 . S
Zn679 O685 2.035 . S
Zn679 O686 2.028 . S
O680 C676 1.258 . S
O680 Zn681 2.035 . S
Zn681 O680 2.035 . S
Zn681 O682 2.028 . S
Zn681 O684 2.028 . S
Zn681 O687 2.035 . S
O682 Zn681 2.028 . S
O682 C688 1.247 1_554 S
O683 Zn679 2.035 . S
O683 C688 1.258 1_554 S
O684 C677 1.247 . S
O684 Zn681 2.028 . S
O685 C677 1.258 . S
O685 Zn679 2.035 . S
O686 Zn679 2.028 . S
O686 C689 1.247 . S
O687 Zn681 2.035 . S
O687 C689 1.258 . S
C688 O682 1.247 1_556 S
C688 O683 1.258 1_556 S
C689 O686 1.247 . S
C689 O687 1.258 . S
C690 O692 1.247 . S
C690 O694 1.258 . S
C691 O698 1.247 . S
C691 O699 1.258 . S
O692 C690 1.247 . S
O692 Zn693 2.028 . S
Zn693 O692 2.028 . S
Zn693 O697 2.035 . S
Zn693 O699 2.035 . S
Zn693 O700 2.028 . S
O694 C690 1.258 . S
O694 Zn695 2.035 . S
Zn695 O694 2.035 . S
Zn695 O696 2.028 . S
Zn695 O698 2.028 . S
Zn695 O701 2.035 . S
O696 Zn695 2.028 . S
O696 C702 1.247 . S
O697 Zn693 2.035 . S
O697 C702 1.258 . S
O698 C691 1.247 . S
O698 Zn695 2.028 . S
O699 C691 1.258 . S
O699 Zn693 2.035 . S
O700 Zn693 2.028 . S
O700 C703 1.247 . S
O701 Zn695 2.035 . S
O701 C703 1.258 . S
C702 O696 1.247 . S
C702 O697 1.258 . S
C703 O700 1.247 . S
C703 O701 1.258 . S
H704 C722 0.951 . S
H705 C724 0.951 . S
H706 C726 0.950 . S
H707 C727 0.950 . S
H708 C729 0.950 . S
H709 C732 0.950 . S
H710 C733 0.950 . S
H711 C735 0.950 . S
H712 C736 0.950 . S
H713 C737 0.951 . S
H714 C739 0.951 . S
H715 C741 0.950 . S
H716 C742 0.950 . S
H717 C744 0.950 . S
H718 C747 0.950 . S
H719 C748 0.950 . S
H720 C750 0.950 . S
H721 C751 0.950 . S
C722 H704 0.951 . S
C722 C723 1.366 . S
C722 C724 1.388 . S
C723 C722 1.366 . S
C723 C727 1.385 . S
C724 H705 0.951 . S
C724 C722 1.388 . S
C724 C725 1.366 . S
C725 C724 1.366 . S
C725 C726 1.414 . S
C725 C728 1.499 . S
C726 H706 0.950 . S
C726 C725 1.414 . S
C726 C727 1.374 . S
C727 H707 0.950 . S
C727 C723 1.385 . S
C727 C726 1.374 . S
C728 C725 1.499 . S
C728 C729 1.373 . S
C728 C730 1.389 . S
C729 H708 0.950 . S
C729 C728 1.373 . S
C729 C745 1.377 . S
C730 C728 1.389 . S
C730 C731 1.524 . S
C730 C744 1.377 . S
C731 C730 1.524 . S
C731 C732 1.397 . S
C731 C736 1.363 . S
C732 H709 0.950 . S
C732 C731 1.397 . S
C732 C733 1.334 . S
C733 H710 0.950 . S
C733 C732 1.334 . S
C733 C734 1.287 . S
C734 C733 1.287 . S
C734 C735 1.524 . S
C734 H753 0.913 . S
C735 H711 0.950 . S
C735 C734 1.524 . S
C735 C736 1.415 . S
C736 H712 0.950 . S
C736 C731 1.363 . S
C736 C735 1.415 . S
C737 H713 0.951 . S
C737 C738 1.366 . S
C737 C739 1.388 . S
C738 C737 1.366 . S
C738 C742 1.385 . S
C739 H714 0.951 . S
C739 C737 1.388 . S
C739 C740 1.366 . S
C740 C739 1.366 . S
C740 C741 1.414 . S
C740 C743 1.499 . S
C741 H715 0.950 . S
C741 C740 1.414 . S
C741 C742 1.374 . S
C742 H716 0.950 . S
C742 C738 1.385 . S
C742 C741 1.374 . S
C743 C740 1.499 . S
C743 C744 1.373 . S
C743 C745 1.389 . S
C744 H717 0.950 . S
C744 C730 1.377 . S
C744 C743 1.373 . S
C745 C729 1.377 . S
C745 C743 1.389 . S
C745 C746 1.524 . S
C746 C745 1.524 . S
C746 C747 1.397 . S
C746 C751 1.363 . S
C747 H718 0.950 . S
C747 C746 1.397 . S
C747 C748 1.334 . S
C748 H719 0.950 . S
C748 C747 1.334 . S
C748 C749 1.287 . S
C749 C748 1.287 . S
C749 C750 1.524 . S
C749 H752 0.999 . S
C750 H720 0.950 . S
C750 C749 1.524 . S
C750 C751 1.415 . S
C751 H721 0.950 . S
C751 C746 1.363 . S
C751 C750 1.415 . S
H752 C749 0.999 . S
H753 C734 0.913 . S
H754 C772 0.951 . S
H755 C774 0.951 . S
H756 C776 0.950 . S
H757 C777 0.950 . S
H758 C779 0.950 . S
H759 C782 0.950 . S
H760 C783 0.950 . S
H761 C785 0.950 . S
H762 C786 0.950 . S
H763 C787 0.951 . S
H764 C789 0.951 . S
H765 C791 0.950 . S
H766 C792 0.950 . S
H767 C794 0.950 . S
H768 C797 0.950 . S
H769 C798 0.950 . S
H770 C800 0.950 . S
H771 C801 0.950 . S
C772 H754 0.951 . S
C772 C773 1.366 . S
C772 C774 1.388 . S
C773 C772 1.366 . S
C773 C777 1.385 . S
C774 H755 0.951 . S
C774 C772 1.388 . S
C774 C775 1.366 . S
C775 C774 1.366 . S
C775 C776 1.414 . S
C775 C778 1.499 . S
C776 H756 0.950 . S
C776 C775 1.414 . S
C776 C777 1.374 . S
C777 H757 0.950 . S
C777 C773 1.385 . S
C777 C776 1.374 . S
C778 C775 1.499 . S
C778 C779 1.373 . S
C778 C780 1.389 . S
C779 H758 0.950 . S
C779 C778 1.373 . S
C779 C795 1.377 . S
C780 C778 1.389 . S
C780 C781 1.524 . S
C780 C794 1.377 . S
C781 C780 1.524 . S
C781 C782 1.397 . S
C781 C786 1.363 . S
C782 H759 0.950 . S
C782 C781 1.397 . S
C782 C783 1.334 . S
C783 H760 0.950 . S
C783 C782 1.334 . S
C783 C784 1.287 . S
C784 C783 1.287 . S
C784 C785 1.524 . S
C784 H803 0.913 . S
C785 H761 0.950 . S
C785 C784 1.524 . S
C785 C786 1.415 . S
C786 H762 0.950 . S
C786 C781 1.363 . S
C786 C785 1.415 . S
C787 H763 0.951 . S
C787 C788 1.366 . S
C787 C789 1.388 . S
C788 C787 1.366 . S
C788 C792 1.385 . S
C789 H764 0.951 . S
C789 C787 1.388 . S
C789 C790 1.366 . S
C790 C789 1.366 . S
C790 C791 1.414 . S
C790 C793 1.499 . S
C791 H765 0.950 . S
C791 C790 1.414 . S
C791 C792 1.374 . S
C792 H766 0.950 . S
C792 C788 1.385 . S
C792 C791 1.374 . S
C793 C790 1.499 . S
C793 C794 1.373 . S
C793 C795 1.389 . S
C794 H767 0.950 . S
C794 C780 1.377 . S
C794 C793 1.373 . S
C795 C779 1.377 . S
C795 C793 1.389 . S
C795 C796 1.524 . S
C796 C795 1.524 . S
C796 C797 1.397 . S
C796 C801 1.363 . S
C797 H768 0.950 . S
C797 C796 1.397 . S
C797 C798 1.334 . S
C798 H769 0.950 . S
C798 C797 1.334 . S
C798 C799 1.287 . S
C799 C798 1.287 . S
C799 C800 1.524 . S
C799 H802 0.999 . S
C800 H770 0.950 . S
C800 C799 1.524 . S
C800 C801 1.415 . S
C801 H771 0.950 . S
C801 C796 1.363 . S
C801 C800 1.415 . S
H802 C799 0.999 . S
H803 C784 0.913 . S
H804 C822 0.951 . S
H805 C824 0.951 . S
H806 C826 0.950 . S
H807 C827 0.950 . S
H808 C829 0.950 . S
H809 C832 0.950 . S
H810 C833 0.950 . S
H811 C835 0.950 . S
H812 C836 0.950 . S
H813 C837 0.951 . S
H814 C839 0.951 . S
H815 C841 0.950 . S
H816 C842 0.950 . S
H817 C844 0.950 . S
H818 C847 0.950 . S
H819 C848 0.950 . S
H820 C850 0.950 . S
H821 C851 0.950 . S
C822 H804 0.951 . S
C822 C823 1.366 . S
C822 C824 1.388 . S
C823 C822 1.366 . S
C823 C827 1.385 . S
C824 H805 0.951 . S
C824 C822 1.388 . S
C824 C825 1.366 . S
C825 C824 1.366 . S
C825 C826 1.414 . S
C825 C828 1.499 . S
C826 H806 0.950 . S
C826 C825 1.414 . S
C826 C827 1.374 . S
C827 H807 0.950 . S
C827 C823 1.385 . S
C827 C826 1.374 . S
C828 C825 1.499 . S
C828 C829 1.373 . S
C828 C830 1.389 . S
C829 H808 0.950 . S
C829 C828 1.373 . S
C829 C845 1.377 . S
C830 C828 1.389 . S
C830 C831 1.524 . S
C830 C844 1.377 . S
C831 C830 1.524 . S
C831 C832 1.397 . S
C831 C836 1.363 . S
C832 H809 0.950 . S
C832 C831 1.397 . S
C832 C833 1.334 . S
C833 H810 0.950 . S
C833 C832 1.334 . S
C833 C834 1.287 . S
C834 C833 1.287 . S
C834 C835 1.524 . S
C834 H853 0.913 . S
C835 H811 0.950 . S
C835 C834 1.524 . S
C835 C836 1.415 . S
C836 H812 0.950 . S
C836 C831 1.363 . S
C836 C835 1.415 . S
C837 H813 0.951 . S
C837 C838 1.366 . S
C837 C839 1.388 . S
C838 C837 1.366 . S
C838 C842 1.385 . S
C839 H814 0.951 . S
C839 C837 1.388 . S
C839 C840 1.366 . S
C840 C839 1.366 . S
C840 C841 1.414 . S
C840 C843 1.499 . S
C841 H815 0.950 . S
C841 C840 1.414 . S
C841 C842 1.374 . S
C842 H816 0.950 . S
C842 C838 1.385 . S
C842 C841 1.374 . S
C843 C840 1.499 . S
C843 C844 1.373 . S
C843 C845 1.389 . S
C844 H817 0.950 . S
C844 C830 1.377 . S
C844 C843 1.373 . S
C845 C829 1.377 . S
C845 C843 1.389 . S
C845 C846 1.524 . S
C846 C845 1.524 . S
C846 C847 1.397 . S
C846 C851 1.363 . S
C847 H818 0.950 . S
C847 C846 1.397 . S
C847 C848 1.334 . S
C848 H819 0.950 . S
C848 C847 1.334 . S
C848 C849 1.287 . S
C849 C848 1.287 . S
C849 C850 1.524 . S
C849 H852 0.999 . S
C850 H820 0.950 . S
C850 C849 1.524 . S
C850 C851 1.415 . S
C851 H821 0.950 . S
C851 C846 1.363 . S
C851 C850 1.415 . S
H852 C849 0.999 . S
H853 C834 0.913 . S
H854 C872 0.951 . S
H855 C874 0.951 . S
H856 C876 0.950 . S
H857 C877 0.950 . S
H858 C879 0.950 . S
H859 C882 0.950 . S
H860 C883 0.950 . S
H861 C885 0.950 . S
H862 C886 0.950 . S
H863 C887 0.951 . S
H864 C889 0.951 . S
H865 C891 0.950 . S
H866 C892 0.950 . S
H867 C894 0.950 . S
H868 C897 0.950 . S
H869 C898 0.950 . S
H870 C900 0.950 1_565 S
H871 C901 0.950 . S
C872 H854 0.951 . S
C872 C873 1.366 . S
C872 C874 1.388 1_565 S
C873 C872 1.366 . S
C873 C877 1.385 . S
C874 H855 0.951 . S
C874 C872 1.388 1_545 S
C874 C875 1.366 . S
C875 C874 1.366 . S
C875 C876 1.414 1_545 S
C875 C878 1.499 . S
C876 H856 0.950 . S
C876 C875 1.414 1_565 S
C876 C877 1.374 . S
C877 H857 0.950 . S
C877 C873 1.385 . S
C877 C876 1.374 . S
C878 C875 1.499 . S
C878 C879 1.373 . S
C878 C880 1.389 . S
C879 H858 0.950 . S
C879 C878 1.373 . S
C879 C895 1.377 . S
C880 C878 1.389 . S
C880 C881 1.524 . S
C880 C894 1.377 . S
C881 C880 1.524 . S
C881 C882 1.397 . S
C881 C886 1.363 . S
C882 H859 0.950 . S
C882 C881 1.397 . S
C882 C883 1.334 . S
C883 H860 0.950 . S
C883 C882 1.334 . S
C883 C884 1.287 . S
C884 C883 1.287 . S
C884 C885 1.524 . S
C884 H903 0.913 . S
C885 H861 0.950 . S
C885 C884 1.524 . S
C885 C886 1.415 . S
C886 H862 0.950 . S
C886 C881 1.363 . S
C886 C885 1.415 . S
C887 H863 0.951 . S
C887 C888 1.366 . S
C887 C889 1.388 . S
C888 C887 1.366 . S
C888 C892 1.385 . S
C889 H864 0.951 . S
C889 C887 1.388 . S
C889 C890 1.366 . S
C890 C889 1.366 . S
C890 C891 1.414 . S
C890 C893 1.499 . S
C891 H865 0.950 . S
C891 C890 1.414 . S
C891 C892 1.374 . S
C892 H866 0.950 . S
C892 C888 1.385 . S
C892 C891 1.374 . S
C893 C890 1.499 . S
C893 C894 1.373 . S
C893 C895 1.389 . S
C894 H867 0.950 . S
C894 C880 1.377 . S
C894 C893 1.373 . S
C895 C879 1.377 . S
C895 C893 1.389 . S
C895 C896 1.524 . S
C896 C895 1.524 . S
C896 C897 1.397 . S
C896 C901 1.363 . S
C897 H868 0.950 . S
C897 C896 1.397 . S
C897 C898 1.334 . S
C898 H869 0.950 . S
C898 C897 1.334 . S
C898 C899 1.287 . S
C899 C898 1.287 . S
C899 C900 1.524 . S
C899 H902 0.999 . S
C900 H870 0.950 1_545 S
C900 C899 1.524 . S
C900 C901 1.415 . S
C901 H871 0.950 . S
C901 C896 1.363 . S
C901 C900 1.415 . S
H902 C899 0.999 . S
H903 C884 0.913 . S
H904 C922 0.951 . S
H905 C924 0.951 . S
H906 C926 0.950 . S
H907 C927 0.950 . S
H908 C929 0.950 . S
H909 C932 0.950 . S
H910 C933 0.950 . S
H911 C935 0.950 . S
H912 C936 0.950 . S
H913 C937 0.951 . S
H914 C939 0.951 . S
H915 C941 0.950 . S
H916 C942 0.950 . S
H917 C944 0.950 . S
H918 C947 0.950 . S
H919 C948 0.950 . S
H920 C950 0.950 . S
H921 C951 0.950 . S
C922 H904 0.951 . S
C922 C923 1.366 . S
C922 C924 1.388 . S
C923 C922 1.366 . S
C923 C927 1.385 . S
C924 H905 0.951 . S
C924 C922 1.388 . S
C924 C925 1.366 . S
C925 C924 1.366 . S
C925 C926 1.414 . S
C925 C928 1.499 . S
C926 H906 0.950 . S
C926 C925 1.414 . S
C926 C927 1.374 . S
C927 H907 0.950 . S
C927 C923 1.385 . S
C927 C926 1.374 . S
C928 C925 1.499 . S
C928 C929 1.373 . S
C928 C930 1.389 . S
C929 H908 0.950 . S
C929 C928 1.373 . S
C929 C945 1.377 . S
C930 C928 1.389 . S
C930 C931 1.524 . S
C930 C944 1.377 . S
C931 C930 1.524 . S
C931 C932 1.397 . S
C931 C936 1.363 . S
C932 H909 0.950 . S
C932 C931 1.397 . S
C932 C933 1.334 . S
C933 H910 0.950 . S
C933 C932 1.334 . S
C933 C934 1.287 . S
C934 C933 1.287 . S
C934 C935 1.524 . S
C934 H953 0.913 . S
C935 H911 0.950 . S
C935 C934 1.524 . S
C935 C936 1.415 . S
C936 H912 0.950 . S
C936 C931 1.363 . S
C936 C935 1.415 . S
C937 H913 0.951 . S
C937 C938 1.366 . S
C937 C939 1.388 . S
C938 C937 1.366 . S
C938 C942 1.385 . S
C939 H914 0.951 . S
C939 C937 1.388 . S
C939 C940 1.366 . S
C940 C939 1.366 . S
C940 C941 1.414 . S
C940 C943 1.499 . S
C941 H915 0.950 . S
C941 C940 1.414 . S
C941 C942 1.374 . S
C942 H916 0.950 . S
C942 C938 1.385 . S
C942 C941 1.374 . S
C943 C940 1.499 . S
C943 C944 1.373 . S
C943 C945 1.389 . S
C944 H917 0.950 . S
C944 C930 1.377 . S
C944 C943 1.373 . S
C945 C929 1.377 . S
C945 C943 1.389 . S
C945 C946 1.524 . S
C946 C945 1.524 . S
C946 C947 1.397 . S
C946 C951 1.363 . S
C947 H918 0.950 . S
C947 C946 1.397 . S
C947 C948 1.334 . S
C948 H919 0.950 . S
C948 C947 1.334 . S
C948 C949 1.287 . S
C949 C948 1.287 . S
C949 C950 1.524 . S
C949 H952 0.999 . S
C950 H920 0.950 . S
C950 C949 1.524 . S
C950 C951 1.415 . S
C951 H921 0.950 . S
C951 C946 1.363 . S
C951 C950 1.415 . S
H952 C949 0.999 . S
H953 C934 0.913 . S
H954 C972 0.951 . S
H955 C974 0.951 . S
H956 C976 0.950 . S
H957 C977 0.950 . S
H958 C979 0.950 . S
H959 C982 0.950 . S
H960 C983 0.950 . S
H961 C985 0.950 . S
H962 C986 0.950 . S
H963 C987 0.951 . S
H964 C989 0.951 . S
H965 C991 0.950 . S
H966 C992 0.950 . S
H967 C994 0.950 . S
H968 C997 0.950 . S
H969 C998 0.950 . S
H970 C1000 0.950 . S
H971 C1001 0.950 . S
C972 H954 0.951 . S
C972 C973 1.366 . S
C972 C974 1.388 . S
C973 C972 1.366 . S
C973 C977 1.385 . S
C974 H955 0.951 . S
C974 C972 1.388 . S
C974 C975 1.366 . S
C975 C974 1.366 . S
C975 C976 1.414 . S
C975 C978 1.499 . S
C976 H956 0.950 . S
C976 C975 1.414 . S
C976 C977 1.374 . S
C977 H957 0.950 . S
C977 C973 1.385 . S
C977 C976 1.374 . S
C978 C975 1.499 . S
C978 C979 1.373 . S
C978 C980 1.389 . S
C979 H958 0.950 . S
C979 C978 1.373 . S
C979 C995 1.377 . S
C980 C978 1.389 . S
C980 C981 1.524 . S
C980 C994 1.377 . S
C981 C980 1.524 . S
C981 C982 1.397 . S
C981 C986 1.363 . S
C982 H959 0.950 . S
C982 C981 1.397 . S
C982 C983 1.334 . S
C983 H960 0.950 . S
C983 C982 1.334 . S
C983 C984 1.287 . S
C984 C983 1.287 . S
C984 C985 1.524 . S
C984 H1003 0.913 . S
C985 H961 0.950 . S
C985 C984 1.524 . S
C985 C986 1.415 . S
C986 H962 0.950 . S
C986 C981 1.363 . S
C986 C985 1.415 . S
C987 H963 0.951 . S
C987 C988 1.366 . S
C987 C989 1.388 . S
C988 C987 1.366 . S
C988 C992 1.385 . S
C989 H964 0.951 . S
C989 C987 1.388 . S
C989 C990 1.366 . S
C990 C989 1.366 . S
C990 C991 1.414 . S
C990 C993 1.499 . S
C991 H965 0.950 . S
C991 C990 1.414 . S
C991 C992 1.374 . S
C992 H966 0.950 . S
C992 C988 1.385 . S
C992 C991 1.374 . S
C993 C990 1.499 . S
C993 C994 1.373 . S
C993 C995 1.389 . S
C994 H967 0.950 . S
C994 C980 1.377 . S
C994 C993 1.373 . S
C995 C979 1.377 . S
C995 C993 1.389 . S
C995 C996 1.524 . S
C996 C995 1.524 . S
C996 C997 1.397 . S
C996 C1001 1.363 . S
C997 H968 0.950 . S
C997 C996 1.397 . S
C997 C998 1.334 . S
C998 H969 0.950 . S
C998 C997 1.334 . S
C998 C999 1.287 . S
C999 C998 1.287 . S
C999 C1000 1.524 . S
C999 H1002 0.999 . S
C1000 H970 0.950 . S
C1000 C999 1.524 . S
C1000 C1001 1.415 . S
C1001 H971 0.950 . S
C1001 C996 1.363 . S
C1001 C1000 1.415 . S
H1002 C999 0.999 . S
H1003 C984 0.913 . S
H1004 C1022 0.951 . S
H1005 C1024 0.951 . S
H1006 C1026 0.950 . S
H1007 C1027 0.950 . S
H1008 C1029 0.950 . S
H1009 C1032 0.950 . S
H1010 C1033 0.950 . S
H1011 C1035 0.950 . S
H1012 C1036 0.950 . S
H1013 C1037 0.951 . S
H1014 C1039 0.951 . S
H1015 C1041 0.950 . S
H1016 C1042 0.950 . S
H1017 C1044 0.950 . S
H1018 C1047 0.950 . S
H1019 C1048 0.950 . S
H1020 C1050 0.950 . S
H1021 C1051 0.950 . S
C1022 H1004 0.951 . S
C1022 C1023 1.366 . S
C1022 C1024 1.388 . S
C1023 C1022 1.366 . S
C1023 C1027 1.385 . S
C1024 H1005 0.951 . S
C1024 C1022 1.388 . S
C1024 C1025 1.366 . S
C1025 C1024 1.366 . S
C1025 C1026 1.414 . S
C1025 C1028 1.499 . S
C1026 H1006 0.950 . S
C1026 C1025 1.414 . S
C1026 C1027 1.374 . S
C1027 H1007 0.950 . S
C1027 C1023 1.385 . S
C1027 C1026 1.374 . S
C1028 C1025 1.499 . S
C1028 C1029 1.373 . S
C1028 C1030 1.389 . S
C1029 H1008 0.950 . S
C1029 C1028 1.373 . S
C1029 C1045 1.377 . S
C1030 C1028 1.389 . S
C1030 C1031 1.524 . S
C1030 C1044 1.377 . S
C1031 C1030 1.524 . S
C1031 C1032 1.397 . S
C1031 C1036 1.363 . S
C1032 H1009 0.950 . S
C1032 C1031 1.397 . S
C1032 C1033 1.334 . S
C1033 H1010 0.950 . S
C1033 C1032 1.334 . S
C1033 C1034 1.287 . S
C1034 C1033 1.287 . S
C1034 C1035 1.524 . S
C1034 H1053 0.913 . S
C1035 H1011 0.950 . S
C1035 C1034 1.524 . S
C1035 C1036 1.415 . S
C1036 H1012 0.950 . S
C1036 C1031 1.363 . S
C1036 C1035 1.415 . S
C1037 H1013 0.951 . S
C1037 C1038 1.366 . S
C1037 C1039 1.388 . S
C1038 C1037 1.366 . S
C1038 C1042 1.385 . S
C1039 H1014 0.951 . S
C1039 C1037 1.388 . S
C1039 C1040 1.366 . S
C1040 C1039 1.366 . S
C1040 C1041 1.414 . S
C1040 C1043 1.499 . S
C1041 H1015 0.950 . S
C1041 C1040 1.414 . S
C1041 C1042 1.374 . S
C1042 H1016 0.950 . S
C1042 C1038 1.385 . S
C1042 C1041 1.374 . S
C1043 C1040 1.499 . S
C1043 C1044 1.373 . S
C1043 C1045 1.389 . S
C1044 H1017 0.950 . S
C1044 C1030 1.377 . S
C1044 C1043 1.373 . S
C1045 C1029 1.377 . S
C1045 C1043 1.389 . S
C1045 C1046 1.524 . S
C1046 C1045 1.524 . S
C1046 C1047 1.397 . S
C1046 C1051 1.363 . S
C1047 H1018 0.950 . S
C1047 C1046 1.397 . S
C1047 C1048 1.334 . S
C1048 H1019 0.950 . S
C1048 C1047 1.334 . S
C1048 C1049 1.287 . S
C1049 C1048 1.287 . S
C1049 C1050 1.524 . S
C1049 H1052 0.999 . S
C1050 H1020 0.950 . S
C1050 C1049 1.524 . S
C1050 C1051 1.415 . S
C1051 H1021 0.950 . S
C1051 C1046 1.363 . S
C1051 C1050 1.415 . S
H1052 C1049 0.999 . S
H1053 C1034 0.913 . S
H1054 C1072 0.951 . S
H1055 C1074 0.951 . S
H1056 C1076 0.950 . S
H1057 C1077 0.950 . S
H1058 C1079 0.950 . S
H1059 C1082 0.950 . S
H1060 C1083 0.950 . S
H1061 C1085 0.950 . S
H1062 C1086 0.950 . S
H1063 C1087 0.951 . S
H1064 C1089 0.951 . S
H1065 C1091 0.950 . S
H1066 C1092 0.950 . S
H1067 C1094 0.950 . S
H1068 C1097 0.950 . S
H1069 C1098 0.950 . S
H1070 C1100 0.950 . S
H1071 C1101 0.950 . S
C1072 H1054 0.951 . S
C1072 C1073 1.366 . S
C1072 C1074 1.388 . S
C1073 C1072 1.366 . S
C1073 C1077 1.385 . S
C1074 H1055 0.951 . S
C1074 C1072 1.388 . S
C1074 C1075 1.366 . S
C1075 C1074 1.366 . S
C1075 C1076 1.414 . S
C1075 C1078 1.499 . S
C1076 H1056 0.950 . S
C1076 C1075 1.414 . S
C1076 C1077 1.374 . S
C1077 H1057 0.950 . S
C1077 C1073 1.385 . S
C1077 C1076 1.374 . S
C1078 C1075 1.499 . S
C1078 C1079 1.373 . S
C1078 C1080 1.389 . S
C1079 H1058 0.950 . S
C1079 C1078 1.373 . S
C1079 C1095 1.377 . S
C1080 C1078 1.389 . S
C1080 C1081 1.524 . S
C1080 C1094 1.377 . S
C1081 C1080 1.524 . S
C1081 C1082 1.397 . S
C1081 C1086 1.363 . S
C1082 H1059 0.950 . S
C1082 C1081 1.397 . S
C1082 C1083 1.334 . S
C1083 H1060 0.950 . S
C1083 C1082 1.334 . S
C1083 C1084 1.287 . S
C1084 C1083 1.287 . S
C1084 C1085 1.524 . S
C1084 H1103 0.913 . S
C1085 H1061 0.950 . S
C1085 C1084 1.524 . S
C1085 C1086 1.415 . S
C1086 H1062 0.950 . S
C1086 C1081 1.363 . S
C1086 C1085 1.415 . S
C1087 H1063 0.951 . S
C1087 C1088 1.366 . S
C1087 C1089 1.388 . S
C1088 C1087 1.366 . S
C1088 C1092 1.385 . S
C1089 H1064 0.951 . S
C1089 C1087 1.388 . S
C1089 C1090 1.366 . S
C1090 C1089 1.366 . S
C1090 C1091 1.414 . S
C1090 C1093 1.499 . S
C1091 H1065 0.950 . S
C1091 C1090 1.414 . S
C1091 C1092 1.374 . S
C1092 H1066 0.950 . S
C1092 C1088 1.385 . S
C1092 C1091 1.374 . S
C1093 C1090 1.499 . S
C1093 C1094 1.373 . S
C1093 C1095 1.389 . S
C1094 H1067 0.950 . S
C1094 C1080 1.377 . S
C1094 C1093 1.373 . S
C1095 C1079 1.377 . S
C1095 C1093 1.389 . S
C1095 C1096 1.524 . S
C1096 C1095 1.524 . S
C1096 C1097 1.397 . S
C1096 C1101 1.363 . S
C1097 H1068 0.950 . S
C1097 C1096 1.397 . S
C1097 C1098 1.334 . S
C1098 H1069 0.950 . S
C1098 C1097 1.334 . S
C1098 C1099 1.287 . S
C1099 C1098 1.287 . S
C1099 C1100 1.524 . S
C1099 H1102 0.999 . S
C1100 H1070 0.950 . S
C1100 C1099 1.524 . S
C1100 C1101 1.415 . S
C1101 H1071 0.950 . S
C1101 C1096 1.363 . S
C1101 C1100 1.415 . S
H1102 C1099 0.999 . S
H1103 C1084 0.913 . S
H1104 C1122 0.951 . S
H1105 C1124 0.951 . S
H1106 C1126 0.950 . S
H1107 C1127 0.950 . S
H1108 C1129 0.950 . S
H1109 C1132 0.950 . S
H1110 C1133 0.950 . S
H1111 C1135 0.950 . S
H1112 C1136 0.950 . S
H1113 C1137 0.951 . S
H1114 C1139 0.951 . S
H1115 C1141 0.950 . S
H1116 C1142 0.950 1_455 S
H1117 C1144 0.950 . S
H1118 C1147 0.950 . S
H1119 C1148 0.950 . S
H1120 C1150 0.950 . S
H1121 C1151 0.950 . S
C1122 H1104 0.951 . S
C1122 C1123 1.366 . S
C1122 C1124 1.388 . S
C1123 C1122 1.366 . S
C1123 C1127 1.385 . S
C1124 H1105 0.951 . S
C1124 C1122 1.388 . S
C1124 C1125 1.366 . S
C1125 C1124 1.366 . S
C1125 C1126 1.414 . S
C1125 C1128 1.499 . S
C1126 H1106 0.950 . S
C1126 C1125 1.414 . S
C1126 C1127 1.374 . S
C1127 H1107 0.950 . S
C1127 C1123 1.385 . S
C1127 C1126 1.374 . S
C1128 C1125 1.499 . S
C1128 C1129 1.373 . S
C1128 C1130 1.389 . S
C1129 H1108 0.950 . S
C1129 C1128 1.373 . S
C1129 C1145 1.377 . S
C1130 C1128 1.389 . S
C1130 C1131 1.524 . S
C1130 C1144 1.377 . S
C1131 C1130 1.524 . S
C1131 C1132 1.397 . S
C1131 C1136 1.363 . S
C1132 H1109 0.950 . S
C1132 C1131 1.397 . S
C1132 C1133 1.334 . S
C1133 H1110 0.950 . S
C1133 C1132 1.334 . S
C1133 C1134 1.287 . S
C1134 C1133 1.287 . S
C1134 C1135 1.524 . S
C1134 H1153 0.913 . S
C1135 H1111 0.950 . S
C1135 C1134 1.524 . S
C1135 C1136 1.415 . S
C1136 H1112 0.950 . S
C1136 C1131 1.363 . S
C1136 C1135 1.415 . S
C1137 H1113 0.951 . S
C1137 C1138 1.388 . S
C1137 C1139 1.388 . S
C1138 C1137 1.388 . S
C1138 C1142 1.391 . S
C1139 H1114 0.951 . S
C1139 C1137 1.388 . S
C1139 C1140 1.366 . S
C1140 C1139 1.366 . S
C1140 C1141 1.414 . S
C1140 C1143 1.499 . S
C1141 H1115 0.950 . S
C1141 C1140 1.414 . S
C1141 C1142 1.374 . S
C1142 H1116 0.950 1_655 S
C1142 C1138 1.391 . S
C1142 C1141 1.374 . S
C1143 C1140 1.499 . S
C1143 C1144 1.373 . S
C1143 C1145 1.389 . S
C1144 H1117 0.950 . S
C1144 C1130 1.377 . S
C1144 C1143 1.373 . S
C1145 C1129 1.377 . S
C1145 C1143 1.389 . S
C1145 C1146 1.524 . S
C1146 C1145 1.524 . S
C1146 C1147 1.397 . S
C1146 C1151 1.363 . S
C1147 H1118 0.950 . S
C1147 C1146 1.397 . S
C1147 C1148 1.334 1_655 S
C1148 H1119 0.950 . S
C1148 C1147 1.334 1_455 S
C1148 C1149 1.300 . S
C1149 C1148 1.300 . S
C1149 C1150 1.477 1_455 S
C1149 H1152 1.035 . S
C1150 H1120 0.950 . S
C1150 C1149 1.477 1_655 S
C1150 C1151 1.415 . S
C1151 H1121 0.950 . S
C1151 C1146 1.363 . S
C1151 C1150 1.415 . S
H1152 C1149 1.035 . S
H1153 C1134 0.913 . S
H1154 C1172 0.951 . S
H1155 C1174 0.951 . S
H1156 C1176 0.950 . S
H1157 C1177 0.950 . S
H1158 C1179 0.950 . S
H1159 C1182 0.950 1_545 S
H1160 C1183 0.950 . S
H1161 C1185 0.950 . S
H1162 C1186 0.950 . S
H1163 C1187 0.951 . S
H1164 C1189 0.951 . S
H1165 C1191 0.950 . S
H1166 C1192 0.950 . S
H1167 C1194 0.950 . S
H1168 C1197 0.950 . S
H1169 C1198 0.950 . S
H1170 C1200 0.950 . S
H1171 C1201 0.950 . S
C1172 H1154 0.951 . S
C1172 C1173 1.366 . S
C1172 C1174 1.388 1_565 S
C1173 C1172 1.366 . S
C1173 C1177 1.385 1_565 S
C1174 H1155 0.951 . S
C1174 C1172 1.388 1_545 S
C1174 C1175 1.366 . S
C1175 C1174 1.366 . S
C1175 C1176 1.414 . S
C1175 C1178 1.499 . S
C1176 H1156 0.950 . S
C1176 C1175 1.414 . S
C1176 C1177 1.374 . S
C1177 H1157 0.950 . S
C1177 C1173 1.385 1_545 S
C1177 C1176 1.374 . S
C1178 C1175 1.499 . S
C1178 C1179 1.373 . S
C1178 C1180 1.389 . S
C1179 H1158 0.950 . S
C1179 C1178 1.373 . S
C1179 C1195 1.377 . S
C1180 C1178 1.389 . S
C1180 C1181 1.524 . S
C1180 C1194 1.377 . S
C1181 C1180 1.524 . S
C1181 C1182 1.397 1_545 S
C1181 C1186 1.363 . S
C1182 H1159 0.950 1_565 S
C1182 C1181 1.397 1_565 S
C1182 C1183 1.334 . S
C1183 H1160 0.950 . S
C1183 C1182 1.334 . S
C1183 C1184 1.287 . S
C1184 C1183 1.287 . S
C1184 C1185 1.524 . S
C1184 H1203 0.913 . S
C1185 H1161 0.950 . S
C1185 C1184 1.524 . S
C1185 C1186 1.415 1_565 S
C1186 H1162 0.950 . S
C1186 C1181 1.363 . S
C1186 C1185 1.415 1_545 S
C1187 H1163 0.951 . S
C1187 C1188 1.366 . S
C1187 C1189 1.388 . S
C1188 C1187 1.366 . S
C1188 C1192 1.385 . S
C1189 H1164 0.951 . S
C1189 C1187 1.388 . S
C1189 C1190 1.366 . S
C1190 C1189 1.366 . S
C1190 C1191 1.414 . S
C1190 C1193 1.499 . S
C1191 H1165 0.950 . S
C1191 C1190 1.414 . S
C1191 C1192 1.374 . S
C1192 H1166 0.950 . S
C1192 C1188 1.385 . S
C1192 C1191 1.374 . S
C1193 C1190 1.499 . S
C1193 C1194 1.373 . S
C1193 C1195 1.389 . S
C1194 H1167 0.950 . S
C1194 C1180 1.377 . S
C1194 C1193 1.373 . S
C1195 C1179 1.377 . S
C1195 C1193 1.389 . S
C1195 C1196 1.524 . S
C1196 C1195 1.524 . S
C1196 C1197 1.397 . S
C1196 C1201 1.363 . S
C1197 H1168 0.950 . S
C1197 C1196 1.397 . S
C1197 C1198 1.334 . S
C1198 H1169 0.950 . S
C1198 C1197 1.334 . S
C1198 C1199 1.287 . S
C1199 C1198 1.287 . S
C1199 C1200 1.524 . S
C1199 H1202 0.999 . S
C1200 H1170 0.950 . S
C1200 C1199 1.524 . S
C1200 C1201 1.415 . S
C1201 H1171 0.950 . S
C1201 C1196 1.363 . S
C1201 C1200 1.415 . S
H1202 C1199 0.999 . S
H1203 C1184 0.913 . S
H1204 C1222 0.951 . S
H1205 C1224 0.951 . S
H1206 C1226 0.950 . S
H1207 C1227 0.950 . S
H1208 C1229 0.950 . S
H1209 C1232 0.950 . S
H1210 C1233 0.950 . S
H1211 C1235 0.950 . S
H1212 C1236 0.950 . S
H1213 C1237 0.951 . S
H1214 C1239 0.951 . S
H1215 C1241 0.950 . S
H1216 C1242 0.950 . S
H1217 C1244 0.950 . S
H1218 C1247 0.950 . S
H1219 C1248 0.950 . S
H1220 C1250 0.950 . S
H1221 C1251 0.950 . S
C1222 H1204 0.951 . S
C1222 C1223 1.366 . S
C1222 C1224 1.388 . S
C1223 C1222 1.366 . S
C1223 C1227 1.385 . S
C1224 H1205 0.951 . S
C1224 C1222 1.388 . S
C1224 C1225 1.366 . S
C1225 C1224 1.366 . S
C1225 C1226 1.414 . S
C1225 C1228 1.499 . S
C1226 H1206 0.950 . S
C1226 C1225 1.414 . S
C1226 C1227 1.374 . S
C1227 H1207 0.950 . S
C1227 C1223 1.385 . S
C1227 C1226 1.374 . S
C1228 C1225 1.499 . S
C1228 C1229 1.373 . S
C1228 C1230 1.389 . S
C1229 H1208 0.950 . S
C1229 C1228 1.373 . S
C1229 C1245 1.377 . S
C1230 C1228 1.389 . S
C1230 C1231 1.524 . S
C1230 C1244 1.377 . S
C1231 C1230 1.524 . S
C1231 C1232 1.397 . S
C1231 C1236 1.363 . S
C1232 H1209 0.950 . S
C1232 C1231 1.397 . S
C1232 C1233 1.334 . S
C1233 H1210 0.950 . S
C1233 C1232 1.334 . S
C1233 C1234 1.287 . S
C1234 C1233 1.287 . S
C1234 C1235 1.524 . S
C1234 H1253 0.913 . S
C1235 H1211 0.950 . S
C1235 C1234 1.524 . S
C1235 C1236 1.415 . S
C1236 H1212 0.950 . S
C1236 C1231 1.363 . S
C1236 C1235 1.415 . S
C1237 H1213 0.951 . S
C1237 C1238 1.366 . S
C1237 C1239 1.388 . S
C1238 C1237 1.366 . S
C1238 C1242 1.385 . S
C1239 H1214 0.951 . S
C1239 C1237 1.388 . S
C1239 C1240 1.366 . S
C1240 C1239 1.366 . S
C1240 C1241 1.414 . S
C1240 C1243 1.499 . S
C1241 H1215 0.950 . S
C1241 C1240 1.414 . S
C1241 C1242 1.374 . S
C1242 H1216 0.950 . S
C1242 C1238 1.385 . S
C1242 C1241 1.374 . S
C1243 C1240 1.499 . S
C1243 C1244 1.373 . S
C1243 C1245 1.389 . S
C1244 H1217 0.950 . S
C1244 C1230 1.377 . S
C1244 C1243 1.373 . S
C1245 C1229 1.377 . S
C1245 C1243 1.389 . S
C1245 C1246 1.524 . S
C1246 C1245 1.524 . S
C1246 C1247 1.397 . S
C1246 C1251 1.363 . S
C1247 H1218 0.950 . S
C1247 C1246 1.397 . S
C1247 C1248 1.334 . S
C1248 H1219 0.950 . S
C1248 C1247 1.334 . S
C1248 C1249 1.287 . S
C1249 C1248 1.287 . S
C1249 C1250 1.524 . S
C1249 H1252 0.999 . S
C1250 H1220 0.950 . S
C1250 C1249 1.524 . S
C1250 C1251 1.415 . S
C1251 H1221 0.950 . S
C1251 C1246 1.363 . S
C1251 C1250 1.415 . S
H1252 C1249 0.999 . S
H1253 C1234 0.913 . S
H1254 C1272 0.951 . S
H1255 C1274 0.951 . S
H1256 C1276 0.950 . S
H1257 C1277 0.950 . S
H1258 C1279 0.950 . S
H1259 C1282 0.950 . S
H1260 C1283 0.950 . S
H1261 C1285 0.950 . S
H1262 C1286 0.950 . S
H1263 C1287 0.951 . S
H1264 C1289 0.951 . S
H1265 C1291 0.950 . S
H1266 C1292 0.950 . S
H1267 C1294 0.950 . S
H1268 C1297 0.950 . S
H1269 C1298 0.950 . S
H1270 C1300 0.950 . S
H1271 C1301 0.950 . S
C1272 H1254 0.951 . S
C1272 C1273 1.366 . S
C1272 C1274 1.388 . S
C1273 C1272 1.366 . S
C1273 C1277 1.385 . S
C1274 H1255 0.951 . S
C1274 C1272 1.388 . S
C1274 C1275 1.366 . S
C1275 C1274 1.366 . S
C1275 C1276 1.414 . S
C1275 C1278 1.499 . S
C1276 H1256 0.950 . S
C1276 C1275 1.414 . S
C1276 C1277 1.374 . S
C1277 H1257 0.950 . S
C1277 C1273 1.385 . S
C1277 C1276 1.374 . S
C1278 C1275 1.499 . S
C1278 C1279 1.373 . S
C1278 C1280 1.389 . S
C1279 H1258 0.950 . S
C1279 C1278 1.373 . S
C1279 C1295 1.377 . S
C1280 C1278 1.389 . S
C1280 C1281 1.524 . S
C1280 C1294 1.377 . S
C1281 C1280 1.524 . S
C1281 C1282 1.397 . S
C1281 C1286 1.363 . S
C1282 H1259 0.950 . S
C1282 C1281 1.397 . S
C1282 C1283 1.334 . S
C1283 H1260 0.950 . S
C1283 C1282 1.334 . S
C1283 C1284 1.287 . S
C1284 C1283 1.287 . S
C1284 C1285 1.524 . S
C1284 H1303 0.913 . S
C1285 H1261 0.950 . S
C1285 C1284 1.524 . S
C1285 C1286 1.415 . S
C1286 H1262 0.950 . S
C1286 C1281 1.363 . S
C1286 C1285 1.415 . S
C1287 H1263 0.951 . S
C1287 C1288 1.366 . S
C1287 C1289 1.388 . S
C1288 C1287 1.366 . S
C1288 C1292 1.385 . S
C1289 H1264 0.951 . S
C1289 C1287 1.388 . S
C1289 C1290 1.366 . S
C1290 C1289 1.366 . S
C1290 C1291 1.414 . S
C1290 C1293 1.499 . S
C1291 H1265 0.950 . S
C1291 C1290 1.414 . S
C1291 C1292 1.374 . S
C1292 H1266 0.950 . S
C1292 C1288 1.385 . S
C1292 C1291 1.374 . S
C1293 C1290 1.499 . S
C1293 C1294 1.373 . S
C1293 C1295 1.389 . S
C1294 H1267 0.950 . S
C1294 C1280 1.377 . S
C1294 C1293 1.373 . S
C1295 C1279 1.377 . S
C1295 C1293 1.389 . S
C1295 C1296 1.524 . S
C1296 C1295 1.524 . S
C1296 C1297 1.397 . S
C1296 C1301 1.363 . S
C1297 H1268 0.950 . S
C1297 C1296 1.397 . S
C1297 C1298 1.334 . S
C1298 H1269 0.950 . S
C1298 C1297 1.334 . S
C1298 C1299 1.287 . S
C1299 C1298 1.287 . S
C1299 C1300 1.524 . S
C1299 H1302 0.999 . S
C1300 H1270 0.950 . S
C1300 C1299 1.524 . S
C1300 C1301 1.415 . S
C1301 H1271 0.950 . S
C1301 C1296 1.363 . S
C1301 C1300 1.415 . S
H1302 C1299 0.999 . S
H1303 C1284 0.913 . S
H1304 C1322 0.951 . S
H1305 C1324 0.951 . S
H1306 C1326 0.950 . S
H1307 C1327 0.950 . S
H1308 C1329 0.950 . S
H1309 C1332 0.950 . S
H1310 C1333 0.950 . S
H1311 C1335 0.950 . S
H1312 C1336 0.950 . S
H1313 C1337 0.951 . S
H1314 C1339 0.951 . S
H1315 C1341 0.950 . S
H1316 C1342 0.950 . S
H1317 C1344 0.950 . S
H1318 C1347 0.950 . S
H1319 C1348 0.950 . S
H1320 C1350 0.950 . S
H1321 C1351 0.950 . S
C1322 H1304 0.951 . S
C1322 C1323 1.366 . S
C1322 C1324 1.388 . S
C1323 C1322 1.366 . S
C1323 C1327 1.385 . S
C1324 H1305 0.951 . S
C1324 C1322 1.388 . S
C1324 C1325 1.366 . S
C1325 C1324 1.366 . S
C1325 C1326 1.414 . S
C1325 C1328 1.499 . S
C1326 H1306 0.950 . S
C1326 C1325 1.414 . S
C1326 C1327 1.374 . S
C1327 H1307 0.950 . S
C1327 C1323 1.385 . S
C1327 C1326 1.374 . S
C1328 C1325 1.499 . S
C1328 C1329 1.373 . S
C1328 C1330 1.389 . S
C1329 H1308 0.950 . S
C1329 C1328 1.373 . S
C1329 C1345 1.377 . S
C1330 C1328 1.389 . S
C1330 C1331 1.524 . S
C1330 C1344 1.377 . S
C1331 C1330 1.524 . S
C1331 C1332 1.397 . S
C1331 C1336 1.363 . S
C1332 H1309 0.950 . S
C1332 C1331 1.397 . S
C1332 C1333 1.334 . S
C1333 H1310 0.950 . S
C1333 C1332 1.334 . S
C1333 C1334 1.287 . S
C1334 C1333 1.287 . S
C1334 C1335 1.524 . S
C1334 H1353 0.913 . S
C1335 H1311 0.950 . S
C1335 C1334 1.524 . S
C1335 C1336 1.415 . S
C1336 H1312 0.950 . S
C1336 C1331 1.363 . S
C1336 C1335 1.415 . S
C1337 H1313 0.951 . S
C1337 C1338 1.366 . S
C1337 C1339 1.388 . S
C1338 C1337 1.366 . S
C1338 C1342 1.385 . S
C1339 H1314 0.951 . S
C1339 C1337 1.388 . S
C1339 C1340 1.366 . S
C1340 C1339 1.366 . S
C1340 C1341 1.414 . S
C1340 C1343 1.499 . S
C1341 H1315 0.950 . S
C1341 C1340 1.414 . S
C1341 C1342 1.374 . S
C1342 H1316 0.950 . S
C1342 C1338 1.385 . S
C1342 C1341 1.374 . S
C1343 C1340 1.499 . S
C1343 C1344 1.373 . S
C1343 C1345 1.389 . S
C1344 H1317 0.950 . S
C1344 C1330 1.377 . S
C1344 C1343 1.373 . S
C1345 C1329 1.377 . S
C1345 C1343 1.389 . S
C1345 C1346 1.524 . S
C1346 C1345 1.524 . S
C1346 C1347 1.397 . S
C1346 C1351 1.363 . S
C1347 H1318 0.950 . S
C1347 C1346 1.397 . S
C1347 C1348 1.334 . S
C1348 H1319 0.950 . S
C1348 C1347 1.334 . S
C1348 C1349 1.287 . S
C1349 C1348 1.287 . S
C1349 C1350 1.524 . S
C1349 H1352 0.999 . S
C1350 H1320 0.950 . S
C1350 C1349 1.524 . S
C1350 C1351 1.415 . S
C1351 H1321 0.950 . S
C1351 C1346 1.363 . S
C1351 C1350 1.415 . S
H1352 C1349 0.999 . S
H1353 C1334 0.913 . S
H1354 C1372 0.951 . S
H1355 C1374 0.951 . S
H1356 C1376 0.950 . S
H1357 C1377 0.950 . S
H1358 C1379 0.950 . S
H1359 C1382 0.950 . S
H1360 C1383 0.950 . S
H1361 C1385 0.950 . S
H1362 C1386 0.950 . S
H1363 C1387 0.951 . S
H1364 C1389 0.951 . S
H1365 C1391 0.950 . S
H1366 C1392 0.950 . S
H1367 C1394 0.950 . S
H1368 C1397 0.950 . S
H1369 C1398 0.950 . S
H1370 C1400 0.950 . S
H1371 C1401 0.950 . S
C1372 H1354 0.951 . S
C1372 C1373 1.366 . S
C1372 C1374 1.388 . S
C1373 C1372 1.366 . S
C1373 C1377 1.385 . S
C1374 H1355 0.951 . S
C1374 C1372 1.388 . S
C1374 C1375 1.366 . S
C1375 C1374 1.366 . S
C1375 C1376 1.414 . S
C1375 C1378 1.499 . S
C1376 H1356 0.950 . S
C1376 C1375 1.414 . S
C1376 C1377 1.374 . S
C1377 H1357 0.950 . S
C1377 C1373 1.385 . S
C1377 C1376 1.374 . S
C1378 C1375 1.499 . S
C1378 C1379 1.373 . S
C1378 C1380 1.389 . S
C1379 H1358 0.950 . S
C1379 C1378 1.373 . S
C1379 C1395 1.377 . S
C1380 C1378 1.389 . S
C1380 C1381 1.524 . S
C1380 C1394 1.377 . S
C1381 C1380 1.524 . S
C1381 C1382 1.397 . S
C1381 C1386 1.363 . S
C1382 H1359 0.950 . S
C1382 C1381 1.397 . S
C1382 C1383 1.334 . S
C1383 H1360 0.950 . S
C1383 C1382 1.334 . S
C1383 C1384 1.287 . S
C1384 C1383 1.287 . S
C1384 C1385 1.524 . S
C1384 H1403 0.913 . S
C1385 H1361 0.950 . S
C1385 C1384 1.524 . S
C1385 C1386 1.415 . S
C1386 H1362 0.950 . S
C1386 C1381 1.363 . S
C1386 C1385 1.415 . S
C1387 H1363 0.951 . S
C1387 C1388 1.366 . S
C1387 C1389 1.388 . S
C1388 C1387 1.366 . S
C1388 C1392 1.385 . S
C1389 H1364 0.951 . S
C1389 C1387 1.388 . S
C1389 C1390 1.366 . S
C1390 C1389 1.366 . S
C1390 C1391 1.414 . S
C1390 C1393 1.499 . S
C1391 H1365 0.950 . S
C1391 C1390 1.414 . S
C1391 C1392 1.374 . S
C1392 H1366 0.950 . S
C1392 C1388 1.385 . S
C1392 C1391 1.374 . S
C1393 C1390 1.499 . S
C1393 C1394 1.373 . S
C1393 C1395 1.389 . S
C1394 H1367 0.950 . S
C1394 C1380 1.377 . S
C1394 C1393 1.373 . S
C1395 C1379 1.377 . S
C1395 C1393 1.389 . S
C1395 C1396 1.524 . S
C1396 C1395 1.524 . S
C1396 C1397 1.397 . S
C1396 C1401 1.363 . S
C1397 H1368 0.950 . S
C1397 C1396 1.397 . S
C1397 C1398 1.334 . S
C1398 H1369 0.950 . S
C1398 C1397 1.334 . S
C1398 C1399 1.287 . S
C1399 C1398 1.287 . S
C1399 C1400 1.524 . S
C1399 H1402 0.999 . S
C1400 H1370 0.950 . S
C1400 C1399 1.524 . S
C1400 C1401 1.415 . S
C1401 H1371 0.950 . S
C1401 C1396 1.363 . S
C1401 C1400 1.415 . S
H1402 C1399 0.999 . S
H1403 C1384 0.913 . S
H1404 C1422 0.951 . S
H1405 C1424 0.951 . S
H1406 C1426 0.950 . S
H1407 C1427 0.950 . S
H1408 C1429 0.950 . S
H1409 C1432 0.950 . S
H1410 C1433 0.950 . S
H1411 C1435 0.950 . S
H1412 C1436 0.950 . S
H1413 C1437 0.951 . S
H1414 C1439 0.951 . S
H1415 C1441 0.950 . S
H1416 C1442 0.950 . S
H1417 C1444 0.950 . S
H1418 C1447 0.950 . S
H1419 C1448 0.950 . S
H1420 C1450 0.950 . S
H1421 C1451 0.950 . S
C1422 H1404 0.951 . S
C1422 C1423 1.366 . S
C1422 C1424 1.388 . S
C1423 C1422 1.366 . S
C1423 C1427 1.385 . S
C1424 H1405 0.951 . S
C1424 C1422 1.388 . S
C1424 C1425 1.366 . S
C1425 C1424 1.366 . S
C1425 C1426 1.414 . S
C1425 C1428 1.499 . S
C1426 H1406 0.950 . S
C1426 C1425 1.414 . S
C1426 C1427 1.374 . S
C1427 H1407 0.950 . S
C1427 C1423 1.385 . S
C1427 C1426 1.374 . S
C1428 C1425 1.499 . S
C1428 C1429 1.373 . S
C1428 C1430 1.389 . S
C1429 H1408 0.950 . S
C1429 C1428 1.373 . S
C1429 C1445 1.377 . S
C1430 C1428 1.389 . S
C1430 C1431 1.524 . S
C1430 C1444 1.377 . S
C1431 C1430 1.524 . S
C1431 C1432 1.397 . S
C1431 C1436 1.363 . S
C1432 H1409 0.950 . S
C1432 C1431 1.397 . S
C1432 C1433 1.334 . S
C1433 H1410 0.950 . S
C1433 C1432 1.334 . S
C1433 C1434 1.287 . S
C1434 C1433 1.287 . S
C1434 C1435 1.524 . S
C1434 H1453 0.913 . S
C1435 H1411 0.950 . S
C1435 C1434 1.524 . S
C1435 C1436 1.415 . S
C1436 H1412 0.950 . S
C1436 C1431 1.363 . S
C1436 C1435 1.415 . S
C1437 H1413 0.951 . S
C1437 C1438 1.366 . S
C1437 C1439 1.388 . S
C1438 C1437 1.366 . S
C1438 C1442 1.385 . S
C1439 H1414 0.951 . S
C1439 C1437 1.388 . S
C1439 C1440 1.366 . S
C1440 C1439 1.366 . S
C1440 C1441 1.414 . S
C1440 C1443 1.499 . S
C1441 H1415 0.950 . S
C1441 C1440 1.414 . S
C1441 C1442 1.374 . S
C1442 H1416 0.950 . S
C1442 C1438 1.385 . S
C1442 C1441 1.374 . S
C1443 C1440 1.499 . S
C1443 C1444 1.373 . S
C1443 C1445 1.389 . S
C1444 H1417 0.950 . S
C1444 C1430 1.377 . S
C1444 C1443 1.373 . S
C1445 C1429 1.377 . S
C1445 C1443 1.389 . S
C1445 C1446 1.524 . S
C1446 C1445 1.524 . S
C1446 C1447 1.397 . S
C1446 C1451 1.363 . S
C1447 H1418 0.950 . S
C1447 C1446 1.397 . S
C1447 C1448 1.334 . S
C1448 H1419 0.950 . S
C1448 C1447 1.334 . S
C1448 C1449 1.287 . S
C1449 C1448 1.287 . S
C1449 C1450 1.524 . S
C1449 H1452 0.999 . S
C1450 H1420 0.950 . S
C1450 C1449 1.524 . S
C1450 C1451 1.415 . S
C1451 H1421 0.950 . S
C1451 C1446 1.363 . S
C1451 C1450 1.415 . S
H1452 C1449 0.999 . S
H1453 C1434 0.913 . S
H1454 C1472 0.951 . S
H1455 C1474 0.951 . S
H1456 C1476 0.950 . S
H1457 C1477 0.950 . S
H1458 C1479 0.950 . S
H1459 C1482 0.950 . S
H1460 C1483 0.950 . S
H1461 C1485 0.950 . S
H1462 C1486 0.950 . S
H1463 C1487 0.951 . S
H1464 C1489 0.951 . S
H1465 C1491 0.950 . S
H1466 C1492 0.950 . S
H1467 C1494 0.950 . S
H1468 C1497 0.950 . S
H1469 C1498 0.950 . S
H1470 C1500 0.950 . S
H1471 C1501 0.950 . S
C1472 H1454 0.951 . S
C1472 C1473 1.366 . S
C1472 C1474 1.388 . S
C1473 C1472 1.366 . S
C1473 C1477 1.385 . S
C1474 H1455 0.951 . S
C1474 C1472 1.388 . S
C1474 C1475 1.366 . S
C1475 C1474 1.366 . S
C1475 C1476 1.414 . S
C1475 C1478 1.499 . S
C1476 H1456 0.950 . S
C1476 C1475 1.414 . S
C1476 C1477 1.374 . S
C1477 H1457 0.950 . S
C1477 C1473 1.385 . S
C1477 C1476 1.374 . S
C1478 C1475 1.499 . S
C1478 C1479 1.373 . S
C1478 C1480 1.389 . S
C1479 H1458 0.950 . S
C1479 C1478 1.373 . S
C1479 C1495 1.377 . S
C1480 C1478 1.389 . S
C1480 C1481 1.524 . S
C1480 C1494 1.377 . S
C1481 C1480 1.524 . S
C1481 C1482 1.397 . S
C1481 C1486 1.363 . S
C1482 H1459 0.950 . S
C1482 C1481 1.397 . S
C1482 C1483 1.334 . S
C1483 H1460 0.950 . S
C1483 C1482 1.334 . S
C1483 C1484 1.287 . S
C1484 C1483 1.287 . S
C1484 C1485 1.524 . S
C1484 H1503 0.913 . S
C1485 H1461 0.950 . S
C1485 C1484 1.524 . S
C1485 C1486 1.415 . S
C1486 H1462 0.950 . S
C1486 C1481 1.363 . S
C1486 C1485 1.415 . S
C1487 H1463 0.951 . S
C1487 C1488 1.366 . S
C1487 C1489 1.388 . S
C1488 C1487 1.366 . S
C1488 C1492 1.385 . S
C1489 H1464 0.951 . S
C1489 C1487 1.388 . S
C1489 C1490 1.366 . S
C1490 C1489 1.366 . S
C1490 C1491 1.414 . S
C1490 C1493 1.499 . S
C1491 H1465 0.950 . S
C1491 C1490 1.414 . S
C1491 C1492 1.374 . S
C1492 H1466 0.950 . S
C1492 C1488 1.385 . S
C1492 C1491 1.374 . S
C1493 C1490 1.499 . S
C1493 C1494 1.373 . S
C1493 C1495 1.389 . S
C1494 H1467 0.950 . S
C1494 C1480 1.377 . S
C1494 C1493 1.373 . S
C1495 C1479 1.377 . S
C1495 C1493 1.389 . S
C1495 C1496 1.524 . S
C1496 C1495 1.524 . S
C1496 C1497 1.397 . S
C1496 C1501 1.363 . S
C1497 H1468 0.950 . S
C1497 C1496 1.397 . S
C1497 C1498 1.334 . S
C1498 H1469 0.950 . S
C1498 C1497 1.334 . S
C1498 C1499 1.287 . S
C1499 C1498 1.287 . S
C1499 C1500 1.524 . S
C1499 H1502 0.999 . S
C1500 H1470 0.950 . S
C1500 C1499 1.524 . S
C1500 C1501 1.415 . S
C1501 H1471 0.950 . S
C1501 C1496 1.363 . S
C1501 C1500 1.415 . S
H1502 C1499 0.999 . S
H1503 C1484 0.913 . S
H1504 C1522 0.951 . S
H1505 C1524 0.951 . S
H1506 C1526 0.950 . S
H1507 C1527 0.950 . S
H1508 C1529 0.950 . S
H1509 C1532 0.950 . S
H1510 C1533 0.950 . S
H1511 C1535 0.950 . S
H1512 C1536 0.950 . S
H1513 C1537 0.951 . S
H1514 C1539 0.951 . S
H1515 C1541 0.950 . S
H1516 C1542 0.950 . S
H1517 C1544 0.950 . S
H1518 C1547 0.950 . S
H1519 C1548 0.950 . S
H1520 C1550 0.950 . S
H1521 C1551 0.950 . S
C1522 H1504 0.951 . S
C1522 C1523 1.366 . S
C1522 C1524 1.388 . S
C1523 C1522 1.366 . S
C1523 C1527 1.385 . S
C1524 H1505 0.951 . S
C1524 C1522 1.388 . S
C1524 C1525 1.366 . S
C1525 C1524 1.366 . S
C1525 C1526 1.414 . S
C1525 C1528 1.499 . S
C1526 H1506 0.950 . S
C1526 C1525 1.414 . S
C1526 C1527 1.374 . S
C1527 H1507 0.950 . S
C1527 C1523 1.385 . S
C1527 C1526 1.374 . S
C1528 C1525 1.499 . S
C1528 C1529 1.373 . S
C1528 C1530 1.389 . S
C1529 H1508 0.950 . S
C1529 C1528 1.373 . S
C1529 C1545 1.377 . S
C1530 C1528 1.389 . S
C1530 C1531 1.524 . S
C1530 C1544 1.377 . S
C1531 C1530 1.524 . S
C1531 C1532 1.397 . S
C1531 C1536 1.363 . S
C1532 H1509 0.950 . S
C1532 C1531 1.397 . S
C1532 C1533 1.334 . S
C1533 H1510 0.950 . S
C1533 C1532 1.334 . S
C1533 C1534 1.287 . S
C1534 C1533 1.287 . S
C1534 C1535 1.524 . S
C1534 H1553 0.913 . S
C1535 H1511 0.950 . S
C1535 C1534 1.524 . S
C1535 C1536 1.415 . S
C1536 H1512 0.950 . S
C1536 C1531 1.363 . S
C1536 C1535 1.415 . S
C1537 H1513 0.951 . S
C1537 C1538 1.366 . S
C1537 C1539 1.388 . S
C1538 C1537 1.366 . S
C1538 C1542 1.385 . S
C1539 H1514 0.951 . S
C1539 C1537 1.388 . S
C1539 C1540 1.366 . S
C1540 C1539 1.366 . S
C1540 C1541 1.414 . S
C1540 C1543 1.499 . S
C1541 H1515 0.950 . S
C1541 C1540 1.414 . S
C1541 C1542 1.374 . S
C1542 H1516 0.950 . S
C1542 C1538 1.385 . S
C1542 C1541 1.374 . S
C1543 C1540 1.499 . S
C1543 C1544 1.373 . S
C1543 C1545 1.389 . S
C1544 H1517 0.950 . S
C1544 C1530 1.377 . S
C1544 C1543 1.373 . S
C1545 C1529 1.377 . S
C1545 C1543 1.389 . S
C1545 C1546 1.524 . S
C1546 C1545 1.524 . S
C1546 C1547 1.397 . S
C1546 C1551 1.363 . S
C1547 H1518 0.950 . S
C1547 C1546 1.397 . S
C1547 C1548 1.334 1_556 S
C1548 H1519 0.950 . S
C1548 C1547 1.334 1_554 S
C1548 C1549 1.287 . S
C1549 C1548 1.287 . S
C1549 C1550 1.524 . S
C1549 H1552 0.999 . S
C1550 H1520 0.950 . S
C1550 C1549 1.524 . S
C1550 C1551 1.415 1_554 S
C1551 H1521 0.950 . S
C1551 C1546 1.363 . S
C1551 C1550 1.415 1_556 S
H1552 C1549 0.999 . S
H1553 C1534 0.913 . S
H1554 C1572 0.951 . S
H1555 C1574 0.951 . S
H1556 C1576 0.950 . S
H1557 C1577 0.950 . S
H1558 C1579 0.950 . S
H1559 C1582 0.950 . S
H1560 C1583 0.950 . S
H1561 C1585 0.950 . S
H1562 C1586 0.950 . S
H1563 C1587 0.951 . S
H1564 C1589 0.951 . S
H1565 C1591 0.950 . S
H1566 C1592 0.950 . S
H1567 C1594 0.950 . S
H1568 C1597 0.950 . S
H1569 C1598 0.950 . S
H1570 C1600 0.950 . S
H1571 C1601 0.950 . S
C1572 H1554 0.951 . S
C1572 C1573 1.366 . S
C1572 C1574 1.388 . S
C1573 C1572 1.366 . S
C1573 C1577 1.385 . S
C1574 H1555 0.951 . S
C1574 C1572 1.388 . S
C1574 C1575 1.366 . S
C1575 C1574 1.366 . S
C1575 C1576 1.414 . S
C1575 C1578 1.499 . S
C1576 H1556 0.950 . S
C1576 C1575 1.414 . S
C1576 C1577 1.374 . S
C1577 H1557 0.950 . S
C1577 C1573 1.385 . S
C1577 C1576 1.374 . S
C1578 C1575 1.499 . S
C1578 C1579 1.373 . S
C1578 C1580 1.389 . S
C1579 H1558 0.950 . S
C1579 C1578 1.373 . S
C1579 C1595 1.377 . S
C1580 C1578 1.389 . S
C1580 C1581 1.524 . S
C1580 C1594 1.377 . S
C1581 C1580 1.524 . S
C1581 C1582 1.397 . S
C1581 C1586 1.363 . S
C1582 H1559 0.950 . S
C1582 C1581 1.397 . S
C1582 C1583 1.334 . S
C1583 H1560 0.950 . S
C1583 C1582 1.334 . S
C1583 C1584 1.287 . S
C1584 C1583 1.287 . S
C1584 C1585 1.524 . S
C1584 H1603 0.913 . S
C1585 H1561 0.950 . S
C1585 C1584 1.524 . S
C1585 C1586 1.415 . S
C1586 H1562 0.950 . S
C1586 C1581 1.363 . S
C1586 C1585 1.415 . S
C1587 H1563 0.951 . S
C1587 C1588 1.366 . S
C1587 C1589 1.388 . S
C1588 C1587 1.366 . S
C1588 C1592 1.385 . S
C1589 H1564 0.951 . S
C1589 C1587 1.388 . S
C1589 C1590 1.366 . S
C1590 C1589 1.366 . S
C1590 C1591 1.414 . S
C1590 C1593 1.499 . S
C1591 H1565 0.950 . S
C1591 C1590 1.414 . S
C1591 C1592 1.374 . S
C1592 H1566 0.950 . S
C1592 C1588 1.385 . S
C1592 C1591 1.374 . S
C1593 C1590 1.499 . S
C1593 C1594 1.373 . S
C1593 C1595 1.389 . S
C1594 H1567 0.950 . S
C1594 C1580 1.377 . S
C1594 C1593 1.373 . S
C1595 C1579 1.377 . S
C1595 C1593 1.389 . S
C1595 C1596 1.524 . S
C1596 C1595 1.524 . S
C1596 C1597 1.397 . S
C1596 C1601 1.363 . S
C1597 H1568 0.950 . S
C1597 C1596 1.397 . S
C1597 C1598 1.334 . S
C1598 H1569 0.950 . S
C1598 C1597 1.334 . S
C1598 C1599 1.287 . S
C1599 C1598 1.287 . S
C1599 C1600 1.524 . S
C1599 H1602 0.999 . S
C1600 H1570 0.950 . S
C1600 C1599 1.524 . S
C1600 C1601 1.415 . S
C1601 H1571 0.950 . S
C1601 C1596 1.363 . S
C1601 C1600 1.415 . S
H1602 C1599 0.999 . S
H1603 C1584 0.913 . S
H1604 C1622 0.951 . S
H1605 C1624 0.951 . S
H1606 C1626 0.950 . S
H1607 C1627 0.950 . S
H1608 C1629 0.950 . S
H1609 C1632 0.950 . S
H1610 C1633 0.950 . S
H1611 C1635 0.950 . S
H1612 C1636 0.950 . S
H1613 C1637 0.951 . S
H1614 C1639 0.951 . S
H1615 C1641 0.950 . S
H1616 C1642 0.950 . S
H1617 C1644 0.950 . S
H1618 C1647 0.950 . S
H1619 C1648 0.979 . S
H1620 C1650 0.950 . S
H1621 C1651 0.950 . S
C1622 H1604 0.951 . S
C1622 C1623 1.366 . S
C1622 C1624 1.388 . S
C1623 C1622 1.366 . S
C1623 C1627 1.385 . S
C1624 H1605 0.951 . S
C1624 C1622 1.388 . S
C1624 C1625 1.366 . S
C1625 C1624 1.366 . S
C1625 C1626 1.414 . S
C1625 C1628 1.499 . S
C1626 H1606 0.950 . S
C1626 C1625 1.414 . S
C1626 C1627 1.374 . S
C1627 H1607 0.950 . S
C1627 C1623 1.385 . S
C1627 C1626 1.374 . S
C1628 C1625 1.499 . S
C1628 C1629 1.373 . S
C1628 C1630 1.389 . S
C1629 H1608 0.950 . S
C1629 C1628 1.373 . S
C1629 C1645 1.377 . S
C1630 C1628 1.389 . S
C1630 C1631 1.524 . S
C1630 C1644 1.377 . S
C1631 C1630 1.524 . S
C1631 C1632 1.397 . S
C1631 C1636 1.363 . S
C1632 H1609 0.950 . S
C1632 C1631 1.397 . S
C1632 C1633 1.334 . S
C1633 H1610 0.950 . S
C1633 C1632 1.334 . S
C1633 C1634 1.287 . S
C1634 C1633 1.287 . S
C1634 C1635 1.524 . S
C1634 H1653 0.913 . S
C1635 H1611 0.950 . S
C1635 C1634 1.524 . S
C1635 C1636 1.415 . S
C1636 H1612 0.950 . S
C1636 C1631 1.363 . S
C1636 C1635 1.415 . S
C1637 H1613 0.951 . S
C1637 C1638 1.366 . S
C1637 C1639 1.388 . S
C1638 C1637 1.366 . S
C1638 C1642 1.385 . S
C1639 H1614 0.951 . S
C1639 C1637 1.388 . S
C1639 C1640 1.366 . S
C1640 C1639 1.366 . S
C1640 C1641 1.414 . S
C1640 C1643 1.499 . S
C1641 H1615 0.950 . S
C1641 C1640 1.414 . S
C1641 C1642 1.374 . S
C1642 H1616 0.950 . S
C1642 C1638 1.385 . S
C1642 C1641 1.374 . S
C1643 C1640 1.499 . S
C1643 C1644 1.373 . S
C1643 C1645 1.389 . S
C1644 H1617 0.950 . S
C1644 C1630 1.377 . S
C1644 C1643 1.373 . S
C1645 C1629 1.377 . S
C1645 C1643 1.389 . S
C1645 C1646 1.524 . S
C1646 C1645 1.524 . S
C1646 C1647 1.397 . S
C1646 C1651 1.363 . S
C1647 H1618 0.950 . S
C1647 C1646 1.397 . S
C1647 C1648 1.334 . S
C1648 H1619 0.979 . S
C1648 C1647 1.334 . S
C1648 C1649 1.287 . S
C1649 C1648 1.287 . S
C1649 C1650 1.524 . S
C1649 H1652 1.002 . S
C1650 H1620 0.950 . S
C1650 C1649 1.524 . S
C1650 C1651 1.415 . S
C1651 H1621 0.950 . S
C1651 C1646 1.363 . S
C1651 C1650 1.415 . S
H1652 C1649 1.002 . S
H1653 C1634 0.913 . S
H1654 C1672 0.951 . S
H1655 C1674 0.951 . S
H1656 C1676 0.950 . S
H1657 C1677 0.950 . S
H1658 C1679 0.950 . S
H1659 C1682 0.950 . S
H1660 C1683 0.950 . S
H1661 C1685 0.950 . S
H1662 C1686 0.950 . S
H1663 C1687 0.951 . S
H1664 C1689 0.988 . S
H1665 C1691 0.950 . S
H1666 C1692 0.950 . S
H1667 C1694 0.950 . S
H1668 C1697 0.950 . S
H1669 C1698 0.950 . S
H1670 C1700 0.950 . S
H1671 C1701 0.950 . S
C1672 H1654 0.951 . S
C1672 C1673 1.366 . S
C1672 C1674 1.388 . S
C1673 C1672 1.366 . S
C1673 C1677 1.385 . S
C1674 H1655 0.951 . S
C1674 C1672 1.388 . S
C1674 C1675 1.366 . S
C1675 C1674 1.366 . S
C1675 C1676 1.414 . S
C1675 C1678 1.499 . S
C1676 H1656 0.950 . S
C1676 C1675 1.414 . S
C1676 C1677 1.374 . S
C1677 H1657 0.950 . S
C1677 C1673 1.385 . S
C1677 C1676 1.374 . S
C1678 C1675 1.499 . S
C1678 C1679 1.373 . S
C1678 C1680 1.389 . S
C1679 H1658 0.950 . S
C1679 C1678 1.373 . S
C1679 C1695 1.377 . S
C1680 C1678 1.389 . S
C1680 C1681 1.524 . S
C1680 C1694 1.377 1_556 S
C1681 C1680 1.524 . S
C1681 C1682 1.397 . S
C1681 C1686 1.363 1_556 S
C1682 H1659 0.950 . S
C1682 C1681 1.397 . S
C1682 C1683 1.334 . S
C1683 H1660 0.950 . S
C1683 C1682 1.334 . S
C1683 C1684 1.287 . S
C1684 C1683 1.287 . S
C1684 C1685 1.524 1_556 S
C1684 H1703 0.913 . S
C1685 H1661 0.950 . S
C1685 C1684 1.524 1_554 S
C1685 C1686 1.415 . S
C1686 H1662 0.950 . S
C1686 C1681 1.363 1_554 S
C1686 C1685 1.415 . S
C1687 H1663 0.951 . S
C1687 C1688 1.366 . S
C1687 C1689 1.388 . S
C1688 C1687 1.366 . S
C1688 C1692 1.385 . S
C1689 H1664 0.988 . S
C1689 C1687 1.388 . S
C1689 C1690 1.366 . S
C1690 C1689 1.366 . S
C1690 C1691 1.414 . S
C1690 C1693 1.499 . S
C1691 H1665 0.950 . S
C1691 C1690 1.414 . S
C1691 C1692 1.374 . S
C1692 H1666 0.950 . S
C1692 C1688 1.385 . S
C1692 C1691 1.374 . S
C1693 C1690 1.499 . S
C1693 C1694 1.373 . S
C1693 C1695 1.389 1_554 S
C1694 H1667 0.950 . S
C1694 C1680 1.377 1_554 S
C1694 C1693 1.373 . S
C1695 C1679 1.377 . S
C1695 C1693 1.389 1_556 S
C1695 C1696 1.524 . S
C1696 C1695 1.524 . S
C1696 C1697 1.397 1_556 S
C1696 C1701 1.363 . S
C1697 H1668 0.950 . S
C1697 C1696 1.397 1_554 S
C1697 C1698 1.334 . S
C1698 H1669 0.950 . S
C1698 C1697 1.334 . S
C1698 C1699 1.287 1_554 S
C1699 C1698 1.287 1_556 S
C1699 C1700 1.524 . S
C1699 H1702 0.999 . S
C1700 H1670 0.950 . S
C1700 C1699 1.524 . S
C1700 C1701 1.415 . S
C1701 H1671 0.950 . S
C1701 C1696 1.363 . S
C1701 C1700 1.415 . S
H1702 C1699 0.999 . S
H1703 C1684 0.913 . S
H1704 C1722 0.951 . S
H1705 C1724 0.951 . S
H1706 C1726 0.950 . S
H1707 C1727 0.950 . S
H1708 C1729 0.950 . S
H1709 C1732 0.950 . S
H1710 C1733 0.950 . S
H1711 C1735 0.950 . S
H1712 C1736 0.950 . S
H1713 C1737 0.951 . S
H1714 C1739 0.951 . S
H1715 C1741 0.950 . S
H1716 C1742 0.950 . S
H1717 C1744 0.950 . S
H1718 C1747 0.950 . S
H1719 C1748 0.950 . S
H1720 C1750 0.950 . S
H1721 C1751 0.950 . S
C1722 H1704 0.951 . S
C1722 C1723 1.366 . S
C1722 C1724 1.388 . S
C1723 C1722 1.366 . S
C1723 C1727 1.385 . S
C1724 H1705 0.951 . S
C1724 C1722 1.388 . S
C1724 C1725 1.366 . S
C1725 C1724 1.366 . S
C1725 C1726 1.414 . S
C1725 C1728 1.499 . S
C1726 H1706 0.950 . S
C1726 C1725 1.414 . S
C1726 C1727 1.374 . S
C1727 H1707 0.950 . S
C1727 C1723 1.385 . S
C1727 C1726 1.374 . S
C1728 C1725 1.499 . S
C1728 C1729 1.373 . S
C1728 C1730 1.389 . S
C1729 H1708 0.950 . S
C1729 C1728 1.373 . S
C1729 C1745 1.377 . S
C1730 C1728 1.389 . S
C1730 C1731 1.524 . S
C1730 C1744 1.377 . S
C1731 C1730 1.524 . S
C1731 C1732 1.397 . S
C1731 C1736 1.363 . S
C1732 H1709 0.950 . S
C1732 C1731 1.397 . S
C1732 C1733 1.334 . S
C1733 H1710 0.950 . S
C1733 C1732 1.334 . S
C1733 C1734 1.287 . S
C1734 C1733 1.287 . S
C1734 C1735 1.524 . S
C1734 H1753 0.913 . S
C1735 H1711 0.950 . S
C1735 C1734 1.524 . S
C1735 C1736 1.415 . S
C1736 H1712 0.950 . S
C1736 C1731 1.363 . S
C1736 C1735 1.415 . S
C1737 H1713 0.951 . S
C1737 C1738 1.366 . S
C1737 C1739 1.388 . S
C1738 C1737 1.366 . S
C1738 C1742 1.385 . S
C1739 H1714 0.951 . S
C1739 C1737 1.388 . S
C1739 C1740 1.366 . S
C1740 C1739 1.366 . S
C1740 C1741 1.414 . S
C1740 C1743 1.499 . S
C1741 H1715 0.950 . S
C1741 C1740 1.414 . S
C1741 C1742 1.374 . S
C1742 H1716 0.950 . S
C1742 C1738 1.385 . S
C1742 C1741 1.374 . S
C1743 C1740 1.499 . S
C1743 C1744 1.373 . S
C1743 C1745 1.389 . S
C1744 H1717 0.950 . S
C1744 C1730 1.377 . S
C1744 C1743 1.373 . S
C1745 C1729 1.377 . S
C1745 C1743 1.389 . S
C1745 C1746 1.524 . S
C1746 C1745 1.524 . S
C1746 C1747 1.397 . S
C1746 C1751 1.363 . S
C1747 H1718 0.950 . S
C1747 C1746 1.397 . S
C1747 C1748 1.334 . S
C1748 H1719 0.950 . S
C1748 C1747 1.334 . S
C1748 C1749 1.287 . S
C1749 C1748 1.287 . S
C1749 C1750 1.524 . S
C1749 H1752 0.999 . S
C1750 H1720 0.950 . S
C1750 C1749 1.524 . S
C1750 C1751 1.415 . S
C1751 H1721 0.950 . S
C1751 C1746 1.363 . S
C1751 C1750 1.415 . S
H1752 C1749 0.999 . S
H1753 C1734 0.913 . S
H1754 C1772 0.951 . S
H1755 C1774 0.951 . S
H1756 C1776 0.950 . S
H1757 C1777 0.950 . S
H1758 C1779 0.950 . S
H1759 C1782 0.950 . S
H1760 C1783 0.950 . S
H1761 C1785 0.950 . S
H1762 C1786 0.950 . S
H1763 C1787 0.951 . S
H1764 C1789 0.951 . S
H1765 C1791 0.950 . S
H1766 C1792 0.950 . S
H1767 C1794 0.950 . S
H1768 C1797 0.950 . S
H1769 C1798 0.950 . S
H1770 C1800 0.950 . S
H1771 C1801 0.950 . S
C1772 H1754 0.951 . S
C1772 C1773 1.366 . S
C1772 C1774 1.388 . S
C1773 C1772 1.366 . S
C1773 C1777 1.385 . S
C1774 H1755 0.951 . S
C1774 C1772 1.388 . S
C1774 C1775 1.366 . S
C1775 C1774 1.366 . S
C1775 C1776 1.414 . S
C1775 C1778 1.499 . S
C1776 H1756 0.950 . S
C1776 C1775 1.414 . S
C1776 C1777 1.374 . S
C1777 H1757 0.950 . S
C1777 C1773 1.385 . S
C1777 C1776 1.374 . S
C1778 C1775 1.499 . S
C1778 C1779 1.373 . S
C1778 C1780 1.389 . S
C1779 H1758 0.950 . S
C1779 C1778 1.373 . S
C1779 C1795 1.377 . S
C1780 C1778 1.389 . S
C1780 C1781 1.524 . S
C1780 C1794 1.377 . S
C1781 C1780 1.524 . S
C1781 C1782 1.397 . S
C1781 C1786 1.363 . S
C1782 H1759 0.950 . S
C1782 C1781 1.397 . S
C1782 C1783 1.334 . S
C1783 H1760 0.950 . S
C1783 C1782 1.334 . S
C1783 C1784 1.287 . S
C1784 C1783 1.287 . S
C1784 C1785 1.524 . S
C1784 H1803 0.913 . S
C1785 H1761 0.950 . S
C1785 C1784 1.524 . S
C1785 C1786 1.415 . S
C1786 H1762 0.950 . S
C1786 C1781 1.363 . S
C1786 C1785 1.415 . S
C1787 H1763 0.951 . S
C1787 C1788 1.366 . S
C1787 C1789 1.388 . S
C1788 C1787 1.366 . S
C1788 C1792 1.385 . S
C1789 H1764 0.951 . S
C1789 C1787 1.388 . S
C1789 C1790 1.366 . S
C1790 C1789 1.366 . S
C1790 C1791 1.414 . S
C1790 C1793 1.499 . S
C1791 H1765 0.950 . S
C1791 C1790 1.414 . S
C1791 C1792 1.374 . S
C1792 H1766 0.950 . S
C1792 C1788 1.385 . S
C1792 C1791 1.374 . S
C1793 C1790 1.499 . S
C1793 C1794 1.373 . S
C1793 C1795 1.389 . S
C1794 H1767 0.950 . S
C1794 C1780 1.377 . S
C1794 C1793 1.373 . S
C1795 C1779 1.377 . S
C1795 C1793 1.389 . S
C1795 C1796 1.524 . S
C1796 C1795 1.524 . S
C1796 C1797 1.397 . S
C1796 C1801 1.363 . S
C1797 H1768 0.950 . S
C1797 C1796 1.397 . S
C1797 C1798 1.334 . S
C1798 H1769 0.950 . S
C1798 C1797 1.334 . S
C1798 C1799 1.287 . S
C1799 C1798 1.287 . S
C1799 C1800 1.524 . S
C1799 H1802 0.999 . S
C1800 H1770 0.950 . S
C1800 C1799 1.524 . S
C1800 C1801 1.415 . S
C1801 H1771 0.950 . S
C1801 C1796 1.363 . S
C1801 C1800 1.415 . S
H1802 C1799 0.999 . S
H1803 C1784 0.913 . S
H1804 C1822 0.951 . S
H1805 C1824 0.951 . S
H1806 C1826 0.950 . S
H1807 C1827 0.950 . S
H1808 C1829 0.950 . S
H1809 C1832 0.950 . S
H1810 C1833 0.950 . S
H1811 C1835 0.950 . S
H1812 C1836 0.950 . S
H1813 C1837 0.951 . S
H1814 C1839 0.951 . S
H1815 C1841 0.950 . S
H1816 C1842 0.950 . S
H1817 C1844 0.950 . S
H1818 C1847 0.950 . S
H1819 C1848 0.950 . S
H1820 C1850 0.950 . S
H1821 C1851 0.950 . S
C1822 H1804 0.951 . S
C1822 C1823 1.366 . S
C1822 C1824 1.388 . S
C1823 C1822 1.366 . S
C1823 C1827 1.385 . S
C1824 H1805 0.951 . S
C1824 C1822 1.388 . S
C1824 C1825 1.366 . S
C1825 C1824 1.366 . S
C1825 C1826 1.414 . S
C1825 C1828 1.499 . S
C1826 H1806 0.950 . S
C1826 C1825 1.414 . S
C1826 C1827 1.374 . S
C1827 H1807 0.950 . S
C1827 C1823 1.385 . S
C1827 C1826 1.374 . S
C1828 C1825 1.499 . S
C1828 C1829 1.373 . S
C1828 C1830 1.389 . S
C1829 H1808 0.950 . S
C1829 C1828 1.373 . S
C1829 C1845 1.377 . S
C1830 C1828 1.389 . S
C1830 C1831 1.524 . S
C1830 C1844 1.377 . S
C1831 C1830 1.524 . S
C1831 C1832 1.397 . S
C1831 C1836 1.363 . S
C1832 H1809 0.950 . S
C1832 C1831 1.397 . S
C1832 C1833 1.334 . S
C1833 H1810 0.950 . S
C1833 C1832 1.334 . S
C1833 C1834 1.287 . S
C1834 C1833 1.287 . S
C1834 C1835 1.524 . S
C1834 H1853 0.913 . S
C1835 H1811 0.950 . S
C1835 C1834 1.524 . S
C1835 C1836 1.415 . S
C1836 H1812 0.950 . S
C1836 C1831 1.363 . S
C1836 C1835 1.415 . S
C1837 H1813 0.951 . S
C1837 C1838 1.366 . S
C1837 C1839 1.388 . S
C1838 C1837 1.366 . S
C1838 C1842 1.385 . S
C1839 H1814 0.951 . S
C1839 C1837 1.388 . S
C1839 C1840 1.366 . S
C1840 C1839 1.366 . S
C1840 C1841 1.414 . S
C1840 C1843 1.499 . S
C1841 H1815 0.950 . S
C1841 C1840 1.414 . S
C1841 C1842 1.374 . S
C1842 H1816 0.950 . S
C1842 C1838 1.385 . S
C1842 C1841 1.374 . S
C1843 C1840 1.499 . S
C1843 C1844 1.373 . S
C1843 C1845 1.389 . S
C1844 H1817 0.950 . S
C1844 C1830 1.377 . S
C1844 C1843 1.373 . S
C1845 C1829 1.377 . S
C1845 C1843 1.389 . S
C1845 C1846 1.524 . S
C1846 C1845 1.524 . S
C1846 C1847 1.397 . S
C1846 C1851 1.363 . S
C1847 H1818 0.950 . S
C1847 C1846 1.397 . S
C1847 C1848 1.334 . S
C1848 H1819 0.950 . S
C1848 C1847 1.334 . S
C1848 C1849 1.287 . S
C1849 C1848 1.287 . S
C1849 C1850 1.524 . S
C1849 H1852 0.999 . S
C1850 H1820 0.950 . S
C1850 C1849 1.524 . S
C1850 C1851 1.415 . S
C1851 H1821 0.950 . S
C1851 C1846 1.363 . S
C1851 C1850 1.415 . S
H1852 C1849 0.999 . S
H1853 C1834 0.913 . S
H1854 C1872 0.951 . S
H1855 C1874 0.951 . S
H1856 C1876 0.950 . S
H1857 C1877 0.950 . S
H1858 C1879 0.950 . S
H1859 C1882 0.950 . S
H1860 C1883 0.950 . S
H1861 C1885 0.950 . S
H1862 C1886 0.950 . S
H1863 C1887 0.951 . S
H1864 C1889 0.951 . S
H1865 C1891 0.950 . S
H1866 C1892 0.950 . S
H1867 C1894 0.950 . S
H1868 C1897 0.950 . S
H1869 C1898 0.950 . S
H1870 C1900 0.950 . S
H1871 C1901 0.950 . S
C1872 H1854 0.951 . S
C1872 C1873 1.366 . S
C1872 C1874 1.388 . S
C1873 C1872 1.366 . S
C1873 C1877 1.385 . S
C1874 H1855 0.951 . S
C1874 C1872 1.388 . S
C1874 C1875 1.366 . S
C1875 C1874 1.366 . S
C1875 C1876 1.414 . S
C1875 C1878 1.499 . S
C1876 H1856 0.950 . S
C1876 C1875 1.414 . S
C1876 C1877 1.374 . S
C1877 H1857 0.950 . S
C1877 C1873 1.385 . S
C1877 C1876 1.374 . S
C1878 C1875 1.499 . S
C1878 C1879 1.373 . S
C1878 C1880 1.389 . S
C1879 H1858 0.950 . S
C1879 C1878 1.373 . S
C1879 C1895 1.377 . S
C1880 C1878 1.389 . S
C1880 C1881 1.524 . S
C1880 C1894 1.377 . S
C1881 C1880 1.524 . S
C1881 C1882 1.397 . S
C1881 C1886 1.363 . S
C1882 H1859 0.950 . S
C1882 C1881 1.397 . S
C1882 C1883 1.334 . S
C1883 H1860 0.950 . S
C1883 C1882 1.334 . S
C1883 C1884 1.287 . S
C1884 C1883 1.287 . S
C1884 C1885 1.524 . S
C1884 H1903 0.913 . S
C1885 H1861 0.950 . S
C1885 C1884 1.524 . S
C1885 C1886 1.415 . S
C1886 H1862 0.950 . S
C1886 C1881 1.363 . S
C1886 C1885 1.415 . S
C1887 H1863 0.951 . S
C1887 C1888 1.366 . S
C1887 C1889 1.388 . S
C1888 C1887 1.366 . S
C1888 C1892 1.385 . S
C1889 H1864 0.951 . S
C1889 C1887 1.388 . S
C1889 C1890 1.366 . S
C1890 C1889 1.366 . S
C1890 C1891 1.414 . S
C1890 C1893 1.499 . S
C1891 H1865 0.950 . S
C1891 C1890 1.414 . S
C1891 C1892 1.374 . S
C1892 H1866 0.950 . S
C1892 C1888 1.385 . S
C1892 C1891 1.374 . S
C1893 C1890 1.499 . S
C1893 C1894 1.373 . S
C1893 C1895 1.389 . S
C1894 H1867 0.950 . S
C1894 C1880 1.377 . S
C1894 C1893 1.373 . S
C1895 C1879 1.377 . S
C1895 C1893 1.389 . S
C1895 C1896 1.524 . S
C1896 C1895 1.524 . S
C1896 C1897 1.397 . S
C1896 C1901 1.363 . S
C1897 H1868 0.950 . S
C1897 C1896 1.397 . S
C1897 C1898 1.334 . S
C1898 H1869 0.950 . S
C1898 C1897 1.334 . S
C1898 C1899 1.287 . S
C1899 C1898 1.287 . S
C1899 C1900 1.524 . S
C1899 H1902 0.999 . S
C1900 H1870 0.950 . S
C1900 C1899 1.524 . S
C1900 C1901 1.415 . S
C1901 H1871 0.950 . S
C1901 C1896 1.363 . S
C1901 C1900 1.415 . S
H1902 C1899 0.999 . S
H1903 C1884 0.913 . S
H1904 C1922 0.951 . S
H1905 C1924 0.951 . S
H1906 C1926 0.950 . S
H1907 C1927 0.950 . S
H1908 C1929 0.950 . S
H1909 C1932 0.950 . S
H1910 C1933 0.950 . S
H1911 C1935 0.950 . S
H1912 C1936 0.950 . S
H1913 C1937 0.951 . S
H1914 C1939 0.951 . S
H1915 C1941 0.950 . S
H1916 C1942 0.950 . S
H1917 C1944 0.950 . S
H1918 C1947 0.950 . S
H1919 C1948 0.950 . S
H1920 C1950 0.950 . S
H1921 C1951 0.950 . S
C1922 H1904 0.951 . S
C1922 C1923 1.366 . S
C1922 C1924 1.388 . S
C1923 C1922 1.366 . S
C1923 C1927 1.385 . S
C1924 H1905 0.951 . S
C1924 C1922 1.388 . S
C1924 C1925 1.366 . S
C1925 C1924 1.366 . S
C1925 C1926 1.414 . S
C1925 C1928 1.499 . S
C1926 H1906 0.950 . S
C1926 C1925 1.414 . S
C1926 C1927 1.374 . S
C1927 H1907 0.950 . S
C1927 C1923 1.385 . S
C1927 C1926 1.374 . S
C1928 C1925 1.499 . S
C1928 C1929 1.373 . S
C1928 C1930 1.389 . S
C1929 H1908 0.950 . S
C1929 C1928 1.373 . S
C1929 C1945 1.377 . S
C1930 C1928 1.389 . S
C1930 C1931 1.524 . S
C1930 C1944 1.377 . S
C1931 C1930 1.524 . S
C1931 C1932 1.397 . S
C1931 C1936 1.363 . S
C1932 H1909 0.950 . S
C1932 C1931 1.397 . S
C1932 C1933 1.334 . S
C1933 H1910 0.950 . S
C1933 C1932 1.334 . S
C1933 C1934 1.287 . S
C1934 C1933 1.287 . S
C1934 C1935 1.524 . S
C1934 H1953 0.913 . S
C1935 H1911 0.950 . S
C1935 C1934 1.524 . S
C1935 C1936 1.415 . S
C1936 H1912 0.950 . S
C1936 C1931 1.363 . S
C1936 C1935 1.415 . S
C1937 H1913 0.951 . S
C1937 C1938 1.366 . S
C1937 C1939 1.388 . S
C1938 C1937 1.366 . S
C1938 C1942 1.385 . S
C1939 H1914 0.951 . S
C1939 C1937 1.388 . S
C1939 C1940 1.366 . S
C1940 C1939 1.366 . S
C1940 C1941 1.414 . S
C1940 C1943 1.499 . S
C1941 H1915 0.950 . S
C1941 C1940 1.414 . S
C1941 C1942 1.374 . S
C1942 H1916 0.950 . S
C1942 C1938 1.385 . S
C1942 C1941 1.374 . S
C1943 C1940 1.499 . S
C1943 C1944 1.373 . S
C1943 C1945 1.389 . S
C1944 H1917 0.950 . S
C1944 C1930 1.377 . S
C1944 C1943 1.373 . S
C1945 C1929 1.377 . S
C1945 C1943 1.389 . S
C1945 C1946 1.524 . S
C1946 C1945 1.524 . S
C1946 C1947 1.397 . S
C1946 C1951 1.363 . S
C1947 H1918 0.950 . S
C1947 C1946 1.397 . S
C1947 C1948 1.334 . S
C1948 H1919 0.950 . S
C1948 C1947 1.334 . S
C1948 C1949 1.287 . S
C1949 C1948 1.287 . S
C1949 C1950 1.524 . S
C1949 H1952 0.999 . S
C1950 H1920 0.950 . S
C1950 C1949 1.524 . S
C1950 C1951 1.415 . S
C1951 H1921 0.950 . S
C1951 C1946 1.363 . S
C1951 C1950 1.415 . S
H1952 C1949 0.999 . S
H1953 C1934 0.913 . S
H1954 C1972 0.951 . S
H1955 C1974 0.951 . S
H1956 C1976 0.950 . S
H1957 C1977 0.950 . S
H1958 C1979 0.950 . S
H1959 C1982 0.950 . S
H1960 C1983 0.950 . S
H1961 C1985 0.950 . S
H1962 C1986 0.950 . S
H1963 C1987 0.951 . S
H1964 C1989 0.951 . S
H1965 C1991 0.950 . S
H1966 C1992 0.950 . S
H1967 C1994 0.950 . S
H1968 C1997 0.950 . S
H1969 C1998 0.950 . S
H1970 C2000 0.950 . S
H1971 C2001 0.950 . S
C1972 H1954 0.951 . S
C1972 C1973 1.366 . S
C1972 C1974 1.388 . S
C1973 C1972 1.366 . S
C1973 C1977 1.385 . S
C1974 H1955 0.951 . S
C1974 C1972 1.388 . S
C1974 C1975 1.366 . S
C1975 C1974 1.366 . S
C1975 C1976 1.414 . S
C1975 C1978 1.499 . S
C1976 H1956 0.950 . S
C1976 C1975 1.414 . S
C1976 C1977 1.374 . S
C1977 H1957 0.950 . S
C1977 C1973 1.385 . S
C1977 C1976 1.374 . S
C1978 C1975 1.499 . S
C1978 C1979 1.373 . S
C1978 C1980 1.389 . S
C1979 H1958 0.950 . S
C1979 C1978 1.373 . S
C1979 C1995 1.377 . S
C1980 C1978 1.389 . S
C1980 C1981 1.524 . S
C1980 C1994 1.377 . S
C1981 C1980 1.524 . S
C1981 C1982 1.397 . S
C1981 C1986 1.363 . S
C1982 H1959 0.950 . S
C1982 C1981 1.397 . S
C1982 C1983 1.334 . S
C1983 H1960 0.950 . S
C1983 C1982 1.334 . S
C1983 C1984 1.287 . S
C1984 C1983 1.287 . S
C1984 C1985 1.524 . S
C1984 H2003 0.913 . S
C1985 H1961 0.950 . S
C1985 C1984 1.524 . S
C1985 C1986 1.415 . S
C1986 H1962 0.950 . S
C1986 C1981 1.363 . S
C1986 C1985 1.415 . S
C1987 H1963 0.951 . S
C1987 C1988 1.366 . S
C1987 C1989 1.388 . S
C1988 C1987 1.366 . S
C1988 C1992 1.385 . S
C1989 H1964 0.951 . S
C1989 C1987 1.388 . S
C1989 C1990 1.366 . S
C1990 C1989 1.366 . S
C1990 C1991 1.414 . S
C1990 C1993 1.499 . S
C1991 H1965 0.950 . S
C1991 C1990 1.414 . S
C1991 C1992 1.374 . S
C1992 H1966 0.950 . S
C1992 C1988 1.385 . S
C1992 C1991 1.374 . S
C1993 C1990 1.499 . S
C1993 C1994 1.373 . S
C1993 C1995 1.389 . S
C1994 H1967 0.950 . S
C1994 C1980 1.377 . S
C1994 C1993 1.373 . S
C1995 C1979 1.377 . S
C1995 C1993 1.389 . S
C1995 C1996 1.524 . S
C1996 C1995 1.524 . S
C1996 C1997 1.397 . S
C1996 C2001 1.363 . S
C1997 H1968 0.950 . S
C1997 C1996 1.397 . S
C1997 C1998 1.334 . S
C1998 H1969 0.950 . S
C1998 C1997 1.334 . S
C1998 C1999 1.287 . S
C1999 C1998 1.287 . S
C1999 C2000 1.524 . S
C1999 H2002 0.999 . S
C2000 H1970 0.950 . S
C2000 C1999 1.524 . S
C2000 C2001 1.415 . S
C2001 H1971 0.950 . S
C2001 C1996 1.363 . S
C2001 C2000 1.415 . S
H2002 C1999 0.999 . S
H2003 C1984 0.913 . S
H2004 C2022 0.951 . S
H2005 C2024 0.951 . S
H2006 C2026 0.950 . S
H2007 C2027 0.950 . S
H2008 C2029 0.950 . S
H2009 C2032 0.950 . S
H2010 C2033 0.950 . S
H2011 C2035 0.950 . S
H2012 C2036 0.950 . S
H2013 C2037 0.951 . S
H2014 C2039 0.951 . S
H2015 C2041 0.950 . S
H2016 C2042 0.950 . S
H2017 C2044 0.950 . S
H2018 C2047 0.950 . S
H2019 C2048 0.950 . S
H2020 C2050 0.950 . S
H2021 C2051 0.950 . S
C2022 H2004 0.951 . S
C2022 C2023 1.366 . S
C2022 C2024 1.388 . S
C2023 C2022 1.366 . S
C2023 C2027 1.385 . S
C2024 H2005 0.951 . S
C2024 C2022 1.388 . S
C2024 C2025 1.366 . S
C2025 C2024 1.366 . S
C2025 C2026 1.414 . S
C2025 C2028 1.499 . S
C2026 H2006 0.950 . S
C2026 C2025 1.414 . S
C2026 C2027 1.374 . S
C2027 H2007 0.950 . S
C2027 C2023 1.385 . S
C2027 C2026 1.374 . S
C2028 C2025 1.499 . S
C2028 C2029 1.373 . S
C2028 C2030 1.389 . S
C2029 H2008 0.950 . S
C2029 C2028 1.373 . S
C2029 C2045 1.377 . S
C2030 C2028 1.389 . S
C2030 C2031 1.524 . S
C2030 C2044 1.377 . S
C2031 C2030 1.524 . S
C2031 C2032 1.397 . S
C2031 C2036 1.363 . S
C2032 H2009 0.950 . S
C2032 C2031 1.397 . S
C2032 C2033 1.334 . S
C2033 H2010 0.950 . S
C2033 C2032 1.334 . S
C2033 C2034 1.287 . S
C2034 C2033 1.287 . S
C2034 C2035 1.524 . S
C2034 H2053 0.913 . S
C2035 H2011 0.950 . S
C2035 C2034 1.524 . S
C2035 C2036 1.415 . S
C2036 H2012 0.950 . S
C2036 C2031 1.363 . S
C2036 C2035 1.415 . S
C2037 H2013 0.951 . S
C2037 C2038 1.366 . S
C2037 C2039 1.388 . S
C2038 C2037 1.366 . S
C2038 C2042 1.385 . S
C2039 H2014 0.951 . S
C2039 C2037 1.388 . S
C2039 C2040 1.366 . S
C2040 C2039 1.366 . S
C2040 C2041 1.414 . S
C2040 C2043 1.499 . S
C2041 H2015 0.950 . S
C2041 C2040 1.414 . S
C2041 C2042 1.374 . S
C2042 H2016 0.950 . S
C2042 C2038 1.385 . S
C2042 C2041 1.374 . S
C2043 C2040 1.499 . S
C2043 C2044 1.373 . S
C2043 C2045 1.389 . S
C2044 H2017 0.950 . S
C2044 C2030 1.377 . S
C2044 C2043 1.373 . S
C2045 C2029 1.377 . S
C2045 C2043 1.389 . S
C2045 C2046 1.524 . S
C2046 C2045 1.524 . S
C2046 C2047 1.397 . S
C2046 C2051 1.363 . S
C2047 H2018 0.950 . S
C2047 C2046 1.397 . S
C2047 C2048 1.334 . S
C2048 H2019 0.950 . S
C2048 C2047 1.334 . S
C2048 C2049 1.287 . S
C2049 C2048 1.287 . S
C2049 C2050 1.524 . S
C2049 H2052 0.999 . S
C2050 H2020 0.950 . S
C2050 C2049 1.524 . S
C2050 C2051 1.415 . S
C2051 H2021 0.950 . S
C2051 C2046 1.363 . S
C2051 C2050 1.415 . S
H2052 C2049 0.999 . S
H2053 C2034 0.913 . S
H2054 C2072 0.951 . S
H2055 C2074 0.951 . S
H2056 C2076 0.950 . S
H2057 C2077 0.950 . S
H2058 C2079 0.950 . S
H2059 C2082 0.950 . S
H2060 C2083 0.950 . S
H2061 C2085 0.950 . S
H2062 C2086 0.950 . S
H2063 C2087 0.951 . S
H2064 C2089 0.951 . S
H2065 C2091 0.950 . S
H2066 C2092 0.950 . S
H2067 C2094 0.950 . S
H2068 C2097 0.950 . S
H2069 C2098 0.950 . S
H2070 C2100 0.950 . S
H2071 C2101 0.950 . S
C2072 H2054 0.951 . S
C2072 C2073 1.366 . S
C2072 C2074 1.388 . S
C2073 C2072 1.366 . S
C2073 C2077 1.385 . S
C2074 H2055 0.951 . S
C2074 C2072 1.388 . S
C2074 C2075 1.366 . S
C2075 C2074 1.366 . S
C2075 C2076 1.414 . S
C2075 C2078 1.499 . S
C2076 H2056 0.950 . S
C2076 C2075 1.414 . S
C2076 C2077 1.374 . S
C2077 H2057 0.950 . S
C2077 C2073 1.385 . S
C2077 C2076 1.374 . S
C2078 C2075 1.499 . S
C2078 C2079 1.373 . S
C2078 C2080 1.389 . S
C2079 H2058 0.950 . S
C2079 C2078 1.373 . S
C2079 C2095 1.377 . S
C2080 C2078 1.389 . S
C2080 C2081 1.524 . S
C2080 C2094 1.377 . S
C2081 C2080 1.524 . S
C2081 C2082 1.397 . S
C2081 C2086 1.363 . S
C2082 H2059 0.950 . S
C2082 C2081 1.397 . S
C2082 C2083 1.334 . S
C2083 H2060 0.950 . S
C2083 C2082 1.334 . S
C2083 C2084 1.287 . S
C2084 C2083 1.287 . S
C2084 C2085 1.524 . S
C2084 H2103 0.913 . S
C2085 H2061 0.950 . S
C2085 C2084 1.524 . S
C2085 C2086 1.415 . S
C2086 H2062 0.950 . S
C2086 C2081 1.363 . S
C2086 C2085 1.415 . S
C2087 H2063 0.951 . S
C2087 C2088 1.366 . S
C2087 C2089 1.388 . S
C2088 C2087 1.366 . S
C2088 C2092 1.385 . S
C2089 H2064 0.951 . S
C2089 C2087 1.388 . S
C2089 C2090 1.366 . S
C2090 C2089 1.366 . S
C2090 C2091 1.414 . S
C2090 C2093 1.499 . S
C2091 H2065 0.950 . S
C2091 C2090 1.414 . S
C2091 C2092 1.374 . S
C2092 H2066 0.950 . S
C2092 C2088 1.385 . S
C2092 C2091 1.374 . S
C2093 C2090 1.499 . S
C2093 C2094 1.373 . S
C2093 C2095 1.389 . S
C2094 H2067 0.950 . S
C2094 C2080 1.377 . S
C2094 C2093 1.373 . S
C2095 C2079 1.377 . S
C2095 C2093 1.389 . S
C2095 C2096 1.524 . S
C2096 C2095 1.524 . S
C2096 C2097 1.397 . S
C2096 C2101 1.363 . S
C2097 H2068 0.950 . S
C2097 C2096 1.397 . S
C2097 C2098 1.334 . S
C2098 H2069 0.950 . S
C2098 C2097 1.334 . S
C2098 C2099 1.287 . S
C2099 C2098 1.287 . S
C2099 C2100 1.524 . S
C2099 H2102 0.999 . S
C2100 H2070 0.950 . S
C2100 C2099 1.524 . S
C2100 C2101 1.415 . S
C2101 H2071 0.950 . S
C2101 C2096 1.363 . S
C2101 C2100 1.415 . S
H2102 C2099 0.999 . S
H2103 C2084 0.913 . S
H2104 C2122 0.951 . S
H2105 C2124 0.951 . S
H2106 C2126 0.950 . S
H2107 C2127 0.950 . S
H2108 C2129 0.950 . S
H2109 C2132 0.950 . S
H2110 C2133 0.950 . S
H2111 C2135 0.950 . S
H2112 C2136 0.950 . S
H2113 C2137 0.951 . S
H2114 C2139 0.951 . S
H2115 C2141 0.950 . S
H2116 C2142 0.950 . S
H2117 C2144 0.950 . S
H2118 C2147 0.950 . S
H2119 C2148 0.950 . S
H2120 C2150 0.950 . S
H2121 C2151 0.950 . S
C2122 H2104 0.951 . S
C2122 C2123 1.366 . S
C2122 C2124 1.388 . S
C2123 C2122 1.366 . S
C2123 C2127 1.385 . S
C2124 H2105 0.951 . S
C2124 C2122 1.388 . S
C2124 C2125 1.366 . S
C2125 C2124 1.366 . S
C2125 C2126 1.414 . S
C2125 C2128 1.499 . S
C2126 H2106 0.950 . S
C2126 C2125 1.414 . S
C2126 C2127 1.374 . S
C2127 H2107 0.950 . S
C2127 C2123 1.385 . S
C2127 C2126 1.374 . S
C2128 C2125 1.499 . S
C2128 C2129 1.373 . S
C2128 C2130 1.389 . S
C2129 H2108 0.950 . S
C2129 C2128 1.373 . S
C2129 C2145 1.377 . S
C2130 C2128 1.389 . S
C2130 C2131 1.524 . S
C2130 C2144 1.377 . S
C2131 C2130 1.524 . S
C2131 C2132 1.397 . S
C2131 C2136 1.363 . S
C2132 H2109 0.950 . S
C2132 C2131 1.397 . S
C2132 C2133 1.334 . S
C2133 H2110 0.950 . S
C2133 C2132 1.334 . S
C2133 C2134 1.287 . S
C2134 C2133 1.287 . S
C2134 C2135 1.524 . S
C2134 H2153 0.913 . S
C2135 H2111 0.950 . S
C2135 C2134 1.524 . S
C2135 C2136 1.415 . S
C2136 H2112 0.950 . S
C2136 C2131 1.363 . S
C2136 C2135 1.415 . S
C2137 H2113 0.951 . S
C2137 C2138 1.366 . S
C2137 C2139 1.388 . S
C2138 C2137 1.366 . S
C2138 C2142 1.385 . S
C2139 H2114 0.951 . S
C2139 C2137 1.388 . S
C2139 C2140 1.366 . S
C2140 C2139 1.366 . S
C2140 C2141 1.414 . S
C2140 C2143 1.499 . S
C2141 H2115 0.950 . S
C2141 C2140 1.414 . S
C2141 C2142 1.374 . S
C2142 H2116 0.950 . S
C2142 C2138 1.385 . S
C2142 C2141 1.374 . S
C2143 C2140 1.499 . S
C2143 C2144 1.373 . S
C2143 C2145 1.389 . S
C2144 H2117 0.950 . S
C2144 C2130 1.377 . S
C2144 C2143 1.373 . S
C2145 C2129 1.377 . S
C2145 C2143 1.389 . S
C2145 C2146 1.524 . S
C2146 C2145 1.524 . S
C2146 C2147 1.397 . S
C2146 C2151 1.363 . S
C2147 H2118 0.950 . S
C2147 C2146 1.397 . S
C2147 C2148 1.334 . S
C2148 H2119 0.950 . S
C2148 C2147 1.334 . S
C2148 C2149 1.287 . S
C2149 C2148 1.287 . S
C2149 C2150 1.524 . S
C2149 H2152 0.999 . S
C2150 H2120 0.950 . S
C2150 C2149 1.524 . S
C2150 C2151 1.415 . S
C2151 H2121 0.950 . S
C2151 C2146 1.363 . S
C2151 C2150 1.415 . S
H2152 C2149 0.999 . S
H2153 C2134 0.913 . S
H2154 C2172 0.951 . S
H2155 C2174 0.951 . S
H2156 C2176 0.950 . S
H2157 C2177 0.950 . S
H2158 C2179 0.950 . S
H2159 C2182 0.950 . S
H2160 C2183 0.950 . S
H2161 C2185 0.950 . S
H2162 C2186 0.950 . S
H2163 C2187 0.951 . S
H2164 C2189 0.951 . S
H2165 C2191 0.950 . S
H2166 C2192 0.950 . S
H2167 C2194 0.950 . S
H2168 C2197 0.950 . S
H2169 C2198 0.950 . S
H2170 C2200 0.950 . S
H2171 C2201 0.950 . S
C2172 H2154 0.951 . S
C2172 C2173 1.366 . S
C2172 C2174 1.388 . S
C2173 C2172 1.366 . S
C2173 C2177 1.385 . S
C2174 H2155 0.951 . S
C2174 C2172 1.388 . S
C2174 C2175 1.366 . S
C2175 C2174 1.366 . S
C2175 C2176 1.414 . S
C2175 C2178 1.499 . S
C2176 H2156 0.950 . S
C2176 C2175 1.414 . S
C2176 C2177 1.374 . S
C2177 H2157 0.950 . S
C2177 C2173 1.385 . S
C2177 C2176 1.374 . S
C2178 C2175 1.499 . S
C2178 C2179 1.373 . S
C2178 C2180 1.389 . S
C2179 H2158 0.950 . S
C2179 C2178 1.373 . S
C2179 C2195 1.377 . S
C2180 C2178 1.389 . S
C2180 C2181 1.524 . S
C2180 C2194 1.377 . S
C2181 C2180 1.524 . S
C2181 C2182 1.397 . S
C2181 C2186 1.363 . S
C2182 H2159 0.950 . S
C2182 C2181 1.397 . S
C2182 C2183 1.334 . S
C2183 H2160 0.950 . S
C2183 C2182 1.334 . S
C2183 C2184 1.287 . S
C2184 C2183 1.287 . S
C2184 C2185 1.524 . S
C2184 H2203 0.913 . S
C2185 H2161 0.950 . S
C2185 C2184 1.524 . S
C2185 C2186 1.415 . S
C2186 H2162 0.950 . S
C2186 C2181 1.363 . S
C2186 C2185 1.415 . S
C2187 H2163 0.951 . S
C2187 C2188 1.366 . S
C2187 C2189 1.388 . S
C2188 C2187 1.366 . S
C2188 C2192 1.385 . S
C2189 H2164 0.951 . S
C2189 C2187 1.388 . S
C2189 C2190 1.366 . S
C2190 C2189 1.366 . S
C2190 C2191 1.414 . S
C2190 C2193 1.499 . S
C2191 H2165 0.950 . S
C2191 C2190 1.414 . S
C2191 C2192 1.374 . S
C2192 H2166 0.950 . S
C2192 C2188 1.385 . S
C2192 C2191 1.374 . S
C2193 C2190 1.499 . S
C2193 C2194 1.373 . S
C2193 C2195 1.389 . S
C2194 H2167 0.950 . S
C2194 C2180 1.377 . S
C2194 C2193 1.373 . S
C2195 C2179 1.377 . S
C2195 C2193 1.389 . S
C2195 C2196 1.524 . S
C2196 C2195 1.524 . S
C2196 C2197 1.397 . S
C2196 C2201 1.363 . S
C2197 H2168 0.950 . S
C2197 C2196 1.397 . S
C2197 C2198 1.334 . S
C2198 H2169 0.950 . S
C2198 C2197 1.334 . S
C2198 C2199 1.287 . S
C2199 C2198 1.287 . S
C2199 C2200 1.524 . S
C2199 H2202 0.999 . S
C2200 H2170 0.950 . S
C2200 C2199 1.524 . S
C2200 C2201 1.415 . S
C2201 H2171 0.950 . S
C2201 C2196 1.363 . S
C2201 C2200 1.415 . S
H2202 C2199 0.999 . S
H2203 C2184 0.913 . S
H2204 C2222 0.951 . S
H2205 C2224 0.951 . S
H2206 C2226 0.950 . S
H2207 C2227 0.950 . S
H2208 C2229 0.950 . S
H2209 C2232 0.950 . S
H2210 C2233 0.950 . S
H2211 C2235 0.950 . S
H2212 C2236 0.950 . S
H2213 C2237 0.951 . S
H2214 C2239 0.951 . S
H2215 C2241 0.950 . S
H2216 C2242 0.950 . S
H2217 C2244 0.950 . S
H2218 C2247 0.950 . S
H2219 C2248 0.950 . S
H2220 C2250 0.950 . S
H2221 C2251 0.950 . S
C2222 H2204 0.951 . S
C2222 C2223 1.366 . S
C2222 C2224 1.388 . S
C2223 C2222 1.366 . S
C2223 C2227 1.385 . S
C2224 H2205 0.951 . S
C2224 C2222 1.388 . S
C2224 C2225 1.366 . S
C2225 C2224 1.366 . S
C2225 C2226 1.414 . S
C2225 C2228 1.499 . S
C2226 H2206 0.950 . S
C2226 C2225 1.414 . S
C2226 C2227 1.374 . S
C2227 H2207 0.950 . S
C2227 C2223 1.385 . S
C2227 C2226 1.374 . S
C2228 C2225 1.499 . S
C2228 C2229 1.373 . S
C2228 C2230 1.389 . S
C2229 H2208 0.950 . S
C2229 C2228 1.373 . S
C2229 C2245 1.377 . S
C2230 C2228 1.389 . S
C2230 C2231 1.524 . S
C2230 C2244 1.377 . S
C2231 C2230 1.524 . S
C2231 C2232 1.397 . S
C2231 C2236 1.363 . S
C2232 H2209 0.950 . S
C2232 C2231 1.397 . S
C2232 C2233 1.334 . S
C2233 H2210 0.950 . S
C2233 C2232 1.334 . S
C2233 C2234 1.287 . S
C2234 C2233 1.287 . S
C2234 C2235 1.524 . S
C2234 H2253 0.913 . S
C2235 H2211 0.950 . S
C2235 C2234 1.524 . S
C2235 C2236 1.415 . S
C2236 H2212 0.950 . S
C2236 C2231 1.363 . S
C2236 C2235 1.415 . S
C2237 H2213 0.951 . S
C2237 C2238 1.366 . S
C2237 C2239 1.388 . S
C2238 C2237 1.366 . S
C2238 C2242 1.385 . S
C2239 H2214 0.951 . S
C2239 C2237 1.388 . S
C2239 C2240 1.366 . S
C2240 C2239 1.366 . S
C2240 C2241 1.414 . S
C2240 C2243 1.499 . S
C2241 H2215 0.950 . S
C2241 C2240 1.414 . S
C2241 C2242 1.374 . S
C2242 H2216 0.950 . S
C2242 C2238 1.385 . S
C2242 C2241 1.374 . S
C2243 C2240 1.499 . S
C2243 C2244 1.373 . S
C2243 C2245 1.389 . S
C2244 H2217 0.950 . S
C2244 C2230 1.377 . S
C2244 C2243 1.373 . S
C2245 C2229 1.377 . S
C2245 C2243 1.389 . S
C2245 C2246 1.524 . S
C2246 C2245 1.524 . S
C2246 C2247 1.397 . S
C2246 C2251 1.363 . S
C2247 H2218 0.950 . S
C2247 C2246 1.397 . S
C2247 C2248 1.334 . S
C2248 H2219 0.950 . S
C2248 C2247 1.334 . S
C2248 C2249 1.287 . S
C2249 C2248 1.287 . S
C2249 C2250 1.524 . S
C2249 H2252 0.999 . S
C2250 H2220 0.950 . S
C2250 C2249 1.524 . S
C2250 C2251 1.415 . S
C2251 H2221 0.950 . S
C2251 C2246 1.363 . S
C2251 C2250 1.415 . S
H2252 C2249 0.999 . S
H2253 C2234 0.913 . S
H2254 C2272 0.951 . S
H2255 C2274 0.951 . S
H2256 C2276 0.950 . S
H2257 C2277 0.950 . S
H2258 C2279 0.950 . S
H2259 C2282 0.950 . S
H2260 C2283 0.950 . S
H2261 C2285 0.950 . S
H2262 C2286 0.950 . S
H2263 C2287 0.951 . S
H2264 C2289 0.951 . S
H2265 C2291 0.950 . S
H2266 C2292 0.950 . S
H2267 C2294 0.950 . S
H2268 C2297 0.950 . S
H2269 C2298 0.950 . S
H2270 C2300 0.950 . S
H2271 C2301 0.950 . S
C2272 H2254 0.951 . S
C2272 C2273 1.366 . S
C2272 C2274 1.388 . S
C2273 C2272 1.366 . S
C2273 C2277 1.385 . S
C2274 H2255 0.951 . S
C2274 C2272 1.388 . S
C2274 C2275 1.366 . S
C2275 C2274 1.366 . S
C2275 C2276 1.414 . S
C2275 C2278 1.499 . S
C2276 H2256 0.950 . S
C2276 C2275 1.414 . S
C2276 C2277 1.374 . S
C2277 H2257 0.950 . S
C2277 C2273 1.385 . S
C2277 C2276 1.374 . S
C2278 C2275 1.499 . S
C2278 C2279 1.373 . S
C2278 C2280 1.389 . S
C2279 H2258 0.950 . S
C2279 C2278 1.373 . S
C2279 C2295 1.377 1_556 S
C2280 C2278 1.389 . S
C2280 C2281 1.524 . S
C2280 C2294 1.377 . S
C2281 C2280 1.524 . S
C2281 C2282 1.397 . S
C2281 C2286 1.363 . S
C2282 H2259 0.950 . S
C2282 C2281 1.397 . S
C2282 C2283 1.334 . S
C2283 H2260 0.950 . S
C2283 C2282 1.334 . S
C2283 C2284 1.287 . S
C2284 C2283 1.287 . S
C2284 C2285 1.524 . S
C2284 H2303 0.913 . S
C2285 H2261 0.950 . S
C2285 C2284 1.524 . S
C2285 C2286 1.415 . S
C2286 H2262 0.950 . S
C2286 C2281 1.363 . S
C2286 C2285 1.415 . S
C2287 H2263 0.951 . S
C2287 C2288 1.366 . S
C2287 C2289 1.388 . S
C2288 C2287 1.366 . S
C2288 C2292 1.385 . S
C2289 H2264 0.951 . S
C2289 C2287 1.388 . S
C2289 C2290 1.366 . S
C2290 C2289 1.366 . S
C2290 C2291 1.414 . S
C2290 C2293 1.499 . S
C2291 H2265 0.950 . S
C2291 C2290 1.414 . S
C2291 C2292 1.374 . S
C2292 H2266 0.950 . S
C2292 C2288 1.385 . S
C2292 C2291 1.374 . S
C2293 C2290 1.499 . S
C2293 C2294 1.373 1_554 S
C2293 C2295 1.389 . S
C2294 H2267 0.950 . S
C2294 C2280 1.377 . S
C2294 C2293 1.373 1_556 S
C2295 C2279 1.377 1_554 S
C2295 C2293 1.389 . S
C2295 C2296 1.524 . S
C2296 C2295 1.524 . S
C2296 C2297 1.397 . S
C2296 C2301 1.363 . S
C2297 H2268 0.950 . S
C2297 C2296 1.397 . S
C2297 C2298 1.334 . S
C2298 H2269 0.950 . S
C2298 C2297 1.334 . S
C2298 C2299 1.287 . S
C2299 C2298 1.287 . S
C2299 C2300 1.524 . S
C2299 H2302 0.999 . S
C2300 H2270 0.950 . S
C2300 C2299 1.524 . S
C2300 C2301 1.415 . S
C2301 H2271 0.950 . S
C2301 C2296 1.363 . S
C2301 C2300 1.415 . S
H2302 C2299 0.999 . S
H2303 C2284 0.913 . S
C738 C593 1.660 . S
C723 C39 1.624 . S
C788 C619 1.665 . S
C773 C125 1.661 . S
C838 C633 2.263 1_655 S
C823 C217 2.198 . S
C888 C635 1.922 . S
C873 C261 1.842 . S
C923 C359 1.457 . S
C938 C632 1.475 . S
C988 C634 1.441 . S
C973 C433 1.357 . S
C1038 C592 1.506 . S
C1023 C495 1.526 . S
C1088 C618 1.701 . S
C1073 C587 1.711 . S
C1138 C620 1.736 1_655 S
C1123 C557 1.763 . S
C1188 C646 1.070 . S
C1173 C347 1.077 . S
C1238 C604 1.035 . S
C1223 C421 1.037 . S
C1288 C606 1.653 . S
C1273 C507 1.626 . S
C1338 C605 1.498 . S
C1323 C137 1.492 . S
C1388 C607 1.552 . S
C1373 C187 1.524 . S
C1438 C621 2.692 . S
C1423 C291 2.653 . S
C1488 C647 2.159 . S
C1473 C69 2.165 . S
C1538 C649 1.450 . S
C1523 C581 1.453 . S
C1573 C365 2.124 . S
C1588 C675 2.104 . S
C1623 C439 2.560 . S
C1638 C688 2.551 . S
C1673 C483 1.488 . S
C1688 C691 1.510 . S
C1723 C113 1.777 . S
C1738 C689 1.792 . S
C1773 C211 1.633 . S
C1788 C690 1.671 . S
C1823 C273 1.216 . S
C1838 C648 1.248 . S
C1888 C674 1.103 . S
C1873 C51 1.102 . S
C1938 C677 1.550 . S
C1923 C63 1.515 . S
C1973 C143 1.745 . S
C1988 C702 1.740 . S
C2023 C199 1.729 . S
C2038 C660 1.736 . S
C2073 C285 1.334 . S
C2088 C662 1.401 . S
C2138 C661 1.604 . S
C2123 C335 1.588 . S
C2188 C663 1.967 . S
C2173 C409 1.874 . S
C2223 C513 2.081 . S
C2238 C676 2.081 1_556 S
C2288 C703 1.646 . S
C2273 C569 1.651 . S
