# Generated by pormake.
# Topology anh, (6,3)-cn, num edge types: 1
# Building blocks:
#     Node 0, Type 0, BuildingBlock: BETFAJ_clean_sbu_0, # of connection points: 6
#     Node 1, Type 0, BuildingBlock: BETFAJ_clean_sbu_0, # of connection points: 6
#     Node 2, Type 0, BuildingBlock: BETFAJ_clean_sbu_0, # of connection points: 6
#     Node 3, Type 1, BuildingBlock: MIDCAF_clean_linker_0, # of connection points: 3
#     Node 4, Type 1, BuildingBlock: MIDCAF_clean_linker_0, # of connection points: 3
#     Node 5, Type 1, BuildingBlock: MIDCAF_clean_linker_0, # of connection points: 3
#     Node 6, Type 1, BuildingBlock: MIDCAF_clean_linker_0, # of connection points: 3
#     Node 7, Type 1, BuildingBlock: MIDCAF_clean_linker_0, # of connection points: 3
#     Node 8, Type 1, BuildingBlock: MIDCAF_clean_linker_0, # of connection points: 3
#     Edge 9, Type (0, 1), None
#     Edge 10, Type (0, 1), None
#     Edge 11, Type (0, 1), None
#     Edge 12, Type (0, 1), None
#     Edge 13, Type (0, 1), None
#     Edge 14, Type (0, 1), None
#     Edge 15, Type (0, 1), None
#     Edge 16, Type (0, 1), None
#     Edge 17, Type (0, 1), None
#     Edge 18, Type (0, 1), None
#     Edge 19, Type (0, 1), None
#     Edge 20, Type (0, 1), None
#     Edge 21, Type (0, 1), None
#     Edge 22, Type (0, 1), None
#     Edge 23, Type (0, 1), None
#     Edge 24, Type (0, 1), None
#     Edge 25, Type (0, 1), None
#     Edge 26, Type (0, 1), None
# Relax obj value: 0.291
# Max RMSD: 0.261
# Mean RMSD: 0.183
data_MOF--net-anh--node1-BETFAJ_clean_sbu_0--node2-MIDCAF_clean_linker_0--edge1-none
_symmetry_space_group_name_H-M    P1
_symmetry_Int_Tables_number       1
_symmetry_cell_setting            triclinic
loop_
_symmetry_equiv_pos_as_xyz
'x, y, z'
_cell_length_a     20.274108
_cell_length_b     26.74046
_cell_length_c     37.24429
_cell_angle_alpha  91.08739
_cell_angle_beta   89.447859
_cell_angle_gamma 133.7082
loop_
_atom_site_label
_atom_site_type_symbol
_atom_site_fract_x
_atom_site_fract_y
_atom_site_fract_z
_atom_type_partial_charge
Sm0 Sm 0.28212 0.60143 0.143 0.0
Sm1 Sm 0.16326 0.62445 0.16151 0.0
C2 C 0.37227 0.57411 0.11385 0.0
C3 C 0.3358 0.50417 0.11017 0.0
C4 C 0.27138 0.45341 0.13506 0.0
C5 C 0.22435 0.38408 0.12879 0.0
C6 C 0.24013 0.36426 0.09729 0.0
C7 C 0.30434 0.41526 0.07233 0.0
C8 C 0.35149 0.48457 0.07868 0.0
C9 C 0.23997 0.58549 0.21485 0.0
C10 C 0.38203 0.76384 0.15356 0.0
C11 C 1.05668 0.63769 0.18968 0.0
C12 C 0.9566 0.5813 0.19236 0.0
C13 C 0.91723 0.51527 0.20308 0.0
C14 C 0.82662 0.45675 0.19466 0.0
C15 C 0.77345 0.46354 0.17628 0.0
C16 C 0.80941 0.52985 0.16909 0.0
C17 C 0.90083 0.58851 0.1769 0.0
C18 C 0.15386 0.58931 0.08995 0.0
C19 C 1.06873 0.46518 0.15621 0.0
O20 O 0.38955 0.5993 0.14664 0.0
O21 O 0.32776 0.5832 0.09468 0.0
O22 O 0.26208 0.63334 0.19557 0.0
O23 O 0.23991 0.54391 0.19642 0.0
O24 O 0.39436 0.72161 0.14782 0.0
O25 O 0.29932 0.73937 0.15835 0.0
O26 O 1.10318 0.63085 0.20932 0.0
O27 O 1.0881 0.65703 0.15689 0.0
O28 O 0.22559 0.63209 0.10837 0.0
O29 O 1.083 0.56383 0.10906 0.0
O30 O 1.06945 0.50842 0.17434 0.0
O31 O 0.13892 0.48996 0.13573 0.0
H32 H 0.25604 0.46708 0.15908 0.0
H33 H 0.17609 0.34606 0.14858 0.0
H34 H 0.32016 0.40193 0.04826 0.0
H35 H 0.399 0.52264 0.05876 0.0
H36 H 0.95818 0.50794 0.21532 0.0
H37 H 0.79992 0.40595 0.20029 0.0
H38 H 0.76926 0.53583 0.15452 0.0
H39 H 0.92969 0.63865 0.16819 0.0
Sm40 Sm 0.80026 0.0865 0.47126 0.0
Sm41 Sm 0.67444 0.10506 0.46056 0.0
C42 C 0.88609 0.04904 0.49101 0.0
C43 C 0.86239 0.98763 0.50554 0.0
C44 C 0.78449 0.94066 0.52678 0.0
C45 C 0.7623 0.88187 0.5398 0.0
C46 C 0.81718 0.86883 0.53149 0.0
C47 C 0.89484 0.91594 0.51005 0.0
C48 C 0.91729 0.97489 0.49726 0.0
C49 C 0.78562 0.10737 0.40094 0.0
C50 C 0.58076 0.94779 0.45911 0.0
C51 C 0.59219 0.14543 0.441 0.0
C52 C 0.60107 0.20336 0.45169 0.0
C53 C 0.68658 0.27207 0.45291 0.0
C54 C 0.69527 0.32481 0.46789 0.0
C55 C 0.61874 0.30965 0.48211 0.0
C56 C 0.53263 0.24157 0.47905 0.0
C57 C 0.52392 0.18902 0.46395 0.0
C58 C 0.68341 0.08135 0.53109 0.0
C59 C 0.89796 0.24615 0.4675 0.0
O60 O 0.87461 0.08198 0.51228 0.0
O61 O 0.85962 0.04305 0.45808 0.0
O62 O 0.71972 0.06804 0.42222 0.0
O63 O 0.86258 0.13705 0.41633 0.0
O64 O 0.65602 0.9736 0.4762 0.0
O65 O 0.5767 0.99006 0.44422 0.0
O66 O 0.65987 0.16067 0.4231 0.0
O67 O 0.56 0.09924 0.4656 0.0
O68 O 0.75183 0.12051 0.51062 0.0
O69 O 0.60979 0.05755 0.51516 0.0
O70 O 0.81493 0.21935 0.46054 0.0
O71 O 0.9118 0.20592 0.47506 0.0
H72 H 0.74064 0.94922 0.53314 0.0
H73 H 0.70141 0.84604 0.55587 0.0
H74 H 0.93881 0.90758 0.50348 0.0
H75 H 0.97747 1.01053 0.48078 0.0
H76 H 0.7473 0.28472 0.44358 0.0
H77 H 0.76256 0.37663 0.47009 0.0
H78 H 0.47228 0.22853 0.4894 0.0
H79 H 0.4573 0.13654 0.46315 0.0
Sm80 Sm 0.69507 0.58701 0.84977 0.0
Sm81 Sm 0.55629 0.42182 0.8503 0.0
C82 C 0.80888 0.71931 0.83245 0.0
C83 C 0.7977 0.76579 0.82096 0.0
C84 C 0.8642 0.82269 0.79942 0.0
C85 C 0.85204 0.86489 0.78666 0.0
C86 C 0.77299 0.85113 0.79523 0.0
C87 C 0.70686 0.79432 0.81719 0.0
C88 C 0.71889 0.75195 0.82977 0.0
C89 C 0.64029 0.52284 0.91475 0.0
C90 C 0.47257 0.49758 0.85598 0.0
C91 C 0.46779 0.29297 0.86685 0.0
C92 C 0.48483 0.24896 0.85597 0.0
C93 C 0.56941 0.27014 0.86273 0.0
C94 C 0.58965 0.23363 0.84765 0.0
C95 C 0.52612 0.1754 0.82527 0.0
C96 C 0.44007 0.15246 0.81993 0.0
C97 C 0.41964 0.1887 0.83518 0.0
C98 C 0.58831 0.46633 0.78039 0.0
C99 C 0.78307 0.5136 0.84847 0.0
O100 O 0.78061 0.6701 0.80951 0.0
O101 O 0.787 0.69804 0.86567 0.0
O102 O 0.66087 0.50892 0.88727 0.0
O103 O 0.64832 0.57484 0.90934 0.0
O104 O 0.55403 0.55518 0.84432 0.0
O105 O 0.4604 0.44282 0.86457 0.0
O106 O 0.52757 0.3457 0.8884 0.0
O107 O 0.44108 0.30841 0.84116 0.0
O108 O 0.62009 0.50287 0.80859 0.0
O109 O 0.53744 0.40219 0.78892 0.0
O110 O 0.69703 0.4518 0.84708 0.0
O111 O 0.79943 0.57185 0.84971 0.0
H112 H 0.92526 0.83411 0.79213 0.0
H113 H 0.90477 0.90847 0.77014 0.0
H114 H 0.64458 0.78148 0.82392 0.0
H115 H 0.66597 0.70778 0.84598 0.0
H116 H 0.62153 0.3165 0.87851 0.0
H117 H 0.65679 0.25308 0.85208 0.0
H118 H 0.38915 0.1073 0.80321 0.0
H119 H 0.35396 0.1711 0.82955 0.0
C120 C 0.45272 0.8875 0.15696 0.0
C121 C 0.46314 0.84048 0.15724 0.0
C122 C 0.5509 0.86719 0.16396 0.0
C123 C 0.62435 0.93774 0.17244 0.0
H124 H 0.92195 0.23298 0.13917 0.0
H125 H 1.0401 0.35663 0.12422 0.0
H126 H 0.92247 0.39935 0.20081 0.0
H127 H 0.80668 0.2775 0.21557 0.0
H128 H 0.90036 0.20854 0.28957 0.0
H129 H 0.91504 0.20643 0.3545 0.0
H130 H 0.63348 1.01236 0.35967 0.0
H131 H 0.61929 1.01325 0.29453 0.0
H132 H 0.51503 0.9922 0.16648 0.0
H133 H 0.38644 0.86918 0.15189 0.0
H134 H 0.56193 0.83295 0.16465 0.0
H135 H 0.68929 0.95556 0.17996 0.0
N136 N 0.73525 0.11445 0.17491 0.0
N137 N 0.80265 0.17284 0.23038 0.0
N138 N 0.69058 0.05191 0.22834 0.0
C139 C 0.79609 0.17523 0.19432 0.0
C140 C 0.75057 0.1118 0.24755 0.0
C141 C 0.68229 0.05233 0.19221 0.0
C142 C 0.85407 0.24517 0.17822 0.0
C143 C 0.91992 0.26869 0.15184 0.0
C144 C 0.98822 0.33976 0.1436 0.0
C145 C 0.99166 0.38866 0.16142 0.0
C146 C 0.92268 0.36396 0.18641 0.0
C147 C 0.85561 0.29367 0.1948 0.0
C148 C 0.7588 0.11085 0.28693 0.0
C149 C 0.84157 0.16544 0.30455 0.0
C150 C 0.85009 0.16422 0.34166 0.0
C151 C 0.77543 0.10929 0.36198 0.0
C152 C 0.69205 0.05543 0.34458 0.0
C153 C 0.68413 0.05576 0.30732 0.0
C154 C 0.61296 0.98403 0.17348 0.0
C155 C 0.52673 0.95835 0.16485 0.0
C156 C 0.58744 0.34476 0.53715 0.0
C157 C 0.62978 0.36248 0.50353 0.0
C158 C 0.68555 0.431 0.49189 0.0
C159 C 0.69896 0.48084 0.51369 0.0
H160 H 0.77666 0.67604 0.51649 0.0
H161 H 0.81738 0.77967 0.49445 0.0
H162 H 0.76336 0.81666 0.59911 0.0
H163 H 0.72199 0.713 0.62126 0.0
H164 H 0.7097 0.62888 0.69021 0.0
H165 H 0.67388 0.59472 0.75354 0.0
H166 H 0.55431 0.39002 0.72274 0.0
H167 H 0.58875 0.42281 0.6607 0.0
H168 H 0.56852 0.37858 0.58491 0.0
H169 H 0.54524 0.29276 0.54715 0.0
H170 H 0.71892 0.44602 0.46603 0.0
H171 H 0.74294 0.53339 0.5043 0.0
N172 N 0.70515 0.57567 0.56048 0.0
N173 N 0.7016 0.60685 0.61957 0.0
N174 N 0.65962 0.50175 0.608 0.0
C175 C 0.71795 0.62162 0.58392 0.0
C176 C 0.67263 0.5469 0.63177 0.0
C177 C 0.67554 0.51532 0.5725 0.0
C178 C 0.74587 0.68593 0.57067 0.0
C179 C 0.77355 0.70622 0.53488 0.0
C180 C 0.79734 0.76582 0.52225 0.0
C181 C 0.79333 0.80617 0.54503 0.0
C182 C 0.76611 0.78615 0.58082 0.0
C183 C 0.74302 0.72692 0.59354 0.0
C184 C 0.65246 0.52873 0.67027 0.0
C185 C 0.67592 0.57668 0.69711 0.0
C186 C 0.65607 0.55744 0.73333 0.0
C187 C 0.61208 0.49001 0.743 0.0
C188 C 0.58837 0.44245 0.71616 0.0
C189 C 0.6085 0.46149 0.6804 0.0
C190 C 0.65813 0.46314 0.54774 0.0
C191 C 0.60163 0.39436 0.55897 0.0
C192 C 0.95423 0.57838 0.85802 0.0
C193 C 0.86242 0.51627 0.85108 0.0
C194 C 0.84693 0.45558 0.84891 0.0
C195 C 0.91786 0.45666 0.85463 0.0
H196 H 0.3412 0.59095 0.8384 0.0
H197 H 0.45797 0.58702 0.8283 0.0
H198 H 0.30746 0.40747 0.89451 0.0
H199 H 0.1926 0.41282 0.90531 0.0
H200 H 0.28889 0.60484 0.98287 0.0
H201 H 0.29543 0.63289 0.04661 0.0
H202 H 1.00575 0.50993 0.0454 0.0
H203 H 1.00012 0.48504 0.98145 0.0
H204 H 1.0919 0.62805 0.87155 0.0
H205 H 0.97139 0.62667 0.86046 0.0
H206 H 0.77845 0.406 0.84395 0.0
H207 H 0.8996 0.40787 0.85494 0.0
N208 N 1.13154 0.50963 0.86493 0.0
N209 N 0.19298 0.52192 0.92193 0.0
N210 N 1.08347 0.52825 0.91721 0.0
C211 C 0.19049 0.51128 0.88577 0.0
C212 C 0.14025 0.53035 0.93771 0.0
C213 C 1.07701 0.51824 0.88113 0.0
C214 C 0.25318 0.50079 0.87182 0.0
C215 C 0.33083 0.54915 0.85 0.0
C216 C 0.39945 0.54726 0.84456 0.0
C217 C 0.3946 0.49653 0.86028 0.0
C218 C 0.31577 0.44726 0.88133 0.0
C219 C 0.24837 0.45007 0.88734 0.0
C220 C 0.14398 0.54254 0.97711 0.0
C221 C 0.22657 0.58333 -0.00366 0.0
C222 C 0.23024 0.59933 0.03287 0.0
C223 C 0.1509 0.57302 0.05123 0.0
C224 C 1.06808 0.53098 0.03214 0.0
C225 C 1.06488 0.51664 -0.00453 0.0
C226 C 1.00921 0.51861 0.86249 0.0
C227 C 1.02481 0.5793 0.86393 0.0
C228 C 0.42574 0.84495 0.43384 0.0
C229 C 0.50161 0.87094 0.45474 0.0
C230 C 0.50163 0.82277 0.46971 0.0
C231 C 0.42973 0.75102 0.46244 0.0
H232 H 1.0211 0.47094 0.45651 0.0
H233 H 0.89848 0.34914 0.47278 0.0
H234 H 1.07696 0.31718 0.45208 0.0
H235 H 0.19875 0.43886 0.43511 0.0
H236 H 0.17424 0.48133 0.325 0.0
H237 H 0.1784 0.48092 0.2593 0.0
H238 H 0.28327 0.6867 0.25934 0.0
H239 H 0.28056 0.68783 0.32481 0.0
H240 H 0.30041 0.75666 0.40858 0.0
H241 H 0.42228 0.87973 0.42194 0.0
H242 H 0.55861 0.84061 0.48605 0.0
H243 H 0.43416 0.71575 0.47263 0.0
N244 N 0.24098 0.59534 0.44341 0.0
N245 N 0.18083 0.52905 0.3895 0.0
N246 N 0.28674 0.64975 0.38739 0.0
C247 C 0.18416 0.53199 0.42602 0.0
C248 C 0.23164 0.58767 0.37003 0.0
C249 C 0.29315 0.65475 0.42373 0.0
C250 C 1.12047 0.4651 0.44537 0.0
C251 C 1.0351 0.4385 0.45671 0.0
C252 C 0.96439 0.3683 0.46559 0.0
C253 C 0.97724 0.32277 0.46364 0.0
C254 C 1.06447 0.3505 0.45426 0.0
C255 C 0.13464 0.42045 0.44473 0.0
C256 C 0.22788 0.58483 0.3302 0.0
C257 C 0.1976 0.52628 0.31101 0.0
C258 C 0.20021 0.5261 0.27342 0.0
C259 C 0.23183 0.58401 0.25433 0.0
C260 C 0.25892 0.64148 0.27339 0.0
C261 C 0.25764 0.64212 0.31092 0.0
C262 C 0.35663 0.72603 0.4399 0.0
C263 C 0.35504 0.77396 0.42638 0.0
C264 C 0.53117 0.12648 0.76838 0.0
C265 C 0.5521 0.14239 0.80512 0.0
C266 C 0.60133 0.12955 0.82161 0.0
C267 C 0.62955 0.102 0.80164 0.0
H268 H 0.67447 0.96526 0.80504 0.0
H269 H 0.70367 0.8982 0.82976 0.0
H270 H 0.80886 0.90247 0.72734 0.0
H271 H 0.78078 0.97003 0.70265 0.0
H272 H 0.80642 0.07749 0.6354 0.0
H273 H 0.80858 0.09317 0.57029 0.0
H274 H 0.56544 0.05586 0.58056 0.0
H275 H 0.56516 0.04297 0.64499 0.0
H276 H 0.54374 0.08947 0.72004 0.0
H277 H 0.49449 0.1365 0.75467 0.0
H278 H 0.61824 0.14099 0.84992 0.0
H279 H 0.66824 0.09348 0.81499 0.0
N280 N 0.67099 0.03291 0.75703 0.0
N281 N 0.70945 0.02099 0.69972 0.0
N282 N 0.6512 0.07174 0.70615 0.0
C283 C 0.70267 1.01102 0.73589 0.0
C284 C 0.68361 0.05125 0.68473 0.0
C285 C 0.64534 0.06356 0.74224 0.0
C286 C 0.72502 0.97326 0.75173 0.0
C287 C 0.70445 0.95243 0.78778 0.0
C288 C 0.72061 0.91345 0.80195 0.0
C289 C 0.75843 0.89463 0.78057 0.0
C290 C 0.78058 0.91656 0.74475 0.0
C291 C 0.76392 0.95512 0.73051 0.0
C292 C 0.68567 0.05909 0.6453 0.0
C293 C 0.75374 0.07284 0.62359 0.0
C294 C 0.75532 0.08219 0.58643 0.0
C295 C 0.68728 0.07578 0.57036 0.0
C296 C 0.6189 0.06116 0.59211 0.0
C297 C 0.6188 0.05385 0.6291 0.0
C298 C 0.6105 0.08789 0.76463 0.0
C299 C 0.56023 0.09996 0.74842 0.0
C300 C 0.69568 0.37303 0.12862 0.0
C301 C 0.68916 0.40303 0.15803 0.0
C302 C 0.60582 0.38277 0.16561 0.0
C303 C 0.53155 0.33675 0.14243 0.0
H304 H 0.19931 0.21331 0.02066 0.0
H305 H 0.1631 0.28033 0.03704 0.0
H306 H 0.23314 0.28739 0.14727 0.0
H307 H 0.2678 0.21985 0.13099 0.0
H308 H 0.40819 0.38007 -0.00285 0.0
H309 H 0.48837 0.47185 0.95239 0.0
H310 H 0.69574 0.46641 0.9441 0.0
H311 H 0.61749 0.37622 0.98917 0.0
H312 H 0.63161 0.31144 0.08047 0.0
H313 H 0.75997 0.38865 0.12227 0.0
H314 H 0.60001 0.40583 0.18808 0.0
H315 H 0.47002 0.32603 0.14728 0.0
N316 N 0.38823 0.24827 0.08716 0.0
N317 N 0.37183 0.2778 0.03144 0.0
N318 N 0.51482 0.32379 0.04967 0.0
C319 C 0.33364 0.24136 0.06227 0.0
C320 C 0.46197 0.31886 0.02491 0.0
C321 C 0.47842 0.28839 0.08075 0.0
C322 C 0.24687 0.21928 0.07388 0.0
C323 C 0.20084 0.2249 0.04885 0.0
C324 C 0.18081 0.26397 0.05815 0.0
C325 C 0.20303 0.29372 0.09274 0.0
C326 C 0.2196 0.26781 0.11992 0.0
C327 C 0.23933 0.2286 0.11047 0.0
C328 C 0.506 0.37019 -0.00391 0.0
C329 C 0.47087 0.39846 0.98566 0.0
C330 C 0.51747 0.45191 0.96076 0.0
C331 C 0.59874 0.47674 0.94558 0.0
C332 C 0.63375 0.44865 0.95604 0.0
C333 C 0.58849 0.3965 0.98138 0.0
C334 C 0.54115 0.3126 0.11083 0.0
C335 C 0.62243 0.32875 0.10487 0.0
loop_
_geom_bond_atom_site_label_1
_geom_bond_atom_site_label_2
_geom_bond_distance
_geom_bond_site_symmetry_2
_ccdc_geom_bond_type
Sm0 C2 2.846 . S
Sm0 O20 2.543 . S
Sm0 O21 2.450 . S
Sm0 O22 2.681 . S
Sm0 O23 2.464 . S
Sm0 O24 2.396 . S
Sm0 O28 2.386 . S
Sm0 O31 2.408 1_455 S
Sm1 C11 2.846 . S
Sm1 O22 2.386 1_655 S
Sm1 O25 2.408 1_655 S
Sm1 O26 2.543 . S
Sm1 O27 2.450 . S
Sm1 O28 2.681 1_655 S
Sm1 O29 2.464 . S
Sm1 O30 2.396 . S
C2 Sm0 2.846 . S
C2 C3 1.506 . S
C2 O20 1.261 . S
C2 O21 1.242 . S
C3 C2 1.506 . S
C3 C4 1.358 . S
C3 C8 1.382 . S
C4 C3 1.358 . S
C4 C5 1.385 . S
C4 H32 0.930 . S
C5 C4 1.385 . S
C5 C6 1.395 . S
C5 H33 0.929 . S
C6 C5 1.395 . S
C6 C7 1.335 . S
C7 C6 1.335 . S
C7 C8 1.398 . S
C7 H34 0.930 . S
C8 C3 1.382 . S
C8 C7 1.398 . S
C8 H35 0.929 . S
C9 O22 1.271 . S
C9 O23 1.251 . S
C10 O24 1.252 . S
C10 O25 1.272 . S
C11 Sm1 2.846 . S
C11 C12 1.506 . S
C11 O26 1.261 . S
C11 O27 1.242 . S
C12 C11 1.506 . S
C12 C13 1.358 . S
C12 C17 1.382 . S
C13 C12 1.358 . S
C13 C14 1.385 . S
C13 H36 0.930 . S
C14 C13 1.385 . S
C14 C15 1.395 . S
C14 H37 0.929 . S
C15 C14 1.395 . S
C15 C16 1.335 . S
C16 C15 1.335 . S
C16 C17 1.398 . S
C16 H38 0.930 . S
C17 C12 1.382 . S
C17 C16 1.398 . S
C17 H39 0.929 . S
C18 O28 1.271 . S
C18 O29 1.251 1_455 S
C19 O30 1.252 . S
C19 O31 1.272 . S
O20 Sm0 2.543 . S
O20 C2 1.261 . S
O21 Sm0 2.450 . S
O21 C2 1.242 . S
O22 Sm0 2.681 . S
O22 Sm1 2.386 1_455 S
O22 C9 1.271 . S
O23 Sm0 2.464 . S
O23 C9 1.251 . S
O24 Sm0 2.396 . S
O24 C10 1.252 . S
O25 Sm1 2.408 1_455 S
O25 C10 1.272 . S
O26 Sm1 2.543 . S
O26 C11 1.261 . S
O27 Sm1 2.450 . S
O27 C11 1.242 . S
O28 Sm0 2.386 . S
O28 Sm1 2.681 1_455 S
O28 C18 1.271 . S
O29 Sm1 2.464 . S
O29 C18 1.251 1_655 S
O30 Sm1 2.396 . S
O30 C19 1.252 . S
O31 Sm0 2.408 1_655 S
O31 C19 1.272 . S
H32 C4 0.930 . S
H33 C5 0.929 . S
H34 C7 0.930 . S
H35 C8 0.929 . S
H36 C13 0.930 . S
H37 C14 0.929 . S
H38 C16 0.930 . S
H39 C17 0.929 . S
Sm40 C42 2.846 . S
Sm40 O60 2.543 . S
Sm40 O61 2.450 . S
Sm40 O62 2.681 1_565 S
Sm40 O63 2.464 . S
Sm40 O64 2.396 . S
Sm40 O68 2.386 . S
Sm40 O71 2.408 1_565 S
Sm41 C51 2.846 . S
Sm41 O62 2.386 . S
Sm41 O65 2.408 1_545 S
Sm41 O66 2.543 . S
Sm41 O67 2.450 . S
Sm41 O68 2.681 1_545 S
Sm41 O69 2.464 . S
Sm41 O70 2.396 . S
C42 Sm40 2.846 . S
C42 C43 1.506 . S
C42 O60 1.261 . S
C42 O61 1.242 . S
C43 C42 1.506 . S
C43 C44 1.358 . S
C43 C48 1.382 . S
C44 C43 1.358 . S
C44 C45 1.385 . S
C44 H72 0.930 . S
C45 C44 1.385 . S
C45 C46 1.395 . S
C45 H73 0.929 . S
C46 C45 1.395 . S
C46 C47 1.335 . S
C47 C46 1.335 . S
C47 C48 1.398 . S
C47 H74 0.930 . S
C48 C43 1.382 . S
C48 C47 1.398 . S
C48 H75 0.929 . S
C49 O62 1.271 . S
C49 O63 1.251 1_545 S
C50 O64 1.252 . S
C50 O65 1.272 . S
C51 Sm41 2.846 . S
C51 C52 1.506 . S
C51 O66 1.261 . S
C51 O67 1.242 . S
C52 C51 1.506 . S
C52 C53 1.358 . S
C52 C57 1.382 . S
C53 C52 1.358 . S
C53 C54 1.385 . S
C53 H76 0.930 . S
C54 C53 1.385 . S
C54 C55 1.395 . S
C54 H77 0.929 . S
C55 C54 1.395 . S
C55 C56 1.335 . S
C56 C55 1.335 . S
C56 C57 1.398 . S
C56 H78 0.930 . S
C57 C52 1.382 . S
C57 C56 1.398 . S
C57 H79 0.929 . S
C58 O68 1.271 1_545 S
C58 O69 1.251 . S
C59 O70 1.252 . S
C59 O71 1.272 . S
O60 Sm40 2.543 . S
O60 C42 1.261 . S
O61 Sm40 2.450 . S
O61 C42 1.242 . S
O62 Sm40 2.681 1_545 S
O62 Sm41 2.386 . S
O62 C49 1.271 . S
O63 Sm40 2.464 . S
O63 C49 1.251 1_565 S
O64 Sm40 2.396 . S
O64 C50 1.252 . S
O65 Sm41 2.408 1_565 S
O65 C50 1.272 . S
O66 Sm41 2.543 . S
O66 C51 1.261 . S
O67 Sm41 2.450 . S
O67 C51 1.242 . S
O68 Sm40 2.386 . S
O68 Sm41 2.681 1_565 S
O68 C58 1.271 1_565 S
O69 Sm41 2.464 . S
O69 C58 1.251 . S
O70 Sm41 2.396 . S
O70 C59 1.252 . S
O71 Sm40 2.408 1_545 S
O71 C59 1.272 . S
H72 C44 0.930 . S
H73 C45 0.929 . S
H74 C47 0.930 . S
H75 C48 0.929 . S
H76 C53 0.930 . S
H77 C54 0.929 . S
H78 C56 0.930 . S
H79 C57 0.929 . S
Sm80 C82 2.846 . S
Sm80 O100 2.543 . S
Sm80 O101 2.450 . S
Sm80 O102 2.681 . S
Sm80 O103 2.464 . S
Sm80 O104 2.396 . S
Sm80 O108 2.386 . S
Sm80 O111 2.408 . S
Sm81 C91 2.846 . S
Sm81 O102 2.386 . S
Sm81 O105 2.408 . S
Sm81 O106 2.543 . S
Sm81 O107 2.450 . S
Sm81 O108 2.681 . S
Sm81 O109 2.464 . S
Sm81 O110 2.396 . S
C82 Sm80 2.846 . S
C82 C83 1.506 . S
C82 O100 1.261 . S
C82 O101 1.242 . S
C83 C82 1.506 . S
C83 C84 1.358 . S
C83 C88 1.382 . S
C84 C83 1.358 . S
C84 C85 1.385 . S
C84 H112 0.930 . S
C85 C84 1.385 . S
C85 C86 1.395 . S
C85 H113 0.929 . S
C86 C85 1.395 . S
C86 C87 1.335 . S
C87 C86 1.335 . S
C87 C88 1.398 . S
C87 H114 0.930 . S
C88 C83 1.382 . S
C88 C87 1.398 . S
C88 H115 0.929 . S
C89 O102 1.271 . S
C89 O103 1.251 . S
C90 O104 1.252 . S
C90 O105 1.272 . S
C91 Sm81 2.846 . S
C91 C92 1.506 . S
C91 O106 1.261 . S
C91 O107 1.242 . S
C92 C91 1.506 . S
C92 C93 1.358 . S
C92 C97 1.382 . S
C93 C92 1.358 . S
C93 C94 1.385 . S
C93 H116 0.930 . S
C94 C93 1.385 . S
C94 C95 1.395 . S
C94 H117 0.929 . S
C95 C94 1.395 . S
C95 C96 1.335 . S
C96 C95 1.335 . S
C96 C97 1.398 . S
C96 H118 0.930 . S
C97 C92 1.382 . S
C97 C96 1.398 . S
C97 H119 0.929 . S
C98 O108 1.271 . S
C98 O109 1.251 . S
C99 O110 1.252 . S
C99 O111 1.272 . S
O100 Sm80 2.543 . S
O100 C82 1.261 . S
O101 Sm80 2.450 . S
O101 C82 1.242 . S
O102 Sm80 2.681 . S
O102 Sm81 2.386 . S
O102 C89 1.271 . S
O103 Sm80 2.464 . S
O103 C89 1.251 . S
O104 Sm80 2.396 . S
O104 C90 1.252 . S
O105 Sm81 2.408 . S
O105 C90 1.272 . S
O106 Sm81 2.543 . S
O106 C91 1.261 . S
O107 Sm81 2.450 . S
O107 C91 1.242 . S
O108 Sm80 2.386 . S
O108 Sm81 2.681 . S
O108 C98 1.271 . S
O109 Sm81 2.464 . S
O109 C98 1.251 . S
O110 Sm81 2.396 . S
O110 C99 1.252 . S
O111 Sm80 2.408 . S
O111 C99 1.272 . S
H112 C84 0.930 . S
H113 C85 0.929 . S
H114 C87 0.930 . S
H115 C88 0.929 . S
H116 C93 0.930 . S
H117 C94 0.929 . S
H118 C96 0.930 . S
H119 C97 0.929 . S
C120 C121 1.384 . S
C120 H133 0.947 . S
C120 C155 1.382 . S
C121 C120 1.384 . S
C121 C122 1.378 . S
C122 C121 1.378 . S
C122 C123 1.378 . S
C122 H134 0.952 . S
C123 C122 1.378 . S
C123 H135 0.950 . S
C123 C154 1.383 . S
H124 C143 0.947 . S
H125 C144 0.946 . S
H126 C146 0.953 . S
H127 C147 0.945 . S
H128 C149 0.952 . S
H129 C150 0.949 . S
H130 C152 0.950 . S
H131 C153 0.948 . S
H132 C155 0.951 . S
H133 C120 0.947 . S
H134 C122 0.952 . S
H135 C123 0.950 . S
N136 C139 1.382 . S
N136 C141 1.363 1_545 S
N137 C139 1.371 . S
N137 C140 1.372 . S
N138 C140 1.361 1_565 S
N138 C141 1.377 . S
C139 N136 1.382 . S
C139 N137 1.371 . S
C139 C142 1.480 . S
C140 N137 1.372 . S
C140 N138 1.361 1_545 S
C140 C148 1.457 . S
C141 N136 1.363 1_565 S
C141 N138 1.377 . S
C141 C154 1.479 . S
C142 C139 1.480 . S
C142 C143 1.383 . S
C142 C147 1.385 . S
C143 H124 0.947 . S
C143 C142 1.383 . S
C143 C144 1.388 . S
C144 H125 0.946 . S
C144 C143 1.388 . S
C144 C145 1.384 . S
C145 C144 1.384 . S
C145 C146 1.377 . S
C146 H126 0.953 . S
C146 C145 1.377 . S
C146 C147 1.369 . S
C147 H127 0.945 . S
C147 C142 1.385 . S
C147 C146 1.369 . S
C148 C140 1.457 . S
C148 C149 1.372 . S
C148 C153 1.364 1_545 S
C149 H128 0.952 . S
C149 C148 1.372 . S
C149 C150 1.389 . S
C150 H129 0.949 . S
C150 C149 1.389 . S
C150 C151 1.387 . S
C151 C150 1.387 . S
C151 C152 1.372 1_545 S
C152 H130 0.950 . S
C152 C151 1.372 1_565 S
C152 C153 1.379 . S
C153 H131 0.948 . S
C153 C148 1.364 1_565 S
C153 C152 1.379 . S
C154 C123 1.383 . S
C154 C141 1.479 . S
C154 C155 1.398 . S
C155 C120 1.382 . S
C155 H132 0.951 . S
C155 C154 1.398 . S
C156 C157 1.384 . S
C156 H169 0.947 . S
C156 C191 1.382 . S
C157 C156 1.384 . S
C157 C158 1.378 . S
C158 C157 1.378 . S
C158 C159 1.378 . S
C158 H170 0.952 . S
C159 C158 1.378 . S
C159 H171 0.950 . S
C159 C190 1.383 . S
H160 C179 0.947 . S
H161 C180 0.946 . S
H162 C182 0.953 . S
H163 C183 0.945 . S
H164 C185 0.952 . S
H165 C186 0.949 . S
H166 C188 0.950 . S
H167 C189 0.948 . S
H168 C191 0.951 . S
H169 C156 0.947 . S
H170 C158 0.952 . S
H171 C159 0.950 . S
N172 C175 1.382 . S
N172 C177 1.363 . S
N173 C175 1.371 . S
N173 C176 1.372 . S
N174 C176 1.361 . S
N174 C177 1.377 . S
C175 N172 1.382 . S
C175 N173 1.371 . S
C175 C178 1.480 . S
C176 N173 1.372 . S
C176 N174 1.361 . S
C176 C184 1.457 . S
C177 N172 1.363 . S
C177 N174 1.377 . S
C177 C190 1.479 . S
C178 C175 1.480 . S
C178 C179 1.383 . S
C178 C183 1.385 . S
C179 H160 0.947 . S
C179 C178 1.383 . S
C179 C180 1.388 . S
C180 H161 0.946 . S
C180 C179 1.388 . S
C180 C181 1.384 . S
C181 C180 1.384 . S
C181 C182 1.377 . S
C182 H162 0.953 . S
C182 C181 1.377 . S
C182 C183 1.369 . S
C183 H163 0.945 . S
C183 C178 1.385 . S
C183 C182 1.369 . S
C184 C176 1.457 . S
C184 C185 1.372 . S
C184 C189 1.364 . S
C185 H164 0.952 . S
C185 C184 1.372 . S
C185 C186 1.389 . S
C186 H165 0.949 . S
C186 C185 1.389 . S
C186 C187 1.387 . S
C187 C186 1.387 . S
C187 C188 1.372 . S
C188 H166 0.950 . S
C188 C187 1.372 . S
C188 C189 1.379 . S
C189 H167 0.948 . S
C189 C184 1.364 . S
C189 C188 1.379 . S
C190 C159 1.383 . S
C190 C177 1.479 . S
C190 C191 1.398 . S
C191 C156 1.382 . S
C191 H168 0.951 . S
C191 C190 1.398 . S
C192 C193 1.384 . S
C192 H205 0.947 . S
C192 C227 1.382 . S
C193 C192 1.384 . S
C193 C194 1.378 . S
C194 C193 1.378 . S
C194 C195 1.378 . S
C194 H206 0.952 . S
C195 C194 1.378 . S
C195 H207 0.950 . S
C195 C226 1.383 . S
H196 C215 0.947 . S
H197 C216 0.946 . S
H198 C218 0.953 . S
H199 C219 0.945 . S
H200 C221 0.952 1_556 S
H201 C222 0.949 . S
H202 C224 0.950 . S
H203 C225 0.943 1_556 S
H204 C227 0.951 . S
H205 C192 0.947 . S
H206 C194 0.952 . S
H207 C195 0.950 . S
N208 C211 1.382 . S
N208 C213 1.363 . S
N209 C211 1.371 . S
N209 C212 1.372 . S
N210 C212 1.361 . S
N210 C213 1.377 . S
C211 N208 1.382 . S
C211 N209 1.371 . S
C211 C214 1.480 . S
C212 N209 1.372 . S
C212 N210 1.361 . S
C212 C220 1.457 . S
C213 N208 1.363 . S
C213 N210 1.377 . S
C213 C226 1.479 1_455 S
C214 C211 1.480 . S
C214 C215 1.383 . S
C214 C219 1.385 . S
C215 H196 0.947 . S
C215 C214 1.383 . S
C215 C216 1.388 . S
C216 H197 0.946 . S
C216 C215 1.388 . S
C216 C217 1.384 . S
C217 C216 1.384 . S
C217 C218 1.377 . S
C218 H198 0.953 . S
C218 C217 1.377 . S
C218 C219 1.369 . S
C219 H199 0.945 . S
C219 C214 1.385 . S
C219 C218 1.369 . S
C220 C212 1.457 . S
C220 C221 1.372 1_556 S
C220 C225 1.360 1_456 S
C221 H200 0.952 1_554 S
C221 C220 1.372 1_554 S
C221 C222 1.389 . S
C222 H201 0.949 . S
C222 C221 1.389 . S
C222 C223 1.387 . S
C223 C222 1.387 . S
C223 C224 1.372 1_455 S
C224 H202 0.950 . S
C224 C223 1.372 1_655 S
C224 C225 1.389 . S
C225 H203 0.943 1_554 S
C225 C220 1.360 1_654 S
C225 C224 1.389 . S
C226 C195 1.383 . S
C226 C213 1.479 1_655 S
C226 C227 1.398 . S
C227 C192 1.382 . S
C227 H204 0.951 . S
C227 C226 1.398 . S
C228 C229 1.384 . S
C228 H241 0.947 . S
C228 C263 1.382 . S
C229 C228 1.384 . S
C229 C230 1.378 . S
C230 C229 1.378 . S
C230 C231 1.378 . S
C230 H242 0.952 . S
C231 C230 1.378 . S
C231 H243 0.950 . S
C231 C262 1.383 . S
H232 C251 0.947 . S
H233 C252 0.946 . S
H234 C254 0.953 . S
H235 C255 0.945 . S
H236 C257 0.952 . S
H237 C258 0.949 . S
H238 C260 0.950 . S
H239 C261 0.948 . S
H240 C263 0.951 . S
H241 C228 0.947 . S
H242 C230 0.952 . S
H243 C231 0.950 . S
N244 C247 1.382 1_455 S
N244 C249 1.363 . S
N245 C247 1.371 . S
N245 C248 1.372 1_655 S
N246 C248 1.361 . S
N246 C249 1.377 . S
C247 N244 1.382 1_655 S
C247 N245 1.371 . S
C247 C250 1.480 . S
C248 N245 1.372 1_455 S
C248 N246 1.361 . S
C248 C256 1.457 . S
C249 N244 1.363 . S
C249 N246 1.377 . S
C249 C262 1.479 . S
C250 C247 1.480 . S
C250 C251 1.383 . S
C250 C255 1.385 . S
C251 H232 0.947 . S
C251 C250 1.383 . S
C251 C252 1.388 . S
C252 H233 0.946 . S
C252 C251 1.388 . S
C252 C253 1.384 . S
C253 C252 1.384 . S
C253 C254 1.377 . S
C254 H234 0.953 . S
C254 C253 1.377 . S
C254 C255 1.369 . S
C255 H235 0.945 . S
C255 C250 1.385 . S
C255 C254 1.369 . S
C256 C248 1.457 . S
C256 C257 1.372 1_455 S
C256 C261 1.364 . S
C257 H236 0.952 . S
C257 C256 1.372 1_655 S
C257 C258 1.389 . S
C258 H237 0.949 . S
C258 C257 1.389 . S
C258 C259 1.387 1_655 S
C259 C258 1.387 1_455 S
C259 C260 1.372 . S
C260 H238 0.950 . S
C260 C259 1.372 . S
C260 C261 1.379 . S
C261 H239 0.948 . S
C261 C256 1.364 . S
C261 C260 1.379 . S
C262 C231 1.383 . S
C262 C249 1.479 . S
C262 C263 1.398 . S
C263 C228 1.382 . S
C263 H240 0.951 . S
C263 C262 1.398 . S
C264 C265 1.384 . S
C264 H277 0.947 . S
C264 C299 1.382 . S
C265 C264 1.384 . S
C265 C266 1.378 . S
C266 C265 1.378 . S
C266 C267 1.378 . S
C266 H278 0.952 . S
C267 C266 1.378 . S
C267 H279 0.950 . S
C267 C298 1.383 . S
H268 C287 0.947 . S
H269 C288 0.946 . S
H270 C290 0.953 . S
H271 C291 0.945 . S
H272 C293 0.952 . S
H273 C294 0.949 . S
H274 C296 0.950 . S
H275 C297 0.948 . S
H276 C299 0.951 . S
H277 C264 0.947 . S
H278 C266 0.952 . S
H279 C267 0.950 . S
N280 C283 1.382 1_545 S
N280 C285 1.363 . S
N281 C283 1.371 . S
N281 C284 1.372 1_565 S
N282 C284 1.361 . S
N282 C285 1.377 . S
C283 N280 1.382 1_565 S
C283 N281 1.371 . S
C283 C286 1.480 . S
C284 N281 1.372 1_545 S
C284 N282 1.361 . S
C284 C292 1.457 . S
C285 N280 1.363 . S
C285 N282 1.377 . S
C285 C298 1.479 . S
C286 C283 1.480 . S
C286 C287 1.383 . S
C286 C291 1.385 . S
C287 H268 0.947 . S
C287 C286 1.383 . S
C287 C288 1.388 . S
C288 H269 0.946 . S
C288 C287 1.388 . S
C288 C289 1.384 . S
C289 C288 1.384 . S
C289 C290 1.377 . S
C290 H270 0.953 . S
C290 C289 1.377 . S
C290 C291 1.369 . S
C291 H271 0.945 . S
C291 C286 1.385 . S
C291 C290 1.369 . S
C292 C284 1.457 . S
C292 C293 1.372 1_545 S
C292 C297 1.364 . S
C293 H272 0.952 . S
C293 C292 1.372 1_565 S
C293 C294 1.389 . S
C294 H273 0.949 . S
C294 C293 1.389 . S
C294 C295 1.387 . S
C295 C294 1.387 . S
C295 C296 1.372 1_565 S
C296 H274 0.950 . S
C296 C295 1.372 1_545 S
C296 C297 1.379 . S
C297 H275 0.948 . S
C297 C292 1.364 . S
C297 C296 1.379 . S
C298 C267 1.383 . S
C298 C285 1.479 . S
C298 C299 1.398 . S
C299 C264 1.382 . S
C299 H276 0.951 . S
C299 C298 1.398 . S
C300 C301 1.384 . S
C300 H313 0.947 . S
C300 C335 1.382 . S
C301 C300 1.384 . S
C301 C302 1.378 . S
C302 C301 1.378 . S
C302 C303 1.378 . S
C302 H314 0.952 . S
C303 C302 1.378 . S
C303 H315 0.950 . S
C303 C334 1.383 . S
H304 C323 0.947 . S
H305 C324 0.946 . S
H306 C326 0.953 . S
H307 C327 0.945 . S
H308 C329 0.952 . S
H309 C330 0.949 . S
H310 C332 0.950 . S
H311 C333 0.948 . S
H312 C335 0.951 . S
H313 C300 0.947 . S
H314 C302 0.952 . S
H315 C303 0.950 . S
N316 C319 1.382 . S
N316 C321 1.363 . S
N317 C319 1.371 . S
N317 C320 1.372 . S
N318 C320 1.361 . S
N318 C321 1.377 . S
C319 N316 1.382 . S
C319 N317 1.371 . S
C319 C322 1.480 . S
C320 N317 1.372 . S
C320 N318 1.361 . S
C320 C328 1.457 1_554 S
C321 N316 1.363 . S
C321 N318 1.377 . S
C321 C334 1.479 . S
C322 C319 1.480 . S
C322 C323 1.383 . S
C322 C327 1.385 . S
C323 H304 0.947 . S
C323 C322 1.383 . S
C323 C324 1.388 . S
C324 H305 0.946 . S
C324 C323 1.388 . S
C324 C325 1.384 . S
C325 C324 1.384 . S
C325 C326 1.377 . S
C326 H306 0.953 . S
C326 C325 1.377 . S
C326 C327 1.369 . S
C327 H307 0.945 . S
C327 C322 1.385 . S
C327 C326 1.369 . S
C328 C320 1.457 1_556 S
C328 C329 1.372 . S
C328 C333 1.364 . S
C329 H308 0.952 . S
C329 C328 1.372 . S
C329 C330 1.389 . S
C330 H309 0.949 . S
C330 C329 1.389 . S
C330 C331 1.387 . S
C331 C330 1.387 . S
C331 C332 1.372 . S
C332 H310 0.950 . S
C332 C331 1.372 . S
C332 C333 1.379 . S
C333 H311 0.948 . S
C333 C328 1.364 . S
C333 C332 1.379 . S
C334 C303 1.383 . S
C334 C321 1.479 . S
C334 C335 1.398 . S
C335 C300 1.382 . S
C335 H312 0.951 . S
C335 C334 1.398 . S
C6 C325 3.379 . S
C59 C253 2.746 . S
C86 C289 2.416 . S
C15 C301 1.769 . S
C229 C50 3.230 . S
C265 C95 1.606 . S
C46 C181 1.810 . S
C99 C193 5.023 . S
C10 C121 3.364 . S
C157 C55 1.786 . S
C217 C90 4.881 . S
C19 C145 2.821 . S
C223 C18 2.033 . S
C49 C151 1.122 . S
C98 C187 1.463 . S
C295 C58 1.405 1_565 S
C331 C89 1.653 . S
C9 C259 1.094 . S
